
#######################################################################
#
#                 Cambridge Crystallographic Data Centre
#                                CCDC 
#
#######################################################################
#
# If this CIF has been generated from an entry in the Cambridge 
# Structural Database, then it will include bibliographic, chemical, 
# crystal, experimental, refinement or atomic coordinate data resulting 
# from the CCDC's data processing and validation procedures.
#
#######################################################################

data_BORRUW
_chemical_formula_moiety         'C28 H52 Li2 N6 Si2'
_chemical_name_systematic        
bis(\m~2~-1-(3,3-Dimethyl-2-(trimethylsilylamino)but-1-enyl)-3,5-dimethyl-1H-pyrazole-N,N,N^2^)-di-lithium
_symmetry_cell_setting           monoclinic
_symmetry_space_group_name_H-M   'C 2/c'
_symmetry_Int_Tables_number      15
_space_group_name_Hall           '-C 2yn'
loop_
_symmetry_equiv_pos_site_id
_symmetry_equiv_pos_as_xyz
1 x,y,z
2 -x,y,1/2-z
3 1/2+x,1/2+y,z
4 1/2-x,1/2+y,1/2-z
5 -x,-y,-z
6 x,-y,1/2+z
7 1/2-x,1/2-y,-z
8 1/2+x,1/2-y,1/2+z
_cell_length_a                   9.857(2)
_cell_length_b                   18.365(4)
_cell_length_c                   19.384(4)
_cell_angle_alpha                90
_cell_angle_beta                 99.51(3)
_cell_angle_gamma                90
_cell_volume                     3460.74
_exptl_crystal_colour            colorless
_chemical_melting_point          '190-192 deg.C'
_cell_formula_units_Z            4
_chemical_properties_physical    air-sensitive
loop_
_atom_site_label
_atom_site_type_symbol
_atom_site_fract_x
_atom_site_fract_y
_atom_site_fract_z
Si1 Si 0.37271(8) 0.05813(4) 0.35053(4)
N1 N 0.7105(2) 0.14022(12) 0.38985(11)
N2 N 0.6300(2) 0.17368(11) 0.43236(10)
N3 N 0.4100(2) 0.13881(11) 0.31339(10)
C1 C 0.9151(3) 0.0611(2) 0.40571(19)
H1 H 0.8844 0.0116 0.3999
H2 H 1.0002 0.0629 0.4380
H3 H 0.9289 0.0804 0.3614
C2 C 0.8090(3) 0.10555(15) 0.43359(15)
C3 C 0.7938(3) 0.11787(15) 0.50281(15)
H4 H 0.8502 0.1002 0.5425
C4 C 0.6800(3) 0.16098(15) 0.50123(13)
C5 C 0.6121(4) 0.19168(18) 0.55837(14)
H5 H 0.6127 0.2439 0.5560
H6 H 0.6611 0.1762 0.6029
H7 H 0.5188 0.1747 0.5529
C6 C 0.5192(3) 0.22095(14) 0.40489(13)
H8 H 0.5159 0.2664 0.4256
C7 C 0.4187(3) 0.20418(14) 0.35076(12)
C8 C 0.3050(3) 0.26190(17) 0.32857(15)
C9 C 0.2861(5) 0.2759(2) 0.25051(19)
H9 H 0.2206 0.3145 0.2385
H10 H 0.2530 0.2324 0.2258
H11 H 0.3726 0.2897 0.2378
C10 C 0.1691(4) 0.2311(3) 0.3447(3)
H12 H 0.0974 0.2664 0.3326
H13 H 0.1787 0.2199 0.3936
H14 H 0.1461 0.1875 0.3178
C11 C 0.3310(6) 0.3347(2) 0.3661(3)
H15 H 0.4141 0.3558 0.3553
H16 H 0.3402 0.3272 0.4157
H17 H 0.2552 0.3669 0.3510
C12 C 0.3370(4) 0.0681(2) 0.44194(15)
H18 H 0.4197 0.0825 0.4723
H19 H 0.3056 0.0224 0.4575
H20 H 0.2675 0.1045 0.4429
C13 C 0.2180(3) 0.01462(19) 0.29644(18)
H21 H 0.1406 0.0469 0.2936
H22 H 0.1975 -0.0303 0.3179
H23 H 0.2368 0.0051 0.2503
C14 C 0.5146(4) -0.01093(18) 0.3532(2)
H24 H 0.5493 -0.0099 0.3098
H25 H 0.4793 -0.0586 0.3603
H26 H 0.5875 0.0005 0.3909
Li1 Li 0.6109(4) 0.1392(3) 0.2917(2)
Si1A Si 0.62729(8) 0.05813(4) 0.14947(4)
N1A N 0.2895(2) 0.14022(12) 0.11015(11)
N2A N 0.3700(2) 0.17368(11) 0.06764(10)
N3A N 0.5900(2) 0.13881(11) 0.18661(10)
C1A C 0.0849(3) 0.0611(2) 0.09429(19)
H1A H 0.1156 0.0116 0.1001
H2A H -0.0002 0.0629 0.0620
H3A H 0.0711 0.0804 0.1386
C2A C 0.1910(3) 0.10555(15) 0.06641(15)
C3A C 0.2062(3) 0.11787(15) -0.00281(15)
H4A H 0.1498 0.1002 -0.0425
C4A C 0.3200(3) 0.16098(15) -0.00123(13)
C5A C 0.3879(4) 0.19168(18) -0.05837(14)
H5A H 0.3873 0.2439 -0.0560
H6A H 0.3389 0.1762 -0.1029
H7A H 0.4812 0.1747 -0.0529
C6A C 0.4808(3) 0.22095(14) 0.09511(13)
H8A H 0.4841 0.2664 0.0744
C7A C 0.5813(3) 0.20418(14) 0.14924(12)
C8A C 0.6950(3) 0.26190(17) 0.17143(15)
C9A C 0.7139(5) 0.2759(2) 0.24949(19)
H9A H 0.7794 0.3145 0.2615
H10A H 0.7470 0.2324 0.2742
H11A H 0.6274 0.2897 0.2622
C10A C 0.8309(4) 0.2311(3) 0.1553(3)
H12A H 0.9026 0.2664 0.1674
H13A H 0.8213 0.2199 0.1064
H14A H 0.8539 0.1875 0.1822
C11A C 0.6690(6) 0.3347(2) 0.1339(3)
H15A H 0.5859 0.3558 0.1447
H16A H 0.6598 0.3272 0.0843
H17A H 0.7448 0.3669 0.1490
C12A C 0.6630(4) 0.0681(2) 0.05806(15)
H18A H 0.5803 0.0825 0.0277
H19A H 0.6944 0.0224 0.0425
H20A H 0.7325 0.1045 0.0571
C13A C 0.7820(3) 0.01462(19) 0.20356(18)
H21A H 0.8594 0.0469 0.2064
H22A H 0.8025 -0.0303 0.1821
H23A H 0.7632 0.0051 0.2497
C14A C 0.4854(4) -0.01093(18) 0.1468(2)
H24A H 0.4507 -0.0099 0.1902
H25A H 0.5207 -0.0586 0.1397
H26A H 0.4125 0.0005 0.1091
Li1A Li 0.3891(4) 0.1392(3) 0.2083(2)
loop_
_geom_bond_atom_site_label_1
_geom_bond_atom_site_label_2
_geom_bond_site_symmetry_1
_geom_bond_site_symmetry_2
Si1 N3 1_555 1_555
N1 N2 1_555 1_555
N2 C4 1_555 1_555
N3 C7 1_555 1_555
C1 H1 1_555 1_555
H2 C1 1_555 1_555
H3 C1 1_555 1_555
C2 N1 1_555 1_555
C3 C2 1_555 1_555
H4 C3 1_555 1_555
C4 C3 1_555 1_555
C5 C4 1_555 1_555
H5 C5 1_555 1_555
H6 C5 1_555 1_555
H7 C5 1_555 1_555
C6 N2 1_555 1_555
H8 C6 1_555 1_555
C7 C6 1_555 1_555
C8 C7 1_555 1_555
C9 C8 1_555 1_555
H9 C9 1_555 1_555
H10 C9 1_555 1_555
H11 C9 1_555 1_555
C10 C8 1_555 1_555
H12 C10 1_555 1_555
H13 C10 1_555 1_555
H14 C10 1_555 1_555
C11 C8 1_555 1_555
H15 C11 1_555 1_555
H16 C11 1_555 1_555
H17 C11 1_555 1_555
C12 Si1 1_555 1_555
H18 C12 1_555 1_555
H19 C12 1_555 1_555
H20 C12 1_555 1_555
C13 Si1 1_555 1_555
H21 C13 1_555 1_555
H22 C13 1_555 1_555
H23 C13 1_555 1_555
C14 Si1 1_555 1_555
H24 C14 1_555 1_555
H25 C14 1_555 1_555
H26 C14 1_555 1_555
Li1 N1 1_555 1_555
Si1A N3A 1_555 1_555
N1A N2A 1_555 1_555
N2A C4A 1_555 1_555
N3A Li1 1_555 1_555
C1A H1A 1_555 1_555
H2A C1A 1_555 1_555
H3A C1A 1_555 1_555
C2A N1A 1_555 1_555
C3A C2A 1_555 1_555
H4A C3A 1_555 1_555
C4A C3A 1_555 1_555
C5A C4A 1_555 1_555
H5A C5A 1_555 1_555
H6A C5A 1_555 1_555
H7A C5A 1_555 1_555
C6A N2A 1_555 1_555
H8A C6A 1_555 1_555
C7A N3A 1_555 1_555
C8A C7A 1_555 1_555
C9A C8A 1_555 1_555
H9A C9A 1_555 1_555
H10A C9A 1_555 1_555
H11A C9A 1_555 1_555
C10A C8A 1_555 1_555
H12A C10A 1_555 1_555
H13A C10A 1_555 1_555
H14A C10A 1_555 1_555
C11A C8A 1_555 1_555
H15A C11A 1_555 1_555
H16A C11A 1_555 1_555
H17A C11A 1_555 1_555
C12A Si1A 1_555 1_555
H18A C12A 1_555 1_555
H19A C12A 1_555 1_555
H20A C12A 1_555 1_555
C13A Si1A 1_555 1_555
H21A C13A 1_555 1_555
H22A C13A 1_555 1_555
H23A C13A 1_555 1_555
C14A Si1A 1_555 1_555
H24A C14A 1_555 1_555
H25A C14A 1_555 1_555
H26A C14A 1_555 1_555
Li1A N3 1_555 1_555
N3 Li1 1_555 1_555
C1 C2 1_555 1_555
N1A Li1A 1_555 1_555
N3A Li1A 1_555 1_555
C1A C2A 1_555 1_555
C6A C7A 1_555 1_555

#END
