
#######################################################################
#
#                 Cambridge Crystallographic Data Centre
#                                CCDC 
#
#######################################################################
#
# If this CIF has been generated from an entry in the Cambridge 
# Structural Database, then it will include bibliographic, chemical, 
# crystal, experimental, refinement or atomic coordinate data resulting 
# from the CCDC's data processing and validation procedures.
#
#######################################################################

data_BORREG
_chemical_formula_moiety         'C26 H24 N4 O4 S1,C1 H4 O1'
_chemical_name_systematic        
'5-(Dimethylamino)-N-(4-((2-(2-hydroxybenzylidene)hydrazino)carbonyl)phenyl)-1-naphthalenesulfonamide methanol solvate'
_symmetry_cell_setting           triclinic
_symmetry_space_group_name_H-M   'P -1'
_symmetry_Int_Tables_number      2
_space_group_name_Hall           '-P 1'
loop_
_symmetry_equiv_pos_site_id
_symmetry_equiv_pos_as_xyz
1 x,y,z
2 -x,-y,-z
_cell_length_a                   10.1434(18)
_cell_length_b                   10.1853(19)
_cell_length_c                   14.427(3)
_cell_angle_alpha                94.337(9)
_cell_angle_beta                 108.283(8)
_cell_angle_gamma                111.195(8)
_cell_volume                     1289.09
_exptl_crystal_colour            yellow
_exptl_crystal_description       block
_cell_formula_units_Z            2
_exptl_crystal_recrystallization_method dichloromethane/methanol
loop_
_atom_site_label
_atom_site_type_symbol
_atom_site_fract_x
_atom_site_fract_y
_atom_site_fract_z
S1 S 0.67663(7) 0.32289(7) 0.31885(4)
O1 O 0.8007(2) 0.3238(2) 0.29204(14)
O2 O 0.6940(2) 0.3340(2) 0.42171(12)
O3 O 0.07816(17) 0.62304(18) 0.19842(11)
O4 O -0.1576(3) 0.8299(3) 0.28695(14)
H1 H -0.1807 0.7461 0.2614
N1 N 0.0931(3) -0.1492(3) -0.05236(19)
N2 N 0.6443(2) 0.4584(2) 0.28258(15)
H2 H 0.7064 0.5143 0.2590
N3 N 0.1388(2) 0.6469(2) 0.36460(14)
H3 H 0.1918 0.6339 0.4198
N4 N 0.0313(2) 0.7013(2) 0.36177(14)
C1 C 0.2371(3) -0.0307(3) -0.00904(19)
C2 C 0.3104(3) 0.0488(3) -0.0635(2)
H4 H 0.2654 0.0261 -0.1328
C3 C 0.4531(4) 0.1649(3) -0.0165(2)
H5 H 0.5017 0.2153 -0.0558
C4 C 0.5221(3) 0.2056(3) 0.08468(18)
H6 H 0.6164 0.2830 0.1140
C5 C 0.4488(3) 0.1290(2) 0.14469(17)
C6 C 0.5091(3) 0.1666(3) 0.25139(17)
C7 C 0.4351(3) 0.0870(3) 0.3063(2)
H7 H 0.4778 0.1119 0.3757
C8 C 0.2969(4) -0.0307(3) 0.2591(2)
H8 H 0.2481 -0.0848 0.2970
C9 C 0.2331(4) -0.0666(3) 0.1584(2)
H9 H 0.1385 -0.1432 0.1279
C10 C 0.3063(3) 0.0089(3) 0.09810(19)
C11 C 0.0951(4) -0.2902(3) -0.0502(3)
H10 H 0.1563 -0.2907 0.0157
H11 H 0.1370 -0.3125 -0.0973
H12 H -0.0068 -0.3611 -0.0675
C12 C 0.0002(5) -0.1488(5) -0.1522(4)
H13 H -0.0012 -0.0553 -0.1538
H14 H -0.1015 -0.2198 -0.1695
H15 H 0.0422 -0.1712 -0.1993
C13 C 0.5230(2) 0.4928(2) 0.28632(16)
C14 C 0.4586(3) 0.4630(3) 0.35831(19)
H16 H 0.4937 0.4157 0.4067
C15 C 0.3425(3) 0.5035(3) 0.35824(18)
H17 H 0.3010 0.4839 0.4073
C16 C 0.2869(2) 0.5723(2) 0.28696(16)
C17 C 0.3518(3) 0.6013(3) 0.21539(18)
H18 H 0.3157 0.6474 0.1664
C18 C 0.4687(3) 0.5630(3) 0.21562(18)
H19 H 0.5116 0.5847 0.1675
C19 C 0.1589(2) 0.6144(2) 0.27901(17)
C20 C 0.0089(3) 0.7214(3) 0.44276(18)
H20 H 0.0615 0.6947 0.4980
C21 C -0.0943(3) 0.7838(3) 0.45266(18)
C22 C -0.1151(3) 0.7960(3) 0.5430(2)
H21 H -0.0626 0.7634 0.5946
C23 C -0.2099(4) 0.8543(4) 0.5583(3)
H22 H -0.2228 0.8603 0.6193
C24 C -0.2859(4) 0.9039(4) 0.4829(3)
H23 H -0.3510 0.9436 0.4929
C25 C -0.2676(3) 0.8960(3) 0.3926(2)
H24 H -0.3191 0.9312 0.3423
C26 C -0.1722(3) 0.8355(3) 0.37652(19)
C27 C -0.2541(4) 0.5960(5) 0.0506(3)
O5 O -0.2208(2) 0.5595(2) 0.14225(14)
loop_
_geom_bond_atom_site_label_1
_geom_bond_atom_site_label_2
_geom_bond_site_symmetry_1
_geom_bond_site_symmetry_2
S1 O1 1_555 1_555
O2 S1 1_555 1_555
O3 C19 1_555 1_555
O4 H1 1_555 1_555
N1 C1 1_555 1_555
N2 S1 1_555 1_555
H2 N2 1_555 1_555
N3 H3 1_555 1_555
N4 N3 1_555 1_555
C1 C2 1_555 1_555
C2 H4 1_555 1_555
C3 C2 1_555 1_555
H5 C3 1_555 1_555
C4 C3 1_555 1_555
H6 C4 1_555 1_555
C5 C4 1_555 1_555
C6 S1 1_555 1_555
C7 C6 1_555 1_555
H7 C7 1_555 1_555
C8 C7 1_555 1_555
H8 C8 1_555 1_555
C9 C8 1_555 1_555
H9 C9 1_555 1_555
C10 C1 1_555 1_555
C11 N1 1_555 1_555
H10 C11 1_555 1_555
H11 C11 1_555 1_555
H12 C11 1_555 1_555
C12 N1 1_555 1_555
H13 C12 1_555 1_555
H14 C12 1_555 1_555
H15 C12 1_555 1_555
C13 N2 1_555 1_555
C14 C13 1_555 1_555
H16 C14 1_555 1_555
C15 C14 1_555 1_555
H17 C15 1_555 1_555
C16 C15 1_555 1_555
C17 C16 1_555 1_555
H18 C17 1_555 1_555
C18 C13 1_555 1_555
H19 C18 1_555 1_555
C19 N3 1_555 1_555
C20 N4 1_555 1_555
H20 C20 1_555 1_555
C21 C20 1_555 1_555
C22 C21 1_555 1_555
H21 C22 1_555 1_555
C23 C22 1_555 1_555
H22 C23 1_555 1_555
C24 C23 1_555 1_555
H23 C24 1_555 1_555
C25 C24 1_555 1_555
H24 C25 1_555 1_555
C26 O4 1_555 1_555
C27 O5 1_555 1_555
C5 C6 1_555 1_555
C5 C10 1_555 1_555
C9 C10 1_555 1_555
C16 C19 1_555 1_555
C17 C18 1_555 1_555
C21 C26 1_555 1_555
C25 C26 1_555 1_555

#END
