
#######################################################################
#
#                 Cambridge Crystallographic Data Centre
#                                CCDC 
#
#######################################################################
#
# If this CIF has been generated from an entry in the Cambridge 
# Structural Database, then it will include bibliographic, chemical, 
# crystal, experimental, refinement or atomic coordinate data resulting 
# from the CCDC's data processing and validation procedures.
#
#######################################################################

data_BORRAC
_chemical_formula_moiety         'C9 H18 N1 O1 1+,C4 H10 O2 P1 Se2 1-'
_chemical_name_systematic        
'2,2,6,6-Tetramethyl-4-oxopiperidinium O,O-diethyl phosphorodiselenoate'
_symmetry_cell_setting           monoclinic
_symmetry_space_group_name_H-M   'P 21/n'
_symmetry_Int_Tables_number      14
_space_group_name_Hall           '-P 2yn'
loop_
_symmetry_equiv_pos_site_id
_symmetry_equiv_pos_as_xyz
1 x,y,z
2 1/2-x,1/2+y,1/2-z
3 -x,-y,-z
4 1/2+x,1/2-y,1/2+z
_cell_length_a                   7.9318(13)
_cell_length_b                   22.409(4)
_cell_length_c                   11.2624(18)
_cell_angle_alpha                90
_cell_angle_beta                 102.172(3)
_cell_angle_gamma                90
_cell_volume                     1956.82
_exptl_crystal_colour            colorless
_exptl_crystal_description       plate
_chemical_melting_point          '152 deg.C (dec.)'
_cell_formula_units_Z            4
_exptl_crystal_recrystallization_method chloroform
loop_
_atom_site_label
_atom_site_type_symbol
_atom_site_fract_x
_atom_site_fract_y
_atom_site_fract_z
Se1 Se 0.63647(10) 0.22383(2) 0.24258(5)
Se2 Se 0.42538(10) 0.16583(3) -0.05107(5)
P1 P 0.5750(2) 0.14926(6) 0.12436(12)
O1 O 0.4921(6) 0.10097(16) 0.1993(3)
O2 O 0.7439(6) 0.11342(18) 0.1204(4)
C1 C 0.4443(12) 0.0429(3) 0.1508(7)
H3 H 0.3196 0.0418 0.1254
H4 H 0.4911 0.0379 0.0784
C2 C 0.4910(18) -0.0016(3) 0.2195(8)
H5 H 0.4536 -0.0377 0.1761
H6 H 0.4403 0.0011 0.2895
H7 H 0.6144 -0.0018 0.2449
C3 C 0.8711(12) 0.1350(4) 0.0596(7)
H8 H 0.8160 0.1505 -0.0195
H9 H 0.9351 0.1671 0.1061
C4 C 0.9850(13) 0.0883(6) 0.0453(11)
H10 H 1.0713 0.1032 0.0046
H11 H 0.9216 0.0568 -0.0021
H12 H 1.0397 0.0731 0.1237
O3 O 0.2428(7) 0.4867(2) 0.0290(5)
N1 N 0.3838(5) 0.31826(15) 0.0363(3)
H1 H 0.3354 0.2999 -0.0337
H2 H 0.4471 0.2906 0.0839
C5 C 0.5094(6) 0.3647(2) 0.0060(4)
C6 C 0.4003(7) 0.4152(2) -0.0647(5)
H13 H 0.4743 0.4488 -0.0722
H14 H 0.3487 0.4013 -0.1459
C7 C 0.2575(9) 0.4354(3) -0.0003(6)
C8 C 0.1373(7) 0.3868(2) 0.0234(5)
H15 H 0.0738 0.3711 -0.0533
H16 H 0.0549 0.4033 0.0670
C9 C 0.2375(7) 0.3364(2) 0.0979(4)
C10 C 0.6204(7) 0.3893(2) 0.1240(5)
H17 H 0.6683 0.4283 0.1138
H18 H 0.7109 0.3620 0.1616
C11 C 0.6150(7) 0.3326(3) -0.0722(5)
H19 H 0.6752 0.2998 -0.0275
H20 H 0.6968 0.3598 -0.0941
H21 H 0.5398 0.3179 -0.1444
C12 C 0.3163(9) 0.3578(3) 0.2274(5)
H22 H 0.3543 0.3252 0.2832
H23 H 0.2397 0.3840 0.2600
C13 C 0.1277(8) 0.2807(3) 0.0963(6)
H24 H 0.0877 0.2676 0.0140
H25 H 0.0305 0.2896 0.1317
H26 H 0.1954 0.2497 0.1423
C14? C 0.469(3) 0.3918(8) 0.191(3)
O4? O 0.495(4) 0.4458(9) 0.222(3)
loop_
_geom_bond_atom_site_label_1
_geom_bond_atom_site_label_2
_geom_bond_site_symmetry_1
_geom_bond_site_symmetry_2
Se1 P1 1_555 1_555
Se2 P1 1_555 1_555
P1 O1 1_555 1_555
O1 C1 1_555 1_555
O2 P1 1_555 1_555
O3 C7 1_555 1_555
N1 H1 1_555 1_555
H2 N1 1_555 1_555
C1 H3 1_555 1_555
H4 C1 1_555 1_555
C2 C1 1_555 1_555
H5 C2 1_555 1_555
H6 C2 1_555 1_555
H7 C2 1_555 1_555
C3 O2 1_555 1_555
H8 C3 1_555 1_555
H9 C3 1_555 1_555
C4 C3 1_555 1_555
H10 C4 1_555 1_555
H11 C4 1_555 1_555
H12 C4 1_555 1_555
C5 N1 1_555 1_555
C6 C5 1_555 1_555
H13 C6 1_555 1_555
H14 C6 1_555 1_555
C7 C6 1_555 1_555
C8 C7 1_555 1_555
H15 C8 1_555 1_555
H16 C8 1_555 1_555
C9 N1 1_555 1_555
C10 C5 1_555 1_555
H17 C10 1_555 1_555
H18 C10 1_555 1_555
C11 C5 1_555 1_555
H19 C11 1_555 1_555
H20 C11 1_555 1_555
H21 C11 1_555 1_555
C12 C9 1_555 1_555
H22 C12 1_555 1_555
H23 C12 1_555 1_555
C13 C9 1_555 1_555
H24 C13 1_555 1_555
H25 C13 1_555 1_555
H26 C13 1_555 1_555
C8 C9 1_555 1_555

#END
