
#######################################################################
#
#                 Cambridge Crystallographic Data Centre
#                                CCDC 
#
#######################################################################
#
# If this CIF has been generated from an entry in the Cambridge 
# Structural Database, then it will include bibliographic, chemical, 
# crystal, experimental, refinement or atomic coordinate data resulting 
# from the CCDC's data processing and validation procedures.
#
#######################################################################

data_BOSFEV
_chemical_name_common            
'(R)-t-Butyl 5-((S)-1-methoxy-3-methyl-1-oxobutan-2-ylcarbamoyl)-3-oxo-2-phenylpyrazolidine-1-carboxylate'
_chemical_formula_moiety         'C21 H29 N3 O6'
_chemical_name_systematic        
'(R,S)-Methyl N-((2-(((2-methyl-2-propanyl)oxy)carbonyl)-5-oxo-1-phenyl-3-pyrazolidinyl)carbonyl)valinate'
_symmetry_cell_setting           monoclinic
_symmetry_space_group_name_H-M   'P 21'
_symmetry_Int_Tables_number      4
_space_group_name_Hall           'P 2yb'
loop_
_symmetry_equiv_pos_site_id
_symmetry_equiv_pos_as_xyz
1 x,y,z
2 -x,1/2+y,-z
_cell_length_a                   6.3290(2)
_cell_length_b                   14.4830(5)
_cell_length_c                   12.3790(5)
_cell_angle_alpha                90
_cell_angle_beta                 104.0090(10)
_cell_angle_gamma                90
_cell_volume                     1100.95
_exptl_crystal_colour            colorless
_exptl_crystal_description       prism
_chemical_melting_point          '122.8-124.2 deg.C'
_cell_formula_units_Z            2
loop_
_atom_site_label
_atom_site_type_symbol
_atom_site_fract_x
_atom_site_fract_y
_atom_site_fract_z
O1 O -1.3573(3) -0.35689(17) -0.6485(2)
O2 O -0.6458(3) -0.39963(16) -0.44610(19)
O3 O -0.5238(4) -0.25370(16) -0.4617(2)
O4 O -1.0078(4) -0.1393(2) -0.8015(2)
O5 O -0.8661(5) -0.39885(19) -0.9318(2)
O6 O -0.9332(5) -0.3153(3) -1.0867(2)
N1 N -0.9858(4) -0.37401(19) -0.6107(2)
N2 N -0.8002(4) -0.31333(18) -0.5948(2)
N3 N -0.7629(5) -0.2534(2) -0.7989(2)
H1 H -0.6686 -0.2993 -0.7565
C1 C -0.9669(5) -0.4674(2) -0.6435(3)
C2 C -0.7845(5) -0.4963(2) -0.6772(3)
H2 H -0.6679 -0.4538 -0.6767
C3 C -0.7707(6) -0.5861(3) -0.7107(3)
H3 H -0.6409 -0.6039 -0.7325
C4 C -0.9346(6) -0.6483(3) -0.7113(4)
H4 H -0.9260 -0.7103 -0.7374
C5 C -1.1135(6) -0.6196(3) -0.6761(3)
H5 H -1.2289 -0.6619 -0.6737
C6 C -1.1306(6) -0.5304(3) -0.6405(3)
H6 H -1.2555 -0.5114 -0.6150
C7 C -1.1756(5) -0.3237(3) -0.6252(3)
C8 C -1.1166(5) -0.2237(3) -0.6124(3)
H7 H -1.2192 -0.1884 -0.6666
H8 H -1.1224 -0.2045 -0.5390
C9 C -0.8879(5) -0.2213(2) -0.6319(3)
H9 H -0.8045 -0.1734 -0.5875
C10 C -0.8914(5) -0.2013(2) -0.7531(3)
C11 C -0.7561(6) -0.2421(3) -0.9155(3)
H10 H -0.8403 -0.1879 -0.9417
C12 C -0.5211(7) -0.2279(4) -0.9275(4)
H11 H -0.4495 -0.1894 -0.8664
C13 C -0.3981(7) -0.3189(5) -0.9208(4)
H12 H -0.2529 -0.3076 -0.9284
H13 H -0.4730 -0.3583 -0.9802
H14 H -0.3919 -0.3482 -0.8506
C14 C -0.5180(10) -0.1751(4) -1.0324(5)
H15 H -0.3713 -0.1669 -1.0393
H16 H -0.5835 -0.1158 -1.0281
H17 H -0.6004 -0.2079 -1.0962
C15 C -0.8627(6) -0.3216(3) -0.9875(3)
C16 C -0.9532(10) -0.4793(3) -0.9965(5)
H18 H -0.9502 -0.5318 -0.9488
H19 H -0.8667 -0.4919 -1.0487
H20 H -1.1007 -0.4670 -1.0361
C17 C -0.6456(5) -0.3171(2) -0.4928(3)
C18 C -0.4801(5) -0.4228(3) -0.3420(3)
C19 C -0.2544(6) -0.4201(3) -0.3623(3)
H21 H -0.1483 -0.4348 -0.2949
H22 H -0.2249 -0.3598 -0.3874
H23 H -0.2471 -0.4649 -0.4184
C20 C -0.5038(7) -0.3580(3) -0.2501(3)
H24 H -0.3962 -0.3732 -0.1834
H25 H -0.6465 -0.3642 -0.2369
H26 H -0.4826 -0.2955 -0.2711
C21 C -0.5437(8) -0.5192(3) -0.3210(4)
H27 H -0.4478 -0.5431 -0.2546
H28 H -0.5351 -0.5573 -0.3833
H29 H -0.6904 -0.5192 -0.3124
loop_
_geom_bond_atom_site_label_1
_geom_bond_atom_site_label_2
_geom_bond_site_symmetry_1
_geom_bond_site_symmetry_2
O1 C7 1_555 1_555
O2 C17 1_555 1_555
O3 C17 1_555 1_555
O4 C10 1_555 1_555
O5 C15 1_555 1_555
O6 C15 1_555 1_555
N1 N2 1_555 1_555
N2 C9 1_555 1_555
N3 H1 1_555 1_555
C1 N1 1_555 1_555
C2 C1 1_555 1_555
H2 C2 1_555 1_555
C3 C2 1_555 1_555
H3 C3 1_555 1_555
C4 C3 1_555 1_555
H4 C4 1_555 1_555
C5 C4 1_555 1_555
H5 C5 1_555 1_555
C6 C1 1_555 1_555
H6 C6 1_555 1_555
C7 N1 1_555 1_555
C8 C7 1_555 1_555
H7 C8 1_555 1_555
H8 C8 1_555 1_555
C9 C8 1_555 1_555
H9 C9 1_555 1_555
C10 N3 1_555 1_555
C11 N3 1_555 1_555
H10 C11 1_555 1_555
C12 C11 1_555 1_555
H11 C12 1_555 1_555
C13 C12 1_555 1_555
H12 C13 1_555 1_555
H13 C13 1_555 1_555
H14 C13 1_555 1_555
C14 C12 1_555 1_555
H15 C14 1_555 1_555
H16 C14 1_555 1_555
H17 C14 1_555 1_555
C15 C11 1_555 1_555
C16 O5 1_555 1_555
H18 C16 1_555 1_555
H19 C16 1_555 1_555
H20 C16 1_555 1_555
C17 N2 1_555 1_555
C18 O2 1_555 1_555
C19 C18 1_555 1_555
H21 C19 1_555 1_555
H22 C19 1_555 1_555
H23 C19 1_555 1_555
C20 C18 1_555 1_555
H24 C20 1_555 1_555
H25 C20 1_555 1_555
H26 C20 1_555 1_555
C21 C18 1_555 1_555
H27 C21 1_555 1_555
H28 C21 1_555 1_555
H29 C21 1_555 1_555
C5 C6 1_555 1_555
C9 C10 1_555 1_555

#END
