
#######################################################################
#
#                 Cambridge Crystallographic Data Centre
#                                CCDC 
#
#######################################################################
#
# If this CIF has been generated from an entry in the Cambridge 
# Structural Database, then it will include bibliographic, chemical, 
# crystal, experimental, refinement or atomic coordinate data resulting 
# from the CCDC's data processing and validation procedures.
#
#######################################################################

data_BOSGOH
_chemical_formula_moiety         'C14 H12 N2'
_chemical_name_systematic        2-Phenyl-3,4-dihydroquinazoline
_symmetry_cell_setting           monoclinic
_symmetry_space_group_name_H-M   'P 21/c'
_symmetry_Int_Tables_number      14
_space_group_name_Hall           '-P 2ybc'
loop_
_symmetry_equiv_pos_site_id
_symmetry_equiv_pos_as_xyz
1 x,y,z
2 -x,1/2+y,1/2-z
3 -x,-y,-z
4 x,1/2-y,1/2+z
_cell_length_a                   9.026(6)
_cell_length_b                   23.908(16)
_cell_length_c                   10.185(7)
_cell_angle_alpha                90
_cell_angle_beta                 90.752(12)
_cell_angle_gamma                90
_cell_volume                     2197.67
_exptl_crystal_colour            yellow
_exptl_crystal_description       block
_cell_formula_units_Z            8
loop_
_atom_site_label
_atom_site_type_symbol
_atom_site_fract_x
_atom_site_fract_y
_atom_site_fract_z
C1 C 0.7410(7) 0.3564(3) 0.3040(6)
H1 H 0.6679 0.3456 0.3623
C2 C 0.8796(9) 0.4286(3) 0.2002(8)
H2 H 0.9009 0.4663 0.1878
C3 C 0.9640(8) 0.3879(3) 0.1347(7)
H3 H 1.0385 0.3986 0.0776
C4 C 0.9351(7) 0.3330(3) 0.1559(6)
H4 H 0.9909 0.3059 0.1134
C5 C 0.8234(6) 0.3165(3) 0.2401(5)
C6 C 0.7948(6) 0.2559(3) 0.2604(5)
C7 C 0.8105(6) 0.1632(2) 0.1971(6)
C8 C 0.8793(7) 0.1249(3) 0.1161(6)
H5 H 0.9223 0.1369 0.0386
C9 C 0.8840(8) 0.0698(3) 0.1496(7)
H6 H 0.9305 0.0445 0.0943
C10 C 0.8227(9) 0.0510(3) 0.2616(8)
H7 H 0.8286 0.0132 0.2830
C11 C 0.7507(8) 0.0878(3) 0.3451(7)
H8 H 0.7058 0.0749 0.4209
C12 C 0.7470(7) 0.1449(3) 0.3130(6)
C13 C 0.6745(7) 0.1867(3) 0.3949(6)
H9 H 0.5712 0.1902 0.3687
H10 H 0.6787 0.1751 0.4861
C14 C 0.7680(10) 0.4139(3) 0.2810(8)
H11 H 0.7101 0.4411 0.3206
N1 N 0.8157(5) 0.2200(2) 0.1634(5)
N2 N 0.7479(6) 0.2397(2) 0.3806(5)
H12 H 0.7618 0.2610 0.4477
C15 C 0.2257(8) 0.3544(3) 0.4149(6)
H13 H 0.1473 0.3421 0.3623
C16 C 0.2473(9) 0.4112(3) 0.4334(7)
H14 H 0.1835 0.4369 0.3940
C17 C 0.3654(9) 0.4293(3) 0.5117(7)
H15 H 0.3812 0.4673 0.5253
C18 C 0.4592(8) 0.3903(3) 0.5690(7)
H16 H 0.5391 0.4023 0.6201
C19 C 0.4362(7) 0.3349(3) 0.5516(6)
H17 H 0.4995 0.3094 0.5923
C20 C 0.3195(6) 0.3156(2) 0.4738(5)
C21 C 0.2952(6) 0.2546(2) 0.4550(5)
C22 C 0.3177(6) 0.1639(2) 0.5241(6)
C23 C 0.3874(6) 0.1263(3) 0.6108(6)
H18 H 0.4322 0.1395 0.6875
C24 C 0.3894(7) 0.0703(3) 0.5824(7)
H19 H 0.4300 0.0454 0.6432
C25 C 0.3333(8) 0.0504(3) 0.4675(8)
H20 H 0.3411 0.0125 0.4481
C26 C 0.2651(8) 0.0859(3) 0.3794(7)
H21 H 0.2240 0.0719 0.3019
C27 C 0.2574(6) 0.1432(3) 0.4062(6)
C28 C 0.1838(7) 0.1833(3) 0.3173(6)
H22 H 0.1938 0.1710 0.2271
H23 H 0.0790 0.1853 0.3369
N3 N 0.3159(5) 0.2208(2) 0.5535(5)
N4 N 0.2504(6) 0.2375(2) 0.3337(5)
H24 H 0.2618 0.2590 0.2669
loop_
_geom_bond_atom_site_label_1
_geom_bond_atom_site_label_2
_geom_bond_site_symmetry_1
_geom_bond_site_symmetry_2
C1 H1 1_555 1_555
C2 H2 1_555 1_555
C3 C2 1_555 1_555
H3 C3 1_555 1_555
C4 C3 1_555 1_555
H4 C4 1_555 1_555
C5 C1 1_555 1_555
C6 C5 1_555 1_555
C7 C8 1_555 1_555
C8 H5 1_555 1_555
C9 C8 1_555 1_555
H6 C9 1_555 1_555
C10 C9 1_555 1_555
H7 C10 1_555 1_555
C11 C10 1_555 1_555
H8 C11 1_555 1_555
C12 C7 1_555 1_555
C13 C12 1_555 1_555
H9 C13 1_555 1_555
H10 C13 1_555 1_555
C14 C1 1_555 1_555
H11 C14 1_555 1_555
N1 C6 1_555 1_555
N2 C6 1_555 1_555
H12 N2 1_555 1_555
C15 H13 1_555 1_555
C16 C15 1_555 1_555
H14 C16 1_555 1_555
C17 C16 1_555 1_555
H15 C17 1_555 1_555
C18 C17 1_555 1_555
H16 C18 1_555 1_555
C19 C18 1_555 1_555
H17 C19 1_555 1_555
C20 C15 1_555 1_555
C21 C20 1_555 1_555
C22 C23 1_555 1_555
C23 H18 1_555 1_555
C24 C23 1_555 1_555
H19 C24 1_555 1_555
C25 C24 1_555 1_555
H20 C25 1_555 1_555
C26 C25 1_555 1_555
H21 C26 1_555 1_555
C27 C22 1_555 1_555
C28 C27 1_555 1_555
H22 C28 1_555 1_555
H23 C28 1_555 1_555
N3 C21 1_555 1_555
N4 C21 1_555 1_555
H24 N4 1_555 1_555
C2 C14 1_555 1_555
C4 C5 1_555 1_555
C7 N1 1_555 1_555
C11 C12 1_555 1_555
C13 N2 1_555 1_555
C19 C20 1_555 1_555
C22 N3 1_555 1_555
C26 C27 1_555 1_555
C28 N4 1_555 1_555

#END
