
#######################################################################
#
#                 Cambridge Crystallographic Data Centre
#                                CCDC 
#
#######################################################################
#
# If this CIF has been generated from an entry in the Cambridge 
# Structural Database, then it will include bibliographic, chemical, 
# crystal, experimental, refinement or atomic coordinate data resulting 
# from the CCDC's data processing and validation procedures.
#
#######################################################################

data_BOSMEC
_chemical_formula_moiety         
'C36 H36 N24 O12,C6 H16 N2 2+,2(Cl1 1-),8(H2 O1)'
_chemical_name_systematic        
"Cucurbit(6)uril N,N'-dimethylpiperazinediium clathrate dichloride octahydrate"
_symmetry_cell_setting           monoclinic
_symmetry_space_group_name_H-M   'P 21/c'
_symmetry_Int_Tables_number      14
_space_group_name_Hall           '-P 2ybc'
loop_
_symmetry_equiv_pos_site_id
_symmetry_equiv_pos_as_xyz
1 x,y,z
2 -x,1/2+y,1/2-z
3 -x,-y,-z
4 x,1/2-y,1/2+z
_cell_length_a                   12.0860(2)
_cell_length_b                   20.2780(3)
_cell_length_c                   12.5884(2)
_cell_angle_alpha                90
_cell_angle_beta                 112.179(1)
_cell_angle_gamma                90
_cell_volume                     2856.89
_exptl_crystal_colour            colorless
_exptl_crystal_description       block
_cell_formula_units_Z            2
loop_
_atom_site_label
_atom_site_type_symbol
_atom_site_fract_x
_atom_site_fract_y
_atom_site_fract_z
Cl1 Cl 1.48525(3) -0.286557(18) -0.03585(3)
O1 O 0.65069(10) -0.41577(5) 0.49846(9)
O2 O 0.80738(9) -0.47627(5) 0.10994(9)
O3 O 0.89058(9) -0.29907(5) 0.61296(9)
O4 O 1.03423(9) -0.38180(5) 0.22232(9)
O5 O 1.15323(9) -0.35783(5) 0.79947(9)
O6 O 1.33494(9) -0.42894(5) 0.41567(9)
N1 N 0.57899(11) -0.46625(6) 0.32122(11)
N2 N 0.64892(11) -0.49213(6) 0.16669(11)
N3 N 0.67749(11) -0.37123(6) 0.33988(11)
N4 N 0.71444(11) -0.39042(6) 0.16433(10)
N5 N 0.83155(11) -0.28804(6) 0.41635(11)
N6 N 0.88925(11) -0.32266(6) 0.25938(10)
N7 N 1.02023(11) -0.26762(6) 0.52592(11)
N8 N 1.07959(11) -0.30718(6) 0.37177(11)
N9 N 1.20892(11) -0.31179(6) 0.65917(11)
N10 N 1.27339(11) -0.34426(6) 0.50393(11)
N11 N 1.31340(11) -0.39668(6) 0.75912(11)
N12 N 1.39519(11) -0.42029(6) 0.61302(10)
C1 C 0.57138(13) -0.45272(7) 0.20604(13)
C2 C 0.62703(13) -0.38274(7) 0.21656(13)
C3 C 0.63762(13) -0.41752(7) 0.39741(13)
C4 C 0.73262(13) -0.45494(7) 0.14496(12)
C5 C 0.70761(14) -0.30493(8) 0.38575(14)
C6 C 0.79066(13) -0.33817(8) 0.15350(13)
C7 C 0.88387(13) -0.26943(7) 0.33444(13)
C8 C 1.01746(13) -0.25731(7) 0.41155(13)
C9 C 0.91174(13) -0.28718(7) 0.52766(13)
C10 C 1.00380(13) -0.34188(7) 0.27911(13)
C11 C 1.12422(14) -0.25791(8) 0.62965(13)
C12 C 1.20758(13) -0.30702(8) 0.40173(13)
C13 C 1.30574(13) -0.31797(7) 0.61890(13)
C14 C 1.38354(13) -0.37371(7) 0.69501(13)
C15 C 1.21781(13) -0.35602(7) 0.74501(13)
C16 C 1.33395(13) -0.40128(7) 0.50198(13)
C17 C 0.63526(14) -0.56180(7) 0.14088(13)
C18 C 0.52619(14) -0.52308(7) 0.35371(14)
H1 H 0.4898(15) -0.4558(8) 0.1534(14)
H2 H 0.5697(14) -0.3495(8) 0.1780(13)
H3 H 0.6904(14) -0.3012(8) 0.4552(15)
H4 H 0.6569(15) -0.2733(8) 0.3263(14)
H5 H 0.8226(14) -0.3519(8) 0.0972(14)
H6 H 0.7424(13) -0.2990(8) 0.1271(13)
H7 H 0.8420(14) -0.2318(8) 0.2875(14)
H8 H 1.0484(14) -0.2134(8) 0.4021(13)
H9 H 1.0944(15) -0.2547(8) 0.6904(15)
H10 H 1.1655(15) -0.2179(9) 0.6213(14)
H11 H 1.2212(14) -0.3269(8) 0.3392(15)
H12 H 1.2358(15) -0.2604(9) 0.4118(14)
H13 H 1.3469(14) -0.2763(9) 0.6258(13)
H14 H 1.4600(14) -0.3596(7) 0.7467(14)
H15 H 0.6764(14) -0.5703(8) 0.0900(14)
H16 H 0.5483(15) -0.5721(8) 0.1023(14)
H17 H 0.5060(15) -0.5105(8) 0.4180(15)
H18 H 0.4544(15) -0.5347(8) 0.2879(15)
O1B O 1.34931(10) -0.58423(5) 0.50154(9)
O2B O 1.19262(9) -0.52373(5) 0.89006(9)
O3B O 1.10942(9) -0.70093(5) 0.38704(9)
O4B O 0.96577(9) -0.61820(5) 0.77768(9)
O5B O 0.84677(9) -0.64217(5) 0.20053(9)
O6B O 0.66506(9) -0.57106(5) 0.58433(9)
N1B N 1.42101(11) -0.53375(6) 0.67878(11)
N2B N 1.35108(11) -0.50787(6) 0.83331(11)
N3B N 1.32251(11) -0.62877(6) 0.66012(11)
N4B N 1.28556(11) -0.60958(6) 0.83567(10)
N5B N 1.16845(11) -0.71196(6) 0.58365(11)
N6B N 1.11075(11) -0.67734(6) 0.74062(10)
N7B N 0.97977(11) -0.73238(6) 0.47408(11)
N8B N 0.92041(11) -0.69282(6) 0.62823(11)
N9B N 0.79108(11) -0.68821(6) 0.34083(11)
N10B N 0.72661(11) -0.65574(6) 0.49607(11)
N11B N 0.68660(11) -0.60332(6) 0.24088(11)
N12B N 0.60481(11) -0.57971(6) 0.38698(10)
C1B C 1.42862(13) -0.54728(7) 0.79396(13)
C2B C 1.37297(13) -0.61726(7) 0.78344(13)
C3B C 1.36238(13) -0.58248(7) 0.60259(13)
C4B C 1.26738(13) -0.54506(7) 0.85504(12)
C5B C 1.29239(14) -0.69507(8) 0.61425(14)
C6B C 1.20934(13) -0.66183(8) 0.84650(13)
C7B C 1.11613(13) -0.73057(7) 0.66556(13)
C8B C 0.98254(13) -0.74269(7) 0.58845(13)
C9B C 1.08826(13) -0.71282(7) 0.47234(13)
C10B C 0.99620(13) -0.65812(7) 0.72089(13)
C11B C 0.87578(14) -0.74209(8) 0.37035(13)
C12B C 0.79242(13) -0.69298(8) 0.59827(13)
C13B C 0.69426(13) -0.68203(7) 0.38110(13)
C14B C 0.61646(13) -0.62629(7) 0.30499(13)
C15B C 0.78219(13) -0.64398(7) 0.25499(13)
C16B C 0.66605(13) -0.59872(7) 0.49802(13)
C17B C 1.36474(14) -0.43820(7) 0.85912(13)
C18B C 1.47381(14) -0.47692(7) 0.64629(14)
H1B H 1.5102(15) -0.5442(8) 0.8466(14)
H2B H 1.4303(14) -0.6505(8) 0.8220(13)
H3B H 1.3096(14) -0.6988(8) 0.5448(15)
H4B H 1.3431(15) -0.7267(8) 0.6737(14)
H5B H 1.1774(14) -0.6481(8) 0.9028(14)
H6B H 1.2576(13) -0.7010(8) 0.8729(13)
H7B H 1.1580(14) -0.7682(8) 0.7125(14)
H8B H 0.9516(14) -0.7866(8) 0.5979(13)
H9B H 0.9056(15) -0.7453(8) 0.3096(15)
H10B H 0.8345(15) -0.7821(9) 0.3787(14)
H11B H 0.7788(14) -0.6731(8) 0.6608(15)
H12B H 0.7642(15) -0.7396(9) 0.5882(14)
H13B H 0.6531(14) -0.7237(9) 0.3742(13)
H14B H 0.5400(14) -0.6404(7) 0.2533(14)
H15B H 1.3236(14) -0.4297(8) 0.9100(14)
H16B H 1.4517(15) -0.4279(8) 0.8977(14)
H17B H 1.4940(15) -0.4895(8) 0.5820(15)
H18B H 1.5456(15) -0.4653(8) 0.7121(15)
O7 O 1.41793(10) -0.33516(7) 0.29571(10)
H19 H 1.435(2) -0.3011(14) 0.338(2)
H20 H 1.397(2) -0.3675(12) 0.332(2)
O8 O 1.30055(11) -0.35948(6) 0.06630(12)
H21 H 1.342(2) -0.3499(12) 0.140(2)
H22 H 1.336(2) -0.3402(12) 0.029(2)
O9 O 0.62337(11) -0.17813(7) 0.15334(11)
H23 H 0.640(2) -0.1511(12) 0.111(2)
H24 H 0.583(2) -0.2076(12) 0.105(2)
O10 O 0.69055(12) -0.13007(7) 0.37891(12)
H25 H 0.669(2) -0.1478(13) 0.307(2)
H26 H 0.651(2) -0.1504(13) 0.412(2)
N13 N -0.03169(12) -0.01337(7) 0.37822(12)
C19 C -0.11233(15) 0.02528(8) 0.42061(15)
C20 C 0.04110(15) -0.06102(8) 0.46958(15)
C21 C -0.10100(17) -0.04787(10) 0.26810(16)
H27 H 0.0227(18) 0.0150(10) 0.3669(16)
H28 H -0.1691(16) -0.0067(9) 0.4336(15)
H29 H -0.1558(16) 0.0564(9) 0.3630(16)
H30 H -0.0173(15) -0.0939(9) 0.4817(14)
H31 H 0.0951(16) -0.0848(9) 0.4416(15)
H32 H -0.1465(17) -0.0142(10) 0.2073(17)
H33 H -0.1547(19) -0.0802(10) 0.2863(17)
H34 H -0.0444(18) -0.0723(10) 0.2397(17)
N13B N 0.03169(12) 0.01337(7) 0.62178(12)
C19B C 0.11233(15) -0.02528(8) 0.57939(15)
C20B C -0.04110(15) 0.06102(8) 0.53042(15)
C21B C 0.10100(17) 0.04787(10) 0.73190(16)
H27B H -0.0227(18) -0.0150(10) 0.6331(16)
H28B H 0.1691(16) 0.0067(9) 0.5664(15)
H29B H 0.1558(16) -0.0564(9) 0.6370(16)
H30B H 0.0173(15) 0.0939(9) 0.5183(14)
H31B H -0.0951(16) 0.0848(9) 0.5584(15)
H32B H 0.1465(17) 0.0142(10) 0.7927(17)
H33B H 0.1547(19) 0.0802(10) 0.7137(17)
H34B H 0.0444(18) 0.0723(10) 0.7603(17)
C22? C 0.943(2) -0.4886(13) 0.474(2)
C23? C 0.910(3) -0.4905(16) 0.400(3)
C24? C 0.900(4) -0.519(2) 0.478(3)
C25? C 0.998(6) -0.463(3) 0.483(4)
C26? C 0.953(4) -0.437(2) 0.506(3)
loop_
_geom_bond_atom_site_label_1
_geom_bond_atom_site_label_2
_geom_bond_site_symmetry_1
_geom_bond_site_symmetry_2
O1 C3 1_555 1_555
O2 C4 1_555 1_555
O3 C9 1_555 1_555
O4 C10 1_555 1_555
O5 C15 1_555 1_555
O6 C16 1_555 1_555
N1 C1 1_555 1_555
N2 C1 1_555 1_555
N3 C2 1_555 1_555
N4 C2 1_555 1_555
N5 C5 1_555 1_555
N6 C6 1_555 1_555
N7 C8 1_555 1_555
N8 C8 1_555 1_555
N9 C11 1_555 1_555
N10 C12 1_555 1_555
N11 C14 1_555 1_555
N12 C14 1_555 1_555
C1 C2 1_555 1_555
C2 H2 1_555 1_555
C3 N1 1_555 1_555
C4 N2 1_555 1_555
C5 N3 1_555 1_555
C6 N4 1_555 1_555
C7 N5 1_555 1_555
C8 C7 1_555 1_555
C9 N5 1_555 1_555
C10 N6 1_555 1_555
C11 N7 1_555 1_555
C12 N8 1_555 1_555
C13 N9 1_555 1_555
C14 C13 1_555 1_555
C15 N9 1_555 1_555
C16 N10 1_555 1_555
C17 N2 1_555 1_555
C18 N1 1_555 1_555
H1 C1 1_555 1_555
H3 C5 1_555 1_555
H4 C5 1_555 1_555
H5 C6 1_555 1_555
H6 C6 1_555 1_555
H7 C7 1_555 1_555
H8 C8 1_555 1_555
H9 C11 1_555 1_555
H10 C11 1_555 1_555
H11 C12 1_555 1_555
H12 C12 1_555 1_555
H13 C13 1_555 1_555
H14 C14 1_555 1_555
H15 C17 1_555 1_555
H16 C17 1_555 1_555
H17 C18 1_555 1_555
H18 C18 1_555 1_555
O7 H19 1_555 1_555
H20 O7 1_555 1_555
O8 H21 1_555 1_555
H22 O8 1_555 1_555
O9 H23 1_555 1_555
H24 O9 1_555 1_555
O10 H25 1_555 1_555
H26 O10 1_555 1_555
N13 C19 1_555 1_555
C19 H28 1_555 1_555
C20 N13 1_555 1_555
C21 N13 1_555 1_555
H27 N13 1_555 1_555
H29 C19 1_555 1_555
H30 C20 1_555 1_555
H31 C20 1_555 1_555
H32 C21 1_555 1_555
H33 C21 1_555 1_555
H34 C21 1_555 1_555
O1B C3B 1_555 1_555
O2B C4B 1_555 1_555
O3B C9B 1_555 1_555
O4B C10B 1_555 1_555
O5B C15B 1_555 1_555
O6B C16B 1_555 1_555
N1B C1B 1_555 1_555
N2B C1B 1_555 1_555
N3B C2B 1_555 1_555
N4B C2B 1_555 1_555
N5B C5B 1_555 1_555
N6B C6B 1_555 1_555
N7B C8B 1_555 1_555
N8B C8B 1_555 1_555
N9B C11B 1_555 1_555
N10B C12B 1_555 1_555
N11B C17 1_555 1_555
N12B C18 1_555 1_555
C1B C2B 1_555 1_555
C2B H2B 1_555 1_555
C3B N1B 1_555 1_555
C4B N2B 1_555 1_555
C5B N3B 1_555 1_555
C6B N4B 1_555 1_555
C7B N5B 1_555 1_555
C8B C7B 1_555 1_555
C9B N5B 1_555 1_555
C10B N6B 1_555 1_555
C11B N7B 1_555 1_555
C12B N8B 1_555 1_555
C13B N9B 1_555 1_555
C14B N11B 1_555 1_555
C15B N9B 1_555 1_555
C16B N10B 1_555 1_555
C17B N11 1_555 1_555
C18B N12 1_555 1_555
H1B C1B 1_555 1_555
H3B C5B 1_555 1_555
H4B C5B 1_555 1_555
H5B C6B 1_555 1_555
H6B C6B 1_555 1_555
H7B C7B 1_555 1_555
H8B C8B 1_555 1_555
H9B C11B 1_555 1_555
H10B C11B 1_555 1_555
H11B C12B 1_555 1_555
H12B C12B 1_555 1_555
H13B C13B 1_555 1_555
H14B C14B 1_555 1_555
H15B C17B 1_555 1_555
H16B C17B 1_555 1_555
H17B C18B 1_555 1_555
H18B C18B 1_555 1_555
N13B C19B 1_555 1_555
C19B C20 1_555 1_555
C20B C19 1_555 1_555
C21B N13B 1_555 1_555
H27B N13B 1_555 1_555
H28B C19B 1_555 1_555
H29B C19B 1_555 1_555
H30B C20B 1_555 1_555
H31B C20B 1_555 1_555
H32B C21B 1_555 1_555
H33B C21B 1_555 1_555
H34B C21B 1_555 1_555
N3 C3 1_555 1_555
N4 C4 1_555 1_555
N6 C7 1_555 1_555
N7 C9 1_555 1_555
N8 C10 1_555 1_555
N10 C13 1_555 1_555
N11 C15 1_555 1_555
N12 C16 1_555 1_555
N1B C18B 1_555 1_555
N2B C17B 1_555 1_555
N3B C3B 1_555 1_555
N4B C4B 1_555 1_555
N6B C7B 1_555 1_555
N7B C9B 1_555 1_555
N8B C10B 1_555 1_555
N10B C13B 1_555 1_555
N11B C15B 1_555 1_555
N12B C14B 1_555 1_555
N12B C16B 1_555 1_555
C13B C14B 1_555 1_555
N13B C20B 1_555 1_555

#END
