
#######################################################################
#
#                 Cambridge Crystallographic Data Centre
#                                CCDC 
#
#######################################################################
#
# If this CIF has been generated from an entry in the Cambridge 
# Structural Database, then it will include bibliographic, chemical, 
# crystal, experimental, refinement or atomic coordinate data resulting 
# from the CCDC's data processing and validation procedures.
#
#######################################################################

data_BOSMAY
_chemical_formula_moiety         'C36 H36 N24 O12,C8 H18 N2,18.5(H2 O1)'
_chemical_name_systematic        
"Cucurbit(6)uril N,N'-diethylpiperazine clathrate hydrate"
_symmetry_cell_setting           monoclinic
_symmetry_space_group_name_H-M   'C 2/c'
_symmetry_Int_Tables_number      15
_space_group_name_Hall           '-C 2yn'
loop_
_symmetry_equiv_pos_site_id
_symmetry_equiv_pos_as_xyz
1 x,y,z
2 -x,y,1/2-z
3 1/2+x,1/2+y,z
4 1/2-x,1/2+y,1/2-z
5 -x,-y,-z
6 x,-y,1/2+z
7 1/2-x,1/2-y,-z
8 1/2+x,1/2-y,1/2+z
_cell_length_a                   22.9955(4)
_cell_length_b                   10.8539(2)
_cell_length_c                   28.6013(5)
_cell_angle_alpha                90
_cell_angle_beta                 113.5550(7)
_cell_angle_gamma                90
_cell_volume                     6543.81
_exptl_crystal_colour            colorless
_exptl_crystal_description       block
_cell_formula_units_Z            4
loop_
_atom_site_label
_atom_site_type_symbol
_atom_site_fract_x
_atom_site_fract_y
_atom_site_fract_z
O1 O 0.40879(17) 1.0377(3) 0.48566(14)
O2 O 0.42720(17) 0.4760(3) 0.52723(15)
O3 O 0.3673(2) 1.0729(3) 0.59037(15)
O4 O 0.39288(19) 0.5176(3) 0.63009(15)
O5 O 0.20964(18) 1.0637(3) 0.58304(16)
O6 O 0.22698(16) 0.5112(3) 0.62406(14)
N1 N 0.42945(19) 0.8522(4) 0.45699(16)
N2 N 0.46440(18) 0.8847(3) 0.54070(16)
N3 N 0.4347(2) 0.6292(3) 0.47395(16)
N4 N 0.47686(19) 0.6626(4) 0.55745(16)
N5 N 0.4393(2) 0.9121(4) 0.61381(17)
N6 N 0.36968(19) 0.9260(3) 0.64935(16)
N7 N 0.45024(19) 0.6921(3) 0.63038(16)
N8 N 0.37534(19) 0.7044(3) 0.66079(16)
N9 N 0.26267(18) 0.9194(3) 0.64530(15)
N10 N 0.15904(18) 0.9016(3) 0.60433(16)
N11 N 0.26960(19) 0.6993(3) 0.65893(16)
N12 N 0.16536(17) 0.6828(3) 0.61988(15)
C1 C 0.4687(2) 0.7442(4) 0.47894(18)
C2 C 0.4957(2) 0.7691(4) 0.53757(19)
C3 C 0.4315(2) 0.9343(4) 0.49388(19)
C4 C 0.4436(2) 0.5789(4) 0.5199(2)
C5 C 0.4769(2) 0.9508(5) 0.5866(2)
C6 C 0.4929(2) 0.6363(5) 0.6109(2)
C7 C 0.4584(2) 0.8148(4) 0.65092(18)
C8 C 0.4074(2) 0.8215(4) 0.67481(18)
C9 C 0.3891(2) 0.9795(4) 0.6149(2)
C10 C 0.4051(2) 0.6255(4) 0.63964(18)
C11 C 0.3231(2) 0.9819(4) 0.6647(2)
C12 C 0.3353(2) 0.6592(4) 0.68545(19)
C13 C 0.2479(2) 0.8152(4) 0.66991(19)
C14 C 0.1738(2) 0.8038(4) 0.64072(18)
C15 C 0.2102(2) 0.9709(4) 0.60833(19)
C16 C 0.2217(2) 0.6200(4) 0.63355(18)
C17 C 0.0938(2) 0.9392(4) 0.5726(2)
C18 C 0.1040(2) 0.6237(4) 0.5969(2)
H1 H 0.5035 0.7360 0.4666
H2 H 0.5429 0.7783 0.5522
H3 H 0.4692 1.0395 0.5784
H4 H 0.5223 0.9411 0.6093
H5 H 0.4925 0.5459 0.6156
H6 H 0.5364 0.6660 0.6312
H7 H 0.5023 0.8282 0.6772
H8 H 0.4275 0.8330 0.7126
H9 H 0.3166 1.0684 0.6528
H10 H 0.3400 0.9831 0.7024
H11 H 0.3519 0.6894 0.7211
H12 H 0.3367 0.5680 0.6864
H13 H 0.2610 0.8286 0.7073
H14 H 0.1517 0.8145 0.6643
H15 H 0.0675 0.9292 0.5926
H16 H 0.0938 1.0277 0.5642
H17 H 0.1098 0.5336 0.6021
H18 H 0.0774 0.6518 0.6148
O1F O 0.09121(17) 0.4623(3) 0.51434(14)
O2F O 0.07280(17) 1.0240(3) 0.47277(15)
O3F O 0.1327(2) 0.4271(3) 0.40963(15)
O4F O 0.10712(19) 0.9824(3) 0.36991(15)
O5F O 0.29036(18) 0.4363(3) 0.41696(16)
O6F O 0.27302(16) 0.9888(3) 0.37594(14)
N1F N 0.07055(19) 0.6478(4) 0.54301(16)
N2F N 0.03560(18) 0.6153(3) 0.45930(16)
N3F N 0.0653(2) 0.8708(3) 0.52605(16)
N4F N 0.02314(19) 0.8374(4) 0.44255(16)
N5F N 0.0607(2) 0.5879(4) 0.38619(17)
N6F N 0.13032(19) 0.5740(3) 0.35065(16)
N7F N 0.04976(19) 0.8079(3) 0.36962(16)
N8F N 0.12466(19) 0.7956(3) 0.33921(16)
N9F N 0.23733(18) 0.5806(3) 0.35470(15)
N10F N 0.34096(18) 0.5984(3) 0.39567(16)
N11F N 0.23040(19) 0.8007(3) 0.34107(16)
N12F N 0.33464(17) 0.8172(3) 0.38012(15)
C1F C 0.0313(2) 0.7558(4) 0.52106(18)
C2F C 0.0043(2) 0.7309(4) 0.46243(19)
C3F C 0.0685(2) 0.5657(4) 0.50612(19)
C4F C 0.0564(2) 0.9211(4) 0.4801(2)
C5F C 0.0231(2) 0.5492(5) 0.4134(2)
C6F C 0.0071(2) 0.8637(5) 0.3891(2)
C7F C 0.0416(2) 0.6852(4) 0.34908(18)
C8F C 0.0926(2) 0.6785(4) 0.32519(18)
C9F C 0.1109(2) 0.5205(4) 0.3851(2)
C10F C 0.0949(2) 0.8745(4) 0.36036(18)
C11F C 0.1769(2) 0.5181(4) 0.3353(2)
C12F C 0.1647(2) 0.8408(4) 0.31455(19)
C13F C 0.2521(2) 0.6848(4) 0.33009(19)
C14F C 0.3262(2) 0.6962(4) 0.35928(18)
C15F C 0.2898(2) 0.5291(4) 0.39167(19)
C16F C 0.2783(2) 0.8800(4) 0.36645(18)
C17F C 0.4062(2) 0.5608(4) 0.4274(2)
C18F C 0.3960(2) 0.8763(4) 0.4031(2)
H1F H -0.0035 0.7640 0.5334
H2F H -0.0429 0.7217 0.4478
H3F H 0.0308 0.4605 0.4216
H4F H -0.0223 0.5589 0.3907
H5F H 0.0075 0.9541 0.3844
H6F H -0.0364 0.8340 0.3688
H7F H -0.0023 0.6718 0.3228
H8F H 0.0725 0.6670 0.2874
H9F H 0.1834 0.4316 0.3472
H10F H 0.1600 0.5169 0.2976
H11F H 0.1481 0.8106 0.2789
H12F H 0.1633 0.9320 0.3136
H13F H 0.2390 0.6714 0.2927
H14F H 0.3483 0.6855 0.3357
H15F H 0.4325 0.5708 0.4074
H16F H 0.4062 0.4723 0.4358
H17F H 0.3902 0.9664 0.3979
H18F H 0.4226 0.8482 0.3852
O7 O 0.4867(3) 0.2940(5) 0.6260(3)
O8 O 0.0000 0.1194(7) 0.7500
O9 O 0.1668(4) 0.0422(6) 0.7019(3)
O10 O 0.5645(3) 0.4427(6) 0.7136(2)
O11 O 0.5889(4) 0.3030(6) 0.8019(2)
O12 O 0.2815(3) 0.1434(10) 0.7542(2)
O13 O 0.7149(4) 0.2929(7) 0.8249(6)
O14 O 0.1440(4) 0.2410(13) 0.6256(3)
O15 O 0.12405(17) 0.3988(6) 0.70066(13)
O16 O 0.0182(9) 0.5918(18) 0.7089(7)
N13 N 0.2530(2) 0.3719(5) 0.4993(2)
C19 C 0.3101(3) 0.2943(10) 0.5134(4)
C20 C 0.2096(4) 0.3200(10) 0.5205(5)
C21 C 0.2725(4) 0.4882(9) 0.5276(4)
C22 C 0.2277(5) 0.5987(8) 0.5121(3)
H19 H 0.3259 0.2705 0.5498
H20 H 0.3441 0.3393 0.5078
H21 H 0.1732 0.3751 0.5155
H22 H 0.2316 0.2988 0.5571
H23 H 0.3129 0.5140 0.5258
H24 H 0.2821 0.4703 0.5639
H25 H 0.2222 0.6263 0.4780
H26 H 0.2458 0.6659 0.5366
H27 H 0.1865 0.5749 0.5119
N13F N 0.2470(2) 0.1281(5) 0.5007(2)
C19F C 0.1899(3) 0.2057(10) 0.4866(4)
C20F C 0.2904(4) 0.1800(10) 0.4795(5)
C21F C 0.2275(4) 0.0118(9) 0.4724(4)
C22F C 0.2723(5) -0.0987(8) 0.4879(3)
H19F H 0.1741 0.2295 0.4502
H20F H 0.1559 0.1607 0.4922
H21F H 0.3268 0.1249 0.4845
H22F H 0.2684 0.2012 0.4429
H23F H 0.1871 -0.0140 0.4742
H24F H 0.2179 0.0297 0.4361
H25F H 0.2778 -0.1263 0.5220
H26F H 0.2542 -0.1659 0.4634
H27F H 0.3135 -0.0749 0.4881
O17? O 0.0000 0.5633(8) 0.7500
loop_
_geom_bond_atom_site_label_1
_geom_bond_atom_site_label_2
_geom_bond_site_symmetry_1
_geom_bond_site_symmetry_2
O1 C3 1_555 1_555
O2 C4 1_555 1_555
O3 C9 1_555 1_555
O4 C10 1_555 1_555
O5 C15 1_555 1_555
O6 C16 1_555 1_555
N1 C1 1_555 1_555
N2 C2 1_555 1_555
N3 C1 1_555 1_555
N4 C2 1_555 1_555
N5 C5 1_555 1_555
N6 C8 1_555 1_555
N7 C6 1_555 1_555
N8 C8 1_555 1_555
N9 C11 1_555 1_555
N10 C14 1_555 1_555
N11 C12 1_555 1_555
N12 C14 1_555 1_555
N13 C19 1_555 1_555
C1 C2 1_555 1_555
C2 H2 1_555 1_555
C3 N1 1_555 1_555
C4 N3 1_555 1_555
C5 N2 1_555 1_555
C6 N4 1_555 1_555
C7 N5 1_555 1_555
C8 C7 1_555 1_555
C9 N5 1_555 1_555
C10 N7 1_555 1_555
C11 N6 1_555 1_555
C12 N8 1_555 1_555
C13 N9 1_555 1_555
C14 C13 1_555 1_555
C15 N9 1_555 1_555
C16 N11 1_555 1_555
C17 N10 1_555 1_555
C18 N12 1_555 1_555
C19 H19 1_555 1_555
C20 N13 1_555 1_555
C21 N13 1_555 1_555
C22 C21 1_555 1_555
H1 C1 1_555 1_555
H3 C5 1_555 1_555
H4 C5 1_555 1_555
H5 C6 1_555 1_555
H6 C6 1_555 1_555
H7 C7 1_555 1_555
H8 C8 1_555 1_555
H9 C11 1_555 1_555
H10 C11 1_555 1_555
H11 C12 1_555 1_555
H12 C12 1_555 1_555
H13 C13 1_555 1_555
H14 C14 1_555 1_555
H15 C17 1_555 1_555
H16 C17 1_555 1_555
H17 C18 1_555 1_555
H18 C18 1_555 1_555
H20 C19 1_555 1_555
H21 C20 1_555 1_555
H22 C20 1_555 1_555
H23 C21 1_555 1_555
H24 C21 1_555 1_555
H25 C22 1_555 1_555
H26 C22 1_555 1_555
H27 C22 1_555 1_555
O1F C3F 1_555 1_555
O2F C4F 1_555 1_555
O3F C9F 1_555 1_555
O4F C10F 1_555 1_555
O5F C15F 1_555 1_555
O6F C16F 1_555 1_555
N1F C18 1_555 1_555
N2F C2F 1_555 1_555
N3F C17 1_555 1_555
N4F C2F 1_555 1_555
N5F C5F 1_555 1_555
N6F C8F 1_555 1_555
N7F C6F 1_555 1_555
N8F C8F 1_555 1_555
N9F C11F 1_555 1_555
N10F C14F 1_555 1_555
N11F C12F 1_555 1_555
N12F C14F 1_555 1_555
N13F C19F 1_555 1_555
C1F N1F 1_555 1_555
C2F C1F 1_555 1_555
C3F N1F 1_555 1_555
C4F N3F 1_555 1_555
C5F N2F 1_555 1_555
C6F N4F 1_555 1_555
C7F N5F 1_555 1_555
C8F C7F 1_555 1_555
C9F N5F 1_555 1_555
C10F N7F 1_555 1_555
C11F N6F 1_555 1_555
C12F N8F 1_555 1_555
C13F N9F 1_555 1_555
C14F C13F 1_555 1_555
C15F N9F 1_555 1_555
C16F N11F 1_555 1_555
C17F N3 1_555 1_555
C18F N1 1_555 1_555
C19F C20 1_555 1_555
C20F C19 1_555 1_555
C21F N13F 1_555 1_555
C22F C21F 1_555 1_555
H1F C1F 1_555 1_555
H2F C2F 1_555 1_555
H3F C5F 1_555 1_555
H4F C5F 1_555 1_555
H5F C6F 1_555 1_555
H6F C6F 1_555 1_555
H7F C7F 1_555 1_555
H8F C8F 1_555 1_555
H9F C11F 1_555 1_555
H10F C11F 1_555 1_555
H11F C12F 1_555 1_555
H12F C12F 1_555 1_555
H13F C13F 1_555 1_555
H14F C14F 1_555 1_555
H15F C17F 1_555 1_555
H16F C17F 1_555 1_555
H17F C18F 1_555 1_555
H18F C18F 1_555 1_555
H19F C19F 1_555 1_555
H20F C19F 1_555 1_555
H21F C20F 1_555 1_555
H22F C20F 1_555 1_555
H23F C21F 1_555 1_555
H24F C21F 1_555 1_555
H25F C22F 1_555 1_555
H26F C22F 1_555 1_555
H27F C22F 1_555 1_555
N2 C3 1_555 1_555
N4 C4 1_555 1_555
N6 C9 1_555 1_555
N7 C7 1_555 1_555
N8 C10 1_555 1_555
N10 C15 1_555 1_555
N11 C13 1_555 1_555
N12 C16 1_555 1_555
N2F C3F 1_555 1_555
N3F C1F 1_555 1_555
N4F C4F 1_555 1_555
N6F C9F 1_555 1_555
N7F C7F 1_555 1_555
N8F C10F 1_555 1_555
N10F C15F 1_555 1_555
N10F C17F 1_555 1_555
N11F C13F 1_555 1_555
N12F C16F 1_555 1_555
N12F C18F 1_555 1_555
N13F C20F 1_555 1_555

#END
