
#######################################################################
#
#                 Cambridge Crystallographic Data Centre
#                                CCDC 
#
#######################################################################
#
# If this CIF has been generated from an entry in the Cambridge 
# Structural Database, then it will include bibliographic, chemical, 
# crystal, experimental, refinement or atomic coordinate data resulting 
# from the CCDC's data processing and validation procedures.
#
#######################################################################

data_BOSNUU
_chemical_formula_moiety         'C96 H84 F8 N12,2.5(C1 H2 Cl2),0.5(C3 H8 O1)'
_chemical_name_systematic        
"2,2',2'',2'''-((5,6,17,18,27,28,31,32-Octafluoropentacyclo[20.2.2.2^4,7^.2^10,13^.2^16,19^]dotriaconta-1(24),2,4,6,8,10,12,14,16,18,20,22,25,27,29,31-hexadecaene-2,9,14,21-tetrayl)tetrakis((4-(diisopropylamino)phenyl)methylylidene))tetramalononitrile dichloromethane isopropanol solvate"
_symmetry_cell_setting           monoclinic
_symmetry_space_group_name_H-M   'C 2/c'
_symmetry_Int_Tables_number      15
_space_group_name_Hall           '-C 2yn'
loop_
_symmetry_equiv_pos_site_id
_symmetry_equiv_pos_as_xyz
1 x,y,z
2 -x,y,1/2-z
3 1/2+x,1/2+y,z
4 1/2-x,1/2+y,1/2-z
5 -x,-y,-z
6 x,-y,1/2+z
7 1/2-x,1/2-y,-z
8 1/2+x,1/2-y,1/2+z
_cell_length_a                   36.367(2)
_cell_length_b                   12.1171(7)
_cell_length_c                   43.943(2)
_cell_angle_alpha                90
_cell_angle_beta                 95.872(4)
_cell_angle_gamma                90
_cell_volume                     19262.4
_exptl_crystal_colour            red
_exptl_crystal_description       plate
_cell_formula_units_Z            8
_exptl_crystal_recrystallization_method dichloromethane/isopropanol
loop_
_atom_site_label
_atom_site_type_symbol
_atom_site_fract_x
_atom_site_fract_y
_atom_site_fract_z
Cl1 Cl 0.48113(10) 0.8389(5) 0.71992(8)
C1 C 0.5000 0.9103(15) 0.7500
H1 H 0.514(3) 0.969(9) 0.736(2)
Cl1A Cl 0.51887(10) 0.8389(5) 0.78008(8)
H1A H 0.486(3) 0.969(9) 0.764(2)
Cl4 Cl 0.6817(9) 0.359(3) 0.5045(8)
Cl5 Cl 0.6230(6) 0.5223(19) 0.5117(5)
C3 C 0.6522(5) 0.4032(14) 0.5318(4)
H4 H 0.6668 0.4301 0.5506
H5 H 0.6360 0.3422 0.5374
O1 O 0.6719(4) 0.7444(13) 0.5070(3)
H6 H 0.6770 0.8113 0.5046
C4 C 0.6482(4) 0.7349(12) 0.5282(3)
H7 H 0.6306 0.6784 0.5187
C5 C 0.6553(6) 0.6939(18) 0.5584(4)
H8 H 0.6849 0.6804 0.5636
H9 H 0.6406 0.6162 0.5603
H10 H 0.6458 0.7536 0.5744
C6 C 0.6282(7) 0.8402(15) 0.5192(4)
H11 H 0.6459 0.8951 0.5132
H12 H 0.6161 0.8682 0.5366
H13 H 0.6096 0.8260 0.5019
Cl8 Cl 0.4644(2) 0.7723(10) 0.2010(3)
Cl9 Cl 0.3891(2) 0.7885(9) 0.2022(2)
C8 C 0.4277(6) 0.874(2) 0.1983(12)
H16 H 0.4313 0.9292 0.2149
H17 H 0.4255 0.9122 0.1783
F1 F 0.61746(12) 1.1092(4) 0.35938(10)
F2 F 0.55280(12) 1.2102(4) 0.34487(9)
F3 F 0.50971(13) 1.0723(5) 0.43501(15)
F4 F 0.57392(14) 0.9733(5) 0.44920(15)
F5 F 0.45444(12) 0.5531(4) 0.28299(9)
F6 F 0.51313(12) 0.4423(4) 0.30778(9)
F7 F 0.50498(11) 0.6300(3) 0.40091(8)
F8 F 0.44553(11) 0.7328(3) 0.37724(8)
N1 N 0.64312(18) 0.4944(6) 0.34454(15)
N2 N 0.67761(19) 0.2386(6) 0.40586(17)
N3 N 0.5525(2) 0.2330(6) 0.51603(16)
N4 N 0.6644(3) 1.0716(9) 0.4904(3)
N5 N 0.7663(2) 0.9197(7) 0.48256(19)
N6 N 0.7526(2) 0.4997(7) 0.3880(2)
N7 N 0.3935(2) 1.5307(7) 0.39639(18)
N8 N 0.4513(2) 1.2807(10) 0.4513(2)
N9 N 0.36355(19) 1.3983(7) 0.25440(14)
N10 N 0.4107(2) 1.0040(6) 0.26381(17)
N11 N 0.29313(19) 0.9892(6) 0.26102(15)
N12 N 0.25455(17) 0.5025(6) 0.33690(14)
C9 C 0.54264(18) 0.4649(5) 0.36855(15)
H18 H 0.5425 0.3911 0.3613
C10 C 0.57048(18) 0.4907(5) 0.39007(15)
C11 C 0.58303(19) 0.6012(5) 0.40082(15)
C12 C 0.60093(19) 0.6166(6) 0.42957(16)
H19 H 0.6009 0.5591 0.4443
C13 C 0.6189(2) 0.7138(6) 0.43739(17)
H20 H 0.6310 0.7225 0.4574
C14 C 0.61949(19) 0.7993(6) 0.41659(17)
C15 C 0.6010(2) 0.7870(6) 0.38774(18)
H21 H 0.6008 0.8455 0.3733
C16 C 0.58248(19) 0.6884(6) 0.37978(17)
H22 H 0.5695 0.6805 0.3600
C17 C 0.6448(2) 0.8928(6) 0.42298(17)
C18 C 0.6359(2) 0.9975(6) 0.41481(19)
H23 H 0.6555 1.0495 0.4155
C19 C 0.59853(19) 1.0377(6) 0.40497(19)
C20 C 0.5910(2) 1.0983(6) 0.37869(18)
C21 C 0.5576(2) 1.1507(6) 0.37103(17)
C22 C 0.5292(2) 1.1445(6) 0.38919(18)
C23 C 0.5359(2) 1.0809(7) 0.4150(2)
C24 C 0.5697(2) 1.0296(7) 0.4226(2)
C25 C 0.49639(19) 1.2160(6) 0.38405(17)
H24 H 0.5008 1.2911 0.3895
C26 C 0.46176(19) 1.1944(6) 0.37315(15)
C27 C 0.44791(18) 1.0847(5) 0.36156(14)
C28 C 0.41185(19) 1.0544(6) 0.36561(15)
H25 H 0.3976 1.0993 0.3777
C29 C 0.39661(18) 0.9595(5) 0.35216(15)
H26 H 0.3719 0.9400 0.3551
C30 C 0.41663(18) 0.8926(5) 0.33450(14)
C31 C 0.45301(18) 0.9222(6) 0.33105(16)
H27 H 0.4675 0.8761 0.3195
C32 C 0.46847(19) 1.0173(5) 0.34412(16)
H28 H 0.4932 1.0366 0.3412
C33 C 0.39847(18) 0.7973(5) 0.31831(15)
C34 C 0.41298(18) 0.6968(5) 0.31466(14)
H29 H 0.3986 0.6489 0.3011
C35 C 0.44795(17) 0.6510(5) 0.32881(15)
C36 C 0.46644(19) 0.5726(6) 0.31245(15)
C37 C 0.49728(19) 0.5179(6) 0.32530(16)
C38 C 0.51283(18) 0.5350(5) 0.35501(15)
C39 C 0.49391(19) 0.6117(5) 0.37104(14)
C40 C 0.46246(19) 0.6653(5) 0.35862(15)
C41 C 0.59461(17) 0.3986(5) 0.40421(14)
C42 C 0.62620(18) 0.3783(5) 0.39029(15)
C43 C 0.63497(19) 0.4439(6) 0.36471(17)
C44 C 0.6542(2) 0.3000(6) 0.39932(16)
C45 C 0.58312(19) 0.3478(5) 0.43105(16)
C46 C 0.54962(19) 0.3799(6) 0.44229(16)
H30 H 0.5338 0.4297 0.4305
C47 C 0.5392(2) 0.3421(6) 0.46931(15)
H31 H 0.5164 0.3662 0.4757
C48 C 0.5614(3) 0.2677(6) 0.48809(18)
C49 C 0.5941(3) 0.2322(7) 0.47631(19)
H32 H 0.6095 0.1800 0.4875
C50 C 0.6039(3) 0.2707(7) 0.44945(18)
H33 H 0.6261 0.2440 0.4426
C51 C 0.5268(4) 0.2946(10) 0.5342(3)
H34 H 0.5322 0.2661 0.5556
C52 C 0.5342(4) 0.4159(9) 0.5367(2)
H35 H 0.5600 0.4280 0.5448
H36 H 0.5178 0.4493 0.5504
H37 H 0.5298 0.4497 0.5164
C53 C 0.4898(4) 0.2677(16) 0.5261(3)
H38 H 0.4838 0.2785 0.5040
H39 H 0.4740 0.3152 0.5372
H40 H 0.4856 0.1903 0.5312
C54 C 0.5768(5) 0.1518(10) 0.5347(3)
H41 H 0.5899 0.1106 0.5193
C55 C 0.6072(6) 0.205(2) 0.5552(5)
H42 H 0.6198 0.2601 0.5436
H43 H 0.6249 0.1491 0.5633
H44 H 0.5966 0.2420 0.5722
C56 C 0.5580(9) 0.0696(16) 0.5497(6)
H45 H 0.5559 0.0923 0.5709
H46 H 0.5717 0.0000 0.5496
H47 H 0.5332 0.0593 0.5391
C57 C 0.68271(19) 0.8660(6) 0.43663(16)
C58 C 0.6983(2) 0.9302(6) 0.46054(18)
C59 C 0.6784(2) 1.0097(7) 0.4761(2)
C60 C 0.7361(2) 0.9212(6) 0.47291(18)
C61 C 0.7018(2) 0.7742(6) 0.42505(16)
C62 C 0.6948(2) 0.7434(7) 0.39344(16)
H48 H 0.6778 0.7857 0.3804
C63 C 0.7115(2) 0.6574(8) 0.38182(19)
H49 H 0.7063 0.6411 0.3607
C64 C 0.7370(3) 0.5885(7) 0.4003(2)
C65 C 0.7430(2) 0.6194(7) 0.4310(2)
H50 H 0.7597 0.5766 0.4442
C66 C 0.7263(2) 0.7082(6) 0.44298(17)
H51 H 0.7317 0.7250 0.4641
C67 C 0.7409(3) 0.4639(11) 0.3538(2)
H52 H 0.7155 0.4937 0.3481
C68 C 0.7661(4) 0.5203(13) 0.3335(3)
H53 H 0.7561 0.5932 0.3276
H54 H 0.7679 0.4757 0.3151
H55 H 0.7907 0.5288 0.3446
C69 C 0.7386(3) 0.3487(10) 0.3507(3)
H56 H 0.7626 0.3156 0.3578
H57 H 0.7321 0.3297 0.3291
H58 H 0.7197 0.3202 0.3629
C70 C 0.7836(5) 0.4551(12) 0.4004(3)
H59 H 0.7921 0.4078 0.3838
C71 C 0.7807(4) 0.3838(14) 0.4243(3)
H60 H 0.7659 0.4180 0.4392
H61 H 0.8055 0.3670 0.4342
H62 H 0.7688 0.3154 0.4166
C72 C 0.8165(4) 0.5397(14) 0.4084(4)
H63 H 0.8168 0.5938 0.3918
H64 H 0.8400 0.4997 0.4108
H65 H 0.8129 0.5780 0.4275
C73 C 0.43409(19) 1.2865(5) 0.37064(15)
C74 C 0.4285(2) 1.3455(6) 0.39664(16)
C75 C 0.4085(2) 1.4462(8) 0.39588(18)
C76 C 0.4422(2) 1.3088(8) 0.4264(2)
C77 C 0.41574(19) 1.3116(6) 0.34096(15)
C78 C 0.3803(2) 1.3583(6) 0.33711(17)
H66 H 0.3680 1.3737 0.3547
C79 C 0.3626(2) 1.3822(7) 0.30893(16)
H67 H 0.3381 1.4105 0.3075
C80 C 0.3800(2) 1.3659(7) 0.28174(17)
C81 C 0.4160(2) 1.3163(7) 0.28609(17)
H68 H 0.4288 1.3016 0.2687
C82 C 0.43226(19) 1.2900(6) 0.31421(16)
H69 H 0.4558 1.2555 0.3158
C83 C 0.3289(3) 1.4589(13) 0.2517(2)
H70 H 0.3260 1.4890 0.2725
C84 C 0.3263(4) 1.5539(11) 0.2307(2)
H71 H 0.3457 1.6074 0.2373
H72 H 0.3020 1.5889 0.2308
H73 H 0.3295 1.5286 0.2099
C85 C 0.2970(4) 1.3744(18) 0.2444(3)
H74 H 0.2990 1.3410 0.2243
H75 H 0.2732 1.4123 0.2442
H76 H 0.2987 1.3166 0.2601
C86 C 0.3762(2) 1.3609(8) 0.22499(17)
H77 H 0.3566 1.3865 0.2089
C87 C 0.4112(2) 1.4138(9) 0.21701(19)
H78 H 0.4081 1.4942 0.2164
H79 H 0.4168 1.3875 0.1969
H80 H 0.4315 1.3943 0.2325
C88 C 0.3769(3) 1.2386(8) 0.2218(2)
H81 H 0.3999 1.2097 0.2326
H82 H 0.3757 1.2188 0.2001
H83 H 0.3557 1.2066 0.2308
C89 C 0.35984(18) 0.8162(5) 0.30386(14)
C90 C 0.35475(18) 0.9034(6) 0.28346(15)
C91 C 0.3861(2) 0.9590(6) 0.27298(17)
C92 C 0.3203(2) 0.9466(6) 0.27141(16)
C93 C 0.33207(18) 0.7421(6) 0.31214(15)
C94 C 0.29876(18) 0.7180(6) 0.29326(15)
H84 H 0.2938 0.7561 0.2744
C95 C 0.27398(18) 0.6428(6) 0.30126(16)
H85 H 0.2523 0.6297 0.2877
C96 C 0.27907(18) 0.5829(6) 0.32895(15)
C97 C 0.31178(19) 0.6079(5) 0.34827(15)
H86 H 0.3163 0.5713 0.3674
C98 C 0.33659(18) 0.6822(5) 0.34010(15)
H87 H 0.3582 0.6952 0.3537
C99 C 0.2228(3) 0.4712(8) 0.3152(2)
H88 H 0.2265 0.5059 0.2950
C100 C 0.2211(3) 0.3486(9) 0.3103(2)
H89 H 0.2447 0.3226 0.3039
H90 H 0.2011 0.3309 0.2944
H91 H 0.2165 0.3121 0.3295
C101 C 0.1865(3) 0.5168(9) 0.3251(3)
H92 H 0.1824 0.4861 0.3451
H93 H 0.1659 0.4960 0.3101
H94 H 0.1880 0.5974 0.3266
C102 C 0.2553(2) 0.4547(7) 0.36729(18)
H95 H 0.2322 0.4096 0.3668
C103 C 0.2869(2) 0.3732(7) 0.3754(2)
H96 H 0.2902 0.3271 0.3576
H97 H 0.2809 0.3262 0.3924
H98 H 0.3097 0.4140 0.3815
C104 C 0.2522(3) 0.5402(8) 0.39285(19)
H99 H 0.2764 0.5749 0.3982
H100 H 0.2443 0.5034 0.4109
H101 H 0.2341 0.5968 0.3857
Cl4F Cl 0.8183(9) 0.141(3) 0.4955(8)
Cl5F Cl 0.8770(6) -0.0223(19) 0.4883(5)
C3F C 0.8478(5) 0.0968(14) 0.4682(4)
H4F H 0.8332 0.0699 0.4494
H5F H 0.8640 0.1578 0.4626
Cl2? Cl 0.7392(3) 0.3016(10) 0.4954(3)
Cl3? Cl 0.67869(15) 0.4496(5) 0.46523(12)
C2? C 0.712(2) 0.346(7) 0.4621(8)
H2? H 0.7289 0.3716 0.4474
H3? H 0.6989 0.2800 0.4529
Cl6? Cl 0.4534(4) 0.8756(17) 0.1803(4)
Cl7? Cl 0.4363(4) 0.7472(17) 0.2287(4)
C7? C 0.4685(17) 0.848(6) 0.2197(9)
H14? H 0.4941 0.8195 0.2223
H15? H 0.4671 0.9153 0.2324
loop_
_geom_bond_atom_site_label_1
_geom_bond_atom_site_label_2
_geom_bond_site_symmetry_1
_geom_bond_site_symmetry_2
Cl1 C1 1_555 1_555
C1 H1 1_555 1_555
Cl4 C3 1_555 1_555
Cl5 C3 1_555 1_555
C3 H4 1_555 1_555
H5 C3 1_555 1_555
O1 H6 1_555 1_555
C4 O1 1_555 1_555
H7 C4 1_555 1_555
C5 C4 1_555 1_555
H8 C5 1_555 1_555
H9 C5 1_555 1_555
H10 C5 1_555 1_555
C6 C4 1_555 1_555
H11 C6 1_555 1_555
H12 C6 1_555 1_555
H13 C6 1_555 1_555
Cl8 C8 1_555 1_555
Cl9 C8 1_555 1_555
C8 H16 1_555 1_555
H17 C8 1_555 1_555
F1 C20 1_555 1_555
F2 C21 1_555 1_555
F3 C23 1_555 1_555
F4 C24 1_555 1_555
F5 C36 1_555 1_555
F6 C37 1_555 1_555
F7 C39 1_555 1_555
F8 C40 1_555 1_555
N1 C43 1_555 1_555
N2 C44 1_555 1_555
N3 C48 1_555 1_555
N4 C59 1_555 1_555
N5 C60 1_555 1_555
N6 C64 1_555 1_555
N7 C75 1_555 1_555
N8 C76 1_555 1_555
N9 C80 1_555 1_555
N10 C91 1_555 1_555
N11 C92 1_555 1_555
N12 C96 1_555 1_555
C9 H18 1_555 1_555
C10 C9 1_555 1_555
C11 C10 1_555 1_555
C12 C11 1_555 1_555
H19 C12 1_555 1_555
C13 C12 1_555 1_555
H20 C13 1_555 1_555
C14 C13 1_555 1_555
C15 C14 1_555 1_555
H21 C15 1_555 1_555
C16 C11 1_555 1_555
H22 C16 1_555 1_555
C17 C14 1_555 1_555
C18 C17 1_555 1_555
H23 C18 1_555 1_555
C19 C18 1_555 1_555
C20 C19 1_555 1_555
C21 C20 1_555 1_555
C22 C21 1_555 1_555
C23 C22 1_555 1_555
C24 C19 1_555 1_555
C25 C22 1_555 1_555
H24 C25 1_555 1_555
C26 C25 1_555 1_555
C27 C26 1_555 1_555
C28 C27 1_555 1_555
H25 C28 1_555 1_555
C29 C28 1_555 1_555
H26 C29 1_555 1_555
C30 C29 1_555 1_555
C31 C30 1_555 1_555
H27 C31 1_555 1_555
C32 C27 1_555 1_555
H28 C32 1_555 1_555
C33 C30 1_555 1_555
C34 C33 1_555 1_555
H29 C34 1_555 1_555
C35 C34 1_555 1_555
C36 C35 1_555 1_555
C37 C36 1_555 1_555
C38 C9 1_555 1_555
C39 C38 1_555 1_555
C40 C35 1_555 1_555
C41 C10 1_555 1_555
C42 C41 1_555 1_555
C43 C42 1_555 1_555
C44 C42 1_555 1_555
C45 C41 1_555 1_555
C46 C45 1_555 1_555
H30 C46 1_555 1_555
C47 C46 1_555 1_555
H31 C47 1_555 1_555
C48 C47 1_555 1_555
C49 C48 1_555 1_555
H32 C49 1_555 1_555
C50 C45 1_555 1_555
H33 C50 1_555 1_555
C51 N3 1_555 1_555
H34 C51 1_555 1_555
C52 C51 1_555 1_555
H35 C52 1_555 1_555
H36 C52 1_555 1_555
H37 C52 1_555 1_555
C53 C51 1_555 1_555
H38 C53 1_555 1_555
H39 C53 1_555 1_555
H40 C53 1_555 1_555
C54 N3 1_555 1_555
H41 C54 1_555 1_555
C55 C54 1_555 1_555
H42 C55 1_555 1_555
H43 C55 1_555 1_555
H44 C55 1_555 1_555
C56 C54 1_555 1_555
H45 C56 1_555 1_555
H46 C56 1_555 1_555
H47 C56 1_555 1_555
C57 C17 1_555 1_555
C58 C57 1_555 1_555
C59 C58 1_555 1_555
C60 C58 1_555 1_555
C61 C57 1_555 1_555
C62 C61 1_555 1_555
H48 C62 1_555 1_555
C63 C62 1_555 1_555
H49 C63 1_555 1_555
C64 C63 1_555 1_555
C65 C64 1_555 1_555
H50 C65 1_555 1_555
C66 C61 1_555 1_555
H51 C66 1_555 1_555
C67 N6 1_555 1_555
H52 C67 1_555 1_555
C68 C67 1_555 1_555
H53 C68 1_555 1_555
H54 C68 1_555 1_555
H55 C68 1_555 1_555
C69 C67 1_555 1_555
H56 C69 1_555 1_555
H57 C69 1_555 1_555
H58 C69 1_555 1_555
C70 N6 1_555 1_555
H59 C70 1_555 1_555
C71 C70 1_555 1_555
H60 C71 1_555 1_555
H61 C71 1_555 1_555
H62 C71 1_555 1_555
C72 C70 1_555 1_555
H63 C72 1_555 1_555
H64 C72 1_555 1_555
H65 C72 1_555 1_555
C73 C26 1_555 1_555
C74 C73 1_555 1_555
C75 C74 1_555 1_555
C76 C74 1_555 1_555
C77 C73 1_555 1_555
C78 C77 1_555 1_555
H66 C78 1_555 1_555
C79 C78 1_555 1_555
H67 C79 1_555 1_555
C80 C79 1_555 1_555
C81 C80 1_555 1_555
H68 C81 1_555 1_555
C82 C77 1_555 1_555
H69 C82 1_555 1_555
C83 N9 1_555 1_555
H70 C83 1_555 1_555
C84 C83 1_555 1_555
H71 C84 1_555 1_555
H72 C84 1_555 1_555
H73 C84 1_555 1_555
C85 C83 1_555 1_555
H74 C85 1_555 1_555
H75 C85 1_555 1_555
H76 C85 1_555 1_555
C86 N9 1_555 1_555
H77 C86 1_555 1_555
C87 C86 1_555 1_555
H78 C87 1_555 1_555
H79 C87 1_555 1_555
H80 C87 1_555 1_555
C88 C86 1_555 1_555
H81 C88 1_555 1_555
H82 C88 1_555 1_555
H83 C88 1_555 1_555
C89 C33 1_555 1_555
C90 C89 1_555 1_555
C91 C90 1_555 1_555
C92 C90 1_555 1_555
C93 C89 1_555 1_555
C94 C93 1_555 1_555
H84 C94 1_555 1_555
C95 C94 1_555 1_555
H85 C95 1_555 1_555
C96 C95 1_555 1_555
C97 C96 1_555 1_555
H86 C97 1_555 1_555
C98 C93 1_555 1_555
H87 C98 1_555 1_555
C99 N12 1_555 1_555
H88 C99 1_555 1_555
C100 C99 1_555 1_555
H89 C100 1_555 1_555
H90 C100 1_555 1_555
H91 C100 1_555 1_555
C101 C99 1_555 1_555
H92 C101 1_555 1_555
H93 C101 1_555 1_555
H94 C101 1_555 1_555
C102 N12 1_555 1_555
H95 C102 1_555 1_555
C103 C102 1_555 1_555
H96 C103 1_555 1_555
H97 C103 1_555 1_555
H98 C103 1_555 1_555
C104 C102 1_555 1_555
H99 C104 1_555 1_555
H100 C104 1_555 1_555
H101 C104 1_555 1_555
Cl1A C1 1_555 1_555
H1A C1 1_555 1_555
Cl4F C3F 1_555 1_555
Cl5F C3F 1_555 1_555
C3F H4F 1_555 1_555
H5F C3F 1_555 1_555
C15 C16 1_555 1_555
C23 C24 1_555 1_555
C31 C32 1_555 1_555
C37 C38 1_555 1_555
C39 C40 1_555 1_555
C49 C50 1_555 1_555
C65 C66 1_555 1_555
C81 C82 1_555 1_555
C97 C98 1_555 1_555

#END
