
#######################################################################
#
#                 Cambridge Crystallographic Data Centre
#                                CCDC 
#
#######################################################################
#
# If this CIF has been generated from an entry in the Cambridge 
# Structural Database, then it will include bibliographic, chemical, 
# crystal, experimental, refinement or atomic coordinate data resulting 
# from the CCDC's data processing and validation procedures.
#
#######################################################################

data_BOSROS
_chemical_formula_moiety         'C27 H13 F5 O1'
_chemical_name_systematic        
14-(pentafluorophenyl)-14H-dibenzo[a,j]xanthene
_symmetry_cell_setting           triclinic
_symmetry_space_group_name_H-M   'P -1'
_symmetry_Int_Tables_number      2
_space_group_name_Hall           '-P 1'
loop_
_symmetry_equiv_pos_site_id
_symmetry_equiv_pos_as_xyz
1 x,y,z
2 -x,-y,-z
_cell_length_a                   15.1991(14)
_cell_length_b                   16.6623(16)
_cell_length_c                   17.8548(17)
_cell_angle_alpha                74.7440(10)
_cell_angle_beta                 77.7690(10)
_cell_angle_gamma                83.7640(10)
_cell_volume                     4256.68
_cell_formula_units_Z            8
loop_
_atom_site_label
_atom_site_type_symbol
_atom_site_fract_x
_atom_site_fract_y
_atom_site_fract_z
C1 C 0.8633(8) -0.0091(5) 0.3064(4)
C2 C 0.9553(8) 0.0019(4) 0.2911(4)
H1 H 0.9822 0.0364 0.2436
C3 C 1.0072(8) -0.0388(6) 0.3469(6)
H2 H 1.0687 -0.0315 0.3367
C4 C 0.9670(11) -0.0905(5) 0.4178(5)
H3 H 1.0017 -0.1177 0.4551
C5 C 0.8749(12) -0.1014(5) 0.4331(4)
H4 H 0.8481 -0.1360 0.4806
C6 C 0.8231(9) -0.0607(6) 0.3774(6)
C7 C 0.8564(6) 0.1760(4) 0.1944(4)
C8 C 0.7844(6) 0.2241(5) 0.2248(5)
C9 C 0.7924(6) 0.3008(5) 0.2386(5)
C10 C 0.8773(6) 0.3313(5) 0.2223(5)
C11 C 0.9490(6) 0.2836(6) 0.1941(5)
C12 C 0.9388(6) 0.2087(5) 0.1806(4)
C13 C 0.8422(6) 0.0947(5) 0.1762(4)
H5 H 0.9011 0.0732 0.1524
C14 C 0.8071(10) 0.0302(6) 0.2499(6)
C15 C 0.738(2) -0.0767(12) 0.3972(14)
H6 H 0.7139 -0.1089 0.4470
C16 C 0.6787(15) -0.0416(10) 0.3373(12)
H7 H 0.6190 -0.0558 0.3484
C17 C 0.7139(15) 0.0141(8) 0.2624(8)
C18 C 0.6928(5) 0.0875(4) 0.1383(5)
C19 C 0.6323(3) 0.1081(5) 0.0869(7)
H8 H 0.5737 0.0907 0.1040
C20 C 0.6593(5) 0.1547(5) 0.0098(6)
H9 H 0.6188 0.1685 -0.0246
C21 C 0.7469(5) 0.1807(4) -0.0158(4)
C22 C 0.8075(3) 0.1601(3) 0.0357(4)
C23 C 0.7804(4) 0.1135(3) 0.1127(3)
C24 C 0.7714(9) 0.2276(7) -0.0923(8)
H10 H 0.7294 0.2421 -0.1253
C25 C 0.8591(10) 0.2533(6) -0.1200(6)
H11 H 0.8761 0.2845 -0.1717
C26 C 0.9212(6) 0.2318(5) -0.0696(5)
H12 H 0.9799 0.2487 -0.0881
C27 C 0.8973(5) 0.1873(5) 0.0049(5)
H13 H 0.9399 0.1737 0.0375
F1 F 0.7001(4) 0.1973(3) 0.2423(3)
F2 F 0.7218(4) 0.3438(3) 0.2679(3)
F3 F 0.8874(4) 0.4044(3) 0.2348(3)
F4 F 1.0330(4) 0.3151(4) 0.1769(3)
F5 F 1.0138(3) 0.1682(3) 0.1497(3)
O1 O 0.6597(7) 0.0440(6) 0.2119(7)
C28 C 0.2224(5) 0.5209(4) 0.1503(4)
C29 C 0.1321(5) 0.5060(4) 0.1577(4)
C30 C 0.0869(5) 0.5331(5) 0.0968(5)
C31 C 0.1305(6) 0.5748(5) 0.0247(5)
C32 C 0.2190(6) 0.5917(5) 0.0145(4)
C33 C 0.2625(5) 0.5648(5) 0.0778(4)
C34 C 0.2738(5) 0.4881(4) 0.2185(4)
H14 H 0.2319 0.4579 0.2643
C35 C 0.3521(5) 0.4280(5) 0.1985(4)
C36 C 0.3377(6) 0.3464(5) 0.1927(4)
C37 C 0.2518(6) 0.3146(5) 0.2091(4)
H15 H 0.2015 0.3479 0.2242
C38 C 0.2396(7) 0.2370(5) 0.2036(5)
H16 H 0.1825 0.2163 0.2160
C39 C 0.3184(10) 0.1877(6) 0.1778(6)
H17 H 0.3110 0.1351 0.1722
C40 C 0.4005(8) 0.2142(7) 0.1618(6)
H18 H 0.4501 0.1806 0.1457
C41 C 0.4121(7) 0.2936(6) 0.1695(5)
C42 C 0.4986(8) 0.3225(7) 0.1501(6)
H19 H 0.5476 0.2892 0.1323
C43 C 0.5112(6) 0.3977(7) 0.1571(6)
H20 H 0.5693 0.4162 0.1451
C44 C 0.4378(6) 0.4496(6) 0.1824(5)
C45 C 0.3950(6) 0.5776(5) 0.2205(5)
C46 C 0.4283(7) 0.6461(6) 0.2336(5)
H21 H 0.4891 0.6565 0.2161
C47 C 0.3726(7) 0.6970(6) 0.2715(5)
H22 H 0.3954 0.7433 0.2789
C48 C 0.2775(6) 0.6819(5) 0.3012(5)
C49 C 0.2201(8) 0.7330(5) 0.3416(5)
H23 H 0.2425 0.7784 0.3510
C50 C 0.1336(8) 0.7184(5) 0.3673(5)
H24 H 0.0952 0.7536 0.3939
C51 C 0.0998(6) 0.6476(5) 0.3533(5)
H25 H 0.0390 0.6373 0.3714
C52 C 0.1537(6) 0.5956(5) 0.3147(4)
H26 H 0.1306 0.5491 0.3078
C53 C 0.2464(5) 0.6120(4) 0.2843(4)
C54 C 0.3066(5) 0.5596(5) 0.2415(4)
F6 F 0.0864(3) 0.4629(2) 0.2279(2)
F7 F -0.0010(3) 0.5179(3) 0.1068(3)
F8 F 0.0859(4) 0.6031(3) -0.0363(3)
F9 F 0.2629(3) 0.6347(3) -0.0566(3)
F10 F 0.3504(3) 0.5818(3) 0.0645(2)
O2 O 0.4610(4) 0.5272(4) 0.1854(3)
C55 C 0.1981(5) 0.5074(4) 0.6214(4)
C56 C 0.2653(5) 0.4897(5) 0.6654(5)
C57 C 0.2519(6) 0.4383(5) 0.7424(5)
C58 C 0.1719(6) 0.4040(5) 0.7750(5)
C59 C 0.1043(5) 0.4203(5) 0.7326(5)
C60 C 0.1181(5) 0.4707(5) 0.6588(5)
C61 C 0.2132(5) 0.5628(5) 0.5385(4)
H27 H 0.1564 0.5688 0.5193
C62 C 0.2843(6) 0.5215(5) 0.4836(4)
C63 C 0.2638(7) 0.4485(6) 0.4604(4)
C64 C 0.1749(7) 0.4194(5) 0.4774(5)
H28 H 0.1265 0.4474 0.5030
C65 C 0.1625(9) 0.3498(6) 0.4552(6)
H29 H 0.1049 0.3303 0.4677
C66 C 0.2311(15) 0.3072(8) 0.4154(8)
H30 H 0.2198 0.2602 0.4009
C67 C 0.3175(13) 0.3355(9) 0.3972(7)
H31 H 0.3641 0.3066 0.3706
C68 C 0.3363(9) 0.4066(7) 0.4179(5)
C69 C 0.4254(11) 0.4359(10) 0.3983(6)
H32 H 0.4727 0.4063 0.3731
C70 C 0.4419(8) 0.5094(10) 0.4168(6)
H33 H 0.4990 0.5304 0.4015
C71 C 0.3691(7) 0.5508(7) 0.4597(5)
C72 C 0.3246(9) 0.6693(7) 0.5062(6)
C73 C 0.3538(10) 0.7500(9) 0.5044(7)
H34 H 0.4140 0.7622 0.4861
C74 C 0.2926(15) 0.8071(9) 0.5296(9)
H35 H 0.3116 0.8590 0.5275
C75 C 0.2006(12) 0.7905(7) 0.5590(6)
C76 C 0.1460(15) 0.8486(11) 0.5836(10)
H36 H 0.1666 0.8994 0.5828
C77 C 0.0591(16) 0.8315(10) 0.6099(9)
H37 H 0.0197 0.8728 0.6268
C78 C 0.0208(9) 0.7518(8) 0.6141(6)
H38 H -0.0403 0.7433 0.6322
C79 C 0.0795(8) 0.6920(6) 0.5904(5)
H39 H 0.0591 0.6404 0.5933
C80 C 0.1724(9) 0.7079(5) 0.5611(5)
C81 C 0.2385(7) 0.6477(5) 0.5346(5)
F11 F 0.3456(3) 0.5213(3) 0.6362(3)
F12 F 0.3202(3) 0.4234(3) 0.7830(3)
F13 F 0.1573(4) 0.3543(3) 0.8489(3)
F14 F 0.0249(3) 0.3854(3) 0.7657(3)
F15 F 0.0459(3) 0.4889(3) 0.6206(3)
O3 O 0.3933(5) 0.6198(6) 0.4754(4)
C82 C 0.6911(5) 0.7952(4) 0.0513(4)
C83 C 0.6044(5) 0.7686(4) 0.0582(4)
C84 C 0.5895(6) 0.6975(5) 0.0395(4)
C85 C 0.6626(7) 0.6489(5) 0.0131(5)
C86 C 0.7462(6) 0.6728(5) 0.0044(4)
C87 C 0.7600(5) 0.7450(4) 0.0221(4)
C88 C 0.7072(5) 0.8740(4) 0.0753(4)
H40 H 0.6482 0.8998 0.0935
C89 C 0.7554(5) 0.9361(4) 0.0057(4)
C90 C 0.7137(5) 0.9790(4) -0.0601(4)
C91 C 0.6218(5) 0.9729(4) -0.0589(5)
H41 H 0.5859 0.9403 -0.0150
C92 C 0.5857(6) 1.0158(5) -0.1233(5)
H42 H 0.5245 1.0130 -0.1218
C93 C 0.6374(7) 1.0628(5) -0.1902(5)
H43 H 0.6113 1.0892 -0.2337
C94 C 0.7253(7) 1.0709(5) -0.1931(5)
H44 H 0.7591 1.1040 -0.2381
C95 C 0.7671(6) 1.0291(5) -0.1279(4)
C96 C 0.8584(6) 1.0390(5) -0.1283(5)
H45 H 0.8925 1.0723 -0.1729
C97 C 0.8962(6) 1.0023(5) -0.0671(5)
H46 H 0.9560 1.0103 -0.0679
C98 C 0.8435(5) 0.9495(5) 0.0009(5)
C99 C 0.8450(5) 0.8707(5) 0.1301(5)
C100 C 0.9000(6) 0.8437(5) 0.1910(5)
H47 H 0.9598 0.8575 0.1806
C101 C 0.8626(6) 0.7990(6) 0.2615(5)
H48 H 0.8982 0.7805 0.2998
C102 C 0.7706(6) 0.7779(5) 0.2818(5)
C103 C 0.7301(8) 0.7320(6) 0.3567(5)
H49 H 0.7650 0.7129 0.3954
C104 C 0.6424(8) 0.7146(6) 0.3746(6)
H50 H 0.6169 0.6837 0.4245
C105 C 0.5918(7) 0.7445(6) 0.3163(5)
H51 H 0.5309 0.7340 0.3287
C106 C 0.6249(6) 0.7870(5) 0.2439(5)
H52 H 0.5873 0.8047 0.2072
C107 C 0.7169(5) 0.8061(4) 0.2214(4)
C108 C 0.7568(5) 0.8514(4) 0.1428(4)
F16 F 0.5308(3) 0.8161(3) 0.0838(2)
F17 F 0.5043(3) 0.6783(3) 0.0453(3)
F18 F 0.6472(4) 0.5783(3) -0.0028(3)
F19 F 0.8179(4) 0.6249(3) -0.0204(3)
F20 F 0.8457(3) 0.7661(3) 0.0124(2)
O4 O 0.8910(3) 0.9145(3) 0.0600(3)
loop_
_geom_bond_atom_site_label_1
_geom_bond_atom_site_label_2
_geom_bond_site_symmetry_1
_geom_bond_site_symmetry_2
C1 C2 1_555 1_555
C2 H1 1_555 1_555
C3 C2 1_555 1_555
H2 C3 1_555 1_555
C4 C3 1_555 1_555
H3 C4 1_555 1_555
C5 C4 1_555 1_555
H4 C5 1_555 1_555
C6 C1 1_555 1_555
C7 C8 1_555 1_555
C8 C9 1_555 1_555
C9 C10 1_555 1_555
C10 C11 1_555 1_555
C11 C12 1_555 1_555
C12 C7 1_555 1_555
C13 C7 1_555 1_555
H5 C13 1_555 1_555
C14 C1 1_555 1_555
C15 C6 1_555 1_555
H6 C15 1_555 1_555
C16 C15 1_555 1_555
H7 C16 1_555 1_555
C17 C14 1_555 1_555
C18 C19 1_555 1_555
C19 H8 1_555 1_555
C20 C19 1_555 1_555
H9 C20 1_555 1_555
C21 C20 1_555 1_555
C22 C21 1_555 1_555
C23 C13 1_555 1_555
C24 C21 1_555 1_555
H10 C24 1_555 1_555
C25 C24 1_555 1_555
H11 C25 1_555 1_555
C26 C25 1_555 1_555
H12 C26 1_555 1_555
C27 C22 1_555 1_555
H13 C27 1_555 1_555
F1 C8 1_555 1_555
F2 C9 1_555 1_555
F3 C10 1_555 1_555
F4 C11 1_555 1_555
F5 C12 1_555 1_555
O1 C17 1_555 1_555
C28 C29 1_555 1_555
C29 C30 1_555 1_555
C30 C31 1_555 1_555
C31 C32 1_555 1_555
C32 C33 1_555 1_555
C33 C28 1_555 1_555
C34 C28 1_555 1_555
H14 C34 1_555 1_555
C35 C34 1_555 1_555
C36 C35 1_555 1_555
C37 C36 1_555 1_555
H15 C37 1_555 1_555
C38 C37 1_555 1_555
H16 C38 1_555 1_555
C39 C38 1_555 1_555
H17 C39 1_555 1_555
C40 C39 1_555 1_555
H18 C40 1_555 1_555
C41 C36 1_555 1_555
C42 C41 1_555 1_555
H19 C42 1_555 1_555
C43 C42 1_555 1_555
H20 C43 1_555 1_555
C44 C35 1_555 1_555
C45 C46 1_555 1_555
C46 H21 1_555 1_555
C47 C46 1_555 1_555
H22 C47 1_555 1_555
C48 C47 1_555 1_555
C49 C48 1_555 1_555
H23 C49 1_555 1_555
C50 C49 1_555 1_555
H24 C50 1_555 1_555
C51 C50 1_555 1_555
H25 C51 1_555 1_555
C52 C51 1_555 1_555
H26 C52 1_555 1_555
C53 C48 1_555 1_555
C54 C34 1_555 1_555
F6 C29 1_555 1_555
F7 C30 1_555 1_555
F8 C31 1_555 1_555
F9 C32 1_555 1_555
F10 C33 1_555 1_555
O2 C44 1_555 1_555
C55 C56 1_555 1_555
C56 C57 1_555 1_555
C57 C58 1_555 1_555
C58 C59 1_555 1_555
C59 C60 1_555 1_555
C60 C55 1_555 1_555
C61 C55 1_555 1_555
H27 C61 1_555 1_555
C62 C61 1_555 1_555
C63 C62 1_555 1_555
C64 C63 1_555 1_555
H28 C64 1_555 1_555
C65 C64 1_555 1_555
H29 C65 1_555 1_555
C66 C65 1_555 1_555
H30 C66 1_555 1_555
C67 C66 1_555 1_555
H31 C67 1_555 1_555
C68 C63 1_555 1_555
C69 C68 1_555 1_555
H32 C69 1_555 1_555
C70 C69 1_555 1_555
H33 C70 1_555 1_555
C71 C62 1_555 1_555
C72 C73 1_555 1_555
C73 H34 1_555 1_555
C74 C73 1_555 1_555
H35 C74 1_555 1_555
C75 C74 1_555 1_555
C76 C75 1_555 1_555
H36 C76 1_555 1_555
C77 C76 1_555 1_555
H37 C77 1_555 1_555
C78 C77 1_555 1_555
H38 C78 1_555 1_555
C79 C78 1_555 1_555
H39 C79 1_555 1_555
C80 C75 1_555 1_555
C81 C61 1_555 1_555
F11 C56 1_555 1_555
F12 C57 1_555 1_555
F13 C58 1_555 1_555
F14 C59 1_555 1_555
F15 C60 1_555 1_555
O3 C71 1_555 1_555
C82 C83 1_555 1_555
C83 C84 1_555 1_555
C84 C85 1_555 1_555
C85 C86 1_555 1_555
C86 C87 1_555 1_555
C87 C82 1_555 1_555
C88 C82 1_555 1_555
H40 C88 1_555 1_555
C89 C88 1_555 1_555
C90 C89 1_555 1_555
C91 C90 1_555 1_555
H41 C91 1_555 1_555
C92 C91 1_555 1_555
H42 C92 1_555 1_555
C93 C92 1_555 1_555
H43 C93 1_555 1_555
C94 C93 1_555 1_555
H44 C94 1_555 1_555
C95 C90 1_555 1_555
C96 C95 1_555 1_555
H45 C96 1_555 1_555
C97 C96 1_555 1_555
H46 C97 1_555 1_555
C98 C89 1_555 1_555
C99 C100 1_555 1_555
C100 H47 1_555 1_555
C101 C100 1_555 1_555
H48 C101 1_555 1_555
C102 C101 1_555 1_555
C103 C102 1_555 1_555
H49 C103 1_555 1_555
C104 C103 1_555 1_555
H50 C104 1_555 1_555
C105 C104 1_555 1_555
H51 C105 1_555 1_555
C106 C105 1_555 1_555
H52 C106 1_555 1_555
C107 C102 1_555 1_555
C108 C88 1_555 1_555
F16 C83 1_555 1_555
F17 C84 1_555 1_555
F18 C85 1_555 1_555
F19 C86 1_555 1_555
F20 C87 1_555 1_555
O4 C98 1_555 1_555
C5 C6 1_555 1_555
C13 C14 1_555 1_555
C16 C17 1_555 1_555
C18 C23 1_555 1_555
C18 O1 1_555 1_555
C22 C23 1_555 1_555
C26 C27 1_555 1_555
C40 C41 1_555 1_555
C43 C44 1_555 1_555
C45 C54 1_555 1_555
C45 O2 1_555 1_555
C52 C53 1_555 1_555
C53 C54 1_555 1_555
C67 C68 1_555 1_555
C70 C71 1_555 1_555
C72 C81 1_555 1_555
C72 O3 1_555 1_555
C79 C80 1_555 1_555
C80 C81 1_555 1_555
C94 C95 1_555 1_555
C97 C98 1_555 1_555
C99 C108 1_555 1_555
C99 O4 1_555 1_555
C106 C107 1_555 1_555
C107 C108 1_555 1_555

#END
