
#######################################################################
#
#                 Cambridge Crystallographic Data Centre
#                                CCDC 
#
#######################################################################
#
# If this CIF has been generated from an entry in the Cambridge 
# Structural Database, then it will include bibliographic, chemical, 
# crystal, experimental, refinement or atomic coordinate data resulting 
# from the CCDC's data processing and validation procedures.
#
#######################################################################

data_BOSSAF
_chemical_formula_moiety         'C29 H34 O7'
_chemical_name_systematic        
3,5,10,10,10b-pentamethoxy-2',6',6'-trimethyl-1H-spiro[aceanthrylene-2,1'-cyclohex[2]ene]-6,7(10H,10bH)-dione
_symmetry_cell_setting           monoclinic
_symmetry_space_group_name_H-M   'P 21/c'
_symmetry_Int_Tables_number      14
_space_group_name_Hall           '-P 2ybc'
loop_
_symmetry_equiv_pos_site_id
_symmetry_equiv_pos_as_xyz
1 x,y,z
2 -x,1/2+y,1/2-z
3 -x,-y,-z
4 x,1/2-y,1/2+z
_cell_length_a                   16.0786(3)
_cell_length_b                   10.6130(2)
_cell_length_c                   14.3637(2)
_cell_angle_alpha                90
_cell_angle_beta                 95.6600(7)
_cell_angle_gamma                90
_cell_volume                     2439.1
_exptl_crystal_colour            orange
_exptl_crystal_description       Block
_cell_formula_units_Z            4
loop_
_atom_site_label
_atom_site_type_symbol
_atom_site_fract_x
_atom_site_fract_y
_atom_site_fract_z
O1 O 0.18552(6) 0.50874(9) 0.45571(7)
O2 O 0.27287(6) 0.15842(9) 0.24295(7)
O3 O 0.04770(6) 0.41595(10) 0.09765(7)
O4 O 0.01801(6) 0.63233(10) 0.19995(7)
O5 O 0.31995(6) 0.81269(9) 0.36769(7)
O6 O 0.27421(6) 0.75513(9) 0.50514(7)
O7 O 0.07327(6) 0.87896(10) 0.19853(7)
C1 C 0.28494(10) 0.22886(14) 0.46550(10)
H1 H 0.2533 0.1791 0.4166
H2 H 0.2489 0.2946 0.4876
H3 H 0.3047 0.1737 0.5178
C2 C 0.35845(9) 0.28881(13) 0.42639(10)
C3 C 0.43651(10) 0.25886(15) 0.45747(11)
H4 H 0.4443 0.1973 0.5056
C4 C 0.51316(9) 0.31481(16) 0.42240(12)
H5 H 0.5408 0.2504 0.3863
H6 H 0.5528 0.3397 0.4764
C5 C 0.49273(9) 0.42955(15) 0.36059(12)
H7 H 0.5409 0.4486 0.3250
H8 H 0.4835 0.5032 0.4006
C6 C 0.41463(9) 0.40843(14) 0.29178(10)
C7 C 0.33847(8) 0.39070(13) 0.35228(9)
C8 C 0.31914(8) 0.51887(13) 0.40178(10)
H9 H 0.3299 0.5099 0.4705
H10 H 0.3556 0.5866 0.3813
C9 C 0.22725(8) 0.55219(13) 0.37502(9)
C10 C 0.20357(8) 0.46984(13) 0.29186(9)
C11 C 0.25684(8) 0.36860(13) 0.29036(9)
C12 C 0.22947(9) 0.26782(13) 0.23173(10)
C13 C 0.15884(9) 0.28245(13) 0.16735(10)
H11 H 0.1421 0.2154 0.1259
C14 C 0.11264(8) 0.39408(14) 0.16317(10)
C15 C 0.13285(8) 0.49005(13) 0.22917(9)
C16 C 0.08855(8) 0.61090(13) 0.23579(9)
C17 C 0.13623(8) 0.71244(13) 0.29236(9)
C18 C 0.20104(8) 0.68773(13) 0.35664(9)
C19 C 0.24646(8) 0.79349(13) 0.41321(10)
C20 C 0.19592(9) 0.91366(13) 0.41284(10)
H12 H 0.2094 0.9739 0.4609
C21 C 0.13344(9) 0.93819(13) 0.34807(10)
H13 H 0.1040 1.0156 0.3499
C22 C 0.10926(8) 0.84624(13) 0.27329(10)
C23 C 0.42926(10) 0.29103(15) 0.23250(11)
H14 H 0.3860 0.2865 0.1795
H15 H 0.4267 0.2153 0.2711
H16 H 0.4844 0.2966 0.2091
C24 C 0.40131(10) 0.51984(16) 0.22384(12)
H17 H 0.4009 0.5986 0.2594
H18 H 0.3478 0.5099 0.1856
H19 H 0.4468 0.5222 0.1831
C25 C 0.09765(9) 0.48677(16) 0.44219(11)
H20 H 0.0865 0.4123 0.4025
H21 H 0.0698 0.5602 0.4118
H22 H 0.0763 0.4726 0.5029
C26 C 0.25387(10) 0.05781(14) 0.17851(10)
H23 H 0.2659 0.0842 0.1158
H24 H 0.1946 0.0359 0.1774
H25 H 0.2881 -0.0158 0.1980
C27 C 0.03208(10) 0.32633(15) 0.02330(11)
H26 H -0.0115 0.3588 -0.0230
H27 H 0.0135 0.2466 0.0487
H28 H 0.0835 0.3123 -0.0066
C28 C 0.37116(9) 0.91621(14) 0.40368(11)
H29 H 0.4266 0.9095 0.3812
H30 H 0.3767 0.9138 0.4722
H31 H 0.3451 0.9958 0.3822
C29 C 0.21290(11) 0.75592(15) 0.57065(11)
H32 H 0.1661 0.7013 0.5479
H33 H 0.1925 0.8421 0.5777
H34 H 0.2380 0.7249 0.6313
loop_
_geom_bond_atom_site_label_1
_geom_bond_atom_site_label_2
_geom_bond_site_symmetry_1
_geom_bond_site_symmetry_2
O1 C9 1_555 1_555
O2 C12 1_555 1_555
O3 C14 1_555 1_555
O4 C16 1_555 1_555
O5 C19 1_555 1_555
O6 C19 1_555 1_555
O7 C22 1_555 1_555
C1 H1 1_555 1_555
H2 C1 1_555 1_555
H3 C1 1_555 1_555
C2 C1 1_555 1_555
C3 C2 1_555 1_555
H4 C3 1_555 1_555
C4 C3 1_555 1_555
H5 C4 1_555 1_555
H6 C4 1_555 1_555
C5 C4 1_555 1_555
H7 C5 1_555 1_555
H8 C5 1_555 1_555
C6 C5 1_555 1_555
C7 C2 1_555 1_555
C8 C7 1_555 1_555
H9 C8 1_555 1_555
H10 C8 1_555 1_555
C9 C8 1_555 1_555
C10 C9 1_555 1_555
C11 C7 1_555 1_555
C12 C11 1_555 1_555
C13 C12 1_555 1_555
H11 C13 1_555 1_555
C14 C13 1_555 1_555
C15 C10 1_555 1_555
C16 C15 1_555 1_555
C17 C16 1_555 1_555
C18 C9 1_555 1_555
C19 C18 1_555 1_555
C20 C19 1_555 1_555
H12 C20 1_555 1_555
C21 C20 1_555 1_555
H13 C21 1_555 1_555
C22 C17 1_555 1_555
C23 C6 1_555 1_555
H14 C23 1_555 1_555
H15 C23 1_555 1_555
H16 C23 1_555 1_555
C24 C6 1_555 1_555
H17 C24 1_555 1_555
H18 C24 1_555 1_555
H19 C24 1_555 1_555
C25 O1 1_555 1_555
H20 C25 1_555 1_555
H21 C25 1_555 1_555
H22 C25 1_555 1_555
C26 O2 1_555 1_555
H23 C26 1_555 1_555
H24 C26 1_555 1_555
H25 C26 1_555 1_555
C27 O3 1_555 1_555
H26 C27 1_555 1_555
H27 C27 1_555 1_555
H28 C27 1_555 1_555
C28 O5 1_555 1_555
H29 C28 1_555 1_555
H30 C28 1_555 1_555
H31 C28 1_555 1_555
C29 O6 1_555 1_555
H32 C29 1_555 1_555
H33 C29 1_555 1_555
H34 C29 1_555 1_555
C6 C7 1_555 1_555
C10 C11 1_555 1_555
C14 C15 1_555 1_555
C17 C18 1_555 1_555
C21 C22 1_555 1_555

#END
