
#######################################################################
#
#                 Cambridge Crystallographic Data Centre
#                                CCDC 
#
#######################################################################
#
# If this CIF has been generated from an entry in the Cambridge 
# Structural Database, then it will include bibliographic, chemical, 
# crystal, experimental, refinement or atomic coordinate data resulting 
# from the CCDC's data processing and validation procedures.
#
#######################################################################

data_BOSTEJ
_chemical_formula_moiety         'C22 H22 Cl2 N2 O2 S1'
_chemical_name_systematic        
'Methyl (9-((3,4-dichlorophenyl)sulfanyl)-1-isopropyl-7,8-dihydro-6H-pyrido[3,4-b]pyrrolizin-8-yl)acetate'
_symmetry_cell_setting           monoclinic
_symmetry_space_group_name_H-M   'P 21'
_symmetry_Int_Tables_number      4
_space_group_name_Hall           'P 2yb'
loop_
_symmetry_equiv_pos_site_id
_symmetry_equiv_pos_as_xyz
1 x,y,z
2 -x,1/2+y,-z
_cell_length_a                   5.5168(19)
_cell_length_b                   10.584(4)
_cell_length_c                   18.315(6)
_cell_angle_alpha                90
_cell_angle_beta                 94.739(6)
_cell_angle_gamma                90
_cell_volume                     1065.75
_exptl_crystal_colour            colorless
_cell_formula_units_Z            2
loop_
_atom_site_label
_atom_site_type_symbol
_atom_site_fract_x
_atom_site_fract_y
_atom_site_fract_z
Cl1 Cl -0.37797(12) 0.32167(7) 0.42331(4)
Cl2 Cl -0.23588(14) 0.56262(8) 0.52034(4)
S1 S 0.31010(10) 0.45665(5) 0.23851(3)
O1 O 0.7505(3) 0.02148(18) 0.26840(10)
O2 O 0.5125(3) -0.05694(19) 0.35065(10)
N1 N -0.4318(3) 0.50647(17) 0.06782(10)
N2 N -0.0116(3) 0.19081(17) 0.11685(10)
C1 C 0.1143(4) 0.3638(2) 0.18049(12)
C2 C -0.1000(4) 0.3965(2) 0.13286(12)
C3 C -0.2341(4) 0.5083(2) 0.11640(12)
C4 C -0.5015(4) 0.3955(2) 0.03524(13)
H1 H -0.6455 0.3962 0.0030
C5 C -0.3808(4) 0.2822(2) 0.04500(13)
H2 H -0.4337 0.2077 0.0195
C6 C -0.1758(4) 0.2841(2) 0.09478(13)
C7 C 0.0140(4) 0.0555(2) 0.10288(13)
H3 H 0.0006 0.0370 0.0497
H4 H -0.1090 0.0056 0.1268
C8 C 0.2725(5) 0.0293(3) 0.13787(15)
H5 H 0.3886 0.0247 0.0995
H6 H 0.2767 -0.0522 0.1645
C9 C 0.3429(4) 0.1388(2) 0.19162(12)
H7 H 0.5084 0.1702 0.1821
C10 C 0.1594(4) 0.2382(2) 0.16819(12)
C11 C 0.1437(4) 0.4816(2) 0.31595(12)
C12 C -0.0394(4) 0.4006(2) 0.33563(14)
H8 H -0.0843 0.3291 0.3062
C13 C -0.1553(4) 0.4254(2) 0.39861(14)
C14 C -0.0895(5) 0.5306(3) 0.44220(13)
C15 C 0.0941(5) 0.6098(3) 0.42273(14)
H9 H 0.1404 0.6807 0.4525
C16 C 0.2108(5) 0.5862(2) 0.35990(14)
H10 H 0.3364 0.6409 0.3467
C17 C 0.3435(4) 0.1024(2) 0.27236(13)
H11 H 0.3498 0.1798 0.3028
H12 H 0.1913 0.0568 0.2804
C18 C 0.5577(4) 0.0200(2) 0.29532(13)
C19 C 0.7143(5) -0.1353(3) 0.37891(16)
H13 H 0.7666 -0.1890 0.3395
H14 H 0.6629 -0.1886 0.4186
H15 H 0.8498 -0.0814 0.3977
C20 C -0.1491(4) 0.6359(2) 0.14590(13)
H16 H -0.0467 0.6220 0.1929
C21 C -0.3536(4) 0.7268(2) 0.16091(14)
H17 H -0.4491 0.7466 0.1148
H18 H -0.2840 0.8047 0.1826
H19 H -0.4590 0.6874 0.1949
C22 C 0.0115(4) 0.6938(2) 0.09064(15)
H20 H 0.1489 0.6374 0.0841
H21 H 0.0727 0.7759 0.1088
H22 H -0.0840 0.7053 0.0436
loop_
_geom_bond_atom_site_label_1
_geom_bond_atom_site_label_2
_geom_bond_site_symmetry_1
_geom_bond_site_symmetry_2
Cl1 C13 1_555 1_555
Cl2 C14 1_555 1_555
S1 C1 1_555 1_555
O1 C18 1_555 1_555
O2 C18 1_555 1_555
N1 C3 1_555 1_555
N2 C6 1_555 1_555
C1 C2 1_555 1_555
C2 C3 1_555 1_555
C3 C20 1_555 1_555
C4 N1 1_555 1_555
H1 C4 1_555 1_555
C5 C4 1_555 1_555
H2 C5 1_555 1_555
C6 C2 1_555 1_555
C7 N2 1_555 1_555
H3 C7 1_555 1_555
H4 C7 1_555 1_555
C8 C7 1_555 1_555
H5 C8 1_555 1_555
H6 C8 1_555 1_555
C9 C8 1_555 1_555
H7 C9 1_555 1_555
C10 N2 1_555 1_555
C11 S1 1_555 1_555
C12 C11 1_555 1_555
H8 C12 1_555 1_555
C13 C12 1_555 1_555
C14 C13 1_555 1_555
C15 C14 1_555 1_555
H9 C15 1_555 1_555
C16 C11 1_555 1_555
H10 C16 1_555 1_555
C17 C9 1_555 1_555
H11 C17 1_555 1_555
H12 C17 1_555 1_555
C18 C17 1_555 1_555
C19 O2 1_555 1_555
H13 C19 1_555 1_555
H14 C19 1_555 1_555
H15 C19 1_555 1_555
C20 H16 1_555 1_555
C21 C20 1_555 1_555
H17 C21 1_555 1_555
H18 C21 1_555 1_555
H19 C21 1_555 1_555
C22 C20 1_555 1_555
H20 C22 1_555 1_555
H21 C22 1_555 1_555
H22 C22 1_555 1_555
C1 C10 1_555 1_555
C5 C6 1_555 1_555
C9 C10 1_555 1_555
C15 C16 1_555 1_555

#END
