
#######################################################################
#
#                 Cambridge Crystallographic Data Centre
#                                CCDC 
#
#######################################################################
#
# If this CIF has been generated from an entry in the Cambridge 
# Structural Database, then it will include bibliographic, chemical, 
# crystal, experimental, refinement or atomic coordinate data resulting 
# from the CCDC's data processing and validation procedures.
#
#######################################################################

data_BOTMUT
_chemical_formula_moiety         'C13 H12 N4 O5'
_chemical_name_systematic        
6,8-Dinitro-2,3-pentamethylene-3,4-dihydroquinazolin-4-one
_symmetry_cell_setting           monoclinic
_symmetry_space_group_name_H-M   'P 21/c'
_symmetry_Int_Tables_number      14
_space_group_name_Hall           '-P 2ybc'
loop_
_symmetry_equiv_pos_site_id
_symmetry_equiv_pos_as_xyz
1 x,y,z
2 -x,1/2+y,1/2-z
3 -x,-y,-z
4 x,1/2-y,1/2+z
_cell_length_a                   6.383(3)
_cell_length_b                   22.556(11)
_cell_length_c                   9.310(5)
_cell_angle_alpha                90
_cell_angle_beta                 92.17(4)
_cell_angle_gamma                90
_cell_volume                     1339.45
_exptl_crystal_colour            colorless
_exptl_crystal_description       prism
_chemical_melting_point          '239-241deg. C'
_cell_formula_units_Z            4
loop_
_atom_site_label
_atom_site_type_symbol
_atom_site_fract_x
_atom_site_fract_y
_atom_site_fract_z
N1 N -0.0434(2) 0.38433(6) 0.12651(16)
C1 C 0.0914(3) 0.41345(8) 0.20782(18)
N2 N 0.2445(2) 0.38724(6) 0.29431(15)
C2 C 0.2728(3) 0.32596(8) 0.2983(2)
O1 O 0.4078(2) 0.30308(6) 0.37521(17)
C3 C 0.1248(3) 0.29253(8) 0.20700(18)
C4 C 0.1360(3) 0.23093(8) 0.2021(2)
H1 H 0.2387 0.2105 0.2556
C5 C -0.0075(3) 0.20120(8) 0.1169(2)
N3 N 0.0009(3) 0.13613(7) 0.1132(2)
O2 O -0.1121(3) 0.11051(7) 0.02540(19)
O3 O 0.1213(3) 0.11118(7) 0.1960(2)
C6 C -0.1651(3) 0.22965(8) 0.0358(2)
H2 H -0.2608 0.2084 -0.0215
C7 C -0.1737(3) 0.28987(8) 0.04380(18)
N4 N -0.3421(2) 0.32114(7) -0.03648(17)
C8 C -0.0300(3) 0.32348(8) 0.12721(18)
O4 O -0.4837(2) 0.34155(9) 0.02963(18)
O5 O -0.3321(3) 0.32501(9) -0.16390(17)
C9 C 0.0800(3) 0.47940(8) 0.2045(2)
H3 H 0.0673 0.4939 0.3019
H4 H -0.0453 0.4912 0.1496
C10 C 0.2702(3) 0.50878(9) 0.1391(2)
H5 H 0.3149 0.4847 0.0596
H6 H 0.2283 0.5471 0.1006
C11 C 0.4549(3) 0.51741(9) 0.2445(2)
H7 H 0.5658 0.5378 0.1961
H8 H 0.4116 0.5426 0.3225
C12 C 0.5413(3) 0.45992(9) 0.3068(2)
H9 H 0.5927 0.4360 0.2291
H10 H 0.6600 0.4691 0.3711
C13 C 0.3864(3) 0.42354(9) 0.3880(2)
H11 H 0.4631 0.3975 0.4541
H12 H 0.3026 0.4500 0.4445
loop_
_geom_bond_atom_site_label_1
_geom_bond_atom_site_label_2
_geom_bond_site_symmetry_1
_geom_bond_site_symmetry_2
N1 C1 1_555 1_555
C1 N2 1_555 1_555
N2 C2 1_555 1_555
C2 O1 1_555 1_555
C3 C2 1_555 1_555
C4 C3 1_555 1_555
H1 C4 1_555 1_555
C5 C4 1_555 1_555
N3 C5 1_555 1_555
O2 N3 1_555 1_555
O3 N3 1_555 1_555
C6 C5 1_555 1_555
H2 C6 1_555 1_555
C7 C6 1_555 1_555
N4 C7 1_555 1_555
C8 N1 1_555 1_555
O4 N4 1_555 1_555
O5 N4 1_555 1_555
C9 C1 1_555 1_555
H3 C9 1_555 1_555
H4 C9 1_555 1_555
C10 C9 1_555 1_555
H5 C10 1_555 1_555
H6 C10 1_555 1_555
C11 C10 1_555 1_555
H7 C11 1_555 1_555
H8 C11 1_555 1_555
C12 C11 1_555 1_555
H9 C12 1_555 1_555
H10 C12 1_555 1_555
C13 N2 1_555 1_555
H11 C13 1_555 1_555
H12 C13 1_555 1_555
C3 C8 1_555 1_555
C7 C8 1_555 1_555
C12 C13 1_555 1_555

#END
