
#######################################################################
#
#                 Cambridge Crystallographic Data Centre
#                                CCDC 
#
#######################################################################
#
# If this CIF has been generated from an entry in the Cambridge 
# Structural Database, then it will include bibliographic, chemical, 
# crystal, experimental, refinement or atomic coordinate data resulting 
# from the CCDC's data processing and validation procedures.
#
#######################################################################

data_BOTROS
_chemical_formula_moiety         'C9 H4 F9 O2 P1'
_chemical_name_systematic        
'(2,4,6-tris(Trifluoromethyl)phenyl)phosphinic acid'
_symmetry_cell_setting           monoclinic
_symmetry_space_group_name_H-M   'P 21'
_symmetry_Int_Tables_number      4
_space_group_name_Hall           'P 2yb'
loop_
_symmetry_equiv_pos_site_id
_symmetry_equiv_pos_as_xyz
1 x,y,z
2 -x,1/2+y,-z
_cell_length_a                   8.3240(10)
_cell_length_b                   6.3744(8)
_cell_length_c                   11.0384(13)
_cell_angle_alpha                90
_cell_angle_beta                 95.898(2)
_cell_angle_gamma                90
_cell_volume                     582.603
_exptl_crystal_colour            colorless
_exptl_crystal_description       needle
_cell_formula_units_Z            2
loop_
_atom_site_label
_atom_site_type_symbol
_atom_site_fract_x
_atom_site_fract_y
_atom_site_fract_z
P1 P 0.50478(10) -0.02178(14) 0.39056(8)
O1 O 0.4772(3) -0.0291(5) 0.52100(19)
O2 O 0.4921(3) -0.2366(4) 0.3262(2)
C1 C 0.3648(4) 0.1520(5) 0.3008(3)
C2 C 0.4171(4) 0.2773(5) 0.2068(3)
C3 C 0.3191(4) 0.4302(5) 0.1493(3)
H1 H 0.3560 0.5107 0.0876
C4 C 0.1670(4) 0.4627(7) 0.1836(3)
C5 C 0.1088(4) 0.3389(6) 0.2707(3)
H2 H 0.0045 0.3594 0.2915
C6 C 0.2054(4) 0.1823(6) 0.3282(3)
C7 C 0.5833(5) 0.2557(6) 0.1655(3)
C8 C 0.0679(5) 0.6377(7) 0.1230(4)
C9 C 0.1285(5) 0.0513(6) 0.4200(4)
F1 F 0.6968(2) 0.3465(4) 0.2427(2)
F2 F 0.6265(3) 0.0537(4) 0.15541(19)
F3 F 0.5926(3) 0.3421(4) 0.0574(2)
F4 F 0.0532(4) 0.6200(5) 0.0033(3)
F5 F 0.1387(4) 0.8224(4) 0.1433(2)
F6 F -0.0759(4) 0.6502(6) 0.1581(5)
F7 F 0.1745(3) -0.1508(3) 0.4183(2)
F8 F 0.1598(3) 0.1201(4) 0.53368(19)
F9 F -0.0323(3) 0.0502(4) 0.3957(2)
H3 H 0.645(4) 0.052(6) 0.377(3)
H4 H 0.516(5) -0.333(8) 0.377(4)
loop_
_geom_bond_atom_site_label_1
_geom_bond_atom_site_label_2
_geom_bond_site_symmetry_1
_geom_bond_site_symmetry_2
P1 O1 1_555 1_555
O2 P1 1_555 1_555
C1 P1 1_555 1_555
C2 C1 1_555 1_555
C3 C2 1_555 1_555
H1 C3 1_555 1_555
C4 C3 1_555 1_555
C5 C4 1_555 1_555
H2 C5 1_555 1_555
C6 C1 1_555 1_555
C7 C2 1_555 1_555
C8 C4 1_555 1_555
C9 C6 1_555 1_555
F1 C7 1_555 1_555
F2 C7 1_555 1_555
F3 C7 1_555 1_555
F4 C8 1_555 1_555
F5 C8 1_555 1_555
F6 C8 1_555 1_555
F7 C9 1_555 1_555
F8 C9 1_555 1_555
F9 C9 1_555 1_555
H3 P1 1_555 1_555
H4 O2 1_555 1_555
C5 C6 1_555 1_555

#END
