
#######################################################################
#
#                 Cambridge Crystallographic Data Centre
#                                CCDC 
#
#######################################################################
#
# If this CIF has been generated from an entry in the Cambridge 
# Structural Database, then it will include bibliographic, chemical, 
# crystal, experimental, refinement or atomic coordinate data resulting 
# from the CCDC's data processing and validation procedures.
#
#######################################################################

data_BOTXUE
_chemical_compound_source        'root of Rennelia elliptica Korth'
_chemical_formula_moiety         'C16 H12 O4'
_chemical_name_systematic        
1-Hydroxy-2-methoxy-6-methyl-9,10-anthraquinone
_symmetry_cell_setting           triclinic
_symmetry_space_group_name_H-M   'P -1'
_symmetry_Int_Tables_number      2
_space_group_name_Hall           '-P 1'
loop_
_symmetry_equiv_pos_site_id
_symmetry_equiv_pos_as_xyz
1 x,y,z
2 -x,-y,-z
_cell_length_a                   7.1755(3)
_cell_length_b                   11.9082(5)
_cell_length_c                   14.9683(7)
_cell_angle_alpha                91.409(3)
_cell_angle_beta                 100.603(3)
_cell_angle_gamma                105.666(3)
_cell_volume                     1206.73
_exptl_crystal_colour            yellow
_exptl_crystal_description       plate
_cell_formula_units_Z            4
_exptl_crystal_recrystallization_method chloroform
loop_
_atom_site_label
_atom_site_type_symbol
_atom_site_fract_x
_atom_site_fract_y
_atom_site_fract_z
O1 O 0.2331(5) 0.2601(3) 0.5314(2)
O2 O 0.2924(5) 0.7172(3) 0.4917(2)
O3 O 0.3202(5) 0.6932(3) 0.3261(2)
H1 H 0.3084 0.7272 0.3737
O4 O 0.3344(5) 0.5601(3) 0.1875(2)
C1 C 0.1303(8) 0.4169(5) 0.8389(3)
H3 H 0.2063 0.3608 0.8555
H4 H -0.0110 0.3773 0.8316
H5 H 0.1682 0.4806 0.8872
C2 C 0.1725(7) 0.4662(4) 0.7505(3)
C3 C 0.1867(7) 0.3958(4) 0.6786(3)
H6 H 0.1746 0.3153 0.6858
C4 C 0.2183(7) 0.4406(4) 0.5959(3)
C5 C 0.2389(7) 0.3634(4) 0.5212(3)
C6 C 0.2613(7) 0.4126(4) 0.4328(3)
C7 C 0.2703(7) 0.3443(4) 0.3595(3)
H7 H 0.2615 0.2640 0.3662
C8 C 0.2921(7) 0.3884(4) 0.2752(3)
H8 H 0.2951 0.3385 0.2253
C9 C 0.3092(7) 0.5067(4) 0.2654(3)
C10 C 0.3034(7) 0.5792(4) 0.3390(3)
C11 C 0.2798(7) 0.5340(4) 0.4234(3)
C12 C 0.2727(7) 0.6111(4) 0.4991(3)
C13 C 0.2400(7) 0.5601(4) 0.5865(3)
C14 C 0.2299(7) 0.6314(4) 0.6590(3)
H9 H 0.2462 0.7125 0.6527
C15 C 0.1964(7) 0.5858(4) 0.7401(3)
H10 H 0.1894 0.6355 0.7893
C16 C 0.3257(8) 0.4888(5) 0.1080(4)
H11 H 0.3329 0.5367 0.0558
H12 H 0.2014 0.4261 0.0959
H13 H 0.4370 0.4546 0.1179
O5 O 0.9299(6) 1.2275(3) 1.0962(2)
O6 O 0.5739(6) 0.7665(3) 1.0100(2)
O7 O 0.5636(6) 0.7944(3) 0.8409(2)
H2 H 0.5365 0.7587 0.8866
O8 O 0.6524(5) 0.9285(3) 0.7122(2)
C17 C 0.8428(9) 1.0596(5) 1.4057(3)
H14 H 0.9719 1.1182 1.4193
H15 H 0.8450 0.9950 1.4449
H16 H 0.7409 1.0957 1.4171
C18 C 0.7980(7) 1.0137(5) 1.3075(3)
C19 C 0.8440(7) 1.0856(5) 1.2383(3)
H17 H 0.9084 1.1664 1.2537
C20 C 0.7990(7) 1.0432(4) 1.1479(3)
C21 C 0.8479(8) 1.1216(5) 1.0761(3)
C22 C 0.7990(7) 1.0732(4) 0.9807(3)
C23 C 0.8403(8) 1.1438(5) 0.9115(3)
H18 H 0.9019 1.2251 0.9259
C24 C 0.7944(8) 1.0992(5) 0.8208(3)
H19 H 0.8261 1.1500 0.7745
C25 C 0.7032(8) 0.9821(5) 0.7979(3)
C26 C 0.6581(7) 0.9084(4) 0.8672(4)
C27 C 0.7028(7) 0.9509(4) 0.9582(3)
C28 C 0.6543(7) 0.8737(4) 1.0285(3)
C29 C 0.7021(7) 0.9217(4) 1.1244(3)
C30 C 0.6537(7) 0.8511(5) 1.1930(3)
H20 H 0.5869 0.7705 1.1781
C31 C 0.7009(8) 0.8955(4) 1.2837(3)
H21 H 0.6666 0.8449 1.3299
C32 C 0.6916(9) 0.9996(6) 0.6386(4)
H22 H 0.6461 0.9508 0.5809
H23 H 0.8338 1.0370 0.6471
H24 H 0.6216 1.0600 0.6374
loop_
_geom_bond_atom_site_label_1
_geom_bond_atom_site_label_2
_geom_bond_site_symmetry_1
_geom_bond_site_symmetry_2
O1 C5 1_555 1_555
O2 C12 1_555 1_555
O3 H1 1_555 1_555
O4 C9 1_555 1_555
O5 C21 1_555 1_555
O6 C28 1_555 1_555
O7 H2 1_555 1_555
O8 C25 1_555 1_555
C1 H3 1_555 1_555
H4 C1 1_555 1_555
H5 C1 1_555 1_555
C2 C1 1_555 1_555
C3 C2 1_555 1_555
H6 C3 1_555 1_555
C4 C3 1_555 1_555
C5 C4 1_555 1_555
C6 C5 1_555 1_555
C7 C6 1_555 1_555
H7 C7 1_555 1_555
C8 C7 1_555 1_555
H8 C8 1_555 1_555
C9 C8 1_555 1_555
C10 O3 1_555 1_555
C11 C6 1_555 1_555
C12 C11 1_555 1_555
C13 C4 1_555 1_555
C14 C13 1_555 1_555
H9 C14 1_555 1_555
C15 C2 1_555 1_555
H10 C15 1_555 1_555
C16 O4 1_555 1_555
H11 C16 1_555 1_555
H12 C16 1_555 1_555
H13 C16 1_555 1_555
C17 H14 1_555 1_555
H15 C17 1_555 1_555
H16 C17 1_555 1_555
C18 C17 1_555 1_555
C19 C18 1_555 1_555
H17 C19 1_555 1_555
C20 C19 1_555 1_555
C21 C20 1_555 1_555
C22 C21 1_555 1_555
C23 C22 1_555 1_555
H18 C23 1_555 1_555
C24 C23 1_555 1_555
H19 C24 1_555 1_555
C25 C24 1_555 1_555
C26 O7 1_555 1_555
C27 C22 1_555 1_555
C28 C27 1_555 1_555
C29 C20 1_555 1_555
C30 C29 1_555 1_555
H20 C30 1_555 1_555
C31 C18 1_555 1_555
H21 C31 1_555 1_555
C32 O8 1_555 1_555
H22 C32 1_555 1_555
H23 C32 1_555 1_555
H24 C32 1_555 1_555
C9 C10 1_555 1_555
C10 C11 1_555 1_555
C12 C13 1_555 1_555
C14 C15 1_555 1_555
C25 C26 1_555 1_555
C26 C27 1_555 1_555
C28 C29 1_555 1_555
C30 C31 1_555 1_555

#END
