
#######################################################################
#
#                 Cambridge Crystallographic Data Centre
#                                CCDC 
#
#######################################################################
#
# If this CIF has been generated from an entry in the Cambridge 
# Structural Database, then it will include bibliographic, chemical, 
# crystal, experimental, refinement or atomic coordinate data resulting 
# from the CCDC's data processing and validation procedures.
#
#######################################################################

data_BOTXIS
_chemical_compound_source        'roots of Aconitum carmichaeli Debx'
_chemical_formula_moiety         'C43 H45 N1 O13,0.5(H2 O1)'
_chemical_name_systematic        
'(1\b,2\a,3\a,7\a,11\a,13\b)-1,3,7,11-Tetraacetoxy-2,13-bis(benzyloxy)-21-methyl-19,21-secohetisan-19-al hemihydrate'
_symmetry_cell_setting           orthorhombic
_symmetry_space_group_name_H-M   'P 21 21 21'
_symmetry_Int_Tables_number      19
_space_group_name_Hall           'P 2ac 2ab'
loop_
_symmetry_equiv_pos_site_id
_symmetry_equiv_pos_as_xyz
1 x,y,z
2 1/2+x,1/2-y,-z
3 -x,1/2+y,1/2-z
4 1/2-x,-y,1/2+z
_cell_length_a                   11.517(3)
_cell_length_b                   18.045(4)
_cell_length_c                   19.241(4)
_cell_angle_alpha                90
_cell_angle_beta                 90
_cell_angle_gamma                90
_cell_volume                     3998.75
_exptl_crystal_colour            colorless
_exptl_crystal_description       block
_cell_formula_units_Z            4
_exptl_crystal_recrystallization_method acetone/water
loop_
_atom_site_label
_atom_site_type_symbol
_atom_site_fract_x
_atom_site_fract_y
_atom_site_fract_z
N1 N 0.8109(4) 0.4658(2) 0.2072(2)
O1 O 0.4566(3) 0.41227(19) 0.30263(17)
O2 O 0.3551(4) 0.3061(3) 0.3012(3)
O3 O 0.6957(3) 0.29181(18) 0.25073(15)
O4 O 0.6532(5) 0.1788(2) 0.2904(3)
O5 O 0.7455(3) 0.3093(2) 0.39340(16)
O6 O 0.6180(7) 0.2970(4) 0.4783(3)
O7 O 0.9560(4) 0.4295(2) 0.3264(2)
O8 O 0.7968(4) 0.63060(19) 0.16840(17)
O9 O 0.8387(5) 0.6961(2) 0.2649(2)
O10 O 0.3615(3) 0.4339(2) 0.16916(18)
O11 O 0.2044(4) 0.4848(3) 0.1230(3)
O12 O 0.5520(3) 0.38202(18) 0.07900(15)
O13 O 0.7089(5) 0.3518(2) 0.0167(2)
C1 C 0.5433(4) 0.3818(3) 0.2552(2)
H3 H 0.5055 0.3574 0.2157
C2 C 0.6125(5) 0.3258(3) 0.2978(2)
H4 H 0.5599 0.2876 0.3158
C3 C 0.6726(5) 0.3642(3) 0.3580(2)
H5 H 0.6127 0.3804 0.3908
C4 C 0.7491(5) 0.4309(3) 0.3412(2)
C5 C 0.6813(5) 0.4848(3) 0.2924(2)
H6 H 0.6320 0.5182 0.3197
C6 C 0.7700(5) 0.5288(3) 0.2504(2)
H7 H 0.8321 0.5487 0.2799
C7 C 0.7118(5) 0.5894(3) 0.2074(2)
H8 H 0.6728 0.6236 0.2393
C8 C 0.6210(5) 0.5581(3) 0.1574(2)
C9 C 0.5323(4) 0.5144(3) 0.2020(2)
H9 H 0.5078 0.5457 0.2409
C10 C 0.6107(4) 0.4495(2) 0.2311(2)
C11 C 0.4261(5) 0.5014(3) 0.1534(2)
H10 H 0.3729 0.5432 0.1599
C12 C 0.4632(5) 0.5014(3) 0.0769(2)
H11 H 0.4015 0.4816 0.0471
C13 C 0.5756(5) 0.4594(3) 0.0665(2)
H12 H 0.6009 0.4655 0.0182
C14 C 0.6697(5) 0.4909(3) 0.1149(2)
H13 H 0.7379 0.5061 0.0880
C15 C 0.5672(5) 0.6171(3) 0.1110(3)
H14 H 0.5222 0.6513 0.1391
H15 H 0.6280 0.6449 0.0879
C16 C 0.4908(5) 0.5817(3) 0.0584(2)
C17 C 0.4573(6) 0.6101(3) -0.0017(3)
H16 H 0.4830 0.6577 -0.0136
H17 H 0.4097 0.5839 -0.0307
C18 C 0.7737(6) 0.4725(3) 0.4089(2)
H18 H 0.7038 0.4753 0.4360
H19 H 0.8004 0.5216 0.3984
H20 H 0.8323 0.4466 0.4348
C19 C 0.8629(5) 0.4042(3) 0.3101(3)
H21 H 0.8607 0.3667 0.2771
C20 C 0.7053(4) 0.4388(3) 0.1735(2)
H22 H 0.7120 0.3872 0.1581
C21 C 0.9154(5) 0.4730(4) 0.1657(3)
H23 H 0.9810 0.4798 0.1958
H24 H 0.9081 0.5150 0.1354
H25 H 0.9261 0.4290 0.1385
C22 C 0.3641(6) 0.3712(4) 0.3187(3)
C23 C 0.2783(6) 0.4138(4) 0.3600(4)
H26 H 0.2664 0.4614 0.3390
H27 H 0.3069 0.4202 0.4065
H28 H 0.2061 0.3872 0.3613
C24 C 0.7091(5) 0.2182(3) 0.2527(3)
C25 C 0.8001(5) 0.1921(3) 0.2039(3)
C26 C 0.8602(6) 0.2382(3) 0.1606(3)
H29 H 0.8440 0.2887 0.1613
C27 C 0.9435(6) 0.2121(4) 0.1162(3)
H30 H 0.9840 0.2442 0.0871
C28 C 0.9662(7) 0.1361(4) 0.1156(4)
H31 H 1.0205 0.1172 0.0845
C29 C 0.9110(7) 0.0901(4) 0.1591(4)
H32 H 0.9305 0.0401 0.1597
C30 C 0.8267(6) 0.1156(3) 0.2026(4)
H33 H 0.7867 0.0829 0.2313
C31 C 0.7080(7) 0.2792(4) 0.4532(4)
C32 C 0.7891(7) 0.2250(4) 0.4806(3)
H34 H 0.8670 0.2431 0.4752
H35 H 0.7807 0.1792 0.4558
H36 H 0.7733 0.2169 0.5290
C33 C 0.8555(6) 0.6848(3) 0.2056(4)
C34 C 0.9414(7) 0.7233(4) 0.1601(4)
H37 H 0.9086 0.7302 0.1147
H38 H 1.0104 0.6937 0.1566
H39 H 0.9604 0.7706 0.1798
C35 C 0.2509(5) 0.4329(3) 0.1512(3)
C36 C 0.1945(6) 0.3630(4) 0.1650(4)
H40 H 0.2522 0.3250 0.1705
H41 H 0.1445 0.3506 0.1268
H42 H 0.1494 0.3668 0.2067
C37 C 0.6245(6) 0.3329(3) 0.0482(3)
C38 C 0.5864(6) 0.2548(3) 0.0582(3)
C39 C 0.6559(7) 0.2000(3) 0.0315(3)
H43 H 0.7251 0.2121 0.0093
C40 C 0.6216(10) 0.1249(4) 0.0379(4)
H44 H 0.6682 0.0872 0.0204
C41 C 0.5203(10) 0.1088(5) 0.0698(5)
H45 H 0.4982 0.0594 0.0738
C42 C 0.4482(8) 0.1630(4) 0.0966(4)
H46 H 0.3782 0.1507 0.1178
C43 C 0.4837(6) 0.2370(3) 0.0908(3)
H47 H 0.4374 0.2744 0.1092
O14 O 0.4527(15) 0.4368(6) 0.5068(7)
H1 H 0.3997 0.4441 0.5398
H2 H 0.5077 0.4021 0.5148
loop_
_geom_bond_atom_site_label_1
_geom_bond_atom_site_label_2
_geom_bond_site_symmetry_1
_geom_bond_site_symmetry_2
N1 C6 1_555 1_555
O1 C1 1_555 1_555
O2 C22 1_555 1_555
O3 C2 1_555 1_555
O4 C24 1_555 1_555
O5 C3 1_555 1_555
O6 C31 1_555 1_555
O7 C19 1_555 1_555
O8 C7 1_555 1_555
O9 C33 1_555 1_555
O10 C11 1_555 1_555
O11 C35 1_555 1_555
O12 C13 1_555 1_555
O13 C37 1_555 1_555
O14 H1 1_555 1_555
H2 O14 1_555 1_555
C1 H3 1_555 1_555
C2 C1 1_555 1_555
H4 C2 1_555 1_555
C3 C2 1_555 1_555
H5 C3 1_555 1_555
C4 C3 1_555 1_555
C5 C4 1_555 1_555
H6 C5 1_555 1_555
C6 C5 1_555 1_555
H7 C6 1_555 1_555
C7 C6 1_555 1_555
H8 C7 1_555 1_555
C8 C7 1_555 1_555
C9 C8 1_555 1_555
H9 C9 1_555 1_555
C10 C1 1_555 1_555
C11 C9 1_555 1_555
H10 C11 1_555 1_555
C12 C11 1_555 1_555
H11 C12 1_555 1_555
C13 C12 1_555 1_555
H12 C13 1_555 1_555
C14 C8 1_555 1_555
H13 C14 1_555 1_555
C15 C8 1_555 1_555
H14 C15 1_555 1_555
H15 C15 1_555 1_555
C16 C12 1_555 1_555
C17 C16 1_555 1_555
H16 C17 1_555 1_555
H17 C17 1_555 1_555
C18 C4 1_555 1_555
H18 C18 1_555 1_555
H19 C18 1_555 1_555
H20 C18 1_555 1_555
C19 C4 1_555 1_555
H21 C19 1_555 1_555
C20 N1 1_555 1_555
H22 C20 1_555 1_555
C21 N1 1_555 1_555
H23 C21 1_555 1_555
H24 C21 1_555 1_555
H25 C21 1_555 1_555
C22 O1 1_555 1_555
C23 C22 1_555 1_555
H26 C23 1_555 1_555
H27 C23 1_555 1_555
H28 C23 1_555 1_555
C24 O3 1_555 1_555
C25 C24 1_555 1_555
C26 C25 1_555 1_555
H29 C26 1_555 1_555
C27 C26 1_555 1_555
H30 C27 1_555 1_555
C28 C27 1_555 1_555
H31 C28 1_555 1_555
C29 C28 1_555 1_555
H32 C29 1_555 1_555
C30 C25 1_555 1_555
H33 C30 1_555 1_555
C31 O5 1_555 1_555
C32 C31 1_555 1_555
H34 C32 1_555 1_555
H35 C32 1_555 1_555
H36 C32 1_555 1_555
C33 O8 1_555 1_555
C34 C33 1_555 1_555
H37 C34 1_555 1_555
H38 C34 1_555 1_555
H39 C34 1_555 1_555
C35 O10 1_555 1_555
C36 C35 1_555 1_555
H40 C36 1_555 1_555
H41 C36 1_555 1_555
H42 C36 1_555 1_555
C37 O12 1_555 1_555
C38 C37 1_555 1_555
C39 C38 1_555 1_555
H43 C39 1_555 1_555
C40 C39 1_555 1_555
H44 C40 1_555 1_555
C41 C40 1_555 1_555
H45 C41 1_555 1_555
C42 C41 1_555 1_555
H46 C42 1_555 1_555
C43 C38 1_555 1_555
H47 C43 1_555 1_555
C5 C10 1_555 1_555
C9 C10 1_555 1_555
C10 C20 1_555 1_555
C13 C14 1_555 1_555
C14 C20 1_555 1_555
C15 C16 1_555 1_555
C29 C30 1_555 1_555
C42 C43 1_555 1_555

#END
