
#######################################################################
#
#                 Cambridge Crystallographic Data Centre
#                                CCDC 
#
#######################################################################
#
# If this CIF has been generated from an entry in the Cambridge 
# Structural Database, then it will include bibliographic, chemical, 
# crystal, experimental, refinement or atomic coordinate data resulting 
# from the CCDC's data processing and validation procedures.
#
#######################################################################

data_BOTXEP
_chemical_formula_moiety         'C13 H12 N2 O2'
_chemical_name_systematic        
'2-propylchromeno[4,3-c]pyrazol-4(2H)-one unknown solvate'
_symmetry_cell_setting           monoclinic
_symmetry_space_group_name_H-M   'P 21/c'
_symmetry_Int_Tables_number      14
_space_group_name_Hall           '-P 2ybc'
loop_
_symmetry_equiv_pos_site_id
_symmetry_equiv_pos_as_xyz
1 x,y,z
2 -x,1/2+y,1/2-z
3 -x,-y,-z
4 x,1/2-y,1/2+z
_cell_length_a                   8.7007(12)
_cell_length_b                   15.1805(19)
_cell_length_c                   8.6860(10)
_cell_angle_alpha                90
_cell_angle_beta                 104.082(4)
_cell_angle_gamma                90
_cell_volume                     1112.78
_exptl_crystal_colour            colorless
_exptl_crystal_description       parallelepiped
_chemical_melting_point          '180-182 deg.C'
_cell_formula_units_Z            4
_chemical_properties_physical    'Hygroscopic, Heat-sensitive'
_exptl_crystal_preparation       'Magnetic properties'
loop_
_atom_site_label
_atom_site_type_symbol
_atom_site_fract_x
_atom_site_fract_y
_atom_site_fract_z
O1 O 0.08416(12) 1.14152(6) 0.12299(12)
O2 O -0.00229(14) 1.12806(6) 0.33951(14)
C1 C 0.21495(15) 0.97365(8) 0.15388(16)
C2 C 0.22909(15) 1.02643(9) 0.01992(16)
N1 N 0.21863(13) 0.87380(7) 0.32496(14)
C3 C 0.15979(15) 1.10996(9) 0.01006(16)
N2 N 0.26614(13) 0.89155(7) 0.18966(14)
C4 C 0.06703(16) 1.09350(9) 0.25140(17)
C5 C 0.13642(15) 1.00703(8) 0.26423(16)
C6 C 0.30207(18) 1.00123(10) -0.09875(17)
H1 H 0.3494 0.9461 -0.0945
C7 C 0.16097(18) 1.16635(10) -0.11428(17)
H2 H 0.1135 1.2215 -0.1194
C8 C 0.25832(18) 0.78854(9) 0.40367(19)
H3 H 0.2225 0.7417 0.3274
H4 H 0.2028 0.7825 0.4874
C9 C 0.14171(16) 0.94006(9) 0.37326(17)
H5 H 0.1000 0.9411 0.4622
C10 C 0.43360(19) 0.77880(10) 0.4736(2)
H6 H 0.4532 0.7219 0.5254
H7 H 0.4875 0.7796 0.3881
C11 C 0.2333(2) 1.13965(11) -0.23014(19)
H8 H 0.2346 1.1770 -0.3147
C12 C 0.3048(2) 1.05748(11) -0.22271(19)
H9 H 0.3545 1.0404 -0.3013
C13 C 0.5033(3) 0.84889(13) 0.5910(2)
H10 H 0.4954 0.9048 0.5381
H11 H 0.6127 0.8357 0.6373
H12 H 0.4465 0.8511 0.6728
loop_
_geom_bond_atom_site_label_1
_geom_bond_atom_site_label_2
_geom_bond_site_symmetry_1
_geom_bond_site_symmetry_2
O1 C3 1_555 1_555
O2 C4 1_555 1_555
C1 C2 1_555 1_555
C2 C3 1_555 1_555
N1 N2 1_555 1_555
C3 C7 1_555 1_555
N2 C1 1_555 1_555
C4 O1 1_555 1_555
C5 C1 1_555 1_555
C6 C2 1_555 1_555
H1 C6 1_555 1_555
C7 H2 1_555 1_555
C8 N1 1_555 1_555
H3 C8 1_555 1_555
H4 C8 1_555 1_555
C9 N1 1_555 1_555
H5 C9 1_555 1_555
C10 C8 1_555 1_555
H6 C10 1_555 1_555
H7 C10 1_555 1_555
C11 C7 1_555 1_555
H8 C11 1_555 1_555
C12 C6 1_555 1_555
H9 C12 1_555 1_555
C13 C10 1_555 1_555
H10 C13 1_555 1_555
H11 C13 1_555 1_555
H12 C13 1_555 1_555
C4 C5 1_555 1_555
C5 C9 1_555 1_555
C11 C12 1_555 1_555

#END
