
#######################################################################
#
#                 Cambridge Crystallographic Data Centre
#                                CCDC 
#
#######################################################################
#
# If this CIF has been generated from an entry in the Cambridge 
# Structural Database, then it will include bibliographic, chemical, 
# crystal, experimental, refinement or atomic coordinate data resulting 
# from the CCDC's data processing and validation procedures.
#
#######################################################################

data_BOTYIU
_chemical_formula_moiety         'C27 H31 N3 O4'
_chemical_name_systematic        
1-(9H-carbazol-4-yloxy)-3-(4-(2,5-dimethoxyphenyl)piperazin-1-yl)propan-2-ol
_chemical_properties_biological  
'strong antagonistic activity on a1B-AR (pA2 7.13) with a poor selectivity for a1A and a1D subtypes'
_symmetry_cell_setting           monoclinic
_symmetry_space_group_name_H-M   'P 21/c'
_symmetry_Int_Tables_number      14
_space_group_name_Hall           '-P 2ybc'
loop_
_symmetry_equiv_pos_site_id
_symmetry_equiv_pos_as_xyz
1 x,y,z
2 -x,1/2+y,1/2-z
3 -x,-y,-z
4 x,1/2-y,1/2+z
_cell_length_a                   8.4876(17)
_cell_length_b                   11.168(2)
_cell_length_c                   26.600(5)
_cell_angle_alpha                90
_cell_angle_beta                 97.26(3)
_cell_angle_gamma                90
_cell_volume                     2501.19
_exptl_crystal_colour            colorless
_cell_formula_units_Z            4
_exptl_crystal_recrystallization_method dichloromethane/n-hexane
loop_
_atom_site_label
_atom_site_type_symbol
_atom_site_fract_x
_atom_site_fract_y
_atom_site_fract_z
O1 O 0.30101(17) 0.76682(13) 0.64742(5)
O2 O 1.17591(17) 0.37754(14) 0.65391(5)
N1 N 0.91341(18) 0.42163(15) 0.58816(6)
O3 O 0.45944(19) 0.75157(19) 0.52917(6)
H1 H 0.5407 0.7201 0.5217
O4 O 1.0831(2) 0.13298(17) 0.47212(6)
N2 N 0.6932(2) 0.61827(16) 0.58709(6)
N3 N 0.1504(2) 0.83762(17) 0.80484(7)
H2 H 0.1077 0.8662 0.8299
C1 C 0.2912(2) 0.71857(17) 0.75791(7)
C2 C 1.0284(2) 0.33896(18) 0.57388(7)
C3 C 0.2170(2) 0.81160(17) 0.72594(7)
C4 C 0.2171(2) 0.84231(18) 0.67495(7)
C5 C 1.1659(2) 0.31732(19) 0.60830(7)
C6 C 0.1326(2) 0.88365(19) 0.75647(8)
C7 C 0.2475(2) 0.73820(19) 0.80667(8)
C8 C 1.0082(3) 0.2738(2) 0.52931(7)
H3 H 0.9169 0.2857 0.5066
C9 C 0.3236(2) 0.8029(2) 0.59770(7)
H4 H 0.3733 0.8812 0.5984
H5 H 0.2224 0.8071 0.5763
C10 C 0.3900(2) 0.6220(2) 0.75089(9)
H6 H 0.4212 0.6068 0.7192
C11 C 1.1201(3) 0.1915(2) 0.51756(8)
C12 C 0.9676(3) 0.54779(19) 0.59239(8)
H7 H 0.9801 0.5783 0.5590
H8 H 1.0702 0.5516 0.6130
C13 C 0.1381(2) 0.9433(2) 0.65606(9)
H9 H 0.1384 0.9649 0.6223
C14 C 0.7588(2) 0.4178(2) 0.55723(8)
H10 H 0.7211 0.3358 0.5542
H11 H 0.7682 0.4477 0.5235
C15 C 0.6415(2) 0.4944(2) 0.58185(9)
H12 H 0.5385 0.4910 0.5614
H13 H 0.6300 0.4621 0.6151
C16 C 0.4295(3) 0.7105(2) 0.57751(8)
H14 H 0.3719 0.6343 0.5734
C17 C 1.2567(3) 0.1745(2) 0.55037(8)
H15 H 1.3340 0.1211 0.5424
C18 C 0.2988(3) 0.6645(2) 0.84729(9)
H16 H 0.2688 0.6785 0.8792
C19 C 1.2777(3) 0.2381(2) 0.59544(9)
H17 H 1.3703 0.2267 0.6176
C20 C 0.8509(2) 0.6246(2) 0.61575(8)
H18 H 0.8456 0.5983 0.6503
H19 H 0.8874 0.7070 0.6169
C21 C 0.5814(3) 0.6912(2) 0.61184(8)
H20 H 0.6294 0.7681 0.6213
H21 H 0.5587 0.6515 0.6425
C22 C 0.4408(3) 0.5495(2) 0.79161(11)
H22 H 0.5073 0.4851 0.7873
C23 C 0.3946(3) 0.5709(2) 0.83880(10)
H23 H 0.4299 0.5199 0.8655
C24 C 0.0575(3) 1.0131(2) 0.68798(10)
H24 H 0.0059 1.0818 0.6748
C25 C 0.0508(3) 0.9852(2) 0.73776(10)
H25 H -0.0060 1.0321 0.7581
C26 C 1.2847(3) 0.3322(3) 0.69410(9)
H26 H 1.3912 0.3490 0.6876
H27 H 1.2708 0.2472 0.6967
H28 H 1.2659 0.3696 0.7253
C27 C 1.1856(4) 0.0401(3) 0.46019(11)
H29 H 1.1458 0.0062 0.4279
H30 H 1.1906 -0.0208 0.4858
H31 H 1.2900 0.0720 0.4588
loop_
_geom_bond_atom_site_label_1
_geom_bond_atom_site_label_2
_geom_bond_site_symmetry_1
_geom_bond_site_symmetry_2
O1 C4 1_555 1_555
O2 C5 1_555 1_555
N1 C2 1_555 1_555
O3 H1 1_555 1_555
O4 C11 1_555 1_555
N2 C15 1_555 1_555
N3 H2 1_555 1_555
C1 C3 1_555 1_555
C2 C5 1_555 1_555
C3 C4 1_555 1_555
C4 C13 1_555 1_555
C5 C19 1_555 1_555
C6 N3 1_555 1_555
C7 N3 1_555 1_555
C8 C2 1_555 1_555
H3 C8 1_555 1_555
C9 O1 1_555 1_555
H4 C9 1_555 1_555
H5 C9 1_555 1_555
C10 C1 1_555 1_555
H6 C10 1_555 1_555
C11 C8 1_555 1_555
C12 N1 1_555 1_555
H7 C12 1_555 1_555
H8 C12 1_555 1_555
C13 H9 1_555 1_555
C14 N1 1_555 1_555
H10 C14 1_555 1_555
H11 C14 1_555 1_555
C15 C14 1_555 1_555
H12 C15 1_555 1_555
H13 C15 1_555 1_555
C16 O3 1_555 1_555
H14 C16 1_555 1_555
C17 C11 1_555 1_555
H15 C17 1_555 1_555
C18 C7 1_555 1_555
H16 C18 1_555 1_555
C19 C17 1_555 1_555
H17 C19 1_555 1_555
C20 N2 1_555 1_555
H18 C20 1_555 1_555
H19 C20 1_555 1_555
C21 N2 1_555 1_555
H20 C21 1_555 1_555
H21 C21 1_555 1_555
C22 C10 1_555 1_555
H22 C22 1_555 1_555
C23 C18 1_555 1_555
H23 C23 1_555 1_555
C24 C13 1_555 1_555
H24 C24 1_555 1_555
C25 C6 1_555 1_555
H25 C25 1_555 1_555
C26 O2 1_555 1_555
H26 C26 1_555 1_555
H27 C26 1_555 1_555
H28 C26 1_555 1_555
C27 O4 1_555 1_555
H29 C27 1_555 1_555
H30 C27 1_555 1_555
H31 C27 1_555 1_555
C1 C7 1_555 1_555
C3 C6 1_555 1_555
C9 C16 1_555 1_555
C12 C20 1_555 1_555
C16 C21 1_555 1_555
C22 C23 1_555 1_555
C24 C25 1_555 1_555

#END
