
#######################################################################
#
#                 Cambridge Crystallographic Data Centre
#                                CCDC 
#
#######################################################################
#
# If this CIF has been generated from an entry in the Cambridge 
# Structural Database, then it will include bibliographic, chemical, 
# crystal, experimental, refinement or atomic coordinate data resulting 
# from the CCDC's data processing and validation procedures.
#
#######################################################################

data_BOVDOG
_chemical_formula_moiety         'C22 H16 Cl1 N1 O5'
_chemical_name_systematic        
'Ethyl 2-amino-4-(3-chlorophenyl)-5,10-dioxo-5,10-dihydro-4H-benzo[g]chromene-3-carboxylate'
_symmetry_cell_setting           triclinic
_symmetry_space_group_name_H-M   'P -1'
_symmetry_Int_Tables_number      2
_space_group_name_Hall           '-P 1'
loop_
_symmetry_equiv_pos_site_id
_symmetry_equiv_pos_as_xyz
1 x,y,z
2 -x,-y,-z
_cell_length_a                   6.1175(17)
_cell_length_b                   10.021(3)
_cell_length_c                   15.967(5)
_cell_angle_alpha                84.840(13)
_cell_angle_beta                 87.714(12)
_cell_angle_gamma                67.429(8)
_cell_volume                     900.18
_exptl_crystal_colour            red
_exptl_crystal_description       block
_cell_formula_units_Z            2
_exptl_crystal_recrystallization_method ethanol
loop_
_atom_site_label
_atom_site_type_symbol
_atom_site_fract_x
_atom_site_fract_y
_atom_site_fract_z
Cl1 Cl 0.49377(7) 0.57379(4) 0.30597(2)
O1 O -0.07224(16) 0.26225(11) 0.15817(6)
O2 O 0.68318(17) 0.12419(11) -0.04552(6)
O3 O 0.75549(16) 0.04439(10) 0.11440(5)
O4 O 0.88099(17) -0.17355(11) 0.35482(6)
O5 O 0.48890(16) -0.07946(10) 0.38009(6)
N1 N 1.0294(2) -0.10163(13) 0.20348(8)
C1 C 0.0990(2) 0.23745(14) 0.11164(8)
C2 C 0.0730(2) 0.29181(14) 0.02047(8)
C3 C -0.1499(2) 0.37702(15) -0.01112(8)
H1 H -0.2854 0.3985 0.0244
C4 C -0.1737(3) 0.43104(16) -0.09541(9)
H2 H -0.3264 0.4885 -0.1173
C5 C 0.0222(3) 0.40187(16) -0.14729(9)
H3 H 0.0044 0.4412 -0.2042
C6 C 0.2449(3) 0.31522(15) -0.11653(8)
H4 H 0.3795 0.2939 -0.1524
C7 C 0.2707(2) 0.25930(14) -0.03244(8)
C8 C 0.5078(2) 0.16626(14) -0.00028(8)
C9 C 0.5273(2) 0.12298(14) 0.09172(8)
C10 C 0.3409(2) 0.15414(14) 0.14472(8)
C11 C 0.3707(2) 0.10501(14) 0.23718(8)
H5 H 0.2601 0.0547 0.2528
C12 C 0.6221(2) -0.00336(14) 0.25298(8)
C13 C 0.7982(2) -0.02151(14) 0.19472(8)
C14 C 0.3041(2) 0.23611(14) 0.28925(8)
C15 C 0.4265(2) 0.32887(14) 0.27878(8)
H6 H 0.5580 0.3086 0.2414
C16 C 0.3534(2) 0.45117(15) 0.32365(8)
C17 C 0.1670(3) 0.48205(16) 0.38070(8)
H7 H 0.1203 0.5659 0.4111
C18 C 0.0507(3) 0.38732(16) 0.39210(9)
H8 H -0.0756 0.4055 0.4316
C19 C 0.1165(2) 0.26597(16) 0.34642(8)
H9 H 0.0329 0.2030 0.3542
C20 C 0.6813(2) -0.09205(14) 0.33211(8)
C21 C 0.5361(2) -0.17302(15) 0.45788(8)
H10 H 0.6348 -0.1461 0.4955
H11 H 0.6222 -0.2754 0.4458
C22 C 0.3031(3) -0.15439(17) 0.49923(9)
H12 H 0.3301 -0.2167 0.5518
H13 H 0.2069 -0.1814 0.4616
H14 H 0.2199 -0.0529 0.5113
H15 H 1.081(3) -0.160(2) 0.2506(12)
H16 H 1.111(3) -0.118(2) 0.1561(12)
loop_
_geom_bond_atom_site_label_1
_geom_bond_atom_site_label_2
_geom_bond_site_symmetry_1
_geom_bond_site_symmetry_2
Cl1 C16 1_555 1_555
O1 C1 1_555 1_555
O2 C8 1_555 1_555
O3 C9 1_555 1_555
O4 C20 1_555 1_555
O5 C20 1_555 1_555
N1 C13 1_555 1_555
C1 C2 1_555 1_555
C2 C3 1_555 1_555
C3 H1 1_555 1_555
C4 C3 1_555 1_555
H2 C4 1_555 1_555
C5 C4 1_555 1_555
H3 C5 1_555 1_555
C6 C5 1_555 1_555
H4 C6 1_555 1_555
C7 C2 1_555 1_555
C8 C7 1_555 1_555
C9 C8 1_555 1_555
C10 C1 1_555 1_555
C11 C10 1_555 1_555
H5 C11 1_555 1_555
C12 C11 1_555 1_555
C13 O3 1_555 1_555
C14 C11 1_555 1_555
C15 C14 1_555 1_555
H6 C15 1_555 1_555
C16 C15 1_555 1_555
C17 C16 1_555 1_555
H7 C17 1_555 1_555
C18 C17 1_555 1_555
H8 C18 1_555 1_555
C19 C14 1_555 1_555
H9 C19 1_555 1_555
C20 C12 1_555 1_555
C21 O5 1_555 1_555
H10 C21 1_555 1_555
H11 C21 1_555 1_555
C22 C21 1_555 1_555
H12 C22 1_555 1_555
H13 C22 1_555 1_555
H14 C22 1_555 1_555
H15 N1 1_555 1_555
H16 N1 1_555 1_555
C6 C7 1_555 1_555
C9 C10 1_555 1_555
C12 C13 1_555 1_555
C18 C19 1_555 1_555

#END
