
#######################################################################
#
#                 Cambridge Crystallographic Data Centre
#                                CCDC 
#
#######################################################################
#
# If this CIF has been generated from an entry in the Cambridge 
# Structural Database, then it will include bibliographic, chemical, 
# crystal, experimental, refinement or atomic coordinate data resulting 
# from the CCDC's data processing and validation procedures.
#
#######################################################################

data_BOVDIA
_chemical_formula_moiety         'C23 H25 N1 O1'
_chemical_name_systematic        
1-((3-Methyl-1-piperidinyl)(phenyl)methyl)-2-naphthol
_symmetry_cell_setting           monoclinic
_symmetry_space_group_name_H-M   'P 21/n'
_symmetry_Int_Tables_number      14
_space_group_name_Hall           '-P 2yn'
loop_
_symmetry_equiv_pos_site_id
_symmetry_equiv_pos_as_xyz
1 x,y,z
2 1/2-x,1/2+y,1/2-z
3 -x,-y,-z
4 1/2+x,1/2-y,1/2+z
_cell_length_a                   9.2138(13)
_cell_length_b                   10.9056(13)
_cell_length_c                   18.635(3)
_cell_angle_alpha                90
_cell_angle_beta                 97.007(10)
_cell_angle_gamma                90
_cell_volume                     1858.5
_exptl_crystal_colour            'pale yellow'
_exptl_crystal_description       prism
_cell_formula_units_Z            4
_exptl_crystal_recrystallization_method dichloromethane
loop_
_atom_site_label
_atom_site_type_symbol
_atom_site_fract_x
_atom_site_fract_y
_atom_site_fract_z
C1 C 0.67985(19) 0.98342(18) 0.20764(10)
H1 H 0.6443 1.0644 0.2203
C2 C 0.78426(19) 0.93769(17) 0.27180(10)
C3 C 0.9016(2) 0.86366(18) 0.26209(11)
C4 C 0.9972(2) 0.8201(2) 0.32150(13)
H2 H 1.0778 0.7728 0.3138
C5 C 0.9718(2) 0.8470(2) 0.38980(13)
H3 H 1.0349 0.8168 0.4285
C6 C 0.8527(2) 0.9195(2) 0.40364(11)
C7 C 0.7590(2) 0.96718(17) 0.34408(10)
C8 C 0.6424(2) 1.04328(19) 0.36039(12)
H4 H 0.5790 1.0764 0.3227
C9 C 0.6211(3) 1.0690(2) 0.42986(13)
H5 H 0.5445 1.1201 0.4388
C10 C 0.7124(3) 1.0197(3) 0.48762(14)
H6 H 0.6959 1.0367 0.5349
C11 C 0.8255(3) 0.9467(2) 0.47479(12)
H7 H 0.8863 0.9139 0.5136
C12 C 0.5482(2) 0.89924(19) 0.19333(10)
C13 C 0.4093(2) 0.9444(2) 0.19799(11)
H8 H 0.3973 1.0267 0.2090
C14 C 0.2885(2) 0.8692(3) 0.18655(13)
H9 H 0.1959 0.9008 0.1901
C15 C 0.3047(3) 0.7479(3) 0.16990(13)
H10 H 0.2231 0.6972 0.1620
C16 C 0.4413(2) 0.7016(2) 0.16489(11)
H11 H 0.4524 0.6193 0.1536
C17 C 0.5626(2) 0.7767(2) 0.17657(11)
H12 H 0.6550 0.7444 0.1731
C18 C 0.6619(2) 1.0167(2) 0.07506(10)
H13 H 0.6042 1.0904 0.0784
H14 H 0.5954 0.9477 0.0671
C19 C 0.7514(2) 1.0277(2) 0.01231(11)
H15 H 0.8024 0.9511 0.0068
H16 H 0.6864 1.0421 -0.0318
C20 C 0.8616(2) 1.1307(2) 0.02313(11)
H17 H 0.8106 1.2087 0.0216
H18 H 0.9225 1.1298 -0.0158
C21 C 0.9571(2) 1.11783(19) 0.09503(11)
H19 H 1.0152 1.0428 0.0935
C22 C 0.8604(2) 1.10436(19) 0.15507(11)
H20 H 0.9217 1.0940 0.2008
H21 H 0.8038 1.1788 0.1580
C23 C 1.0612(3) 1.2248(2) 0.11110(14)
H22 H 1.0064 1.2996 0.1113
H23 H 1.1262 1.2293 0.0746
H24 H 1.1171 1.2132 0.1576
N1 N 0.75966(16) 0.99877(14) 0.14314(8)
O1 O 0.93357(14) 0.82835(13) 0.19587(8)
H25 H 0.8851 0.8690 0.1646
loop_
_geom_bond_atom_site_label_1
_geom_bond_atom_site_label_2
_geom_bond_site_symmetry_1
_geom_bond_site_symmetry_2
C1 H1 1_555 1_555
C2 C1 1_555 1_555
C3 C2 1_555 1_555
C4 C3 1_555 1_555
H2 C4 1_555 1_555
C5 C4 1_555 1_555
H3 C5 1_555 1_555
C6 C5 1_555 1_555
C7 C2 1_555 1_555
C8 C7 1_555 1_555
H4 C8 1_555 1_555
C9 C8 1_555 1_555
H5 C9 1_555 1_555
C10 C9 1_555 1_555
H6 C10 1_555 1_555
C11 C6 1_555 1_555
H7 C11 1_555 1_555
C12 C1 1_555 1_555
C13 C12 1_555 1_555
H8 C13 1_555 1_555
C14 C13 1_555 1_555
H9 C14 1_555 1_555
C15 C14 1_555 1_555
H10 C15 1_555 1_555
C16 C15 1_555 1_555
H11 C16 1_555 1_555
C17 C12 1_555 1_555
H12 C17 1_555 1_555
C18 H13 1_555 1_555
H14 C18 1_555 1_555
C19 C18 1_555 1_555
H15 C19 1_555 1_555
H16 C19 1_555 1_555
C20 C19 1_555 1_555
H17 C20 1_555 1_555
H18 C20 1_555 1_555
C21 C20 1_555 1_555
H19 C21 1_555 1_555
C22 C21 1_555 1_555
H20 C22 1_555 1_555
H21 C22 1_555 1_555
C23 C21 1_555 1_555
H22 C23 1_555 1_555
H23 C23 1_555 1_555
H24 C23 1_555 1_555
N1 C1 1_555 1_555
O1 C3 1_555 1_555
H25 O1 1_555 1_555
C6 C7 1_555 1_555
C10 C11 1_555 1_555
C16 C17 1_555 1_555
C18 N1 1_555 1_555
C22 N1 1_555 1_555

#END
