
#######################################################################
#
#                 Cambridge Crystallographic Data Centre
#                                CCDC 
#
#######################################################################
#
# If this CIF has been generated from an entry in the Cambridge 
# Structural Database, then it will include bibliographic, chemical, 
# crystal, experimental, refinement or atomic coordinate data resulting 
# from the CCDC's data processing and validation procedures.
#
#######################################################################

data_BOVMEG
_chemical_formula_moiety         'C20 H18 O2'
_chemical_name_systematic        
3-Methoxy-1-(naphthalen-2-yl)-2-phenylpropan-1-one
_symmetry_cell_setting           monoclinic
_symmetry_space_group_name_H-M   'P 21/c'
_symmetry_Int_Tables_number      14
_space_group_name_Hall           '-P 2ybc'
loop_
_symmetry_equiv_pos_site_id
_symmetry_equiv_pos_as_xyz
1 x,y,z
2 -x,1/2+y,1/2-z
3 -x,-y,-z
4 x,1/2-y,1/2+z
_cell_length_a                   8.7862(2)
_cell_length_b                   16.6613(3)
_cell_length_c                   11.1995(3)
_cell_angle_alpha                90
_cell_angle_beta                 112.702(3)
_cell_angle_gamma                90
_cell_volume                     1512.47
_exptl_crystal_colour            colorless
_exptl_crystal_description       prism
_cell_formula_units_Z            4
loop_
_atom_site_label
_atom_site_type_symbol
_atom_site_fract_x
_atom_site_fract_y
_atom_site_fract_z
O1 O 0.58180(11) 0.21216(6) 0.30317(8)
O2 O 0.76460(11) 0.11207(5) 0.56242(9)
C1 C 0.62494(14) 0.36390(7) 0.54286(11)
H1 H 0.5759 0.3371 0.5917
C2 C 0.67872(14) 0.44378(7) 0.57480(12)
C3 C 0.64344(14) 0.32474(7) 0.44108(11)
C4 C 0.75373(14) 0.48471(8) 0.50021(12)
C5 C 0.71899(15) 0.36602(8) 0.36683(12)
H2 H 0.7328 0.3400 0.2982
C6 C 0.58450(14) 0.24139(7) 0.40421(11)
C7 C 0.24105(16) 0.16896(8) 0.31066(12)
H3 H 0.2936 0.1577 0.2547
C8 C 0.52248(15) 0.19195(7) 0.49134(11)
H4 H 0.5630 0.2167 0.5774
C9 C 0.33473(15) 0.18982(7) 0.43878(12)
C10 C 0.25327(16) 0.20634(8) 0.52073(12)
H5 H 0.3140 0.2209 0.6062
C11 C 0.66078(16) 0.48399(8) 0.67983(12)
H6 H 0.6110 0.4577 0.7286
C12 C 0.08320(16) 0.20142(8) 0.47685(13)
H7 H 0.0305 0.2121 0.5330
C13 C 0.59070(15) 0.10723(8) 0.50410(12)
H8 H 0.5491 0.0750 0.5571
H9 H 0.5570 0.0824 0.4195
C14 C -0.00904(16) 0.18058(8) 0.34902(14)
H10 H -0.1234 0.1772 0.3194
C15 C 0.77094(16) 0.44305(8) 0.39542(13)
H11 H 0.8189 0.4691 0.3452
C16 C 0.07038(16) 0.16480(8) 0.26569(13)
H12 H 0.0091 0.1515 0.1798
C17 C 0.80843(16) 0.56436(8) 0.53443(14)
H13 H 0.8569 0.5921 0.4862
C18 C 0.79094(17) 0.60111(8) 0.63754(14)
H14 H 0.8292 0.6533 0.6596
C19 C 0.71559(17) 0.56074(8) 0.71038(13)
H15 H 0.7031 0.5865 0.7797
C20 C 0.83977(18) 0.03677(9) 0.56500(15)
H16 H 0.8154 0.0190 0.4780
H17 H 0.7979 -0.0016 0.6087
H18 H 0.9570 0.0417 0.6101
loop_
_geom_bond_atom_site_label_1
_geom_bond_atom_site_label_2
_geom_bond_site_symmetry_1
_geom_bond_site_symmetry_2
O1 C6 1_555 1_555
O2 C13 1_555 1_555
C1 H1 1_555 1_555
C2 C1 1_555 1_555
C3 C1 1_555 1_555
C4 C2 1_555 1_555
C5 C3 1_555 1_555
H2 C5 1_555 1_555
C6 C3 1_555 1_555
C7 H3 1_555 1_555
C8 C6 1_555 1_555
H4 C8 1_555 1_555
C9 C7 1_555 1_555
C10 C9 1_555 1_555
H5 C10 1_555 1_555
C11 C2 1_555 1_555
H6 C11 1_555 1_555
C12 C10 1_555 1_555
H7 C12 1_555 1_555
C13 C8 1_555 1_555
H8 C13 1_555 1_555
H9 C13 1_555 1_555
C14 C12 1_555 1_555
H10 C14 1_555 1_555
C15 C4 1_555 1_555
H11 C15 1_555 1_555
C16 C7 1_555 1_555
H12 C16 1_555 1_555
C17 C4 1_555 1_555
H13 C17 1_555 1_555
C18 C17 1_555 1_555
H14 C18 1_555 1_555
C19 C11 1_555 1_555
H15 C19 1_555 1_555
C20 O2 1_555 1_555
H16 C20 1_555 1_555
H17 C20 1_555 1_555
H18 C20 1_555 1_555
C5 C15 1_555 1_555
C8 C9 1_555 1_555
C14 C16 1_555 1_555
C18 C19 1_555 1_555

#END
