
#######################################################################
#
#                 Cambridge Crystallographic Data Centre
#                                CCDC 
#
#######################################################################
#
# If this CIF has been generated from an entry in the Cambridge 
# Structural Database, then it will include bibliographic, chemical, 
# crystal, experimental, refinement or atomic coordinate data resulting 
# from the CCDC's data processing and validation procedures.
#
#######################################################################

data_BOVQIO
_chemical_formula_moiety         'C16 H10 B1 F2 N3'
_chemical_name_systematic        
8,8-Difluoro-8H-9,8-benzo[cd]pyrido[1',2':3,4][1,3,5,2]triazaborinino[1,6-a]indole
_symmetry_cell_setting           monoclinic
_symmetry_space_group_name_H-M   'P 21/n'
_symmetry_Int_Tables_number      14
_space_group_name_Hall           '-P 2yn'
loop_
_symmetry_equiv_pos_site_id
_symmetry_equiv_pos_as_xyz
1 x,y,z
2 1/2-x,1/2+y,1/2-z
3 -x,-y,-z
4 1/2+x,1/2-y,1/2+z
_cell_length_a                   9.5590(13)
_cell_length_b                   9.3155(13)
_cell_length_c                   15.051(2)
_cell_angle_alpha                90
_cell_angle_beta                 102.640(2)
_cell_angle_gamma                90
_cell_volume                     1307.76
_exptl_crystal_colour            orange
_exptl_crystal_description       block
_cell_formula_units_Z            4
loop_
_atom_site_label
_atom_site_type_symbol
_atom_site_fract_x
_atom_site_fract_y
_atom_site_fract_z
B1 B 0.22976(16) 0.59973(17) 0.00531(10)
C1 C 0.19132(16) 0.40006(17) 0.11007(11)
H1 H 0.1045 0.3861 0.0689
C2 C 0.22283(19) 0.31756(17) 0.18627(12)
H2 H 0.1586 0.2481 0.1969
C3 C 0.35235(19) 0.33839(17) 0.24810(11)
H3 H 0.3755 0.2830 0.3007
C4 C 0.44502(17) 0.44049(17) 0.23103(9)
H4 H 0.5313 0.4554 0.2726
C5 C 0.41139(14) 0.52365(15) 0.15117(8)
C6 C 0.48467(13) 0.68655(14) 0.05684(8)
C7 C 0.58289(13) 0.78567(14) 0.02574(8)
C8 C 0.71720(14) 0.83957(16) 0.06155(9)
H5 H 0.7694 0.8104 0.1183
C9 C 0.77234(15) 0.94080(17) 0.00874(11)
H6 H 0.8627 0.9792 0.0320
C10 C 0.69879(16) 0.98545(16) -0.07562(10)
H7 H 0.7396 1.0536 -0.1074
C11 C 0.56202(15) 0.92912(14) -0.11470(9)
C12 C 0.46886(17) 0.95981(16) -0.20011(9)
H8 H 0.4966 1.0249 -0.2398
C13 C 0.33834(16) 0.89326(16) -0.22358(9)
H9 H 0.2795 0.9148 -0.2798
C14 C 0.28785(14) 0.79315(16) -0.16681(8)
H10 H 0.1984 0.7499 -0.1848
C15 C 0.37651(13) 0.76295(14) -0.08449(8)
C16 C 0.51049(13) 0.82998(14) -0.06072(8)
F1 F 0.13119(8) 0.69685(10) 0.02580(6)
F2 F 0.16460(10) 0.51644(10) -0.06726(6)
N1 N 0.28297(12) 0.50253(12) 0.09215(7)
N2 N 0.50943(12) 0.62059(13) 0.13557(7)
N3 N 0.36298(11) 0.67425(12) -0.01057(7)
loop_
_geom_bond_atom_site_label_1
_geom_bond_atom_site_label_2
_geom_bond_site_symmetry_1
_geom_bond_site_symmetry_2
B1 F1 1_555 1_555
C1 H1 1_555 1_555
C2 C1 1_555 1_555
H2 C2 1_555 1_555
C3 C2 1_555 1_555
H3 C3 1_555 1_555
C4 C3 1_555 1_555
H4 C4 1_555 1_555
C5 C4 1_555 1_555
C6 C7 1_555 1_555
C7 C8 1_555 1_555
C8 H5 1_555 1_555
C9 C8 1_555 1_555
H6 C9 1_555 1_555
C10 C9 1_555 1_555
H7 C10 1_555 1_555
C11 C10 1_555 1_555
C12 C11 1_555 1_555
H8 C12 1_555 1_555
C13 C12 1_555 1_555
H9 C13 1_555 1_555
C14 C13 1_555 1_555
H10 C14 1_555 1_555
C15 C14 1_555 1_555
C16 C7 1_555 1_555
F2 B1 1_555 1_555
N1 B1 1_555 1_555
N2 C5 1_555 1_555
N3 B1 1_555 1_555
C1 N1 1_555 1_555
C5 N1 1_555 1_555
C6 N2 1_555 1_555
C6 N3 1_555 1_555
C11 C16 1_555 1_555
C15 C16 1_555 1_555
C15 N3 1_555 1_555

#END
