
#######################################################################
#
#                 Cambridge Crystallographic Data Centre
#                                CCDC 
#
#######################################################################
#
# If this CIF has been generated from an entry in the Cambridge 
# Structural Database, then it will include bibliographic, chemical, 
# crystal, experimental, refinement or atomic coordinate data resulting 
# from the CCDC's data processing and validation procedures.
#
#######################################################################

data_BOVQAG
_chemical_formula_moiety         'C24 H17 B1 Br1 F2 N3 S1'
_chemical_name_systematic        
3-Bromo-10-t-butyl-14,14-difluoro-14H-15\l^5^,14\l^5^-benzo[3',4']indolo[1',2':3,4][1,3,2]diazaborinino[6,1-b][1,3]benzothiazole-7-carbonitrile
_symmetry_cell_setting           monoclinic
_symmetry_space_group_name_H-M   'C 2/c'
_symmetry_Int_Tables_number      15
_space_group_name_Hall           '-C 2yn'
loop_
_symmetry_equiv_pos_site_id
_symmetry_equiv_pos_as_xyz
1 x,y,z
2 -x,y,1/2-z
3 1/2+x,1/2+y,z
4 1/2-x,1/2+y,1/2-z
5 -x,-y,-z
6 x,-y,1/2+z
7 1/2-x,1/2-y,-z
8 1/2+x,1/2-y,1/2+z
_cell_length_a                   11.3331(9)
_cell_length_b                   34.017(3)
_cell_length_c                   12.7360(10)
_cell_angle_alpha                90
_cell_angle_beta                 109.1590(10)
_cell_angle_gamma                90
_cell_volume                     4638
_exptl_crystal_colour            red
_exptl_crystal_description       block
_cell_formula_units_Z            8
loop_
_atom_site_label
_atom_site_type_symbol
_atom_site_fract_x
_atom_site_fract_y
_atom_site_fract_z
B1 B 0.5860(7) 0.3079(2) 0.4887(6)
Br1 Br 0.37803(7) 0.11673(2) 0.59898(6)
C1 C 0.4872(5) 0.24530(18) 0.5439(5)
C2 C 0.5370(5) 0.21485(17) 0.5038(5)
H1 H 0.5929 0.2191 0.4655
C3 C 0.5010(6) 0.17688(18) 0.5222(5)
H2 H 0.5329 0.1557 0.4941
C4 C 0.4209(6) 0.16977(18) 0.5797(5)
C5 C 0.3671(5) 0.19994(18) 0.6222(5)
C6 C 0.2819(6) 0.20000(19) 0.6822(5)
H3 H 0.2518 0.1761 0.6983
C7 C 0.2422(6) 0.2341(2) 0.7174(5)
H4 H 0.1884 0.2323 0.7588
C8 C 0.2781(5) 0.27074(19) 0.6944(5)
H5 H 0.2465 0.2933 0.7166
C9 C 0.3645(5) 0.27315(17) 0.6363(5)
C10 C 0.4053(5) 0.23718(18) 0.6008(5)
C11 C 0.4280(5) 0.30393(17) 0.5947(4)
C12 C 0.4191(5) 0.34451(18) 0.6003(5)
C13 C 0.4815(5) 0.36804(17) 0.5469(5)
C14 C 0.5813(6) 0.42035(18) 0.4692(5)
C15 C 0.6283(6) 0.45289(19) 0.4295(6)
H6 H 0.6072 0.4781 0.4455
C16 C 0.7064(6) 0.44791(18) 0.3662(6)
C17 C 0.7313(7) 0.40909(19) 0.3406(6)
H7 H 0.7801 0.4054 0.2952
C18 C 0.6868(6) 0.37631(18) 0.3795(6)
H8 H 0.7092 0.3512 0.3642
C19 C 0.6076(6) 0.38148(17) 0.4423(5)
C20 C 0.7660(6) 0.48229(19) 0.3272(6)
C21 C 0.7668(10) 0.5187(3) 0.3904(9)
H9 H 0.8161 0.5383 0.3698
H10 H 0.8021 0.5133 0.4686
H11 H 0.6828 0.5281 0.3741
C22 C 0.7138(11) 0.4855(3) 0.1957(9)
H12 H 0.7068 0.4596 0.1639
H13 H 0.7699 0.5010 0.1704
H14 H 0.6330 0.4977 0.1732
C23 C 0.9029(9) 0.4747(3) 0.3432(9)
H15 H 0.9103 0.4516 0.3025
H16 H 0.9477 0.4708 0.4208
H17 H 0.9372 0.4968 0.3165
C24 C 0.3467(6) 0.36270(19) 0.6611(5)
F1 F 0.7088(3) 0.30277(11) 0.5505(4)
F2 F 0.5636(4) 0.29614(11) 0.3824(3)
N1 N 0.4984(4) 0.28682(13) 0.5402(4)
N2 N 0.5540(4) 0.35264(13) 0.4899(4)
N3 N 0.2906(6) 0.37722(19) 0.7100(6)
S1 S 0.48011(16) 0.41885(4) 0.54464(15)
loop_
_geom_bond_atom_site_label_1
_geom_bond_atom_site_label_2
_geom_bond_site_symmetry_1
_geom_bond_site_symmetry_2
B1 F1 1_555 1_555
Br1 C4 1_555 1_555
C1 C2 1_555 1_555
C2 H1 1_555 1_555
C3 C2 1_555 1_555
H2 C3 1_555 1_555
C4 C3 1_555 1_555
C5 C4 1_555 1_555
C6 C5 1_555 1_555
H3 C6 1_555 1_555
C7 C6 1_555 1_555
H4 C7 1_555 1_555
C8 C7 1_555 1_555
H5 C8 1_555 1_555
C9 C8 1_555 1_555
C10 C1 1_555 1_555
C11 C9 1_555 1_555
C12 C11 1_555 1_555
C13 C12 1_555 1_555
C14 C15 1_555 1_555
C15 H6 1_555 1_555
C16 C15 1_555 1_555
C17 C16 1_555 1_555
H7 C17 1_555 1_555
C18 C17 1_555 1_555
H8 C18 1_555 1_555
C19 C14 1_555 1_555
C20 C16 1_555 1_555
C21 C20 1_555 1_555
H9 C21 1_555 1_555
H10 C21 1_555 1_555
H11 C21 1_555 1_555
C22 C20 1_555 1_555
H12 C22 1_555 1_555
H13 C22 1_555 1_555
H14 C22 1_555 1_555
C23 C20 1_555 1_555
H15 C23 1_555 1_555
H16 C23 1_555 1_555
H17 C23 1_555 1_555
C24 C12 1_555 1_555
F2 B1 1_555 1_555
N1 B1 1_555 1_555
N2 B1 1_555 1_555
N3 C24 1_555 1_555
S1 C13 1_555 1_555
C1 N1 1_555 1_555
C5 C10 1_555 1_555
C9 C10 1_555 1_555
C11 N1 1_555 1_555
C13 N2 1_555 1_555
C14 S1 1_555 1_555
C18 C19 1_555 1_555
C19 N2 1_555 1_555

#END
