
#######################################################################
#
#                 Cambridge Crystallographic Data Centre
#                                CCDC 
#
#######################################################################
#
# If this CIF has been generated from an entry in the Cambridge 
# Structural Database, then it will include bibliographic, chemical, 
# crystal, experimental, refinement or atomic coordinate data resulting 
# from the CCDC's data processing and validation procedures.
#
#######################################################################

data_BOVQUA
_chemical_formula_moiety         'C18 H9 B1 Br1 F2 N3'
_chemical_name_systematic        
4-Bromo-8,8-difluoro-8H-9\l^5^,8\l^5^-benzo[cd]pyrido[1',2':3,4][1,3,2]diazaborinino[1,6-a]indole-14-carbonitrile
_symmetry_cell_setting           triclinic
_symmetry_space_group_name_H-M   'P -1'
_symmetry_Int_Tables_number      2
_space_group_name_Hall           '-P 1'
loop_
_symmetry_equiv_pos_site_id
_symmetry_equiv_pos_as_xyz
1 x,y,z
2 -x,-y,-z
_cell_length_a                   9.1788(11)
_cell_length_b                   9.5551(11)
_cell_length_c                   9.9844(12)
_cell_angle_alpha                87.602(2)
_cell_angle_beta                 71.441(2)
_cell_angle_gamma                65.1790(10)
_cell_volume                     749.154
_exptl_crystal_colour            red
_exptl_crystal_description       block
_cell_formula_units_Z            2
loop_
_atom_site_label
_atom_site_type_symbol
_atom_site_fract_x
_atom_site_fract_y
_atom_site_fract_z
B1 B 0.3008(3) 0.6944(4) 0.3710(3)
Br1 Br 0.20981(4) 1.16766(4) 0.96450(3)
C1 C 0.3211(3) 0.8414(3) 0.5726(3)
C2 C 0.1560(3) 0.9318(3) 0.6539(3)
H1 H 0.0653 0.9282 0.6338
C3 C 0.1290(3) 1.0305(3) 0.7692(3)
H2 H 0.0178 1.0918 0.8262
C4 C 0.2595(3) 1.0398(3) 0.8007(3)
C5 C 0.4330(3) 0.9511(3) 0.7156(3)
C6 C 0.5838(3) 0.9454(3) 0.7281(3)
H3 H 0.5786 1.0087 0.7994
C7 C 0.7397(3) 0.8458(3) 0.6343(3)
H4 H 0.8375 0.8438 0.6451
C8 C 0.7579(3) 0.7469(3) 0.5230(3)
H5 H 0.8647 0.6803 0.4621
C9 C 0.6116(3) 0.7531(3) 0.5082(3)
C10 C 0.4537(3) 0.8549(3) 0.6041(3)
C11 C 0.5683(3) 0.6747(3) 0.4125(3)
C12 C 0.6726(3) 0.5620(3) 0.2993(3)
C13 C 0.6057(3) 0.4891(3) 0.2268(3)
C14 C 0.7098(3) 0.3655(3) 0.1204(3)
H6 H 0.8274 0.3292 0.0923
C15 C 0.6401(4) 0.2969(3) 0.0570(3)
H7 H 0.7098 0.2148 -0.0141
C16 C 0.4652(4) 0.3510(3) 0.0998(3)
H8 H 0.4162 0.3051 0.0586
C17 C 0.3662(3) 0.4717(3) 0.2025(3)
H9 H 0.2487 0.5076 0.2313
C18 C 0.8525(3) 0.5092(3) 0.2564(3)
F1 F 0.2426(2) 0.81112(19) 0.2880(2)
F2 F 0.1679(2) 0.6668(2) 0.45852(19)
N1 N 0.3954(2) 0.7308(2) 0.4537(2)
N2 N 0.4339(2) 0.5424(2) 0.2652(2)
N3 N 0.9970(3) 0.4673(4) 0.2199(3)
loop_
_geom_bond_atom_site_label_1
_geom_bond_atom_site_label_2
_geom_bond_site_symmetry_1
_geom_bond_site_symmetry_2
B1 F1 1_555 1_555
Br1 C4 1_555 1_555
C1 C2 1_555 1_555
C2 H1 1_555 1_555
C3 C2 1_555 1_555
H2 C3 1_555 1_555
C4 C3 1_555 1_555
C5 C4 1_555 1_555
C6 C5 1_555 1_555
H3 C6 1_555 1_555
C7 C6 1_555 1_555
H4 C7 1_555 1_555
C8 C7 1_555 1_555
H5 C8 1_555 1_555
C9 C8 1_555 1_555
C10 C1 1_555 1_555
C11 C9 1_555 1_555
C12 C11 1_555 1_555
C13 C12 1_555 1_555
C14 C13 1_555 1_555
H6 C14 1_555 1_555
C15 C14 1_555 1_555
H7 C15 1_555 1_555
C16 C15 1_555 1_555
H8 C16 1_555 1_555
C17 C16 1_555 1_555
H9 C17 1_555 1_555
C18 C12 1_555 1_555
F2 B1 1_555 1_555
N1 B1 1_555 1_555
N2 B1 1_555 1_555
N3 C18 1_555 1_555
C1 N1 1_555 1_555
C5 C10 1_555 1_555
C9 C10 1_555 1_555
C11 N1 1_555 1_555
C13 N2 1_555 1_555
C17 N2 1_555 1_555

#END
