
#######################################################################
#
#                 Cambridge Crystallographic Data Centre
#                                CCDC 
#
#######################################################################
#
# If this CIF has been generated from an entry in the Cambridge 
# Structural Database, then it will include bibliographic, chemical, 
# crystal, experimental, refinement or atomic coordinate data resulting 
# from the CCDC's data processing and validation procedures.
#
#######################################################################

data_BOVQOU
_chemical_formula_moiety         'C18 H10 B1 F2 N3'
_chemical_name_systematic        
8,8-Difluoro-8H-9\l^5^,8\l^5^-benzo[cd]pyrido[1',2':3,4][1,3,2]diazaborinino[1,6-a]indole-14-carbonitrile
_symmetry_cell_setting           triclinic
_symmetry_space_group_name_H-M   'P -1'
_symmetry_Int_Tables_number      2
_space_group_name_Hall           '-P 1'
loop_
_symmetry_equiv_pos_site_id
_symmetry_equiv_pos_as_xyz
1 x,y,z
2 -x,-y,-z
_cell_length_a                   7.4838(8)
_cell_length_b                   9.1552(10)
_cell_length_c                   11.5629(12)
_cell_angle_alpha                79.7810(10)
_cell_angle_beta                 71.7780(10)
_cell_angle_gamma                67.8250(10)
_cell_volume                     695.262
_exptl_crystal_colour            red
_exptl_crystal_description       block
_cell_formula_units_Z            2
loop_
_atom_site_label
_atom_site_type_symbol
_atom_site_fract_x
_atom_site_fract_y
_atom_site_fract_z
B1 B 0.2796(3) 0.64632(19) 0.73883(14)
C1 C 0.2656(2) 0.85830(16) 0.55610(12)
C2 C 0.2860(2) 0.7796(2) 0.46045(13)
H1 H 0.3010 0.6730 0.4691
C3 C 0.2831(3) 0.8689(2) 0.34722(14)
H2 H 0.2989 0.8173 0.2804
C4 C 0.2585(2) 1.0262(2) 0.33021(14)
H3 H 0.2546 1.0792 0.2541
C5 C 0.2388(2) 1.10853(18) 0.42933(13)
C6 C 0.2159(2) 1.2675(2) 0.43321(15)
H4 H 0.2078 1.3355 0.3635
C7 C 0.2054(3) 1.32342(19) 0.53870(16)
H5 H 0.1896 1.4293 0.5380
C8 C 0.2173(2) 1.22798(17) 0.64781(14)
H6 H 0.2121 1.2686 0.7175
C9 C 0.23699(19) 1.07235(16) 0.64751(12)
C10 C 0.24604(19) 1.01794(17) 0.53929(12)
C11 C 0.25238(19) 0.93388(15) 0.73550(12)
C12 C 0.2536(2) 0.91767(16) 0.85698(12)
C13 C 0.2526(2) 0.77420(16) 0.93094(12)
C14 C 0.2445(2) 0.75807(19) 1.05547(13)
H7 H 0.2460 0.8405 1.0916
C15 C 0.2345(3) 0.6217(2) 1.12372(14)
H8 H 0.2276 0.6119 1.2063
C16 C 0.2347(2) 0.49831(19) 1.06961(14)
H9 H 0.2266 0.4054 1.1152
C17 C 0.2469(2) 0.51588(18) 0.94800(14)
H10 H 0.2488 0.4327 0.9111
C18 C 0.2552(2) 1.04517(17) 0.91113(13)
F1 F 0.13026(19) 0.60116(13) 0.72804(9)
F2 F 0.46475(17) 0.53473(11) 0.69090(9)
N1 N 0.26542(17) 0.81001(13) 0.67927(10)
N2 N 0.25636(17) 0.65057(13) 0.87902(10)
N3 N 0.2569(3) 1.14537(18) 0.95658(15)
loop_
_geom_bond_atom_site_label_1
_geom_bond_atom_site_label_2
_geom_bond_site_symmetry_1
_geom_bond_site_symmetry_2
B1 F1 1_555 1_555
C1 C2 1_555 1_555
C2 H1 1_555 1_555
C3 C2 1_555 1_555
H2 C3 1_555 1_555
C4 C3 1_555 1_555
H3 C4 1_555 1_555
C5 C4 1_555 1_555
C6 C5 1_555 1_555
H4 C6 1_555 1_555
C7 C6 1_555 1_555
H5 C7 1_555 1_555
C8 C7 1_555 1_555
H6 C8 1_555 1_555
C9 C8 1_555 1_555
C10 C1 1_555 1_555
C11 C9 1_555 1_555
C12 C11 1_555 1_555
C13 C12 1_555 1_555
C14 C13 1_555 1_555
H7 C14 1_555 1_555
C15 C14 1_555 1_555
H8 C15 1_555 1_555
C16 C15 1_555 1_555
H9 C16 1_555 1_555
C17 C16 1_555 1_555
H10 C17 1_555 1_555
C18 C12 1_555 1_555
F2 B1 1_555 1_555
N1 B1 1_555 1_555
N2 B1 1_555 1_555
N3 C18 1_555 1_555
C1 N1 1_555 1_555
C5 C10 1_555 1_555
C9 C10 1_555 1_555
C11 N1 1_555 1_555
C13 N2 1_555 1_555
C17 N2 1_555 1_555

#END
