
#######################################################################
#
#                 Cambridge Crystallographic Data Centre
#                                CCDC 
#
#######################################################################
#
# If this CIF has been generated from an entry in the Cambridge 
# Structural Database, then it will include bibliographic, chemical, 
# crystal, experimental, refinement or atomic coordinate data resulting 
# from the CCDC's data processing and validation procedures.
#
#######################################################################

data_BOVROT
_chemical_formula_moiety         'C36 H42 N4 O2'
_chemical_name_systematic        
4,8-Diformyl-2,6-di-n-pentyl-1,3,5,7-tetramethylporphyrin
_symmetry_cell_setting           monoclinic
_symmetry_space_group_name_H-M   'P 21/c'
_symmetry_Int_Tables_number      14
_space_group_name_Hall           '-P 2ybc'
loop_
_symmetry_equiv_pos_site_id
_symmetry_equiv_pos_as_xyz
1 x,y,z
2 -x,1/2+y,1/2-z
3 -x,-y,-z
4 x,1/2-y,1/2+z
_cell_length_a                   12.120(6)
_cell_length_b                   6.677(3)
_cell_length_c                   19.490(10)
_cell_angle_alpha                90
_cell_angle_beta                 99.1(1)
_cell_angle_gamma                90
_cell_volume                     1557.38
_cell_formula_units_Z            2
loop_
_atom_site_label
_atom_site_type_symbol
_atom_site_fract_x
_atom_site_fract_y
_atom_site_fract_z
C1 C 0.18310 0.61010 0.01000
O1 O 0.38100 1.15290 0.23950
C2 C 0.20520 0.75670 0.06030
C3 C 0.30260 0.75900 0.11430
C4 C 0.38860 0.59490 0.12380
C5 C 0.29660 0.92660 0.15220
C6 C 0.37830 0.99410 0.21040
C7 C 0.19440 1.02930 0.12050
C8 C 0.15370 1.20590 0.14620
C9 C 0.05770 1.31240 0.11930
C10 C 0.01850 1.49430 0.14350
C11 C 0.07170 1.60760 0.20730
C12 C -0.07480 1.55090 0.09770
C13 C -0.13870 1.75430 0.09520
C14 C -0.23260 1.73530 0.13150
C15 C -0.29040 1.95780 0.13450
C16 C -0.35980 1.99400 0.07690
C17 C -0.42580 2.19820 0.08880
C18 C 0.09630 0.60090 -0.04480
N1 N 0.14180 0.92480 0.06480
N2 N -0.01340 1.25850 0.06040
H1 H 0.23600 0.48660 0.01730
H2 H 0.35210 0.46480 0.13310
H3 H 0.42310 0.58100 0.08070
H4 H 0.44820 0.62690 0.16400
H5 H 0.43780 0.90800 0.22360
H6 H 0.20150 1.26620 0.18290
H7 H 0.07350 1.52120 0.24940
H8 H 0.14990 1.64620 0.20240
H9 H 0.02730 1.73130 0.21270
H10 H -0.16600 1.79360 0.04600
H11 H -0.08740 1.86130 0.11830
H12 H -0.20590 1.68410 0.17990
H13 H -0.28720 1.63740 0.10640
H14 H -0.23170 2.06540 0.14000
H15 H -0.33280 1.96580 0.17470
H16 H -0.41240 1.87460 0.06880
H17 H -0.31620 2.00190 0.03800
H18 H -0.46690 2.18210 0.12810
H19 H -0.37070 2.30940 0.09730
H20 H -0.47950 2.22590 0.04480
H21 H -0.00200 1.14000 0.04000
C18B C -0.09630 1.39910 0.04480
C12B C 0.07480 0.44910 -0.09770
N2B N 0.01340 0.74150 -0.06040
C1B C -0.18310 1.38990 -0.01000
C10B C -0.01850 0.50570 -0.14350
C13B C 0.13870 0.24570 -0.09520
C9B C -0.05770 0.68760 -0.11930
H21B H 0.00200 0.86000 -0.04000
C2B C -0.20520 1.24330 -0.06030
H1B H -0.23600 1.51340 -0.01730
C11B C -0.07170 0.39240 -0.20730
C14B C 0.23260 0.26470 -0.13150
H10B H 0.16600 0.20640 -0.04600
H11B H 0.08740 0.13870 -0.11830
C8B C -0.15370 0.79410 -0.14620
C3B C -0.30260 1.24100 -0.11430
N1B N -0.14180 1.07520 -0.06480
H7B H -0.07350 0.47880 -0.24940
H8B H -0.14990 0.35380 -0.20240
H9B H -0.02730 0.26870 -0.21270
C15B C 0.29040 0.04220 -0.13450
H12B H 0.20590 0.31590 -0.17990
H13B H 0.28720 0.36260 -0.10640
C7B C -0.19440 0.97070 -0.12050
H6B H -0.20150 0.73380 -0.18290
C4B C -0.38860 1.40510 -0.12380
C5B C -0.29660 1.07340 -0.15220
C16B C 0.35980 0.00600 -0.07690
H14B H 0.23170 -0.06540 -0.14000
H15B H 0.33280 0.03420 -0.17470
H2B H -0.35210 1.53520 -0.13310
H3B H -0.42310 1.41900 -0.08070
H4B H -0.44820 1.37310 -0.16400
C6B C -0.37830 1.00590 -0.21040
C17B C 0.42580 -0.19820 -0.08880
H16B H 0.41240 0.12540 -0.06880
H17B H 0.31620 -0.00190 -0.03800
O1B O -0.38100 0.84710 -0.23950
H5B H -0.43780 1.09200 -0.22360
H18B H 0.46690 -0.18210 -0.12810
H19B H 0.37070 -0.30940 -0.09730
H20B H 0.47950 -0.22590 -0.04480
loop_
_geom_bond_atom_site_label_1
_geom_bond_atom_site_label_2
_geom_bond_site_symmetry_1
_geom_bond_site_symmetry_2
C1 C2 1_555 1_555
O1 C6 1_555 1_555
C2 C3 1_555 1_555
C3 C4 1_555 1_555
C4 H2 1_555 1_555
C5 C3 1_555 1_555
C6 C5 1_555 1_555
C7 C5 1_555 1_555
C8 C7 1_555 1_555
C9 C8 1_555 1_555
C10 C9 1_555 1_555
C11 C10 1_555 1_555
C12 C10 1_555 1_555
C13 C12 1_555 1_555
C14 C13 1_555 1_555
C15 C14 1_555 1_555
C16 C15 1_555 1_555
C17 C16 1_555 1_555
C18 C1 1_555 1_555
N1 C2 1_555 1_555
N2 C9 1_555 1_555
H1 C1 1_555 1_555
H3 C4 1_555 1_555
H4 C4 1_555 1_555
H5 C6 1_555 1_555
H6 C8 1_555 1_555
H7 C11 1_555 1_555
H8 C11 1_555 1_555
H9 C11 1_555 1_555
H10 C13 1_555 1_555
H11 C13 1_555 1_555
H12 C14 1_555 1_555
H13 C14 1_555 1_555
H14 C15 1_555 1_555
H15 C15 1_555 1_555
H16 C16 1_555 1_555
H17 C16 1_555 1_555
H18 C17 1_555 1_555
H19 C17 1_555 1_555
H20 C17 1_555 1_555
H21 N2 1_555 1_555
C18B C12 1_555 1_555
C12B C18 1_555 1_555
N2B C18 1_555 1_555
C1B C18B 1_555 1_555
C10B C12B 1_555 1_555
C13B C12B 1_555 1_555
C9B N2B 1_555 1_555
H21B N2B 1_555 1_555
C2B C1B 1_555 1_555
H1B C1B 1_555 1_555
C11B C10B 1_555 1_555
C14B C13B 1_555 1_555
H10B C13B 1_555 1_555
H11B C13B 1_555 1_555
C8B C9B 1_555 1_555
C3B C2B 1_555 1_555
N1B C2B 1_555 1_555
H7B C11B 1_555 1_555
H8B C11B 1_555 1_555
H9B C11B 1_555 1_555
C15B C14B 1_555 1_555
H12B C14B 1_555 1_555
H13B C14B 1_555 1_555
C7B C8B 1_555 1_555
H6B C8B 1_555 1_555
C4B C3B 1_555 1_555
C5B C3B 1_555 1_555
C16B C15B 1_555 1_555
H14B C15B 1_555 1_555
H15B C15B 1_555 1_555
H2B C4B 1_555 1_555
H3B C4B 1_555 1_555
H4B C4B 1_555 1_555
C6B C5B 1_555 1_555
C17B C16B 1_555 1_555
H16B C16B 1_555 1_555
H17B C16B 1_555 1_555
O1B C6B 1_555 1_555
H5B C6B 1_555 1_555
H18B C17B 1_555 1_555
H19B C17B 1_555 1_555
H20B C17B 1_555 1_555
C7 N1 1_555 1_555
N2 C18B 1_555 1_555
C10B C9B 1_555 1_555
N1B C7B 1_555 1_555
C7B C5B 1_555 1_555

#END
