
#######################################################################
#
#                 Cambridge Crystallographic Data Centre
#                                CCDC 
#
#######################################################################
#
# If this CIF has been generated from an entry in the Cambridge 
# Structural Database, then it will include bibliographic, chemical, 
# crystal, experimental, refinement or atomic coordinate data resulting 
# from the CCDC's data processing and validation procedures.
#
#######################################################################

data_BOVTUD
_chemical_formula_moiety         'C20 H17 Br1 N2 O1'
_chemical_name_systematic        
(4-Bromobenzyl)(2-methyl-3-oxo-3-phenylpropyl)malononitrile
_symmetry_cell_setting           triclinic
_symmetry_space_group_name_H-M   'P 1'
_symmetry_Int_Tables_number      1
_space_group_name_Hall           'P 1'
loop_
_symmetry_equiv_pos_site_id
_symmetry_equiv_pos_as_xyz
1 x,y,z
_cell_length_a                   9.8359(19)
_cell_length_b                   10.161(2)
_cell_length_c                   10.307(2)
_cell_angle_alpha                76.557(12)
_cell_angle_beta                 73.136(13)
_cell_angle_gamma                64.754(10)
_cell_volume                     884.585
_exptl_crystal_colour            colorless
_exptl_crystal_description       block
_cell_formula_units_Z            2
loop_
_atom_site_label
_atom_site_type_symbol
_atom_site_fract_x
_atom_site_fract_y
_atom_site_fract_z
Br1 Br 0.42767(4) 1.10967(3) 0.44067(3)
O1 O 0.7779(3) 0.1974(3) 0.3921(3)
N1 N 0.5162(5) 0.1348(5) 0.7942(5)
N2 N 0.4267(5) 0.4313(5) 0.4224(5)
C1 C 0.8278(4) 0.2033(4) 0.6005(4)
H1 H 0.8135 0.1461 0.6905
C2 C 0.8231(4) 0.1260(4) 0.4945(4)
C3 C 0.8775(5) -0.0382(4) 0.5126(4)
C4 C 0.9031(5) -0.1252(5) 0.6352(5)
H2 H 0.8863 -0.0821 0.7117
C5 C 0.9535(5) -0.2759(5) 0.6444(5)
H3 H 0.9711 -0.3331 0.7271
C6 C 0.9776(6) -0.3413(5) 0.5353(7)
H4 H 1.0106 -0.4428 0.5432
C7 C 0.9530(8) -0.2565(7) 0.4110(6)
H5 H 0.9706 -0.3013 0.3353
C8 C 0.9018(6) -0.1045(6) 0.3997(5)
H6 H 0.8839 -0.0476 0.3169
C9 C 0.9881(5) 0.2116(5) 0.5655(5)
H7 H 1.0658 0.1143 0.5725
H8 H 0.9912 0.2663 0.6282
H9 H 1.0068 0.2594 0.4740
C10 C 0.7049(5) 0.3596(5) 0.6057(4)
H10 H 0.7231 0.4160 0.5173
H11 H 0.7188 0.4036 0.6723
C11 C 0.5332(5) 0.3749(5) 0.6422(4)
C12 C 0.5213(5) 0.2386(5) 0.7266(5)
C13 C 0.4751(5) 0.4005(5) 0.5181(5)
C14 C 0.4269(5) 0.5049(5) 0.7284(5)
H12 H 0.3219 0.5104 0.7506
H13 H 0.4596 0.4854 0.8135
C15 C 0.4305(5) 0.6510(5) 0.6540(4)
C16 C 0.3369(5) 0.7320(5) 0.5608(5)
H14 H 0.2737 0.6948 0.5426
C17 C 0.3373(5) 0.8686(5) 0.4944(5)
H15 H 0.2759 0.9223 0.4314
C18 C 0.4313(5) 0.9218(5) 0.5249(5)
C19 C 0.5252(5) 0.8429(5) 0.6151(5)
H16 H 0.5887 0.8800 0.6328
C20 C 0.5244(5) 0.7072(5) 0.6798(5)
H17 H 0.5878 0.6534 0.7411
Br2 Br 1.19078(4) -0.59272(4) 0.18167(4)
O2 O 0.7732(3) 0.4474(3) -0.1342(3)
N3 N 1.1508(5) 0.0898(5) 0.2146(5)
N4 N 1.1346(5) 0.3737(5) -0.1696(5)
C21 C 0.8029(4) 0.2784(4) 0.0678(4)
H18 H 0.8354 0.2746 0.1504
C22 C 0.7725(4) 0.4300(4) -0.0128(4)
C23 C 0.7336(4) 0.5593(5) 0.0578(4)
C24 C 0.7229(6) 0.5480(5) 0.1969(4)
H19 H 0.7406 0.4573 0.2503
C25 C 0.6860(7) 0.6710(6) 0.2564(5)
H20 H 0.6788 0.6631 0.3497
C26 C 0.6601(7) 0.8053(6) 0.1775(6)
H21 H 0.6362 0.8877 0.2177
C27 C 0.6693(6) 0.8187(5) 0.0400(5)
H22 H 0.6509 0.9097 -0.0128
C28 C 0.7059(5) 0.6962(5) -0.0192(4)
H23 H 0.7122 0.7053 -0.1125
C29 C 0.6493(5) 0.2567(5) 0.1098(5)
H24 H 0.5722 0.3339 0.1609
H25 H 0.6627 0.1638 0.1652
H26 H 0.6175 0.2590 0.0294
C30 C 0.9265(5) 0.1566(5) -0.0141(4)
H27 H 0.9060 0.1755 -0.1047
H28 H 0.9166 0.0647 0.0292
C31 C 1.0950(5) 0.1373(5) -0.0301(4)
C32 C 1.1265(5) 0.1142(5) 0.1087(5)
C33 C 1.1190(5) 0.2715(5) -0.1070(5)
C34 C 1.2138(5) 0.0044(5) -0.1085(5)
H29 H 1.1937 0.0201 -0.1988
H30 H 1.3166 0.0010 -0.1200
C35 C 1.2087(5) -0.1411(5) -0.0371(5)
C36 C 1.1169(6) -0.1983(5) -0.0685(5)
H31 H 1.0588 -0.1453 -0.1340
C37 C 1.1106(5) -0.3322(5) -0.0039(5)
H32 H 1.0495 -0.3693 -0.0256
C38 C 1.1977(5) -0.4092(5) 0.0936(5)
C39 C 1.2883(6) -0.3548(5) 0.1269(5)
H33 H 1.3453 -0.4069 0.1934
C40 C 1.2929(5) -0.2222(5) 0.0601(5)
H34 H 1.3553 -0.1863 0.0815
loop_
_geom_bond_atom_site_label_1
_geom_bond_atom_site_label_2
_geom_bond_site_symmetry_1
_geom_bond_site_symmetry_2
Br1 C18 1_555 1_555
O1 C2 1_555 1_555
N1 C12 1_555 1_555
N2 C13 1_555 1_555
C1 H1 1_555 1_555
C2 C1 1_555 1_555
C3 C2 1_555 1_555
C4 C3 1_555 1_555
H2 C4 1_555 1_555
C5 C4 1_555 1_555
H3 C5 1_555 1_555
C6 C5 1_555 1_555
H4 C6 1_555 1_555
C7 C6 1_555 1_555
H5 C7 1_555 1_555
C8 C3 1_555 1_555
H6 C8 1_555 1_555
C9 C1 1_555 1_555
H7 C9 1_555 1_555
H8 C9 1_555 1_555
H9 C9 1_555 1_555
C10 C1 1_555 1_555
H10 C10 1_555 1_555
H11 C10 1_555 1_555
C11 C10 1_555 1_555
C12 C11 1_555 1_555
C13 C11 1_555 1_555
C14 C11 1_555 1_555
H12 C14 1_555 1_555
H13 C14 1_555 1_555
C15 C14 1_555 1_555
C16 C15 1_555 1_555
H14 C16 1_555 1_555
C17 C16 1_555 1_555
H15 C17 1_555 1_555
C18 C17 1_555 1_555
C19 C18 1_555 1_555
H16 C19 1_555 1_555
C20 C15 1_555 1_555
H17 C20 1_555 1_555
Br2 C38 1_555 1_555
O2 C22 1_555 1_555
N3 C32 1_555 1_555
N4 C33 1_555 1_555
C21 H18 1_555 1_555
C22 C21 1_555 1_555
C23 C22 1_555 1_555
C24 C23 1_555 1_555
H19 C24 1_555 1_555
C25 C24 1_555 1_555
H20 C25 1_555 1_555
C26 C25 1_555 1_555
H21 C26 1_555 1_555
C27 C26 1_555 1_555
H22 C27 1_555 1_555
C28 C23 1_555 1_555
H23 C28 1_555 1_555
C29 C21 1_555 1_555
H24 C29 1_555 1_555
H25 C29 1_555 1_555
H26 C29 1_555 1_555
C30 C21 1_555 1_555
H27 C30 1_555 1_555
H28 C30 1_555 1_555
C31 C30 1_555 1_555
C32 C31 1_555 1_555
C33 C31 1_555 1_555
C34 C31 1_555 1_555
H29 C34 1_555 1_555
H30 C34 1_555 1_555
C35 C34 1_555 1_555
C36 C35 1_555 1_555
H31 C36 1_555 1_555
C37 C36 1_555 1_555
H32 C37 1_555 1_555
C38 C37 1_555 1_555
C39 C38 1_555 1_555
H33 C39 1_555 1_555
C40 C35 1_555 1_555
H34 C40 1_555 1_555
C7 C8 1_555 1_555
C19 C20 1_555 1_555
C27 C28 1_555 1_555
C39 C40 1_555 1_555

#END
