
#######################################################################
#
#                 Cambridge Crystallographic Data Centre
#                                CCDC 
#
#######################################################################
#
# If this CIF has been generated from an entry in the Cambridge 
# Structural Database, then it will include bibliographic, chemical, 
# crystal, experimental, refinement or atomic coordinate data resulting 
# from the CCDC's data processing and validation procedures.
#
#######################################################################

data_BOVTOW
_chemical_formula_moiety         'C23 H34 O4,0.5(C2 H6 O1)'
_chemical_name_systematic        
'16-Isopropyl-5,9-dimethyltetracyclo[10.2.2.0^1,10^.0^4,9^]hexadec-15-ene-5,14-dicarboxylic acid ethanol solvate'
_symmetry_cell_setting           monoclinic
_symmetry_space_group_name_H-M   'P 21'
_symmetry_Int_Tables_number      4
_space_group_name_Hall           'P 2yb'
loop_
_symmetry_equiv_pos_site_id
_symmetry_equiv_pos_as_xyz
1 x,y,z
2 -x,1/2+y,-z
_cell_length_a                   12.682(3)
_cell_length_b                   12.476(3)
_cell_length_c                   14.629(3)
_cell_angle_alpha                90
_cell_angle_beta                 90.12(3)
_cell_angle_gamma                90
_cell_volume                     2314.6
_exptl_crystal_colour            colorless
_exptl_crystal_description       block
_chemical_melting_point          '474 K'
_cell_formula_units_Z            4
_exptl_crystal_recrystallization_method ethanol
loop_
_atom_site_label
_atom_site_type_symbol
_atom_site_fract_x
_atom_site_fract_y
_atom_site_fract_z
O1 O 0.4273(5) 0.0876(5) -0.8077(3)
H1 H 0.4194 0.0560 -0.7591
O2 O 0.5275(4) -0.0529(5) -0.8341(3)
O3 O 0.9581(5) 0.4395(7) -0.8591(4)
O4 O 0.7895(5) 0.4697(6) -0.8765(4)
H2 H 0.7994 0.5018 -0.8284
C1 C 0.7264(7) -0.2280(8) -1.0584(6)
H3 H 0.7431 -0.2911 -1.0929
H4 H 0.6911 -0.2481 -1.0030
H5 H 0.7903 -0.1903 -1.0436
C2 C 0.7017(7) -0.1389(9) -1.2089(6)
H6 H 0.6525 -0.0958 -1.2426
H7 H 0.7115 -0.2061 -1.2397
H8 H 0.7681 -0.1021 -1.2048
C3 C 0.6586(7) -0.1594(8) -1.1118(7)
H9 H 0.5918 -0.1980 -1.1194
C4 C 0.6320(5) -0.0537(6) -1.0688(5)
C5 C 0.6772(5) -0.0079(5) -0.9964(4)
H10 H 0.7320 -0.0405 -0.9645
C6 C 0.6333(4) 0.1013(5) -0.9689(4)
C7 C 0.6353(4) 0.1774(5) -1.0529(4)
H11 H 0.5896 0.2378 -1.0366
C8 C 0.5802(5) 0.1215(7) -1.1353(4)
H12 H 0.5220 0.1653 -1.1566
H13 H 0.6300 0.1137 -1.1852
C9 C 0.5399(5) 0.0127(6) -1.1076(4)
H14 H 0.5074 -0.0240 -1.1598
C10 C 0.4610(5) 0.0217(7) -1.0277(4)
H15 H 0.3977 0.0586 -1.0479
H16 H 0.4411 -0.0493 -1.0069
C11 C 0.5125(5) 0.0839(6) -0.9494(4)
H17 H 0.4799 0.1551 -0.9487
C12 C 0.4906(5) 0.0343(6) -0.8588(5)
C13 C 0.6874(5) 0.1508(6) -0.8859(4)
H18 H 0.6414 0.2051 -0.8602
H19 H 0.6973 0.0956 -0.8399
C14 C 0.7930(5) 0.2011(6) -0.9069(4)
H20 H 0.8429 0.1460 -0.9247
H21 H 0.8202 0.2368 -0.8528
C15 C 0.7804(5) 0.2815(6) -0.9837(4)
H22 H 0.7203 0.3259 -0.9653
C16 C 0.7447(5) 0.2279(5) -1.0760(4)
C17 C 0.8741(5) 0.3615(7) -0.9916(4)
C18 C 0.8501(6) 0.4431(7) -1.0690(4)
H23 H 0.7924 0.4891 -1.0502
H24 H 0.9115 0.4880 -1.0786
C19 C 0.8213(6) 0.3891(7) -1.1580(5)
H25 H 0.8048 0.4434 -1.2033
H26 H 0.8815 0.3487 -1.1799
C20 C 0.7285(5) 0.3148(6) -1.1481(4)
H27 H 0.7147 0.2809 -1.2065
H28 H 0.6668 0.3567 -1.1320
C21 C 0.8229(5) 0.1451(6) -1.1122(5)
H29 H 0.7967 0.1155 -1.1684
H30 H 0.8313 0.0889 -1.0680
H31 H 0.8897 0.1789 -1.1229
C22 C 0.9823(5) 0.3088(9) -1.0076(6)
H32 H 1.0371 0.3606 -0.9972
H33 H 0.9862 0.2831 -1.0693
H34 H 0.9911 0.2498 -0.9661
C23 C 0.8768(6) 0.4258(7) -0.9028(5)
O5 O 1.0495(5) 0.0182(7) -0.3837(4)
O6 O 0.9276(5) -0.0140(8) -0.2842(4)
H35 H 0.9796 -0.0252 -0.2522
O7 O 0.6143(5) 0.5069(5) -0.3528(3)
O8 O 0.5194(5) 0.3646(5) -0.3324(4)
H36 H 0.5094 0.3950 -0.2835
C24 C 1.0176(8) 0.1264(10) -0.7555(5)
H37 H 1.0768 0.1292 -0.7963
H38 H 0.9850 0.1957 -0.7526
H39 H 0.9675 0.0748 -0.7776
C25 C 1.1456(7) 0.1660(10) -0.6261(6)
H40 H 1.1699 0.1391 -0.5683
H41 H 1.1207 0.2381 -0.6188
H42 H 1.2026 0.1651 -0.6692
C26 C 1.0545(6) 0.0943(7) -0.6619(4)
H43 H 1.0824 0.0213 -0.6669
C27 C 0.9606(5) 0.0895(6) -0.5969(4)
C28 C 0.9403(5) 0.1554(5) -0.5295(4)
H44 H 0.9808 0.2163 -0.5192
C29 C 0.8485(5) 0.1274(5) -0.4700(4)
C30 C 0.7487(5) 0.1144(6) -0.5314(4)
H45 H 0.6967 0.0774 -0.4932
C31 C 0.7718(6) 0.0385(6) -0.6096(5)
H46 H 0.7617 0.0753 -0.6674
H47 H 0.7235 -0.0217 -0.6075
C32 C 0.8852(6) -0.0019(6) -0.6026(5)
H48 H 0.9022 -0.0479 -0.6548
C33 C 0.8950(7) -0.0638(7) -0.5143(6)
H49 H 0.9661 -0.0915 -0.5080
H50 H 0.8466 -0.1240 -0.5148
C34 C 0.8698(6) 0.0093(6) -0.4343(4)
H51 H 0.8051 -0.0169 -0.4054
C35 C 0.9563(8) 0.0079(12) -0.3638(6)
C36 C 0.8312(5) 0.2043(6) -0.3913(4)
H52 H 0.8985 0.2201 -0.3627
H53 H 0.7868 0.1702 -0.3459
C37 C 0.7799(5) 0.3086(6) -0.4215(4)
H54 H 0.8271 0.3468 -0.4622
H55 H 0.7670 0.3536 -0.3686
C38 C 0.6737(5) 0.2857(5) -0.4717(4)
H56 H 0.6364 0.2351 -0.4320
C39 C 0.6950(5) 0.2234(6) -0.5600(4)
C40 C 0.5989(6) 0.3845(6) -0.4794(4)
C41 C 0.4955(7) 0.3485(8) -0.5246(5)
H57 H 0.4581 0.3018 -0.4827
H58 H 0.4517 0.4111 -0.5352
C42 C 0.5107(7) 0.2896(9) -0.6151(5)
H59 H 0.5399 0.3383 -0.6602
H60 H 0.4431 0.2644 -0.6376
C43 C 0.5853(6) 0.1943(8) -0.6017(5)
H61 H 0.5964 0.1601 -0.6604
H62 H 0.5513 0.1425 -0.5621
C44 C 0.7602(6) 0.2839(6) -0.6303(4)
H63 H 0.8272 0.3026 -0.6042
H64 H 0.7235 0.3479 -0.6481
H65 H 0.7709 0.2393 -0.6830
C45 C 0.6462(8) 0.4816(7) -0.5321(5)
H66 H 0.5980 0.5408 -0.5297
H67 H 0.6579 0.4619 -0.5947
H68 H 0.7120 0.5020 -0.5045
C46 C 0.5767(6) 0.4226(7) -0.3827(5)
O9 O 0.7956(6) 0.5787(6) -0.7267(4)
H69 H 0.7924 0.5357 -0.6818
C47 C 0.7586(9) 0.7631(10) -0.7751(8)
H70 H 0.7287 0.8246 -0.7454
H71 H 0.7155 0.7434 -0.8264
H72 H 0.8284 0.7801 -0.7959
C48 C 0.7636(10) 0.6740(10) -0.7108(8)
H73 H 0.8064 0.6994 -0.6602
H74 H 0.6927 0.6663 -0.6871
loop_
_geom_bond_atom_site_label_1
_geom_bond_atom_site_label_2
_geom_bond_site_symmetry_1
_geom_bond_site_symmetry_2
O1 H1 1_555 1_555
O2 C12 1_555 1_555
O3 C23 1_555 1_555
O4 H2 1_555 1_555
C1 H3 1_555 1_555
H4 C1 1_555 1_555
H5 C1 1_555 1_555
C2 H6 1_555 1_555
H7 C2 1_555 1_555
H8 C2 1_555 1_555
C3 C1 1_555 1_555
H9 C3 1_555 1_555
C4 C3 1_555 1_555
C5 C4 1_555 1_555
H10 C5 1_555 1_555
C6 C5 1_555 1_555
C7 C6 1_555 1_555
H11 C7 1_555 1_555
C8 C7 1_555 1_555
H12 C8 1_555 1_555
H13 C8 1_555 1_555
C9 C4 1_555 1_555
H14 C9 1_555 1_555
C10 C9 1_555 1_555
H15 C10 1_555 1_555
H16 C10 1_555 1_555
C11 C6 1_555 1_555
H17 C11 1_555 1_555
C12 O1 1_555 1_555
C13 C6 1_555 1_555
H18 C13 1_555 1_555
H19 C13 1_555 1_555
C14 C13 1_555 1_555
H20 C14 1_555 1_555
H21 C14 1_555 1_555
C15 C14 1_555 1_555
H22 C15 1_555 1_555
C16 C7 1_555 1_555
C17 C15 1_555 1_555
C18 C17 1_555 1_555
H23 C18 1_555 1_555
H24 C18 1_555 1_555
C19 C18 1_555 1_555
H25 C19 1_555 1_555
H26 C19 1_555 1_555
C20 C16 1_555 1_555
H27 C20 1_555 1_555
H28 C20 1_555 1_555
C21 C16 1_555 1_555
H29 C21 1_555 1_555
H30 C21 1_555 1_555
H31 C21 1_555 1_555
C22 C17 1_555 1_555
H32 C22 1_555 1_555
H33 C22 1_555 1_555
H34 C22 1_555 1_555
C23 O4 1_555 1_555
O5 C35 1_555 1_555
O6 H35 1_555 1_555
O7 C46 1_555 1_555
O8 H36 1_555 1_555
C24 H37 1_555 1_555
H38 C24 1_555 1_555
H39 C24 1_555 1_555
C25 H40 1_555 1_555
H41 C25 1_555 1_555
H42 C25 1_555 1_555
C26 C24 1_555 1_555
H43 C26 1_555 1_555
C27 C26 1_555 1_555
C28 C27 1_555 1_555
H44 C28 1_555 1_555
C29 C28 1_555 1_555
C30 C29 1_555 1_555
H45 C30 1_555 1_555
C31 C30 1_555 1_555
H46 C31 1_555 1_555
H47 C31 1_555 1_555
C32 C27 1_555 1_555
H48 C32 1_555 1_555
C33 C32 1_555 1_555
H49 C33 1_555 1_555
H50 C33 1_555 1_555
C34 C29 1_555 1_555
H51 C34 1_555 1_555
C35 O6 1_555 1_555
C36 C29 1_555 1_555
H52 C36 1_555 1_555
H53 C36 1_555 1_555
C37 C36 1_555 1_555
H54 C37 1_555 1_555
H55 C37 1_555 1_555
C38 C37 1_555 1_555
H56 C38 1_555 1_555
C39 C30 1_555 1_555
C40 C38 1_555 1_555
C41 C40 1_555 1_555
H57 C41 1_555 1_555
H58 C41 1_555 1_555
C42 C41 1_555 1_555
H59 C42 1_555 1_555
H60 C42 1_555 1_555
C43 C39 1_555 1_555
H61 C43 1_555 1_555
H62 C43 1_555 1_555
C44 C39 1_555 1_555
H63 C44 1_555 1_555
H64 C44 1_555 1_555
H65 C44 1_555 1_555
C45 C40 1_555 1_555
H66 C45 1_555 1_555
H67 C45 1_555 1_555
H68 C45 1_555 1_555
C46 O8 1_555 1_555
O9 H69 1_555 1_555
C47 H70 1_555 1_555
H71 C47 1_555 1_555
H72 C47 1_555 1_555
C48 O9 1_555 1_555
H73 C48 1_555 1_555
H74 C48 1_555 1_555
C2 C3 1_555 1_555
C8 C9 1_555 1_555
C10 C11 1_555 1_555
C11 C12 1_555 1_555
C15 C16 1_555 1_555
C17 C23 1_555 1_555
C19 C20 1_555 1_555
C25 C26 1_555 1_555
C31 C32 1_555 1_555
C33 C34 1_555 1_555
C34 C35 1_555 1_555
C38 C39 1_555 1_555
C40 C46 1_555 1_555
C42 C43 1_555 1_555
C47 C48 1_555 1_555

#END
