
#######################################################################
#
#                 Cambridge Crystallographic Data Centre
#                                CCDC 
#
#######################################################################
#
# If this CIF has been generated from an entry in the Cambridge 
# Structural Database, then it will include bibliographic, chemical, 
# crystal, experimental, refinement or atomic coordinate data resulting 
# from the CCDC's data processing and validation procedures.
#
#######################################################################

data_BOVVAK
_chemical_compound_source        'Morinda officinalis How'
_chemical_name_common            'Alizarin 1-methyl ether monohydrate'
_chemical_formula_moiety         'C15 H10 O4,H2 O1'
_chemical_name_systematic        '2-Hydroxy-1-methoxyanthraquinone monohydrate'
_chemical_properties_biological  
'used in Chinese medicine to treat a wide range of symptoms including poor digestion, high blood pressure and immune deficiencies; antiviral and antimicrobial activity; antioxidant activity; cytotoxic activity'
_symmetry_cell_setting           triclinic
_symmetry_space_group_name_H-M   'P -1'
_symmetry_Int_Tables_number      2
_space_group_name_Hall           '-P 1'
loop_
_symmetry_equiv_pos_site_id
_symmetry_equiv_pos_as_xyz
1 x,y,z
2 -x,-y,-z
_cell_length_a                   7.9583(19)
_cell_length_b                   8.269(2)
_cell_length_c                   10.188(2)
_cell_angle_alpha                102.462(3)
_cell_angle_beta                 102.364(3)
_cell_angle_gamma                100.653(3)
_cell_volume                     620.415
_exptl_crystal_colour            yellow
_exptl_crystal_description       block
_cell_formula_units_Z            2
_exptl_crystal_recrystallization_method methanol
loop_
_atom_site_label
_atom_site_type_symbol
_atom_site_fract_x
_atom_site_fract_y
_atom_site_fract_z
C1 C 0.6640(3) 0.3815(2) 0.3121(2)
C2 C 0.7049(3) 0.2214(2) 0.30375(19)
C3 C 0.7720(3) -0.0406(2) 0.1655(2)
C4 C 0.8497(3) -0.2806(2) 0.0176(2)
H1 H 0.8772 -0.3219 0.0955
C5 C 0.8632(3) -0.3695(3) -0.1086(3)
H2 H 0.8980 -0.4717 -0.1158
C6 C 0.8257(3) -0.3093(3) -0.2248(3)
H3 H 0.8347 -0.3707 -0.3099
C7 C 0.7746(3) -0.1565(3) -0.2142(2)
H4 H 0.7505 -0.1146 -0.2921
C8 C 0.7044(3) 0.0971(2) -0.07708(19)
C9 C 0.6444(3) 0.3450(2) 0.0710(2)
H5 H 0.6210 0.3853 -0.0078
C10 C 0.6335(3) 0.4407(3) 0.1954(2)
H6 H 0.6054 0.5458 0.2006
C11 C 0.7216(2) 0.1254(2) 0.17820(19)
C12 C 0.6896(2) 0.1890(2) 0.06001(19)
C13 C 0.7951(2) -0.1285(2) 0.0293(2)
C14 C 0.7593(2) -0.0664(2) -0.08792(19)
C15 C 0.8905(4) 0.2159(3) 0.5181(2)
H7 H 0.9726 0.1661 0.4763
H8 H 0.8843 0.1791 0.6005
H9 H 0.9298 0.3380 0.5425
O1 O 0.6741(2) 0.15409(19) -0.17812(15)
O2 O 0.7941(3) -0.10671(19) 0.26171(16)
O3 O 0.6543(2) 0.46790(18) 0.43714(14)
H10 H 0.6315 0.5594 0.4317
O4 O 0.7180(2) 0.16259(18) 0.42088(14)
O5 O 0.5800(3) 0.7728(2) 0.44181(19)
H11 H 0.597(4) 0.844(4) 0.393(4)
H12 H 0.472(2) 0.762(4) 0.450(4)
loop_
_geom_bond_atom_site_label_1
_geom_bond_atom_site_label_2
_geom_bond_site_symmetry_1
_geom_bond_site_symmetry_2
C1 C2 1_555 1_555
C2 C11 1_555 1_555
C3 C11 1_555 1_555
C4 H1 1_555 1_555
C5 C4 1_555 1_555
H2 C5 1_555 1_555
C6 C5 1_555 1_555
H3 C6 1_555 1_555
C7 C6 1_555 1_555
H4 C7 1_555 1_555
C8 C12 1_555 1_555
C9 H5 1_555 1_555
C10 C1 1_555 1_555
H6 C10 1_555 1_555
C11 C12 1_555 1_555
C12 C9 1_555 1_555
C13 C3 1_555 1_555
C14 C7 1_555 1_555
C15 H7 1_555 1_555
H8 C15 1_555 1_555
H9 C15 1_555 1_555
O1 C8 1_555 1_555
O2 C3 1_555 1_555
O3 C1 1_555 1_555
H10 O3 1_555 1_555
O4 C2 1_555 1_555
O5 H11 1_555 1_555
H12 O5 1_555 1_555
C4 C13 1_555 1_555
C8 C14 1_555 1_555
C9 C10 1_555 1_555
C13 C14 1_555 1_555
C15 O4 1_555 1_555

#END
