
#######################################################################
#
#                 Cambridge Crystallographic Data Centre
#                                CCDC 
#
#######################################################################
#
# If this CIF has been generated from an entry in the Cambridge 
# Structural Database, then it will include bibliographic, chemical, 
# crystal, experimental, refinement or atomic coordinate data resulting 
# from the CCDC's data processing and validation procedures.
#
#######################################################################

data_BOVVAL
_chemical_formula_moiety         'C24 H20 N2 O1'
_chemical_name_systematic        
3-amino-1-(2,3-diphenyl-1H-indol-1-yl)but-2-en-1-one
_symmetry_cell_setting           orthorhombic
_symmetry_space_group_name_H-M   'P b c a'
_symmetry_Int_Tables_number      61
_space_group_name_Hall           '-P 2ac 2ab'
loop_
_symmetry_equiv_pos_site_id
_symmetry_equiv_pos_as_xyz
1 x,y,z
2 1/2+x,1/2-y,-z
3 -x,1/2+y,1/2-z
4 1/2-x,-y,1/2+z
5 -x,-y,-z
6 1/2-x,1/2+y,z
7 x,1/2-y,1/2+z
8 1/2+x,y,1/2-z
_cell_length_a                   8.8127(10)
_cell_length_b                   13.2298(12)
_cell_length_c                   32.500(3)
_cell_angle_alpha                90
_cell_angle_beta                 90
_cell_angle_gamma                90
_cell_volume                     3789.18
_exptl_crystal_colour            colorless
_exptl_crystal_description       plate
_cell_formula_units_Z            8
loop_
_atom_site_label
_atom_site_type_symbol
_atom_site_fract_x
_atom_site_fract_y
_atom_site_fract_z
O1 O -0.0305(2) 0.40294(12) 0.54907(5)
N1 N -0.0285(2) 0.37268(13) 0.61847(5)
N2 N -0.1952(3) 0.56263(18) 0.52190(6)
H1 H -0.230(3) 0.6007(18) 0.5032(7)
H2 H -0.135(3) 0.5155(17) 0.5146(8)
C1 C 0.3932(4) 0.0256(2) 0.70094(8)
H3 H 0.4593 -0.0222 0.7119
C2 C 0.2412(4) 0.0068(2) 0.69958(9)
H4 H 0.2036 -0.0542 0.7095
C3 C 0.1429(3) 0.07792(19) 0.68352(8)
H5 H 0.0396 0.0638 0.6825
C4 C 0.1953(3) 0.17026(18) 0.66878(7)
C5 C 0.0861(3) 0.24694(17) 0.65408(7)
C6 C 0.0973(3) 0.30808(17) 0.62016(7)
C7 C -0.0671(3) 0.43382(17) 0.58347(7)
C8 C -0.1451(3) 0.52490(17) 0.59182(7)
H6 H -0.1553 0.5453 0.6191
C9 C -0.2062(3) 0.58441(18) 0.56165(7)
C10 C -0.2919(4) 0.6779(2) 0.57264(9)
H7 H -0.3088 0.7175 0.5483
H8 H -0.2343 0.7167 0.5921
H9 H -0.3877 0.6597 0.5846
C11 C -0.1229(3) 0.35111(17) 0.65229(7)
C12 C -0.0524(3) 0.27376(17) 0.67480(7)
C13 C 0.4481(3) 0.1158(2) 0.68605(8)
H10 H 0.5519 0.1285 0.6866
C14 C 0.3500(3) 0.1880(2) 0.67028(7)
H11 H 0.3885 0.2489 0.6606
C15 C 0.2252(3) 0.31827(19) 0.59103(7)
C16 C 0.2723(3) 0.2379(2) 0.56697(8)
H12 H 0.2200 0.1769 0.5680
C17 C 0.3972(4) 0.2480(3) 0.54129(9)
H13 H 0.4280 0.1939 0.5250
C18 C 0.4753(4) 0.3374(4) 0.53979(11)
H14 H 0.5590 0.3439 0.5225
C19 C 0.4307(4) 0.4169(3) 0.56352(10)
H15 H 0.4848 0.4772 0.5627
C20 C 0.3056(3) 0.4085(2) 0.58880(8)
H16 H 0.2748 0.4636 0.6045
C21 C -0.1200(3) 0.24162(19) 0.71179(7)
H17 H -0.0739 0.1920 0.7278
C22 C -0.2542(3) 0.2842(2) 0.72394(8)
H18 H -0.2980 0.2644 0.7487
C23 C -0.3256(3) 0.3563(2) 0.69991(8)
H19 H -0.4183 0.3824 0.7085
C24 C -0.2628(3) 0.39043(19) 0.66360(7)
H20 H -0.3122 0.4380 0.6473
loop_
_geom_bond_atom_site_label_1
_geom_bond_atom_site_label_2
_geom_bond_site_symmetry_1
_geom_bond_site_symmetry_2
O1 C7 1_555 1_555
N1 C6 1_555 1_555
N2 H1 1_555 1_555
H2 N2 1_555 1_555
C1 H3 1_555 1_555
C2 C1 1_555 1_555
H4 C2 1_555 1_555
C3 C2 1_555 1_555
H5 C3 1_555 1_555
C4 C3 1_555 1_555
C5 C4 1_555 1_555
C6 C5 1_555 1_555
C7 N1 1_555 1_555
C8 C7 1_555 1_555
H6 C8 1_555 1_555
C9 N2 1_555 1_555
C10 C9 1_555 1_555
H7 C10 1_555 1_555
H8 C10 1_555 1_555
H9 C10 1_555 1_555
C11 N1 1_555 1_555
C12 C5 1_555 1_555
C13 C1 1_555 1_555
H10 C13 1_555 1_555
C14 C4 1_555 1_555
H11 C14 1_555 1_555
C15 C6 1_555 1_555
C16 C15 1_555 1_555
H12 C16 1_555 1_555
C17 C16 1_555 1_555
H13 C17 1_555 1_555
C18 C17 1_555 1_555
H14 C18 1_555 1_555
C19 C18 1_555 1_555
H15 C19 1_555 1_555
C20 C15 1_555 1_555
H16 C20 1_555 1_555
C21 C12 1_555 1_555
H17 C21 1_555 1_555
C22 C21 1_555 1_555
H18 C22 1_555 1_555
C23 C22 1_555 1_555
H19 C23 1_555 1_555
C24 C11 1_555 1_555
H20 C24 1_555 1_555
C8 C9 1_555 1_555
C11 C12 1_555 1_555
C13 C14 1_555 1_555
C19 C20 1_555 1_555
C23 C24 1_555 1_555

#END
