
#######################################################################
#
#                 Cambridge Crystallographic Data Centre
#                                CCDC 
#
#######################################################################
#
# If this CIF has been generated from an entry in the Cambridge 
# Structural Database, then it will include bibliographic, chemical, 
# crystal, experimental, refinement or atomic coordinate data resulting 
# from the CCDC's data processing and validation procedures.
#
#######################################################################

data_BOVXOA
_chemical_formula_moiety         'C20 H26 N2 O8'
_chemical_name_systematic        
'[(2S,5R,6S,9R)-6-isopropyl-9-methyl-1,4-dioxaspiro[4.5]dec-2-yl]methyl 3,5-dinitrobenzoate'
_symmetry_cell_setting           monoclinic
_symmetry_space_group_name_H-M   'P 21'
_symmetry_Int_Tables_number      4
_space_group_name_Hall           'P 2yb'
loop_
_symmetry_equiv_pos_site_id
_symmetry_equiv_pos_as_xyz
1 x,y,z
2 -x,1/2+y,-z
_cell_length_a                   9.4396(5)
_cell_length_b                   5.8825(3)
_cell_length_c                   19.6719(10)
_cell_angle_alpha                90
_cell_angle_beta                 103.923(3)
_cell_angle_gamma                90
_cell_volume                     1060.26
_exptl_crystal_colour            colorless
_exptl_crystal_description       needle
_chemical_melting_point          '368 K'
_cell_formula_units_Z            2
loop_
_atom_site_label
_atom_site_type_symbol
_atom_site_fract_x
_atom_site_fract_y
_atom_site_fract_z
O1 O 0.72662(12) -0.12929(19) 0.71101(5)
C1 C 0.81610(17) -0.1291(3) 0.78046(7)
H1 H 0.9171 -0.1783 0.7796
C2 C 0.81810(17) 0.1200(3) 0.80073(8)
H2 H 0.7329 0.1589 0.8196
H3 H 0.9088 0.1591 0.8359
O2 O 0.81137(12) 0.23300(19) 0.73591(5)
C3 C 0.72348(19) 0.0946(3) 0.68212(8)
C4 C 0.78923(18) 0.0943(3) 0.61799(8)
H4 H 0.7245 -0.0053 0.5824
C5 C 0.7763(2) 0.3330(3) 0.58613(8)
H5 H 0.8359 0.4400 0.6202
H6 H 0.8154 0.3319 0.5437
C6 C 0.6194(2) 0.4149(4) 0.56676(8)
H7 H 0.5619 0.3166 0.5293
H8 H 0.6163 0.5717 0.5482
C7 C 0.54978(19) 0.4117(3) 0.62943(8)
H9 H 0.6041 0.5223 0.6649
C8 C 0.56642(18) 0.1768(3) 0.66303(8)
H10 H 0.5289 0.1811 0.7059
H11 H 0.5063 0.0670 0.6302
C9 C 0.3900(2) 0.4850(4) 0.60923(11)
H12 H 0.3347 0.3813 0.5736
H13 H 0.3831 0.6400 0.5904
H14 H 0.3497 0.4809 0.6507
C10 C 0.9428(2) -0.0117(4) 0.63175(9)
H15 H 0.9459 -0.1414 0.6649
C11 C 0.9717(2) -0.1084(4) 0.56378(9)
H16 H 0.9693 0.0152 0.5301
H17 H 0.8964 -0.2206 0.5439
H18 H 1.0678 -0.1814 0.5740
C12 C 1.0663(2) 0.1510(5) 0.66460(13)
H19 H 1.1582 0.0664 0.6782
H20 H 1.0452 0.2222 0.7061
H21 H 1.0748 0.2687 0.6306
C13 C 0.75391(17) -0.2914(3) 0.82456(8)
H22 H 0.7341 -0.4403 0.8007
H23 H 0.8241 -0.3148 0.8703
O3 O 0.61928(12) -0.19409(19) 0.83493(5)
C14 C 0.55649(16) -0.3039(3) 0.87874(7)
C15 C 0.43170(16) -0.1728(3) 0.89389(7)
C16 C 0.36462(15) -0.2611(3) 0.94374(7)
H24 H 0.3984 -0.3989 0.9673
C17 C 0.24814(16) -0.1456(3) 0.95844(7)
C18 C 0.19642(16) 0.0567(3) 0.92634(7)
H25 H 0.1167 0.1350 0.9373
C19 C 0.26696(16) 0.1397(3) 0.87730(8)
C20 C 0.38314(16) 0.0311(3) 0.86020(8)
H26 H 0.4288 0.0936 0.8264
O4 O 0.59532(12) -0.4860(2) 0.90476(6)
N1 N 0.21586(14) 0.3563(2) 0.84164(6)
O5 O 0.28039(12) 0.4291(2) 0.79908(5)
O6 O 0.11232(11) 0.4517(2) 0.85721(6)
N2 N 0.17654(13) -0.2454(3) 1.01017(6)
O7 O 0.07569(12) -0.1400(2) 1.02463(6)
O8 O 0.22049(12) -0.4300(2) 1.03556(6)
loop_
_geom_bond_atom_site_label_1
_geom_bond_atom_site_label_2
_geom_bond_site_symmetry_1
_geom_bond_site_symmetry_2
O1 C1 1_555 1_555
C1 H1 1_555 1_555
C2 C1 1_555 1_555
H2 C2 1_555 1_555
H3 C2 1_555 1_555
O2 C2 1_555 1_555
C3 O1 1_555 1_555
C4 C3 1_555 1_555
H4 C4 1_555 1_555
C5 C4 1_555 1_555
H5 C5 1_555 1_555
H6 C5 1_555 1_555
C6 C5 1_555 1_555
H7 C6 1_555 1_555
H8 C6 1_555 1_555
C7 C6 1_555 1_555
H9 C7 1_555 1_555
C8 C3 1_555 1_555
H10 C8 1_555 1_555
H11 C8 1_555 1_555
C9 C7 1_555 1_555
H12 C9 1_555 1_555
H13 C9 1_555 1_555
H14 C9 1_555 1_555
C10 C4 1_555 1_555
H15 C10 1_555 1_555
C11 C10 1_555 1_555
H16 C11 1_555 1_555
H17 C11 1_555 1_555
H18 C11 1_555 1_555
C12 C10 1_555 1_555
H19 C12 1_555 1_555
H20 C12 1_555 1_555
H21 C12 1_555 1_555
C13 C1 1_555 1_555
H22 C13 1_555 1_555
H23 C13 1_555 1_555
O3 C13 1_555 1_555
C14 O3 1_555 1_555
C15 C14 1_555 1_555
C16 C15 1_555 1_555
H24 C16 1_555 1_555
C17 C16 1_555 1_555
C18 C17 1_555 1_555
H25 C18 1_555 1_555
C19 C18 1_555 1_555
C20 C15 1_555 1_555
H26 C20 1_555 1_555
O4 C14 1_555 1_555
N1 C19 1_555 1_555
O5 N1 1_555 1_555
O6 N1 1_555 1_555
N2 C17 1_555 1_555
O7 N2 1_555 1_555
O8 N2 1_555 1_555
O2 C3 1_555 1_555
C7 C8 1_555 1_555
C19 C20 1_555 1_555

#END
