
#######################################################################
#
#                 Cambridge Crystallographic Data Centre
#                                CCDC 
#
#######################################################################
#
# If this CIF has been generated from an entry in the Cambridge 
# Structural Database, then it will include bibliographic, chemical, 
# crystal, experimental, refinement or atomic coordinate data resulting 
# from the CCDC's data processing and validation procedures.
#
#######################################################################

data_BOWBEV
_chemical_formula_moiety         'C12 H6 Se3'
_chemical_name_systematic        Benzo[1,2-b:3,4-b':5,6-b'']triselenophene
_symmetry_cell_setting           monoclinic
_symmetry_space_group_name_H-M   'P 21/c'
_symmetry_Int_Tables_number      14
_space_group_name_Hall           '-P 2ybc'
loop_
_symmetry_equiv_pos_site_id
_symmetry_equiv_pos_as_xyz
1 x,y,z
2 -x,1/2+y,1/2-z
3 -x,-y,-z
4 x,1/2-y,1/2+z
_cell_length_a                   9.079(8)
_cell_length_b                   11.625(9)
_cell_length_c                   11.712(10)
_cell_angle_alpha                90
_cell_angle_beta                 112.694(3)
_cell_angle_gamma                90
_cell_volume                     1140.42
_exptl_crystal_colour            colorless
_exptl_crystal_description       block
_chemical_melting_point          '157-158 deg.C'
_cell_formula_units_Z            4
loop_
_atom_site_label
_atom_site_type_symbol
_atom_site_fract_x
_atom_site_fract_y
_atom_site_fract_z
Se1 Se 0.19713(11) 0.93652(8) 0.06110(9)
Se2 Se 0.84062(13) 1.06095(7) 0.32411(8)
Se3 Se 0.68858(13) 0.67067(6) 0.01229(8)
C1 C 0.6346(9) 0.7997(5) 0.0863(6)
C2 C 0.4726(9) 0.8113(5) 0.0479(5)
C3 C 0.7417(8) 0.8776(6) 0.1724(6)
C4 C 0.6742(10) 0.9690(5) 0.2118(5)
C5 C 0.5115(9) 0.9841(5) 0.1728(5)
C6 C 0.4119(8) 0.9055(5) 0.0949(5)
C7 C 0.9475(6) 0.9744(4) 0.2977(3)
H1 H 1.0554 0.9930 0.3330
C8 C 0.5170(7) 0.6635(3) -0.0621(3)
H2 H 0.4869 0.6163 -0.1315
C9 C 0.2653(6) 1.0252(6) 0.1505(4)
H3 H 0.1917 1.0578 0.1784
C10 C 0.3804(10) 0.7245(6) -0.0393(6)
H4 H 0.2713 0.7100 -0.0719
C11 C 0.9151(10) 0.8691(7) 0.2289(7)
H5 H 0.9838 0.8126 0.2222
C12 C 0.4283(12) 1.0781(6) 0.2097(7)
H6 H 0.4644 1.1458 0.2540
C13? C 0.724(10) 1.093(2) 0.312(4)
C14? C 0.787(9) 0.731(6) 0.120(6)
C15? C 0.153(9) 0.857(4) 0.001(4)
loop_
_geom_bond_atom_site_label_1
_geom_bond_atom_site_label_2
_geom_bond_site_symmetry_1
_geom_bond_site_symmetry_2
Se1 C6 1_555 1_555
Se2 C4 1_555 1_555
Se3 C1 1_555 1_555
C1 C2 1_555 1_555
C2 C6 1_555 1_555
C3 C1 1_555 1_555
C4 C3 1_555 1_555
C5 C4 1_555 1_555
C6 C5 1_555 1_555
C7 Se2 1_555 1_555
H1 C7 1_555 1_555
C8 Se3 1_555 1_555
H2 C8 1_555 1_555
C9 Se1 1_555 1_555
H3 C9 1_555 1_555
C10 C2 1_555 1_555
H4 C10 1_555 1_555
C11 C3 1_555 1_555
H5 C11 1_555 1_555
C12 C5 1_555 1_555
H6 C12 1_555 1_555
C7 C11 1_555 1_555
C8 C10 1_555 1_555
C9 C12 1_555 1_555

#END
