
#######################################################################
#
#                 Cambridge Crystallographic Data Centre
#                                CCDC 
#
#######################################################################
#
# If this CIF has been generated from an entry in the Cambridge 
# Structural Database, then it will include bibliographic, chemical, 
# crystal, experimental, refinement or atomic coordinate data resulting 
# from the CCDC's data processing and validation procedures.
#
#######################################################################

data_BOWBOF
_chemical_formula_moiety         'C19 H17 N1 O3'
_chemical_name_systematic        
'Ethyl 3-benzoyl-5-methyl-1H-indole-2-carboxylate'
_symmetry_cell_setting           triclinic
_symmetry_space_group_name_H-M   'P -1'
_symmetry_Int_Tables_number      2
_space_group_name_Hall           '-P 1'
loop_
_symmetry_equiv_pos_site_id
_symmetry_equiv_pos_as_xyz
1 x,y,z
2 -x,-y,-z
_cell_length_a                   7.7578(16)
_cell_length_b                   10.497(2)
_cell_length_c                   10.791(2)
_cell_angle_alpha                71.02(3)
_cell_angle_beta                 75.69(3)
_cell_angle_gamma                74.48(3)
_cell_volume                     788.211
_chemical_melting_point          '161-162 deg.C'
_cell_formula_units_Z            2
loop_
_atom_site_label
_atom_site_type_symbol
_atom_site_fract_x
_atom_site_fract_y
_atom_site_fract_z
O1 O 0.39500(13) 0.51457(10) 0.15412(9)
O2 O 0.41291(11) 0.58985(9) 0.32039(8)
O3 O 0.81806(12) 0.73497(10) 0.33754(9)
N1 N 0.71021(14) 0.60235(11) 0.00958(10)
C1 C 0.63023(16) 0.62745(12) 0.12927(12)
C2 C 0.73121(16) 0.69796(12) 0.16158(12)
C3 C 0.88293(16) 0.71513(12) 0.05564(12)
C4 C 1.02996(17) 0.77934(13) 0.02867(13)
H1 H 1.0446 0.8211 0.0904
C5 C 1.15289(17) 0.78147(13) -0.08770(13)
C6 C 1.12998(17) 0.71804(13) -0.17785(13)
H2 H 1.2170 0.7191 -0.2573
C7 C 0.98766(17) 0.65519(13) -0.15533(13)
H3 H 0.9741 0.6135 -0.2174
C8 C 0.86340(16) 0.65480(12) -0.03760(12)
C9 C 1.31054(19) 0.85081(16) -0.12164(15)
H4 H 1.3027 0.8958 -0.0533
H5 H 1.3078 0.9199 -0.2083
H6 H 1.4242 0.7822 -0.1256
C10 C 0.69667(17) 0.75381(13) 0.27658(12)
C11 C 0.51733(16) 0.84234(12) 0.31052(12)
C12 C 0.46791(18) 0.86671(13) 0.43439(13)
H7 H 0.5451 0.8226 0.4987
C13 C 0.30697(18) 0.95480(14) 0.46465(14)
H8 H 0.2727 0.9704 0.5501
C14 C 0.19533(19) 1.02043(14) 0.37104(14)
H9 H 0.0852 1.0820 0.3919
C15 C 0.24313(19) 0.99694(14) 0.24761(14)
H10 H 0.1659 1.0419 0.1834
C16 C 0.40362(17) 0.90788(13) 0.21717(13)
H11 H 0.4364 0.8914 0.1321
C17 C 0.46860(16) 0.57161(12) 0.20046(12)
C18 C 0.24232(17) 0.54931(14) 0.39266(13)
H12 H 0.2592 0.4478 0.4227
H13 H 0.1491 0.5862 0.3347
C19 C 0.18448(19) 0.60673(16) 0.50929(14)
H14 H 0.2794 0.5714 0.5644
H15 H 0.0713 0.5791 0.5621
H16 H 0.1647 0.7074 0.4781
H17 H 0.668(2) 0.5535(17) -0.0309(16)
loop_
_geom_bond_atom_site_label_1
_geom_bond_atom_site_label_2
_geom_bond_site_symmetry_1
_geom_bond_site_symmetry_2
O1 C17 1_555 1_555
O2 C17 1_555 1_555
O3 C10 1_555 1_555
N1 C1 1_555 1_555
C1 C2 1_555 1_555
C2 C3 1_555 1_555
C3 C4 1_555 1_555
C4 H1 1_555 1_555
C5 C4 1_555 1_555
C6 C5 1_555 1_555
H2 C6 1_555 1_555
C7 C6 1_555 1_555
H3 C7 1_555 1_555
C8 N1 1_555 1_555
C9 C5 1_555 1_555
H4 C9 1_555 1_555
H5 C9 1_555 1_555
H6 C9 1_555 1_555
C10 C2 1_555 1_555
C11 C10 1_555 1_555
C12 C11 1_555 1_555
H7 C12 1_555 1_555
C13 C12 1_555 1_555
H8 C13 1_555 1_555
C14 C13 1_555 1_555
H9 C14 1_555 1_555
C15 C14 1_555 1_555
H10 C15 1_555 1_555
C16 C11 1_555 1_555
H11 C16 1_555 1_555
C17 C1 1_555 1_555
C18 O2 1_555 1_555
H12 C18 1_555 1_555
H13 C18 1_555 1_555
C19 C18 1_555 1_555
H14 C19 1_555 1_555
H15 C19 1_555 1_555
H16 C19 1_555 1_555
H17 N1 1_555 1_555
C3 C8 1_555 1_555
C7 C8 1_555 1_555
C15 C16 1_555 1_555

#END
