
#######################################################################
#
#                 Cambridge Crystallographic Data Centre
#                                CCDC 
#
#######################################################################
#
# If this CIF has been generated from an entry in the Cambridge 
# Structural Database, then it will include bibliographic, chemical, 
# crystal, experimental, refinement or atomic coordinate data resulting 
# from the CCDC's data processing and validation procedures.
#
#######################################################################

data_BOWBAS
_chemical_formula_moiety         '2(C26 H22 N2 O2),C12 H4 N4,C8 H10'
_chemical_name_systematic        
"bis(1-(5-(9-anthryl)-3-(4-methoxyphenyl)-4,5-dihydro-1H-pyrazol-1-yl)ethanone) 2,2'-cyclohexa-2,5-diene-1,4-diylidenedimalononitrile p-xylene solvate"
_symmetry_cell_setting           triclinic
_symmetry_space_group_name_H-M   'P -1'
_symmetry_Int_Tables_number      2
_space_group_name_Hall           '-P 1'
loop_
_symmetry_equiv_pos_site_id
_symmetry_equiv_pos_as_xyz
1 x,y,z
2 -x,-y,-z
_cell_length_a                   9.959(2)
_cell_length_b                   17.475(4)
_cell_length_c                   18.237(4)
_cell_angle_alpha                110.09(3)
_cell_angle_beta                 95.95(3)
_cell_angle_gamma                91.89(3)
_cell_volume                     2956.67
_exptl_crystal_colour            black
_exptl_crystal_description       block
_cell_formula_units_Z            2
loop_
_atom_site_label
_atom_site_type_symbol
_atom_site_fract_x
_atom_site_fract_y
_atom_site_fract_z
C1 C 0.1520(5) 0.9140(3) 0.1891(3)
C2 C 0.0109(5) 0.9227(3) 0.1806(3)
C3 C -0.0619(5) 0.9755(3) 0.2406(3)
H1 H -0.0141 1.0071 0.2887
C4 C -0.1969(6) 0.9805(4) 0.2290(4)
H2 H -0.2400 1.0147 0.2695
C5 C -0.2729(5) 0.9357(4) 0.1578(4)
H3 H -0.3654 0.9412 0.1509
C6 C -0.2133(5) 0.8836(3) 0.0977(4)
H4 H -0.2651 0.8539 0.0503
C7 C -0.0694(5) 0.8748(3) 0.1082(3)
C8 C -0.0083(5) 0.8204(3) 0.0482(3)
H5 H -0.0611 0.7904 0.0013
C9 C 0.1290(5) 0.8094(3) 0.0562(3)
C10 C 0.1885(6) 0.7510(3) -0.0047(3)
H6 H 0.1347 0.7203 -0.0511
C11 C 0.3215(6) 0.7394(3) 0.0038(3)
H7 H 0.3589 0.7009 -0.0365
C12 C 0.4036(5) 0.7856(3) 0.0734(3)
H8 H 0.4951 0.7767 0.0790
C13 C 0.3525(5) 0.8427(3) 0.1326(3)
H9 H 0.4101 0.8732 0.1774
C14 C 0.2109(5) 0.8574(3) 0.1279(3)
C15 C 0.2377(4) 0.9629(3) 0.2666(3)
H10 H 0.1799 1.0014 0.2994
C16 C 0.2973(5) 0.9119(3) 0.3139(3)
H11 H 0.2484 0.9166 0.3584
H12 H 0.2962 0.8548 0.2812
C17 C 0.4396(5) 0.9499(3) 0.3404(3)
C18 C 0.5350(5) 0.9315(3) 0.3975(3)
C19 C 0.5046(5) 0.8696(3) 0.4248(3)
H13 H 0.4227 0.8385 0.4049
C20 C 0.5901(6) 0.8511(3) 0.4806(3)
H14 H 0.5667 0.8084 0.4973
C21 C 0.7082(6) 0.8969(3) 0.5100(3)
C22 C 0.7435(6) 0.9597(3) 0.4847(3)
H15 H 0.8256 0.9904 0.5050
C23 C 0.6571(5) 0.9769(3) 0.4294(3)
H16 H 0.6812 1.0198 0.4131
C24 C 0.3507(6) 1.0776(3) 0.2402(3)
C25 C 0.4810(6) 1.1256(3) 0.2440(4)
H17 H 0.4617 1.1719 0.2288
H18 H 0.5379 1.0915 0.2089
H19 H 0.5265 1.1441 0.2968
C26 C 0.7845(7) 0.8127(4) 0.5847(3)
H20 H 0.8553 0.8128 0.6247
H21 H 0.7888 0.7660 0.5382
H22 H 0.6983 0.8102 0.6033
N1 N 0.4719(4) 1.0024(2) 0.3094(2)
N2 N 0.3591(4) 1.0105(2) 0.2604(2)
O1 O 0.2410(4) 1.0963(2) 0.2178(2)
O2 O 0.8008(4) 0.8854(2) 0.5668(2)
C27 C 0.9603(5) 0.5811(3) 0.2683(3)
C28 C 1.0770(4) 0.5855(3) 0.2319(3)
C29 C 1.1928(5) 0.5393(3) 0.2346(3)
H23 H 1.1904 0.5018 0.2604
C30 C 1.3044(5) 0.5476(3) 0.2016(3)
H24 H 1.3764 0.5159 0.2050
C31 C 1.3137(6) 0.6035(4) 0.1623(3)
H25 H 1.3920 0.6092 0.1403
C32 C 1.2087(5) 0.6491(3) 0.1562(3)
H26 H 1.2151 0.6858 0.1298
C33 C 1.0875(5) 0.6414(3) 0.1902(3)
C34 C 0.9814(5) 0.6886(3) 0.1842(3)
H27 H 0.9882 0.7239 0.1562
C35 C 0.8639(5) 0.6850(3) 0.2190(3)
C36 C 0.7569(6) 0.7357(3) 0.2133(3)
H28 H 0.7649 0.7704 0.1848
C37 C 0.6446(6) 0.7346(4) 0.2482(4)
H29 H 0.5746 0.7668 0.2425
C38 C 0.6344(5) 0.6841(3) 0.2933(3)
H30 H 0.5580 0.6844 0.3187
C39 C 0.7338(5) 0.6349(3) 0.3006(3)
H31 H 0.7238 0.6024 0.3311
C40 C 0.8535(5) 0.6316(3) 0.2629(3)
C41 C 0.9558(5) 0.5276(3) 0.3191(3)
H32 H 1.0307 0.4919 0.3086
C42 C 0.9703(5) 0.5751(3) 0.4078(3)
H33 H 1.0547 0.5657 0.4339
H34 H 0.9657 0.6333 0.4188
C43 C 0.8502(5) 0.5399(3) 0.4329(3)
C44 C 0.8174(5) 0.5673(3) 0.5136(3)
C45 C 0.9036(5) 0.6202(3) 0.5753(3)
H35 H 0.9861 0.6380 0.5649
C46 C 0.8734(6) 0.6482(3) 0.6521(3)
H36 H 0.9340 0.6848 0.6919
C47 C 0.7526(6) 0.6213(3) 0.6691(3)
C48 C 0.6649(6) 0.5674(4) 0.6084(3)
H37 H 0.5830 0.5490 0.6191
C49 C 0.6964(5) 0.5404(3) 0.5323(3)
H38 H 0.6359 0.5035 0.4927
C50 C 0.7943(7) 0.7015(4) 0.8060(3)
H39 H 0.7521 0.7120 0.8532
H40 H 0.8085 0.7515 0.7962
H41 H 0.8799 0.6792 0.8122
C51 C 0.7887(6) 0.4144(3) 0.2382(3)
C52 C 0.6583(6) 0.3667(3) 0.2334(3)
H42 H 0.6379 0.3262 0.1818
H43 H 0.5867 0.4031 0.2436
H44 H 0.6666 0.3404 0.2718
N3 N 0.8299(4) 0.4753(2) 0.3062(2)
N4 N 0.7753(4) 0.4854(2) 0.3757(2)
O3 O 0.7093(4) 0.6446(2) 0.7415(2)
O4 O 0.8546(4) 0.4011(2) 0.1825(2)
C53 C 0.8485(8) 0.1517(5) 0.1649(5)
C54 C 0.8112(10) 0.0938(4) 0.0866(4)
C55 C 0.6671(11) 0.0907(5) 0.0579(5)
C56 C 0.9027(9) 0.0475(4) 0.0440(4)
C57 C 1.0454(9) 0.0549(4) 0.0755(4)
H45 H 1.0737 0.0916 0.1259
C58 C 0.8650(9) -0.0110(4) -0.0344(4)
H46 H 0.7750 -0.0179 -0.0564
N5 N 0.5568(9) 0.0891(5) 0.0374(6)
N6 N 0.8760(8) 0.1976(4) 0.2277(4)
C53A C 1.1515(8) -0.1517(5) -0.1649(5)
C54A C 1.1888(10) -0.0938(4) -0.0866(4)
C55A C 1.3329(11) -0.0907(5) -0.0579(5)
C56A C 1.0973(9) -0.0475(4) -0.0440(4)
C57A C 0.9546(9) -0.0549(4) -0.0755(4)
H45A H 0.9263 -0.0916 -0.1259
C58A C 1.1350(9) 0.0110(4) 0.0344(4)
H46A H 1.2250 0.0179 0.0564
N5A N 1.4432(9) -0.0891(5) -0.0374(6)
N6A N 1.1240(8) -0.1976(4) -0.2277(4)
C59 C 0.6560(5) 0.5252(3) 0.0675(3)
C60 C 0.7458(5) 0.5577(3) 0.0263(3)
C61 C 0.6975(5) 0.6217(4) -0.0005(3)
C62 C 0.8713(5) 0.5291(3) 0.0132(3)
C63 C 0.9195(5) 0.4678(3) 0.0428(3)
H47 H 0.8654 0.4471 0.0713
C64 C 1.0416(5) 0.4397(3) 0.0300(3)
H48 H 1.0707 0.3995 0.0493
N7 N 0.6641(5) 0.6731(3) -0.0208(3)
N8 N 0.5859(5) 0.4984(3) 0.0995(3)
C59A C 1.3440(5) 0.4748(3) -0.0675(3)
C60A C 1.2542(5) 0.4423(3) -0.0263(3)
C61A C 1.3025(5) 0.3783(4) 0.0005(3)
C62A C 1.1287(5) 0.4709(3) -0.0132(3)
C63A C 1.0805(5) 0.5322(3) -0.0428(3)
H47A H 1.1346 0.5529 -0.0713
C64A C 0.9584(5) 0.5603(3) -0.0300(3)
H48A H 0.9293 0.6005 -0.0493
N7A N 1.3359(5) 0.3269(3) 0.0208(3)
N8A N 1.4141(5) 0.5016(3) -0.0995(3)
C65 C 0.3833(10) 0.6868(5) 0.5645(5)
H49 H 0.3738 0.7085 0.6196
H50 H 0.4751 0.6976 0.5571
H51 H 0.3609 0.6289 0.5449
C66 C 0.2891(10) 0.7269(6) 0.5205(7)
C67 C 0.2087(11) 0.7857(7) 0.5627(6)
H52 H 0.2148 0.8005 0.6171
C68 C 0.1197(9) 0.8222(5) 0.5242(6)
H53 H 0.0671 0.8614 0.5539
C69 C 0.1049(8) 0.8030(5) 0.4429(5)
C70 C 0.1872(9) 0.7453(5) 0.4041(5)
H54 H 0.1815 0.7307 0.3498
C71 C 0.2772(9) 0.7074(4) 0.4396(6)
H55 H 0.3302 0.6688 0.4096
C72 C 0.0057(7) 0.8399(4) 0.3991(5)
H56 H 0.0126 0.8169 0.3438
H57 H 0.0257 0.8979 0.4170
H58 H -0.0845 0.8283 0.4085
loop_
_geom_bond_atom_site_label_1
_geom_bond_atom_site_label_2
_geom_bond_site_symmetry_1
_geom_bond_site_symmetry_2
C1 C2 1_555 1_555
C2 C3 1_555 1_555
C3 H1 1_555 1_555
C4 C3 1_555 1_555
H2 C4 1_555 1_555
C5 C4 1_555 1_555
H3 C5 1_555 1_555
C6 C5 1_555 1_555
H4 C6 1_555 1_555
C7 C2 1_555 1_555
C8 C7 1_555 1_555
H5 C8 1_555 1_555
C9 C8 1_555 1_555
C10 C9 1_555 1_555
H6 C10 1_555 1_555
C11 C10 1_555 1_555
H7 C11 1_555 1_555
C12 C11 1_555 1_555
H8 C12 1_555 1_555
C13 C12 1_555 1_555
H9 C13 1_555 1_555
C14 C1 1_555 1_555
C15 C1 1_555 1_555
H10 C15 1_555 1_555
C16 C15 1_555 1_555
H11 C16 1_555 1_555
H12 C16 1_555 1_555
C17 C16 1_555 1_555
C18 C17 1_555 1_555
C19 C18 1_555 1_555
H13 C19 1_555 1_555
C20 C19 1_555 1_555
H14 C20 1_555 1_555
C21 C20 1_555 1_555
C22 C21 1_555 1_555
H15 C22 1_555 1_555
C23 C18 1_555 1_555
H16 C23 1_555 1_555
C24 C25 1_555 1_555
C25 H17 1_555 1_555
H18 C25 1_555 1_555
H19 C25 1_555 1_555
C26 H20 1_555 1_555
H21 C26 1_555 1_555
H22 C26 1_555 1_555
N1 C17 1_555 1_555
N2 C15 1_555 1_555
O1 C24 1_555 1_555
O2 C21 1_555 1_555
C27 C28 1_555 1_555
C28 C29 1_555 1_555
C29 H23 1_555 1_555
C30 C29 1_555 1_555
H24 C30 1_555 1_555
C31 C30 1_555 1_555
H25 C31 1_555 1_555
C32 C31 1_555 1_555
H26 C32 1_555 1_555
C33 C28 1_555 1_555
C34 C33 1_555 1_555
H27 C34 1_555 1_555
C35 C34 1_555 1_555
C36 C35 1_555 1_555
H28 C36 1_555 1_555
C37 C36 1_555 1_555
H29 C37 1_555 1_555
C38 C37 1_555 1_555
H30 C38 1_555 1_555
C39 C38 1_555 1_555
H31 C39 1_555 1_555
C40 C27 1_555 1_555
C41 C27 1_555 1_555
H32 C41 1_555 1_555
C42 C41 1_555 1_555
H33 C42 1_555 1_555
H34 C42 1_555 1_555
C43 C42 1_555 1_555
C44 C43 1_555 1_555
C45 C44 1_555 1_555
H35 C45 1_555 1_555
C46 C45 1_555 1_555
H36 C46 1_555 1_555
C47 C46 1_555 1_555
C48 C47 1_555 1_555
H37 C48 1_555 1_555
C49 C44 1_555 1_555
H38 C49 1_555 1_555
C50 H39 1_555 1_555
H40 C50 1_555 1_555
H41 C50 1_555 1_555
C51 C52 1_555 1_555
C52 H42 1_555 1_555
H43 C52 1_555 1_555
H44 C52 1_555 1_555
N3 C41 1_555 1_555
N4 C43 1_555 1_555
O3 C47 1_555 1_555
O4 C51 1_555 1_555
C53 C54 1_555 1_555
C54 C55 1_555 1_555
C55 N5 1_555 1_555
C56 C54 1_555 1_555
C57 C56 1_555 1_555
H45 C57 1_555 1_555
C58 C56 1_555 1_555
H46 C58 1_555 1_555
N6 C53 1_555 1_555
C59 C60 1_555 1_555
C60 C61 1_555 1_555
C61 N7 1_555 1_555
C62 C60 1_555 1_555
C63 C62 1_555 1_555
H47 C63 1_555 1_555
C64 C63 1_555 1_555
H48 C64 1_555 1_555
N8 C59 1_555 1_555
C65 H49 1_555 1_555
H50 C65 1_555 1_555
H51 C65 1_555 1_555
C66 C65 1_555 1_555
C67 C66 1_555 1_555
H52 C67 1_555 1_555
C68 C67 1_555 1_555
H53 C68 1_555 1_555
C69 C68 1_555 1_555
C70 C69 1_555 1_555
H54 C70 1_555 1_555
C71 C66 1_555 1_555
H55 C71 1_555 1_555
C72 C69 1_555 1_555
H56 C72 1_555 1_555
H57 C72 1_555 1_555
H58 C72 1_555 1_555
C53A C54A 1_555 1_555
C54A C55A 1_555 1_555
C55A N5A 1_555 1_555
C56A C54A 1_555 1_555
C57A C58 1_555 1_555
H45A C57A 1_555 1_555
C58A C57 1_555 1_555
H46A C58A 1_555 1_555
N6A C53A 1_555 1_555
C59A C60A 1_555 1_555
C60A C61A 1_555 1_555
C61A N7A 1_555 1_555
C62A C64 1_555 1_555
C63A C62A 1_555 1_555
H47A C63A 1_555 1_555
C64A C62 1_555 1_555
H48A C64A 1_555 1_555
N8A C59A 1_555 1_555
C6 C7 1_555 1_555
C9 C14 1_555 1_555
C13 C14 1_555 1_555
C22 C23 1_555 1_555
C24 N2 1_555 1_555
C26 O2 1_555 1_555
N1 N2 1_555 1_555
C32 C33 1_555 1_555
C35 C40 1_555 1_555
C39 C40 1_555 1_555
C48 C49 1_555 1_555
C50 O3 1_555 1_555
C51 N3 1_555 1_555
N3 N4 1_555 1_555
C70 C71 1_555 1_555
C56A C57A 1_555 1_555
C56A C58A 1_555 1_555
C60A C62A 1_555 1_555
C63A C64A 1_555 1_555

#END
