
#######################################################################
#
#                 Cambridge Crystallographic Data Centre
#                                CCDC 
#
#######################################################################
#
# If this CIF has been generated from an entry in the Cambridge 
# Structural Database, then it will include bibliographic, chemical, 
# crystal, experimental, refinement or atomic coordinate data resulting 
# from the CCDC's data processing and validation procedures.
#
#######################################################################

data_BOWCIB
_chemical_formula_moiety         '2(C26 H22 N2 O2),C12 H4 N4'
_chemical_name_systematic        
"2,2'-Cyclohexa-2,5-diene-1,4-diylidenedimalononitrile bis(1-(5-(9-anthryl)-3-(4-methoxyphenyl)-4,5-dihydro-1H-pyrazol-1-yl)ethanone)"
_symmetry_cell_setting           triclinic
_symmetry_space_group_name_H-M   'P -1'
_symmetry_Int_Tables_number      2
_space_group_name_Hall           '-P 1'
loop_
_symmetry_equiv_pos_site_id
_symmetry_equiv_pos_as_xyz
1 x,y,z
2 -x,-y,-z
_cell_length_a                   10.517(2)
_cell_length_b                   16.373(3)
_cell_length_c                   17.041(3)
_cell_angle_alpha                63.35(3)
_cell_angle_beta                 84.38(3)
_cell_angle_gamma                82.28(3)
_cell_volume                     2596.51
_cell_formula_units_Z            2
loop_
_atom_site_label
_atom_site_type_symbol
_atom_site_fract_x
_atom_site_fract_y
_atom_site_fract_z
O1 O 0.4806(3) 0.6535(2) 0.1867(2)
N1 N 0.3065(4) 0.8702(3) 0.0849(2)
C1 C 0.6191(4) 0.7530(2) 0.3104(3)
C2 C 0.7336(4) 0.7452(3) 0.2627(3)
H1 H 0.7297 0.7604 0.2034
N2 N 0.3914(4) 0.7974(2) 0.1401(2)
O2 O 0.0350(3) 1.2774(2) -0.1033(2)
C3 C 0.8472(5) 0.7167(3) 0.2998(4)
H2 H 0.9203 0.7116 0.2662
C4 C 0.8576(5) 0.6947(3) 0.3877(4)
H3 H 0.9378 0.6769 0.4123
C5 C 0.7541(5) 0.6990(3) 0.4364(3)
H4 H 0.7628 0.6835 0.4954
C6 C 0.6304(4) 0.7264(3) 0.4024(3)
C7 C 0.5217(5) 0.7298(3) 0.4538(3)
H5 H 0.5306 0.7145 0.5127
C8 C 0.4027(5) 0.7549(3) 0.4213(3)
C9 C 0.2944(6) 0.7552(3) 0.4769(3)
H6 H 0.3057 0.7362 0.5362
C10 C 0.1754(5) 0.7821(3) 0.4465(4)
H7 H 0.1056 0.7826 0.4843
C11 C 0.1566(5) 0.8100(3) 0.3553(3)
H8 H 0.0743 0.8274 0.3340
C12 C 0.2586(4) 0.8108(3) 0.3010(3)
H9 H 0.2448 0.8303 0.2419
C13 C 0.3854(4) 0.7836(3) 0.3295(3)
C14 C 0.4945(4) 0.7841(2) 0.2757(2)
C15 C 0.4846(4) 0.8290(3) 0.1755(2)
H10 H 0.5676 0.8183 0.1510
C16 C 0.4471(4) 0.9327(3) 0.1358(2)
H11 H 0.4225 0.9527 0.1813
H12 H 0.5173 0.9661 0.0995
C17 C 0.3357(4) 0.9462(3) 0.0817(3)
C18 C 0.3953(5) 0.7111(3) 0.1466(3)
C19 C 0.2921(5) 0.6957(3) 0.1014(3)
H13 H 0.3037 0.6334 0.1093
H14 H 0.2969 0.7368 0.0398
H15 H 0.2096 0.7072 0.1261
C20 C 0.2597(4) 1.0332(3) 0.0332(3)
C21 C 0.1604(5) 1.0399(3) -0.0166(3)
H16 H 0.1425 0.9878 -0.0205
C22 C 0.0877(5) 1.1205(3) -0.0601(3)
H17 H 0.0206 1.1232 -0.0931
C23 C 0.1138(5) 1.1997(3) -0.0553(3)
C24 C 0.2107(5) 1.1966(3) -0.0074(3)
H18 H 0.2286 1.2491 -0.0042
C25 C 0.2833(5) 1.1127(3) 0.0372(3)
H19 H 0.3498 1.1098 0.0709
C26 C 0.0717(6) 1.3639(3) -0.1198(4)
H20 H 0.0074 1.4115 -0.1530
H21 H 0.1524 1.3733 -0.1526
H22 H 0.0801 1.3656 -0.0650
O3 O 0.5450(3) 0.2926(2) 0.31803(19)
N3 N 0.3665(3) 0.4223(2) 0.1304(2)
N4 N 0.4526(3) 0.3546(2) 0.1901(2)
O4 O 0.0609(3) 0.6489(2) -0.2169(2)
C27 C 0.6534(4) 0.1434(3) 0.2037(3)
C28 C 0.7724(5) 0.1793(3) 0.1637(3)
H23 H 0.7744 0.2426 0.1332
C29 C 0.8816(5) 0.1241(4) 0.1689(4)
H24 H 0.9568 0.1500 0.1414
C30 C 0.8842(6) 0.0278(4) 0.2152(4)
H25 H 0.9605 -0.0094 0.2185
C31 C 0.7753(6) -0.0099(4) 0.2545(3)
H26 H 0.7780 -0.0734 0.2853
C32 C 0.6564(4) 0.0440(3) 0.2508(3)
C33 C 0.5451(5) 0.0050(3) 0.2894(3)
H27 H 0.5491 -0.0584 0.3228
C34 C 0.4283(5) 0.0561(3) 0.2805(3)
C35 C 0.3142(5) 0.0145(3) 0.3164(3)
H28 H 0.3191 -0.0488 0.3501
C36 C 0.1997(5) 0.0630(4) 0.3037(3)
H29 H 0.1257 0.0334 0.3268
C37 C 0.1908(5) 0.1605(3) 0.2545(3)
H30 H 0.1106 0.1943 0.2457
C38 C 0.2973(5) 0.2042(3) 0.2205(3)
H31 H 0.2890 0.2679 0.1890
C39 C 0.4216(4) 0.1557(3) 0.2314(3)
C40 C 0.5359(4) 0.1974(3) 0.1968(2)
C41 C 0.5351(4) 0.3023(3) 0.1492(3)
H32 H 0.6235 0.3171 0.1453
C42 C 0.4865(4) 0.3456(3) 0.0561(2)
H33 H 0.5543 0.3727 0.0127
H34 H 0.4520 0.3007 0.0439
C43 C 0.3835(4) 0.4176(3) 0.0572(3)
C44 C 0.4655(5) 0.3480(3) 0.2696(3)
C45 C 0.3736(6) 0.4118(3) 0.2948(3)
H35 H 0.3889 0.4011 0.3535
H36 H 0.2870 0.4009 0.2923
H37 H 0.3862 0.4743 0.2548
C46 C 0.2999(4) 0.4779(3) -0.0156(3)
C47 C 0.3293(4) 0.4836(3) -0.0991(3)
H38 H 0.4009 0.4488 -0.1088
C48 C 0.2516(5) 0.5413(3) -0.1679(3)
H39 H 0.2722 0.5464 -0.2242
C49 C 0.1452(5) 0.5905(3) -0.1529(3)
C50 C 0.1145(5) 0.5853(3) -0.0708(3)
H40 H 0.0424 0.6196 -0.0608
C51 C 0.1935(4) 0.5278(3) -0.0035(3)
H41 H 0.1727 0.5232 0.0525
C52 C 0.0905(7) 0.6607(5) -0.3043(3)
H42 H 0.0251 0.7026 -0.3421
H43 H 0.0942 0.6024 -0.3057
H44 H 0.1720 0.6849 -0.3241
N5 N 0.0929(5) 0.9054(4) -0.4033(4)
N6 N 0.1325(5) 1.2021(4) -0.5414(4)
C53 C 0.1547(5) 0.9634(5) -0.4359(4)
C54 C 0.2381(4) 1.0359(4) -0.4786(3)
C55 C 0.1770(5) 1.1265(5) -0.5124(4)
C56 C 0.3666(4) 1.0179(3) -0.4893(3)
C57 C 0.4282(4) 0.9255(3) -0.4541(3)
H45 H 0.3790 0.8767 -0.4231
C58 C 0.4454(4) 1.0914(3) -0.5349(3)
H46 H 0.4081 1.1519 -0.5572
N5A N 0.9071(5) 1.0946(4) -0.5967(4)
N6A N 0.8675(5) 0.7979(4) -0.4586(4)
C53A C 0.8453(5) 1.0366(5) -0.5641(4)
C54A C 0.7619(4) 0.9641(4) -0.5214(3)
C55A C 0.8230(5) 0.8735(5) -0.4876(4)
C56A C 0.6334(4) 0.9821(3) -0.5107(3)
C57A C 0.5718(4) 1.0745(3) -0.5459(3)
H45A H 0.6210 1.1233 -0.5769
C58A C 0.5546(4) 0.9086(3) -0.4651(3)
H46A H 0.5919 0.8481 -0.4428
N7 N 0.1684(4) 0.6054(3) 0.3025(3)
N8 N 0.0640(5) 0.5405(3) 0.5744(3)
C59 C 0.2021(4) 0.5814(3) 0.3712(3)
C60 C 0.2437(4) 0.5483(3) 0.4586(3)
C61 C 0.1451(5) 0.5423(3) 0.5224(4)
C62 C 0.3698(4) 0.5256(3) 0.4778(3)
C63 C 0.4077(5) 0.4875(3) 0.5684(3)
H47 H 0.3453 0.4798 0.6132
C64 C 0.4680(5) 0.5365(3) 0.4123(3)
H48 H 0.4459 0.5612 0.3539
N7A N 0.8316(4) 0.3946(3) 0.6975(3)
N8A N 0.9360(5) 0.4595(3) 0.4256(3)
C59A C 0.7979(4) 0.4186(3) 0.6288(3)
C60A C 0.7563(4) 0.4517(3) 0.5414(3)
C61A C 0.8549(5) 0.4577(3) 0.4776(4)
C62A C 0.6302(4) 0.4744(3) 0.5222(3)
C63A C 0.5923(5) 0.5125(3) 0.4316(3)
H47A H 0.6547 0.5202 0.3868
C64A C 0.5320(5) 0.4635(3) 0.5877(3)
H48A H 0.5541 0.4388 0.6461
loop_
_geom_bond_atom_site_label_1
_geom_bond_atom_site_label_2
_geom_bond_site_symmetry_1
_geom_bond_site_symmetry_2
O1 C18 1_555 1_555
N1 N2 1_555 1_555
C1 C2 1_555 1_555
C2 H1 1_555 1_555
N2 C15 1_555 1_555
O2 C23 1_555 1_555
C3 C2 1_555 1_555
H2 C3 1_555 1_555
C4 C3 1_555 1_555
H3 C4 1_555 1_555
C5 C4 1_555 1_555
H4 C5 1_555 1_555
C6 C1 1_555 1_555
C7 C6 1_555 1_555
H5 C7 1_555 1_555
C8 C7 1_555 1_555
C9 C8 1_555 1_555
H6 C9 1_555 1_555
C10 C9 1_555 1_555
H7 C10 1_555 1_555
C11 C10 1_555 1_555
H8 C11 1_555 1_555
C12 C11 1_555 1_555
H9 C12 1_555 1_555
C13 C8 1_555 1_555
C14 C1 1_555 1_555
C15 C14 1_555 1_555
H10 C15 1_555 1_555
C16 C15 1_555 1_555
H11 C16 1_555 1_555
H12 C16 1_555 1_555
C17 N1 1_555 1_555
C18 N2 1_555 1_555
C19 C18 1_555 1_555
H13 C19 1_555 1_555
H14 C19 1_555 1_555
H15 C19 1_555 1_555
C20 C17 1_555 1_555
C21 C20 1_555 1_555
H16 C21 1_555 1_555
C22 C21 1_555 1_555
H17 C22 1_555 1_555
C23 C22 1_555 1_555
C24 C23 1_555 1_555
H18 C24 1_555 1_555
C25 C20 1_555 1_555
H19 C25 1_555 1_555
C26 O2 1_555 1_555
H20 C26 1_555 1_555
H21 C26 1_555 1_555
H22 C26 1_555 1_555
O3 C44 1_555 1_555
N3 N4 1_555 1_555
N4 C41 1_555 1_555
O4 C49 1_555 1_555
C27 C28 1_555 1_555
C28 H23 1_555 1_555
C29 C28 1_555 1_555
H24 C29 1_555 1_555
C30 C29 1_555 1_555
H25 C30 1_555 1_555
C31 C30 1_555 1_555
H26 C31 1_555 1_555
C32 C27 1_555 1_555
C33 C32 1_555 1_555
H27 C33 1_555 1_555
C34 C33 1_555 1_555
C35 C34 1_555 1_555
H28 C35 1_555 1_555
C36 C35 1_555 1_555
H29 C36 1_555 1_555
C37 C36 1_555 1_555
H30 C37 1_555 1_555
C38 C37 1_555 1_555
H31 C38 1_555 1_555
C39 C34 1_555 1_555
C40 C27 1_555 1_555
C41 C40 1_555 1_555
H32 C41 1_555 1_555
C42 C41 1_555 1_555
H33 C42 1_555 1_555
H34 C42 1_555 1_555
C43 N3 1_555 1_555
C44 N4 1_555 1_555
C45 C44 1_555 1_555
H35 C45 1_555 1_555
H36 C45 1_555 1_555
H37 C45 1_555 1_555
C46 C43 1_555 1_555
C47 C46 1_555 1_555
H38 C47 1_555 1_555
C48 C47 1_555 1_555
H39 C48 1_555 1_555
C49 C48 1_555 1_555
C50 C49 1_555 1_555
H40 C50 1_555 1_555
C51 C46 1_555 1_555
H41 C51 1_555 1_555
C52 O4 1_555 1_555
H42 C52 1_555 1_555
H43 C52 1_555 1_555
H44 C52 1_555 1_555
N5 C53 1_555 1_555
N6 C55 1_555 1_555
C53 C54 1_555 1_555
C54 C55 1_555 1_555
C56 C54 1_555 1_555
C57 C56 1_555 1_555
H45 C57 1_555 1_555
C58 C56 1_555 1_555
H46 C58 1_555 1_555
N7 C59 1_555 1_555
N8 C61 1_555 1_555
C59 C60 1_555 1_555
C60 C61 1_555 1_555
C62 C60 1_555 1_555
C63 C62 1_555 1_555
H47 C63 1_555 1_555
C64 C62 1_555 1_555
H48 C64 1_555 1_555
N5A C53A 1_555 1_555
N6A C55A 1_555 1_555
C53A C54A 1_555 1_555
C54A C55A 1_555 1_555
C56A C54A 1_555 1_555
C57A C58 1_555 1_555
H45A C57A 1_555 1_555
C58A C57 1_555 1_555
H46A C58A 1_555 1_555
N7A C59A 1_555 1_555
N8A C61A 1_555 1_555
C59A C60A 1_555 1_555
C60A C61A 1_555 1_555
C62A C60A 1_555 1_555
C63A C64 1_555 1_555
H47A C63A 1_555 1_555
C64A C63 1_555 1_555
H48A C64A 1_555 1_555
C5 C6 1_555 1_555
C12 C13 1_555 1_555
C13 C14 1_555 1_555
C16 C17 1_555 1_555
C24 C25 1_555 1_555
C31 C32 1_555 1_555
C38 C39 1_555 1_555
C39 C40 1_555 1_555
C42 C43 1_555 1_555
C50 C51 1_555 1_555
C56A C57A 1_555 1_555
C56A C58A 1_555 1_555
C62A C63A 1_555 1_555
C62A C64A 1_555 1_555

#END
