
#######################################################################
#
#                 Cambridge Crystallographic Data Centre
#                                CCDC 
#
#######################################################################
#
# If this CIF has been generated from an entry in the Cambridge 
# Structural Database, then it will include bibliographic, chemical, 
# crystal, experimental, refinement or atomic coordinate data resulting 
# from the CCDC's data processing and validation procedures.
#
#######################################################################

data_BOWCUM
_chemical_formula_moiety         'C25 H13 N1 O6'
_chemical_name_systematic        
3'-(3-Nitrophenyl)-dispiro[indan-2,1'-cyclopropane-2',2''-indan]-1,1'',3,3''-tetrone
_symmetry_cell_setting           monoclinic
_symmetry_space_group_name_H-M   'P 21/c'
_symmetry_Int_Tables_number      14
_space_group_name_Hall           '-P 2ybc'
loop_
_symmetry_equiv_pos_site_id
_symmetry_equiv_pos_as_xyz
1 x,y,z
2 -x,1/2+y,1/2-z
3 -x,-y,-z
4 x,1/2-y,1/2+z
_cell_length_a                   10.2632(12)
_cell_length_b                   17.437(2)
_cell_length_c                   11.4706(13)
_cell_angle_alpha                90
_cell_angle_beta                 110.341(3)
_cell_angle_gamma                90
_cell_volume                     1924.76
_exptl_crystal_colour            colorless
_exptl_crystal_description       prismatic
_chemical_melting_point          '198-199 deg.C'
_cell_formula_units_Z            4
loop_
_atom_site_label
_atom_site_type_symbol
_atom_site_fract_x
_atom_site_fract_y
_atom_site_fract_z
O1 O 0.58034(19) 0.35439(11) 0.72306(17)
O2 O 0.36302(19) 0.44722(10) 0.99638(17)
O3 O 0.57264(18) 0.20665(11) 0.80519(17)
O4 O 0.30492(18) 0.28987(11) 1.04144(18)
O5 O 1.1142(2) 0.16003(14) 1.2351(3)
O6 O 0.9137(2) 0.11903(12) 1.2210(2)
N1 N 0.9885(3) 0.16620(15) 1.1983(2)
C1 C 0.4801(2) 0.36697(14) 0.8879(2)
C2 C 0.4594(2) 0.28191(14) 0.9223(2)
C3 C 0.5782(2) 0.32974(13) 1.0030(2)
H1 H 0.5635 0.3475 1.0786
C4 C 0.5012(3) 0.38423(15) 0.7663(2)
C5 C 0.3862(3) 0.43080(14) 0.9027(2)
C6 C 0.4777(3) 0.21641(15) 0.8425(2)
C7 C 0.3409(3) 0.25880(15) 0.9635(2)
C8 C 0.4049(3) 0.44682(14) 0.7073(2)
C9 C 0.3386(2) 0.47374(14) 0.7851(2)
C10 C 0.2479(3) 0.53519(15) 0.7511(3)
H2 H 0.2017 0.5529 0.8027
C11 C 0.2285(3) 0.56935(16) 0.6372(3)
H3 H 0.1694 0.6114 0.6128
C12 C 0.2948(3) 0.54252(17) 0.5591(3)
H4 H 0.2793 0.5664 0.4829
C13 C 0.3834(3) 0.48080(15) 0.5931(2)
H5 H 0.4278 0.4623 0.5406
C14 C 0.3597(3) 0.16375(14) 0.8262(2)
C15 C 0.2806(3) 0.18767(14) 0.8944(2)
C16 C 0.1657(3) 0.14628(15) 0.8962(3)
H6 H 0.1123 0.1628 0.9424
C17 C 0.1339(3) 0.07998(16) 0.8272(3)
H7 H 0.0578 0.0509 0.8267
C18 C 0.2136(3) 0.05570(16) 0.7582(3)
H8 H 0.1902 0.0105 0.7127
C19 C 0.3266(3) 0.09723(15) 0.7558(2)
H9 H 0.3790 0.0812 0.7085
C20 C 0.7275(2) 0.31185(14) 1.0254(2)
C21 C 0.8103(3) 0.35932(15) 0.9854(2)
H10 H 0.7721 0.4028 0.9392
C22 C 0.9500(3) 0.34332(18) 1.0129(3)
H11 H 1.0040 0.3753 0.9834
C23 C 1.0091(3) 0.28054(17) 1.0835(3)
H12 H 1.1032 0.2700 1.1039
C24 C 0.9258(3) 0.23407(15) 1.1230(2)
C25 C 0.7857(3) 0.24793(14) 1.0963(2)
H13 H 0.7320 0.2153 1.1252
loop_
_geom_bond_atom_site_label_1
_geom_bond_atom_site_label_2
_geom_bond_site_symmetry_1
_geom_bond_site_symmetry_2
O1 C4 1_555 1_555
O2 C5 1_555 1_555
O3 C6 1_555 1_555
O4 C7 1_555 1_555
O5 N1 1_555 1_555
O6 N1 1_555 1_555
N1 C24 1_555 1_555
C1 C2 1_555 1_555
C2 C3 1_555 1_555
C3 C1 1_555 1_555
H1 C3 1_555 1_555
C4 C1 1_555 1_555
C5 C1 1_555 1_555
C6 C2 1_555 1_555
C7 C2 1_555 1_555
C8 C4 1_555 1_555
C9 C5 1_555 1_555
C10 C9 1_555 1_555
H2 C10 1_555 1_555
C11 C10 1_555 1_555
H3 C11 1_555 1_555
C12 C11 1_555 1_555
H4 C12 1_555 1_555
C13 C8 1_555 1_555
H5 C13 1_555 1_555
C14 C6 1_555 1_555
C15 C7 1_555 1_555
C16 C15 1_555 1_555
H6 C16 1_555 1_555
C17 C16 1_555 1_555
H7 C17 1_555 1_555
C18 C17 1_555 1_555
H8 C18 1_555 1_555
C19 C14 1_555 1_555
H9 C19 1_555 1_555
C20 C3 1_555 1_555
C21 C20 1_555 1_555
H10 C21 1_555 1_555
C22 C21 1_555 1_555
H11 C22 1_555 1_555
C23 C22 1_555 1_555
H12 C23 1_555 1_555
C24 C23 1_555 1_555
C25 C20 1_555 1_555
H13 C25 1_555 1_555
C8 C9 1_555 1_555
C12 C13 1_555 1_555
C14 C15 1_555 1_555
C18 C19 1_555 1_555
C24 C25 1_555 1_555

#END
