
#######################################################################
#
#                 Cambridge Crystallographic Data Centre
#                                CCDC 
#
#######################################################################
#
# If this CIF has been generated from an entry in the Cambridge 
# Structural Database, then it will include bibliographic, chemical, 
# crystal, experimental, refinement or atomic coordinate data resulting 
# from the CCDC's data processing and validation procedures.
#
#######################################################################

data_BOWCOH
_chemical_formula_moiety         '2(C26 H22 N2 O2),C12 H4 N4,C7 H8'
_chemical_name_systematic        
"2,2'-Cyclohexa-2,5-diene-1,4-diylidenedimalononitrile bis(1-(5-(9-anthryl)-3-(4-methoxyphenyl)-4,5-dihydro-1H-pyrazol-1-yl)ethanone) toluene solvate"
_symmetry_cell_setting           triclinic
_symmetry_space_group_name_H-M   'P -1'
_symmetry_Int_Tables_number      2
_space_group_name_Hall           '-P 1'
loop_
_symmetry_equiv_pos_site_id
_symmetry_equiv_pos_as_xyz
1 x,y,z
2 -x,-y,-z
_cell_length_a                   9.853(2)
_cell_length_b                   17.314(4)
_cell_length_c                   18.193(4)
_cell_angle_alpha                111.45(3)
_cell_angle_beta                 96.50(3)
_cell_angle_gamma                91.75(3)
_cell_volume                     2861.4
_cell_formula_units_Z            2
loop_
_atom_site_label
_atom_site_type_symbol
_atom_site_fract_x
_atom_site_fract_y
_atom_site_fract_z
N1 N 0.8507(5) 1.0237(3) 0.2644(3)
N2 N 0.9673(4) 1.0132(3) 0.3122(3)
O1 O 1.3120(4) 0.8709(3) 0.5461(3)
O2 O 0.7331(4) 1.1107(2) 0.2263(2)
C1 C 0.6465(6) 0.9256(3) 0.1944(3)
C2 C 0.5002(5) 0.9339(3) 0.1835(3)
C3 C 0.4276(5) 0.9902(3) 0.2432(3)
H1 H 0.4750 1.0237 0.2924
C4 C 0.2913(6) 0.9943(4) 0.2279(4)
H2 H 0.2474 1.0323 0.2666
C5 C 0.2132(7) 0.9437(4) 0.1559(4)
H3 H 0.1190 0.9472 0.1478
C6 C 0.2773(6) 0.8889(4) 0.0975(4)
H4 H 0.2282 0.8571 0.0483
C7 C 0.4227(5) 0.8812(3) 0.1135(3)
C8 C 0.4822(6) 0.8243(3) 0.0491(3)
H5 H 0.4295 0.7954 0.0002
C9 C 0.6232(5) 0.8130(3) 0.0613(3)
C10 C 0.6763(6) 0.7519(3) -0.0026(3)
H6 H 0.6222 0.7216 -0.0506
C11 C 0.8179(6) 0.7400(3) 0.0115(3)
H7 H 0.8563 0.6979 -0.0268
C12 C 0.8999(6) 0.7901(3) 0.0813(3)
H8 H 0.9928 0.7821 0.0874
C13 C 0.8489(5) 0.8504(3) 0.1408(3)
H9 H 0.9066 0.8824 0.1868
C14 C 0.7049(5) 0.8653(3) 0.1332(3)
C15 C 0.7307(5) 0.9787(3) 0.2723(3)
H10 H 0.6722 1.0193 0.3039
C16 C 0.7888(4) 0.9303(3) 0.3214(3)
H11 H 0.7422 0.9409 0.3680
H12 H 0.7786 0.8711 0.2901
C17 C 0.9377(5) 0.9606(3) 0.3457(3)
C18 C 1.0341(5) 0.9357(3) 0.3958(3)
C19 C 1.1694(6) 0.9688(4) 0.4154(3)
H13 H 1.2006 1.0066 0.3944
C20 C 1.2539(6) 0.9454(3) 0.4649(4)
H14 H 1.3438 0.9687 0.4776
C21 C 1.2189(6) 0.8904(3) 0.4981(3)
C22 C 1.0838(7) 0.8576(3) 0.4804(3)
H15 H 1.0538 0.8196 0.5015
C23 C 0.9950(6) 0.8829(3) 0.4306(3)
H16 H 0.9035 0.8627 0.4205
C24 C 1.2806(8) 0.8000(4) 0.5657(5)
H17 H 1.3573 0.7922 0.5992
H18 H 1.2619 0.7514 0.5177
H19 H 1.2017 0.8089 0.5934
C25 C 0.8431(6) 1.0919(3) 0.2473(3)
C26 C 0.9776(6) 1.1387(4) 0.2523(4)
H20 H 0.9608 1.1861 0.2381
H21 H 1.0333 1.1028 0.2163
H22 H 1.0243 1.1571 0.3057
N3 N 0.3244(4) 0.4786(3) 0.3065(2)
N4 N 0.2685(4) 0.4872(2) 0.3751(2)
O3 O 0.2032(4) 0.6453(3) 0.7462(2)
O4 O 0.3498(4) 0.4016(2) 0.1793(2)
C27 C 0.4583(4) 0.5853(3) 0.2732(2)
C28 C 0.3528(5) 0.6379(3) 0.2693(3)
C29 C 0.2323(5) 0.6405(3) 0.3079(3)
H23 H 0.2218 0.6085 0.3385
C30 C 0.1333(6) 0.6915(3) 0.2984(3)
H24 H 0.0544 0.6909 0.3219
C31 C 0.1412(5) 0.7416(3) 0.2583(4)
H25 H 0.0696 0.7742 0.2542
C32 C 0.2556(6) 0.7447(3) 0.2229(3)
H26 H 0.2627 0.7798 0.1949
C33 C 0.3617(5) 0.6949(3) 0.2291(3)
C34 C 0.4839(5) 0.6972(3) 0.1941(3)
H27 H 0.4927 0.7334 0.1673
C35 C 0.5877(5) 0.6483(3) 0.1986(3)
C36 C 0.7077(6) 0.6540(4) 0.1647(3)
H28 H 0.7156 0.6911 0.1388
C37 C 0.8088(6) 0.6071(4) 0.1694(3)
H29 H 0.8889 0.6142 0.1492
C38 C 0.8000(6) 0.5476(4) 0.2031(3)
H30 H 0.8708 0.5130 0.2015
C39 C 0.6905(5) 0.5392(3) 0.2383(3)
H31 H 0.6886 0.5017 0.2640
C40 C 0.5765(5) 0.5886(3) 0.2360(3)
C41 C 0.4519(5) 0.5306(3) 0.3222(3)
H32 H 0.5267 0.4937 0.3108
C42 C 0.4674(5) 0.5782(3) 0.4121(3)
H33 H 0.5536 0.5688 0.4379
H34 H 0.4624 0.6374 0.4249
C43 C 0.3480(5) 0.5419(3) 0.4363(3)
C44 C 0.3102(5) 0.5673(3) 0.5163(3)
C45 C 0.3980(5) 0.6178(3) 0.5795(3)
H35 H 0.4820 0.6352 0.5696
C46 C 0.3718(6) 0.6457(3) 0.6581(3)
H36 H 0.4376 0.6784 0.6997
C47 C 0.2466(6) 0.6237(3) 0.6722(3)
C48 C 0.1527(6) 0.5696(4) 0.6103(3)
H37 H 0.0706 0.5501 0.6206
C49 C 0.1858(5) 0.5442(3) 0.5294(3)
H38 H 0.1215 0.5121 0.4868
C50 C 0.2947(7) 0.6985(4) 0.8116(3)
H39 H 0.2546 0.7092 0.8597
H40 H 0.3135 0.7500 0.8047
H41 H 0.3786 0.6724 0.8149
C51 C 0.2814(6) 0.4161(3) 0.2369(3)
C52 C 0.1427(6) 0.3705(4) 0.2278(4)
H42 H 0.1236 0.3283 0.1753
H43 H 0.0731 0.4093 0.2356
H44 H 0.1437 0.3452 0.2668
N5 N -0.0542(10) -0.0914(5) -0.0313(5)
N6 N -0.3710(6) -0.2074(4) -0.2243(4)
C53 C -0.4570(9) 0.0579(4) 0.0757(4)
H45 H -0.4322 0.0969 0.1270
C54 C -0.3616(9) 0.0140(5) 0.0382(5)
H46 H -0.2708 0.0227 0.0618
C55 C -0.4020(10) -0.0478(5) -0.0405(5)
C56 C -0.3074(11) -0.0987(5) -0.0834(5)
C57 C -0.3356(7) -0.1598(5) -0.1599(6)
C58 C -0.1620(11) -0.0932(5) -0.0568(5)
N5A N -0.9458(10) 0.0914(5) 0.0313(5)
N6A N -0.6290(6) 0.2074(4) 0.2243(4)
C53A C -0.5430(9) -0.0579(4) -0.0757(4)
H45A H -0.5678 -0.0969 -0.1270
C54A C -0.6384(9) -0.0140(5) -0.0382(5)
H46A H -0.7292 -0.0227 -0.0618
C55A C -0.5980(10) 0.0478(5) 0.0405(5)
C56A C -0.6926(11) 0.0987(5) 0.0834(5)
C57A C -0.6644(7) 0.1598(5) 0.1599(6)
C58A C -0.8380(11) 0.0932(5) 0.0568(5)
N7 N 0.0871(5) 0.5017(3) 0.1049(3)
N8 N 0.1589(5) 0.6743(3) -0.0150(3)
C59 C 0.4218(5) 0.4695(3) 0.0435(3)
H47 H 0.3687 0.4492 0.0726
C60 C 0.3731(5) 0.5313(3) 0.0167(3)
C61 C 0.4580(5) 0.5605(3) -0.0282(3)
H48 H 0.4283 0.6013 -0.0468
C62 C 0.2464(5) 0.5619(3) 0.0297(3)
C63 C 0.1597(6) 0.5290(4) 0.0737(4)
C64 C 0.1985(6) 0.6241(4) 0.0031(3)
N7A N 0.9129(5) 0.4983(3) -0.1049(3)
N8A N 0.8411(5) 0.3257(3) 0.0150(3)
C59A C 0.5782(5) 0.5305(3) -0.0435(3)
H47A H 0.6313 0.5508 -0.0726
C60A C 0.6269(5) 0.4687(3) -0.0167(3)
C61A C 0.5420(5) 0.4395(3) 0.0282(3)
H48A H 0.5717 0.3987 0.0468
C62A C 0.7536(5) 0.4381(3) -0.0297(3)
C63A C 0.8403(6) 0.4710(4) -0.0737(4)
C64A C 0.8015(6) 0.3759(4) -0.0031(3)
C65 C -0.1583(12) 0.6903(10) 0.5496(12)
H49 H -0.1001 0.6668 0.5781
C66 C -0.2525(13) 0.7426(8) 0.5762(8)
H50 H -0.2660 0.7474 0.6274
C67 C -0.3368(12) 0.7921(7) 0.5497(6)
H51 H -0.3907 0.8313 0.5803
C68 C -0.3267(9) 0.7721(6) 0.4641(6)
C69 C -0.2307(11) 0.7159(6) 0.4253(6)
H52 H -0.2146 0.7062 0.3734
C70 C -0.1658(18) 0.6785(9) 0.4705(8)
H53 H -0.1154 0.6356 0.4422
C71 C -0.4125(10) 0.8124(5) 0.4236(6)
H54 H -0.3960 0.7944 0.3690
H55 H -0.3927 0.8716 0.4487
H56 H -0.5066 0.7984 0.4256
loop_
_geom_bond_atom_site_label_1
_geom_bond_atom_site_label_2
_geom_bond_site_symmetry_1
_geom_bond_site_symmetry_2
N1 N2 1_555 1_555
N2 C17 1_555 1_555
O1 C21 1_555 1_555
O2 C25 1_555 1_555
C1 C2 1_555 1_555
C2 C3 1_555 1_555
C3 H1 1_555 1_555
C4 C3 1_555 1_555
H2 C4 1_555 1_555
C5 C4 1_555 1_555
H3 C5 1_555 1_555
C6 C5 1_555 1_555
H4 C6 1_555 1_555
C7 C2 1_555 1_555
C8 C7 1_555 1_555
H5 C8 1_555 1_555
C9 C8 1_555 1_555
C10 C9 1_555 1_555
H6 C10 1_555 1_555
C11 C10 1_555 1_555
H7 C11 1_555 1_555
C12 C11 1_555 1_555
H8 C12 1_555 1_555
C13 C12 1_555 1_555
H9 C13 1_555 1_555
C14 C1 1_555 1_555
C15 N1 1_555 1_555
H10 C15 1_555 1_555
C16 C15 1_555 1_555
H11 C16 1_555 1_555
H12 C16 1_555 1_555
C17 C16 1_555 1_555
C18 C17 1_555 1_555
C19 C18 1_555 1_555
H13 C19 1_555 1_555
C20 C19 1_555 1_555
H14 C20 1_555 1_555
C21 C20 1_555 1_555
C22 C21 1_555 1_555
H15 C22 1_555 1_555
C23 C18 1_555 1_555
H16 C23 1_555 1_555
C24 O1 1_555 1_555
H17 C24 1_555 1_555
H18 C24 1_555 1_555
H19 C24 1_555 1_555
C25 N1 1_555 1_555
C26 C25 1_555 1_555
H20 C26 1_555 1_555
H21 C26 1_555 1_555
H22 C26 1_555 1_555
N3 N4 1_555 1_555
N4 C43 1_555 1_555
O3 C47 1_555 1_555
O4 C51 1_555 1_555
C27 C28 1_555 1_555
C28 C29 1_555 1_555
C29 H23 1_555 1_555
C30 C29 1_555 1_555
H24 C30 1_555 1_555
C31 C30 1_555 1_555
H25 C31 1_555 1_555
C32 C31 1_555 1_555
H26 C32 1_555 1_555
C33 C28 1_555 1_555
C34 C33 1_555 1_555
H27 C34 1_555 1_555
C35 C34 1_555 1_555
C36 C35 1_555 1_555
H28 C36 1_555 1_555
C37 C36 1_555 1_555
H29 C37 1_555 1_555
C38 C37 1_555 1_555
H30 C38 1_555 1_555
C39 C38 1_555 1_555
H31 C39 1_555 1_555
C40 C27 1_555 1_555
C41 N3 1_555 1_555
H32 C41 1_555 1_555
C42 C41 1_555 1_555
H33 C42 1_555 1_555
H34 C42 1_555 1_555
C43 C42 1_555 1_555
C44 C43 1_555 1_555
C45 C44 1_555 1_555
H35 C45 1_555 1_555
C46 C45 1_555 1_555
H36 C46 1_555 1_555
C47 C46 1_555 1_555
C48 C47 1_555 1_555
H37 C48 1_555 1_555
C49 C44 1_555 1_555
H38 C49 1_555 1_555
C50 O3 1_555 1_555
H39 C50 1_555 1_555
H40 C50 1_555 1_555
H41 C50 1_555 1_555
C51 N3 1_555 1_555
C52 C51 1_555 1_555
H42 C52 1_555 1_555
H43 C52 1_555 1_555
H44 C52 1_555 1_555
N5 C58 1_555 1_555
N6 C57 1_555 1_555
C53 H45 1_555 1_555
C54 C53 1_555 1_555
H46 C54 1_555 1_555
C55 C54 1_555 1_555
C56 C55 1_555 1_555
C57 C56 1_555 1_555
C58 C56 1_555 1_555
N7 C63 1_555 1_555
N8 C64 1_555 1_555
C59 H47 1_555 1_555
C60 C59 1_555 1_555
C61 C60 1_555 1_555
H48 C61 1_555 1_555
C62 C60 1_555 1_555
C63 C62 1_555 1_555
C64 C62 1_555 1_555
C65 H49 1_555 1_555
C66 C65 1_555 1_555
H50 C66 1_555 1_555
C67 C66 1_555 1_555
H51 C67 1_555 1_555
C68 C67 1_555 1_555
C69 C68 1_555 1_555
H52 C69 1_555 1_555
C70 C65 1_555 1_555
H53 C70 1_555 1_555
C71 C68 1_555 1_555
H54 C71 1_555 1_555
H55 C71 1_555 1_555
H56 C71 1_555 1_555
N5A C58A 1_555 1_555
N6A C57A 1_555 1_555
C53A C55 1_555 1_555
H45A C53A 1_555 1_555
C54A C53A 1_555 1_555
H46A C54A 1_555 1_555
C55A C53 1_555 1_555
C56A C55A 1_555 1_555
C57A C56A 1_555 1_555
C58A C56A 1_555 1_555
N7A C63A 1_555 1_555
N8A C64A 1_555 1_555
C59A C61 1_555 1_555
H47A C59A 1_555 1_555
C60A C59A 1_555 1_555
C61A C59 1_555 1_555
H48A C61A 1_555 1_555
C62A C60A 1_555 1_555
C63A C62A 1_555 1_555
C64A C62A 1_555 1_555
C1 C15 1_555 1_555
C6 C7 1_555 1_555
C9 C14 1_555 1_555
C13 C14 1_555 1_555
C22 C23 1_555 1_555
C27 C41 1_555 1_555
C32 C33 1_555 1_555
C35 C40 1_555 1_555
C39 C40 1_555 1_555
C48 C49 1_555 1_555
C69 C70 1_555 1_555
C54A C55A 1_555 1_555
C60A C61A 1_555 1_555

#END
