
#######################################################################
#
#                 Cambridge Crystallographic Data Centre
#                                CCDC 
#
#######################################################################
#
# If this CIF has been generated from an entry in the Cambridge 
# Structural Database, then it will include bibliographic, chemical, 
# crystal, experimental, refinement or atomic coordinate data resulting 
# from the CCDC's data processing and validation procedures.
#
#######################################################################

data_BOWLOP
_chemical_formula_moiety         'C30 H40 Se2'
_chemical_name_systematic        
2,7-Dioctyl[1]benzoselenopheno[3,2-b][1]benzoselenophene
_symmetry_cell_setting           monoclinic
_symmetry_space_group_name_H-M   'C 2/c'
_symmetry_Int_Tables_number      15
_space_group_name_Hall           '-C 2yn'
loop_
_symmetry_equiv_pos_site_id
_symmetry_equiv_pos_as_xyz
1 x,y,z
2 -x,y,1/2-z
3 1/2+x,1/2+y,z
4 1/2-x,1/2+y,1/2-z
5 -x,-y,-z
6 x,-y,1/2+z
7 1/2-x,1/2-y,-z
8 1/2+x,1/2-y,1/2+z
_cell_length_a                   56.717(6)
_cell_length_b                   4.1874(5)
_cell_length_c                   11.1892(11)
_cell_angle_alpha                90
_cell_angle_beta                 94.912(3)
_cell_angle_gamma                90
_cell_volume                     2647.64
_exptl_crystal_colour            colorless
_exptl_crystal_description       block
_cell_formula_units_Z            4
_exptl_crystal_recrystallization_method hexane
loop_
_atom_site_label
_atom_site_type_symbol
_atom_site_fract_x
_atom_site_fract_y
_atom_site_fract_z
Se1 Se 0.234094(14) 0.47558(12) 0.84230(4)
C1 C 0.25563(14) 0.6745(12) 0.9568(4)
C2 C 0.21001(15) 0.6324(13) 0.9322(5)
C3 C 0.18586(15) 0.5870(14) 0.9060(6)
C4 C 0.16998(15) 0.7152(14) 0.9805(6)
C5 C 0.17896(17) 0.8932(15) 1.0819(6)
C6 C 0.20294(15) 0.9413(14) 1.1086(5)
C7 C 0.21890(13) 0.8113(12) 1.0348(4)
C8 C 0.14360(17) 0.6604(17) 0.9551(8)
C9 C 0.13352(15) 0.7522(17) 0.8279(8)
C10 C 0.10717(16) 0.6972(18) 0.8071(10)
C11 C 0.09677(14) 0.7749(18) 0.6798(10)
C12 C 0.07042(15) 0.7136(19) 0.6599(12)
C13 C 0.06011(13) 0.7832(18) 0.5325(12)
C14 C 0.03355(14) 0.707(2) 0.5090(14)
C15 C 0.02343(16) 0.780(3) 0.3831(16)
H1 H 0.1803 0.4689 0.8363
H2 H 0.1681 0.9820 1.1332
H3 H 0.2084 1.0638 1.1771
H4 H 0.1401 0.4419 0.9667
H5 H 0.1354 0.7868 1.0095
H6 H 0.1416 0.6252 0.7723
H7 H 0.1373 0.9714 0.8147
H8 H 0.1037 0.4816 0.8245
H9 H 0.0994 0.8325 0.8613
H10 H 0.1047 0.6420 0.6255
H11 H 0.1001 0.9919 0.6628
H12 H 0.0673 0.4993 0.6789
H13 H 0.0627 0.8514 0.7132
H14 H 0.0686 0.6560 0.4794
H15 H 0.0627 1.0029 0.5154
H16 H 0.0310 0.4882 0.5271
H17 H 0.0251 0.8342 0.5642
H18 H 0.0318 0.6528 0.3290
H19 H 0.0073 0.7307 0.3737
H20 H 0.0260 0.9990 0.3661
Se1F Se 0.265906(14) 1.02442(12) 1.15770(4)
C1F C 0.24437(14) 0.8255(12) 1.0432(4)
C2F C 0.28999(15) 0.8676(13) 1.0678(5)
C3F C 0.31414(15) 0.9130(14) 1.0940(6)
C4F C 0.33002(15) 0.7848(14) 1.0195(6)
C5F C 0.32104(17) 0.6068(15) 0.9181(6)
C6F C 0.29706(15) 0.5587(14) 0.8914(5)
C7F C 0.28110(13) 0.6887(12) 0.9652(4)
C8F C 0.35640(17) 0.8396(17) 1.0449(8)
C9F C 0.36648(15) 0.7478(17) 1.1721(8)
C10F C 0.39283(16) 0.8028(18) 1.1929(10)
C11F C 0.40323(14) 0.7251(18) 1.3202(10)
C12F C 0.42958(15) 0.7864(19) 1.3401(12)
C13F C 0.43989(13) 0.7168(18) 1.4675(12)
C14F C 0.46645(14) 0.793(2) 1.4910(14)
C15F C 0.47657(16) 0.720(3) 1.6169(16)
H1F H 0.3197 1.0311 1.1637
H2F H 0.3319 0.5180 0.8668
H3F H 0.2916 0.4362 0.8229
H4F H 0.3599 1.0581 1.0333
H5F H 0.3646 0.7132 0.9905
H6F H 0.3584 0.8748 1.2277
H7F H 0.3627 0.5286 1.1853
H8F H 0.3963 1.0184 1.1755
H9F H 0.4006 0.6675 1.1387
H10F H 0.3953 0.8580 1.3745
H11F H 0.3999 0.5081 1.3372
H12F H 0.4327 1.0007 1.3211
H13F H 0.4373 0.6486 1.2868
H14F H 0.4314 0.8440 1.5206
H15F H 0.4373 0.4971 1.4846
H16F H 0.4690 1.0118 1.4729
H17F H 0.4749 0.6658 1.4358
H18F H 0.4682 0.8472 1.6710
H19F H 0.4927 0.7693 1.6263
H20F H 0.4740 0.5010 1.6339
loop_
_geom_bond_atom_site_label_1
_geom_bond_atom_site_label_2
_geom_bond_site_symmetry_1
_geom_bond_site_symmetry_2
Se1 C1 1_555 1_555
C1 C1F 1_555 1_555
C2 Se1 1_555 1_555
C3 C2 1_555 1_555
C4 C3 1_555 1_555
C5 C4 1_555 1_555
C6 C5 1_555 1_555
C7 C2 1_555 1_555
C8 C4 1_555 1_555
C9 C8 1_555 1_555
C10 C9 1_555 1_555
C11 C10 1_555 1_555
C12 C11 1_555 1_555
C13 C12 1_555 1_555
C14 C13 1_555 1_555
C15 C14 1_555 1_555
H1 C3 1_555 1_555
H2 C5 1_555 1_555
H3 C6 1_555 1_555
H4 C8 1_555 1_555
H5 C8 1_555 1_555
H6 C9 1_555 1_555
H7 C9 1_555 1_555
H8 C10 1_555 1_555
H9 C10 1_555 1_555
H10 C11 1_555 1_555
H11 C11 1_555 1_555
H12 C12 1_555 1_555
H13 C12 1_555 1_555
H14 C13 1_555 1_555
H15 C13 1_555 1_555
H16 C14 1_555 1_555
H17 C14 1_555 1_555
H18 C15 1_555 1_555
H19 C15 1_555 1_555
H20 C15 1_555 1_555
Se1F C1F 1_555 1_555
C1F C7 1_555 1_555
C2F Se1F 1_555 1_555
C3F C2F 1_555 1_555
C4F C3F 1_555 1_555
C5F C4F 1_555 1_555
C6F C5F 1_555 1_555
C7F C1 1_555 1_555
C8F C4F 1_555 1_555
C9F C8F 1_555 1_555
C10F C9F 1_555 1_555
C11F C10F 1_555 1_555
C12F C11F 1_555 1_555
C13F C12F 1_555 1_555
C14F C13F 1_555 1_555
C15F C14F 1_555 1_555
H1F C3F 1_555 1_555
H2F C5F 1_555 1_555
H3F C6F 1_555 1_555
H4F C8F 1_555 1_555
H5F C8F 1_555 1_555
H6F C9F 1_555 1_555
H7F C9F 1_555 1_555
H8F C10F 1_555 1_555
H9F C10F 1_555 1_555
H10F C11F 1_555 1_555
H11F C11F 1_555 1_555
H12F C12F 1_555 1_555
H13F C12F 1_555 1_555
H14F C13F 1_555 1_555
H15F C13F 1_555 1_555
H16F C14F 1_555 1_555
H17F C14F 1_555 1_555
H18F C15F 1_555 1_555
H19F C15F 1_555 1_555
H20F C15F 1_555 1_555
C6 C7 1_555 1_555
C2F C7F 1_555 1_555
C6F C7F 1_555 1_555

#END
