
#######################################################################
#
#                 Cambridge Crystallographic Data Centre
#                                CCDC 
#
#######################################################################
#
# If this CIF has been generated from an entry in the Cambridge 
# Structural Database, then it will include bibliographic, chemical, 
# crystal, experimental, refinement or atomic coordinate data resulting 
# from the CCDC's data processing and validation procedures.
#
#######################################################################

data_BOWVEP
_chemical_formula_moiety         'C22 H24 F3 N1 O4'
_chemical_name_systematic        
'Ethyl 2-hydroxy-6-((3-methylphenyl)amino)-4-phenyl-2-(trifluoromethyl)tetrahydro-2H-pyran-3-carboxylate'
_symmetry_cell_setting           monoclinic
_symmetry_space_group_name_H-M   'C 2/c'
_symmetry_Int_Tables_number      15
_space_group_name_Hall           '-C 2yn'
loop_
_symmetry_equiv_pos_site_id
_symmetry_equiv_pos_as_xyz
1 x,y,z
2 -x,y,1/2-z
3 1/2+x,1/2+y,z
4 1/2-x,1/2+y,1/2-z
5 -x,-y,-z
6 x,-y,1/2+z
7 1/2-x,1/2-y,-z
8 1/2+x,1/2-y,1/2+z
_cell_length_a                   28.602(3)
_cell_length_b                   8.9493(10)
_cell_length_c                   20.251(2)
_cell_angle_alpha                90
_cell_angle_beta                 124.518(1)
_cell_angle_gamma                90
_cell_volume                     4271.02
_exptl_crystal_colour            white
_chemical_melting_point          117-119deg.C
_cell_formula_units_Z            8
loop_
_atom_site_label
_atom_site_type_symbol
_atom_site_fract_x
_atom_site_fract_y
_atom_site_fract_z
C1 C 0.0930(2) -0.0046(5) 0.4304(2)
H1 H 0.0923 -0.0446 0.4723
C2 C 0.0732(2) -0.0858(4) 0.3628(2)
H2 H 0.0590 -0.1815 0.3584
C3 C 0.0740(1) -0.0261(3) 0.3000(2)
H3 H 0.0600 -0.0822 0.2538
C4 C 0.0952(1) 0.1145(3) 0.3052(2)
C5 C 0.1146(1) 0.1947(4) 0.3744(2)
H4 H 0.1286 0.2908 0.3794
C6 C 0.1135(2) 0.1346(5) 0.4367(2)
H5 H 0.1270 0.1902 0.4830
C7 C 0.0994(1) 0.1760(3) 0.2393(2)
H6 H 0.1076 0.2831 0.2494
C8 C 0.0454(1) 0.1588(3) 0.1560(2)
H7 H 0.0356 0.0538 0.1448
H8 H 0.0145 0.2100 0.1534
C9 C 0.0533(1) 0.2231(3) 0.0939(2)
H9 H 0.0624 0.3297 0.1047
C10 C 0.1526(1) 0.1615(3) 0.1735(2)
C11 C 0.1495(1) 0.1021(3) 0.2420(2)
H10 H 0.1429 -0.0060 0.2352
C12 C 0.2034(1) 0.1307(4) 0.3230(2)
C13 C 0.2752(3) 0.0280(8) 0.4480(3)
H11 H 0.2804 0.1322 0.4641
H12 H 0.3082 -0.0054 0.4501
C14 C 0.2663(5) -0.0683(14) 0.5030(5)
H13 H 0.2362 -0.0267 0.5050
H14 H 0.3006 -0.0700 0.5560
H15 H 0.2565 -0.1683 0.4823
C15 C 0.1937(2) 0.0649(4) 0.1645(2)
C16 C -0.0059(1) 0.2890(3) -0.0496(2)
C17 C -0.0598(1) 0.2844(3) -0.1212(2)
H16 H -0.0879 0.2266 -0.1238
C18 C -0.0728(2) 0.3633(3) -0.1884(2)
C19 C -0.0307(2) 0.4491(4) -0.1830(2)
H17 H -0.0380 0.5014 -0.2276
C20 C 0.0216(2) 0.4576(3) -0.1126(2)
H18 H 0.0491 0.5183 -0.1097
C21 C 0.0350(1) 0.3788(3) -0.0455(2)
H19 H 0.0710 0.3858 0.0018
C22 C -0.1319(2) 0.3575(4) -0.2644(2)
H20 H -0.1483 0.4558 -0.2769
H21 H -0.1550 0.2911 -0.2571
H22 H -0.1301 0.3220 -0.3076
F1 F 0.1782(1) -0.0761(3) 0.1494(1)
F2 F 0.2456(1) 0.0699(3) 0.2319(1)
F3 F 0.1978(1) 0.1155(3) 0.1063(1)
N1 N 0.0047(1) 0.2045(3) 0.0148(1)
H23 H -0.0196 0.1370 0.0063
O1 O 0.1005(1) 0.1442(2) 0.0996(1)
O2 O 0.1692(1) 0.3109(2) 0.1827(1)
H24 H 0.1890 0.3320 0.2305
O3 O 0.2245(1) 0.2525(3) 0.3455(1)
O4 O 0.2236(1) 0.0087(3) 0.3673(1)
loop_
_geom_bond_atom_site_label_1
_geom_bond_atom_site_label_2
_geom_bond_site_symmetry_1
_geom_bond_site_symmetry_2
C1 H1 1_555 1_555
C2 C1 1_555 1_555
H2 C2 1_555 1_555
C3 C2 1_555 1_555
H3 C3 1_555 1_555
C4 C3 1_555 1_555
C5 C4 1_555 1_555
H4 C5 1_555 1_555
C6 C1 1_555 1_555
H5 C6 1_555 1_555
C7 C4 1_555 1_555
H6 C7 1_555 1_555
C8 C7 1_555 1_555
H7 C8 1_555 1_555
H8 C8 1_555 1_555
C9 C8 1_555 1_555
H9 C9 1_555 1_555
C10 C11 1_555 1_555
C11 C7 1_555 1_555
H10 C11 1_555 1_555
C12 C11 1_555 1_555
C13 H11 1_555 1_555
H12 C13 1_555 1_555
C14 C13 1_555 1_555
H13 C14 1_555 1_555
H14 C14 1_555 1_555
H15 C14 1_555 1_555
C15 C10 1_555 1_555
C16 C17 1_555 1_555
C17 H16 1_555 1_555
C18 C17 1_555 1_555
C19 C18 1_555 1_555
H17 C19 1_555 1_555
C20 C19 1_555 1_555
H18 C20 1_555 1_555
C21 C16 1_555 1_555
H19 C21 1_555 1_555
C22 C18 1_555 1_555
H20 C22 1_555 1_555
H21 C22 1_555 1_555
H22 C22 1_555 1_555
F1 C15 1_555 1_555
F2 C15 1_555 1_555
F3 C15 1_555 1_555
N1 C9 1_555 1_555
H23 N1 1_555 1_555
O1 C9 1_555 1_555
O2 C10 1_555 1_555
H24 O2 1_555 1_555
O3 C12 1_555 1_555
O4 C12 1_555 1_555
C5 C6 1_555 1_555
C10 O1 1_555 1_555
C13 O4 1_555 1_555
C16 N1 1_555 1_555
C20 C21 1_555 1_555

#END
