
#######################################################################
#
#                 Cambridge Crystallographic Data Centre
#                                CCDC 
#
#######################################################################
#
# If this CIF has been generated from an entry in the Cambridge 
# Structural Database, then it will include bibliographic, chemical, 
# crystal, experimental, refinement or atomic coordinate data resulting 
# from the CCDC's data processing and validation procedures.
#
#######################################################################

data_BOWXAN
_chemical_formula_moiety         'C40 H40 O6'
_chemical_name_systematic        
trans-anti-3,3'-bis(4-(Pentyloxy)phenyl)-3,3'-dihydroxy-2,2'-biindenylidene-1,1'-dione
_symmetry_cell_setting           orthorhombic
_symmetry_space_group_name_H-M   'P b c a'
_symmetry_Int_Tables_number      61
_space_group_name_Hall           '-P 2ac 2ab'
loop_
_symmetry_equiv_pos_site_id
_symmetry_equiv_pos_as_xyz
1 x,y,z
2 1/2-x,-y,1/2+z
3 1/2+x,1/2-y,-z
4 -x,1/2+y,1/2-z
5 -x,-y,-z
6 1/2+x,y,1/2-z
7 1/2-x,1/2+y,z
8 x,1/2-y,1/2+z
_cell_length_a                   15.323(4)
_cell_length_b                   12.020(3)
_cell_length_c                   18.457(5)
_cell_angle_alpha                90
_cell_angle_beta                 90
_cell_angle_gamma                90
_cell_volume                     3399.46
_exptl_crystal_colour            colorless
_exptl_crystal_description       block
_chemical_melting_point          '210-211 deg.C'
_cell_formula_units_Z            4
_chemical_properties_physical    light-sensitive
_exptl_crystal_recrystallization_method dichloromethane/acetone
_exptl_crystal_preparation       photochromic
loop_
_atom_site_label
_atom_site_type_symbol
_atom_site_fract_x
_atom_site_fract_y
_atom_site_fract_z
O1 O 1.12429(10) 0.16216(13) 0.49878(8)
H1 H 1.1276 0.1401 0.4568
O2 O 0.92995(12) -0.06323(13) 0.62549(9)
O3 O 0.82858(11) 0.46325(14) 0.36081(10)
C1 C 0.99991(14) 0.03815(17) 0.52669(11)
C2 C 1.03584(14) 0.15800(17) 0.52216(11)
C3 C 1.03561(14) 0.19328(17) 0.60119(12)
C4 C 0.99363(15) 0.11641(17) 0.64524(12)
C5 C 0.96854(15) 0.01901(18) 0.60262(12)
C6 C 0.98303(19) 0.1353(2) 0.71937(13)
H2 H 0.9542 0.0841 0.7486
C7 C 1.0167(2) 0.2324(2) 0.74785(14)
H3 H 1.0096 0.2478 0.7969
C8 C 1.06109(18) 0.3075(2) 0.70397(14)
H4 H 1.0848 0.3713 0.7246
C9 C 1.07078(16) 0.28944(18) 0.63040(13)
H5 H 1.1001 0.3405 0.6014
C10 C 0.97773(14) 0.23611(17) 0.47808(11)
C11 C 1.01243(15) 0.33252(18) 0.44870(13)
H6 H 1.0716 0.3474 0.4545
C12 C 0.96113(16) 0.40663(19) 0.41111(13)
H7 H 0.9860 0.4706 0.3918
C13 C 0.87306(15) 0.38692(17) 0.40185(12)
C14 C 0.83636(16) 0.2929(2) 0.43260(15)
H8 H 0.7768 0.2795 0.4282
C15 C 0.88904(16) 0.21927(19) 0.46991(14)
H9 H 0.8639 0.1561 0.4902
C16 C 0.73604(18) 0.4529(3) 0.35486(19)
H10 H 0.7091 0.4643 0.4018
H11 H 0.7209 0.3790 0.3379
C17 C 0.7037(2) 0.5393(3) 0.3019(2)
H12 H 0.6411 0.5476 0.3074
H13 H 0.7306 0.6103 0.3130
C18 C 0.7239(3) 0.5087(4) 0.2248(2)
H14 H 0.7061 0.4330 0.2172
H15 H 0.7859 0.5124 0.2178
C19 C 0.6825(13) 0.5770(9) 0.1665(5)
H16 H 0.6201 0.5815 0.1751
H17 H 0.6915 0.5411 0.1200
C20 C 0.7218(7) 0.6969(7) 0.1644(7)
H18 H 0.6919 0.7401 0.1284
H19 H 0.7827 0.6928 0.1524
H20 H 0.7150 0.7313 0.2110
O1D O 0.87571(10) -0.16216(13) 0.50122(8)
H1D H 0.8724 -0.1401 0.5432
O2D O 1.07005(12) 0.06323(13) 0.37451(9)
O3D O 1.17142(11) -0.46325(14) 0.63919(10)
C1D C 1.00009(14) -0.03815(17) 0.47331(11)
C2D C 0.96416(14) -0.15800(17) 0.47784(11)
C3D C 0.96439(14) -0.19328(17) 0.39881(12)
C4D C 1.00637(15) -0.11641(17) 0.35476(12)
C5D C 1.03146(15) -0.01901(18) 0.39738(12)
C6D C 1.01697(19) -0.1353(2) 0.28063(13)
H2D H 1.0458 -0.0841 0.2514
C7D C 0.9833(2) -0.2324(2) 0.25215(14)
H3D H 0.9904 -0.2478 0.2031
C8D C 0.93891(18) -0.3075(2) 0.29603(14)
H4D H 0.9152 -0.3713 0.2754
C9D C 0.92922(16) -0.28944(18) 0.36960(13)
H5D H 0.8999 -0.3405 0.3986
C10D C 1.02227(14) -0.23611(17) 0.52192(11)
C11D C 0.98757(15) -0.33252(18) 0.55130(13)
H6D H 0.9284 -0.3474 0.5455
C12D C 1.03887(16) -0.40663(19) 0.58889(13)
H7D H 1.0140 -0.4706 0.6082
C13D C 1.12694(15) -0.38692(17) 0.59815(12)
C14D C 1.16364(16) -0.2929(2) 0.56740(15)
H8D H 1.2232 -0.2795 0.5718
C15D C 1.11096(16) -0.21927(19) 0.53009(14)
H9D H 1.1361 -0.1561 0.5098
C16D C 1.26396(18) -0.4529(3) 0.64514(19)
H10D H 1.2909 -0.4643 0.5982
H11D H 1.2791 -0.3790 0.6621
C17D C 1.2963(2) -0.5393(3) 0.6981(2)
H12D H 1.3589 -0.5476 0.6926
H13D H 1.2694 -0.6103 0.6870
C18D C 1.2761(3) -0.5087(4) 0.7752(2)
H14D H 1.2939 -0.4330 0.7828
H15D H 1.2141 -0.5124 0.7822
C19D C 1.3175(13) -0.5770(9) 0.8335(5)
H16D H 1.3799 -0.5815 0.8249
H17D H 1.3085 -0.5411 0.8800
C20D C 1.2782(7) -0.6969(7) 0.8356(7)
H18D H 1.3081 -0.7401 0.8716
H19D H 1.2173 -0.6928 0.8476
H20D H 1.2850 -0.7313 0.7890
C21? C 0.6942(18) 0.5970(12) 0.1712(5)
C22? C 0.6992(8) 0.5478(12) 0.0952(4)
H21? H 0.6954 0.4398 0.2134
H22? H 0.7857 0.4979 0.2197
H23? H 0.7315 0.6620 0.1747
H24? H 0.6348 0.6194 0.1819
H25? H 0.6805 0.6024 0.0605
H26? H 0.6620 0.4837 0.0922
H27? H 0.7583 0.5264 0.0849
loop_
_geom_bond_atom_site_label_1
_geom_bond_atom_site_label_2
_geom_bond_site_symmetry_1
_geom_bond_site_symmetry_2
O1 H1 1_555 1_555
O2 C5 1_555 1_555
O3 C13 1_555 1_555
C1 C2 1_555 1_555
C2 O1 1_555 1_555
C3 C2 1_555 1_555
C4 C3 1_555 1_555
C5 C1 1_555 1_555
C6 C4 1_555 1_555
H2 C6 1_555 1_555
C7 C6 1_555 1_555
H3 C7 1_555 1_555
C8 C7 1_555 1_555
H4 C8 1_555 1_555
C9 C3 1_555 1_555
H5 C9 1_555 1_555
C10 C2 1_555 1_555
C11 C10 1_555 1_555
H6 C11 1_555 1_555
C12 C11 1_555 1_555
H7 C12 1_555 1_555
C13 C12 1_555 1_555
C14 C13 1_555 1_555
H8 C14 1_555 1_555
C15 C10 1_555 1_555
H9 C15 1_555 1_555
C16 O3 1_555 1_555
H10 C16 1_555 1_555
H11 C16 1_555 1_555
C17 C16 1_555 1_555
H12 C17 1_555 1_555
H13 C17 1_555 1_555
C18 C17 1_555 1_555
H14 C18 1_555 1_555
H15 C18 1_555 1_555
C19 C18 1_555 1_555
H16 C19 1_555 1_555
H17 C19 1_555 1_555
C20 C19 1_555 1_555
H18 C20 1_555 1_555
H19 C20 1_555 1_555
H20 C20 1_555 1_555
O1D H1D 1_555 1_555
O2D C5D 1_555 1_555
O3D C13D 1_555 1_555
C1D C1 1_555 1_555
C2D O1D 1_555 1_555
C3D C2D 1_555 1_555
C4D C3D 1_555 1_555
C5D C1D 1_555 1_555
C6D C4D 1_555 1_555
H2D C6D 1_555 1_555
C7D C6D 1_555 1_555
H3D C7D 1_555 1_555
C8D C7D 1_555 1_555
H4D C8D 1_555 1_555
C9D C3D 1_555 1_555
H5D C9D 1_555 1_555
C10D C2D 1_555 1_555
C11D C10D 1_555 1_555
H6D C11D 1_555 1_555
C12D C11D 1_555 1_555
H7D C12D 1_555 1_555
C13D C12D 1_555 1_555
C14D C13D 1_555 1_555
H8D C14D 1_555 1_555
C15D C10D 1_555 1_555
H9D C15D 1_555 1_555
C16D O3D 1_555 1_555
H10D C16D 1_555 1_555
H11D C16D 1_555 1_555
C17D C16D 1_555 1_555
H12D C17D 1_555 1_555
H13D C17D 1_555 1_555
C18D C17D 1_555 1_555
H14D C18D 1_555 1_555
H15D C18D 1_555 1_555
C19D C18D 1_555 1_555
H16D C19D 1_555 1_555
H17D C19D 1_555 1_555
C20D C19D 1_555 1_555
H18D C20D 1_555 1_555
H19D C20D 1_555 1_555
H20D C20D 1_555 1_555
C4 C5 1_555 1_555
C8 C9 1_555 1_555
C14 C15 1_555 1_555
C1D C2D 1_555 1_555
C4D C5D 1_555 1_555
C8D C9D 1_555 1_555
C14D C15D 1_555 1_555

#END
