
#######################################################################
#
#                 Cambridge Crystallographic Data Centre
#                                CCDC 
#
#######################################################################
#
# If this CIF has been generated from an entry in the Cambridge 
# Structural Database, then it will include bibliographic, chemical, 
# crystal, experimental, refinement or atomic coordinate data resulting 
# from the CCDC's data processing and validation procedures.
#
#######################################################################

data_BOWXER
_chemical_formula_moiety         'C34 H28 O6'
_chemical_name_systematic        
trans-anti-3,3'-bis(4-Ethoxyphenyl)-3,3'-dihydroxy-2,2'-biindenylidene-1,1'-dione
_symmetry_cell_setting           triclinic
_symmetry_space_group_name_H-M   'P -1'
_symmetry_Int_Tables_number      2
_space_group_name_Hall           '-P 1'
loop_
_symmetry_equiv_pos_site_id
_symmetry_equiv_pos_as_xyz
1 x,y,z
2 -x,-y,-z
_cell_length_a                   7.374(5)
_cell_length_b                   8.714(6)
_cell_length_c                   12.246(8)
_cell_angle_alpha                76.031(12)
_cell_angle_beta                 86.267(11)
_cell_angle_gamma                66.382(13)
_cell_volume                     699.215
_exptl_crystal_colour            yellow
_chemical_melting_point          '290-293 deg.C'
_cell_formula_units_Z            1
_chemical_properties_physical    light-sensitive
_exptl_crystal_recrystallization_method dichloromethane/acetone
_exptl_crystal_preparation       photochromic
loop_
_atom_site_label
_atom_site_type_symbol
_atom_site_fract_x
_atom_site_fract_y
_atom_site_fract_z
O1 O 0.2336(5) 0.5051(5) 0.8497(3)
H1 H 0.1964 0.5214 0.7846
O2 O 0.7771(6) 0.1983(5) 1.1120(3)
O3 O 0.7568(6) 0.7770(6) 0.4693(3)
C1 C 0.4480(8) 0.4382(7) 0.8564(4)
C2 C 0.5316(8) 0.2445(7) 0.8573(4)
C3 C 0.4894(9) 0.1696(9) 0.7770(4)
H2 H 0.4005 0.2369 0.7167
C4 C 0.5859(10) -0.0088(9) 0.7913(5)
H3 H 0.5609 -0.0603 0.7391
C5 C 0.7197(10) -0.1127(8) 0.8825(6)
H4 H 0.7818 -0.2310 0.8891
C6 C 0.7606(8) -0.0400(7) 0.9636(5)
H5 H 0.8488 -0.1080 1.0241
C7 C 0.6625(8) 0.1408(7) 0.9497(4)
C8 C 0.6708(8) 0.2504(7) 1.0241(4)
C9 C 0.5277(7) 0.4331(7) 0.9737(4)
C10 C 0.5348(8) 0.5336(6) 0.7567(4)
C11 C 0.4231(9) 0.6243(8) 0.6557(4)
H6 H 0.2939 0.6329 0.6508
C12 C 0.5015(10) 0.7021(9) 0.5621(5)
H7 H 0.4251 0.7600 0.4958
C13 C 0.6956(8) 0.6928(7) 0.5681(4)
C14 C 0.8113(8) 0.6035(7) 0.6672(4)
H8 H 0.9404 0.5952 0.6717
C15 C 0.7289(8) 0.5259(7) 0.7602(4)
H9 H 0.8056 0.4675 0.8263
C16 C 0.9498(9) 0.7815(8) 0.4690(5)
H10 H 1.0516 0.6653 0.4844
H11 H 0.9610 0.8372 0.5264
C17 C 0.9746(10) 0.8831(8) 0.3520(5)
H12 H 0.9516 0.8327 0.2955
H13 H 1.1067 0.8794 0.3467
H14 H 0.8812 1.0006 0.3405
O1A O 0.7664(5) 0.4949(5) 1.1503(3)
H1A H 0.8036 0.4786 1.2154
O2A O 0.2229(6) 0.8017(5) 0.8880(3)
O3A O 0.2432(6) 0.2230(6) 1.5307(3)
C1A C 0.5520(8) 0.5618(7) 1.1436(4)
C2A C 0.4684(8) 0.7555(7) 1.1427(4)
C3A C 0.5106(9) 0.8304(9) 1.2230(4)
H2A H 0.5995 0.7631 1.2833
C4A C 0.4141(10) 1.0088(9) 1.2087(5)
H3A H 0.4391 1.0603 1.2609
C5A C 0.2803(10) 1.1127(8) 1.1175(6)
H4A H 0.2182 1.2310 1.1109
C6A C 0.2394(8) 1.0400(7) 1.0364(5)
H5A H 0.1512 1.1080 0.9759
C7A C 0.3375(8) 0.8592(7) 1.0503(4)
C8A C 0.3292(8) 0.7496(7) 0.9759(4)
C9A C 0.4723(7) 0.5669(7) 1.0263(4)
C10A C 0.4652(8) 0.4664(6) 1.2433(4)
C11A C 0.5769(9) 0.3757(8) 1.3443(4)
H6A H 0.7061 0.3671 1.3492
C12A C 0.4985(10) 0.2979(9) 1.4379(5)
H7A H 0.5749 0.2400 1.5042
C13A C 0.3044(8) 0.3072(7) 1.4319(4)
C14A C 0.1887(8) 0.3965(7) 1.3328(4)
H8A H 0.0596 0.4048 1.3283
C15A C 0.2711(8) 0.4741(7) 1.2398(4)
H9A H 0.1944 0.5325 1.1737
C16A C 0.0502(9) 0.2185(8) 1.5310(5)
H10A H -0.0516 0.3347 1.5156
H11A H 0.0390 0.1628 1.4736
C17A C 0.0254(10) 0.1169(8) 1.6480(5)
H12A H 0.0484 0.1673 1.7045
H13A H -0.1067 0.1206 1.6533
H14A H 0.1188 -0.0006 1.6595
loop_
_geom_bond_atom_site_label_1
_geom_bond_atom_site_label_2
_geom_bond_site_symmetry_1
_geom_bond_site_symmetry_2
O1 H1 1_555 1_555
O2 C8 1_555 1_555
O3 C13 1_555 1_555
C1 O1 1_555 1_555
C2 C1 1_555 1_555
C3 C2 1_555 1_555
H2 C3 1_555 1_555
C4 C3 1_555 1_555
H3 C4 1_555 1_555
C5 C4 1_555 1_555
H4 C5 1_555 1_555
C6 C5 1_555 1_555
H5 C6 1_555 1_555
C7 C2 1_555 1_555
C8 C7 1_555 1_555
C9 C1 1_555 1_555
C10 C1 1_555 1_555
C11 C10 1_555 1_555
H6 C11 1_555 1_555
C12 C11 1_555 1_555
H7 C12 1_555 1_555
C13 C12 1_555 1_555
C14 C13 1_555 1_555
H8 C14 1_555 1_555
C15 C10 1_555 1_555
H9 C15 1_555 1_555
C16 O3 1_555 1_555
H10 C16 1_555 1_555
H11 C16 1_555 1_555
C17 C16 1_555 1_555
H12 C17 1_555 1_555
H13 C17 1_555 1_555
H14 C17 1_555 1_555
O1A H1A 1_555 1_555
O2A C8A 1_555 1_555
O3A C13A 1_555 1_555
C1A O1A 1_555 1_555
C2A C1A 1_555 1_555
C3A C2A 1_555 1_555
H2A C3A 1_555 1_555
C4A C3A 1_555 1_555
H3A C4A 1_555 1_555
C5A C4A 1_555 1_555
H4A C5A 1_555 1_555
C6A C5A 1_555 1_555
H5A C6A 1_555 1_555
C7A C2A 1_555 1_555
C8A C7A 1_555 1_555
C9A C9 1_555 1_555
C10A C1A 1_555 1_555
C11A C10A 1_555 1_555
H6A C11A 1_555 1_555
C12A C11A 1_555 1_555
H7A C12A 1_555 1_555
C13A C12A 1_555 1_555
C14A C13A 1_555 1_555
H8A C14A 1_555 1_555
C15A C10A 1_555 1_555
H9A C15A 1_555 1_555
C16A O3A 1_555 1_555
H10A C16A 1_555 1_555
H11A C16A 1_555 1_555
C17A C16A 1_555 1_555
H12A C17A 1_555 1_555
H13A C17A 1_555 1_555
H14A C17A 1_555 1_555
C6 C7 1_555 1_555
C8 C9 1_555 1_555
C14 C15 1_555 1_555
C1A C9A 1_555 1_555
C6A C7A 1_555 1_555
C8A C9A 1_555 1_555
C14A C15A 1_555 1_555

#END
