
#######################################################################
#
#                 Cambridge Crystallographic Data Centre
#                                CCDC 
#
#######################################################################
#
# If this CIF has been generated from an entry in the Cambridge 
# Structural Database, then it will include bibliographic, chemical, 
# crystal, experimental, refinement or atomic coordinate data resulting 
# from the CCDC's data processing and validation procedures.
#
#######################################################################

data_BOXCOI
_chemical_formula_moiety         'C16 H15 N3 Si1'
_chemical_name_systematic        3,3',3''-(Methylsilanetriyl)tripyridine
_symmetry_cell_setting           rhombohedral
_symmetry_space_group_name_H-M   'R -3'
_symmetry_Int_Tables_number      148
_space_group_name_Hall           '-R 3'
loop_
_symmetry_equiv_pos_site_id
_symmetry_equiv_pos_as_xyz
1 x,y,z
2 -y,x-y,z
3 -x+y,-x,z
4 2/3+x,1/3+y,1/3+z
5 2/3-y,1/3+x-y,1/3+z
6 2/3-x+y,1/3-x,1/3+z
7 1/3+x,2/3+y,2/3+z
8 1/3-y,2/3+x-y,2/3+z
9 1/3-x+y,2/3-x,2/3+z
10 -x,-y,-z
11 y,-x+y,-z
12 x-y,x,-z
13 1/3-x,2/3-y,2/3-z
14 1/3+y,2/3-x+y,2/3-z
15 1/3+x-y,2/3+x,2/3-z
16 2/3-x,1/3-y,1/3-z
17 2/3+y,1/3-x+y,1/3-z
18 2/3+x-y,1/3+x,1/3-z
_cell_length_a                   13.664(4)
_cell_length_b                   13.664(4)
_cell_length_c                   13.849(4)
_cell_angle_alpha                90
_cell_angle_beta                 90
_cell_angle_gamma                120
_cell_volume                     2239.26
_exptl_crystal_colour            colorless
_exptl_crystal_description       square
_cell_formula_units_Z            6
loop_
_atom_site_label
_atom_site_type_symbol
_atom_site_fract_x
_atom_site_fract_y
_atom_site_fract_z
Si1 Si 1.0000 1.0000 0.24266(9)
C1 C 1.0000 1.0000 0.3772(4)
H1 H 1.0656 1.0694 0.4007
C2 C 0.8667(3) 0.8768(3) 0.1954(2)
C3 C 0.8615(3) 0.8143(3) 0.1126(2)
H2 H 0.9289 0.8311 0.0793
N1 N 0.7592(3) 0.7292(3) 0.0801(2)
C4 C 0.6616(3) 0.7055(3) 0.1311(3)
H3 H 0.5907 0.6475 0.1077
C5 C 0.6634(3) 0.7611(3) 0.2118(2)
H4 H 0.5963 0.7421 0.2466
C6 C 0.7642(3) 0.8442(3) 0.2405(2)
H5 H 0.7659 0.8847 0.2969
H1B H 1.0038 0.9344 0.4007
H1A H 0.9306 0.9962 0.4007
C2A C 1.1232(3) 0.9899(4) 0.1954(2)
C3A C 1.1857(3) 1.0472(4) 0.1126(2)
H2A H 1.1689 1.0978 0.0793
N1A N 1.2708(3) 1.0300(4) 0.0801(2)
C4A C 1.2945(3) 0.9561(4) 0.1311(3)
H3A H 1.3525 0.9432 0.1077
C5A C 1.2389(3) 0.9023(4) 0.2118(2)
H4A H 1.2579 0.8542 0.2466
C6A C 1.1558(3) 0.9200(4) 0.2405(2)
H5A H 1.1153 0.8812 0.2969
C2B C 1.0101(4) 1.1333(3) 0.1954(2)
C3B C 0.9528(4) 1.1385(3) 0.1126(2)
H2B H 0.9022 1.0711 0.0793
N1B N 0.9700(4) 1.2408(3) 0.0801(2)
C4B C 1.0439(4) 1.3384(3) 0.1311(3)
H3B H 1.0568 1.4093 0.1077
C5B C 1.0977(4) 1.3366(3) 0.2118(2)
H4B H 1.1458 1.4037 0.2466
C6B C 1.0800(4) 1.2358(3) 0.2405(2)
H5B H 1.1188 1.2341 0.2969
H6? H 1.0656 1.0694 0.4007
H7? H 1.0656 1.0694 0.4007
loop_
_geom_bond_atom_site_label_1
_geom_bond_atom_site_label_2
_geom_bond_site_symmetry_1
_geom_bond_site_symmetry_2
Si1 C1 1_555 1_555
C1 H1 1_555 1_555
C2 Si1 1_555 1_555
C3 C2 1_555 1_555
H2 C3 1_555 1_555
N1 C3 1_555 1_555
C4 N1 1_555 1_555
H3 C4 1_555 1_555
C5 C4 1_555 1_555
H4 C5 1_555 1_555
C6 C2 1_555 1_555
H5 C6 1_555 1_555
H1B C1 1_555 1_555
H1A C1 1_555 1_555
C2A Si1 1_555 1_555
C3A C2A 1_555 1_555
H2A C3A 1_555 1_555
N1A C3A 1_555 1_555
C4A N1A 1_555 1_555
H3A C4A 1_555 1_555
C5A C4A 1_555 1_555
H4A C5A 1_555 1_555
C6A C2A 1_555 1_555
H5A C6A 1_555 1_555
C2B Si1 1_555 1_555
C3B C2B 1_555 1_555
H2B C3B 1_555 1_555
N1B C3B 1_555 1_555
C4B N1B 1_555 1_555
H3B C4B 1_555 1_555
C5B C4B 1_555 1_555
H4B C5B 1_555 1_555
C6B C2B 1_555 1_555
H5B C6B 1_555 1_555
C5 C6 1_555 1_555
C5A C6A 1_555 1_555
C5B C6B 1_555 1_555

#END
