
#######################################################################
#
#                 Cambridge Crystallographic Data Centre
#                                CCDC 
#
#######################################################################
#
# If this CIF has been generated from an entry in the Cambridge 
# Structural Database, then it will include bibliographic, chemical, 
# crystal, experimental, refinement or atomic coordinate data resulting 
# from the CCDC's data processing and validation procedures.
#
#######################################################################

data_BOXFIF
_chemical_compound_source        'culture of marine fungus Alternaria sp.'
_chemical_name_common            'Tricycloalternarene I'
_chemical_formula_moiety         'C21 H32 O4'
_chemical_name_systematic        
7-Hydroxy-1-(2-hydroxy-6-methylhept-5-en-2-yl)-3a-methyl-2,3,3a,5,6,7,9,9a-octahydrocyclopenta[b]chromen-8(1H)-one
_chemical_properties_biological  'tested for antimicrobial activity'
_symmetry_cell_setting           orthorhombic
_symmetry_space_group_name_H-M   'P 21 21 21'
_symmetry_Int_Tables_number      19
_space_group_name_Hall           'P 2ac 2ab'
loop_
_symmetry_equiv_pos_site_id
_symmetry_equiv_pos_as_xyz
1 x,y,z
2 1/2-x,-y,1/2+z
3 -x,1/2+y,1/2-z
4 1/2+x,1/2-y,-z
_cell_length_a                   7.4729(3)
_cell_length_b                   15.3094(8)
_cell_length_c                   17.0675(9)
_cell_angle_alpha                90
_cell_angle_beta                 90
_cell_angle_gamma                90
_cell_volume                     1952.62
_exptl_crystal_colour            colorless
_cell_formula_units_Z            4
loop_
_atom_site_label
_atom_site_type_symbol
_atom_site_fract_x
_atom_site_fract_y
_atom_site_fract_z
C1 C -0.2246(3) 0.78580(15) 0.17418(14)
H1 H -0.2486 0.7574 0.2232
H2 H -0.3303 0.7848 0.1423
H3 H -0.1899 0.8452 0.1836
C2 C -0.0252(3) 0.77717(13) 0.05523(12)
H4 H 0.0805 0.7487 0.0360
H5 H -0.0021 0.8385 0.0613
H6 H -0.1212 0.7689 0.0186
C3 C -0.0761(2) 0.73892(10) 0.13272(9)
C4 C -0.0007(2) 0.66897(10) 0.16388(8)
H7 H -0.0455 0.6522 0.2125
C5 C 0.1457(2) 0.61311(10) 0.13232(9)
H8 H 0.1871 0.6372 0.0830
H9 H 0.0996 0.5549 0.1223
C6 C 0.30326(19) 0.60711(9) 0.18943(8)
H10 H 0.3678 0.6621 0.1880
H11 H 0.2558 0.6003 0.2420
C7 C 0.43657(18) 0.53321(9) 0.17440(8)
C8 C 0.5105(2) 0.53764(12) 0.09138(9)
H12 H 0.5929 0.4904 0.0833
H13 H 0.5714 0.5922 0.0840
H14 H 0.4139 0.5331 0.0545
C9 C 0.59165(17) 0.53434(9) 0.23445(8)
H15 H 0.6631 0.5870 0.2253
C10 C 0.7173(2) 0.45368(10) 0.22743(9)
H16 H 0.6818 0.4172 0.1836
H17 H 0.8402 0.4721 0.2197
C11 C 0.6982(2) 0.40390(10) 0.30439(10)
H18 H 0.6002 0.3624 0.3018
H19 H 0.8075 0.3729 0.3171
C12 C 0.66036(18) 0.47458(9) 0.36387(9)
C13 C 0.53017(17) 0.53463(8) 0.32082(8)
H20 H 0.4116 0.5074 0.3229
C14 C 0.51689(18) 0.62359(9) 0.36142(8)
H21 H 0.4593 0.6650 0.3266
H22 H 0.4438 0.6182 0.4081
C15 C 0.69896(18) 0.65709(9) 0.38356(8)
C16 C 0.84275(17) 0.60364(9) 0.38744(8)
C17 C 1.02933(19) 0.63371(11) 0.40470(10)
H23 H 1.1128 0.6022 0.3716
H24 H 1.0583 0.6206 0.4588
C18 C 1.0501(2) 0.73113(10) 0.39069(10)
H25 H 1.1646 0.7507 0.4108
H26 H 1.0467 0.7431 0.3349
C19 C 0.9003(2) 0.77992(10) 0.43137(9)
H27 H 0.9058 0.7639 0.4869
C20 C 0.71998(19) 0.74883(9) 0.40098(7)
C21 C 0.5971(3) 0.44532(11) 0.44394(10)
H28 H 0.6842 0.4067 0.4665
H29 H 0.4849 0.4153 0.4389
H30 H 0.5821 0.4954 0.4772
O1 O 0.9205(2) 0.87122(7) 0.42763(9)
H31 H 0.8496 0.8913 0.3957
O2 O 0.59497(15) 0.80038(6) 0.39321(6)
O3 O 0.83613(12) 0.51733(6) 0.37454(6)
O4 O 0.33371(14) 0.45460(6) 0.18474(6)
H32 H 0.3888 0.4131 0.1663
loop_
_geom_bond_atom_site_label_1
_geom_bond_atom_site_label_2
_geom_bond_site_symmetry_1
_geom_bond_site_symmetry_2
C1 H1 1_555 1_555
H2 C1 1_555 1_555
H3 C1 1_555 1_555
C2 H4 1_555 1_555
H5 C2 1_555 1_555
H6 C2 1_555 1_555
C3 C1 1_555 1_555
C4 C3 1_555 1_555
H7 C4 1_555 1_555
C5 C4 1_555 1_555
H8 C5 1_555 1_555
H9 C5 1_555 1_555
C6 C5 1_555 1_555
H10 C6 1_555 1_555
H11 C6 1_555 1_555
C7 C6 1_555 1_555
C8 C7 1_555 1_555
H12 C8 1_555 1_555
H13 C8 1_555 1_555
H14 C8 1_555 1_555
C9 C7 1_555 1_555
H15 C9 1_555 1_555
C10 C9 1_555 1_555
H16 C10 1_555 1_555
H17 C10 1_555 1_555
C11 C10 1_555 1_555
H18 C11 1_555 1_555
H19 C11 1_555 1_555
C12 C11 1_555 1_555
C13 C9 1_555 1_555
H20 C13 1_555 1_555
C14 C13 1_555 1_555
H21 C14 1_555 1_555
H22 C14 1_555 1_555
C15 C14 1_555 1_555
C16 C15 1_555 1_555
C17 C16 1_555 1_555
H23 C17 1_555 1_555
H24 C17 1_555 1_555
C18 C17 1_555 1_555
H25 C18 1_555 1_555
H26 C18 1_555 1_555
C19 C18 1_555 1_555
H27 C19 1_555 1_555
C20 C15 1_555 1_555
C21 C12 1_555 1_555
H28 C21 1_555 1_555
H29 C21 1_555 1_555
H30 C21 1_555 1_555
O1 C19 1_555 1_555
H31 O1 1_555 1_555
O2 C20 1_555 1_555
O3 C12 1_555 1_555
O4 C7 1_555 1_555
H32 O4 1_555 1_555
C2 C3 1_555 1_555
C12 C13 1_555 1_555
C16 O3 1_555 1_555
C19 C20 1_555 1_555

#END
