
#######################################################################
#
#                 Cambridge Crystallographic Data Centre
#                                CCDC 
#
#######################################################################
#
# If this CIF has been generated from an entry in the Cambridge 
# Structural Database, then it will include bibliographic, chemical, 
# crystal, experimental, refinement or atomic coordinate data resulting 
# from the CCDC's data processing and validation procedures.
#
#######################################################################

data_BOXGIE
_chemical_formula_moiety         'C9 H12 N3 O7 P1 2-,2(Na1 1+),7(H2 O1)'
_chemical_name_systematic        
"Disodium deoxycytidine-5'-phosphate heptahydrate"
_symmetry_cell_setting           orthorhombic
_symmetry_space_group_name_H-M   'P 21 21 21'
_symmetry_Int_Tables_number      19
_space_group_name_Hall           'P 2ac 2ab'
loop_
_symmetry_equiv_pos_site_id
_symmetry_equiv_pos_as_xyz
1 x,y,z
2 1/2+x,1/2-y,-z
3 -x,1/2+y,1/2-z
4 1/2-x,-y,1/2+z
_cell_length_a                   6.719(4)
_cell_length_b                   29.614(15)
_cell_length_c                   9.559(3)
_cell_angle_alpha                90
_cell_angle_beta                 90
_cell_angle_gamma                90
_cell_volume                     1902.02
_cell_formula_units_Z            4
loop_
_atom_site_label
_atom_site_type_symbol
_atom_site_fract_x
_atom_site_fract_y
_atom_site_fract_z
N1 N 0.40630 0.24350 0.22190
C1 C 0.42390 0.28810 0.18100
N2 N 0.41630 0.29900 0.04420
C2 C 0.40940 0.26630 -0.05130
C3 C 0.41100 0.21980 -0.01450
C4 C 0.40560 0.20990 0.12310
O1 O 0.44640 0.31780 0.27140
N3 N 0.40310 0.27790 -0.18770
C5 C 0.40840 0.23110 0.37260
C6 C 0.25690 0.19570 0.41150
C7 C 0.36300 0.16710 0.51990
C8 C 0.58030 0.17010 0.47500
O2 O 0.60030 0.21240 0.40410
O3 O 0.34870 0.18450 0.66000
C9 C 0.63260 0.13060 0.38110
O4 O 0.83630 0.13510 0.33630
O5 O 0.81020 0.06340 0.19740
O6 O 0.96660 0.06220 0.43620
O7 O 1.14300 0.10210 0.23450
P1 P 0.94790 0.08775 0.29810
H1 H 0.41600 0.17600 0.16400
H2 H 0.42700 0.19500 -0.07500
H3 H 0.39200 0.25900 -0.25900
H4 H 0.38300 0.31100 -0.20600
H5 H 0.40500 0.26300 0.42300
H6 H 0.22500 0.17700 0.31900
H7 H 0.13500 0.20900 0.44700
H8 H 0.29900 0.13700 0.53000
H9 H 0.22900 0.18600 0.68600
H10 H 0.64600 0.17100 0.56800
H11 H 0.61900 0.10200 0.43900
H12 H 0.55000 0.12800 0.30200
Na1 Na 1.07870 0.03610 0.82400
Na2 Na 1.48770 0.09170 0.81070
O8 O 0.82660 0.08750 0.69850
H13 H 0.84800 0.08100 0.59900
H14 H 0.88400 0.11500 0.71800
O9 O 1.09760 -0.02490 0.42540
H15 H 1.07500 -0.03400 0.51200
H16 H 1.03000 0.00100 0.40900
O10 O 0.90000 0.00000 1.00860
H17 H 0.84600 0.01400 1.07100
O11 O 1.30210 0.05860 0.62020
H18 H 1.38500 0.03300 0.59100
H19 H 1.19600 0.06600 0.55100
O12 O 0.16010 0.37780 1.00460
H20 H 0.23700 0.35700 1.00900
H21 H 0.22000 0.40000 0.93100
O13 O -0.07240 0.46470 0.78740
H22 H 0.06800 0.45300 0.78400
H23 H -0.16100 0.43500 0.77100
O14 O 0.66910 0.39000 1.06070
H24 H 0.59200 0.36200 1.07000
H25 H 0.64200 0.40200 0.97800
loop_
_geom_bond_atom_site_label_1
_geom_bond_atom_site_label_2
_geom_bond_site_symmetry_1
_geom_bond_site_symmetry_2
N1 C1 1_555 1_555
C1 N2 1_555 1_555
N2 C2 1_555 1_555
C2 C3 1_555 1_555
C3 C4 1_555 1_555
C4 N1 1_555 1_555
O1 C1 1_555 1_555
N3 C2 1_555 1_555
C5 N1 1_555 1_555
C6 C5 1_555 1_555
C7 C6 1_555 1_555
C8 C7 1_555 1_555
O2 C5 1_555 1_555
O3 C7 1_555 1_555
C9 C8 1_555 1_555
O4 C9 1_555 1_555
O5 P1 1_555 1_555
O6 P1 1_555 1_555
O7 P1 1_555 1_555
P1 O4 1_555 1_555
H1 C4 1_555 1_555
H2 C3 1_555 1_555
H3 N3 1_555 1_555
H4 N3 1_555 1_555
H5 C5 1_555 1_555
H6 C6 1_555 1_555
H7 C6 1_555 1_555
H8 C7 1_555 1_555
H9 O3 1_555 1_555
H10 C8 1_555 1_555
H11 C9 1_555 1_555
H12 C9 1_555 1_555
O8 H13 1_555 1_555
H14 O8 1_555 1_555
O9 H15 1_555 1_555
H16 O9 1_555 1_555
O10 H17 1_555 1_555
O11 H18 1_555 1_555
H19 O11 1_555 1_555
O12 H20 1_555 1_555
H21 O12 1_555 1_555
O13 H22 1_555 1_555
H23 O13 1_555 1_555
O14 H24 1_555 1_555
H25 O14 1_555 1_555
C8 O2 1_555 1_555

#END
