
#######################################################################
#
#                 Cambridge Crystallographic Data Centre
#                                CCDC 
#
#######################################################################
#
# If this CIF has been generated from an entry in the Cambridge 
# Structural Database, then it will include bibliographic, chemical, 
# crystal, experimental, refinement or atomic coordinate data resulting 
# from the CCDC's data processing and validation procedures.
#
#######################################################################

data_BOXGAY
_chemical_compound_source        'Papua New Guinean Anisoptera'
_chemical_name_common            '(-)-Hopeaphenol monohydrate'
_chemical_formula_moiety         'C56 H42 O12,H2 O1'
_chemical_name_systematic        
"1,1',7,7'-tetrakis(4-Hydroxyphenyl)-1,1',6,6',7,7',11b,11b'-octahydro-6,6'-bi-2-oxadibenzo[cd,h]azulene-4,4',8,8',10,10'-hexol monohydrate"
_chemical_properties_biological  
'could potentially act against the T3SS in Yersinia'
_symmetry_cell_setting           orthorhombic
_symmetry_space_group_name_H-M   'P 21 21 21'
_symmetry_Int_Tables_number      19
_space_group_name_Hall           'P 2ac 2ab'
loop_
_symmetry_equiv_pos_site_id
_symmetry_equiv_pos_as_xyz
1 x,y,z
2 1/2-x,-y,1/2+z
3 1/2+x,1/2-y,-z
4 -x,1/2+y,1/2-z
_cell_length_a                   11.1051(2)
_cell_length_b                   18.7895(4)
_cell_length_c                   22.3006(4)
_cell_angle_alpha                90
_cell_angle_beta                 90
_cell_angle_gamma                90
_cell_volume                     4653.23
_exptl_crystal_colour            'pale brown'
_exptl_crystal_description       plate
_cell_formula_units_Z            4
loop_
_atom_site_label
_atom_site_type_symbol
_atom_site_fract_x
_atom_site_fract_y
_atom_site_fract_z
O1 O 0.56644(16) 0.32532(11) 0.29859(6)
O2 O 0.21916(13) 0.50875(8) 0.55487(7)
O3 O 1.10433(14) 0.51681(9) 0.95111(8)
O4 O 0.73611(15) 0.31836(10) 1.21301(6)
O5 O 0.82545(14) 0.50478(8) 0.69825(7)
O6 O 0.58992(14) 0.19115(7) 0.55560(6)
O7 O 0.74244(13) 0.19810(7) 0.95234(5)
O8 O 0.48727(12) 0.48913(7) 0.78950(6)
O9 O 1.04340(15) 0.41185(9) 0.53233(7)
O10 O 0.43485(14) 0.11526(7) 0.74773(6)
O11 O 0.90019(14) 0.11046(8) 0.76788(7)
O12 O 0.26445(13) 0.39782(8) 0.95249(6)
C1 C 0.64512(18) 0.27026(10) 0.47454(8)
C2 C 0.51714(18) 0.43198(10) 0.64913(8)
C3 C 0.80938(18) 0.43587(10) 0.85603(8)
C4 C 0.67909(18) 0.27624(10) 1.03206(8)
C5 C 0.53530(19) 0.30080(13) 0.45877(9)
C6 C 0.51999(19) 0.49600(12) 0.61711(10)
C7 C 0.79628(19) 0.48708(12) 0.90119(9)
C8 C 0.59699(19) 0.25494(12) 1.07534(8)
C9 C 0.5100(2) 0.31892(14) 0.40002(9)
C10 C 0.4205(2) 0.52129(12) 0.58709(10)
C11 C 0.8946(2) 0.51205(13) 0.93323(10)
C12 C 0.6169(2) 0.26958(14) 1.13579(9)
C13 C 0.5954(2) 0.30607(12) 0.35621(9)
C14 C 0.31417(19) 0.48179(11) 0.58616(9)
C15 C 1.00938(19) 0.48773(12) 0.92038(9)
C16 C 0.7194(2) 0.30513(12) 1.15305(8)
C17 C 0.7051(2) 0.27670(13) 0.37039(9)
C18 C 0.30916(19) 0.41841(11) 0.61758(9)
C19 C 1.0242(2) 0.43653(14) 0.87630(11)
C20 C 0.8041(2) 0.32583(12) 1.11058(9)
C21 C 0.7292(2) 0.25839(12) 0.42963(9)
C22 C 0.40949(19) 0.39428(11) 0.64924(9)
C23 C 0.92481(19) 0.41116(12) 0.84485(9)
C24 C 0.78251(19) 0.31173(12) 1.05027(9)
C25 C 0.67112(18) 0.24975(10) 0.53852(8)
C26 C 0.63024(17) 0.41196(10) 0.68404(8)
C27 C 0.70034(17) 0.41451(10) 0.81883(8)
C28 C 0.65874(17) 0.25632(10) 0.96718(8)
C29 C 0.64984(17) 0.30726(10) 0.58649(8)
C30 C 0.61463(17) 0.34946(10) 0.72861(8)
C31 C 0.72229(17) 0.35124(10) 0.77500(7)
C32 C 0.68204(17) 0.31324(10) 0.91892(7)
C33 C 0.75319(17) 0.35810(10) 0.59725(8)
C34 C 0.58856(16) 0.27802(10) 0.69946(8)
C35 C 0.75147(16) 0.28167(10) 0.80687(8)
C36 C 0.57480(17) 0.36004(10) 0.90406(8)
C37 C 0.74185(17) 0.40744(10) 0.64441(8)
C38 C 0.60860(17) 0.26248(10) 0.63927(8)
C39 C 0.72913(17) 0.26802(10) 0.86731(8)
C40 C 0.58510(17) 0.40658(9) 0.85504(8)
C41 C 0.83575(19) 0.45618(11) 0.65231(9)
C42 C 0.57130(18) 0.19722(11) 0.61651(8)
C43 C 0.76470(18) 0.20333(11) 0.89170(8)
C44 C 0.48320(18) 0.44652(10) 0.83995(8)
C45 C 0.9368(2) 0.45721(12) 0.61533(10)
C46 C 0.51504(19) 0.14507(11) 0.64999(9)
C47 C 0.82111(19) 0.14973(10) 0.86004(9)
C48 C 0.37741(18) 0.44398(10) 0.87286(8)
C49 C 0.94370(19) 0.40834(11) 0.56894(9)
C50 C 0.49549(18) 0.16167(10) 0.71026(9)
C51 C 0.84396(18) 0.16423(10) 0.79999(9)
C52 C 0.37113(17) 0.39912(10) 0.92189(8)
C53 C 0.85293(18) 0.35905(11) 0.55954(8)
C54 C 0.53111(18) 0.22610(10) 0.73440(8)
C55 C 0.81050(18) 0.22831(10) 0.77375(8)
C56 C 0.46904(18) 0.35727(10) 0.93791(8)
H1 H 0.47680 0.31110 0.48800
H2 H 0.59220 0.52190 0.61560
H3 H 0.71960 0.50450 0.91010
H4 H 0.52770 0.23020 1.06350
H5 H 0.43550 0.33830 0.38940
H6 H 0.42200 0.56450 0.56600
H7 H 0.88320 0.54750 0.96200
H8 H 0.55990 0.25630 1.16530
H9 H 0.63130 0.32050 0.27500
H10 H 0.15940 0.47540 0.54810
H11 H 1.16830 0.48840 0.94870
H12 H 0.80530 0.34240 1.21880
H13 H 0.76210 0.26820 0.33940
H14 H 0.23740 0.39180 0.61820
H15 H 1.10250 0.41830 0.86790
H16 H 0.87450 0.35080 1.12210
H17 H 0.80440 0.23810 0.43960
H18 H 0.40570 0.35190 0.67080
H19 H 0.93650 0.37690 0.81390
H20 H 0.83990 0.32470 1.02150
H21 H 0.75250 0.23330 0.54130
H22 H 0.64470 0.45220 0.70960
H23 H 0.68630 0.45500 0.79370
H24 H 0.57890 0.23870 0.96310
H25 H 0.58270 0.33560 0.57370
H26 H 0.54280 0.35920 0.75140
H27 H 0.79280 0.36310 0.75200
H28 H 0.74560 0.34330 0.93290
H29 H 0.89980 0.52100 0.70800
H30 H 0.41230 0.49240 0.77420
H31 H 0.99840 0.49100 0.62130
H32 H 0.49060 0.10010 0.63320
H33 H 0.84370 0.10540 0.87830
H34 H 0.30900 0.47180 0.86150
H35 H 1.04300 0.37540 0.50640
H36 H 0.46150 0.07180 0.73490
H37 H 0.95560 0.13210 0.74510
H38 H 0.27330 0.37240 0.98650
H39 H 0.85850 0.32630 0.52750
H40 H 0.51610 0.23490 0.77610
H41 H 0.82630 0.23590 0.73150
H42 H 0.46290 0.32700 0.97160
O13 O 0.26906(17) 0.50059(12) 0.74453(7)
H43 H 0.21470 0.53610 0.74810
H44 H 0.31070 0.49460 0.71110
loop_
_geom_bond_atom_site_label_1
_geom_bond_atom_site_label_2
_geom_bond_site_symmetry_1
_geom_bond_site_symmetry_2
O1 C13 1_555 1_555
O2 C14 1_555 1_555
O3 C15 1_555 1_555
O4 C16 1_555 1_555
O5 C41 1_555 1_555
O6 C25 1_555 1_555
O7 C28 1_555 1_555
O8 C44 1_555 1_555
O9 C49 1_555 1_555
O10 C50 1_555 1_555
O11 C51 1_555 1_555
O12 C52 1_555 1_555
C1 C5 1_555 1_555
C2 C6 1_555 1_555
C3 C7 1_555 1_555
C4 C8 1_555 1_555
C5 C9 1_555 1_555
C6 C10 1_555 1_555
C7 C11 1_555 1_555
C8 C12 1_555 1_555
C9 C13 1_555 1_555
C10 C14 1_555 1_555
C11 C15 1_555 1_555
C12 C16 1_555 1_555
C13 C17 1_555 1_555
C14 C18 1_555 1_555
C15 C19 1_555 1_555
C16 C20 1_555 1_555
C17 C21 1_555 1_555
C18 C22 1_555 1_555
C19 C23 1_555 1_555
C20 C24 1_555 1_555
C21 C1 1_555 1_555
C22 C2 1_555 1_555
C23 C3 1_555 1_555
C24 C4 1_555 1_555
C25 C1 1_555 1_555
C26 C2 1_555 1_555
C27 C3 1_555 1_555
C28 C4 1_555 1_555
C29 C25 1_555 1_555
C30 C26 1_555 1_555
C31 C27 1_555 1_555
C32 C28 1_555 1_555
C33 C29 1_555 1_555
C34 C30 1_555 1_555
C35 C31 1_555 1_555
C36 C32 1_555 1_555
C37 C26 1_555 1_555
C38 C29 1_555 1_555
C39 C32 1_555 1_555
C40 C27 1_555 1_555
C41 C37 1_555 1_555
C42 O6 1_555 1_555
C43 O7 1_555 1_555
C44 C40 1_555 1_555
C45 C41 1_555 1_555
C46 C42 1_555 1_555
C47 C43 1_555 1_555
C48 C44 1_555 1_555
C49 C45 1_555 1_555
C50 C46 1_555 1_555
C51 C47 1_555 1_555
C52 C48 1_555 1_555
C53 C33 1_555 1_555
C54 C34 1_555 1_555
C55 C35 1_555 1_555
C56 C36 1_555 1_555
H1 C5 1_555 1_555
H2 C6 1_555 1_555
H3 C7 1_555 1_555
H4 C8 1_555 1_555
H5 C9 1_555 1_555
H6 C10 1_555 1_555
H7 C11 1_555 1_555
H8 C12 1_555 1_555
H9 O1 1_555 1_555
H10 O2 1_555 1_555
H11 O3 1_555 1_555
H12 O4 1_555 1_555
H13 C17 1_555 1_555
H14 C18 1_555 1_555
H15 C19 1_555 1_555
H16 C20 1_555 1_555
H17 C21 1_555 1_555
H18 C22 1_555 1_555
H19 C23 1_555 1_555
H20 C24 1_555 1_555
H21 C25 1_555 1_555
H22 C26 1_555 1_555
H23 C27 1_555 1_555
H24 C28 1_555 1_555
H25 C29 1_555 1_555
H26 C30 1_555 1_555
H27 C31 1_555 1_555
H28 C32 1_555 1_555
H29 O5 1_555 1_555
H30 O8 1_555 1_555
H31 C45 1_555 1_555
H32 C46 1_555 1_555
H33 C47 1_555 1_555
H34 C48 1_555 1_555
H35 O9 1_555 1_555
H36 O10 1_555 1_555
H37 O11 1_555 1_555
H38 O12 1_555 1_555
H39 C53 1_555 1_555
H40 C54 1_555 1_555
H41 C55 1_555 1_555
H42 C56 1_555 1_555
O13 H43 1_555 1_555
H44 O13 1_555 1_555
C30 C31 1_555 1_555
C33 C37 1_555 1_555
C34 C38 1_555 1_555
C35 C39 1_555 1_555
C36 C40 1_555 1_555
C38 C42 1_555 1_555
C39 C43 1_555 1_555
C49 C53 1_555 1_555
C50 C54 1_555 1_555
C51 C55 1_555 1_555
C52 C56 1_555 1_555

#END
