
#######################################################################
#
#                 Cambridge Crystallographic Data Centre
#                                CCDC 
#
#######################################################################
#
# If this CIF has been generated from an entry in the Cambridge 
# Structural Database, then it will include bibliographic, chemical, 
# crystal, experimental, refinement or atomic coordinate data resulting 
# from the CCDC's data processing and validation procedures.
#
#######################################################################

data_BOXGEC
_chemical_compound_source        
'leaves of the Australian rainforest tree Denhamia celastroides'
_chemical_name_common            
(1S,4S,5S,6R,7R,9S,10S)-1,6,11-Triacetoxy-9-cinnamoyloxy-4-hydroxy-dihydro-beta-agrafuran
_chemical_formula_moiety         'C30 H38 O10,C3 H6 O1'
_chemical_name_systematic        
'5,12-Diacetoxy-6-(acetoxymethyl)-2-hydroxy-2,10,10-trimethyl-11-oxatricyclo[7.2.1.0^1,6^]dodec-7-yl 3-phenylacrylate acetone'
_chemical_properties_biological  
'tested for cytotoxic activity against the human prostate cancer cell line LNCaP'
_symmetry_cell_setting           orthorhombic
_symmetry_space_group_name_H-M   'P 21 21 21'
_symmetry_Int_Tables_number      19
_space_group_name_Hall           'P 2ac 2ab'
loop_
_symmetry_equiv_pos_site_id
_symmetry_equiv_pos_as_xyz
1 x,y,z
2 1/2-x,-y,1/2+z
3 1/2+x,1/2-y,-z
4 -x,1/2+y,1/2-z
_cell_length_a                   8.8605(4)
_cell_length_b                   16.2937(8)
_cell_length_c                   22.6352(11)
_cell_angle_alpha                90
_cell_angle_beta                 90
_cell_angle_gamma                90
_cell_volume                     3267.85
_exptl_crystal_colour            colorless
_exptl_crystal_description       block
_cell_formula_units_Z            4
loop_
_atom_site_label
_atom_site_type_symbol
_atom_site_fract_x
_atom_site_fract_y
_atom_site_fract_z
O1 O 0.7017(2) 0.63199(13) 0.35938(9)
O2 O 0.61865(19) 0.60537(11) 0.47134(8)
O3 O 1.0141(2) 0.62055(12) 0.57542(9)
O4 O 0.9506(3) 0.74227(15) 0.61398(12)
O5 O 0.6365(2) 0.46729(12) 0.37594(9)
O6 O 0.6732(5) 0.33206(17) 0.37659(13)
O7 O 0.7049(2) 0.57333(12) 0.59601(8)
O8 O 0.7261(3) 0.49124(15) 0.67606(10)
O9 O 0.9567(2) 0.40712(12) 0.50165(10)
O10 O 1.2015(2) 0.37722(15) 0.49232(12)
C1 C 0.9134(3) 0.63328(16) 0.52545(12)
C2 C 0.9953(3) 0.67707(17) 0.47591(13)
C3 C 0.8868(3) 0.69000(17) 0.42466(13)
C4 C 0.8189(3) 0.61037(17) 0.40000(12)
C5 C 0.7488(3) 0.55879(17) 0.45142(12)
C6 C 0.6881(3) 0.47269(17) 0.43655(12)
C7 C 0.5609(3) 0.46676(17) 0.48161(13)
C8 C 0.6377(3) 0.44848(17) 0.54126(13)
C9 C 0.7658(3) 0.50776(17) 0.55953(12)
C10 C 0.8545(3) 0.54764(16) 0.50715(12)
C11 C 0.9946(3) 0.49290(16) 0.49579(14)
C12 C 0.9349(3) 0.5646(2) 0.36185(14)
C13 C 0.4864(3) 0.55170(17) 0.47770(13)
C14 C 0.3978(3) 0.57904(19) 0.53160(14)
C15 C 0.3834(3) 0.56064(19) 0.42375(13)
C16 C 1.0242(3) 0.68051(19) 0.61603(13)
C17 C 1.1393(4) 0.6605(2) 0.66186(14)
C18 C 0.6346(4) 0.3929(2) 0.35157(15)
C19 C 0.5744(5) 0.3975(3) 0.28974(15)
C20 C 0.6862(3) 0.55553(19) 0.65404(13)
C21 C 0.6102(4) 0.6229(2) 0.68454(13)
C22 C 0.5378(4) 0.6090(2) 0.73548(14)
C23 C 0.4532(4) 0.6687(2) 0.77100(14)
C24 C 0.4648(6) 0.7524(2) 0.76114(18)
C25 C 0.3801(7) 0.8070(3) 0.7944(2)
C26 C 0.2862(6) 0.7786(3) 0.83869(19)
C27 C 0.2761(4) 0.6954(3) 0.84931(17)
C28 C 0.3589(4) 0.6402(3) 0.81559(15)
C29 C 1.0737(3) 0.35462(19) 0.49825(15)
C30 C 1.0218(5) 0.2675(2) 0.5020(2)
H1 H 0.82610 0.66770 0.53850
H2 H 1.08250 0.64380 0.46270
H3 H 1.03330 0.73070 0.49010
H4 H 0.94090 0.71870 0.39240
H5 H 0.80360 0.72610 0.43790
H6 H 0.63290 0.65700 0.37750
H7 H 0.76670 0.43010 0.44460
H8 H 0.48800 0.42240 0.47080
H9 H 0.67950 0.39220 0.53970
H10 H 0.55950 0.44930 0.57250
H11 H 0.83960 0.47610 0.58400
H12 H 1.03370 0.50340 0.45550
H13 H 1.07500 0.50710 0.52440
H14 H 0.90790 0.50630 0.35990
H15 H 0.93530 0.58780 0.32190
H16 H 1.03540 0.57040 0.37940
H17 H 0.31910 0.53850 0.54040
H18 H 0.35090 0.63240 0.52370
H19 H 0.46600 0.58380 0.56550
H20 H 0.44060 0.54800 0.38780
H21 H 0.29820 0.52260 0.42730
H22 H 0.34540 0.61710 0.42160
H23 H 1.11340 0.60820 0.68070
H24 H 1.23880 0.65600 0.64330
H25 H 1.14130 0.70410 0.69170
H26 H 0.58620 0.34400 0.27050
H27 H 0.46720 0.41230 0.29080
H28 H 0.63040 0.43910 0.26750
H29 H 0.61230 0.67660 0.66820
H30 H 0.54160 0.55450 0.75020
H31 H 0.53100 0.77240 0.73150
H32 H 0.38660 0.86420 0.78670
H33 H 0.22900 0.81620 0.86170
H34 H 0.21220 0.67570 0.87990
H35 H 0.35110 0.58300 0.82300
H36 H 1.02080 0.24320 0.46240
H37 H 1.09070 0.23640 0.52740
H38 H 0.91980 0.26580 0.51880
O11 O 0.2738(6) 0.4529(3) 0.7451(3)
C31 C 0.1939(6) 0.4083(3) 0.7185(2)
C32 C 0.0810(9) 0.3574(5) 0.7495(3)
C33 C 0.1966(13) 0.3999(5) 0.6543(3)
H39 H 0.07220 0.30410 0.72970
H40 H -0.01700 0.38520 0.74890
H41 H 0.11300 0.34900 0.79050
H42 H 0.27990 0.43250 0.63810
H43 H 0.10090 0.41950 0.63780
H44 H 0.21090 0.34200 0.64380
loop_
_geom_bond_atom_site_label_1
_geom_bond_atom_site_label_2
_geom_bond_site_symmetry_1
_geom_bond_site_symmetry_2
O1 C4 1_555 1_555
O2 C5 1_555 1_555
O3 C1 1_555 1_555
O4 C16 1_555 1_555
O5 C6 1_555 1_555
O6 C18 1_555 1_555
O7 C9 1_555 1_555
O8 C20 1_555 1_555
O9 C11 1_555 1_555
O10 C29 1_555 1_555
C1 C2 1_555 1_555
C2 C3 1_555 1_555
C3 C4 1_555 1_555
C4 C5 1_555 1_555
C5 C6 1_555 1_555
C6 C7 1_555 1_555
C7 C8 1_555 1_555
C8 C9 1_555 1_555
C9 C10 1_555 1_555
C10 C1 1_555 1_555
C11 C10 1_555 1_555
C12 C4 1_555 1_555
C13 O2 1_555 1_555
C14 C13 1_555 1_555
C15 C13 1_555 1_555
C16 O3 1_555 1_555
C17 C16 1_555 1_555
C18 O5 1_555 1_555
C19 C18 1_555 1_555
C20 O7 1_555 1_555
C21 C20 1_555 1_555
C22 C21 1_555 1_555
C23 C22 1_555 1_555
C24 C23 1_555 1_555
C25 C24 1_555 1_555
C26 C25 1_555 1_555
C27 C26 1_555 1_555
C28 C23 1_555 1_555
C29 O9 1_555 1_555
C30 C29 1_555 1_555
H1 C1 1_555 1_555
H2 C2 1_555 1_555
H3 C2 1_555 1_555
H4 C3 1_555 1_555
H5 C3 1_555 1_555
H6 O1 1_555 1_555
H7 C6 1_555 1_555
H8 C7 1_555 1_555
H9 C8 1_555 1_555
H10 C8 1_555 1_555
H11 C9 1_555 1_555
H12 C11 1_555 1_555
H13 C11 1_555 1_555
H14 C12 1_555 1_555
H15 C12 1_555 1_555
H16 C12 1_555 1_555
H17 C14 1_555 1_555
H18 C14 1_555 1_555
H19 C14 1_555 1_555
H20 C15 1_555 1_555
H21 C15 1_555 1_555
H22 C15 1_555 1_555
H23 C17 1_555 1_555
H24 C17 1_555 1_555
H25 C17 1_555 1_555
H26 C19 1_555 1_555
H27 C19 1_555 1_555
H28 C19 1_555 1_555
H29 C21 1_555 1_555
H30 C22 1_555 1_555
H31 C24 1_555 1_555
H32 C25 1_555 1_555
H33 C26 1_555 1_555
H34 C27 1_555 1_555
H35 C28 1_555 1_555
H36 C30 1_555 1_555
H37 C30 1_555 1_555
H38 C30 1_555 1_555
O11 C31 1_555 1_555
C31 C32 1_555 1_555
C32 H39 1_555 1_555
C33 C31 1_555 1_555
H40 C32 1_555 1_555
H41 C32 1_555 1_555
H42 C33 1_555 1_555
H43 C33 1_555 1_555
H44 C33 1_555 1_555
C5 C10 1_555 1_555
C7 C13 1_555 1_555
C27 C28 1_555 1_555

#END
