
#######################################################################
#
#                 Cambridge Crystallographic Data Centre
#                                CCDC 
#
#######################################################################
#
# If this CIF has been generated from an entry in the Cambridge 
# Structural Database, then it will include bibliographic, chemical, 
# crystal, experimental, refinement or atomic coordinate data resulting 
# from the CCDC's data processing and validation procedures.
#
#######################################################################

data_BOXLIL
_chemical_compound_source        'Polyalthia parviflora leaves'
_chemical_name_common            'Parvistone B'
_chemical_formula_moiety         'C14 H16 O4'
_chemical_name_systematic        
6-(1-Hydroxy-2-methoxy-2-phenylethyl)-5,6-dihydro-2H-pyran-2-one
_symmetry_cell_setting           orthorhombic
_symmetry_space_group_name_H-M   'P 21 21 21'
_symmetry_Int_Tables_number      19
_space_group_name_Hall           'P 2ac 2ab'
loop_
_symmetry_equiv_pos_site_id
_symmetry_equiv_pos_as_xyz
1 x,y,z
2 1/2-x,-y,1/2+z
3 -x,1/2+y,1/2-z
4 1/2+x,1/2-y,-z
_cell_length_a                   8.3051(2)
_cell_length_b                   9.8097(2)
_cell_length_c                   15.5103(3)
_cell_angle_alpha                90
_cell_angle_beta                 90
_cell_angle_gamma                90
_cell_volume                     1263.63
_exptl_crystal_colour            colorless
_exptl_crystal_description       tabular
_cell_formula_units_Z            4
loop_
_atom_site_label
_atom_site_type_symbol
_atom_site_fract_x
_atom_site_fract_y
_atom_site_fract_z
C1 C -0.10581(18) 0.24959(15) 0.56349(9)
C2 C -0.23850(19) 0.15949(15) 0.58901(9)
H1 H -0.3441 0.1762 0.5680
C3 C -0.21210(19) 0.05475(16) 0.64133(10)
H2 H -0.2976 -0.0062 0.6543
C4 C -0.0495(2) 0.03131(14) 0.68008(10)
H3 H 0.0136 -0.0310 0.6429
H4 H -0.0611 -0.0115 0.7375
C5 C 0.03717(18) 0.16604(14) 0.68861(9)
H5 H -0.0182 0.2220 0.7336
C6 C 0.21541(18) 0.15662(14) 0.71086(8)
H6 H 0.2653 0.2483 0.7017
C7 C 0.24303(18) 0.11461(14) 0.80486(9)
H7 H 0.1940 0.0229 0.8149
C8 C 0.42033(19) 0.10951(14) 0.82735(9)
C9 C 0.48775(18) -0.00854(15) 0.86108(9)
H8 H 0.4228 -0.0875 0.8682
C10 C 0.64917(19) -0.01249(15) 0.88453(9)
H9 H 0.6940 -0.0937 0.9077
C11 C 0.7444(2) 0.10177(17) 0.87411(9)
H10 H 0.8550 0.0992 0.8897
C12 C 0.6777(2) 0.22054(16) 0.84080(9)
H11 H 0.7428 0.2994 0.8337
C13 C 0.51702(19) 0.22417(14) 0.81794(9)
H12 H 0.4721 0.3059 0.7955
C14 C 0.1664(2) 0.19180(18) 0.94512(9)
H13 H 0.1305 0.0989 0.9583
H14 H 0.0968 0.2574 0.9748
H15 H 0.2778 0.2037 0.9646
O1 O 0.03381(12) 0.24050(10) 0.60656(6)
O2 O -0.11229(14) 0.32912(11) 0.50355(7)
O3 O 0.29663(13) 0.06111(11) 0.65821(6)
H16 H 0.3150 0.0960 0.6098
O4 O 0.15786(13) 0.21417(10) 0.85427(6)
loop_
_geom_bond_atom_site_label_1
_geom_bond_atom_site_label_2
_geom_bond_site_symmetry_1
_geom_bond_site_symmetry_2
C1 C2 1_555 1_555
C2 H1 1_555 1_555
C3 C2 1_555 1_555
H2 C3 1_555 1_555
C4 C3 1_555 1_555
H3 C4 1_555 1_555
H4 C4 1_555 1_555
C5 C4 1_555 1_555
H5 C5 1_555 1_555
C6 C5 1_555 1_555
H6 C6 1_555 1_555
C7 C6 1_555 1_555
H7 C7 1_555 1_555
C8 C7 1_555 1_555
C9 C8 1_555 1_555
H8 C9 1_555 1_555
C10 C9 1_555 1_555
H9 C10 1_555 1_555
C11 C10 1_555 1_555
H10 C11 1_555 1_555
C12 C11 1_555 1_555
H11 C12 1_555 1_555
C13 C8 1_555 1_555
H12 C13 1_555 1_555
C14 H13 1_555 1_555
H14 C14 1_555 1_555
H15 C14 1_555 1_555
O1 C1 1_555 1_555
O2 C1 1_555 1_555
O3 C6 1_555 1_555
H16 O3 1_555 1_555
O4 C7 1_555 1_555
C5 O1 1_555 1_555
C12 C13 1_555 1_555
C14 O4 1_555 1_555

#END
