
#######################################################################
#
#                 Cambridge Crystallographic Data Centre
#                                CCDC 
#
#######################################################################
#
# If this CIF has been generated from an entry in the Cambridge 
# Structural Database, then it will include bibliographic, chemical, 
# crystal, experimental, refinement or atomic coordinate data resulting 
# from the CCDC's data processing and validation procedures.
#
#######################################################################

data_BOYBAU
_chemical_formula_moiety         'C17 H19 N3 O3,2(C1 H4 O1)'
_chemical_name_systematic        
'ethyl 5-(benzoylcarbonohydrazonoyl)-3,4-dimethyl-1H-pyrrole-2-carboxylate methanol solvate'
_symmetry_cell_setting           triclinic
_symmetry_space_group_name_H-M   'P -1'
_symmetry_Int_Tables_number      2
_space_group_name_Hall           '-P 1'
loop_
_symmetry_equiv_pos_site_id
_symmetry_equiv_pos_as_xyz
1 x,y,z
2 -x,-y,-z
_cell_length_a                   7.9736(2)
_cell_length_b                   10.0749(3)
_cell_length_c                   13.6259(3)
_cell_angle_alpha                110.008(2)
_cell_angle_beta                 90.354(2)
_cell_angle_gamma                91.711(2)
_cell_volume                     1027.93
_exptl_crystal_colour            yellow
_exptl_crystal_description       block
_cell_formula_units_Z            2
loop_
_atom_site_label
_atom_site_type_symbol
_atom_site_fract_x
_atom_site_fract_y
_atom_site_fract_z
N1 N 0.66238(19) 0.97999(19) 0.42155(12)
N2 N 0.75549(19) 1.01077(18) 0.51207(12)
H1 H 0.7713 0.9480 0.5406
N3 N 0.47568(19) 0.90828(19) 0.23571(12)
H2 H 0.5026 0.9970 0.2597
C1 C 0.9239(2) 1.1766(2) 0.65240(14)
O1 O 0.7979(2) 1.23328(18) 0.51464(13)
C2 C 0.6045(2) 0.8533(2) 0.37990(15)
H3 H 0.6235 0.7869 0.4119
C3 C 0.8215(2) 1.1438(2) 0.55481(16)
C4 C 0.5102(2) 0.8138(2) 0.28377(15)
C5 C 0.9581(3) 1.0815(2) 0.70174(16)
H4 H 0.9148 0.9892 0.6743
C6 C 0.3915(2) 0.8405(3) 0.14334(15)
C7 C 0.4452(2) 0.6821(2) 0.22186(17)
C8 C 0.9900(3) 1.3136(3) 0.69548(17)
H5 H 0.9679 1.3795 0.6635
C9 C 1.0565(3) 1.1222(3) 0.79180(17)
H6 H 1.0786 1.0571 0.8245
O2 O 0.2569(2) 0.8614(2) -0.00476(13)
C10 C 0.3290(3) 0.9169(3) 0.07801(17)
O3 O 0.3634(2) 1.0563(2) 0.12057(14)
C11 C 1.1215(3) 1.2578(3) 0.83316(18)
H7 H 1.1881 1.2847 0.8935
C12 C 1.0876(3) 1.3531(3) 0.78490(18)
H8 H 1.1310 1.4453 0.8129
C13 C 0.3719(2) 0.6997(3) 0.13289(16)
C14 C 0.2845(3) 0.5851(3) 0.04460(18)
H9 H 0.2456 0.6238 -0.0064
H10 H 0.1907 0.5466 0.0710
H11 H 0.3614 0.5117 0.0128
C15 C 0.3003(4) 1.1476(4) 0.0671(2)
H12 H 0.2847 1.0941 -0.0067
H13 H 0.3813 1.2242 0.0742
C16 C 0.4515(4) 0.5506(3) 0.2467(2)
H14 H 0.5086 0.5696 0.3125
H15 H 0.5107 0.4811 0.1930
H16 H 0.3394 0.5155 0.2506
C17 C 0.1410(4) 1.2052(4) 0.1113(3)
H17 H 0.1005 1.2653 0.0755
H18 H 0.1571 1.2589 0.1841
H19 H 0.0607 1.1291 0.1033
O4 O 0.7288(3) 0.7660(2) 0.58960(17)
C18 C 0.7917(5) 0.6328(4) 0.5554(3)
H20 H 0.8877 0.6314 0.5129
H21 H 0.7071 0.5664 0.5149
H22 H 0.8242 0.6074 0.6144
H23 H 0.628(3) 0.759(5) 0.612(3)
O5 O 0.5984(2) 1.2109(2) 0.33914(14)
C19 C 0.7149(4) 1.2576(3) 0.2813(2)
H24 H 0.7510 1.3531 0.3200
H25 H 0.6640 1.2538 0.2163
H26 H 0.8099 1.1979 0.2676
H27 H 0.651(5) 1.209(5) 0.393(2)
loop_
_geom_bond_atom_site_label_1
_geom_bond_atom_site_label_2
_geom_bond_site_symmetry_1
_geom_bond_site_symmetry_2
N1 N2 1_555 1_555
N2 H1 1_555 1_555
N3 H2 1_555 1_555
C1 C3 1_555 1_555
O1 C3 1_555 1_555
C2 N1 1_555 1_555
H3 C2 1_555 1_555
C3 N2 1_555 1_555
C4 N3 1_555 1_555
C5 C1 1_555 1_555
H4 C5 1_555 1_555
C6 N3 1_555 1_555
C7 C4 1_555 1_555
C8 C1 1_555 1_555
H5 C8 1_555 1_555
C9 C5 1_555 1_555
H6 C9 1_555 1_555
O2 C10 1_555 1_555
C10 C6 1_555 1_555
O3 C10 1_555 1_555
C11 C9 1_555 1_555
H7 C11 1_555 1_555
C12 C8 1_555 1_555
H8 C12 1_555 1_555
C13 C6 1_555 1_555
C14 C13 1_555 1_555
H9 C14 1_555 1_555
H10 C14 1_555 1_555
H11 C14 1_555 1_555
C15 O3 1_555 1_555
H12 C15 1_555 1_555
H13 C15 1_555 1_555
C16 C7 1_555 1_555
H14 C16 1_555 1_555
H15 C16 1_555 1_555
H16 C16 1_555 1_555
C17 C15 1_555 1_555
H17 C17 1_555 1_555
H18 C17 1_555 1_555
H19 C17 1_555 1_555
O4 C18 1_555 1_555
C18 H20 1_555 1_555
H21 C18 1_555 1_555
H22 C18 1_555 1_555
H23 O4 1_555 1_555
O5 C19 1_555 1_555
C19 H24 1_555 1_555
H25 C19 1_555 1_555
H26 C19 1_555 1_555
H27 O5 1_555 1_555
C2 C4 1_555 1_555
C7 C13 1_555 1_555
C11 C12 1_555 1_555

#END
