
#######################################################################
#
#                 Cambridge Crystallographic Data Centre
#                                CCDC 
#
#######################################################################
#
# If this CIF has been generated from an entry in the Cambridge 
# Structural Database, then it will include bibliographic, chemical, 
# crystal, experimental, refinement or atomic coordinate data resulting 
# from the CCDC's data processing and validation procedures.
#
#######################################################################

data_BOYQAJ
_chemical_formula_moiety         'C16 H14 F3 N3 O1 S1'
_chemical_name_systematic        
N-(Furan-2-ylmethyl)-2-trifluoromethyl-5,6,7,8-tetrahydrobenzothieno[2,3-d]pyrimidin-4-amine
_symmetry_cell_setting           monoclinic
_symmetry_space_group_name_H-M   'C 2/c'
_symmetry_Int_Tables_number      15
_space_group_name_Hall           '-C 2yn'
loop_
_symmetry_equiv_pos_site_id
_symmetry_equiv_pos_as_xyz
1 x,y,z
2 -x,y,1/2-z
3 1/2+x,1/2+y,z
4 1/2-x,1/2+y,1/2-z
5 -x,-y,-z
6 x,-y,1/2+z
7 1/2-x,1/2-y,-z
8 1/2+x,1/2-y,1/2+z
_cell_length_a                   26.352(3)
_cell_length_b                   7.5991(8)
_cell_length_c                   17.1423(18)
_cell_angle_alpha                90
_cell_angle_beta                 114.667(2)
_cell_angle_gamma                90
_cell_volume                     3119.53
_exptl_crystal_colour            colorless
_exptl_crystal_description       Block
_chemical_melting_point          '419 K'
_cell_formula_units_Z            8
_exptl_crystal_recrystallization_method acetonitrile
loop_
_atom_site_label
_atom_site_type_symbol
_atom_site_fract_x
_atom_site_fract_y
_atom_site_fract_z
C1 C 0.58941(9) 0.4548(3) 0.24167(13)
C2 C 0.63074(7) 0.4467(2) 0.33450(11)
C3 C 0.64146(7) 0.3956(2) 0.47153(10)
C4 C 0.69854(7) 0.4439(2) 0.50088(10)
C5 C 0.71558(7) 0.4881(2) 0.43615(10)
C6 C 0.74343(7) 0.4586(2) 0.58528(10)
C7 C 0.79168(7) 0.5127(2) 0.58160(11)
C8 C 0.84543(7) 0.5496(3) 0.65797(12)
H1 H 0.8627 0.6545 0.6476
H2 H 0.8710 0.4519 0.6671
C9 C 0.83413(9) 0.5758(3) 0.73749(13)
H3 H 0.8693 0.5770 0.7882
H4 H 0.8160 0.6886 0.7339
C10 C 0.79739(9) 0.4312(3) 0.74581(12)
H5 H 0.7924 0.4488 0.7982
H6 H 0.8159 0.3189 0.7503
C11 C 0.74017(8) 0.4254(3) 0.66972(11)
H7 H 0.7234 0.3110 0.6679
H8 H 0.7162 0.5133 0.6780
C12 C 0.56186(8) 0.2769(3) 0.49591(13)
H9 H 0.5372 0.3409 0.4453
H10 H 0.5484 0.2941 0.5401
C13 C 0.55927(7) 0.0862(3) 0.47487(12)
C14 C 0.53659(9) -0.0078(3) 0.40347(14)
H11 H 0.5156 0.0354 0.3486
C15 C 0.55026(10) -0.1871(3) 0.42632(18)
H12 H 0.5400 -0.2835 0.3896
C16 C 0.58030(11) -0.1893(3) 0.50969(19)
H13 H 0.5951 -0.2903 0.5418
F1 F 0.61272(7) 0.4847(3) 0.18840(8)
F2 F 0.56062(8) 0.3100(3) 0.21572(10)
F3 F 0.55351(8) 0.5830(3) 0.22873(10)
N1 N 0.60787(6) 0.3985(2) 0.38770(9)
N2 N 0.68239(6) 0.4901(2) 0.35141(9)
N3 N 0.61829(6) 0.3495(2) 0.52569(10)
H14 H 0.6414(8) 0.333(3) 0.5772(8)
O1 O 0.58674(7) -0.0239(2) 0.54270(10)
S1 S 0.785141(17) 0.54560(6) 0.47776(3)
loop_
_geom_bond_atom_site_label_1
_geom_bond_atom_site_label_2
_geom_bond_site_symmetry_1
_geom_bond_site_symmetry_2
C1 C2 1_555 1_555
C2 N1 1_555 1_555
C3 C4 1_555 1_555
C4 C5 1_555 1_555
C5 N2 1_555 1_555
C6 C4 1_555 1_555
C7 C6 1_555 1_555
C8 C7 1_555 1_555
H1 C8 1_555 1_555
H2 C8 1_555 1_555
C9 C8 1_555 1_555
H3 C9 1_555 1_555
H4 C9 1_555 1_555
C10 C9 1_555 1_555
H5 C10 1_555 1_555
H6 C10 1_555 1_555
C11 C6 1_555 1_555
H7 C11 1_555 1_555
H8 C11 1_555 1_555
C12 H9 1_555 1_555
H10 C12 1_555 1_555
C13 C12 1_555 1_555
C14 C13 1_555 1_555
H11 C14 1_555 1_555
C15 C14 1_555 1_555
H12 C15 1_555 1_555
C16 C15 1_555 1_555
H13 C16 1_555 1_555
F1 C1 1_555 1_555
F2 C1 1_555 1_555
F3 C1 1_555 1_555
N1 C3 1_555 1_555
N2 C2 1_555 1_555
N3 C3 1_555 1_555
H14 N3 1_555 1_555
O1 C13 1_555 1_555
S1 C5 1_555 1_555
C7 S1 1_555 1_555
C10 C11 1_555 1_555
C12 N3 1_555 1_555
C16 O1 1_555 1_555

#END
