
#######################################################################
#
#                 Cambridge Crystallographic Data Centre
#                                CCDC 
#
#######################################################################
#
# If this CIF has been generated from an entry in the Cambridge 
# Structural Database, then it will include bibliographic, chemical, 
# crystal, experimental, refinement or atomic coordinate data resulting 
# from the CCDC's data processing and validation procedures.
#
#######################################################################

data_BOYQEN
_chemical_formula_moiety         'C20 H27 F3 N4 O3 S1 Si1'
_chemical_name_systematic        
N-(3-Silatranylpropyl)-2-trifluoromethyl-5,6,7,8-tetrahydrobenzothieno[2,3-d]pyrimidin-4-amine
_symmetry_cell_setting           monoclinic
_symmetry_space_group_name_H-M   'P 21/n'
_symmetry_Int_Tables_number      14
_space_group_name_Hall           '-P 2yn'
loop_
_symmetry_equiv_pos_site_id
_symmetry_equiv_pos_as_xyz
1 x,y,z
2 1/2-x,1/2+y,1/2-z
3 -x,-y,-z
4 1/2+x,1/2-y,1/2+z
_cell_length_a                   13.4394(13)
_cell_length_b                   8.9446(9)
_cell_length_c                   18.9657(18)
_cell_angle_alpha                90
_cell_angle_beta                 101.9640(10)
_cell_angle_gamma                90
_cell_volume                     2230.34
_exptl_crystal_colour            colorless
_exptl_crystal_description       Block
_chemical_melting_point          '477 K'
_cell_formula_units_Z            4
_exptl_crystal_recrystallization_method acetonitrile
loop_
_atom_site_label
_atom_site_type_symbol
_atom_site_fract_x
_atom_site_fract_y
_atom_site_fract_z
C1 C 0.09542(12) 0.08955(18) 0.42649(9)
C2 C 0.15545(14) -0.0080(2) 0.38610(10)
H1 H 0.1501 -0.1114 0.4004
H2 H 0.2266 0.0204 0.3984
C3 C 0.11701(16) 0.0061(2) 0.30502(11)
H3 H 0.1361 0.1031 0.2892
H4 H 0.1489 -0.0699 0.2807
C4 C 0.00288(18) -0.0111(3) 0.28459(12)
H5 H -0.0163 -0.1074 0.3012
H6 H -0.0186 -0.0084 0.2325
C5 C -0.05104(16) 0.1119(3) 0.31719(11)
H7 H -0.0532 0.2021 0.2885
H8 H -0.1205 0.0817 0.3168
C6 C 0.00317(13) 0.1434(2) 0.39307(10)
C7 C 0.12444(11) 0.14203(17) 0.49975(9)
C8 C 0.05128(12) 0.2377(2) 0.51791(9)
C9 C 0.14610(13) 0.2868(2) 0.62508(10)
C10 C 0.21289(11) 0.12157(17) 0.55546(9)
C11 C 0.16496(16) 0.3749(3) 0.69457(12)
C12 C 0.38771(12) 0.02583(18) 0.59890(10)
H9 H 0.4207 -0.0697 0.5957
H10 H 0.3776 0.0374 0.6478
C13 C 0.45579(12) 0.15112(19) 0.58190(9)
H11 H 0.4207 0.2455 0.5834
H12 H 0.4657 0.1375 0.5331
C14 C 0.56001(11) 0.16138(18) 0.63251(9)
H13 H 0.5968 0.0691 0.6293
H14 H 0.5505 0.1707 0.6816
C15 C 0.70726(16) 0.3494(2) 0.48779(11)
H15 H 0.6698 0.3429 0.4383
H16 H 0.7743 0.3073 0.4898
C16 C 0.57259(16) 0.6105(2) 0.60403(13)
H17 H 0.5463 0.6669 0.6399
H18 H 0.5358 0.6420 0.5569
C17 C 0.82270(15) 0.3953(2) 0.69664(12)
H19 H 0.8826 0.3337 0.7123
H20 H 0.8183 0.4646 0.7352
N1 N 0.73226(11) 0.51273(16) 0.58928(9)
C18 C 0.7182(4) 0.5048(4) 0.5090(2)
H21 H 0.6581 0.5605 0.4864
H22 H 0.7766 0.5480 0.4938
C19 C 0.6809(3) 0.6446(4) 0.6111(4)
H23 H 0.7106 0.6706 0.6606
H24 H 0.6890 0.7291 0.5807
C20 C 0.8321(3) 0.4826(6) 0.6307(3)
H25 H 0.8677 0.5758 0.6448
H26 H 0.8708 0.4257 0.6021
F1 F 0.23374(16) 0.4803(2) 0.69402(10)
F2 F 0.08195(12) 0.4428(2) 0.70592(9)
F3 F 0.20005(14) 0.29256(19) 0.75177(7)
N2 N 0.22317(11) 0.19893(16) 0.61715(8)
N3 N 0.05843(11) 0.31198(18) 0.58057(8)
N4 N 0.28890(10) 0.02746(16) 0.54866(8)
H27 H 0.2788 -0.0344 0.5132
O1 O 0.65643(10) 0.26416(13) 0.53192(7)
O2 O 0.55453(9) 0.45750(13) 0.61314(7)
O3 O 0.73543(9) 0.30337(13) 0.68275(7)
S1 S -0.05118(3) 0.26004(7) 0.44734(3)
Si1 Si 0.63958(3) 0.32282(5) 0.61241(2)
H28? H 0.6577 0.4051 0.4532
H29? H 0.7431 0.2829 0.4612
C21? C 0.7827(3) 0.4579(5) 0.5319(2)
H30? H 0.8460 0.4075 0.5526
H31? H 0.7972 0.5401 0.5022
C22? C 0.6629(3) 0.6360(5) 0.5706(4)
H32? H 0.6412 0.6430 0.5187
H33? H 0.6962 0.7289 0.5883
C23? C 0.8073(4) 0.5389(4) 0.6594(2)
H34? H 0.8711 0.5761 0.6501
H35? H 0.7806 0.6117 0.6885
H36? H 0.5838 0.6599 0.6506
H37? H 0.5129 0.6549 0.5737
H38? H 0.8782 0.3431 0.6819
H39? H 0.8423 0.4131 0.7481
loop_
_geom_bond_atom_site_label_1
_geom_bond_atom_site_label_2
_geom_bond_site_symmetry_1
_geom_bond_site_symmetry_2
C1 C2 1_555 1_555
C2 H1 1_555 1_555
H2 C2 1_555 1_555
C3 C2 1_555 1_555
H3 C3 1_555 1_555
H4 C3 1_555 1_555
C4 C3 1_555 1_555
H5 C4 1_555 1_555
H6 C4 1_555 1_555
C5 C4 1_555 1_555
H7 C5 1_555 1_555
H8 C5 1_555 1_555
C6 C1 1_555 1_555
C7 C1 1_555 1_555
C8 C7 1_555 1_555
C9 C11 1_555 1_555
C10 C7 1_555 1_555
C11 F1 1_555 1_555
C12 H9 1_555 1_555
H10 C12 1_555 1_555
C13 C12 1_555 1_555
H11 C13 1_555 1_555
H12 C13 1_555 1_555
C14 C13 1_555 1_555
H13 C14 1_555 1_555
H14 C14 1_555 1_555
C15 H15 1_555 1_555
H16 C15 1_555 1_555
C16 H17 1_555 1_555
H18 C16 1_555 1_555
C17 H19 1_555 1_555
H20 C17 1_555 1_555
N1 C18 1_555 1_555
C18 C15 1_555 1_555
H21 C18 1_555 1_555
H22 C18 1_555 1_555
C19 C16 1_555 1_555
H23 C19 1_555 1_555
H24 C19 1_555 1_555
C20 C17 1_555 1_555
H25 C20 1_555 1_555
H26 C20 1_555 1_555
F2 C11 1_555 1_555
F3 C11 1_555 1_555
N2 C9 1_555 1_555
N3 C8 1_555 1_555
N4 C10 1_555 1_555
H27 N4 1_555 1_555
O1 C15 1_555 1_555
O2 C16 1_555 1_555
O3 C17 1_555 1_555
S1 C6 1_555 1_555
Si1 C14 1_555 1_555
C5 C6 1_555 1_555
C8 S1 1_555 1_555
C9 N3 1_555 1_555
C10 N2 1_555 1_555
C12 N4 1_555 1_555
N1 C19 1_555 1_555
N1 C20 1_555 1_555
N1 Si1 1_555 1_555
O1 Si1 1_555 1_555
O2 Si1 1_555 1_555
O3 Si1 1_555 1_555

#END
