
#######################################################################
#
#                 Cambridge Crystallographic Data Centre
#                                CCDC 
#
#######################################################################
#
# If this CIF has been generated from an entry in the Cambridge 
# Structural Database, then it will include bibliographic, chemical, 
# crystal, experimental, refinement or atomic coordinate data resulting 
# from the CCDC's data processing and validation procedures.
#
#######################################################################

data_BOYRIQ
_chemical_formula_moiety         'C22 H26 N1 Na1 O5 S1'
_chemical_name_systematic        
(18)-(O~5~-(2,2')-Diphenylmethano-2~4~-coronand-5)-isothiocyanato-sodium
_symmetry_cell_setting           triclinic
_symmetry_space_group_name_H-M   'P -1'
_symmetry_Int_Tables_number      2
_space_group_name_Hall           '-P 1'
loop_
_symmetry_equiv_pos_site_id
_symmetry_equiv_pos_as_xyz
1 x,y,z
2 -x,-y,-z
_cell_length_a                   8.836(4)
_cell_length_b                   10.950(5)
_cell_length_c                   13.015(6)
_cell_angle_alpha                101.54(8)
_cell_angle_beta                 95.60(7)
_cell_angle_gamma                112.09(9)
_cell_volume                     1122.33
_exptl_crystal_colour            colorless
_chemical_melting_point          168-70deg.C
_cell_formula_units_Z            2
loop_
_atom_site_label
_atom_site_type_symbol
_atom_site_fract_x
_atom_site_fract_y
_atom_site_fract_z
Na1 Na 0.39140 0.16780 0.19570
S1 S 0.17640 0.49260 0.12390
C1 C 0.22570 0.39150 0.18280
N1 N 0.26090 0.31860 0.22390
O1 O 0.40140 0.09670 0.37000
C2 C 0.38450 -0.04220 0.33730
C3 C 0.23460 -0.12590 0.25330
O2 O 0.25980 -0.07330 0.16110
C4 C 0.11700 -0.13500 0.07720
C5 C 0.16900 -0.09240 -0.01930
O3 O 0.24140 0.05290 0.00570
C6 C 0.32950 0.10550 -0.07150
C7 C 0.43020 0.25430 -0.02500
O4 O 0.54460 0.26560 0.06540
C8 C 0.64680 0.40180 0.12310
C9 C 0.76920 0.39550 0.20630
O5 O 0.68140 0.31540 0.27300
C10 C 0.78090 0.31270 0.36210
C11 C 0.91960 0.28360 0.35160
C12 C 1.01620 0.28340 0.44060
C13 C 0.97660 0.31210 0.53870
C14 C 0.83720 0.34000 0.54930
C15 C 0.73530 0.33900 0.45980
C16 C 0.58660 0.37320 0.47380
C17 C 0.45980 0.27770 0.52260
C18 C 0.43040 0.32340 0.62310
C19 C 0.31370 0.23720 0.66920
C20 C 0.22400 0.10360 0.61490
C21 C 0.24990 0.05440 0.51420
C22 C 0.36850 0.14070 0.46960
H1 H 0.48100 -0.04340 0.30980
H2 H 0.37570 -0.08010 0.39800
H3 H 0.13800 -0.11930 0.27730
H4 H 0.22020 -0.21950 0.23640
H5 H 0.07470 -0.23250 0.06350
H6 H 0.03230 -0.10510 0.09690
H7 H 0.07400 -0.12750 -0.07610
H8 H 0.24930 -0.12680 -0.04110
H9 H 0.40160 0.06050 -0.08930
H10 H 0.25270 0.09160 -0.13460
H11 H 0.35970 0.29930 -0.00340
H12 H 0.48930 0.29400 -0.07640
H13 H 0.70350 0.45250 0.07600
H14 H 0.58040 0.44460 0.15590
H15 H 0.83900 0.48590 0.24870
H16 H 0.83650 0.35420 0.17280
H17 H 0.94760 0.26380 0.28260
H18 H 1.11190 0.26310 0.43390
H19 H 1.04560 0.31300 0.60090
H20 H 0.81060 0.36010 0.61880
H21 H 0.53300 0.37000 0.40490
H22 H 0.62560 0.46390 0.51920
H23 H 0.49260 0.41700 0.66170
H24 H 0.29600 0.27130 0.73880
H25 H 0.14300 0.04380 0.64540
H26 H 0.18610 -0.03910 0.47570
loop_
_geom_bond_atom_site_label_1
_geom_bond_atom_site_label_2
_geom_bond_site_symmetry_1
_geom_bond_site_symmetry_2
Na1 N1 1_555 1_555
S1 C1 1_555 1_555
C1 N1 1_555 1_555
O1 Na1 1_555 1_555
C2 O1 1_555 1_555
C3 C2 1_555 1_555
O2 Na1 1_555 1_555
C4 O2 1_555 1_555
C5 C4 1_555 1_555
O3 Na1 1_555 1_555
C6 O3 1_555 1_555
C7 C6 1_555 1_555
O4 Na1 1_555 1_555
C8 O4 1_555 1_555
C9 C8 1_555 1_555
O5 Na1 1_555 1_555
C10 O5 1_555 1_555
C11 C10 1_555 1_555
C12 C11 1_555 1_555
C13 C12 1_555 1_555
C14 C13 1_555 1_555
C15 C10 1_555 1_555
C16 C15 1_555 1_555
C17 C16 1_555 1_555
C18 C17 1_555 1_555
C19 C18 1_555 1_555
C20 C19 1_555 1_555
C21 C20 1_555 1_555
C22 O1 1_555 1_555
H1 C2 1_555 1_555
H2 C2 1_555 1_555
H3 C3 1_555 1_555
H4 C3 1_555 1_555
H5 C4 1_555 1_555
H6 C4 1_555 1_555
H7 C5 1_555 1_555
H8 C5 1_555 1_555
H9 C6 1_555 1_555
H10 C6 1_555 1_555
H11 C7 1_555 1_555
H12 C7 1_555 1_555
H13 C8 1_555 1_555
H14 C8 1_555 1_555
H15 C9 1_555 1_555
H16 C9 1_555 1_555
H17 C11 1_555 1_555
H18 C12 1_555 1_555
H19 C13 1_555 1_555
H20 C14 1_555 1_555
H21 C16 1_555 1_555
H22 C16 1_555 1_555
H23 C18 1_555 1_555
H24 C19 1_555 1_555
H25 C20 1_555 1_555
H26 C21 1_555 1_555
C3 O2 1_555 1_555
C5 O3 1_555 1_555
C7 O4 1_555 1_555
C9 O5 1_555 1_555
C14 C15 1_555 1_555
C17 C22 1_555 1_555
C21 C22 1_555 1_555

#END
