
#######################################################################
#
#                 Cambridge Crystallographic Data Centre
#                                CCDC 
#
#######################################################################
#
# If this CIF has been generated from an entry in the Cambridge 
# Structural Database, then it will include bibliographic, chemical, 
# crystal, experimental, refinement or atomic coordinate data resulting 
# from the CCDC's data processing and validation procedures.
#
#######################################################################

data_BOYREM
_chemical_formula_moiety         'C21 H26 O5'
_chemical_name_systematic        
(18)-(O~5~-(2,2')-Diphenylmethano-2~4~-coronand-5)
_symmetry_cell_setting           monoclinic
_symmetry_space_group_name_H-M   'P 21/c'
_symmetry_Int_Tables_number      14
_space_group_name_Hall           '-P 2ybc'
loop_
_symmetry_equiv_pos_site_id
_symmetry_equiv_pos_as_xyz
1 x,y,z
2 -x,1/2+y,1/2-z
3 -x,-y,-z
4 x,1/2-y,1/2+z
_cell_length_a                   11.569(2)
_cell_length_b                   11.749(2)
_cell_length_c                   14.405(3)
_cell_angle_alpha                90
_cell_angle_beta                 100.62(4)
_cell_angle_gamma                90
_cell_volume                     1924.45
_chemical_melting_point          96-7deg.C
_cell_formula_units_Z            4
loop_
_atom_site_label
_atom_site_type_symbol
_atom_site_fract_x
_atom_site_fract_y
_atom_site_fract_z
O1 O 0.39160 0.48850 0.28530
C1 C 0.46330 0.56360 0.35050
C2 C 0.58270 0.51180 0.37440
O2 O 0.63770 0.51610 0.29480
C3 C 0.74380 0.45530 0.30800
C4 C 0.79580 0.46190 0.22090
O3 O 0.73660 0.38690 0.15260
C5 C 0.76840 0.40130 0.06310
C6 C 0.73250 0.29870 0.00340
O4 O 0.61090 0.27160 -0.01020
C7 C 0.53930 0.34500 -0.07430
C8 C 0.41810 0.29670 -0.09610
O5 O 0.36330 0.31360 -0.01580
C9 C 0.26010 0.25860 -0.01230
C10 C 0.20080 0.19150 -0.08460
C11 C 0.09870 0.13750 -0.07460
C12 C 0.05440 0.15000 0.00570
C13 C 0.11370 0.21730 0.07860
C14 C 0.21660 0.27290 0.07090
C15 C 0.28240 0.34310 0.15120
C16 C 0.22250 0.45240 0.17360
C17 C 0.11160 0.48540 0.12700
C18 C 0.06020 0.58630 0.14940
C19 C 0.12010 0.65440 0.21940
C20 C 0.23120 0.62440 0.26630
C21 C 0.28230 0.52370 0.24340
H1 H 0.46790 0.63680 0.32190
H2 H 0.43040 0.57180 0.40660
H3 H 0.57590 0.43400 0.39300
H4 H 0.62910 0.55340 0.42540
H5 H 0.79780 0.48740 0.36000
H6 H 0.72920 0.37710 0.32130
H7 H 0.87740 0.44140 0.23570
H8 H 0.78830 0.53820 0.19660
H9 H 0.72950 0.46730 0.03270
H10 H 0.85200 0.41110 0.07090
H11 H 0.77590 0.23460 0.03290
H12 H 0.75260 0.31150 -0.05750
H13 H 0.53710 0.41900 -0.04640
H14 H 0.57050 0.35120 -0.13130
H15 H 0.42200 0.21680 -0.10910
H16 H 0.37350 0.33470 -0.15000
H17 H 0.23120 0.18270 -0.14180
H18 H 0.05830 0.09060 -0.12480
H19 H -0.01740 0.11250 0.01220
H20 H 0.08240 0.22520 0.13550
H21 H 0.29460 0.29660 0.20700
H22 H 0.35700 0.36330 0.13580
H23 H 0.06950 0.43740 0.07830
H24 H -0.01640 0.60800 0.11630
H25 H 0.08460 0.72350 0.23610
H26 H 0.27300 0.67310 0.31460
loop_
_geom_bond_atom_site_label_1
_geom_bond_atom_site_label_2
_geom_bond_site_symmetry_1
_geom_bond_site_symmetry_2
O1 C1 1_555 1_555
C1 C2 1_555 1_555
C2 O2 1_555 1_555
O2 C3 1_555 1_555
C3 C4 1_555 1_555
C4 O3 1_555 1_555
O3 C5 1_555 1_555
C5 C6 1_555 1_555
C6 O4 1_555 1_555
O4 C7 1_555 1_555
C7 C8 1_555 1_555
C8 O5 1_555 1_555
O5 C9 1_555 1_555
C9 C10 1_555 1_555
C10 C11 1_555 1_555
C11 C12 1_555 1_555
C12 C13 1_555 1_555
C13 C14 1_555 1_555
C14 C9 1_555 1_555
C15 C14 1_555 1_555
C16 C15 1_555 1_555
C17 C16 1_555 1_555
C18 C17 1_555 1_555
C19 C18 1_555 1_555
C20 C19 1_555 1_555
C21 O1 1_555 1_555
H1 C1 1_555 1_555
H2 C1 1_555 1_555
H3 C2 1_555 1_555
H4 C2 1_555 1_555
H5 C3 1_555 1_555
H6 C3 1_555 1_555
H7 C4 1_555 1_555
H8 C4 1_555 1_555
H9 C5 1_555 1_555
H10 C5 1_555 1_555
H11 C6 1_555 1_555
H12 C6 1_555 1_555
H13 C7 1_555 1_555
H14 C7 1_555 1_555
H15 C8 1_555 1_555
H16 C8 1_555 1_555
H17 C10 1_555 1_555
H18 C11 1_555 1_555
H19 C12 1_555 1_555
H20 C13 1_555 1_555
H21 C15 1_555 1_555
H22 C15 1_555 1_555
H23 C17 1_555 1_555
H24 C18 1_555 1_555
H25 C19 1_555 1_555
H26 C20 1_555 1_555
C16 C21 1_555 1_555
C20 C21 1_555 1_555

#END
