
#######################################################################
#
#                 Cambridge Crystallographic Data Centre
#                                CCDC 
#
#######################################################################
#
# If this CIF has been generated from an entry in the Cambridge 
# Structural Database, then it will include bibliographic, chemical, 
# crystal, experimental, refinement or atomic coordinate data resulting 
# from the CCDC's data processing and validation procedures.
#
#######################################################################

data_BOYXIY
_chemical_formula_moiety         'C12 H6 F6 N2'
_chemical_name_systematic        2',6'-bis(Trifluoromethyl)-2,4'-bipyridine
_symmetry_cell_setting           monoclinic
_symmetry_space_group_name_H-M   'P 21/m'
_symmetry_Int_Tables_number      11
_space_group_name_Hall           '-P 2yb'
loop_
_symmetry_equiv_pos_site_id
_symmetry_equiv_pos_as_xyz
1 x,y,z
2 -x,1/2+y,-z
3 -x,-y,-z
4 x,1/2-y,z
_cell_length_a                   5.0632(16)
_cell_length_b                   15.0923(17)
_cell_length_c                   8.2579(12)
_cell_angle_alpha                90
_cell_angle_beta                 104.839(3)
_cell_angle_gamma                90
_cell_volume                     609.985
_exptl_crystal_colour            colorless
_exptl_crystal_description       block
_cell_formula_units_Z            2
loop_
_atom_site_label
_atom_site_type_symbol
_atom_site_fract_x
_atom_site_fract_y
_atom_site_fract_z
C1 C 0.9713(4) 0.32476(12) 0.3212(2)
C2 C 0.8384(4) 0.32881(12) 0.4427(2)
H1 H 0.7918 0.3835 0.4791
C3 C 0.7694(5) 0.2500 0.5153(3)
C4 C 0.6289(6) 0.2500 0.6468(3)
C5 C 0.4279(4) 0.32565(14) 0.8301(2)
H2 H 0.3842 0.3795 0.8715
C6 C 0.3577(6) 0.2500 0.8962(3)
H3 H 0.2675 0.2500 0.9812
C7 C 1.0488(6) 0.40909(15) 0.2439(4)
F1 F 0.9420(6) 0.47934(15) 0.2924(5)
F2 F 1.3076(7) 0.4118(3) 0.2463(5)
F3 F 0.9478(8) 0.4074(2) 0.0766(4)
N1 N 1.0413(4) 0.2500 0.2512(3)
N2 N 0.5575(3) 0.32651(12) 0.7074(2)
C1C C 0.9713(4) 0.17524(12) 0.3212(2)
C2C C 0.8384(4) 0.17119(12) 0.4427(2)
H1C H 0.7918 0.1165 0.4791
C5C C 0.4279(4) 0.17435(14) 0.8301(2)
H2C H 0.3842 0.1205 0.8715
C7C C 1.0488(6) 0.09091(15) 0.2439(4)
F1C F 0.9420(6) 0.02066(15) 0.2924(5)
F2C F 1.3076(7) 0.0882(3) 0.2463(5)
F3C F 0.9478(8) 0.0926(2) 0.0766(4)
N2C N 0.5575(3) 0.17349(12) 0.7074(2)
F4? F 1.1943(10) 0.4027(3) 0.1428(7)
F5? F 0.8406(7) 0.4533(3) 0.1697(7)
F6? F 1.2212(6) 0.45692(17) 0.3708(4)
C8? C 0.5575(3) 0.32651(12) 0.7074(2)
H4? H 0.5983 0.3802 0.6641
loop_
_geom_bond_atom_site_label_1
_geom_bond_atom_site_label_2
_geom_bond_site_symmetry_1
_geom_bond_site_symmetry_2
C1 C2 1_555 1_555
C2 H1 1_555 1_555
C3 C2 1_555 1_555
C4 C3 1_555 1_555
C5 H2 1_555 1_555
C6 C5 1_555 1_555
H3 C6 1_555 1_555
C7 C1 1_555 1_555
F1 C7 1_555 1_555
F2 C7 1_555 1_555
F3 C7 1_555 1_555
N1 C1 1_555 1_555
N2 C4 1_555 1_555
C1C N1 1_555 1_555
C2C C3 1_555 1_555
H1C C2C 1_555 1_555
C5C C6 1_555 1_555
H2C C5C 1_555 1_555
C7C C1C 1_555 1_555
F1C C7C 1_555 1_555
F2C C7C 1_555 1_555
F3C C7C 1_555 1_555
N2C C4 1_555 1_555
C5 N2 1_555 1_555
C1C C2C 1_555 1_555
C5C N2C 1_555 1_555

#END
