
#######################################################################
#
#                 Cambridge Crystallographic Data Centre
#                                CCDC 
#
#######################################################################
#
# If this CIF has been generated from an entry in the Cambridge 
# Structural Database, then it will include bibliographic, chemical, 
# crystal, experimental, refinement or atomic coordinate data resulting 
# from the CCDC's data processing and validation procedures.
#
#######################################################################

data_BOZKUX
_chemical_formula_moiety         'C15 H25 Cl1 F2 N2 O5'
_chemical_name_systematic        
(2R,3R,3aS,4S,5S)-4,5-Di-t-butoxy-2-(chloro(difluoro)methyl)-3-nitro-hexahydropyrrolo[1,2-b]isoxazole
_symmetry_cell_setting           orthorhombic
_symmetry_space_group_name_H-M   'P 21 21 21'
_symmetry_Int_Tables_number      19
_space_group_name_Hall           'P 2ac 2ab'
loop_
_symmetry_equiv_pos_site_id
_symmetry_equiv_pos_as_xyz
1 x,y,z
2 1/2-x,-y,1/2+z
3 1/2+x,1/2-y,-z
4 -x,1/2+y,1/2-z
_cell_length_a                   12.221(5)
_cell_length_b                   9.598(5)
_cell_length_c                   16.519(5)
_cell_angle_alpha                90
_cell_angle_beta                 90
_cell_angle_gamma                90
_cell_volume                     1937.63
_exptl_crystal_colour            colorless
_exptl_crystal_description       needle
_cell_formula_units_Z            4
loop_
_atom_site_label
_atom_site_type_symbol
_atom_site_fract_x
_atom_site_fract_y
_atom_site_fract_z
Cl1 Cl 0.25986(9) -0.30540(12) -0.36749(8)
F1 F 0.29743(18) -0.1363(3) -0.25508(19)
F2 F 0.19066(19) -0.3052(3) -0.22354(14)
O1 O -0.19807(19) -0.3109(2) -0.11937(13)
O2 O -0.27734(18) -0.1307(3) -0.26886(15)
O3 O 0.0900(2) -0.0403(3) -0.23377(16)
O4 O -0.0195(3) -0.3231(4) -0.44579(18)
O5 O -0.0004(3) -0.1003(4) -0.45288(17)
N1 N -0.0238(2) -0.0585(3) -0.21320(17)
N2 N -0.0027(3) -0.2093(4) -0.41533(19)
C1 C 0.1168(3) -0.1220(4) -0.3034(2)
H1 H 0.143(2) -0.068(3) -0.3485(19)
C2 C 0.0131(3) -0.2018(4) -0.32602(19)
H2 H 0.014(3) -0.278(4) -0.308(2)
C3 C -0.0775(3) -0.1172(4) -0.2849(2)
H3 H -0.098(3) -0.052(4) -0.323(2)
C4 C -0.1776(2) -0.1963(4) -0.25008(18)
H4 H -0.178(4) -0.298(5) -0.269(3)
C5 C -0.1602(3) -0.1892(4) -0.15804(19)
H5 H -0.197(3) -0.122(4) -0.142(2)
C6 C -0.0387(3) -0.1621(4) -0.1486(2)
H6 H -0.017(2) -0.110(3) -0.0936(18)
H7 H 0.003(3) -0.249(4) -0.159(2)
C7 C 0.2140(3) -0.2133(4) -0.2826(2)
C8 C -0.3474(3) -0.1873(5) -0.3316(2)
C9 C -0.2578(3) -0.2956(4) -0.0443(2)
C10 C -0.2850(4) -0.1965(8) -0.4109(3)
H8 H -0.2287 -0.2657 -0.4064
H9 H -0.2525 -0.1078 -0.4228
H10 H -0.3345 -0.2218 -0.4536
C11 C -0.4379(4) -0.0804(6) -0.3397(3)
H11 H -0.4775 -0.0743 -0.2897
H12 H -0.4868 -0.1080 -0.3823
H13 H -0.4067 0.0088 -0.3524
C12 C -0.3923(5) -0.3273(6) -0.3053(5)
H14 H -0.4311 -0.3168 -0.2551
H15 H -0.3330 -0.3917 -0.2980
H16 H -0.4412 -0.3621 -0.3460
C13 C -0.3624(5) -0.2175(8) -0.0585(4)
H17 H -0.3460 -0.1238 -0.0747
H18 H -0.4046 -0.2160 -0.0095
H19 H -0.4036 -0.2629 -0.1004
C14 C -0.2837(5) -0.4421(5) -0.0183(3)
H20 H -0.2169 -0.4910 -0.0071
H21 H -0.3226 -0.4890 -0.0608
H22 H -0.3281 -0.4398 0.0296
C15 C -0.1870(6) -0.2233(8) 0.0177(3)
H23 H -0.1208 -0.2756 0.0255
H24 H -0.2258 -0.2170 0.0680
H25 H -0.1692 -0.1314 -0.0011
loop_
_geom_bond_atom_site_label_1
_geom_bond_atom_site_label_2
_geom_bond_site_symmetry_1
_geom_bond_site_symmetry_2
Cl1 C7 1_555 1_555
F1 C7 1_555 1_555
F2 C7 1_555 1_555
O1 C5 1_555 1_555
O2 C4 1_555 1_555
O3 N1 1_555 1_555
O4 N2 1_555 1_555
O5 N2 1_555 1_555
N1 C3 1_555 1_555
N2 C2 1_555 1_555
C1 O3 1_555 1_555
H1 C1 1_555 1_555
C2 C1 1_555 1_555
H2 C2 1_555 1_555
C3 C2 1_555 1_555
H3 C3 1_555 1_555
C4 C3 1_555 1_555
H4 C4 1_555 1_555
C5 C4 1_555 1_555
H5 C5 1_555 1_555
C6 N1 1_555 1_555
H6 C6 1_555 1_555
H7 C6 1_555 1_555
C7 C1 1_555 1_555
C8 O2 1_555 1_555
C9 O1 1_555 1_555
C10 C8 1_555 1_555
H8 C10 1_555 1_555
H9 C10 1_555 1_555
H10 C10 1_555 1_555
C11 C8 1_555 1_555
H11 C11 1_555 1_555
H12 C11 1_555 1_555
H13 C11 1_555 1_555
C12 C8 1_555 1_555
H14 C12 1_555 1_555
H15 C12 1_555 1_555
H16 C12 1_555 1_555
C13 C9 1_555 1_555
H17 C13 1_555 1_555
H18 C13 1_555 1_555
H19 C13 1_555 1_555
C14 C9 1_555 1_555
H20 C14 1_555 1_555
H21 C14 1_555 1_555
H22 C14 1_555 1_555
C15 C9 1_555 1_555
H23 C15 1_555 1_555
H24 C15 1_555 1_555
H25 C15 1_555 1_555
C5 C6 1_555 1_555

#END
