
#######################################################################
#
#                 Cambridge Crystallographic Data Centre
#                                CCDC 
#
#######################################################################
#
# If this CIF has been generated from an entry in the Cambridge 
# Structural Database, then it will include bibliographic, chemical, 
# crystal, experimental, refinement or atomic coordinate data resulting 
# from the CCDC's data processing and validation procedures.
#
#######################################################################

data_BOZKOR
_chemical_formula_moiety         'C21 H17 F3 N2 O3'
_chemical_name_systematic        
(3S*,4S*,5S*)-2-Benzyl-3-(naphthalen-1-yl)-4-nitro-5-(trifluoromethyl)isoxazolidine
_symmetry_cell_setting           triclinic
_symmetry_space_group_name_H-M   'P -1'
_symmetry_Int_Tables_number      2
_space_group_name_Hall           '-P 1'
loop_
_symmetry_equiv_pos_site_id
_symmetry_equiv_pos_as_xyz
1 x,y,z
2 -x,-y,-z
_cell_length_a                   8.997(5)
_cell_length_b                   9.930(5)
_cell_length_c                   12.251(5)
_cell_angle_alpha                82.950(5)
_cell_angle_beta                 89.430(5)
_cell_angle_gamma                63.550(5)
_cell_volume                     971.296
_exptl_crystal_colour            colorless
_exptl_crystal_description       plate
_cell_formula_units_Z            2
loop_
_atom_site_label
_atom_site_type_symbol
_atom_site_fract_x
_atom_site_fract_y
_atom_site_fract_z
O1 O 0.7333(2) 0.48941(17) 0.82063(15)
O2 O 0.8178(3) 0.0939(3) 1.0838(2)
O3 O 0.6972(4) 0.3332(4) 1.0935(2)
N1 N 0.7086(2) 0.3803(2) 0.76038(16)
N2 N 0.7775(3) 0.2260(3) 1.0467(2)
F1 F 1.0751(2) 0.2862(3) 0.79469(16)
F2 F 1.1280(2) 0.2776(3) 0.96530(17)
F3 F 1.0431(3) 0.4871(3) 0.85900(19)
C1 C 0.8483(3) 0.3964(3) 0.9083(2)
H1 H 0.814(3) 0.458(3) 0.962(2)
C2 C 0.8236(3) 0.2533(3) 0.9314(2)
H2 H 0.922(3) 0.161(3) 0.920(2)
C3 C 0.6746(3) 0.2885(3) 0.8520(2)
H3 H 0.575(3) 0.356(3) 0.889(2)
C4 C 0.6555(3) 0.1538(3) 0.8236(2)
C5 C 0.5255(4) 0.1316(4) 0.8657(3)
H4 H 0.4504 0.2036 0.9063
C6 C 0.4998(5) 0.0062(5) 0.8507(3)
H5 H 0.4086 -0.0033 0.8798
C7 C 0.6067(6) -0.0988(5) 0.7948(4)
H6 H 0.5912 -0.1838 0.7871
C8 C 0.7475(4) -0.0854(3) 0.7450(2)
C9 C 0.8551(7) -0.1911(4) 0.6836(4)
H7 H 0.8396 -0.2757 0.6746
C10 C 0.9815(7) -0.1751(5) 0.6364(4)
H8 H 1.0527 -0.2479 0.5948
C11 C 1.0072(4) -0.0488(4) 0.6494(3)
H9 H 1.0958 -0.0392 0.6158
C12 C 0.9074(3) 0.0597(3) 0.7094(2)
H10 H 0.9273 0.1423 0.7174
C13 C 0.7680(3) 0.0449(3) 0.7615(2)
C14 C 1.0236(4) 0.3616(4) 0.8797(3)
C15 C 0.5615(3) 0.4729(3) 0.6869(2)
H11 H 0.4717 0.5366 0.7294
H12 H 0.5262 0.4069 0.6544
C16 C 0.5953(3) 0.5710(3) 0.5971(2)
C17 C 0.4811(4) 0.7211(3) 0.5700(3)
H13 H 0.3848 0.7618 0.6087
C18 C 0.5104(5) 0.8119(4) 0.4845(3)
H14 H 0.4327 0.9126 0.4662
C19 C 0.6505(6) 0.7547(4) 0.4278(3)
H15 H 0.6692 0.8156 0.3709
C20 C 0.7637(5) 0.6072(4) 0.4553(3)
H16 H 0.8606 0.5676 0.4172
C21 C 0.7364(4) 0.5158(3) 0.5389(2)
H17 H 0.8148 0.4151 0.5561
loop_
_geom_bond_atom_site_label_1
_geom_bond_atom_site_label_2
_geom_bond_site_symmetry_1
_geom_bond_site_symmetry_2
O1 N1 1_555 1_555
O2 N2 1_555 1_555
O3 N2 1_555 1_555
N1 C3 1_555 1_555
N2 C2 1_555 1_555
F1 C14 1_555 1_555
F2 C14 1_555 1_555
F3 C14 1_555 1_555
C1 O1 1_555 1_555
H1 C1 1_555 1_555
C2 C1 1_555 1_555
H2 C2 1_555 1_555
C3 C2 1_555 1_555
H3 C3 1_555 1_555
C4 C3 1_555 1_555
C5 C4 1_555 1_555
H4 C5 1_555 1_555
C6 C5 1_555 1_555
H5 C6 1_555 1_555
C7 C6 1_555 1_555
H6 C7 1_555 1_555
C8 C7 1_555 1_555
C9 C8 1_555 1_555
H7 C9 1_555 1_555
C10 C9 1_555 1_555
H8 C10 1_555 1_555
C11 C10 1_555 1_555
H9 C11 1_555 1_555
C12 C11 1_555 1_555
H10 C12 1_555 1_555
C13 C4 1_555 1_555
C14 C1 1_555 1_555
C15 N1 1_555 1_555
H11 C15 1_555 1_555
H12 C15 1_555 1_555
C16 C15 1_555 1_555
C17 C16 1_555 1_555
H13 C17 1_555 1_555
C18 C17 1_555 1_555
H14 C18 1_555 1_555
C19 C18 1_555 1_555
H15 C19 1_555 1_555
C20 C19 1_555 1_555
H16 C20 1_555 1_555
C21 C16 1_555 1_555
H17 C21 1_555 1_555
C8 C13 1_555 1_555
C12 C13 1_555 1_555
C20 C21 1_555 1_555

#END
