
#######################################################################
#
#                 Cambridge Crystallographic Data Centre
#                                CCDC 
#
#######################################################################
#
# If this CIF has been generated from an entry in the Cambridge 
# Structural Database, then it will include bibliographic, chemical, 
# crystal, experimental, refinement or atomic coordinate data resulting 
# from the CCDC's data processing and validation procedures.
#
#######################################################################

data_BOZLAE
_chemical_formula_moiety         'C21 H17 Cl1 F2 N2 O3'
_chemical_name_systematic        
(3R*,4S*,5S*)-2-Benzyl-5-(chloro(difluoro)methyl)-3-(naphthalen-1-yl)-4-nitroisoxazolidine
_symmetry_cell_setting           triclinic
_symmetry_space_group_name_H-M   'P -1'
_symmetry_Int_Tables_number      2
_space_group_name_Hall           '-P 1'
loop_
_symmetry_equiv_pos_site_id
_symmetry_equiv_pos_as_xyz
1 x,y,z
2 -x,-y,-z
_cell_length_a                   9.307(2)
_cell_length_b                   10.700(2)
_cell_length_c                   10.716(2)
_cell_angle_alpha                66.780(1)
_cell_angle_beta                 79.930(2)
_cell_angle_gamma                81.920(1)
_cell_volume                     962.573
_exptl_crystal_colour            colorless
_exptl_crystal_description       rod
_cell_formula_units_Z            2
loop_
_atom_site_label
_atom_site_type_symbol
_atom_site_fract_x
_atom_site_fract_y
_atom_site_fract_z
Cl1 Cl 0.45104(13) 0.10770(13) 0.65854(11)
F1 F 0.1960(2) 0.2079(3) 0.6162(2)
F2 F 0.2673(3) 0.0196(2) 0.5777(3)
O1 O 0.2440(3) 0.2495(2) 0.3397(2)
O2 O 0.5963(3) 0.4943(3) 0.3527(3)
O3 O 0.6050(3) 0.3545(3) 0.2519(3)
N1 N 0.2568(3) 0.3854(2) 0.2303(2)
N2 N 0.5450(3) 0.4084(3) 0.3294(3)
C1 C 0.3606(4) 0.2332(3) 0.4152(3)
H1 H 0.439(3) 0.188(3) 0.388(3)
C2 C 0.3916(3) 0.3740(3) 0.3988(3)
H2 H 0.384(4) 0.392(3) 0.477(4)
C3 C 0.2769(3) 0.4668(3) 0.3083(3)
H3 H 0.193(4) 0.467(3) 0.369(4)
C4 C 0.1135(4) 0.4199(3) 0.1808(3)
H4 H 0.113(3) 0.516(3) 0.127(3)
H5 H 0.042(4) 0.407(4) 0.256(4)
C5 C 0.3103(4) 0.1445(4) 0.5620(3)
C6 C 0.3126(3) 0.6095(3) 0.2178(3)
C7 C 0.3883(4) 0.6364(4) 0.0897(3)
H6 H 0.4203 0.5647 0.0606
C8 C 0.4184(4) 0.7696(4) 0.0014(4)
H7 H 0.4719 0.7854 -0.0845
C9 C 0.3700(4) 0.8753(4) 0.0407(3)
H8 H 0.3882 0.9636 -0.0196
C10 C 0.2920(3) 0.8533(3) 0.1724(3)
C11 C 0.2403(4) 0.9628(3) 0.2140(4)
H9 H 0.2571 1.0515 0.1537
C12 C 0.1666(5) 0.9412(4) 0.3402(5)
H10 H 0.1326 1.0148 0.3658
C13 C 0.1418(5) 0.8098(4) 0.4314(4)
H11 H 0.0913 0.7958 0.5182
C14 C 0.1902(4) 0.7009(3) 0.3960(3)
H12 H 0.1741 0.6133 0.4597
C15 C 0.2647(3) 0.7183(3) 0.2637(3)
C16 C 0.0929(3) 0.3417(3) 0.0975(3)
C17 C 0.1872(4) 0.3518(4) -0.0208(3)
H13 H 0.2655 0.4061 -0.0471
C18 C 0.1669(4) 0.2830(4) -0.0995(4)
H14 H 0.2314 0.2913 -0.1786
C19 C 0.0533(5) 0.2024(4) -0.0632(4)
H15 H 0.0404 0.1557 -0.1170
C20 C -0.0420(4) 0.1909(4) 0.0538(4)
H16 H -0.1197 0.1361 0.0794
C21 C -0.0224(3) 0.2605(3) 0.1331(4)
H17 H -0.0877 0.2527 0.2117
loop_
_geom_bond_atom_site_label_1
_geom_bond_atom_site_label_2
_geom_bond_site_symmetry_1
_geom_bond_site_symmetry_2
Cl1 C5 1_555 1_555
F1 C5 1_555 1_555
F2 C5 1_555 1_555
O1 N1 1_555 1_555
O2 N2 1_555 1_555
O3 N2 1_555 1_555
N1 C3 1_555 1_555
N2 C2 1_555 1_555
C1 O1 1_555 1_555
H1 C1 1_555 1_555
C2 C1 1_555 1_555
H2 C2 1_555 1_555
C3 C2 1_555 1_555
H3 C3 1_555 1_555
C4 N1 1_555 1_555
H4 C4 1_555 1_555
H5 C4 1_555 1_555
C5 C1 1_555 1_555
C6 C3 1_555 1_555
C7 C6 1_555 1_555
H6 C7 1_555 1_555
C8 C7 1_555 1_555
H7 C8 1_555 1_555
C9 C8 1_555 1_555
H8 C9 1_555 1_555
C10 C9 1_555 1_555
C11 C10 1_555 1_555
H9 C11 1_555 1_555
C12 C11 1_555 1_555
H10 C12 1_555 1_555
C13 C12 1_555 1_555
H11 C13 1_555 1_555
C14 C13 1_555 1_555
H12 C14 1_555 1_555
C15 C6 1_555 1_555
C16 C4 1_555 1_555
C17 C16 1_555 1_555
H13 C17 1_555 1_555
C18 C17 1_555 1_555
H14 C18 1_555 1_555
C19 C18 1_555 1_555
H15 C19 1_555 1_555
C20 C19 1_555 1_555
H16 C20 1_555 1_555
C21 C16 1_555 1_555
H17 C21 1_555 1_555
C10 C15 1_555 1_555
C14 C15 1_555 1_555
C20 C21 1_555 1_555

#END
