
#######################################################################
#
#                 Cambridge Crystallographic Data Centre
#                                CCDC 
#
#######################################################################
#
# If this CIF has been generated from an entry in the Cambridge 
# Structural Database, then it will include bibliographic, chemical, 
# crystal, experimental, refinement or atomic coordinate data resulting 
# from the CCDC's data processing and validation procedures.
#
#######################################################################

data_BOZLEI
_chemical_formula_moiety         'C12 H11 Cl1 F2 N2 O3'
_chemical_name_systematic        
(1S*,2S*,10bS*)-2-(Chloro(difluoro)methyl)-1-nitro-2,5,6,10b-tetrahydro-1H-isoxazolo[3,2-a]isoquinoline
_symmetry_cell_setting           monoclinic
_symmetry_space_group_name_H-M   'P 21/c'
_symmetry_Int_Tables_number      14
_space_group_name_Hall           '-P 2ybc'
loop_
_symmetry_equiv_pos_site_id
_symmetry_equiv_pos_as_xyz
1 x,y,z
2 -x,1/2+y,1/2-z
3 -x,-y,-z
4 x,1/2-y,1/2+z
_cell_length_a                   16.001(1)
_cell_length_b                   9.057(1)
_cell_length_c                   9.151(4)
_cell_angle_alpha                90
_cell_angle_beta                 102.300(2)
_cell_angle_gamma                90
_cell_volume                     1295.73
_exptl_crystal_colour            colorless
_cell_formula_units_Z            4
loop_
_atom_site_label
_atom_site_type_symbol
_atom_site_fract_x
_atom_site_fract_y
_atom_site_fract_z
O1 O 0.64240(16) -0.1549(3) 0.4984(2)
O2 O 0.8076(2) 0.1395(3) 0.4752(3)
O3 O 0.8297(2) 0.0835(4) 0.2584(4)
N1 N 0.70631(18) -0.2688(3) 0.4986(3)
N2 N 0.7959(2) 0.0635(3) 0.3626(4)
C1 C 0.6582(3) -0.0328(5) 0.4104(4)
H1 H 0.667(2) 0.048(4) 0.456(3)
C2 C 0.7390(2) -0.0668(4) 0.3560(4)
H2 H 0.730(2) -0.102(4) 0.261(4)
C3 C 0.7795(2) -0.1880(4) 0.4691(3)
H3 H 0.8025(18) -0.137(3) 0.559(3)
C4 C 0.6723(2) -0.3749(4) 0.3794(3)
H4 H 0.6600 -0.3256 0.2831
H5 H 0.6198 -0.4185 0.3963
C5 C 0.7389(3) -0.4929(4) 0.3814(4)
H6 H 0.7447 -0.5503 0.4725
H7 H 0.7201 -0.5590 0.2974
C6 C 0.8244(2) -0.4294(4) 0.3731(3)
C7 C 0.8856(3) -0.5135(4) 0.3233(4)
H8 H 0.8728 -0.6102 0.2922
C8 C 0.9645(3) -0.4559(5) 0.3195(4)
H9 H 1.0045 -0.5132 0.2851
C9 C 0.9843(3) -0.3145(5) 0.3663(4)
H10 H 1.0379 -0.2759 0.3643
C10 C 0.9247(2) -0.2285(4) 0.4165(4)
H11 H 0.9385 -0.1327 0.4494
C11 C 0.8443(2) -0.2851(4) 0.4179(3)
C12 C 0.5789(3) -0.0040(5) 0.2862(4)
Cl1 Cl 0.59513(9) 0.15146(15) 0.18002(14)
F1 F 0.55955(15) -0.1161(3) 0.1912(2)
F2 F 0.51085(17) 0.0217(4) 0.3450(3)
loop_
_geom_bond_atom_site_label_1
_geom_bond_atom_site_label_2
_geom_bond_site_symmetry_1
_geom_bond_site_symmetry_2
O1 N1 1_555 1_555
O2 N2 1_555 1_555
O3 N2 1_555 1_555
N1 C3 1_555 1_555
N2 C2 1_555 1_555
C1 O1 1_555 1_555
H1 C1 1_555 1_555
C2 C1 1_555 1_555
H2 C2 1_555 1_555
C3 C2 1_555 1_555
H3 C3 1_555 1_555
C4 N1 1_555 1_555
H4 C4 1_555 1_555
H5 C4 1_555 1_555
C5 C4 1_555 1_555
H6 C5 1_555 1_555
H7 C5 1_555 1_555
C6 C5 1_555 1_555
C7 C6 1_555 1_555
H8 C7 1_555 1_555
C8 C7 1_555 1_555
H9 C8 1_555 1_555
C9 C8 1_555 1_555
H10 C9 1_555 1_555
C10 C9 1_555 1_555
H11 C10 1_555 1_555
C11 C3 1_555 1_555
C12 C1 1_555 1_555
Cl1 C12 1_555 1_555
F1 C12 1_555 1_555
F2 C12 1_555 1_555
C6 C11 1_555 1_555
C10 C11 1_555 1_555

#END
