
#######################################################################
#
#                 Cambridge Crystallographic Data Centre
#                                CCDC 
#
#######################################################################
#
# If this CIF has been generated from an entry in the Cambridge 
# Structural Database, then it will include bibliographic, chemical, 
# crystal, experimental, refinement or atomic coordinate data resulting 
# from the CCDC's data processing and validation procedures.
#
#######################################################################

data_BOZXIY
_chemical_formula_moiety         'C28 H26 Cl1 N1 O5 S2,0.5(C4 H10 O1)'
_chemical_name_systematic        
'cis-11-(4-Chlorophenyl)-8-(1,3-dithiolan-2-ylidene)-3,3-dimethyl-7-(4-nitrophenyl)spiro[5.5]undecane-1,5,9-trione diethyl ether solvate'
_symmetry_cell_setting           orthorhombic
_symmetry_space_group_name_H-M   'P b c a'
_symmetry_Int_Tables_number      61
_space_group_name_Hall           '-P 2ac 2ab'
loop_
_symmetry_equiv_pos_site_id
_symmetry_equiv_pos_as_xyz
1 x,y,z
2 1/2-x,-y,1/2+z
3 -x,1/2+y,1/2-z
4 1/2+x,1/2-y,-z
5 -x,-y,-z
6 1/2+x,y,1/2-z
7 x,1/2-y,1/2+z
8 1/2-x,1/2+y,z
_cell_length_a                   10.9199(1)
_cell_length_b                   13.5197(2)
_cell_length_c                   40.2340(5)
_cell_angle_alpha                90
_cell_angle_beta                 90
_cell_angle_gamma                90
_cell_volume                     5939.9
_exptl_crystal_colour            yellow
_chemical_melting_point          '188-190 deg.C'
_cell_formula_units_Z            8
loop_
_atom_site_label
_atom_site_type_symbol
_atom_site_fract_x
_atom_site_fract_y
_atom_site_fract_z
C29 C 0.2553(7) 0.9047(6) 0.2456(2)
H1 H 0.2111 0.9646 0.2399
H2 H 0.2060 0.8531 0.2355
C30 C 0.493(2) 0.8982(6) 0.2285(2)
H3 H 0.5119 0.9543 0.2421
H4 H 0.4057 0.8934 0.2257
H5 H 0.5230 0.8391 0.2389
C31 C 0.3481(9) 0.9138(6) 0.2116(5)
H6 H 0.4319 0.9057 0.2183
H7 H 0.3377 0.9776 0.2015
H8 H 0.3269 0.8632 0.1959
C32 C 0.5363(19) 0.9066(7) 0.2035(4)
H9 H 0.5158 0.8537 0.1882
H10 H 0.5212 0.9706 0.1934
O6 O 0.1899(10) 0.8951(8) 0.2788(3)
C1 C 1.0117(2) 1.1342(2) 0.21259(6)
C2 C 0.9915(2) 1.10005(16) 0.14525(6)
C3 C 0.8877(2) 1.10399(18) 0.16535(6)
C4 C 1.1061(2) 1.11716(18) 0.15962(6)
C5 C 1.1166(2) 1.1337(2) 0.19351(7)
C6 C 0.8636(2) 0.66424(17) 0.02758(6)
C7 C 0.9375(2) 0.84979(17) 0.04942(5)
C8 C 0.9870(2) 0.68515(18) 0.02969(6)
C9 C 0.8131(2) 0.82604(18) 0.04646(6)
C10 C 1.0233(2) 0.77803(18) 0.04062(6)
C11 C 0.7757(2) 0.73342(18) 0.03574(6)
C12 C 1.0565(2) 1.13811(17) 0.08530(6)
C13 C 0.9753(2) 1.07672(17) 0.10827(5)
C14 C 1.0051(2) 0.78160(18) 0.14654(6)
C15 C 0.8834(2) 0.80626(19) 0.12945(7)
C16 C 0.8715(2) 0.91080(17) 0.11697(5)
C17 C 1.1103(2) 0.81173(18) 0.12357(6)
C18 C 1.1061(2) 0.91862(17) 0.11323(5)
C19 C 1.0547(2) 1.42754(19) 0.06897(8)
C20 C 1.0521(2) 1.23869(17) 0.08601(6)
C21 C 1.0103(2) 1.42433(19) 0.10429(8)
C22 C 1.0146(3) 0.8366(2) 0.17964(7)
C23 C 1.0110(3) 0.6700(2) 0.15253(8)
C24 C 0.9837(2) 0.96282(16) 0.10140(6)
C25 C 0.9729(2) 0.95129(17) 0.06233(6)
C26 C 1.0890(2) 0.99167(17) 0.04630(6)
C27 C 1.1304(2) 1.09128(17) 0.05938(6)
C28 C 0.8966(2) 1.1208(2) 0.19919(6)
Cl1 Cl 0.81690(6) 0.54792(4) 0.013543(15)
H11 H 0.892(2) 1.0929(18) 0.1034(6)
H12 H 1.156(3) 0.941(2) 0.0489(8)
H13 H 0.874(2) 0.766(2) 0.1091(7)
H14 H 1.106(3) 0.790(2) 0.0414(7)
H15 H 1.103(3) 0.773(2) 0.1031(7)
H16 H 1.190(3) 0.803(2) 0.1331(8)
H17 H 0.691(2) 0.7207(19) 0.0333(6)
H18 H 1.047(3) 0.642(2) 0.0228(7)
H19 H 1.075(2) 1.0001(19) 0.0235(7)
H20 H 0.749(3) 0.873(2) 0.0530(6)
H21 H 0.814(3) 0.794(2) 0.1433(8)
H22 H 0.911(3) 0.992(2) 0.0577(7)
H23 H 1.004(3) 0.633(2) 0.1301(8)
H24 H 1.111(3) 1.479(3) 0.0662(8)
H25 H 1.076(3) 1.432(2) 0.1202(8)
H26 H 0.987(3) 1.427(2) 0.0528(8)
H27 H 0.809(2) 1.0907(19) 0.1561(7)
H28 H 1.089(3) 0.647(2) 0.1634(8)
H29 H 0.945(3) 1.463(2) 0.1089(8)
H30 H 1.180(3) 1.111(2) 0.1468(8)
H31 H 0.940(3) 0.645(3) 0.1656(9)
H32 H 1.014(3) 0.910(3) 0.1782(8)
H33 H 0.944(4) 0.825(3) 0.1945(11)
H34 H 1.091(4) 0.829(3) 0.1904(10)
H35 H 0.830(3) 1.124(2) 0.2106(8)
H36 H 1.189(3) 1.145(3) 0.2021(9)
N1 N 1.0215(2) 1.1488(2) 0.24877(6)
O1 O 1.19730(14) 0.96929(13) 0.11292(4)
O2 O 0.77412(15) 0.95331(13) 0.11746(5)
O3 O 0.9275(2) 1.1499(2) 0.26522(5)
O4 O 1.1235(2) 1.1590(2) 0.26082(6)
O5 O 1.21873(16) 1.13213(13) 0.04649(5)
S1 S 0.94838(6) 1.30189(4) 0.111300(17)
S2 S 1.14017(5) 1.31564(4) 0.060452(15)
loop_
_geom_bond_atom_site_label_1
_geom_bond_atom_site_label_2
_geom_bond_site_symmetry_1
_geom_bond_site_symmetry_2
C1 C5 1_555 1_555
C2 C3 1_555 1_555
C3 C28 1_555 1_555
C4 C2 1_555 1_555
C5 C4 1_555 1_555
C6 C8 1_555 1_555
C7 C9 1_555 1_555
C8 C10 1_555 1_555
C9 C11 1_555 1_555
C10 C7 1_555 1_555
C11 C6 1_555 1_555
C12 C13 1_555 1_555
C13 C2 1_555 1_555
C14 C15 1_555 1_555
C15 C16 1_555 1_555
C16 C24 1_555 1_555
C17 C14 1_555 1_555
C18 C17 1_555 1_555
C19 C21 1_555 1_555
C20 C12 1_555 1_555
C21 H25 1_555 1_555
C22 C14 1_555 1_555
C23 C14 1_555 1_555
C24 C13 1_555 1_555
C25 C7 1_555 1_555
C26 C25 1_555 1_555
C27 C12 1_555 1_555
C28 C1 1_555 1_555
C29 H1 1_555 1_555
H2 C29 1_555 1_555
C30 H3 1_555 1_555
H4 C30 1_555 1_555
H5 C30 1_555 1_555
C31 C29 1_555 1_555
H6 C30 1_555 1_555
H7 C31 1_555 1_555
H8 C31 1_555 1_555
C32 C30 1_555 1_555
H9 C32 1_555 1_555
H10 C32 1_555 1_555
Cl1 C6 1_555 1_555
H11 C13 1_555 1_555
H12 C26 1_555 1_555
H13 C15 1_555 1_555
H14 C10 1_555 1_555
H15 C17 1_555 1_555
H16 C17 1_555 1_555
H17 C11 1_555 1_555
H18 C8 1_555 1_555
H19 C26 1_555 1_555
H20 C9 1_555 1_555
H21 C15 1_555 1_555
H22 C25 1_555 1_555
H23 C23 1_555 1_555
H24 C19 1_555 1_555
H26 C19 1_555 1_555
H27 C3 1_555 1_555
H28 C23 1_555 1_555
H29 C21 1_555 1_555
H30 C4 1_555 1_555
H31 C23 1_555 1_555
H32 C22 1_555 1_555
H33 C22 1_555 1_555
H34 C22 1_555 1_555
H35 C28 1_555 1_555
H36 C5 1_555 1_555
N1 C1 1_555 1_555
O1 C18 1_555 1_555
O2 C16 1_555 1_555
O3 N1 1_555 1_555
O4 N1 1_555 1_555
O5 C27 1_555 1_555
O6 C29 1_555 1_555
S1 C20 1_555 1_555
S2 C19 1_555 1_555
C18 C24 1_555 1_555
C20 S2 1_555 1_555
C21 S1 1_555 1_555
C24 C25 1_555 1_555
C26 C27 1_555 1_555
C30 C31 1_555 1_555
H4 C31 1_555 1_555
H4 H6 1_555 1_555
C31 H6 1_555 1_555
H6 C32 1_555 1_555

#END
