
#######################################################################
#
#                 Cambridge Crystallographic Data Centre
#                                CCDC 
#
#######################################################################
#
# If this CIF has been generated from an entry in the Cambridge 
# Structural Database, then it will include bibliographic, chemical, 
# crystal, experimental, refinement or atomic coordinate data resulting 
# from the CCDC's data processing and validation procedures.
#
#######################################################################

data_BOZZUN
_chemical_formula_moiety         'C18 H20 N4'
_chemical_name_systematic        
N,N'-cyclohexane-1,2-diylbis(1-(pyridin-3-yl)methanimine)
_symmetry_cell_setting           orthorhombic
_symmetry_space_group_name_H-M   'P b c n'
_symmetry_Int_Tables_number      60
_space_group_name_Hall           '-P 2n 2ab'
loop_
_symmetry_equiv_pos_site_id
_symmetry_equiv_pos_as_xyz
1 x,y,z
2 1/2-x,1/2-y,1/2+z
3 1/2+x,1/2-y,-z
4 -x,y,1/2-z
5 -x,-y,-z
6 1/2+x,1/2+y,1/2-z
7 1/2-x,1/2+y,z
8 x,-y,1/2+z
_cell_length_a                   19.102(5)
_cell_length_b                   9.274(2)
_cell_length_c                   9.508(3)
_cell_angle_alpha                90
_cell_angle_beta                 90
_cell_angle_gamma                90
_cell_volume                     1684.36
_cell_formula_units_Z            4
loop_
_atom_site_label
_atom_site_type_symbol
_atom_site_fract_x
_atom_site_fract_y
_atom_site_fract_z
C1 C 0.03640(11) -0.4093(2) 0.2819(3)
H1 H 0.0618 -0.4939 0.2503
H2 H 0.0329 -0.4133 0.3836
C2 C 0.07596(10) -0.27363(19) 0.2384(2)
H3 H 0.1218 -0.2738 0.2824
H4 H 0.0827 -0.2743 0.1373
C3 C 0.03700(8) -0.13697(17) 0.28033(18)
H5 H 0.0345 -0.1311 0.3831
C4 C 0.10278(8) 0.07371(17) 0.31282(18)
H6 H 0.0978 0.0556 0.4085
C5 C 0.14287(8) 0.20066(17) 0.26773(16)
C6 C 0.14526(9) 0.24452(18) 0.12933(19)
H7 H 0.1204 0.1945 0.0608
C7 C 0.22145(10) 0.4323(2) 0.1957(2)
H8 H 0.2482 0.5117 0.1698
N1 N 0.22138(9) 0.3938(2) 0.3295(2)
C8 C 0.18207(9) 0.2794(2) 0.3625(2)
H9 H 0.1811 0.2507 0.4563
N2 N 0.07488(7) -0.01141(15) 0.22624(14)
C9 C 0.18466(10) 0.36279(19) 0.0934(2)
H10 H 0.1862 0.3949 0.0008
C1C C -0.03640(11) -0.4093(2) 0.2181(3)
H1C H -0.0618 -0.4939 0.2497
H2C H -0.0329 -0.4133 0.1164
C2C C -0.07596(10) -0.27363(19) 0.2616(2)
H3C H -0.1218 -0.2738 0.2176
H4C H -0.0827 -0.2743 0.3627
C3C C -0.03700(8) -0.13697(17) 0.21967(18)
H5C H -0.0345 -0.1311 0.1169
C4C C -0.10278(8) 0.07371(17) 0.18718(18)
H6C H -0.0978 0.0556 0.0915
C5C C -0.14287(8) 0.20066(17) 0.23227(16)
C6C C -0.14526(9) 0.24452(18) 0.37067(19)
H7C H -0.1204 0.1945 0.4392
C7C C -0.22145(10) 0.4323(2) 0.3043(2)
H8C H -0.2482 0.5117 0.3302
N1C N -0.22138(9) 0.3938(2) 0.1705(2)
C8C C -0.18207(9) 0.2794(2) 0.1375(2)
H9C H -0.1811 0.2507 0.0437
N2C N -0.07488(7) -0.01141(15) 0.27376(14)
C9C C -0.18466(10) 0.36279(19) 0.4066(2)
H10C H -0.1862 0.3949 0.4992
loop_
_geom_bond_atom_site_label_1
_geom_bond_atom_site_label_2
_geom_bond_site_symmetry_1
_geom_bond_site_symmetry_2
C1 H1 1_555 1_555
H2 C1 1_555 1_555
C2 C1 1_555 1_555
H3 C2 1_555 1_555
H4 C2 1_555 1_555
C3 C2 1_555 1_555
H5 C3 1_555 1_555
C4 H6 1_555 1_555
C5 C4 1_555 1_555
C6 C5 1_555 1_555
H7 C6 1_555 1_555
C7 H8 1_555 1_555
N1 C7 1_555 1_555
C8 C5 1_555 1_555
H9 C8 1_555 1_555
N2 C3 1_555 1_555
C9 C6 1_555 1_555
H10 C9 1_555 1_555
C1C C1 1_555 1_555
H1C C1C 1_555 1_555
H2C C1C 1_555 1_555
C2C C1C 1_555 1_555
H3C C2C 1_555 1_555
H4C C2C 1_555 1_555
C3C C3 1_555 1_555
H5C C3C 1_555 1_555
C4C H6C 1_555 1_555
C5C C4C 1_555 1_555
C6C C5C 1_555 1_555
H7C C6C 1_555 1_555
C7C H8C 1_555 1_555
N1C C7C 1_555 1_555
C8C C5C 1_555 1_555
H9C C8C 1_555 1_555
N2C C3C 1_555 1_555
C9C C6C 1_555 1_555
H10C C9C 1_555 1_555
C4 N2 1_555 1_555
C7 C9 1_555 1_555
N1 C8 1_555 1_555
C2C C3C 1_555 1_555
C4C N2C 1_555 1_555
C7C C9C 1_555 1_555
N1C C8C 1_555 1_555

#END
