
#######################################################################
#
#                 Cambridge Crystallographic Data Centre
#                                CCDC 
#
#######################################################################
#
# If this CIF has been generated from an entry in the Cambridge 
# Structural Database, then it will include bibliographic, chemical, 
# crystal, experimental, refinement or atomic coordinate data resulting 
# from the CCDC's data processing and validation procedures.
#
#######################################################################

data_BPROGE
_chemical_name_common            6beta-Bromo-cdelta(4)-pregnene-3,20-dione
_chemical_formula_moiety         'C21 H29 Br1 O2'
_chemical_name_systematic        6\b-Bromo-progesterone
_symmetry_cell_setting           orthorhombic
_symmetry_space_group_name_H-M   'P 21 21 21'
_symmetry_Int_Tables_number      19
_space_group_name_Hall           'P 2ac 2ab'
loop_
_symmetry_equiv_pos_site_id
_symmetry_equiv_pos_as_xyz
1 x,y,z
2 1/2+x,1/2-y,-z
3 -x,1/2+y,1/2-z
4 1/2-x,-y,1/2+z
_cell_length_a                   13.431(2)
_cell_length_b                   18.288(4)
_cell_length_c                   7.645(1)
_cell_angle_alpha                90
_cell_angle_beta                 90
_cell_angle_gamma                90
_cell_volume                     1877.81
_cell_formula_units_Z            4
loop_
_atom_site_label
_atom_site_type_symbol
_atom_site_fract_x
_atom_site_fract_y
_atom_site_fract_z
Br1 Br -0.33930 0.25470 1.05790
C1 C -0.20150 0.18680 0.46110
C2 C -0.23250 0.23330 0.62290
C3 C -0.16680 0.35400 0.49640
C4 C -0.08720 0.41560 0.50950
C5 C -0.08900 0.45220 0.69040
C6 C -0.07310 0.39150 0.82590
C7 C -0.05140 0.43220 0.99500
C8 C 0.00650 0.50070 0.93460
C9 C -0.00020 0.50240 0.73590
C10 C -0.18740 0.49340 0.71800
C11 C -0.33930 0.26400 0.59520
C12 C -0.26470 0.11750 0.44230
C13 C -0.00630 0.57870 0.65690
C14 C -0.00250 0.58630 0.46000
C15 C -0.27050 0.07440 0.60530
C16 C -0.25090 0.11130 0.76810
C17 C -0.23270 0.18380 0.78340
C18 C -0.21270 0.21500 0.96170
C19 C -0.13660 0.27450 0.96400
C20 C -0.15370 0.33220 0.82350
C21 C -0.15450 0.29660 0.64330
H1 H -0.12240 0.17090 0.50070
H2 H -0.20720 0.21590 0.37080
H3 H -0.14240 0.34130 0.39960
H4 H -0.22990 0.37000 0.49890
H5 H -0.01560 0.39890 0.50050
H6 H -0.10940 0.44560 0.43760
H7 H -0.01100 0.36540 0.80630
H8 H -0.02080 0.40450 1.08550
H9 H -0.11650 0.44650 1.04400
H10 H 0.07580 0.49490 0.95830
H11 H -0.01820 0.52840 0.96320
H12 H 0.05340 0.48690 0.69760
H13 H -0.19730 0.53460 0.61690
H14 H -0.24580 0.46650 0.70800
H15 H -0.18450 0.51050 0.82080
H16 H -0.35020 0.28130 0.47480
H17 H -0.34960 0.30080 0.66880
H18 H -0.39420 0.21720 0.62330
H19 H -0.23650 0.08370 0.34400
H20 H -0.31890 0.12950 0.41570
H21 H 0.00270 0.64310 0.44430
H22 H -0.07300 0.57130 0.39920
H23 H 0.03170 0.56790 0.46330
H24 H -0.24840 0.09260 0.86410
H25 H -0.18810 0.17430 1.06140
H26 H -0.07580 0.25820 0.92590
H27 H -0.12530 0.29550 1.08450
H28 H -0.21220 0.35170 0.83230
H29 H -0.09300 0.27490 0.63800
O1 O -0.01430 0.63320 0.74780
O2 O -0.29520 0.00960 0.60280
loop_
_geom_bond_atom_site_label_1
_geom_bond_atom_site_label_2
_geom_bond_site_symmetry_1
_geom_bond_site_symmetry_2
Br1 C18 1_555 1_555
C1 C2 1_555 1_555
C2 C11 1_555 1_555
C3 C4 1_555 1_555
C4 C5 1_555 1_555
C5 C6 1_555 1_555
C6 C7 1_555 1_555
C7 C8 1_555 1_555
C8 C9 1_555 1_555
C9 C5 1_555 1_555
C10 C5 1_555 1_555
C11 H16 1_555 1_555
C12 C1 1_555 1_555
C13 C9 1_555 1_555
C14 C13 1_555 1_555
C15 C12 1_555 1_555
C16 C15 1_555 1_555
C17 C2 1_555 1_555
C18 C17 1_555 1_555
C19 C18 1_555 1_555
C20 C6 1_555 1_555
C21 C2 1_555 1_555
H1 C1 1_555 1_555
H2 C1 1_555 1_555
H3 C3 1_555 1_555
H4 C3 1_555 1_555
H5 C4 1_555 1_555
H6 C4 1_555 1_555
H7 C6 1_555 1_555
H8 C7 1_555 1_555
H9 C7 1_555 1_555
H10 C8 1_555 1_555
H11 C8 1_555 1_555
H12 C9 1_555 1_555
H13 C10 1_555 1_555
H14 C10 1_555 1_555
H15 C10 1_555 1_555
H17 C11 1_555 1_555
H18 C11 1_555 1_555
H19 C12 1_555 1_555
H20 C12 1_555 1_555
H21 C14 1_555 1_555
H22 C14 1_555 1_555
H23 C14 1_555 1_555
H24 C16 1_555 1_555
H25 C18 1_555 1_555
H26 C19 1_555 1_555
H27 C19 1_555 1_555
H28 C20 1_555 1_555
H29 C21 1_555 1_555
O1 C13 1_555 1_555
O2 C15 1_555 1_555
C3 C21 1_555 1_555
C16 C17 1_555 1_555
C19 C20 1_555 1_555
C20 C21 1_555 1_555

#END
