
#######################################################################
#
#                 Cambridge Crystallographic Data Centre
#                                CCDC 
#
#######################################################################
#
# If this CIF has been generated from an entry in the Cambridge 
# Structural Database, then it will include bibliographic, chemical, 
# crystal, experimental, refinement or atomic coordinate data resulting 
# from the CCDC's data processing and validation procedures.
#
#######################################################################

data_BRBUAB
_chemical_formula_moiety         'C28 H40 Br2 N2'
_chemical_name_systematic        
6,6'-Dibromo-2,2',4,4'-tetra-t-butylazobenzene
_symmetry_cell_setting           orthorhombic
_symmetry_space_group_name_H-M   'P b c n'
_symmetry_Int_Tables_number      60
_space_group_name_Hall           '-P 2n 2ab'
loop_
_symmetry_equiv_pos_site_id
_symmetry_equiv_pos_as_xyz
1 x,y,z
2 1/2-x,1/2-y,1/2+z
3 1/2+x,1/2-y,-z
4 -x,y,1/2-z
5 -x,-y,-z
6 1/2+x,1/2+y,1/2-z
7 1/2-x,1/2+y,z
8 x,-y,1/2+z
_cell_length_a                   12.891(2)
_cell_length_b                   11.277(2)
_cell_length_c                   20.039(5)
_cell_angle_alpha                90
_cell_angle_beta                 90
_cell_angle_gamma                90
_cell_volume                     2913.11
_exptl_crystal_colour            orange-red
_cell_formula_units_Z            4
loop_
_atom_site_label
_atom_site_type_symbol
_atom_site_fract_x
_atom_site_fract_y
_atom_site_fract_z
Br1 Br 0.09488 0.10360 0.16538
N1 N -0.04589 0.29859 0.23973
C1 C -0.05435 0.29540 0.16872
C2 C -0.13168 0.36640 0.13813
C3 C -0.13950 0.36010 0.06956
C4 C -0.07975 0.28710 0.02931
C5 C -0.00860 0.21530 0.06058
C6 C 0.00370 0.21940 0.12875
C7 C -0.20498 0.44610 0.17955
C8 C -0.09690 0.28400 -0.04653
C9 C -0.14550 0.53030 0.22460
C10 C -0.27500 0.52270 0.13500
C11 C -0.27630 0.36620 0.22139
C12 C -0.11200 0.40710 -0.07413
C13 C -0.19480 0.20580 -0.05979
C14 C -0.00680 0.22030 -0.08319
H1 H -0.18500 0.40480 0.05130
H2 H 0.02640 0.15380 0.03790
H3 H -0.09920 0.57630 0.20720
H4 H -0.18670 0.58420 0.24650
H5 H -0.10630 0.49200 0.26130
H6 H -0.32120 0.47400 0.10670
H7 H -0.23790 0.57200 0.10530
H8 H -0.32000 0.57200 0.16390
H9 H -0.31290 0.31800 0.19150
H10 H -0.32310 0.40800 0.24540
H11 H -0.24230 0.32100 0.25390
H12 H -0.17500 0.43200 -0.05800
H13 H -0.04500 0.44200 -0.06780
H14 H -0.11700 0.40000 -0.11870
H15 H -0.23690 0.26100 -0.04730
H16 H -0.16000 0.13300 -0.04670
H17 H -0.20100 0.22000 -0.11340
H18 H 0.03390 0.29830 -0.07630
H19 H -0.01600 0.12900 -0.06580
H20 H -0.02400 0.23700 -0.13150
N1C N 0.04589 0.29859 0.26027
C1C C 0.05435 0.29540 0.33128
C2C C 0.13168 0.36640 0.36187
C6C C -0.00370 0.21940 0.37125
C3C C 0.13950 0.36010 0.43044
C7C C 0.20498 0.44610 0.32045
Br1C Br -0.09488 0.10360 0.33462
C5C C 0.00860 0.21530 0.43942
C4C C 0.07975 0.28710 0.47069
H1C H 0.18500 0.40480 0.44870
C9C C 0.14550 0.53030 0.27540
C10C C 0.27500 0.52270 0.36500
C11C C 0.27630 0.36620 0.27861
H2C H -0.02640 0.15380 0.46210
C8C C 0.09690 0.28400 0.54653
H3C H 0.09920 0.57630 0.29280
H4C H 0.18670 0.58420 0.25350
H5C H 0.10630 0.49200 0.23870
H6C H 0.32120 0.47400 0.39330
H7C H 0.23790 0.57200 0.39470
H8C H 0.32000 0.57200 0.33610
H9C H 0.31290 0.31800 0.30850
H10C H 0.32310 0.40800 0.25460
H11C H 0.24230 0.32100 0.24610
C12C C 0.11200 0.40710 0.57413
C13C C 0.19480 0.20580 0.55979
C14C C 0.00680 0.22030 0.58319
H12C H 0.17500 0.43200 0.55800
H13C H 0.04500 0.44200 0.56780
H14C H 0.11700 0.40000 0.61870
H15C H 0.23690 0.26100 0.54730
H16C H 0.16000 0.13300 0.54670
H17C H 0.20100 0.22000 0.61340
H18C H -0.03390 0.29830 0.57630
H19C H 0.01600 0.12900 0.56580
H20C H 0.02400 0.23700 0.63150
loop_
_geom_bond_atom_site_label_1
_geom_bond_atom_site_label_2
_geom_bond_site_symmetry_1
_geom_bond_site_symmetry_2
Br1 C6 1_555 1_555
N1 C1 1_555 1_555
C1 C2 1_555 1_555
C2 C3 1_555 1_555
C3 C4 1_555 1_555
C4 C5 1_555 1_555
C5 C6 1_555 1_555
C6 C1 1_555 1_555
C7 C2 1_555 1_555
C8 C4 1_555 1_555
C9 C7 1_555 1_555
C10 C7 1_555 1_555
C11 C7 1_555 1_555
C12 C8 1_555 1_555
C13 C8 1_555 1_555
C14 C8 1_555 1_555
H1 C3 1_555 1_555
H2 C5 1_555 1_555
H3 C9 1_555 1_555
H4 C9 1_555 1_555
H5 C9 1_555 1_555
H6 C10 1_555 1_555
H7 C10 1_555 1_555
H8 C10 1_555 1_555
H9 C11 1_555 1_555
H10 C11 1_555 1_555
H11 C11 1_555 1_555
H12 C12 1_555 1_555
H13 C12 1_555 1_555
H14 C12 1_555 1_555
H15 C13 1_555 1_555
H16 C13 1_555 1_555
H17 C13 1_555 1_555
H18 C14 1_555 1_555
H19 C14 1_555 1_555
H20 C14 1_555 1_555
N1C N1 1_555 1_555
C1C N1C 1_555 1_555
C2C C1C 1_555 1_555
C6C C1C 1_555 1_555
C3C C2C 1_555 1_555
C7C C2C 1_555 1_555
Br1C C6C 1_555 1_555
C5C C6C 1_555 1_555
C4C C3C 1_555 1_555
H1C C3C 1_555 1_555
C9C C7C 1_555 1_555
C10C C7C 1_555 1_555
C11C C7C 1_555 1_555
H2C C5C 1_555 1_555
C8C C4C 1_555 1_555
H3C C9C 1_555 1_555
H4C C9C 1_555 1_555
H5C C9C 1_555 1_555
H6C C10C 1_555 1_555
H7C C10C 1_555 1_555
H8C C10C 1_555 1_555
H9C C11C 1_555 1_555
H10C C11C 1_555 1_555
H11C C11C 1_555 1_555
C12C C8C 1_555 1_555
C13C C8C 1_555 1_555
C14C C8C 1_555 1_555
H12C C12C 1_555 1_555
H13C C12C 1_555 1_555
H14C C12C 1_555 1_555
H15C C13C 1_555 1_555
H16C C13C 1_555 1_555
H17C C13C 1_555 1_555
H18C C14C 1_555 1_555
H19C C14C 1_555 1_555
H20C C14C 1_555 1_555
C5C C4C 1_555 1_555

#END
