
#######################################################################
#
#                 Cambridge Crystallographic Data Centre
#                                CCDC 
#
#######################################################################
#
# If this CIF has been generated from an entry in the Cambridge 
# Structural Database, then it will include bibliographic, chemical, 
# crystal, experimental, refinement or atomic coordinate data resulting 
# from the CCDC's data processing and validation procedures.
#
#######################################################################

data_BUAZBZ
_chemical_formula_moiety         'C36 H58 N2'
_chemical_name_systematic        2,2',4,4',6,6'-Hexa-t-butylazobenzene
_symmetry_cell_setting           orthorhombic
_symmetry_space_group_name_H-M   'P b c a'
_symmetry_Int_Tables_number      61
_space_group_name_Hall           '-P 2ac 2ab'
loop_
_symmetry_equiv_pos_site_id
_symmetry_equiv_pos_as_xyz
1 x,y,z
2 1/2-x,1/2+y,z
3 x,1/2-y,1/2+z
4 1/2-x,-y,1/2+z
5 -x,-y,-z
6 1/2+x,1/2-y,-z
7 -x,1/2+y,1/2-z
8 1/2+x,y,1/2-z
_cell_length_a                   16.537(2)
_cell_length_b                   17.314(2)
_cell_length_c                   23.074(3)
_cell_angle_alpha                90
_cell_angle_beta                 90
_cell_angle_gamma                90
_cell_volume                     6606.59
_exptl_crystal_colour            red-orange
_cell_formula_units_Z            8
loop_
_atom_site_label
_atom_site_type_symbol
_atom_site_fract_x
_atom_site_fract_y
_atom_site_fract_z
N1 N 0.08980 0.24071 0.31284
C1 C 0.12410 0.23410 0.25453
C2 C 0.19000 0.27660 0.23110
C3 C 0.22700 0.24680 0.18128
C4 C 0.20130 0.17950 0.15351
C5 C 0.13010 0.14660 0.17360
C6 C 0.08840 0.17390 0.22321
C7 C 0.21680 0.35790 0.25178
C8 C 0.14060 0.40730 0.26209
C9 C 0.27150 0.35800 0.30570
C10 C 0.26120 0.40130 0.20190
C11 C 0.24690 0.14850 0.09926
C12 C 0.23940 0.21300 0.05279
C13 C 0.33410 0.13540 0.11430
C14 C 0.20920 0.07490 0.07728
C15 C 0.00640 0.13620 0.23853
C16 C -0.05960 0.19770 0.24614
C17 C 0.01060 0.08540 0.29361
C18 C -0.02300 0.08310 0.18792
H1 H 0.27900 0.27370 0.16600
H2 H 0.09700 0.10300 0.15430
H3 H 0.15860 0.45860 0.27250
H4 H 0.10800 0.41810 0.22920
H5 H 0.10560 0.38500 0.28970
H6 H 0.29340 0.40660 0.31050
H7 H 0.31880 0.32530 0.29410
H8 H 0.24300 0.33600 0.33880
H9 H 0.22980 0.39440 0.16030
H10 H 0.31370 0.38770 0.20800
H11 H 0.27200 0.45040 0.21660
H12 H 0.25520 0.19290 0.02300
H13 H 0.27200 0.26700 0.06300
H14 H 0.16900 0.18300 0.04880
H15 H 0.36200 0.11100 0.08120
H16 H 0.33100 0.08800 0.14730
H17 H 0.36200 0.17600 0.13270
H18 H 0.24400 0.05910 0.04400
H19 H 0.14600 0.08200 0.06700
H20 H 0.21300 0.02400 0.11510
H21 H -0.11030 0.17620 0.24970
H22 H -0.06600 0.22730 0.21510
H23 H -0.05370 0.22930 0.27540
H24 H -0.03680 0.05730 0.30000
H25 H 0.04910 0.04670 0.28580
H26 H 0.02470 0.11710 0.32930
H27 H 0.01310 0.04300 0.18430
H28 H -0.02100 0.11690 0.15460
H29 H -0.06800 0.06330 0.19740
N2 N 0.14216 0.24403 0.35226
C19 C 0.10990 0.22590 0.40953
C20 C 0.04670 0.26570 0.43858
C21 C 0.01440 0.23180 0.48835
C22 C 0.04220 0.16250 0.51041
C23 C 0.11020 0.12920 0.48384
C24 C 0.14650 0.16110 0.43403
C25 C 0.01810 0.34910 0.42386
C26 C 0.09390 0.40010 0.41554
C27 C -0.03860 0.35140 0.37046
C28 C -0.02750 0.38690 0.47456
C29 C 0.00580 0.12680 0.56516
C30 C -0.08580 0.11580 0.55477
C31 C 0.01770 0.18580 0.61529
C32 C 0.04760 0.04950 0.58255
C33 C 0.22810 0.12580 0.41050
C34 C 0.29290 0.18790 0.40975
C35 C 0.25550 0.05890 0.45031
C36 C 0.21850 0.08880 0.34968
H30 H -0.02140 0.25560 0.50780
H31 H 0.13250 0.08470 0.50400
H32 H 0.12850 0.38280 0.38290
H33 H 0.07480 0.45670 0.40310
H34 H 0.12400 0.40100 0.44510
H35 H -0.05850 0.40380 0.36210
H36 H -0.00790 0.33840 0.33510
H37 H -0.09300 0.30300 0.38750
H38 H 0.00700 0.38100 0.51740
H39 H -0.07830 0.36310 0.47620
H40 H -0.03660 0.43890 0.46540
H41 H -0.10460 0.08870 0.58560
H42 H -0.08900 0.07800 0.52510
H43 H -0.12500 0.17100 0.55300
H44 H 0.00050 0.16520 0.64350
H45 H 0.08200 0.19000 0.61940
H46 H -0.01900 0.24000 0.60970
H47 H 0.01520 0.03170 0.61310
H48 H 0.04140 0.01190 0.55050
H49 H 0.34400 0.16470 0.39600
H50 H 0.29730 0.20590 0.44920
H51 H 0.27400 0.23600 0.36910
H52 H 0.30950 0.04990 0.43880
H53 H 0.26690 0.08070 0.49080
H54 H 0.21700 0.00700 0.45500
H55 H 0.26700 0.05400 0.34400
H56 H 0.21150 0.12950 0.32010
H57 H 0.17200 0.05000 0.35090
loop_
_geom_bond_atom_site_label_1
_geom_bond_atom_site_label_2
_geom_bond_site_symmetry_1
_geom_bond_site_symmetry_2
N1 C1 1_555 1_555
C1 C2 1_555 1_555
C2 C3 1_555 1_555
C3 C4 1_555 1_555
C4 C5 1_555 1_555
C5 C6 1_555 1_555
C6 C1 1_555 1_555
C7 C2 1_555 1_555
C8 C7 1_555 1_555
C9 C7 1_555 1_555
C10 C7 1_555 1_555
C11 C4 1_555 1_555
C12 C11 1_555 1_555
C13 C11 1_555 1_555
C14 C11 1_555 1_555
C15 C6 1_555 1_555
C16 C15 1_555 1_555
C17 C15 1_555 1_555
C18 C15 1_555 1_555
H1 C3 1_555 1_555
H2 C5 1_555 1_555
H3 C8 1_555 1_555
H4 C8 1_555 1_555
H5 C8 1_555 1_555
H6 C9 1_555 1_555
H7 C9 1_555 1_555
H8 C9 1_555 1_555
H9 C10 1_555 1_555
H10 C10 1_555 1_555
H11 C10 1_555 1_555
H12 C12 1_555 1_555
H13 C12 1_555 1_555
H14 C12 1_555 1_555
H15 C13 1_555 1_555
H16 C13 1_555 1_555
H17 C13 1_555 1_555
H18 C14 1_555 1_555
H19 C14 1_555 1_555
H20 C14 1_555 1_555
H21 C16 1_555 1_555
H22 C16 1_555 1_555
H23 C16 1_555 1_555
H24 C17 1_555 1_555
H25 C17 1_555 1_555
H26 C17 1_555 1_555
H27 C18 1_555 1_555
H28 C18 1_555 1_555
H29 C18 1_555 1_555
N2 N1 1_555 1_555
C19 N2 1_555 1_555
C20 C19 1_555 1_555
C21 C20 1_555 1_555
C22 C21 1_555 1_555
C23 C22 1_555 1_555
C24 C19 1_555 1_555
C25 C20 1_555 1_555
C26 C25 1_555 1_555
C27 C25 1_555 1_555
C28 C25 1_555 1_555
C29 C22 1_555 1_555
C30 C29 1_555 1_555
C31 C29 1_555 1_555
C32 C29 1_555 1_555
C33 C24 1_555 1_555
C34 C33 1_555 1_555
C35 C33 1_555 1_555
C36 C33 1_555 1_555
H30 C21 1_555 1_555
H31 C23 1_555 1_555
H32 C26 1_555 1_555
H33 C26 1_555 1_555
H34 C26 1_555 1_555
H35 C27 1_555 1_555
H36 C27 1_555 1_555
H37 C27 1_555 1_555
H38 C28 1_555 1_555
H39 C28 1_555 1_555
H40 C28 1_555 1_555
H41 C30 1_555 1_555
H42 C30 1_555 1_555
H43 C30 1_555 1_555
H44 C31 1_555 1_555
H45 C31 1_555 1_555
H46 C31 1_555 1_555
H47 C32 1_555 1_555
H48 C32 1_555 1_555
H49 C34 1_555 1_555
H50 C34 1_555 1_555
H51 C34 1_555 1_555
H52 C35 1_555 1_555
H53 C35 1_555 1_555
H54 C35 1_555 1_555
H55 C36 1_555 1_555
H56 C36 1_555 1_555
H57 C36 1_555 1_555
C23 C24 1_555 1_555

#END
