
#######################################################################
#
#                 Cambridge Crystallographic Data Centre
#                                CCDC 
#
#######################################################################
#
# If this CIF has been generated from an entry in the Cambridge 
# Structural Database, then it will include bibliographic, chemical, 
# crystal, experimental, refinement or atomic coordinate data resulting 
# from the CCDC's data processing and validation procedures.
#
#######################################################################

data_BUBFUZ
_chemical_formula_moiety         'C21 H23 N7 O3'
_chemical_name_systematic        
'N-(3-(9-Adeninyl)-propionyl)-DL-tryptophan ethyl ester'
_symmetry_cell_setting           triclinic
_symmetry_space_group_name_H-M   'P -1'
_symmetry_Int_Tables_number      2
_space_group_name_Hall           '-P 1'
loop_
_symmetry_equiv_pos_site_id
_symmetry_equiv_pos_as_xyz
1 x,y,z
2 -x,-y,-z
_cell_length_a                   7.734(2)
_cell_length_b                   22.40(1)
_cell_length_c                   6.798(3)
_cell_angle_alpha                112.79(3)
_cell_angle_beta                 104.10(4)
_cell_angle_gamma                88.69(4)
_cell_volume                     1049.67
_cell_formula_units_Z            2
loop_
_atom_site_label
_atom_site_type_symbol
_atom_site_fract_x
_atom_site_fract_y
_atom_site_fract_z
N1 N -0.11880 0.09530 0.43660
C1 C -0.13790 0.07620 0.59700
N2 N -0.21740 0.02060 0.57480
C2 C -0.28030 -0.01750 0.36100
C3 C -0.26110 -0.00630 0.18000
C4 C -0.17680 0.05270 0.22500
N3 N -0.15100 0.07210 0.06830
N4 N -0.33860 -0.05810 -0.01450
C5 C -0.40290 -0.09940 0.05100
N5 N -0.37220 -0.07730 0.27750
C6 C -0.43460 -0.11120 0.39900
C7 C -0.29800 -0.15370 0.46200
C8 C -0.26450 -0.20930 0.26200
O1 O -0.38920 -0.24290 0.10940
N6 N 0.36510 -0.27910 0.68950
C9 C 0.31000 -0.24610 0.55200
C10 C 0.23460 -0.29060 0.34000
C11 C 0.18900 -0.41520 0.18600
C12 C 0.21700 -0.46750 0.25000
C13 C 0.29700 -0.45800 0.46700
C14 C 0.35100 -0.39750 0.63200
C15 C 0.32370 -0.34510 0.56500
C16 C 0.23880 -0.35310 0.34300
C17 C 0.16330 -0.27210 0.14500
C18 C -0.04110 -0.27210 0.09200
C19 C -0.10600 -0.26280 -0.13200
C20 C -0.21700 -0.32220 -0.51500
C21 C -0.26500 -0.39160 -0.66500
N7 N -0.09270 -0.21850 0.26590
O2 O -0.09380 -0.21260 -0.14960
O3 O -0.16130 -0.32140 -0.28920
H1 H -0.08600 0.10800 0.75700
H2 H -0.11400 0.11400 0.09300
H3 H -0.18000 0.04000 -0.08000
H4 H -0.46100 -0.13800 -0.04300
H5 H -0.54900 -0.13200 0.30500
H6 H -0.47700 -0.07000 0.54200
H7 H -0.35000 -0.17200 0.53900
H8 H -0.17000 -0.12200 0.57400
H9 H -0.01700 -0.19300 0.36300
H10 H -0.10500 -0.32000 0.06500
H11 H -0.33500 -0.29400 -0.51900
H12 H -0.11200 -0.30600 -0.53100
H13 H -0.29400 -0.39200 -0.80400
H14 H -0.37400 -0.41300 -0.66400
H15 H -0.14300 -0.42700 -0.64400
H16 H 0.18700 -0.31000 0.02300
H17 H 0.21300 -0.22700 0.16100
H18 H 0.34200 -0.19700 0.61100
H19 H 0.42300 -0.26700 0.80200
H20 H 0.40600 -0.38900 0.79200
H21 H 0.18200 -0.50900 0.14200
H22 H 0.15300 -0.42900 0.03700
H23 H 0.29400 -0.49600 0.49700
loop_
_geom_bond_atom_site_label_1
_geom_bond_atom_site_label_2
_geom_bond_site_symmetry_1
_geom_bond_site_symmetry_2
N1 C1 1_555 1_555
C1 N2 1_555 1_555
N2 C2 1_555 1_555
C2 C3 1_555 1_555
C3 C4 1_555 1_555
C4 N1 1_555 1_555
N3 C4 1_555 1_555
N4 C3 1_555 1_555
C5 N4 1_555 1_555
N5 C2 1_555 1_555
C6 N5 1_555 1_555
C7 C6 1_555 1_555
C8 C7 1_555 1_555
O1 C8 1_555 1_555
N6 C9 1_555 1_555
C9 C10 1_555 1_555
C10 C16 1_555 1_555
C11 C12 1_555 1_555
C12 C13 1_555 1_555
C13 C14 1_555 1_555
C14 C15 1_555 1_555
C15 N6 1_555 1_555
C16 C11 1_555 1_555
C17 C10 1_555 1_555
C18 C17 1_555 1_555
C19 C18 1_555 1_555
C20 C21 1_555 1_555
C21 H13 1_555 1_555
N7 C8 1_555 1_555
O2 C19 1_555 1_555
O3 C19 1_555 1_555
H1 C1 1_555 1_555
H2 N3 1_555 1_555
H3 N3 1_555 1_555
H4 C5 1_555 1_555
H5 C6 1_555 1_555
H6 C6 1_555 1_555
H7 C7 1_555 1_555
H8 C7 1_555 1_555
H9 N7 1_555 1_555
H10 C18 1_555 1_555
H11 C20 1_555 1_555
H12 C20 1_555 1_555
H14 C21 1_555 1_555
H15 C21 1_555 1_555
H16 C17 1_555 1_555
H17 C17 1_555 1_555
H18 C9 1_555 1_555
H19 N6 1_555 1_555
H20 C14 1_555 1_555
H21 C12 1_555 1_555
H22 C11 1_555 1_555
H23 C13 1_555 1_555
C5 N5 1_555 1_555
C15 C16 1_555 1_555
C18 N7 1_555 1_555
C20 O3 1_555 1_555

#END
