
#######################################################################
#
#                 Cambridge Crystallographic Data Centre
#                                CCDC 
#
#######################################################################
#
# If this CIF has been generated from an entry in the Cambridge 
# Structural Database, then it will include bibliographic, chemical, 
# crystal, experimental, refinement or atomic coordinate data resulting 
# from the CCDC's data processing and validation procedures.
#
#######################################################################

data_BUBFOV
_chemical_formula_moiety         'C20 H18 N2 O4'
_chemical_name_systematic        
'Ethyl ((2-((2-hydroxyphenyl)carbonoimidoyl)quinolin-8-yl)oxy)acetate'
_symmetry_cell_setting           monoclinic
_symmetry_space_group_name_H-M   'P 21/n'
_symmetry_Int_Tables_number      14
_space_group_name_Hall           '-P 2yn'
loop_
_symmetry_equiv_pos_site_id
_symmetry_equiv_pos_as_xyz
1 x,y,z
2 1/2-x,1/2+y,1/2-z
3 -x,-y,-z
4 1/2+x,1/2-y,1/2+z
_cell_length_a                   17.9227(13)
_cell_length_b                   5.0106(3)
_cell_length_c                   20.9309(16)
_cell_angle_alpha                90
_cell_angle_beta                 114.168(9)
_cell_angle_gamma                90
_cell_volume                     1714.91
_exptl_crystal_colour            yellow
_exptl_crystal_description       block
_cell_formula_units_Z            4
loop_
_atom_site_label
_atom_site_type_symbol
_atom_site_fract_x
_atom_site_fract_y
_atom_site_fract_z
N1 N 0.74331(12) 0.2297(4) 0.01478(9)
N2 N 0.60219(13) 0.7479(4) -0.06398(10)
O1 O 0.85844(11) -0.1278(3) 0.02629(9)
C1 C 0.74021(14) 0.0757(4) 0.12452(11)
C2 C 0.68399(15) 0.3992(4) 0.00880(12)
C3 C 0.77123(14) 0.0657(4) 0.07215(11)
C4 C 0.57386(15) 0.9141(4) -0.12369(12)
C5 C 0.65688(16) 0.5724(5) -0.05324(12)
H1 H 0.6803 0.5528 -0.0852
C6 C 0.83445(14) -0.1211(4) 0.08027(12)
O2 O 0.49153(13) 1.0988(4) -0.07037(11)
H2 H 0.5138 0.9752 -0.0437
C7 C 0.51388(15) 1.0944(5) -0.12528(13)
C8 C 0.77310(16) -0.0939(5) 0.18351(12)
H3 H 0.7529 -0.0879 0.2179
C9 C 0.86470(15) -0.2809(5) 0.13823(12)
H4 H 0.9062 -0.4016 0.1434
C10 C 0.83419(16) -0.2655(5) 0.18973(12)
H5 H 0.8562 -0.3748 0.2290
C11 C 0.64841(16) 0.4189(5) 0.05718(13)
H6 H 0.6065 0.5400 0.0503
C12 C 0.59717(17) 0.9146(5) -0.17926(14)
H7 H 0.6369 0.7957 -0.1795
C13 C 0.67651(15) 0.2575(5) 0.11403(12)
H8 H 0.6534 0.2670 0.1465
C14 C 0.92850(16) -0.2810(5) 0.03515(13)
H9 H 0.9294 -0.3134 -0.0102
H10 H 0.9255 -0.4524 0.0555
C15 C 0.56152(18) 1.0918(6) -0.23441(14)
H11 H 0.5772 1.0914 -0.2716
C16 C 0.47882(17) 1.2708(5) -0.18007(15)
H12 H 0.4391 1.3906 -0.1803
C17 C 1.00597(18) -0.1411(6) 0.08166(14)
O3 O 1.06943(12) -0.2926(4) 0.09028(11)
O4 O 1.01051(14) 0.0764(4) 0.10606(12)
C18 C 0.50292(17) 1.2679(5) -0.23393(14)
H13 H 0.4794 1.3869 -0.2709
C19 C 1.1508(2) -0.1789(8) 0.1287(2)
H14 H 1.1673 -0.0820 0.0965
H15 H 1.1490 -0.0537 0.1634
C20 C 1.2068(2) -0.3740(10) 0.1613(3)
H16 H 1.2063 -0.5039 0.1274
H17 H 1.1933 -0.4590 0.1962
H18 H 1.2603 -0.2960 0.1831
loop_
_geom_bond_atom_site_label_1
_geom_bond_atom_site_label_2
_geom_bond_site_symmetry_1
_geom_bond_site_symmetry_2
N1 C2 1_555 1_555
N2 C4 1_555 1_555
O1 C6 1_555 1_555
C1 C3 1_555 1_555
C2 C5 1_555 1_555
C3 N1 1_555 1_555
C4 C7 1_555 1_555
C5 N2 1_555 1_555
H1 C5 1_555 1_555
C6 C3 1_555 1_555
O2 H2 1_555 1_555
C7 O2 1_555 1_555
C8 C1 1_555 1_555
H3 C8 1_555 1_555
C9 C6 1_555 1_555
H4 C9 1_555 1_555
C10 C8 1_555 1_555
H5 C10 1_555 1_555
C11 C2 1_555 1_555
H6 C11 1_555 1_555
C12 C4 1_555 1_555
H7 C12 1_555 1_555
C13 C1 1_555 1_555
H8 C13 1_555 1_555
C14 O1 1_555 1_555
H9 C14 1_555 1_555
H10 C14 1_555 1_555
C15 C12 1_555 1_555
H11 C15 1_555 1_555
C16 C7 1_555 1_555
H12 C16 1_555 1_555
C17 C14 1_555 1_555
O3 C17 1_555 1_555
O4 C17 1_555 1_555
C18 C15 1_555 1_555
H13 C18 1_555 1_555
C19 O3 1_555 1_555
H14 C19 1_555 1_555
H15 C19 1_555 1_555
C20 C19 1_555 1_555
H16 C20 1_555 1_555
H17 C20 1_555 1_555
H18 C20 1_555 1_555
C9 C10 1_555 1_555
C11 C13 1_555 1_555
C16 C18 1_555 1_555

#END
