
#######################################################################
#
#                 Cambridge Crystallographic Data Centre
#                                CCDC 
#
#######################################################################
#
# If this CIF has been generated from an entry in the Cambridge 
# Structural Database, then it will include bibliographic, chemical, 
# crystal, experimental, refinement or atomic coordinate data resulting 
# from the CCDC's data processing and validation procedures.
#
#######################################################################

data_BUBNUI
_chemical_formula_moiety         'C18 H28 O3'
_chemical_name_systematic        
5a',9b'-Dimethyl-2'(R)-vinyldecahydro-2'H-spiro[1,3-dioxolane-2,6'-naphtho[2,1-b]furan]
_symmetry_cell_setting           orthorhombic
_symmetry_space_group_name_H-M   'P 21 21 21'
_symmetry_Int_Tables_number      19
_space_group_name_Hall           'P 2ac 2ab'
loop_
_symmetry_equiv_pos_site_id
_symmetry_equiv_pos_as_xyz
1 x,y,z
2 1/2-x,-y,1/2+z
3 -x,1/2+y,1/2-z
4 1/2+x,1/2-y,-z
_cell_length_a                   8.5896(3)
_cell_length_b                   10.1995(3)
_cell_length_c                   37.4208(12)
_cell_angle_alpha                90
_cell_angle_beta                 90
_cell_angle_gamma                90
_cell_volume                     3278.42
_exptl_crystal_colour            colorless
_exptl_crystal_description       plates
_cell_formula_units_Z            8
loop_
_atom_site_label
_atom_site_type_symbol
_atom_site_fract_x
_atom_site_fract_y
_atom_site_fract_z
O1 O 0.2024(2) 0.5094(2) 0.58420(4)
O2 O 0.3312(3) 0.42844(19) 0.41445(4)
O3 O 0.4234(2) 0.28572(15) 0.45594(4)
C1 C 0.2401(5) 0.3136(4) 0.63835(13)
H1 H 0.1464 0.3178 0.6260
H2 H 0.2548 0.2499 0.6558
C2 C 0.3475(4) 0.3944(4) 0.63143(8)
H3 H 0.4388 0.3859 0.6446
C3 C 0.3437(3) 0.5007(3) 0.60477(6)
H4 H 0.3567 0.5838 0.6176
C4 C 0.4771(3) 0.4895(3) 0.57750(6)
H5 H 0.5655 0.5427 0.5845
H6 H 0.5105 0.3992 0.5747
C5 C 0.4026(3) 0.5413(2) 0.54323(6)
C6 C 0.4690(2) 0.4868(2) 0.50817(5)
H7 H 0.4751 0.3918 0.5117
C7 C 0.6354(3) 0.5298(3) 0.49973(6)
H8 H 0.6365 0.6225 0.4940
H9 H 0.7007 0.5163 0.5206
C8 C 0.6998(3) 0.4524(3) 0.46855(7)
H10 H 0.7138 0.3618 0.4757
H11 H 0.8009 0.4873 0.4620
C9 C 0.5928(4) 0.4581(3) 0.43644(7)
H12 H 0.6321 0.3995 0.4181
H13 H 0.5935 0.5463 0.4268
C10 C 0.4268(3) 0.4199(2) 0.44555(6)
C11 C 0.3582(3) 0.5056(2) 0.47569(5)
C12 C 0.1921(3) 0.4605(3) 0.48469(6)
H14 H 0.1233 0.4867 0.4654
H15 H 0.1908 0.3655 0.4859
C13 C 0.1280(3) 0.5153(3) 0.51993(6)
H16 H 0.1168 0.6098 0.5185
H17 H 0.0271 0.4773 0.5252
C14 C 0.2440(3) 0.4790(2) 0.54830(6)
H18 H 0.2586 0.3838 0.5470
C15 C 0.3983(4) 0.6913(3) 0.54575(8)
H19 H 0.3437 0.7169 0.5670
H20 H 0.3458 0.7264 0.5252
H21 H 0.5027 0.7247 0.5466
C16 C 0.3478(4) 0.6474(2) 0.46105(7)
H22 H 0.4492 0.6868 0.4615
H23 H 0.2780 0.6977 0.4757
H24 H 0.3097 0.6455 0.4369
C17 C 0.3397(16) 0.3101(18) 0.3971(4)
H25 H 0.4267 0.3084 0.3806
H26 H 0.2445 0.2922 0.3840
C18 C 0.3632(4) 0.2108(3) 0.42757(8)
H27 H 0.2652 0.1704 0.4342
H28 H 0.4359 0.1427 0.4206
O4 O 0.3135(2) 0.8762(2) 0.82240(4)
O5 O 0.4891(2) 0.80958(18) 0.65426(5)
O6 O 0.4094(2) 1.00498(16) 0.67732(4)
C19 C 0.1211(4) 1.1201(3) 0.87201(7)
H29 H 0.0413 1.0702 0.8819
H30 H 0.1457 1.2015 0.8817
C20 C 0.1983(4) 1.0760(3) 0.84462(6)
H31 H 0.2772 1.1285 0.8354
C21 C 0.1693(3) 0.9474(3) 0.82689(6)
H32 H 0.0993 0.8956 0.8420
C22 C 0.0971(3) 0.9592(3) 0.78929(6)
H33 H -0.0133 0.9394 0.7897
H34 H 0.1122 1.0464 0.7795
C23 C 0.1871(3) 0.8568(2) 0.76788(6)
C24 C 0.2046(3) 0.8850(2) 0.72767(5)
H35 H 0.2355 0.9773 0.7262
C25 C 0.0550(3) 0.8758(3) 0.70597(6)
H36 H -0.0270 0.9245 0.7179
H37 H 0.0226 0.7849 0.7043
C26 C 0.0807(3) 0.9313(3) 0.66866(7)
H38 H -0.0126 0.9185 0.6545
H39 H 0.0998 1.0249 0.6703
C27 C 0.2178(4) 0.8659(3) 0.65006(6)
H40 H 0.1922 0.7750 0.6452
H41 H 0.2369 0.9092 0.6274
C28 C 0.3640(3) 0.8716(2) 0.67266(6)
C29 C 0.3417(3) 0.8073(2) 0.70984(5)
C30 C 0.4920(3) 0.8211(3) 0.73188(6)
H42 H 0.5306 0.9100 0.7295
H43 H 0.5702 0.7626 0.7221
C31 C 0.4712(3) 0.7902(3) 0.77187(6)
H44 H 0.4419 0.6992 0.7752
H45 H 0.5672 0.8065 0.7848
C32 C 0.3445(3) 0.8795(3) 0.78484(5)
H46 H 0.3760 0.9693 0.7789
C33 C 0.1196(4) 0.7210(3) 0.77662(7)
H47 H 0.1870 0.6543 0.7673
H48 H 0.0183 0.7127 0.7660
H49 H 0.1112 0.7112 0.8021
C34 C 0.3106(4) 0.6605(2) 0.70372(7)
H50 H 0.2056 0.6485 0.6956
H51 H 0.3255 0.6137 0.7257
H52 H 0.3815 0.6275 0.6860
C35 C 0.567(3) 0.907(3) 0.6340(3)
H53 H 0.5317 0.9068 0.6094
H54 H 0.6787 0.8932 0.6344
C36 C 0.5255(5) 1.0322(3) 0.65192(9)
H55 H 0.6163 1.0693 0.6635
H56 H 0.4873 1.0949 0.6345
C37? C 0.2780(16) 0.2988(17) 0.4056(4)
C38? C 0.600(3) 0.907(3) 0.6466(3)
H57? H 0.1673 0.2907 0.4103
H58? H 0.2968 0.2802 0.3806
H59? H 0.6359 0.8986 0.6221
H60? H 0.6894 0.8981 0.6623
loop_
_geom_bond_atom_site_label_1
_geom_bond_atom_site_label_2
_geom_bond_site_symmetry_1
_geom_bond_site_symmetry_2
O1 C3 1_555 1_555
O2 C10 1_555 1_555
O3 C10 1_555 1_555
C1 H1 1_555 1_555
H2 C1 1_555 1_555
C2 C1 1_555 1_555
H3 C2 1_555 1_555
C3 C2 1_555 1_555
H4 C3 1_555 1_555
C4 C3 1_555 1_555
H5 C4 1_555 1_555
H6 C4 1_555 1_555
C5 C4 1_555 1_555
C6 C5 1_555 1_555
H7 C6 1_555 1_555
C7 C6 1_555 1_555
H8 C7 1_555 1_555
H9 C7 1_555 1_555
C8 C7 1_555 1_555
H10 C8 1_555 1_555
H11 C8 1_555 1_555
C9 C8 1_555 1_555
H12 C9 1_555 1_555
H13 C9 1_555 1_555
C10 C9 1_555 1_555
C11 C6 1_555 1_555
C12 C11 1_555 1_555
H14 C12 1_555 1_555
H15 C12 1_555 1_555
C13 C12 1_555 1_555
H16 C13 1_555 1_555
H17 C13 1_555 1_555
C14 O1 1_555 1_555
H18 C14 1_555 1_555
C15 C5 1_555 1_555
H19 C15 1_555 1_555
H20 C15 1_555 1_555
H21 C15 1_555 1_555
C16 C11 1_555 1_555
H22 C16 1_555 1_555
H23 C16 1_555 1_555
H24 C16 1_555 1_555
C17 O2 1_555 1_555
H25 C17 1_555 1_555
H26 C17 1_555 1_555
C18 O3 1_555 1_555
H27 C18 1_555 1_555
H28 C18 1_555 1_555
O4 C21 1_555 1_555
O5 C28 1_555 1_555
O6 C28 1_555 1_555
C19 H29 1_555 1_555
H30 C19 1_555 1_555
C20 C19 1_555 1_555
H31 C20 1_555 1_555
C21 C20 1_555 1_555
H32 C21 1_555 1_555
C22 C21 1_555 1_555
H33 C22 1_555 1_555
H34 C22 1_555 1_555
C23 C22 1_555 1_555
C24 C23 1_555 1_555
H35 C24 1_555 1_555
C25 C24 1_555 1_555
H36 C25 1_555 1_555
H37 C25 1_555 1_555
C26 C25 1_555 1_555
H38 C26 1_555 1_555
H39 C26 1_555 1_555
C27 C26 1_555 1_555
H40 C27 1_555 1_555
H41 C27 1_555 1_555
C28 C27 1_555 1_555
C29 C24 1_555 1_555
C30 C29 1_555 1_555
H42 C30 1_555 1_555
H43 C30 1_555 1_555
C31 C30 1_555 1_555
H44 C31 1_555 1_555
H45 C31 1_555 1_555
C32 O4 1_555 1_555
H46 C32 1_555 1_555
C33 C23 1_555 1_555
H47 C33 1_555 1_555
H48 C33 1_555 1_555
H49 C33 1_555 1_555
C34 C29 1_555 1_555
H50 C34 1_555 1_555
H51 C34 1_555 1_555
H52 C34 1_555 1_555
C35 O5 1_555 1_555
H53 C35 1_555 1_555
H54 C35 1_555 1_555
C36 O6 1_555 1_555
H55 C36 1_555 1_555
H56 C36 1_555 1_555
C5 C14 1_555 1_555
C10 C11 1_555 1_555
C13 C14 1_555 1_555
C17 C18 1_555 1_555
C23 C32 1_555 1_555
C28 C29 1_555 1_555
C31 C32 1_555 1_555
C35 C36 1_555 1_555

#END
