
#######################################################################
#
#                 Cambridge Crystallographic Data Centre
#                                CCDC 
#
#######################################################################
#
# If this CIF has been generated from an entry in the Cambridge 
# Structural Database, then it will include bibliographic, chemical, 
# crystal, experimental, refinement or atomic coordinate data resulting 
# from the CCDC's data processing and validation procedures.
#
#######################################################################

data_BUBPAQ
_chemical_formula_moiety         'C18 H26 O3'
_chemical_name_systematic        
2'-Ethynyl-5a',9b'-dimethyldecahydro-2'H-spiro[1,3-dioxolane-2,6'-naphtho[2,1-b]furan]
_symmetry_cell_setting           orthorhombic
_symmetry_space_group_name_H-M   'P 21 21 21'
_symmetry_Int_Tables_number      19
_space_group_name_Hall           'P 2ac 2ab'
loop_
_symmetry_equiv_pos_site_id
_symmetry_equiv_pos_as_xyz
1 x,y,z
2 1/2-x,-y,1/2+z
3 -x,1/2+y,1/2-z
4 1/2+x,1/2-y,-z
_cell_length_a                   8.1782(3)
_cell_length_b                   11.0055(4)
_cell_length_c                   17.9809(7)
_cell_angle_alpha                90
_cell_angle_beta                 90
_cell_angle_gamma                90
_cell_volume                     1618.37
_exptl_crystal_colour            colorless
_exptl_crystal_description       prism
_cell_formula_units_Z            4
loop_
_atom_site_label
_atom_site_type_symbol
_atom_site_fract_x
_atom_site_fract_y
_atom_site_fract_z
O1 O 0.82891(16) 0.09947(13) 0.31939(7)
O2 O 0.2740(2) 0.00422(18) 0.06742(10)
O3 O 0.49470(17) -0.11864(11) 0.07822(8)
C1 C 0.4473(2) 0.00455(16) 0.06615(10)
C2 C 0.5092(4) 0.04552(19) -0.00990(10)
H1 H 0.4679 0.1263 -0.0204
H2 H 0.4674 -0.0090 -0.0478
C3 C 0.6959(4) 0.0471(2) -0.01347(11)
H3 H 0.7303 0.0803 -0.0609
H4 H 0.7368 -0.0354 -0.0100
C4 C 0.7690(3) 0.1232(2) 0.04947(10)
H5 H 0.8873 0.1174 0.0483
H6 H 0.7390 0.2078 0.0429
C5 C 0.70544(19) 0.07756(14) 0.12432(8)
H7 H 0.7305 -0.0095 0.1247
C6 C 0.5137(2) 0.08485(15) 0.12993(9)
C7 C 0.4420(3) 0.2130(2) 0.11937(14)
H8 H 0.3251 0.2096 0.1237
H9 H 0.4710 0.2431 0.0710
H10 H 0.4852 0.2663 0.1568
C8 C 0.4553(2) 0.0333(2) 0.20530(10)
H11 H 0.3389 0.0481 0.2102
H12 H 0.4718 -0.0540 0.2053
C9 C 0.5430(2) 0.0877(2) 0.27308(10)
H13 H 0.5212 0.1741 0.2769
H14 H 0.5069 0.0484 0.3185
C10 C 0.7218(2) 0.06508(15) 0.26024(9)
H15 H 0.7356 -0.0224 0.2524
C11 C 0.7924(2) 0.12886(14) 0.19291(8)
C12 C 0.7849(3) 0.26785(17) 0.20018(11)
H16 H 0.8418 0.2926 0.2443
H17 H 0.6728 0.2933 0.2032
H18 H 0.8354 0.3045 0.1575
C13 C 0.9710(2) 0.0911(2) 0.20242(11)
H19 H 1.0444 0.1520 0.1823
H20 H 0.9925 0.0138 0.1784
C14 C 0.9892(2) 0.08080(17) 0.28842(11)
H21 H 1.0251 -0.0017 0.3007
C15 C 1.1041(2) 0.16742(18) 0.32166(11)
C16 C 1.2030(3) 0.2317(2) 0.34827(12)
H22 H 1.2812 0.2825 0.3693
C17 C 0.2197(4) -0.1139(4) 0.0524(2)
H23 H 0.1703 -0.1176 0.0034
H24 H 0.1387 -0.1385 0.0889
C18 C 0.3622(3) -0.1942(2) 0.05597(15)
H25 H 0.3446 -0.2586 0.0919
H26 H 0.3836 -0.2303 0.0077
loop_
_geom_bond_atom_site_label_1
_geom_bond_atom_site_label_2
_geom_bond_site_symmetry_1
_geom_bond_site_symmetry_2
O1 C10 1_555 1_555
O2 C1 1_555 1_555
O3 C1 1_555 1_555
C1 C2 1_555 1_555
C2 H1 1_555 1_555
H2 C2 1_555 1_555
C3 C2 1_555 1_555
H3 C3 1_555 1_555
H4 C3 1_555 1_555
C4 C3 1_555 1_555
H5 C4 1_555 1_555
H6 C4 1_555 1_555
C5 C4 1_555 1_555
H7 C5 1_555 1_555
C6 C1 1_555 1_555
C7 C6 1_555 1_555
H8 C7 1_555 1_555
H9 C7 1_555 1_555
H10 C7 1_555 1_555
C8 C6 1_555 1_555
H11 C8 1_555 1_555
H12 C8 1_555 1_555
C9 C8 1_555 1_555
H13 C9 1_555 1_555
H14 C9 1_555 1_555
C10 C9 1_555 1_555
H15 C10 1_555 1_555
C11 C5 1_555 1_555
C12 C11 1_555 1_555
H16 C12 1_555 1_555
H17 C12 1_555 1_555
H18 C12 1_555 1_555
C13 C11 1_555 1_555
H19 C13 1_555 1_555
H20 C13 1_555 1_555
C14 O1 1_555 1_555
H21 C14 1_555 1_555
C15 C14 1_555 1_555
C16 C15 1_555 1_555
H22 C16 1_555 1_555
C17 O2 1_555 1_555
H23 C17 1_555 1_555
H24 C17 1_555 1_555
C18 O3 1_555 1_555
H25 C18 1_555 1_555
H26 C18 1_555 1_555
C5 C6 1_555 1_555
C10 C11 1_555 1_555
C13 C14 1_555 1_555
C17 C18 1_555 1_555

#END
