
#######################################################################
#
#                 Cambridge Crystallographic Data Centre
#                                CCDC 
#
#######################################################################
#
# If this CIF has been generated from an entry in the Cambridge 
# Structural Database, then it will include bibliographic, chemical, 
# crystal, experimental, refinement or atomic coordinate data resulting 
# from the CCDC's data processing and validation procedures.
#
#######################################################################

data_BUBYUU
_chemical_formula_moiety         'C15 H19 N1 O4 S1'
_chemical_name_systematic        
'(2R,4R)-3-(t-Butoxycarbonyl)-2-phenyl-1,3-thiazolidine-4-carboxylic acid'
_symmetry_cell_setting           monoclinic
_symmetry_space_group_name_H-M   'P 21'
_symmetry_Int_Tables_number      4
_space_group_name_Hall           'P 2yb'
loop_
_symmetry_equiv_pos_site_id
_symmetry_equiv_pos_as_xyz
1 x,y,z
2 -x,1/2+y,-z
_cell_length_a                   10.308(2)
_cell_length_b                   6.3790(13)
_cell_length_c                   12.174(2)
_cell_angle_alpha                90
_cell_angle_beta                 100.71(3)
_cell_angle_gamma                90
_cell_volume                     786.554
_exptl_crystal_colour            colorless
_exptl_crystal_description       Block
_cell_formula_units_Z            2
loop_
_atom_site_label
_atom_site_type_symbol
_atom_site_fract_x
_atom_site_fract_y
_atom_site_fract_z
S1 S 0.47767(13) 0.6336(3) 0.57677(12)
N1 N 0.2771(4) 0.7314(8) 0.6670(4)
O1 O 0.1704(7) 0.2140(9) 0.5647(4)
C1 C 0.6511(6) 1.0500(16) 0.9019(6)
H1 H 0.6954 1.1763 0.9183
O2 O 0.2738(4) 0.3343(7) 0.7299(3)
H2 H 0.2607 0.2148 0.7502
C2 C 0.6718(6) 0.8942(15) 0.9763(6)
H3 H 0.7293 0.9141 1.0440
O3 O 0.2353(4) 0.9583(7) 0.8009(3)
C3 C 0.6070(6) 0.6987(14) 0.9531(5)
H4 H 0.6213 0.5899 1.0048
O4 O 0.0872(3) 0.7097(7) 0.7253(3)
C4 C 0.5206(6) 0.6732(12) 0.8502(5)
H5 H 0.4782 0.5458 0.8320
C5 C 0.4988(5) 0.8427(10) 0.7749(4)
C6 C 0.5657(6) 1.0276(12) 0.8016(6)
H6 H 0.5530 1.1387 0.7513
C7 C 0.4089(5) 0.8174(10) 0.6646(4)
H7 H 0.3985 0.9539 0.6271
C8 C 0.3157(5) 0.5975(14) 0.4942(4)
H8 H 0.2910 0.7156 0.4446
H9 H 0.3116 0.4703 0.4500
C9 C 0.2257(5) 0.5817(10) 0.5813(4)
H10 H 0.1364 0.6248 0.5461
C10 C 0.2200(6) 0.3565(11) 0.6238(5)
C11 C 0.2009(5) 0.8077(10) 0.7369(5)
C12 C -0.0194(5) 0.7779(11) 0.7829(5)
C13 C -0.0545(7) 1.0070(13) 0.7534(7)
H11 H -0.0845 1.0195 0.6742
H12 H 0.0221 1.0932 0.7759
H13 H -0.1232 1.0517 0.7916
C14 C 0.0242(7) 0.7529(16) 0.9080(5)
H14 H 0.0455 0.6086 0.9252
H15 H -0.0459 0.7959 0.9451
H16 H 0.1006 0.8383 0.9332
C15 C -0.1309(6) 0.6359(16) 0.7354(6)
H17 H -0.1068 0.4935 0.7550
H18 H -0.1497 0.6498 0.6555
H19 H -0.2077 0.6731 0.7651
loop_
_geom_bond_atom_site_label_1
_geom_bond_atom_site_label_2
_geom_bond_site_symmetry_1
_geom_bond_site_symmetry_2
S1 C7 1_555 1_555
N1 C7 1_555 1_555
O1 C10 1_555 1_555
C1 H1 1_555 1_555
O2 H2 1_555 1_555
C2 C1 1_555 1_555
H3 C2 1_555 1_555
O3 C11 1_555 1_555
C3 C2 1_555 1_555
H4 C3 1_555 1_555
O4 C11 1_555 1_555
C4 C3 1_555 1_555
H5 C4 1_555 1_555
C5 C4 1_555 1_555
C6 C1 1_555 1_555
H6 C6 1_555 1_555
C7 C5 1_555 1_555
H7 C7 1_555 1_555
C8 S1 1_555 1_555
H8 C8 1_555 1_555
H9 C8 1_555 1_555
C9 N1 1_555 1_555
H10 C9 1_555 1_555
C10 O2 1_555 1_555
C11 N1 1_555 1_555
C12 O4 1_555 1_555
C13 C12 1_555 1_555
H11 C13 1_555 1_555
H12 C13 1_555 1_555
H13 C13 1_555 1_555
C14 C12 1_555 1_555
H14 C14 1_555 1_555
H15 C14 1_555 1_555
H16 C14 1_555 1_555
C15 C12 1_555 1_555
H17 C15 1_555 1_555
H18 C15 1_555 1_555
H19 C15 1_555 1_555
C5 C6 1_555 1_555
C8 C9 1_555 1_555
C9 C10 1_555 1_555

#END
