
#######################################################################
#
#                 Cambridge Crystallographic Data Centre
#                                CCDC 
#
#######################################################################
#
# If this CIF has been generated from an entry in the Cambridge 
# Structural Database, then it will include bibliographic, chemical, 
# crystal, experimental, refinement or atomic coordinate data resulting 
# from the CCDC's data processing and validation procedures.
#
#######################################################################

data_BUCKIU
_chemical_formula_moiety         'C20 H36 Br2 S2 Si4'
_chemical_name_systematic        
(4,4'-Dibromo-3,3'-bithiene-2,2',5,5'-tetrayl)tetrakis(trimethylsilane)
_symmetry_cell_setting           triclinic
_symmetry_space_group_name_H-M   'P -1'
_symmetry_Int_Tables_number      2
_space_group_name_Hall           '-P 1'
loop_
_symmetry_equiv_pos_site_id
_symmetry_equiv_pos_as_xyz
1 x,y,z
2 -x,-y,-z
_cell_length_a                   10.817(6)
_cell_length_b                   11.459(6)
_cell_length_c                   13.176(7)
_cell_angle_alpha                82.785(9)
_cell_angle_beta                 73.558(9)
_cell_angle_gamma                77.448(9)
_cell_volume                     1525.38
_cell_formula_units_Z            2
_exptl_crystal_recrystallization_method chloroform/methanol
loop_
_atom_site_label
_atom_site_type_symbol
_atom_site_fract_x
_atom_site_fract_y
_atom_site_fract_z
Br1 Br 0.17667(4) 0.35500(4) 0.26664(4)
Br2 Br -0.08239(5) 0.64586(4) 0.13357(3)
S1 S -0.05594(9) 0.20888(8) 0.11328(7)
S2 S -0.23555(10) 0.58568(8) 0.47313(7)
Si1 Si 0.23881(11) 0.10310(10) 0.10464(8)
Si2 Si -0.24552(12) 0.83888(9) 0.35152(9)
Si3 Si -0.19855(12) 0.30851(9) 0.50525(8)
Si4 Si -0.32547(11) 0.37668(12) 0.17044(9)
C1 C -0.0803(3) 0.3720(3) 0.2351(2)
C2 C 0.0840(3) 0.2158(3) 0.1473(3)
C3 C -0.1798(3) 0.4491(3) 0.4171(3)
C4 C -0.1537(3) 0.3277(3) 0.1845(3)
C5 C -0.3190(5) 0.8827(4) 0.4902(3)
H1 H -0.3941 0.8462 0.5217
H2 H -0.3456 0.9683 0.4901
H3 H -0.2553 0.8564 0.5303
C6 C -0.1327(3) 0.4691(3) 0.3091(3)
C7 C -0.1984(4) 0.6711(3) 0.3559(3)
C8 C -0.1427(4) 0.5929(3) 0.2775(3)
C9 C 0.0528(4) 0.3092(3) 0.2110(3)
C10 C 0.2046(4) -0.0037(4) 0.0248(3)
H4 H 0.1361 -0.0433 0.0680
H5 H 0.2827 -0.0622 0.0002
H6 H 0.1773 0.0395 -0.0350
C11 C -0.0692(5) 0.1797(3) 0.4559(3)
H7 H -0.0736 0.1633 0.3874
H8 H -0.0817 0.1107 0.5043
H9 H 0.0152 0.1978 0.4501
C12 C -0.1930(5) 0.3395(4) 0.6384(3)
H10 H -0.2617 0.4058 0.6642
H11 H -0.1094 0.3589 0.6338
H12 H -0.2049 0.2700 0.6863
C13 C 0.2817(5) 0.0213(4) 0.2240(3)
H13 H 0.2990 0.0763 0.2652
H14 H 0.3584 -0.0397 0.2029
H15 H 0.2098 -0.0150 0.2658
C14 C -0.3704(4) 0.8863(4) 0.2757(3)
H16 H -0.4453 0.8502 0.3094
H17 H -0.3337 0.8614 0.2047
H18 H -0.3968 0.9720 0.2735
C15 C -0.3143(5) 0.4152(6) 0.0276(4)
H19 H -0.4011 0.4404 0.0179
H20 H -0.2699 0.3462 -0.0117
H21 H -0.2662 0.4791 0.0027
C16 C -0.4098(4) 0.2471(4) 0.2145(4)
H22 H -0.4985 0.2700 0.2089
H23 H -0.4103 0.2222 0.2870
H24 H -0.3643 0.1820 0.1706
C17 C -0.4179(4) 0.5070(4) 0.2487(4)
H25 H -0.5054 0.5280 0.2401
H26 H -0.3744 0.5739 0.2242
H27 H -0.4217 0.4866 0.3223
C18 C 0.3720(4) 0.1799(4) 0.0244(3)
H28 H 0.3878 0.2346 0.0667
H29 H 0.3466 0.2234 -0.0360
H30 H 0.4506 0.1216 0.0008
C19 C -0.1000(4) 0.9071(4) 0.2874(3)
H31 H -0.1254 0.9928 0.2862
H32 H -0.0639 0.8831 0.2161
H33 H -0.0353 0.8808 0.3266
C20 C -0.3594(5) 0.2722(4) 0.5128(4)
H34 H -0.3612 0.2551 0.4438
H35 H -0.4279 0.3392 0.5372
H36 H -0.3728 0.2034 0.5613
loop_
_geom_bond_atom_site_label_1
_geom_bond_atom_site_label_2
_geom_bond_site_symmetry_1
_geom_bond_site_symmetry_2
Br1 C9 1_555 1_555
Br2 C8 1_555 1_555
S1 C2 1_555 1_555
S2 C3 1_555 1_555
Si1 C2 1_555 1_555
Si2 C5 1_555 1_555
Si3 C3 1_555 1_555
Si4 C4 1_555 1_555
C1 C4 1_555 1_555
C2 C9 1_555 1_555
C3 C6 1_555 1_555
C4 S1 1_555 1_555
C5 H1 1_555 1_555
H2 C5 1_555 1_555
H3 C5 1_555 1_555
C6 C1 1_555 1_555
C7 S2 1_555 1_555
C8 C6 1_555 1_555
C9 C1 1_555 1_555
C10 Si1 1_555 1_555
H4 C10 1_555 1_555
H5 C10 1_555 1_555
H6 C10 1_555 1_555
C11 Si3 1_555 1_555
H7 C11 1_555 1_555
H8 C11 1_555 1_555
H9 C11 1_555 1_555
C12 Si3 1_555 1_555
H10 C12 1_555 1_555
H11 C12 1_555 1_555
H12 C12 1_555 1_555
C13 Si1 1_555 1_555
H13 C13 1_555 1_555
H14 C13 1_555 1_555
H15 C13 1_555 1_555
C14 Si2 1_555 1_555
H16 C14 1_555 1_555
H17 C14 1_555 1_555
H18 C14 1_555 1_555
C15 Si4 1_555 1_555
H19 C15 1_555 1_555
H20 C15 1_555 1_555
H21 C15 1_555 1_555
C16 Si4 1_555 1_555
H22 C16 1_555 1_555
H23 C16 1_555 1_555
H24 C16 1_555 1_555
C17 Si4 1_555 1_555
H25 C17 1_555 1_555
H26 C17 1_555 1_555
H27 C17 1_555 1_555
C18 Si1 1_555 1_555
H28 C18 1_555 1_555
H29 C18 1_555 1_555
H30 C18 1_555 1_555
C19 Si2 1_555 1_555
H31 C19 1_555 1_555
H32 C19 1_555 1_555
H33 C19 1_555 1_555
C20 Si3 1_555 1_555
H34 C20 1_555 1_555
H35 C20 1_555 1_555
H36 C20 1_555 1_555
Si2 C7 1_555 1_555
C7 C8 1_555 1_555

#END
