
#######################################################################
#
#                 Cambridge Crystallographic Data Centre
#                                CCDC 
#
#######################################################################
#
# If this CIF has been generated from an entry in the Cambridge 
# Structural Database, then it will include bibliographic, chemical, 
# crystal, experimental, refinement or atomic coordinate data resulting 
# from the CCDC's data processing and validation procedures.
#
#######################################################################

data_BUCZEG
_chemical_formula_moiety         'C48 H30 O2,C1 H4 O1,C2 H3 N1'
_chemical_name_systematic        
"3,3'-di(9-anthryl)-1,1'-binaphthalene-2,2'-diol methanol acetonitrile solvate"
_symmetry_cell_setting           orthorhombic
_symmetry_space_group_name_H-M   'P 21 21 21'
_symmetry_Int_Tables_number      19
_space_group_name_Hall           'P 2ac 2ab'
loop_
_symmetry_equiv_pos_site_id
_symmetry_equiv_pos_as_xyz
1 x,y,z
2 1/2+x,1/2-y,-z
3 -x,1/2+y,1/2-z
4 1/2-x,-y,1/2+z
_cell_length_a                   9.65330(10)
_cell_length_b                   12.35110(10)
_cell_length_c                   31.0364(4)
_cell_angle_alpha                90
_cell_angle_beta                 90
_cell_angle_gamma                90
_cell_volume                     3700.44
_exptl_crystal_colour            colorless
_exptl_crystal_description       plate
_cell_formula_units_Z            4
loop_
_atom_site_label
_atom_site_type_symbol
_atom_site_fract_x
_atom_site_fract_y
_atom_site_fract_z
O1 O 0.4123(2) 0.28329(15) 0.37421(6)
O2 O 0.1252(2) 0.13057(15) 0.43507(6)
C1 C 0.2463(3) 0.52599(17) 0.32947(7)
C2 C 0.1135(3) 0.5194(2) 0.34951(9)
C3 C 0.0449(4) 0.6091(2) 0.36275(11)
C4 C 0.1035(4) 0.7137(2) 0.35676(10)
C5 C 0.2306(4) 0.7244(2) 0.33848(9)
C6 C 0.3060(3) 0.63181(19) 0.32418(8)
C7 C 0.4370(3) 0.6413(2) 0.30579(8)
C8 C 0.5127(3) 0.5508(2) 0.29255(8)
C9 C 0.6494(3) 0.5603(3) 0.27584(9)
C10 C 0.7225(3) 0.4718(3) 0.26406(9)
C11 C 0.6624(3) 0.3666(3) 0.26737(9)
C12 C 0.5319(3) 0.3538(2) 0.28298(8)
C13 C 0.4518(3) 0.44454(19) 0.29705(7)
C14 C 0.3187(3) 0.43367(18) 0.31505(7)
C15 C 0.2541(3) 0.32395(17) 0.31897(7)
C16 C 0.1448(3) 0.29466(19) 0.29323(7)
C17 C 0.0798(2) 0.19201(18) 0.29705(7)
C18 C -0.0336(3) 0.1614(2) 0.27060(8)
C19 C -0.0966(3) 0.0629(2) 0.27582(8)
C20 C -0.0479(3) -0.0102(2) 0.30708(8)
C21 C 0.0626(3) 0.01626(19) 0.33265(8)
C22 C 0.1294(2) 0.11829(18) 0.32876(7)
C23 C 0.2442(2) 0.14772(17) 0.35518(7)
C24 C 0.3033(2) 0.24878(18) 0.35020(7)
C25 C 0.2337(3) 0.06293(18) 0.42794(7)
C26 C 0.2978(2) 0.06942(18) 0.38795(7)
C27 C 0.4090(2) -0.00213(18) 0.37798(7)
C28 C 0.4762(3) -0.0024(2) 0.33743(8)
C29 C 0.5805(3) -0.0742(2) 0.32871(9)
C30 C 0.6241(3) -0.1502(2) 0.35973(9)
C31 C 0.5623(3) -0.1514(2) 0.39946(9)
C32 C 0.4541(3) -0.07796(19) 0.40971(8)
C33 C 0.3872(3) -0.0796(2) 0.45015(8)
C34 C 0.2771(3) -0.01320(19) 0.45945(7)
C35 C 0.2008(3) -0.0218(2) 0.50128(7)
C36 C 0.0718(3) -0.0767(2) 0.50193(8)
C37 C 0.0152(3) -0.1273(2) 0.46464(9)
C38 C -0.1127(3) -0.1746(2) 0.46527(11)
C39 C -0.1928(3) -0.1742(3) 0.50362(12)
C40 C -0.1402(3) -0.1305(3) 0.54021(11)
C41 C -0.0076(3) -0.0808(2) 0.54091(9)
C42 C 0.0453(3) -0.0324(2) 0.57803(9)
C43 C 0.1719(3) 0.0220(2) 0.57790(8)
C44 C 0.2211(3) 0.0763(2) 0.61554(9)
C45 C 0.3419(4) 0.1330(3) 0.61442(9)
C46 C 0.4208(4) 0.1388(2) 0.57582(9)
C47 C 0.3776(3) 0.0882(2) 0.53965(9)
C48 C 0.2508(3) 0.02780(19) 0.53876(7)
H1 H 0.4226 0.2408 0.3949
H2 H 0.0938 0.1278 0.4592
H3 H 0.0730 0.4506 0.3541
H4 H -0.0420 0.6015 0.3773
H5 H 0.0534 0.7748 0.3667
H6 H 0.2730 0.7933 0.3343
H7 H 0.4759 0.7113 0.3027
H8 H 0.6883 0.6295 0.2735
H9 H 0.8161 0.4805 0.2529
H10 H 0.7151 0.3059 0.2581
H11 H 0.4932 0.2838 0.2874
H12 H 0.1106 0.3442 0.2718
H13 H -0.0652 0.2100 0.2493
H14 H -0.1687 0.0440 0.2575
H15 H -0.0918 -0.0776 0.3102
H16 H 0.0948 -0.0320 0.3546
H17 H 0.4478 0.0468 0.3167
H18 H 0.6228 -0.0725 0.3026
H19 H 0.6952 -0.1989 0.3530
H20 H 0.5925 -0.2032 0.4214
H21 H 0.4186 -0.1290 0.4711
H22 H 0.0688 -0.1273 0.4381
H23 H -0.1489 -0.2079 0.4398
H24 H -0.2842 -0.2043 0.5022
H25 H -0.1942 -0.1324 0.5661
H26 H -0.0080 -0.0357 0.6032
H27 H 0.1678 0.0734 0.6425
H28 H 0.3743 0.1717 0.6391
H29 H 0.5034 0.1785 0.5765
H30 H 0.4287 0.0910 0.5141
O3 O 0.4663(3) 0.3325(2) 0.49509(8)
C49 C 0.3339(5) 0.3491(4) 0.48044(14)
H31 H 0.5063 0.2887 0.4790
H32 H 0.2857 0.4018 0.4998
H33 H 0.3374 0.3789 0.4505
H34 H 0.2821 0.2790 0.4803
C50 C 0.6793(5) 0.1399(3) 0.42185(14)
C51 C 0.7924(5) 0.0915(4) 0.40102(18)
N1 N 0.5880(4) 0.1781(3) 0.43696(13)
H35 H 0.8842 0.1242 0.4110
H36 H 0.7852 0.1053 0.3689
H37 H 0.7934 0.0115 0.4053
loop_
_geom_bond_atom_site_label_1
_geom_bond_atom_site_label_2
_geom_bond_site_symmetry_1
_geom_bond_site_symmetry_2
O1 C24 1_555 1_555
O2 C25 1_555 1_555
C1 C2 1_555 1_555
C2 C3 1_555 1_555
C3 C4 1_555 1_555
C4 C5 1_555 1_555
C5 C6 1_555 1_555
C6 C1 1_555 1_555
C7 C6 1_555 1_555
C8 C7 1_555 1_555
C9 C8 1_555 1_555
C10 C9 1_555 1_555
C11 C10 1_555 1_555
C12 C11 1_555 1_555
C13 C8 1_555 1_555
C14 C1 1_555 1_555
C15 C14 1_555 1_555
C16 C15 1_555 1_555
C17 C16 1_555 1_555
C18 C17 1_555 1_555
C19 C18 1_555 1_555
C20 C19 1_555 1_555
C21 C20 1_555 1_555
C22 C17 1_555 1_555
C23 C22 1_555 1_555
C24 C15 1_555 1_555
C25 C26 1_555 1_555
C26 C23 1_555 1_555
C27 C26 1_555 1_555
C28 C27 1_555 1_555
C29 C28 1_555 1_555
C30 C29 1_555 1_555
C31 C30 1_555 1_555
C32 C27 1_555 1_555
C33 C32 1_555 1_555
C34 C25 1_555 1_555
C35 C34 1_555 1_555
C36 C35 1_555 1_555
C37 C36 1_555 1_555
C38 C37 1_555 1_555
C39 C38 1_555 1_555
C40 C39 1_555 1_555
C41 C36 1_555 1_555
C42 C41 1_555 1_555
C43 C42 1_555 1_555
C44 C43 1_555 1_555
C45 C44 1_555 1_555
C46 C45 1_555 1_555
C47 C46 1_555 1_555
C48 C35 1_555 1_555
H1 O1 1_555 1_555
H2 O2 1_555 1_555
H3 C2 1_555 1_555
H4 C3 1_555 1_555
H5 C4 1_555 1_555
H6 C5 1_555 1_555
H7 C7 1_555 1_555
H8 C9 1_555 1_555
H9 C10 1_555 1_555
H10 C11 1_555 1_555
H11 C12 1_555 1_555
H12 C16 1_555 1_555
H13 C18 1_555 1_555
H14 C19 1_555 1_555
H15 C20 1_555 1_555
H16 C21 1_555 1_555
H17 C28 1_555 1_555
H18 C29 1_555 1_555
H19 C30 1_555 1_555
H20 C31 1_555 1_555
H21 C33 1_555 1_555
H22 C37 1_555 1_555
H23 C38 1_555 1_555
H24 C39 1_555 1_555
H25 C40 1_555 1_555
H26 C42 1_555 1_555
H27 C44 1_555 1_555
H28 C45 1_555 1_555
H29 C46 1_555 1_555
H30 C47 1_555 1_555
O3 C49 1_555 1_555
C49 H32 1_555 1_555
H31 O3 1_555 1_555
H33 C49 1_555 1_555
H34 C49 1_555 1_555
C50 C51 1_555 1_555
C51 H35 1_555 1_555
N1 C50 1_555 1_555
H36 C51 1_555 1_555
H37 C51 1_555 1_555
C12 C13 1_555 1_555
C13 C14 1_555 1_555
C21 C22 1_555 1_555
C23 C24 1_555 1_555
C31 C32 1_555 1_555
C33 C34 1_555 1_555
C40 C41 1_555 1_555
C43 C48 1_555 1_555
C47 C48 1_555 1_555

#END
