
#######################################################################
#
#                 Cambridge Crystallographic Data Centre
#                                CCDC 
#
#######################################################################
#
# If this CIF has been generated from an entry in the Cambridge 
# Structural Database, then it will include bibliographic, chemical, 
# crystal, experimental, refinement or atomic coordinate data resulting 
# from the CCDC's data processing and validation procedures.
#
#######################################################################

data_BUCZUW
_chemical_formula_moiety         'C48 H30 O2,C4 H8 O2'
_chemical_name_systematic        
"3,3'-bis(9-anthryl)-1,1'-binaphthalene-2,2'-diol ethyl acetate solvate"
_symmetry_cell_setting           orthorhombic
_symmetry_space_group_name_H-M   'P 21 21 21'
_symmetry_Int_Tables_number      19
_space_group_name_Hall           'P 2ac 2ab'
loop_
_symmetry_equiv_pos_site_id
_symmetry_equiv_pos_as_xyz
1 x,y,z
2 1/2+x,1/2-y,-z
3 -x,1/2+y,1/2-z
4 1/2-x,-y,1/2+z
_cell_length_a                   9.66110(10)
_cell_length_b                   12.3689(2)
_cell_length_c                   31.4468(4)
_cell_angle_alpha                90
_cell_angle_beta                 90
_cell_angle_gamma                90
_cell_volume                     3757.8
_exptl_crystal_colour            colorless
_exptl_crystal_description       plate
_cell_formula_units_Z            4
loop_
_atom_site_label
_atom_site_type_symbol
_atom_site_fract_x
_atom_site_fract_y
_atom_site_fract_z
O1 O 0.41886(14) 0.26344(11) 0.37011(4)
O2 O 0.10928(14) 0.11837(11) 0.43081(4)
C1 C 0.2499(2) 0.51051(15) 0.32845(5)
C2 C 0.1180(2) 0.50390(16) 0.34873(7)
C3 C 0.0500(3) 0.59468(18) 0.36196(8)
C4 C 0.1084(3) 0.69786(18) 0.35606(8)
C5 C 0.2345(3) 0.70898(16) 0.33764(7)
C6 C 0.3098(2) 0.61598(15) 0.32317(6)
C7 C 0.4400(2) 0.62522(17) 0.30480(6)
C8 C 0.5156(2) 0.53532(17) 0.29195(6)
C9 C 0.6531(3) 0.5445(2) 0.27544(7)
C10 C 0.7269(3) 0.4568(2) 0.26432(7)
C11 C 0.6667(2) 0.3519(2) 0.26759(7)
C12 C 0.5350(2) 0.33904(18) 0.28258(6)
C13 C 0.4549(2) 0.42930(16) 0.29620(5)
C14 C 0.3223(2) 0.41829(15) 0.31386(5)
C15 C 0.2564(2) 0.30904(14) 0.31741(5)
C16 C 0.1453(2) 0.28134(15) 0.29220(6)
C17 C 0.07797(19) 0.18018(14) 0.29571(5)
C18 C -0.0355(2) 0.15075(17) 0.26934(6)
C19 C -0.1008(2) 0.05334(17) 0.27425(6)
C20 C -0.0544(2) -0.02004(16) 0.30526(6)
C21 C 0.0560(2) 0.00467(14) 0.33086(6)
C22 C 0.12501(18) 0.10580(14) 0.32702(5)
C23 C 0.24036(18) 0.13366(14) 0.35316(5)
C24 C 0.30553(18) 0.23197(15) 0.34762(5)
C25 C 0.21962(19) 0.05032(14) 0.42505(5)
C26 C 0.28824(19) 0.05573(14) 0.38652(5)
C27 C 0.39900(19) -0.01732(15) 0.37810(5)
C28 C 0.4682(2) -0.02068(16) 0.33816(6)
C29 C 0.5712(2) -0.09436(17) 0.33077(6)
C30 C 0.6114(2) -0.16817(17) 0.36227(7)
C31 C 0.5472(2) -0.16704(16) 0.40125(7)
C32 C 0.44015(19) -0.09211(15) 0.41015(6)
C33 C 0.3698(2) -0.09134(16) 0.44965(6)
C34 C 0.2600(2) -0.02356(15) 0.45736(6)
C35 C 0.1797(2) -0.02815(16) 0.49843(6)
C36 C 0.0482(2) -0.07813(16) 0.49885(6)
C37 C -0.0099(2) -0.12883(18) 0.46220(7)
C38 C -0.1390(3) -0.1726(2) 0.46296(9)
C39 C -0.2202(3) -0.1675(2) 0.50079(9)
C40 C -0.1676(3) -0.1238(2) 0.53650(9)
C41 C -0.0318(2) -0.07839(17) 0.53735(7)
C42 C 0.0229(2) -0.03169(19) 0.57394(7)
C43 C 0.1520(2) 0.01841(18) 0.57417(6)
C44 C 0.2048(3) 0.0716(2) 0.61083(7)
C45 C 0.3279(3) 0.1240(2) 0.61003(7)
C46 C 0.4081(3) 0.12534(19) 0.57253(7)
C47 C 0.3630(2) 0.07495(18) 0.53647(6)
C48 C 0.2323(2) 0.01978(16) 0.53505(6)
H1 H 0.0734 0.4346 0.3525
H2 H -0.0384 0.5861 0.3756
H3 H 0.0564 0.7603 0.3661
H4 H 0.2767 0.7783 0.3326
H5 H 0.4806 0.6975 0.3008
H6 H 0.6912 0.6152 0.2723
H7 H 0.8190 0.4646 0.2537
H8 H 0.7177 0.2891 0.2583
H9 H 0.4943 0.2664 0.2842
H10 H 0.1133 0.3330 0.2715
H11 H -0.0648 0.1991 0.2478
H12 H -0.1788 0.0357 0.2566
H13 H -0.1004 -0.0894 0.3082
H14 H 0.0895 -0.0458 0.3519
H15 H 0.4414 0.0300 0.3163
H16 H 0.6178 -0.0974 0.3038
H17 H 0.6837 -0.2178 0.3566
H18 H 0.5724 -0.2196 0.4230
H19 H 0.3994 -0.1419 0.4719
H20 H 0.0453 -0.1307 0.4362
H21 H -0.1748 -0.2077 0.4376
H22 H -0.3103 -0.1985 0.5000
H23 H -0.2244 -0.1259 0.5626
H24 H -0.0290 -0.0319 0.5999
H25 H 0.1493 0.0685 0.6366
H26 H 0.3614 0.1619 0.6348
H27 H 0.4953 0.1638 0.5732
H28 H 0.4194 0.0745 0.5106
H29 H 0.4400 0.2131 0.3883
H30 H 0.0709 0.1002 0.4547
O3 O 0.57439(16) 0.15722(14) 0.43055(5)
O4 O 0.77982(16) 0.13259(13) 0.46126(5)
C49 C 0.7687(3) 0.1042(2) 0.38800(8)
C50 C 0.6954(2) 0.13489(17) 0.42761(7)
C51 C 0.7162(3) 0.1567(3) 0.50189(7)
C52 C 0.8264(3) 0.1860(2) 0.53263(9)
H31 H 0.8649 0.1306 0.3897
H32 H 0.7647 0.0248 0.3853
H33 H 0.7235 0.1387 0.3630
H34 H 0.6521 0.2195 0.4972
H35 H 0.6617 0.0928 0.5114
H36 H 0.7851 0.1921 0.5620
H37 H 0.8603 0.2586 0.5235
H38 H 0.9032 0.1319 0.5321
loop_
_geom_bond_atom_site_label_1
_geom_bond_atom_site_label_2
_geom_bond_site_symmetry_1
_geom_bond_site_symmetry_2
O1 C24 1_555 1_555
O2 C25 1_555 1_555
C1 C2 1_555 1_555
C2 C3 1_555 1_555
C3 C4 1_555 1_555
C4 C5 1_555 1_555
C5 C6 1_555 1_555
C6 C1 1_555 1_555
C7 C6 1_555 1_555
C8 C7 1_555 1_555
C9 C8 1_555 1_555
C10 C9 1_555 1_555
C11 C10 1_555 1_555
C12 C11 1_555 1_555
C13 C8 1_555 1_555
C14 C1 1_555 1_555
C15 C14 1_555 1_555
C16 C15 1_555 1_555
C17 C16 1_555 1_555
C18 C17 1_555 1_555
C19 C18 1_555 1_555
C20 C19 1_555 1_555
C21 C20 1_555 1_555
C22 C17 1_555 1_555
C23 C22 1_555 1_555
C24 C15 1_555 1_555
C25 C26 1_555 1_555
C26 C23 1_555 1_555
C27 C26 1_555 1_555
C28 C27 1_555 1_555
C29 C28 1_555 1_555
C30 C29 1_555 1_555
C31 C30 1_555 1_555
C32 C27 1_555 1_555
C33 C32 1_555 1_555
C34 C25 1_555 1_555
C35 C34 1_555 1_555
C36 C35 1_555 1_555
C37 C36 1_555 1_555
C38 C37 1_555 1_555
C39 C38 1_555 1_555
C40 C39 1_555 1_555
C41 C36 1_555 1_555
C42 C41 1_555 1_555
C43 C42 1_555 1_555
C44 C43 1_555 1_555
C45 C44 1_555 1_555
C46 C45 1_555 1_555
C47 C46 1_555 1_555
C48 C35 1_555 1_555
H1 C2 1_555 1_555
H2 C3 1_555 1_555
H3 C4 1_555 1_555
H4 C5 1_555 1_555
H5 C7 1_555 1_555
H6 C9 1_555 1_555
H7 C10 1_555 1_555
H8 C11 1_555 1_555
H9 C12 1_555 1_555
H10 C16 1_555 1_555
H11 C18 1_555 1_555
H12 C19 1_555 1_555
H13 C20 1_555 1_555
H14 C21 1_555 1_555
H15 C28 1_555 1_555
H16 C29 1_555 1_555
H17 C30 1_555 1_555
H18 C31 1_555 1_555
H19 C33 1_555 1_555
H20 C37 1_555 1_555
H21 C38 1_555 1_555
H22 C39 1_555 1_555
H23 C40 1_555 1_555
H24 C42 1_555 1_555
H25 C44 1_555 1_555
H26 C45 1_555 1_555
H27 C46 1_555 1_555
H28 C47 1_555 1_555
H29 O1 1_555 1_555
H30 O2 1_555 1_555
O3 C50 1_555 1_555
O4 C50 1_555 1_555
C49 C50 1_555 1_555
C51 O4 1_555 1_555
C52 C51 1_555 1_555
H31 C49 1_555 1_555
H32 C49 1_555 1_555
H33 C49 1_555 1_555
H34 C51 1_555 1_555
H35 C51 1_555 1_555
H36 C52 1_555 1_555
H37 C52 1_555 1_555
H38 C52 1_555 1_555
C12 C13 1_555 1_555
C13 C14 1_555 1_555
C21 C22 1_555 1_555
C23 C24 1_555 1_555
C31 C32 1_555 1_555
C33 C34 1_555 1_555
C40 C41 1_555 1_555
C43 C48 1_555 1_555
C47 C48 1_555 1_555

#END
