
#######################################################################
#
#                 Cambridge Crystallographic Data Centre
#                                CCDC 
#
#######################################################################
#
# If this CIF has been generated from an entry in the Cambridge 
# Structural Database, then it will include bibliographic, chemical, 
# crystal, experimental, refinement or atomic coordinate data resulting 
# from the CCDC's data processing and validation procedures.
#
#######################################################################

data_BUDBAF
_chemical_formula_moiety         'C48 H29 O2 1-,C16 H36 N1 1+'
_chemical_name_systematic        
"N,N,N-tributylbutan-1-aminium 3,3'-bis(9-anthryl)-2'-hydroxy-1,1'-binaphthalen-2-olate"
_symmetry_cell_setting           monoclinic
_symmetry_space_group_name_H-M   'P 21'
_symmetry_Int_Tables_number      4
_space_group_name_Hall           'P 2yb'
loop_
_symmetry_equiv_pos_site_id
_symmetry_equiv_pos_as_xyz
1 x,y,z
2 -x,1/2+y,-z
_cell_length_a                   9.69550(10)
_cell_length_b                   17.6345(2)
_cell_length_c                   14.1060(2)
_cell_angle_alpha                90
_cell_angle_beta                 97.9126(7)
_cell_angle_gamma                90
_cell_volume                     2388.82
_exptl_crystal_colour            yellowish
_exptl_crystal_description       plate
_cell_formula_units_Z            2
loop_
_atom_site_label
_atom_site_type_symbol
_atom_site_fract_x
_atom_site_fract_y
_atom_site_fract_z
O1 O 0.58799(18) 0.31915(12) 0.63100(13)
O2 O 0.6594(2) 0.32276(11) 0.80559(13)
C1 C 0.4958(3) 0.28228(16) 0.41705(18)
C2 C 0.5020(3) 0.36360(17) 0.42160(19)
C3 C 0.3969(3) 0.40764(19) 0.3769(2)
C4 C 0.2763(3) 0.3747(2) 0.3242(2)
C5 C 0.2654(3) 0.2982(2) 0.3169(2)
C6 C 0.3731(3) 0.24951(18) 0.36194(19)
C7 C 0.3625(3) 0.17126(19) 0.3523(2)
C8 C 0.4706(3) 0.12383(17) 0.3919(2)
C9 C 0.4640(3) 0.04338(19) 0.3754(2)
C10 C 0.5707(3) -0.00244(18) 0.4077(2)
C11 C 0.6919(3) 0.02834(18) 0.4624(2)
C12 C 0.7021(3) 0.10381(17) 0.4829(2)
C13 C 0.5931(3) 0.15581(16) 0.44699(18)
C14 C 0.6005(3) 0.23565(16) 0.46028(18)
C15 C 0.7273(3) 0.26981(15) 0.51925(17)
C16 C 0.8577(3) 0.25929(16) 0.49264(18)
C17 C 0.9800(3) 0.28500(16) 0.54955(18)
C18 C 1.1141(3) 0.26606(18) 0.5258(2)
C19 C 1.2332(3) 0.28899(19) 0.5827(2)
C20 C 1.2217(3) 0.33148(18) 0.6660(2)
C21 C 1.0944(3) 0.35029(16) 0.69072(19)
C22 C 0.9679(2) 0.32876(15) 0.63265(17)
C23 C 0.8322(2) 0.34795(15) 0.65645(17)
C24 C 0.7158(2) 0.31299(15) 0.60429(17)
C25 C 0.8175(2) 0.40275(14) 0.73626(17)
C26 C 0.8833(2) 0.47579(15) 0.73838(17)
C27 C 0.9503(3) 0.50416(16) 0.66076(19)
C28 C 1.0115(3) 0.57461(17) 0.6642(2)
C29 C 1.0121(3) 0.62163(17) 0.7452(2)
C30 C 0.9472(3) 0.59710(16) 0.8202(2)
C31 C 0.8808(3) 0.52521(15) 0.81734(18)
C32 C 0.8082(3) 0.50177(15) 0.89330(18)
C33 C 0.7364(3) 0.43500(15) 0.88936(17)
C34 C 0.7361(2) 0.38462(15) 0.80858(18)
C35 C 0.6570(3) 0.41389(15) 0.97009(17)
C36 C 0.5115(3) 0.42333(15) 0.95960(19)
C37 C 0.4340(3) 0.45156(17) 0.8734(2)
C38 C 0.2942(3) 0.46523(18) 0.8672(2)
C39 C 0.2223(3) 0.4503(2) 0.9464(3)
C40 C 0.2912(3) 0.4217(2) 1.0289(2)
C41 C 0.4376(3) 0.40741(17) 1.0390(2)
C42 C 0.5110(3) 0.38144(18) 1.1255(2)
C43 C 0.6556(3) 0.37370(17) 1.1375(2)
C44 C 0.7321(4) 0.3509(2) 1.2274(2)
C45 C 0.8732(3) 0.3461(2) 1.2392(2)
C46 C 0.9473(3) 0.3616(2) 1.1612(2)
C47 C 0.8795(3) 0.38293(19) 1.0741(2)
C48 C 0.7301(3) 0.39046(16) 1.05858(19)
H1 H 0.6021 0.3194 0.6928
H2 H 0.5839 0.3881 0.4573
H3 H 0.4054 0.4614 0.3798
H4 H 0.2016 0.4053 0.2938
H5 H 0.1832 0.2757 0.2814
H6 H 0.2798 0.1482 0.3176
H7 H 0.3834 0.0224 0.3387
H8 H 0.5627 -0.0563 0.3944
H9 H 0.7691 -0.0034 0.4868
H10 H 0.7847 0.1221 0.5230
H11 H 0.8677 0.2340 0.4340
H12 H 1.1199 0.2371 0.4688
H13 H 1.3223 0.2766 0.5673
H14 H 1.3038 0.3479 0.7047
H15 H 1.0886 0.3792 0.7482
H16 H 0.9510 0.4728 0.6061
H17 H 1.0551 0.5921 0.6118
H18 H 1.0582 0.6707 0.7483
H19 H 0.9456 0.6288 0.8745
H20 H 0.8114 0.5336 0.9488
H21 H 0.4815 0.4601 0.8188
H22 H 0.2448 0.4859 0.8090
H23 H 0.1236 0.4602 0.9405
H24 H 0.2434 0.4104 1.0821
H25 H 0.4616 0.3684 1.1780
H26 H 0.6810 0.3390 1.2794
H27 H 0.9248 0.3332 1.3013
H28 H 1.0475 0.3558 1.1709
H29 H 0.9290 0.3925 1.0217
N1 N 0.4168(3) 0.14236(15) 0.8679(2)
C49 C 0.3461(4) 0.06755(19) 0.8379(3)
C50 C 0.2515(4) 0.0653(2) 0.7433(3)
C51 C 0.3156(5) 0.0423(4) 0.6601(3)
C52 C 0.2016(7) 0.0244(4) 0.5731(4)
C53 C 0.3106(3) 0.20624(19) 0.8668(3)
C54 C 0.1955(4) 0.1918(2) 0.9274(3)
C55 C 0.0693(4) 0.2432(2) 0.8971(3)
C56 C -0.0508(4) 0.2256(3) 0.9500(3)
C57 C 0.4928(3) 0.13033(18) 0.9682(2)
C58 C 0.5797(3) 0.19755(19) 1.0090(2)
C59 C 0.6749(4) 0.1751(2) 1.1006(2)
C60 C 0.5964(4) 0.1598(2) 1.1848(3)
C61 C 0.5173(3) 0.16509(19) 0.7996(2)
C62 C 0.6389(4) 0.1115(2) 0.7959(3)
C63 C 0.7360(4) 0.1443(2) 0.7302(3)
C64 C 0.8627(4) 0.0943(3) 0.7248(3)
H30 H 0.2926 0.0535 0.8919
H31 H 0.4224 0.0312 0.8336
H32 H 0.1775 0.0238 0.7440
H33 H 0.2090 0.1167 0.7302
H34 H 0.3697 -0.0053 0.6778
H35 H 0.3791 0.0844 0.6451
H36 H 0.2471 0.0090 0.5177
H37 H 0.1454 -0.0166 0.5955
H38 H 0.1435 0.0692 0.5594
H39 H 0.2672 0.2112 0.7990
H40 H 0.3639 0.2523 0.8873
H41 H 0.1697 0.1374 0.9221
H42 H 0.2358 0.2036 0.9957
H43 H 0.0395 0.2349 0.8270
H44 H 0.0983 0.2970 0.9104
H45 H -0.1315 0.2580 0.9241
H46 H -0.0720 0.1707 0.9381
H47 H -0.0240 0.2344 1.0204
H48 H 0.4206 0.1194 1.0113
H49 H 0.5564 0.0855 0.9630
H50 H 0.5175 0.2388 1.0262
H51 H 0.6395 0.2131 0.9586
H52 H 0.7293 0.1298 1.0854
H53 H 0.7406 0.2186 1.1186
H54 H 0.6586 0.1414 1.2412
H55 H 0.5249 0.1211 1.1633
H56 H 0.5502 0.2068 1.2008
H57 H 0.4608 0.1680 0.7356
H58 H 0.5535 0.2157 0.8198
H59 H 0.6082 0.0607 0.7672
H60 H 0.6936 0.1063 0.8617
H61 H 0.6820 0.1507 0.6640
H62 H 0.7658 0.1963 0.7574
H63 H 0.9258 0.1193 0.6852
H64 H 0.8304 0.0453 0.6945
H65 H 0.9109 0.0862 0.7928
loop_
_geom_bond_atom_site_label_1
_geom_bond_atom_site_label_2
_geom_bond_site_symmetry_1
_geom_bond_site_symmetry_2
O1 C24 1_555 1_555
O2 C34 1_555 1_555
C1 C2 1_555 1_555
C2 C3 1_555 1_555
C3 C4 1_555 1_555
C4 C5 1_555 1_555
C5 C6 1_555 1_555
C6 C1 1_555 1_555
C7 C6 1_555 1_555
C8 C7 1_555 1_555
C9 C8 1_555 1_555
C10 C9 1_555 1_555
C11 C10 1_555 1_555
C12 C11 1_555 1_555
C13 C8 1_555 1_555
C14 C1 1_555 1_555
C15 C14 1_555 1_555
C16 C15 1_555 1_555
C17 C16 1_555 1_555
C18 C17 1_555 1_555
C19 C18 1_555 1_555
C20 C19 1_555 1_555
C21 C20 1_555 1_555
C22 C17 1_555 1_555
C23 C22 1_555 1_555
C24 C15 1_555 1_555
C25 C23 1_555 1_555
C26 C25 1_555 1_555
C27 C26 1_555 1_555
C28 C27 1_555 1_555
C29 C28 1_555 1_555
C30 C29 1_555 1_555
C31 C26 1_555 1_555
C32 C31 1_555 1_555
C33 C32 1_555 1_555
C34 C25 1_555 1_555
C35 C33 1_555 1_555
C36 C35 1_555 1_555
C37 C36 1_555 1_555
C38 C37 1_555 1_555
C39 C38 1_555 1_555
C40 C39 1_555 1_555
C41 C36 1_555 1_555
C42 C41 1_555 1_555
C43 C42 1_555 1_555
C44 C43 1_555 1_555
C45 C44 1_555 1_555
C46 C45 1_555 1_555
C47 C46 1_555 1_555
C48 C35 1_555 1_555
H1 O1 1_555 1_555
H2 C2 1_555 1_555
H3 C3 1_555 1_555
H4 C4 1_555 1_555
H5 C5 1_555 1_555
H6 C7 1_555 1_555
H7 C9 1_555 1_555
H8 C10 1_555 1_555
H9 C11 1_555 1_555
H10 C12 1_555 1_555
H11 C16 1_555 1_555
H12 C18 1_555 1_555
H13 C19 1_555 1_555
H14 C20 1_555 1_555
H15 C21 1_555 1_555
H16 C27 1_555 1_555
H17 C28 1_555 1_555
H18 C29 1_555 1_555
H19 C30 1_555 1_555
H20 C32 1_555 1_555
H21 C37 1_555 1_555
H22 C38 1_555 1_555
H23 C39 1_555 1_555
H24 C40 1_555 1_555
H25 C42 1_555 1_555
H26 C44 1_555 1_555
H27 C45 1_555 1_555
H28 C46 1_555 1_555
H29 C47 1_555 1_555
N1 C49 1_555 1_555
C49 C50 1_555 1_555
C50 C51 1_555 1_555
C51 C52 1_555 1_555
C52 H36 1_555 1_555
C53 N1 1_555 1_555
C54 C53 1_555 1_555
C55 C54 1_555 1_555
C56 C55 1_555 1_555
C57 N1 1_555 1_555
C58 C57 1_555 1_555
C59 C58 1_555 1_555
C60 C59 1_555 1_555
C61 N1 1_555 1_555
C62 C61 1_555 1_555
C63 C62 1_555 1_555
C64 C63 1_555 1_555
H30 C49 1_555 1_555
H31 C49 1_555 1_555
H32 C50 1_555 1_555
H33 C50 1_555 1_555
H34 C51 1_555 1_555
H35 C51 1_555 1_555
H37 C52 1_555 1_555
H38 C52 1_555 1_555
H39 C53 1_555 1_555
H40 C53 1_555 1_555
H41 C54 1_555 1_555
H42 C54 1_555 1_555
H43 C55 1_555 1_555
H44 C55 1_555 1_555
H45 C56 1_555 1_555
H46 C56 1_555 1_555
H47 C56 1_555 1_555
H48 C57 1_555 1_555
H49 C57 1_555 1_555
H50 C58 1_555 1_555
H51 C58 1_555 1_555
H52 C59 1_555 1_555
H53 C59 1_555 1_555
H54 C60 1_555 1_555
H55 C60 1_555 1_555
H56 C60 1_555 1_555
H57 C61 1_555 1_555
H58 C61 1_555 1_555
H59 C62 1_555 1_555
H60 C62 1_555 1_555
H61 C63 1_555 1_555
H62 C63 1_555 1_555
H63 C64 1_555 1_555
H64 C64 1_555 1_555
H65 C64 1_555 1_555
C12 C13 1_555 1_555
C13 C14 1_555 1_555
C21 C22 1_555 1_555
C23 C24 1_555 1_555
C30 C31 1_555 1_555
C33 C34 1_555 1_555
C40 C41 1_555 1_555
C43 C48 1_555 1_555
C47 C48 1_555 1_555

#END
