
#######################################################################
#
#                 Cambridge Crystallographic Data Centre
#                                CCDC 
#
#######################################################################
#
# If this CIF has been generated from an entry in the Cambridge 
# Structural Database, then it will include bibliographic, chemical, 
# crystal, experimental, refinement or atomic coordinate data resulting 
# from the CCDC's data processing and validation procedures.
#
#######################################################################

data_BUDKES
_chemical_name_common            
'Pyridinium-2-carboxylic acid pyridinium-2-carboxylate perchlorate'
_chemical_formula_moiety         'C12 H11 N2 O4 1+,Cl1 O4 1-'
_chemical_name_systematic        
'Hydridobis(pyridinium-2-carboxylate) perchlorate'
_symmetry_cell_setting           monoclinic
_symmetry_space_group_name_H-M   'P 2/c'
_symmetry_Int_Tables_number      13
_space_group_name_Hall           '-P 2yc'
loop_
_symmetry_equiv_pos_site_id
_symmetry_equiv_pos_as_xyz
1 x,y,z
2 -x,y,1/2-z
3 -x,-y,-z
4 x,-y,1/2+z
_cell_length_a                   10.252(2)
_cell_length_b                   5.8362(12)
_cell_length_c                   12.656(3)
_cell_angle_alpha                90
_cell_angle_beta                 106.29(3)
_cell_angle_gamma                90
_cell_volume                     726.843
_exptl_crystal_colour            colorless
_exptl_crystal_description       block
_cell_formula_units_Z            2
loop_
_atom_site_label
_atom_site_type_symbol
_atom_site_fract_x
_atom_site_fract_y
_atom_site_fract_z
Cl1 Cl 0.0000 0.0825(2) 0.2500
O1 O 0.1473(8) 0.0405(17) 0.2797(8)
O2 O -0.0213(10) 0.0573(15) 0.1267(5)
O1A O -0.1473(8) 0.0405(17) 0.2203(8)
O2A O 0.0213(10) 0.0573(15) 0.3733(5)
C1 C 0.2661(4) 0.2338(6) 0.6031(3)
H1 H 0.2728 0.1233 0.6573
C2 C 0.1825(4) 0.4194(7) 0.5974(3)
H2 H 0.1314 0.4357 0.6471
C3 C 0.1753(3) 0.5825(6) 0.5162(3)
H3 H 0.1200 0.7105 0.5120
C4 C 0.2498(3) 0.5556(6) 0.4416(3)
H4 H 0.2447 0.6639 0.3867
C5 C 0.3322(3) 0.3654(5) 0.4498(2)
C6 C 0.4225(3) 0.3163(5) 0.3763(2)
O3 O 0.4247(3) 0.4756(4) 0.30881(18)
O4 O 0.4862(3) 0.1375(5) 0.3883(2)
N1 N 0.3382(2) 0.2126(4) 0.5301(2)
H5 H 0.3907 0.0957 0.5350
H6 H 0.5000 0.4570 0.2500
C1A C 0.7339(4) 0.2338(6) -0.1031(3)
H1A H 0.7272 0.1233 -0.1573
C2A C 0.8175(4) 0.4194(7) -0.0974(3)
H2A H 0.8686 0.4357 -0.1471
C3A C 0.8247(3) 0.5825(6) -0.0162(3)
H3A H 0.8800 0.7105 -0.0120
C4A C 0.7502(3) 0.5556(6) 0.0584(3)
H4A H 0.7553 0.6639 0.1133
C5A C 0.6678(3) 0.3654(5) 0.0502(2)
C6A C 0.5775(3) 0.3163(5) 0.1237(2)
O3A O 0.5753(3) 0.4756(4) 0.19119(18)
O4A O 0.5138(3) 0.1375(5) 0.1117(2)
N1A N 0.6618(2) 0.2126(4) -0.0301(2)
H5A H 0.6093 0.0957 -0.0350
O5? O 0.0000 0.3270(12) 0.2500
O6? O -0.073(2) -0.051(3) 0.2792(16)
loop_
_geom_bond_atom_site_label_1
_geom_bond_atom_site_label_2
_geom_bond_site_symmetry_1
_geom_bond_site_symmetry_2
Cl1 O1 1_555 1_555
O2 Cl1 1_555 1_555
C1 H1 1_555 1_555
C2 C1 1_555 1_555
H2 C2 1_555 1_555
C3 C2 1_555 1_555
H3 C3 1_555 1_555
C4 C3 1_555 1_555
H4 C4 1_555 1_555
C5 C4 1_555 1_555
C6 C5 1_555 1_555
O3 C6 1_555 1_555
O4 C6 1_555 1_555
N1 C1 1_555 1_555
H5 N1 1_555 1_555
H6 O3 1_555 1_555
O1A Cl1 1_555 1_555
O2A Cl1 1_555 1_555
C1A H1A 1_555 1_555
C2A C1A 1_555 1_555
H2A C2A 1_555 1_555
C3A C2A 1_555 1_555
H3A C3A 1_555 1_555
C4A C3A 1_555 1_555
H4A C4A 1_555 1_555
C5A C4A 1_555 1_555
C6A C5A 1_555 1_555
O3A H6 1_555 1_555
O4A C6A 1_555 1_555
N1A C1A 1_555 1_555
H5A N1A 1_555 1_555
C5 N1 1_555 1_555
C5A N1A 1_555 1_555
C6A O3A 1_555 1_555

#END
