
#######################################################################
#
#                 Cambridge Crystallographic Data Centre
#                                CCDC 
#
#######################################################################
#
# If this CIF has been generated from an entry in the Cambridge 
# Structural Database, then it will include bibliographic, chemical, 
# crystal, experimental, refinement or atomic coordinate data resulting 
# from the CCDC's data processing and validation procedures.
#
#######################################################################

data_BUDNEU01
_chemical_name_common            
'2,4,5-tris(Pyridin-4-yl)-1H-imidazole monohydrate'
_chemical_formula_moiety         'C18 H13 N5,H2 O1'
_chemical_name_systematic        
"4,4',4''-(1H-Imidazole-2,4,5-triyl)tripyridine monohydrate"
_symmetry_cell_setting           triclinic
_symmetry_space_group_name_H-M   'P -1'
_symmetry_Int_Tables_number      2
_space_group_name_Hall           '-P 1'
loop_
_symmetry_equiv_pos_site_id
_symmetry_equiv_pos_as_xyz
1 x,y,z
2 -x,-y,-z
_cell_length_a                   8.1510(16)
_cell_length_b                   9.5210(19)
_cell_length_c                   11.506(2)
_cell_angle_alpha                103.80(3)
_cell_angle_beta                 105.64(3)
_cell_angle_gamma                101.03(3)
_cell_volume                     803.246
_exptl_crystal_colour            colorless
_exptl_crystal_description       prism
_cell_formula_units_Z            2
loop_
_atom_site_label
_atom_site_type_symbol
_atom_site_fract_x
_atom_site_fract_y
_atom_site_fract_z
N1 N 0.2548(3) 0.5006(2) 0.26415(19)
H1 H 0.2800 0.5437 0.3469
N2 N 0.1414(3) 0.3416(2) 0.06806(19)
N3 N -0.0531(4) 0.0012(3) 0.3185(2)
N4 N 0.2559(4) 0.5283(3) -0.2901(2)
N5 N 0.5288(4) 1.0560(3) 0.3379(3)
C1 C 0.1603(3) 0.3582(3) 0.1895(2)
C2 C 0.2265(3) 0.4798(3) 0.0649(2)
C3 C 0.2960(3) 0.5811(3) 0.1858(2)
C4 C 0.0870(3) 0.2404(3) 0.2365(2)
C5 C 0.1271(4) 0.2521(3) 0.3637(3)
H2 H 0.2026 0.3399 0.4252
C6 C 0.0536(4) 0.1317(3) 0.3987(3)
H3 H 0.0812 0.1433 0.4849
C7 C -0.0932(4) -0.0074(3) 0.1966(3)
H4 H -0.1703 -0.0962 0.1374
C8 C -0.0284(4) 0.1062(3) 0.1517(3)
H5 H -0.0621 0.0926 0.0650
C9 C 0.2386(3) 0.4986(3) -0.0558(2)
C10 C 0.1214(4) 0.4006(3) -0.1700(2)
H6 H 0.0342 0.3211 -0.1709
C11 C 0.1334(4) 0.4203(3) -0.2821(3)
H7 H 0.0505 0.3537 -0.3572
C12 C 0.3716(4) 0.6201(4) -0.1801(3)
H8 H 0.4600 0.6962 -0.1826
C13 C 0.3698(4) 0.6105(3) -0.0626(3)
H9 H 0.4552 0.6778 0.0110
C14 C 0.3805(4) 0.7431(3) 0.2368(2)
C15 C 0.3141(4) 0.8416(3) 0.1767(3)
H10 H 0.2185 0.8049 0.1015
C16 C 0.3925(4) 0.9939(3) 0.2305(3)
H11 H 0.3470 1.0577 0.1890
C17 C 0.5915(4) 0.9608(3) 0.3939(3)
H12 H 0.6879 1.0009 0.4685
C18 C 0.5219(4) 0.8055(3) 0.3480(3)
H13 H 0.5701 0.7446 0.3918
O1 O 0.3155(4) 0.6367(2) 0.51602(18)
H14 H 0.3597 0.7298 0.5581
H15 H 0.3044 0.5992 0.5745
loop_
_geom_bond_atom_site_label_1
_geom_bond_atom_site_label_2
_geom_bond_site_symmetry_1
_geom_bond_site_symmetry_2
N1 H1 1_555 1_555
N2 C1 1_555 1_555
N3 C6 1_555 1_555
N4 C11 1_555 1_555
N5 C16 1_555 1_555
C1 N1 1_555 1_555
C2 N2 1_555 1_555
C3 N1 1_555 1_555
C4 C1 1_555 1_555
C5 C4 1_555 1_555
H2 C5 1_555 1_555
C6 C5 1_555 1_555
H3 C6 1_555 1_555
C7 N3 1_555 1_555
H4 C7 1_555 1_555
C8 C4 1_555 1_555
H5 C8 1_555 1_555
C9 C2 1_555 1_555
C10 C9 1_555 1_555
H6 C10 1_555 1_555
C11 C10 1_555 1_555
H7 C11 1_555 1_555
C12 N4 1_555 1_555
H8 C12 1_555 1_555
C13 C9 1_555 1_555
H9 C13 1_555 1_555
C14 C3 1_555 1_555
C15 C14 1_555 1_555
H10 C15 1_555 1_555
C16 C15 1_555 1_555
H11 C16 1_555 1_555
C17 N5 1_555 1_555
H12 C17 1_555 1_555
C18 C14 1_555 1_555
H13 C18 1_555 1_555
O1 H14 1_555 1_555
H15 O1 1_555 1_555
C2 C3 1_555 1_555
C7 C8 1_555 1_555
C12 C13 1_555 1_555
C17 C18 1_555 1_555

#END
