
#######################################################################
#
#                 Cambridge Crystallographic Data Centre
#                                CCDC 
#
#######################################################################
#
# If this CIF has been generated from an entry in the Cambridge 
# Structural Database, then it will include bibliographic, chemical, 
# crystal, experimental, refinement or atomic coordinate data resulting 
# from the CCDC's data processing and validation procedures.
#
#######################################################################

data_BUDNAR
_chemical_formula_moiety         'C23 H33 N1 O5 S1'
_chemical_name_systematic        
1-(3-Acetyl-3-hydroxy-1-((4-methylphenyl)sulfonyl)-2,3,4,7,8,9-hexahydro-1H-azonin-4-yl)-3,3-dimethylbutan-2-one
_symmetry_cell_setting           orthorhombic
_symmetry_space_group_name_H-M   'P b c a'
_symmetry_Int_Tables_number      61
_space_group_name_Hall           '-P 2ac 2ab'
loop_
_symmetry_equiv_pos_site_id
_symmetry_equiv_pos_as_xyz
1 x,y,z
2 1/2-x,-y,1/2+z
3 1/2+x,1/2-y,-z
4 -x,1/2+y,1/2-z
5 -x,-y,-z
6 1/2+x,y,1/2-z
7 1/2-x,1/2+y,z
8 x,1/2-y,1/2+z
_cell_length_a                   41.876(3)
_cell_length_b                   10.7422(8)
_cell_length_c                   10.4093(7)
_cell_angle_alpha                90
_cell_angle_beta                 90
_cell_angle_gamma                90
_cell_volume                     4682.52
_exptl_crystal_colour            colorless
_exptl_crystal_description       block
_cell_formula_units_Z            8
loop_
_atom_site_label
_atom_site_type_symbol
_atom_site_fract_x
_atom_site_fract_y
_atom_site_fract_z
S1 S 0.06430(2) 0.70835(8) 0.34076(8)
O1 O 0.13529(7) 0.3813(3) 0.0627(3)
O2 O 0.10152(6) 0.4115(2) 0.3680(3)
H1 H 0.0908 0.4659 0.4023
O3 O 0.06700(6) 0.8282(2) 0.3986(2)
O4 O 0.06046(6) 0.5998(2) 0.4206(2)
N1 N 0.09674(6) 0.6854(2) 0.2565(3)
C1 C 0.10884(8) 0.7960(3) 0.1846(4)
H2 H 0.0908 0.8475 0.1607
H3 H 0.1189 0.7674 0.1060
C2 C 0.13252(9) 0.8752(3) 0.2578(4)
H4 H 0.1214 0.9182 0.3264
H5 H 0.1411 0.9377 0.2003
C3 C 0.16034(9) 0.8006(3) 0.3161(5)
H6 H 0.1768 0.8580 0.3441
H7 H 0.1527 0.7560 0.3911
C4 C 0.17442(8) 0.7104(4) 0.2243(4)
H8 H 0.1877 0.7428 0.1609
C5 C 0.17002(7) 0.5885(3) 0.2233(4)
H9 H 0.1797 0.5440 0.1572
C6 C 0.15101(7) 0.5155(3) 0.3186(3)
H10 H 0.1455 0.5728 0.3884
C7 C 0.11908(7) 0.4637(3) 0.2649(3)
C8 C 0.09977(7) 0.5629(3) 0.1922(3)
H11 H 0.1097 0.5757 0.1090
H12 H 0.0785 0.5304 0.1771
C9 C 0.17127(8) 0.4116(3) 0.3781(3)
H13 H 0.1572 0.3526 0.4202
H14 H 0.1823 0.3677 0.3098
C10 C 0.19544(9) 0.4570(4) 0.4737(3)
C11 C 0.22219(8) 0.3706(3) 0.5160(3)
C12 C 0.23443(12) 0.4133(5) 0.6455(4)
H15 H 0.2422 0.4971 0.6387
H16 H 0.2515 0.3597 0.6728
H17 H 0.2174 0.4102 0.7072
C13 C 0.24899(11) 0.3816(5) 0.4191(5)
H18 H 0.2413 0.3577 0.3358
H19 H 0.2663 0.3279 0.4438
H20 H 0.2564 0.4661 0.4163
C14 C 0.21177(11) 0.2361(4) 0.5221(5)
H21 H 0.1942 0.2282 0.5806
H22 H 0.2292 0.1857 0.5514
H23 H 0.2053 0.2091 0.4382
C15 C 0.12524(8) 0.3569(4) 0.1692(4)
C16 C 0.11910(11) 0.2261(4) 0.2092(5)
H24 H 0.1240 0.1710 0.1394
H25 H 0.0970 0.2170 0.2323
H26 H 0.1323 0.2060 0.2818
C17 C 0.03142(7) 0.7108(3) 0.2358(3)
C18 C 0.02247(8) 0.8200(3) 0.1766(3)
H27 H 0.0335 0.8933 0.1932
C19 C -0.00313(8) 0.8200(3) 0.0918(3)
H28 H -0.0092 0.8941 0.0526
C20 C -0.01973(8) 0.7124(4) 0.0646(4)
C21 C -0.01051(8) 0.6039(4) 0.1252(4)
H29 H -0.0216 0.5306 0.1085
C22 C 0.01480(8) 0.6022(3) 0.2101(4)
H30 H 0.0207 0.5282 0.2500
C23 C -0.04721(9) 0.7138(4) -0.0297(4)
H31 H -0.0391 0.7062 -0.1156
H32 H -0.0587 0.7906 -0.0216
H33 H -0.0613 0.6453 -0.0119
O5 O 0.19725(17) 0.5667(9) 0.5077(12)
O6? O 0.1843(4) 0.540(3) 0.539(3)
loop_
_geom_bond_atom_site_label_1
_geom_bond_atom_site_label_2
_geom_bond_site_symmetry_1
_geom_bond_site_symmetry_2
S1 O3 1_555 1_555
O1 C15 1_555 1_555
O2 H1 1_555 1_555
O4 S1 1_555 1_555
N1 S1 1_555 1_555
C1 N1 1_555 1_555
H2 C1 1_555 1_555
H3 C1 1_555 1_555
C2 C1 1_555 1_555
H4 C2 1_555 1_555
H5 C2 1_555 1_555
C3 C2 1_555 1_555
H6 C3 1_555 1_555
H7 C3 1_555 1_555
C4 C3 1_555 1_555
H8 C4 1_555 1_555
C5 C4 1_555 1_555
H9 C5 1_555 1_555
C6 C5 1_555 1_555
H10 C6 1_555 1_555
C7 O2 1_555 1_555
C8 N1 1_555 1_555
H11 C8 1_555 1_555
H12 C8 1_555 1_555
C9 C6 1_555 1_555
H13 C9 1_555 1_555
H14 C9 1_555 1_555
C10 C9 1_555 1_555
C11 C10 1_555 1_555
C12 C11 1_555 1_555
H15 C12 1_555 1_555
H16 C12 1_555 1_555
H17 C12 1_555 1_555
C13 C11 1_555 1_555
H18 C13 1_555 1_555
H19 C13 1_555 1_555
H20 C13 1_555 1_555
C14 C11 1_555 1_555
H21 C14 1_555 1_555
H22 C14 1_555 1_555
H23 C14 1_555 1_555
C15 C7 1_555 1_555
C16 C15 1_555 1_555
H24 C16 1_555 1_555
H25 C16 1_555 1_555
H26 C16 1_555 1_555
C17 S1 1_555 1_555
C18 C17 1_555 1_555
H27 C18 1_555 1_555
C19 C18 1_555 1_555
H28 C19 1_555 1_555
C20 C19 1_555 1_555
C21 C20 1_555 1_555
H29 C21 1_555 1_555
C22 C17 1_555 1_555
H30 C22 1_555 1_555
C23 C20 1_555 1_555
H31 C23 1_555 1_555
H32 C23 1_555 1_555
H33 C23 1_555 1_555
O5 C10 1_555 1_555
C6 C7 1_555 1_555
C7 C8 1_555 1_555
C21 C22 1_555 1_555

#END
