
#######################################################################
#
#                 Cambridge Crystallographic Data Centre
#                                CCDC 
#
#######################################################################
#
# If this CIF has been generated from an entry in the Cambridge 
# Structural Database, then it will include bibliographic, chemical, 
# crystal, experimental, refinement or atomic coordinate data resulting 
# from the CCDC's data processing and validation procedures.
#
#######################################################################

data_BUDPIA
_chemical_formula_moiety         'C13 H9 Cl2 N3 O1,H2 O1'
_chemical_name_systematic        
"(E)-N'-(3,4-Dichlorobenzylidene)nicotinohydrazide monohydrate"
_symmetry_cell_setting           monoclinic
_symmetry_space_group_name_H-M   'P 21/c'
_symmetry_Int_Tables_number      14
_space_group_name_Hall           '-P 2ybc'
loop_
_symmetry_equiv_pos_site_id
_symmetry_equiv_pos_as_xyz
1 x,y,z
2 -x,1/2+y,1/2-z
3 -x,-y,-z
4 x,1/2-y,1/2+z
_cell_length_a                   8.2080(3)
_cell_length_b                   12.3294(4)
_cell_length_c                   13.7089(4)
_cell_angle_alpha                90
_cell_angle_beta                 91.522(2)
_cell_angle_gamma                90
_cell_volume                     1386.85
_exptl_crystal_colour            colorless
_exptl_crystal_description       block
_cell_formula_units_Z            4
_exptl_crystal_recrystallization_method methanol/water
loop_
_atom_site_label
_atom_site_type_symbol
_atom_site_fract_x
_atom_site_fract_y
_atom_site_fract_z
Cl1 Cl -0.01836(7) 0.35397(5) 0.67808(4)
Cl2 Cl 0.02126(7) 0.10476(5) 0.62576(4)
N1 N 0.46330(18) 0.25736(12) 0.18259(10)
H1 H 0.4694 0.1892 0.1698
N2 N 0.38507(18) 0.29373(12) 0.26366(10)
O1 O 0.52773(19) 0.42935(10) 0.14108(9)
C1 C 0.2369(2) 0.25413(14) 0.40566(13)
C2 C 0.5303(2) 0.33162(14) 0.12366(12)
C3 C 0.0960(2) 0.20492(15) 0.55082(13)
C4 C 0.0803(2) 0.31321(16) 0.57470(13)
C5 C 0.6343(2) 0.18316(14) 0.01178(13)
H2 H 0.5992 0.1314 0.0559
C6 C 0.1439(2) 0.39176(15) 0.51490(14)
H3 H 0.1344 0.4646 0.5315
C7 C 0.6100(2) 0.29128(13) 0.03370(12)
C8 C 0.6619(2) 0.36685(15) -0.03277(13)
H4 H 0.6463 0.4404 -0.0214
C9 C 0.1740(2) 0.17586(15) 0.46627(13)
H5 H 0.1841 0.1029 0.4501
C10 C 0.3221(2) 0.22160(15) 0.31757(13)
H6 H 0.3301 0.1487 0.3011
C11 C 0.2212(2) 0.36294(14) 0.43093(14)
H7 H 0.2632 0.4164 0.3909
N3 N 0.7054(2) 0.14870(12) -0.06903(11)
C12 C 0.7563(2) 0.22393(16) -0.13096(14)
H8 H 0.8077 0.2014 -0.1871
C13 C 0.7366(3) 0.33289(16) -0.11592(14)
H9 H 0.7731 0.3830 -0.1611
O2 O 0.5421(2) 0.52708(11) 0.32595(11)
H10 H 0.599(3) 0.4849(16) 0.3622(14)
H11 H 0.515(3) 0.4919(18) 0.2749(11)
loop_
_geom_bond_atom_site_label_1
_geom_bond_atom_site_label_2
_geom_bond_site_symmetry_1
_geom_bond_site_symmetry_2
Cl1 C4 1_555 1_555
Cl2 C3 1_555 1_555
N1 H1 1_555 1_555
N2 N1 1_555 1_555
O1 C2 1_555 1_555
C1 C9 1_555 1_555
C2 N1 1_555 1_555
C3 C4 1_555 1_555
C4 C6 1_555 1_555
C5 H2 1_555 1_555
C6 H3 1_555 1_555
C7 C2 1_555 1_555
C8 C7 1_555 1_555
H4 C8 1_555 1_555
C9 C3 1_555 1_555
H5 C9 1_555 1_555
C10 N2 1_555 1_555
H6 C10 1_555 1_555
C11 C1 1_555 1_555
H7 C11 1_555 1_555
O2 H10 1_555 1_555
N3 C5 1_555 1_555
C12 N3 1_555 1_555
H8 C12 1_555 1_555
C13 C8 1_555 1_555
H9 C13 1_555 1_555
H11 O2 1_555 1_555
C1 C10 1_555 1_555
C5 C7 1_555 1_555
C6 C11 1_555 1_555
C12 C13 1_555 1_555

#END
