
#######################################################################
#
#                 Cambridge Crystallographic Data Centre
#                                CCDC 
#
#######################################################################
#
# If this CIF has been generated from an entry in the Cambridge 
# Structural Database, then it will include bibliographic, chemical, 
# crystal, experimental, refinement or atomic coordinate data resulting 
# from the CCDC's data processing and validation procedures.
#
#######################################################################

data_BUDPOH
_chemical_formula_moiety         'C20 H21 N1 O4 S1'
_chemical_name_systematic        
3-Benzylsulfonyl-7-diethylamino-2H-chromen-2-one
_symmetry_cell_setting           monoclinic
_symmetry_space_group_name_H-M   'P 21/n'
_symmetry_Int_Tables_number      14
_space_group_name_Hall           '-P 2yn'
loop_
_symmetry_equiv_pos_site_id
_symmetry_equiv_pos_as_xyz
1 x,y,z
2 1/2-x,1/2+y,1/2-z
3 -x,-y,-z
4 1/2+x,1/2-y,1/2+z
_cell_length_a                   13.2890(7)
_cell_length_b                   10.5679(5)
_cell_length_c                   13.3597(7)
_cell_angle_alpha                90
_cell_angle_beta                 90.606(5)
_cell_angle_gamma                90
_cell_volume                     1876.09
_exptl_crystal_colour            'light yellow'
_exptl_crystal_description       plate
_cell_formula_units_Z            4
loop_
_atom_site_label
_atom_site_type_symbol
_atom_site_fract_x
_atom_site_fract_y
_atom_site_fract_z
S1 S 0.71567(6) 0.45692(8) 0.04327(7)
O1 O 0.66409(16) 0.09837(19) 0.12838(17)
O2 O 0.80604(18) 0.2063(2) 0.1211(2)
O3 O 0.63781(18) 0.5462(2) 0.0202(2)
O4 O 0.7875(2) 0.4297(2) -0.03339(18)
N1 N 0.3698(2) -0.1539(3) 0.1622(3)
C1 C 0.4145(3) -0.0420(3) 0.1385(3)
C2 C 0.3560(3) 0.0619(3) 0.1046(3)
H1 H 0.2866 0.0528 0.0979
C3 C 0.3993(3) 0.1742(3) 0.0820(3)
H2 H 0.3589 0.2404 0.0593
C4 C 0.5040(2) 0.1937(3) 0.0917(2)
C5 C 0.5605(2) 0.0896(3) 0.1217(2)
C6 C 0.5199(3) -0.0255(3) 0.1448(3)
H3 H 0.5612 -0.0922 0.1645
C7 C 0.7155(3) 0.2098(3) 0.1099(2)
C8 C 0.6556(2) 0.3167(3) 0.0794(2)
C9 C 0.5533(2) 0.3081(3) 0.0722(2)
H4 H 0.5158 0.3790 0.0542
C10 C 0.2601(3) -0.1667(3) 0.1653(3)
H5 H 0.2433 -0.2559 0.1685
H6 H 0.2318 -0.1333 0.1036
C11 C 0.2119(4) -0.0999(4) 0.2523(4)
H7 H 0.2216 -0.0102 0.2458
H8 H 0.2421 -0.1285 0.3138
H9 H 0.1411 -0.1183 0.2527
C12 C 0.7817(3) 0.5109(3) 0.1513(3)
H10 H 0.7343 0.5292 0.2041
H11 H 0.8272 0.4454 0.1750
C13 C 0.8406(3) 0.6284(3) 0.1268(2)
C14 C 0.7981(3) 0.7471(3) 0.1331(3)
H12 H 0.7315 0.7552 0.1528
C15 C 0.8529(4) 0.8542(4) 0.1106(3)
H13 H 0.8231 0.9337 0.1149
C16 C 0.9510(4) 0.8435(4) 0.0820(3)
H14 H 0.9884 0.9155 0.0677
C17 C 0.9939(3) 0.7266(4) 0.0744(4)
H15 H 1.0601 0.7192 0.0533
C18 C 0.9401(3) 0.6195(3) 0.0978(3)
H16 H 0.9708 0.5405 0.0941
C19 C 0.4284(5) -0.2674(5) 0.1834(5)
H17 H 0.4912 -0.2654 0.1471
H18 H 0.3911 -0.3422 0.1632
C20 C 0.4492(6) -0.2699(7) 0.2968(5)
H19 H 0.4899 -0.3422 0.3131
H20 H 0.3866 -0.2750 0.3318
H21 H 0.4841 -0.1941 0.3162
C21? C 0.4234(12) -0.2321(16) 0.2448(12)
H22? H 0.4693 -0.1769 0.2811
H23? H 0.3733 -0.2613 0.2918
C22? C 0.4817(16) -0.3455(18) 0.208(2)
H24? H 0.5324 -0.3179 0.1621
H25? H 0.4367 -0.4029 0.1745
H26? H 0.5132 -0.3875 0.2637
loop_
_geom_bond_atom_site_label_1
_geom_bond_atom_site_label_2
_geom_bond_site_symmetry_1
_geom_bond_site_symmetry_2
S1 O3 1_555 1_555
O1 C5 1_555 1_555
O2 C7 1_555 1_555
O4 S1 1_555 1_555
N1 C1 1_555 1_555
C1 C2 1_555 1_555
C2 H1 1_555 1_555
C3 C2 1_555 1_555
H2 C3 1_555 1_555
C4 C3 1_555 1_555
C5 C4 1_555 1_555
C6 C1 1_555 1_555
H3 C6 1_555 1_555
C7 O1 1_555 1_555
C8 S1 1_555 1_555
C9 C4 1_555 1_555
H4 C9 1_555 1_555
C10 N1 1_555 1_555
H5 C10 1_555 1_555
H6 C10 1_555 1_555
C11 C10 1_555 1_555
H7 C11 1_555 1_555
H8 C11 1_555 1_555
H9 C11 1_555 1_555
C12 S1 1_555 1_555
H10 C12 1_555 1_555
H11 C12 1_555 1_555
C13 C12 1_555 1_555
C14 C13 1_555 1_555
H12 C14 1_555 1_555
C15 C14 1_555 1_555
H13 C15 1_555 1_555
C16 C15 1_555 1_555
H14 C16 1_555 1_555
C17 C16 1_555 1_555
H15 C17 1_555 1_555
C18 C13 1_555 1_555
H16 C18 1_555 1_555
C19 N1 1_555 1_555
H17 C19 1_555 1_555
H18 C19 1_555 1_555
C20 C19 1_555 1_555
H19 C20 1_555 1_555
H20 C20 1_555 1_555
H21 C20 1_555 1_555
C5 C6 1_555 1_555
C7 C8 1_555 1_555
C8 C9 1_555 1_555
C17 C18 1_555 1_555

#END
