
#######################################################################
#
#                 Cambridge Crystallographic Data Centre
#                                CCDC 
#
#######################################################################
#
# If this CIF has been generated from an entry in the Cambridge 
# Structural Database, then it will include bibliographic, chemical, 
# crystal, experimental, refinement or atomic coordinate data resulting 
# from the CCDC's data processing and validation procedures.
#
#######################################################################

data_BUDPIB
_chemical_formula_moiety         'C6 H8 N2 O10 S2'
_chemical_name_systematic        
"5,5'-Dinitro-5,5'-bi-1,3,2-dioxathiane 2,2'-dioxide"
_symmetry_cell_setting           monoclinic
_symmetry_space_group_name_H-M   'C 2/c'
_symmetry_Int_Tables_number      15
_space_group_name_Hall           '-C 2yn'
loop_
_symmetry_equiv_pos_site_id
_symmetry_equiv_pos_as_xyz
1 x,y,z
2 -x,y,1/2-z
3 1/2+x,1/2+y,z
4 1/2-x,1/2+y,1/2-z
5 -x,-y,-z
6 x,-y,1/2+z
7 1/2-x,1/2-y,-z
8 1/2+x,1/2-y,1/2+z
_cell_length_a                   8.5392(9)
_cell_length_b                   10.9002(11)
_cell_length_c                   12.3692(14)
_cell_angle_alpha                90
_cell_angle_beta                 101.595(11)
_cell_angle_gamma                90
_cell_volume                     1127.82
_cell_formula_units_Z            4
loop_
_atom_site_label
_atom_site_type_symbol
_atom_site_fract_x
_atom_site_fract_y
_atom_site_fract_z
S1 S 0.06214(18) 0.89335(14) 0.11432(12)
O1 O 0.1584(5) 0.7873(4) 0.1937(4)
O2 O 0.1572(5) 1.0097(4) 0.1781(3)
O3 O 0.1088(5) 0.8835(4) 0.0087(4)
O4 O 0.3670(6) 1.0194(4) 0.3984(4)
C1 C 0.4049(7) 0.9025(5) 0.2441(5)
N1 N 0.3747(6) 0.9148(5) 0.3649(4)
O5 O 0.3687(6) 0.8218(5) 0.4153(4)
C2 C 0.3288(7) 0.7821(6) 0.1965(5)
H1 H 0.3482 0.7697 0.1210
H2 H 0.3768 0.7124 0.2429
C3 C 0.3261(7) 1.0121(6) 0.1775(5)
H3 H 0.3740 1.0895 0.2107
H4 H 0.3431 1.0073 0.1007
S1A S 0.93786(18) 0.89335(14) 0.38568(12)
O1A O 0.8416(5) 0.7873(4) 0.3063(4)
O2A O 0.8428(5) 1.0097(4) 0.3219(3)
O3A O 0.8912(5) 0.8835(4) 0.4913(4)
O4A O 0.6330(6) 1.0194(4) 0.1016(4)
C1A C 0.5951(7) 0.9025(5) 0.2559(5)
N1A N 0.6253(6) 0.9148(5) 0.1351(4)
O5A O 0.6313(6) 0.8218(5) 0.0847(4)
C2A C 0.6712(7) 0.7821(6) 0.3035(5)
H1A H 0.6518 0.7697 0.3790
H2A H 0.6232 0.7124 0.2571
C3A C 0.6739(7) 1.0121(6) 0.3225(5)
H3A H 0.6260 1.0895 0.2893
H4A H 0.6569 1.0073 0.3993
loop_
_geom_bond_atom_site_label_1
_geom_bond_atom_site_label_2
_geom_bond_site_symmetry_1
_geom_bond_site_symmetry_2
S1 O1 1_555 1_555
O1 C2 1_555 1_555
O2 S1 1_555 1_555
O3 S1 1_555 1_555
O4 N1 1_555 1_555
C1 N1 1_555 1_555
N1 O5 1_555 1_555
C2 C1 1_555 1_555
H1 C2 1_555 1_555
H2 C2 1_555 1_555
C3 O2 1_555 1_555
H3 C3 1_555 1_555
H4 C3 1_555 1_555
S1A O1A 1_555 1_555
O1A C2A 1_555 1_555
O2A S1A 1_555 1_555
O3A S1A 1_555 1_555
O4A N1A 1_555 1_555
C1A C1 1_555 1_555
N1A C1A 1_555 1_555
O5A N1A 1_555 1_555
C2A C1A 1_555 1_555
H1A C2A 1_555 1_555
H2A C2A 1_555 1_555
C3A O2A 1_555 1_555
H3A C3A 1_555 1_555
H4A C3A 1_555 1_555
C1 C3 1_555 1_555
C1A C3A 1_555 1_555

#END
