
#######################################################################
#
#                 Cambridge Crystallographic Data Centre
#                                CCDC 
#
#######################################################################
#
# If this CIF has been generated from an entry in the Cambridge 
# Structural Database, then it will include bibliographic, chemical, 
# crystal, experimental, refinement or atomic coordinate data resulting 
# from the CCDC's data processing and validation procedures.
#
#######################################################################

data_BUDWOO
_chemical_formula_moiety         'C24 H27 N4 O2 1+,Cl1 1-'
_chemical_name_systematic        
'N-(1,5-Dimethyl-3-oxo-2-phenyl-2,3-dihydro-1H-pyrazol-4-yl)(8-hydroxy-2,3,6,7-tetrahydro-1H,5H-pyrido[3,2,1-ij]quinolin-9-yl)methaniminium chloride'
_symmetry_cell_setting           triclinic
_symmetry_space_group_name_H-M   'P -1'
_symmetry_Int_Tables_number      2
_space_group_name_Hall           '-P 1'
loop_
_symmetry_equiv_pos_site_id
_symmetry_equiv_pos_as_xyz
1 x,y,z
2 -x,-y,-z
_cell_length_a                   8.3140(17)
_cell_length_b                   9.3540(19)
_cell_length_c                   15.720(3)
_cell_angle_alpha                89.66(3)
_cell_angle_beta                 76.82(3)
_cell_angle_gamma                66.15(3)
_cell_volume                     1083.56
_exptl_crystal_colour            yellow
_exptl_crystal_description       block
_cell_formula_units_Z            2
loop_
_atom_site_label
_atom_site_type_symbol
_atom_site_fract_x
_atom_site_fract_y
_atom_site_fract_z
C1 C -0.3732(3) 0.2649(2) 0.55781(13)
C2 C -0.4766(3) 0.4158(3) 0.59888(14)
H1 H -0.4358 0.4968 0.5868
C3 C -0.6404(3) 0.4452(3) 0.65780(15)
H2 H -0.7123 0.5477 0.6869
C4 C -0.7012(3) 0.3285(3) 0.67502(15)
H3 H -0.8135 0.3504 0.7161
C5 C -0.5983(3) 0.1791(3) 0.63222(15)
H4 H -0.6409 0.0990 0.6429
C6 C -0.4331(3) 0.1472(3) 0.57391(14)
H5 H -0.3610 0.0446 0.5450
C7 C -0.1653(3) 0.1687(2) 0.40886(14)
C8 C -0.0017(3) 0.1868(2) 0.36761(13)
C9 C 0.0434(3) 0.2596(2) 0.42663(14)
C10 C 0.0854(3) 0.0203(2) 0.23608(13)
H6 H 0.0503 -0.0487 0.2725
C11 C 0.1374(3) -0.0231(2) 0.14623(13)
C12 C 0.1478(3) -0.1715(2) 0.11602(14)
C13 C 0.2043(3) -0.2251(2) 0.02803(14)
C14 C 0.2545(3) -0.1291(2) -0.03422(13)
C15 C 0.2413(3) 0.0218(3) -0.00502(14)
C16 C 0.1837(3) 0.0699(2) 0.08169(14)
H7 H 0.1738 0.1702 0.1003
C17 C 0.2097(3) -0.3795(3) -0.00375(14)
H8 H 0.0890 -0.3633 -0.0119
H9 H 0.2390 -0.4550 0.0407
C18 C 0.3522(3) -0.4464(3) -0.09046(16)
H10 H 0.4748 -0.4771 -0.0806
H11 H 0.3455 -0.5413 -0.1139
C19 C 0.3211(3) -0.3267(3) -0.15565(15)
H12 H 0.4206 -0.3683 -0.2096
H13 H 0.2059 -0.3074 -0.1715
C20 C 0.3561(3) -0.0798(3) -0.18757(14)
H14 H 0.2453 -0.0137 -0.2064
H15 H 0.4469 -0.1480 -0.2395
C21 C 0.4297(3) 0.0236(3) -0.15280(14)
H16 H 0.4529 0.0918 -0.1980
H17 H 0.5459 -0.0418 -0.1383
C22 C 0.2936(3) 0.1237(3) -0.07126(15)
H18 H 0.1838 0.1994 -0.0875
H19 H 0.3468 0.1842 -0.0447
C23 C -0.0329(3) 0.2761(3) 0.58886(14)
H20 H 0.0449 0.1653 0.5907
H21 H -0.1413 0.3093 0.6377
H22 H 0.0339 0.3400 0.5938
C24 C 0.2029(3) 0.2992(3) 0.41716(15)
H23 H 0.2986 0.2154 0.4376
H24 H 0.1663 0.3984 0.4523
H25 H 0.2488 0.3098 0.3553
N1 N -0.2036(2) 0.2263(2) 0.49579(11)
N2 N -0.0869(2) 0.2968(2) 0.50562(11)
N3 N 0.0792(2) 0.1467(2) 0.27679(12)
H26 H 0.116(3) 0.217(3) 0.2502(16)
N4 N 0.3126(2) -0.1779(2) -0.12089(11)
O1 O -0.2586(2) 0.11924(19) 0.37817(10)
O2 O 0.0932(2) -0.25103(18) 0.18038(10)
H27 H 0.1218 -0.3432 0.1599
Cl1 Cl 0.18454(9) 0.40841(7) 0.19405(4)
loop_
_geom_bond_atom_site_label_1
_geom_bond_atom_site_label_2
_geom_bond_site_symmetry_1
_geom_bond_site_symmetry_2
C1 C2 1_555 1_555
C2 H1 1_555 1_555
C3 C2 1_555 1_555
H2 C3 1_555 1_555
C4 C3 1_555 1_555
H3 C4 1_555 1_555
C5 C4 1_555 1_555
H4 C5 1_555 1_555
C6 C1 1_555 1_555
H5 C6 1_555 1_555
C7 C8 1_555 1_555
C8 C9 1_555 1_555
C9 C24 1_555 1_555
C10 H6 1_555 1_555
C11 C10 1_555 1_555
C12 C11 1_555 1_555
C13 C12 1_555 1_555
C14 C13 1_555 1_555
C15 C14 1_555 1_555
C16 C11 1_555 1_555
H7 C16 1_555 1_555
C17 C13 1_555 1_555
H8 C17 1_555 1_555
H9 C17 1_555 1_555
C18 C17 1_555 1_555
H10 C18 1_555 1_555
H11 C18 1_555 1_555
C19 C18 1_555 1_555
H12 C19 1_555 1_555
H13 C19 1_555 1_555
C20 H14 1_555 1_555
H15 C20 1_555 1_555
C21 C20 1_555 1_555
H16 C21 1_555 1_555
H17 C21 1_555 1_555
C22 C15 1_555 1_555
H18 C22 1_555 1_555
H19 C22 1_555 1_555
C23 H20 1_555 1_555
H21 C23 1_555 1_555
H22 C23 1_555 1_555
C24 H23 1_555 1_555
H24 C24 1_555 1_555
H25 C24 1_555 1_555
N1 C1 1_555 1_555
N2 C9 1_555 1_555
N3 C8 1_555 1_555
H26 N3 1_555 1_555
N4 C14 1_555 1_555
O1 C7 1_555 1_555
O2 C12 1_555 1_555
H27 O2 1_555 1_555
C5 C6 1_555 1_555
C7 N1 1_555 1_555
C10 N3 1_555 1_555
C15 C16 1_555 1_555
C19 N4 1_555 1_555
C20 N4 1_555 1_555
C21 C22 1_555 1_555
C23 N2 1_555 1_555
N1 N2 1_555 1_555

#END
