
#######################################################################
#
#                 Cambridge Crystallographic Data Centre
#                                CCDC 
#
#######################################################################
#
# If this CIF has been generated from an entry in the Cambridge 
# Structural Database, then it will include bibliographic, chemical, 
# crystal, experimental, refinement or atomic coordinate data resulting 
# from the CCDC's data processing and validation procedures.
#
#######################################################################

data_BUDWUU
_chemical_formula_moiety         'C25 H18 N1 O1 P1'
_chemical_name_systematic        6-(Diphenylphosphoryl)phenanthridine
_symmetry_cell_setting           monoclinic
_symmetry_space_group_name_H-M   'P 21/c'
_symmetry_Int_Tables_number      14
_space_group_name_Hall           '-P 2ybc'
loop_
_symmetry_equiv_pos_site_id
_symmetry_equiv_pos_as_xyz
1 x,y,z
2 -x,1/2+y,1/2-z
3 -x,-y,-z
4 x,1/2-y,1/2+z
_cell_length_a                   13.2043(2)
_cell_length_b                   8.39940(10)
_cell_length_c                   17.2912(3)
_cell_angle_alpha                90
_cell_angle_beta                 90.020(2)
_cell_angle_gamma                90
_cell_volume                     1917.74
_exptl_crystal_colour            colorless
_exptl_crystal_description       block
_cell_formula_units_Z            4
loop_
_atom_site_label
_atom_site_type_symbol
_atom_site_fract_x
_atom_site_fract_y
_atom_site_fract_z
P1 P 0.70296(3) 0.59868(4) 0.10043(2)
O1 O 0.65121(8) 0.70644(13) 0.04517(6)
N1 N 0.88040(9) 0.53423(15) 0.15926(7)
C1 C 0.98433(11) 0.53114(18) 0.16918(9)
C2 C 1.02226(13) 0.4446(2) 0.23256(10)
H1 H 0.9773 0.3907 0.2656
C3 C 1.12416(14) 0.4385(2) 0.24642(11)
H2 H 1.1492 0.3795 0.2885
C4 C 1.19072(14) 0.5200(3) 0.19796(11)
H3 H 1.2606 0.5172 0.2082
C5 C 1.15571(13) 0.6038(2) 0.13575(11)
H4 H 1.2019 0.6575 0.1037
C6 C 1.05104(11) 0.61112(18) 0.11881(9)
C7 C 1.00862(11) 0.69190(18) 0.05249(9)
C8 C 1.06839(13) 0.7678(2) -0.00402(10)
H5 H 1.1391 0.7709 0.0020
C9 C 1.02537(14) 0.8367(2) -0.06724(11)
H6 H 1.0668 0.8861 -0.1044
C10 C 0.92059(14) 0.8348(2) -0.07762(10)
H7 H 0.8920 0.8823 -0.1217
C11 C 0.85909(13) 0.7640(2) -0.02356(9)
H8 H 0.7885 0.7637 -0.0305
C12 C 0.90190(11) 0.69157(17) 0.04235(9)
C13 C 0.84243(11) 0.61127(17) 0.10056(9)
C14 C 0.67694(11) 0.39250(17) 0.07797(9)
C15 C 0.71099(12) 0.26342(19) 0.12156(10)
H9 H 0.7492 0.2806 0.1667
C16 C 0.68843(12) 0.11026(19) 0.09819(10)
H10 H 0.7115 0.0234 0.1276
C17 C 0.63238(12) 0.0835(2) 0.03214(10)
H11 H 0.6174 -0.0211 0.0167
C18 C 0.59842(13) 0.2101(2) -0.01102(10)
H12 H 0.5601 0.1916 -0.0560
C19 C 0.62027(12) 0.36499(19) 0.01135(9)
H13 H 0.5969 0.4512 -0.0184
C20 C 0.66230(11) 0.63877(19) 0.19873(9)
C21 C 0.69629(13) 0.5607(2) 0.26489(10)
H14 H 0.7452 0.4797 0.2607
C22 C 0.65833(15) 0.6019(3) 0.33664(11)
H15 H 0.6818 0.5488 0.3810
C23 C 0.58659(16) 0.7198(3) 0.34383(12)
H16 H 0.5614 0.7471 0.3929
C24 C 0.55178(15) 0.7976(3) 0.27915(13)
H17 H 0.5026 0.8778 0.2840
C25 C 0.58926(12) 0.7577(2) 0.20673(11)
H18 H 0.5652 0.8112 0.1627
loop_
_geom_bond_atom_site_label_1
_geom_bond_atom_site_label_2
_geom_bond_site_symmetry_1
_geom_bond_site_symmetry_2
P1 O1 1_555 1_555
N1 C1 1_555 1_555
C1 C2 1_555 1_555
C2 H1 1_555 1_555
C3 C2 1_555 1_555
H2 C3 1_555 1_555
C4 C3 1_555 1_555
H3 C4 1_555 1_555
C5 C4 1_555 1_555
H4 C5 1_555 1_555
C6 C1 1_555 1_555
C7 C6 1_555 1_555
C8 C7 1_555 1_555
H5 C8 1_555 1_555
C9 C8 1_555 1_555
H6 C9 1_555 1_555
C10 C9 1_555 1_555
H7 C10 1_555 1_555
C11 C10 1_555 1_555
H8 C11 1_555 1_555
C12 C7 1_555 1_555
C13 P1 1_555 1_555
C14 P1 1_555 1_555
C15 C14 1_555 1_555
H9 C15 1_555 1_555
C16 C15 1_555 1_555
H10 C16 1_555 1_555
C17 C16 1_555 1_555
H11 C17 1_555 1_555
C18 C17 1_555 1_555
H12 C18 1_555 1_555
C19 C14 1_555 1_555
H13 C19 1_555 1_555
C20 P1 1_555 1_555
C21 C20 1_555 1_555
H14 C21 1_555 1_555
C22 C21 1_555 1_555
H15 C22 1_555 1_555
C23 C22 1_555 1_555
H16 C23 1_555 1_555
C24 C23 1_555 1_555
H17 C24 1_555 1_555
C25 C20 1_555 1_555
H18 C25 1_555 1_555
N1 C13 1_555 1_555
C5 C6 1_555 1_555
C11 C12 1_555 1_555
C12 C13 1_555 1_555
C18 C19 1_555 1_555
C24 C25 1_555 1_555

#END
