
#######################################################################
#
#                 Cambridge Crystallographic Data Centre
#                                CCDC 
#
#######################################################################
#
# If this CIF has been generated from an entry in the Cambridge 
# Structural Database, then it will include bibliographic, chemical, 
# crystal, experimental, refinement or atomic coordinate data resulting 
# from the CCDC's data processing and validation procedures.
#
#######################################################################

data_BUDYIK
_chemical_formula_moiety         'C21 H28 O6'
_chemical_name_systematic        
6-(hydroxymethyl)-10'-(methoxymethyl)-5,5-dimethyl-3'-oxaspiro[cyclohexane-1,5'-tricyclo[7.2.1.0^1,6^]dodecane]-3-ene-2,2',11'-trione
_symmetry_cell_setting           monoclinic
_symmetry_space_group_name_H-M   'P 21'
_symmetry_Int_Tables_number      4
_space_group_name_Hall           'P 2yb'
loop_
_symmetry_equiv_pos_site_id
_symmetry_equiv_pos_as_xyz
1 x,y,z
2 -x,1/2+y,-z
_cell_length_a                   10.0462(2)
_cell_length_b                   6.55770(10)
_cell_length_c                   14.8542(2)
_cell_angle_alpha                90
_cell_angle_beta                 107.97
_cell_angle_gamma                90
_cell_volume                     930.857
_exptl_crystal_colour            colorless
_exptl_crystal_description       rhombus
_cell_formula_units_Z            2
loop_
_atom_site_label
_atom_site_type_symbol
_atom_site_fract_x
_atom_site_fract_y
_atom_site_fract_z
O1 O 0.37616(11) 0.9187(2) 1.20489(7)
O2 O -0.16361(12) 0.6503(2) 0.76961(9)
H1 H -0.2228 0.5707 0.7800
O3 O 0.15930(12) 1.2435(2) 0.70194(8)
O4 O 0.21915(11) 0.79478(18) 0.71671(8)
O5 O 0.42505(11) 0.9029(2) 0.80356(8)
O6 O 0.27880(13) 0.62212(19) 0.93892(8)
C1 C 0.50573(17) 0.9078(3) 1.27968(11)
H2 H 0.5402 0.7671 1.2863
H3 H 0.4914 0.9519 1.3390
H4 H 0.5745 0.9971 1.2650
C2 C 0.39201(16) 0.8501(3) 1.11792(11)
H5 H 0.4024 0.7000 1.1189
H6 H 0.4767 0.9117 1.1084
C3 C 0.26268(15) 0.9132(3) 1.03805(10)
H7 H 0.1765 0.8779 1.0550
C4 C 0.26139(14) 0.8016(2) 0.94701(11)
C5 C 0.23887(15) 0.9628(2) 0.86904(10)
C6 C 0.07584(16) 1.0079(2) 0.83500(10)
H8 H 0.0328 0.9035 0.8665
C7 C 0.01060(16) 0.9732(3) 0.72752(10)
C8 C 0.05658(16) 1.1361(3) 0.66922(11)
C9 C -0.02650(18) 1.1481(3) 0.56839(11)
H9 H 0.0099 1.2237 0.5268
C10 C -0.14963(19) 1.0579(3) 0.53334(11)
H10 H -0.1907 1.0596 0.4665
C11 C 0.26034(15) 1.1415(3) 1.01239(10)
H11 H 0.3220 1.2214 1.0666
C12 C 0.32106(15) 1.1403(3) 0.92858(10)
H12 H 0.3026 1.2705 0.8932
H13 H 0.4230 1.1132 0.9500
C13 C -0.15351(16) 0.9810(3) 0.69853(11)
H14 H -0.1748 1.1248 0.7119
C14 C -0.21588(15) 0.8525(3) 0.76121(11)
H15 H -0.1926 0.9152 0.8248
H16 H -0.3190 0.8499 0.7337
C15 C -0.23012(17) 0.9530(3) 0.59026(11)
C16 C -0.26069(18) 0.7306(3) 0.55735(12)
H17 H -0.3001 0.7269 0.4882
H18 H -0.3278 0.6716 0.5859
H19 H -0.1736 0.6518 0.5770
C17 C -0.37172(19) 1.0649(4) 0.56612(13)
H20 H -0.3556 1.2100 0.5813
H21 H -0.4279 1.0065 0.6032
H22 H -0.4217 1.0494 0.4985
C18 C 0.07143(15) 0.7707(3) 0.70691(11)
H23 H 0.0598 0.6651 0.7515
H24 H 0.0203 0.7256 0.6418
C19 C 0.30285(15) 0.8885(3) 0.79463(11)
C20 C 0.04493(16) 1.2150(3) 0.87174(11)
H25 H -0.0576 1.2335 0.8553
H26 H 0.0820 1.3248 0.8404
C21 C 0.11141(16) 1.2322(3) 0.97977(10)
H27 H 0.0522 1.1592 1.0116
H28 H 0.1154 1.3774 0.9986
loop_
_geom_bond_atom_site_label_1
_geom_bond_atom_site_label_2
_geom_bond_site_symmetry_1
_geom_bond_site_symmetry_2
O1 C1 1_555 1_555
O2 H1 1_555 1_555
O3 C8 1_555 1_555
O4 C18 1_555 1_555
O5 C19 1_555 1_555
O6 C4 1_555 1_555
C1 H2 1_555 1_555
H3 C1 1_555 1_555
H4 C1 1_555 1_555
C2 O1 1_555 1_555
H5 C2 1_555 1_555
H6 C2 1_555 1_555
C3 C2 1_555 1_555
H7 C3 1_555 1_555
C4 C3 1_555 1_555
C5 C4 1_555 1_555
C6 C5 1_555 1_555
H8 C6 1_555 1_555
C7 C6 1_555 1_555
C8 C7 1_555 1_555
C9 C8 1_555 1_555
H9 C9 1_555 1_555
C10 C9 1_555 1_555
H10 C10 1_555 1_555
C11 C3 1_555 1_555
H11 C11 1_555 1_555
C12 C5 1_555 1_555
H12 C12 1_555 1_555
H13 C12 1_555 1_555
C13 C7 1_555 1_555
H14 C13 1_555 1_555
C14 O2 1_555 1_555
H15 C14 1_555 1_555
H16 C14 1_555 1_555
C15 C10 1_555 1_555
C16 C15 1_555 1_555
H17 C16 1_555 1_555
H18 C16 1_555 1_555
H19 C16 1_555 1_555
C17 C15 1_555 1_555
H20 C17 1_555 1_555
H21 C17 1_555 1_555
H22 C17 1_555 1_555
C18 C7 1_555 1_555
H23 C18 1_555 1_555
H24 C18 1_555 1_555
C19 O4 1_555 1_555
C20 C6 1_555 1_555
H25 C20 1_555 1_555
H26 C20 1_555 1_555
C21 C11 1_555 1_555
H27 C21 1_555 1_555
H28 C21 1_555 1_555
C5 C19 1_555 1_555
C11 C12 1_555 1_555
C13 C14 1_555 1_555
C13 C15 1_555 1_555
C20 C21 1_555 1_555

#END
