
#######################################################################
#
#                 Cambridge Crystallographic Data Centre
#                                CCDC 
#
#######################################################################
#
# If this CIF has been generated from an entry in the Cambridge 
# Structural Database, then it will include bibliographic, chemical, 
# crystal, experimental, refinement or atomic coordinate data resulting 
# from the CCDC's data processing and validation procedures.
#
#######################################################################

data_BUDYAC
_chemical_formula_moiety         'C20 H26 O6'
_chemical_name_systematic        
2-(8a-hydroxy-8',8'-dimethyl-1,3'-dioxohexahydro-1H-spiro[isochromene-4,2'-[6]oxabicyclo[3.2.1]octan]-7-yl)acrylaldehyde
_symmetry_cell_setting           orthorhombic
_symmetry_space_group_name_H-M   'P 21 21 21'
_symmetry_Int_Tables_number      19
_space_group_name_Hall           'P 2ac 2ab'
loop_
_symmetry_equiv_pos_site_id
_symmetry_equiv_pos_as_xyz
1 x,y,z
2 1/2+x,1/2-y,-z
3 -x,1/2+y,1/2-z
4 1/2-x,-y,1/2+z
_cell_length_a                   7.6592(2)
_cell_length_b                   11.8666(3)
_cell_length_c                   20.7746(5)
_cell_angle_alpha                90
_cell_angle_beta                 90
_cell_angle_gamma                90
_cell_volume                     1888.18
_exptl_crystal_colour            colorless
_exptl_crystal_description       block
_cell_formula_units_Z            4
loop_
_atom_site_label
_atom_site_type_symbol
_atom_site_fract_x
_atom_site_fract_y
_atom_site_fract_z
O1 O 0.7029(7) 0.6750(5) 0.45900(19)
O2 O 1.0735(4) 0.8523(3) 0.01400(17)
O3 O 0.6621(7) 0.5023(3) 0.25189(15)
O4 O 0.8339(4) 0.5482(2) 0.17126(15)
O5 O 1.1678(4) 0.6885(4) 0.16684(18)
O6 O 0.5238(3) 0.6900(3) 0.15090(13)
H1 H 0.4221 0.6765 0.1605
C1 C 0.5731(7) 0.7257(5) 0.4488(2)
H2 H 0.5035 0.7437 0.4840
C2 C 0.5124(6) 0.7626(3) 0.38527(19)
C3 C 0.6262(5) 0.7306(3) 0.32772(18)
H3 H 0.6794 0.6571 0.3366
C4 C 0.5178(5) 0.7202(4) 0.26616(17)
H4 H 0.4290 0.6629 0.2723
H5 H 0.4589 0.7912 0.2581
C5 C 0.6282(4) 0.6895(3) 0.20751(16)
C6 C 0.7769(4) 0.7739(3) 0.19817(16)
H6 H 0.7227 0.8478 0.1918
C7 C 0.8851(4) 0.7475(3) 0.13508(19)
C8 C 0.8218(5) 0.8205(3) 0.07784(17)
H7 H 0.6950 0.8142 0.0726
C9 C 0.9166(6) 0.7872(4) 0.0149(2)
H8 H 0.9431 0.7073 0.0147
H9 H 0.8448 0.8045 -0.0222
C10 C 0.7740(6) 0.8168(4) 0.3175(2)
H10 H 0.7244 0.8908 0.3097
H11 H 0.8456 0.8211 0.3559
C11 C 0.8864(5) 0.7819(4) 0.26032(19)
H12 H 0.9398 0.7094 0.2691
H13 H 0.9791 0.8366 0.2543
C12 C 0.7047(6) 0.5725(3) 0.2133(2)
C13 C 0.8574(5) 0.6222(3) 0.1171(2)
H14 H 0.7556 0.6166 0.0895
H15 H 0.9575 0.5966 0.0925
C14 C 0.8778(7) 0.9467(4) 0.0814(2)
C15 C 1.0733(7) 0.9292(4) 0.0673(2)
H16 H 1.1303 1.0004 0.0560
C16 C 1.1641(6) 0.8725(5) 0.1245(3)
H17 H 1.2849 0.8581 0.1132
H18 H 1.1636 0.9242 0.1607
C17 C 1.0822(5) 0.7646(4) 0.1451(2)
C18 C 0.8456(9) 1.0144(4) 0.1428(3)
H19 H 0.8946 1.0884 0.1381
H20 H 0.8996 0.9770 0.1786
H21 H 0.7222 1.0205 0.1503
C19 C 0.7908(10) 1.0109(5) 0.0259(4)
H22 H 0.6663 1.0087 0.0312
H23 H 0.8219 0.9763 -0.0142
H24 H 0.8298 1.0878 0.0262
C20 C 0.3618(9) 0.8177(5) 0.3832(3)
H25 H 0.3001 0.8314 0.4210
H26 H 0.3180 0.8428 0.3440
loop_
_geom_bond_atom_site_label_1
_geom_bond_atom_site_label_2
_geom_bond_site_symmetry_1
_geom_bond_site_symmetry_2
O1 C1 1_555 1_555
O2 C9 1_555 1_555
O3 C12 1_555 1_555
O4 C12 1_555 1_555
O5 C17 1_555 1_555
O6 H1 1_555 1_555
C1 H2 1_555 1_555
C2 C1 1_555 1_555
C3 C2 1_555 1_555
H3 C3 1_555 1_555
C4 C3 1_555 1_555
H4 C4 1_555 1_555
H5 C4 1_555 1_555
C5 O6 1_555 1_555
C6 C5 1_555 1_555
H6 C6 1_555 1_555
C7 C6 1_555 1_555
C8 C7 1_555 1_555
H7 C8 1_555 1_555
C9 C8 1_555 1_555
H8 C9 1_555 1_555
H9 C9 1_555 1_555
C10 C3 1_555 1_555
H10 C10 1_555 1_555
H11 C10 1_555 1_555
C11 C6 1_555 1_555
H12 C11 1_555 1_555
H13 C11 1_555 1_555
C12 C5 1_555 1_555
C13 O4 1_555 1_555
H14 C13 1_555 1_555
H15 C13 1_555 1_555
C14 C8 1_555 1_555
C15 O2 1_555 1_555
H16 C15 1_555 1_555
C16 C15 1_555 1_555
H17 C16 1_555 1_555
H18 C16 1_555 1_555
C17 C7 1_555 1_555
C18 C14 1_555 1_555
H19 C18 1_555 1_555
H20 C18 1_555 1_555
H21 C18 1_555 1_555
C19 C14 1_555 1_555
H22 C19 1_555 1_555
H23 C19 1_555 1_555
H24 C19 1_555 1_555
C20 C2 1_555 1_555
H25 C20 1_555 1_555
H26 C20 1_555 1_555
C4 C5 1_555 1_555
C7 C13 1_555 1_555
C10 C11 1_555 1_555
C14 C15 1_555 1_555
C16 C17 1_555 1_555

#END
