
#######################################################################
#
#                 Cambridge Crystallographic Data Centre
#                                CCDC 
#
#######################################################################
#
# If this CIF has been generated from an entry in the Cambridge 
# Structural Database, then it will include bibliographic, chemical, 
# crystal, experimental, refinement or atomic coordinate data resulting 
# from the CCDC's data processing and validation procedures.
#
#######################################################################

data_BUDYOQ
_chemical_formula_moiety         'C19 H24 O5'
_chemical_name_systematic        
6,11'-dihydroxy-5,5-dimethyl-10'-methylene-3'-oxaspiro[cyclohexane-1,5'-tricyclo[7.2.1.0^1,6^]dodecane]-3-ene-2,2'-dione
_symmetry_cell_setting           hexagonal
_symmetry_space_group_name_H-M   'P 65'
_symmetry_Int_Tables_number      170
_space_group_name_Hall           'P 65'
loop_
_symmetry_equiv_pos_site_id
_symmetry_equiv_pos_as_xyz
1 x,y,z
2 x-y,x,5/6+z
3 y,-x+y,1/6+z
4 -y,x-y,2/3+z
5 -x+y,-x,1/3+z
6 -x,-y,1/2+z
_cell_length_a                   7.3862(2)
_cell_length_b                   7.3862(2)
_cell_length_c                   52.0680(14)
_cell_angle_alpha                90
_cell_angle_beta                 90
_cell_angle_gamma                120
_cell_volume                     2460.05
_exptl_crystal_colour            colorless
_exptl_crystal_description       block
_cell_formula_units_Z            6
loop_
_atom_site_label
_atom_site_type_symbol
_atom_site_fract_x
_atom_site_fract_y
_atom_site_fract_z
O1 O 0.6858(8) 0.9332(7) 0.12838(8)
O2 O 0.6590(8) 1.1011(7) 0.09551(10)
O3 O 0.2803(7) 0.5061(7) 0.10087(9)
H1 H 0.2424 0.3813 0.0972
O4 O 1.0769(7) 1.0472(7) 0.10156(9)
O5 O 0.6917(7) 0.3652(6) 0.13748(9)
H2 H 0.7049 0.2952 0.1493
C1 C 0.2092(12) 0.3726(12) 0.04629(15)
H3 H 0.2075 0.3142 0.0300
H4 H 0.0846 0.3178 0.0562
C2 C 0.3851(11) 0.5304(10) 0.05526(12)
C3 C 0.3909(9) 0.6330(9) 0.08059(12)
H5 H 0.3330 0.7278 0.0774
C4 C 0.6339(9) 0.7778(9) 0.08534(11)
C5 C 0.7308(9) 0.6393(8) 0.09515(11)
H6 H 0.6081 0.4982 0.0989
C6 C 0.8457(8) 0.7178(9) 0.12086(11)
C7 C 0.8866(9) 0.5469(9) 0.13285(11)
H7 H 0.9601 0.5099 0.1195
C8 C 1.0214(9) 0.6079(11) 0.15719(12)
C9 C 1.0955(12) 0.4488(13) 0.16066(14)
H8 H 1.1888 0.4625 0.1465
H9 H 0.9743 0.3070 0.1607
H10 H 1.1707 0.4752 0.1770
C10 C 0.9133(12) 0.6119(11) 0.18207(13)
H11 H 0.9992 0.6191 0.1968
H12 H 0.7762 0.4847 0.1833
H13 H 0.8951 0.7346 0.1821
C11 C 0.7086(10) 0.7640(10) 0.13810(13)
H14 H 0.5690 0.6373 0.1396
H15 H 0.7708 0.8000 0.1555
C12 C 0.6637(10) 0.9510(11) 0.10272(14)
C13 C 0.7037(10) 0.8529(10) 0.05779(12)
H16 H 0.8578 0.9258 0.0560
H17 H 0.6516 0.9457 0.0518
C14 C 0.5975(11) 0.6416(10) 0.04346(12)
H18 H 0.5889 0.6621 0.0246
C15 C 0.7248(10) 0.5274(10) 0.04893(12)
H19 H 0.6272 0.3749 0.0502
H20 H 0.8214 0.5522 0.0345
C16 C 0.8497(10) 0.6052(10) 0.07378(12)
H21 H 0.8896 0.5022 0.0796
H22 H 0.9800 0.7385 0.0703
C17 C 1.0555(9) 0.9230(9) 0.11791(12)
C18 C 1.2219(10) 0.9623(11) 0.13602(14)
H23 H 1.3459 1.0950 0.1356
C19 C 1.2096(10) 0.8234(12) 0.15302(13)
H24 H 1.3288 0.8619 0.1635
loop_
_geom_bond_atom_site_label_1
_geom_bond_atom_site_label_2
_geom_bond_site_symmetry_1
_geom_bond_site_symmetry_2
O1 C11 1_555 1_555
O2 C12 1_555 1_555
O3 H1 1_555 1_555
O4 C17 1_555 1_555
O5 H2 1_555 1_555
C1 H3 1_555 1_555
H4 C1 1_555 1_555
C2 C1 1_555 1_555
C3 O3 1_555 1_555
H5 C3 1_555 1_555
C4 C3 1_555 1_555
C5 C4 1_555 1_555
H6 C5 1_555 1_555
C6 C5 1_555 1_555
C7 O5 1_555 1_555
H7 C7 1_555 1_555
C8 C7 1_555 1_555
C9 C8 1_555 1_555
H8 C9 1_555 1_555
H9 C9 1_555 1_555
H10 C9 1_555 1_555
C10 C8 1_555 1_555
H11 C10 1_555 1_555
H12 C10 1_555 1_555
H13 C10 1_555 1_555
C11 C6 1_555 1_555
H14 C11 1_555 1_555
H15 C11 1_555 1_555
C12 O1 1_555 1_555
C13 C4 1_555 1_555
H16 C13 1_555 1_555
H17 C13 1_555 1_555
C14 C2 1_555 1_555
H18 C14 1_555 1_555
C15 C14 1_555 1_555
H19 C15 1_555 1_555
H20 C15 1_555 1_555
C16 C5 1_555 1_555
H21 C16 1_555 1_555
H22 C16 1_555 1_555
C17 C6 1_555 1_555
C18 C17 1_555 1_555
H23 C18 1_555 1_555
C19 C8 1_555 1_555
H24 C19 1_555 1_555
C2 C3 1_555 1_555
C4 C12 1_555 1_555
C6 C7 1_555 1_555
C13 C14 1_555 1_555
C15 C16 1_555 1_555
C18 C19 1_555 1_555

#END
