
#######################################################################
#
#                 Cambridge Crystallographic Data Centre
#                                CCDC 
#
#######################################################################
#
# If this CIF has been generated from an entry in the Cambridge 
# Structural Database, then it will include bibliographic, chemical, 
# crystal, experimental, refinement or atomic coordinate data resulting 
# from the CCDC's data processing and validation procedures.
#
#######################################################################

data_BUDZOQ
_chemical_formula_moiety         'C21 H17 N1'
_chemical_name_systematic        N-Phenyl-N-(3-phenylprop-2-yn-1-yl)aniline
_symmetry_cell_setting           monoclinic
_symmetry_space_group_name_H-M   'P 21'
_symmetry_Int_Tables_number      4
_space_group_name_Hall           'P 2yb'
loop_
_symmetry_equiv_pos_site_id
_symmetry_equiv_pos_as_xyz
1 x,y,z
2 -x,1/2+y,-z
_cell_length_a                   11.3760(10)
_cell_length_b                   5.7287(5)
_cell_length_c                   13.4090(10)
_cell_angle_alpha                90
_cell_angle_beta                 111.276(3)
_cell_angle_gamma                90
_cell_volume                     814.301
_exptl_crystal_colour            colorless
_exptl_crystal_description       block
_cell_formula_units_Z            2
_exptl_crystal_recrystallization_method chloroform/methanol
loop_
_atom_site_label
_atom_site_type_symbol
_atom_site_fract_x
_atom_site_fract_y
_atom_site_fract_z
C1 C 0.2341(2) 0.1972(5) 0.3674(2)
C2 C 0.1912(3) 0.1537(7) 0.4505(2)
H1 H 0.1255 0.2420 0.4565
C3 C 0.2457(4) -0.0199(7) 0.5240(3)
H2 H 0.2158 -0.0466 0.5789
C4 C 0.3427(3) -0.1539(8) 0.5183(3)
H3 H 0.3790 -0.2695 0.5688
C5 C 0.3851(3) -0.1131(7) 0.4356(3)
H4 H 0.4500 -0.2039 0.4298
C6 C 0.3327(2) 0.0596(6) 0.3619(2)
H5 H 0.3635 0.0853 0.3074
C7 C 0.1821(2) 0.3552(4) 0.1865(2)
C8 C 0.1297(2) 0.1628(5) 0.1253(2)
H6 H 0.0980 0.0420 0.1546
C9 C 0.1235(3) 0.1472(6) 0.0206(2)
H7 H 0.0885 0.0158 -0.0201
C10 C 0.1692(3) 0.3265(6) -0.0233(2)
H8 H 0.1657 0.3167 -0.0936
C11 C 0.2198(3) 0.5184(6) 0.0370(3)
H9 H 0.2496 0.6407 0.0072
C12 C 0.2273(3) 0.5334(5) 0.1416(2)
H10 H 0.2632 0.6645 0.1821
C13 C 0.0902(3) 0.5331(5) 0.3057(2)
H11 H 0.0843 0.6719 0.2627
H12 H 0.1166 0.5817 0.3799
C14 C -0.0356(3) 0.4259(6) 0.2741(2)
C15 C -0.1346(3) 0.3302(6) 0.2484(2)
C16 C -0.2554(3) 0.2165(6) 0.2187(2)
C17 C -0.2702(4) 0.0104(7) 0.2656(3)
H13 H -0.2010 -0.0604 0.3170
C18 C -0.3885(5) -0.0912(9) 0.2361(4)
H14 H -0.3990 -0.2296 0.2681
C19 C -0.4903(5) 0.0132(13) 0.1594(5)
H15 H -0.5697 -0.0548 0.1397
C20 C -0.4753(3) 0.2131(11) 0.1130(4)
H16 H -0.5446 0.2817 0.0607
C21 C -0.3604(3) 0.3163(7) 0.1413(3)
H17 H -0.3518 0.4551 0.1086
N1 N 0.1865(2) 0.3795(4) 0.29364(18)
loop_
_geom_bond_atom_site_label_1
_geom_bond_atom_site_label_2
_geom_bond_site_symmetry_1
_geom_bond_site_symmetry_2
C1 C2 1_555 1_555
C2 H1 1_555 1_555
C3 C2 1_555 1_555
H2 C3 1_555 1_555
C4 C3 1_555 1_555
H3 C4 1_555 1_555
C5 C4 1_555 1_555
H4 C5 1_555 1_555
C6 C1 1_555 1_555
H5 C6 1_555 1_555
C7 C8 1_555 1_555
C8 H6 1_555 1_555
C9 C8 1_555 1_555
H7 C9 1_555 1_555
C10 C9 1_555 1_555
H8 C10 1_555 1_555
C11 C10 1_555 1_555
H9 C11 1_555 1_555
C12 C7 1_555 1_555
H10 C12 1_555 1_555
C13 H11 1_555 1_555
H12 C13 1_555 1_555
C14 C13 1_555 1_555
C15 C14 1_555 1_555
C16 C15 1_555 1_555
C17 C16 1_555 1_555
H13 C17 1_555 1_555
C18 C17 1_555 1_555
H14 C18 1_555 1_555
C19 C18 1_555 1_555
H15 C19 1_555 1_555
C20 C19 1_555 1_555
H16 C20 1_555 1_555
C21 C16 1_555 1_555
H17 C21 1_555 1_555
N1 C1 1_555 1_555
C5 C6 1_555 1_555
C7 N1 1_555 1_555
C11 C12 1_555 1_555
C13 N1 1_555 1_555
C20 C21 1_555 1_555

#END
