
#######################################################################
#
#                 Cambridge Crystallographic Data Centre
#                                CCDC 
#
#######################################################################
#
# If this CIF has been generated from an entry in the Cambridge 
# Structural Database, then it will include bibliographic, chemical, 
# crystal, experimental, refinement or atomic coordinate data resulting 
# from the CCDC's data processing and validation procedures.
#
#######################################################################

data_BUDZAD
_chemical_formula_moiety         'C13 H12 N3 O1 1+,N1 O3 1-'
_chemical_name_systematic        
'4-acetyl-5-methyl-2-phenyl-1H-pyrrole-3-diazonium nitrate'
_symmetry_cell_setting           monoclinic
_symmetry_space_group_name_H-M   'P 21'
_symmetry_Int_Tables_number      4
_space_group_name_Hall           'P 2yb'
loop_
_symmetry_equiv_pos_site_id
_symmetry_equiv_pos_as_xyz
1 x,y,z
2 -x,1/2+y,-z
_cell_length_a                   7.347(1)
_cell_length_b                   12.620(1)
_cell_length_c                   14.296(2)
_cell_angle_alpha                90
_cell_angle_beta                 92.493(5)
_cell_angle_gamma                90
_cell_volume                     1324.26
_exptl_crystal_colour            'light yellow'
_exptl_crystal_description       needle
_cell_formula_units_Z            4
loop_
_atom_site_label
_atom_site_type_symbol
_atom_site_fract_x
_atom_site_fract_y
_atom_site_fract_z
O1 O 0.0393(6) 0.3846(3) 0.5619(3)
N1 N 0.0352(5) 0.5972(3) 0.8142(3)
H1 H 0.0262 0.6324 0.8802
N2 N -0.0302(5) 0.5920(3) 0.5722(3)
N3 N -0.0598(6) 0.6038(4) 0.4956(3)
C1 C -0.0023(6) 0.6510(4) 0.7341(4)
C2 C 0.0077(6) 0.5757(4) 0.6644(3)
C3 C 0.0510(6) 0.4741(4) 0.7040(4)
C4 C 0.0657(6) 0.4906(4) 0.7975(3)
C5 C -0.0396(6) 0.7656(4) 0.7335(4)
C6 C 0.0036(7) 0.8268(4) 0.8140(4)
H2 H 0.0592 0.7949 0.8682
C7 C -0.0362(7) 0.9341(4) 0.8127(4)
H3 H -0.0072 0.9753 0.8669
C8 C -0.1174(6) 0.9831(5) 0.7344(4)
H4 H -0.1429 1.0569 0.7348
C9 C -0.1605(7) 0.9226(4) 0.6556(4)
H5 H -0.2159 0.9551 0.6017
C10 C -0.1235(6) 0.8151(4) 0.6549(4)
H6 H -0.1552 0.7744 0.6007
C11 C 0.0664(7) 0.3763(5) 0.6457(4)
C12 C 0.1191(9) 0.2754(4) 0.6933(4)
H7 H 0.1579 0.2241 0.6467
H8 H 0.0144 0.2469 0.7253
H9 H 0.2195 0.2886 0.7391
C13 C 0.1005(7) 0.4188(4) 0.8817(3)
H10 H 0.1685 0.3561 0.8628
H11 H -0.0161 0.3967 0.9063
H12 H 0.1715 0.4573 0.9304
O2 O 0.5442(5) 0.9747(3) 0.9385(3)
N4 N 0.4210(5) 0.7613(3) 0.6908(3)
H13 H 0.4028 0.7253 0.6290
N5 N 0.5976(6) 0.7647(3) 0.9215(3)
N6 N 0.6637(6) 0.7510(3) 0.9910(3)
C14 C 0.4917(6) 0.7048(4) 0.7650(3)
C15 C 0.5187(6) 0.7827(4) 0.8343(4)
C16 C 0.4665(6) 0.8867(4) 0.8010(3)
C17 C 0.4071(6) 0.8671(4) 0.7097(3)
C18 C 0.5273(6) 0.5924(4) 0.7651(4)
C19 C 0.5454(6) 0.5405(4) 0.6806(4)
H14 H 0.5328 0.5793 0.6237
C20 C 0.5818(7) 0.4321(5) 0.6779(4)
H15 H 0.5903 0.3968 0.6195
C21 C 0.6051(7) 0.3770(5) 0.7600(4)
H16 H 0.6344 0.3037 0.7584
C22 C 0.5869(7) 0.4259(4) 0.8444(4)
H17 H 0.6016 0.3864 0.9007
C23 C 0.5467(7) 0.5336(4) 0.8478(4)
H18 H 0.5324 0.5672 0.9065
C24 C 0.4813(7) 0.9828(4) 0.8582(4)
C25 C 0.4197(7) 1.0873(5) 0.8181(4)
H19 H 0.4688 1.1448 0.8577
H20 H 0.2863 1.0904 0.8157
H21 H 0.4636 1.0949 0.7547
C26 C 0.3342(7) 0.9398(4) 0.6342(4)
H22 H 0.3038 0.8987 0.5775
H23 H 0.4265 0.9930 0.6206
H24 H 0.2244 0.9753 0.6550
O3 O 0.1541(5) 0.6859(3) 0.1263(3)
O4 O 0.2594(5) 0.7191(3) -0.0101(2)
O5 O 0.0027(5) 0.6362(3) 0.0000(3)
N7 N 0.1409(6) 0.6813(3) 0.0398(3)
O6 O 0.3614(6) 0.6627(3) 0.3814(3)
O7 O 0.5716(5) 0.7034(4) 0.4838(3)
O8 O 0.2957(5) 0.6890(3) 0.5246(2)
N8 N 0.4117(6) 0.6857(3) 0.4620(3)
loop_
_geom_bond_atom_site_label_1
_geom_bond_atom_site_label_2
_geom_bond_site_symmetry_1
_geom_bond_site_symmetry_2
O1 C11 1_555 1_555
N1 H1 1_555 1_555
N2 N3 1_555 1_555
C1 N1 1_555 1_555
C2 N2 1_555 1_555
C3 C2 1_555 1_555
C4 N1 1_555 1_555
C5 C1 1_555 1_555
C6 C5 1_555 1_555
H2 C6 1_555 1_555
C7 C6 1_555 1_555
H3 C7 1_555 1_555
C8 C7 1_555 1_555
H4 C8 1_555 1_555
C9 C8 1_555 1_555
H5 C9 1_555 1_555
C10 C5 1_555 1_555
H6 C10 1_555 1_555
C11 C3 1_555 1_555
C12 C11 1_555 1_555
H7 C12 1_555 1_555
H8 C12 1_555 1_555
H9 C12 1_555 1_555
C13 C4 1_555 1_555
H10 C13 1_555 1_555
H11 C13 1_555 1_555
H12 C13 1_555 1_555
O2 C24 1_555 1_555
N4 H13 1_555 1_555
N5 N6 1_555 1_555
C14 N4 1_555 1_555
C15 N5 1_555 1_555
C16 C15 1_555 1_555
C17 N4 1_555 1_555
C18 C14 1_555 1_555
C19 C18 1_555 1_555
H14 C19 1_555 1_555
C20 C19 1_555 1_555
H15 C20 1_555 1_555
C21 C20 1_555 1_555
H16 C21 1_555 1_555
C22 C21 1_555 1_555
H17 C22 1_555 1_555
C23 C18 1_555 1_555
H18 C23 1_555 1_555
C24 C16 1_555 1_555
C25 C24 1_555 1_555
H19 C25 1_555 1_555
H20 C25 1_555 1_555
H21 C25 1_555 1_555
C26 C17 1_555 1_555
H22 C26 1_555 1_555
H23 C26 1_555 1_555
H24 C26 1_555 1_555
O3 N7 1_555 1_555
O4 N7 1_555 1_555
O5 N7 1_555 1_555
O6 N8 1_555 1_555
O7 N8 1_555 1_555
O8 N8 1_555 1_555
C1 C2 1_555 1_555
C3 C4 1_555 1_555
C9 C10 1_555 1_555
C14 C15 1_555 1_555
C16 C17 1_555 1_555
C22 C23 1_555 1_555

#END
