
#######################################################################
#
#                 Cambridge Crystallographic Data Centre
#                                CCDC 
#
#######################################################################
#
# If this CIF has been generated from an entry in the Cambridge 
# Structural Database, then it will include bibliographic, chemical, 
# crystal, experimental, refinement or atomic coordinate data resulting 
# from the CCDC's data processing and validation procedures.
#
#######################################################################

data_BUFCUB
_chemical_formula_moiety         'C18 H16 N2 O2'
_chemical_name_systematic        1,4-bis(4-Pyridylmethoxy)benzene
_symmetry_cell_setting           monoclinic
_symmetry_space_group_name_H-M   'P 21/c'
_symmetry_Int_Tables_number      14
_space_group_name_Hall           '-P 2ybc'
loop_
_symmetry_equiv_pos_site_id
_symmetry_equiv_pos_as_xyz
1 x,y,z
2 -x,1/2+y,1/2-z
3 -x,-y,-z
4 x,1/2-y,1/2+z
_cell_length_a                   6.7825(14)
_cell_length_b                   5.8694(12)
_cell_length_c                   18.542(4)
_cell_angle_alpha                90
_cell_angle_beta                 90.99(3)
_cell_angle_gamma                90
_cell_volume                     738.032
_exptl_crystal_colour            colorless
_exptl_crystal_description       block
_cell_formula_units_Z            2
_exptl_crystal_recrystallization_method methanol
loop_
_atom_site_label
_atom_site_type_symbol
_atom_site_fract_x
_atom_site_fract_y
_atom_site_fract_z
C1 C 0.7686(2) 0.6857(2) 0.33856(8)
H1 H 0.8310 0.8236 0.3485
C2 C 0.5902(2) 0.6432(2) 0.37093(7)
H2 H 0.5355 0.7500 0.4018
C3 C 0.49406(16) 0.43997(19) 0.35690(6)
C4 C 0.58453(18) 0.2877(2) 0.31094(6)
H3 H 0.5253 0.1487 0.3002
C5 C 0.76321(19) 0.3441(2) 0.28130(7)
H4 H 0.8221 0.2394 0.2508
C6 C 0.29658(18) 0.3853(2) 0.38841(7)
H5 H 0.2471 0.5155 0.4148
H6 H 0.2023 0.3475 0.3503
C7 C 0.15772(16) 0.1050(2) 0.46653(6)
C8 C -0.03138(17) 0.1943(2) 0.45833(6)
H7 H -0.0528 0.3245 0.4307
C9 C -0.18785(16) 0.0872(2) 0.49178(7)
H8 H -0.3146 0.1457 0.4860
N1 N 0.85625(16) 0.5413(2) 0.29416(6)
O1 O 0.32347(12) 0.19635(16) 0.43566(5)
C1B C -0.7686(2) -0.6857(2) 0.66144(8)
H1B H -0.8310 -0.8236 0.6515
C2B C -0.5902(2) -0.6432(2) 0.62907(7)
H2B H -0.5355 -0.7500 0.5982
C3B C -0.49406(16) -0.43997(19) 0.64310(6)
C4B C -0.58453(18) -0.2877(2) 0.68906(6)
H3B H -0.5253 -0.1487 0.6998
C5B C -0.76321(19) -0.3441(2) 0.71870(7)
H4B H -0.8221 -0.2394 0.7492
C6B C -0.29658(18) -0.3853(2) 0.61159(7)
H5B H -0.2471 -0.5155 0.5852
H6B H -0.2023 -0.3475 0.6497
C7B C -0.15772(16) -0.1050(2) 0.53347(6)
C8B C 0.03138(17) -0.1943(2) 0.54167(6)
H7B H 0.0528 -0.3245 0.5693
C9B C 0.18785(16) -0.0872(2) 0.50822(7)
H8B H 0.3146 -0.1457 0.5140
N1B N -0.85625(16) -0.5413(2) 0.70584(6)
O1B O -0.32347(12) -0.19635(16) 0.56434(5)
loop_
_geom_bond_atom_site_label_1
_geom_bond_atom_site_label_2
_geom_bond_site_symmetry_1
_geom_bond_site_symmetry_2
C1 H1 1_555 1_555
C2 C1 1_555 1_555
H2 C2 1_555 1_555
C3 C2 1_555 1_555
C4 C3 1_555 1_555
H3 C4 1_555 1_555
C5 C4 1_555 1_555
H4 C5 1_555 1_555
C6 C3 1_555 1_555
H5 C6 1_555 1_555
H6 C6 1_555 1_555
C7 C8 1_555 1_555
C8 H7 1_555 1_555
C9 C8 1_555 1_555
H8 C9 1_555 1_555
N1 C1 1_555 1_555
O1 C6 1_555 1_555
C1B H1B 1_555 1_555
C2B C1B 1_555 1_555
H2B C2B 1_555 1_555
C3B C2B 1_555 1_555
C4B C3B 1_555 1_555
H3B C4B 1_555 1_555
C5B C4B 1_555 1_555
H4B C5B 1_555 1_555
C6B C3B 1_555 1_555
H5B C6B 1_555 1_555
H6B C6B 1_555 1_555
C7B C9 1_555 1_555
C8B C7B 1_555 1_555
H7B C8B 1_555 1_555
C9B C7 1_555 1_555
H8B C9B 1_555 1_555
N1B C1B 1_555 1_555
O1B C6B 1_555 1_555
C5 N1 1_555 1_555
C7 O1 1_555 1_555
C5B N1B 1_555 1_555
C7B O1B 1_555 1_555
C8B C9B 1_555 1_555

#END
