
#######################################################################
#
#                 Cambridge Crystallographic Data Centre
#                                CCDC 
#
#######################################################################
#
# If this CIF has been generated from an entry in the Cambridge 
# Structural Database, then it will include bibliographic, chemical, 
# crystal, experimental, refinement or atomic coordinate data resulting 
# from the CCDC's data processing and validation procedures.
#
#######################################################################

data_BUFDAI
_chemical_formula_moiety         '0.5(C6 H16 N2 2+),C6 H4 N1 O2 1-'
_chemical_name_systematic        
'hemikis(cyclohexane-1,2-diammonium) (pyridine-2-carboxylate)'
_symmetry_cell_setting           monoclinic
_symmetry_space_group_name_H-M   'P 21/n'
_symmetry_Int_Tables_number      14
_space_group_name_Hall           '-P 2yn'
loop_
_symmetry_equiv_pos_site_id
_symmetry_equiv_pos_as_xyz
1 x,y,z
2 1/2-x,1/2+y,1/2-z
3 -x,-y,-z
4 1/2+x,1/2-y,1/2+z
_cell_length_a                   9.2942(11)
_cell_length_b                   20.329(2)
_cell_length_c                   10.2189(11)
_cell_angle_alpha                90
_cell_angle_beta                 101.775(3)
_cell_angle_gamma                90
_cell_volume                     1890.15
_exptl_crystal_colour            colorless
_exptl_crystal_description       rod
_cell_formula_units_Z            8
_exptl_crystal_recrystallization_method acetonitrile
loop_
_atom_site_label
_atom_site_type_symbol
_atom_site_fract_x
_atom_site_fract_y
_atom_site_fract_z
O1 O 0.5813(2) 0.56693(10) 0.5900(2)
O2 O 0.6448(3) 0.60901(12) 0.7932(2)
N3 N 0.4687(3) 0.68504(14) 0.4928(3)
C7 C 0.4020(5) 0.74176(19) 0.4510(4)
H17 H 0.3641 0.7465 0.3600
C8 C 0.3859(5) 0.79253(18) 0.5318(4)
H18 H 0.3372 0.8307 0.4977
C9 C 0.4430(5) 0.78617(18) 0.6647(4)
H19 H 0.4344 0.8203 0.7231
C10 C 0.5136(4) 0.72897(17) 0.7119(3)
H20 H 0.5546 0.7241 0.8024
C11 C 0.5224(3) 0.67897(15) 0.6232(3)
C12 C 0.5894(3) 0.61329(16) 0.6723(4)
O3 O 0.9341(2) 0.53730(12) 1.1294(2)
O4 O 0.7329(2) 0.53120(12) 1.2114(2)
N4 N 1.1006(3) 0.56390(14) 1.3686(3)
C13 C 1.1815(4) 0.58402(19) 1.4852(4)
H21 H 1.2833 0.5832 1.4958
C14 C 1.1234(4) 0.60559(18) 1.5892(4)
H22 H 1.1846 0.6196 1.6678
C15 C 0.9757(5) 0.60653(18) 1.5775(4)
H23 H 0.9338 0.6212 1.6474
C16 C 0.8879(4) 0.58488(17) 1.4573(3)
H24 H 0.7861 0.5843 1.4463
C17 C 0.9540(3) 0.56461(14) 1.3564(3)
C18 C 0.8658(4) 0.54258(15) 1.2225(3)
N1 N 0.7776(2) 0.49308(12) 0.8877(2)
H1 H 0.8252 0.5093 0.9617
H2 H 0.7247 0.5233 0.8425
H3 H 0.8387 0.4780 0.8423
N2 N 0.5142(2) 0.44461(12) 0.6901(2)
H4 H 0.4887 0.4232 0.6164
H5 H 0.5633 0.4790 0.6768
H6 H 0.4370 0.4563 0.7182
C1 C 0.6809(3) 0.43883(15) 0.9164(3)
H7 H 0.6048 0.4573 0.9593
C2 C 0.6076(3) 0.40179(15) 0.7922(3)
H8 H 0.6844 0.3820 0.7519
C3 C 0.5124(4) 0.34650(16) 0.8301(3)
H9 H 0.4353 0.3652 0.8698
H10 H 0.4664 0.3227 0.7503
C4 C 0.6042(4) 0.29907(18) 0.9290(4)
H11 H 0.5408 0.2657 0.9550
H12 H 0.6754 0.2772 0.8865
C5 C 0.6839(5) 0.33547(18) 1.0523(3)
H13 H 0.6128 0.3529 1.1007
H14 H 0.7474 0.3052 1.1108
C6 C 0.7750(4) 0.39129(16) 1.0134(3)
H15 H 0.8516 0.3733 0.9722
H16 H 0.8219 0.4150 1.0931
loop_
_geom_bond_atom_site_label_1
_geom_bond_atom_site_label_2
_geom_bond_site_symmetry_1
_geom_bond_site_symmetry_2
O1 C12 1_555 1_555
O2 C12 1_555 1_555
O3 C18 1_555 1_555
O4 C18 1_555 1_555
N1 H1 1_555 1_555
H2 N1 1_555 1_555
H3 N1 1_555 1_555
N2 H4 1_555 1_555
H5 N2 1_555 1_555
H6 N2 1_555 1_555
N3 C7 1_555 1_555
N4 C13 1_555 1_555
C1 N1 1_555 1_555
H7 C1 1_555 1_555
C2 N2 1_555 1_555
H8 C2 1_555 1_555
C3 C2 1_555 1_555
H9 C3 1_555 1_555
H10 C3 1_555 1_555
C4 C3 1_555 1_555
H11 C4 1_555 1_555
H12 C4 1_555 1_555
C5 C4 1_555 1_555
H13 C5 1_555 1_555
H14 C5 1_555 1_555
C6 C1 1_555 1_555
H15 C6 1_555 1_555
H16 C6 1_555 1_555
C7 H17 1_555 1_555
C8 C7 1_555 1_555
H18 C8 1_555 1_555
C9 C8 1_555 1_555
H19 C9 1_555 1_555
C10 C9 1_555 1_555
H20 C10 1_555 1_555
C11 N3 1_555 1_555
C12 C11 1_555 1_555
C13 H21 1_555 1_555
C14 C13 1_555 1_555
H22 C14 1_555 1_555
C15 C14 1_555 1_555
H23 C15 1_555 1_555
C16 C15 1_555 1_555
H24 C16 1_555 1_555
C17 N4 1_555 1_555
C18 C17 1_555 1_555
C1 C2 1_555 1_555
C5 C6 1_555 1_555
C10 C11 1_555 1_555
C16 C17 1_555 1_555

#END
