
#######################################################################
#
#                 Cambridge Crystallographic Data Centre
#                                CCDC 
#
#######################################################################
#
# If this CIF has been generated from an entry in the Cambridge 
# Structural Database, then it will include bibliographic, chemical, 
# crystal, experimental, refinement or atomic coordinate data resulting 
# from the CCDC's data processing and validation procedures.
#
#######################################################################

data_BUFGIT
_chemical_formula_moiety         'C18 H18 O4'
_chemical_name_systematic        
3-(3-Phenylallylidene)-1,5-dioxaspiro[5.5]undecane-2,4-dione
_symmetry_cell_setting           triclinic
_symmetry_space_group_name_H-M   'P -1'
_symmetry_Int_Tables_number      2
_space_group_name_Hall           '-P 1'
loop_
_symmetry_equiv_pos_site_id
_symmetry_equiv_pos_as_xyz
1 x,y,z
2 -x,-y,-z
_cell_length_a                   7.1177(14)
_cell_length_b                   9.5506(19)
_cell_length_c                   11.734(2)
_cell_angle_alpha                106.82(3)
_cell_angle_beta                 100.14(3)
_cell_angle_gamma                93.35(3)
_cell_volume                     746.525
_exptl_crystal_colour            yellow
_exptl_crystal_description       block
_cell_formula_units_Z            2
_exptl_crystal_recrystallization_method 'petroleum ether/ethyl acetate'
loop_
_atom_site_label
_atom_site_type_symbol
_atom_site_fract_x
_atom_site_fract_y
_atom_site_fract_z
O1 O 0.07551(13) 0.64682(9) 0.13593(9)
O2 O 0.27862(12) 0.86963(9) 0.18966(9)
C1 C -0.01600(18) 0.86915(14) 0.26210(12)
O3 O -0.18747(14) 0.63080(11) 0.20875(11)
C2 C -0.05451(19) 0.70896(14) 0.20042(13)
C3 C 0.19207(18) 0.73899(13) 0.09196(12)
C4 C 0.07076(19) 0.77924(15) -0.01133(13)
H1 H -0.0251 0.8396 0.0195
H2 H 0.0042 0.6902 -0.0723
C5 C 0.35558(19) 0.65608(14) 0.05319(14)
H3 H 0.3043 0.5604 -0.0042
H4 H 0.4353 0.6405 0.1235
C6 C 0.16915(19) 0.94609(15) 0.26336(13)
C7 C -0.2995(2) 1.28109(15) 0.52506(13)
C8 C -0.1418(2) 1.08555(15) 0.39392(13)
H5 H -0.0315 1.1500 0.4069
C9 C -0.15033(19) 0.93622(15) 0.32054(13)
H6 H -0.2635 0.8767 0.3116
O4 O 0.23340(15) 1.06908(12) 0.32633(13)
C10 C -0.2902(2) 1.13463(16) 0.44451(13)
H7 H -0.3994 1.0674 0.4260
C11 C -0.4695(2) 1.31394(17) 0.56535(14)
H8 H -0.5745 1.2418 0.5408
C12 C 0.4779(2) 0.74002(16) -0.00542(15)
H9 H 0.5422 0.8302 0.0551
H10 H 0.5757 0.6807 -0.0346
C13 C -0.1442(2) 1.39115(17) 0.56447(14)
H11 H -0.0287 1.3716 0.5399
C14 C -0.4845(2) 1.45175(18) 0.64115(15)
H12 H -0.5987 1.4717 0.6676
C15 C 0.3571(2) 0.77756(18) -0.11085(16)
H13 H 0.3042 0.6875 -0.1755
H14 H 0.4376 0.8363 -0.1426
C16 C -0.1606(2) 1.52867(18) 0.63955(15)
H15 H -0.0563 1.6015 0.6649
C17 C 0.1938(2) 0.86284(17) -0.06957(15)
H16 H 0.2471 0.9577 -0.0115
H17 H 0.1140 0.8803 -0.1390
C18 C -0.3313(3) 1.55903(18) 0.67735(15)
H18 H -0.3420 1.6523 0.7274
loop_
_geom_bond_atom_site_label_1
_geom_bond_atom_site_label_2
_geom_bond_site_symmetry_1
_geom_bond_site_symmetry_2
O1 C2 1_555 1_555
O2 C3 1_555 1_555
C1 C2 1_555 1_555
O3 C2 1_555 1_555
C3 O1 1_555 1_555
C4 C3 1_555 1_555
H1 C4 1_555 1_555
H2 C4 1_555 1_555
C5 C3 1_555 1_555
H3 C5 1_555 1_555
H4 C5 1_555 1_555
C6 O2 1_555 1_555
C7 C10 1_555 1_555
C8 H5 1_555 1_555
C9 C1 1_555 1_555
H6 C9 1_555 1_555
O4 C6 1_555 1_555
C10 C8 1_555 1_555
H7 C10 1_555 1_555
C11 C7 1_555 1_555
H8 C11 1_555 1_555
C12 C5 1_555 1_555
H9 C12 1_555 1_555
H10 C12 1_555 1_555
C13 C7 1_555 1_555
H11 C13 1_555 1_555
C14 C11 1_555 1_555
H12 C14 1_555 1_555
C15 C12 1_555 1_555
H13 C15 1_555 1_555
H14 C15 1_555 1_555
C16 C13 1_555 1_555
H15 C16 1_555 1_555
C17 C4 1_555 1_555
H16 C17 1_555 1_555
H17 C17 1_555 1_555
C18 C14 1_555 1_555
H18 C18 1_555 1_555
C1 C6 1_555 1_555
C8 C9 1_555 1_555
C15 C17 1_555 1_555
C16 C18 1_555 1_555

#END
