
#######################################################################
#
#                 Cambridge Crystallographic Data Centre
#                                CCDC 
#
#######################################################################
#
# If this CIF has been generated from an entry in the Cambridge 
# Structural Database, then it will include bibliographic, chemical, 
# crystal, experimental, refinement or atomic coordinate data resulting 
# from the CCDC's data processing and validation procedures.
#
#######################################################################

data_BUFGAL
_chemical_formula_moiety         'C7 H9 F1 N2 O2'
_chemical_name_systematic        6-Ethyl-5-fluoro-2-methoxypyrimidin-4(3H)-one
_symmetry_cell_setting           triclinic
_symmetry_space_group_name_H-M   'P -1'
_symmetry_Int_Tables_number      2
_space_group_name_Hall           '-P 1'
loop_
_symmetry_equiv_pos_site_id
_symmetry_equiv_pos_as_xyz
1 x,y,z
2 -x,-y,-z
_cell_length_a                   4.5711(4)
_cell_length_b                   8.4985(8)
_cell_length_c                   10.8546(11)
_cell_angle_alpha                88.043(2)
_cell_angle_beta                 79.737(3)
_cell_angle_gamma                79.616(2)
_cell_volume                     408.131
_exptl_crystal_colour            colorless
_exptl_crystal_description       chunk
_chemical_melting_point          447-449K
_cell_formula_units_Z            2
_exptl_crystal_recrystallization_method ethanol
loop_
_atom_site_label
_atom_site_type_symbol
_atom_site_fract_x
_atom_site_fract_y
_atom_site_fract_z
F1 F -0.2750(3) 0.5521(2) 0.78974(17)
O1 O 0.6346(4) 0.0891(2) 0.60826(17)
O2 O 0.1625(4) 0.6002(2) 0.58950(19)
N1 N 0.3901(4) 0.3399(2) 0.6042(2)
N2 N 0.2058(4) 0.1623(2) 0.7615(2)
C1 C 0.4039(5) 0.1970(2) 0.6603(2)
C2 C -0.0212(5) 0.2877(3) 0.8040(2)
C3 C -0.0446(5) 0.4310(3) 0.7475(2)
C4 C 0.1656(6) 0.4689(3) 0.6427(2)
C5 C 0.6683(7) -0.0711(2) 0.6608(2)
C6 C -0.2321(6) 0.2513(3) 0.9191(2)
C7 C -0.0903(8) 0.2402(4) 1.0339(2)
H1 H 0.5276 0.3520 0.5412
H2 H 0.7001 -0.0670 0.7457
H3 H 0.8384 -0.1380 0.6122
H4 H 0.4886 -0.1142 0.6595
H5 H -0.2930 0.1500 0.9075
H6 H -0.4085 0.3355 0.9311
H7 H 0.0851 0.1573 1.0231
H8 H -0.2328 0.2156 1.1050
H9 H -0.0324 0.3405 1.0473
loop_
_geom_bond_atom_site_label_1
_geom_bond_atom_site_label_2
_geom_bond_site_symmetry_1
_geom_bond_site_symmetry_2
F1 C3 1_555 1_555
O1 C1 1_555 1_555
O2 C4 1_555 1_555
N1 C1 1_555 1_555
N2 C1 1_555 1_555
C2 N2 1_555 1_555
C3 C2 1_555 1_555
C4 N1 1_555 1_555
C5 O1 1_555 1_555
C6 C2 1_555 1_555
C7 C6 1_555 1_555
H1 N1 1_555 1_555
H2 C5 1_555 1_555
H3 C5 1_555 1_555
H4 C5 1_555 1_555
H5 C6 1_555 1_555
H6 C6 1_555 1_555
H7 C7 1_555 1_555
H8 C7 1_555 1_555
H9 C7 1_555 1_555
C3 C4 1_555 1_555

#END
