
#######################################################################
#
#                 Cambridge Crystallographic Data Centre
#                                CCDC 
#
#######################################################################
#
# If this CIF has been generated from an entry in the Cambridge 
# Structural Database, then it will include bibliographic, chemical, 
# crystal, experimental, refinement or atomic coordinate data resulting 
# from the CCDC's data processing and validation procedures.
#
#######################################################################

data_BUFKEU
_chemical_formula_moiety         'C43 H68 N8 O11,2(C1 H4 O1),0.5(H2 O1)'
_chemical_name_systematic        
'N^2^-formyl-N-(3-hydroxy-7-isobutyl-10,20-diisopropyl-17-(4-methoxybenzyl)-9,13-dimethyl-5,8,11,15,18,21-hexaoxoicosahydro-13H-pyridazino[6,1-i][1,4,7,10,13,16]oxapentaazacyclononadecin-14-yl)isoleucinamide methanol solvate hemihydrate'
_symmetry_cell_setting           monoclinic
_symmetry_space_group_name_H-M   'P 21'
_symmetry_Int_Tables_number      4
_space_group_name_Hall           'P 2yb'
loop_
_symmetry_equiv_pos_site_id
_symmetry_equiv_pos_as_xyz
1 x,y,z
2 -x,1/2+y,-z
_cell_length_a                   25.70815(12)
_cell_length_b                   12.31126(5)
_cell_length_c                   35.80296(15)
_cell_angle_alpha                90
_cell_angle_beta                 108.1846(5)
_cell_angle_gamma                90
_cell_volume                     10765.7
_exptl_crystal_colour            colorless
_exptl_crystal_description       block
_cell_formula_units_Z            8
loop_
_atom_site_label
_atom_site_type_symbol
_atom_site_fract_x
_atom_site_fract_y
_atom_site_fract_z
C44 C 0.63887(10) 0.0126(2) 0.66741(7)
C45 C 0.63363(10) 0.02706(19) 0.62419(7)
H69 H 0.5951 0.0155 0.6090
C46 C 0.66761(14) -0.0559(3) 0.60984(10)
H70 H 0.7059 -0.0518 0.6264
C47 C 0.6458(2) -0.1680(3) 0.6126(2)
H71 H 0.6452 -0.1806 0.6389
H72 H 0.6690 -0.2209 0.6060
H73 H 0.6093 -0.1741 0.5946
C48 C 0.6637(2) -0.0276(5) 0.56651(11)
H74 H 0.6906 -0.0685 0.5590
H75 H 0.6702 0.0486 0.5645
H76 H 0.6278 -0.0456 0.5494
C49 C 0.60416(10) 0.21049(19) 0.60589(7)
C50 C 0.61653(11) 0.3316(2) 0.60279(8)
H77 H 0.6459 0.3394 0.5910
C51 C 0.63428(12) 0.3837(2) 0.64373(9)
H78 H 0.6650 0.3430 0.6606
H79 H 0.6044 0.3779 0.6548
C52 C 0.65085(13) 0.5035(3) 0.64407(12)
H80 H 0.6190 0.5446 0.6281
C53 C 0.6665(2) 0.5463(4) 0.68598(18)
H81 H 0.6915 0.4966 0.7033
H82 H 0.6342 0.5532 0.6938
H83 H 0.6837 0.6160 0.6873
C54 C 0.69692(17) 0.5198(3) 0.62684(18)
H84 H 0.7074 0.5950 0.6289
H85 H 0.6849 0.4987 0.5997
H86 H 0.7277 0.4762 0.6410
C55 C 0.55874(12) 0.40612(19) 0.54009(8)
C56 C 0.50445(14) 0.4619(2) 0.51748(7)
H87 H 0.4816 0.4072 0.5000
C57 C 0.5130(2) 0.5548(3) 0.49129(10)
H88 H 0.5397 0.5328 0.4786
H89 H 0.4788 0.5701 0.4709
C58 C 0.5330(2) 0.6569(3) 0.51544(13)
H90 H 0.5354 0.7169 0.4981
C59 C 0.4945(2) 0.6862(2) 0.53757(12)
H91 H 0.5068 0.7526 0.5522
H92 H 0.4584 0.6992 0.5192
C60 C 0.43109(12) 0.4451(2) 0.54695(7)
C61 C 0.40362(12) 0.4818(2) 0.57738(8)
H93 H 0.4245 0.5421 0.5929
C62 C 0.34462(15) 0.5181(3) 0.55717(11)
H94 H 0.3251 0.4579 0.5408
C63 C 0.31527(17) 0.5441(4) 0.58760(14)
H95 H 0.3306 0.6088 0.6017
H96 H 0.3199 0.4846 0.6057
H97 H 0.2770 0.5551 0.5744
C64 C 0.3439(2) 0.6143(4) 0.53031(15)
H98 H 0.3559 0.6784 0.5459
H99 H 0.3073 0.6252 0.5130
H100 H 0.3679 0.6001 0.5151
C65 C 0.45439(11) 0.3441(2) 0.62247(7)
C66 C 0.45119(10) 0.2267(2) 0.63734(7)
H101 H 0.4250 0.2251 0.6522
C67 C 0.43136(11) 0.1495(2) 0.60213(7)
H102 H 0.3956 0.1729 0.5855
H103 H 0.4563 0.1534 0.5867
C68 C 0.42780(11) 0.0337(2) 0.61463(8)
C69 C 0.38404(13) 0.0008(3) 0.62791(10)
H104 H 0.3572 0.0506 0.6286
C70 C 0.38082(17) -0.1042(3) 0.63983(11)
H105 H 0.3516 -0.1251 0.6483
C71 C 0.42009(17) -0.1781(3) 0.63941(8)
C72 C 0.46397(17) -0.1473(3) 0.62632(10)
H106 H 0.4910 -0.1973 0.6260
C73 C 0.46657(14) -0.0420(3) 0.61397(9)
H107 H 0.4954 -0.0219 0.6050
C74 C 0.51475(10) 0.1777(2) 0.70147(7)
C75 C 0.57497(11) 0.1533(3) 0.72476(7)
H108 H 0.5981 0.2097 0.7188
C76 C 0.59494(13) 0.0436(3) 0.71589(8)
H109 H 0.6322 0.0320 0.7336
C77 C 0.5601(2) -0.0502(3) 0.71975(11)
H110 H 0.5250 -0.0453 0.6998
H111 H 0.5551 -0.0486 0.7452
H112 H 0.5776 -0.1169 0.7166
C78 C 0.62684(12) 0.1842(4) 0.79388(9)
C79 C 0.62003(15) 0.1945(5) 0.83512(9)
H113 H 0.5934 0.1402 0.8376
C80 C 0.5988(2) 0.3084(5) 0.84078(12)
H114 H 0.5648 0.3181 0.8190
C81 C 0.6369(3) 0.4043(6) 0.83755(15)
H115 H 0.6183 0.4720 0.8375
H116 H 0.6459 0.3975 0.8136
H117 H 0.6698 0.4023 0.8595
C82 C 0.5829(2) 0.3209(5) 0.87812(13)
H118 H 0.6160 0.3185 0.9005
H119 H 0.5666 0.3921 0.8779
C83 C 0.5443(4) 0.2382(6) 0.8840(2)
H120 H 0.5100 0.2440 0.8633
H121 H 0.5384 0.2500 0.9089
H122 H 0.5593 0.1670 0.8836
C84 C 0.6890(2) 0.0765(9) 0.87158(18)
H123 H 0.7242 0.0695 0.8891
C85 C 0.70481(12) 0.1721(3) 0.63137(11)
H124 H 0.7081 0.2473 0.6254
H125 H 0.7247 0.1285 0.6182
H126 H 0.7196 0.1612 0.6592
C86 C 0.4623(3) -0.3457(3) 0.66695(14)
H127 H 0.4796 -0.3522 0.6468
H128 H 0.4526 -0.4166 0.6738
H129 H 0.4872 -0.3120 0.6897
O12 O 0.67501(10) -0.0389(3) 0.69081(7)
O13 O 0.55647(7) 0.18066(14) 0.59842(5)
O14 O 0.59035(10) 0.37944(18) 0.52223(6)
O15 O 0.41501(9) 0.36278(17) 0.52762(6)
O16 O 0.49753(7) 0.38949(15) 0.62594(5)
O17 O 0.48002(8) 0.1827(2) 0.71807(5)
O18 O 0.66918(11) 0.2040(5) 0.78715(8)
O19 O 0.59699(9) 0.0514(2) 0.67589(6)
O20 O 0.6666(2) -0.0076(6) 0.8581(2)
O21 O 0.41427(15) -0.2810(2) 0.65286(8)
O22 O 0.58509(15) 0.6400(2) 0.54428(10)
H130 H 0.6093 0.6458 0.5339
N9 N 0.64721(8) 0.14064(18) 0.61808(6)
N10 N 0.56760(10) 0.38585(18) 0.57824(7)
H131 H 0.5433 0.4058 0.5887
N11 N 0.47367(11) 0.50203(17) 0.54296(6)
N12 N 0.40602(10) 0.3886(2) 0.60291(7)
H132 H 0.3763 0.3622 0.6054
N13 N 0.50466(8) 0.19748(18) 0.66327(6)
H133 H 0.5313 0.1926 0.6536
N14 N 0.57977(9) 0.1601(2) 0.76603(6)
H134 H 0.5511 0.1482 0.7730
N15 N 0.67065(15) 0.1752(5) 0.86488(9)
H135 H 0.6889 0.2284 0.8783
N16 N 0.49150(12) 0.59927(18) 0.56466(7)
H136 H 0.4993 0.6059 0.5897
C87 C 0.15570(9) 0.8182(2) 0.36809(7)
C88 C 0.14742(9) 0.86906(19) 0.40503(7)
H137 H 0.1093 0.8938 0.3978
C89 C 0.18386(12) 0.9689(2) 0.41973(9)
H138 H 0.2221 0.9487 0.4239
C90 C 0.16744(17) 1.0570(3) 0.38837(12)
H139 H 0.1307 1.0802 0.3853
H140 H 0.1693 1.0286 0.3639
H141 H 0.1919 1.1176 0.3962
C91 C 0.17779(14) 1.0085(3) 0.45832(11)
H142 H 0.2024 1.0680 0.4681
H143 H 0.1863 0.9503 0.4771
H144 H 0.1408 1.0322 0.4541
C92 C 0.10731(10) 0.7348(2) 0.43723(7)
C93 C 0.11225(12) 0.6361(2) 0.46462(9)
H145 H 0.1422 0.6482 0.4890
C94 C 0.12379(14) 0.5335(2) 0.44419(12)
H146 H 0.1559 0.5456 0.4360
H147 H 0.0930 0.5199 0.4208
C95 C 0.1333(2) 0.4331(3) 0.47096(19)
H148 H 0.1033 0.4273 0.4824
C96 C 0.1872(3) 0.4393(5) 0.5039(2)
H149 H 0.2167 0.4449 0.4929
H150 H 0.1918 0.3750 0.5198
H151 H 0.1871 0.5020 0.5198
C97 C 0.1318(4) 0.3327(4) 0.4442(3)
H152 H 0.1640 0.3322 0.4361
H153 H 0.0999 0.3365 0.4215
H154 H 0.1306 0.2674 0.4586
C98 C 0.05458(14) 0.6501(3) 0.50781(9)
C99 C -0.00433(14) 0.6425(3) 0.51051(9)
H155 H -0.0181 0.7172 0.5089
C100 C -0.00491(18) 0.5977(4) 0.55025(10)
H156 H -0.0388 0.6185 0.5549
H157 H 0.0253 0.6287 0.5710
C101 C 0.00015(16) 0.4734(4) 0.55102(12)
H158 H -0.0049 0.4453 0.5753
C102 C -0.04308(15) 0.4252(3) 0.51570(12)
H159 H -0.0388 0.3470 0.5158
H160 H -0.0792 0.4410 0.5176
C103 C -0.07649(13) 0.6375(3) 0.44699(10)
C104 C -0.11318(14) 0.5706(4) 0.41280(11)
H161 H -0.1048 0.4932 0.4174
C105 C -0.17442(14) 0.5912(5) 0.40763(12)
H162 H -0.1814 0.6684 0.4013
C106 C -0.21130(16) 0.5278(5) 0.37376(14)
H163 H -0.2065 0.4515 0.3793
H164 H -0.2022 0.5440 0.3503
H165 H -0.2487 0.5474 0.3701
C107 C -0.1861(2) 0.5708(10) 0.44666(17)
H166 H -0.2213 0.6001 0.4451
H167 H -0.1584 0.6054 0.4677
H168 H -0.1858 0.4940 0.4515
C108 C -0.05112(12) 0.6005(3) 0.37483(9)
C109 C -0.04114(11) 0.6582(3) 0.34079(8)
H169 H -0.0657 0.6289 0.3161
C110 C -0.05324(11) 0.7808(3) 0.34376(9)
H170 H -0.0909 0.7889 0.3434
H171 H -0.0300 0.8080 0.3688
C111 C -0.04454(12) 0.8493(3) 0.31164(10)
C112 C -0.06954(15) 0.8229(4) 0.27195(11)
H172 H -0.0905 0.7599 0.2660
C113 C -0.0647(2) 0.8847(5) 0.24184(14)
H173 H -0.0810 0.8629 0.2159
C114 C -0.0355(2) 0.9791(5) 0.25000(15)
C115 C -0.0083(2) 1.0090(4) 0.28860(18)
H174 H 0.0124 1.0724 0.2940
C116 C -0.01239(17) 0.9421(4) 0.31916(14)
H175 H 0.0068 0.9602 0.3450
C117 C 0.03069(10) 0.5801(2) 0.31752(7)
C118 C 0.09160(9) 0.5813(2) 0.32207(7)
H176 H 0.1114 0.5577 0.3489
C119 C 0.11344(10) 0.6946(2) 0.31612(8)
H177 H 0.1514 0.6873 0.3162
C120 C 0.08120(15) 0.7520(3) 0.27906(10)
H178 H 0.0453 0.7685 0.2803
H179 H 0.0782 0.7059 0.2569
H180 H 0.0995 0.8181 0.2764
C121 C 0.15437(11) 0.4706(3) 0.30081(8)
C122 C 0.16325(11) 0.3869(3) 0.27194(9)
H181 H 0.1329 0.3921 0.2473
C123 C 0.16395(15) 0.2727(4) 0.28855(12)
H182 H 0.1969 0.2654 0.3113
C124 C 0.1086(6) 0.2415(11) 0.3033(3)
H183 H 0.1048 0.1640 0.3040
H184 H 0.0761 0.2719 0.2850
H185 H 0.1137 0.2709 0.3290
C125 C 0.1662(2) 0.1861(4) 0.25827(18)
H186 H 0.1381 0.2030 0.2337
H187 H 0.2012 0.1921 0.2536
C126 C 0.1589(4) 0.0722(6) 0.2683(3)
H188 H 0.1942 0.0392 0.2798
H189 H 0.1393 0.0334 0.2449
H190 H 0.1387 0.0697 0.2867
C127 C 0.21971(14) 0.4157(5) 0.22863(12)
H191 H 0.2533 0.4390 0.2269
C128 C 0.20889(11) 0.7416(3) 0.45383(10)
H192 H 0.2100 0.7067 0.4781
H193 H 0.2342 0.8014 0.4592
H194 H 0.2188 0.6904 0.4370
C129 C -0.0075(4) 1.1395(5) 0.2231(2)
H195 H -0.0169 1.1787 0.2433
H196 H -0.0194 1.1799 0.1990
H197 H 0.0314 1.1297 0.2307
O23 O 0.19459(9) 0.8282(2) 0.35729(7)
O24 O 0.06167(7) 0.76636(15) 0.41802(5)
O25 O 0.09175(10) 0.6826(2) 0.53616(7)
O26 O -0.07874(11) 0.7351(2) 0.44529(9)
O27 O -0.01456(9) 0.54962(19) 0.39938(7)
O28 O -0.00123(8) 0.5217(2) 0.29286(7)
O29 O 0.19342(8) 0.5013(2) 0.32875(7)
O30 O 0.11263(8) 0.75767(19) 0.35038(6)
O31 O 0.18456(11) 0.3888(3) 0.19783(8)
O32 O -0.0331(2) 1.0389(3) 0.21773(12)
O33 O 0.05329(13) 0.4504(3) 0.55068(13)
H198 H 0.0730 0.4387 0.5732
N17 N 0.15385(9) 0.78167(18) 0.43448(6)
N18 N 0.06109(10) 0.6253(2) 0.47339(7)
H199 H 0.0331 0.6013 0.4551
N19 N -0.04214(10) 0.5835(2) 0.47772(8)
N20 N -0.10221(12) 0.6052(3) 0.37719(9)
H200 H -0.1285 0.6288 0.3575
N21 N 0.01483(8) 0.6455(2) 0.34145(6)
H201 H 0.0396 0.6826 0.3584
N22 N 0.10360(8) 0.50408(19) 0.29506(6)
H202 H 0.0776 0.4802 0.2753
N23 N 0.21356(10) 0.4143(3) 0.26418(8)
H203 H 0.2415 0.4308 0.2839
N24 N -0.03884(12) 0.4692(2) 0.47871(9)
H204 H -0.0348 0.4300 0.4599
C130 C 0.14881(12) 0.9966(3) 0.89731(9)
C131 C 0.14315(13) 0.9829(3) 0.93854(9)
H205 H 0.1063 1.0065 0.9375
C132 C 0.18463(15) 1.0537(3) 0.96876(10)
H206 H 0.2218 1.0309 0.9703
C133 C 0.1769(2) 1.1707(4) 0.95624(17)
H207 H 0.1861 1.1801 0.9325
H208 H 0.2001 1.2156 0.9765
H209 H 0.1393 1.1910 0.9517
C134 C 0.1764(2) 1.0383(5) 1.00929(11)
H210 H 0.1980 1.0908 1.0274
H211 H 0.1878 0.9664 1.0188
H212 H 0.1385 1.0479 1.0069
C135 C 0.10013(12) 0.8097(3) 0.93818(7)
C136 C 0.10182(11) 0.6861(3) 0.94168(8)
H213 H 0.1317 0.6654 0.9652
C137 C 0.11177(14) 0.6344(3) 0.90547(10)
H214 H 0.1435 0.6683 0.9012
H215 H 0.0804 0.6486 0.8826
C138 C 0.12127(18) 0.5101(4) 0.90973(15)
H216 H 0.0907 0.4781 0.9168
C139 C 0.1227(3) 0.4588(7) 0.8721(2)
H217 H 0.1528 0.4878 0.8649
H218 H 0.0890 0.4739 0.8517
H219 H 0.1270 0.3816 0.8757
C140 C 0.1722(3) 0.4849(5) 0.9414(2)
H220 H 0.1850 0.4142 0.9370
H221 H 0.1653 0.4859 0.9662
H222 H 0.1995 0.5381 0.9415
C141 C 0.04395(14) 0.6239(2) 0.97980(8)
C142 C -0.01292(15) 0.5900(2) 0.98040(8)
H223 H -0.0275 0.6511 0.9916
C143 C -0.01031(18) 0.4935(3) 1.00750(9)
H224 H 0.0212 0.5015 1.0308
H225 H -0.0429 0.4929 1.0157
C144 C -0.0062(2) 0.3861(3) 0.98765(13)
H226 H -0.0096 0.3265 1.0049
C145 C -0.05389(19) 0.3799(3) 0.94927(12)
H227 H -0.0527 0.3109 0.9365
H228 H -0.0882 0.3838 0.9551
C146 C -0.08661(15) 0.6478(4) 0.92197(11)
C147 C -0.12091(16) 0.6268(5) 0.87837(11)
H229 H -0.1063 0.5637 0.8683
C148 C -0.1828(2) 0.6077(7) 0.87392(16)
H230 H -0.1977 0.6680 0.8853
C149 C -0.2161(3) 0.5898(13) 0.8302(3)
H231 H -0.2255 0.5143 0.8259
H232 H -0.1945 0.6112 0.8139
H233 H -0.2489 0.6326 0.8237
C150 C -0.1931(4) 0.4994(11) 0.8906(3)
H234 H -0.2304 0.4963 0.8907
H235 H -0.1689 0.4917 0.9170
H236 H -0.1866 0.4415 0.8746
C151 C -0.06456(12) 0.7514(3) 0.85688(8)
C152 C -0.05710(11) 0.8666(3) 0.84424(7)
H237 H -0.0840 0.8800 0.8185
C153 C -0.06710(15) 0.9485(3) 0.87417(9)
H238 H -0.1049 0.9426 0.8737
H239 H -0.0441 0.9288 0.9003
C154 C -0.05571(15) 1.0640(3) 0.86638(8)
C155 C -0.08959(16) 1.1198(3) 0.83431(9)
H240 H -0.1196 1.0845 0.8172
C156 C -0.07943(18) 1.2277(3) 0.82732(10)
H241 H -0.1027 1.2643 0.8059
C157 C -0.03378(19) 1.2809(4) 0.85284(12)
C158 C 0.00089(18) 1.2259(4) 0.88418(12)
H242 H 0.0316 1.2603 0.9009
C159 C -0.01034(16) 1.1181(4) 0.89073(10)
H243 H 0.0132 1.0814 0.9120
C160 C 0.00706(10) 0.8967(2) 0.80745(7)
C161 C 0.06723(10) 0.9055(2) 0.81017(7)
H244 H 0.0869 0.8442 0.8258
C162 C 0.09458(13) 1.0112(3) 0.82946(8)
H245 H 0.1314 1.0158 0.8269
C163 C 0.06365(19) 1.1126(3) 0.81314(10)
H246 H 0.0313 1.1168 0.8211
H247 H 0.0534 1.1112 0.7850
H248 H 0.0864 1.1747 0.8229
C164 C 0.11822(12) 0.8590(3) 0.76561(9)
C165 C 0.12069(14) 0.8644(3) 0.72388(10)
H249 H 0.0951 0.9203 0.7094
C166 C 0.1030(2) 0.7524(6) 0.70364(15)
H250 H 0.0665 0.7375 0.7056
C167 C 0.1397(3) 0.6578(6) 0.7244(3)
H251 H 0.1186 0.5921 0.7204
H252 H 0.1541 0.6728 0.7520
H253 H 0.1694 0.6494 0.7137
C168 C 0.0957(6) 0.7630(14) 0.6590(3)
H254 H 0.1060 0.6970 0.6482
H255 H 0.1159 0.8241 0.6533
C169 C 0.19189(14) 0.9973(5) 0.72437(12)
H256 H 0.2288 1.0099 0.7280
C170 C 0.20186(15) 0.8162(4) 0.95892(13)
H257 H 0.2008 0.7474 0.9713
H258 H 0.2273 0.8635 0.9771
H259 H 0.2133 0.8057 0.9361
C171 C -0.0566(3) 1.4472(4) 0.81796(18)
H260 H -0.0538 1.4210 0.7934
H261 H -0.0464 1.5224 0.8210
H262 H -0.0936 1.4393 0.8183
O34 O 0.19008(11) 0.9987(4) 0.88937(9)
O35 O 0.05557(8) 0.85610(18) 0.92645(5)
O36 O 0.08030(11) 0.6332(2) 1.01127(6)
O37 O -0.08858(14) 0.7362(3) 0.93800(10)
O38 O -0.02497(8) 0.68897(18) 0.86884(5)
O39 O -0.02941(8) 0.90317(19) 0.77536(5)
O40 O 0.15525(10) 0.8210(3) 0.79306(8)
O41 O 0.09895(8) 1.0069(2) 0.87117(6)
O42 O 0.16171(12) 1.0763(3) 0.71840(13)
O43 O -0.02113(16) 1.3864(3) 0.84921(10)
O44 O 0.04269(15) 0.3742(3) 0.97919(12)
H263 H 0.0666 0.3528 0.9988
N25 N 0.14763(11) 0.8648(2) 0.94729(8)
N26 N 0.05055(10) 0.6465(2) 0.94531(7)
H264 H 0.0233 0.6373 0.9243
N27 N -0.05197(11) 0.5700(2) 0.94109(7)
N28 N -0.11445(12) 0.7248(4) 0.85686(10)
H265 H -0.1423 0.7639 0.8446
N29 N -0.00313(9) 0.8804(2) 0.84102(6)
H266 H 0.0242 0.8780 0.8622
N30 N 0.07266(9) 0.8982(2) 0.77108(6)
H267 H 0.0461 0.9195 0.7511
N31 N 0.17678(13) 0.8963(3) 0.72610(11)
H268 H 0.2009 0.8460 0.7287
N32 N -0.05128(12) 0.4677(3) 0.92299(8)
H269 H -0.0495 0.4589 0.8996
C172 C 0.0215(15) 0.786(5) 0.6416(7)
H270 H 0.0137 0.8503 0.6256
H271 H 0.0084 0.7951 0.6637
H272 H 0.0037 0.7248 0.6263
C1 C 0.32823(12) 0.7942(3) 0.79305(9)
C2 C 0.32752(13) 0.7346(3) 0.82933(9)
H1 H 0.3622 0.6949 0.8393
C3 C 0.28084(19) 0.6509(4) 0.82067(13)
H2 H 0.2456 0.6874 0.8089
C4 C 0.2812(3) 0.5948(6) 0.8593(2)
H3 H 0.3147 0.5550 0.8698
H4 H 0.2507 0.5459 0.8541
H5 H 0.2783 0.6487 0.8779
C5 C 0.2904(3) 0.5673(5) 0.7918(2)
H6 H 0.3253 0.5332 0.8031
H7 H 0.2897 0.6031 0.7678
H8 H 0.2621 0.5133 0.7862
C6 C 0.37485(14) 0.8482(3) 0.88521(9)
C7 C 0.37463(15) 0.9419(3) 0.91351(10)
H9 H 0.3430 0.9343 0.9231
C8 C 0.37099(15) 1.0500(3) 0.89196(11)
H10 H 0.3383 1.0498 0.8693
H11 H 0.4023 1.0564 0.8824
C9 C 0.36942(18) 1.1491(4) 0.91741(15)
H12 H 0.4019 1.1452 0.9407
C10 C 0.3206(2) 1.1534(7) 0.9316(2)
H13 H 0.3170 1.2252 0.9409
H14 H 0.3252 1.1023 0.9526
H15 H 0.2883 1.1353 0.9104
C11 C 0.3746(2) 1.2506(5) 0.8956(2)
H16 H 0.3443 1.2555 0.8718
H17 H 0.4082 1.2484 0.8892
H18 H 0.3747 1.3128 0.9118
C12 C 0.4268(2) 0.9099(3) 0.98279(11)
C13 C 0.4836(2) 0.9132(3) 1.01424(10)
H19 H 0.4966 0.8379 1.0180
C14 C 0.4814(3) 0.9526(4) 1.05417(11)
H20 H 0.4496 0.9213 1.0592
H21 H 0.5137 0.9272 1.0745
C15 C 0.4785(3) 1.0732(4) 1.05626(11)
H22 H 0.4826 1.0945 1.0834
C16 C 0.5263(2) 1.1231(3) 1.04401(12)
H23 H 0.5247 1.2017 1.0453
H24 H 0.5610 1.0994 1.0622
C17 C 0.56048(17) 0.9257(3) 0.98732(9)
C18 C 0.59658(18) 0.9960(4) 0.97064(9)
H25 H 0.5834 1.0712 0.9684
C19 C 0.65757(19) 0.9929(6) 0.99642(11)
H26 H 0.6731 0.9201 0.9968
C20 C 0.6884(3) 1.0773(12) 0.97924(18)
H27 H 0.6713 1.1471 0.9781
H28 H 0.6873 1.0556 0.9532
H29 H 0.7258 1.0817 0.9957
C21 C 0.6626(3) 1.0321(7) 1.03809(14)
H30 H 0.6978 1.0116 1.0557
H31 H 0.6343 0.9995 1.0466
H32 H 0.6590 1.1097 1.0381
C22 C 0.54202(14) 0.9598(3) 0.90393(8)
C23 C 0.53675(12) 0.9031(3) 0.86503(8)
H33 H 0.5635 0.9342 0.8537
C24 C 0.54744(17) 0.7809(3) 0.87126(10)
H34 H 0.5816 0.7704 0.8923
H35 H 0.5184 0.7490 0.8796
C25 C 0.55069(16) 0.7217(3) 0.83531(10)
C26 C 0.58736(17) 0.7505(3) 0.81525(11)
H36 H 0.6095 0.8111 0.8236
C27 C 0.59194(17) 0.6921(3) 0.78326(12)
H37 H 0.6171 0.7131 0.7708
C28 C 0.55909(18) 0.6027(3) 0.77006(11)
C29 C 0.52062(19) 0.5733(4) 0.78852(12)
H38 H 0.4971 0.5150 0.7793
C30 C 0.51806(18) 0.6331(4) 0.82115(12)
H39 H 0.4932 0.6118 0.8338
C31 C 0.47007(10) 0.9887(2) 0.80799(7)
C32 C 0.40965(10) 0.9943(2) 0.78345(7)
H40 H 0.3885 1.0126 0.8011
C33 C 0.38746(12) 0.8857(3) 0.76301(8)
H41 H 0.3521 0.8986 0.7429
C34 C 0.42569(15) 0.8293(3) 0.74430(9)
H42 H 0.4594 0.8118 0.7642
H43 H 0.4330 0.8766 0.7252
H44 H 0.4088 0.7638 0.7316
C35 C 0.35589(11) 1.1376(3) 0.74336(10)
C36 C 0.35527(12) 1.2378(3) 0.71833(11)
H45 H 0.3846 1.2316 0.7063
C37 C 0.36531(15) 1.3417(3) 0.74496(14)
H46 H 0.3338 1.3500 0.7546
C38 C 0.3674(2) 1.4414(4) 0.7202(2)
H47 H 0.3680 1.5059 0.7355
H48 H 0.3357 1.4425 0.6973
H49 H 0.3999 1.4387 0.7124
C39 C 0.41578(19) 1.3321(4) 0.78025(16)
H50 H 0.4185 1.2577 0.7895
H51 H 0.4475 1.3464 0.7718
C40 C 0.4183(8) 1.400(4) 0.8114(5)
H52 H 0.4535 1.4339 0.8203
H53 H 0.4127 1.3577 0.8325
H54 H 0.3903 1.4540 0.8033
C41 C 0.29561(13) 1.2609(3) 0.64927(13)
H55 H 0.2597 1.2665 0.6328
C42 C 0.27304(17) 0.8695(5) 0.85491(18)
H56 H 0.2779 0.9241 0.8749
H57 H 0.2471 0.8164 0.8576
H58 H 0.2597 0.9027 0.8294
C43 C 0.5404(2) 0.4471(4) 0.72822(13)
H59 H 0.5544 0.3974 0.7497
H60 H 0.5482 0.4199 0.7054
H61 H 0.5015 0.4542 0.7226
O1 O 0.28878(10) 0.8228(3) 0.76725(9)
O2 O 0.41804(9) 0.80857(19) 0.88539(6)
O3 O 0.38742(17) 0.8787(3) 0.99146(11)
O4 O 0.56411(13) 0.8251(3) 0.98810(9)
O5 O 0.50301(10) 1.0072(2) 0.90951(6)
O6 O 0.50461(8) 1.04280(19) 0.79920(5)
O7 O 0.31551(9) 1.1160(2) 0.75339(9)
O8 O 0.37946(8) 0.8133(2) 0.79293(6)
O9 O 0.33172(10) 1.2699(3) 0.63402(9)
O10 O 0.56564(14) 0.5501(3) 0.73857(9)
O11 O 0.42795(18) 1.1105(3) 1.03185(10)
H62 H 0.4306 1.1266 1.0103
N1 N 0.32594(11) 0.8160(3) 0.85921(9)
N2 N 0.42469(13) 0.9384(3) 0.94651(8)
H63 H 0.4548 0.9559 0.9424
N3 N 0.52381(15) 0.9732(2) 1.00201(7)
N4 N 0.59140(13) 0.9539(4) 0.93187(8)
H64 H 0.6191 0.9258 0.9268
N5 N 0.48201(9) 0.9206(2) 0.83810(6)
H65 H 0.4556 0.8843 0.8420
N6 N 0.40191(9) 1.0810(2) 0.75464(7)
H66 H 0.4276 1.0957 0.7448
N7 N 0.30275(10) 1.2438(3) 0.68740(9)
H67 H 0.2738 1.2356 0.6943
N8 N 0.52273(17) 1.0898(3) 1.00421(8)
H68 H 0.5204 1.1333 0.9850
H273? H 0.1296 0.2624 0.2945
C173? C 0.2084(4) 0.2582(6) 0.3247(2)
H274? H 0.2426 0.2570 0.3191
H275? H 0.2037 0.1909 0.3368
H276? H 0.2085 0.3172 0.3423
loop_
_geom_bond_atom_site_label_1
_geom_bond_atom_site_label_2
_geom_bond_site_symmetry_1
_geom_bond_site_symmetry_2
C1 C2 1_555 1_555
C2 H1 1_555 1_555
C3 C2 1_555 1_555
H2 C3 1_555 1_555
C4 C3 1_555 1_555
H3 C4 1_555 1_555
H4 C4 1_555 1_555
H5 C4 1_555 1_555
C5 C3 1_555 1_555
H6 C5 1_555 1_555
H7 C5 1_555 1_555
H8 C5 1_555 1_555
C6 C7 1_555 1_555
C7 H9 1_555 1_555
C8 C7 1_555 1_555
H10 C8 1_555 1_555
H11 C8 1_555 1_555
C9 C8 1_555 1_555
H12 C9 1_555 1_555
C10 C9 1_555 1_555
H13 C10 1_555 1_555
H14 C10 1_555 1_555
H15 C10 1_555 1_555
C11 C9 1_555 1_555
H16 C11 1_555 1_555
H17 C11 1_555 1_555
H18 C11 1_555 1_555
C12 C13 1_555 1_555
C13 H19 1_555 1_555
C14 C13 1_555 1_555
H20 C14 1_555 1_555
H21 C14 1_555 1_555
C15 C14 1_555 1_555
H22 C15 1_555 1_555
C16 C15 1_555 1_555
H23 C16 1_555 1_555
H24 C16 1_555 1_555
C17 C18 1_555 1_555
C18 H25 1_555 1_555
C19 C18 1_555 1_555
H26 C19 1_555 1_555
C20 C19 1_555 1_555
H27 C20 1_555 1_555
H28 C20 1_555 1_555
H29 C20 1_555 1_555
C21 C19 1_555 1_555
H30 C21 1_555 1_555
H31 C21 1_555 1_555
H32 C21 1_555 1_555
C22 C23 1_555 1_555
C23 H33 1_555 1_555
C24 C23 1_555 1_555
H34 C24 1_555 1_555
H35 C24 1_555 1_555
C25 C24 1_555 1_555
C26 C25 1_555 1_555
H36 C26 1_555 1_555
C27 C26 1_555 1_555
H37 C27 1_555 1_555
C28 C27 1_555 1_555
C29 C28 1_555 1_555
H38 C29 1_555 1_555
C30 C25 1_555 1_555
H39 C30 1_555 1_555
C31 C32 1_555 1_555
C32 H40 1_555 1_555
C33 C32 1_555 1_555
H41 C33 1_555 1_555
C34 C33 1_555 1_555
H42 C34 1_555 1_555
H43 C34 1_555 1_555
H44 C34 1_555 1_555
C35 C36 1_555 1_555
C36 H45 1_555 1_555
C37 C36 1_555 1_555
H46 C37 1_555 1_555
C38 C37 1_555 1_555
H47 C38 1_555 1_555
H48 C38 1_555 1_555
H49 C38 1_555 1_555
C39 C37 1_555 1_555
H50 C39 1_555 1_555
H51 C39 1_555 1_555
C40 C39 1_555 1_555
H52 C40 1_555 1_555
H53 C40 1_555 1_555
H54 C40 1_555 1_555
C41 H55 1_555 1_555
C42 H56 1_555 1_555
H57 C42 1_555 1_555
H58 C42 1_555 1_555
C43 H59 1_555 1_555
H60 C43 1_555 1_555
H61 C43 1_555 1_555
O1 C1 1_555 1_555
O2 C6 1_555 1_555
O3 C12 1_555 1_555
O4 C17 1_555 1_555
O5 C22 1_555 1_555
O6 C31 1_555 1_555
O7 C35 1_555 1_555
O8 C1 1_555 1_555
O9 C41 1_555 1_555
O10 C28 1_555 1_555
O11 C15 1_555 1_555
H62 O11 1_555 1_555
N1 C2 1_555 1_555
N2 C7 1_555 1_555
H63 N2 1_555 1_555
N3 C13 1_555 1_555
N4 C18 1_555 1_555
H64 N4 1_555 1_555
N5 C23 1_555 1_555
H65 N5 1_555 1_555
N6 C32 1_555 1_555
H66 N6 1_555 1_555
N7 C36 1_555 1_555
H67 N7 1_555 1_555
N8 C16 1_555 1_555
H68 N8 1_555 1_555
C44 C45 1_555 1_555
C45 H69 1_555 1_555
C46 C45 1_555 1_555
H70 C46 1_555 1_555
C47 C46 1_555 1_555
H71 C47 1_555 1_555
H72 C47 1_555 1_555
H73 C47 1_555 1_555
C48 C46 1_555 1_555
H74 C48 1_555 1_555
H75 C48 1_555 1_555
H76 C48 1_555 1_555
C49 C50 1_555 1_555
C50 H77 1_555 1_555
C51 C50 1_555 1_555
H78 C51 1_555 1_555
H79 C51 1_555 1_555
C52 C51 1_555 1_555
H80 C52 1_555 1_555
C53 C52 1_555 1_555
H81 C53 1_555 1_555
H82 C53 1_555 1_555
H83 C53 1_555 1_555
C54 C52 1_555 1_555
H84 C54 1_555 1_555
H85 C54 1_555 1_555
H86 C54 1_555 1_555
C55 C56 1_555 1_555
C56 H87 1_555 1_555
C57 C56 1_555 1_555
H88 C57 1_555 1_555
H89 C57 1_555 1_555
C58 C57 1_555 1_555
H90 C58 1_555 1_555
C59 C58 1_555 1_555
H91 C59 1_555 1_555
H92 C59 1_555 1_555
C60 C61 1_555 1_555
C61 H93 1_555 1_555
C62 C61 1_555 1_555
H94 C62 1_555 1_555
C63 C62 1_555 1_555
H95 C63 1_555 1_555
H96 C63 1_555 1_555
H97 C63 1_555 1_555
C64 C62 1_555 1_555
H98 C64 1_555 1_555
H99 C64 1_555 1_555
H100 C64 1_555 1_555
C65 C66 1_555 1_555
C66 H101 1_555 1_555
C67 C66 1_555 1_555
H102 C67 1_555 1_555
H103 C67 1_555 1_555
C68 C67 1_555 1_555
C69 C68 1_555 1_555
H104 C69 1_555 1_555
C70 C69 1_555 1_555
H105 C70 1_555 1_555
C71 C70 1_555 1_555
C72 C71 1_555 1_555
H106 C72 1_555 1_555
C73 C68 1_555 1_555
H107 C73 1_555 1_555
C74 C75 1_555 1_555
C75 H108 1_555 1_555
C76 C75 1_555 1_555
H109 C76 1_555 1_555
C77 C76 1_555 1_555
H110 C77 1_555 1_555
H111 C77 1_555 1_555
H112 C77 1_555 1_555
C78 C79 1_555 1_555
C79 H113 1_555 1_555
C80 C79 1_555 1_555
H114 C80 1_555 1_555
C81 C80 1_555 1_555
H115 C81 1_555 1_555
H116 C81 1_555 1_555
H117 C81 1_555 1_555
C82 C80 1_555 1_555
H118 C82 1_555 1_555
H119 C82 1_555 1_555
C83 C82 1_555 1_555
H120 C83 1_555 1_555
H121 C83 1_555 1_555
H122 C83 1_555 1_555
C84 H123 1_555 1_555
C85 H124 1_555 1_555
H125 C85 1_555 1_555
H126 C85 1_555 1_555
C86 H127 1_555 1_555
H128 C86 1_555 1_555
H129 C86 1_555 1_555
O12 C44 1_555 1_555
O13 C49 1_555 1_555
O14 C55 1_555 1_555
O15 C60 1_555 1_555
O16 C65 1_555 1_555
O17 C74 1_555 1_555
O18 C78 1_555 1_555
O19 C44 1_555 1_555
O20 C84 1_555 1_555
O21 C71 1_555 1_555
O22 C58 1_555 1_555
H130 O22 1_555 1_555
N9 C45 1_555 1_555
N10 C50 1_555 1_555
H131 N10 1_555 1_555
N11 C56 1_555 1_555
N12 C61 1_555 1_555
H132 N12 1_555 1_555
N13 C66 1_555 1_555
H133 N13 1_555 1_555
N14 C75 1_555 1_555
H134 N14 1_555 1_555
N15 C79 1_555 1_555
H135 N15 1_555 1_555
N16 C59 1_555 1_555
H136 N16 1_555 1_555
C87 C88 1_555 1_555
C88 H137 1_555 1_555
C89 C88 1_555 1_555
H138 C89 1_555 1_555
C90 C89 1_555 1_555
H139 C90 1_555 1_555
H140 C90 1_555 1_555
H141 C90 1_555 1_555
C91 C89 1_555 1_555
H142 C91 1_555 1_555
H143 C91 1_555 1_555
H144 C91 1_555 1_555
C92 C93 1_555 1_555
C93 H145 1_555 1_555
C94 C93 1_555 1_555
H146 C94 1_555 1_555
H147 C94 1_555 1_555
C95 C94 1_555 1_555
H148 C95 1_555 1_555
C96 C95 1_555 1_555
H149 C96 1_555 1_555
H150 C96 1_555 1_555
H151 C96 1_555 1_555
C97 C95 1_555 1_555
H152 C97 1_555 1_555
H153 C97 1_555 1_555
H154 C97 1_555 1_555
C98 C99 1_555 1_555
C99 H155 1_555 1_555
C100 C99 1_555 1_555
H156 C100 1_555 1_555
H157 C100 1_555 1_555
C101 C100 1_555 1_555
H158 C101 1_555 1_555
C102 C101 1_555 1_555
H159 C102 1_555 1_555
H160 C102 1_555 1_555
C103 C104 1_555 1_555
C104 H161 1_555 1_555
C105 C104 1_555 1_555
H162 C105 1_555 1_555
C106 C105 1_555 1_555
H163 C106 1_555 1_555
H164 C106 1_555 1_555
H165 C106 1_555 1_555
C107 C105 1_555 1_555
H166 C107 1_555 1_555
H167 C107 1_555 1_555
H168 C107 1_555 1_555
C108 C109 1_555 1_555
C109 H169 1_555 1_555
C110 C109 1_555 1_555
H170 C110 1_555 1_555
H171 C110 1_555 1_555
C111 C110 1_555 1_555
C112 C111 1_555 1_555
H172 C112 1_555 1_555
C113 C112 1_555 1_555
H173 C113 1_555 1_555
C114 C113 1_555 1_555
C115 C114 1_555 1_555
H174 C115 1_555 1_555
C116 C111 1_555 1_555
H175 C116 1_555 1_555
C117 C118 1_555 1_555
C118 H176 1_555 1_555
C119 C118 1_555 1_555
H177 C119 1_555 1_555
C120 C119 1_555 1_555
H178 C120 1_555 1_555
H179 C120 1_555 1_555
H180 C120 1_555 1_555
C121 C122 1_555 1_555
C122 H181 1_555 1_555
C123 C122 1_555 1_555
H182 C123 1_555 1_555
C124 C123 1_555 1_555
H183 C124 1_555 1_555
H184 C124 1_555 1_555
H185 C124 1_555 1_555
C125 C123 1_555 1_555
H186 C125 1_555 1_555
H187 C125 1_555 1_555
C126 C125 1_555 1_555
H188 C126 1_555 1_555
H189 C126 1_555 1_555
H190 C126 1_555 1_555
C127 H191 1_555 1_555
C128 H192 1_555 1_555
H193 C128 1_555 1_555
H194 C128 1_555 1_555
C129 H195 1_555 1_555
H196 C129 1_555 1_555
H197 C129 1_555 1_555
O23 C87 1_555 1_555
O24 C92 1_555 1_555
O25 C98 1_555 1_555
O26 C103 1_555 1_555
O27 C108 1_555 1_555
O28 C117 1_555 1_555
O29 C121 1_555 1_555
O30 C87 1_555 1_555
O31 C127 1_555 1_555
O32 C114 1_555 1_555
O33 C101 1_555 1_555
H198 O33 1_555 1_555
N17 C88 1_555 1_555
N18 C93 1_555 1_555
H199 N18 1_555 1_555
N19 C99 1_555 1_555
N20 C104 1_555 1_555
H200 N20 1_555 1_555
N21 C109 1_555 1_555
H201 N21 1_555 1_555
N22 C118 1_555 1_555
H202 N22 1_555 1_555
N23 C122 1_555 1_555
H203 N23 1_555 1_555
N24 C102 1_555 1_555
H204 N24 1_555 1_555
C130 C131 1_555 1_555
C131 H205 1_555 1_555
C132 C131 1_555 1_555
H206 C132 1_555 1_555
C133 C132 1_555 1_555
H207 C133 1_555 1_555
H208 C133 1_555 1_555
H209 C133 1_555 1_555
C134 C132 1_555 1_555
H210 C134 1_555 1_555
H211 C134 1_555 1_555
H212 C134 1_555 1_555
C135 C136 1_555 1_555
C136 H213 1_555 1_555
C137 C136 1_555 1_555
H214 C137 1_555 1_555
H215 C137 1_555 1_555
C138 C137 1_555 1_555
H216 C138 1_555 1_555
C139 C138 1_555 1_555
H217 C139 1_555 1_555
H218 C139 1_555 1_555
H219 C139 1_555 1_555
C140 C138 1_555 1_555
H220 C140 1_555 1_555
H221 C140 1_555 1_555
H222 C140 1_555 1_555
C141 C142 1_555 1_555
C142 H223 1_555 1_555
C143 C142 1_555 1_555
H224 C143 1_555 1_555
H225 C143 1_555 1_555
C144 C143 1_555 1_555
H226 C144 1_555 1_555
C145 C144 1_555 1_555
H227 C145 1_555 1_555
H228 C145 1_555 1_555
C146 C147 1_555 1_555
C147 H229 1_555 1_555
C148 C147 1_555 1_555
H230 C148 1_555 1_555
C149 C148 1_555 1_555
H231 C149 1_555 1_555
H232 C149 1_555 1_555
H233 C149 1_555 1_555
C150 C148 1_555 1_555
H234 C150 1_555 1_555
H235 C150 1_555 1_555
H236 C150 1_555 1_555
C151 C152 1_555 1_555
C152 H237 1_555 1_555
C153 C152 1_555 1_555
H238 C153 1_555 1_555
H239 C153 1_555 1_555
C154 C153 1_555 1_555
C155 C154 1_555 1_555
H240 C155 1_555 1_555
C156 C155 1_555 1_555
H241 C156 1_555 1_555
C157 C156 1_555 1_555
C158 C157 1_555 1_555
H242 C158 1_555 1_555
C159 C154 1_555 1_555
H243 C159 1_555 1_555
C160 C161 1_555 1_555
C161 H244 1_555 1_555
C162 C161 1_555 1_555
H245 C162 1_555 1_555
C163 C162 1_555 1_555
H246 C163 1_555 1_555
H247 C163 1_555 1_555
H248 C163 1_555 1_555
C164 C165 1_555 1_555
C165 H249 1_555 1_555
C166 C165 1_555 1_555
H250 C166 1_555 1_555
C167 C166 1_555 1_555
H251 C167 1_555 1_555
H252 C167 1_555 1_555
H253 C167 1_555 1_555
C168 C166 1_555 1_555
H254 C168 1_555 1_555
H255 C168 1_555 1_555
C169 H256 1_555 1_555
C170 H257 1_555 1_555
H258 C170 1_555 1_555
H259 C170 1_555 1_555
C171 H260 1_555 1_555
H261 C171 1_555 1_555
H262 C171 1_555 1_555
O34 C130 1_555 1_555
O35 C135 1_555 1_555
O36 C141 1_555 1_555
O37 C146 1_555 1_555
O38 C151 1_555 1_555
O39 C160 1_555 1_555
O40 C164 1_555 1_555
O41 C130 1_555 1_555
O42 C169 1_555 1_555
O43 C157 1_555 1_555
O44 C144 1_555 1_555
H263 O44 1_555 1_555
N25 C131 1_555 1_555
N26 C136 1_555 1_555
H264 N26 1_555 1_555
N27 C142 1_555 1_555
N28 C147 1_555 1_555
H265 N28 1_555 1_555
N29 C152 1_555 1_555
H266 N29 1_555 1_555
N30 C161 1_555 1_555
H267 N30 1_555 1_555
N31 C165 1_555 1_555
H268 N31 1_555 1_555
N32 C145 1_555 1_555
H269 N32 1_555 1_555
C172 C168 1_555 1_555
H270 C172 1_555 1_555
H271 C172 1_555 1_555
H272 C172 1_555 1_555
C6 N1 1_555 1_555
C12 N2 1_555 1_555
C17 N3 1_555 1_555
C22 N4 1_555 1_555
C29 C30 1_555 1_555
C31 N5 1_555 1_555
C33 O8 1_555 1_555
C35 N6 1_555 1_555
C41 N7 1_555 1_555
C42 N1 1_555 1_555
C43 O10 1_555 1_555
N3 N8 1_555 1_555
C49 N9 1_555 1_555
C55 N10 1_555 1_555
C60 N11 1_555 1_555
C65 N12 1_555 1_555
C72 C73 1_555 1_555
C74 N13 1_555 1_555
C76 O19 1_555 1_555
C78 N14 1_555 1_555
C84 N15 1_555 1_555
C85 N9 1_555 1_555
C86 O21 1_555 1_555
N11 N16 1_555 1_555
C92 N17 1_555 1_555
C98 N18 1_555 1_555
C103 N19 1_555 1_555
C108 N20 1_555 1_555
C115 C116 1_555 1_555
C117 N21 1_555 1_555
C119 O30 1_555 1_555
C121 N22 1_555 1_555
C127 N23 1_555 1_555
C128 N17 1_555 1_555
C129 O32 1_555 1_555
N19 N24 1_555 1_555
C135 N25 1_555 1_555
C141 N26 1_555 1_555
C146 N27 1_555 1_555
C151 N28 1_555 1_555
C158 C159 1_555 1_555
C160 N29 1_555 1_555
C162 O41 1_555 1_555
C164 N30 1_555 1_555
C169 N31 1_555 1_555
C170 N25 1_555 1_555
C171 O43 1_555 1_555
N27 N32 1_555 1_555

#END
