
#######################################################################
#
#                 Cambridge Crystallographic Data Centre
#                                CCDC 
#
#######################################################################
#
# If this CIF has been generated from an entry in the Cambridge 
# Structural Database, then it will include bibliographic, chemical, 
# crystal, experimental, refinement or atomic coordinate data resulting 
# from the CCDC's data processing and validation procedures.
#
#######################################################################

data_BUFKIY
_chemical_formula_moiety         'C43 H68 N8 O10'
_chemical_name_systematic        
N-(20-sec-butyl-7-isobutyl-10-isopropyl-17-(4-methoxybenzyl)-9,13-dimethyl-5,8,11,15,18,21-hexaoxoicosahydro-13H-pyridazino[6,1-i][1,4,7,10,13,16]oxapentaazacyclononadecin-14-yl)-N^2^-formylvalinamide
_symmetry_cell_setting           orthorhombic
_symmetry_space_group_name_H-M   'P 21 21 2'
_symmetry_Int_Tables_number      18
_space_group_name_Hall           'P 2 2ab'
loop_
_symmetry_equiv_pos_site_id
_symmetry_equiv_pos_as_xyz
1 x,y,z
2 -x,-y,z
3 1/2-x,1/2+y,-z
4 1/2+x,1/2-y,-z
_cell_length_a                   19.4485(4)
_cell_length_b                   24.4658(6)
_cell_length_c                   11.4823(4)
_cell_angle_alpha                90
_cell_angle_beta                 90
_cell_angle_gamma                90
_cell_volume                     5463.54
_exptl_crystal_colour            colorless
_exptl_crystal_description       block
_cell_formula_units_Z            4
loop_
_atom_site_label
_atom_site_type_symbol
_atom_site_fract_x
_atom_site_fract_y
_atom_site_fract_z
N1 N 0.32566(16) 0.42936(12) 0.5944(3)
N2 N 0.36939(17) 0.35342(13) 0.3318(3)
H1 H 0.3450 0.3244 0.3232
N3 N 0.40652(15) 0.25951(13) 0.2179(3)
N4 N 0.28532(15) 0.18001(12) 0.3589(3)
H2 H 0.2771 0.1493 0.3927
N5 N 0.19631(14) 0.27662(11) 0.5466(3)
H3 H 0.2243 0.3029 0.5621
N6 N 0.03910(14) 0.35446(11) 0.5283(3)
H4 H 0.0106 0.3287 0.5449
N7 N -0.08850(15) 0.44932(12) 0.4579(4)
H5 H -0.0631 0.4780 0.4551
N8 N 0.3691(2) 0.26925(16) 0.1152(3)
H6 H 0.3250 0.2711 0.1126
O1 O 0.1981(2) 0.45754(19) 0.7585(7)
O2 O 0.33143(15) 0.33944(11) 0.5523(3)
O3 O 0.46921(19) 0.39347(15) 0.2890(5)
O4 O 0.42341(14) 0.20770(12) 0.3772(3)
O5 O 0.26194(13) 0.26948(10) 0.3455(2)
O6 O 0.08515(14) 0.25272(12) 0.5420(5)
O7 O 0.05303(13) 0.43846(10) 0.4580(4)
O8 O 0.20077(13) 0.37642(12) 0.6857(3)
O9 O -0.19672(15) 0.41920(12) 0.4957(3)
O10 O 0.1568(3) 0.1854(4) 1.0565(5)
C1 C 0.2303(2) 0.41942(16) 0.7223(4)
C2 C 0.3082(2) 0.41612(18) 0.7158(4)
H7 H 0.3209 0.3778 0.7288
C3 C 0.3453(3) 0.4499(3) 0.8071(5)
H8 H 0.3314 0.4882 0.7980
C4 C 0.3250(4) 0.4312(4) 0.9276(5)
H9 H 0.3105 0.3938 0.9246
H10 H 0.2880 0.4535 0.9559
H11 H 0.3638 0.4345 0.9790
C5 C 0.4214(3) 0.4463(4) 0.7897(7)
H12 H 0.4445 0.4634 0.8539
H13 H 0.4338 0.4645 0.7186
H14 H 0.4349 0.4086 0.7853
C6 C 0.33351(18) 0.38743(15) 0.5181(4)
C7 C 0.3378(2) 0.39925(15) 0.3902(4)
H15 H 0.3648 0.4325 0.3769
C8 C 0.2631(2) 0.40727(18) 0.3451(4)
H16 H 0.2398 0.3722 0.3468
H17 H 0.2390 0.4314 0.3983
C9 C 0.2573(3) 0.4306(2) 0.2228(5)
H18 H 0.2881 0.4099 0.1718
C10 C 0.1831(4) 0.4223(4) 0.1800(8)
H19 H 0.1727 0.3839 0.1787
H20 H 0.1785 0.4370 0.1029
H21 H 0.1519 0.4406 0.2316
C11 C 0.2780(5) 0.4899(2) 0.2179(7)
H22 H 0.2524 0.5102 0.2747
H23 H 0.2687 0.5041 0.1416
H24 H 0.3263 0.4931 0.2342
C12 C 0.4333(2) 0.35252(18) 0.2902(5)
C13 C 0.46105(19) 0.29872(17) 0.2471(4)
H25 H 0.4882 0.2827 0.3104
C14 C 0.5089(3) 0.3058(2) 0.1425(6)
H26 H 0.5409 0.3354 0.1579
H27 H 0.5353 0.2726 0.1313
C15 C 0.4693(4) 0.3181(3) 0.0344(6)
H28 H 0.5004 0.3187 -0.0316
H29 H 0.4485 0.3540 0.0412
C16 C 0.4136(4) 0.2758(3) 0.0135(5)
H30 H 0.3859 0.2869 -0.0528
H31 H 0.4348 0.2410 -0.0051
C17 C 0.39031(18) 0.21666(15) 0.2860(4)
C18 C 0.3287(2) 0.18163(15) 0.2561(4)
H32 H 0.3033 0.1987 0.1921
C19 C 0.3496(3) 0.12263(17) 0.2201(4)
H33 H 0.3697 0.1053 0.2891
C20 C 0.2870(4) 0.0904(2) 0.1888(7)
H34 H 0.2686 0.1037 0.1166
H35 H 0.2532 0.0942 0.2490
H36 H 0.2991 0.0525 0.1806
C21 C 0.4044(4) 0.1221(3) 0.1262(6)
H37 H 0.4377 0.1507 0.1419
H38 H 0.3833 0.1297 0.0514
C22 C 0.4416(6) 0.0664(4) 0.1206(11)
H39 H 0.4436 0.0507 0.1971
H40 H 0.4875 0.0715 0.0916
H41 H 0.4170 0.0422 0.0695
C23 C 0.25818(17) 0.22569(14) 0.4010(4)
C24 C 0.22542(17) 0.22351(14) 0.5217(4)
H42 H 0.1887 0.1960 0.5219
C25 C 0.2789(2) 0.20870(16) 0.6143(4)
H43 H 0.3009 0.1746 0.5925
H44 H 0.3141 0.2368 0.6159
C26 C 0.2493(2) 0.2028(2) 0.7335(5)
C27 C 0.2176(3) 0.1549(2) 0.7705(6)
H45 H 0.2159 0.1251 0.7203
C28 C 0.1885(4) 0.1505(4) 0.8808(9)
H46 H 0.1683 0.1180 0.9052
C29 C 0.1904(4) 0.1958(4) 0.9533(6)
C30 C 0.2211(4) 0.2419(4) 0.9224(7)
H47 H 0.2226 0.2715 0.9732
C31 C 0.2512(3) 0.2451(3) 0.8124(6)
H48 H 0.2736 0.2773 0.7915
C32 C 0.12989(17) 0.28767(14) 0.5473(4)
C33 C 0.11105(16) 0.34806(14) 0.5589(4)
H49 H 0.1382 0.3684 0.5015
C34 C 0.12540(18) 0.37277(18) 0.6773(5)
H50 H 0.1061 0.4097 0.6799
C35 C 0.0982(3) 0.3408(3) 0.7783(5)
H51 H 0.1243 0.3077 0.7868
H52 H 0.0508 0.3319 0.7649
H53 H 0.1021 0.3622 0.8480
C36 C 0.01637(17) 0.39887(13) 0.4754(4)
C37 C -0.0574(2) 0.39689(15) 0.4317(4)
H54 H -0.0821 0.3685 0.4751
C38 C -0.0611(4) 0.3832(4) 0.3024(7)
H55 H -0.1102 0.3817 0.2836
C39 C -0.0349(8) 0.4211(8) 0.2332(11)
H56 H -0.0213 0.4521 0.2788
H57 H -0.0689 0.4320 0.1772
H58 H 0.0045 0.4065 0.1934
C40 C -0.0341(7) 0.3248(5) 0.2842(11)
H59 H -0.0540 0.3097 0.2147
H60 H -0.0466 0.3026 0.3498
H61 H 0.0150 0.3255 0.2767
C41 C -0.1542(2) 0.45525(15) 0.4861(4)
H62 H -0.1693 0.4907 0.4999
C42 C 0.3256(3) 0.48732(16) 0.5587(5)
H63 H 0.3667 0.5047 0.5864
H64 H 0.2861 0.5053 0.5913
H65 H 0.3238 0.4896 0.4753
C43 C 0.1445(6) 0.2330(6) 1.1308(9)
H66 H 0.1870 0.2442 1.1661
H67 H 0.1120 0.2236 1.1905
H68 H 0.1265 0.2624 1.0846
loop_
_geom_bond_atom_site_label_1
_geom_bond_atom_site_label_2
_geom_bond_site_symmetry_1
_geom_bond_site_symmetry_2
N1 C2 1_555 1_555
N2 H1 1_555 1_555
N3 N8 1_555 1_555
N4 H2 1_555 1_555
N5 H3 1_555 1_555
N6 H4 1_555 1_555
N7 H5 1_555 1_555
N8 H6 1_555 1_555
O1 C1 1_555 1_555
O2 C6 1_555 1_555
O3 C12 1_555 1_555
O4 C17 1_555 1_555
O5 C23 1_555 1_555
O6 C32 1_555 1_555
O7 C36 1_555 1_555
O8 C1 1_555 1_555
O9 C41 1_555 1_555
O10 C29 1_555 1_555
C1 C2 1_555 1_555
C2 H7 1_555 1_555
C3 C2 1_555 1_555
H8 C3 1_555 1_555
C4 C3 1_555 1_555
H9 C4 1_555 1_555
H10 C4 1_555 1_555
H11 C4 1_555 1_555
C5 C3 1_555 1_555
H12 C5 1_555 1_555
H13 C5 1_555 1_555
H14 C5 1_555 1_555
C6 N1 1_555 1_555
C7 N2 1_555 1_555
H15 C7 1_555 1_555
C8 C7 1_555 1_555
H16 C8 1_555 1_555
H17 C8 1_555 1_555
C9 C8 1_555 1_555
H18 C9 1_555 1_555
C10 C9 1_555 1_555
H19 C10 1_555 1_555
H20 C10 1_555 1_555
H21 C10 1_555 1_555
C11 C9 1_555 1_555
H22 C11 1_555 1_555
H23 C11 1_555 1_555
H24 C11 1_555 1_555
C12 N2 1_555 1_555
C13 N3 1_555 1_555
H25 C13 1_555 1_555
C14 C13 1_555 1_555
H26 C14 1_555 1_555
H27 C14 1_555 1_555
C15 C14 1_555 1_555
H28 C15 1_555 1_555
H29 C15 1_555 1_555
C16 N8 1_555 1_555
H30 C16 1_555 1_555
H31 C16 1_555 1_555
C17 N3 1_555 1_555
C18 N4 1_555 1_555
H32 C18 1_555 1_555
C19 C18 1_555 1_555
H33 C19 1_555 1_555
C20 C19 1_555 1_555
H34 C20 1_555 1_555
H35 C20 1_555 1_555
H36 C20 1_555 1_555
C21 C19 1_555 1_555
H37 C21 1_555 1_555
H38 C21 1_555 1_555
C22 C21 1_555 1_555
H39 C22 1_555 1_555
H40 C22 1_555 1_555
H41 C22 1_555 1_555
C23 N4 1_555 1_555
C24 N5 1_555 1_555
H42 C24 1_555 1_555
C25 C24 1_555 1_555
H43 C25 1_555 1_555
H44 C25 1_555 1_555
C26 C25 1_555 1_555
C27 C26 1_555 1_555
H45 C27 1_555 1_555
C28 C27 1_555 1_555
H46 C28 1_555 1_555
C29 C28 1_555 1_555
C30 C29 1_555 1_555
H47 C30 1_555 1_555
C31 C26 1_555 1_555
H48 C31 1_555 1_555
C32 N5 1_555 1_555
C33 N6 1_555 1_555
H49 C33 1_555 1_555
C34 O8 1_555 1_555
H50 C34 1_555 1_555
C35 C34 1_555 1_555
H51 C35 1_555 1_555
H52 C35 1_555 1_555
H53 C35 1_555 1_555
C36 N6 1_555 1_555
C37 N7 1_555 1_555
H54 C37 1_555 1_555
C38 C37 1_555 1_555
H55 C38 1_555 1_555
C39 C38 1_555 1_555
H56 C39 1_555 1_555
H57 C39 1_555 1_555
H58 C39 1_555 1_555
C40 C38 1_555 1_555
H59 C40 1_555 1_555
H60 C40 1_555 1_555
H61 C40 1_555 1_555
C41 N7 1_555 1_555
H62 C41 1_555 1_555
C42 N1 1_555 1_555
H63 C42 1_555 1_555
H64 C42 1_555 1_555
H65 C42 1_555 1_555
C43 O10 1_555 1_555
H66 C43 1_555 1_555
H67 C43 1_555 1_555
H68 C43 1_555 1_555
C6 C7 1_555 1_555
C12 C13 1_555 1_555
C15 C16 1_555 1_555
C17 C18 1_555 1_555
C23 C24 1_555 1_555
C30 C31 1_555 1_555
C32 C33 1_555 1_555
C33 C34 1_555 1_555
C36 C37 1_555 1_555

#END
