
#######################################################################
#
#                 Cambridge Crystallographic Data Centre
#                                CCDC 
#
#######################################################################
#
# If this CIF has been generated from an entry in the Cambridge 
# Structural Database, then it will include bibliographic, chemical, 
# crystal, experimental, refinement or atomic coordinate data resulting 
# from the CCDC's data processing and validation procedures.
#
#######################################################################

data_BUFKUJ
_chemical_formula_moiety         'C5 H5 F3 N2 O1'
_chemical_name_systematic        1-Methyl-3-(trifluoromethyl)-1H-pyrazol-5-ol
_symmetry_cell_setting           monoclinic
_symmetry_space_group_name_H-M   'P 21/c'
_symmetry_Int_Tables_number      14
_space_group_name_Hall           '-P 2ybc'
loop_
_symmetry_equiv_pos_site_id
_symmetry_equiv_pos_as_xyz
1 x,y,z
2 -x,1/2+y,1/2-z
3 -x,-y,-z
4 x,1/2-y,1/2+z
_cell_length_a                   7.5500(15)
_cell_length_b                   8.3530(17)
_cell_length_c                   11.371(2)
_cell_angle_alpha                90
_cell_angle_beta                 104.72(3)
_cell_angle_gamma                90
_cell_volume                     693.578
_exptl_crystal_colour            colorless
_exptl_crystal_description       block
_chemical_melting_point          '446 K'
_cell_formula_units_Z            4
_exptl_crystal_recrystallization_method 'ethyl acetate'
loop_
_atom_site_label
_atom_site_type_symbol
_atom_site_fract_x
_atom_site_fract_y
_atom_site_fract_z
O1 O 0.6146(3) 0.1822(3) 0.22551(16)
H1 H 0.5735 0.1988 0.2874
N1 N 0.4722(3) 0.2582(3) -0.08398(18)
C1 C 0.1757(5) 0.3877(5) -0.1412(3)
N2 N 0.5857(3) 0.2020(3) 0.02028(18)
C2 C 0.3341(4) 0.3246(3) -0.0489(2)
C3 C 0.3563(4) 0.3122(4) 0.0765(2)
H2 H 0.2783 0.3492 0.1220
C4 C 0.5184(4) 0.2333(4) 0.1169(2)
C5 C 0.7551(4) 0.1216(5) 0.0201(3)
H3 H 0.8043 0.0723 0.0978
H4 H 0.8414 0.1981 0.0046
H5 H 0.7323 0.0411 -0.0422
F1 F 0.0666(15) 0.2656(12) -0.1980(10)
F2 F 0.2287(15) 0.4689(17) -0.2294(11)
F3 F 0.057(2) 0.458(3) -0.0997(12)
F4? F 0.1113(17) 0.5237(14) -0.0992(8)
F5? F 0.202(2) 0.412(2) -0.2461(11)
F6? F 0.0325(19) 0.309(3) -0.157(2)
loop_
_geom_bond_atom_site_label_1
_geom_bond_atom_site_label_2
_geom_bond_site_symmetry_1
_geom_bond_site_symmetry_2
O1 H1 1_555 1_555
N1 N2 1_555 1_555
C1 C2 1_555 1_555
N2 C4 1_555 1_555
C2 N1 1_555 1_555
C3 C2 1_555 1_555
H2 C3 1_555 1_555
C4 O1 1_555 1_555
C5 N2 1_555 1_555
H3 C5 1_555 1_555
H4 C5 1_555 1_555
H5 C5 1_555 1_555
F1 C1 1_555 1_555
F2 C1 1_555 1_555
F3 C1 1_555 1_555
C3 C4 1_555 1_555

#END
