
#######################################################################
#
#                 Cambridge Crystallographic Data Centre
#                                CCDC 
#
#######################################################################
#
# If this CIF has been generated from an entry in the Cambridge 
# Structural Database, then it will include bibliographic, chemical, 
# crystal, experimental, refinement or atomic coordinate data resulting 
# from the CCDC's data processing and validation procedures.
#
#######################################################################

data_BUFLUL
_chemical_formula_moiety         'C70 H13 N1 S2'
_chemical_name_systematic        
2'-(5-Pentylthiophen-2-yl)[60]fullereno[1,9-d]thiazol
_symmetry_cell_setting           monoclinic
_symmetry_space_group_name_H-M   'P 21'
_symmetry_Int_Tables_number      4
_space_group_name_Hall           'P 2yb'
loop_
_symmetry_equiv_pos_site_id
_symmetry_equiv_pos_as_xyz
1 x,y,z
2 -x,1/2+y,-z
_cell_length_a                   10.4793(11)
_cell_length_b                   10.1999(8)
_cell_length_c                   17.1064(15)
_cell_angle_alpha                90
_cell_angle_beta                 95.355(9)
_cell_angle_gamma                90
_cell_volume                     1820.49
_exptl_crystal_colour            red
_exptl_crystal_description       BLOCK
_cell_formula_units_Z            2
loop_
_atom_site_label
_atom_site_type_symbol
_atom_site_fract_x
_atom_site_fract_y
_atom_site_fract_z
S1 S -0.84636(11) -0.66272(13) -0.09185(7)
S2 S -0.91463(12) -0.41918(13) 0.11015(7)
C1 C -0.4880(5) -0.6709(5) -0.0992(3)
C2 C -0.7788(4) -0.4469(6) -0.2628(3)
C3 C -0.1763(5) -0.6631(6) -0.2286(3)
C4 C -0.6777(5) -0.6496(6) -0.3516(3)
C5 C -0.6069(5) -0.4935(6) -0.4389(3)
C6 C -0.6035(5) -0.6833(5) -0.1447(3)
C7 C -0.9348(5) -0.5337(5) 0.0359(3)
C8 C -0.4707(5) -0.7682(5) -0.3303(3)
C9 C -0.7540(5) -0.5668(5) -0.2288(3)
C10 C -0.2740(5) -0.1506(5) -0.2810(3)
C11 C -0.6051(5) -0.1425(6) -0.2493(3)
C12 C -0.3397(5) -0.4465(6) -0.4430(3)
C13 C -0.6815(5) -0.4553(6) -0.0927(3)
C14 C -0.5600(5) -0.6995(5) -0.3804(3)
C15 C -0.5869(5) -0.2442(5) -0.1190(3)
C16 C -0.2928(5) -0.6512(6) -0.3844(3)
C17 C -0.5412(5) -0.4466(5) -0.0582(2)
C18 C -0.5448(5) -0.1490(5) -0.1699(3)
C19 C -0.1804(5) -0.2227(5) -0.2282(3)
C20 C -0.3199(5) -0.1934(5) -0.1221(3)
C21 C -0.1913(5) -0.5604(5) -0.3593(3)
C22 C -0.6154(6) -0.2610(6) -0.4002(3)
N1 N -0.7649(4) -0.4384(4) -0.0294(2)
C23 C -0.1020(5) -0.4480(6) -0.2386(3)
C24 C -0.1268(5) -0.4688(5) -0.1575(3)
C25 C -0.3629(5) -0.2898(5) -0.0682(3)
C26 C -0.4088(5) -0.1239(5) -0.1718(3)
C27 C -0.7137(5) -0.5860(5) -0.1412(3)
C28 C -0.7048(5) -0.5233(6) -0.3874(3)
C29 C -0.2772(5) -0.7488(5) -0.2531(3)
C30 C -1.0851(5) -0.4201(6) 0.2271(3)
H1 H -1.1759 -0.4356 0.2295
H2 H -1.0724 -0.3260 0.2251
C31 C -0.2785(5) -0.2112(6) -0.3573(3)
C32 C -0.2178(5) -0.4348(6) -0.3950(3)
C33 C -0.3954(5) -0.2225(6) -0.4037(3)
C34 C -0.4256(5) -0.3421(6) -0.4468(3)
C35 C -0.1739(5) -0.6019(6) -0.1514(3)
C36 C -1.0465(5) -0.4784(5) 0.1534(3)
C37 C -0.5111(5) -0.1726(6) -0.3743(3)
C38 C -0.3721(5) -0.7193(5) -0.1284(3)
C39 C -0.3208(5) -0.5258(6) -0.0578(3)
C40 C -0.2747(5) -0.3984(5) -0.0633(3)
C41 C -0.1282(5) -0.3263(5) -0.2731(3)
C42 C -0.3861(5) -0.5787(6) -0.4364(3)
C43 C -0.5068(5) -0.1127(5) -0.3013(3)
C44 C -0.3764(5) -0.7786(5) -0.2021(3)
C45 C -0.6065(5) -0.7408(5) -0.2216(3)
C46 C -0.5625(6) -0.3673(6) -0.4454(3)
C47 C -0.6989(5) -0.6680(6) -0.2735(3)
C48 C -0.7549(5) -0.4245(6) -0.3437(3)
C49 C -0.1883(5) -0.3201(6) -0.3532(3)
C50 C -0.2045(5) -0.2438(5) -0.1513(3)
C51 C -0.4956(5) -0.7893(5) -0.2498(3)
C52 C -0.1325(5) -0.5682(5) -0.2817(3)
C53 C -0.1749(5) -0.3697(6) -0.1142(3)
C54 C -0.7469(5) -0.3262(5) -0.2195(3)
C55 C -0.7043(5) -0.2304(5) -0.2731(3)
C56 C -0.5158(5) -0.6022(6) -0.4343(3)
C57 C -0.4568(5) -0.5496(5) -0.0551(3)
C58 C -0.4937(5) -0.3155(5) -0.0667(3)
C59 C -1.0127(5) -0.4727(6) 0.3029(3)
H3 H -1.0271 -0.5665 0.3059
H4 H -0.9216 -0.4590 0.3004
C60 C -0.2697(5) -0.6293(5) -0.1026(3)
C61 C -1.0359(5) -0.6148(6) 0.0443(3)
H5 H -1.0602 -0.6838 0.0106
C62 C -0.3356(5) -0.7439(5) -0.3328(3)
C63 C -0.8447(5) -0.5306(5) -0.0247(3)
C64 C -1.0990(5) -0.5808(5) 0.1108(3)
H6 H -1.1712 -0.6251 0.1244
C65 C -0.3854(5) -0.1019(5) -0.2530(3)
C66 C -0.7086(6) -0.2899(6) -0.3501(3)
C67 C -1.0523(6) -0.4091(7) 0.3764(3)
H7 H -1.1428 -0.4253 0.3797
H8 H -1.0406 -0.3150 0.3725
C68 C -0.9780(6) -0.4575(7) 0.4516(3)
H9 H -0.8869 -0.4503 0.4462
H10 H -0.9973 -0.4014 0.4948
C69 C -0.6898(5) -0.3304(5) -0.1435(3)
C70 C -1.0091(7) -0.5983(7) 0.4712(3)
H11 H -1.0002 -0.6528 0.4263
H12 H -1.0955 -0.6034 0.4852
H13 H -0.9512 -0.6277 0.5144
loop_
_geom_bond_atom_site_label_1
_geom_bond_atom_site_label_2
_geom_bond_site_symmetry_1
_geom_bond_site_symmetry_2
S1 C27 1_555 1_555
S2 C7 1_555 1_555
C1 C6 1_555 1_555
C2 C9 1_555 1_555
C3 C29 1_555 1_555
C4 C14 1_555 1_555
C5 C28 1_555 1_555
C6 C27 1_555 1_555
C7 C61 1_555 1_555
C8 C14 1_555 1_555
C9 C27 1_555 1_555
C10 C19 1_555 1_555
C11 C18 1_555 1_555
C12 C32 1_555 1_555
C13 C17 1_555 1_555
C14 C56 1_555 1_555
C15 C18 1_555 1_555
C16 C21 1_555 1_555
C17 C57 1_555 1_555
C18 C26 1_555 1_555
C19 C41 1_555 1_555
C20 C25 1_555 1_555
C21 C32 1_555 1_555
C22 C37 1_555 1_555
N1 C13 1_555 1_555
C23 C24 1_555 1_555
C24 C35 1_555 1_555
C25 C40 1_555 1_555
C26 C20 1_555 1_555
C27 C13 1_555 1_555
C28 C4 1_555 1_555
C29 C44 1_555 1_555
C30 H1 1_555 1_555
H2 C30 1_555 1_555
C31 C10 1_555 1_555
C32 C49 1_555 1_555
C33 C31 1_555 1_555
C34 C12 1_555 1_555
C35 C3 1_555 1_555
C36 S2 1_555 1_555
C37 C33 1_555 1_555
C38 C1 1_555 1_555
C39 C40 1_555 1_555
C40 C53 1_555 1_555
C41 C23 1_555 1_555
C42 C12 1_555 1_555
C43 C11 1_555 1_555
C44 C38 1_555 1_555
C45 C6 1_555 1_555
C46 C5 1_555 1_555
C47 C4 1_555 1_555
C48 C2 1_555 1_555
C49 C31 1_555 1_555
C50 C19 1_555 1_555
C51 C8 1_555 1_555
C52 C3 1_555 1_555
C53 C24 1_555 1_555
C54 C2 1_555 1_555
C55 C11 1_555 1_555
C56 C5 1_555 1_555
C57 C1 1_555 1_555
C58 C15 1_555 1_555
C59 C30 1_555 1_555
H3 C59 1_555 1_555
H4 C59 1_555 1_555
C60 C35 1_555 1_555
C61 H5 1_555 1_555
C62 C8 1_555 1_555
C63 S1 1_555 1_555
C64 C36 1_555 1_555
H6 C64 1_555 1_555
C65 C10 1_555 1_555
C66 C22 1_555 1_555
C67 C59 1_555 1_555
H7 C67 1_555 1_555
H8 C67 1_555 1_555
C68 C67 1_555 1_555
H9 C68 1_555 1_555
H10 C68 1_555 1_555
C69 C13 1_555 1_555
C70 C68 1_555 1_555
H11 C70 1_555 1_555
H12 C70 1_555 1_555
H13 C70 1_555 1_555
C7 C63 1_555 1_555
C9 C47 1_555 1_555
C15 C69 1_555 1_555
C16 C42 1_555 1_555
C16 C62 1_555 1_555
C17 C58 1_555 1_555
C20 C50 1_555 1_555
C21 C52 1_555 1_555
C22 C46 1_555 1_555
N1 C63 1_555 1_555
C23 C52 1_555 1_555
C25 C58 1_555 1_555
C26 C65 1_555 1_555
C28 C48 1_555 1_555
C29 C62 1_555 1_555
C30 C36 1_555 1_555
C33 C34 1_555 1_555
C34 C46 1_555 1_555
C37 C43 1_555 1_555
C38 C60 1_555 1_555
C39 C57 1_555 1_555
C39 C60 1_555 1_555
C41 C49 1_555 1_555
C42 C56 1_555 1_555
C43 C65 1_555 1_555
C44 C51 1_555 1_555
C45 C47 1_555 1_555
C45 C51 1_555 1_555
C48 C66 1_555 1_555
C50 C53 1_555 1_555
C54 C55 1_555 1_555
C54 C69 1_555 1_555
C55 C66 1_555 1_555
C61 C64 1_555 1_555

#END
