
#######################################################################
#
#                 Cambridge Crystallographic Data Centre
#                                CCDC 
#
#######################################################################
#
# If this CIF has been generated from an entry in the Cambridge 
# Structural Database, then it will include bibliographic, chemical, 
# crystal, experimental, refinement or atomic coordinate data resulting 
# from the CCDC's data processing and validation procedures.
#
#######################################################################

data_BUFMAS
_chemical_formula_moiety         'C20 H26 O6,2(H2 O1)'
_chemical_name_systematic        
'2-hydroxy-6-(3-hydroxy-2-methyl-5-(1-(4-methyl-2-furyl)-1-oxopropan-2-yl)tetrahydrofuran-2-yl)-3-methylcyclohex-2-en-1-one dihydrate'
_symmetry_cell_setting           tetragonal
_symmetry_space_group_name_H-M   'P 41'
_symmetry_Int_Tables_number      76
_space_group_name_Hall           'P 4w'
loop_
_symmetry_equiv_pos_site_id
_symmetry_equiv_pos_as_xyz
1 x,y,z
2 -y,x,1/4+z
3 -x,-y,1/2+z
4 y,-x,3/4+z
_cell_length_a                   27.1610(19)
_cell_length_b                   27.1610(19)
_cell_length_c                   5.7353(10)
_cell_angle_alpha                90
_cell_angle_beta                 90
_cell_angle_gamma                90
_cell_volume                     4231.05
_exptl_crystal_colour            colorless
_exptl_crystal_description       tetragonal
_cell_formula_units_Z            8
loop_
_atom_site_label
_atom_site_type_symbol
_atom_site_fract_x
_atom_site_fract_y
_atom_site_fract_z
O1 O 0.52325(12) 0.62831(12) 0.3824(6)
O2 O 0.38214(12) 0.70492(12) 0.6007(6)
O3 O 0.47714(13) 0.71288(14) 0.2511(6)
O4 O 0.17135(13) 0.63888(13) 0.8204(7)
H1 H 0.1712 0.6615 0.9202
O5 O 0.24119(12) 0.70311(13) 0.9407(7)
C1 C 0.48146(16) 0.7055(2) 0.4575(9)
O6 O 0.31077(14) 0.77435(13) 1.0196(8)
H2 H 0.2826 0.7618 1.0302
C2 C 0.54633(18) 0.59221(18) 0.5014(10)
H3 H 0.5621 0.5649 0.4297
C3 C 0.18172(19) 0.57905(19) 0.4129(10)
H4 H 0.1537 0.5781 0.5205
H5 H 0.1937 0.5455 0.3853
H6 H 0.1713 0.5937 0.2647
C4 C 0.54450(17) 0.59939(17) 0.7341(9)
C5 C 0.51781(16) 0.64459(17) 0.7614(9)
H7 H 0.5099 0.6602 0.9048
C6 C 0.29921(17) 0.67881(17) 0.6407(9)
H8 H 0.2913 0.6989 0.4996
C7 C 0.33215(18) 0.76120(18) 0.8018(11)
H9 H 0.3111 0.7738 0.6718
C8 C 0.40760(18) 0.75094(17) 0.5968(9)
H10 H 0.4032 0.7666 0.4404
C9 C 0.46256(17) 0.74140(19) 0.6386(9)
H11 H 0.4671 0.7268 0.7974
C10 C 0.50588(16) 0.66099(18) 0.5461(9)
C11 C 0.34212(16) 0.70552(17) 0.7660(10)
C12 C 0.21507(18) 0.63901(17) 0.7047(9)
C13 C 0.25182(17) 0.67526(17) 0.7809(9)
C14 C 0.35851(19) 0.68034(18) 0.9892(10)
H12 H 0.3650 0.6455 0.9579
H13 H 0.3325 0.6833 1.1070
H14 H 0.3886 0.6960 1.0470
C15 C 0.22216(19) 0.60937(17) 0.5169(9)
C16 C 0.27161(18) 0.60681(18) 0.4019(9)
H15 H 0.2704 0.6255 0.2537
H16 H 0.2790 0.5720 0.3637
C17 C 0.31273(16) 0.62725(17) 0.5517(9)
H17 H 0.3435 0.6290 0.4593
H18 H 0.3185 0.6050 0.6859
C18 C 0.38352(19) 0.78316(17) 0.7817(11)
H19 H 0.4014 0.7811 0.9318
H20 H 0.3821 0.8180 0.7312
C19 C 0.56726(19) 0.56746(18) 0.9165(9)
H21 H 0.5413 0.5515 1.0079
H22 H 0.5878 0.5876 1.0196
H23 H 0.5877 0.5423 0.8416
C20 C 0.4918(2) 0.7895(2) 0.6224(12)
H24 H 0.5271 0.7824 0.6345
H25 H 0.4820 0.8115 0.7497
H26 H 0.4850 0.8055 0.4725
O7 O 0.12069(11) 0.95642(11) 0.7811(6)
O8 O 0.16164(13) 0.86951(12) 0.9159(6)
O9 O 0.10866(13) 0.79078(12) 0.5734(7)
O10 O 0.13121(13) 0.69499(15) 0.1530(8)
H27 H 0.1024 0.6852 0.1266
O11 O 0.03788(15) 0.66729(14) 0.2481(8)
C21 C 0.13756(15) 0.92372(16) 0.6180(9)
C22 C 0.16190(18) 0.79047(18) 0.5700(9)
H28 H 0.1745 0.7786 0.7240
C23 C 0.13087(15) 0.94208(16) 0.4016(9)
H29 H 0.1394 0.9265 0.2590
C24 C 0.10350(16) 0.99565(17) 0.6587(10)
H30 H 0.0896 1.0242 0.7283
C25 C 0.07391(19) 0.7814(2) 0.1879(10)
H31 H 0.0502 0.8075 0.2240
H32 H 0.0589 0.7577 0.0803
H33 H 0.1032 0.7959 0.1151
C26 C 0.15936(17) 0.87749(18) 0.7072(9)
O12 O -0.04910(17) 0.63423(18) 0.3882(10)
H34 H -0.0289 0.6228 0.2917
C27 C 0.01959(19) 0.69056(19) 0.4093(10)
C28 C 0.00551(19) 0.76839(19) 0.6186(10)
H35 H 0.0212 0.7958 0.7048
H36 H -0.0110 0.7823 0.4795
C29 C 0.04520(17) 0.73178(18) 0.5410(10)
H37 H 0.0590 0.7168 0.6862
C30 C 0.18020(17) 0.84293(18) 0.5268(9)
H38 H 0.1692 0.8538 0.3686
C31 C 0.23670(18) 0.84561(18) 0.5397(11)
H39 H 0.2477 0.8347 0.6940
H40 H 0.2474 0.8796 0.5135
H41 H 0.2510 0.8242 0.4198
C32 C 0.13253(18) 0.71989(18) 0.3694(10)
H42 H 0.1343 0.6954 0.4994
C33 C -0.05269(19) 0.6974(2) 0.6681(11)
C34 C -0.03262(18) 0.7438(2) 0.7736(11)
H43 H -0.0175 0.7360 0.9262
H44 H -0.0601 0.7671 0.8016
C35 C 0.17693(17) 0.75432(18) 0.3805(10)
H45 H 0.2072 0.7363 0.4239
H46 H 0.1822 0.7713 0.2298
C36 C 0.09431(19) 1.02539(18) 0.2433(9)
H47 H 0.1229 1.0327 0.1451
H48 H 0.0826 1.0558 0.3166
H49 H 0.0680 1.0114 0.1470
C37 C 0.10858(17) 0.98933(17) 0.4276(9)
C38 C -0.0293(2) 0.6751(2) 0.4934(12)
C39 C 0.08859(18) 0.75531(17) 0.4105(10)
C40 C -0.0987(2) 0.6768(3) 0.7759(12)
H50 H -0.0946 0.6746 0.9453
H51 H -0.1051 0.6439 0.7124
H52 H -0.1266 0.6984 0.7402
O13 O -0.0049(5) 0.5695(5) 1.095(3)
O14 O 0.0669(12) 0.5584(13) 0.991(4)
O15 O 0.0799(12) 0.4840(15) 0.297(7)
O16 O 0.0538(8) 0.5344(6) 0.522(6)
O17? O 0.0203(8) 0.5576(5) 1.139(3)
O18? O 0.0545(11) 0.5707(11) 0.839(11)
O19? O 0.0358(8) 0.5049(9) 0.376(5)
O20? O -0.020(3) 0.562(2) 0.898(6)
O21? O 0.0611(8) 0.5994(6) 0.780(3)
O22? O 0.0958(10) 0.4573(6) 0.500(5)
loop_
_geom_bond_atom_site_label_1
_geom_bond_atom_site_label_2
_geom_bond_site_symmetry_1
_geom_bond_site_symmetry_2
O1 C2 1_555 1_555
O2 C8 1_555 1_555
O3 C1 1_555 1_555
O4 H1 1_555 1_555
O5 C13 1_555 1_555
C1 C9 1_555 1_555
O6 H2 1_555 1_555
C2 H3 1_555 1_555
C3 H4 1_555 1_555
H5 C3 1_555 1_555
H6 C3 1_555 1_555
C4 C2 1_555 1_555
C5 C4 1_555 1_555
H7 C5 1_555 1_555
C6 H8 1_555 1_555
C7 O6 1_555 1_555
H9 C7 1_555 1_555
C8 H10 1_555 1_555
C9 C8 1_555 1_555
H11 C9 1_555 1_555
C10 O1 1_555 1_555
C11 O2 1_555 1_555
C12 O4 1_555 1_555
C13 C6 1_555 1_555
C14 C11 1_555 1_555
H12 C14 1_555 1_555
H13 C14 1_555 1_555
H14 C14 1_555 1_555
C15 C3 1_555 1_555
C16 C15 1_555 1_555
H15 C16 1_555 1_555
H16 C16 1_555 1_555
C17 C6 1_555 1_555
H17 C17 1_555 1_555
H18 C17 1_555 1_555
C18 C7 1_555 1_555
H19 C18 1_555 1_555
H20 C18 1_555 1_555
C19 C4 1_555 1_555
H21 C19 1_555 1_555
H22 C19 1_555 1_555
H23 C19 1_555 1_555
C20 C9 1_555 1_555
H24 C20 1_555 1_555
H25 C20 1_555 1_555
H26 C20 1_555 1_555
O7 C21 1_555 1_555
O8 C26 1_555 1_555
O9 C22 1_555 1_555
O10 H27 1_555 1_555
O11 C27 1_555 1_555
C21 C23 1_555 1_555
C22 H28 1_555 1_555
C23 H29 1_555 1_555
C24 O7 1_555 1_555
H30 C24 1_555 1_555
C25 H31 1_555 1_555
H32 C25 1_555 1_555
H33 C25 1_555 1_555
C26 C21 1_555 1_555
O12 H34 1_555 1_555
C27 C29 1_555 1_555
C28 H35 1_555 1_555
H36 C28 1_555 1_555
C29 C28 1_555 1_555
H37 C29 1_555 1_555
C30 C22 1_555 1_555
H38 C30 1_555 1_555
C31 C30 1_555 1_555
H39 C31 1_555 1_555
H40 C31 1_555 1_555
H41 C31 1_555 1_555
C32 O10 1_555 1_555
H42 C32 1_555 1_555
C33 C34 1_555 1_555
C34 C28 1_555 1_555
H43 C34 1_555 1_555
H44 C34 1_555 1_555
C35 C22 1_555 1_555
H45 C35 1_555 1_555
H46 C35 1_555 1_555
C36 H47 1_555 1_555
H48 C36 1_555 1_555
H49 C36 1_555 1_555
C37 C23 1_555 1_555
C38 O12 1_555 1_555
C39 O9 1_555 1_555
C40 C33 1_555 1_555
H50 C40 1_555 1_555
H51 C40 1_555 1_555
H52 C40 1_555 1_555
C1 C10 1_555 1_555
C5 C10 1_555 1_555
C6 C11 1_555 1_555
C7 C11 1_555 1_555
C8 C18 1_555 1_555
C12 C13 1_555 1_555
C12 C15 1_555 1_555
C16 C17 1_555 1_555
C24 C37 1_555 1_555
C25 C39 1_555 1_555
C26 C30 1_555 1_555
C27 C38 1_555 1_555
C29 C39 1_555 1_555
C32 C35 1_555 1_555
C32 C39 1_555 1_555
C33 C38 1_555 1_555
C36 C37 1_555 1_555

#END
