
#######################################################################
#
#                 Cambridge Crystallographic Data Centre
#                                CCDC 
#
#######################################################################
#
# If this CIF has been generated from an entry in the Cambridge 
# Structural Database, then it will include bibliographic, chemical, 
# crystal, experimental, refinement or atomic coordinate data resulting 
# from the CCDC's data processing and validation procedures.
#
#######################################################################

data_BUFMEV
_chemical_formula_moiety         'C6 H4 F3 N1 O2 S1'
_chemical_name_systematic        
'2-Methyl-4-(trifluoromethyl)-1,3-thiazole-5-carboxylic acid'
_symmetry_cell_setting           monoclinic
_symmetry_space_group_name_H-M   'P 21/c'
_symmetry_Int_Tables_number      14
_space_group_name_Hall           '-P 2ybc'
loop_
_symmetry_equiv_pos_site_id
_symmetry_equiv_pos_as_xyz
1 x,y,z
2 -x,1/2+y,1/2-z
3 -x,-y,-z
4 x,1/2-y,1/2+z
_cell_length_a                   4.9610(10)
_cell_length_b                   15.682(3)
_cell_length_c                   10.632(2)
_cell_angle_alpha                90
_cell_angle_beta                 90.35(3)
_cell_angle_gamma                90
_cell_volume                     827.137
_exptl_crystal_colour            colorless
_exptl_crystal_description       block
_cell_formula_units_Z            4
_exptl_crystal_recrystallization_method 'ethyl acetate'
loop_
_atom_site_label
_atom_site_type_symbol
_atom_site_fract_x
_atom_site_fract_y
_atom_site_fract_z
S1 S 1.03912(15) 0.13345(4) 0.21544(7)
N1 N 0.7571(4) 0.22213(14) 0.3665(2)
F1 F 1.1047(4) 0.41020(12) 0.3353(2)
F2 F 0.7272(5) 0.38613(12) 0.4214(2)
F3 F 0.7499(4) 0.41298(12) 0.2261(2)
O1 O 1.2183(5) 0.35504(14) 0.0770(2)
O2 O 1.4044(4) 0.22652(13) 0.0592(2)
H1 H 1.4972 0.2497 0.0056
C1 C 0.6926(6) 0.06626(19) 0.3979(3)
H2 H 0.5699 0.0842 0.4621
H3 H 0.8346 0.0330 0.4351
H4 H 0.5978 0.0324 0.3368
C2 C 0.8109(6) 0.14311(16) 0.3348(3)
C3 C 1.0636(5) 0.24181(18) 0.2054(2)
C4 C 0.8996(5) 0.27820(16) 0.2937(2)
C5 C 1.2368(5) 0.28263(18) 0.1076(2)
C6 C 0.8700(6) 0.37191(17) 0.3191(3)
loop_
_geom_bond_atom_site_label_1
_geom_bond_atom_site_label_2
_geom_bond_site_symmetry_1
_geom_bond_site_symmetry_2
S1 C2 1_555 1_555
N1 C2 1_555 1_555
F1 C6 1_555 1_555
F2 C6 1_555 1_555
F3 C6 1_555 1_555
O1 C5 1_555 1_555
O2 H1 1_555 1_555
C1 H2 1_555 1_555
H3 C1 1_555 1_555
H4 C1 1_555 1_555
C2 C1 1_555 1_555
C3 S1 1_555 1_555
C4 N1 1_555 1_555
C5 O2 1_555 1_555
C6 C4 1_555 1_555
C3 C4 1_555 1_555
C3 C5 1_555 1_555

#END
