
#######################################################################
#
#                 Cambridge Crystallographic Data Centre
#                                CCDC 
#
#######################################################################
#
# If this CIF has been generated from an entry in the Cambridge 
# Structural Database, then it will include bibliographic, chemical, 
# crystal, experimental, refinement or atomic coordinate data resulting 
# from the CCDC's data processing and validation procedures.
#
#######################################################################

data_BUFMEW
_chemical_formula_moiety         'C20 H25 Cl1 O5'
_chemical_name_systematic        
2-chloro-6-(3-hydroxy-2-methyl-5-(1-(4-methyl-2-furyl)-1-oxopropan-2-yl)tetrahydrofuran-2-yl)-3-methylcyclohex-2-en-1-one
_symmetry_cell_setting           monoclinic
_symmetry_space_group_name_H-M   'P 21'
_symmetry_Int_Tables_number      4
_space_group_name_Hall           'P 2yb'
loop_
_symmetry_equiv_pos_site_id
_symmetry_equiv_pos_as_xyz
1 x,y,z
2 -x,1/2+y,-z
_cell_length_a                   9.0776(6)
_cell_length_b                   11.1722(5)
_cell_length_c                   10.1648(6)
_cell_angle_alpha                90
_cell_angle_beta                 111.360(8)
_cell_angle_gamma                90
_cell_volume                     960.07
_exptl_crystal_colour            colorless
_exptl_crystal_description       monoclinic
_cell_formula_units_Z            2
loop_
_atom_site_label
_atom_site_type_symbol
_atom_site_fract_x
_atom_site_fract_y
_atom_site_fract_z
Cl1 Cl 0.19123(7) 0.19741(5) 0.74600(6)
C1 C 0.3526(3) 0.2943(2) 0.8102(2)
O1 O 0.77779(18) 0.51349(15) 0.72259(16)
O2 O 0.5334(2) 0.35365(16) 0.41266(16)
H1 H 0.4542 0.3260 0.4266
C2 C 0.5100(3) 0.5555(2) 0.5681(3)
H2 H 0.5082 0.6188 0.6342
H3 H 0.4039 0.5211 0.5247
H4 H 0.5433 0.5893 0.4944
C3 C 0.7979(3) 0.4267(2) 0.5174(2)
H5 H 0.7609 0.4875 0.4415
H6 H 0.8619 0.3660 0.4914
C4 C 0.5640(3) 0.4876(2) 0.8730(2)
H7 H 0.6627 0.5350 0.9111
H8 H 0.4756 0.5436 0.8273
O3 O 0.3674(2) 0.29039(15) 0.58408(17)
C5 C 0.6598(3) 0.3692(2) 0.5442(2)
H9 H 0.6924 0.2900 0.5916
C6 C 1.0149(3) 0.7740(2) 0.8171(2)
O4 O 1.1604(2) 0.59619(17) 0.88738(17)
O5 O 1.08638(19) 0.82003(16) 0.95073(16)
C7 C 0.5359(3) 0.4233(2) 0.9935(2)
H10 H 0.6334 0.3799 1.0505
H11 H 0.5136 0.4832 1.0555
C8 C 0.5772(3) 0.3985(2) 0.7628(2)
H12 H 0.6641 0.3417 0.8144
C9 C 0.8918(3) 0.4843(2) 0.6592(2)
H13 H 0.9698 0.4253 0.7202
C10 C 0.9237(3) 0.9607(2) 0.8176(2)
C11 C 0.6253(3) 0.4585(2) 0.6470(2)
C12 C 0.9780(3) 0.5986(2) 0.6469(2)
H14 H 0.9001 0.6573 0.5854
C13 C 0.8315(3) 1.0751(2) 0.7766(2)
H15 H 0.8633 1.1297 0.8575
H16 H 0.7183 1.0577 0.7473
H17 H 0.8528 1.1124 0.6981
C14 C 1.0288(3) 0.9323(2) 0.9469(2)
H18 H 1.0587 0.9849 1.0258
C15 C 0.3266(3) 0.3054(2) 1.0481(3)
H19 H 0.2605 0.3723 1.0560
H20 H 0.4095 0.2902 1.1403
H21 H 0.2611 0.2336 1.0168
C16 C 0.4009(3) 0.3359(2) 0.9430(2)
C17 C 0.4259(3) 0.3249(2) 0.7064(2)
C18 C 1.1040(3) 0.5709(2) 0.5829(3)
H22 H 1.1755 0.5086 0.6390
H23 H 1.1646 0.6436 0.5834
H24 H 1.0521 0.5428 0.4855
C19 C 0.9155(3) 0.8574(2) 0.7329(2)
H25 H 0.8523 0.8483 0.6357
C20 C 1.0599(3) 0.6528(2) 0.7938(2)
loop_
_geom_bond_atom_site_label_1
_geom_bond_atom_site_label_2
_geom_bond_site_symmetry_1
_geom_bond_site_symmetry_2
Cl1 C1 1_555 1_555
C1 C16 1_555 1_555
O1 C9 1_555 1_555
O2 H1 1_555 1_555
C2 H2 1_555 1_555
H3 C2 1_555 1_555
H4 C2 1_555 1_555
C3 H5 1_555 1_555
H6 C3 1_555 1_555
C4 H7 1_555 1_555
H8 C4 1_555 1_555
O3 C17 1_555 1_555
C5 O2 1_555 1_555
H9 C5 1_555 1_555
C6 O5 1_555 1_555
O4 C20 1_555 1_555
O5 C14 1_555 1_555
C7 C4 1_555 1_555
H10 C7 1_555 1_555
H11 C7 1_555 1_555
C8 C4 1_555 1_555
H12 C8 1_555 1_555
C9 C3 1_555 1_555
H13 C9 1_555 1_555
C10 C13 1_555 1_555
C11 O1 1_555 1_555
C12 C9 1_555 1_555
H14 C12 1_555 1_555
C13 H15 1_555 1_555
H16 C13 1_555 1_555
H17 C13 1_555 1_555
C14 C10 1_555 1_555
H18 C14 1_555 1_555
C15 H19 1_555 1_555
H20 C15 1_555 1_555
H21 C15 1_555 1_555
C16 C7 1_555 1_555
C17 C1 1_555 1_555
C18 C12 1_555 1_555
H22 C18 1_555 1_555
H23 C18 1_555 1_555
H24 C18 1_555 1_555
C19 C6 1_555 1_555
H25 C19 1_555 1_555
C20 C6 1_555 1_555
C2 C11 1_555 1_555
C3 C5 1_555 1_555
C5 C11 1_555 1_555
C8 C11 1_555 1_555
C8 C17 1_555 1_555
C10 C19 1_555 1_555
C12 C20 1_555 1_555
C15 C16 1_555 1_555

#END
