
#######################################################################
#
#                 Cambridge Crystallographic Data Centre
#                                CCDC 
#
#######################################################################
#
# If this CIF has been generated from an entry in the Cambridge 
# Structural Database, then it will include bibliographic, chemical, 
# crystal, experimental, refinement or atomic coordinate data resulting 
# from the CCDC's data processing and validation procedures.
#
#######################################################################

data_BUFPUP
_chemical_formula_moiety         'C13 H12 N2 O2'
_chemical_name_systematic        1-(5-(1H-indol-3-yl)-1,3-oxazol-2-yl)ethanol
_symmetry_cell_setting           monoclinic
_symmetry_space_group_name_H-M   'P 21'
_symmetry_Int_Tables_number      4
_space_group_name_Hall           'P 2yb'
loop_
_symmetry_equiv_pos_site_id
_symmetry_equiv_pos_as_xyz
1 x,y,z
2 -x,1/2+y,-z
_cell_length_a                   4.8685(12)
_cell_length_b                   12.262(3)
_cell_length_c                   9.402(2)
_cell_angle_alpha                90
_cell_angle_beta                 95.501(4)
_cell_angle_gamma                90
_cell_volume                     558.691
_cell_formula_units_Z            2
loop_
_atom_site_label
_atom_site_type_symbol
_atom_site_fract_x
_atom_site_fract_y
_atom_site_fract_z
C1 C 0.1632(4) 0.87083(18) 0.6155(2)
C2 C 0.2594(5) 0.80819(19) 0.7336(2)
H1 H 0.1864 0.8167 0.8231
C3 C 0.4638(5) 0.7337(2) 0.7158(3)
H2 H 0.5350 0.6906 0.7949
C4 C 0.5706(5) 0.71951(19) 0.5828(2)
H3 H 0.7108 0.6668 0.5734
C5 C 0.4731(5) 0.78165(19) 0.4661(2)
H4 H 0.5445 0.7714 0.3765
C6 C 0.2680(4) 0.85979(17) 0.4810(2)
C7 C 0.1211(4) 0.93677(18) 0.3875(2)
C8 C -0.0647(4) 0.98938(19) 0.4664(2)
H5 H -0.1906 1.0445 0.4313
C9 C 0.1705(4) 0.96279(17) 0.2428(2)
C10 C 0.3738(4) 0.94225(19) 0.1581(2)
H6 H 0.5308 0.8978 0.1832
C11 C 0.0857(4) 1.04646(19) 0.0388(2)
C12 C -0.0917(5) 1.1124(2) -0.0699(2)
H7 H -0.2062 1.1648 -0.0193
C13 C 0.0821(5) 1.1751(2) -0.1673(3)
H8 H -0.0388 1.2151 -0.2385
H9 H 0.1966 1.1240 -0.2159
H10 H 0.2010 1.2267 -0.1106
N1 N -0.0389(4) 0.94979(16) 0.60252(18)
H11 H -0.1364 0.9714 0.6715
N2 N 0.3169(4) 0.99662(16) 0.02778(19)
O1 O -0.0171(3) 1.03026(13) 0.16629(14)
O2 O -0.2698(3) 1.03978(14) -0.15550(15)
H12 H -0.3941 1.0167 -0.1072
loop_
_geom_bond_atom_site_label_1
_geom_bond_atom_site_label_2
_geom_bond_site_symmetry_1
_geom_bond_site_symmetry_2
C1 C2 1_555 1_555
C2 H1 1_555 1_555
C3 C2 1_555 1_555
H2 C3 1_555 1_555
C4 C3 1_555 1_555
H3 C4 1_555 1_555
C5 C4 1_555 1_555
H4 C5 1_555 1_555
C6 C1 1_555 1_555
C7 C6 1_555 1_555
C8 C7 1_555 1_555
H5 C8 1_555 1_555
C9 C7 1_555 1_555
C10 C9 1_555 1_555
H6 C10 1_555 1_555
C11 C12 1_555 1_555
C12 H7 1_555 1_555
C13 C12 1_555 1_555
H8 C13 1_555 1_555
H9 C13 1_555 1_555
H10 C13 1_555 1_555
N1 C1 1_555 1_555
H11 N1 1_555 1_555
N2 C10 1_555 1_555
O1 C9 1_555 1_555
O2 C12 1_555 1_555
H12 O2 1_555 1_555
C5 C6 1_555 1_555
C8 N1 1_555 1_555
C11 N2 1_555 1_555
C11 O1 1_555 1_555

#END
