
#######################################################################
#
#                 Cambridge Crystallographic Data Centre
#                                CCDC 
#
#######################################################################
#
# If this CIF has been generated from an entry in the Cambridge 
# Structural Database, then it will include bibliographic, chemical, 
# crystal, experimental, refinement or atomic coordinate data resulting 
# from the CCDC's data processing and validation procedures.
#
#######################################################################

data_BUFQAW
_chemical_formula_moiety         'C20 H32 O4 S3'
_chemical_name_systematic        
2,9-dihydroxy-1,5,9-trimethyl-11-oxa-15,16,17-trithiatricyclo[8.7.4.0^13,20^]henicos-5-en-12-one
_symmetry_cell_setting           orthorhombic
_symmetry_space_group_name_H-M   'P 21 21 21'
_symmetry_Int_Tables_number      19
_space_group_name_Hall           'P 2ac 2ab'
loop_
_symmetry_equiv_pos_site_id
_symmetry_equiv_pos_as_xyz
1 x,y,z
2 1/2-x,-y,1/2+z
3 -x,1/2+y,1/2-z
4 1/2+x,1/2-y,-z
_cell_length_a                   10.22270(10)
_cell_length_b                   10.68960(10)
_cell_length_c                   20.3032(2)
_cell_angle_alpha                90
_cell_angle_beta                 90
_cell_angle_gamma                90
_cell_volume                     2218.66
_exptl_crystal_colour            colorless
_exptl_crystal_description       block
_cell_formula_units_Z            4
loop_
_atom_site_label
_atom_site_type_symbol
_atom_site_fract_x
_atom_site_fract_y
_atom_site_fract_z
C1 C 0.18474(15) -0.05954(14) 0.86562(8)
H1 H 0.2046 0.0301 0.8755
C2 C 0.17289(15) -0.12944(15) 0.93085(8)
H2 H 0.1420 -0.2159 0.9228
H3 H 0.2595 -0.1339 0.9526
C3 C 0.07725(16) -0.06159(15) 0.97479(8)
H4 H 0.1131 0.0238 0.9836
O1 O -0.04987(12) -0.04683(11) 0.94242(6)
C4 C 0.04844(17) -0.12340(15) 1.04141(8)
O2 O -0.00359(12) -0.24462(11) 1.02661(6)
H5 H 0.0242 -0.2966 1.0543
C5 C 0.17458(18) -0.13922(18) 1.08205(8)
H6 H 0.2330 -0.1973 1.0580
H7 H 0.1512 -0.1799 1.1242
C6 C 0.2528(2) -0.0193(2) 1.09783(9)
H8 H 0.2002 0.0544 1.0849
H9 H 0.2675 -0.0147 1.1460
C7 C 0.38426(18) -0.01337(18) 1.06292(9)
H10 H 0.4285 -0.0904 1.0560
C8 C 0.44266(18) 0.08882(16) 1.04129(8)
C9 C 0.57579(17) 0.08331(18) 1.00819(9)
H11 H 0.6088 -0.0037 1.0099
H12 H 0.6378 0.1367 1.0330
C10 C 0.57207(17) 0.12691(17) 0.93593(9)
H13 H 0.5299 0.2102 0.9335
H14 H 0.6626 0.1353 0.9192
C11 C 0.49713(16) 0.03514(16) 0.89274(8)
H15 H 0.4159 0.0115 0.9172
O3 O 0.57142(12) -0.07713(11) 0.88352(6)
H16 H 0.6504 -0.0588 0.8775
C12 C 0.45385(17) 0.08473(15) 0.82463(8)
C13 C 0.38164(17) -0.01759(16) 0.78514(8)
H17 H 0.3255 0.0248 0.7523
H18 H 0.4482 -0.0657 0.7604
C14 C 0.29608(16) -0.11161(15) 0.82241(8)
H19 H 0.3540 -0.1624 0.8509
H20 H 0.2568 -0.1691 0.7897
C15 C 0.05131(16) -0.06527(15) 0.83194(8)
H21 H 0.0413 -0.1531 0.8158
C16 C -0.06348(16) -0.04198(16) 0.87739(8)
O4 O -0.17176(12) -0.02236(14) 0.85515(6)
C17 C 0.03800(18) 0.01849(19) 0.77116(9)
H22 H -0.0457 -0.0005 0.7487
H23 H 0.1100 -0.0004 0.7401
C18 C -0.0547(2) -0.04921(19) 1.07961(9)
H24 H -0.1367 -0.0480 1.0546
H25 H -0.0239 0.0367 1.0862
H26 H -0.0696 -0.0889 1.1225
C19 C 0.3851(2) 0.2178(2) 1.04618(12)
H27 H 0.3407 0.2386 1.0048
H28 H 0.4550 0.2785 1.0545
H29 H 0.3219 0.2203 1.0825
C20 C 0.56898(18) 0.13342(19) 0.78373(9)
H30 H 0.6335 0.0665 0.7780
H31 H 0.6098 0.2042 0.8065
H32 H 0.5374 0.1607 0.7405
S1 S 0.34860(4) 0.22408(4) 0.84489(2)
S2 S 0.22491(5) 0.25045(4) 0.76733(2)
S3 S 0.04252(5) 0.18440(5) 0.79207(2)
loop_
_geom_bond_atom_site_label_1
_geom_bond_atom_site_label_2
_geom_bond_site_symmetry_1
_geom_bond_site_symmetry_2
C1 H1 1_555 1_555
C2 C1 1_555 1_555
H2 C2 1_555 1_555
H3 C2 1_555 1_555
C3 C2 1_555 1_555
H4 C3 1_555 1_555
O1 C3 1_555 1_555
C4 C3 1_555 1_555
O2 C4 1_555 1_555
H5 O2 1_555 1_555
C5 C4 1_555 1_555
H6 C5 1_555 1_555
H7 C5 1_555 1_555
C6 C5 1_555 1_555
H8 C6 1_555 1_555
H9 C6 1_555 1_555
C7 C6 1_555 1_555
H10 C7 1_555 1_555
C8 C7 1_555 1_555
C9 C8 1_555 1_555
H11 C9 1_555 1_555
H12 C9 1_555 1_555
C10 C9 1_555 1_555
H13 C10 1_555 1_555
H14 C10 1_555 1_555
C11 C10 1_555 1_555
H15 C11 1_555 1_555
O3 C11 1_555 1_555
H16 O3 1_555 1_555
C12 C11 1_555 1_555
C13 C12 1_555 1_555
H17 C13 1_555 1_555
H18 C13 1_555 1_555
C14 C1 1_555 1_555
H19 C14 1_555 1_555
H20 C14 1_555 1_555
C15 C1 1_555 1_555
H21 C15 1_555 1_555
C16 O1 1_555 1_555
O4 C16 1_555 1_555
C17 C15 1_555 1_555
H22 C17 1_555 1_555
H23 C17 1_555 1_555
C18 C4 1_555 1_555
H24 C18 1_555 1_555
H25 C18 1_555 1_555
H26 C18 1_555 1_555
C19 C8 1_555 1_555
H27 C19 1_555 1_555
H28 C19 1_555 1_555
H29 C19 1_555 1_555
C20 C12 1_555 1_555
H30 C20 1_555 1_555
H31 C20 1_555 1_555
H32 C20 1_555 1_555
S1 C12 1_555 1_555
S2 S1 1_555 1_555
S3 C17 1_555 1_555
C13 C14 1_555 1_555
C15 C16 1_555 1_555
S2 S3 1_555 1_555

#END
