
#######################################################################
#
#                 Cambridge Crystallographic Data Centre
#                                CCDC 
#
#######################################################################
#
# If this CIF has been generated from an entry in the Cambridge 
# Structural Database, then it will include bibliographic, chemical, 
# crystal, experimental, refinement or atomic coordinate data resulting 
# from the CCDC's data processing and validation procedures.
#
#######################################################################

data_BUFTUS
_chemical_formula_moiety         'C76 H36 O10,C1 H2 Cl2'
_chemical_name_systematic        
'6,12,15,18-tetrakis(t-butylperoxy)-1,9-dioxo-1,9-seco-C60fullerene dichloromethane solvate'
_symmetry_cell_setting           monoclinic
_symmetry_space_group_name_H-M   'P 21/c'
_symmetry_Int_Tables_number      14
_space_group_name_Hall           '-P 2ybc'
loop_
_symmetry_equiv_pos_site_id
_symmetry_equiv_pos_as_xyz
1 x,y,z
2 -x,1/2+y,1/2-z
3 -x,-y,-z
4 x,1/2-y,1/2+z
_cell_length_a                   18.921(4)
_cell_length_b                   14.336(3)
_cell_length_c                   19.367(4)
_cell_angle_alpha                90
_cell_angle_beta                 104.30(3)
_cell_angle_gamma                90
_cell_volume                     5090.56
_exptl_crystal_colour            red
_exptl_crystal_description       prism
_cell_formula_units_Z            4
_exptl_crystal_recrystallization_method dichloromethane/ethanol
loop_
_atom_site_label
_atom_site_type_symbol
_atom_site_fract_x
_atom_site_fract_y
_atom_site_fract_z
C1 C -0.02299(15) 0.2942(2) 0.35467(18)
C2 C 0.33175(18) 0.2859(2) 0.26848(18)
C3 C 0.33472(16) 0.3654(2) 0.32043(17)
C4 C 0.28357(18) 0.4299(2) 0.27762(17)
C5 C 0.23144(18) 0.3769(2) 0.22285(17)
C6 C 0.25003(17) 0.2790(2) 0.23137(16)
C7 C 0.33008(17) 0.1508(2) 0.36041(17)
C8 C 0.33654(16) 0.2053(2) 0.42919(16)
C9 C 0.28757(16) 0.1619(2) 0.45852(16)
C10 C 0.23499(16) 0.1068(2) 0.40302(16)
C11 C 0.25098(16) 0.1169(2) 0.33952(16)
C12 C 0.19571(17) 0.2136(2) 0.22805(16)
C13 C 0.19587(16) 0.1189(2) 0.26822(16)
C14 C 0.16313(16) 0.0735(2) 0.41282(16)
C15 C 0.27333(16) 0.1858(2) 0.52920(16)
C16 C 0.37143(16) 0.2982(2) 0.45433(17)
C17 C 0.35249(16) 0.3737(2) 0.39351(17)
C18 C 0.54886(18) 0.3055(3) 0.4394(2)
C19 C 0.6050(2) 0.2727(3) 0.5053(2)
H1 H 0.5908 0.2939 0.5481
H2 H 0.6528 0.2987 0.5051
H3 H 0.6076 0.2045 0.5053
C20 C 0.5680(2) 0.2724(3) 0.3722(2)
H4 H 0.5715 0.2042 0.3728
H5 H 0.6149 0.2993 0.3696
H6 H 0.5300 0.2923 0.3306
C21 C 0.5374(2) 0.4091(3) 0.4409(3)
H7 H 0.5047 0.4290 0.3957
H8 H 0.5844 0.4410 0.4475
H9 H 0.5156 0.4249 0.4803
C22 C 0.42986(18) 0.0628(2) 0.60493(19)
C23 C 0.4207(2) 0.0120(3) 0.6702(2)
H10 H 0.4307 0.0548 0.7109
H11 H 0.4547 -0.0406 0.6803
H12 H 0.3705 -0.0112 0.6618
C24 C 0.50577(19) 0.1006(3) 0.6163(2)
H13 H 0.5087 0.1402 0.5759
H14 H 0.5403 0.0488 0.6203
H15 H 0.5179 0.1375 0.6602
C25 C 0.4099(2) 0.0031(3) 0.5385(2)
H16 H 0.3587 -0.0160 0.5298
H17 H 0.4411 -0.0523 0.5450
H18 H 0.4169 0.0391 0.4977
C26 C 0.1735(2) -0.1116(2) 0.5281(2)
C27 C 0.1029(2) -0.0694(3) 0.5393(2)
H19 H 0.1137 -0.0098 0.5646
H20 H 0.0811 -0.1123 0.5676
H21 H 0.0687 -0.0590 0.4930
C28 C 0.2303(2) -0.1214(3) 0.5981(2)
H22 H 0.2752 -0.1473 0.5892
H23 H 0.2120 -0.1632 0.6297
H24 H 0.2406 -0.0600 0.6205
C29 C 0.1594(3) -0.2021(3) 0.4868(2)
H25 H 0.1230 -0.1916 0.4417
H26 H 0.1411 -0.2489 0.5149
H27 H 0.2049 -0.2244 0.4770
C30 C 0.23756(17) -0.1113(2) 0.24792(18)
C31 C 0.2082(2) -0.1953(2) 0.2802(2)
H28 H 0.2049 -0.1801 0.3286
H29 H 0.2411 -0.2484 0.2818
H30 H 0.1596 -0.2114 0.2509
C32 C 0.2341(2) -0.1282(3) 0.16920(19)
H31 H 0.1833 -0.1382 0.1431
H32 H 0.2630 -0.1835 0.1645
H33 H 0.2537 -0.0738 0.1496
C33 C 0.3130(2) -0.0860(3) 0.2906(2)
H34 H 0.3291 -0.0289 0.2712
H35 H 0.3467 -0.1369 0.2879
H36 H 0.3121 -0.0757 0.3404
C34 C 0.28921(16) 0.2886(2) 0.54212(16)
C35 C 0.33191(16) 0.3392(2) 0.50847(16)
C36 C 0.19119(16) 0.1815(2) 0.52321(16)
C37 C 0.14277(17) 0.1322(2) 0.47170(16)
C38 C 0.10454(16) 0.1005(2) 0.34755(16)
C39 C 0.11854(16) 0.1228(2) 0.28377(16)
C40 C 0.12098(17) 0.2470(2) 0.20627(16)
C41 C 0.07475(17) 0.1916(2) 0.23944(16)
C42 C 0.04629(15) 0.1470(2) 0.36994(17)
C43 C 0.06944(16) 0.1656(2) 0.44572(17)
C44 C 0.16896(16) 0.2662(2) 0.54987(15)
C45 C 0.32636(17) 0.4563(2) 0.42294(17)
C46 C 0.31434(16) 0.4348(2) 0.49261(17)
C47 C 0.22831(17) 0.3319(2) 0.56168(15)
C48 C 0.25913(17) 0.4795(2) 0.51497(17)
C49 C 0.21396(17) 0.4265(2) 0.55025(16)
C50 C 0.28363(18) 0.5245(2) 0.38063(18)
C51 C 0.09762(16) 0.2978(2) 0.52753(16)
C52 C 0.26040(18) 0.5095(2) 0.30530(18)
C53 C 0.04641(16) 0.2452(2) 0.47370(17)
C54 C 0.08277(16) 0.3954(2) 0.51518(16)
C55 C 0.13983(17) 0.4589(2) 0.52633(16)
C56 C 0.21256(18) 0.5470(2) 0.46941(18)
C57 C 0.13882(17) 0.5337(2) 0.47591(17)
C58 C 0.22470(18) 0.5695(2) 0.40338(18)
C59 C 0.02178(17) 0.4043(2) 0.45280(17)
C60 C 0.18570(19) 0.5426(2) 0.28040(18)
C61 C -0.00043(16) 0.3115(2) 0.42752(17)
C62 C 0.07980(17) 0.5432(2) 0.41594(18)
C63 C 0.16398(18) 0.5798(2) 0.34174(18)
C64 C 0.02073(16) 0.4764(2) 0.40453(17)
C65 C 0.09288(18) 0.5657(2) 0.34785(18)
C66 C 0.04158(18) 0.5138(2) 0.29346(18)
C67 C -0.00276(16) 0.4584(2) 0.32859(17)
C68 C 0.13690(18) 0.4925(2) 0.22837(17)
C69 C 0.06272(18) 0.4769(2) 0.23488(17)
C70 C -0.02326(16) 0.3688(2) 0.30441(17)
C71 C 0.16067(18) 0.4072(2) 0.20017(16)
C72 C 0.04178(17) 0.3836(2) 0.21030(16)
C73 C -0.00103(17) 0.3301(2) 0.24407(17)
C74 C 0.00065(16) 0.2100(2) 0.32525(17)
C75 C 0.10328(18) 0.3402(2) 0.19010(16)
C76 C 0.01475(16) 0.2329(2) 0.25769(17)
O1 O 0.37954(12) 0.12209(17) 0.33795(12)
O2 O 0.38166(13) 0.25366(17) 0.24748(13)
O3 O 0.44676(11) 0.29394(17) 0.48904(12)
O4 O 0.48013(12) 0.25630(18) 0.43367(13)
O5 O 0.30967(11) 0.12449(16) 0.58549(11)
O6 O 0.38768(12) 0.14868(16) 0.59546(12)
O7 O 0.15909(12) -0.02539(15) 0.42106(12)
O8 O 0.21009(12) -0.04590(15) 0.49069(12)
O9 O 0.20284(12) 0.04628(14) 0.21969(11)
O10 O 0.18495(12) -0.03987(14) 0.25340(12)
C77 C 0.5223(3) 0.6513(4) 0.3314(3)
H37 H 0.5418 0.6741 0.3806
H38 H 0.5266 0.7030 0.2988
Cl1 Cl 0.57884(7) 0.55887(9) 0.31648(7)
Cl2 Cl 0.43240(8) 0.62798(13) 0.32058(10)
loop_
_geom_bond_atom_site_label_1
_geom_bond_atom_site_label_2
_geom_bond_site_symmetry_1
_geom_bond_site_symmetry_2
C1 C61 1_555 1_555
C2 C3 1_555 1_555
C3 C4 1_555 1_555
C4 C5 1_555 1_555
C5 C6 1_555 1_555
C6 C2 1_555 1_555
C7 C8 1_555 1_555
C8 C9 1_555 1_555
C9 C10 1_555 1_555
C10 C11 1_555 1_555
C11 C7 1_555 1_555
C12 C6 1_555 1_555
C13 C11 1_555 1_555
C14 C10 1_555 1_555
C15 C9 1_555 1_555
C16 C8 1_555 1_555
C17 C3 1_555 1_555
C18 C19 1_555 1_555
C19 H1 1_555 1_555
H2 C19 1_555 1_555
H3 C19 1_555 1_555
C20 C18 1_555 1_555
H4 C20 1_555 1_555
H5 C20 1_555 1_555
H6 C20 1_555 1_555
C21 C18 1_555 1_555
H7 C21 1_555 1_555
H8 C21 1_555 1_555
H9 C21 1_555 1_555
C22 C23 1_555 1_555
C23 H10 1_555 1_555
H11 C23 1_555 1_555
H12 C23 1_555 1_555
C24 C22 1_555 1_555
H13 C24 1_555 1_555
H14 C24 1_555 1_555
H15 C24 1_555 1_555
C25 C22 1_555 1_555
H16 C25 1_555 1_555
H17 C25 1_555 1_555
H18 C25 1_555 1_555
C26 C27 1_555 1_555
C27 H19 1_555 1_555
H20 C27 1_555 1_555
H21 C27 1_555 1_555
C28 C26 1_555 1_555
H22 C28 1_555 1_555
H23 C28 1_555 1_555
H24 C28 1_555 1_555
C29 C26 1_555 1_555
H25 C29 1_555 1_555
H26 C29 1_555 1_555
H27 C29 1_555 1_555
C30 C31 1_555 1_555
C31 H28 1_555 1_555
H29 C31 1_555 1_555
H30 C31 1_555 1_555
C32 C30 1_555 1_555
H31 C32 1_555 1_555
H32 C32 1_555 1_555
H33 C32 1_555 1_555
C33 C30 1_555 1_555
H34 C33 1_555 1_555
H35 C33 1_555 1_555
H36 C33 1_555 1_555
C34 C15 1_555 1_555
C35 C16 1_555 1_555
C36 C15 1_555 1_555
C37 C14 1_555 1_555
C38 C14 1_555 1_555
C39 C13 1_555 1_555
C40 C12 1_555 1_555
C41 C39 1_555 1_555
C42 C38 1_555 1_555
C43 C37 1_555 1_555
C44 C36 1_555 1_555
C45 C17 1_555 1_555
C46 C35 1_555 1_555
C47 C34 1_555 1_555
C48 C46 1_555 1_555
C49 C47 1_555 1_555
C50 C45 1_555 1_555
C51 C44 1_555 1_555
C52 C4 1_555 1_555
C53 C43 1_555 1_555
C54 C51 1_555 1_555
C55 C49 1_555 1_555
C56 C48 1_555 1_555
C57 C55 1_555 1_555
C58 C50 1_555 1_555
C59 C54 1_555 1_555
C60 C52 1_555 1_555
C61 C53 1_555 1_555
C62 C57 1_555 1_555
C63 C58 1_555 1_555
C64 C59 1_555 1_555
C65 C62 1_555 1_555
C66 C65 1_555 1_555
C67 C64 1_555 1_555
C68 C60 1_555 1_555
C69 C66 1_555 1_555
C70 C1 1_555 1_555
C71 C5 1_555 1_555
C72 C69 1_555 1_555
C73 C70 1_555 1_555
C74 C1 1_555 1_555
C75 C40 1_555 1_555
C76 C41 1_555 1_555
C77 H37 1_555 1_555
H38 C77 1_555 1_555
Cl1 C77 1_555 1_555
Cl2 C77 1_555 1_555
O1 C7 1_555 1_555
O2 C2 1_555 1_555
O3 C16 1_555 1_555
O4 C18 1_555 1_555
O5 C15 1_555 1_555
O6 C22 1_555 1_555
O7 C14 1_555 1_555
O8 C26 1_555 1_555
O9 C13 1_555 1_555
O10 C30 1_555 1_555
C12 C13 1_555 1_555
C16 C17 1_555 1_555
C34 C35 1_555 1_555
C36 C37 1_555 1_555
C38 C39 1_555 1_555
C40 C41 1_555 1_555
C42 C43 1_555 1_555
C42 C74 1_555 1_555
C44 C47 1_555 1_555
C45 C46 1_555 1_555
C48 C49 1_555 1_555
C50 C52 1_555 1_555
C51 C53 1_555 1_555
C54 C55 1_555 1_555
C56 C57 1_555 1_555
C56 C58 1_555 1_555
C59 C61 1_555 1_555
C60 C63 1_555 1_555
C62 C64 1_555 1_555
C63 C65 1_555 1_555
C66 C67 1_555 1_555
C67 C70 1_555 1_555
C68 C69 1_555 1_555
C68 C71 1_555 1_555
C71 C75 1_555 1_555
C72 C73 1_555 1_555
C72 C75 1_555 1_555
C73 C76 1_555 1_555
C74 C76 1_555 1_555
O3 O4 1_555 1_555
O5 O6 1_555 1_555
O7 O8 1_555 1_555
O9 O10 1_555 1_555

#END
