
#######################################################################
#
#                 Cambridge Crystallographic Data Centre
#                                CCDC 
#
#######################################################################
#
# If this CIF has been generated from an entry in the Cambridge 
# Structural Database, then it will include bibliographic, chemical, 
# crystal, experimental, refinement or atomic coordinate data resulting 
# from the CCDC's data processing and validation procedures.
#
#######################################################################

data_BUFVAX
_chemical_formula_moiety         'C24 H23 N2 O4 P1,C1 H2 Cl2'
_chemical_name_systematic        
'rac-1-Acetyl-3-(2-acetoxyphenyl)-5-(2-hydroxyphenyl)-4-phenyl-1,2,4-diazaphospholane dichloromethane solvate'
_symmetry_cell_setting           monoclinic
_symmetry_space_group_name_H-M   'P 21/c'
_symmetry_Int_Tables_number      14
_space_group_name_Hall           '-P 2ybc'
loop_
_symmetry_equiv_pos_site_id
_symmetry_equiv_pos_as_xyz
1 x,y,z
2 x,1/2-y,1/2+z
3 -x,-y,-z
4 -x,1/2+y,1/2-z
_cell_length_a                   11.449(3)
_cell_length_b                   12.972(3)
_cell_length_c                   18.804(5)
_cell_angle_alpha                90
_cell_angle_beta                 106.900(4)
_cell_angle_gamma                90
_cell_volume                     2672.1
_exptl_crystal_colour            colorless
_exptl_crystal_description       plate
_cell_formula_units_Z            4
loop_
_atom_site_label
_atom_site_type_symbol
_atom_site_fract_x
_atom_site_fract_y
_atom_site_fract_z
P1 P 0.65078(14) 0.56498(12) 0.73369(10)
O1 O 0.3904(3) 0.5396(3) 0.5956(2)
O2 O 0.3715(4) 0.4013(3) 0.6645(3)
O3 O 0.9417(3) 0.7971(3) 0.7222(2)
O4 O 0.9073(3) 0.4558(3) 0.7540(2)
H1 H 0.9553 0.4053 0.7625
N1 N 0.6265(4) 0.7699(3) 0.7052(3)
H2 H 0.5971 0.8294 0.7145
N2 N 0.7522(4) 0.7456(3) 0.7123(3)
C1 C 0.5582(5) 0.6753(4) 0.6795(3)
H3 H 0.5560 0.6657 0.6263
C2 C 0.7885(5) 0.6369(4) 0.7265(3)
H4 H 0.8541 0.6318 0.7750
C3 C 0.6452(5) 0.5935(4) 0.8269(3)
C4 C 0.7366(6) 0.6414(5) 0.8837(4)
H5 H 0.8068 0.6675 0.8725
C5 C 0.7286(6) 0.6522(5) 0.9551(4)
H6 H 0.7931 0.6841 0.9922
C6 C 0.6258(6) 0.6163(5) 0.9728(4)
H7 H 0.6190 0.6245 1.0216
C7 C 0.5342(6) 0.5686(5) 0.9186(4)
H8 H 0.4638 0.5441 0.9302
C8 C 0.5439(6) 0.5562(5) 0.8476(4)
H9 H 0.4804 0.5216 0.8116
C9 C 0.4265(5) 0.6792(4) 0.6815(3)
C10 C 0.3842(5) 0.7515(5) 0.7232(3)
H10 H 0.4374 0.8034 0.7502
C11 C 0.2623(5) 0.7470(5) 0.7250(4)
H11 H 0.2336 0.7953 0.7540
C12 C 0.1834(6) 0.6722(5) 0.6843(4)
H12 H 0.1010 0.6700 0.6855
C13 C 0.2248(5) 0.6008(4) 0.6421(3)
H13 H 0.1715 0.5494 0.6144
C14 C 0.3460(5) 0.6061(4) 0.6412(3)
C15 C 0.8315(5) 0.5848(4) 0.6669(3)
C16 C 0.8106(5) 0.6244(5) 0.5953(4)
H14 H 0.7706 0.6890 0.5833
C17 C 0.8475(5) 0.5709(5) 0.5409(4)
H15 H 0.8342 0.5991 0.4926
C18 C 0.9037(5) 0.4764(5) 0.5588(4)
H16 H 0.9282 0.4392 0.5220
C19 C 0.9249(5) 0.4350(5) 0.6285(4)
H17 H 0.9622 0.3692 0.6397
C20 C 0.8913(5) 0.4904(4) 0.6827(4)
C21 C 0.4070(5) 0.4380(5) 0.6165(4)
C22 C 0.4791(6) 0.3833(5) 0.5714(4)
H18 H 0.4923 0.3113 0.5875
H19 H 0.5582 0.4176 0.5793
H20 H 0.4335 0.3859 0.5186
C23 C 0.8336(6) 0.8198(4) 0.7102(3)
C24 C 0.7862(5) 0.9288(4) 0.6943(3)
H21 H 0.8449 0.9699 0.6774
H22 H 0.7756 0.9593 0.7397
H23 H 0.7076 0.9279 0.6555
Cl1 Cl 0.0764(5) 0.8782(6) 0.4659(5)
Cl2 Cl 0.3177(5) 0.7930(4) 0.4929(3)
C25 C 0.2154(8) 0.8537(17) 0.5315(6)
H24 H 0.2512 0.9196 0.5543
H25 H 0.2016 0.8096 0.5713
Cl3? Cl 0.0547(8) 0.8251(10) 0.5052(7)
Cl4? Cl 0.2656(14) 0.8148(12) 0.4527(9)
C26? C 0.2110(11) 0.846(4) 0.5270(11)
H26? H 0.2290 0.9190 0.5405
H27? H 0.2532 0.8031 0.5705
loop_
_geom_bond_atom_site_label_1
_geom_bond_atom_site_label_2
_geom_bond_site_symmetry_1
_geom_bond_site_symmetry_2
P1 C1 1_555 1_555
O1 C14 1_555 1_555
O2 C21 1_555 1_555
O3 C23 1_555 1_555
O4 H1 1_555 1_555
N1 H2 1_555 1_555
N2 N1 1_555 1_555
C1 N1 1_555 1_555
H3 C1 1_555 1_555
C2 P1 1_555 1_555
H4 C2 1_555 1_555
C3 P1 1_555 1_555
C4 C3 1_555 1_555
H5 C4 1_555 1_555
C5 C4 1_555 1_555
H6 C5 1_555 1_555
C6 C5 1_555 1_555
H7 C6 1_555 1_555
C7 C6 1_555 1_555
H8 C7 1_555 1_555
C8 C3 1_555 1_555
H9 C8 1_555 1_555
C9 C1 1_555 1_555
C10 C9 1_555 1_555
H10 C10 1_555 1_555
C11 C10 1_555 1_555
H11 C11 1_555 1_555
C12 C11 1_555 1_555
H12 C12 1_555 1_555
C13 C12 1_555 1_555
H13 C13 1_555 1_555
C14 C9 1_555 1_555
C15 C2 1_555 1_555
C16 C15 1_555 1_555
H14 C16 1_555 1_555
C17 C16 1_555 1_555
H15 C17 1_555 1_555
C18 C17 1_555 1_555
H16 C18 1_555 1_555
C19 C18 1_555 1_555
H17 C19 1_555 1_555
C20 O4 1_555 1_555
C21 O1 1_555 1_555
C22 C21 1_555 1_555
H18 C22 1_555 1_555
H19 C22 1_555 1_555
H20 C22 1_555 1_555
C23 N2 1_555 1_555
C24 C23 1_555 1_555
H21 C24 1_555 1_555
H22 C24 1_555 1_555
H23 C24 1_555 1_555
Cl1 C25 1_555 1_555
Cl2 C25 1_555 1_555
C25 H24 1_555 1_555
H25 C25 1_555 1_555
N2 C2 1_555 1_555
C7 C8 1_555 1_555
C13 C14 1_555 1_555
C15 C20 1_555 1_555
C19 C20 1_555 1_555

#END
