
#######################################################################
#
#                 Cambridge Crystallographic Data Centre
#                                CCDC 
#
#######################################################################
#
# If this CIF has been generated from an entry in the Cambridge 
# Structural Database, then it will include bibliographic, chemical, 
# crystal, experimental, refinement or atomic coordinate data resulting 
# from the CCDC's data processing and validation procedures.
#
#######################################################################

data_BUFVAA
_chemical_formula_moiety         'C69 H22 O9'
_chemical_name_systematic        
1-Hydroxy-9-methoxy-15,18-bis(t-butylperoxy)-1,9:5,6:2,12-triepoxy-1,9-seco-C60fullerene
_symmetry_cell_setting           triclinic
_symmetry_space_group_name_H-M   'P -1'
_symmetry_Int_Tables_number      2
_space_group_name_Hall           '-P 1'
loop_
_symmetry_equiv_pos_site_id
_symmetry_equiv_pos_as_xyz
1 x,y,z
2 -x,-y,-z
_cell_length_a                   10.203(2)
_cell_length_b                   13.647(3)
_cell_length_c                   15.311(3)
_cell_angle_alpha                80.78(3)
_cell_angle_beta                 84.51(3)
_cell_angle_gamma                71.48(3)
_cell_volume                     1993.1
_cell_formula_units_Z            2
_exptl_crystal_recrystallization_method toluene/hexane
loop_
_atom_site_label
_atom_site_type_symbol
_atom_site_fract_x
_atom_site_fract_y
_atom_site_fract_z
O1 O 0.5751(2) 0.34402(18) 0.09487(17)
O2 O 0.5066(3) 0.50860(18) 0.11997(18)
H1 H 0.5656 0.5038 0.0774
O3 O 0.5733(2) 0.38297(18) 0.28565(17)
O4 O 0.2956(3) 0.48774(18) 0.01819(16)
O5 O 0.7093(2) 0.1979(2) 0.04672(18)
O6 O 0.0186(3) 0.62350(17) 0.15476(17)
O7 O 0.0467(3) 0.67772(18) 0.22281(17)
O8 O 0.2437(2) 0.54004(18) 0.39401(16)
O9 O 0.3933(2) 0.52605(18) 0.39881(17)
C1 C 0.2329(3) 0.4824(2) 0.1870(2)
C2 C 0.3124(4) 0.3469(3) 0.4059(2)
C3 C 0.0317(4) 0.4521(3) 0.1289(2)
C4 C 0.3374(4) 0.2808(3) 0.0291(2)
C5 C 0.5948(4) 0.1677(3) 0.1824(3)
C6 C 0.1162(4) 0.3986(3) 0.0670(2)
C7 C 0.0773(4) 0.5148(2) 0.1878(2)
C8 C 0.2652(4) 0.3907(3) 0.0512(2)
C9 C -0.1255(4) 0.2598(3) 0.3111(3)
C10 C 0.3225(4) 0.4432(3) 0.1093(2)
C11 C 0.2202(4) -0.0411(3) 0.3166(3)
C12 C -0.0599(4) 0.1724(3) 0.3765(3)
C13 C 0.0052(4) 0.0749(3) 0.3504(3)
C14 C 0.2088(4) 0.3074(3) 0.4535(2)
C15 C 0.1415(4) -0.0117(3) 0.2379(3)
C16 C 0.4543(4) 0.3953(3) 0.2381(2)
C17 C 0.4256(4) -0.0157(3) 0.3703(3)
C18 C 0.3074(4) 0.4556(2) 0.2597(2)
C19 C 0.0145(4) 0.1590(3) 0.1107(3)
C20 C 0.1416(4) 0.0901(3) 0.0907(2)
C21 C 0.5315(4) 0.0230(3) 0.3210(3)
C22 C 0.3623(4) -0.0562(3) 0.3090(3)
C23 C 0.5482(4) 0.1164(3) 0.3377(3)
C24 C 0.0198(3) 0.4789(2) 0.2784(2)
C25 C -0.0962(4) 0.3240(3) 0.1543(2)
C26 C 0.4636(4) 0.1694(3) 0.4066(2)
C27 C -0.0376(5) 0.7998(3) 0.3175(3)
H2 H -0.0299 0.7437 0.3673
H3 H -0.1098 0.8629 0.3321
H4 H 0.0511 0.8143 0.3060
C28 C -0.1229(4) 0.2458(3) 0.2235(3)
C29 C 0.4294(4) -0.0436(3) 0.2237(3)
C30 C 0.3450(4) 0.0355(3) 0.4373(2)
C31 C 0.0020(4) 0.2112(3) 0.4378(3)
C32 C 0.5638(4) 0.0773(3) 0.1639(3)
C33 C 0.3809(4) 0.0629(3) 0.0784(3)
C34 C -0.0793(4) 0.4274(3) 0.2679(2)
C35 C -0.0857(4) 0.8494(3) 0.1566(3)
H5 H -0.0033 0.8726 0.1511
H6 H -0.1684 0.9088 0.1647
H7 H -0.0922 0.8211 0.1028
C36 C 0.5174(4) 0.2968(3) 0.2976(2)
C37 C -0.0741(3) 0.4121(3) 0.1756(2)
C38 C 0.0952(4) 0.3069(3) 0.0451(2)
C39 C 0.2434(4) 0.4533(3) 0.3524(2)
C40 C 0.5839(4) 0.2397(3) 0.0946(2)
C41 C -0.0253(4) 0.3231(3) 0.4122(2)
C42 C -0.1048(4) 0.3524(3) 0.3342(3)
C43 C 0.2339(4) 0.2003(3) 0.4792(2)
C44 C 0.0746(4) 0.3704(3) 0.4193(2)
C45 C 0.2062(4) 0.0022(3) 0.1553(3)
C46 C 0.2500(4) 0.1286(3) 0.0448(2)
C47 C 0.3663(4) 0.1294(3) 0.4569(2)
C48 C 0.5794(3) 0.1906(3) 0.2673(3)
C49 C 0.1295(4) 0.1513(3) 0.4720(2)
C50 C 0.4695(4) 0.4165(3) 0.1383(2)
C51 C -0.0108(4) 0.2707(3) 0.0856(2)
C52 C 0.0941(4) 0.4518(3) 0.3528(2)
C53 C 0.4148(4) 0.6279(3) 0.3789(2)
C54 C 0.2287(4) 0.2351(3) 0.0235(2)
C55 C 0.4642(4) 0.2175(3) 0.0548(2)
C56 C 0.5693(4) 0.5978(3) 0.3892(3)
H8 H 0.5915 0.5610 0.4489
H9 H 0.5982 0.6608 0.3799
H10 H 0.6183 0.5520 0.3454
C57 C 0.1367(4) 0.0118(3) 0.3867(3)
C58 C -0.0549(4) 0.1444(3) 0.1963(3)
C59 C 0.1976(4) 0.0494(3) 0.4456(3)
C60 C 0.3537(4) -0.0145(3) 0.1471(3)
C61 C 0.4354(4) 0.2788(3) 0.3821(2)
C62 C 0.0081(4) 0.0601(3) 0.2593(3)
C63 C -0.0752(4) 0.7664(3) 0.2352(3)
C64 C 0.4824(4) 0.1078(3) 0.0846(3)
C65 C 0.3757(4) 0.6761(3) 0.2854(3)
H11 H 0.4314 0.6299 0.2437
H12 H 0.3930 0.7438 0.2724
H13 H 0.2774 0.6861 0.2794
C66 C 0.5362(4) 0.0047(3) 0.2313(3)
C67 C 0.3342(4) 0.6955(3) 0.4477(3)
H14 H 0.2349 0.7147 0.4387
H15 H 0.3619 0.7589 0.4418
H16 H 0.3538 0.6567 0.5071
C68 C -0.2024(5) 0.7314(4) 0.2536(4)
H17 H -0.2282 0.7152 0.1989
H18 H -0.2788 0.7873 0.2759
H19 H -0.1830 0.6690 0.2981
C69 C 0.7152(4) 0.2458(3) -0.0433(3)
H20 H 0.6349 0.2451 -0.0734
H21 H 0.8003 0.2070 -0.0737
H22 H 0.7143 0.3180 -0.0446
loop_
_geom_bond_atom_site_label_1
_geom_bond_atom_site_label_2
_geom_bond_site_symmetry_1
_geom_bond_site_symmetry_2
O1 C40 1_555 1_555
O2 H1 1_555 1_555
O3 C16 1_555 1_555
O4 C8 1_555 1_555
O5 C40 1_555 1_555
O6 O7 1_555 1_555
O7 C63 1_555 1_555
O8 O9 1_555 1_555
O9 C53 1_555 1_555
C1 C7 1_555 1_555
C2 C14 1_555 1_555
C3 C6 1_555 1_555
C4 C8 1_555 1_555
C5 C32 1_555 1_555
C6 C8 1_555 1_555
C7 O6 1_555 1_555
C8 C10 1_555 1_555
C9 C12 1_555 1_555
C10 O4 1_555 1_555
C11 C15 1_555 1_555
C12 C13 1_555 1_555
C13 C57 1_555 1_555
C14 C43 1_555 1_555
C15 C45 1_555 1_555
C16 C18 1_555 1_555
C17 C21 1_555 1_555
C18 C1 1_555 1_555
C19 C20 1_555 1_555
C20 C45 1_555 1_555
C21 C23 1_555 1_555
C22 C11 1_555 1_555
C23 C26 1_555 1_555
C24 C7 1_555 1_555
C25 C28 1_555 1_555
C26 C47 1_555 1_555
C27 H2 1_555 1_555
H3 C27 1_555 1_555
H4 C27 1_555 1_555
C28 C9 1_555 1_555
C29 C22 1_555 1_555
C30 C17 1_555 1_555
C31 C12 1_555 1_555
C32 C64 1_555 1_555
C33 C46 1_555 1_555
C34 C24 1_555 1_555
C35 H5 1_555 1_555
H6 C35 1_555 1_555
H7 C35 1_555 1_555
C36 O3 1_555 1_555
C37 C3 1_555 1_555
C38 C6 1_555 1_555
C39 O8 1_555 1_555
C40 C5 1_555 1_555
C41 C31 1_555 1_555
C42 C9 1_555 1_555
C43 C47 1_555 1_555
C44 C14 1_555 1_555
C45 C60 1_555 1_555
C46 C20 1_555 1_555
C47 C30 1_555 1_555
C48 C5 1_555 1_555
C49 C31 1_555 1_555
C50 O1 1_555 1_555
C51 C19 1_555 1_555
C52 C24 1_555 1_555
C53 C56 1_555 1_555
C54 C4 1_555 1_555
C55 C4 1_555 1_555
C56 H8 1_555 1_555
H9 C56 1_555 1_555
H10 C56 1_555 1_555
C57 C11 1_555 1_555
C58 C19 1_555 1_555
C59 C30 1_555 1_555
C60 C29 1_555 1_555
C61 C2 1_555 1_555
C62 C13 1_555 1_555
C63 C27 1_555 1_555
C64 C33 1_555 1_555
C65 C53 1_555 1_555
H11 C65 1_555 1_555
H12 C65 1_555 1_555
H13 C65 1_555 1_555
C66 C21 1_555 1_555
C67 C53 1_555 1_555
H14 C67 1_555 1_555
H15 C67 1_555 1_555
H16 C67 1_555 1_555
C68 C63 1_555 1_555
H17 C68 1_555 1_555
H18 C68 1_555 1_555
H19 C68 1_555 1_555
C69 O5 1_555 1_555
H20 C69 1_555 1_555
H21 C69 1_555 1_555
H22 C69 1_555 1_555
O2 C50 1_555 1_555
C1 C10 1_555 1_555
C2 C39 1_555 1_555
C3 C7 1_555 1_555
C10 C50 1_555 1_555
C15 C62 1_555 1_555
C16 C36 1_555 1_555
C16 C50 1_555 1_555
C17 C22 1_555 1_555
C18 C39 1_555 1_555
C23 C48 1_555 1_555
C25 C37 1_555 1_555
C25 C51 1_555 1_555
C26 C61 1_555 1_555
C28 C58 1_555 1_555
C29 C66 1_555 1_555
C32 C66 1_555 1_555
C33 C60 1_555 1_555
C34 C37 1_555 1_555
C34 C42 1_555 1_555
C35 C63 1_555 1_555
C36 C48 1_555 1_555
C36 C61 1_555 1_555
C38 C51 1_555 1_555
C38 C54 1_555 1_555
C39 C52 1_555 1_555
C40 C55 1_555 1_555
C41 C42 1_555 1_555
C41 C44 1_555 1_555
C43 C49 1_555 1_555
C44 C52 1_555 1_555
C46 C54 1_555 1_555
C49 C59 1_555 1_555
C55 C64 1_555 1_555
C57 C59 1_555 1_555
C58 C62 1_555 1_555

#END
