
#######################################################################
#
#                 Cambridge Crystallographic Data Centre
#                                CCDC 
#
#######################################################################
#
# If this CIF has been generated from an entry in the Cambridge 
# Structural Database, then it will include bibliographic, chemical, 
# crystal, experimental, refinement or atomic coordinate data resulting 
# from the CCDC's data processing and validation procedures.
#
#######################################################################

data_BUFYAC
_chemical_formula_moiety         'C20 H19 N2 P1'
_chemical_name_systematic        rac-3,4,5-Triphenyl-1,2,4-diazaphospholane
_symmetry_cell_setting           orthorhombic
_symmetry_space_group_name_H-M   'P b c a'
_symmetry_Int_Tables_number      61
_space_group_name_Hall           '-P 2ac 2ab'
loop_
_symmetry_equiv_pos_site_id
_symmetry_equiv_pos_as_xyz
1 x,y,z
2 1/2+x,y,1/2-z
3 x,1/2-y,1/2+z
4 1/2-x,1/2+y,z
5 -x,-y,-z
6 1/2-x,-y,1/2+z
7 -x,1/2+y,1/2-z
8 1/2+x,1/2-y,-z
_cell_length_a                   24.2584(19)
_cell_length_b                   10.7108(6)
_cell_length_c                   25.0577(19)
_cell_angle_alpha                90
_cell_angle_beta                 90
_cell_angle_gamma                90
_cell_volume                     6510.66
_exptl_crystal_colour            colorless
_exptl_crystal_description       prism
_cell_formula_units_Z            16
loop_
_atom_site_label
_atom_site_type_symbol
_atom_site_fract_x
_atom_site_fract_y
_atom_site_fract_z
P1 P 0.50713(3) 0.68561(6) 0.61414(3)
N1 N 0.43724(8) 0.49241(16) 0.59964(7)
H1 H 0.4659 0.4328 0.6023
N2 N 0.44285(8) 0.54398(16) 0.54693(8)
H2 H 0.4099 0.5801 0.5408
C1 C 0.44572(10) 0.5934(2) 0.63863(9)
H3 H 0.4129 0.6498 0.6362
C2 C 0.48636(10) 0.64318(19) 0.54454(9)
H4 H 0.5193 0.6071 0.5262
C3 C 0.44922(10) 0.5496(2) 0.69532(9)
C4 C 0.42937(10) 0.6264(2) 0.73599(10)
H5 H 0.4133 0.7046 0.7272
C5 C 0.43274(10) 0.5904(2) 0.78881(10)
H6 H 0.4201 0.6449 0.8161
C6 C 0.45452(10) 0.4752(2) 0.80209(10)
H7 H 0.4561 0.4495 0.8383
C7 C 0.47386(10) 0.3982(2) 0.76232(10)
H8 H 0.4887 0.3189 0.7714
C8 C 0.47198(10) 0.4344(2) 0.70960(10)
H9 H 0.4862 0.3807 0.6828
C9 C 0.56129(10) 0.5710(2) 0.62776(10)
C10 C 0.59349(11) 0.5911(2) 0.67297(10)
H10 H 0.5878 0.6641 0.6938
C11 C 0.63369(11) 0.5061(3) 0.68804(11)
H11 H 0.6552 0.5211 0.7191
C12 C 0.64256(12) 0.3993(3) 0.65804(12)
H12 H 0.6697 0.3405 0.6688
C13 C 0.61183(11) 0.3783(3) 0.61246(11)
H13 H 0.6181 0.3057 0.5916
C14 C 0.57189(10) 0.4636(2) 0.59733(10)
H14 H 0.5512 0.4491 0.5657
C15 C 0.46745(10) 0.7555(2) 0.51267(9)
C16 C 0.49834(10) 0.7952(2) 0.46926(9)
H15 H 0.5307 0.7506 0.4595
C17 C 0.48264(10) 0.8993(2) 0.43983(10)
H16 H 0.5043 0.9259 0.4104
C18 C 0.43566(11) 0.9640(2) 0.45345(10)
H17 H 0.4246 1.0343 0.4330
C19 C 0.40456(11) 0.9269(2) 0.49674(10)
H18 H 0.3725 0.9727 0.5065
C20 C 0.42009(10) 0.8227(2) 0.52611(9)
H19 H 0.3983 0.7969 0.5556
P2 P 0.24532(3) 0.42057(5) 0.59393(3)
N3 N 0.30973(8) 0.62552(17) 0.59999(8)
H20 H 0.2815 0.6750 0.6074
N4 N 0.30938(8) 0.59210(17) 0.54392(8)
H21 H 0.3042 0.6627 0.5263
C21 C 0.30319(10) 0.50783(19) 0.62828(10)
H22 H 0.3376 0.4587 0.6220
C22 C 0.26437(10) 0.5008(2) 0.53044(9)
H23 H 0.2317 0.5457 0.5154
C23 C 0.29678(10) 0.5194(2) 0.68756(10)
C24 C 0.31574(10) 0.4231(2) 0.71995(10)
H24 H 0.3329 0.3527 0.7040
C25 C 0.31017(11) 0.4274(2) 0.77485(11)
H25 H 0.3230 0.3601 0.7962
C26 C 0.28579(11) 0.5302(2) 0.79853(11)
H26 H 0.2819 0.5342 0.8362
C27 C 0.26727(10) 0.6265(2) 0.76689(11)
H27 H 0.2507 0.6973 0.7831
C28 C 0.27232(10) 0.6224(2) 0.71205(11)
H28 H 0.2591 0.6898 0.6910
C29 C 0.18473(9) 0.5051(2) 0.61765(10)
C30 C 0.15281(10) 0.4432(2) 0.65544(10)
H29 H 0.1631 0.3615 0.6664
C31 C 0.10637(10) 0.4982(2) 0.67748(11)
H30 H 0.0850 0.4543 0.7031
C32 C 0.09133(11) 0.6169(2) 0.66197(11)
H31 H 0.0599 0.6556 0.6774
C33 C 0.12185(10) 0.6794(2) 0.62407(10)
H32 H 0.1110 0.7606 0.6130
C34 C 0.16833(10) 0.6244(2) 0.60202(10)
H33 H 0.1892 0.6684 0.5760
C35 C 0.28463(10) 0.4032(2) 0.49134(10)
C36 C 0.24821(12) 0.3501(2) 0.45490(10)
H34 H 0.2116 0.3809 0.4525
C37 C 0.26473(12) 0.2528(3) 0.42210(11)
H35 H 0.2394 0.2175 0.3974
C38 C 0.31771(12) 0.2073(2) 0.42519(11)
H36 H 0.3290 0.1401 0.4030
C39 C 0.35420(11) 0.2600(2) 0.46086(10)
H37 H 0.3909 0.2292 0.4630
C40 C 0.33798(11) 0.3572(2) 0.49354(10)
H38 H 0.3637 0.3929 0.5178
loop_
_geom_bond_atom_site_label_1
_geom_bond_atom_site_label_2
_geom_bond_site_symmetry_1
_geom_bond_site_symmetry_2
P1 C1 1_555 1_555
N1 H1 1_555 1_555
N2 N1 1_555 1_555
H2 N2 1_555 1_555
C1 N1 1_555 1_555
H3 C1 1_555 1_555
C2 P1 1_555 1_555
H4 C2 1_555 1_555
C3 C1 1_555 1_555
C4 C3 1_555 1_555
H5 C4 1_555 1_555
C5 C4 1_555 1_555
H6 C5 1_555 1_555
C6 C5 1_555 1_555
H7 C6 1_555 1_555
C7 C6 1_555 1_555
H8 C7 1_555 1_555
C8 C3 1_555 1_555
H9 C8 1_555 1_555
C9 P1 1_555 1_555
C10 C9 1_555 1_555
H10 C10 1_555 1_555
C11 C10 1_555 1_555
H11 C11 1_555 1_555
C12 C11 1_555 1_555
H12 C12 1_555 1_555
C13 C12 1_555 1_555
H13 C13 1_555 1_555
C14 C9 1_555 1_555
H14 C14 1_555 1_555
C15 C2 1_555 1_555
C16 C15 1_555 1_555
H15 C16 1_555 1_555
C17 C16 1_555 1_555
H16 C17 1_555 1_555
C18 C17 1_555 1_555
H17 C18 1_555 1_555
C19 C18 1_555 1_555
H18 C19 1_555 1_555
C20 C15 1_555 1_555
H19 C20 1_555 1_555
P2 C21 1_555 1_555
N3 H20 1_555 1_555
N4 N3 1_555 1_555
H21 N4 1_555 1_555
C21 N3 1_555 1_555
H22 C21 1_555 1_555
C22 P2 1_555 1_555
H23 C22 1_555 1_555
C23 C21 1_555 1_555
C24 C23 1_555 1_555
H24 C24 1_555 1_555
C25 C24 1_555 1_555
H25 C25 1_555 1_555
C26 C25 1_555 1_555
H26 C26 1_555 1_555
C27 C26 1_555 1_555
H27 C27 1_555 1_555
C28 C23 1_555 1_555
H28 C28 1_555 1_555
C29 P2 1_555 1_555
C30 C29 1_555 1_555
H29 C30 1_555 1_555
C31 C30 1_555 1_555
H30 C31 1_555 1_555
C32 C31 1_555 1_555
H31 C32 1_555 1_555
C33 C32 1_555 1_555
H32 C33 1_555 1_555
C34 C29 1_555 1_555
H33 C34 1_555 1_555
C35 C22 1_555 1_555
C36 C35 1_555 1_555
H34 C36 1_555 1_555
C37 C36 1_555 1_555
H35 C37 1_555 1_555
C38 C37 1_555 1_555
H36 C38 1_555 1_555
C39 C38 1_555 1_555
H37 C39 1_555 1_555
C40 C35 1_555 1_555
H38 C40 1_555 1_555
N2 C2 1_555 1_555
C7 C8 1_555 1_555
C13 C14 1_555 1_555
C19 C20 1_555 1_555
N4 C22 1_555 1_555
C27 C28 1_555 1_555
C33 C34 1_555 1_555
C39 C40 1_555 1_555

#END
