
#######################################################################
#
#                 Cambridge Crystallographic Data Centre
#                                CCDC 
#
#######################################################################
#
# If this CIF has been generated from an entry in the Cambridge 
# Structural Database, then it will include bibliographic, chemical, 
# crystal, experimental, refinement or atomic coordinate data resulting 
# from the CCDC's data processing and validation procedures.
#
#######################################################################

data_BUFZIL
_chemical_formula_moiety         'C24 H21 N2 O2 P1'
_chemical_name_systematic        
rac-1,2,3-Triphenyltetrahydro-1H-(1,2,4)diazaphospholo(1,2-a)pyridazine-5,8-dione
_symmetry_cell_setting           tetragonal
_symmetry_space_group_name_H-M   'I 41/a'
_symmetry_Int_Tables_number      88
_space_group_name_Hall           '-I 4ad'
loop_
_symmetry_equiv_pos_site_id
_symmetry_equiv_pos_as_xyz
1 x,y,z
2 3/4-y,1/4+x,1/4+z
3 1/2+x,1/2+y,1/2+z
4 1/4-y,3/4+x,3/4+z
5 1/4+y,1/4-x,1/4+z
6 1/2+x,y,1/2-z
7 1/4-y,1/4+x,1/4-z
8 x,1/2+y,-z
9 -x,-y,-z
10 1/4+y,3/4-x,3/4-z
11 1/2-x,1/2-y,1/2-z
12 3/4+y,1/4-x,1/4-z
13 3/4-y,3/4+x,3/4-z
14 1/2-x,-y,1/2+z
15 3/4+y,3/4-x,3/4+z
16 -x,1/2-y,z
_cell_length_a                   28.769(8)
_cell_length_b                   28.769(8)
_cell_length_c                   9.792(4)
_cell_angle_alpha                90
_cell_angle_beta                 90
_cell_angle_gamma                90
_cell_volume                     8104.4
_exptl_crystal_colour            colorless
_exptl_crystal_description       prism
_cell_formula_units_Z            16
loop_
_atom_site_label
_atom_site_type_symbol
_atom_site_fract_x
_atom_site_fract_y
_atom_site_fract_z
P1 P 0.559798(13) 0.595716(13) 0.07999(4)
C1 C 0.56390(5) 0.53197(5) 0.04460(14)
H1 H 0.5334 0.5204 0.0089
N1 N 0.57345(4) 0.51063(4) 0.17645(12)
C2 C 0.55176(5) 0.47296(5) 0.23131(15)
C3 C 0.57243(5) 0.45822(5) 0.36648(16)
H2 H 0.5660 0.4248 0.3821
H3 H 0.5578 0.4761 0.4413
C4 C 0.62526(5) 0.46656(5) 0.36764(16)
H4 H 0.6381 0.4576 0.4577
H5 H 0.6402 0.4469 0.2972
C5 C 0.63623(5) 0.51702(5) 0.33989(15)
N2 N 0.60441(4) 0.53803(4) 0.25631(12)
C6 C 0.60476(5) 0.58784(5) 0.22122(15)
H6 H 0.6361 0.5958 0.1835
C7 C 0.50619(5) 0.60081(5) 0.17986(15)
C8 C 0.49558(5) 0.64599(5) 0.22580(15)
H7 H 0.5156 0.6710 0.2028
C9 C 0.45642(5) 0.65442(6) 0.30385(17)
H8 H 0.4503 0.6849 0.3366
C10 C 0.42600(5) 0.61834(6) 0.33446(16)
H9 H 0.3991 0.6241 0.3883
C11 C 0.43495(5) 0.57400(5) 0.28623(16)
H10 H 0.4137 0.5495 0.3048
C12 C 0.47504(5) 0.56507(5) 0.21050(15)
H11 H 0.4812 0.5344 0.1795
C13 C 0.60195(5) 0.52290(5) -0.06095(15)
C14 C 0.63990(5) 0.49403(5) -0.03462(16)
H12 H 0.6424 0.4788 0.0511
C15 C 0.67418(5) 0.48746(5) -0.13372(16)
H13 H 0.7000 0.4678 -0.1149
C16 C 0.67081(5) 0.50947(5) -0.25990(17)
H14 H 0.6942 0.5051 -0.3272
C17 C 0.63275(5) 0.53803(5) -0.28639(16)
H15 H 0.6301 0.5531 -0.3724
C18 C 0.59872(5) 0.54463(5) -0.18825(15)
H16 H 0.5729 0.5641 -0.2077
O1 O 0.52010(3) 0.45290(3) 0.17075(11)
O2 O 0.66803(3) 0.53934(4) 0.39188(11)
C19 C 0.59512(5) 0.61937(5) 0.34184(15)
C20 C 0.56795(5) 0.60520(5) 0.45221(16)
H17 H 0.5575 0.5739 0.4576
C21 C 0.55607(6) 0.63660(6) 0.55457(17)
H18 H 0.5380 0.6266 0.6303
C22 C 0.57064(6) 0.68262(6) 0.54603(17)
H19 H 0.5620 0.7043 0.6148
C23 C 0.59780(6) 0.69676(6) 0.43713(18)
H20 H 0.6079 0.7282 0.4314
C24 C 0.61044(5) 0.66529(5) 0.33619(17)
H21 H 0.6297 0.6751 0.2628
loop_
_geom_bond_atom_site_label_1
_geom_bond_atom_site_label_2
_geom_bond_site_symmetry_1
_geom_bond_site_symmetry_2
P1 C1 1_555 1_555
C1 H1 1_555 1_555
N1 C1 1_555 1_555
C2 N1 1_555 1_555
C3 C2 1_555 1_555
H2 C3 1_555 1_555
H3 C3 1_555 1_555
C4 C3 1_555 1_555
H4 C4 1_555 1_555
H5 C4 1_555 1_555
C5 C4 1_555 1_555
N2 N1 1_555 1_555
C6 P1 1_555 1_555
H6 C6 1_555 1_555
C7 P1 1_555 1_555
C8 C7 1_555 1_555
H7 C8 1_555 1_555
C9 C8 1_555 1_555
H8 C9 1_555 1_555
C10 C9 1_555 1_555
H9 C10 1_555 1_555
C11 C10 1_555 1_555
H10 C11 1_555 1_555
C12 C7 1_555 1_555
H11 C12 1_555 1_555
C13 C1 1_555 1_555
C14 C13 1_555 1_555
H12 C14 1_555 1_555
C15 C14 1_555 1_555
H13 C15 1_555 1_555
C16 C15 1_555 1_555
H14 C16 1_555 1_555
C17 C16 1_555 1_555
H15 C17 1_555 1_555
C18 C13 1_555 1_555
H16 C18 1_555 1_555
O1 C2 1_555 1_555
O2 C5 1_555 1_555
C19 C6 1_555 1_555
C20 C19 1_555 1_555
H17 C20 1_555 1_555
C21 C20 1_555 1_555
H18 C21 1_555 1_555
C22 C21 1_555 1_555
H19 C22 1_555 1_555
C23 C22 1_555 1_555
H20 C23 1_555 1_555
C24 C19 1_555 1_555
H21 C24 1_555 1_555
C5 N2 1_555 1_555
N2 C6 1_555 1_555
C11 C12 1_555 1_555
C17 C18 1_555 1_555
C23 C24 1_555 1_555

#END
