
#######################################################################
#
#                 Cambridge Crystallographic Data Centre
#                                CCDC 
#
#######################################################################
#
# If this CIF has been generated from an entry in the Cambridge 
# Structural Database, then it will include bibliographic, chemical, 
# crystal, experimental, refinement or atomic coordinate data resulting 
# from the CCDC's data processing and validation procedures.
#
#######################################################################

data_BUFZOS
_chemical_compound_source        'Paralemnalia thyrsoides'
_chemical_name_common            'Paralemnolin N'
_chemical_formula_moiety         'C19 H28 O4'
_chemical_name_systematic        
'2-(2-Acetoxy-8,8a-dimethyl-1,2,3,5,6,7,8,8a-octahydronaphthalen-1-yl)prop-1-en-1-yl acetate'
_chemical_properties_biological  
'moderate cytotoxicity towards a human medulloblastoma cell line'
_symmetry_cell_setting           orthorhombic
_symmetry_space_group_name_H-M   'P 21 21 21'
_symmetry_Int_Tables_number      19
_space_group_name_Hall           'P 2ac 2ab'
loop_
_symmetry_equiv_pos_site_id
_symmetry_equiv_pos_as_xyz
1 x,y,z
2 1/2-x,-y,1/2+z
3 -x,1/2+y,1/2-z
4 1/2+x,1/2-y,-z
_cell_length_a                   8.7706(8)
_cell_length_b                   12.3217(11)
_cell_length_c                   16.8426(15)
_cell_angle_alpha                90
_cell_angle_beta                 90
_cell_angle_gamma                90
_cell_volume                     1820.16
_cell_formula_units_Z            4
_exptl_crystal_recrystallization_method 'ethyl acetate'
loop_
_atom_site_label
_atom_site_type_symbol
_atom_site_fract_x
_atom_site_fract_y
_atom_site_fract_z
C1 C 0.7753(3) -0.0937(2) 1.15587(16)
H1 H 0.8852 -0.1022 1.1580
H2 H 0.7407 -0.0726 1.2083
C2 C 0.7036(4) -0.2013(2) 1.13388(18)
H3 H 0.7370 -0.2570 1.1707
H4 H 0.5935 -0.1958 1.1373
C3 C 0.7489(3) -0.2320(2) 1.05093(18)
H5 H 0.7033 -0.3014 1.0376
H6 H 0.8588 -0.2403 1.0486
C4 C 0.6989(3) -0.14707(18) 0.98960(14)
H7 H 0.5874 -0.1434 0.9927
C5 C 0.7585(2) -0.03091(18) 1.00963(12)
C6 C 0.6745(2) 0.05386(17) 0.95658(12)
H8 H 0.7213 0.0482 0.9039
C7 C 0.7099(3) 0.16924(17) 0.98602(13)
H9 H 0.8197 0.1821 0.9808
C8 C 0.6645(3) 0.18937(19) 1.07108(13)
H10 H 0.7202 0.2515 1.0912
H11 H 0.5565 0.2063 1.0733
C9 C 0.6960(3) 0.0935(2) 1.12243(14)
H12 H 0.6866 0.1033 1.1770
C10 C 0.7362(2) -0.00460(19) 1.09742(13)
C11 C 0.5042(2) 0.03670(16) 0.94384(12)
C12 C 0.4574(2) 0.03549(19) 0.86977(14)
H13 H 0.5280 0.0442 0.8291
C13 C 0.3918(2) 0.02692(19) 1.01066(13)
H14 H 0.2913 0.0165 0.9894
H15 H 0.3938 0.0920 1.0420
H16 H 0.4184 -0.0340 1.0434
C14 C 0.7367(4) -0.1848(2) 0.90575(18)
H17 H 0.6968 -0.2564 0.8976
H18 H 0.8453 -0.1857 0.8988
H19 H 0.6919 -0.1359 0.8680
C15 C 0.9320(2) -0.0239(2) 0.99282(15)
H20 H 0.9679 0.0478 1.0052
H21 H 0.9507 -0.0391 0.9378
H22 H 0.9849 -0.0759 1.0251
C16 C 0.6863(3) 0.2706(2) 0.86588(14)
C17 C 0.5841(4) 0.3427(3) 0.82030(18)
H23 H 0.6280 0.3570 0.7691
H24 H 0.5711 0.4098 0.8485
H25 H 0.4868 0.3082 0.8137
C18 C 0.2511(3) 0.0676(3) 0.78444(16)
C19 C 0.0889(3) 0.0402(4) 0.76920(18)
H26 H 0.0559 0.0748 0.7211
H27 H 0.0274 0.0651 0.8127
H28 H 0.0784 -0.0370 0.7639
O1 O 0.62953(17) 0.24855(12) 0.93788(9)
O2 O 0.8046(2) 0.23544(18) 0.84220(10)
O3 O 0.30327(18) 0.02134(15) 0.85099(9)
O4 O 0.3297(3) 0.1217(2) 0.74392(15)
loop_
_geom_bond_atom_site_label_1
_geom_bond_atom_site_label_2
_geom_bond_site_symmetry_1
_geom_bond_site_symmetry_2
C1 H1 1_555 1_555
H2 C1 1_555 1_555
C2 C1 1_555 1_555
H3 C2 1_555 1_555
H4 C2 1_555 1_555
C3 C2 1_555 1_555
H5 C3 1_555 1_555
H6 C3 1_555 1_555
C4 C3 1_555 1_555
H7 C4 1_555 1_555
C5 C4 1_555 1_555
C6 C5 1_555 1_555
H8 C6 1_555 1_555
C7 C6 1_555 1_555
H9 C7 1_555 1_555
C8 C7 1_555 1_555
H10 C8 1_555 1_555
H11 C8 1_555 1_555
C9 C8 1_555 1_555
H12 C9 1_555 1_555
C10 C1 1_555 1_555
C11 C6 1_555 1_555
C12 C11 1_555 1_555
H13 C12 1_555 1_555
C13 C11 1_555 1_555
H14 C13 1_555 1_555
H15 C13 1_555 1_555
H16 C13 1_555 1_555
C14 C4 1_555 1_555
H17 C14 1_555 1_555
H18 C14 1_555 1_555
H19 C14 1_555 1_555
C15 C5 1_555 1_555
H20 C15 1_555 1_555
H21 C15 1_555 1_555
H22 C15 1_555 1_555
C16 C17 1_555 1_555
C17 H23 1_555 1_555
H24 C17 1_555 1_555
H25 C17 1_555 1_555
C18 C19 1_555 1_555
C19 H26 1_555 1_555
H27 C19 1_555 1_555
H28 C19 1_555 1_555
O1 C7 1_555 1_555
O2 C16 1_555 1_555
O3 C12 1_555 1_555
O4 C18 1_555 1_555
C5 C10 1_555 1_555
C9 C10 1_555 1_555
C16 O1 1_555 1_555
C18 O3 1_555 1_555

#END
