
#######################################################################
#
#                 Cambridge Crystallographic Data Centre
#                                CCDC 
#
#######################################################################
#
# If this CIF has been generated from an entry in the Cambridge 
# Structural Database, then it will include bibliographic, chemical, 
# crystal, experimental, refinement or atomic coordinate data resulting 
# from the CCDC's data processing and validation procedures.
#
#######################################################################

data_BUGBEL
_chemical_compound_source        'Sinularia leptoclados'
_chemical_name_common            'Leptocladol A'
_chemical_formula_moiety         'C15 H26 O3'
_chemical_name_systematic        
7-Isopropyl-1,4-dimethyl-2,3,4,5,6,7-hexahydroazulene-1,3a,7(1H)-triol
_chemical_properties_biological  
'no cytotoxic or anti-inflammatory activity detected'
_symmetry_cell_setting           orthorhombic
_symmetry_space_group_name_H-M   'P 21 21 21'
_symmetry_Int_Tables_number      19
_space_group_name_Hall           'P 2ac 2ab'
loop_
_symmetry_equiv_pos_site_id
_symmetry_equiv_pos_as_xyz
1 x,y,z
2 1/2-x,-y,1/2+z
3 -x,1/2+y,1/2-z
4 1/2+x,1/2-y,-z
_cell_length_a                   7.3207(15)
_cell_length_b                   11.514(2)
_cell_length_c                   17.760(4)
_cell_angle_alpha                90
_cell_angle_beta                 90
_cell_angle_gamma                90
_cell_volume                     1497
_exptl_crystal_colour            colorless
_exptl_crystal_description       prismatic
_chemical_melting_point          '144-146 deg.C'
_cell_formula_units_Z            4
_exptl_crystal_recrystallization_method 'ethyl acetate'
loop_
_atom_site_label
_atom_site_type_symbol
_atom_site_fract_x
_atom_site_fract_y
_atom_site_fract_z
O1 O 0.7153(2) 0.22096(12) 0.43444(9)
O2 O 1.2212(2) 0.20763(13) 0.33164(9)
O3 O 0.88842(18) 0.38066(12) 0.52897(7)
C1 C 0.7427(3) 0.28700(17) 0.36542(11)
C2 C 0.7239(3) 0.1973(2) 0.30175(13)
H1 H 0.6314 0.1399 0.3139
H2 H 0.6915 0.2348 0.2547
C3 C 0.9120(4) 0.1413(2) 0.29651(13)
H3 H 0.9292 0.1043 0.2480
H4 H 0.9286 0.0839 0.3359
C4 C 1.0447(3) 0.24309(16) 0.30663(11)
C5 C 0.9442(2) 0.32097(15) 0.36265(9)
C6 C 1.0268(3) 0.39743(15) 0.40709(9)
H5 H 1.1498 0.4112 0.3975
C7 C 0.9423(2) 0.46502(16) 0.47205(10)
C8 C 0.7688(3) 0.53192(18) 0.45096(12)
H6 H 0.7396 0.5840 0.4922
H7 H 0.7962 0.5797 0.4074
C9 C 0.5988(3) 0.4605(2) 0.43319(13)
H8 H 0.4960 0.5133 0.4293
H9 H 0.5754 0.4096 0.4756
C10 C 0.6034(3) 0.3863(2) 0.36197(12)
H10 H 0.4829 0.3498 0.3579
C11 C 1.0890(3) 0.54663(16) 0.50586(11)
H11 H 1.1985 0.4993 0.5141
C12 C 1.1433(4) 0.6436(2) 0.45132(14)
H12 H 1.2495 0.6829 0.4702
H13 H 1.0444 0.6979 0.4467
H14 H 1.1701 0.6108 0.4029
C13 C 1.0348(4) 0.5968(2) 0.58274(13)
H15 H 0.9342 0.6494 0.5765
H16 H 1.1369 0.6377 0.6040
H17 H 0.9996 0.5348 0.6158
C14 C 0.6263(4) 0.4617(3) 0.29155(14)
H18 H 0.5965 0.4169 0.2477
H19 H 0.7505 0.4879 0.2881
H20 H 0.5463 0.5276 0.2947
C15 C 1.0810(4) 0.3057(2) 0.23255(11)
H21 H 1.1324 0.2521 0.1970
H22 H 1.1650 0.3684 0.2409
H23 H 0.9683 0.3360 0.2131
H24 H 0.770(4) 0.267(2) 0.4709(15)
H25 H 1.217(4) 0.168(3) 0.3719(15)
H26 H 0.988(4) 0.344(3) 0.5460(15)
loop_
_geom_bond_atom_site_label_1
_geom_bond_atom_site_label_2
_geom_bond_site_symmetry_1
_geom_bond_site_symmetry_2
O1 C1 1_555 1_555
O2 C4 1_555 1_555
O3 C7 1_555 1_555
C1 C2 1_555 1_555
C2 H1 1_555 1_555
H2 C2 1_555 1_555
C3 C2 1_555 1_555
H3 C3 1_555 1_555
H4 C3 1_555 1_555
C4 C3 1_555 1_555
C5 C1 1_555 1_555
C6 C5 1_555 1_555
H5 C6 1_555 1_555
C7 C6 1_555 1_555
C8 C7 1_555 1_555
H6 C8 1_555 1_555
H7 C8 1_555 1_555
C9 C8 1_555 1_555
H8 C9 1_555 1_555
H9 C9 1_555 1_555
C10 C1 1_555 1_555
H10 C10 1_555 1_555
C11 C7 1_555 1_555
H11 C11 1_555 1_555
C12 C11 1_555 1_555
H12 C12 1_555 1_555
H13 C12 1_555 1_555
H14 C12 1_555 1_555
C13 C11 1_555 1_555
H15 C13 1_555 1_555
H16 C13 1_555 1_555
H17 C13 1_555 1_555
C14 C10 1_555 1_555
H18 C14 1_555 1_555
H19 C14 1_555 1_555
H20 C14 1_555 1_555
C15 C4 1_555 1_555
H21 C15 1_555 1_555
H22 C15 1_555 1_555
H23 C15 1_555 1_555
H24 O1 1_555 1_555
H25 O2 1_555 1_555
H26 O3 1_555 1_555
C4 C5 1_555 1_555
C9 C10 1_555 1_555

#END
