
#######################################################################
#
#                 Cambridge Crystallographic Data Centre
#                                CCDC 
#
#######################################################################
#
# If this CIF has been generated from an entry in the Cambridge 
# Structural Database, then it will include bibliographic, chemical, 
# crystal, experimental, refinement or atomic coordinate data resulting 
# from the CCDC's data processing and validation procedures.
#
#######################################################################

data_BUGDEM01
_chemical_formula_moiety         'C13 H17 N3 O1'
_chemical_name_systematic        
3-(Isopropylideneamino)-2,2-dimethyl-2,3-dihydroquinazolin-4(1H)-one
_symmetry_cell_setting           triclinic
_symmetry_space_group_name_H-M   'P -1'
_symmetry_Int_Tables_number      2
_space_group_name_Hall           '-P 1'
loop_
_symmetry_equiv_pos_site_id
_symmetry_equiv_pos_as_xyz
1 x,y,z
2 -x,-y,-z
_cell_length_a                   9.056(2)
_cell_length_b                   9.439(2)
_cell_length_c                   14.872(3)
_cell_angle_alpha                90.047(14)
_cell_angle_beta                 90.102(14)
_cell_angle_gamma                91.329(15)
_cell_volume                     1270.91
_exptl_crystal_colour            colorless
_exptl_crystal_description       block
_cell_formula_units_Z            4
loop_
_atom_site_label
_atom_site_type_symbol
_atom_site_fract_x
_atom_site_fract_y
_atom_site_fract_z
O1 O 0.13734(14) 0.80603(14) 0.18598(9)
N2 N 0.05895(16) 0.98633(16) 0.27450(10)
C1 C -0.07426(19) 0.92882(18) 0.13913(12)
N3 N -0.14233(19) 1.12274(17) 0.23222(11)
C4 C 0.0472(2) 0.89942(19) 0.20091(12)
N6 N 0.15467(19) 0.94453(17) 0.34551(10)
C6 C -0.16674(19) 1.04181(19) 0.15635(12)
C9 C -0.0723(2) 1.0589(2) 0.31023(12)
C10 C -0.2762(2) 1.0730(2) 0.09318(14)
H2 H -0.3396 1.1473 0.1037
C12 C -0.0916(2) 0.8507(2) 0.06006(13)
H4 H -0.0291 0.7759 0.0486
C14 C 0.2913(2) 0.9699(2) 0.33139(13)
C17 C -0.0231(3) 1.1762(2) 0.37395(15)
H9 H 0.0412 1.2418 0.3428
H10 H 0.0287 1.1362 0.4239
H11 H -0.1079 1.2249 0.3955
C18 C -0.2901(2) 0.9946(2) 0.01617(14)
H12 H -0.3624 1.0175 -0.0255
C19 C -0.1994(2) 0.8823(2) -0.00112(14)
H13 H -0.2111 0.8290 -0.0534
C22 C 0.3934(3) 0.9249(3) 0.40465(16)
H18 H 0.3373 0.8803 0.4519
H19 H 0.4458 1.0065 0.4281
H20 H 0.4627 0.8592 0.3810
C23 C 0.3596(3) 1.0405(3) 0.25170(15)
H21 H 0.2839 1.0636 0.2093
H22 H 0.4280 0.9777 0.2240
H23 H 0.4110 1.1256 0.2704
C24 C -0.1741(3) 0.9522(3) 0.35775(15)
H24 H -0.2040 0.8790 0.3163
H25 H -0.2598 0.9995 0.3794
H26 H -0.1227 0.9111 0.4074
H34 H -0.210(2) 1.178(2) 0.2498(14)
O2 O 0.63736(14) 0.30614(14) 0.31416(9)
N1 N 0.55887(16) 0.48625(15) 0.22558(9)
C2 C 0.42561(19) 0.42874(18) 0.36095(12)
N4 N 0.35782(19) 0.62257(17) 0.26772(11)
C3 C 0.5468(2) 0.39919(18) 0.29926(12)
N5 N 0.65474(19) 0.44459(18) 0.15437(10)
C5 C 0.33289(19) 0.54142(19) 0.34371(12)
C7 C 0.4276(2) 0.5589(2) 0.18992(12)
C8 C 0.2239(2) 0.5733(2) 0.40668(14)
H1 H 0.1609 0.6480 0.3962
C11 C 0.4081(2) 0.3504(2) 0.44004(13)
H3 H 0.4702 0.2753 0.4513
C13 C 0.7915(2) 0.4700(2) 0.16868(13)
C15 C 0.2097(2) 0.4946(2) 0.48380(14)
H5 H 0.1371 0.5171 0.5252
C16 C 0.4769(3) 0.6761(2) 0.12589(15)
H6 H 0.5413 0.7419 0.1570
H7 H 0.3920 0.7248 0.1042
H8 H 0.5285 0.6358 0.0761
C20 C 0.3012(2) 0.3824(2) 0.50127(14)
H14 H 0.2902 0.3297 0.5537
C21 C 0.8935(3) 0.4248(3) 0.09551(16)
H15 H 0.8372 0.3805 0.0481
H16 H 0.9625 0.3588 0.1192
H17 H 0.9461 0.5063 0.0723
C25 C 0.8593(3) 0.5402(3) 0.24843(16)
H27 H 0.7834 0.5635 0.2906
H28 H 0.9109 0.6253 0.2300
H29 H 0.9274 0.4773 0.2763
C26 C 0.3259(3) 0.4524(3) 0.14249(15)
H30 H 0.2957 0.3796 0.1840
H31 H 0.3774 0.4107 0.0931
H32 H 0.2405 0.4997 0.1204
H33 H 0.292(2) 0.680(2) 0.2518(12)
loop_
_geom_bond_atom_site_label_1
_geom_bond_atom_site_label_2
_geom_bond_site_symmetry_1
_geom_bond_site_symmetry_2
O1 C4 1_555 1_555
O2 C3 1_555 1_555
N1 C3 1_555 1_555
N2 C4 1_555 1_555
C1 C4 1_555 1_555
C2 C3 1_555 1_555
N3 C6 1_555 1_555
N4 C5 1_555 1_555
N5 N1 1_555 1_555
N6 N2 1_555 1_555
C5 C2 1_555 1_555
C6 C1 1_555 1_555
C7 N1 1_555 1_555
C8 C5 1_555 1_555
H1 C8 1_555 1_555
C9 N2 1_555 1_555
C10 C6 1_555 1_555
H2 C10 1_555 1_555
C11 C2 1_555 1_555
H3 C11 1_555 1_555
C12 C1 1_555 1_555
H4 C12 1_555 1_555
C13 N5 1_555 1_555
C14 N6 1_555 1_555
C15 C8 1_555 1_555
H5 C15 1_555 1_555
C16 C7 1_555 1_555
H6 C16 1_555 1_555
H7 C16 1_555 1_555
H8 C16 1_555 1_555
C17 C9 1_555 1_555
H9 C17 1_555 1_555
H10 C17 1_555 1_555
H11 C17 1_555 1_555
C18 C10 1_555 1_555
H12 C18 1_555 1_555
C19 C12 1_555 1_555
H13 C19 1_555 1_555
C20 C11 1_555 1_555
H14 C20 1_555 1_555
C21 C13 1_555 1_555
H15 C21 1_555 1_555
H16 C21 1_555 1_555
H17 C21 1_555 1_555
C22 C14 1_555 1_555
H18 C22 1_555 1_555
H19 C22 1_555 1_555
H20 C22 1_555 1_555
C23 C14 1_555 1_555
H21 C23 1_555 1_555
H22 C23 1_555 1_555
H23 C23 1_555 1_555
C24 C9 1_555 1_555
H24 C24 1_555 1_555
H25 C24 1_555 1_555
H26 C24 1_555 1_555
C25 C13 1_555 1_555
H27 C25 1_555 1_555
H28 C25 1_555 1_555
H29 C25 1_555 1_555
C26 C7 1_555 1_555
H30 C26 1_555 1_555
H31 C26 1_555 1_555
H32 C26 1_555 1_555
H33 N4 1_555 1_555
H34 N3 1_555 1_555
N3 C9 1_555 1_555
N4 C7 1_555 1_555
C15 C20 1_555 1_555
C18 C19 1_555 1_555

#END
