
#######################################################################
#
#                 Cambridge Crystallographic Data Centre
#                                CCDC 
#
#######################################################################
#
# If this CIF has been generated from an entry in the Cambridge 
# Structural Database, then it will include bibliographic, chemical, 
# crystal, experimental, refinement or atomic coordinate data resulting 
# from the CCDC's data processing and validation procedures.
#
#######################################################################

data_BUGPAW
_chemical_formula_moiety         'C18 H11 Cl1 N2 O4,0.5(H2 O1)'
_chemical_name_systematic        
'2-(3-amino-5-chloro-2-oxo-2,3-dihydro-1H-indol-3-yl)-3-hydroxy-1,4-naphthoquinone hemihydrate'
_symmetry_cell_setting           triclinic
_symmetry_space_group_name_H-M   'P -1'
_symmetry_Int_Tables_number      2
_space_group_name_Hall           '-P 1'
loop_
_symmetry_equiv_pos_site_id
_symmetry_equiv_pos_as_xyz
1 x,y,z
2 -x,-y,-z
_cell_length_a                   9.925(4)
_cell_length_b                   12.843(5)
_cell_length_c                   16.063(6)
_cell_angle_alpha                94.594(7)
_cell_angle_beta                 91.085(7)
_cell_angle_gamma                90.755(7)
_cell_volume                     2040.33
_cell_formula_units_Z            4
loop_
_atom_site_label
_atom_site_type_symbol
_atom_site_fract_x
_atom_site_fract_y
_atom_site_fract_z
O1 O 0.6480(12) 1.0651(8) 0.1352(8)
O2 O 0.1386(10) 0.4661(8) 0.3856(9)
C1 C 0.1415(8) -0.0754(6) 0.2088(5)
C2 C 0.1807(6) 0.0240(5) 0.2412(4)
H1 H 0.2512 0.0597 0.2182
C3 C 0.1111(6) 0.0690(5) 0.3093(4)
C4 C 0.0052(6) 0.0142(5) 0.3422(5)
C5 C -0.0328(7) -0.0861(6) 0.3102(5)
H2 H -0.1018 -0.1229 0.3337
C6 C 0.0363(8) -0.1291(6) 0.2418(6)
H3 H 0.0115 -0.1951 0.2178
C7 C 0.0193(6) 0.1662(6) 0.4268(5)
C8 C 0.1368(5) 0.1667(5) 0.3632(4)
C9 C 0.2746(5) 0.1731(4) 0.4049(4)
C10 C 0.2934(5) 0.1217(5) 0.4796(4)
C11 C 0.4256(6) 0.1281(5) 0.5238(4)
C12 C 0.5352(6) 0.1772(5) 0.4916(4)
C13 C 0.5183(6) 0.2198(6) 0.4100(4)
C14 C 0.3843(6) 0.2118(5) 0.3655(4)
C15 C 0.4418(7) 0.0834(5) 0.5993(4)
H4 H 0.3697 0.0488 0.6217
C16 C 0.5661(7) 0.0905(6) 0.6414(5)
H5 H 0.5752 0.0639 0.6933
C17 C 0.6710(8) 0.1346(6) 0.6083(5)
H6 H 0.7541 0.1349 0.6360
C18 C 0.6602(6) 0.1814(6) 0.5316(5)
H7 H 0.7340 0.2136 0.5091
Cl1 Cl 0.2301(3) -0.1346(2) 0.12739(17)
N1 N -0.0503(5) 0.0740(4) 0.4076(4)
H8 H -0.1207 0.0557 0.4335
N2 N 0.1150(5) 0.2624(4) 0.3174(4)
H9 H 0.025(6) 0.239(5) 0.296(4)
H10 H 0.178(6) 0.259(5) 0.286(4)
O3 O -0.0061(4) 0.2326(4) 0.4774(3)
O4 O 0.1999(4) 0.0724(4) 0.5081(3)
O5 O 0.6137(5) 0.2630(6) 0.3774(3)
O6 O 0.3790(4) 0.2465(4) 0.2923(3)
H11 H 0.4543 0.2661 0.2797
C19 C 0.6726(7) 0.6071(5) 0.2891(4)
C20 C 0.7023(6) 0.5037(5) 0.2624(4)
H12 H 0.7729 0.4687 0.2863
C21 C 0.6225(6) 0.4565(5) 0.1997(4)
C22 C 0.5180(6) 0.5090(5) 0.1648(4)
C23 C 0.4903(7) 0.6105(5) 0.1893(5)
H13 H 0.4214 0.6459 0.1642
C24 C 0.5703(7) 0.6584(5) 0.2537(5)
H14 H 0.5534 0.7271 0.2729
C25 C 0.6367(5) 0.3525(4) 0.1511(4)
C26 C 0.5135(6) 0.3532(5) 0.0903(4)
C27 C 0.7709(5) 0.3405(4) 0.1086(4)
C28 C 0.8823(6) 0.3050(5) 0.1499(4)
C29 C 1.0129(6) 0.2963(6) 0.1068(4)
C30 C 1.0250(6) 0.3330(5) 0.0217(4)
C31 C 0.9124(6) 0.3715(4) -0.0157(4)
C32 C 0.7827(6) 0.3809(5) 0.0283(4)
C33 C 0.9245(6) 0.4080(5) -0.0947(4)
H15 H 0.8506 0.4366 -0.1205
C34 C 1.0442(7) 0.4017(5) -0.1339(4)
H16 H 1.0516 0.4264 -0.1865
C35 C 1.1528(7) 0.3601(6) -0.0979(5)
H17 H 1.2334 0.3548 -0.1265
C36 C 1.1454(6) 0.3259(5) -0.0202(5)
H18 H 1.2207 0.2979 0.0046
Cl2 Cl 0.7750(2) 0.67250(17) 0.36669(14)
N3 N 0.4517(5) 0.4426(4) 0.1022(4)
H19 H 0.3801 0.4587 0.0754
N4 N 0.6166(5) 0.2617(4) 0.2031(4)
O7 O 0.4780(4) 0.2766(4) 0.0434(3)
O8 O 0.6889(4) 0.4263(4) -0.0031(3)
O9 O 1.1088(5) 0.2573(6) 0.1400(4)
O10 O 0.8809(4) 0.2798(4) 0.2253(3)
H20 H 0.9561 0.2605 0.2389
H21 H 0.543(7) 0.263(5) 0.230(5)
H22 H 0.629(6) 0.185(6) 0.171(4)
loop_
_geom_bond_atom_site_label_1
_geom_bond_atom_site_label_2
_geom_bond_site_symmetry_1
_geom_bond_site_symmetry_2
C1 C2 1_555 1_555
C2 H1 1_555 1_555
C3 C2 1_555 1_555
C4 C3 1_555 1_555
C5 C4 1_555 1_555
H2 C5 1_555 1_555
C6 C1 1_555 1_555
H3 C6 1_555 1_555
C7 C8 1_555 1_555
C8 C3 1_555 1_555
C9 C8 1_555 1_555
C10 C9 1_555 1_555
C11 C10 1_555 1_555
C12 C11 1_555 1_555
C13 C12 1_555 1_555
C14 C9 1_555 1_555
C15 C11 1_555 1_555
H4 C15 1_555 1_555
C16 C15 1_555 1_555
H5 C16 1_555 1_555
C17 C16 1_555 1_555
H6 C17 1_555 1_555
C18 C12 1_555 1_555
H7 C18 1_555 1_555
Cl1 C1 1_555 1_555
N1 C4 1_555 1_555
H8 N1 1_555 1_555
N2 C8 1_555 1_555
H9 N2 1_555 1_555
H10 N2 1_555 1_555
O3 C7 1_555 1_555
O4 C10 1_555 1_555
O5 C13 1_555 1_555
O6 C14 1_555 1_555
H11 O6 1_555 1_555
C19 C20 1_555 1_555
C20 H12 1_555 1_555
C21 C20 1_555 1_555
C22 C21 1_555 1_555
C23 C22 1_555 1_555
H13 C23 1_555 1_555
C24 C19 1_555 1_555
H14 C24 1_555 1_555
C25 C21 1_555 1_555
C26 C25 1_555 1_555
C27 C25 1_555 1_555
C28 C27 1_555 1_555
C29 C28 1_555 1_555
C30 C29 1_555 1_555
C31 C30 1_555 1_555
C32 C27 1_555 1_555
C33 C31 1_555 1_555
H15 C33 1_555 1_555
C34 C33 1_555 1_555
H16 C34 1_555 1_555
C35 C34 1_555 1_555
H17 C35 1_555 1_555
C36 C30 1_555 1_555
H18 C36 1_555 1_555
Cl2 C19 1_555 1_555
N3 C22 1_555 1_555
H19 N3 1_555 1_555
N4 C25 1_555 1_555
O7 C26 1_555 1_555
O8 C32 1_555 1_555
O9 C29 1_555 1_555
O10 C28 1_555 1_555
H20 O10 1_555 1_555
H21 N4 1_555 1_555
H22 N4 1_555 1_555
C5 C6 1_555 1_555
C7 N1 1_555 1_555
C13 C14 1_555 1_555
C17 C18 1_555 1_555
C23 C24 1_555 1_555
C26 N3 1_555 1_555
C31 C32 1_555 1_555
C35 C36 1_555 1_555

#END
