
#######################################################################
#
#                 Cambridge Crystallographic Data Centre
#                                CCDC 
#
#######################################################################
#
# If this CIF has been generated from an entry in the Cambridge 
# Structural Database, then it will include bibliographic, chemical, 
# crystal, experimental, refinement or atomic coordinate data resulting 
# from the CCDC's data processing and validation procedures.
#
#######################################################################

data_BUGQEZ
_chemical_formula_moiety         'C28 H21 N2 O2 P1'
_chemical_name_systematic        
rac-1,2,3-Triphenyl-2,3-dihydro-1H-(1,2,4)diazaphospholo(1,2-b)-phthalazine-5,10-dione
_symmetry_cell_setting           triclinic
_symmetry_space_group_name_H-M   'P -1'
_symmetry_Int_Tables_number      2
_space_group_name_Hall           '-P 1'
loop_
_symmetry_equiv_pos_site_id
_symmetry_equiv_pos_as_xyz
1 x,y,z
2 -x,-y,-z
_cell_length_a                   9.5481(11)
_cell_length_b                   10.1532(12)
_cell_length_c                   13.1488(15)
_cell_angle_alpha                80.058(2)
_cell_angle_beta                 77.126(2)
_cell_angle_gamma                65.367(2)
_cell_volume                     1124.98
_exptl_crystal_colour            yellow
_exptl_crystal_description       plate
_cell_formula_units_Z            2
loop_
_atom_site_label
_atom_site_type_symbol
_atom_site_fract_x
_atom_site_fract_y
_atom_site_fract_z
P1 P 0.15543(4) 0.56033(3) 0.68336(3)
O1 O 0.65278(10) 0.31831(10) 0.57601(7)
O2 O 0.35865(11) 0.25938(10) 0.96805(7)
N1 N 0.44439(12) 0.38872(11) 0.70434(8)
N2 N 0.35822(12) 0.36144(11) 0.80175(8)
C1 C 0.36472(14) 0.53359(13) 0.65504(10)
H1 H 0.4019 0.5352 0.5776
C2 C 0.19134(14) 0.45859(13) 0.81531(10)
H2 H 0.1728 0.5306 0.8651
C3 C 0.15887(15) 0.42036(14) 0.61109(10)
C4 C 0.28535(16) 0.33807(15) 0.54054(11)
H3 H 0.3819 0.3487 0.5304
C5 C 0.27162(18) 0.24100(16) 0.48517(12)
H4 H 0.3584 0.1859 0.4370
C6 C 0.13183(18) 0.22399(16) 0.49974(12)
H5 H 0.1232 0.1562 0.4625
C7 C 0.00478(17) 0.30577(16) 0.56854(12)
H6 H -0.0914 0.2946 0.5782
C8 C 0.01747(16) 0.40381(15) 0.62334(11)
H7 H -0.0707 0.4606 0.6698
C9 C 0.39050(15) 0.65006(14) 0.69806(10)
C10 C 0.48531(17) 0.61701(15) 0.77291(11)
H8 H 0.5360 0.5187 0.7992
C11 C 0.50658(18) 0.72661(16) 0.80963(12)
H9 H 0.5715 0.7030 0.8609
C12 C 0.43349(18) 0.86997(16) 0.77180(12)
H10 H 0.4480 0.9448 0.7970
C13 C 0.33898(17) 0.90407(15) 0.69698(12)
H11 H 0.2887 1.0025 0.6708
C14 C 0.31773(15) 0.79482(14) 0.66024(11)
H12 H 0.2530 0.8189 0.6088
C15 C 0.08246(15) 0.38120(14) 0.85843(10)
C16 C -0.06791(15) 0.46151(15) 0.90737(10)
H13 H -0.0983 0.5615 0.9153
C17 C -0.17380(16) 0.39628(17) 0.94469(11)
H14 H -0.2767 0.4521 0.9774
C18 C -0.13064(18) 0.25107(17) 0.93467(12)
H15 H -0.2027 0.2063 0.9617
C19 C 0.01879(18) 0.17030(16) 0.88486(12)
H16 H 0.0487 0.0703 0.8772
C20 C 0.12453(16) 0.23562(14) 0.84625(11)
H17 H 0.2261 0.1805 0.8114
C21 C 0.58746(14) 0.29345(13) 0.66466(10)
C22 C 0.65893(14) 0.16536(13) 0.73680(10)
C23 C 0.80383(15) 0.05852(14) 0.70185(11)
H18 H 0.8537 0.0659 0.6313
C24 C 0.87473(17) -0.05828(15) 0.77044(12)
H19 H 0.9729 -0.1320 0.7465
C25 C 0.80343(16) -0.06857(15) 0.87394(12)
H20 H 0.8529 -0.1493 0.9205
C26 C 0.66082(15) 0.03799(14) 0.90958(11)
H21 H 0.6131 0.0313 0.9808
C27 C 0.58689(14) 0.15547(13) 0.84088(10)
C28 C 0.42896(15) 0.26266(13) 0.87836(10)
loop_
_geom_bond_atom_site_label_1
_geom_bond_atom_site_label_2
_geom_bond_site_symmetry_1
_geom_bond_site_symmetry_2
P1 C1 1_555 1_555
O1 C21 1_555 1_555
O2 C28 1_555 1_555
N1 N2 1_555 1_555
N2 C2 1_555 1_555
C1 N1 1_555 1_555
H1 C1 1_555 1_555
C2 P1 1_555 1_555
H2 C2 1_555 1_555
C3 P1 1_555 1_555
C4 C3 1_555 1_555
H3 C4 1_555 1_555
C5 C4 1_555 1_555
H4 C5 1_555 1_555
C6 C5 1_555 1_555
H5 C6 1_555 1_555
C7 C6 1_555 1_555
H6 C7 1_555 1_555
C8 C3 1_555 1_555
H7 C8 1_555 1_555
C9 C1 1_555 1_555
C10 C9 1_555 1_555
H8 C10 1_555 1_555
C11 C10 1_555 1_555
H9 C11 1_555 1_555
C12 C11 1_555 1_555
H10 C12 1_555 1_555
C13 C12 1_555 1_555
H11 C13 1_555 1_555
C14 C9 1_555 1_555
H12 C14 1_555 1_555
C15 C2 1_555 1_555
C16 C15 1_555 1_555
H13 C16 1_555 1_555
C17 C16 1_555 1_555
H14 C17 1_555 1_555
C18 C17 1_555 1_555
H15 C18 1_555 1_555
C19 C18 1_555 1_555
H16 C19 1_555 1_555
C20 C15 1_555 1_555
H17 C20 1_555 1_555
C21 N1 1_555 1_555
C22 C21 1_555 1_555
C23 C22 1_555 1_555
H18 C23 1_555 1_555
C24 C23 1_555 1_555
H19 C24 1_555 1_555
C25 C24 1_555 1_555
H20 C25 1_555 1_555
C26 C25 1_555 1_555
H21 C26 1_555 1_555
C27 C22 1_555 1_555
C28 N2 1_555 1_555
C7 C8 1_555 1_555
C13 C14 1_555 1_555
C19 C20 1_555 1_555
C26 C27 1_555 1_555
C27 C28 1_555 1_555

#END
