
#######################################################################
#
#                 Cambridge Crystallographic Data Centre
#                                CCDC 
#
#######################################################################
#
# If this CIF has been generated from an entry in the Cambridge 
# Structural Database, then it will include bibliographic, chemical, 
# crystal, experimental, refinement or atomic coordinate data resulting 
# from the CCDC's data processing and validation procedures.
#
#######################################################################

data_BUGQOK
_chemical_name_common            
21-nitro-7alpha-phenyl-6alpha,14alpha-endo-ethenotetrahydrothebaine
_chemical_formula_moiety         'C27 H28 N2 O5'
_chemical_name_systematic        
3,6-Dimethoxy-17-methyl-18-(3-nitrophenyl)-7,8-didehydro-18,19-dihydro-4,5-epoxy-6,14-ethenomorphinan
_symmetry_cell_setting           orthorhombic
_symmetry_space_group_name_H-M   'P 21 21 21'
_symmetry_Int_Tables_number      19
_space_group_name_Hall           'P 2ac 2ab'
loop_
_symmetry_equiv_pos_site_id
_symmetry_equiv_pos_as_xyz
1 x,y,z
2 1/2-x,-y,1/2+z
3 -x,1/2+y,1/2-z
4 1/2+x,1/2-y,-z
_cell_length_a                   9.024(3)
_cell_length_b                   12.846(4)
_cell_length_c                   19.502(6)
_cell_angle_alpha                90
_cell_angle_beta                 90
_cell_angle_gamma                90
_cell_volume                     2260.72
_exptl_crystal_colour            'pale yellow'
_exptl_crystal_description       prismatic
_cell_formula_units_Z            4
loop_
_atom_site_label
_atom_site_type_symbol
_atom_site_fract_x
_atom_site_fract_y
_atom_site_fract_z
O1 O 0.11515(18) 1.03436(13) 0.87630(10)
O2 O -0.0150(2) 1.21281(14) 0.93602(10)
O3 O 0.30669(18) 0.85292(14) 0.92758(11)
O4 O 0.6606(3) 0.4189(2) 0.87328(16)
O5 O 0.6396(3) 0.5294(2) 0.79194(15)
N1 N 0.5997(3) 0.4924(2) 0.84657(15)
N2 N -0.1946(2) 0.78444(18) 0.71749(11)
C1 C -0.2619(3) 0.9879(2) 0.82890(13)
C2 C -0.3325(3) 1.0734(2) 0.85640(14)
H1 H -0.4352 1.0779 0.8537
C3 C -0.2538(3) 1.1528(2) 0.88800(14)
H2 H -0.3043 1.2113 0.9036
C4 C -0.1003(3) 1.14707(19) 0.89694(13)
C5 C -0.0312(3) 1.06251(19) 0.86693(13)
C6 C 0.1378(3) 0.93312(18) 0.84298(14)
H3 H 0.2195 0.9387 0.8100
C7 C -0.0080(2) 0.90723(18) 0.80394(13)
C8 C -0.1095(3) 0.99119(18) 0.82915(12)
C9 C 0.1692(2) 0.84319(19) 0.89277(14)
C10 C 0.1868(3) 0.74643(18) 0.84413(12)
H4 H 0.2474 0.7686 0.8051
C11 C 0.0324(2) 0.71426(18) 0.81531(13)
H5 H 0.0393 0.7010 0.7664
H6 H -0.0017 0.6512 0.8377
C12 C -0.0773(2) 0.80401(18) 0.82906(12)
C13 C -0.0888(3) 0.80870(19) 0.90589(12)
H7 H -0.1782 0.7993 0.9288
C14 C 0.0360(3) 0.82695(19) 0.93854(13)
H8 H 0.0419 0.8296 0.9861
C15 C -0.3361(3) 0.8863(2) 0.80870(16)
H9 H -0.3991 0.8992 0.7693
H10 H -0.3994 0.8641 0.8461
C16 C -0.2269(2) 0.7950(2) 0.79066(13)
H11 H -0.2739 0.7300 0.8056
C17 C -0.1308(3) 0.8795(2) 0.68922(14)
H12 H -0.2012 0.9362 0.6938
H13 H -0.1105 0.8698 0.6408
C18 C 0.0112(3) 0.9072(2) 0.72624(13)
H14 H 0.0439 0.9756 0.7115
H15 H 0.0876 0.8575 0.7138
C19 C 0.2654(2) 0.65577(18) 0.87730(12)
C20 C 0.2120(3) 0.60750(19) 0.93588(13)
H16 H 0.1250 0.6320 0.9557
C21 C 0.2844(3) 0.5238(2) 0.96568(13)
H17 H 0.2459 0.4932 1.0050
C22 C 0.4127(3) 0.4860(2) 0.93737(14)
H18 H 0.4628 0.4301 0.9569
C23 C 0.4647(3) 0.53383(19) 0.87892(13)
C24 C 0.3959(3) 0.61725(18) 0.84875(13)
H19 H 0.4359 0.6478 0.8097
C25 C 0.3200(4) 0.9362(3) 0.9750(2)
H20 H 0.2275 0.9457 0.9985
H21 H 0.3453 0.9989 0.9509
H22 H 0.3962 0.9203 1.0077
C26 C -0.0879(4) 1.2949(2) 0.97151(17)
H23 H -0.1701 1.2672 0.9968
H24 H -0.1231 1.3453 0.9391
H25 H -0.0196 1.3275 1.0026
C27 C -0.3176(3) 0.7454(3) 0.67758(16)
H26 H -0.3972 0.7950 0.6786
H27 H -0.3509 0.6806 0.6966
H28 H -0.2865 0.7347 0.6310
loop_
_geom_bond_atom_site_label_1
_geom_bond_atom_site_label_2
_geom_bond_site_symmetry_1
_geom_bond_site_symmetry_2
O1 C5 1_555 1_555
O2 C4 1_555 1_555
O3 C9 1_555 1_555
O4 N1 1_555 1_555
O5 N1 1_555 1_555
N1 C23 1_555 1_555
N2 C16 1_555 1_555
C1 C2 1_555 1_555
C2 H1 1_555 1_555
C3 C2 1_555 1_555
H2 C3 1_555 1_555
C4 C3 1_555 1_555
C5 C4 1_555 1_555
C6 O1 1_555 1_555
H3 C6 1_555 1_555
C7 C6 1_555 1_555
C8 C1 1_555 1_555
C9 C6 1_555 1_555
C10 C9 1_555 1_555
H4 C10 1_555 1_555
C11 C10 1_555 1_555
H5 C11 1_555 1_555
H6 C11 1_555 1_555
C12 C7 1_555 1_555
C13 C12 1_555 1_555
H7 C13 1_555 1_555
C14 C9 1_555 1_555
H8 C14 1_555 1_555
C15 C1 1_555 1_555
H9 C15 1_555 1_555
H10 C15 1_555 1_555
C16 C12 1_555 1_555
H11 C16 1_555 1_555
C17 N2 1_555 1_555
H12 C17 1_555 1_555
H13 C17 1_555 1_555
C18 C7 1_555 1_555
H14 C18 1_555 1_555
H15 C18 1_555 1_555
C19 C10 1_555 1_555
C20 C19 1_555 1_555
H16 C20 1_555 1_555
C21 C20 1_555 1_555
H17 C21 1_555 1_555
C22 C21 1_555 1_555
H18 C22 1_555 1_555
C23 C22 1_555 1_555
C24 C19 1_555 1_555
H19 C24 1_555 1_555
C25 O3 1_555 1_555
H20 C25 1_555 1_555
H21 C25 1_555 1_555
H22 C25 1_555 1_555
C26 O2 1_555 1_555
H23 C26 1_555 1_555
H24 C26 1_555 1_555
H25 C26 1_555 1_555
C27 N2 1_555 1_555
H26 C27 1_555 1_555
H27 C27 1_555 1_555
H28 C27 1_555 1_555
C5 C8 1_555 1_555
C7 C8 1_555 1_555
C11 C12 1_555 1_555
C13 C14 1_555 1_555
C15 C16 1_555 1_555
C17 C18 1_555 1_555
C23 C24 1_555 1_555

#END
