
#######################################################################
#
#                 Cambridge Crystallographic Data Centre
#                                CCDC 
#
#######################################################################
#
# If this CIF has been generated from an entry in the Cambridge 
# Structural Database, then it will include bibliographic, chemical, 
# crystal, experimental, refinement or atomic coordinate data resulting 
# from the CCDC's data processing and validation procedures.
#
#######################################################################

data_BUGTII
_chemical_formula_moiety         'C24 H24 N2 O2'
_chemical_name_systematic        
(2E,4E)-5-(4-Methoxyphenyl)-6-oxo-6-phenyl-3-(piperidin-1-yl)hexa-2,4-dienenitrile
_symmetry_cell_setting           monoclinic
_symmetry_space_group_name_H-M   'P 21/c'
_symmetry_Int_Tables_number      14
_space_group_name_Hall           '-P 2ybc'
loop_
_symmetry_equiv_pos_site_id
_symmetry_equiv_pos_as_xyz
1 x,y,z
2 -x,1/2+y,1/2-z
3 -x,-y,-z
4 x,1/2-y,1/2+z
_cell_length_a                   14.4639(12)
_cell_length_b                   7.7767(5)
_cell_length_c                   18.7283(13)
_cell_angle_alpha                90
_cell_angle_beta                 106.620(8)
_cell_angle_gamma                90
_cell_volume                     2018.58
_exptl_crystal_colour            yellow
_exptl_crystal_description       crystalline
_cell_formula_units_Z            4
_exptl_crystal_recrystallization_method chloroform/methanol
loop_
_atom_site_label
_atom_site_type_symbol
_atom_site_fract_x
_atom_site_fract_y
_atom_site_fract_z
O1 O 0.17479(12) 0.1803(2) 0.20225(9)
O2 O 0.62805(11) 0.0392(3) 0.18832(10)
N1 N 0.25111(14) 0.3174(2) -0.04254(9)
C1 C 0.08734(14) -0.1354(3) 0.21396(11)
H1 H 0.0924 -0.0550 0.2516
C2 C 0.22233(14) 0.1058(2) 0.09540(11)
C3 C 0.32922(14) 0.0954(2) 0.11964(10)
C4 C 0.12544(13) -0.0983(2) 0.15558(10)
C5 C 0.19618(15) 0.1767(3) -0.04140(11)
C6 C 0.11847(15) -0.2211(3) 0.10046(11)
H2 H 0.1446 -0.1989 0.0614
C7 C 0.17296(14) 0.0718(3) 0.15509(11)
C8 C 0.07298(16) -0.3757(3) 0.10325(12)
H3 H 0.0680 -0.4568 0.0658
C9 C 0.04213(16) -0.2900(3) 0.21667(12)
H4 H 0.0165 -0.3133 0.2559
C10 C 0.16642(15) 0.1396(3) 0.02677(11)
H5 H 0.1003 0.1401 0.0208
C11 C 0.03485(16) -0.4108(3) 0.16106(12)
H6 H 0.0043 -0.5153 0.1628
C12 C 0.53056(15) 0.0645(3) 0.16941(12)
C13 C 0.47975(16) 0.0060(3) 0.09958(12)
H7 H 0.5126 -0.0449 0.0690
C14 C 0.38191(16) 0.1532(3) 0.18968(12)
H8 H 0.3495 0.2024 0.2209
C15 C 0.2512(2) 0.4646(3) 0.00660(14)
H9 H 0.2403 0.4244 0.0526
H10 H 0.1991 0.5423 -0.0174
N2 N 0.07208(19) -0.2062(3) -0.08654(12)
C16 C 0.38082(15) 0.0225(3) 0.07483(11)
H11 H 0.3479 -0.0158 0.0273
C17 C 0.48161(17) 0.1393(3) 0.21407(13)
H12 H 0.5153 0.1808 0.2608
C18 C 0.16600(18) 0.0651(3) -0.09925(12)
H13 H 0.1796 0.0872 -0.1440
C19 C 0.1142(2) -0.0839(3) -0.09181(13)
C20 C 0.3661(2) 0.4648(4) -0.09598(17)
H14 H 0.3738 0.5044 -0.1431
H15 H 0.4208 0.3919 -0.0726
C21 C 0.2763(2) 0.3610(4) -0.11084(14)
H16 H 0.2236 0.4249 -0.1438
H17 H 0.2846 0.2557 -0.1361
C22 C 0.3669(3) 0.6176(4) -0.04683(17)
H18 H 0.3188 0.7004 -0.0727
H19 H 0.4297 0.6728 -0.0345
C23 C 0.3451(3) 0.5582(5) 0.02380(19)
C24 C 0.6848(2) 0.1040(5) 0.25794(17)
H20 H 0.7515 0.0772 0.2643
H21 H 0.6644 0.0522 0.2974
H22 H 0.6770 0.2264 0.2592
H23 H 0.396(3) 0.459(5) 0.052(2)
H24 H 0.339(2) 0.655(4) 0.0538(18)
loop_
_geom_bond_atom_site_label_1
_geom_bond_atom_site_label_2
_geom_bond_site_symmetry_1
_geom_bond_site_symmetry_2
O1 C7 1_555 1_555
O2 C12 1_555 1_555
N1 C5 1_555 1_555
C1 H1 1_555 1_555
C2 C3 1_555 1_555
C3 C14 1_555 1_555
C4 C1 1_555 1_555
C5 C10 1_555 1_555
C6 C4 1_555 1_555
H2 C6 1_555 1_555
C7 C2 1_555 1_555
C8 C6 1_555 1_555
H3 C8 1_555 1_555
C9 C1 1_555 1_555
H4 C9 1_555 1_555
C10 C2 1_555 1_555
H5 C10 1_555 1_555
C11 C8 1_555 1_555
H6 C11 1_555 1_555
C12 C13 1_555 1_555
C13 H7 1_555 1_555
C14 H8 1_555 1_555
C15 N1 1_555 1_555
H9 C15 1_555 1_555
H10 C15 1_555 1_555
N2 C19 1_555 1_555
C16 C3 1_555 1_555
H11 C16 1_555 1_555
C17 C12 1_555 1_555
H12 C17 1_555 1_555
C18 C5 1_555 1_555
H13 C18 1_555 1_555
C19 C18 1_555 1_555
C20 H14 1_555 1_555
H15 C20 1_555 1_555
C21 N1 1_555 1_555
H16 C21 1_555 1_555
H17 C21 1_555 1_555
C22 C20 1_555 1_555
H18 C22 1_555 1_555
H19 C22 1_555 1_555
C23 C15 1_555 1_555
C24 O2 1_555 1_555
H20 C24 1_555 1_555
H21 C24 1_555 1_555
H22 C24 1_555 1_555
H23 C23 1_555 1_555
H24 C23 1_555 1_555
C4 C7 1_555 1_555
C9 C11 1_555 1_555
C13 C16 1_555 1_555
C14 C17 1_555 1_555
C20 C21 1_555 1_555
C22 C23 1_555 1_555

#END
