
#######################################################################
#
#                 Cambridge Crystallographic Data Centre
#                                CCDC 
#
#######################################################################
#
# If this CIF has been generated from an entry in the Cambridge 
# Structural Database, then it will include bibliographic, chemical, 
# crystal, experimental, refinement or atomic coordinate data resulting 
# from the CCDC's data processing and validation procedures.
#
#######################################################################

data_BUGVUW
_chemical_formula_moiety         'C13 H13 N1 O5'
_chemical_name_systematic        
'Dimethyl (3-oxo-2,3-dihydro-1H-isoindol-1-yl)malonate'
_symmetry_cell_setting           monoclinic
_symmetry_space_group_name_H-M   'P 21/c'
_symmetry_Int_Tables_number      14
_space_group_name_Hall           '-P 2ybc'
loop_
_symmetry_equiv_pos_site_id
_symmetry_equiv_pos_as_xyz
1 x,y,z
2 -x,1/2+y,1/2-z
3 -x,-y,-z
4 x,1/2-y,1/2+z
_cell_length_a                   14.759(9)
_cell_length_b                   5.632(3)
_cell_length_c                   14.408(9)
_cell_angle_alpha                90
_cell_angle_beta                 96.166(9)
_cell_angle_gamma                90
_cell_volume                     1190.7
_exptl_crystal_colour            colorless
_exptl_crystal_description       block
_chemical_melting_point          '427-429 K'
_cell_formula_units_Z            4
_exptl_crystal_recrystallization_method ethanol
loop_
_atom_site_label
_atom_site_type_symbol
_atom_site_fract_x
_atom_site_fract_y
_atom_site_fract_z
O1 O 0.05145(10) 0.2748(3) 0.42758(11)
O2 O 0.13278(10) 1.0391(3) 0.64125(11)
O3 O 0.14352(11) 0.7706(3) 0.75759(12)
O4 O 0.33830(10) 1.0311(3) 0.61947(11)
O5 O 0.39181(10) 0.7032(3) 0.69350(12)
N1 N 0.11576(12) 0.6019(3) 0.50527(13)
C1 C 0.26423(14) 0.5652(4) 0.46780(15)
C2 C 0.35446(15) 0.5883(4) 0.45159(17)
H1 H 0.3905 0.7159 0.4782
C3 C 0.39132(15) 0.4204(4) 0.39548(16)
H2 H 0.4532 0.4343 0.3837
C4 C 0.33865(15) 0.2314(4) 0.35611(16)
H3 H 0.3653 0.1173 0.3188
C5 C 0.24757(14) 0.2102(4) 0.37151(15)
H4 H 0.2110 0.0843 0.3442
C6 C 0.21144(13) 0.3782(4) 0.42790(15)
C7 C 0.11729(14) 0.4042(4) 0.45225(15)
C8 C 0.20448(14) 0.7178(4) 0.52367(15)
H5 H 0.2016 0.8846 0.4997
C9 C 0.23416(14) 0.7139(4) 0.63007(15)
H6 H 0.2356 0.5439 0.6503
C10 C 0.16586(14) 0.8413(4) 0.68443(16)
C11 C 0.05991(15) 1.1606(4) 0.68311(17)
H7 H 0.0035 1.0682 0.6719
H8 H 0.0505 1.3184 0.6551
H9 H 0.0767 1.1767 0.7505
C12 C 0.33009(14) 0.8123(4) 0.65234(15)
C13 C 0.42954(15) 1.1323(4) 0.63307(18)
H10 H 0.4534 1.1199 0.6990
H11 H 0.4271 1.2997 0.6144
H12 H 0.4696 1.0454 0.5949
H13 H 0.0602(19) 0.655(5) 0.530(2)
loop_
_geom_bond_atom_site_label_1
_geom_bond_atom_site_label_2
_geom_bond_site_symmetry_1
_geom_bond_site_symmetry_2
O1 C7 1_555 1_555
O2 C10 1_555 1_555
O3 C10 1_555 1_555
O4 C12 1_555 1_555
O5 C12 1_555 1_555
N1 C7 1_555 1_555
C1 C2 1_555 1_555
C2 H1 1_555 1_555
C3 C2 1_555 1_555
H2 C3 1_555 1_555
C4 C3 1_555 1_555
H3 C4 1_555 1_555
C5 C4 1_555 1_555
H4 C5 1_555 1_555
C6 C1 1_555 1_555
C7 C6 1_555 1_555
C8 N1 1_555 1_555
H5 C8 1_555 1_555
C9 C8 1_555 1_555
H6 C9 1_555 1_555
C10 C9 1_555 1_555
C11 O2 1_555 1_555
H7 C11 1_555 1_555
H8 C11 1_555 1_555
H9 C11 1_555 1_555
C12 C9 1_555 1_555
C13 O4 1_555 1_555
H10 C13 1_555 1_555
H11 C13 1_555 1_555
H12 C13 1_555 1_555
H13 N1 1_555 1_555
C1 C8 1_555 1_555
C5 C6 1_555 1_555

#END
