
#######################################################################
#
#                 Cambridge Crystallographic Data Centre
#                                CCDC 
#
#######################################################################
#
# If this CIF has been generated from an entry in the Cambridge 
# Structural Database, then it will include bibliographic, chemical, 
# crystal, experimental, refinement or atomic coordinate data resulting 
# from the CCDC's data processing and validation procedures.
#
#######################################################################

data_BUHCUE
_chemical_formula_moiety         'C22 H24 O5'
_chemical_name_systematic        
't-Butyl 3,3-dimethyl-1,6-dioxo-1,2,3,4,6,10b-hexahydro-5aH-benzo[b]indeno[1,2-d]furan-5a-carboxylate'
_symmetry_cell_setting           monoclinic
_symmetry_space_group_name_H-M   'P 21/n'
_symmetry_Int_Tables_number      14
_space_group_name_Hall           '-P 2yn'
loop_
_symmetry_equiv_pos_site_id
_symmetry_equiv_pos_as_xyz
1 x,y,z
2 1/2-x,1/2+y,1/2-z
3 -x,-y,-z
4 1/2+x,1/2-y,1/2+z
_cell_length_a                   6.1369(12)
_cell_length_b                   30.737(6)
_cell_length_c                   10.545(2)
_cell_angle_alpha                90
_cell_angle_beta                 92.98(3)
_cell_angle_gamma                90
_cell_volume                     1986.41
_chemical_melting_point          '139-140 deg.C'
_cell_formula_units_Z            4
loop_
_atom_site_label
_atom_site_type_symbol
_atom_site_fract_x
_atom_site_fract_y
_atom_site_fract_z
O1 O 1.24235(17) 0.20119(4) 0.35315(11)
O2 O 0.64914(15) 0.17375(3) 0.59427(9)
O3 O 0.40316(17) 0.08925(4) 0.54279(11)
O4 O 0.7997(2) 0.12356(4) 0.79535(10)
O5 O 0.89377(16) 0.07000(3) 0.66020(9)
C1 C 1.0926(2) 0.21565(5) 0.41424(15)
C2 C 1.0601(2) 0.26382(5) 0.43612(16)
H1 H 1.1240 0.2798 0.3679
H2 H 1.1383 0.2720 0.5148
C3 C 0.8202(2) 0.27769(5) 0.44305(15)
C4 C 0.8091(3) 0.32590(6) 0.4776(2)
H3 H 0.8750 0.3303 0.5612
H4 H 0.6594 0.3350 0.4759
H5 H 0.8860 0.3427 0.4174
C5 C 0.7015(3) 0.27040(6) 0.31356(15)
H6 H 0.5527 0.2798 0.3168
H7 H 0.7051 0.2400 0.2925
H8 H 0.7724 0.2868 0.2501
C6 C 0.7129(2) 0.25075(5) 0.54640(15)
H9 H 0.7601 0.2617 0.6296
H10 H 0.5556 0.2537 0.5368
C7 C 0.7732(2) 0.20423(5) 0.53662(13)
C8 C 0.9375(2) 0.18777(5) 0.47375(14)
C9 C 0.9210(2) 0.13877(5) 0.47192(13)
H11 H 1.0592 0.1245 0.4977
C10 C 0.8212(2) 0.12125(5) 0.34779(14)
C11 C 0.9042(3) 0.12400(5) 0.22756(15)
H12 H 1.0388 0.1369 0.2162
C12 C 0.7821(3) 0.10715(6) 0.12617(16)
H13 H 0.8353 0.1089 0.0454
C13 C 0.5816(3) 0.08762(6) 0.14140(17)
H14 H 0.5036 0.0761 0.0713
C14 C 0.4973(3) 0.08522(6) 0.25957(17)
H15 H 0.3623 0.0724 0.2703
C15 C 0.6185(2) 0.10235(5) 0.36188(14)
C16 C 0.5614(3) 0.10458(5) 0.49468(15)
C17 C 0.7416(2) 0.13111(5) 0.56764(14)
C18 C 0.8141(2) 0.10878(5) 0.69086(15)
C19 C 0.9779(2) 0.03828(5) 0.75684(14)
C20 C 1.1664(3) 0.05811(6) 0.83561(16)
H16 H 1.2685 0.0708 0.7803
H17 H 1.2379 0.0359 0.8864
H18 H 1.1122 0.0802 0.8899
C21 C 0.7921(3) 0.02370(6) 0.83566(16)
H19 H 0.7453 0.0476 0.8861
H20 H 0.8406 0.0003 0.8904
H21 H 0.6726 0.0140 0.7805
C22 C 1.0560(3) 0.00129(6) 0.67571(16)
H22 H 0.9361 -0.0096 0.6228
H23 H 1.1130 -0.0217 0.7296
H24 H 1.1684 0.0117 0.6234
loop_
_geom_bond_atom_site_label_1
_geom_bond_atom_site_label_2
_geom_bond_site_symmetry_1
_geom_bond_site_symmetry_2
O1 C1 1_555 1_555
O2 C7 1_555 1_555
O3 C16 1_555 1_555
O4 C18 1_555 1_555
O5 C18 1_555 1_555
C1 C2 1_555 1_555
C2 H1 1_555 1_555
H2 C2 1_555 1_555
C3 C2 1_555 1_555
C4 C3 1_555 1_555
H3 C4 1_555 1_555
H4 C4 1_555 1_555
H5 C4 1_555 1_555
C5 C3 1_555 1_555
H6 C5 1_555 1_555
H7 C5 1_555 1_555
H8 C5 1_555 1_555
C6 C3 1_555 1_555
H9 C6 1_555 1_555
H10 C6 1_555 1_555
C7 C6 1_555 1_555
C8 C1 1_555 1_555
C9 C8 1_555 1_555
H11 C9 1_555 1_555
C10 C9 1_555 1_555
C11 C10 1_555 1_555
H12 C11 1_555 1_555
C12 C11 1_555 1_555
H13 C12 1_555 1_555
C13 C12 1_555 1_555
H14 C13 1_555 1_555
C14 C13 1_555 1_555
H15 C14 1_555 1_555
C15 C10 1_555 1_555
C16 C15 1_555 1_555
C17 O2 1_555 1_555
C18 C17 1_555 1_555
C19 O5 1_555 1_555
C20 C19 1_555 1_555
H16 C20 1_555 1_555
H17 C20 1_555 1_555
H18 C20 1_555 1_555
C21 C19 1_555 1_555
H19 C21 1_555 1_555
H20 C21 1_555 1_555
H21 C21 1_555 1_555
C22 C19 1_555 1_555
H22 C22 1_555 1_555
H23 C22 1_555 1_555
H24 C22 1_555 1_555
C7 C8 1_555 1_555
C9 C17 1_555 1_555
C14 C15 1_555 1_555
C16 C17 1_555 1_555

#END
