
#######################################################################
#
#                 Cambridge Crystallographic Data Centre
#                                CCDC 
#
#######################################################################
#
# If this CIF has been generated from an entry in the Cambridge 
# Structural Database, then it will include bibliographic, chemical, 
# crystal, experimental, refinement or atomic coordinate data resulting 
# from the CCDC's data processing and validation procedures.
#
#######################################################################

data_BUHFOZ
_chemical_formula_moiety         'C8 H12 O4'
_chemical_name_systematic        '2-Cyclopentyl propanedioic acid'
_symmetry_cell_setting           triclinic
_symmetry_space_group_name_H-M   'P -1'
_symmetry_Int_Tables_number      2
_space_group_name_Hall           '-P 1'
loop_
_symmetry_equiv_pos_site_id
_symmetry_equiv_pos_as_xyz
1 x,y,z
2 -x,-y,-z
_cell_length_a                   4.877(1)
_cell_length_b                   8.184(1)
_cell_length_c                   11.287(1)
_cell_angle_alpha                88.43(1)
_cell_angle_beta                 86.27(1)
_cell_angle_gamma                85.32(2)
_cell_volume                     447.939
_cell_formula_units_Z            2
loop_
_atom_site_label
_atom_site_type_symbol
_atom_site_fract_x
_atom_site_fract_y
_atom_site_fract_z
C1 C 0.64580 0.88900 0.63840
C3 C 0.64520 0.89350 0.85580
C5 C 0.83290 0.53920 0.86500
C7 C 0.98620 0.36950 0.70500
O9 O 0.45860 0.83450 0.58740
O11 O 0.78800 0.92610 0.93520
H2 H 0.96900 0.81700 0.74000
H51 H 0.69500 0.55200 0.93500
H61 H 0.70500 0.30600 0.83200
H71 H 0.94000 0.27500 0.65900
H81 H 0.73300 0.50100 0.59200
H10 H 0.67600 1.07900 0.53200
C2 C 0.76470 0.80870 0.74600
C4 C 0.71810 0.62510 0.75440
C6 C 0.88780 0.36300 0.82910
C8 C 0.86740 0.52960 0.65040
O10 O 0.75220 1.02000 0.60290
O12 O 0.38540 0.92640 0.86070
H4 H 0.51500 0.61400 0.74400
H52 H 1.00800 0.58500 0.88500
H62 H 1.01800 0.29800 0.87600
H72 H 1.19700 0.37200 0.70000
H82 H 1.01500 0.59000 0.61000
H12 H 0.30400 0.98100 0.93100
loop_
_geom_bond_atom_site_label_1
_geom_bond_atom_site_label_2
_geom_bond_site_symmetry_1
_geom_bond_site_symmetry_2
C1 O9 1_555 1_555
C3 O11 1_555 1_555
C5 H51 1_555 1_555
C7 H71 1_555 1_555
H2 C2 1_555 1_555
H61 C6 1_555 1_555
H81 C8 1_555 1_555
H10 O10 1_555 1_555
C2 C1 1_555 1_555
C4 C5 1_555 1_555
C6 C5 1_555 1_555
C8 C7 1_555 1_555
O10 C1 1_555 1_555
O12 C3 1_555 1_555
H4 C4 1_555 1_555
H52 C5 1_555 1_555
H62 C6 1_555 1_555
H72 C7 1_555 1_555
H82 C8 1_555 1_555
H12 O12 1_555 1_555
C3 C2 1_555 1_555
C7 C6 1_555 1_555
C2 C4 1_555 1_555
C4 C8 1_555 1_555

#END
