
#######################################################################
#
#                 Cambridge Crystallographic Data Centre
#                                CCDC 
#
#######################################################################
#
# If this CIF has been generated from an entry in the Cambridge 
# Structural Database, then it will include bibliographic, chemical, 
# crystal, experimental, refinement or atomic coordinate data resulting 
# from the CCDC's data processing and validation procedures.
#
#######################################################################

data_BUHQEA
_chemical_formula_moiety         'C14 H23 N2 P1'
_chemical_name_systematic        
rac-3,5-Di-isopropyl-4-phenyl-1,2,4-diazaphospholane
_symmetry_cell_setting           triclinic
_symmetry_space_group_name_H-M   'P -1'
_symmetry_Int_Tables_number      2
_space_group_name_Hall           '-P 1'
loop_
_symmetry_equiv_pos_site_id
_symmetry_equiv_pos_as_xyz
1 x,y,z
2 -x,-y,-z
_cell_length_a                   11.3520(10)
_cell_length_b                   11.9918(11)
_cell_length_c                   12.0767(11)
_cell_angle_alpha                73.037(2)
_cell_angle_beta                 69.924(2)
_cell_angle_gamma                82.249(2)
_cell_volume                     1475.84
_cell_formula_units_Z            4
loop_
_atom_site_label
_atom_site_type_symbol
_atom_site_fract_x
_atom_site_fract_y
_atom_site_fract_z
P1 P 1.31473(5) 0.16343(5) -0.29780(5)
N1 N 1.07826(16) 0.19652(15) -0.14658(16)
H1 H 1.0636(5) 0.2350(3) -0.0871(2)
N2 N 1.09243(16) 0.28224(15) -0.26236(16)
H2 H 1.0587(4) 0.2540(4) -0.3077(2)
C1 C 1.19270(19) 0.11799(18) -0.14533(19)
H5 H 1.1694 0.0371 -0.1347
C2 C 1.22489(19) 0.30637(17) -0.32816(19)
H6 H 1.2500 0.3585 -0.2895
C3 C 1.2347(2) 0.1156(2) -0.0373(2)
H7 H 1.2576 0.1962 -0.0463
C4 C 1.3492(2) 0.0336(3) -0.0335(2)
H8 H 1.3705 0.0303 0.0396
H9 H 1.4204 0.0625 -0.1066
H10 H 1.3304 -0.0447 -0.0308
C5 C 1.1278(2) 0.0780(2) 0.0829(2)
H11 H 1.1573 0.0732 0.1515
H12 H 1.1001 0.0015 0.0902
H13 H 1.0574 0.1353 0.0839
C6 C 1.2470(2) 0.37111(18) -0.4618(2)
H14 H 1.2241 0.3188 -0.5018
C7 C 1.3844(2) 0.3992(2) -0.5276(3)
H15 H 1.3958 0.4409 -0.6133
H16 H 1.4359 0.3265 -0.5238
H17 H 1.4101 0.4482 -0.4882
C8 C 1.1639(3) 0.4824(2) -0.4754(2)
H18 H 1.1807 0.5222 -0.5623
H19 H 1.1823 0.5342 -0.4343
H20 H 1.0754 0.4624 -0.4383
C9 C 1.2652(2) 0.08966(17) -0.38693(19)
C10 C 1.1479(2) 0.04237(19) -0.3520(2)
H21 H 1.0863 0.0486 -0.2772
C11 C 1.1205(3) -0.0133(2) -0.4249(2)
H22 H 1.0406 -0.0457 -0.3996
C12 C 1.2083(3) -0.0222(2) -0.5339(3)
H23 H 1.1888 -0.0605 -0.5838
C13 C 1.3245(3) 0.0242(2) -0.5708(2)
H24 H 1.3849 0.0188 -0.6464
C14 C 1.3526(2) 0.07860(18) -0.4971(2)
H25 H 1.4334 0.1091 -0.5222
P2 P 0.69512(5) 0.41850(4) -0.00491(5)
N3 N 0.93644(15) 0.37407(14) 0.00396(15)
H3 H 0.9492(4) 0.4059(4) 0.05947(19)
N4 N 0.94409(15) 0.46556(14) -0.10690(15)
H4 H 0.9652(4) 0.4319(3) -0.17094(18)
C15 C 0.81221(18) 0.31959(16) 0.05936(18)
H26 H 0.8211 0.2458 0.0340
C16 C 0.82048(18) 0.52751(16) -0.09508(18)
H27 H 0.8131 0.5814 -0.0433
C17 C 0.7708(2) 0.28681(18) 0.19949(19)
H28 H 0.8421 0.2416 0.2252
C18 C 0.6595(2) 0.2081(2) 0.2535(2)
H29 H 0.6405 0.1804 0.3423
H30 H 0.6798 0.1412 0.2183
H31 H 0.5863 0.2520 0.2347
C19 C 0.7397(2) 0.3930(2) 0.2515(2)
H32 H 0.7198 0.3671 0.3406
H33 H 0.6672 0.4369 0.2313
H34 H 0.8120 0.4431 0.2162
C20 C 0.8101(2) 0.60455(17) -0.21699(19)
H35 H 0.8134 0.5526 -0.2696
C21 C 0.9183(2) 0.6875(2) -0.2841(2)
H36 H 0.9079 0.7358 -0.3612
H37 H 0.9980 0.6422 -0.3010
H38 H 0.9185 0.7377 -0.2330
C22 C 0.6850(2) 0.6732(2) -0.1977(2)
H39 H 0.6163 0.6189 -0.1620
H40 H 0.6806 0.7235 -0.2765
H41 H 0.6775 0.7213 -0.1424
C23 C 0.68428(19) 0.35022(16) -0.11847(18)
C24 C 0.5711(2) 0.36785(18) -0.1435(2)
H42 H 0.5057 0.4146 -0.1031
C25 C 0.5522(2) 0.3186(2) -0.2259(2)
H43 H 0.4742 0.3318 -0.2414
C26 C 0.6456(2) 0.2505(2) -0.2860(2)
H44 H 0.6327 0.2167 -0.3426
C27 C 0.7587(2) 0.2325(2) -0.2621(2)
H45 H 0.8242 0.1863 -0.3034
C28 C 0.7774(2) 0.28070(18) -0.1791(2)
H46 H 0.8551 0.2662 -0.1630
loop_
_geom_bond_atom_site_label_1
_geom_bond_atom_site_label_2
_geom_bond_site_symmetry_1
_geom_bond_site_symmetry_2
P1 C1 1_555 1_555
P2 C15 1_555 1_555
N1 H1 1_555 1_555
N2 N1 1_555 1_555
H2 N2 1_555 1_555
N3 H3 1_555 1_555
N4 N3 1_555 1_555
H4 N4 1_555 1_555
C1 N1 1_555 1_555
H5 C1 1_555 1_555
C2 P1 1_555 1_555
H6 C2 1_555 1_555
C3 C1 1_555 1_555
H7 C3 1_555 1_555
C4 C3 1_555 1_555
H8 C4 1_555 1_555
H9 C4 1_555 1_555
H10 C4 1_555 1_555
C5 C3 1_555 1_555
H11 C5 1_555 1_555
H12 C5 1_555 1_555
H13 C5 1_555 1_555
C6 C2 1_555 1_555
H14 C6 1_555 1_555
C7 C6 1_555 1_555
H15 C7 1_555 1_555
H16 C7 1_555 1_555
H17 C7 1_555 1_555
C8 C6 1_555 1_555
H18 C8 1_555 1_555
H19 C8 1_555 1_555
H20 C8 1_555 1_555
C9 P1 1_555 1_555
C10 C9 1_555 1_555
H21 C10 1_555 1_555
C11 C10 1_555 1_555
H22 C11 1_555 1_555
C12 C11 1_555 1_555
H23 C12 1_555 1_555
C13 C12 1_555 1_555
H24 C13 1_555 1_555
C14 C9 1_555 1_555
H25 C14 1_555 1_555
C15 N3 1_555 1_555
H26 C15 1_555 1_555
C16 P2 1_555 1_555
H27 C16 1_555 1_555
C17 C15 1_555 1_555
H28 C17 1_555 1_555
C18 C17 1_555 1_555
H29 C18 1_555 1_555
H30 C18 1_555 1_555
H31 C18 1_555 1_555
C19 C17 1_555 1_555
H32 C19 1_555 1_555
H33 C19 1_555 1_555
H34 C19 1_555 1_555
C20 C16 1_555 1_555
H35 C20 1_555 1_555
C21 C20 1_555 1_555
H36 C21 1_555 1_555
H37 C21 1_555 1_555
H38 C21 1_555 1_555
C22 C20 1_555 1_555
H39 C22 1_555 1_555
H40 C22 1_555 1_555
H41 C22 1_555 1_555
C23 P2 1_555 1_555
C24 C23 1_555 1_555
H42 C24 1_555 1_555
C25 C24 1_555 1_555
H43 C25 1_555 1_555
C26 C25 1_555 1_555
H44 C26 1_555 1_555
C27 C26 1_555 1_555
H45 C27 1_555 1_555
C28 C23 1_555 1_555
H46 C28 1_555 1_555
N2 C2 1_555 1_555
N4 C16 1_555 1_555
C13 C14 1_555 1_555
C27 C28 1_555 1_555

#END
