
#######################################################################
#
#                 Cambridge Crystallographic Data Centre
#                                CCDC 
#
#######################################################################
#
# If this CIF has been generated from an entry in the Cambridge 
# Structural Database, then it will include bibliographic, chemical, 
# crystal, experimental, refinement or atomic coordinate data resulting 
# from the CCDC's data processing and validation procedures.
#
#######################################################################

data_BUHWIL
_chemical_formula_moiety         'C32 H23 Cl2 N1 Te1'
_chemical_name_systematic        
2-(Dichloro(1-naphthyl)-\l^4^-tellanyl)-4-methyl-N-(9-phenanthrylmethylene)aniline
_symmetry_cell_setting           monoclinic
_symmetry_space_group_name_H-M   'C 2/c'
_symmetry_Int_Tables_number      15
_space_group_name_Hall           '-C 2yn'
loop_
_symmetry_equiv_pos_site_id
_symmetry_equiv_pos_as_xyz
1 x,y,z
2 -x,y,1/2-z
3 1/2+x,1/2+y,z
4 1/2-x,1/2+y,1/2-z
5 -x,-y,-z
6 x,-y,1/2+z
7 1/2-x,1/2-y,-z
8 1/2+x,1/2-y,1/2+z
_cell_length_a                   33.392(10)
_cell_length_b                   7.634(2)
_cell_length_c                   20.101(6)
_cell_angle_alpha                90
_cell_angle_beta                 100.667(7)
_cell_angle_gamma                90
_cell_volume                     5035.49
_exptl_crystal_colour            yellow
_chemical_melting_point          191-192deg.C
_cell_formula_units_Z            8
loop_
_atom_site_label
_atom_site_type_symbol
_atom_site_fract_x
_atom_site_fract_y
_atom_site_fract_z
C1 C 0.90969(16) -0.0827(8) 0.6581(3)
H1 H 0.9145 -0.1157 0.6158
C2 C 0.94063(17) -0.0865(8) 0.7120(3)
H2 H 0.9667 -0.1165 0.7060
C3 C 0.93372(19) -0.0457(8) 0.7770(3)
H3 H 0.9547 -0.0565 0.8143
C4 C 0.89586(16) 0.0103(7) 0.7854(3)
H4 H 0.8915 0.0403 0.8284
C5 C 0.81523(17) 0.1547(7) 0.7967(3)
H5 H 0.8359 0.1546 0.8348
C6 C 0.77760(17) 0.2230(7) 0.8010(3)
H6 H 0.7731 0.2693 0.8418
C7 C 0.74624(17) 0.2232(7) 0.7447(3)
H7 H 0.7209 0.2701 0.7476
C8 C 0.75309(16) 0.1537(7) 0.6849(3)
H8 H 0.7319 0.1527 0.6477
C9 C 0.79891(17) 0.0211(7) 0.6139(3)
C10 C 0.83789(16) -0.0297(7) 0.6091(3)
H9 H 0.8430 -0.0654 0.5673
C11 C 0.87030(16) -0.0295(7) 0.6653(3)
C12 C 0.86373(17) 0.0225(7) 0.7300(3)
C13 C 0.82283(16) 0.0851(7) 0.7355(3)
C14 C 0.79067(16) 0.0846(7) 0.6778(3)
C15 C 0.76943(14) 0.0072(7) 0.5508(3)
H10 H 0.7799 -0.0186 0.5121
C16 C 0.70714(14) 0.0179(6) 0.4764(3)
C17 C 0.66436(13) 0.0184(6) 0.4723(3)
C18 C 0.63780(16) 0.0052(6) 0.4103(3)
H11 H 0.6098 0.0011 0.4088
C19 C 0.65315(16) -0.0016(6) 0.3508(3)
C20 C 0.69486(17) 0.0017(7) 0.3545(3)
H12 H 0.7053 -0.0030 0.3147
C21 C 0.72135(16) 0.0117(7) 0.4156(3)
H13 H 0.7493 0.0145 0.4163
C22 C 0.62466(18) -0.0089(7) 0.2833(3)
H14 H 0.5970 -0.0102 0.2902
H15 H 0.6299 -0.1131 0.2596
H16 H 0.6289 0.0921 0.2570
C23 C 0.58466(15) 0.1370(7) 0.5352(3)
C24 C 0.57754(17) 0.2539(7) 0.4828(3)
H17 H 0.5986 0.2874 0.4611
C25 C 0.53850(16) 0.3230(7) 0.4621(3)
H18 H 0.5333 0.3983 0.4251
C26 C 0.50775(17) 0.2801(7) 0.4963(3)
H19 H 0.4818 0.3255 0.4818
C27 C 0.48398(19) 0.1291(8) 0.5890(3)
H20 H 0.4581 0.1758 0.5747
C28 C 0.49128(19) 0.0224(8) 0.6450(3)
H21 H 0.4708 0.0008 0.6696
C29 C 0.53006(16) -0.0539(8) 0.6647(3)
H22 H 0.5349 -0.1278 0.7021
C30 C 0.56064(18) -0.0215(8) 0.6300(3)
H23 H 0.5859 -0.0746 0.6440
C31 C 0.55491(17) 0.0906(7) 0.5734(3)
C32 C 0.51500(15) 0.1684(7) 0.5530(3)
N1 N 0.72999(14) 0.0271(5) 0.5426(2)
Cl1 Cl 0.66759(4) 0.33932(17) 0.57794(7)
Cl2 Cl 0.61333(4) -0.26692(16) 0.53493(7)
Te1 Te 0.644685(10) 0.03279(4) 0.565248(17)
loop_
_geom_bond_atom_site_label_1
_geom_bond_atom_site_label_2
_geom_bond_site_symmetry_1
_geom_bond_site_symmetry_2
C1 H1 1_555 1_555
C2 C1 1_555 1_555
H2 C2 1_555 1_555
C3 C2 1_555 1_555
H3 C3 1_555 1_555
C4 C3 1_555 1_555
H4 C4 1_555 1_555
C5 H5 1_555 1_555
C6 C5 1_555 1_555
H6 C6 1_555 1_555
C7 C6 1_555 1_555
H7 C7 1_555 1_555
C8 C7 1_555 1_555
H8 C8 1_555 1_555
C9 C10 1_555 1_555
C10 H9 1_555 1_555
C11 C1 1_555 1_555
C12 C4 1_555 1_555
C13 C5 1_555 1_555
C14 C8 1_555 1_555
C15 C9 1_555 1_555
H10 C15 1_555 1_555
C16 C17 1_555 1_555
C17 C18 1_555 1_555
C18 H11 1_555 1_555
C19 C18 1_555 1_555
C20 C19 1_555 1_555
H12 C20 1_555 1_555
C21 C16 1_555 1_555
H13 C21 1_555 1_555
C22 C19 1_555 1_555
H14 C22 1_555 1_555
H15 C22 1_555 1_555
H16 C22 1_555 1_555
C23 C24 1_555 1_555
C24 H17 1_555 1_555
C25 C24 1_555 1_555
H18 C25 1_555 1_555
C26 C25 1_555 1_555
H19 C26 1_555 1_555
C27 H20 1_555 1_555
C28 C27 1_555 1_555
H21 C28 1_555 1_555
C29 C28 1_555 1_555
H22 C29 1_555 1_555
C30 C29 1_555 1_555
H23 C30 1_555 1_555
C31 C23 1_555 1_555
C32 C26 1_555 1_555
N1 C15 1_555 1_555
Cl1 Te1 1_555 1_555
Cl2 Te1 1_555 1_555
Te1 C17 1_555 1_555
C9 C14 1_555 1_555
C10 C11 1_555 1_555
C11 C12 1_555 1_555
C12 C13 1_555 1_555
C13 C14 1_555 1_555
C16 N1 1_555 1_555
C20 C21 1_555 1_555
C23 Te1 1_555 1_555
C27 C32 1_555 1_555
C30 C31 1_555 1_555
C31 C32 1_555 1_555

#END
