
#######################################################################
#
#                 Cambridge Crystallographic Data Centre
#                                CCDC 
#
#######################################################################
#
# If this CIF has been generated from an entry in the Cambridge 
# Structural Database, then it will include bibliographic, chemical, 
# crystal, experimental, refinement or atomic coordinate data resulting 
# from the CCDC's data processing and validation procedures.
#
#######################################################################

data_BUHWAD
_chemical_formula_moiety         'C29 H23 Cl2 N1 O1 Te1'
_chemical_name_systematic        
N-(9-Anthrylmethylene)-2-(dichloro(4-methoxyphenyl)-\l^4^-tellanyl)-4-methylaniline
_symmetry_cell_setting           triclinic
_symmetry_space_group_name_H-M   'P -1'
_symmetry_Int_Tables_number      2
_space_group_name_Hall           '-P 1'
loop_
_symmetry_equiv_pos_site_id
_symmetry_equiv_pos_as_xyz
1 x,y,z
2 -x,-y,-z
_cell_length_a                   8.990(5)
_cell_length_b                   10.213(5)
_cell_length_c                   13.234(5)
_cell_angle_alpha                91.644(5)
_cell_angle_beta                 93.221(5)
_cell_angle_gamma                95.517(5)
_cell_volume                     1206.83
_exptl_crystal_colour            red
_chemical_melting_point          179deg.C
_cell_formula_units_Z            2
loop_
_atom_site_label
_atom_site_type_symbol
_atom_site_fract_x
_atom_site_fract_y
_atom_site_fract_z
Te1 Te 0.19855(4) 0.28939(4) 0.83834(3)
Cl1 Cl 0.06239(17) 0.08021(16) 0.89279(13)
Cl2 Cl 0.3497(2) 0.48751(16) 0.77712(13)
O1 O 0.1355(5) 0.5430(5) 1.2688(4)
C1 C 0.1126(7) -0.0279(6) 0.3768(5)
H1 H 0.0496 -0.0366 0.3183
C2 C 0.5944(7) 0.1637(6) 1.0043(5)
C3 C 0.2214(8) 0.0797(7) 0.3892(5)
C4 C 0.0750(8) -0.3177(7) 0.5939(5)
H2 H 0.0704 -0.3850 0.6398
N1 N 0.3796(6) 0.1277(5) 0.7106(4)
C5 C 0.6596(7) 0.0972(6) 0.9277(5)
H3 H 0.7488 0.0606 0.9424
C6 C 0.5949(8) 0.0844(7) 0.8307(5)
H4 H 0.6411 0.0396 0.7809
C7 C 0.1960(7) -0.1088(6) 0.5400(4)
C8 C 0.0571(7) 0.3399(7) 1.0400(5)
H5 H -0.0142 0.2728 1.0156
C9 C 0.2563(8) 0.6255(7) 1.3170(5)
H6 H 0.2305 0.6517 1.3836
H7 H 0.2764 0.7023 1.2779
H8 H 0.3437 0.5785 1.3222
C10 C 0.3158(7) 0.1003(6) 0.4805(5)
C11 C 0.1797(7) -0.2122(6) 0.6111(5)
H9 H 0.2417 -0.2072 0.6700
C12 C 0.2756(7) 0.4854(6) 1.0175(5)
H10 H 0.3524 0.5164 0.9775
C13 C 0.0967(7) -0.1222(6) 0.4503(5)
C14 C 0.1742(8) 0.3837(6) 0.9802(5)
C15 C 0.0472(8) 0.3965(7) 1.1357(5)
H11 H -0.0310 0.3667 1.1749
C16 C 0.2979(7) 0.0037(6) 0.5571(5)
C17 C -0.0164(8) -0.2304(7) 0.4379(5)
H12 H -0.0840 -0.2356 0.3817
C18 C 0.2670(8) 0.5436(7) 1.1134(5)
H13 H 0.3366 0.6125 1.1370
C19 C 0.3832(7) 0.0225(7) 0.6552(5)
H14 H 0.4409 -0.0429 0.6777
C20 C 0.1515(7) 0.4961(6) 1.1733(5)
C21 C 0.4617(6) 0.2197(6) 0.9799(5)
H15 H 0.4158 0.2648 1.0296
C22 C 0.3998(7) 0.2084(6) 0.8836(5)
C23 C 0.2403(8) 0.1727(7) 0.3112(5)
H16 H 0.1779 0.1623 0.2525
C24 C -0.0263(7) -0.3268(7) 0.5082(5)
H17 H -0.0995 -0.3977 0.4993
C25 C 0.3474(9) 0.2760(7) 0.3213(5)
H18 H 0.3605 0.3330 0.2683
C26 C 0.4407(8) 0.2983(7) 0.4127(5)
H19 H 0.5127 0.3702 0.4203
C27 C 0.4209(9) 0.2092(7) 0.4905(6)
H20 H 0.4799 0.2235 0.5505
C28 C 0.6676(7) 0.1807(7) 1.1108(5)
H21 H 0.7571 0.1364 1.1145
H22 H 0.5995 0.1438 1.1582
H23 H 0.6924 0.2727 1.1271
C29 C 0.4617(6) 0.1374(6) 0.8062(5)
loop_
_geom_bond_atom_site_label_1
_geom_bond_atom_site_label_2
_geom_bond_site_symmetry_1
_geom_bond_site_symmetry_2
Te1 Cl1 1_555 1_555
Cl2 Te1 1_555 1_555
O1 C9 1_555 1_555
C1 H1 1_555 1_555
C2 C5 1_555 1_555
C3 C1 1_555 1_555
C4 H2 1_555 1_555
N1 C19 1_555 1_555
C5 H3 1_555 1_555
C6 C5 1_555 1_555
H4 C6 1_555 1_555
C7 C11 1_555 1_555
C8 H5 1_555 1_555
C9 H6 1_555 1_555
H7 C9 1_555 1_555
H8 C9 1_555 1_555
C10 C3 1_555 1_555
C11 C4 1_555 1_555
H9 C11 1_555 1_555
C12 H10 1_555 1_555
C13 C1 1_555 1_555
C14 Te1 1_555 1_555
C15 C8 1_555 1_555
H11 C15 1_555 1_555
C16 C7 1_555 1_555
C17 C13 1_555 1_555
H12 C17 1_555 1_555
C18 C12 1_555 1_555
H13 C18 1_555 1_555
C19 C16 1_555 1_555
H14 C19 1_555 1_555
C20 O1 1_555 1_555
C21 C2 1_555 1_555
H15 C21 1_555 1_555
C22 Te1 1_555 1_555
C23 C3 1_555 1_555
H16 C23 1_555 1_555
C24 C4 1_555 1_555
H17 C24 1_555 1_555
C25 C23 1_555 1_555
H18 C25 1_555 1_555
C26 C25 1_555 1_555
H19 C26 1_555 1_555
C27 C10 1_555 1_555
H20 C27 1_555 1_555
C28 C2 1_555 1_555
H21 C28 1_555 1_555
H22 C28 1_555 1_555
H23 C28 1_555 1_555
C29 N1 1_555 1_555
C6 C29 1_555 1_555
C7 C13 1_555 1_555
C8 C14 1_555 1_555
C10 C16 1_555 1_555
C12 C14 1_555 1_555
C15 C20 1_555 1_555
C17 C24 1_555 1_555
C18 C20 1_555 1_555
C21 C22 1_555 1_555
C22 C29 1_555 1_555
C26 C27 1_555 1_555

#END
