
#######################################################################
#
#                 Cambridge Crystallographic Data Centre
#                                CCDC 
#
#######################################################################
#
# If this CIF has been generated from an entry in the Cambridge 
# Structural Database, then it will include bibliographic, chemical, 
# crystal, experimental, refinement or atomic coordinate data resulting 
# from the CCDC's data processing and validation procedures.
#
#######################################################################

data_BUJKEY
_chemical_name_common            
'dimethyl 2-((4-t-butyl-5-morpholinooxazol-2-yl)(phenyl)methyl)malonate'
_chemical_formula_moiety         'C23 H30 N2 O6'
_chemical_name_systematic        
'dimethyl ((4-t-butyl-5-(morpholin-4-yl)-1,3-oxazol-2-yl)(phenyl)methyl)malonate'
_symmetry_cell_setting           monoclinic
_symmetry_space_group_name_H-M   'P 21'
_symmetry_Int_Tables_number      4
_space_group_name_Hall           'P 2yb'
loop_
_symmetry_equiv_pos_site_id
_symmetry_equiv_pos_as_xyz
1 x,y,z
2 -x,1/2+y,-z
_cell_length_a                   10.8375(4)
_cell_length_b                   9.9410(3)
_cell_length_c                   11.3983(4)
_cell_angle_alpha                90
_cell_angle_beta                 101.181(4)
_cell_angle_gamma                90
_cell_volume                     1204.69
_exptl_crystal_colour            'light colorless'
_cell_formula_units_Z            2
_exptl_crystal_recrystallization_method 'ethyl acetate/petroleum ether'
loop_
_atom_site_label
_atom_site_type_symbol
_atom_site_fract_x
_atom_site_fract_y
_atom_site_fract_z
O1 O 0.6993(2) 0.4559(2) 0.3376(2)
N1 N 0.8599(3) 0.3036(3) 0.3061(3)
N2 N 0.7183(3) 0.6263(3) 0.2155(3)
O2 O 0.3395(3) 0.9062(3) 0.2767(3)
O3 O 0.9296(4) 0.0418(4) 0.3876(3)
O4 O 0.4277(4) 0.5284(4) 0.1246(3)
O5 O 0.2844(4) 0.7030(4) 0.3264(5)
C1 C 0.8001(4) 0.4263(3) 0.2799(3)
C2 C 0.6574(3) 0.5761(3) 0.2930(3)
C3 C 0.8109(4) 0.5307(4) 0.2068(3)
C4 C 0.5924(3) 0.7148(4) 0.4520(4)
C5 C 0.4709(4) 0.7273(4) 0.2412(4)
H1 H 0.5218 0.8061 0.2305
C6 C 0.9167(5) 0.2798(4) 0.4309(4)
H2 H 0.8516 0.2658 0.4774
H3 H 0.9664 0.3571 0.4634
O6 O 0.3954(7) 0.7243(6) 0.0297(4)
C7 C 0.5481(3) 0.6366(4) 0.3366(3)
H4 H 0.4938 0.5632 0.3535
C8 C 0.3524(4) 0.7755(4) 0.2857(4)
C9 C 0.5388(5) 0.6885(5) 0.5510(4)
H5 H 0.4765 0.6234 0.5473
C10 C 0.6850(4) 0.8127(5) 0.4600(5)
H6 H 0.7202 0.8312 0.3936
C11 C 0.7253(5) 0.8826(6) 0.5641(6)
H7 H 0.7874 0.9479 0.5679
C12 C 0.4266(5) 0.6615(5) 0.1202(4)
C13 C 0.7870(5) 0.1867(5) 0.2574(4)
H8 H 0.7504 0.2018 0.1739
H9 H 0.7192 0.1717 0.3004
C14 C 0.5803(6) 0.7617(7) 0.6564(5)
H10 H 0.5439 0.7459 0.7226
C15 C 0.9006(4) 0.5557(5) 0.1228(4)
C16 C 0.9997(5) 0.1562(5) 0.4378(5)
H11 H 1.0673 0.1731 0.3951
H12 H 1.0369 0.1380 0.5208
C17 C 0.8715(6) 0.0660(5) 0.2694(5)
H13 H 0.8836 0.0133 0.2052
C18 C 0.6736(6) 0.8561(7) 0.6632(5)
H14 H 0.7020 0.9021 0.7343
C19 C 0.2316(5) 0.9594(6) 0.3179(5)
H15 H 0.1565 0.9189 0.2736
H16 H 0.2279 1.0551 0.3062
H17 H 0.2388 0.9397 0.4014
C20 C 0.3909(9) 0.4587(8) 0.0146(6)
H18 H 0.4313 0.4985 -0.0448
H19 H 0.3013 0.4644 -0.0110
H20 H 0.4154 0.3660 0.0253
C21 C 0.8279(10) 0.5801(14) -0.0001(6)
H21 H 0.7726 0.5056 -0.0245
H22 H 0.8850 0.5895 -0.0544
H23 H 0.7794 0.6610 -0.0008
C22 C 0.9932(9) 0.4436(11) 0.1232(9)
H24 H 1.0278 0.4185 0.2042
H25 H 1.0596 0.4730 0.0844
H26 H 0.9514 0.3675 0.0812
C23 C 0.9706(10) 0.6848(12) 0.1610(9)
H27 H 0.9354 0.7564 0.1085
H28 H 1.0578 0.6737 0.1573
H29 H 0.9631 0.7063 0.2414
loop_
_geom_bond_atom_site_label_1
_geom_bond_atom_site_label_2
_geom_bond_site_symmetry_1
_geom_bond_site_symmetry_2
O1 C1 1_555 1_555
N1 C1 1_555 1_555
N2 C2 1_555 1_555
O2 C8 1_555 1_555
O3 C16 1_555 1_555
O4 C12 1_555 1_555
O5 C8 1_555 1_555
C1 C3 1_555 1_555
C2 O1 1_555 1_555
C3 N2 1_555 1_555
C4 C7 1_555 1_555
C5 H1 1_555 1_555
C6 N1 1_555 1_555
H2 C6 1_555 1_555
H3 C6 1_555 1_555
O6 C12 1_555 1_555
C7 C2 1_555 1_555
H4 C7 1_555 1_555
C8 C5 1_555 1_555
C9 C4 1_555 1_555
H5 C9 1_555 1_555
C10 C4 1_555 1_555
H6 C10 1_555 1_555
C11 C10 1_555 1_555
H7 C11 1_555 1_555
C12 C5 1_555 1_555
C13 N1 1_555 1_555
H8 C13 1_555 1_555
H9 C13 1_555 1_555
C14 C9 1_555 1_555
H10 C14 1_555 1_555
C15 C3 1_555 1_555
C16 C6 1_555 1_555
H11 C16 1_555 1_555
H12 C16 1_555 1_555
C17 O3 1_555 1_555
H13 C17 1_555 1_555
C18 C11 1_555 1_555
H14 C18 1_555 1_555
C19 O2 1_555 1_555
H15 C19 1_555 1_555
H16 C19 1_555 1_555
H17 C19 1_555 1_555
C20 O4 1_555 1_555
H18 C20 1_555 1_555
H19 C20 1_555 1_555
H20 C20 1_555 1_555
C21 C15 1_555 1_555
H21 C21 1_555 1_555
H22 C21 1_555 1_555
H23 C21 1_555 1_555
C22 C15 1_555 1_555
H24 C22 1_555 1_555
H25 C22 1_555 1_555
H26 C22 1_555 1_555
C23 C15 1_555 1_555
H27 C23 1_555 1_555
H28 C23 1_555 1_555
H29 C23 1_555 1_555
C5 C7 1_555 1_555
C13 C17 1_555 1_555
C14 C18 1_555 1_555

#END
