
#######################################################################
#
#                 Cambridge Crystallographic Data Centre
#                                CCDC 
#
#######################################################################
#
# If this CIF has been generated from an entry in the Cambridge 
# Structural Database, then it will include bibliographic, chemical, 
# crystal, experimental, refinement or atomic coordinate data resulting 
# from the CCDC's data processing and validation procedures.
#
#######################################################################

data_BUJNOL
_chemical_formula_moiety         'C37 H31 N1 O5'
_chemical_name_systematic        
4-((4-benzoyl-6,7-dimethoxy-3-oxo-10-phenyl-1,2,3,4,4a,9,10,10a-octahydrophenanthren-9-yl)carbonyl)benzonitrile
_symmetry_cell_setting           monoclinic
_symmetry_space_group_name_H-M   'P 21/n'
_symmetry_Int_Tables_number      14
_space_group_name_Hall           '-P 2yn'
loop_
_symmetry_equiv_pos_site_id
_symmetry_equiv_pos_as_xyz
1 x,y,z
2 1/2-x,1/2+y,1/2-z
3 -x,-y,-z
4 1/2+x,1/2-y,1/2+z
_cell_length_a                   11.364(5)
_cell_length_b                   10.930(5)
_cell_length_c                   24.447(5)
_cell_angle_alpha                90
_cell_angle_beta                 96.564(5)
_cell_angle_gamma                90
_cell_volume                     3016.62
_exptl_crystal_colour            colorless
_exptl_crystal_description       block
_cell_formula_units_Z            4
loop_
_atom_site_label
_atom_site_type_symbol
_atom_site_fract_x
_atom_site_fract_y
_atom_site_fract_z
C1 C 0.3094(3) 0.6342(3) 0.22420(12)
C2 C 0.3851(2) 0.5632(2) 0.19265(10)
C3 C 0.4265(3) 0.6144(2) 0.14749(13)
H1 H 0.4044 0.6935 0.1367
C4 C 0.5011(2) 0.5482(2) 0.11801(11)
H2 H 0.5299 0.5836 0.0876
C5 C 0.53369(19) 0.43004(18) 0.13304(8)
C6 C 0.4870(2) 0.3788(2) 0.17738(9)
H3 H 0.5050 0.2981 0.1871
C7 C 0.4141(2) 0.4456(2) 0.20757(10)
H4 H 0.3849 0.4107 0.2380
C8 C 0.62303(19) 0.36725(19) 0.10238(8)
C9 C 0.63388(18) 0.22802(17) 0.10146(7)
H5 H 0.5700 0.1938 0.1205
C10 C 0.75401(19) 0.19162(18) 0.13466(7)
H6 H 0.8094 0.2594 0.1316
C11 C 0.80837(19) 0.07652(19) 0.11086(7)
H7 H 0.7529 0.0087 0.1135
C12 C 0.82252(18) 0.09518(18) 0.04975(8)
H8 H 0.8501 0.0175 0.0358
C13 C 0.70438(18) 0.12311(18) 0.01781(7)
C14 C 0.61615(18) 0.18375(17) 0.04179(7)
C15 C 0.7396(2) 0.1765(2) 0.19531(8)
C16 C 0.6664(3) 0.0875(2) 0.21273(9)
H9 H 0.6263 0.0352 0.1870
C17 C 0.6518(3) 0.0747(3) 0.26769(11)
H10 H 0.6013 0.0148 0.2786
C18 C 0.7111(4) 0.1496(4) 0.30593(11)
H11 H 0.7010 0.1409 0.3430
C19 C 0.7847(4) 0.2367(4) 0.29005(12)
H12 H 0.8258 0.2873 0.3162
C20 C 0.7990(3) 0.2506(3) 0.23456(10)
H13 H 0.8495 0.3109 0.2240
C21 C 0.9266(2) 0.0396(2) 0.14226(9)
H14 H 0.9489 -0.0404 0.1297
H15 H 0.9175 0.0331 0.1811
C22 C 1.0258(2) 0.1310(3) 0.13473(9)
H16 H 1.0119 0.2055 0.1545
H17 H 1.1006 0.0969 0.1509
C23 C 1.0350(2) 0.1619(2) 0.07569(9)
C24 C 0.91799(19) 0.1933(2) 0.04147(8)
H18 H 0.8905 0.2717 0.0547
C25 C 0.93425(19) 0.2082(2) -0.01918(9)
C26 C 0.90976(18) 0.3271(2) -0.04779(8)
C27 C 0.9429(2) 0.3406(3) -0.10005(10)
H19 H 0.9812 0.2767 -0.1158
C28 C 0.9199(3) 0.4479(3) -0.12915(12)
H20 H 0.9431 0.4558 -0.1643
C29 C 0.8633(3) 0.5426(3) -0.10665(11)
H21 H 0.8479 0.6148 -0.1263
C30 C 0.8300(3) 0.5302(3) -0.05549(12)
H22 H 0.7913 0.5942 -0.0400
C31 C 0.8532(3) 0.4233(2) -0.02612(10)
H23 H 0.8299 0.4164 0.0090
C32 C 0.67922(19) 0.08150(18) -0.03658(8)
H24 H 0.7375 0.0397 -0.0528
C33 C 0.57133(19) 0.10062(18) -0.06658(7)
C34 C 0.48206(18) 0.16126(18) -0.04196(8)
C35 C 0.50567(18) 0.20185(18) 0.01171(8)
H25 H 0.4467 0.2421 0.0281
C36 C 0.2810(2) 0.2283(2) -0.04937(9)
H26 H 0.2706 0.1850 -0.0161
H27 H 0.2096 0.2234 -0.0743
H28 H 0.2989 0.3125 -0.0409
C37 C 0.6336(2) 0.0065(3) -0.14628(10)
H29 H 0.6999 0.0612 -0.1451
H30 H 0.6049 -0.0112 -0.1839
H31 H 0.6578 -0.0681 -0.1275
N1 N 0.2503(3) 0.6901(3) 0.24909(12)
O1 O 0.37607(13) 0.17493(14) -0.07425(5)
O2 O 0.54139(14) 0.06261(15) -0.11983(5)
O3 O 0.68990(17) 0.42928(14) 0.07865(7)
O4 O 1.12916(15) 0.16653(17) 0.05729(7)
O5 O 0.96606(16) 0.12074(16) -0.04432(6)
loop_
_geom_bond_atom_site_label_1
_geom_bond_atom_site_label_2
_geom_bond_site_symmetry_1
_geom_bond_site_symmetry_2
C1 C2 1_555 1_555
C2 C3 1_555 1_555
C3 H1 1_555 1_555
C4 C3 1_555 1_555
H2 C4 1_555 1_555
C5 C4 1_555 1_555
C6 C5 1_555 1_555
H3 C6 1_555 1_555
C7 C2 1_555 1_555
H4 C7 1_555 1_555
C8 C5 1_555 1_555
C9 C8 1_555 1_555
H5 C9 1_555 1_555
C10 C9 1_555 1_555
H6 C10 1_555 1_555
C11 C10 1_555 1_555
H7 C11 1_555 1_555
C12 C11 1_555 1_555
H8 C12 1_555 1_555
C13 C12 1_555 1_555
C14 C9 1_555 1_555
C15 C10 1_555 1_555
C16 C15 1_555 1_555
H9 C16 1_555 1_555
C17 C16 1_555 1_555
H10 C17 1_555 1_555
C18 C17 1_555 1_555
H11 C18 1_555 1_555
C19 C18 1_555 1_555
H12 C19 1_555 1_555
C20 C15 1_555 1_555
H13 C20 1_555 1_555
C21 C11 1_555 1_555
H14 C21 1_555 1_555
H15 C21 1_555 1_555
C22 C21 1_555 1_555
H16 C22 1_555 1_555
H17 C22 1_555 1_555
C23 C22 1_555 1_555
C24 C12 1_555 1_555
H18 C24 1_555 1_555
C25 C24 1_555 1_555
C26 C25 1_555 1_555
C27 C26 1_555 1_555
H19 C27 1_555 1_555
C28 C27 1_555 1_555
H20 C28 1_555 1_555
C29 C28 1_555 1_555
H21 C29 1_555 1_555
C30 C29 1_555 1_555
H22 C30 1_555 1_555
C31 C26 1_555 1_555
H23 C31 1_555 1_555
C32 C13 1_555 1_555
H24 C32 1_555 1_555
C33 C32 1_555 1_555
C34 C33 1_555 1_555
C35 C14 1_555 1_555
H25 C35 1_555 1_555
C36 H26 1_555 1_555
H27 C36 1_555 1_555
H28 C36 1_555 1_555
C37 H29 1_555 1_555
H30 C37 1_555 1_555
H31 C37 1_555 1_555
N1 C1 1_555 1_555
O1 C34 1_555 1_555
O2 C33 1_555 1_555
O3 C8 1_555 1_555
O4 C23 1_555 1_555
O5 C25 1_555 1_555
C6 C7 1_555 1_555
C13 C14 1_555 1_555
C19 C20 1_555 1_555
C23 C24 1_555 1_555
C30 C31 1_555 1_555
C34 C35 1_555 1_555
C36 O1 1_555 1_555
C37 O2 1_555 1_555

#END
