
#######################################################################
#
#                 Cambridge Crystallographic Data Centre
#                                CCDC 
#
#######################################################################
#
# If this CIF has been generated from an entry in the Cambridge 
# Structural Database, then it will include bibliographic, chemical, 
# crystal, experimental, refinement or atomic coordinate data resulting 
# from the CCDC's data processing and validation procedures.
#
#######################################################################

data_BUKBAK
_chemical_formula_moiety         'C30 H37 N1 Na1 O6 1+,C24 H20 B1 1-,C1 H1 Cl3'
_chemical_name_systematic        
'Aqua-28,29,30-trimethoxy-3,21,27-dioxapentacyclo(21.3.1.1^5,9^.1^10,14^.1^15,19^)triaconta-1(27),5,7,9(30),15,17,19(28),23,25-nonaene-sodium tetraphenylborate chloroform solvate'
_symmetry_cell_setting           triclinic
_symmetry_space_group_name_H-M   'P -1'
_symmetry_Int_Tables_number      2
_space_group_name_Hall           '-P 1'
loop_
_symmetry_equiv_pos_site_id
_symmetry_equiv_pos_as_xyz
1 x,y,z
2 -x,-y,-z
_cell_length_a                   11.470(4)
_cell_length_b                   15.189(4)
_cell_length_c                   15.772(5)
_cell_angle_alpha                114.21(2)
_cell_angle_beta                 104.35(3)
_cell_angle_gamma                93.60(2)
_cell_volume                     2385.49
_cell_formula_units_Z            2
loop_
_atom_site_label
_atom_site_type_symbol
_atom_site_fract_x
_atom_site_fract_y
_atom_site_fract_z
Na1 Na 0.18498 0.24674 0.67523
C25 C 0.28754 0.00175 0.64321
C26 C 0.26133 -0.10061 0.58621
C27 C 0.26684 -0.14002 0.49113
C28 C 0.29514 -0.07879 0.45077
C29 C 0.32495 0.02258 0.50657
C30 C 0.32483 0.05983 0.60294
O1 O 0.35578 0.16154 0.66166
C31 C 0.48221 0.19421 0.71805
C32 C 0.34429 0.09385 0.46545
C33 C 0.39105 0.05802 0.37594
C34 C 0.41416 0.14024 0.34733
C35 C 0.30357 0.19170 0.33435
C36 C 0.25932 0.22423 0.42575
C37 C 0.22599 0.13069 0.43759
O2 O 0.15899 0.14706 0.50703
C38 C 0.03482 0.09842 0.46240
C39 C 0.15411 0.27895 0.42651
C40 C 0.06454 0.26633 0.34252
C41 C -0.03817 0.30752 0.34758
C42 C -0.05661 0.35939 0.43656
C43 C 0.03199 0.37421 0.52282
C44 C 0.13742 0.33631 0.51535
O3 O 0.22591 0.35265 0.60215
C45 C 0.31148 0.44370 0.64479
C46 C 0.00776 0.42104 0.61856
C47 C -0.04825 0.37706 0.72807
C48 C -0.05900 0.30103 0.76407
C49 C -0.15393 0.29364 0.80119
C50 C -0.15766 0.23099 0.84396
C51 C -0.06668 0.17520 0.84593
C52 C 0.02510 0.18678 0.80705
N1 N 0.03011 0.24754 0.76597
C53 C 0.13127 0.13587 0.81793
O4 O 0.16565 0.09761 0.73102
C54 C 0.26569 0.04714 0.74025
O5 O 0.30043 0.35212 0.83485
O6 O -0.01200 0.33970 0.64630
H21 H 0.25150 0.35860 0.85720
H22 H 0.35370 0.39980 0.85910
H23 H 0.23070 -0.14540 0.60820
H24 H 0.25050 -0.21140 0.45330
H25 H 0.29310 -0.10590 0.37590
H26 H 0.50440 0.16340 0.75640
H27 H 0.53460 0.17240 0.66970
H28 H 0.48380 0.26130 0.76630
H29 H 0.40970 0.14610 0.51260
H30 H 0.46450 0.02540 0.38260
H31 H 0.32080 0.00070 0.31130
H32 H 0.44080 0.11050 0.27730
H33 H 0.48220 0.19410 0.39980
H34 H 0.23320 0.14030 0.27140
H35 H 0.33790 0.25380 0.33230
H36 H 0.32620 0.26450 0.47830
H37 H 0.17150 0.07600 0.37390
H38 H 0.00240 0.10750 0.51020
H39 H 0.03470 0.02890 0.42950
H40 H -0.01330 0.10440 0.40210
H41 H 0.07940 0.22200 0.27500
H42 H -0.09830 0.29870 0.28700
H43 H -0.13800 0.37940 0.43440
H44 H 0.36360 0.45390 0.70760
H45 H 0.36220 0.43930 0.59520
H46 H 0.27210 0.50060 0.65210
H47 H 0.08700 0.48300 0.68020
H48 H -0.06640 0.44940 0.60980
H49 H -0.13800 0.40240 0.71690
H50 H 0.01360 0.43580 0.77960
H51 H -0.20520 0.34290 0.81040
H52 H -0.22080 0.22910 0.87650
H53 H -0.07400 0.13570 0.87590
H54 H 0.11730 0.08110 0.83520
H55 H 0.20860 0.18390 0.88310
H56 H 0.24500 -0.00840 0.75640
H57 H 0.33660 0.09670 0.79480
B1 B 0.29933 0.39229 0.15521
C1 C 0.42650 0.34250 0.15430
C2 C 0.45680 0.30250 0.06780
C3 C 0.55780 0.25650 0.06360
C4 C 0.62840 0.25050 0.14590
C5 C 0.59810 0.29050 0.23240
C6 C 0.49710 0.33650 0.23660
H1 H 0.40600 0.30680 0.00870
H2 H 0.57950 0.22780 0.00140
H3 H 0.70090 0.21760 0.14280
H4 H 0.64880 0.28630 0.29150
H5 H 0.47530 0.36530 0.29880
C7 C 0.31650 0.47690 0.27120
C8 C 0.37420 0.57340 0.30530
C9 C 0.39650 0.63930 0.40270
C10 C 0.36110 0.60840 0.46580
C11 C 0.30340 0.51190 0.43160
C12 C 0.28100 0.44600 0.33420
H6 H 0.39970 0.59560 0.26000
H7 H 0.43800 0.70860 0.42720
H8 H 0.37710 0.65560 0.53560
H9 H 0.27790 0.48960 0.47680
H10 H 0.23960 0.37660 0.30960
C13 C 0.28190 0.45090 0.08260
C14 C 0.38440 0.50900 0.08770
C15 C 0.37130 0.56630 0.03730
C16 C 0.25590 0.56550 -0.01810
C17 C 0.15340 0.50730 -0.02320
C18 C 0.16640 0.45000 0.02720
H11 H 0.46750 0.50960 0.12750
H12 H 0.44500 0.60810 0.04100
H13 H 0.24650 0.60660 -0.05420
H14 H 0.07040 0.50660 -0.06290
H15 H 0.09280 0.40810 0.02360
C19 C 0.17630 0.30490 0.12070
C20 C 0.18590 0.20630 0.08590
C21 C 0.08440 0.13540 0.06100
C22 C -0.02650 0.16320 0.07090
C23 C -0.03610 0.26180 0.10570
C24 C 0.06540 0.33270 0.13060
H16 H 0.26570 0.18640 0.07880
H17 H 0.09150 0.06460 0.03600
H18 H -0.09920 0.11240 0.05310
H19 H -0.11570 0.28190 0.11290
H20 H 0.05850 0.40360 0.15570
loop_
_geom_bond_atom_site_label_1
_geom_bond_atom_site_label_2
_geom_bond_site_symmetry_1
_geom_bond_site_symmetry_2
B1 C1 1_555 1_555
C1 C2 1_555 1_555
C2 C3 1_555 1_555
C3 C4 1_555 1_555
C4 C5 1_555 1_555
C5 C6 1_555 1_555
C6 C1 1_555 1_555
H1 C2 1_555 1_555
H2 C3 1_555 1_555
H3 C4 1_555 1_555
H4 C5 1_555 1_555
H5 C6 1_555 1_555
C7 B1 1_555 1_555
C8 C7 1_555 1_555
C9 C8 1_555 1_555
C10 C9 1_555 1_555
C11 C10 1_555 1_555
C12 C7 1_555 1_555
H6 C8 1_555 1_555
H7 C9 1_555 1_555
H8 C10 1_555 1_555
H9 C11 1_555 1_555
H10 C12 1_555 1_555
C13 B1 1_555 1_555
C14 C13 1_555 1_555
C15 C14 1_555 1_555
C16 C15 1_555 1_555
C17 C16 1_555 1_555
C18 C13 1_555 1_555
H11 C14 1_555 1_555
H12 C15 1_555 1_555
H13 C16 1_555 1_555
H14 C17 1_555 1_555
H15 C18 1_555 1_555
C19 B1 1_555 1_555
C20 C19 1_555 1_555
C21 C20 1_555 1_555
C22 C21 1_555 1_555
C23 C22 1_555 1_555
C24 C19 1_555 1_555
H16 C20 1_555 1_555
H17 C21 1_555 1_555
H18 C22 1_555 1_555
H19 C23 1_555 1_555
H20 C24 1_555 1_555
Na1 O1 1_555 1_555
C25 C26 1_555 1_555
C26 C27 1_555 1_555
C27 C28 1_555 1_555
C28 C29 1_555 1_555
C29 C30 1_555 1_555
C30 C25 1_555 1_555
O1 C30 1_555 1_555
C31 O1 1_555 1_555
C32 C29 1_555 1_555
C33 C32 1_555 1_555
C34 C33 1_555 1_555
C35 C34 1_555 1_555
C36 C35 1_555 1_555
C37 C32 1_555 1_555
O2 Na1 1_555 1_555
C38 O2 1_555 1_555
C39 C36 1_555 1_555
C40 C39 1_555 1_555
C41 C40 1_555 1_555
C42 C41 1_555 1_555
C43 C42 1_555 1_555
C44 C39 1_555 1_555
O3 Na1 1_555 1_555
C45 O3 1_555 1_555
C46 C43 1_555 1_555
C47 C48 1_555 1_555
C48 C49 1_555 1_555
C49 C50 1_555 1_555
C50 C51 1_555 1_555
C51 C52 1_555 1_555
C52 N1 1_555 1_555
N1 Na1 1_555 1_555
C53 C52 1_555 1_555
O4 Na1 1_555 1_555
C54 C25 1_555 1_555
O5 Na1 1_555 1_555
O6 Na1 1_555 1_555
H21 O5 1_555 1_555
H22 O5 1_555 1_555
H23 C26 1_555 1_555
H24 C27 1_555 1_555
H25 C28 1_555 1_555
H26 C31 1_555 1_555
H27 C31 1_555 1_555
H28 C31 1_555 1_555
H29 C32 1_555 1_555
H30 C33 1_555 1_555
H31 C33 1_555 1_555
H32 C34 1_555 1_555
H33 C34 1_555 1_555
H34 C35 1_555 1_555
H35 C35 1_555 1_555
H36 C36 1_555 1_555
H37 C37 1_555 1_555
H38 C38 1_555 1_555
H39 C38 1_555 1_555
H40 C38 1_555 1_555
H41 C40 1_555 1_555
H42 C41 1_555 1_555
H43 C42 1_555 1_555
H44 C45 1_555 1_555
H45 C45 1_555 1_555
H46 C45 1_555 1_555
H47 C46 1_555 1_555
H48 C46 1_555 1_555
H49 C47 1_555 1_555
H50 C47 1_555 1_555
H51 C49 1_555 1_555
H52 C50 1_555 1_555
H53 C51 1_555 1_555
H54 C53 1_555 1_555
H55 C53 1_555 1_555
H56 C54 1_555 1_555
H57 C54 1_555 1_555
C11 C12 1_555 1_555
C17 C18 1_555 1_555
C23 C24 1_555 1_555
C36 C37 1_555 1_555
C37 O2 1_555 1_555
C43 C44 1_555 1_555
C44 O3 1_555 1_555
C46 O6 1_555 1_555
C47 O6 1_555 1_555
C48 N1 1_555 1_555
C53 O4 1_555 1_555
O4 C54 1_555 1_555

#END
