
#######################################################################
#
#                 Cambridge Crystallographic Data Centre
#                                CCDC 
#
#######################################################################
#
# If this CIF has been generated from an entry in the Cambridge 
# Structural Database, then it will include bibliographic, chemical, 
# crystal, experimental, refinement or atomic coordinate data resulting 
# from the CCDC's data processing and validation procedures.
#
#######################################################################

data_BUKMOL
_chemical_formula_moiety         'C18 H23 N1 O2'
_chemical_name_systematic        N-butyl-2-(6-methoxy-2-naphthyl)propanamide
_symmetry_cell_setting           monoclinic
_symmetry_space_group_name_H-M   'P 21/c'
_symmetry_Int_Tables_number      14
_space_group_name_Hall           '-P 2ybc'
loop_
_symmetry_equiv_pos_site_id
_symmetry_equiv_pos_as_xyz
1 x,y,z
2 -x,1/2+y,1/2-z
3 -x,-y,-z
4 x,1/2-y,1/2+z
_cell_length_a                   12.580(5)
_cell_length_b                   15.830(5)
_cell_length_c                   8.839(5)
_cell_angle_alpha                90
_cell_angle_beta                 109.551(5)
_cell_angle_gamma                90
_cell_volume                     1658.72
_exptl_crystal_colour            colorless
_exptl_crystal_description       block
_cell_formula_units_Z            4
loop_
_atom_site_label
_atom_site_type_symbol
_atom_site_fract_x
_atom_site_fract_y
_atom_site_fract_z
N1 N 1.2411(2) 0.75737(18) 1.0510(4)
H1 H 1.2264 0.7716 1.1358
O1 O 0.5812(2) 0.98048(19) 0.3590(4)
O2 O 1.1820(2) 0.68289(15) 0.8204(3)
C1 C 0.8860(3) 0.7430(2) 0.7257(4)
H2 H 0.8798 0.6873 0.6898
C2 C 0.8100(3) 0.8025(2) 0.6339(4)
C3 C 0.7235(3) 0.7831(3) 0.4882(5)
H3 H 0.7154 0.7276 0.4513
C4 C 0.6522(3) 0.8426(3) 0.4011(5)
H4 H 0.5972 0.8279 0.3047
C5 C 0.6607(3) 0.9270(3) 0.4554(4)
C6 C 0.7444(3) 0.9495(2) 0.5954(4)
H5 H 0.7511 1.0055 0.6296
C7 C 0.8193(3) 0.8887(2) 0.6865(4)
C8 C 0.9073(3) 0.9082(2) 0.8312(4)
H6 H 0.9170 0.9637 0.8677
C9 C 0.9780(3) 0.8472(2) 0.9177(4)
H7 H 1.0334 0.8620 1.0137
C10 C 0.9698(3) 0.7630(2) 0.8670(4)
C11 C 0.5833(3) 1.0666(3) 0.4062(6)
H8 H 0.6518 1.0925 0.4044
H9 H 0.5796 1.0696 0.5128
H10 H 0.5198 1.0957 0.3331
C12 C 1.0529(3) 0.6983(2) 0.9667(4)
H11 H 1.0645 0.7103 1.0799
C13 C 1.0159(3) 0.6064(2) 0.9359(6)
H12 H 1.0684 0.5710 1.0140
H13 H 1.0137 0.5903 0.8302
H14 H 0.9422 0.5999 0.9443
C14 C 1.1653(3) 0.7121(2) 0.9402(4)
C15 C 1.3476(3) 0.7842(3) 1.0367(5)
H15 H 1.3706 0.7433 0.9720
H16 H 1.4045 0.7845 1.1426
C16 C 1.3438(5) 0.8680(3) 0.9646(9)
H17 H 1.2944 0.8642 0.8538
H18 H 1.4188 0.8803 0.9626
C17 C 1.3065(6) 0.9421(3) 1.0380(10)
H19 H 1.2322 0.9293 1.0426
H20 H 1.3571 0.9470 1.1479
C18 C 1.3005(6) 1.0244(3) 0.9627(10)
H21 H 1.2401 1.0246 0.8616
H22 H 1.3705 1.0359 0.9455
H23 H 1.2869 1.0670 1.0314
loop_
_geom_bond_atom_site_label_1
_geom_bond_atom_site_label_2
_geom_bond_site_symmetry_1
_geom_bond_site_symmetry_2
N1 H1 1_555 1_555
O1 C5 1_555 1_555
O2 C14 1_555 1_555
C1 H2 1_555 1_555
C2 C1 1_555 1_555
C3 C2 1_555 1_555
H3 C3 1_555 1_555
C4 C3 1_555 1_555
H4 C4 1_555 1_555
C5 C4 1_555 1_555
C6 C5 1_555 1_555
H5 C6 1_555 1_555
C7 C2 1_555 1_555
C8 C7 1_555 1_555
H6 C8 1_555 1_555
C9 C8 1_555 1_555
H7 C9 1_555 1_555
C10 C1 1_555 1_555
C11 O1 1_555 1_555
H8 C11 1_555 1_555
H9 C11 1_555 1_555
H10 C11 1_555 1_555
C12 C10 1_555 1_555
H11 C12 1_555 1_555
C13 C12 1_555 1_555
H12 C13 1_555 1_555
H13 C13 1_555 1_555
H14 C13 1_555 1_555
C14 N1 1_555 1_555
C15 N1 1_555 1_555
H15 C15 1_555 1_555
H16 C15 1_555 1_555
C16 C15 1_555 1_555
H17 C16 1_555 1_555
H18 C16 1_555 1_555
C17 C16 1_555 1_555
H19 C17 1_555 1_555
H20 C17 1_555 1_555
C18 C17 1_555 1_555
H21 C18 1_555 1_555
H22 C18 1_555 1_555
H23 C18 1_555 1_555
C6 C7 1_555 1_555
C9 C10 1_555 1_555
C12 C14 1_555 1_555

#END
