
#######################################################################
#
#                 Cambridge Crystallographic Data Centre
#                                CCDC 
#
#######################################################################
#
# If this CIF has been generated from an entry in the Cambridge 
# Structural Database, then it will include bibliographic, chemical, 
# crystal, experimental, refinement or atomic coordinate data resulting 
# from the CCDC's data processing and validation procedures.
#
#######################################################################

data_BUKVUA
_chemical_name_common            
'4,14,30-tris((trifluoromethanesulfonyl)oxy)-9,19,24,26,28,32,34-heptamethoxypillar(5)arene hexane solvate'
_chemical_formula_moiety         'C45 H41 F9 O16 S3,C6 H14'
_chemical_name_systematic        
'14,24,26,28,30,33,34-heptamethoxyhexacyclo[21.2.2.2^3,6^.2^8,11^.2^13,16^.2^18,21^]pentatriaconta-1(25),3,5,8,10,13,15,18,20,23,26,28,30,32,34-pentadecaene-4,10,19-triyl tris(trifluoromethanesulfonate) hexane solvate'
_symmetry_cell_setting           monoclinic
_symmetry_space_group_name_H-M   'P 21/c'
_symmetry_Int_Tables_number      14
_space_group_name_Hall           '-P 2ybc'
loop_
_symmetry_equiv_pos_site_id
_symmetry_equiv_pos_as_xyz
1 x,y,z
2 -x,1/2+y,1/2-z
3 -x,-y,-z
4 x,1/2-y,1/2+z
_cell_length_a                   22.0373(10)
_cell_length_b                   11.9982(5)
_cell_length_c                   22.7155(10)
_cell_angle_alpha                90
_cell_angle_beta                 110.288(3)
_cell_angle_gamma                90
_cell_volume                     5633.55
_exptl_crystal_colour            colorless
_exptl_crystal_description       needle
_cell_formula_units_Z            4
_exptl_crystal_recrystallization_method dichloromethane/hexane
loop_
_atom_site_label
_atom_site_type_symbol
_atom_site_fract_x
_atom_site_fract_y
_atom_site_fract_z
S1 S 0.47629(6) 0.71415(11) 0.92978(5)
S2 S 0.30409(6) 0.24848(11) 0.46074(5)
S3 S -0.00169(9) 0.66332(14) 0.69868(8)
F1 F 0.4141(4) 0.5464(6) 0.9502(2)
F2 F 0.3743(3) 0.6996(11) 0.9561(3)
F3 F 0.4645(4) 0.6414(6) 1.0291(2)
F4 F 0.23937(19) 0.1624(3) 0.35361(15)
F5 F 0.2225(2) 0.3392(4) 0.36034(19)
F6 F 0.17921(16) 0.2208(3) 0.40391(15)
F7 F 0.0542(4) 0.4723(4) 0.7375(3)
F8 F -0.0129(3) 0.5273(5) 0.7812(3)
F9 F 0.0804(3) 0.6022(7) 0.8058(3)
O1 O 0.42987(16) 0.6902(2) 0.86150(14)
O2 O 0.4795(4) 0.8241(4) 0.9462(2)
O3 O 0.5334(2) 0.6493(6) 0.9426(2)
O4 O 0.37213(15) 0.9885(2) 0.66395(15)
O5 O 0.36851(14) 0.3093(2) 0.75258(13)
O6 O 0.48832(15) 0.6187(2) 0.64861(14)
O7 O 0.13717(15) 0.3246(3) 0.64206(16)
O8 O 0.29239(15) 0.3547(3) 0.49673(14)
O9 O 0.30171(18) 0.1480(3) 0.49266(15)
O10 O 0.3552(2) 0.2767(4) 0.44011(18)
O11 O 0.0596(2) 0.6852(3) 0.68192(19)
O12 O -0.0502(2) 0.6098(6) 0.6496(2)
O13 O -0.0124(4) 0.7566(5) 0.7311(3)
O14 O 0.08197(18) 0.6047(3) 0.45071(17)
O15 O 0.23390(19) 0.9370(3) 0.80978(18)
O16 O 0.13586(19) 0.9790(3) 0.55066(19)
C1 C 0.3629(2) 0.9341(3) 0.7598(2)
C2 C 0.3782(2) 0.8602(3) 0.8097(2)
H1 H 0.3603 0.8697 0.8418
C3 C 0.4198(2) 0.7726(3) 0.8124(2)
C4 C 0.4491(2) 0.7540(3) 0.76830(19)
C5 C 0.43260(19) 0.8265(3) 0.71792(19)
H2 H 0.4506 0.8159 0.6859
C6 C 0.3902(2) 0.9149(3) 0.7131(2)
C7 C 0.4310(6) 0.6396(10) 0.9688(4)
C8 C 0.3925(2) 0.9646(4) 0.6123(2)
H3 H 0.3761 1.0224 0.5801
H4 H 0.3754 0.8919 0.5945
H5 H 0.4398 0.9632 0.6266
C9 C 0.4945(2) 0.6576(3) 0.7718(2)
H6 H 0.5157 0.6356 0.8163
H7 H 0.5288 0.6823 0.7558
C10 C 0.46014(18) 0.5574(3) 0.73442(19)
C11 C 0.43023(19) 0.4806(3) 0.76095(19)
H8 H 0.4326 0.4906 0.8032
C12 C 0.39715(19) 0.3900(3) 0.72754(19)
C13 C 0.39281(18) 0.3737(3) 0.66533(19)
C14 C 0.4231(2) 0.4497(3) 0.63851(19)
H9 H 0.4207 0.4396 0.5963
C15 C 0.4569(2) 0.5411(3) 0.67269(19)
C16 C 0.3808(3) 0.3148(4) 0.8184(2)
H10 H 0.3609 0.3822 0.8280
H11 H 0.4276 0.3169 0.8410
H12 H 0.3624 0.2490 0.8315
C17 C 0.4960(3) 0.5913(4) 0.5904(2)
H13 H 0.4538 0.5938 0.5566
H14 H 0.5142 0.5162 0.5929
H15 H 0.5252 0.6452 0.5816
C18 C 0.35433(19) 0.2773(3) 0.62685(19)
H16 H 0.3718 0.2581 0.5934
H17 H 0.3592 0.2112 0.6542
C19 C 0.2833(2) 0.3062(3) 0.59741(19)
C20 C 0.2426(2) 0.2986(3) 0.6330(2)
H18 H 0.2595 0.2699 0.6745
C21 C 0.1790(2) 0.3316(4) 0.6094(2)
C22 C 0.1522(2) 0.3771(4) 0.5491(2)
C23 C 0.1912(2) 0.3823(4) 0.5128(2)
H19 H 0.1746 0.4114 0.4714
C24 C 0.2546(2) 0.3447(4) 0.5372(2)
C25 C 0.1602(3) 0.2724(5) 0.7022(3)
H20 H 0.1738 0.1960 0.6979
H21 H 0.1255 0.2707 0.7199
H22 H 0.1970 0.3145 0.7302
C26 C 0.2310(3) 0.2434(5) 0.3904(2)
C27 C 0.0830(2) 0.4185(4) 0.5243(2)
H23 H 0.0557 0.3685 0.5393
H24 H 0.0668 0.4152 0.4779
C28 C 0.0764(2) 0.5378(4) 0.5450(2)
C29 C 0.0694(2) 0.5579(4) 0.6026(2)
H25 H 0.0694 0.4977 0.6297
C30 C 0.0624(2) 0.6666(4) 0.6200(2)
C31 C 0.0612(2) 0.7580(4) 0.5836(3)
C32 C 0.0686(2) 0.7374(4) 0.5265(3)
H26 H 0.0685 0.7983 0.4998
C33 C 0.0764(2) 0.6290(4) 0.5070(2)
C34 C 0.0316(5) 0.5576(7) 0.7592(4)
C35 C 0.0693(4) 0.6907(6) 0.4050(3)
H27 H 0.0710 0.6600 0.3656
H28 H 0.1019 0.7495 0.4200
H29 H 0.0262 0.7220 0.3979
C36 C 0.0564(3) 0.8769(4) 0.6055(3)
H30 H 0.0370 0.9255 0.5686
H31 H 0.0278 0.8780 0.6309
C37 C 0.1221(3) 0.9215(4) 0.6443(3)
C38 C 0.1454(3) 0.9124(4) 0.7092(3)
H32 H 0.1181 0.8820 0.7296
C39 C 0.2073(3) 0.9464(4) 0.7451(3)
C40 C 0.2478(2) 0.9938(4) 0.7163(2)
C41 C 0.2232(2) 1.0056(4) 0.6506(3)
H33 H 0.2495 1.0388 0.6300
C42 C 0.1617(3) 0.9700(4) 0.6153(3)
C43 C 0.1918(3) 0.9050(5) 0.8428(3)
H34 H 0.1729 0.8319 0.8278
H35 H 0.1572 0.9603 0.8353
H36 H 0.2166 0.9009 0.8879
C44 C 0.1737(4) 1.0350(7) 0.5200(3)
H37 H 0.1501 1.0363 0.4747
H38 H 0.2148 0.9955 0.5286
H39 H 0.1822 1.1115 0.5358
C45 C 0.3159(2) 1.0290(4) 0.7541(2)
H40 H 0.3179 1.0527 0.7965
H41 H 0.3284 1.0934 0.7335
C46 C 0.2717(6) 0.6813(8) 0.5250(5)
H42 H 0.2498 0.7367 0.4929
H43 H 0.2515 0.6082 0.5124
H44 H 0.3175 0.6773 0.5293
C47 C 0.2663(4) 0.7140(7) 0.5854(4)
H45 H 0.2273 0.7614 0.5759
H46 H 0.3040 0.7619 0.6072
C48 C 0.2625(4) 0.6283(6) 0.6308(4)
H47 H 0.2248 0.5802 0.6091
H48 H 0.3015 0.5809 0.6406
C49 C 0.2569(4) 0.6623(6) 0.6903(4)
H49 H 0.2187 0.7115 0.6806
H50 H 0.2953 0.7083 0.7126
C50 C 0.2512(4) 0.5775(6) 0.7341(4)
H51 H 0.2887 0.5266 0.7427
H52 H 0.2119 0.5333 0.7125
C51 C 0.2479(6) 0.6147(7) 0.7971(5)
H53 H 0.2160 0.6747 0.7904
H54 H 0.2904 0.6416 0.8240
H55 H 0.2350 0.5515 0.8175
loop_
_geom_bond_atom_site_label_1
_geom_bond_atom_site_label_2
_geom_bond_site_symmetry_1
_geom_bond_site_symmetry_2
S1 O1 1_555 1_555
S2 O8 1_555 1_555
S3 O11 1_555 1_555
F1 C7 1_555 1_555
F2 C7 1_555 1_555
F3 C7 1_555 1_555
F4 C26 1_555 1_555
F5 C26 1_555 1_555
F6 C26 1_555 1_555
F7 C34 1_555 1_555
F8 C34 1_555 1_555
F9 C34 1_555 1_555
O1 C3 1_555 1_555
O2 S1 1_555 1_555
O3 S1 1_555 1_555
O4 C6 1_555 1_555
O5 C12 1_555 1_555
O6 C15 1_555 1_555
O7 C21 1_555 1_555
O8 C24 1_555 1_555
O9 S2 1_555 1_555
O10 S2 1_555 1_555
O11 C30 1_555 1_555
O12 S3 1_555 1_555
O13 S3 1_555 1_555
O14 C33 1_555 1_555
O15 C39 1_555 1_555
O16 C42 1_555 1_555
C1 C2 1_555 1_555
C2 H1 1_555 1_555
C3 C2 1_555 1_555
C4 C3 1_555 1_555
C5 C4 1_555 1_555
H2 C5 1_555 1_555
C6 C1 1_555 1_555
C7 S1 1_555 1_555
C8 O4 1_555 1_555
H3 C8 1_555 1_555
H4 C8 1_555 1_555
H5 C8 1_555 1_555
C9 C4 1_555 1_555
H6 C9 1_555 1_555
H7 C9 1_555 1_555
C10 C9 1_555 1_555
C11 C10 1_555 1_555
H8 C11 1_555 1_555
C12 C11 1_555 1_555
C13 C12 1_555 1_555
C14 C13 1_555 1_555
H9 C14 1_555 1_555
C15 C10 1_555 1_555
C16 O5 1_555 1_555
H10 C16 1_555 1_555
H11 C16 1_555 1_555
H12 C16 1_555 1_555
C17 O6 1_555 1_555
H13 C17 1_555 1_555
H14 C17 1_555 1_555
H15 C17 1_555 1_555
C18 C13 1_555 1_555
H16 C18 1_555 1_555
H17 C18 1_555 1_555
C19 C18 1_555 1_555
C20 C19 1_555 1_555
H18 C20 1_555 1_555
C21 C20 1_555 1_555
C22 C21 1_555 1_555
C23 C22 1_555 1_555
H19 C23 1_555 1_555
C24 C19 1_555 1_555
C25 O7 1_555 1_555
H20 C25 1_555 1_555
H21 C25 1_555 1_555
H22 C25 1_555 1_555
C26 S2 1_555 1_555
C27 C22 1_555 1_555
H23 C27 1_555 1_555
H24 C27 1_555 1_555
C28 C27 1_555 1_555
C29 C28 1_555 1_555
H25 C29 1_555 1_555
C30 C29 1_555 1_555
C31 C30 1_555 1_555
C32 C31 1_555 1_555
H26 C32 1_555 1_555
C33 C28 1_555 1_555
C34 S3 1_555 1_555
C35 O14 1_555 1_555
H27 C35 1_555 1_555
H28 C35 1_555 1_555
H29 C35 1_555 1_555
C36 C31 1_555 1_555
H30 C36 1_555 1_555
H31 C36 1_555 1_555
C37 C36 1_555 1_555
C38 C37 1_555 1_555
H32 C38 1_555 1_555
C39 C38 1_555 1_555
C40 C39 1_555 1_555
C41 C40 1_555 1_555
H33 C41 1_555 1_555
C42 C37 1_555 1_555
C43 O15 1_555 1_555
H34 C43 1_555 1_555
H35 C43 1_555 1_555
H36 C43 1_555 1_555
C44 O16 1_555 1_555
H37 C44 1_555 1_555
H38 C44 1_555 1_555
H39 C44 1_555 1_555
C45 C1 1_555 1_555
H40 C45 1_555 1_555
H41 C45 1_555 1_555
C46 H42 1_555 1_555
H43 C46 1_555 1_555
H44 C46 1_555 1_555
C47 C46 1_555 1_555
H45 C47 1_555 1_555
H46 C47 1_555 1_555
C48 C47 1_555 1_555
H47 C48 1_555 1_555
H48 C48 1_555 1_555
C49 C48 1_555 1_555
H49 C49 1_555 1_555
H50 C49 1_555 1_555
C50 C49 1_555 1_555
H51 C50 1_555 1_555
H52 C50 1_555 1_555
C51 C50 1_555 1_555
H53 C51 1_555 1_555
H54 C51 1_555 1_555
H55 C51 1_555 1_555
C5 C6 1_555 1_555
C14 C15 1_555 1_555
C23 C24 1_555 1_555
C32 C33 1_555 1_555
C40 C45 1_555 1_555
C41 C42 1_555 1_555

#END
