
#######################################################################
#
#                 Cambridge Crystallographic Data Centre
#                                CCDC 
#
#######################################################################
#
# If this CIF has been generated from an entry in the Cambridge 
# Structural Database, then it will include bibliographic, chemical, 
# crystal, experimental, refinement or atomic coordinate data resulting 
# from the CCDC's data processing and validation procedures.
#
#######################################################################

data_BULCAN
_chemical_formula_moiety         'C10 H20 B10 O1'
_chemical_name_systematic        
Methoxy(phenyl)methyl-1,2-dicarba-closo-dodecaborane(11)
_symmetry_cell_setting           orthorhombic
_symmetry_space_group_name_H-M   'P n a 21'
_symmetry_Int_Tables_number      33
_space_group_name_Hall           'P 2c -2n'
loop_
_symmetry_equiv_pos_site_id
_symmetry_equiv_pos_as_xyz
1 x,y,z
2 -x,-y,1/2+z
3 1/2+x,1/2-y,z
4 1/2-x,1/2+y,1/2+z
_cell_length_a                   12.7870(12)
_cell_length_b                   15.077(3)
_cell_length_c                   8.1932(14)
_cell_angle_alpha                90
_cell_angle_beta                 90
_cell_angle_gamma                90
_cell_volume                     1579.56
_exptl_crystal_colour            colorless
_exptl_crystal_description       block
_chemical_melting_point          '74-75 deg.C'
_cell_formula_units_Z            4
_exptl_crystal_recrystallization_method toluene
loop_
_atom_site_label
_atom_site_type_symbol
_atom_site_fract_x
_atom_site_fract_y
_atom_site_fract_z
O1 O 0.1665(4) 0.1836(4) 0.7530(7)
C1 C 0.0712(3) 0.2354(3) 0.5261(6)
C2 C 0.0347(5) 0.3388(5) 0.5984(9)
C3 C 0.0905(4) 0.1579(4) 0.6472(9)
H1 H 0.1196 0.1089 0.5830
C4 C 0.2235(7) 0.1116(7) 0.8165(13)
H2 H 0.1835 0.0833 0.9008
H3 H 0.2884 0.1326 0.8610
H4 H 0.2375 0.0698 0.7308
C5 C -0.0096(4) 0.1233(4) 0.7248(8)
C6 C -0.0596(6) 0.0507(4) 0.6609(9)
H5 H -0.0318 0.0213 0.5710
C7 C -0.1507(6) 0.0218(5) 0.7310(12)
H6 H -0.1856 -0.0266 0.6864
C8 C -0.1909(6) 0.0628(6) 0.8646(12)
H7 H -0.2523 0.0419 0.9115
C9 C -0.1420(7) 0.1336(6) 0.9296(10)
H8 H -0.1708 0.1621 1.0197
C10 C -0.0505(6) 0.1638(5) 0.8639(8)
H9 H -0.0155 0.2112 0.9119
B1 B 0.1569(4) 0.3170(4) 0.5279(8)
H10 H 0.2212 0.3173 0.6172
B2 B 0.1618(5) 0.2428(4) 0.3744(9)
B3 B 0.0301(5) 0.2155(4) 0.3325(8)
B4 B -0.0492(4) 0.2733(4) 0.4717(8)
B5 B 0.1015(5) 0.4150(4) 0.4761(11)
B6 B 0.1809(5) 0.3544(5) 0.3368(8)
B7 B 0.1003(5) 0.2909(6) 0.2102(9)
B8 B -0.0334(5) 0.3122(5) 0.2686(8)
B9 B -0.0310(5) 0.3888(5) 0.4320(10)
B10 B 0.0622(6) 0.4001(6) 0.2725(10)
H11 H 0.022(6) 0.344(5) 0.743(12)
H12 H 0.240(5) 0.185(4) 0.389(11)
H13 H 0.012(5) 0.148(4) 0.310(10)
H14 H -0.107(3) 0.244(2) 0.521(6)
H15 H 0.253(4) 0.382(3) 0.311(8)
H16 H 0.132(5) 0.287(4) 0.090(10)
H17 H 0.130(4) 0.480(4) 0.494(9)
H18 H -0.118(7) 0.311(6) 0.224(14)
H19 H -0.079(6) 0.441(5) 0.458(11)
H20 H 0.058(4) 0.454(3) 0.200(8)
loop_
_geom_bond_atom_site_label_1
_geom_bond_atom_site_label_2
_geom_bond_site_symmetry_1
_geom_bond_site_symmetry_2
O1 C3 1_555 1_555
C1 C2 1_555 1_555
C2 B1 1_555 1_555
C3 C1 1_555 1_555
H1 C3 1_555 1_555
C4 O1 1_555 1_555
H2 C4 1_555 1_555
H3 C4 1_555 1_555
H4 C4 1_555 1_555
C5 C3 1_555 1_555
C6 C5 1_555 1_555
H5 C6 1_555 1_555
C7 C6 1_555 1_555
H6 C7 1_555 1_555
C8 C7 1_555 1_555
H7 C8 1_555 1_555
C9 C8 1_555 1_555
H8 C9 1_555 1_555
C10 C5 1_555 1_555
H9 C10 1_555 1_555
B1 C1 1_555 1_555
H10 B1 1_555 1_555
B2 C1 1_555 1_555
B3 C1 1_555 1_555
B4 C1 1_555 1_555
B5 C2 1_555 1_555
B6 B1 1_555 1_555
B7 B2 1_555 1_555
B8 B3 1_555 1_555
B9 C2 1_555 1_555
B10 B5 1_555 1_555
H11 C2 1_555 1_555
H12 B2 1_555 1_555
H13 B3 1_555 1_555
H14 B4 1_555 1_555
H15 B6 1_555 1_555
H16 B7 1_555 1_555
H17 B5 1_555 1_555
H18 B8 1_555 1_555
H19 B9 1_555 1_555
H20 B10 1_555 1_555
C2 B4 1_555 1_555
C9 C10 1_555 1_555
B1 B2 1_555 1_555
B1 B5 1_555 1_555
B2 B3 1_555 1_555
B2 B6 1_555 1_555
B3 B4 1_555 1_555
B3 B7 1_555 1_555
B4 B8 1_555 1_555
B4 B9 1_555 1_555
B5 B6 1_555 1_555
B5 B9 1_555 1_555
B6 B7 1_555 1_555
B6 B10 1_555 1_555
B7 B8 1_555 1_555
B7 B10 1_555 1_555
B8 B9 1_555 1_555
B8 B10 1_555 1_555
B9 B10 1_555 1_555

#END
