
#######################################################################
#
#                 Cambridge Crystallographic Data Centre
#                                CCDC 
#
#######################################################################
#
# If this CIF has been generated from an entry in the Cambridge 
# Structural Database, then it will include bibliographic, chemical, 
# crystal, experimental, refinement or atomic coordinate data resulting 
# from the CCDC's data processing and validation procedures.
#
#######################################################################

data_BULGEW
_chemical_formula_moiety         'C42 H52 N6 2+,2(C2 H1 O4 1-),2(C1 H1 Cl3)'
_chemical_name_systematic        
'3,4,7,8,16,17,20,21-octaethyl-28,29,31,32-tetraaza-27,30-diazoniaheptacyclo[21.3.1.12,5.16,9.110,14.115,18.119,22]dotriaconta-1(27),2,4,6,8,10(30),11,13,15,17,19,21,23,25-tetradecaene bis(hydrogen oxalate) chloroform solvate'
_symmetry_cell_setting           triclinic
_symmetry_space_group_name_H-M   'P -1'
_symmetry_Int_Tables_number      2
_space_group_name_Hall           '-P 1'
loop_
_symmetry_equiv_pos_site_id
_symmetry_equiv_pos_as_xyz
1 x,y,z
2 -x,-y,-z
_cell_length_a                   9.3003(5)
_cell_length_b                   14.6329(9)
_cell_length_c                   19.7801(10)
_cell_angle_alpha                82.272(3)
_cell_angle_beta                 85.386(3)
_cell_angle_gamma                72.320(3)
_cell_volume                     2539.21
_exptl_crystal_colour            brown
_exptl_crystal_description       prism
_cell_formula_units_Z            2
loop_
_atom_site_label
_atom_site_type_symbol
_atom_site_fract_x
_atom_site_fract_y
_atom_site_fract_z
C1 C 0.6191(5) -0.8334(3) -0.1267(2)
C2 C 0.6993(5) -0.7668(3) -0.1276(2)
C3 C 0.6669(5) -0.7290(3) -0.0640(2)
C4 C 0.5678(5) -0.7732(3) -0.0263(2)
C5 C 0.5042(5) -0.7754(3) 0.0433(2)
C6 C 0.4351(5) -0.7067(3) 0.0874(2)
C7 C 0.3840(5) -0.7553(3) 0.1467(2)
C8 C 0.4237(5) -0.8531(3) 0.1372(2)
C9 C 0.3919(5) -0.9358(3) 0.1769(2)
C10 C 0.3679(6) -0.9470(3) 0.2467(2)
H1 H 0.3654 -0.8974 0.2721
C11 C 0.3476(6) -1.0324(4) 0.2786(2)
H2 H 0.3302 -1.0396 0.3257
C12 C 0.3527(6) -1.1069(4) 0.2421(2)
H3 H 0.3413 -1.1645 0.2644
C13 C 0.3748(5) -1.0955(3) 0.1721(2)
C14 C 0.8056(6) -0.7433(4) -0.1832(2)
H4 H 0.8485 -0.7989 -0.2080
H5 H 0.8878 -0.7302 -0.1629
C15 C 0.7290(7) -0.6560(4) -0.2335(3)
H6 H 0.6432 -0.6666 -0.2514
H7 H 0.7994 -0.6476 -0.2703
H8 H 0.6965 -0.5991 -0.2103
C16 C 0.7433(6) -0.6634(3) -0.0386(2)
H9 H 0.7835 -0.6295 -0.0776
H10 H 0.6687 -0.6155 -0.0145
C17 C 0.8692(7) -0.7165(4) 0.0080(3)
H11 H 0.8323 -0.7548 0.0445
H12 H 0.9058 -0.6709 0.0266
H13 H 0.9498 -0.7577 -0.0172
C18 C 0.4097(5) -0.5998(3) 0.0736(2)
H14 H 0.3057 -0.5669 0.0863
H15 H 0.4247 -0.5828 0.0250
C19 C 0.5139(6) -0.5639(4) 0.1120(3)
H16 H 0.4951 -0.5765 0.1603
H17 H 0.4950 -0.4956 0.0996
H18 H 0.6171 -0.5968 0.1003
C20 C 0.2902(6) -0.7081(3) 0.2055(3)
H19 H 0.3335 -0.7424 0.2481
H20 H 0.2942 -0.6422 0.2028
C21 C 0.1274(7) -0.7070(4) 0.2060(3)
H21 H 0.0839 -0.6732 0.1639
H22 H 0.0724 -0.6751 0.2436
H23 H 0.1224 -0.7721 0.2106
N1 N 0.5407(4) -0.8362(3) -0.06516(19)
H24 H 0.4831 -0.8722 -0.0528
N2 N 0.3894(4) -1.0093(3) 0.14209(18)
H25 H 0.3976 -1.0008 0.0982
N3 N 0.4963(4) -0.8628(3) 0.07422(18)
H26 H 0.5316 -0.9164 0.0568
C1A C 0.3809(5) -1.1666(3) 0.1267(2)
C2A C 0.3007(5) -1.2332(3) 0.1276(2)
C3A C 0.3331(5) -1.2710(3) 0.0640(2)
C4A C 0.4322(5) -1.2268(3) 0.0263(2)
C5A C 0.4958(5) -1.2246(3) -0.0433(2)
C6A C 0.5649(5) -1.2933(3) -0.0874(2)
C7A C 0.6160(5) -1.2447(3) -0.1467(2)
C8A C 0.5763(5) -1.1469(3) -0.1372(2)
C9A C 0.6081(5) -1.0642(3) -0.1769(2)
C10A C 0.6321(6) -1.0530(3) -0.2467(2)
H1A H 0.6346 -1.1026 -0.2721
C11A C 0.6524(6) -0.9676(4) -0.2786(2)
H2A H 0.6698 -0.9604 -0.3257
C12A C 0.6473(6) -0.8931(4) -0.2421(2)
H3A H 0.6587 -0.8355 -0.2644
C13A C 0.6252(5) -0.9045(3) -0.1721(2)
C14A C 0.1944(6) -1.2567(4) 0.1832(2)
H4A H 0.1515 -1.2011 0.2080
H5A H 0.1122 -1.2698 0.1629
C15A C 0.2710(7) -1.3440(4) 0.2335(3)
H6A H 0.3568 -1.3334 0.2514
H7A H 0.2006 -1.3524 0.2703
H8A H 0.3035 -1.4009 0.2103
C16A C 0.2567(6) -1.3366(3) 0.0386(2)
H9A H 0.2165 -1.3705 0.0776
H10A H 0.3313 -1.3845 0.0145
C17A C 0.1308(7) -1.2835(4) -0.0080(3)
H11A H 0.1677 -1.2452 -0.0445
H12A H 0.0942 -1.3291 -0.0266
H13A H 0.0502 -1.2423 0.0172
C18A C 0.5903(5) -1.4002(3) -0.0736(2)
H14A H 0.6943 -1.4331 -0.0863
H15A H 0.5753 -1.4172 -0.0250
C19A C 0.4861(6) -1.4361(4) -0.1120(3)
H16A H 0.5049 -1.4235 -0.1603
H17A H 0.5050 -1.5044 -0.0996
H18A H 0.3829 -1.4032 -0.1003
C20A C 0.7098(6) -1.2919(3) -0.2055(3)
H19A H 0.6665 -1.2576 -0.2481
H20A H 0.7058 -1.3578 -0.2028
C21A C 0.8726(7) -1.2930(4) -0.2060(3)
H21A H 0.9161 -1.3268 -0.1639
H22A H 0.9276 -1.3249 -0.2436
H23A H 0.8776 -1.2279 -0.2106
N1A N 0.4593(4) -1.1638(3) 0.06516(19)
H24A H 0.5169 -1.1278 0.0528
N2A N 0.6106(4) -0.9907(3) -0.14209(18)
H25A H 0.6024 -0.9992 -0.0982
N3A N 0.5037(4) -1.1372(3) -0.07422(18)
H26A H 0.4684 -1.0836 -0.0568
C22 C 0.7935(6) -1.0519(4) 0.0079(3)
C23 C 0.8361(6) -1.0934(4) 0.0755(3)
O1 O 0.6544(4) -1.0380(2) -0.00121(18)
O2 O 0.8900(4) -1.0331(3) -0.03468(17)
O3 O 0.7775(5) -1.1461(4) 0.1130(2)
O4 O 0.9559(5) -1.0738(3) 0.10153(18)
H27 H 0.9774 -1.0299 0.0767
C24 C 0.6651(5) -0.9358(3) 0.3355(2)
C25 C 0.7381(5) -0.8676(3) 0.3102(2)
C26 C 0.6717(5) -0.7851(3) 0.3448(2)
C27 C 0.5596(5) -0.8048(3) 0.3894(2)
C28 C 0.4656(5) -0.7575(3) 0.4444(2)
C29 C 0.3755(5) -0.6634(3) 0.4527(2)
C30 C 0.3083(5) -0.6660(3) 0.5189(2)
C31 C 0.3566(5) -0.7616(3) 0.5495(2)
C32 C 0.3136(5) -0.8087(3) 0.6129(2)
C33 C 0.2537(6) -0.7654(4) 0.6715(3)
H28 H 0.2409 -0.7001 0.6725
C34 C 0.2135(7) -0.8197(4) 0.7278(3)
H29 H 0.1696 -0.7898 0.7662
C35 C 0.2369(6) -0.9181(4) 0.7288(3)
H30 H 0.2105 -0.9538 0.7677
C36 C 0.2994(5) -0.9625(3) 0.6718(2)
C37 C 0.8723(6) -0.8823(4) 0.2602(2)
H31 H 0.9342 -0.8434 0.2700
H32 H 0.9328 -0.9494 0.2666
C38 C 0.8284(7) -0.8561(4) 0.1875(3)
H33 H 0.7689 -0.8953 0.1772
H34 H 0.9178 -0.8669 0.1581
H35 H 0.7705 -0.7893 0.1806
C39 C 0.7286(6) -0.6982(3) 0.3416(3)
H36 H 0.6847 -0.6635 0.3804
H37 H 0.8372 -0.7205 0.3460
C40 C 0.6934(7) -0.6296(4) 0.2776(3)
H38 H 0.7429 -0.6618 0.2391
H39 H 0.7285 -0.5751 0.2805
H40 H 0.5862 -0.6081 0.2722
C41 C 0.3378(6) -0.5798(3) 0.3984(3)
H41 H 0.4206 -0.5869 0.3645
H42 H 0.3256 -0.5207 0.4184
C42 C 0.1927(7) -0.5723(4) 0.3638(3)
H43 H 0.2055 -0.6300 0.3429
H44 H 0.1712 -0.5175 0.3294
H45 H 0.1104 -0.5646 0.3972
C43 C 0.2029(6) -0.5800(3) 0.5496(3)
H46 H 0.1318 -0.6014 0.5815
H47 H 0.1458 -0.5353 0.5136
C44 C 0.2859(7) -0.5277(4) 0.5864(3)
H48 H 0.3425 -0.5716 0.6221
H49 H 0.2140 -0.4745 0.6057
H50 H 0.3535 -0.5040 0.5545
N4 N 0.4506(4) -0.8150(3) 0.50288(18)
H51 H 0.4940 -0.8762 0.5096
N5 N 0.5587(4) -0.8966(2) 0.38421(18)
H52 H 0.5003 -0.9256 0.4079
N6 N 0.3316(4) -0.9056(3) 0.61614(18)
H53 H 0.3663 -0.9328 0.5798
C24A C 0.3349(5) -1.0642(3) 0.6645(2)
C25A C 0.2619(5) -1.1324(3) 0.6898(2)
C26A C 0.3283(5) -1.2149(3) 0.6552(2)
C27A C 0.4404(5) -1.1952(3) 0.6106(2)
C28A C 0.5344(5) -1.2425(3) 0.5556(2)
C29A C 0.6245(5) -1.3366(3) 0.5473(2)
C30A C 0.6917(5) -1.3340(3) 0.4811(2)
C31A C 0.6434(5) -1.2384(3) 0.4505(2)
C32A C 0.6864(5) -1.1913(3) 0.3871(2)
C33A C 0.7463(6) -1.2346(4) 0.3285(3)
H28A H 0.7591 -1.2999 0.3275
C34A C 0.7865(7) -1.1803(4) 0.2722(3)
H29A H 0.8304 -1.2102 0.2338
C35A C 0.7631(6) -1.0819(4) 0.2712(3)
H30A H 0.7895 -1.0462 0.2323
C36A C 0.7006(5) -1.0375(3) 0.3282(2)
C37A C 0.1277(6) -1.1177(4) 0.7398(2)
H31A H 0.0658 -1.1566 0.7300
H32A H 0.0672 -1.0506 0.7334
C38A C 0.1716(7) -1.1439(4) 0.8125(3)
H33A H 0.2311 -1.1047 0.8228
H34A H 0.0822 -1.1331 0.8419
H35A H 0.2295 -1.2107 0.8194
C39A C 0.2714(6) -1.3018(3) 0.6584(3)
H36A H 0.3153 -1.3365 0.6196
H37A H 0.1628 -1.2795 0.6540
C40A C 0.3066(7) -1.3704(4) 0.7224(3)
H38A H 0.2571 -1.3382 0.7609
H39A H 0.2715 -1.4249 0.7195
H40A H 0.4138 -1.3919 0.7278
C41A C 0.6622(6) -1.4202(3) 0.6016(3)
H41A H 0.5794 -1.4131 0.6355
H42A H 0.6744 -1.4793 0.5816
C42A C 0.8073(7) -1.4277(4) 0.6362(3)
H43A H 0.7945 -1.3700 0.6571
H44A H 0.8288 -1.4825 0.6706
H45A H 0.8896 -1.4354 0.6028
C43A C 0.7971(6) -1.4200(3) 0.4504(3)
H46A H 0.8682 -1.3986 0.4185
H47A H 0.8542 -1.4647 0.4864
C44A C 0.7141(7) -1.4723(4) 0.4136(3)
H48A H 0.6575 -1.4284 0.3779
H49A H 0.7860 -1.5255 0.3943
H50A H 0.6465 -1.4960 0.4455
N4A N 0.5494(4) -1.1850(3) 0.49712(18)
H51A H 0.5060 -1.1238 0.4904
N5A N 0.4413(4) -1.1034(2) 0.61579(18)
H52A H 0.4997 -1.0744 0.5921
N6A N 0.6684(4) -1.0944(3) 0.38386(18)
H53A H 0.6337 -1.0672 0.4202
C45 C 0.2332(5) -0.9786(3) 0.4630(2)
C46 C 0.1432(5) -0.8948(4) 0.4137(2)
O5 O 0.3729(4) -0.9974(2) 0.45592(18)
O6 O 0.1673(4) -1.0250(4) 0.5027(2)
O7 O 0.1984(4) -0.8422(3) 0.37657(18)
O8 O -0.0035(4) -0.8865(3) 0.41406(19)
H54 H -0.0203 -0.9327 0.4379
C47 C 0.8413(6) -0.7735(4) 0.5510(3)
H55 H 0.8236 -0.8113 0.5170
Cl1 Cl 0.9617(2) -0.70796(14) 0.51365(10)
Cl2 Cl 0.66855(18) -0.69775(14) 0.57657(10)
Cl3 Cl 0.9243(2) -0.85328(16) 0.62078(11)
C48 C 0.1625(9) -0.6164(5) 0.8622(4)
H56 H 0.1543 -0.6806 0.8797
Cl4 Cl 0.0278(2) -0.56434(15) 0.79969(12)
Cl5 Cl 0.3392(2) -0.62926(15) 0.82637(13)
Cl6 Cl 0.1245(3) -0.5459(2) 0.92979(12)
loop_
_geom_bond_atom_site_label_1
_geom_bond_atom_site_label_2
_geom_bond_site_symmetry_1
_geom_bond_site_symmetry_2
C1 C2 1_555 1_555
C2 C3 1_555 1_555
C3 C4 1_555 1_555
C4 C5 1_555 1_555
C5 C6 1_555 1_555
C6 C7 1_555 1_555
C7 C8 1_555 1_555
C8 C9 1_555 1_555
C9 C10 1_555 1_555
C10 H1 1_555 1_555
C11 C10 1_555 1_555
H2 C11 1_555 1_555
C12 C11 1_555 1_555
H3 C12 1_555 1_555
C13 C12 1_555 1_555
C14 C2 1_555 1_555
H4 C14 1_555 1_555
H5 C14 1_555 1_555
C15 C14 1_555 1_555
H6 C15 1_555 1_555
H7 C15 1_555 1_555
H8 C15 1_555 1_555
C16 C3 1_555 1_555
H9 C16 1_555 1_555
H10 C16 1_555 1_555
C17 C16 1_555 1_555
H11 C17 1_555 1_555
H12 C17 1_555 1_555
H13 C17 1_555 1_555
C18 C6 1_555 1_555
H14 C18 1_555 1_555
H15 C18 1_555 1_555
C19 C18 1_555 1_555
H16 C19 1_555 1_555
H17 C19 1_555 1_555
H18 C19 1_555 1_555
C20 C7 1_555 1_555
H19 C20 1_555 1_555
H20 C20 1_555 1_555
C21 C20 1_555 1_555
H21 C21 1_555 1_555
H22 C21 1_555 1_555
H23 C21 1_555 1_555
N1 C1 1_555 1_555
H24 N1 1_555 1_555
N2 C9 1_555 1_555
H25 N2 1_555 1_555
N3 C5 1_555 1_555
H26 N3 1_555 1_555
C22 C23 1_555 1_555
C23 O3 1_555 1_555
O1 C22 1_555 1_555
O2 C22 1_555 1_555
O4 C23 1_555 1_555
H27 O4 1_555 1_555
C24 C25 1_555 1_555
C25 C26 1_555 1_555
C26 C27 1_555 1_555
C27 C28 1_555 1_555
C28 C29 1_555 1_555
C29 C30 1_555 1_555
C30 C31 1_555 1_555
C31 C32 1_555 1_555
C32 C33 1_555 1_555
C33 H28 1_555 1_555
C34 C33 1_555 1_555
H29 C34 1_555 1_555
C35 C34 1_555 1_555
H30 C35 1_555 1_555
C36 C35 1_555 1_555
C37 C25 1_555 1_555
H31 C37 1_555 1_555
H32 C37 1_555 1_555
C38 C37 1_555 1_555
H33 C38 1_555 1_555
H34 C38 1_555 1_555
H35 C38 1_555 1_555
C39 C26 1_555 1_555
H36 C39 1_555 1_555
H37 C39 1_555 1_555
C40 C39 1_555 1_555
H38 C40 1_555 1_555
H39 C40 1_555 1_555
H40 C40 1_555 1_555
C41 C29 1_555 1_555
H41 C41 1_555 1_555
H42 C41 1_555 1_555
C42 C41 1_555 1_555
H43 C42 1_555 1_555
H44 C42 1_555 1_555
H45 C42 1_555 1_555
C43 C30 1_555 1_555
H46 C43 1_555 1_555
H47 C43 1_555 1_555
C44 C43 1_555 1_555
H48 C44 1_555 1_555
H49 C44 1_555 1_555
H50 C44 1_555 1_555
N4 C28 1_555 1_555
H51 N4 1_555 1_555
N5 C24 1_555 1_555
H52 N5 1_555 1_555
N6 C32 1_555 1_555
H53 N6 1_555 1_555
C45 C46 1_555 1_555
C46 O7 1_555 1_555
O5 C45 1_555 1_555
O6 C45 1_555 1_555
O8 C46 1_555 1_555
H54 O8 1_555 1_555
C47 H55 1_555 1_555
Cl1 C47 1_555 1_555
Cl2 C47 1_555 1_555
Cl3 C47 1_555 1_555
C48 H56 1_555 1_555
Cl4 C48 1_555 1_555
Cl5 C48 1_555 1_555
Cl6 C48 1_555 1_555
C1A C13 1_555 1_555
C2A C1A 1_555 1_555
C3A C2A 1_555 1_555
C4A C3A 1_555 1_555
C5A C4A 1_555 1_555
C6A C5A 1_555 1_555
C7A C6A 1_555 1_555
C8A C7A 1_555 1_555
C9A C8A 1_555 1_555
C10A C9A 1_555 1_555
H1A C10A 1_555 1_555
C11A C10A 1_555 1_555
H2A C11A 1_555 1_555
C12A C11A 1_555 1_555
H3A C12A 1_555 1_555
C13A C1 1_555 1_555
C14A C2A 1_555 1_555
H4A C14A 1_555 1_555
H5A C14A 1_555 1_555
C15A C14A 1_555 1_555
H6A C15A 1_555 1_555
H7A C15A 1_555 1_555
H8A C15A 1_555 1_555
C16A C3A 1_555 1_555
H9A C16A 1_555 1_555
H10A C16A 1_555 1_555
C17A C16A 1_555 1_555
H11A C17A 1_555 1_555
H12A C17A 1_555 1_555
H13A C17A 1_555 1_555
C18A C6A 1_555 1_555
H14A C18A 1_555 1_555
H15A C18A 1_555 1_555
C19A C18A 1_555 1_555
H16A C19A 1_555 1_555
H17A C19A 1_555 1_555
H18A C19A 1_555 1_555
C20A C7A 1_555 1_555
H19A C20A 1_555 1_555
H20A C20A 1_555 1_555
C21A C20A 1_555 1_555
H21A C21A 1_555 1_555
H22A C21A 1_555 1_555
H23A C21A 1_555 1_555
N1A C1A 1_555 1_555
H24A N1A 1_555 1_555
N2A C9A 1_555 1_555
H25A N2A 1_555 1_555
N3A C5A 1_555 1_555
H26A N3A 1_555 1_555
C24A C36 1_555 1_555
C25A C24A 1_555 1_555
C26A C25A 1_555 1_555
C27A C26A 1_555 1_555
C28A C27A 1_555 1_555
C29A C28A 1_555 1_555
C30A C29A 1_555 1_555
C31A C30A 1_555 1_555
C32A C31A 1_555 1_555
C33A C32A 1_555 1_555
H28A C33A 1_555 1_555
C34A C33A 1_555 1_555
H29A C34A 1_555 1_555
C35A C34A 1_555 1_555
H30A C35A 1_555 1_555
C36A C24 1_555 1_555
C37A C25A 1_555 1_555
H31A C37A 1_555 1_555
H32A C37A 1_555 1_555
C38A C37A 1_555 1_555
H33A C38A 1_555 1_555
H34A C38A 1_555 1_555
H35A C38A 1_555 1_555
C39A C26A 1_555 1_555
H36A C39A 1_555 1_555
H37A C39A 1_555 1_555
C40A C39A 1_555 1_555
H38A C40A 1_555 1_555
H39A C40A 1_555 1_555
H40A C40A 1_555 1_555
C41A C29A 1_555 1_555
H41A C41A 1_555 1_555
H42A C41A 1_555 1_555
C42A C41A 1_555 1_555
H43A C42A 1_555 1_555
H44A C42A 1_555 1_555
H45A C42A 1_555 1_555
C43A C30A 1_555 1_555
H46A C43A 1_555 1_555
H47A C43A 1_555 1_555
C44A C43A 1_555 1_555
H48A C44A 1_555 1_555
H49A C44A 1_555 1_555
H50A C44A 1_555 1_555
N4A C28A 1_555 1_555
H51A N4A 1_555 1_555
N5A C24A 1_555 1_555
H52A N5A 1_555 1_555
N6A C32A 1_555 1_555
H53A N6A 1_555 1_555
C4 N1 1_555 1_555
C8 N3 1_555 1_555
C13 N2 1_555 1_555
C27 N5 1_555 1_555
C31 N4 1_555 1_555
C36 N6 1_555 1_555
C4A N1A 1_555 1_555
C8A N3A 1_555 1_555
C12A C13A 1_555 1_555
C13A N2A 1_555 1_555
C27A N5A 1_555 1_555
C31A N4A 1_555 1_555
C35A C36A 1_555 1_555
C36A N6A 1_555 1_555

#END
