
#######################################################################
#
#                 Cambridge Crystallographic Data Centre
#                                CCDC 
#
#######################################################################
#
# If this CIF has been generated from an entry in the Cambridge 
# Structural Database, then it will include bibliographic, chemical, 
# crystal, experimental, refinement or atomic coordinate data resulting 
# from the CCDC's data processing and validation procedures.
#
#######################################################################

data_BULGAS
_chemical_formula_moiety         'C42 H52 N6 2+,2(C4 H1 O4 1-),2(C1 H2 Cl2)'
_chemical_name_systematic        
'3,4,7,8,16,17,20,21-octaethyl-28,29,31,32-tetraaza-27,30-diazoniaheptacyclo[21.3.1.12,5.16,9.110,14.115,18.119,22]dotriaconta-1(27),2,4,6,8,10(30),11,13,15,17,19,21,23,25-tetradecaene bis(3-carboxyprop-2-ynoate) dichloromethane solvate'
_symmetry_cell_setting           monoclinic
_symmetry_space_group_name_H-M   'P 21/n'
_symmetry_Int_Tables_number      14
_space_group_name_Hall           '-P 2yn'
loop_
_symmetry_equiv_pos_site_id
_symmetry_equiv_pos_as_xyz
1 x,y,z
2 1/2-x,1/2+y,1/2-z
3 -x,-y,-z
4 1/2+x,1/2-y,1/2+z
_cell_length_a                   15.857(5)
_cell_length_b                   9.672(5)
_cell_length_c                   17.407(5)
_cell_angle_alpha                90
_cell_angle_beta                 94.200(5)
_cell_angle_gamma                90
_cell_volume                     2662.52
_exptl_crystal_colour            brown
_exptl_crystal_description       needle
_cell_formula_units_Z            2
loop_
_atom_site_label
_atom_site_type_symbol
_atom_site_fract_x
_atom_site_fract_y
_atom_site_fract_z
C1 C -0.1881(3) -0.1014(5) 0.5772(3)
C2 C -0.2733(3) -0.0862(5) 0.5584(3)
C3 C -0.2872(3) 0.0527(5) 0.5323(3)
C4 C -0.2080(3) 0.1167(5) 0.5342(3)
C5 C -0.1816(3) 0.2447(5) 0.5026(3)
C6 C -0.2270(3) 0.3675(5) 0.4987(3)
H1 H -0.2808 0.3724 0.5193
C7 C -0.1939(3) 0.4826(5) 0.4650(3)
H2 H -0.2262 0.5654 0.4611
C8 C -0.1144(3) 0.4795(5) 0.4368(3)
H3 H -0.0913 0.5606 0.4158
C9 C -0.0689(3) 0.3572(5) 0.4394(3)
C10 C 0.0132(3) 0.3380(4) 0.4118(3)
C11 C 0.0557(3) 0.3985(5) 0.3531(3)
C12 C 0.1316(3) 0.3224(5) 0.3472(3)
C13 C 0.1335(3) 0.2189(5) 0.4020(3)
C14 C -0.3380(3) -0.2005(5) 0.5571(3)
H4 H -0.3077 -0.2898 0.5629
H5 H -0.3696 -0.2007 0.5060
C15 C -0.4009(4) -0.1927(6) 0.6180(4)
H6 H -0.3706 -0.1864 0.6690
H7 H -0.4363 -0.2758 0.6155
H8 H -0.4366 -0.1108 0.6091
C16 C -0.3694(3) 0.1129(6) 0.4998(3)
H9 H -0.4051 0.0377 0.4764
H10 H -0.3580 0.1790 0.4584
C17 C -0.4181(4) 0.1870(6) 0.5599(3)
H11 H -0.4269 0.1237 0.6025
H12 H -0.4730 0.2176 0.5363
H13 H -0.3857 0.2675 0.5795
C18 C 0.0236(4) 0.5110(6) 0.2991(3)
C19 C 0.1934(4) 0.3406(6) 0.2860(3)
H14 H 0.1611 0.3473 0.2352
H15 H 0.2293 0.2570 0.2852
C20 C 0.2508(4) 0.4675(7) 0.2964(4)
H16 H 0.2162 0.5502 0.3023
H17 H 0.2836 0.4780 0.2512
H18 H 0.2895 0.4555 0.3425
N1 N -0.1489(3) 0.0218(4) 0.5623(2)
H19 H -0.0942 0.0375 0.5697
N2 N -0.1045(2) 0.2459(4) 0.4716(2)
H20 H -0.0758 0.1680 0.4726
N3 N 0.0615(2) 0.2292(4) 0.4402(2)
H21 H 0.0481 0.1740 0.4776
C21 C -0.0483(7) 0.4662(13) 0.2448(6)
H22 H -0.0281 0.3988 0.2083
H23 H -0.0719 0.5467 0.2166
H24 H -0.0921 0.4237 0.2739
C1B C 0.1881(3) 0.1014(5) 0.4228(3)
C2B C 0.2733(3) 0.0862(5) 0.4416(3)
C3B C 0.2872(3) -0.0527(5) 0.4677(3)
C4B C 0.2080(3) -0.1167(5) 0.4658(3)
C5B C 0.1816(3) -0.2447(5) 0.4974(3)
C6B C 0.2270(3) -0.3675(5) 0.5013(3)
H1B H 0.2808 -0.3724 0.4807
C7B C 0.1939(3) -0.4826(5) 0.5350(3)
H2B H 0.2262 -0.5654 0.5389
C8B C 0.1144(3) -0.4795(5) 0.5632(3)
H3B H 0.0913 -0.5606 0.5842
C9B C 0.0689(3) -0.3572(5) 0.5606(3)
C10B C -0.0132(3) -0.3380(4) 0.5882(3)
C11B C -0.0557(3) -0.3985(5) 0.6469(3)
C12B C -0.1316(3) -0.3224(5) 0.6528(3)
C13B C -0.1335(3) -0.2189(5) 0.5980(3)
C14B C 0.3380(3) 0.2005(5) 0.4429(3)
H4B H 0.3077 0.2898 0.4371
H5B H 0.3696 0.2007 0.4940
C15B C 0.4009(4) 0.1927(6) 0.3820(4)
H6B H 0.3706 0.1864 0.3310
H7B H 0.4363 0.2758 0.3845
H8B H 0.4366 0.1108 0.3909
C16B C 0.3694(3) -0.1129(6) 0.5002(3)
H9B H 0.4051 -0.0377 0.5236
H10B H 0.3580 -0.1790 0.5416
C17B C 0.4181(4) -0.1870(6) 0.4401(3)
H11B H 0.4269 -0.1237 0.3975
H12B H 0.4730 -0.2176 0.4637
H13B H 0.3857 -0.2675 0.4205
C18B C -0.0236(4) -0.5110(6) 0.7009(3)
C19B C -0.1934(4) -0.3406(6) 0.7140(3)
H14B H -0.1611 -0.3473 0.7648
H15B H -0.2293 -0.2570 0.7148
C20B C -0.2508(4) -0.4675(7) 0.7036(4)
H16B H -0.2162 -0.5502 0.6977
H17B H -0.2836 -0.4780 0.7488
H18B H -0.2895 -0.4555 0.6575
N1B N 0.1489(3) -0.0218(4) 0.4377(2)
H19B H 0.0942 -0.0375 0.4303
N2B N 0.1045(2) -0.2459(4) 0.5284(2)
H20B H 0.0758 -0.1680 0.5274
N3B N -0.0615(2) -0.2292(4) 0.5598(2)
H21B H -0.0481 -0.1740 0.5224
C21B C 0.0483(7) -0.4662(13) 0.7552(6)
H22B H 0.0281 -0.3988 0.7917
H23B H 0.0719 -0.5467 0.7834
H24B H 0.0921 -0.4237 0.7261
C23 C -0.1008(3) -0.0820(5) 0.3868(3)
C24 C -0.1626(3) 0.0102(5) 0.3469(3)
C25 C -0.2121(4) 0.0871(6) 0.3146(3)
C26 C -0.2746(4) 0.1773(6) 0.2749(3)
O1 O -0.0430(2) -0.0292(3) 0.4283(2)
O2 O -0.1116(3) -0.2090(4) 0.3768(2)
O3 O -0.3245(4) 0.2408(7) 0.3100(3)
O4 O -0.2671(3) 0.1830(4) 0.2015(2)
C27 C -0.0778(4) 0.0222(8) 0.1719(4)
H28 H -0.1219 0.0926 0.1788
H29 H -0.0984 -0.0671 0.1911
Cl1 Cl -0.06285(10) 0.00645(17) 0.07373(9)
Cl2 Cl 0.01418(13) 0.0689(3) 0.22700(12)
C22? C 0.0534(9) 0.6563(13) 0.3266(8)
H25? H 0.0334 0.6747 0.3776
H26? H 0.0303 0.7261 0.2900
H27? H 0.1153 0.6603 0.3296
loop_
_geom_bond_atom_site_label_1
_geom_bond_atom_site_label_2
_geom_bond_site_symmetry_1
_geom_bond_site_symmetry_2
C1 C2 1_555 1_555
C2 C3 1_555 1_555
C3 C4 1_555 1_555
C4 C5 1_555 1_555
C5 C6 1_555 1_555
C6 H1 1_555 1_555
C7 C6 1_555 1_555
H2 C7 1_555 1_555
C8 C7 1_555 1_555
H3 C8 1_555 1_555
C9 C8 1_555 1_555
C10 C9 1_555 1_555
C11 C10 1_555 1_555
C12 C11 1_555 1_555
C13 C12 1_555 1_555
C14 C2 1_555 1_555
H4 C14 1_555 1_555
H5 C14 1_555 1_555
C15 C14 1_555 1_555
H6 C15 1_555 1_555
H7 C15 1_555 1_555
H8 C15 1_555 1_555
C16 C3 1_555 1_555
H9 C16 1_555 1_555
H10 C16 1_555 1_555
C17 C16 1_555 1_555
H11 C17 1_555 1_555
H12 C17 1_555 1_555
H13 C17 1_555 1_555
C18 C11 1_555 1_555
C19 C12 1_555 1_555
H14 C19 1_555 1_555
H15 C19 1_555 1_555
C20 C19 1_555 1_555
H16 C20 1_555 1_555
H17 C20 1_555 1_555
H18 C20 1_555 1_555
N1 C1 1_555 1_555
H19 N1 1_555 1_555
N2 C5 1_555 1_555
H20 N2 1_555 1_555
N3 C10 1_555 1_555
H21 N3 1_555 1_555
C21 C18 1_555 1_555
H22 C21 1_555 1_555
H23 C21 1_555 1_555
H24 C21 1_555 1_555
C23 C24 1_555 1_555
C24 C25 1_555 1_555
C25 C26 1_555 1_555
C26 O3 1_555 1_555
O1 C23 1_555 1_555
O2 C23 1_555 1_555
O4 C26 1_555 1_555
C27 H28 1_555 1_555
H29 C27 1_555 1_555
Cl1 C27 1_555 1_555
Cl2 C27 1_555 1_555
C1B C13 1_555 1_555
C2B C1B 1_555 1_555
C3B C2B 1_555 1_555
C4B C3B 1_555 1_555
C5B C4B 1_555 1_555
C6B C5B 1_555 1_555
H1B C6B 1_555 1_555
C7B C6B 1_555 1_555
H2B C7B 1_555 1_555
C8B C7B 1_555 1_555
H3B C8B 1_555 1_555
C9B C8B 1_555 1_555
C10B C9B 1_555 1_555
C11B C10B 1_555 1_555
C12B C11B 1_555 1_555
C13B C1 1_555 1_555
C14B C2B 1_555 1_555
H4B C14B 1_555 1_555
H5B C14B 1_555 1_555
C15B C14B 1_555 1_555
H6B C15B 1_555 1_555
H7B C15B 1_555 1_555
H8B C15B 1_555 1_555
C16B C3B 1_555 1_555
H9B C16B 1_555 1_555
H10B C16B 1_555 1_555
C17B C16B 1_555 1_555
H11B C17B 1_555 1_555
H12B C17B 1_555 1_555
H13B C17B 1_555 1_555
C18B C11B 1_555 1_555
C19B C12B 1_555 1_555
H14B C19B 1_555 1_555
H15B C19B 1_555 1_555
C20B C19B 1_555 1_555
H16B C20B 1_555 1_555
H17B C20B 1_555 1_555
H18B C20B 1_555 1_555
N1B C1B 1_555 1_555
H19B N1B 1_555 1_555
N2B C5B 1_555 1_555
H20B N2B 1_555 1_555
N3B C10B 1_555 1_555
H21B N3B 1_555 1_555
C21B C18B 1_555 1_555
H22B C21B 1_555 1_555
H23B C21B 1_555 1_555
H24B C21B 1_555 1_555
C4 N1 1_555 1_555
C9 N2 1_555 1_555
C13 N3 1_555 1_555
C4B N1B 1_555 1_555
C9B N2B 1_555 1_555
C12B C13B 1_555 1_555
C13B N3B 1_555 1_555

#END
