
#######################################################################
#
#                 Cambridge Crystallographic Data Centre
#                                CCDC 
#
#######################################################################
#
# If this CIF has been generated from an entry in the Cambridge 
# Structural Database, then it will include bibliographic, chemical, 
# crystal, experimental, refinement or atomic coordinate data resulting 
# from the CCDC's data processing and validation procedures.
#
#######################################################################

data_BULMUS
_chemical_formula_moiety         'C20 H24 O4'
_chemical_name_systematic        
14-hydroxy-7,16-dimethyl-3,11-dioxaheptacyclo[12.5.1.0^1,6^.0^4,8^.0^7,13^.0^8,12^.0^16,20^]icos-9-en-2-one
_symmetry_cell_setting           monoclinic
_symmetry_space_group_name_H-M   'P 21'
_symmetry_Int_Tables_number      4
_space_group_name_Hall           'P 2yb'
loop_
_symmetry_equiv_pos_site_id
_symmetry_equiv_pos_as_xyz
1 x,y,z
2 -x,1/2+y,-z
_cell_length_a                   6.5413(5)
_cell_length_b                   9.9608(7)
_cell_length_c                   12.0867(7)
_cell_angle_alpha                90
_cell_angle_beta                 91.5730(10)
_cell_angle_gamma                90
_cell_volume                     787.231
_exptl_crystal_colour            colorless
_exptl_crystal_description       'needle crystal'
_cell_formula_units_Z            2
loop_
_atom_site_label
_atom_site_type_symbol
_atom_site_fract_x
_atom_site_fract_y
_atom_site_fract_z
O1 O 0.0501(4) 0.3946(3) 0.9132(2)
H1 H 0.0478 0.3530 0.9717
O2 O -0.0447(4) 0.4157(3) 0.6482(2)
O3 O 0.0090(4) 0.1980(3) 0.6626(2)
O4 O 0.0020(4) 0.7711(3) 0.8502(2)
C1 C 0.4544(6) 0.2250(4) 0.6412(3)
H2 H 0.3886 0.1830 0.5771
H3 H 0.5777 0.2681 0.6161
C2 C 0.5185(6) 0.1129(4) 0.7231(3)
H4 H 0.6299 0.0630 0.6913
H5 H 0.4043 0.0516 0.7296
C3 C 0.5873(6) 0.1583(4) 0.8417(3)
H6 H 0.6237 0.0812 0.8872
H7 H 0.7043 0.2178 0.8388
C4 C 0.4025(5) 0.2315(3) 0.8880(3)
C5 C 0.3577(5) 0.3441(3) 0.8062(2)
H8 H 0.4927 0.3867 0.8048
C6 C 0.2577(5) 0.4310(3) 0.8902(3)
C7 C 0.2576(5) 0.5787(3) 0.8490(3)
H9 H 0.3313 0.6389 0.9003
C8 C 0.3269(5) 0.5977(3) 0.7233(3)
C9 C 0.3664(5) 0.4792(4) 0.6419(3)
H10 H 0.5095 0.4800 0.6199
C10 C 0.3079(5) 0.3373(4) 0.6837(2)
C11 C 0.2265(5) 0.5163(4) 0.5433(3)
H11 H 0.2742 0.5956 0.5054
H12 H 0.2118 0.4427 0.4911
C12 C 0.0302(5) 0.5427(4) 0.6033(3)
H13 H -0.0727 0.5834 0.5533
C13 C 0.1026(5) 0.6434(4) 0.6922(3)
C14 C 0.0657(6) 0.7878(4) 0.6668(3)
H14 H 0.0789 0.8277 0.5978
C15 C 0.0117(6) 0.8497(4) 0.7569(3)
H15 H -0.0182 0.9410 0.7578
C16 C 0.0433(5) 0.6332(4) 0.8148(3)
H16 H -0.0686 0.5703 0.8281
C17 C 0.4943(6) 0.7038(4) 0.7143(3)
H17 H 0.5158 0.7233 0.6377
H18 H 0.6189 0.6706 0.7480
H19 H 0.4533 0.7841 0.7515
C18 C 0.4066(6) 0.3536(4) 0.9742(3)
H20 H 0.3464 0.3327 1.0446
H21 H 0.5398 0.3952 0.9846
C19 C 0.2347(6) 0.1298(4) 0.9155(3)
H22 H 0.1031 0.1677 0.8973
H23 H 0.2427 0.1089 0.9930
H24 H 0.2535 0.0494 0.8732
C20 C 0.0833(6) 0.3090(4) 0.6626(3)
loop_
_geom_bond_atom_site_label_1
_geom_bond_atom_site_label_2
_geom_bond_site_symmetry_1
_geom_bond_site_symmetry_2
O1 H1 1_555 1_555
O2 C12 1_555 1_555
O3 C20 1_555 1_555
O4 C15 1_555 1_555
C1 H2 1_555 1_555
H3 C1 1_555 1_555
C2 C1 1_555 1_555
H4 C2 1_555 1_555
H5 C2 1_555 1_555
C3 C2 1_555 1_555
H6 C3 1_555 1_555
H7 C3 1_555 1_555
C4 C3 1_555 1_555
C5 C4 1_555 1_555
H8 C5 1_555 1_555
C6 O1 1_555 1_555
C7 C6 1_555 1_555
H9 C7 1_555 1_555
C8 C7 1_555 1_555
C9 C8 1_555 1_555
H10 C9 1_555 1_555
C10 C1 1_555 1_555
C11 C9 1_555 1_555
H11 C11 1_555 1_555
H12 C11 1_555 1_555
C12 C11 1_555 1_555
H13 C12 1_555 1_555
C13 C8 1_555 1_555
C14 C13 1_555 1_555
H14 C14 1_555 1_555
C15 C14 1_555 1_555
H15 C15 1_555 1_555
C16 O4 1_555 1_555
H16 C16 1_555 1_555
C17 C8 1_555 1_555
H17 C17 1_555 1_555
H18 C17 1_555 1_555
H19 C17 1_555 1_555
C18 C4 1_555 1_555
H20 C18 1_555 1_555
H21 C18 1_555 1_555
C19 C4 1_555 1_555
H22 C19 1_555 1_555
H23 C19 1_555 1_555
H24 C19 1_555 1_555
C20 O2 1_555 1_555
C5 C6 1_555 1_555
C5 C10 1_555 1_555
C6 C18 1_555 1_555
C7 C16 1_555 1_555
C9 C10 1_555 1_555
C10 C20 1_555 1_555
C12 C13 1_555 1_555
C13 C16 1_555 1_555

#END
