
#######################################################################
#
#                 Cambridge Crystallographic Data Centre
#                                CCDC 
#
#######################################################################
#
# If this CIF has been generated from an entry in the Cambridge 
# Structural Database, then it will include bibliographic, chemical, 
# crystal, experimental, refinement or atomic coordinate data resulting 
# from the CCDC's data processing and validation procedures.
#
#######################################################################

data_BULSUY
_chemical_formula_moiety         'C42 H52 N6 2+,C8 F4 O4 2-,2(C1 H1 Cl3)'
_chemical_name_systematic        
'3,4,7,8,16,17,20,21-octaethyl-28,29,31,32-tetraaza-27,30-diazoniaheptacyclo[21.3.1.12,5.16,9.110,14.115,18.119,22]dotriaconta-1(27),2,4,6,8,10(30),11,13,15,17,19,21,23,25-tetradecaene 2,3,5,6-tetrafluoroterephthalate chloroform solvate'
_symmetry_cell_setting           triclinic
_symmetry_space_group_name_H-M   'P -1'
_symmetry_Int_Tables_number      2
_space_group_name_Hall           '-P 1'
loop_
_symmetry_equiv_pos_site_id
_symmetry_equiv_pos_as_xyz
1 x,y,z
2 -x,-y,-z
_cell_length_a                   9.162(3)
_cell_length_b                   9.895(15)
_cell_length_c                   15.042(6)
_cell_angle_alpha                107.77(6)
_cell_angle_beta                 105.00(2)
_cell_angle_gamma                93.14(5)
_cell_volume                     1241.03
_exptl_crystal_colour            brown
_exptl_crystal_description       needle
_cell_formula_units_Z            1
loop_
_atom_site_label
_atom_site_type_symbol
_atom_site_fract_x
_atom_site_fract_y
_atom_site_fract_z
C1 C 0.2915(3) -0.0046(3) 0.20090(19)
C2 C 0.4459(3) 0.0442(3) 0.24672(19)
C3 C 0.4761(3) 0.1795(3) 0.23725(19)
C4 C 0.3397(3) 0.2076(3) 0.18372(19)
C5 C 0.3095(3) 0.3116(3) 0.1353(2)
C6 C 0.4004(3) 0.4402(3) 0.1568(2)
H1 H 0.4891 0.4701 0.2115
C7 C 0.3626(3) 0.5250(3) 0.0991(2)
H2 H 0.4264 0.6129 0.1144
C8 C 0.2341(3) 0.4850(3) 0.0196(2)
H3 H 0.2090 0.5449 -0.0193
C9 C 0.1423(3) 0.3566(3) -0.0028(2)
C10 C 0.0105(3) 0.2976(3) -0.0858(2)
C11 C -0.0323(3) 0.3186(3) -0.1760(2)
C12 C -0.1597(3) 0.2165(3) -0.2351(2)
C13 C 0.1914(3) -0.1349(3) 0.1800(2)
C14 C 0.5610(3) -0.0381(3) 0.2886(2)
H4 H 0.6490 -0.0339 0.2624
H5 H 0.5147 -0.1399 0.2662
C15 C 0.6195(4) 0.0149(4) 0.3994(2)
H6 H 0.6707 0.1141 0.4225
H7 H 0.6921 -0.0461 0.4207
H8 H 0.5336 0.0108 0.4265
C16 C 0.6283(3) 0.2719(3) 0.2767(2)
H9 H 0.6446 0.3137 0.2274
H10 H 0.7093 0.2118 0.2885
C17 C 0.6419(4) 0.3929(3) 0.3715(2)
H11 H 0.5604 0.4513 0.3606
H12 H 0.7414 0.4531 0.3930
H13 H 0.6326 0.3520 0.4218
C18 C 0.0502(4) 0.4152(4) -0.2128(2)
H14 H 0.0802 0.5119 -0.1630
H15 H -0.0196 0.4242 -0.2724
C19 C 0.1916(4) 0.3592(5) -0.2358(3)
H16 H 0.2654 0.3589 -0.1757
H17 H 0.2375 0.4212 -0.2642
H18 H 0.1633 0.2614 -0.2824
C20 C -0.2357(3) 0.1908(3) -0.3407(2)
H19 H -0.2959 0.0937 -0.3699
H20 H -0.1559 0.1930 -0.3740
C21 C -0.3412(4) 0.2996(4) -0.3599(2)
H21 H -0.4257 0.2928 -0.3319
H22 H -0.3820 0.2792 -0.4304
H23 H -0.2836 0.3966 -0.3297
N1 N 0.2292(3) 0.0946(2) 0.16296(16)
H24 H 0.1328 0.0873 0.1302
N2 N 0.1833(3) 0.2769(2) 0.05654(17)
H25 H 0.1234 0.1962 0.0430
N3 N -0.0880(2) 0.1859(2) -0.09021(17)
H26 H -0.0851 0.1519 -0.0422
C1A C -0.2915(3) 0.0046(3) -0.20090(19)
C2A C -0.4459(3) -0.0442(3) -0.24672(19)
C3A C -0.4761(3) -0.1795(3) -0.23725(19)
C4A C -0.3397(3) -0.2076(3) -0.18372(19)
C5A C -0.3095(3) -0.3116(3) -0.1353(2)
C6A C -0.4004(3) -0.4402(3) -0.1568(2)
H1A H -0.4891 -0.4701 -0.2115
C7A C -0.3626(3) -0.5250(3) -0.0991(2)
H2A H -0.4264 -0.6129 -0.1144
C8A C -0.2341(3) -0.4850(3) -0.0196(2)
H3A H -0.2090 -0.5449 0.0193
C9A C -0.1423(3) -0.3566(3) 0.0028(2)
C10A C -0.0105(3) -0.2976(3) 0.0858(2)
C11A C 0.0323(3) -0.3186(3) 0.1760(2)
C12A C 0.1597(3) -0.2165(3) 0.2351(2)
C13A C -0.1914(3) 0.1349(3) -0.1800(2)
C14A C -0.5610(3) 0.0381(3) -0.2886(2)
H4A H -0.6490 0.0339 -0.2624
H5A H -0.5147 0.1399 -0.2662
C15A C -0.6195(4) -0.0149(4) -0.3994(2)
H6A H -0.6707 -0.1141 -0.4225
H7A H -0.6921 0.0461 -0.4207
H8A H -0.5336 -0.0108 -0.4265
C16A C -0.6283(3) -0.2719(3) -0.2767(2)
H9A H -0.6446 -0.3137 -0.2274
H10A H -0.7093 -0.2118 -0.2885
C17A C -0.6419(4) -0.3929(3) -0.3715(2)
H11A H -0.5604 -0.4513 -0.3606
H12A H -0.7414 -0.4531 -0.3930
H13A H -0.6326 -0.3520 -0.4218
C18A C -0.0502(4) -0.4152(4) 0.2128(2)
H14A H -0.0802 -0.5119 0.1630
H15A H 0.0196 -0.4242 0.2724
C19A C -0.1916(4) -0.3592(5) 0.2358(3)
H16A H -0.2654 -0.3589 0.1757
H17A H -0.2375 -0.4212 0.2642
H18A H -0.1633 -0.2614 0.2824
C20A C 0.2357(3) -0.1908(3) 0.3407(2)
H19A H 0.2959 -0.0937 0.3699
H20A H 0.1559 -0.1930 0.3740
C21A C 0.3412(4) -0.2996(4) 0.3599(2)
H21A H 0.4257 -0.2928 0.3319
H22A H 0.3820 -0.2792 0.4304
H23A H 0.2836 -0.3966 0.3297
N1A N -0.2292(3) -0.0946(2) -0.16296(16)
H24A H -0.1328 -0.0873 -0.1302
N2A N -0.1833(3) -0.2769(2) -0.05654(17)
H25A H -0.1234 -0.1962 -0.0430
N3A N 0.0880(2) -0.1859(2) 0.09021(17)
H26A H 0.0851 -0.1519 0.0422
C22 C 0.1727(3) -0.0520(3) -0.1096(2)
C23 C 0.3422(3) -0.0251(3) -0.05298(19)
C24 C 0.4109(3) -0.1203(3) -0.0119(2)
C25 C 0.5628(3) -0.0965(3) 0.0396(2)
F1 F 0.32961(18) -0.24500(18) -0.02383(13)
F2 F 0.61781(19) -0.19847(17) 0.07547(12)
O1 O 0.0824(2) -0.0871(2) -0.06699(15)
O2 O 0.1381(2) -0.0351(3) -0.18921(15)
C22A C 0.8273(3) 0.0520(3) 0.1096(2)
C23A C 0.6578(3) 0.0251(3) 0.05298(19)
C24A C 0.5891(3) 0.1203(3) 0.0119(2)
C25A C 0.4372(3) 0.0965(3) -0.0396(2)
F1A F 0.67039(18) 0.24500(18) 0.02383(13)
F2A F 0.38219(19) 0.19847(17) -0.07547(12)
O1A O 0.9176(2) 0.0871(2) 0.06699(15)
O2A O 0.8619(2) 0.0351(3) 0.18921(15)
C26 C 0.0967(4) 0.2188(4) 0.3854(3)
H27 H 0.0648 0.1349 0.3237
Cl1 Cl 0.05006(16) 0.36915(17) 0.35652(17)
Cl2 Cl 0.29315(11) 0.23531(11) 0.43332(8)
Cl3 Cl 0.00626(16) 0.1847(3) 0.46401(13)
loop_
_geom_bond_atom_site_label_1
_geom_bond_atom_site_label_2
_geom_bond_site_symmetry_1
_geom_bond_site_symmetry_2
C1 C2 1_555 1_555
C2 C3 1_555 1_555
C3 C4 1_555 1_555
C4 C5 1_555 1_555
C5 C6 1_555 1_555
C6 H1 1_555 1_555
C7 C6 1_555 1_555
H2 C7 1_555 1_555
C8 C7 1_555 1_555
H3 C8 1_555 1_555
C9 C8 1_555 1_555
C10 C9 1_555 1_555
C11 C10 1_555 1_555
C12 C11 1_555 1_555
C13 C1 1_555 1_555
C14 C2 1_555 1_555
H4 C14 1_555 1_555
H5 C14 1_555 1_555
C15 C14 1_555 1_555
H6 C15 1_555 1_555
H7 C15 1_555 1_555
H8 C15 1_555 1_555
C16 C3 1_555 1_555
H9 C16 1_555 1_555
H10 C16 1_555 1_555
C17 C16 1_555 1_555
H11 C17 1_555 1_555
H12 C17 1_555 1_555
H13 C17 1_555 1_555
C18 C11 1_555 1_555
H14 C18 1_555 1_555
H15 C18 1_555 1_555
C19 C18 1_555 1_555
H16 C19 1_555 1_555
H17 C19 1_555 1_555
H18 C19 1_555 1_555
C20 C12 1_555 1_555
H19 C20 1_555 1_555
H20 C20 1_555 1_555
C21 C20 1_555 1_555
H21 C21 1_555 1_555
H22 C21 1_555 1_555
H23 C21 1_555 1_555
N1 C1 1_555 1_555
H24 N1 1_555 1_555
N2 C5 1_555 1_555
H25 N2 1_555 1_555
N3 C10 1_555 1_555
H26 N3 1_555 1_555
C22 C23 1_555 1_555
C23 C24 1_555 1_555
C24 C25 1_555 1_555
C25 F2 1_555 1_555
F1 C24 1_555 1_555
O1 C22 1_555 1_555
O2 C22 1_555 1_555
C26 H27 1_555 1_555
Cl1 C26 1_555 1_555
Cl2 C26 1_555 1_555
Cl3 C26 1_555 1_555
C1A C2A 1_555 1_555
C2A C3A 1_555 1_555
C3A C4A 1_555 1_555
C4A C5A 1_555 1_555
C5A C6A 1_555 1_555
C6A H1A 1_555 1_555
C7A C6A 1_555 1_555
H2A C7A 1_555 1_555
C8A C7A 1_555 1_555
H3A C8A 1_555 1_555
C9A C8A 1_555 1_555
C10A C9A 1_555 1_555
C11A C10A 1_555 1_555
C12A C13 1_555 1_555
C13A C12 1_555 1_555
C14A C2A 1_555 1_555
H4A C14A 1_555 1_555
H5A C14A 1_555 1_555
C15A C14A 1_555 1_555
H6A C15A 1_555 1_555
H7A C15A 1_555 1_555
H8A C15A 1_555 1_555
C16A C3A 1_555 1_555
H9A C16A 1_555 1_555
H10A C16A 1_555 1_555
C17A C16A 1_555 1_555
H11A C17A 1_555 1_555
H12A C17A 1_555 1_555
H13A C17A 1_555 1_555
C18A C11A 1_555 1_555
H14A C18A 1_555 1_555
H15A C18A 1_555 1_555
C19A C18A 1_555 1_555
H16A C19A 1_555 1_555
H17A C19A 1_555 1_555
H18A C19A 1_555 1_555
C20A C12A 1_555 1_555
H19A C20A 1_555 1_555
H20A C20A 1_555 1_555
C21A C20A 1_555 1_555
H21A C21A 1_555 1_555
H22A C21A 1_555 1_555
H23A C21A 1_555 1_555
N1A C1A 1_555 1_555
H24A N1A 1_555 1_555
N2A C5A 1_555 1_555
H25A N2A 1_555 1_555
N3A C13 1_555 1_555
H26A N3A 1_555 1_555
C22A C23A 1_555 1_555
C23A C25 1_555 1_555
C24A C23A 1_555 1_555
C25A C23 1_555 1_555
F1A C24A 1_555 1_555
F2A C25A 1_555 1_555
O1A C22A 1_555 1_555
O2A C22A 1_555 1_555
C4 N1 1_555 1_555
C9 N2 1_555 1_555
N3 C13A 1_555 1_555
C1A C13A 1_555 1_555
C4A N1A 1_555 1_555
C9A N2A 1_555 1_555
C10A N3A 1_555 1_555
C11A C12A 1_555 1_555
C24A C25A 1_555 1_555

#END
