
#######################################################################
#
#                 Cambridge Crystallographic Data Centre
#                                CCDC 
#
#######################################################################
#
# If this CIF has been generated from an entry in the Cambridge 
# Structural Database, then it will include bibliographic, chemical, 
# crystal, experimental, refinement or atomic coordinate data resulting 
# from the CCDC's data processing and validation procedures.
#
#######################################################################

data_BULTIN
_chemical_formula_moiety         'C35 H36 N6 2+,C12 H8 O6 S2 2-,C1 H1 Cl3'
_chemical_name_systematic        
"3,4,21,22-tetraethyl-29,31,32,33-tetraaza-28,30-diazoniaheptacyclo[22.3.1.12,5.16,10.111,14.115,19.120,23]tritriaconta-1(28),2,4,6(32),7,9,11,13,15(30),16,18,20,22,24,26-pentadecaene biphenyl-4,4'-disulfonate chloroform solvate"
_symmetry_cell_setting           triclinic
_symmetry_space_group_name_H-M   'P -1'
_symmetry_Int_Tables_number      2
_space_group_name_Hall           '-P 1'
loop_
_symmetry_equiv_pos_site_id
_symmetry_equiv_pos_as_xyz
1 x,y,z
2 -x,-y,-z
_cell_length_a                   17.6992(5)
_cell_length_b                   18.7177(4)
_cell_length_c                   19.1501(6)
_cell_angle_alpha                106.577(2)
_cell_angle_beta                 103.759(3)
_cell_angle_gamma                95.387(2)
_cell_volume                     5816.22
_exptl_crystal_colour            red
_exptl_crystal_description       needle
_cell_formula_units_Z            4
loop_
_atom_site_label
_atom_site_type_symbol
_atom_site_fract_x
_atom_site_fract_y
_atom_site_fract_z
C1 C 0.2836(3) 0.6202(3) 0.3956(3)
C2 C 0.3396(3) 0.5839(3) 0.4305(3)
H1 H 0.3292 0.5416 0.4469
C3 C 0.4132(3) 0.6218(3) 0.4365(3)
H2 H 0.4626 0.6101 0.4583
C4 C 0.4026(3) 0.6796(3) 0.4054(3)
C5 C 0.4597(2) 0.7347(3) 0.3980(3)
C6 C 0.5413(3) 0.7435(3) 0.4303(3)
H3 H 0.5623 0.7111 0.4572
C7 C 0.5896(3) 0.8000(3) 0.4222(3)
H4 H 0.6450 0.8056 0.4433
C8 C 0.5617(3) 0.8491(3) 0.3846(3)
H5 H 0.5970 0.8887 0.3813
C9 C 0.4811(2) 0.8396(3) 0.3518(3)
C10 C 0.4405(2) 0.8851(3) 0.3087(3)
C11 C 0.4597(3) 0.9149(3) 0.2557(4)
C12 C 0.3903(4) 0.9371(3) 0.2190(4)
C13 C 0.3320(3) 0.9201(3) 0.2511(3)
C14 C 0.2491(3) 0.9248(3) 0.2348(3)
C15 C 0.2135(3) 0.9741(3) 0.2002(3)
H6 H 0.2447 1.0098 0.1874
C16 C 0.1346(3) 0.9708(3) 0.1850(3)
H7 H 0.1112 1.0049 0.1617
C17 C 0.0866(3) 0.9195(3) 0.2021(3)
H8 H 0.0311 0.9175 0.1894
C18 C 0.1210(3) 0.8703(2) 0.2386(3)
C19 C 0.0776(3) 0.8138(3) 0.2580(3)
C20 C -0.0044(3) 0.7974(4) 0.2533(6)
C21 C -0.0166(3) 0.7334(4) 0.2755(6)
C22 C 0.0594(3) 0.7133(3) 0.2967(3)
C23 C 0.0870(3) 0.6551(3) 0.3293(3)
C24 C 0.0379(3) 0.6010(3) 0.3425(3)
H9 H -0.0174 0.6005 0.3319
C25 C 0.0717(3) 0.5474(4) 0.3715(3)
H10 H 0.0391 0.5081 0.3783
C26 C 0.1533(3) 0.5517(3) 0.3904(3)
H11 H 0.1779 0.5169 0.4119
C27 C 0.1975(3) 0.6091(2) 0.3767(3)
C28 C 0.5386(4) 0.9208(4) 0.2388(4)
H12 H 0.5645 0.8789 0.2495
H13 H 0.5295 0.9137 0.1840
C29 C 0.5913(5) 0.9907(5) 0.2808(6)
H14 H 0.5616 1.0326 0.2842
H15 H 0.6318 0.9975 0.2551
H16 H 0.6166 0.9899 0.3319
C30 C 0.3823(5) 0.9648(4) 0.1504(4)
H17 H 0.3268 0.9501 0.1187
H18 H 0.4158 0.9399 0.1194
C31 C 0.4068(5) 1.0505(5) 0.1738(5)
H19 H 0.3733 1.0754 0.2038
H20 H 0.4007 1.0661 0.1284
H21 H 0.4622 1.0651 0.2042
C32 C -0.0743(6) 0.8509(7) 0.2401(6)
H22 H -0.1156 0.8429 0.2653
H23 H -0.0519 0.9055 0.2565
C33 C -0.0997(10) 0.8218(6) 0.1668(7)
H24 H -0.0575 0.8326 0.1442
H25 H -0.1452 0.8439 0.1478
H26 H -0.1156 0.7669 0.1530
C34 C -0.0959(5) 0.6998(5) 0.2880(5)
H27 H -0.0851 0.6847 0.3344
H28 H -0.1321 0.7371 0.2922
C35 C -0.1288(7) 0.6351(6) 0.2213(5)
H29 H -0.1374 0.6513 0.1761
H30 H -0.1793 0.6109 0.2236
H31 H -0.0922 0.5989 0.2186
N1 N 0.3226(2) 0.6762(2) 0.3806(2)
H32 H 0.3001 0.7067 0.3580
N2 N 0.43395(19) 0.7829(2) 0.3595(2)
H33 H 0.3829 0.7767 0.3381
N3 N 0.3632(2) 0.8881(2) 0.3060(2)
H34 H 0.3375 0.8724 0.3345
N4 N 0.2005(2) 0.8748(2) 0.2509(2)
H35 H 0.2224 0.8424 0.2711
N5 N 0.11310(19) 0.7634(2) 0.2874(2)
H36 H 0.1643 0.7634 0.2988
N6 N 0.1651(2) 0.6596(2) 0.3466(2)
C36 C 0.1015(3) 0.1119(2) 0.3350(3)
C37 C 0.1033(3) 0.0573(3) 0.3720(3)
H37 H 0.0592 0.0310 0.3799
C38 C 0.1815(3) 0.0487(3) 0.3949(3)
H38 H 0.2007 0.0152 0.4213
C39 C 0.2271(2) 0.0984(2) 0.3722(3)
C40 C 0.3109(2) 0.1103(2) 0.3812(3)
C41 C 0.3617(3) 0.0653(3) 0.4080(3)
H39 H 0.3419 0.0243 0.4225
C42 C 0.4415(3) 0.0812(3) 0.4133(3)
H40 H 0.4765 0.0511 0.4317
C43 C 0.4704(3) 0.1402(3) 0.3920(3)
H41 H 0.5248 0.1497 0.3945
C44 C 0.4199(2) 0.1856(2) 0.3669(3)
C45 C 0.4412(2) 0.2510(3) 0.3446(3)
C46 C 0.5149(3) 0.2974(4) 0.3614(4)
C47 C 0.4982(4) 0.3597(4) 0.3357(4)
C48 C 0.4145(3) 0.3475(3) 0.3033(4)
C49 C 0.3632(2) 0.3961(2) 0.2742(3)
C50 C 0.3883(3) 0.4553(3) 0.2533(4)
H42 H 0.4422 0.4676 0.2554
C51 C 0.3341(3) 0.4977(4) 0.2289(4)
H43 H 0.3521 0.5414 0.2175
C52 C 0.2544(3) 0.4781(3) 0.2205(4)
H44 H 0.2178 0.5072 0.2025
C53 C 0.2285(2) 0.4147(2) 0.2392(3)
C54 C 0.1471(2) 0.3881(2) 0.2309(3)
C55 C 0.0777(3) 0.4103(3) 0.1977(4)
C56 C 0.0129(3) 0.3578(3) 0.1974(3)
C57 C 0.0448(3) 0.3096(3) 0.2341(3)
C58 C 0.0100(2) 0.2449(3) 0.2536(3)
C59 C -0.0701(3) 0.2265(4) 0.2475(5)
H45 H -0.1072 0.2544 0.2280
C60 C -0.0942(3) 0.1660(4) 0.2708(5)
H46 H -0.1484 0.1523 0.2675
C61 C -0.0403(3) 0.1267(3) 0.2981(4)
H47 H -0.0561 0.0851 0.3135
C62 C 0.0394(3) 0.1488(3) 0.3033(3)
C63 C 0.5967(3) 0.2796(4) 0.3882(4)
H48 H 0.6346 0.3277 0.4134
H49 H 0.5962 0.2535 0.4264
C64 C 0.6242(4) 0.2320(5) 0.3270(4)
H50 H 0.5980 0.1794 0.3127
H51 H 0.6815 0.2350 0.3447
H52 H 0.6117 0.2500 0.2830
C65 C 0.5604(5) 0.4259(6) 0.3462(8)
H53 H 0.5510 0.4396 0.2989
H54 H 0.6131 0.4111 0.3562
C66 C 0.5588(5) 0.4978(4) 0.4149(6)
H55 H 0.5053 0.4962 0.4210
H56 H 0.5746 0.5443 0.4042
H57 H 0.5956 0.4969 0.4617
C67 C 0.0701(4) 0.4844(4) 0.1770(4)
H58 H 0.0207 0.5019 0.1847
H59 H 0.1152 0.5248 0.2096
C68 C 0.0692(6) 0.4674(5) 0.0948(5)
H60 H 0.1233 0.4680 0.0906
H61 H 0.0462 0.5058 0.0752
H62 H 0.0374 0.4174 0.0653
C69 C -0.0738(3) 0.3579(4) 0.1612(4)
H63 H -0.0777 0.3777 0.1180
H64 H -0.1030 0.3052 0.1411
C70 C -0.1110(4) 0.4043(4) 0.2154(5)
H65 H -0.1086 0.3840 0.2576
H66 H -0.1663 0.4029 0.1896
H67 H -0.0828 0.4566 0.2348
N7 N 0.1766(2) 0.13514(19) 0.3352(2)
H68 H 0.1906 0.1688 0.3145
N8 N 0.3423(2) 0.1688(2) 0.3630(3)
N9 N 0.38504(19) 0.2887(2) 0.3194(2)
H69 H 0.3345 0.2756 0.3143
N10 N 0.2847(2) 0.3778(2) 0.2669(3)
H70 H 0.2695 0.3394 0.2812
N11 N 0.1246(2) 0.3277(2) 0.2526(2)
H71 H 0.1575 0.3037 0.2755
N12 N 0.0623(2) 0.2046(2) 0.2797(2)
H72 H 0.1122 0.2155 0.2810
C71 C 0.1992(2) 0.8376(2) 0.4895(2)
C72 C 0.1963(2) 0.7817(3) 0.5225(3)
H73 H 0.2432 0.7633 0.5395
C73 C 0.1253(2) 0.7513(3) 0.5314(3)
H74 H 0.1246 0.7136 0.5556
C74 C 0.0548(2) 0.7765(2) 0.5047(2)
C75 C 0.0597(2) 0.8315(2) 0.4695(3)
H75 H 0.0128 0.8485 0.4498
C76 C 0.1303(2) 0.8628(2) 0.4619(3)
H76 H 0.1316 0.9008 0.4382
C77 C -0.0213(2) 0.7442(2) 0.5135(2)
C78 C -0.0257(2) 0.6892(3) 0.5489(3)
H77 H 0.0207 0.6708 0.5672
C79 C -0.0966(3) 0.6610(3) 0.5577(3)
H78 H -0.0985 0.6225 0.5810
C80 C -0.1650(2) 0.6879(2) 0.5331(2)
C81 C -0.1621(2) 0.7427(3) 0.4983(3)
H79 H -0.2088 0.7612 0.4808
C82 C -0.0902(2) 0.7715(3) 0.4886(3)
H80 H -0.0886 0.8097 0.4651
O1 O 0.27984(16) 0.8468(2) 0.39636(18)
O2 O 0.29205(18) 0.95880(18) 0.5023(2)
O3 O 0.35172(16) 0.8515(2) 0.5219(2)
O4 O -0.24907(16) 0.69796(18) 0.62684(17)
O5 O -0.25603(18) 0.57472(18) 0.5386(2)
O6 O -0.31808(16) 0.67142(19) 0.49525(19)
S1 S 0.28859(5) 0.87713(6) 0.47796(6)
S2 S -0.25449(5) 0.65448(6) 0.54813(6)
C83 C 0.1496(3) 0.1959(3) 0.0945(3)
C84 C 0.1565(3) 0.2542(3) 0.0643(3)
H81 H 0.2070 0.2826 0.0723
C85 C 0.0884(3) 0.2710(3) 0.0217(3)
H82 H 0.0931 0.3104 -0.0001
C86 C 0.0138(3) 0.2308(2) 0.0108(2)
C87 C 0.0096(4) 0.1728(3) 0.0414(4)
H83 H -0.0405 0.1439 0.0335
C88 C 0.0763(4) 0.1557(4) 0.0831(4)
H84 H 0.0715 0.1157 0.1041
C89 C -0.0587(3) 0.2501(2) -0.0337(2)
C90 C -0.0522(3) 0.3005(3) -0.0745(3)
H85 H -0.0015 0.3232 -0.0735
C91 C -0.1191(3) 0.3177(3) -0.1163(3)
H86 H -0.1139 0.3526 -0.1432
C92 C -0.1932(3) 0.2845(3) -0.1191(3)
C93 C -0.2019(3) 0.2352(3) -0.0776(3)
H87 H -0.2528 0.2137 -0.0779
C94 C -0.1333(3) 0.2184(3) -0.0356(3)
H88 H -0.1382 0.1843 -0.0078
O7 O 0.2355(2) 0.2002(2) 0.22593(18)
O8 O 0.3034(2) 0.2130(2) 0.1351(2)
O9 O 0.2269(3) 0.0917(2) 0.1179(3)
O10 O -0.3454(2) 0.2734(3) -0.1624(3)
O11 O -0.2630(3) 0.3854(2) -0.1640(3)
O12 O -0.27379(19) 0.26221(19) -0.25530(18)
S3 S 0.23588(8) 0.17290(7) 0.14649(7)
S4 S -0.27566(8) 0.30402(7) -0.17809(7)
C95 C 0.8116(5) 0.4773(4) 0.4034(5)
H89 H 0.7883 0.4994 0.4459
Cl1 Cl 0.77052(14) 0.38090(14) 0.3623(2)
Cl2 Cl 0.91308(12) 0.47587(13) 0.44294(14)
Cl3 Cl 0.8027(2) 0.53216(16) 0.34660(16)
C96 C 0.8091(3) 0.9623(3) 0.3912(3)
H90 H 0.7857 0.9923 0.4304
Cl4 Cl 0.75906(8) 0.86782(8) 0.35648(12)
Cl5 Cl 0.80282(11) 1.00363(15) 0.32077(15)
Cl6 Cl 0.91043(7) 0.96293(8) 0.43478(9)
loop_
_geom_bond_atom_site_label_1
_geom_bond_atom_site_label_2
_geom_bond_site_symmetry_1
_geom_bond_site_symmetry_2
C1 C2 1_555 1_555
C2 H1 1_555 1_555
C3 C2 1_555 1_555
H2 C3 1_555 1_555
C4 C3 1_555 1_555
C5 C4 1_555 1_555
C6 C5 1_555 1_555
H3 C6 1_555 1_555
C7 C6 1_555 1_555
H4 C7 1_555 1_555
C8 C7 1_555 1_555
H5 C8 1_555 1_555
C9 C8 1_555 1_555
C10 C9 1_555 1_555
C11 C10 1_555 1_555
C12 C11 1_555 1_555
C13 C12 1_555 1_555
C14 C13 1_555 1_555
C15 C14 1_555 1_555
H6 C15 1_555 1_555
C16 C15 1_555 1_555
H7 C16 1_555 1_555
C17 C16 1_555 1_555
H8 C17 1_555 1_555
C18 C17 1_555 1_555
C19 C18 1_555 1_555
C20 C19 1_555 1_555
C21 C20 1_555 1_555
C22 C21 1_555 1_555
C23 C22 1_555 1_555
C24 C23 1_555 1_555
H9 C24 1_555 1_555
C25 C24 1_555 1_555
H10 C25 1_555 1_555
C26 C25 1_555 1_555
H11 C26 1_555 1_555
C27 C1 1_555 1_555
C28 C11 1_555 1_555
H12 C28 1_555 1_555
H13 C28 1_555 1_555
C29 C28 1_555 1_555
H14 C29 1_555 1_555
H15 C29 1_555 1_555
H16 C29 1_555 1_555
C30 C12 1_555 1_555
H17 C30 1_555 1_555
H18 C30 1_555 1_555
C31 C30 1_555 1_555
H19 C31 1_555 1_555
H20 C31 1_555 1_555
H21 C31 1_555 1_555
C32 C20 1_555 1_555
H22 C32 1_555 1_555
H23 C32 1_555 1_555
C33 C32 1_555 1_555
H24 C33 1_555 1_555
H25 C33 1_555 1_555
H26 C33 1_555 1_555
C34 C21 1_555 1_555
H27 C34 1_555 1_555
H28 C34 1_555 1_555
C35 C34 1_555 1_555
H29 C35 1_555 1_555
H30 C35 1_555 1_555
H31 C35 1_555 1_555
N1 C1 1_555 1_555
H32 N1 1_555 1_555
N2 C5 1_555 1_555
H33 N2 1_555 1_555
N3 C10 1_555 1_555
H34 N3 1_555 1_555
N4 C14 1_555 1_555
H35 N4 1_555 1_555
N5 C19 1_555 1_555
H36 N5 1_555 1_555
N6 C23 1_555 1_555
C36 C37 1_555 1_555
C37 H37 1_555 1_555
C38 C37 1_555 1_555
H38 C38 1_555 1_555
C39 C38 1_555 1_555
C40 C39 1_555 1_555
C41 C40 1_555 1_555
H39 C41 1_555 1_555
C42 C41 1_555 1_555
H40 C42 1_555 1_555
C43 C42 1_555 1_555
H41 C43 1_555 1_555
C44 C43 1_555 1_555
C45 C44 1_555 1_555
C46 C45 1_555 1_555
C47 C46 1_555 1_555
C48 C47 1_555 1_555
C49 C48 1_555 1_555
C50 C49 1_555 1_555
H42 C50 1_555 1_555
C51 C50 1_555 1_555
H43 C51 1_555 1_555
C52 C51 1_555 1_555
H44 C52 1_555 1_555
C53 C52 1_555 1_555
C54 C53 1_555 1_555
C55 C54 1_555 1_555
C56 C55 1_555 1_555
C57 C56 1_555 1_555
C58 C57 1_555 1_555
C59 C58 1_555 1_555
H45 C59 1_555 1_555
C60 C59 1_555 1_555
H46 C60 1_555 1_555
C61 C60 1_555 1_555
H47 C61 1_555 1_555
C62 C36 1_555 1_555
C63 C46 1_555 1_555
H48 C63 1_555 1_555
H49 C63 1_555 1_555
C64 C63 1_555 1_555
H50 C64 1_555 1_555
H51 C64 1_555 1_555
H52 C64 1_555 1_555
C65 C47 1_555 1_555
H53 C65 1_555 1_555
H54 C65 1_555 1_555
C66 C65 1_555 1_555
H55 C66 1_555 1_555
H56 C66 1_555 1_555
H57 C66 1_555 1_555
C67 C55 1_555 1_555
H58 C67 1_555 1_555
H59 C67 1_555 1_555
C68 C67 1_555 1_555
H60 C68 1_555 1_555
H61 C68 1_555 1_555
H62 C68 1_555 1_555
C69 C56 1_555 1_555
H63 C69 1_555 1_555
H64 C69 1_555 1_555
C70 C69 1_555 1_555
H65 C70 1_555 1_555
H66 C70 1_555 1_555
H67 C70 1_555 1_555
N7 C36 1_555 1_555
H68 N7 1_555 1_555
N8 C40 1_555 1_555
N9 C45 1_555 1_555
H69 N9 1_555 1_555
N10 C49 1_555 1_555
H70 N10 1_555 1_555
N11 C54 1_555 1_555
H71 N11 1_555 1_555
N12 C58 1_555 1_555
H72 N12 1_555 1_555
C71 C72 1_555 1_555
C72 H73 1_555 1_555
C73 C72 1_555 1_555
H74 C73 1_555 1_555
C74 C73 1_555 1_555
C75 C74 1_555 1_555
H75 C75 1_555 1_555
C76 C71 1_555 1_555
H76 C76 1_555 1_555
C77 C74 1_555 1_555
C78 C77 1_555 1_555
H77 C78 1_555 1_555
C79 C78 1_555 1_555
H78 C79 1_555 1_555
C80 C79 1_555 1_555
C81 C80 1_555 1_555
H79 C81 1_555 1_555
C82 C77 1_555 1_555
H80 C82 1_555 1_555
O1 S1 1_555 1_555
O2 S1 1_555 1_555
O3 S1 1_555 1_555
O4 S2 1_555 1_555
O5 S2 1_555 1_555
O6 S2 1_555 1_555
S1 C71 1_555 1_555
S2 C80 1_555 1_555
C83 C84 1_555 1_555
C84 H81 1_555 1_555
C85 C84 1_555 1_555
H82 C85 1_555 1_555
C86 C85 1_555 1_555
C87 C86 1_555 1_555
H83 C87 1_555 1_555
C88 C83 1_555 1_555
H84 C88 1_555 1_555
C89 C86 1_555 1_555
C90 C89 1_555 1_555
H85 C90 1_555 1_555
C91 C90 1_555 1_555
H86 C91 1_555 1_555
C92 C91 1_555 1_555
C93 C92 1_555 1_555
H87 C93 1_555 1_555
C94 C89 1_555 1_555
H88 C94 1_555 1_555
O7 S3 1_555 1_555
O8 S3 1_555 1_555
O9 S3 1_555 1_555
O10 S4 1_555 1_555
O11 S4 1_555 1_555
O12 S4 1_555 1_555
S3 C83 1_555 1_555
S4 C92 1_555 1_555
C95 H89 1_555 1_555
Cl1 C95 1_555 1_555
Cl2 C95 1_555 1_555
Cl3 C95 1_555 1_555
C96 H90 1_555 1_555
Cl4 C96 1_555 1_555
Cl5 C96 1_555 1_555
Cl6 C96 1_555 1_555
C4 N1 1_555 1_555
C9 N2 1_555 1_555
C13 N3 1_555 1_555
C18 N4 1_555 1_555
C22 N5 1_555 1_555
C26 C27 1_555 1_555
C27 N6 1_555 1_555
C39 N7 1_555 1_555
C44 N8 1_555 1_555
C48 N9 1_555 1_555
C53 N10 1_555 1_555
C57 N11 1_555 1_555
C61 C62 1_555 1_555
C62 N12 1_555 1_555
C75 C76 1_555 1_555
C81 C82 1_555 1_555
C87 C88 1_555 1_555
C93 C94 1_555 1_555

#END
