
#######################################################################
#
#                 Cambridge Crystallographic Data Centre
#                                CCDC 
#
#######################################################################
#
# If this CIF has been generated from an entry in the Cambridge 
# Structural Database, then it will include bibliographic, chemical, 
# crystal, experimental, refinement or atomic coordinate data resulting 
# from the CCDC's data processing and validation procedures.
#
#######################################################################

data_BULYAK
_chemical_compound_source        'Callicarpa macrophylla'
_chemical_formula_moiety         'C20 H30 O4'
_chemical_name_systematic        
"5'-isopropyl-5,8a-dimethyl-1-oxooctahydro-1H-spiro[naphthalene-2,2'-[6]oxabicyclo[3.1.0]hexane]-5-carboxylic acid"
_symmetry_cell_setting           orthorhombic
_symmetry_space_group_name_H-M   'P 21 21 21'
_symmetry_Int_Tables_number      19
_space_group_name_Hall           'P 2ac 2ab'
loop_
_symmetry_equiv_pos_site_id
_symmetry_equiv_pos_as_xyz
1 x,y,z
2 1/2-x,-y,1/2+z
3 -x,1/2+y,1/2-z
4 1/2+x,1/2-y,-z
_cell_length_a                   7.5870(15)
_cell_length_b                   9.6985(19)
_cell_length_c                   25.106(5)
_cell_angle_alpha                90
_cell_angle_beta                 90
_cell_angle_gamma                90
_cell_volume                     1847.36
_cell_formula_units_Z            4
loop_
_atom_site_label
_atom_site_type_symbol
_atom_site_fract_x
_atom_site_fract_y
_atom_site_fract_z
O1 O 0.1905(4) 0.3247(2) 0.87965(9)
H1 H 0.1440 0.2506 0.8867
O2 O 0.0795(6) 0.2811(3) 0.80111(12)
O3 O 0.3985(3) 0.8605(3) 0.93019(9)
O4 O 0.0584(3) 1.0875(2) 0.91915(8)
C1 C 0.5012(4) 0.7052(3) 0.84613(13)
H2 H 0.5426 0.6635 0.8789
H3 H 0.5673 0.7896 0.8406
C2 C 0.5364(4) 0.6074(4) 0.80019(16)
H4 H 0.4996 0.6499 0.7670
H5 H 0.6617 0.5885 0.7979
C3 C 0.4367(4) 0.4734(4) 0.80825(14)
H6 H 0.4788 0.4291 0.8405
H7 H 0.4611 0.4122 0.7786
C4 C 0.2342(4) 0.4952(3) 0.81264(9)
C5 C 0.1970(4) 0.6043(2) 0.85589(10)
H8 H 0.2363 0.5616 0.8892
C6 C 0.0009(3) 0.6336(3) 0.86439(11)
H9 H -0.0649 0.5478 0.8634
H10 H -0.0425 0.6925 0.8361
C7 C -0.0263(4) 0.7041(3) 0.91799(13)
H11 H 0.0012 0.6388 0.9461
H12 H -0.1498 0.7285 0.9215
C8 C 0.0861(4) 0.8355(3) 0.92641(10)
C9 C 0.2747(4) 0.8161(3) 0.90497(10)
C10 C 0.3043(4) 0.7404(3) 0.85181(10)
C11 C 0.0850(5) 0.8779(3) 0.98582(11)
H13 H 0.0799 0.7971 1.0085
H14 H 0.1903 0.9300 0.9945
C12 C -0.0782(5) 0.9660(4) 0.99311(12)
H15 H -0.1787 0.9093 1.0026
H16 H -0.0599 1.0339 1.0209
C13 C -0.1071(5) 1.0336(3) 0.94152(13)
C14 C -0.0057(4) 0.9574(3) 0.90068(11)
H17 H -0.0523 0.9491 0.8644
C15 C -0.2778(7) 1.1151(4) 0.93272(16)
H18 H -0.3743 1.0677 0.9510
C16 C -0.3271(7) 1.1352(6) 0.8765(2)
H19 H -0.3450 1.0471 0.8599
H20 H -0.2346 1.1837 0.8584
H21 H -0.4340 1.1880 0.8746
C17 C -0.2468(11) 1.2615(6) 0.9605(2)
H22 H -0.3509 1.3169 0.9567
H23 H -0.1490 1.3072 0.9439
H24 H -0.2219 1.2481 0.9977
C18 C 0.1551(5) 0.5304(4) 0.75807(11)
H25 H 0.0301 0.5426 0.7615
H26 H 0.1785 0.4566 0.7336
H27 H 0.2072 0.6139 0.7449
C19 C 0.1573(4) 0.3575(3) 0.82926(13)
C20 C 0.2479(5) 0.8397(3) 0.80700(11)
H28 H 0.3214 0.9202 0.8077
H29 H 0.1273 0.8662 0.8122
H30 H 0.2600 0.7944 0.7732
loop_
_geom_bond_atom_site_label_1
_geom_bond_atom_site_label_2
_geom_bond_site_symmetry_1
_geom_bond_site_symmetry_2
O1 H1 1_555 1_555
O2 C19 1_555 1_555
O3 C9 1_555 1_555
O4 C13 1_555 1_555
C1 H2 1_555 1_555
H3 C1 1_555 1_555
C2 C1 1_555 1_555
H4 C2 1_555 1_555
H5 C2 1_555 1_555
C3 C2 1_555 1_555
H6 C3 1_555 1_555
H7 C3 1_555 1_555
C4 C3 1_555 1_555
C5 C4 1_555 1_555
H8 C5 1_555 1_555
C6 C5 1_555 1_555
H9 C6 1_555 1_555
H10 C6 1_555 1_555
C7 C6 1_555 1_555
H11 C7 1_555 1_555
H12 C7 1_555 1_555
C8 C7 1_555 1_555
C9 C8 1_555 1_555
C10 C1 1_555 1_555
C11 C8 1_555 1_555
H13 C11 1_555 1_555
H14 C11 1_555 1_555
C12 C11 1_555 1_555
H15 C12 1_555 1_555
H16 C12 1_555 1_555
C13 C12 1_555 1_555
C14 O4 1_555 1_555
H17 C14 1_555 1_555
C15 C13 1_555 1_555
H18 C15 1_555 1_555
C16 C15 1_555 1_555
H19 C16 1_555 1_555
H20 C16 1_555 1_555
H21 C16 1_555 1_555
C17 C15 1_555 1_555
H22 C17 1_555 1_555
H23 C17 1_555 1_555
H24 C17 1_555 1_555
C18 C4 1_555 1_555
H25 C18 1_555 1_555
H26 C18 1_555 1_555
H27 C18 1_555 1_555
C19 O1 1_555 1_555
C20 C10 1_555 1_555
H28 C20 1_555 1_555
H29 C20 1_555 1_555
H30 C20 1_555 1_555
C4 C19 1_555 1_555
C5 C10 1_555 1_555
C8 C14 1_555 1_555
C9 C10 1_555 1_555
C13 C14 1_555 1_555

#END
