
#######################################################################
#
#                 Cambridge Crystallographic Data Centre
#                                CCDC 
#
#######################################################################
#
# If this CIF has been generated from an entry in the Cambridge 
# Structural Database, then it will include bibliographic, chemical, 
# crystal, experimental, refinement or atomic coordinate data resulting 
# from the CCDC's data processing and validation procedures.
#
#######################################################################

data_BUNBAO
_chemical_formula_moiety         'C32 H40 N4 O2 S4'
_chemical_name_systematic        
8,8'-(1,4,10,13-Tetrathia-7,16-diazacyclooctadecane-7,16-diylbis(methylene))diquinolin-7-ol
_symmetry_cell_setting           triclinic
_symmetry_space_group_name_H-M   'P -1'
_symmetry_Int_Tables_number      2
_space_group_name_Hall           '-P 1'
loop_
_symmetry_equiv_pos_site_id
_symmetry_equiv_pos_as_xyz
1 x,y,z
2 -x,-y,-z
_cell_length_a                   8.8095(5)
_cell_length_b                   11.6885(7)
_cell_length_c                   17.0124(10)
_cell_angle_alpha                93.617(1)
_cell_angle_beta                 101.032(1)
_cell_angle_gamma                108.264(1)
_cell_volume                     1618.48
_exptl_crystal_colour            colorless
_exptl_crystal_description       rod
_cell_formula_units_Z            2
loop_
_atom_site_label
_atom_site_type_symbol
_atom_site_fract_x
_atom_site_fract_y
_atom_site_fract_z
S1 S 0.54796(16) 0.86316(11) 0.39051(8)
S2 S 0.11231(19) 1.02848(17) 0.36854(9)
O1 O 0.1775(4) 0.7775(3) 0.27301(19)
H1 H 0.2322 0.8478 0.2922
N1 N 0.3833(4) 1.0084(3) 0.2699(2)
N2 N 0.3117(5) 0.9120(3) 0.0273(2)
C1 C 0.2528(8) 1.0279(5) 0.4611(3)
H2 H 0.2054 0.9548 0.4842
H3 H 0.3536 1.0240 0.4479
C2 C 0.7065(7) 0.8665(5) 0.4774(3)
H4 H 0.6701 0.7927 0.5018
H5 H 0.8047 0.8675 0.4592
C3 C 0.6467(6) 0.9995(5) 0.3518(3)
H6 H 0.6575 1.0696 0.3889
H7 H 0.7558 1.0018 0.3475
C4 C 0.5493(6) 1.0050(4) 0.2702(3)
H8 H 0.6093 1.0769 0.2494
H9 H 0.5400 0.9347 0.2337
C5 C 0.3948(7) 1.1285(5) 0.3063(3)
H10 H 0.4378 1.1878 0.2717
H11 H 0.4731 1.1488 0.3578
C6 C 0.2330(8) 1.1404(6) 0.3201(3)
H12 H 0.1663 1.1417 0.2680
H13 H 0.2582 1.2187 0.3517
C7 C 0.2855(6) 0.9802(4) 0.1859(3)
H14 H 0.3448 1.0337 0.1525
H15 H 0.1829 0.9952 0.1845
C8 C 0.2500(5) 0.8495(4) 0.1517(3)
C9 C 0.1955(5) 0.7566(4) 0.1966(3)
C10 C 0.1518(5) 0.6339(4) 0.1634(3)
H16 H 0.1158 0.5727 0.1946
C11 C 0.1614(5) 0.6044(4) 0.0876(3)
H17 H 0.1310 0.5230 0.0669
C12 C 0.2170(5) 0.6954(4) 0.0386(3)
C13 C 0.2608(5) 0.8189(4) 0.0719(3)
C14 C 0.2259(6) 0.6721(4) -0.0418(3)
H18 H 0.1977 0.5922 -0.0655
C15 C 0.2748(6) 0.7637(5) -0.0854(3)
H19 H 0.2796 0.7484 -0.1390
C16 C 0.3179(6) 0.8820(5) -0.0476(3)
H20 H 0.3539 0.9449 -0.0776
S1A S 0.45204(16) 1.13684(11) 0.60949(8)
S2A S 0.88769(19) 0.97152(17) 0.63146(9)
O1A O 0.8225(4) 1.2225(3) 0.72699(19)
H1A H 0.7678 1.1522 0.7078
N1A N 0.6167(4) 0.9916(3) 0.7301(2)
N2A N 0.6883(5) 1.0880(3) 0.9727(2)
C1A C 0.7472(8) 0.9721(5) 0.5389(3)
H2A H 0.7946 1.0452 0.5158
H3A H 0.6464 0.9760 0.5521
C2A C 0.2935(7) 1.1335(5) 0.5226(3)
H4A H 0.3299 1.2073 0.4982
H5A H 0.1953 1.1325 0.5408
C3A C 0.3533(6) 1.0005(5) 0.6482(3)
H6A H 0.3425 0.9304 0.6111
H7A H 0.2442 0.9982 0.6525
C4A C 0.4507(6) 0.9950(4) 0.7298(3)
H8A H 0.3907 0.9231 0.7506
H9A H 0.4600 1.0653 0.7663
C5A C 0.6052(7) 0.8715(5) 0.6937(3)
H10A H 0.5622 0.8122 0.7283
H11A H 0.5269 0.8512 0.6422
C6A C 0.7670(8) 0.8596(6) 0.6799(3)
H12A H 0.8337 0.8583 0.7320
H13A H 0.7418 0.7813 0.6483
C7A C 0.7145(6) 1.0198(4) 0.8141(3)
H14A H 0.6552 0.9663 0.8475
H15A H 0.8171 1.0048 0.8155
C8A C 0.7500(5) 1.1505(4) 0.8483(3)
C9A C 0.8045(5) 1.2434(4) 0.8034(3)
C10A C 0.8482(5) 1.3661(4) 0.8366(3)
H16A H 0.8842 1.4273 0.8054
C11A C 0.8386(5) 1.3956(4) 0.9124(3)
H17A H 0.8690 1.4770 0.9331
C12A C 0.7830(5) 1.3046(4) 0.9614(3)
C13A C 0.7392(5) 1.1811(4) 0.9281(3)
C14A C 0.7741(6) 1.3279(4) 1.0418(3)
H18A H 0.8023 1.4078 1.0655
C15A C 0.7252(6) 1.2363(5) 1.0854(3)
H19A H 0.7204 1.2516 1.1390
C16A C 0.6821(6) 1.1180(5) 1.0476(3)
H20A H 0.6461 1.0551 1.0776
S3 S 0.22423(18) 0.28636(13) 0.11655(9)
S4 S 0.79483(18) 0.87145(12) 0.13127(8)
O2 O 0.8456(5) 0.4511(4) 0.2310(3)
H21 H 0.7999 0.5005 0.2180
N3 N 0.6301(5) 0.5616(3) 0.2333(2)
N4 N 0.6908(6) 0.5224(5) 0.4780(3)
C17 C 0.7148(7) 0.8070(5) 0.0268(3)
H22 H 0.6132 0.7405 0.0222
H23 H 0.6896 0.8683 -0.0041
C18 C 0.1705(7) 0.2385(6) 0.0085(4)
H24 H 0.0643 0.1749 -0.0043
H25 H 0.1579 0.3067 -0.0184
C19 C 0.4170(6) 0.4062(5) 0.1294(3)
H26 H 0.4993 0.3730 0.1175
H27 H 0.4063 0.4646 0.0926
C20 C 0.4692(6) 0.4686(4) 0.2163(3)
H28 H 0.3892 0.5055 0.2266
H29 H 0.4705 0.4081 0.2527
C21 C 0.6260(6) 0.6733(4) 0.1990(3)
H30 H 0.5899 0.7220 0.2349
H31 H 0.5479 0.6522 0.1474
C22 C 0.7929(6) 0.7466(5) 0.1875(3)
H32 H 0.8363 0.6930 0.1599
H33 H 0.8657 0.7779 0.2402
C23 C 0.7041(6) 0.5864(4) 0.3211(3)
H34 H 0.6234 0.5969 0.3500
H35 H 0.7956 0.6621 0.3321
C24 C 0.7633(6) 0.4876(4) 0.3526(3)
C25 C 0.8325(6) 0.4272(5) 0.3067(4)
C26 C 0.8991(7) 0.3382(5) 0.3365(5)
H36 H 0.9453 0.2975 0.3044
C27 C 0.8932(8) 0.3141(6) 0.4139(6)
H37 H 0.9382 0.2570 0.4343
C28 C 0.8231(8) 0.3714(6) 0.4624(5)
C29 C 0.7567(7) 0.4599(5) 0.4331(4)
C30 C 0.8160(10) 0.3483(7) 0.5438(5)
H38 H 0.8575 0.2909 0.5664
C31 C 0.7492(12) 0.4104(9) 0.5859(5)
H39 H 0.7439 0.3967 0.6388
C32 C 0.6877(8) 0.4948(8) 0.5522(4)
H40 H 0.6405 0.5356 0.5837
S3A S 0.77577(18) 0.71364(13) -0.11655(9)
S4A S 0.20517(18) 0.12855(12) -0.13127(8)
O2A O 0.1544(5) 0.5489(4) -0.2310(3)
H21A H 0.2001 0.4995 -0.2180
N3A N 0.3699(5) 0.4384(3) -0.2333(2)
N4A N 0.3092(6) 0.4776(5) -0.4780(3)
C17A C 0.2852(7) 0.1930(5) -0.0268(3)
H22A H 0.3868 0.2595 -0.0222
H23A H 0.3104 0.1317 0.0041
C18A C 0.8295(7) 0.7615(6) -0.0085(4)
H24A H 0.9357 0.8251 0.0043
H25A H 0.8421 0.6933 0.0184
C19A C 0.5830(6) 0.5938(5) -0.1294(3)
H26A H 0.5007 0.6270 -0.1175
H27A H 0.5937 0.5354 -0.0926
C20A C 0.5308(6) 0.5314(4) -0.2163(3)
H28A H 0.6108 0.4945 -0.2266
H29A H 0.5295 0.5919 -0.2527
C21A C 0.3740(6) 0.3267(4) -0.1990(3)
H30A H 0.4101 0.2780 -0.2349
H31A H 0.4521 0.3478 -0.1474
C22A C 0.2071(6) 0.2534(5) -0.1875(3)
H32A H 0.1637 0.3070 -0.1599
H33A H 0.1343 0.2221 -0.2402
C23A C 0.2959(6) 0.4136(4) -0.3211(3)
H34A H 0.3766 0.4031 -0.3500
H35A H 0.2044 0.3379 -0.3321
C24A C 0.2367(6) 0.5124(4) -0.3526(3)
C25A C 0.1675(6) 0.5728(5) -0.3067(4)
C26A C 0.1009(7) 0.6618(5) -0.3365(5)
H36A H 0.0547 0.7025 -0.3044
C27A C 0.1068(8) 0.6859(6) -0.4139(6)
H37A H 0.0618 0.7430 -0.4343
C28A C 0.1769(8) 0.6286(6) -0.4624(5)
C29A C 0.2433(7) 0.5401(5) -0.4331(4)
C30A C 0.1840(10) 0.6517(7) -0.5438(5)
H38A H 0.1425 0.7091 -0.5664
C31A C 0.2508(12) 0.5896(9) -0.5859(5)
H39A H 0.2561 0.6033 -0.6388
C32A C 0.3123(8) 0.5052(8) -0.5522(4)
H40A H 0.3595 0.4644 -0.5837
loop_
_geom_bond_atom_site_label_1
_geom_bond_atom_site_label_2
_geom_bond_site_symmetry_1
_geom_bond_site_symmetry_2
S1 C2 1_555 1_555
S2 C1 1_555 1_555
O1 H1 1_555 1_555
N1 C4 1_555 1_555
N2 C13 1_555 1_555
C1 H2 1_555 1_555
H3 C1 1_555 1_555
C2 H4 1_555 1_555
H5 C2 1_555 1_555
C3 S1 1_555 1_555
H6 C3 1_555 1_555
H7 C3 1_555 1_555
C4 C3 1_555 1_555
H8 C4 1_555 1_555
H9 C4 1_555 1_555
C5 N1 1_555 1_555
H10 C5 1_555 1_555
H11 C5 1_555 1_555
C6 S2 1_555 1_555
H12 C6 1_555 1_555
H13 C6 1_555 1_555
C7 N1 1_555 1_555
H14 C7 1_555 1_555
H15 C7 1_555 1_555
C8 C7 1_555 1_555
C9 O1 1_555 1_555
C10 C9 1_555 1_555
H16 C10 1_555 1_555
C11 C10 1_555 1_555
H17 C11 1_555 1_555
C12 C11 1_555 1_555
C13 C8 1_555 1_555
C14 C12 1_555 1_555
H18 C14 1_555 1_555
C15 C14 1_555 1_555
H19 C15 1_555 1_555
C16 N2 1_555 1_555
H20 C16 1_555 1_555
S3 C18 1_555 1_555
S4 C17 1_555 1_555
O2 H21 1_555 1_555
N3 C20 1_555 1_555
N4 C29 1_555 1_555
C17 H22 1_555 1_555
H23 C17 1_555 1_555
C18 H24 1_555 1_555
H25 C18 1_555 1_555
C19 S3 1_555 1_555
H26 C19 1_555 1_555
H27 C19 1_555 1_555
C20 C19 1_555 1_555
H28 C20 1_555 1_555
H29 C20 1_555 1_555
C21 N3 1_555 1_555
H30 C21 1_555 1_555
H31 C21 1_555 1_555
C22 S4 1_555 1_555
H32 C22 1_555 1_555
H33 C22 1_555 1_555
C23 N3 1_555 1_555
H34 C23 1_555 1_555
H35 C23 1_555 1_555
C24 C23 1_555 1_555
C25 O2 1_555 1_555
C26 C25 1_555 1_555
H36 C26 1_555 1_555
C27 C26 1_555 1_555
H37 C27 1_555 1_555
C28 C27 1_555 1_555
C29 C24 1_555 1_555
C30 C28 1_555 1_555
H38 C30 1_555 1_555
C31 C30 1_555 1_555
H39 C31 1_555 1_555
C32 N4 1_555 1_555
H40 C32 1_555 1_555
S1A C2A 1_555 1_555
S2A C1A 1_555 1_555
O1A H1A 1_555 1_555
N1A C4A 1_555 1_555
N2A C13A 1_555 1_555
C1A C2 1_555 1_555
H2A C1A 1_555 1_555
H3A C1A 1_555 1_555
C2A C1 1_555 1_555
H4A C2A 1_555 1_555
H5A C2A 1_555 1_555
C3A S1A 1_555 1_555
H6A C3A 1_555 1_555
H7A C3A 1_555 1_555
C4A C3A 1_555 1_555
H8A C4A 1_555 1_555
H9A C4A 1_555 1_555
C5A N1A 1_555 1_555
H10A C5A 1_555 1_555
H11A C5A 1_555 1_555
C6A S2A 1_555 1_555
H12A C6A 1_555 1_555
H13A C6A 1_555 1_555
C7A N1A 1_555 1_555
H14A C7A 1_555 1_555
H15A C7A 1_555 1_555
C8A C7A 1_555 1_555
C9A O1A 1_555 1_555
C10A C9A 1_555 1_555
H16A C10A 1_555 1_555
C11A C10A 1_555 1_555
H17A C11A 1_555 1_555
C12A C11A 1_555 1_555
C13A C8A 1_555 1_555
C14A C12A 1_555 1_555
H18A C14A 1_555 1_555
C15A C14A 1_555 1_555
H19A C15A 1_555 1_555
C16A N2A 1_555 1_555
H20A C16A 1_555 1_555
S3A C18A 1_555 1_555
S4A C17A 1_555 1_555
O2A H21A 1_555 1_555
N3A C20A 1_555 1_555
N4A C29A 1_555 1_555
C17A C18 1_555 1_555
H22A C17A 1_555 1_555
H23A C17A 1_555 1_555
C18A C17 1_555 1_555
H24A C18A 1_555 1_555
H25A C18A 1_555 1_555
C19A S3A 1_555 1_555
H26A C19A 1_555 1_555
H27A C19A 1_555 1_555
C20A C19A 1_555 1_555
H28A C20A 1_555 1_555
H29A C20A 1_555 1_555
C21A N3A 1_555 1_555
H30A C21A 1_555 1_555
H31A C21A 1_555 1_555
C22A S4A 1_555 1_555
H32A C22A 1_555 1_555
H33A C22A 1_555 1_555
C23A N3A 1_555 1_555
H34A C23A 1_555 1_555
H35A C23A 1_555 1_555
C24A C23A 1_555 1_555
C25A O2A 1_555 1_555
C26A C25A 1_555 1_555
H36A C26A 1_555 1_555
C27A C26A 1_555 1_555
H37A C27A 1_555 1_555
C28A C27A 1_555 1_555
C29A C24A 1_555 1_555
C30A C28A 1_555 1_555
H38A C30A 1_555 1_555
C31A C30A 1_555 1_555
H39A C31A 1_555 1_555
C32A N4A 1_555 1_555
H40A C32A 1_555 1_555
C5 C6 1_555 1_555
C8 C9 1_555 1_555
C12 C13 1_555 1_555
C15 C16 1_555 1_555
C21 C22 1_555 1_555
C24 C25 1_555 1_555
C28 C29 1_555 1_555
C31 C32 1_555 1_555
C5A C6A 1_555 1_555
C8A C9A 1_555 1_555
C12A C13A 1_555 1_555
C15A C16A 1_555 1_555
C21A C22A 1_555 1_555
C24A C25A 1_555 1_555
C28A C29A 1_555 1_555
C31A C32A 1_555 1_555

#END
