
#######################################################################
#
#                 Cambridge Crystallographic Data Centre
#                                CCDC 
#
#######################################################################
#
# If this CIF has been generated from an entry in the Cambridge 
# Structural Database, then it will include bibliographic, chemical, 
# crystal, experimental, refinement or atomic coordinate data resulting 
# from the CCDC's data processing and validation procedures.
#
#######################################################################

data_BUNNUV
_chemical_formula_moiety         'C21 H15 Cl1 I1 N1 O2'
_chemical_name_systematic        
'ethyl 4-(4-chlorophenyl)-5-iodo-3H-benzo[e]indole-1-carboxylate'
_symmetry_cell_setting           monoclinic
_symmetry_space_group_name_H-M   'P 21/n'
_symmetry_Int_Tables_number      14
_space_group_name_Hall           '-P 2yn'
loop_
_symmetry_equiv_pos_site_id
_symmetry_equiv_pos_as_xyz
1 x,y,z
2 1/2-x,1/2+y,1/2-z
3 -x,-y,-z
4 1/2+x,1/2-y,1/2+z
_cell_length_a                   11.057(3)
_cell_length_b                   13.631(3)
_cell_length_c                   13.716(3)
_cell_angle_alpha                90
_cell_angle_beta                 110.380(3)
_cell_angle_gamma                90
_cell_volume                     1937.85
_cell_formula_units_Z            4
loop_
_atom_site_label
_atom_site_type_symbol
_atom_site_fract_x
_atom_site_fract_y
_atom_site_fract_z
C1 C 0.5381(3) 0.0203(3) 0.7717(3)
C2 C 0.6333(3) 0.0133(3) 0.8743(3)
C3 C 0.7442(4) -0.0473(3) 0.8956(3)
H1 H 0.7549 -0.0845 0.8423
C4 C 0.8347(4) -0.0520(3) 0.9925(4)
H2 H 0.9071 -0.0916 1.0047
C5 C 0.8199(4) 0.0015(3) 1.0730(4)
H3 H 0.8827 -0.0024 1.1389
C6 C 0.7142(4) 0.0605(3) 1.0578(3)
H4 H 0.7056 0.0952 1.1133
C7 C 0.6172(3) 0.0688(2) 0.9564(3)
C8 C 0.5069(3) 0.1312(2) 0.9347(2)
C9 C 0.4545(3) 0.1964(2) 0.9924(2)
C10 C 0.3406(3) 0.2328(3) 0.9231(3)
H5 H 0.2861 0.2763 0.9399
C11 C 0.4195(3) 0.1334(3) 0.8322(2)
C12 C 0.4321(3) 0.0794(2) 0.7482(2)
C13 C 0.3342(3) 0.0921(3) 0.6424(2)
C14 C 0.3340(3) 0.1741(3) 0.5841(3)
H6 H 0.3941 0.2234 0.6123
C15 C 0.2457(4) 0.1848(3) 0.4834(3)
H7 H 0.2465 0.2404 0.4444
C16 C 0.1583(3) 0.1120(4) 0.4438(3)
C17 C 0.1544(4) 0.0307(4) 0.5000(3)
H8 H 0.0931 -0.0176 0.4711
C18 C 0.2414(4) 0.0199(3) 0.5999(3)
H9 H 0.2381 -0.0354 0.6387
C19 C 0.5029(4) 0.2294(3) 1.1009(3)
C20 C 0.4503(5) 0.3231(4) 1.2265(3)
H10 H 0.5020 0.3816 1.2312
H11 H 0.5008 0.2762 1.2777
C21 C 0.3320(6) 0.3474(5) 1.2455(4)
H12 H 0.3533 0.3758 1.3135
H13 H 0.2822 0.2889 1.2414
H14 H 0.2827 0.3935 1.1942
N1 N 0.3202(3) 0.1961(2) 0.8278(2)
O1 O 0.6086(3) 0.2151(2) 1.16486(19)
O2 O 0.4137(3) 0.2814(2) 1.12315(19)
I1 I 0.56326(3) -0.05887(2) 0.64750(2)
Cl1 Cl 0.04942(11) 0.12285(12) 0.31652(8)
H15 H 0.263(3) 0.210(2) 0.783(3)
loop_
_geom_bond_atom_site_label_1
_geom_bond_atom_site_label_2
_geom_bond_site_symmetry_1
_geom_bond_site_symmetry_2
C1 C2 1_555 1_555
C2 C3 1_555 1_555
C3 H1 1_555 1_555
C4 C3 1_555 1_555
H2 C4 1_555 1_555
C5 C4 1_555 1_555
H3 C5 1_555 1_555
C6 C5 1_555 1_555
H4 C6 1_555 1_555
C7 C2 1_555 1_555
C8 C7 1_555 1_555
C9 C8 1_555 1_555
C10 C9 1_555 1_555
H5 C10 1_555 1_555
C11 C8 1_555 1_555
C12 C1 1_555 1_555
C13 C12 1_555 1_555
C14 C13 1_555 1_555
H6 C14 1_555 1_555
C15 C14 1_555 1_555
H7 C15 1_555 1_555
C16 C15 1_555 1_555
C17 C16 1_555 1_555
H8 C17 1_555 1_555
C18 C13 1_555 1_555
H9 C18 1_555 1_555
C19 C9 1_555 1_555
C20 H10 1_555 1_555
H11 C20 1_555 1_555
C21 C20 1_555 1_555
H12 C21 1_555 1_555
H13 C21 1_555 1_555
H14 C21 1_555 1_555
N1 C10 1_555 1_555
O1 C19 1_555 1_555
O2 C19 1_555 1_555
I1 C1 1_555 1_555
Cl1 C16 1_555 1_555
H15 N1 1_555 1_555
C6 C7 1_555 1_555
C11 C12 1_555 1_555
C11 N1 1_555 1_555
C17 C18 1_555 1_555
C20 O2 1_555 1_555

#END
