
#######################################################################
#
#                 Cambridge Crystallographic Data Centre
#                                CCDC 
#
#######################################################################
#
# If this CIF has been generated from an entry in the Cambridge 
# Structural Database, then it will include bibliographic, chemical, 
# crystal, experimental, refinement or atomic coordinate data resulting 
# from the CCDC's data processing and validation procedures.
#
#######################################################################

data_BUNPAD
_chemical_formula_moiety         'C21 H13 Cl1 I3 N1 O2'
_chemical_name_systematic        
"ethyl 2-(4-chlorophenyl)-2',3,5'-triiodospiro[indene-1,3'-pyrrole]-4'-carboxylate"
_symmetry_cell_setting           triclinic
_symmetry_space_group_name_H-M   'P -1'
_symmetry_Int_Tables_number      2
_space_group_name_Hall           '-P 1'
loop_
_symmetry_equiv_pos_site_id
_symmetry_equiv_pos_as_xyz
1 x,y,z
2 -x,-y,-z
_cell_length_a                   8.8850(8)
_cell_length_b                   11.5990(10)
_cell_length_c                   11.6380(11)
_cell_angle_alpha                87.070(2)
_cell_angle_beta                 72.2790(10)
_cell_angle_gamma                76.183(2)
_cell_volume                     1109.11
_cell_formula_units_Z            2
loop_
_atom_site_label
_atom_site_type_symbol
_atom_site_fract_x
_atom_site_fract_y
_atom_site_fract_z
I1 I 1.11551(4) 0.03180(3) 0.61803(3)
I2 I 0.56762(6) 0.31446(4) 0.50603(4)
I3 I 0.90826(6) 0.23423(4) 1.11727(3)
Cl1 Cl 0.9563(2) 0.73563(13) 0.63726(13)
C1 C 0.7904(6) 0.1850(4) 0.7908(4)
C2 C 0.8089(6) 0.3850(4) 0.6775(4)
C3 C 0.6966(6) 0.0927(4) 0.7841(4)
C4 C 0.6236(6) 0.1224(4) 0.6923(5)
O1 O 0.4818(4) 0.3162(4) 0.9191(3)
C5 C 0.7552(6) 0.2728(4) 0.6929(4)
C6 C 0.9674(6) 0.1259(4) 0.7750(4)
C7 C 0.8997(7) 0.6001(5) 0.6556(4)
N1 N 1.0179(5) 0.1346(4) 0.8654(4)
O2 O 0.5505(6) 0.3541(4) 1.0799(4)
C8 C 0.6638(6) 0.2323(4) 0.6400(4)
C9 C 0.7397(7) 0.5999(5) 0.6765(5)
H1 H 0.6620 0.6710 0.6836
C10 C 0.8794(7) 0.2052(5) 0.9525(4)
C11 C 0.5815(8) -0.0742(5) 0.8302(6)
H2 H 0.5657 -0.1406 0.8764
C12 C 0.6772(7) -0.0051(5) 0.8530(5)
H3 H 0.7268 -0.0246 0.9134
C13 C 1.0163(7) 0.4961(5) 0.6475(5)
H4 H 1.1245 0.4977 0.6343
C14 C 0.7473(6) 0.2390(4) 0.9156(4)
C15 C 0.5845(6) 0.3099(5) 0.9825(5)
C16 C 0.3144(7) 0.3831(6) 0.9713(6)
H5 H 0.3124 0.4630 0.9937
H6 H 0.2611 0.3446 1.0429
C17 C 0.6945(7) 0.4922(5) 0.6868(5)
H7 H 0.5859 0.4919 0.7002
C18 C 0.9702(6) 0.3887(5) 0.6596(5)
H8 H 1.0482 0.3181 0.6556
C19 C 0.5298(7) 0.0522(5) 0.6692(6)
H9 H 0.4820 0.0705 0.6077
C20 C 0.5089(8) -0.0454(6) 0.7391(7)
H10 H 0.4451 -0.0929 0.7252
C21 C 0.2310(9) 0.3868(8) 0.8791(8)
H11 H 0.1201 0.4304 0.9106
H12 H 0.2336 0.3073 0.8577
H13 H 0.2848 0.4251 0.8087
loop_
_geom_bond_atom_site_label_1
_geom_bond_atom_site_label_2
_geom_bond_site_symmetry_1
_geom_bond_site_symmetry_2
I1 C6 1_555 1_555
I2 C8 1_555 1_555
I3 C10 1_555 1_555
Cl1 C7 1_555 1_555
C1 C3 1_555 1_555
C2 C5 1_555 1_555
C3 C4 1_555 1_555
C4 C8 1_555 1_555
O1 C15 1_555 1_555
C5 C1 1_555 1_555
C6 C1 1_555 1_555
C7 C9 1_555 1_555
N1 C6 1_555 1_555
O2 C15 1_555 1_555
C8 C5 1_555 1_555
C9 H1 1_555 1_555
C10 N1 1_555 1_555
C11 H2 1_555 1_555
C12 C3 1_555 1_555
H3 C12 1_555 1_555
C13 C7 1_555 1_555
H4 C13 1_555 1_555
C14 C1 1_555 1_555
C15 C14 1_555 1_555
C16 O1 1_555 1_555
H5 C16 1_555 1_555
H6 C16 1_555 1_555
C17 C2 1_555 1_555
H7 C17 1_555 1_555
C18 C2 1_555 1_555
H8 C18 1_555 1_555
C19 C4 1_555 1_555
H9 C19 1_555 1_555
C20 C11 1_555 1_555
H10 C20 1_555 1_555
C21 C16 1_555 1_555
H11 C21 1_555 1_555
H12 C21 1_555 1_555
H13 C21 1_555 1_555
C9 C17 1_555 1_555
C10 C14 1_555 1_555
C11 C12 1_555 1_555
C13 C18 1_555 1_555
C19 C20 1_555 1_555

#END
