
#######################################################################
#
#                 Cambridge Crystallographic Data Centre
#                                CCDC 
#
#######################################################################
#
# If this CIF has been generated from an entry in the Cambridge 
# Structural Database, then it will include bibliographic, chemical, 
# crystal, experimental, refinement or atomic coordinate data resulting 
# from the CCDC's data processing and validation procedures.
#
#######################################################################

data_BUNSAG
_chemical_formula_moiety         'C38 H32 N20'
_chemical_name_systematic        
"6,6',6'',6'''-(ethene-1,1,2,2-tetrayltetra-4,1-phenylene)tetrakis(1,3,5-triazine-2,4-diamine) unknown solvate"
_symmetry_cell_setting           monoclinic
_symmetry_space_group_name_H-M   'C 2/c'
_symmetry_Int_Tables_number      15
_space_group_name_Hall           '-C 2yn'
loop_
_symmetry_equiv_pos_site_id
_symmetry_equiv_pos_as_xyz
1 x,y,z
2 -x,y,1/2-z
3 1/2+x,1/2+y,z
4 1/2-x,1/2+y,1/2-z
5 -x,-y,-z
6 x,-y,1/2+z
7 1/2-x,1/2-y,-z
8 1/2+x,1/2-y,1/2+z
_cell_length_a                   21.6470(5)
_cell_length_b                   22.0832(5)
_cell_length_c                   14.1759(3)
_cell_angle_alpha                90
_cell_angle_beta                 92.692(2)
_cell_angle_gamma                90
_cell_volume                     6769.1
_exptl_crystal_colour            'pale yellowish'
_exptl_crystal_description       block
_cell_formula_units_Z            4
loop_
_atom_site_label
_atom_site_type_symbol
_atom_site_fract_x
_atom_site_fract_y
_atom_site_fract_z
N1 N 0.65286(7) 0.90124(6) 0.57508(9)
N2 N 0.65157(7) 0.92278(7) 0.74095(10)
N3 N 0.56866(7) 0.86755(6) 0.66342(10)
N4 N 0.73335(8) 0.95034(8) 0.65299(11)
H1 H 0.7511 0.9657 0.7030
H2 H 0.7512 0.9518 0.6002
N5 N 0.56871(8) 0.88969(7) 0.82189(11)
H3 H 0.5852 0.9053 0.8726
H4 H 0.5337 0.8713 0.8234
N6 N 0.70238(7) 0.55026(6) 0.52880(10)
N7 N 0.70326(7) 0.49658(6) 0.67500(10)
N8 N 0.60843(7) 0.53389(7) 0.60494(11)
N9 N 0.79277(7) 0.51167(7) 0.59846(11)
H5 H 0.8124 0.4924 0.6432
H6 H 0.8124 0.5259 0.5520
N10 N 0.61057(8) 0.48398(8) 0.74596(12)
H7 H 0.6296 0.4651 0.7917
H8 H 0.5712 0.4892 0.7464
C1 C 0.67813(8) 0.92426(8) 0.65745(12)
C2 C 0.59731(9) 0.89396(7) 0.74084(12)
C3 C 0.59923(8) 0.87346(6) 0.58373(11)
C4 C 0.57071(8) 0.84495(6) 0.49669(11)
C5 C 0.52227(9) 0.80446(8) 0.50200(13)
H9 H 0.5052 0.7973 0.5599
C6 C 0.49869(9) 0.77433(8) 0.42210(13)
H10 H 0.4663 0.7470 0.4270
C7 C 0.52351(8) 0.78501(6) 0.33431(11)
C8 C 0.57085(10) 0.82700(8) 0.32852(13)
H11 H 0.5867 0.8357 0.2702
C9 C 0.59482(10) 0.85615(8) 0.40931(13)
H12 H 0.6273 0.8834 0.4047
C10 C 0.73181(8) 0.51957(7) 0.60120(12)
C11 C 0.64220(9) 0.50529(7) 0.67390(12)
C12 C 0.64172(8) 0.55527(7) 0.53593(12)
C13 C 0.60578(8) 0.58873(7) 0.46027(11)
C14 C 0.54364(8) 0.57547(7) 0.44175(12)
H13 H 0.5248 0.5454 0.4762
C15 C 0.50945(8) 0.60681(7) 0.37208(12)
H14 H 0.4683 0.5965 0.3584
C16 C 0.53648(8) 0.65354(6) 0.32270(10)
C17 C 0.59952(8) 0.66638(7) 0.34054(11)
H15 H 0.6183 0.6967 0.3066
C18 C 0.63395(8) 0.63390(7) 0.40876(11)
H16 H 0.6757 0.6423 0.4200
C19 C 0.5000 0.75027(10) 0.2500
C20 C 0.5000 0.68922(10) 0.2500
N1A N 0.34714(7) 0.90124(6) -0.07508(9)
N2A N 0.34843(7) 0.92278(7) -0.24095(10)
N3A N 0.43134(7) 0.86755(6) -0.16342(10)
N4A N 0.26665(8) 0.95034(8) -0.15299(11)
H1A H 0.2489 0.9657 -0.2030
H2A H 0.2488 0.9518 -0.1002
N5A N 0.43129(8) 0.88969(7) -0.32189(11)
H3A H 0.4148 0.9053 -0.3726
H4A H 0.4663 0.8713 -0.3234
N6A N 0.29762(7) 0.55026(6) -0.02880(10)
N7A N 0.29674(7) 0.49658(6) -0.17500(10)
N8A N 0.39157(7) 0.53389(7) -0.10494(11)
N9A N 0.20723(7) 0.51167(7) -0.09846(11)
H5A H 0.1876 0.4924 -0.1432
H6A H 0.1876 0.5259 -0.0520
N10A N 0.38943(8) 0.48398(8) -0.24596(12)
H7A H 0.3704 0.4651 -0.2917
H8A H 0.4288 0.4892 -0.2464
C1A C 0.32187(8) 0.92426(8) -0.15745(12)
C2A C 0.40269(9) 0.89396(7) -0.24084(12)
C3A C 0.40077(8) 0.87346(6) -0.08373(11)
C4A C 0.42929(8) 0.84495(6) 0.00331(11)
C5A C 0.47773(9) 0.80446(8) -0.00200(13)
H9A H 0.4948 0.7973 -0.0599
C6A C 0.50131(9) 0.77433(8) 0.07790(13)
H10A H 0.5337 0.7470 0.0730
C7A C 0.47649(8) 0.78501(6) 0.16569(11)
C8A C 0.42915(10) 0.82700(8) 0.17148(13)
H11A H 0.4133 0.8357 0.2298
C9A C 0.40518(10) 0.85615(8) 0.09069(13)
H12A H 0.3727 0.8834 0.0953
C10A C 0.26819(8) 0.51957(7) -0.10120(12)
C11A C 0.35780(9) 0.50529(7) -0.17390(12)
C12A C 0.35828(8) 0.55527(7) -0.03593(12)
C13A C 0.39422(8) 0.58873(7) 0.03973(11)
C14A C 0.45636(8) 0.57547(7) 0.05825(12)
H13A H 0.4752 0.5454 0.0238
C15A C 0.49055(8) 0.60681(7) 0.12792(12)
H14A H 0.5317 0.5965 0.1416
C16A C 0.46352(8) 0.65354(6) 0.17730(10)
C17A C 0.40048(8) 0.66638(7) 0.15946(11)
H15A H 0.3817 0.6967 0.1934
C18A C 0.36605(8) 0.63390(7) 0.09124(11)
H16A H 0.3243 0.6423 0.0800
loop_
_geom_bond_atom_site_label_1
_geom_bond_atom_site_label_2
_geom_bond_site_symmetry_1
_geom_bond_site_symmetry_2
N1 C1 1_555 1_555
N2 C1 1_555 1_555
N3 C2 1_555 1_555
N4 H1 1_555 1_555
H2 N4 1_555 1_555
N5 H3 1_555 1_555
H4 N5 1_555 1_555
N6 C10 1_555 1_555
N7 C10 1_555 1_555
N8 C11 1_555 1_555
N9 H5 1_555 1_555
H6 N9 1_555 1_555
N10 H7 1_555 1_555
H8 N10 1_555 1_555
C1 N4 1_555 1_555
C2 N2 1_555 1_555
C3 N1 1_555 1_555
C4 C3 1_555 1_555
C5 C4 1_555 1_555
H9 C5 1_555 1_555
C6 C5 1_555 1_555
H10 C6 1_555 1_555
C7 C6 1_555 1_555
C8 C7 1_555 1_555
H11 C8 1_555 1_555
C9 C4 1_555 1_555
H12 C9 1_555 1_555
C10 N9 1_555 1_555
C11 N7 1_555 1_555
C12 N6 1_555 1_555
C13 C12 1_555 1_555
C14 C13 1_555 1_555
H13 C14 1_555 1_555
C15 C14 1_555 1_555
H14 C15 1_555 1_555
C16 C15 1_555 1_555
C17 C16 1_555 1_555
H15 C17 1_555 1_555
C18 C13 1_555 1_555
H16 C18 1_555 1_555
C19 C7 1_555 1_555
C20 C16 1_555 1_555
N1A C1A 1_555 1_555
N2A C1A 1_555 1_555
N3A C2A 1_555 1_555
N4A H1A 1_555 1_555
H2A N4A 1_555 1_555
N5A H3A 1_555 1_555
H4A N5A 1_555 1_555
N6A C10A 1_555 1_555
N7A C10A 1_555 1_555
N8A C11A 1_555 1_555
N9A H5A 1_555 1_555
H6A N9A 1_555 1_555
N10A H7A 1_555 1_555
H8A N10A 1_555 1_555
C1A N4A 1_555 1_555
C2A N2A 1_555 1_555
C3A N1A 1_555 1_555
C4A C3A 1_555 1_555
C5A C4A 1_555 1_555
H9A C5A 1_555 1_555
C6A C5A 1_555 1_555
H10A C6A 1_555 1_555
C7A C19 1_555 1_555
C8A C7A 1_555 1_555
H11A C8A 1_555 1_555
C9A C4A 1_555 1_555
H12A C9A 1_555 1_555
C10A N9A 1_555 1_555
C11A N7A 1_555 1_555
C12A N6A 1_555 1_555
C13A C12A 1_555 1_555
C14A C13A 1_555 1_555
H13A C14A 1_555 1_555
C15A C14A 1_555 1_555
H14A C15A 1_555 1_555
C16A C20 1_555 1_555
C17A C16A 1_555 1_555
H15A C17A 1_555 1_555
C18A C13A 1_555 1_555
H16A C18A 1_555 1_555
N3 C3 1_555 1_555
N5 C2 1_555 1_555
N8 C12 1_555 1_555
N10 C11 1_555 1_555
C8 C9 1_555 1_555
C17 C18 1_555 1_555
C19 C20 1_555 1_555
N3A C3A 1_555 1_555
N5A C2A 1_555 1_555
N8A C12A 1_555 1_555
N10A C11A 1_555 1_555
C6A C7A 1_555 1_555
C8A C9A 1_555 1_555
C15A C16A 1_555 1_555
C17A C18A 1_555 1_555

#END
