
#######################################################################
#
#                 Cambridge Crystallographic Data Centre
#                                CCDC 
#
#######################################################################
#
# If this CIF has been generated from an entry in the Cambridge 
# Structural Database, then it will include bibliographic, chemical, 
# crystal, experimental, refinement or atomic coordinate data resulting 
# from the CCDC's data processing and validation procedures.
#
#######################################################################

data_BUNYIU
_chemical_compound_source        'Sophora tonkinensis'
_chemical_formula_moiety         'C15 H22 N2 O3'
_chemical_name_systematic        
"7a-hydroxy-2,3,6,7,7a,8,13,13a,13b,13c-decahydro-1H,5H,10H-dipyrido[2,1-f:3',2',1'-ij][1,6]naphthyridin-10-one 4-oxide"
_chemical_properties_biological  'antiviral activity'
_symmetry_cell_setting           orthorhombic
_symmetry_space_group_name_H-M   'P 21 21 21'
_symmetry_Int_Tables_number      19
_space_group_name_Hall           'P 2ac 2ab'
loop_
_symmetry_equiv_pos_site_id
_symmetry_equiv_pos_as_xyz
1 x,y,z
2 1/2-x,-y,1/2+z
3 1/2+x,1/2-y,-z
4 -x,1/2+y,1/2-z
_cell_length_a                   9.052(3)
_cell_length_b                   10.577(3)
_cell_length_c                   14.128(4)
_cell_angle_alpha                90
_cell_angle_beta                 90
_cell_angle_gamma                90
_cell_volume                     1352.66
_exptl_crystal_colour            colorless
_exptl_crystal_description       1
_cell_formula_units_Z            4
loop_
_atom_site_label
_atom_site_type_symbol
_atom_site_fract_x
_atom_site_fract_y
_atom_site_fract_z
O1 O 0.06693(10) 0.98908(7) 0.74339(7)
O2 O -0.19517(11) 0.67815(9) 0.85080(7)
H1 H -0.1606 0.6155 0.8248
O3 O -0.40572(15) 1.05933(14) 0.87513(10)
N1 N 0.11077(12) 0.86319(10) 0.73697(8)
N2 N -0.27811(13) 0.92985(11) 0.77737(8)
C1 C 0.18287(16) 0.84102(14) 0.64265(11)
H2 H 0.2178 0.7545 0.6392
H3 H 0.2675 0.8966 0.6361
C2 C 0.07578(17) 0.86524(14) 0.56319(10)
H4 H 0.1243 0.8502 0.5030
H5 H 0.0442 0.9528 0.5648
C3 C -0.05788(18) 0.77933(15) 0.57206(10)
H6 H -0.0273 0.6924 0.5623
H7 H -0.1286 0.8006 0.5230
C4 C -0.13281(14) 0.79075(13) 0.66885(9)
H8 H -0.2013 0.7193 0.6738
C5 C -0.22657(15) 0.91120(13) 0.67885(9)
H9 H -0.1663 0.9841 0.6604
C6 C -0.36037(18) 0.90416(17) 0.61389(12)
H10 H -0.3278 0.9075 0.5485
H11 H -0.4105 0.8241 0.6235
C7 C -0.46527(16) 1.00911(16) 0.63183(14)
H12 H -0.5262 1.0373 0.5832
C8 C -0.47332(17) 1.06267(15) 0.71525(14)
H13 H -0.5373 1.1305 0.7241
C9 C -0.38337(16) 1.01793(15) 0.79539(12)
C10 C -0.18131(16) 0.90020(13) 0.85733(9)
H14 H -0.2411 0.8923 0.9140
H15 H -0.1137 0.9702 0.8669
C11 C -0.09226(15) 0.77995(12) 0.84469(9)
C12 C 0.02275(18) 0.76758(14) 0.92276(10)
H16 H -0.0235 0.7861 0.9831
H17 H 0.0575 0.6809 0.9248
C13 C 0.15470(18) 0.85501(15) 0.90957(11)
H18 H 0.1234 0.9422 0.9168
H19 H 0.2282 0.8372 0.9577
C14 C 0.22114(17) 0.83691(16) 0.81349(11)
H20 H 0.2565 0.7507 0.8075
H21 H 0.3050 0.8932 0.8062
C15 C -0.01938(14) 0.77336(11) 0.74689(9)
H22 H 0.0201 0.6876 0.7401
loop_
_geom_bond_atom_site_label_1
_geom_bond_atom_site_label_2
_geom_bond_site_symmetry_1
_geom_bond_site_symmetry_2
O1 N1 1_555 1_555
O2 H1 1_555 1_555
O3 C9 1_555 1_555
N1 C1 1_555 1_555
N2 C5 1_555 1_555
C1 H2 1_555 1_555
H3 C1 1_555 1_555
C2 C1 1_555 1_555
H4 C2 1_555 1_555
H5 C2 1_555 1_555
C3 C2 1_555 1_555
H6 C3 1_555 1_555
H7 C3 1_555 1_555
C4 C3 1_555 1_555
H8 C4 1_555 1_555
C5 C4 1_555 1_555
H9 C5 1_555 1_555
C6 C5 1_555 1_555
H10 C6 1_555 1_555
H11 C6 1_555 1_555
C7 C6 1_555 1_555
H12 C7 1_555 1_555
C8 C7 1_555 1_555
H13 C8 1_555 1_555
C9 N2 1_555 1_555
C10 N2 1_555 1_555
H14 C10 1_555 1_555
H15 C10 1_555 1_555
C11 O2 1_555 1_555
C12 C11 1_555 1_555
H16 C12 1_555 1_555
H17 C12 1_555 1_555
C13 C12 1_555 1_555
H18 C13 1_555 1_555
H19 C13 1_555 1_555
C14 N1 1_555 1_555
H20 C14 1_555 1_555
H21 C14 1_555 1_555
C15 N1 1_555 1_555
H22 C15 1_555 1_555
C4 C15 1_555 1_555
C8 C9 1_555 1_555
C10 C11 1_555 1_555
C11 C15 1_555 1_555
C13 C14 1_555 1_555

#END
