
#######################################################################
#
#                 Cambridge Crystallographic Data Centre
#                                CCDC 
#
#######################################################################
#
# If this CIF has been generated from an entry in the Cambridge 
# Structural Database, then it will include bibliographic, chemical, 
# crystal, experimental, refinement or atomic coordinate data resulting 
# from the CCDC's data processing and validation procedures.
#
#######################################################################

data_BUPNEH
_chemical_compound_source        'Chloranthus sessilifolius'
_chemical_formula_moiety         'C20 H30 O2,C1 H1 Cl3'
_chemical_name_systematic        
'abi\h-8,11,13-triene-3,15-diol chloroform solvate'
_symmetry_cell_setting           monoclinic
_symmetry_space_group_name_H-M   'C 2'
_symmetry_Int_Tables_number      5
_space_group_name_Hall           'C 2y'
loop_
_symmetry_equiv_pos_site_id
_symmetry_equiv_pos_as_xyz
1 x,y,z
2 -x,y,-z
3 1/2+x,1/2+y,z
4 1/2-x,1/2+y,-z
_cell_length_a                   22.6971(4)
_cell_length_b                   11.6034(2)
_cell_length_c                   19.6097(6)
_cell_angle_alpha                90
_cell_angle_beta                 124.0270(10)
_cell_angle_gamma                90
_cell_volume                     4280.19
_exptl_crystal_colour            colorless
_exptl_crystal_description       plate
_cell_formula_units_Z            8
_exptl_crystal_recrystallization_method chloroform
loop_
_atom_site_label
_atom_site_type_symbol
_atom_site_fract_x
_atom_site_fract_y
_atom_site_fract_z
O1 O 0.08713(14) -0.0469(3) 0.21189(18)
H1 H 0.0711 0.0088 0.2240
O2 O 0.50712(13) 0.2643(2) 0.20176(15)
H2 H 0.5358 0.3043 0.1976
C1 C 0.17701(15) 0.0107(3) 0.10187(18)
H3 H 0.1785 0.0958 0.1061
H4 H 0.1622 -0.0097 0.0454
C2 C 0.12198(16) -0.0357(3) 0.11680(19)
H5 H 0.0749 -0.0019 0.0760
H6 H 0.1182 -0.1204 0.1093
C3 C 0.14246(17) -0.0068(3) 0.2027(2)
H7 H 0.1447 0.0791 0.2081
C4 C 0.21553(17) -0.0551(3) 0.27129(19)
C5 C 0.27082(15) -0.0161(3) 0.25245(18)
H8 H 0.2731 0.0696 0.2584
C6 C 0.34701(17) -0.0577(3) 0.31649(19)
H9 H 0.3568 -0.0529 0.3723
H10 H 0.3523 -0.1391 0.3056
C7 C 0.39958(16) 0.0171(3) 0.31177(19)
H11 H 0.4060 0.0904 0.3410
H12 H 0.4462 -0.0226 0.3408
C8 C 0.37729(17) 0.0441(3) 0.22509(19)
C9 C 0.30820(16) 0.0235(3) 0.15622(18)
C10 C 0.25210(15) -0.0381(3) 0.16398(18)
C11 C 0.29317(17) 0.0555(3) 0.07960(19)
H13 H 0.2469 0.0412 0.0321
C12 C 0.34309(18) 0.1072(3) 0.06981(19)
H14 H 0.3305 0.1277 0.0163
C13 C 0.41171(16) 0.1295(3) 0.13805(19)
C14 C 0.42719(16) 0.0948(3) 0.21398(19)
H15 H 0.4742 0.1061 0.2609
C15 C 0.46925(16) 0.1870(3) 0.13200(19)
C16 C 0.4388(2) 0.2573(4) 0.0535(2)
H16 H 0.4035 0.3117 0.0482
H17 H 0.4162 0.2055 0.0059
H18 H 0.4772 0.3000 0.0560
C17 C 0.5217(2) 0.0974(3) 0.1397(3)
H19 H 0.5588 0.1358 0.1369
H20 H 0.4967 0.0417 0.0947
H21 H 0.5436 0.0573 0.1925
C18 C 0.2349(2) 0.0027(4) 0.3524(2)
H22 H 0.2452 0.0844 0.3514
H23 H 0.2768 -0.0352 0.3989
H24 H 0.1948 -0.0046 0.3581
C19 C 0.21209(19) -0.1853(3) 0.2805(2)
H25 H 0.1843 -0.2015 0.3037
H26 H 0.2603 -0.2157 0.3173
H27 H 0.1894 -0.2221 0.2265
C20 C 0.25329(17) -0.1660(3) 0.1426(2)
H28 H 0.2127 -0.2063 0.1366
H29 H 0.2976 -0.2019 0.1869
H30 H 0.2504 -0.1708 0.0909
O3 O 0.43376(14) 0.4231(3) 0.22905(19)
H31 H 0.4688 0.4182 0.2781
O4 O 0.01605(12) 0.1144(2) 0.24779(13)
H32 H -0.0163 0.0728 0.2431
C21 C 0.23947(17) 0.3526(3) 0.12818(19)
H33 H 0.2453 0.2686 0.1389
H34 H 0.1979 0.3645 0.0711
C22 C 0.30593(18) 0.4005(3) 0.1364(2)
H35 H 0.3132 0.3606 0.0970
H36 H 0.2992 0.4836 0.1225
C23 C 0.37086(17) 0.3841(3) 0.2231(2)
H37 H 0.3764 0.2994 0.2345
C24 C 0.36500(16) 0.4414(3) 0.28951(19)
C25 C 0.29412(15) 0.4003(3) 0.27667(17)
H38 H 0.3006 0.3156 0.2881
C26 C 0.28115(16) 0.4496(3) 0.33976(18)
H39 H 0.3266 0.4536 0.3946
H40 H 0.2615 0.5285 0.3235
C27 C 0.22900(17) 0.3721(3) 0.34375(18)
H41 H 0.2543 0.3020 0.3756
H42 H 0.2116 0.4131 0.3735
C28 C 0.16577(15) 0.3366(3) 0.25956(17)
C29 C 0.16443(15) 0.3505(3) 0.18786(17)
C30 C 0.22528(15) 0.4107(3) 0.18838(17)
C31 C 0.10342(16) 0.3143(3) 0.11390(18)
H43 H 0.1011 0.3241 0.0643
C32 C 0.04627(16) 0.2646(3) 0.11024(17)
H44 H 0.0059 0.2406 0.0586
C33 C 0.04719(15) 0.2494(3) 0.18117(18)
C34 C 0.10777(16) 0.2870(3) 0.25496(18)
H45 H 0.1095 0.2785 0.3042
C35 C -0.01467(16) 0.1975(3) 0.18098(18)
C36 C -0.05152(17) 0.2912(3) 0.1985(2)
H46 H -0.0881 0.2563 0.2039
H47 H -0.0737 0.3468 0.1531
H48 H -0.0165 0.3308 0.2498
C37 C -0.06811(17) 0.1350(4) 0.1009(2)
H49 H -0.0435 0.0753 0.0904
H50 H -0.0902 0.1904 0.0553
H51 H -0.1049 0.0993 0.1054
C38 C 0.42768(17) 0.3978(4) 0.3734(2)
H52 H 0.4240 0.3140 0.3766
H53 H 0.4265 0.4348 0.4175
H54 H 0.4725 0.4166 0.3796
C39 C 0.37171(17) 0.5733(3) 0.2882(2)
H55 H 0.3534 0.6092 0.3179
H56 H 0.3442 0.6004 0.2311
H57 H 0.4218 0.5942 0.3146
C40 C 0.19948(17) 0.5348(3) 0.1590(2)
H58 H 0.2342 0.5756 0.1531
H59 H 0.1944 0.5748 0.1994
H60 H 0.1535 0.5330 0.1058
C41 C 0.9113(2) 0.7304(4) 0.5942(2)
H61 H 0.9592 0.7433 0.6460
Cl1 Cl 0.86679(6) 0.62618(10) 0.61396(6)
Cl2 Cl 0.86557(6) 0.86194(10) 0.56466(6)
Cl3 Cl 0.92366(6) 0.68025(12) 0.51831(7)
C42 C 0.60053(19) 0.7091(4) 0.4387(2)
H62 H 0.5726 0.6805 0.3806
Cl4 Cl 0.68995(5) 0.66913(12) 0.48553(7)
Cl5 Cl 0.56723(7) 0.64546(17) 0.49069(8)
Cl6 Cl 0.59450(7) 0.86004(11) 0.43730(7)
loop_
_geom_bond_atom_site_label_1
_geom_bond_atom_site_label_2
_geom_bond_site_symmetry_1
_geom_bond_site_symmetry_2
O1 H1 1_555 1_555
O2 H2 1_555 1_555
C1 H3 1_555 1_555
H4 C1 1_555 1_555
C2 C1 1_555 1_555
H5 C2 1_555 1_555
H6 C2 1_555 1_555
C3 O1 1_555 1_555
H7 C3 1_555 1_555
C4 C3 1_555 1_555
C5 C4 1_555 1_555
H8 C5 1_555 1_555
C6 C5 1_555 1_555
H9 C6 1_555 1_555
H10 C6 1_555 1_555
C7 C6 1_555 1_555
H11 C7 1_555 1_555
H12 C7 1_555 1_555
C8 C7 1_555 1_555
C9 C8 1_555 1_555
C10 C1 1_555 1_555
C11 C9 1_555 1_555
H13 C11 1_555 1_555
C12 C11 1_555 1_555
H14 C12 1_555 1_555
C13 C12 1_555 1_555
C14 C8 1_555 1_555
H15 C14 1_555 1_555
C15 O2 1_555 1_555
C16 C15 1_555 1_555
H16 C16 1_555 1_555
H17 C16 1_555 1_555
H18 C16 1_555 1_555
C17 C15 1_555 1_555
H19 C17 1_555 1_555
H20 C17 1_555 1_555
H21 C17 1_555 1_555
C18 C4 1_555 1_555
H22 C18 1_555 1_555
H23 C18 1_555 1_555
H24 C18 1_555 1_555
C19 C4 1_555 1_555
H25 C19 1_555 1_555
H26 C19 1_555 1_555
H27 C19 1_555 1_555
C20 C10 1_555 1_555
H28 C20 1_555 1_555
H29 C20 1_555 1_555
H30 C20 1_555 1_555
O3 H31 1_555 1_555
O4 H32 1_555 1_555
C21 H33 1_555 1_555
H34 C21 1_555 1_555
C22 C21 1_555 1_555
H35 C22 1_555 1_555
H36 C22 1_555 1_555
C23 O3 1_555 1_555
H37 C23 1_555 1_555
C24 C23 1_555 1_555
C25 C24 1_555 1_555
H38 C25 1_555 1_555
C26 C25 1_555 1_555
H39 C26 1_555 1_555
H40 C26 1_555 1_555
C27 C26 1_555 1_555
H41 C27 1_555 1_555
H42 C27 1_555 1_555
C28 C27 1_555 1_555
C29 C28 1_555 1_555
C30 C21 1_555 1_555
C31 C29 1_555 1_555
H43 C31 1_555 1_555
C32 C31 1_555 1_555
H44 C32 1_555 1_555
C33 C32 1_555 1_555
C34 C28 1_555 1_555
H45 C34 1_555 1_555
C35 O4 1_555 1_555
C36 C35 1_555 1_555
H46 C36 1_555 1_555
H47 C36 1_555 1_555
H48 C36 1_555 1_555
C37 C35 1_555 1_555
H49 C37 1_555 1_555
H50 C37 1_555 1_555
H51 C37 1_555 1_555
C38 C24 1_555 1_555
H52 C38 1_555 1_555
H53 C38 1_555 1_555
H54 C38 1_555 1_555
C39 C24 1_555 1_555
H55 C39 1_555 1_555
H56 C39 1_555 1_555
H57 C39 1_555 1_555
C40 C30 1_555 1_555
H58 C40 1_555 1_555
H59 C40 1_555 1_555
H60 C40 1_555 1_555
C41 H61 1_555 1_555
Cl1 C41 1_555 1_555
Cl2 C41 1_555 1_555
Cl3 C41 1_555 1_555
C42 H62 1_555 1_555
Cl4 C42 1_555 1_555
Cl5 C42 1_555 1_555
Cl6 C42 1_555 1_555
C2 C3 1_555 1_555
C5 C10 1_555 1_555
C9 C10 1_555 1_555
C13 C14 1_555 1_555
C13 C15 1_555 1_555
C22 C23 1_555 1_555
C25 C30 1_555 1_555
C29 C30 1_555 1_555
C33 C34 1_555 1_555
C33 C35 1_555 1_555

#END
