
#######################################################################
#
#                 Cambridge Crystallographic Data Centre
#                                CCDC 
#
#######################################################################
#
# If this CIF has been generated from an entry in the Cambridge 
# Structural Database, then it will include bibliographic, chemical, 
# crystal, experimental, refinement or atomic coordinate data resulting 
# from the CCDC's data processing and validation procedures.
#
#######################################################################

data_BUPNUW
_chemical_formula_moiety         'C3 H10 N1 1+,C5 H16 B11 1-'
_chemical_name_systematic        
'Trimethylammonium 1,2-(buten-1,4-diyl)-1-carbadodecaborate(10)'
_symmetry_cell_setting           orthorhombic
_symmetry_space_group_name_H-M   'P 21 21 21'
_symmetry_Int_Tables_number      19
_space_group_name_Hall           'P 2ac 2ab'
loop_
_symmetry_equiv_pos_site_id
_symmetry_equiv_pos_as_xyz
1 x,y,z
2 1/2-x,-y,1/2+z
3 -x,1/2+y,1/2-z
4 1/2+x,1/2-y,-z
_cell_length_a                   7.8487(3)
_cell_length_b                   10.4150(3)
_cell_length_c                   20.1837(6)
_cell_angle_alpha                90
_cell_angle_beta                 90
_cell_angle_gamma                90
_cell_volume                     1649.9
_exptl_crystal_colour            colorless
_exptl_crystal_description       block
_cell_formula_units_Z            4
loop_
_atom_site_label
_atom_site_type_symbol
_atom_site_fract_x
_atom_site_fract_y
_atom_site_fract_z
N1 N -0.0922(8) 1.0531(5) 0.3310(3)
H1 H -0.1484 1.0492 0.2916
C6 C 0.0106(16) 0.9388(9) 0.3355(5)
H8 H -0.0620 0.8646 0.3358
H9 H 0.0762 0.9410 0.3757
H10 H 0.0860 0.9345 0.2982
C7 C 0.0128(10) 1.1684(7) 0.3293(5)
H11 H 0.0978 1.1598 0.2953
H12 H 0.0674 1.1799 0.3714
H13 H -0.0576 1.2416 0.3199
C8 C -0.2219(9) 1.0648(8) 0.3828(3)
H14 H -0.2917 0.9891 0.3830
H15 H -0.2916 1.1386 0.3741
H16 H -0.1674 1.0742 0.4251
C1 C 0.1099(5) 0.9211(4) 0.6027(2)
C2 C 0.2832(7) 0.8894(6) 0.5715(3)
H2 H 0.3708 0.9084 0.6039
H3 H 0.2867 0.7977 0.5633
C3 C 0.3276(9) 0.9540(8) 0.5108(4)
H4 H 0.2912 0.8991 0.4746
H5 H 0.4510 0.9578 0.5089
C4 C 0.2628(7) 1.0857(5) 0.4963(2)
H6 H 0.3239 1.1362 0.4666
C5 C 0.1246(7) 1.1345(4) 0.5231(2)
H7 H 0.0870 1.2147 0.5091
B1 B 0.0209(6) 1.0610(5) 0.5781(2)
B2 B -0.0700(7) 0.9106(5) 0.5562(2)
H17 H -0.0744 0.8776 0.5045
B3 B -0.0327(7) 0.8030(5) 0.6212(3)
H18 H -0.0113 0.7002 0.6121
B4 B 0.0774(7) 0.8840(5) 0.6844(3)
H19 H 0.1697 0.8340 0.7162
B5 B 0.1104(7) 1.0438(5) 0.6577(2)
H20 H 0.2249 1.0975 0.6725
B6 B -0.2005(7) 1.0367(5) 0.5855(3)
H21 H -0.2919 1.0874 0.5535
B7 B -0.2325(7) 0.8745(5) 0.6113(3)
H22 H -0.3442 0.8183 0.5957
B8 B -0.1434(8) 0.8591(6) 0.6921(3)
H23 H -0.1968 0.7939 0.7296
B9 B -0.0558(9) 1.0092(6) 0.7143(3)
H24 H -0.0526 1.0417 0.7662
B10 B -0.0880(8) 1.1194(5) 0.6483(3)
H25 H -0.1048 1.2228 0.6572
B11 B -0.2479(8) 1.0022(6) 0.6688(3)
H26 H -0.3710 1.0294 0.6907
loop_
_geom_bond_atom_site_label_1
_geom_bond_atom_site_label_2
_geom_bond_site_symmetry_1
_geom_bond_site_symmetry_2
N1 H1 1_555 1_555
C1 C2 1_555 1_555
C2 H2 1_555 1_555
H3 C2 1_555 1_555
C3 C2 1_555 1_555
H4 C3 1_555 1_555
H5 C3 1_555 1_555
C4 C3 1_555 1_555
H6 C4 1_555 1_555
C5 C4 1_555 1_555
H7 C5 1_555 1_555
C6 N1 1_555 1_555
H8 C6 1_555 1_555
H9 C6 1_555 1_555
H10 C6 1_555 1_555
C7 N1 1_555 1_555
H11 C7 1_555 1_555
H12 C7 1_555 1_555
H13 C7 1_555 1_555
C8 N1 1_555 1_555
H14 C8 1_555 1_555
H15 C8 1_555 1_555
H16 C8 1_555 1_555
B1 C1 1_555 1_555
B2 C1 1_555 1_555
H17 B2 1_555 1_555
B3 C1 1_555 1_555
H18 B3 1_555 1_555
B4 C1 1_555 1_555
H19 B4 1_555 1_555
B5 C1 1_555 1_555
H20 B5 1_555 1_555
B6 B1 1_555 1_555
H21 B6 1_555 1_555
B7 B2 1_555 1_555
H22 B7 1_555 1_555
B8 B3 1_555 1_555
H23 B8 1_555 1_555
B9 B4 1_555 1_555
H24 B9 1_555 1_555
B10 B1 1_555 1_555
H25 B10 1_555 1_555
B11 B6 1_555 1_555
H26 B11 1_555 1_555
C5 B1 1_555 1_555
B1 B2 1_555 1_555
B1 B5 1_555 1_555
B2 B3 1_555 1_555
B2 B6 1_555 1_555
B3 B4 1_555 1_555
B3 B7 1_555 1_555
B4 B5 1_555 1_555
B4 B8 1_555 1_555
B5 B9 1_555 1_555
B5 B10 1_555 1_555
B6 B7 1_555 1_555
B6 B10 1_555 1_555
B7 B8 1_555 1_555
B7 B11 1_555 1_555
B8 B9 1_555 1_555
B8 B11 1_555 1_555
B9 B10 1_555 1_555
B9 B11 1_555 1_555
B10 B11 1_555 1_555

#END
