
#######################################################################
#
#                 Cambridge Crystallographic Data Centre
#                                CCDC 
#
#######################################################################
#
# If this CIF has been generated from an entry in the Cambridge 
# Structural Database, then it will include bibliographic, chemical, 
# crystal, experimental, refinement or atomic coordinate data resulting 
# from the CCDC's data processing and validation procedures.
#
#######################################################################

data_BUPPAF
_chemical_compound_source        'Cinnamomum subavenium'
_chemical_formula_moiety         'C21 H26 O9,0.5(C1 H4 O1)'
_chemical_name_systematic        
'1-(1,2-dihydroxyethyl)-3-(4-hydroxy-3-methoxyphenyl)-4-(hydroxymethyl)-7,9-dimethoxy-2-oxaspiro[4.5]deca-6,9-dien-8-one methanol solvate'
_chemical_properties_biological  'NO production inhibitor activity'
_symmetry_cell_setting           triclinic
_symmetry_space_group_name_H-M   'P -1'
_symmetry_Int_Tables_number      2
_space_group_name_Hall           '-P 1'
loop_
_symmetry_equiv_pos_site_id
_symmetry_equiv_pos_as_xyz
1 x,y,z
2 -x,-y,-z
_cell_length_a                   8.6734(6)
_cell_length_b                   11.1397(7)
_cell_length_c                   11.8133(8)
_cell_angle_alpha                92.575(2)
_cell_angle_beta                 96.635(2)
_cell_angle_gamma                108.711(2)
_cell_volume                     1069.74
_exptl_crystal_colour            colorless
_exptl_crystal_description       block
_cell_formula_units_Z            2
loop_
_atom_site_label
_atom_site_type_symbol
_atom_site_fract_x
_atom_site_fract_y
_atom_site_fract_z
C1 C 0.7593(4) 0.4451(3) 0.6784(3)
C2 C 0.5894(4) 0.4128(3) 0.6506(3)
H1 H 0.5303 0.4452 0.6973
C3 C 0.5084(4) 0.3327(3) 0.5538(3)
C4 C 0.5967(5) 0.2819(3) 0.4855(3)
C5 C 0.7619(5) 0.3115(4) 0.5138(4)
H2 H 0.8201 0.2756 0.4691
C6 C 0.8441(5) 0.3946(4) 0.6086(3)
H3 H 0.9577 0.4166 0.6253
C7 C 0.8459(4) 0.5336(3) 0.7830(3)
H4 H 0.7693 0.5232 0.8395
C8 C 0.9113(4) 0.6755(3) 0.7624(3)
H5 H 0.9378 0.6815 0.6839
C9 C 0.7767(5) 0.7344(3) 0.7726(3)
H6 H 0.6750 0.6788 0.7292
H7 H 0.7597 0.7397 0.8522
C10 C 0.2476(5) 0.3514(4) 0.5788(4)
H8 H 0.2823 0.4412 0.5709
H9 H 0.2626 0.3372 0.6583
H10 H 0.1336 0.3140 0.5482
C11 C 1.0765(4) 0.7291(3) 0.8461(3)
C12 C 1.0438(4) 0.7507(3) 0.9657(3)
H11 H 0.9814 0.6821 1.0009
C13 C 1.1015(4) 0.8656(3) 1.0236(3)
C14 C 1.2040(4) 0.9776(3) 0.9747(3)
C15 C 1.2501(4) 0.9573(3) 0.8621(3)
C16 C 1.1920(4) 0.8430(3) 0.8036(3)
H12 H 1.2253 0.8339 0.7326
C17 C 1.1329(4) 0.6101(3) 0.8330(3)
H13 H 1.1707 0.6077 0.7582
C18 C 1.2618(4) 0.5929(3) 0.9226(3)
H14 H 1.2161 0.5773 0.9947
C19 C 1.4155(4) 0.7040(3) 0.9427(4)
H15 H 1.4601 0.7227 0.8714
H16 H 1.3932 0.7782 0.9728
C20 C 0.9816(6) 0.7986(4) 1.1919(4)
H17 H 1.0339 0.7350 1.2020
H18 H 0.8744 0.7606 1.1489
H19 H 0.9716 0.8336 1.2654
C21 C 1.4377(7) 1.0569(4) 0.7351(4)
H20 H 1.3588 1.0297 0.6672
H21 H 1.4940 0.9960 0.7468
H22 H 1.5158 1.1384 0.7266
O1 O 0.3426(3) 0.2950(3) 0.5183(2)
O2 O 0.5186(4) 0.1995(3) 0.3905(3)
H23 H 0.4189 0.1827 0.3875
O3 O 0.9868(3) 0.5034(2) 0.8325(2)
O4 O 0.8125(4) 0.8567(2) 0.7332(2)
H24 H 0.8267 0.9095 0.7875
O5 O 1.2923(4) 0.4822(3) 0.8812(3)
H25 H 1.3643 0.4695 0.9256
O6 O 1.5304(3) 0.6731(2) 1.0229(3)
H26 H 1.6090 0.7374 1.0445
O7 O 1.0783(3) 0.8974(2) 1.1317(2)
O8 O 1.2512(3) 1.0832(2) 1.0275(2)
O9 O 1.3557(3) 1.0666(2) 0.8308(2)
C22 C 0.940(2) 1.003(2) 0.498(2)
H27 H 0.8492 1.0098 0.5335
H28 H 0.8998 0.9555 0.4242
H29 H 1.0125 1.0859 0.4882
O10 O 1.0273(16) 0.9376(14) 0.5679(11)
H30 H 0.9728 0.9058 0.6178
C22A C 1.060(2) 0.997(2) 0.502(2)
H27A H 1.1508 0.9902 0.4665
H28A H 1.1002 1.0445 0.5758
H29A H 0.9875 0.9141 0.5118
O10A O 0.9727(16) 1.0624(14) 0.4321(11)
H30A H 1.0272 1.0942 0.3822
loop_
_geom_bond_atom_site_label_1
_geom_bond_atom_site_label_2
_geom_bond_site_symmetry_1
_geom_bond_site_symmetry_2
C1 C2 1_555 1_555
C2 H1 1_555 1_555
C3 C2 1_555 1_555
C4 C3 1_555 1_555
C5 C4 1_555 1_555
H2 C5 1_555 1_555
C6 C1 1_555 1_555
H3 C6 1_555 1_555
C7 C1 1_555 1_555
H4 C7 1_555 1_555
C8 C7 1_555 1_555
H5 C8 1_555 1_555
C9 C8 1_555 1_555
H6 C9 1_555 1_555
H7 C9 1_555 1_555
C10 H8 1_555 1_555
H9 C10 1_555 1_555
H10 C10 1_555 1_555
C11 C8 1_555 1_555
C12 C11 1_555 1_555
H11 C12 1_555 1_555
C13 C12 1_555 1_555
C14 C13 1_555 1_555
C15 C14 1_555 1_555
C16 C11 1_555 1_555
H12 C16 1_555 1_555
C17 C11 1_555 1_555
H13 C17 1_555 1_555
C18 C17 1_555 1_555
H14 C18 1_555 1_555
C19 C18 1_555 1_555
H15 C19 1_555 1_555
H16 C19 1_555 1_555
C20 H17 1_555 1_555
H18 C20 1_555 1_555
H19 C20 1_555 1_555
C21 H20 1_555 1_555
H21 C21 1_555 1_555
H22 C21 1_555 1_555
O1 C3 1_555 1_555
O2 C4 1_555 1_555
H23 O2 1_555 1_555
O3 C7 1_555 1_555
O4 C9 1_555 1_555
H24 O4 1_555 1_555
O5 C18 1_555 1_555
H25 O5 1_555 1_555
O6 C19 1_555 1_555
H26 O6 1_555 1_555
O7 C13 1_555 1_555
O8 C14 1_555 1_555
O9 C15 1_555 1_555
C22 H27 1_555 1_555
H28 C22 1_555 1_555
H29 C22 1_555 1_555
O10 C22 1_555 1_555
H30 O10 1_555 1_555
C22A H27A 1_555 1_555
H28A C22A 1_555 1_555
H29A C22A 1_555 1_555
O10A C22A 1_555 1_555
H30A O10A 1_555 1_555
C5 C6 1_555 1_555
C10 O1 1_555 1_555
C15 C16 1_555 1_555
C17 O3 1_555 1_555
C20 O7 1_555 1_555
C21 O9 1_555 1_555

#END
