
#######################################################################
#
#                 Cambridge Crystallographic Data Centre
#                                CCDC 
#
#######################################################################
#
# If this CIF has been generated from an entry in the Cambridge 
# Structural Database, then it will include bibliographic, chemical, 
# crystal, experimental, refinement or atomic coordinate data resulting 
# from the CCDC's data processing and validation procedures.
#
#######################################################################

data_BUPPIN
_chemical_formula_moiety         'C26 H19 N3 O5 S1'
_chemical_name_systematic        
2-(1,3-dioxo-1,3-dihydro-2H-isoindol-2-yl)-3-(phenylsulfonyl)-N-(quinolin-8-yl)propanamide
_symmetry_cell_setting           triclinic
_symmetry_space_group_name_H-M   'P -1'
_symmetry_Int_Tables_number      2
_space_group_name_Hall           '-P 1'
loop_
_symmetry_equiv_pos_site_id
_symmetry_equiv_pos_as_xyz
1 x,y,z
2 -x,-y,-z
_cell_length_a                   10.4761(5)
_cell_length_b                   10.8361(2)
_cell_length_c                   11.3358(6)
_cell_angle_alpha                76.9110(10)
_cell_angle_beta                 61.8670(10)
_cell_angle_gamma                86.563(2)
_cell_volume                     1103.68
_exptl_crystal_colour            colorless
_exptl_crystal_description       needle
_cell_formula_units_Z            2
loop_
_atom_site_label
_atom_site_type_symbol
_atom_site_fract_x
_atom_site_fract_y
_atom_site_fract_z
C1 C 0.28230(19) 0.44170(16) 0.55658(16)
H1 H 0.3738 0.4618 0.5538
C2 C 0.16236(19) 0.42416(17) 0.70499(17)
C3 C 0.07003(19) 0.27251(18) 0.92760(17)
C4 C -0.0476(2) 0.33399(19) 1.00341(19)
H2 H -0.0692 0.4112 0.9627
C5 C -0.1352(2) 0.2803(2) 1.1420(2)
H3 H -0.2149 0.3228 1.1934
C6 C -0.1068(2) 0.1681(2) 1.2031(2)
H4 H -0.1668 0.1345 1.2959
C7 C 0.0129(2) 0.1010(2) 1.12801(18)
C8 C 0.0493(3) -0.0169(2) 1.1829(2)
H5 H -0.0079 -0.0555 1.2749
C9 C 0.1656(3) -0.0751(2) 1.1044(2)
H6 H 0.1893 -0.1535 1.1407
C10 C 0.2488(3) -0.0149(2) 0.9685(2)
H7 H 0.3296 -0.0548 0.9147
C11 C 0.1029(2) 0.15368(18) 0.98886(17)
C12 C 0.42627(19) 0.26057(17) 0.45828(16)
C13 C 0.3900(2) 0.14999(17) 0.41988(17)
C14 C 0.4754(2) 0.05469(19) 0.36483(19)
H8 H 0.5717 0.0515 0.3469
C15 C 0.4116(3) -0.0358(2) 0.3376(2)
H9 H 0.4654 -0.1024 0.3029
C16 C 0.2694(3) -0.0293(2) 0.3609(2)
H10 H 0.2297 -0.0912 0.3410
C17 C 0.1852(2) 0.06817(19) 0.4135(2)
H11 H 0.0905 0.0742 0.4270
C18 C 0.2475(2) 0.15554(17) 0.44478(17)
C19 C 0.18460(19) 0.26614(16) 0.50528(17)
C20 C 0.2501(2) 0.55462(17) 0.46933(17)
H12 H 0.2379 0.6273 0.5097
H13 H 0.1588 0.5361 0.4729
C21 C 0.3711(2) 0.47642(16) 0.21896(16)
C22 C 0.4921(2) 0.40990(18) 0.15653(18)
H14 H 0.5774 0.4249 0.1587
C23 C 0.4835(3) 0.3201(2) 0.0905(2)
H15 H 0.5638 0.2744 0.0470
C24 C 0.3563(3) 0.2985(2) 0.0892(2)
H16 H 0.3510 0.2374 0.0455
C25 C 0.2367(3) 0.3657(2) 0.1513(2)
H17 H 0.1515 0.3502 0.1493
C26 C 0.2433(2) 0.45589(19) 0.21641(19)
H18 H 0.1632 0.5024 0.2581
N1 N 0.16490(17) 0.31582(15) 0.78856(14)
H19 H 0.2335 0.2671 0.7519
N2 N 0.22117(18) 0.09522(16) 0.91002(16)
N3 N 0.29725(15) 0.32451(13) 0.50945(14)
O1 O 0.07620(16) 0.50557(13) 0.73912(13)
O2 O 0.53943(15) 0.29266(14) 0.44876(14)
O3 O 0.06243(14) 0.30184(13) 0.54629(14)
O4 O 0.33864(17) 0.71244(12) 0.23901(14)
O5 O 0.52377(15) 0.59572(15) 0.28800(14)
S1 S 0.38300(5) 0.59666(4) 0.29611(4)
loop_
_geom_bond_atom_site_label_1
_geom_bond_atom_site_label_2
_geom_bond_site_symmetry_1
_geom_bond_site_symmetry_2
C1 H1 1_555 1_555
C2 C1 1_555 1_555
C3 C4 1_555 1_555
C4 H2 1_555 1_555
C5 C4 1_555 1_555
H3 C5 1_555 1_555
C6 C5 1_555 1_555
H4 C6 1_555 1_555
C7 C6 1_555 1_555
C8 C7 1_555 1_555
H5 C8 1_555 1_555
C9 C8 1_555 1_555
H6 C9 1_555 1_555
C10 C9 1_555 1_555
H7 C10 1_555 1_555
C11 C3 1_555 1_555
C12 C13 1_555 1_555
C13 C14 1_555 1_555
C14 H8 1_555 1_555
C15 C14 1_555 1_555
H9 C15 1_555 1_555
C16 C15 1_555 1_555
H10 C16 1_555 1_555
C17 C16 1_555 1_555
H11 C17 1_555 1_555
C18 C13 1_555 1_555
C19 C18 1_555 1_555
C20 C1 1_555 1_555
H12 C20 1_555 1_555
H13 C20 1_555 1_555
C21 C22 1_555 1_555
C22 H14 1_555 1_555
C23 C22 1_555 1_555
H15 C23 1_555 1_555
C24 C23 1_555 1_555
H16 C24 1_555 1_555
C25 C24 1_555 1_555
H17 C25 1_555 1_555
C26 C21 1_555 1_555
H18 C26 1_555 1_555
N1 C2 1_555 1_555
H19 N1 1_555 1_555
N2 C10 1_555 1_555
N3 C1 1_555 1_555
O1 C2 1_555 1_555
O2 C12 1_555 1_555
O3 C19 1_555 1_555
O4 S1 1_555 1_555
O5 S1 1_555 1_555
S1 C20 1_555 1_555
C3 N1 1_555 1_555
C7 C11 1_555 1_555
C11 N2 1_555 1_555
C12 N3 1_555 1_555
C17 C18 1_555 1_555
C19 N3 1_555 1_555
C21 S1 1_555 1_555
C25 C26 1_555 1_555

#END
