
#######################################################################
#
#                 Cambridge Crystallographic Data Centre
#                                CCDC 
#
#######################################################################
#
# If this CIF has been generated from an entry in the Cambridge 
# Structural Database, then it will include bibliographic, chemical, 
# crystal, experimental, refinement or atomic coordinate data resulting 
# from the CCDC's data processing and validation procedures.
#
#######################################################################

data_BUQCAT
_chemical_compound_source        'Chloranthus sessilifolius'
_chemical_formula_moiety         'C20 H30 O4'
_chemical_name_systematic        
6'-hydroxy-4-isopropyl-5',5',8a'-trimethyl-4a',5',6',7',8',8a'-hexahydro-2H-spiro[cyclohex-3-ene-1,1'-isochromene]-2,3'(4'H)-dione
_symmetry_cell_setting           orthorhombic
_symmetry_space_group_name_H-M   'P 21 21 21'
_symmetry_Int_Tables_number      19
_space_group_name_Hall           'P 2ac 2ab'
loop_
_symmetry_equiv_pos_site_id
_symmetry_equiv_pos_as_xyz
1 x,y,z
2 1/2+x,1/2-y,-z
3 -x,1/2+y,1/2-z
4 1/2-x,-y,1/2+z
_cell_length_a                   7.03520(10)
_cell_length_b                   9.60180(10)
_cell_length_c                   26.5701(3)
_cell_angle_alpha                90
_cell_angle_beta                 90
_cell_angle_gamma                90
_cell_volume                     1794.83
_exptl_crystal_colour            colorless
_exptl_crystal_description       block
_cell_formula_units_Z            4
_chemical_properties_physical    Heat-sensitive
_exptl_crystal_recrystallization_method chloroform
loop_
_atom_site_label
_atom_site_type_symbol
_atom_site_fract_x
_atom_site_fract_y
_atom_site_fract_z
O1 O 0.7383(3) 0.31737(15) 0.22002(6)
H1 H 0.7356 0.3965 0.2066
O2 O 0.7357(3) -0.42730(15) 0.15760(6)
O3 O 0.6318(2) -0.27704(14) 0.10255(6)
O4 O 0.9651(2) -0.16443(17) 0.07662(6)
C1 C 0.5707(4) 0.1202(2) 0.10519(8)
H2 H 0.6840 0.1369 0.0839
H3 H 0.4567 0.1321 0.0838
C2 C 0.5660(4) 0.2283(2) 0.14755(8)
H4 H 0.5648 0.3230 0.1329
H5 H 0.4481 0.2164 0.1675
C3 C 0.7369(3) 0.2129(2) 0.18180(8)
H6 H 0.8541 0.2246 0.1609
C4 C 0.7459(3) 0.0693(2) 0.20725(7)
C5 C 0.7390(3) -0.04158(19) 0.16410(7)
H7 H 0.8584 -0.0267 0.1444
C6 C 0.7529(4) -0.1909(2) 0.18387(9)
H8 H 0.8830 -0.2050 0.1971
H9 H 0.6641 -0.2003 0.2126
C7 C 0.7116(3) -0.3059(2) 0.14730(8)
C8 C 0.8234(3) -0.1125(2) 0.05812(8)
C9 C 0.6253(3) -0.13600(19) 0.08191(8)
C10 C 0.5765(3) -0.03000(19) 0.12505(7)
C11 C 0.4828(4) -0.1512(2) 0.03878(8)
H10 H 0.3533 -0.1546 0.0533
H11 H 0.5060 -0.2416 0.0219
C12 C 0.4875(3) -0.0360(2) -0.00127(8)
H12 H 0.4203 -0.0692 -0.0317
H13 H 0.4182 0.0463 0.0116
C13 C 0.6860(3) 0.0072(2) -0.01566(8)
C14 C 0.8353(3) -0.0290(2) 0.01242(8)
H14 H 0.9574 0.0017 0.0019
C15 C 0.7134(4) 0.0912(2) -0.06330(9)
H15 H 0.8475 0.1258 -0.0632
C16 C 0.5850(5) 0.2180(3) -0.06407(12)
H16 H 0.4523 0.1881 -0.0669
H17 H 0.6179 0.2769 -0.0929
H18 H 0.6019 0.2710 -0.0329
C17 C 0.6895(5) 0.0000(3) -0.10996(9)
H19 H 0.7788 -0.0782 -0.1084
H20 H 0.7152 0.0554 -0.1402
H21 H 0.5592 -0.0358 -0.1113
C18 C 0.9396(4) 0.0562(3) 0.23348(9)
H22 H 0.9557 0.1332 0.2573
H23 H 1.0411 0.0595 0.2082
H24 H 0.9457 -0.0326 0.2516
C19 C 0.5927(4) 0.0564(2) 0.24789(8)
H25 H 0.5877 -0.0399 0.2600
H26 H 0.4690 0.0822 0.2337
H27 H 0.6232 0.1187 0.2760
C20 C 0.3804(3) -0.0695(2) 0.14673(9)
H28 H 0.3482 -0.0061 0.1744
H29 H 0.3844 -0.1654 0.1594
H30 H 0.2840 -0.0622 0.1203
loop_
_geom_bond_atom_site_label_1
_geom_bond_atom_site_label_2
_geom_bond_site_symmetry_1
_geom_bond_site_symmetry_2
O1 H1 1_555 1_555
O2 C7 1_555 1_555
O3 C7 1_555 1_555
O4 C8 1_555 1_555
C1 H2 1_555 1_555
H3 C1 1_555 1_555
C2 C1 1_555 1_555
H4 C2 1_555 1_555
H5 C2 1_555 1_555
C3 O1 1_555 1_555
H6 C3 1_555 1_555
C4 C3 1_555 1_555
C5 C4 1_555 1_555
H7 C5 1_555 1_555
C6 C5 1_555 1_555
H8 C6 1_555 1_555
H9 C6 1_555 1_555
C7 C6 1_555 1_555
C8 C9 1_555 1_555
C9 O3 1_555 1_555
C10 C1 1_555 1_555
C11 C9 1_555 1_555
H10 C11 1_555 1_555
H11 C11 1_555 1_555
C12 C11 1_555 1_555
H12 C12 1_555 1_555
H13 C12 1_555 1_555
C13 C12 1_555 1_555
C14 C8 1_555 1_555
H14 C14 1_555 1_555
C15 C13 1_555 1_555
H15 C15 1_555 1_555
C16 C15 1_555 1_555
H16 C16 1_555 1_555
H17 C16 1_555 1_555
H18 C16 1_555 1_555
C17 C15 1_555 1_555
H19 C17 1_555 1_555
H20 C17 1_555 1_555
H21 C17 1_555 1_555
C18 C4 1_555 1_555
H22 C18 1_555 1_555
H23 C18 1_555 1_555
H24 C18 1_555 1_555
C19 C4 1_555 1_555
H25 C19 1_555 1_555
H26 C19 1_555 1_555
H27 C19 1_555 1_555
C20 C10 1_555 1_555
H28 C20 1_555 1_555
H29 C20 1_555 1_555
H30 C20 1_555 1_555
C2 C3 1_555 1_555
C5 C10 1_555 1_555
C9 C10 1_555 1_555
C13 C14 1_555 1_555

#END
