
#######################################################################
#
#                 Cambridge Crystallographic Data Centre
#                                CCDC 
#
#######################################################################
#
# If this CIF has been generated from an entry in the Cambridge 
# Structural Database, then it will include bibliographic, chemical, 
# crystal, experimental, refinement or atomic coordinate data resulting 
# from the CCDC's data processing and validation procedures.
#
#######################################################################

data_BUQXOA
_chemical_formula_moiety         'C4 H12 N1 1+,C5 H19 B9 N1 1-'
_chemical_name_systematic        
'Tetramethylammonium 7-(dimethylaminomethyl)-10,11-\mH-7,8-dicarba-nido-undecaborate'
_symmetry_cell_setting           orthorhombic
_symmetry_space_group_name_H-M   'P 21 21 21'
_symmetry_Int_Tables_number      19
_space_group_name_Hall           'P 2ac 2ab'
loop_
_symmetry_equiv_pos_site_id
_symmetry_equiv_pos_as_xyz
1 x,y,z
2 1/2-x,-y,1/2+z
3 -x,1/2+y,1/2-z
4 1/2+x,1/2-y,-z
_cell_length_a                   10.5791(7)
_cell_length_b                   11.3215(15)
_cell_length_c                   14.9539(9)
_cell_angle_alpha                90
_cell_angle_beta                 90
_cell_angle_gamma                90
_cell_volume                     1791.05
_exptl_crystal_colour            colorless
_exptl_crystal_description       block
_cell_formula_units_Z            4
_exptl_crystal_recrystallization_method acetone/tetrahydrofuran
loop_
_atom_site_label
_atom_site_type_symbol
_atom_site_fract_x
_atom_site_fract_y
_atom_site_fract_z
N1 N 0.0847(9) 0.1111(9) 0.2366(6)
C1 C -0.0509(10) 0.1210(8) 0.0993(6)
C2 C 0.0519(13) 0.0833(14) 0.0327(8)
C3 C -0.0044(12) 0.1824(10) 0.1808(7)
H1 H -0.0765 0.2043 0.2172
H2 H 0.0378 0.2546 0.1628
C4 C 0.0211(17) 0.0167(12) 0.2826(9)
H3 H 0.0824 -0.0330 0.3112
H4 H -0.0268 -0.0289 0.2404
H5 H -0.0349 0.0492 0.3268
C5 C 0.1476(13) 0.1873(13) 0.3001(8)
H6 H 0.0879 0.2135 0.3442
H7 H 0.1820 0.2545 0.2694
H8 H 0.2146 0.1446 0.3288
B1 B 0.0156(18) -0.0373(18) -0.0232(11)
H21 H 0.0850 -0.1093 -0.0176
B2 B -0.1445(17) -0.0779(12) 0.0161(10)
B3 B -0.1728(14) 0.0365(15) 0.0959(11)
B4 B -0.0268(17) 0.2022(15) 0.0016(11)
H22 H 0.0129 0.2918 -0.0030
B5 B 0.0087(16) 0.0968(19) -0.0760(9)
H23 H 0.0711 0.1174 -0.1328
B6 B -0.1165(15) -0.0015(14) -0.0856(10)
H24 H -0.1377 -0.0465 -0.1490
B7 B -0.2351(14) 0.0475(14) -0.0086(10)
H25 H -0.3372 0.0364 -0.0198
B8 B -0.1757(16) 0.1759(13) 0.0420(12)
H26 H -0.2351 0.2504 0.0634
B9 B -0.1450(18) 0.1506(17) -0.0706(13)
H27 H -0.1876 0.2047 -0.1238
H28 H -0.054(7) -0.042(7) 0.083(5)
H29 H 0.125(12) 0.084(12) 0.058(8)
H30 H -0.191(10) -0.182(9) 0.028(6)
H31 H -0.227(11) 0.013(11) 0.179(8)
N2 N 0.0884(8) 0.0791(9) 0.6377(6)
C6 C 0.0699(15) -0.0414(12) 0.6781(9)
H9 H 0.1435 -0.0888 0.6672
H10 H -0.0026 -0.0784 0.6514
H11 H 0.0568 -0.0338 0.7413
C7 C 0.2007(11) 0.1362(14) 0.6734(10)
H12 H 0.2042 0.2164 0.6525
H13 H 0.2746 0.0945 0.6536
H14 H 0.1974 0.1355 0.7375
C8 C 0.1031(15) 0.0681(15) 0.5380(8)
H15 H 0.1184 0.1447 0.5127
H16 H 0.0272 0.0356 0.5129
H17 H 0.1731 0.0170 0.5248
C9 C -0.0246(12) 0.1538(12) 0.6576(10)
H18 H -0.0282 0.1697 0.7206
H19 H -0.0998 0.1127 0.6396
H20 H -0.0184 0.2269 0.6253
loop_
_geom_bond_atom_site_label_1
_geom_bond_atom_site_label_2
_geom_bond_site_symmetry_1
_geom_bond_site_symmetry_2
N1 C3 1_555 1_555
N2 C6 1_555 1_555
C1 C2 1_555 1_555
C2 B1 1_555 1_555
C3 C1 1_555 1_555
H1 C3 1_555 1_555
H2 C3 1_555 1_555
C4 N1 1_555 1_555
H3 C4 1_555 1_555
H4 C4 1_555 1_555
H5 C4 1_555 1_555
C5 N1 1_555 1_555
H6 C5 1_555 1_555
H7 C5 1_555 1_555
H8 C5 1_555 1_555
C6 H9 1_555 1_555
H10 C6 1_555 1_555
H11 C6 1_555 1_555
C7 N2 1_555 1_555
H12 C7 1_555 1_555
H13 C7 1_555 1_555
H14 C7 1_555 1_555
C8 N2 1_555 1_555
H15 C8 1_555 1_555
H16 C8 1_555 1_555
H17 C8 1_555 1_555
C9 N2 1_555 1_555
H18 C9 1_555 1_555
H19 C9 1_555 1_555
H20 C9 1_555 1_555
B1 H21 1_555 1_555
B2 B1 1_555 1_555
B3 C1 1_555 1_555
B4 C1 1_555 1_555
H22 B4 1_555 1_555
B5 C2 1_555 1_555
H23 B5 1_555 1_555
B6 B1 1_555 1_555
H24 B6 1_555 1_555
B7 B2 1_555 1_555
H25 B7 1_555 1_555
B8 C1 1_555 1_555
H26 B8 1_555 1_555
B9 B4 1_555 1_555
H27 B9 1_555 1_555
H28 B2 1_555 1_555
H29 C2 1_555 1_555
H30 B2 1_555 1_555
H31 B3 1_555 1_555
C2 B4 1_555 1_555
B1 B5 1_555 1_555
B2 B3 1_555 1_555
B2 B6 1_555 1_555
B3 B8 1_555 1_555
B3 H28 1_555 1_555
B3 B7 1_555 1_555
B4 B8 1_555 1_555
B4 B5 1_555 1_555
B5 B6 1_555 1_555
B5 B9 1_555 1_555
B6 B7 1_555 1_555
B6 B9 1_555 1_555
B7 B8 1_555 1_555
B7 B9 1_555 1_555
B8 B9 1_555 1_555

#END
