
#######################################################################
#
#                 Cambridge Crystallographic Data Centre
#                                CCDC 
#
#######################################################################
#
# If this CIF has been generated from an entry in the Cambridge 
# Structural Database, then it will include bibliographic, chemical, 
# crystal, experimental, refinement or atomic coordinate data resulting 
# from the CCDC's data processing and validation procedures.
#
#######################################################################

data_BURQAI
_chemical_formula_moiety         'C26 H36 N2 S4'
_chemical_name_systematic        
2,6-dioctylpyrrolo[3,4-f]isoindole-1,3,5,7(2H,6H)-tetrathione
_symmetry_cell_setting           triclinic
_symmetry_space_group_name_H-M   'P -1'
_symmetry_Int_Tables_number      2
_space_group_name_Hall           '-P 1'
loop_
_symmetry_equiv_pos_site_id
_symmetry_equiv_pos_as_xyz
1 x,y,z
2 -x,-y,-z
_cell_length_a                   4.5302(2)
_cell_length_b                   10.3934(5)
_cell_length_c                   14.1186(6)
_cell_angle_alpha                81.405(2)
_cell_angle_beta                 86.591(2)
_cell_angle_gamma                82.721(2)
_cell_volume                     651.443
_exptl_crystal_colour            'dark red'
_exptl_crystal_description       columnar
_cell_formula_units_Z            1
_exptl_crystal_recrystallization_method 'solvent diffusion'
loop_
_atom_site_label
_atom_site_type_symbol
_atom_site_fract_x
_atom_site_fract_y
_atom_site_fract_z
C1 C 1.1880(4) -0.01309(16) 0.42214(11)
C2 C 0.9841(4) 0.09855(15) 0.41614(11)
H1 H 0.9732 0.1633 0.3609
C3 C 0.7973(4) 0.10890(15) 0.49650(11)
C4 C 0.5594(4) 0.21301(16) 0.51482(11)
C5 C 0.2116(4) 0.25647(17) 0.65484(12)
H2 H 0.0901 0.2001 0.6999
H3 H 0.0780 0.3099 0.6071
C6 C 0.3538(4) 0.34601(16) 0.70942(12)
H4 H 0.4889 0.3962 0.6648
H5 H 0.4758 0.2917 0.7599
C7 C 0.1285(4) 0.44156(17) 0.75561(12)
H6 H 0.0166 0.5006 0.7048
H7 H -0.0156 0.3920 0.7968
C8 C 0.2745(4) 0.52336(17) 0.81570(12)
H8 H 0.4093 0.5766 0.7734
H9 H 0.3980 0.4637 0.8632
C9 C 0.0568(4) 0.61429(17) 0.86855(12)
H10 H -0.0602 0.6772 0.8211
H11 H -0.0838 0.5619 0.9090
C10 C 0.2096(4) 0.68995(16) 0.93129(12)
H12 H 0.3416 0.7459 0.8901
H13 H 0.3364 0.6269 0.9759
C11 C -0.0036(4) 0.77583(17) 0.98940(12)
H14 H -0.1402 0.7207 1.0292
H15 H -0.1253 0.8414 0.9450
C12 C 0.1550(4) 0.84679(18) 1.05415(13)
H16 H 0.2828 0.7827 1.0965
H17 H 0.0073 0.8958 1.0929
H18 H 0.2771 0.9076 1.0148
C13 C 0.5841(4) 0.05562(16) 0.64915(12)
S1 S 0.45376(11) 0.34823(4) 0.44448(3)
S2 S 0.51271(11) -0.01858(4) 0.75643(3)
N1 N 0.4396(3) 0.17416(13) 0.60585(9)
C1A C 0.8120(4) 0.01309(16) 0.57786(11)
C2A C 1.0159(4) -0.09855(15) 0.58386(11)
H1A H 1.0268 -0.1633 0.6391
C3A C 1.2027(4) -0.10890(15) 0.50350(11)
C4A C 1.4406(4) -0.21301(16) 0.48518(11)
C5A C 1.7884(4) -0.25647(17) 0.34516(12)
H2A H 1.9099 -0.2001 0.3001
H3A H 1.9220 -0.3099 0.3929
C6A C 1.6462(4) -0.34601(16) 0.29058(12)
H4A H 1.5111 -0.3962 0.3352
H5A H 1.5242 -0.2917 0.2401
C7A C 1.8715(4) -0.44156(17) 0.24439(12)
H6A H 1.9834 -0.5006 0.2952
H7A H 2.0156 -0.3920 0.2032
C8A C 1.7255(4) -0.52336(17) 0.18430(12)
H8A H 1.5907 -0.5766 0.2266
H9A H 1.6020 -0.4637 0.1368
C9A C 1.9432(4) -0.61429(17) 0.13145(12)
H10A H 2.0602 -0.6772 0.1789
H11A H 2.0838 -0.5619 0.0910
C10A C 1.7904(4) -0.68995(16) 0.06871(12)
H12A H 1.6584 -0.7459 0.1099
H13A H 1.6636 -0.6269 0.0241
C11A C 2.0036(4) -0.77583(17) 0.01060(12)
H14A H 2.1402 -0.7207 -0.0292
H15A H 2.1253 -0.8414 0.0550
C12A C 1.8450(4) -0.84679(18) -0.05415(13)
H16A H 1.7172 -0.7827 -0.0965
H17A H 1.9927 -0.8958 -0.0929
H18A H 1.7229 -0.9076 -0.0148
C13A C 1.4159(4) -0.05562(16) 0.35085(12)
S1A S 1.54624(11) -0.34823(4) 0.55552(3)
S2A S 1.48729(11) 0.01858(4) 0.24357(3)
N1A N 1.5604(3) -0.17416(13) 0.39415(9)
loop_
_geom_bond_atom_site_label_1
_geom_bond_atom_site_label_2
_geom_bond_site_symmetry_1
_geom_bond_site_symmetry_2
C1 C2 1_555 1_555
C2 H1 1_555 1_555
C3 C2 1_555 1_555
C4 C3 1_555 1_555
C5 H2 1_555 1_555
H3 C5 1_555 1_555
C6 C5 1_555 1_555
H4 C6 1_555 1_555
H5 C6 1_555 1_555
C7 C6 1_555 1_555
H6 C7 1_555 1_555
H7 C7 1_555 1_555
C8 C7 1_555 1_555
H8 C8 1_555 1_555
H9 C8 1_555 1_555
C9 C8 1_555 1_555
H10 C9 1_555 1_555
H11 C9 1_555 1_555
C10 C9 1_555 1_555
H12 C10 1_555 1_555
H13 C10 1_555 1_555
C11 C10 1_555 1_555
H14 C11 1_555 1_555
H15 C11 1_555 1_555
C12 C11 1_555 1_555
H16 C12 1_555 1_555
H17 C12 1_555 1_555
H18 C12 1_555 1_555
C13 S2 1_555 1_555
S1 C4 1_555 1_555
N1 C4 1_555 1_555
C1A C3 1_555 1_555
C2A C1A 1_555 1_555
H1A C2A 1_555 1_555
C3A C1 1_555 1_555
C4A C3A 1_555 1_555
C5A H2A 1_555 1_555
H3A C5A 1_555 1_555
C6A C5A 1_555 1_555
H4A C6A 1_555 1_555
H5A C6A 1_555 1_555
C7A C6A 1_555 1_555
H6A C7A 1_555 1_555
H7A C7A 1_555 1_555
C8A C7A 1_555 1_555
H8A C8A 1_555 1_555
H9A C8A 1_555 1_555
C9A C8A 1_555 1_555
H10A C9A 1_555 1_555
H11A C9A 1_555 1_555
C10A C9A 1_555 1_555
H12A C10A 1_555 1_555
H13A C10A 1_555 1_555
C11A C10A 1_555 1_555
H14A C11A 1_555 1_555
H15A C11A 1_555 1_555
C12A C11A 1_555 1_555
H16A C12A 1_555 1_555
H17A C12A 1_555 1_555
H18A C12A 1_555 1_555
C13A C1 1_555 1_555
S1A C4A 1_555 1_555
S2A C13A 1_555 1_555
N1A C4A 1_555 1_555
C5 N1 1_555 1_555
C13 N1 1_555 1_555
C13 C1A 1_555 1_555
C2A C3A 1_555 1_555
C5A N1A 1_555 1_555
C13A N1A 1_555 1_555

#END
