
#######################################################################
#
#                 Cambridge Crystallographic Data Centre
#                                CCDC 
#
#######################################################################
#
# If this CIF has been generated from an entry in the Cambridge 
# Structural Database, then it will include bibliographic, chemical, 
# crystal, experimental, refinement or atomic coordinate data resulting 
# from the CCDC's data processing and validation procedures.
#
#######################################################################

data_BUSQOX
_chemical_formula_moiety         'C34 H31 N3 O6'
_chemical_name_systematic        
'dimethyl 5,5-dicyano-4-(3-methoxyphenyl)-1-(4-methoxyphenyl)-6-(2-(4-methylphenyl)vinyl)-1,4,5,6-tetrahydropyridine-2,3-dicarboxylate'
_symmetry_cell_setting           triclinic
_symmetry_space_group_name_H-M   'P -1'
_symmetry_Int_Tables_number      2
_space_group_name_Hall           '-P 1'
loop_
_symmetry_equiv_pos_site_id
_symmetry_equiv_pos_as_xyz
1 x,y,z
2 -x,-y,-z
_cell_length_a                   9.3150(12)
_cell_length_b                   12.7180(14)
_cell_length_c                   13.8223(17)
_cell_angle_alpha                99.328(4)
_cell_angle_beta                 109.345(4)
_cell_angle_gamma                94.509(4)
_cell_volume                     1509.15
_exptl_crystal_colour            colorless
_exptl_crystal_description       block
_cell_formula_units_Z            2
loop_
_atom_site_label
_atom_site_type_symbol
_atom_site_fract_x
_atom_site_fract_y
_atom_site_fract_z
C1 C 0.1730(2) 0.83537(14) 0.37916(14)
H1 H 0.2391 0.8347 0.4463
C2 C 0.0998(2) 0.92427(15) 0.36035(16)
C3 C 0.0672(4) 1.1026(2) 0.4287(2)
H2 H 0.0960 1.1320 0.3769
H3 H 0.1024 1.1545 0.4933
H4 H -0.0426 1.0854 0.4051
C4 C 0.0006(2) 0.92556(17) 0.26101(18)
H5 H -0.0504 0.9846 0.2480
C5 C -0.0218(3) 0.83841(18) 0.18139(17)
H6 H -0.0872 0.8396 0.1142
C6 C 0.0509(2) 0.74962(16) 0.19960(15)
H7 H 0.0342 0.6913 0.1451
C7 C 0.1491(2) 0.74736(13) 0.29953(13)
C8 C 0.2307(2) 0.65096(13) 0.32480(13)
H8 H 0.3246 0.6773 0.3857
C9 C 0.1309(2) 0.56548(13) 0.35509(13)
C10 C 0.2304(2) 0.49212(15) 0.40909(14)
C11 C 0.0569(2) 0.61803(14) 0.42546(14)
C12 C -0.4319(2) 0.33441(17) 0.34339(16)
H9 H -0.4590 0.4027 0.3569
C13 C -0.5035(2) 0.2483(2) 0.36835(17)
H10 H -0.5763 0.2603 0.3999
C14 C -0.4697(2) 0.14604(19) 0.34767(17)
C15 C -0.5493(3) 0.0532(2) 0.3753(3)
H11 H -0.5841 0.0800 0.4314
H12 H -0.4786 0.0034 0.3968
H13 H -0.6357 0.0174 0.3152
C16 C -0.3615(2) 0.13080(17) 0.30061(18)
H14 H -0.3377 0.0619 0.2849
C17 C -0.2876(2) 0.21587(16) 0.27635(17)
H15 H -0.2150 0.2033 0.2447
C18 C -0.3201(2) 0.31944(15) 0.29838(14)
C19 C -0.2366(2) 0.40984(15) 0.27475(14)
H16 H -0.2890 0.4658 0.2524
C20 C -0.0911(2) 0.41403(14) 0.28418(14)
H17 H -0.0402 0.3595 0.3113
C21 C 0.0014(2) 0.49762(13) 0.25571(13)
H18 H -0.0666 0.5456 0.2208
C22 C 0.0109(2) 0.33721(13) 0.12944(13)
C23 C 0.0885(2) 0.25283(15) 0.15880(15)
H19 H 0.1868 0.2666 0.2089
C24 C 0.0202(3) 0.14868(16) 0.11389(18)
H20 H 0.0729 0.0919 0.1332
C25 C -0.1257(3) 0.12788(16) 0.04046(17)
C26 C -0.3311(4) -0.0047(3) -0.0744(3)
H21 H -0.4068 0.0214 -0.0470
H22 H -0.3549 -0.0814 -0.0976
H23 H -0.3314 0.0282 -0.1322
C27 C -0.2019(2) 0.21189(17) 0.00896(16)
H24 H -0.2993 0.1980 -0.0423
C28 C -0.1330(2) 0.31661(15) 0.05380(14)
H25 H -0.1842 0.3734 0.0327
C29 C 0.2010(2) 0.49867(14) 0.17593(13)
C30 C 0.2475(2) 0.44384(14) 0.08713(14)
C31 C 0.4218(3) 0.3413(2) 0.04185(19)
H26 H 0.3377 0.2978 -0.0151
H27 H 0.4971 0.2970 0.0712
H28 H 0.4679 0.3961 0.0167
C32 C 0.2780(2) 0.59472(13) 0.23734(13)
C33 C 0.4105(2) 0.64457(15) 0.21898(16)
C34 C 0.6260(3) 0.7802(2) 0.2858(3)
H29 H 0.6995 0.7306 0.2909
H30 H 0.6692 0.8426 0.3408
H31 H 0.6006 0.8014 0.2192
N1 N 0.3060(2) 0.43471(16) 0.44888(15)
N2 N -0.0038(2) 0.65853(14) 0.47702(15)
N3 N 0.07470(16) 0.44597(11) 0.18449(11)
O1 O 0.13559(18) 1.00708(11) 0.44477(12)
O2 O -0.1860(2) 0.02118(12) 0.00394(16)
O3 O 0.17935(16) 0.44493(11) -0.00262(10)
O4 O 0.36568(15) 0.39126(11) 0.12148(10)
O5 O 0.44779(18) 0.61753(13) 0.14407(12)
O6 O 0.48872(17) 0.72896(12) 0.29541(12)
loop_
_geom_bond_atom_site_label_1
_geom_bond_atom_site_label_2
_geom_bond_site_symmetry_1
_geom_bond_site_symmetry_2
C1 H1 1_555 1_555
C2 C1 1_555 1_555
C3 H2 1_555 1_555
H3 C3 1_555 1_555
H4 C3 1_555 1_555
C4 C2 1_555 1_555
H5 C4 1_555 1_555
C5 C4 1_555 1_555
H6 C5 1_555 1_555
C6 C5 1_555 1_555
H7 C6 1_555 1_555
C7 C1 1_555 1_555
C8 C7 1_555 1_555
H8 C8 1_555 1_555
C9 C8 1_555 1_555
C10 C9 1_555 1_555
C11 C9 1_555 1_555
C12 H9 1_555 1_555
C13 C12 1_555 1_555
H10 C13 1_555 1_555
C14 C13 1_555 1_555
C15 C14 1_555 1_555
H11 C15 1_555 1_555
H12 C15 1_555 1_555
H13 C15 1_555 1_555
C16 C14 1_555 1_555
H14 C16 1_555 1_555
C17 C16 1_555 1_555
H15 C17 1_555 1_555
C18 C12 1_555 1_555
C19 C18 1_555 1_555
H16 C19 1_555 1_555
C20 C19 1_555 1_555
H17 C20 1_555 1_555
C21 C9 1_555 1_555
H18 C21 1_555 1_555
C22 C23 1_555 1_555
C23 H19 1_555 1_555
C24 C23 1_555 1_555
H20 C24 1_555 1_555
C25 C24 1_555 1_555
C26 H21 1_555 1_555
H22 C26 1_555 1_555
H23 C26 1_555 1_555
C27 C25 1_555 1_555
H24 C27 1_555 1_555
C28 C22 1_555 1_555
H25 C28 1_555 1_555
C29 C30 1_555 1_555
C30 O3 1_555 1_555
C31 H26 1_555 1_555
H27 C31 1_555 1_555
H28 C31 1_555 1_555
C32 C8 1_555 1_555
C33 C32 1_555 1_555
C34 H29 1_555 1_555
H30 C34 1_555 1_555
H31 C34 1_555 1_555
N1 C10 1_555 1_555
N2 C11 1_555 1_555
N3 C21 1_555 1_555
O1 C2 1_555 1_555
O2 C25 1_555 1_555
O4 C30 1_555 1_555
O5 C33 1_555 1_555
O6 C33 1_555 1_555
C3 O1 1_555 1_555
C6 C7 1_555 1_555
C17 C18 1_555 1_555
C20 C21 1_555 1_555
C22 N3 1_555 1_555
C26 O2 1_555 1_555
C27 C28 1_555 1_555
C29 C32 1_555 1_555
C29 N3 1_555 1_555
C31 O4 1_555 1_555
C34 O6 1_555 1_555

#END
