
#######################################################################
#
#                 Cambridge Crystallographic Data Centre
#                                CCDC 
#
#######################################################################
#
# If this CIF has been generated from an entry in the Cambridge 
# Structural Database, then it will include bibliographic, chemical, 
# crystal, experimental, refinement or atomic coordinate data resulting 
# from the CCDC's data processing and validation procedures.
#
#######################################################################

data_BUSQAI
_chemical_formula_moiety         'C82 H118 N4 O4'
_chemical_name_systematic        
2,3,7,8-tetrakis(4-(dodecyloxy)phenyl)pyrazino[2,3-g]quinoxaline
_symmetry_cell_setting           triclinic
_symmetry_space_group_name_H-M   'P -1'
_symmetry_Int_Tables_number      2
_space_group_name_Hall           '-P 1'
loop_
_symmetry_equiv_pos_site_id
_symmetry_equiv_pos_as_xyz
1 x,y,z
2 -x,-y,-z
_cell_length_a                   9.2108(9)
_cell_length_b                   14.6042(12)
_cell_length_c                   27.960(3)
_cell_angle_alpha                79.023(6)
_cell_angle_beta                 84.705(10)
_cell_angle_gamma                80.959(12)
_cell_volume                     3638.84
_exptl_crystal_colour            colorless
_exptl_crystal_description       prism
_cell_formula_units_Z            2
loop_
_atom_site_label
_atom_site_type_symbol
_atom_site_fract_x
_atom_site_fract_y
_atom_site_fract_z
O1 O 0.15960(12) -0.02836(7) 1.05004(4)
O2 O 0.48253(13) 0.16688(7) 1.23617(4)
O3 O 0.42117(13) 1.19960(7) 0.86223(4)
O4 O -0.09791(16) 1.05505(12) 0.71473(5)
N1 N 0.18939(15) 0.40902(10) 0.98147(5)
N2 N 0.32115(14) 0.48064(9) 1.05148(4)
N3 N 0.29604(14) 0.78134(9) 0.94562(5)
N4 N 0.13376(15) 0.71523(10) 0.88093(5)
C1 C 0.23417(17) 0.35444(11) 1.02212(5)
C2 C 0.29407(17) 0.39314(11) 1.05961(5)
C3 C 0.28301(17) 0.53720(11) 1.00783(5)
C4 C 0.20854(18) 0.50218(11) 0.97378(6)
C5 C 0.16037(18) 0.56243(12) 0.93144(6)
H1 H 0.1097 0.5397 0.9090
C6 C 0.18658(18) 0.65589(12) 0.92198(6)
C7 C 0.26485(17) 0.68983(11) 0.95527(5)
C8 C 0.31256(17) 0.62974(11) 0.99768(5)
H2 H 0.3653 0.6521 1.0197
C9 C 0.24795(17) 0.83621(11) 0.90559(5)
C10 C 0.15947(17) 0.80289(12) 0.87343(6)
C11 C 0.22288(18) 0.25296(11) 1.02756(5)
C12 C 0.33550(18) 0.18312(12) 1.04575(6)
H3 H 0.4247 0.2006 1.0532
C13 C 0.31942(18) 0.08823(12) 1.05313(6)
H4 H 0.3973 0.0414 1.0654
C14 C 0.18911(18) 0.06238(11) 1.04246(5)
C15 C 0.07796(18) 0.13132(11) 1.02185(5)
H5 H -0.0096 0.1136 1.0132
C16 C 0.09579(17) 0.22487(11) 1.01417(5)
H6 H 0.0208 0.2712 0.9996
C17 C 0.27006(19) -0.10059(12) 1.07218(6)
H7 H 0.2917 -0.0875 1.1041
H8 H 0.3622 -0.1026 1.0509
C18 C 0.2119(2) -0.19347(12) 1.07921(6)
H9 H 0.2881 -0.2440 1.0939
H10 H 0.1952 -0.2064 1.0468
C19 C 0.0697(2) -0.19778(13) 1.11122(8)
H11 H 0.0721 -0.1606 1.1372
H12 H -0.0134 -0.1670 1.0911
C20 C 0.0397(3) -0.29294(15) 1.13447(9)
H13 H -0.0012 -0.3173 1.1099
H14 H -0.0387 -0.2833 1.1589
C21 C 0.1451(4) -0.3708(2) 1.15796(13)
H15 H 0.1958 -0.3462 1.1815
H16 H 0.2206 -0.3885 1.1325
C22 C 0.0891(5) -0.4605(3) 1.18479(16)
H17 H 0.0698 -0.4978 1.1606
H18 H -0.0053 -0.4435 1.2032
C23 C 0.1977(4) -0.5212(2) 1.22018(14)
H19 H 0.2825 -0.5498 1.2009
H20 H 0.2354 -0.4796 1.2388
C24 C 0.1364(5) -0.5989(3) 1.25597(18)
H21 H 0.1083 -0.6445 1.2377
H22 H 0.0460 -0.5715 1.2732
C25 C 0.2434(5) -0.6513(3) 1.29356(16)
H23 H 0.3303 -0.6825 1.2763
H24 H 0.2778 -0.6047 1.3098
C26 C 0.1817(6) -0.7249(3) 1.3325(2)
H25 H 0.1497 -0.7726 1.3165
H26 H 0.0936 -0.6942 1.3495
C27 C 0.2901(5) -0.7745(3) 1.37014(19)
H27 H 0.3262 -0.7263 1.3847
H28 H 0.3758 -0.8078 1.3533
C28 C 0.2277(7) -0.8451(3) 1.4111(2)
H29 H 0.1421 -0.8132 1.4280
H30 H 0.3032 -0.8720 1.4344
H31 H 0.1977 -0.8957 1.3974
C29 C 0.33081(17) 0.33591(11) 1.10798(5)
C30 C 0.45895(17) 0.34747(10) 1.12796(5)
H32 H 0.5151 0.3951 1.1119
C31 C 0.50475(18) 0.29045(10) 1.17074(5)
H33 H 0.5933 0.2981 1.1835
C32 C 0.42219(18) 0.22179(10) 1.19536(5)
C33 C 0.28954(18) 0.21325(11) 1.17801(5)
H34 H 0.2298 0.1690 1.1955
C34 C 0.24527(19) 0.27038(12) 1.13459(6)
H35 H 0.1543 0.2646 1.1227
C35 C 0.41585(19) 0.08673(11) 1.26036(5)
H36 H 0.4002 0.0475 1.2366
H37 H 0.3194 0.1072 1.2766
C36 C 0.5204(2) 0.03127(12) 1.29764(6)
H38 H 0.5456 0.0742 1.3181
H39 H 0.6126 0.0065 1.2803
C37 C 0.4575(2) -0.05060(11) 1.33069(6)
H40 H 0.4378 -0.0954 1.3104
H41 H 0.3623 -0.0262 1.3464
C38 C 0.5586(2) -0.10338(13) 1.37023(6)
H42 H 0.6500 -0.1330 1.3545
H43 H 0.5862 -0.0575 1.3885
C39 C 0.4897(2) -0.17911(11) 1.40614(6)
H44 H 0.4616 -0.2244 1.3877
H45 H 0.3983 -0.1491 1.4217
C40 C 0.5878(3) -0.23362(13) 1.44614(7)
H46 H 0.6209 -0.1884 1.4636
H47 H 0.6764 -0.2674 1.4309
C41 C 0.5112(2) -0.30457(12) 1.48302(6)
H48 H 0.4250 -0.2701 1.4991
H49 H 0.4739 -0.3476 1.4652
C42 C 0.6075(3) -0.36347(15) 1.52231(7)
H50 H 0.6456 -0.3208 1.5402
H51 H 0.6931 -0.3990 1.5065
C43 C 0.5267(2) -0.43266(12) 1.55872(6)
H52 H 0.4870 -0.4743 1.5406
H53 H 0.4418 -0.3967 1.5746
C44 C 0.6201(3) -0.49395(15) 1.59821(7)
H54 H 0.7052 -0.5300 1.5825
H55 H 0.6591 -0.4527 1.6167
C45 C 0.5364(3) -0.56268(13) 1.63378(6)
H56 H 0.4993 -0.6048 1.6154
H57 H 0.4501 -0.5267 1.6490
C46 C 0.6286(3) -0.62260(17) 1.67395(8)
H58 H 0.7131 -0.6598 1.6593
H59 H 0.5683 -0.6651 1.6955
H60 H 0.6638 -0.5816 1.6929
C47 C 0.29069(17) 0.93231(11) 0.89422(5)
C48 C 0.27943(18) 0.98655(12) 0.93068(6)
H61 H 0.2434 0.9615 0.9627
C49 C 0.31962(18) 1.07641(11) 0.92144(6)
H62 H 0.3082 1.1130 0.9466
C50 C 0.37676(18) 1.11253(11) 0.87498(6)
C51 C 0.39236(19) 1.05805(11) 0.83857(6)
H63 H 0.4336 1.0818 0.8071
C52 C 0.34855(19) 0.96996(11) 0.84774(6)
H64 H 0.3577 0.9343 0.8222
C53 C 0.3815(2) 1.26463(12) 0.89504(6)
H65 H 0.4333 1.2418 0.9255
H66 H 0.2741 1.2715 0.9035
C54 C 0.4256(2) 1.35803(12) 0.86972(6)
H67 H 0.4013 1.4036 0.8924
H68 H 0.5337 1.3498 0.8627
C55 C 0.3538(2) 1.39902(13) 0.82328(7)
H69 H 0.3820 1.3539 0.8006
H70 H 0.2459 1.4030 0.8304
C56 C 0.3845(3) 1.49167(13) 0.79739(7)
H71 H 0.4859 1.4844 0.7853
H72 H 0.3753 1.5322 0.8211
C57 C 0.2995(6) 1.5406(4) 0.7550(2)
H73 H 0.2013 1.5673 0.7678
H74 H 0.2837 1.4925 0.7362
C58 C 0.3630(7) 1.6186(4) 0.7199(2)
H75 H 0.4561 1.5916 0.7039
H76 H 0.3868 1.6650 0.7385
C59 C 0.2595(7) 1.6697(5) 0.6805(2)
H77 H 0.2385 1.6238 0.6612
H78 H 0.1651 1.6947 0.6965
C60 C 0.3208(6) 1.7502(3) 0.64631(16)
H79 H 0.4177 1.7256 0.6317
H80 H 0.3373 1.7974 0.6656
C61 C 0.2219(10) 1.8000(6) 0.6048(3)
H81 H 0.2039 1.7526 0.5858
H82 H 0.1256 1.8255 0.6194
C62 C 0.2834(6) 1.8788(3) 0.57036(14)
H83 H 0.3809 1.8536 0.5564
H84 H 0.2991 1.9269 0.5892
C63 C 0.1869(12) 1.9269(6) 0.5283(3)
H85 H 0.1683 1.8780 0.5104
H86 H 0.0906 1.9535 0.5425
C64 C 0.2450(6) 2.0016(3) 0.49322(17)
H87 H 0.2417 2.0571 0.5084
H88 H 0.1852 2.0181 0.4648
H89 H 0.3471 1.9798 0.4829
C65 C 0.09052(19) 0.86738(12) 0.83107(6)
C66 C 0.0049(2) 0.95267(13) 0.83720(7)
H90 H -0.0096 0.9698 0.8686
C67 C -0.0590(2) 1.01240(14) 0.79778(7)
H91 H -0.1198 1.0694 0.8024
C68 C -0.0346(2) 0.98920(15) 0.75147(7)
C69 C 0.0484(2) 0.90435(15) 0.74492(7)
H92 H 0.0641 0.8880 0.7134
C70 C 0.1086(2) 0.84307(14) 0.78502(6)
H93 H 0.1628 0.7839 0.7808
C71 C -0.0331(3) 1.05683(18) 0.66608(7)
H94 H -0.0642 1.0070 0.6514
H95 H 0.0758 1.0467 0.6661
C72 C -0.0872(3) 1.15328(19) 0.63775(9)
H96 H -0.0599 1.2015 0.6544
H97 H -0.1961 1.1613 0.6385
C73 C -0.0270(3) 1.17144(18) 0.58468(8)
H98 H 0.0818 1.1653 0.5834
H99 H -0.0536 1.1237 0.5675
C74 C -0.0888(3) 1.2694(2) 0.55903(10)
H100 H -0.0672 1.3160 0.5779
H101 H -0.1973 1.2735 0.5596
C75 C -0.0302(3) 1.29711(19) 0.50626(9)
H102 H 0.0778 1.2959 0.5054
H103 H -0.0493 1.2502 0.4872
C76 C -0.1004(3) 1.3944(2) 0.48268(10)
H104 H -0.0826 1.4406 0.5024
H105 H -0.2082 1.3949 0.4836
C77 C -0.0447(3) 1.42671(18) 0.43003(8)
H106 H 0.0627 1.4282 0.4290
H107 H -0.0605 1.3802 0.4102
C78 C -0.1200(3) 1.5232(2) 0.40740(9)
H108 H -0.1045 1.5694 0.4275
H109 H -0.2273 1.5214 0.4085
C79 C -0.0663(3) 1.55752(16) 0.35477(7)
H110 H 0.0405 1.5609 0.3537
H111 H -0.0797 1.5107 0.3348
C80 C -0.1450(3) 1.65321(18) 0.33215(8)
H112 H -0.2516 1.6495 0.3331
H113 H -0.1324 1.6997 0.3524
C81 C -0.0921(3) 1.68889(15) 0.27995(7)
H114 H -0.1039 1.6424 0.2596
H115 H 0.0142 1.6937 0.2789
C82 C -0.1739(3) 1.78422(17) 0.25811(8)
H116 H -0.2792 1.7800 0.2586
H117 H -0.1356 1.8027 0.2243
H118 H -0.1597 1.8313 0.2773
C83? C 0.0838(5) -0.3740(2) 1.11449(13)
C84? C 0.0547(5) -0.4646(3) 1.14847(14)
C85? C 0.1522(6) -0.4946(3) 1.19185(16)
C86? C 0.1042(5) -0.5793(3) 1.22725(19)
C87? C 0.2053(7) -0.6167(4) 1.2690(2)
C88? C 0.1572(6) -0.6999(3) 1.3047(2)
C89? C 0.2641(8) -0.7414(4) 1.3435(2)
C90? C 0.2206(7) -0.8249(4) 1.3806(2)
C91? C 0.3487(9) 1.5247(6) 0.7454(2)
C92? C 0.3125(10) 1.6305(6) 0.7281(3)
C93? C 0.3092(11) 1.6603(6) 0.6724(3)
C94? C 0.2527(8) 1.7653(4) 0.6571(2)
C95? C 0.2690(16) 1.7992(8) 0.6024(4)
C96? C 0.2014(8) 1.9042(4) 0.5867(2)
C97? C 0.2246(12) 1.9347(10) 0.5301(3)
C98? C 0.3812(10) 1.9532(5) 0.5160(2)
H119? H -0.0654 -0.2880 1.1400
H120? H 0.0789 -0.3056 1.1661
H121? H 0.1907 -0.3784 1.1051
H122? H 0.0318 -0.3681 1.0844
H123? H 0.0687 -0.5160 1.1292
H124? H -0.0496 -0.4568 1.1612
H125? H 0.2557 -0.5108 1.1797
H126? H 0.1475 -0.4412 1.2093
H127? H 0.0033 -0.5611 1.2412
H128? H 0.1006 -0.6305 1.2089
H129? H 0.3059 -0.6357 1.2550
H130? H 0.2101 -0.5652 1.2869
H131? H 0.0603 -0.6796 1.3207
H132? H 0.1445 -0.7495 1.2864
H133? H 0.2773 -0.6911 1.3613
H134? H 0.3608 -0.7614 1.3272
H135? H 0.1294 -0.8048 1.3991
H136? H 0.2994 -0.8487 1.4029
H137? H 0.2051 -0.8749 1.3635
H138? H 0.4887 1.4919 0.7975
H139? H 0.3368 1.5376 0.8163
H140? H 0.2636 1.4951 0.7398
H141? H 0.4334 1.5008 0.7245
H142? H 0.3865 1.6622 0.7397
H143? H 0.2152 1.6528 0.7432
H144? H 0.4098 1.6463 0.6573
H145? H 0.2449 1.6229 0.6600
H146? H 0.1475 1.7774 0.6683
H147? H 0.3076 1.8022 0.6735
H148? H 0.2202 1.7593 0.5858
H149? H 0.3749 1.7915 0.5916
H150? H 0.2490 1.9447 0.6033
H151? H 0.0947 1.9124 0.5965
H152? H 0.2032 1.8843 0.5137
H153? H 0.1556 1.9925 0.5190
H154? H 0.4057 1.9983 0.5348
H155? H 0.3908 1.9793 0.4810
H156? H 0.4487 1.8940 0.5230
loop_
_geom_bond_atom_site_label_1
_geom_bond_atom_site_label_2
_geom_bond_site_symmetry_1
_geom_bond_site_symmetry_2
O1 C14 1_555 1_555
O2 C32 1_555 1_555
O3 C50 1_555 1_555
O4 C68 1_555 1_555
N1 C1 1_555 1_555
N2 C2 1_555 1_555
N3 C7 1_555 1_555
N4 C6 1_555 1_555
C1 C2 1_555 1_555
C2 C29 1_555 1_555
C3 N2 1_555 1_555
C4 N1 1_555 1_555
C5 C4 1_555 1_555
H1 C5 1_555 1_555
C6 C5 1_555 1_555
C7 C6 1_555 1_555
C8 C3 1_555 1_555
H2 C8 1_555 1_555
C9 N3 1_555 1_555
C10 N4 1_555 1_555
C11 C1 1_555 1_555
C12 C11 1_555 1_555
H3 C12 1_555 1_555
C13 C12 1_555 1_555
H4 C13 1_555 1_555
C14 C13 1_555 1_555
C15 C14 1_555 1_555
H5 C15 1_555 1_555
C16 C11 1_555 1_555
H6 C16 1_555 1_555
C17 O1 1_555 1_555
H7 C17 1_555 1_555
H8 C17 1_555 1_555
C18 C17 1_555 1_555
H9 C18 1_555 1_555
H10 C18 1_555 1_555
C19 C18 1_555 1_555
H11 C19 1_555 1_555
H12 C19 1_555 1_555
C20 C19 1_555 1_555
H13 C20 1_555 1_555
H14 C20 1_555 1_555
C21 C20 1_555 1_555
H15 C21 1_555 1_555
H16 C21 1_555 1_555
C22 C21 1_555 1_555
H17 C22 1_555 1_555
H18 C22 1_555 1_555
C23 C22 1_555 1_555
H19 C23 1_555 1_555
H20 C23 1_555 1_555
C24 C23 1_555 1_555
H21 C24 1_555 1_555
H22 C24 1_555 1_555
C25 C24 1_555 1_555
H23 C25 1_555 1_555
H24 C25 1_555 1_555
C26 C25 1_555 1_555
H25 C26 1_555 1_555
H26 C26 1_555 1_555
C27 C26 1_555 1_555
H27 C27 1_555 1_555
H28 C27 1_555 1_555
C28 C27 1_555 1_555
H29 C28 1_555 1_555
H30 C28 1_555 1_555
H31 C28 1_555 1_555
C29 C30 1_555 1_555
C30 H32 1_555 1_555
C31 C30 1_555 1_555
H33 C31 1_555 1_555
C32 C31 1_555 1_555
C33 C32 1_555 1_555
H34 C33 1_555 1_555
C34 C29 1_555 1_555
H35 C34 1_555 1_555
C35 O2 1_555 1_555
H36 C35 1_555 1_555
H37 C35 1_555 1_555
C36 C35 1_555 1_555
H38 C36 1_555 1_555
H39 C36 1_555 1_555
C37 C36 1_555 1_555
H40 C37 1_555 1_555
H41 C37 1_555 1_555
C38 C37 1_555 1_555
H42 C38 1_555 1_555
H43 C38 1_555 1_555
C39 C38 1_555 1_555
H44 C39 1_555 1_555
H45 C39 1_555 1_555
C40 C39 1_555 1_555
H46 C40 1_555 1_555
H47 C40 1_555 1_555
C41 C40 1_555 1_555
H48 C41 1_555 1_555
H49 C41 1_555 1_555
C42 C41 1_555 1_555
H50 C42 1_555 1_555
H51 C42 1_555 1_555
C43 C42 1_555 1_555
H52 C43 1_555 1_555
H53 C43 1_555 1_555
C44 C43 1_555 1_555
H54 C44 1_555 1_555
H55 C44 1_555 1_555
C45 C44 1_555 1_555
H56 C45 1_555 1_555
H57 C45 1_555 1_555
C46 C45 1_555 1_555
H58 C46 1_555 1_555
H59 C46 1_555 1_555
H60 C46 1_555 1_555
C47 C9 1_555 1_555
C48 C47 1_555 1_555
H61 C48 1_555 1_555
C49 C48 1_555 1_555
H62 C49 1_555 1_555
C50 C49 1_555 1_555
C51 C50 1_555 1_555
H63 C51 1_555 1_555
C52 C47 1_555 1_555
H64 C52 1_555 1_555
C53 O3 1_555 1_555
H65 C53 1_555 1_555
H66 C53 1_555 1_555
C54 C53 1_555 1_555
H67 C54 1_555 1_555
H68 C54 1_555 1_555
C55 C54 1_555 1_555
H69 C55 1_555 1_555
H70 C55 1_555 1_555
C56 C55 1_555 1_555
H71 C56 1_555 1_555
H72 C56 1_555 1_555
C57 C56 1_555 1_555
H73 C57 1_555 1_555
H74 C57 1_555 1_555
C58 C57 1_555 1_555
H75 C58 1_555 1_555
H76 C58 1_555 1_555
C59 C58 1_555 1_555
H77 C59 1_555 1_555
H78 C59 1_555 1_555
C60 C59 1_555 1_555
H79 C60 1_555 1_555
H80 C60 1_555 1_555
C61 C60 1_555 1_555
H81 C61 1_555 1_555
H82 C61 1_555 1_555
C62 C61 1_555 1_555
H83 C62 1_555 1_555
H84 C62 1_555 1_555
C63 C62 1_555 1_555
H85 C63 1_555 1_555
H86 C63 1_555 1_555
C64 C63 1_555 1_555
H87 C64 1_555 1_555
H88 C64 1_555 1_555
H89 C64 1_555 1_555
C65 C10 1_555 1_555
C66 C65 1_555 1_555
H90 C66 1_555 1_555
C67 C66 1_555 1_555
H91 C67 1_555 1_555
C68 C67 1_555 1_555
C69 C68 1_555 1_555
H92 C69 1_555 1_555
C70 C65 1_555 1_555
H93 C70 1_555 1_555
C71 O4 1_555 1_555
H94 C71 1_555 1_555
H95 C71 1_555 1_555
C72 C71 1_555 1_555
H96 C72 1_555 1_555
H97 C72 1_555 1_555
C73 C72 1_555 1_555
H98 C73 1_555 1_555
H99 C73 1_555 1_555
C74 C73 1_555 1_555
H100 C74 1_555 1_555
H101 C74 1_555 1_555
C75 C74 1_555 1_555
H102 C75 1_555 1_555
H103 C75 1_555 1_555
C76 C75 1_555 1_555
H104 C76 1_555 1_555
H105 C76 1_555 1_555
C77 C76 1_555 1_555
H106 C77 1_555 1_555
H107 C77 1_555 1_555
C78 C77 1_555 1_555
H108 C78 1_555 1_555
H109 C78 1_555 1_555
C79 C78 1_555 1_555
H110 C79 1_555 1_555
H111 C79 1_555 1_555
C80 C79 1_555 1_555
H112 C80 1_555 1_555
H113 C80 1_555 1_555
C81 C80 1_555 1_555
H114 C81 1_555 1_555
H115 C81 1_555 1_555
C82 C81 1_555 1_555
H116 C82 1_555 1_555
H117 C82 1_555 1_555
H118 C82 1_555 1_555
C3 C4 1_555 1_555
C7 C8 1_555 1_555
C9 C10 1_555 1_555
C15 C16 1_555 1_555
C33 C34 1_555 1_555
C51 C52 1_555 1_555
C69 C70 1_555 1_555

#END
