
#######################################################################
#
#                 Cambridge Crystallographic Data Centre
#                                CCDC 
#
#######################################################################
#
# If this CIF has been generated from an entry in the Cambridge 
# Structural Database, then it will include bibliographic, chemical, 
# crystal, experimental, refinement or atomic coordinate data resulting 
# from the CCDC's data processing and validation procedures.
#
#######################################################################

data_BUSREO
_chemical_formula_moiety         'C33 H28 Br1 Cl1 N2 O6'
_chemical_name_systematic        
'5-ethyl 2,3-dimethyl 4-(4-bromophenyl)-1-(4-chlorophenyl)-5-cyano-6-(2-phenylvinyl)-1,4,5,6-tetrahydropyridine-2,3,5-tricarboxylate unknown solvate'
_symmetry_cell_setting           triclinic
_symmetry_space_group_name_H-M   'P -1'
_symmetry_Int_Tables_number      2
_space_group_name_Hall           '-P 1'
loop_
_symmetry_equiv_pos_site_id
_symmetry_equiv_pos_as_xyz
1 x,y,z
2 -x,-y,-z
_cell_length_a                   9.5685(19)
_cell_length_b                   10.962(3)
_cell_length_c                   17.683(4)
_cell_angle_alpha                75.470(7)
_cell_angle_beta                 75.143(7)
_cell_angle_gamma                88.025(7)
_cell_volume                     1734.54
_exptl_crystal_colour            colorless
_exptl_crystal_description       block
_cell_formula_units_Z            2
loop_
_atom_site_label
_atom_site_type_symbol
_atom_site_fract_x
_atom_site_fract_y
_atom_site_fract_z
Br1 Br 0.99938(3) 0.83346(3) 0.427247(18)
C1 C 0.0223(3) 0.3012(3) 0.32994(17)
H1 H 0.0935 0.2669 0.2953
C2 C -0.0989(4) 0.2282(3) 0.3789(2)
H2 H -0.1086 0.1450 0.3770
C3 C -0.2037(3) 0.2787(3) 0.42977(19)
H3 H -0.2850 0.2299 0.4620
C4 C -0.1898(3) 0.3992(3) 0.4335(2)
H4 H -0.2614 0.4328 0.4684
C5 C -0.0703(3) 0.4724(3) 0.3859(2)
H5 H -0.0613 0.5549 0.3894
C6 C 0.0365(3) 0.4250(2) 0.33303(16)
C7 C 0.1652(3) 0.5020(2) 0.27990(15)
H6 H 0.2225 0.4680 0.2396
C8 C 0.2079(2) 0.6129(2) 0.28312(14)
H7 H 0.1542 0.6501 0.3227
C9 C 0.3405(2) 0.6810(2) 0.22472(13)
H8 H 0.3717 0.6366 0.1818
C10 C 0.1125(3) 0.8170(3) 0.12270(15)
H9 H 0.0480 0.7958 0.1736
C11 C 0.0621(3) 0.8339(3) 0.05453(15)
H10 H -0.0362 0.8246 0.0592
C12 C 0.1579(3) 0.8646(2) -0.01993(14)
C13 C 0.3022(3) 0.8813(3) -0.02763(15)
H11 H 0.3662 0.9045 -0.0786
C14 C 0.3519(3) 0.8635(3) 0.04042(15)
H12 H 0.4503 0.8731 0.0355
C15 C 0.2577(2) 0.8315(2) 0.11555(13)
C16 C 0.3211(2) 0.9059(2) 0.22329(13)
C17 C 0.2544(2) 1.0275(2) 0.18895(14)
C18 C 0.3011(4) 1.2228(3) 0.0919(2)
H13 H 0.2369 1.2112 0.0603
H14 H 0.3824 1.2757 0.0576
H15 H 0.2508 1.2619 0.1335
C19 C 0.3760(2) 0.8910(2) 0.28820(12)
C20 C 0.3588(2) 0.9950(2) 0.32808(14)
C21 C 0.3443(4) 1.0517(3) 0.44956(17)
H16 H 0.4224 1.1133 0.4270
H17 H 0.3413 1.0135 0.5051
H18 H 0.2545 1.0919 0.4462
C22 C 0.4402(2) 0.76821(19) 0.32412(12)
H19 H 0.3677 0.7240 0.3726
C23 C 0.5769(2) 0.7871(2) 0.34971(12)
C24 C 0.6836(2) 0.8763(2) 0.30187(13)
H20 H 0.6698 0.9281 0.2541
C25 C 0.8097(2) 0.8901(2) 0.32361(14)
H21 H 0.8816 0.9485 0.2901
C26 C 0.8274(2) 0.8162(2) 0.39558(14)
C27 C 0.7231(2) 0.7288(2) 0.44565(14)
H22 H 0.7362 0.6799 0.4944
C28 C 0.5986(2) 0.7144(2) 0.42251(13)
H23 H 0.5278 0.6551 0.4561
C29 C 0.4693(2) 0.6831(2) 0.26379(13)
C30 C 0.5971(2) 0.7281(2) 0.19571(15)
C31 C 0.4885(3) 0.5454(2) 0.30774(16)
C32 C 0.5542(4) 0.3424(3) 0.2894(2)
H24 H 0.5947 0.3264 0.3358
H25 H 0.4572 0.3049 0.3069
C33 C 0.6423(6) 0.2883(4) 0.2282(3)
H26 H 0.6021 0.3053 0.1823
H27 H 0.6452 0.1988 0.2492
H28 H 0.7386 0.3245 0.2121
Cl1 Cl 0.09371(9) 0.88371(8) -0.10566(4)
N1 N 0.6893(2) 0.7654(3) 0.13966(14)
N2 N 0.3122(2) 0.81169(17) 0.18654(11)
O1 O 0.4445(2) 0.50318(16) 0.37858(11)
O2 O 0.5494(2) 0.47964(16) 0.25532(11)
O3 O 0.3370(2) 1.10345(17) 0.29799(11)
O4 O 0.36599(19) 0.95612(15) 0.40500(10)
O5 O 0.13020(17) 1.05054(16) 0.21110(10)
O6 O 0.35178(18) 1.10058(16) 0.12852(10)
loop_
_geom_bond_atom_site_label_1
_geom_bond_atom_site_label_2
_geom_bond_site_symmetry_1
_geom_bond_site_symmetry_2
Br1 C26 1_555 1_555
C1 H1 1_555 1_555
C2 C1 1_555 1_555
H2 C2 1_555 1_555
C3 C2 1_555 1_555
H3 C3 1_555 1_555
C4 C3 1_555 1_555
H4 C4 1_555 1_555
C5 C4 1_555 1_555
H5 C5 1_555 1_555
C6 C1 1_555 1_555
C7 C6 1_555 1_555
H6 C7 1_555 1_555
C8 C7 1_555 1_555
H7 C8 1_555 1_555
C9 C8 1_555 1_555
H8 C9 1_555 1_555
C10 H9 1_555 1_555
C11 C10 1_555 1_555
H10 C11 1_555 1_555
C12 C11 1_555 1_555
C13 C12 1_555 1_555
H11 C13 1_555 1_555
C14 C13 1_555 1_555
H12 C14 1_555 1_555
C15 C10 1_555 1_555
C16 C17 1_555 1_555
C17 O5 1_555 1_555
C18 H13 1_555 1_555
H14 C18 1_555 1_555
H15 C18 1_555 1_555
C19 C16 1_555 1_555
C20 C19 1_555 1_555
C21 H16 1_555 1_555
H17 C21 1_555 1_555
H18 C21 1_555 1_555
C22 C19 1_555 1_555
H19 C22 1_555 1_555
C23 C22 1_555 1_555
C24 C23 1_555 1_555
H20 C24 1_555 1_555
C25 C24 1_555 1_555
H21 C25 1_555 1_555
C26 C25 1_555 1_555
C27 C26 1_555 1_555
H22 C27 1_555 1_555
C28 C23 1_555 1_555
H23 C28 1_555 1_555
C29 C9 1_555 1_555
C30 C29 1_555 1_555
C31 C29 1_555 1_555
C32 H24 1_555 1_555
H25 C32 1_555 1_555
C33 C32 1_555 1_555
H26 C33 1_555 1_555
H27 C33 1_555 1_555
H28 C33 1_555 1_555
Cl1 C12 1_555 1_555
N1 C30 1_555 1_555
N2 C9 1_555 1_555
O1 C31 1_555 1_555
O2 C31 1_555 1_555
O3 C20 1_555 1_555
O4 C20 1_555 1_555
O6 C17 1_555 1_555
C5 C6 1_555 1_555
C14 C15 1_555 1_555
C15 N2 1_555 1_555
C16 N2 1_555 1_555
C18 O6 1_555 1_555
C21 O4 1_555 1_555
C22 C29 1_555 1_555
C27 C28 1_555 1_555
C32 O2 1_555 1_555

#END
