
#######################################################################
#
#                 Cambridge Crystallographic Data Centre
#                                CCDC 
#
#######################################################################
#
# If this CIF has been generated from an entry in the Cambridge 
# Structural Database, then it will include bibliographic, chemical, 
# crystal, experimental, refinement or atomic coordinate data resulting 
# from the CCDC's data processing and validation procedures.
#
#######################################################################

data_BUSWIX
_chemical_formula_moiety         'C15 H14 F1 I1 O2'
_chemical_name_systematic        
1-(2-fluoroethoxy)-4-((4-iodophenoxy)methyl)benzene
_symmetry_cell_setting           monoclinic
_symmetry_space_group_name_H-M   'P 21/c'
_symmetry_Int_Tables_number      14
_space_group_name_Hall           '-P 2ybc'
loop_
_symmetry_equiv_pos_site_id
_symmetry_equiv_pos_as_xyz
1 x,y,z
2 -x,1/2+y,1/2-z
3 -x,-y,-z
4 x,1/2-y,1/2+z
_cell_length_a                   17.6452(13)
_cell_length_b                   10.4938(8)
_cell_length_c                   7.6568(6)
_cell_angle_alpha                90
_cell_angle_beta                 96.4000(10)
_cell_angle_gamma                90
_cell_volume                     1408.94
_exptl_crystal_colour            white
_exptl_crystal_description       block
_cell_formula_units_Z            4
_exptl_crystal_recrystallization_method 'ethyl acetate'
loop_
_atom_site_label
_atom_site_type_symbol
_atom_site_fract_x
_atom_site_fract_y
_atom_site_fract_z
C1 C 1.31416(12) 0.62235(19) 1.0422(3)
C2 C 1.26903(12) 0.72426(19) 1.0832(3)
H1 H 1.2903 0.7909 1.1570
C3 C 1.19318(12) 0.72800(19) 1.0158(3)
H2 H 1.1623 0.7980 1.0426
C4 C 1.16146(11) 0.62971(18) 0.9088(2)
C5 C 1.20648(12) 0.52742(18) 0.8692(2)
H3 H 1.1851 0.4598 0.7974
C6 C 1.28337(12) 0.52464(19) 0.9358(3)
H4 H 1.3146 0.4555 0.9080
C7 C 1.05110(11) 0.54308(18) 0.7413(3)
H5 H 1.0531 0.4617 0.8070
H6 H 1.0790 0.5320 0.6370
C8 C 0.96981(12) 0.57917(19) 0.6850(2)
C9 C 0.95219(12) 0.68426(18) 0.5760(3)
H7 H 0.9922 0.7353 0.5404
C10 C 0.87740(12) 0.71489(19) 0.5193(3)
H8 H 0.8662 0.7867 0.4453
C11 C 0.81818(11) 0.64059(18) 0.5706(3)
C12 C 0.83428(12) 0.53545(18) 0.6781(3)
H9 H 0.7942 0.4843 0.7131
C13 C 0.91040(12) 0.50572(18) 0.7341(3)
H10 H 0.9216 0.4336 0.8075
C14 C 0.68355(12) 0.6124(2) 0.5688(3)
H11 H 0.6860 0.6197 0.6983
H12 H 0.6858 0.5210 0.5379
C15 C 0.61120(12) 0.6701(2) 0.4841(3)
H13 H 0.5674 0.6364 0.5402
H14 H 0.6127 0.7637 0.5000
F1 F 0.60215(8) 0.64066(14) 0.30466(17)
I1 I 1.429605(8) 0.617405(14) 1.144053(19)
O1 O 1.08560(8) 0.64352(13) 0.85174(17)
O2 O 0.74595(8) 0.67909(13) 0.50746(18)
loop_
_geom_bond_atom_site_label_1
_geom_bond_atom_site_label_2
_geom_bond_site_symmetry_1
_geom_bond_site_symmetry_2
C1 C2 1_555 1_555
C2 H1 1_555 1_555
C3 C2 1_555 1_555
H2 C3 1_555 1_555
C4 C3 1_555 1_555
C5 C4 1_555 1_555
H3 C5 1_555 1_555
C6 C1 1_555 1_555
H4 C6 1_555 1_555
C7 H5 1_555 1_555
H6 C7 1_555 1_555
C8 C7 1_555 1_555
C9 C8 1_555 1_555
H7 C9 1_555 1_555
C10 C9 1_555 1_555
H8 C10 1_555 1_555
C11 C10 1_555 1_555
C12 C11 1_555 1_555
H9 C12 1_555 1_555
C13 C8 1_555 1_555
H10 C13 1_555 1_555
C14 H11 1_555 1_555
H12 C14 1_555 1_555
C15 C14 1_555 1_555
H13 C15 1_555 1_555
H14 C15 1_555 1_555
F1 C15 1_555 1_555
I1 C1 1_555 1_555
O1 C4 1_555 1_555
O2 C11 1_555 1_555
C5 C6 1_555 1_555
C7 O1 1_555 1_555
C12 C13 1_555 1_555
C14 O2 1_555 1_555

#END
