
#######################################################################
#
#                 Cambridge Crystallographic Data Centre
#                                CCDC 
#
#######################################################################
#
# If this CIF has been generated from an entry in the Cambridge 
# Structural Database, then it will include bibliographic, chemical, 
# crystal, experimental, refinement or atomic coordinate data resulting 
# from the CCDC's data processing and validation procedures.
#
#######################################################################

data_BUSXUK
_chemical_formula_moiety         'C30 H27 N6 O2 1+,B1 F4 1-,2(C1 H1 Cl3)'
_chemical_name_systematic        
'4-(hydroxymethyl)-2-(1-{[8-({3-[4-(hydroxymethyl)pyridin-2-yl]-1H-pyrazol-1-yl}methyl)naphthalen-1-yl]methyl}-1H-pyrazol-3-yl)pyridin-1-ium tetrafluoroborate chloroform solvate'
_symmetry_cell_setting           triclinic
_symmetry_space_group_name_H-M   'P -1'
_symmetry_Int_Tables_number      2
_space_group_name_Hall           '-P 1'
loop_
_symmetry_equiv_pos_site_id
_symmetry_equiv_pos_as_xyz
1 x,y,z
2 -x,-y,-z
_cell_length_a                   9.5275(3)
_cell_length_b                   11.1173(3)
_cell_length_c                   17.7204(5)
_cell_angle_alpha                83.021(2)
_cell_angle_beta                 77.285(2)
_cell_angle_gamma                84.835(2)
_cell_volume                     1813.47
_exptl_crystal_colour            colorless
_exptl_crystal_description       plate
_cell_formula_units_Z            2
loop_
_atom_site_label
_atom_site_type_symbol
_atom_site_fract_x
_atom_site_fract_y
_atom_site_fract_z
N1 N -0.0283(2) 0.1894(2) 0.05572(15)
H1 H 0.0247 0.2373 0.0701
C1 C -0.0744(3) 0.0916(3) 0.10520(18)
C2 C -0.1628(3) 0.0164(3) 0.08273(18)
H2 H -0.1954 -0.0519 0.1155
C3 C -0.2025(3) 0.0427(3) 0.01153(18)
C4 C -0.1480(3) 0.1426(3) -0.03843(19)
H3 H -0.1704 0.1598 -0.0873
C5 C -0.0606(3) 0.2153(3) -0.01419(19)
H4 H -0.0241 0.2825 -0.0466
C6 C -0.3009(3) -0.0361(3) -0.01303(18)
H5 H -0.3861 0.0121 -0.0231
H6 H -0.2520 -0.0700 -0.0605
O1 O -0.3411(2) -0.1301(2) 0.04603(13)
H7 H -0.3940 -0.1737 0.0324
N2 N 0.1018(3) 0.0974(2) 0.25891(15)
N3 N 0.0691(3) 0.1447(2) 0.19069(15)
C7 C -0.0231(3) 0.0689(3) 0.17757(18)
C8 C -0.0485(3) -0.0267(3) 0.23741(19)
H8 H -0.1073 -0.0905 0.2414
C9 C 0.0327(3) -0.0048(3) 0.28879(19)
H9 H 0.0392 -0.0514 0.3353
C10 C 0.1989(3) 0.1621(3) 0.29169(18)
H10 H 0.1483 0.2359 0.3105
H11 H 0.2809 0.1852 0.2509
N4 N 0.5224(3) 0.3068(2) -0.04352(15)
C11 C 0.5936(3) 0.3418(3) 0.00753(18)
C12 C 0.6833(3) 0.4377(3) -0.01247(18)
H12 H 0.7306 0.4603 0.0237
C13 C 0.7021(3) 0.4998(3) -0.08639(19)
C14 C 0.6297(3) 0.4624(3) -0.13853(19)
H13 H 0.6410 0.5006 -0.1890
C15 C 0.5407(3) 0.3674(3) -0.11432(19)
H14 H 0.4908 0.3445 -0.1493
C16 C 0.7938(3) 0.6074(3) -0.1110(2)
H15 H 0.8369 0.6085 -0.1660
H16 H 0.7324 0.6814 -0.1037
O2 O 0.9051(2) 0.6065(2) -0.06917(13)
H17 H 0.9713 0.5579 -0.0859
N5 N 0.5047(2) 0.1203(2) 0.16787(15)
N6 N 0.4986(2) 0.1695(2) 0.09500(15)
C17 C 0.5741(3) 0.2693(3) 0.08364(18)
C18 C 0.6264(3) 0.2833(3) 0.14996(18)
H18 H 0.6807 0.3451 0.1568
C19 C 0.5803(3) 0.1862(3) 0.20282(19)
H19 H 0.5976 0.1691 0.2528
C20 C 0.4343(3) 0.0062(3) 0.19611(18)
H20 H 0.4732 -0.0534 0.1599
H21 H 0.3320 0.0203 0.1970
C21 C 0.2525(3) 0.0862(3) 0.35754(19)
C22 C 0.1810(4) 0.1102(3) 0.4308(2)
H22 H 0.1055 0.1699 0.4357
C23 C 0.2170(4) 0.0483(4) 0.4987(2)
H23 H 0.1668 0.0671 0.5475
C24 C 0.3263(4) -0.0394(4) 0.4918(2)
H24 H 0.3505 -0.0806 0.5366
C25 C 0.5159(4) -0.1626(3) 0.4150(2)
H25 H 0.5379 -0.2012 0.4609
C26 C 0.5916(4) -0.1968(3) 0.3464(2)
H26 H 0.6640 -0.2590 0.3451
C27 C 0.5601(3) -0.1374(3) 0.2771(2)
H27 H 0.6129 -0.1613 0.2300
C28 C 0.4539(3) -0.0450(3) 0.27612(18)
C29 C 0.3690(3) -0.0069(3) 0.34821(19)
C30 C 0.4038(3) -0.0697(3) 0.41888(19)
B1 B 0.8504(4) 0.5963(4) 0.1924(2)
F1 F 0.7059(2) 0.5850(2) 0.22912(13)
F2 F 0.9358(2) 0.5191(2) 0.23430(13)
F3 F 0.8722(2) 0.55858(18) 0.11768(12)
F4 F 0.8845(3) 0.7141(2) 0.18748(14)
C31 C 0.6947(4) 0.3841(4) 0.3720(2)
H28 H 0.7206 0.4576 0.3370
Cl1 Cl 0.51230(11) 0.36113(13) 0.37718(7)
Cl2 Cl 0.80340(10) 0.25929(9) 0.33435(6)
Cl3 Cl 0.72167(13) 0.40317(12) 0.46394(7)
C32 C 0.1037(4) 0.6146(3) 0.3405(2)
H29 H 0.0765 0.6094 0.2909
Cl4 Cl 0.14044(11) 0.46689(9) 0.38197(7)
Cl5 Cl -0.04117(10) 0.68789(9) 0.40175(7)
Cl6 Cl 0.25729(10) 0.69854(10) 0.32249(6)
loop_
_geom_bond_atom_site_label_1
_geom_bond_atom_site_label_2
_geom_bond_site_symmetry_1
_geom_bond_site_symmetry_2
N1 H1 1_555 1_555
C1 N1 1_555 1_555
C2 C1 1_555 1_555
H2 C2 1_555 1_555
C3 C2 1_555 1_555
C4 C3 1_555 1_555
H3 C4 1_555 1_555
C5 N1 1_555 1_555
H4 C5 1_555 1_555
C6 C3 1_555 1_555
H5 C6 1_555 1_555
H6 C6 1_555 1_555
O1 C6 1_555 1_555
H7 O1 1_555 1_555
N2 N3 1_555 1_555
N3 C7 1_555 1_555
C7 C1 1_555 1_555
C8 C7 1_555 1_555
H8 C8 1_555 1_555
C9 N2 1_555 1_555
H9 C9 1_555 1_555
C10 N2 1_555 1_555
H10 C10 1_555 1_555
H11 C10 1_555 1_555
N4 C11 1_555 1_555
C11 C12 1_555 1_555
C12 H12 1_555 1_555
C13 C12 1_555 1_555
C14 C13 1_555 1_555
H13 C14 1_555 1_555
C15 N4 1_555 1_555
H14 C15 1_555 1_555
C16 C13 1_555 1_555
H15 C16 1_555 1_555
H16 C16 1_555 1_555
O2 C16 1_555 1_555
H17 O2 1_555 1_555
N5 N6 1_555 1_555
N6 C17 1_555 1_555
C17 C11 1_555 1_555
C18 C17 1_555 1_555
H18 C18 1_555 1_555
C19 N5 1_555 1_555
H19 C19 1_555 1_555
C20 N5 1_555 1_555
H20 C20 1_555 1_555
H21 C20 1_555 1_555
C21 C10 1_555 1_555
C22 C21 1_555 1_555
H22 C22 1_555 1_555
C23 C22 1_555 1_555
H23 C23 1_555 1_555
C24 C23 1_555 1_555
H24 C24 1_555 1_555
C25 H25 1_555 1_555
C26 C25 1_555 1_555
H26 C26 1_555 1_555
C27 C26 1_555 1_555
H27 C27 1_555 1_555
C28 C20 1_555 1_555
C29 C21 1_555 1_555
C30 C24 1_555 1_555
B1 F1 1_555 1_555
F2 B1 1_555 1_555
F3 B1 1_555 1_555
F4 B1 1_555 1_555
C31 H28 1_555 1_555
Cl1 C31 1_555 1_555
Cl2 C31 1_555 1_555
Cl3 C31 1_555 1_555
C32 H29 1_555 1_555
Cl4 C32 1_555 1_555
Cl5 C32 1_555 1_555
Cl6 C32 1_555 1_555
C4 C5 1_555 1_555
C8 C9 1_555 1_555
C14 C15 1_555 1_555
C18 C19 1_555 1_555
C25 C30 1_555 1_555
C27 C28 1_555 1_555
C28 C29 1_555 1_555
C29 C30 1_555 1_555

#END
