
#######################################################################
#
#                 Cambridge Crystallographic Data Centre
#                                CCDC 
#
#######################################################################
#
# If this CIF has been generated from an entry in the Cambridge 
# Structural Database, then it will include bibliographic, chemical, 
# crystal, experimental, refinement or atomic coordinate data resulting 
# from the CCDC's data processing and validation procedures.
#
#######################################################################

data_BUTBOJ
_chemical_formula_moiety         'C4 H1 O4 1-,C3 H8 N1 O3 1+'
_chemical_name_systematic        'DL-Serinium hydrogen squarate'
_symmetry_cell_setting           monoclinic
_symmetry_space_group_name_H-M   'P 21/n'
_symmetry_Int_Tables_number      14
_space_group_name_Hall           '-P 2yn'
loop_
_symmetry_equiv_pos_site_id
_symmetry_equiv_pos_as_xyz
1 x,y,z
2 1/2-x,1/2+y,1/2-z
3 -x,-y,-z
4 1/2+x,1/2-y,1/2+z
_cell_length_a                   4.4490(10)
_cell_length_b                   21.674(4)
_cell_length_c                   9.4231(18)
_cell_angle_alpha                90
_cell_angle_beta                 98.745(7)
_cell_angle_gamma                90
_cell_volume                     898.084
_exptl_crystal_colour            colorless
_exptl_crystal_description       prism
_cell_formula_units_Z            4
loop_
_atom_site_label
_atom_site_type_symbol
_atom_site_fract_x
_atom_site_fract_y
_atom_site_fract_z
O1 O 0.5476(5) 0.74203(9) 0.10143(19)
O2 O -0.0537(4) 0.85895(9) 0.34756(19)
O3 O 0.2650(4) 0.88085(9) 0.0599(2)
O4 O 0.2471(5) 0.72274(9) 0.3813(2)
H1 H 0.1631 0.7333 0.4491
C1 C 0.3820(6) 0.77608(13) 0.1668(3)
C2 C 0.2446(6) 0.76870(12) 0.2912(2)
C3 C 0.1115(5) 0.82904(13) 0.2783(2)
C4 C 0.2557(5) 0.83882(13) 0.1465(3)
O5 O 0.7630(4) 0.99501(9) 1.13365(18)
O6 O 0.8350(4) 1.12459(9) 1.2977(2)
H2 H 0.8838 1.1585 1.3322
O7 O 0.6816(5) 0.96191(10) 1.3497(2)
H3 H 0.7942 0.9336 1.3338
N1 N 0.3111(4) 1.08112(11) 1.1243(2)
H4 H 0.1733 1.1095 1.1372
H5 H 0.2253 1.0524 1.0638
H6 H 0.4632 1.0988 1.0881
C5 C 0.6417(5) 0.99957(13) 1.2393(3)
C6 C 0.4306(5) 1.05206(12) 1.2643(2)
H7 H 0.2603 1.0356 1.3076
C7 C 0.5984(6) 1.09992(14) 1.3644(3)
H8 H 0.4599 1.1325 1.3831
H9 H 0.6815 1.0810 1.4552
loop_
_geom_bond_atom_site_label_1
_geom_bond_atom_site_label_2
_geom_bond_site_symmetry_1
_geom_bond_site_symmetry_2
O1 C1 1_555 1_555
O2 C3 1_555 1_555
O3 C4 1_555 1_555
O4 H1 1_555 1_555
C1 C2 1_555 1_555
C2 O4 1_555 1_555
C3 C2 1_555 1_555
C4 C1 1_555 1_555
O5 C5 1_555 1_555
O6 H2 1_555 1_555
O7 H3 1_555 1_555
N1 H4 1_555 1_555
H5 N1 1_555 1_555
H6 N1 1_555 1_555
C5 O7 1_555 1_555
C6 N1 1_555 1_555
H7 C6 1_555 1_555
C7 O6 1_555 1_555
H8 C7 1_555 1_555
H9 C7 1_555 1_555
C3 C4 1_555 1_555
C5 C6 1_555 1_555
C6 C7 1_555 1_555

#END
