
#######################################################################
#
#                 Cambridge Crystallographic Data Centre
#                                CCDC 
#
#######################################################################
#
# If this CIF has been generated from an entry in the Cambridge 
# Structural Database, then it will include bibliographic, chemical, 
# crystal, experimental, refinement or atomic coordinate data resulting 
# from the CCDC's data processing and validation procedures.
#
#######################################################################

data_BUTGUT
_chemical_formula_moiety         'C16 H15 N1 O4'
_chemical_name_systematic        
1-Allyl-5-(2-hydroxy-4-methoxybenzoyl)pyridin-2(1H)-one
_symmetry_cell_setting           triclinic
_symmetry_space_group_name_H-M   'P -1'
_symmetry_Int_Tables_number      2
_space_group_name_Hall           '-P 1'
loop_
_symmetry_equiv_pos_site_id
_symmetry_equiv_pos_as_xyz
1 x,y,z
2 -x,-y,-z
_cell_length_a                   8.479(3)
_cell_length_b                   9.206(4)
_cell_length_c                   9.651(4)
_cell_angle_alpha                84.959(5)
_cell_angle_beta                 78.730(5)
_cell_angle_gamma                70.204(5)
_cell_volume                     694.956
_exptl_crystal_colour            yellow
_exptl_crystal_description       prism
_cell_formula_units_Z            2
loop_
_atom_site_label
_atom_site_type_symbol
_atom_site_fract_x
_atom_site_fract_y
_atom_site_fract_z
N1 N 0.4297(4) -0.1511(3) 0.5758(3)
O1 O -0.2643(3) 0.5051(3) 1.0120(3)
O2 O 0.0787(3) 0.0506(3) 1.2149(2)
O3 O 0.3512(3) -0.1091(3) 1.0606(3)
O4 O 0.6808(4) -0.2978(4) 0.4473(3)
C1 C -0.3844(5) 0.5368(5) 1.1414(5)
H1 H -0.4757 0.6309 1.1304
H2 H -0.3288 0.5476 1.2156
H3 H -0.4294 0.4533 1.1649
C2 C -0.1278(4) 0.3772(4) 1.0064(4)
C3 C -0.0896(4) 0.2752(4) 1.1182(3)
H4 H -0.1600 0.2950 1.2061
C4 C 0.0501(4) 0.1459(4) 1.1008(3)
C5 C 0.1601(4) 0.1091(4) 0.9677(3)
C6 C 0.1206(5) 0.2195(4) 0.8581(3)
H5 H 0.1932 0.2037 0.7710
C7 C -0.0169(5) 0.3461(5) 0.8745(4)
H6 H -0.0399 0.4145 0.7984
C8 C 0.3046(4) -0.0306(4) 0.9537(4)
C9 C 0.4062(4) -0.0932(4) 0.8155(3)
C10 C 0.5802(4) -0.1877(4) 0.8070(4)
H7 H 0.6296 -0.2049 0.8875
C11 C 0.6733(4) -0.2519(4) 0.6864(4)
H8 H 0.7882 -0.3071 0.6837
C12 C 0.6034(4) -0.2390(4) 0.5612(4)
C13 C 0.3368(4) -0.0832(4) 0.6971(3)
H9 H 0.2219 -0.0278 0.7004
C14 C 0.3436(5) -0.1453(4) 0.4550(4)
H10 H 0.4204 -0.1407 0.3672
H11 H 0.2444 -0.0528 0.4596
C15 C 0.2899(6) -0.2847(6) 0.4574(4)
H12 H 0.3755 -0.3803 0.4532
C16 C 0.1390(8) -0.2851(8) 0.4646(6)
H13 H 0.0492 -0.1923 0.4690
H14 H 0.1183 -0.3781 0.4655
H15 H 0.176(7) -0.036(6) 1.180(6)
loop_
_geom_bond_atom_site_label_1
_geom_bond_atom_site_label_2
_geom_bond_site_symmetry_1
_geom_bond_site_symmetry_2
N1 C12 1_555 1_555
O1 C1 1_555 1_555
O2 C4 1_555 1_555
O3 C8 1_555 1_555
O4 C12 1_555 1_555
C1 H1 1_555 1_555
H2 C1 1_555 1_555
H3 C1 1_555 1_555
C2 O1 1_555 1_555
C3 C2 1_555 1_555
H4 C3 1_555 1_555
C4 C3 1_555 1_555
C5 C4 1_555 1_555
C6 C5 1_555 1_555
H5 C6 1_555 1_555
C7 C2 1_555 1_555
H6 C7 1_555 1_555
C8 C5 1_555 1_555
C9 C8 1_555 1_555
C10 C9 1_555 1_555
H7 C10 1_555 1_555
C11 C10 1_555 1_555
H8 C11 1_555 1_555
C12 C11 1_555 1_555
C13 N1 1_555 1_555
H9 C13 1_555 1_555
C14 N1 1_555 1_555
H10 C14 1_555 1_555
H11 C14 1_555 1_555
C15 C14 1_555 1_555
H12 C15 1_555 1_555
C16 C15 1_555 1_555
H13 C16 1_555 1_555
H14 C16 1_555 1_555
H15 O2 1_555 1_555
C6 C7 1_555 1_555
C9 C13 1_555 1_555

#END
