
#######################################################################
#
#                 Cambridge Crystallographic Data Centre
#                                CCDC 
#
#######################################################################
#
# If this CIF has been generated from an entry in the Cambridge 
# Structural Database, then it will include bibliographic, chemical, 
# crystal, experimental, refinement or atomic coordinate data resulting 
# from the CCDC's data processing and validation procedures.
#
#######################################################################

data_BUTKIK
_chemical_compound_source        'Picria Fel-Tarrae Lour'
_chemical_formula_moiety         'C34 H48 O7'
_chemical_name_systematic        'Acetyl picriafeltarragenin'
_symmetry_cell_setting           orthorhombic
_symmetry_space_group_name_H-M   'P 21 21 21'
_symmetry_Int_Tables_number      19
_space_group_name_Hall           'P 2ac 2ab'
loop_
_symmetry_equiv_pos_site_id
_symmetry_equiv_pos_as_xyz
1 x,y,z
2 1/2+x,1/2-y,-z
3 -x,1/2+y,1/2-z
4 1/2-x,-y,1/2+z
_cell_length_a                   22.357(10)
_cell_length_b                   15.277(8)
_cell_length_c                   9.089(4)
_cell_angle_alpha                90
_cell_angle_beta                 90
_cell_angle_gamma                90
_cell_volume                     3104.33
_cell_formula_units_Z            4
loop_
_atom_site_label
_atom_site_type_symbol
_atom_site_fract_x
_atom_site_fract_y
_atom_site_fract_z
O1 O 0.14193 0.22046 0.43862
O2 O 0.15115 0.19202 0.20134
O3 O 0.00050 -0.19152 0.23664
O4 O 0.05376 -0.52020 -0.15599
O5 O 0.03089 -0.39885 -0.48205
O6 O 0.16458 -0.37774 -0.34551
O7 O 0.22640 -0.49134 -0.34915
C1 C 0.14959 0.34121 0.27284
C2 C 0.14833 0.24538 0.32431
C3 C 0.14562 0.09772 0.23656
C4 C 0.08063 0.07237 0.24612
C5 C 0.07907 -0.02814 0.29024
C6 C 0.11082 -0.08316 0.16944
C7 C 0.17620 -0.05167 0.14389
C8 C 0.18113 0.05071 0.10777
C9 C 0.15360 0.06831 -0.04870
C10 C 0.24719 0.08026 0.10564
C11 C 0.11347 -0.19784 0.38126
C12 C 0.10687 -0.18412 0.21333
C13 C 0.15605 -0.24194 0.13927
C14 C 0.21926 -0.20163 0.15754
C15 C 0.22356 -0.10484 0.13743
C16 C 0.04320 -0.21046 0.16318
C17 C 0.03078 -0.25516 0.01210
C18 C 0.08099 -0.32265 -0.02137
C19 C 0.14293 -0.27207 -0.02559
C20 C 0.14284 -0.19430 -0.13311
C21 C 0.07924 -0.39469 0.09989
C22 C 0.08314 -0.36445 -0.17561
C23 C 0.14780 -0.39581 -0.19455
C24 C 0.18605 -0.34198 -0.08558
C25 C -0.03107 -0.41683 -0.17662
C26 C 0.03512 -0.43625 -0.21743
C27 C 0.06349 -0.57849 -0.26838
C28 C 0.05462 -0.54753 -0.40236
C29 C 0.03954 -0.45327 -0.39069
C30 C 0.08033 -0.66805 -0.22014
C31 C 0.14820 -0.66678 -0.17193
C32 C 0.03903 -0.70244 -0.09729
C33 C 0.19997 -0.43520 -0.41498
C34 C 0.20559 -0.41785 -0.57688
H1 H 0.18050 0.37100 0.34400
H2 H 0.11000 0.36700 0.25500
H3 H 0.16600 0.35000 0.16500
H4 H 0.17100 0.08800 0.33200
H5 H 0.06250 0.10420 0.33300
H6 H 0.06000 0.08400 0.15660
H7 H 0.09200 -0.03100 0.39000
H8 H 0.04000 -0.06000 0.32000
H9 H 0.08900 -0.08300 0.07300
H10 H 0.17800 0.09600 -0.12500
H11 H 0.15000 0.01190 -0.09800
H12 H 0.11200 0.08100 -0.04000
H13 H 0.25000 0.13000 0.03560
H14 H 0.26900 0.03700 0.04850
H15 H 0.25600 0.08800 0.21000
H16 H 0.07600 -0.16300 0.42500
H17 H 0.15500 -0.18500 0.40000
H18 H 0.09800 -0.26000 0.38500
H19 H 0.15300 -0.29400 0.20500
H20 H 0.23100 -0.22700 0.25000
H21 H 0.24500 -0.23000 0.07800
H22 H 0.26400 -0.09000 0.10100
H23 H -0.00200 -0.29200 0.04500
H24 H 0.02500 -0.22250 -0.07550
H25 H 0.11500 -0.21000 -0.22000
H26 H 0.12500 -0.14500 -0.08000
H27 H 0.18300 -0.17900 -0.15000
H28 H 0.04500 -0.43400 0.08800
H29 H 0.11500 -0.43100 0.08500
H30 H 0.08230 -0.37400 0.19800
H31 H 0.08100 -0.30900 -0.23900
H32 H 0.14600 -0.45830 -0.18080
H33 H 0.21000 -0.31000 -0.15900
H34 H 0.20790 -0.36500 0.01000
H35 H -0.05100 -0.39000 -0.26000
H36 H -0.03500 -0.38500 -0.08680
H37 H -0.05500 -0.47000 -0.16000
H38 H 0.06240 -0.58300 -0.49000
H39 H 0.08030 -0.71500 -0.30300
H40 H 0.15300 -0.72300 -0.11800
H41 H 0.15200 -0.62500 -0.09000
H42 H 0.17700 -0.66600 -0.25000
H43 H 0.00440 -0.72300 -0.15500
H44 H 0.03100 -0.65000 -0.04000
H45 H 0.06200 -0.74500 -0.04000
H46 H 0.17100 -0.41000 -0.64000
H47 H 0.22950 -0.36000 -0.57700
H48 H 0.22800 -0.46500 -0.62300
loop_
_geom_bond_atom_site_label_1
_geom_bond_atom_site_label_2
_geom_bond_site_symmetry_1
_geom_bond_site_symmetry_2
O1 C2 1_555 1_555
O2 C2 1_555 1_555
O3 C16 1_555 1_555
O4 C26 1_555 1_555
O5 C29 1_555 1_555
O6 C23 1_555 1_555
O7 C33 1_555 1_555
C1 C2 1_555 1_555
C3 O2 1_555 1_555
C4 C3 1_555 1_555
C5 C4 1_555 1_555
C6 C5 1_555 1_555
C7 C6 1_555 1_555
C8 C3 1_555 1_555
C9 C8 1_555 1_555
C10 C8 1_555 1_555
C11 C12 1_555 1_555
C12 C6 1_555 1_555
C13 C12 1_555 1_555
C14 C13 1_555 1_555
C15 C7 1_555 1_555
C16 C12 1_555 1_555
C17 C16 1_555 1_555
C18 C17 1_555 1_555
C19 C13 1_555 1_555
C20 C19 1_555 1_555
C21 C18 1_555 1_555
C22 C18 1_555 1_555
C23 C22 1_555 1_555
C24 C19 1_555 1_555
C25 C26 1_555 1_555
C26 C22 1_555 1_555
C27 O4 1_555 1_555
C28 C27 1_555 1_555
C29 C26 1_555 1_555
C30 C27 1_555 1_555
C31 C30 1_555 1_555
C32 C30 1_555 1_555
C33 O6 1_555 1_555
C34 C33 1_555 1_555
H1 C1 1_555 1_555
H2 C1 1_555 1_555
H3 C1 1_555 1_555
H4 C3 1_555 1_555
H5 C4 1_555 1_555
H6 C4 1_555 1_555
H7 C5 1_555 1_555
H8 C5 1_555 1_555
H9 C6 1_555 1_555
H10 C9 1_555 1_555
H11 C9 1_555 1_555
H12 C9 1_555 1_555
H13 C10 1_555 1_555
H14 C10 1_555 1_555
H15 C10 1_555 1_555
H16 C11 1_555 1_555
H17 C11 1_555 1_555
H18 C11 1_555 1_555
H19 C13 1_555 1_555
H20 C14 1_555 1_555
H21 C14 1_555 1_555
H22 C15 1_555 1_555
H23 C17 1_555 1_555
H24 C17 1_555 1_555
H25 C20 1_555 1_555
H26 C20 1_555 1_555
H27 C20 1_555 1_555
H28 C21 1_555 1_555
H29 C21 1_555 1_555
H30 C21 1_555 1_555
H31 C22 1_555 1_555
H32 C23 1_555 1_555
H33 C24 1_555 1_555
H34 C24 1_555 1_555
H35 C25 1_555 1_555
H36 C25 1_555 1_555
H37 C25 1_555 1_555
H38 C28 1_555 1_555
H39 C30 1_555 1_555
H40 C31 1_555 1_555
H41 C31 1_555 1_555
H42 C31 1_555 1_555
H43 C32 1_555 1_555
H44 C32 1_555 1_555
H45 C32 1_555 1_555
H46 C34 1_555 1_555
H47 C34 1_555 1_555
H48 C34 1_555 1_555
C7 C8 1_555 1_555
C14 C15 1_555 1_555
C18 C19 1_555 1_555
C23 C24 1_555 1_555
C28 C29 1_555 1_555

#END
