
#######################################################################
#
#                 Cambridge Crystallographic Data Centre
#                                CCDC 
#
#######################################################################
#
# If this CIF has been generated from an entry in the Cambridge 
# Structural Database, then it will include bibliographic, chemical, 
# crystal, experimental, refinement or atomic coordinate data resulting 
# from the CCDC's data processing and validation procedures.
#
#######################################################################

data_BUTKAC
_chemical_formula_moiety         'C24 H30 O6'
_chemical_name_systematic        Armillarine
_symmetry_cell_setting           orthorhombic
_symmetry_space_group_name_H-M   'P 21 21 21'
_symmetry_Int_Tables_number      19
_space_group_name_Hall           'P 2ac 2ab'
loop_
_symmetry_equiv_pos_site_id
_symmetry_equiv_pos_as_xyz
1 x,y,z
2 1/2+x,1/2-y,-z
3 -x,1/2+y,1/2-z
4 1/2-x,-y,1/2+z
_cell_length_a                   18.784(9)
_cell_length_b                   14.002(7)
_cell_length_c                   8.598(5)
_cell_angle_alpha                90
_cell_angle_beta                 90
_cell_angle_gamma                90
_cell_volume                     2261.39
_cell_formula_units_Z            4
loop_
_atom_site_label
_atom_site_type_symbol
_atom_site_fract_x
_atom_site_fract_y
_atom_site_fract_z
C1 C 0.41500 0.15990 0.46120
C2 C 0.39640 0.21720 0.59070
C3 C 0.38650 0.31490 0.56320
C4 C 0.39180 0.35440 0.40900
C5 C 0.41170 0.29170 0.28680
C6 C 0.42370 0.19240 0.31130
C7 C 0.37840 0.45150 0.36730
C8 C 0.32410 0.60180 0.45240
C9 C 0.25690 0.62010 0.55110
C10 C 0.29030 0.72250 0.58680
C11 C 0.36600 0.68240 0.54290
C12 C 0.40640 0.64520 0.68280
C13 C 0.38440 0.64470 0.82540
C14 C 0.31330 0.68640 0.87700
C15 C 0.28310 0.75870 0.75670
C16 C 0.32610 0.85140 0.79030
C17 C 0.33940 0.84920 0.97180
C18 C 0.31750 0.74790 1.02500
C19 C 0.43800 -0.00300 0.37790
C20 C 0.37020 0.37460 0.71280
C21 C 0.26040 0.79820 0.47450
C22 C 0.29390 0.92430 1.05210
C23 C 0.41950 0.86740 1.00040
C24 C 0.47930 0.60210 0.65230
O1 O 0.42420 0.06520 0.50040
O2 O 0.42170 0.32400 0.14000
O3 O 0.38580 0.48730 0.23500
O4 O 0.35170 0.50500 0.48430
O5 O 0.50630 0.60180 0.52180
O6 O 0.40750 0.74550 0.44860
H1 H 0.43400 0.14700 0.20000
H2 H 0.33100 0.61700 0.32600
H3 H 0.26000 0.57100 0.66600
H4 H 0.20300 0.63000 0.50900
H5 H 0.43000 0.62100 0.91100
H6 H 0.27700 0.62700 0.88700
H7 H 0.21900 0.76100 0.78300
H8 H 0.29800 0.91300 0.76000
H9 H 0.37900 0.85300 0.70300
H10 H 0.36200 0.72200 1.09800
H11 H 0.26300 0.74700 1.08600
H12 H 0.44500 -0.08100 0.44400
H13 H 0.40300 0.01000 0.29400
H14 H 0.49700 0.00900 0.36300
H15 H 0.36600 0.32900 0.79300
H16 H 0.31200 0.40900 0.70700
H17 H 0.42100 0.43000 0.71200
H18 H 0.26300 0.77100 0.36200
H19 H 0.20100 0.82200 0.50100
H20 H 0.29100 0.85900 0.48100
H21 H 0.28200 0.90600 1.16900
H22 H 0.23700 0.92400 1.02100
H23 H 0.30300 0.99600 1.00700
H24 H 0.44600 0.82400 0.96500
H25 H 0.42100 0.85700 1.06800
H26 H 0.43500 0.93100 0.94000
H27 H 0.50900 0.56300 0.75400
H28 H 0.42100 0.40100 0.14300
H29 H 0.46100 0.73000 0.45300
loop_
_geom_bond_atom_site_label_1
_geom_bond_atom_site_label_2
_geom_bond_site_symmetry_1
_geom_bond_site_symmetry_2
C1 C2 1_555 1_555
C2 C3 1_555 1_555
C3 C4 1_555 1_555
C4 C5 1_555 1_555
C5 C6 1_555 1_555
C6 C1 1_555 1_555
C7 C4 1_555 1_555
C8 C9 1_555 1_555
C9 C10 1_555 1_555
C10 C11 1_555 1_555
C11 C8 1_555 1_555
C12 C11 1_555 1_555
C13 C12 1_555 1_555
C14 C13 1_555 1_555
C15 C10 1_555 1_555
C16 C15 1_555 1_555
C17 C16 1_555 1_555
C18 C14 1_555 1_555
C19 O1 1_555 1_555
C20 C3 1_555 1_555
C21 C10 1_555 1_555
C22 C17 1_555 1_555
C23 C17 1_555 1_555
C24 C12 1_555 1_555
O1 C1 1_555 1_555
O2 C5 1_555 1_555
O3 C7 1_555 1_555
O4 C7 1_555 1_555
O5 C24 1_555 1_555
O6 C11 1_555 1_555
H1 C6 1_555 1_555
H2 C8 1_555 1_555
H3 C9 1_555 1_555
H4 C9 1_555 1_555
H5 C13 1_555 1_555
H6 C14 1_555 1_555
H7 C15 1_555 1_555
H8 C16 1_555 1_555
H9 C16 1_555 1_555
H10 C18 1_555 1_555
H11 C18 1_555 1_555
H12 C19 1_555 1_555
H13 C19 1_555 1_555
H14 C19 1_555 1_555
H15 C20 1_555 1_555
H16 C20 1_555 1_555
H17 C20 1_555 1_555
H18 C21 1_555 1_555
H19 C21 1_555 1_555
H20 C21 1_555 1_555
H21 C22 1_555 1_555
H22 C22 1_555 1_555
H23 C22 1_555 1_555
H24 C23 1_555 1_555
H25 C23 1_555 1_555
H26 C23 1_555 1_555
H27 C24 1_555 1_555
H28 O2 1_555 1_555
H29 O6 1_555 1_555
C8 O4 1_555 1_555
C14 C15 1_555 1_555
C17 C18 1_555 1_555

#END
