
#######################################################################
#
#                 Cambridge Crystallographic Data Centre
#                                CCDC 
#
#######################################################################
#
# If this CIF has been generated from an entry in the Cambridge 
# Structural Database, then it will include bibliographic, chemical, 
# crystal, experimental, refinement or atomic coordinate data resulting 
# from the CCDC's data processing and validation procedures.
#
#######################################################################

data_BUTMUA
_chemical_formula_moiety         'C24 H35 N1 O4,C1 H4 O1'
_chemical_name_systematic        
'11-hydroxy-3-isobutyl-4,5,8-trimethyl-2,3,3a,4,6a,9,10,11,13,14-decahydro-1H-cycloundeca[d]isoindole-1,12,15-trione methanol solvate'
_symmetry_cell_setting           monoclinic
_symmetry_space_group_name_H-M   'P 21'
_symmetry_Int_Tables_number      4
_space_group_name_Hall           'P 2yb'
loop_
_symmetry_equiv_pos_site_id
_symmetry_equiv_pos_as_xyz
1 x,y,z
2 -x,1/2+y,-z
_cell_length_a                   26.4615(8)
_cell_length_b                   9.4826(3)
_cell_length_c                   31.2945(9)
_cell_angle_alpha                90
_cell_angle_beta                 105.956(2)
_cell_angle_gamma                90
_cell_volume                     7550
_exptl_crystal_colour            colorless
_exptl_crystal_description       prism
_cell_formula_units_Z            12
loop_
_atom_site_label
_atom_site_type_symbol
_atom_site_fract_x
_atom_site_fract_y
_atom_site_fract_z
O1 O 0.99393(12) 0.1957(4) 1.08349(12)
H1 H 0.9891 0.1293 1.0987
O2 O 0.86616(15) 0.4526(4) 0.93543(11)
O3 O 0.91777(16) 0.1702(3) 0.99471(11)
C1 C 0.94594(17) 0.2707(4) 1.06662(14)
H2 H 0.9511 0.3685 1.0770
C2 C 0.93803(15) 0.2686(4) 1.01607(15)
C3 C 0.96313(18) 0.3830(5) 0.99521(17)
H3 H 0.9609 0.3565 0.9648
H4 H 1.0001 0.3894 1.0112
C4 C 0.93818(16) 0.5264(5) 0.99513(17)
H5 H 0.9605 0.5968 0.9871
H6 H 0.9363 0.5475 1.0250
C5 C 0.88329(17) 0.5380(4) 0.96340(14)
C6 C 0.84759(16) 0.6589(4) 0.96901(13)
C7 C 0.82025(16) 0.7325(4) 0.92427(14)
H7 H 0.8279 0.6773 0.9003
C8 C 0.84613(17) 0.8768(4) 0.92519(15)
H8 H 0.8187 0.9494 0.9183
C9 C 0.8781(3) 0.8868(6) 0.8921(2)
H9 H 0.9048 0.8137 0.8995
H10 H 0.8551 0.8640 0.8631
C10 C 0.9045(3) 1.0184(8) 0.8879(3)
H11 H 0.9279 1.0454 0.9168
C11 C 0.90017(19) 0.2075(5) 1.08101(15)
H12 H 0.8845 0.1328 1.0605
H13 H 0.9137 0.1653 1.1102
C12 C 0.85749(19) 0.3135(5) 1.08293(15)
H14 H 0.8319 0.2666 1.0951
H15 H 0.8734 0.3884 1.1033
C13 C 0.82883(16) 0.3791(4) 1.03873(15)
C14 C 0.83133(16) 0.5167(4) 1.03284(14)
H16 H 0.8505 0.5695 1.0569
C15 C 0.80586(15) 0.5954(4) 0.99055(13)
H17 H 0.7847 0.5276 0.9694
N1 N 0.87621(16) 0.8909(4) 0.97154(15)
H18 H 0.8919 0.9683 0.9817
C16 C 0.87827(17) 0.7808(4) 0.99697(16)
O4 O 0.89956(15) 0.7728(4) 1.03714(11)
C17 C 0.76014(17) 0.7389(5) 0.91558(15)
H19 H 0.7476 0.6413 0.9111
C18 C 0.7330(2) 0.8177(7) 0.87346(18)
H20 H 0.6960 0.8231 0.8707
H21 H 0.7385 0.7687 0.8483
H22 H 0.7473 0.9112 0.8747
C19 C 0.74772(16) 0.7903(4) 0.95825(16)
C20 C 0.77051(16) 0.7160(4) 0.99453(15)
H23 H 0.7647 0.7382 1.0217
C21 C 0.7141(2) 0.9178(5) 0.9574(2)
H24 H 0.7102 0.9344 0.9866
H25 H 0.6801 0.9025 0.9370
H26 H 0.7303 0.9983 0.9481
C22 C 0.79743(19) 0.2768(5) 1.00469(17)
H27 H 0.7655 0.3212 0.9880
H28 H 0.7891 0.1949 1.0195
H29 H 0.8177 0.2492 0.9849
C23 C 0.8640(5) 1.1355(8) 0.8708(4)
H30 H 0.8328 1.0957 0.8512
H31 H 0.8785 1.2042 0.8549
H32 H 0.8555 1.1801 0.8954
C24 C 0.9364(5) 0.9943(13) 0.8547(4)
H33 H 0.9643 0.9288 0.8670
H34 H 0.9510 1.0822 0.8486
H35 H 0.9140 0.9566 0.8276
N2 N 0.47204(16) 0.3518(4) 0.62615(15)
H36 H 0.4668 0.4329 0.6365
O5 O 0.44950(17) -0.3671(4) 0.66150(16)
O6 O 0.51223(18) -0.0886(5) 0.62761(19)
C25 C 0.6353(3) 0.4594(11) 0.6944(3)
H37 H 0.6464 0.3630 0.6946
H38 H 0.6321 0.4841 0.7234
H39 H 0.6607 0.5196 0.6870
C26 C 0.5816(2) 0.4777(7) 0.6598(3)
H40 H 0.5552 0.4964 0.6758
C27 C 0.5678(2) 0.3379(5) 0.6354(2)
H41 H 0.5929 0.3205 0.6185
H42 H 0.5719 0.2632 0.6573
C28 C 0.51272(18) 0.3293(4) 0.60409(18)
H43 H 0.5090 0.3985 0.5802
C29 C 0.50072(18) 0.1793(5) 0.58382(19)
H44 H 0.5332 0.1236 0.5921
C30 C 0.46101(17) 0.1151(4) 0.60732(17)
C31 C 0.4853(2) -0.0049(5) 0.6393(2)
C32 C 0.4731(2) -0.0152(6) 0.68371(19)
H45 H 0.4368 0.0116 0.6799
H46 H 0.4951 0.0513 0.7042
C33 C 0.4819(2) -0.1612(6) 0.7039(2)
H47 H 0.4826 -0.1551 0.7350
H48 H 0.5159 -0.1952 0.7025
C34 C 0.4402(2) -0.2671(5) 0.68110(18)
C35 C 0.3853(2) -0.2492(5) 0.68869(19)
H49 H 0.3792 -0.1487 0.6925
O7 O 0.39050(19) -0.3197(4) 0.73039(13)
H50 H 0.3676 -0.3801 0.7273
C36 C 0.5804(4) 0.5968(8) 0.6287(3)
H51 H 0.6000 0.5718 0.6081
H52 H 0.5959 0.6788 0.6452
H53 H 0.5447 0.6169 0.6126
C37 C 0.44344(18) 0.2404(5) 0.62954(17)
C38 C 0.4797(2) 0.1796(6) 0.5332(2)
H54 H 0.4788 0.0801 0.5245
C39 C 0.4234(2) 0.2272(6) 0.51858(18)
C40 C 0.4063(3) 0.3440(8) 0.4859(2)
H55 H 0.3701 0.3661 0.4830
H56 H 0.4102 0.3153 0.4575
H57 H 0.4275 0.4259 0.4960
C41 C 0.3915(2) 0.1600(6) 0.53799(18)
H58 H 0.3560 0.1829 0.5306
C42 C 0.41276(18) 0.0478(5) 0.57152(16)
H59 H 0.4267 -0.0270 0.5564
C43 C 0.37339(18) -0.0194(5) 0.59196(17)
H60 H 0.3570 0.0400 0.6077
C44 C 0.3594(2) -0.1550(5) 0.58989(17)
C45 C 0.3788(3) -0.2651(5) 0.5636(2)
H61 H 0.4077 -0.2277 0.5541
H62 H 0.3509 -0.2911 0.5380
H63 H 0.3903 -0.3467 0.5818
C46 C 0.3204(2) -0.2052(6) 0.6132(2)
H64 H 0.2918 -0.2509 0.5915
H65 H 0.3060 -0.1233 0.6242
C47 C 0.3406(2) -0.3059(5) 0.65149(19)
H66 H 0.3523 -0.3916 0.6402
H67 H 0.3118 -0.3309 0.6636
C48 C 0.5190(3) 0.2499(7) 0.5111(2)
H68 H 0.5073 0.2359 0.4795
H69 H 0.5531 0.2083 0.5226
H70 H 0.5209 0.3491 0.5175
O8 O 0.40679(14) 0.2418(3) 0.64747(13)
N3 N 0.52833(14) 0.8517(4) 0.87381(14)
H71 H 0.5335 0.9328 0.8635
O9 O 0.55035(16) 0.1330(4) 0.83835(15)
O10 O 0.48798(18) 0.4105(4) 0.87211(19)
C49 C 0.62661(16) 0.4801(4) 0.90826(16)
H72 H 0.6431 0.5394 0.8926
C50 C 0.4186(3) 1.0959(7) 0.8713(3)
H73 H 0.3991 1.0696 0.8918
H74 H 0.4025 1.1766 0.8545
H75 H 0.4541 1.1185 0.8875
C51 C 0.4190(2) 0.9777(6) 0.8409(2)
H76 H 0.4458 0.9974 0.8255
C52 C 0.43222(17) 0.8381(5) 0.86464(19)
H77 H 0.4281 0.7641 0.8426
H78 H 0.4071 0.8202 0.8815
C53 C 0.48730(17) 0.8289(4) 0.89603(16)
H79 H 0.4911 0.8980 0.9200
C54 C 0.49962(17) 0.6795(4) 0.91621(18)
H80 H 0.4672 0.6237 0.9077
C55 C 0.53928(16) 0.6150(4) 0.89306(15)
C56 C 0.51473(18) 0.4948(4) 0.86139(19)
C57 C 0.5262(2) 0.4847(5) 0.81653(19)
H81 H 0.5037 0.5505 0.7962
H82 H 0.5623 0.5131 0.8200
C58 C 0.5181(2) 0.3389(6) 0.79613(19)
H83 H 0.5178 0.3457 0.7651
H84 H 0.4841 0.3038 0.7972
C59 C 0.5602(2) 0.2331(5) 0.81925(17)
C60 C 0.6152(2) 0.2508(5) 0.81144(17)
H85 H 0.6214 0.3513 0.8076
O11 O 0.60954(18) 0.1799(4) 0.76975(13)
H86 H 0.6319 0.1181 0.7729
C61 C 0.3649(3) 0.9594(11) 0.8048(3)
H87 H 0.3370 0.9887 0.8169
H88 H 0.3602 0.8622 0.7961
H89 H 0.3647 1.0162 0.7794
C62 C 0.55688(16) 0.7412(4) 0.87046(16)
O12 O 0.59358(13) 0.7416(3) 0.85278(13)
C63 C 0.5199(2) 0.6788(5) 0.96704(19)
H90 H 0.5206 0.5795 0.9759
C64 C 0.5771(2) 0.7282(5) 0.98161(17)
C65 C 0.5944(3) 0.8449(7) 1.0143(2)
H91 H 0.6315 0.8602 1.0193
H92 H 0.5873 0.8202 1.0418
H93 H 0.5757 0.9296 1.0027
C66 C 0.60914(19) 0.6595(5) 0.96228(16)
H94 H 0.6448 0.6810 0.9698
C67 C 0.58695(16) 0.5471(4) 0.92828(16)
H95 H 0.5729 0.4724 0.9434
C68 C 0.64062(16) 0.3455(5) 0.91063(15)
C69 C 0.6213(2) 0.2357(5) 0.93658(18)
H96 H 0.5920 0.2723 0.9456
H97 H 0.6490 0.2106 0.9624
H98 H 0.6104 0.1537 0.9184
C70 C 0.68026(19) 0.2958(5) 0.88673(18)
H99 H 0.6939 0.3779 0.8752
H100 H 0.7094 0.2518 0.9084
C71 C 0.6599(2) 0.1932(5) 0.84894(19)
H101 H 0.6479 0.1086 0.8606
H102 H 0.6887 0.1666 0.8369
C72 C 0.4817(3) 0.7515(7) 0.9888(2)
H103 H 0.4914 0.7304 1.0200
H104 H 0.4467 0.7181 0.9754
H105 H 0.4830 0.8516 0.9847
O13 O 0.28706(15) 0.5903(4) 0.93686(11)
H106 H 0.3100 0.6510 0.9414
C73 C 0.27009(15) 0.3009(4) 0.80282(14)
H107 H 0.2884 0.2447 0.8264
O14 O 0.21115(13) 0.6387(3) 0.84526(11)
O15 O 0.12956(15) 0.3529(4) 0.79645(13)
O16 O 0.24821(12) 0.0352(3) 0.84984(11)
C74 C 0.22457(14) 0.2328(4) 0.76954(13)
H108 H 0.2061 0.3080 0.7499
C75 C 0.28311(18) 0.5239(4) 0.89529(15)
H109 H 0.2905 0.4232 0.9006
C76 C 0.22486(17) 0.5412(4) 0.86961(13)
C77 C 0.18618(19) 0.4422(5) 0.88183(17)
H110 H 0.1509 0.4783 0.8693
H111 H 0.1929 0.4413 0.9139
C78 C 0.18870(19) 0.2924(4) 0.86579(14)
H112 H 0.1708 0.2306 0.8816
H113 H 0.2252 0.2630 0.8728
C79 C 0.16398(16) 0.2756(4) 0.81620(15)
C80 C 0.18312(14) 0.1606(4) 0.79019(13)
C81 C 0.13826(14) 0.0935(4) 0.75307(13)
H114 H 0.1055 0.1435 0.7520
C82 C 0.13272(15) -0.0600(4) 0.76726(13)
H115 H 0.1370 -0.1238 0.7439
C83 C 0.07906(17) -0.0867(5) 0.77559(15)
H116 H 0.0756 -0.0245 0.7992
H117 H 0.0519 -0.0609 0.7490
C84 C 0.06885(19) -0.2357(6) 0.78794(16)
H118 H 0.0962 -0.2613 0.8150
C85 C 0.0156(2) -0.2411(9) 0.7985(3)
H119 H 0.0171 -0.1846 0.8242
H120 H 0.0076 -0.3369 0.8041
H121 H -0.0113 -0.2052 0.7736
C86 C 0.3214(2) 0.5834(5) 0.87150(19)
H122 H 0.3066 0.6687 0.8559
H123 H 0.3538 0.6090 0.8935
C87 C 0.33417(19) 0.4823(6) 0.83866(19)
H124 H 0.3518 0.4007 0.8547
H125 H 0.3586 0.5279 0.8250
C88 C 0.28690(17) 0.4323(5) 0.80222(16)
C89 C 0.20734(15) 0.0347(4) 0.81937(13)
N4 N 0.17658(14) -0.0772(3) 0.80610(12)
H126 H 0.1826 -0.1562 0.8201
C90 C 0.14786(16) 0.1021(4) 0.70679(14)
H127 H 0.1458 0.2026 0.6992
C91 C 0.20410(17) 0.0584(4) 0.70956(14)
C92 C 0.2163(2) -0.0554(6) 0.68120(16)
H128 H 0.2537 -0.0639 0.6868
H129 H 0.2009 -0.0327 0.6505
H130 H 0.2021 -0.1431 0.6880
C93 C 0.24031(16) 0.1254(4) 0.74051(14)
H131 H 0.2757 0.1058 0.7443
C94 C 0.10436(18) 0.0313(5) 0.67046(15)
H132 H 0.1116 0.0428 0.6422
H133 H 0.0712 0.0741 0.6694
H134 H 0.1031 -0.0674 0.6770
C95 C 0.0704(3) -0.3399(6) 0.7526(2)
H135 H 0.0429 -0.3190 0.7262
H136 H 0.0654 -0.4332 0.7627
H137 H 0.1038 -0.3346 0.7463
C96 C 0.2628(3) 0.5386(6) 0.7671(2)
H138 H 0.2365 0.4936 0.7437
H139 H 0.2895 0.5778 0.7553
H140 H 0.2468 0.6125 0.7799
O17 O 0.71301(16) 1.0909(4) 0.56328(11)
H141 H 0.6903 1.1522 0.5589
O18 O 0.78915(14) 1.1389(3) 0.65481(12)
O19 O 0.87031(16) 0.8538(4) 0.70359(14)
C97 C 0.75929(17) 0.6263(4) 0.75963(14)
H142 H 0.7239 0.6085 0.7565
N5 N 0.82348(14) 0.4223(3) 0.69389(12)
H143 H 0.8176 0.3436 0.6798
O20 O 0.75217(13) 0.5355(3) 0.65008(11)
C98 C 0.86116(16) 0.5943(4) 0.74706(14)
H144 H 0.8937 0.6450 0.7480
C99 C 0.77544(16) 0.7329(4) 0.73024(14)
H145 H 0.7942 0.8080 0.7498
C100 C 0.72974(17) 0.8019(4) 0.69699(16)
H146 H 0.7112 0.7461 0.6735
C101 C 0.9839(3) 0.2579(9) 0.7019(3)
H147 H 1.0109 0.2926 0.7269
H148 H 0.9829 0.3145 0.6763
H149 H 0.9913 0.1618 0.6962
C102 C 0.9313(2) 0.2657(6) 0.71205(17)
H150 H 0.9041 0.2400 0.6850
C103 C 0.92023(18) 0.4141(5) 0.72460(17)
H151 H 0.9238 0.4770 0.7012
H152 H 0.9471 0.4399 0.7514
C104 C 0.86716(16) 0.4404(4) 0.73254(14)
H153 H 0.8629 0.3763 0.7559
C105 C 0.81607(15) 0.6603(4) 0.70974(13)
C106 C 0.83616(18) 0.7756(4) 0.68391(15)
C107 C 0.81134(18) 0.7920(4) 0.63444(14)
H154 H 0.7748 0.7628 0.6275
H155 H 0.8291 0.7300 0.6186
C108 C 0.8139(2) 0.9431(5) 0.61822(16)
H156 H 0.8492 0.9791 0.6307
H157 H 0.8073 0.9420 0.5861
C109 C 0.77544(19) 1.0423(4) 0.63028(16)
C110 C 0.71665(19) 1.0231(4) 0.60499(16)
H158 H 0.7093 0.9223 0.5998
C111 C 0.85204(16) 0.6025(4) 0.79361(14)
H159 H 0.8539 0.7029 0.8013
C112 C 0.89535(19) 0.5312(5) 0.82965(16)
H160 H 0.8883 0.5426 0.8579
H161 H 0.9286 0.5735 0.8306
H162 H 0.8964 0.4325 0.8230
C113 C 0.79592(17) 0.5581(4) 0.78986(14)
C114 C 0.71350(18) 0.9324(5) 0.69785(16)
C115 C 0.7367(3) 1.0384(5) 0.73279(19)
H163 H 0.7581 0.9913 0.7586
H164 H 0.7091 1.0890 0.7405
H165 H 0.7580 1.1033 0.7217
C116 C 0.66604(19) 0.9827(6) 0.6617(2)
H166 H 0.6419 1.0292 0.6755
H167 H 0.6481 0.9011 0.6458
C117 C 0.6789(2) 1.0836(5) 0.62832(17)
H168 H 0.6466 1.1091 0.6063
H169 H 0.6940 1.1691 0.6437
C118 C 0.7842(2) 0.4446(6) 0.81905(17)
H170 H 0.7469 0.4395 0.8150
H171 H 0.8015 0.4658 0.8496
H172 H 0.7966 0.3557 0.8113
C119 C 0.79248(17) 0.5345(4) 0.68100(15)
C120 C 0.9296(3) 0.1603(6) 0.7472(2)
H173 H 0.9379 0.0684 0.7381
H174 H 0.8950 0.1591 0.7515
H175 H 0.9548 0.1858 0.7745
O21 O 0.00677(14) -0.3066(4) 0.41699(12)
H176 H -0.0001 -0.3110 0.3898
C121 C 0.16911(18) 0.0173(5) 0.46711(15)
H177 H 0.1508 0.0701 0.4427
O22 O 0.10073(16) 0.2732(4) 0.46279(13)
N6 N 0.12372(17) 0.3903(4) 0.52831(15)
H178 H 0.1076 0.4670 0.5179
O23 O 0.13417(17) -0.0470(4) 0.56478(12)
O24 O 0.08269(17) -0.3287(4) 0.50574(12)
C122 C 0.2298(2) 0.2166(5) 0.50548(18)
H179 H 0.2360 0.2386 0.4784
C123 C 0.05381(19) -0.2311(5) 0.43373(16)
H180 H 0.0481 -0.1337 0.4230
C124 C 0.06159(18) -0.2307(5) 0.48363(15)
C125 C 0.03729(19) -0.1174(5) 0.50498(18)
H181 H 0.0402 -0.1445 0.5354
H182 H 0.0002 -0.1111 0.4895
C126 C 0.06175(19) 0.0265(5) 0.50505(18)
H183 H 0.0393 0.0964 0.5132
H184 H 0.0636 0.0481 0.4752
C127 C 0.1168(2) 0.0368(5) 0.53711(16)
C128 C 0.15190(17) 0.1595(4) 0.53124(14)
C129 C 0.18003(18) 0.2315(4) 0.57663(13)
H185 H 0.1727 0.1769 0.6008
C130 C 0.1538(2) 0.3771(5) 0.57440(16)
H186 H 0.1811 0.4498 0.5812
C131 C 0.1220(3) 0.3866(6) 0.6081(2)
H187 H 0.0953 0.3138 0.6008
H188 H 0.1454 0.3632 0.6370
C132 C 0.0965(3) 0.5167(8) 0.6126(3)
H189 H 0.0734 0.5435 0.5835
C133 C 0.0993(2) -0.2925(5) 0.41864(16)
H190 H 0.0855 -0.3316 0.3891
H191 H 0.1147 -0.3694 0.4384
C134 C 0.1424(2) -0.1863(5) 0.41774(16)
H192 H 0.1681 -0.2330 0.4056
H193 H 0.1269 -0.1108 0.3975
C135 C 0.17108(18) -0.1216(5) 0.46168(15)
C136 C 0.19396(18) 0.0956(4) 0.50921(13)
H194 H 0.2151 0.0276 0.5303
C137 C 0.25228(18) 0.2905(5) 0.54176(17)
C138 C 0.24043(18) 0.2389(5) 0.58388(15)
H195 H 0.2532 0.1415 0.5883
C139 C 0.12253(19) 0.2785(5) 0.50328(17)
C140 C 0.2672(2) 0.3178(7) 0.62661(18)
H196 H 0.3046 0.3160 0.6312
H197 H 0.2586 0.2734 0.6513
H198 H 0.2552 0.4138 0.6242
C141 C 0.2859(2) 0.4177(6) 0.5425(2)
H199 H 0.2932 0.4276 0.5143
H200 H 0.3183 0.4072 0.5654
H201 H 0.2678 0.5001 0.5483
C142 C 0.2023(2) -0.2230(5) 0.49568(19)
H202 H 0.2354 -0.1809 0.5108
H203 H 0.2084 -0.3079 0.4812
H204 H 0.1831 -0.2449 0.5168
C143 C 0.1358(5) 0.6347(8) 0.6294(4)
H205 H 0.1611 0.6050 0.6561
H206 H 0.1176 0.7168 0.6354
H207 H 0.1534 0.6568 0.6072
C144 C 0.0626(5) 0.4938(13) 0.6452(4)
H208 H 0.0820 0.4389 0.6701
H209 H 0.0309 0.4447 0.6303
H210 H 0.0538 0.5835 0.6555
O25 O 0.2928(2) 0.8701(4) 0.92101(13)
H211 H 0.2970 0.7912 0.9321
C145 C 0.3161(3) 0.9682(6) 0.95253(19)
H212 H 0.3305 0.9218 0.9805
H213 H 0.2903 1.0359 0.9555
H214 H 0.3436 1.0153 0.9437
O26 O 0.7074(2) 0.3704(4) 0.57902(13)
H215 H 0.7069 0.2930 0.5672
C146 C 0.6840(3) 0.4682(7) 0.5475(2)
H216 H 0.6544 0.5091 0.5552
H217 H 0.6723 0.4232 0.5190
H218 H 0.7088 0.5409 0.5464
C147 C 0.6241(3) 0.7990(8) 0.7617(2)
H219 H 0.6209 0.8268 0.7316
H220 H 0.6073 0.7093 0.7619
H221 H 0.6606 0.7917 0.7776
O27 O 0.60064(19) 0.8970(4) 0.78156(13)
H222 H 0.5997 0.8680 0.8060
O28 O 0.97517(18) 0.9146(5) 0.59593(15)
H223 H 0.9507 0.8889 0.5751
C148 C 0.9692(3) 0.8580(9) 0.6353(3)
H224 H 0.9915 0.9076 0.6601
H225 H 0.9787 0.7600 0.6371
H226 H 0.9332 0.8672 0.6357
O29 O 0.39990(19) 0.3966(4) 0.71840(13)
H227 H 0.4053 0.3619 0.6961
C149 C 0.3752(3) 0.2988(9) 0.7384(2)
H228 H 0.3919 0.2087 0.7389
H229 H 0.3389 0.2916 0.7219
H230 H 0.3776 0.3281 0.7682
C150 C 0.0304(3) 0.3554(9) 0.8647(2)
H231 H 0.0661 0.3656 0.8635
H232 H 0.0074 0.4031 0.8398
H233 H 0.0215 0.2571 0.8636
O30 O 0.02518(17) 0.4137(4) 0.90390(14)
H234 H 0.0505 0.3912 0.9245
loop_
_geom_bond_atom_site_label_1
_geom_bond_atom_site_label_2
_geom_bond_site_symmetry_1
_geom_bond_site_symmetry_2
O1 H1 1_555 1_555
O2 C5 1_555 1_555
O3 C2 1_555 1_555
C1 O1 1_555 1_555
H2 C1 1_555 1_555
C2 C1 1_555 1_555
C3 C2 1_555 1_555
H3 C3 1_555 1_555
H4 C3 1_555 1_555
C4 C3 1_555 1_555
H5 C4 1_555 1_555
H6 C4 1_555 1_555
C5 C4 1_555 1_555
C6 C5 1_555 1_555
C7 C6 1_555 1_555
H7 C7 1_555 1_555
C8 C7 1_555 1_555
H8 C8 1_555 1_555
C9 C8 1_555 1_555
H9 C9 1_555 1_555
H10 C9 1_555 1_555
C10 C9 1_555 1_555
H11 C10 1_555 1_555
C11 C1 1_555 1_555
H12 C11 1_555 1_555
H13 C11 1_555 1_555
C12 C11 1_555 1_555
H14 C12 1_555 1_555
H15 C12 1_555 1_555
C13 C12 1_555 1_555
C14 C13 1_555 1_555
H16 C14 1_555 1_555
C15 C6 1_555 1_555
H17 C15 1_555 1_555
N1 C8 1_555 1_555
H18 N1 1_555 1_555
C16 C6 1_555 1_555
O4 C16 1_555 1_555
C17 C7 1_555 1_555
H19 C17 1_555 1_555
C18 C17 1_555 1_555
H20 C18 1_555 1_555
H21 C18 1_555 1_555
H22 C18 1_555 1_555
C19 C17 1_555 1_555
C20 C15 1_555 1_555
H23 C20 1_555 1_555
C21 C19 1_555 1_555
H24 C21 1_555 1_555
H25 C21 1_555 1_555
H26 C21 1_555 1_555
C22 C13 1_555 1_555
H27 C22 1_555 1_555
H28 C22 1_555 1_555
H29 C22 1_555 1_555
C23 C10 1_555 1_555
H30 C23 1_555 1_555
H31 C23 1_555 1_555
H32 C23 1_555 1_555
C24 C10 1_555 1_555
H33 C24 1_555 1_555
H34 C24 1_555 1_555
H35 C24 1_555 1_555
N2 H36 1_555 1_555
O5 C34 1_555 1_555
O6 C31 1_555 1_555
C25 H37 1_555 1_555
H38 C25 1_555 1_555
H39 C25 1_555 1_555
C26 C25 1_555 1_555
H40 C26 1_555 1_555
C27 C26 1_555 1_555
H41 C27 1_555 1_555
H42 C27 1_555 1_555
C28 N2 1_555 1_555
H43 C28 1_555 1_555
C29 C28 1_555 1_555
H44 C29 1_555 1_555
C30 C29 1_555 1_555
C31 C30 1_555 1_555
C32 C31 1_555 1_555
H45 C32 1_555 1_555
H46 C32 1_555 1_555
C33 C32 1_555 1_555
H47 C33 1_555 1_555
H48 C33 1_555 1_555
C34 C33 1_555 1_555
C35 C34 1_555 1_555
H49 C35 1_555 1_555
O7 C35 1_555 1_555
H50 O7 1_555 1_555
C36 C26 1_555 1_555
H51 C36 1_555 1_555
H52 C36 1_555 1_555
H53 C36 1_555 1_555
C37 N2 1_555 1_555
C38 C29 1_555 1_555
H54 C38 1_555 1_555
C39 C38 1_555 1_555
C40 C39 1_555 1_555
H55 C40 1_555 1_555
H56 C40 1_555 1_555
H57 C40 1_555 1_555
C41 C39 1_555 1_555
H58 C41 1_555 1_555
C42 C30 1_555 1_555
H59 C42 1_555 1_555
C43 C42 1_555 1_555
H60 C43 1_555 1_555
C44 C43 1_555 1_555
C45 C44 1_555 1_555
H61 C45 1_555 1_555
H62 C45 1_555 1_555
H63 C45 1_555 1_555
C46 C44 1_555 1_555
H64 C46 1_555 1_555
H65 C46 1_555 1_555
C47 C35 1_555 1_555
H66 C47 1_555 1_555
H67 C47 1_555 1_555
C48 C38 1_555 1_555
H68 C48 1_555 1_555
H69 C48 1_555 1_555
H70 C48 1_555 1_555
O8 C37 1_555 1_555
N3 H71 1_555 1_555
O9 C59 1_555 1_555
O10 C56 1_555 1_555
C49 H72 1_555 1_555
C50 H73 1_555 1_555
H74 C50 1_555 1_555
H75 C50 1_555 1_555
C51 C50 1_555 1_555
H76 C51 1_555 1_555
C52 C51 1_555 1_555
H77 C52 1_555 1_555
H78 C52 1_555 1_555
C53 N3 1_555 1_555
H79 C53 1_555 1_555
C54 C53 1_555 1_555
H80 C54 1_555 1_555
C55 C54 1_555 1_555
C56 C55 1_555 1_555
C57 C56 1_555 1_555
H81 C57 1_555 1_555
H82 C57 1_555 1_555
C58 C57 1_555 1_555
H83 C58 1_555 1_555
H84 C58 1_555 1_555
C59 C58 1_555 1_555
C60 C59 1_555 1_555
H85 C60 1_555 1_555
O11 C60 1_555 1_555
H86 O11 1_555 1_555
C61 C51 1_555 1_555
H87 C61 1_555 1_555
H88 C61 1_555 1_555
H89 C61 1_555 1_555
C62 N3 1_555 1_555
O12 C62 1_555 1_555
C63 C54 1_555 1_555
H90 C63 1_555 1_555
C64 C63 1_555 1_555
C65 C64 1_555 1_555
H91 C65 1_555 1_555
H92 C65 1_555 1_555
H93 C65 1_555 1_555
C66 C64 1_555 1_555
H94 C66 1_555 1_555
C67 C49 1_555 1_555
H95 C67 1_555 1_555
C68 C49 1_555 1_555
C69 C68 1_555 1_555
H96 C69 1_555 1_555
H97 C69 1_555 1_555
H98 C69 1_555 1_555
C70 C68 1_555 1_555
H99 C70 1_555 1_555
H100 C70 1_555 1_555
C71 C60 1_555 1_555
H101 C71 1_555 1_555
H102 C71 1_555 1_555
C72 C63 1_555 1_555
H103 C72 1_555 1_555
H104 C72 1_555 1_555
H105 C72 1_555 1_555
O13 H106 1_555 1_555
C73 H107 1_555 1_555
O14 C76 1_555 1_555
O15 C79 1_555 1_555
O16 C89 1_555 1_555
C74 C73 1_555 1_555
H108 C74 1_555 1_555
C75 O13 1_555 1_555
H109 C75 1_555 1_555
C76 C75 1_555 1_555
C77 C76 1_555 1_555
H110 C77 1_555 1_555
H111 C77 1_555 1_555
C78 C77 1_555 1_555
H112 C78 1_555 1_555
H113 C78 1_555 1_555
C79 C78 1_555 1_555
C80 C74 1_555 1_555
C81 C80 1_555 1_555
H114 C81 1_555 1_555
C82 C81 1_555 1_555
H115 C82 1_555 1_555
C83 C82 1_555 1_555
H116 C83 1_555 1_555
H117 C83 1_555 1_555
C84 C83 1_555 1_555
H118 C84 1_555 1_555
C85 C84 1_555 1_555
H119 C85 1_555 1_555
H120 C85 1_555 1_555
H121 C85 1_555 1_555
C86 C75 1_555 1_555
H122 C86 1_555 1_555
H123 C86 1_555 1_555
C87 C86 1_555 1_555
H124 C87 1_555 1_555
H125 C87 1_555 1_555
C88 C73 1_555 1_555
C89 C80 1_555 1_555
N4 C82 1_555 1_555
H126 N4 1_555 1_555
C90 C81 1_555 1_555
H127 C90 1_555 1_555
C91 C90 1_555 1_555
C92 C91 1_555 1_555
H128 C92 1_555 1_555
H129 C92 1_555 1_555
H130 C92 1_555 1_555
C93 C74 1_555 1_555
H131 C93 1_555 1_555
C94 C90 1_555 1_555
H132 C94 1_555 1_555
H133 C94 1_555 1_555
H134 C94 1_555 1_555
C95 C84 1_555 1_555
H135 C95 1_555 1_555
H136 C95 1_555 1_555
H137 C95 1_555 1_555
C96 C88 1_555 1_555
H138 C96 1_555 1_555
H139 C96 1_555 1_555
H140 C96 1_555 1_555
O17 H141 1_555 1_555
O18 C109 1_555 1_555
O19 C106 1_555 1_555
C97 H142 1_555 1_555
N5 H143 1_555 1_555
O20 C119 1_555 1_555
C98 H144 1_555 1_555
C99 C97 1_555 1_555
H145 C99 1_555 1_555
C100 C99 1_555 1_555
H146 C100 1_555 1_555
C101 H147 1_555 1_555
H148 C101 1_555 1_555
H149 C101 1_555 1_555
C102 C101 1_555 1_555
H150 C102 1_555 1_555
C103 C102 1_555 1_555
H151 C103 1_555 1_555
H152 C103 1_555 1_555
C104 N5 1_555 1_555
H153 C104 1_555 1_555
C105 C98 1_555 1_555
C106 C105 1_555 1_555
C107 C106 1_555 1_555
H154 C107 1_555 1_555
H155 C107 1_555 1_555
C108 C107 1_555 1_555
H156 C108 1_555 1_555
H157 C108 1_555 1_555
C109 C108 1_555 1_555
C110 O17 1_555 1_555
H158 C110 1_555 1_555
C111 C98 1_555 1_555
H159 C111 1_555 1_555
C112 C111 1_555 1_555
H160 C112 1_555 1_555
H161 C112 1_555 1_555
H162 C112 1_555 1_555
C113 C97 1_555 1_555
C114 C100 1_555 1_555
C115 C114 1_555 1_555
H163 C115 1_555 1_555
H164 C115 1_555 1_555
H165 C115 1_555 1_555
C116 C114 1_555 1_555
H166 C116 1_555 1_555
H167 C116 1_555 1_555
C117 C110 1_555 1_555
H168 C117 1_555 1_555
H169 C117 1_555 1_555
C118 C113 1_555 1_555
H170 C118 1_555 1_555
H171 C118 1_555 1_555
H172 C118 1_555 1_555
C119 N5 1_555 1_555
C120 C102 1_555 1_555
H173 C120 1_555 1_555
H174 C120 1_555 1_555
H175 C120 1_555 1_555
O21 H176 1_555 1_555
C121 H177 1_555 1_555
O22 C139 1_555 1_555
N6 H178 1_555 1_555
O23 C127 1_555 1_555
O24 C124 1_555 1_555
C122 H179 1_555 1_555
C123 O21 1_555 1_555
H180 C123 1_555 1_555
C124 C123 1_555 1_555
C125 C124 1_555 1_555
H181 C125 1_555 1_555
H182 C125 1_555 1_555
C126 C125 1_555 1_555
H183 C126 1_555 1_555
H184 C126 1_555 1_555
C127 C126 1_555 1_555
C128 C127 1_555 1_555
C129 C128 1_555 1_555
H185 C129 1_555 1_555
C130 N6 1_555 1_555
H186 C130 1_555 1_555
C131 C130 1_555 1_555
H187 C131 1_555 1_555
H188 C131 1_555 1_555
C132 C131 1_555 1_555
H189 C132 1_555 1_555
C133 C123 1_555 1_555
H190 C133 1_555 1_555
H191 C133 1_555 1_555
C134 C133 1_555 1_555
H192 C134 1_555 1_555
H193 C134 1_555 1_555
C135 C121 1_555 1_555
C136 C121 1_555 1_555
H194 C136 1_555 1_555
C137 C122 1_555 1_555
C138 C129 1_555 1_555
H195 C138 1_555 1_555
C139 N6 1_555 1_555
C140 C138 1_555 1_555
H196 C140 1_555 1_555
H197 C140 1_555 1_555
H198 C140 1_555 1_555
C141 C137 1_555 1_555
H199 C141 1_555 1_555
H200 C141 1_555 1_555
H201 C141 1_555 1_555
C142 C135 1_555 1_555
H202 C142 1_555 1_555
H203 C142 1_555 1_555
H204 C142 1_555 1_555
C143 C132 1_555 1_555
H205 C143 1_555 1_555
H206 C143 1_555 1_555
H207 C143 1_555 1_555
C144 C132 1_555 1_555
H208 C144 1_555 1_555
H209 C144 1_555 1_555
H210 C144 1_555 1_555
O25 H211 1_555 1_555
C145 O25 1_555 1_555
H212 C145 1_555 1_555
H213 C145 1_555 1_555
H214 C145 1_555 1_555
O26 H215 1_555 1_555
C146 O26 1_555 1_555
H216 C146 1_555 1_555
H217 C146 1_555 1_555
H218 C146 1_555 1_555
C147 H219 1_555 1_555
H220 C147 1_555 1_555
H221 C147 1_555 1_555
O27 C147 1_555 1_555
H222 O27 1_555 1_555
O28 H223 1_555 1_555
C148 O28 1_555 1_555
H224 C148 1_555 1_555
H225 C148 1_555 1_555
H226 C148 1_555 1_555
O29 H227 1_555 1_555
C149 O29 1_555 1_555
H228 C149 1_555 1_555
H229 C149 1_555 1_555
H230 C149 1_555 1_555
C150 H231 1_555 1_555
H232 C150 1_555 1_555
H233 C150 1_555 1_555
O30 C150 1_555 1_555
H234 O30 1_555 1_555
C14 C15 1_555 1_555
N1 C16 1_555 1_555
C19 C20 1_555 1_555
C27 C28 1_555 1_555
C30 C37 1_555 1_555
C41 C42 1_555 1_555
C46 C47 1_555 1_555
C52 C53 1_555 1_555
C55 C62 1_555 1_555
C55 C67 1_555 1_555
C66 C67 1_555 1_555
C70 C71 1_555 1_555
C79 C80 1_555 1_555
C87 C88 1_555 1_555
C89 N4 1_555 1_555
C91 C93 1_555 1_555
C98 C104 1_555 1_555
C99 C105 1_555 1_555
C103 C104 1_555 1_555
C105 C119 1_555 1_555
C109 C110 1_555 1_555
C111 C113 1_555 1_555
C116 C117 1_555 1_555
C122 C136 1_555 1_555
C128 C136 1_555 1_555
C128 C139 1_555 1_555
C129 C130 1_555 1_555
C134 C135 1_555 1_555
C137 C138 1_555 1_555

#END
