
#######################################################################
#
#                 Cambridge Crystallographic Data Centre
#                                CCDC 
#
#######################################################################
#
# If this CIF has been generated from an entry in the Cambridge 
# Structural Database, then it will include bibliographic, chemical, 
# crystal, experimental, refinement or atomic coordinate data resulting 
# from the CCDC's data processing and validation procedures.
#
#######################################################################

data_BUTTAM
_chemical_name_common            
3-fluoro-4-allylamino-9,10-dioxa-1,2-diaza-anthracene
_chemical_formula_moiety         'C13 H10 F1 N3 O2'
_chemical_name_systematic        
N-Allyl-3-fluoro[1,4]benzodioxino[2,3-c]pyridazin-4-amine
_symmetry_cell_setting           monoclinic
_symmetry_space_group_name_H-M   'P 21/n'
_symmetry_Int_Tables_number      14
_space_group_name_Hall           '-P 2yn'
loop_
_symmetry_equiv_pos_site_id
_symmetry_equiv_pos_as_xyz
1 x,y,z
2 1/2-x,1/2+y,1/2-z
3 -x,-y,-z
4 1/2+x,1/2-y,1/2+z
_cell_length_a                   4.90650(10)
_cell_length_b                   19.5663(4)
_cell_length_c                   11.8180(2)
_cell_angle_alpha                90
_cell_angle_beta                 94.25(1)
_cell_angle_gamma                90
_cell_volume                     1131.43
_exptl_crystal_colour            colorless
_exptl_crystal_description       plate
_chemical_melting_point          '175-177 deg.C'
_cell_formula_units_Z            4
loop_
_atom_site_label
_atom_site_type_symbol
_atom_site_fract_x
_atom_site_fract_y
_atom_site_fract_z
F1 F 1.29574(19) 0.30489(5) 0.99332(8)
O1 O 0.5332(2) 0.20059(5) 0.79725(8)
O2 O 0.5752(2) 0.10221(5) 0.97655(9)
N1 N 0.9353(3) 0.15883(7) 1.06074(11)
N2 N 1.1146(3) 0.21141(6) 1.06373(10)
N3 N 0.9058(3) 0.30219(6) 0.79792(11)
C1 C 0.7509(3) 0.15650(7) 0.97395(12)
C2 C 0.7297(3) 0.20368(7) 0.88590(12)
C3 C 0.9150(3) 0.25722(7) 0.88491(12)
C4 C 1.1028(3) 0.25614(7) 0.98207(12)
C5 C 0.3618(3) 0.14393(7) 0.79733(12)
C6 C 0.1644(3) 0.13710(8) 0.70871(13)
C7 C -0.0123(3) 0.08186(8) 0.70642(14)
C8 C 0.0102(3) 0.03359(8) 0.79269(14)
C9 C 0.2081(3) 0.04067(8) 0.88210(14)
C10 C 0.3828(3) 0.09607(8) 0.88445(12)
C11 C 1.0760(3) 0.36255(8) 0.78793(13)
C12 C 1.0092(4) 0.42066(8) 0.86345(13)
C13 C 0.8101(4) 0.42266(9) 0.93200(14)
H1 H 0.803(4) 0.2914(9) 0.7412(17)
H2 H 0.160(3) 0.1717(8) 0.6493(15)
H3 H -0.150(4) 0.0771(8) 0.6453(15)
H4 H -0.115(3) -0.0035(8) 0.7928(14)
H5 H 0.226(4) 0.0089(9) 0.9453(17)
H6 H 1.127(4) 0.4586(10) 0.8570(16)
H7 H 1.274(4) 0.3507(8) 0.8025(15)
H8 H 1.044(3) 0.3777(9) 0.7121(15)
H9 H 0.777(3) 0.4622(9) 0.9789(15)
H10 H 0.684(4) 0.3840(9) 0.9396(15)
loop_
_geom_bond_atom_site_label_1
_geom_bond_atom_site_label_2
_geom_bond_site_symmetry_1
_geom_bond_site_symmetry_2
F1 C4 1_555 1_555
O1 C2 1_555 1_555
O2 C1 1_555 1_555
N1 N2 1_555 1_555
N2 C4 1_555 1_555
N3 C3 1_555 1_555
C1 N1 1_555 1_555
C2 C1 1_555 1_555
C3 C2 1_555 1_555
C4 C3 1_555 1_555
C5 O1 1_555 1_555
C6 C5 1_555 1_555
C7 C6 1_555 1_555
C8 C7 1_555 1_555
C9 C8 1_555 1_555
C10 O2 1_555 1_555
C11 N3 1_555 1_555
C12 C11 1_555 1_555
C13 C12 1_555 1_555
H1 N3 1_555 1_555
H2 C6 1_555 1_555
H3 C7 1_555 1_555
H4 C8 1_555 1_555
H5 C9 1_555 1_555
H6 C12 1_555 1_555
H7 C11 1_555 1_555
H8 C11 1_555 1_555
H9 C13 1_555 1_555
H10 C13 1_555 1_555
C5 C10 1_555 1_555
C9 C10 1_555 1_555

#END
