
#######################################################################
#
#                 Cambridge Crystallographic Data Centre
#                                CCDC 
#
#######################################################################
#
# If this CIF has been generated from an entry in the Cambridge 
# Structural Database, then it will include bibliographic, chemical, 
# crystal, experimental, refinement or atomic coordinate data resulting 
# from the CCDC's data processing and validation procedures.
#
#######################################################################

data_BUTWIY
_chemical_formula_moiety         'C13 H12 N2 O1,C1 H1 Cl3'
_chemical_name_systematic        
'7-methyl-3,4-dihydrobenzo[b][1,7]naphthyridin-1(2H)-one chloroform solvate'
_symmetry_cell_setting           monoclinic
_symmetry_space_group_name_H-M   'P 21/n'
_symmetry_Int_Tables_number      14
_space_group_name_Hall           '-P 2yn'
loop_
_symmetry_equiv_pos_site_id
_symmetry_equiv_pos_as_xyz
1 x,y,z
2 1/2-x,1/2+y,1/2-z
3 -x,-y,-z
4 1/2+x,1/2-y,1/2+z
_cell_length_a                   11.7979(6)
_cell_length_b                   10.4102(4)
_cell_length_c                   24.8913(12)
_cell_angle_alpha                90
_cell_angle_beta                 91.406(5)
_cell_angle_gamma                90
_cell_volume                     3056.19
_exptl_crystal_colour            'light colorless'
_exptl_crystal_description       block
_cell_formula_units_Z            8
loop_
_atom_site_label
_atom_site_type_symbol
_atom_site_fract_x
_atom_site_fract_y
_atom_site_fract_z
O1 O 0.8765(3) 0.9163(3) 0.30863(13)
N1 N 0.9005(4) 0.7349(4) 0.26231(15)
H1 H 0.9568 0.7683 0.2461
N2 N 0.6938(4) 0.8158(4) 0.35832(15)
C1 C 0.8494(4) 0.8048(5) 0.29917(18)
C2 C 0.8661(6) 0.6034(5) 0.2477(2)
H2 H 0.8099 0.6078 0.2186
H3 H 0.9315 0.5581 0.2344
C3 C 0.8205(5) 0.5316(5) 0.2903(2)
H4 H 0.8823 0.5014 0.3134
H5 H 0.7819 0.4568 0.2755
C4 C 0.7390(4) 0.6060(4) 0.32349(18)
C5 C 0.6533(4) 0.5520(5) 0.35141(18)
H6 H 0.6401 0.4641 0.3489
C6 C 0.5849(4) 0.6279(5) 0.38389(17)
C7 C 0.4941(4) 0.5795(5) 0.41460(18)
H7 H 0.4776 0.4922 0.4130
C8 C 0.4308(4) 0.6559(5) 0.44605(18)
C9 C 0.4553(5) 0.7878(5) 0.4475(2)
H8 H 0.4117 0.8416 0.4685
C10 C 0.5409(5) 0.8388(5) 0.4190(2)
H9 H 0.5552 0.9265 0.4213
C11 C 0.6079(4) 0.7625(5) 0.38645(18)
C12 C 0.7556(4) 0.7401(4) 0.32822(17)
C13 C 0.3358(4) 0.6025(6) 0.47931(19)
H10 H 0.3276 0.5122 0.4724
H11 H 0.2663 0.6458 0.4699
H12 H 0.3534 0.6157 0.5168
O2 O 0.4164(3) 0.3728(3) 0.28589(12)
N3 N 0.4495(4) 0.5589(4) 0.24328(14)
H13 H 0.5062 0.5245 0.2277
N4 N 0.2355(3) 0.4754(3) 0.33572(13)
C14 C 0.3934(4) 0.4874(5) 0.27773(17)
C15 C 0.4218(5) 0.6912(5) 0.2301(3)
H14 H 0.4912 0.7355 0.2211
H15 H 0.3726 0.6917 0.1982
C16 C 0.3675(5) 0.7616(5) 0.2716(2)
H16 H 0.3272 0.8335 0.2553
H17 H 0.4256 0.7966 0.2956
C17 C 0.2857(4) 0.6863(4) 0.30428(16)
C18 C 0.2009(4) 0.7399(4) 0.33250(18)
H18 H 0.1894 0.8282 0.3309
C19 C 0.1305(4) 0.6641(4) 0.36388(17)
C20 C 0.0425(4) 0.7136(5) 0.39558(18)
H19 H 0.0296 0.8017 0.3957
C21 C -0.0237(4) 0.6368(5) 0.42592(17)
C22 C -0.0042(4) 0.5026(5) 0.42463(17)
H20 H -0.0493 0.4486 0.4447
C23 C 0.0791(4) 0.4512(5) 0.39466(18)
H21 H 0.0895 0.3626 0.3945
C24 C 0.1504(4) 0.5296(4) 0.36377(16)
C25 C 0.2991(4) 0.5506(4) 0.30737(16)
C26 C -0.1171(4) 0.6912(5) 0.46009(18)
H22 H -0.1865 0.6460 0.4524
H23 H -0.1272 0.7807 0.4520
H24 H -0.0966 0.6814 0.4974
Cl1 Cl 1.00358(13) 1.08232(15) 0.41350(7)
Cl2 Cl 0.81133(14) 1.22968(15) 0.37864(7)
Cl3 Cl 0.79513(17) 1.06450(18) 0.47045(7)
C27 C 0.8548(4) 1.0845(5) 0.40788(19)
H25 H 0.8300 1.0137 0.3845
Cl4 Cl 0.51806(12) 1.20568(14) 0.39149(6)
Cl5 Cl 0.34080(18) 1.06375(18) 0.34110(10)
Cl6 Cl 0.30262(17) 1.1947(3) 0.43956(8)
C28 C 0.3710(4) 1.1987(5) 0.37998(18)
H26 H 0.3468 1.2754 0.3600
loop_
_geom_bond_atom_site_label_1
_geom_bond_atom_site_label_2
_geom_bond_site_symmetry_1
_geom_bond_site_symmetry_2
O1 C1 1_555 1_555
N1 H1 1_555 1_555
N2 C11 1_555 1_555
C1 N1 1_555 1_555
C2 N1 1_555 1_555
H2 C2 1_555 1_555
H3 C2 1_555 1_555
C3 C2 1_555 1_555
H4 C3 1_555 1_555
H5 C3 1_555 1_555
C4 C3 1_555 1_555
C5 C4 1_555 1_555
H6 C5 1_555 1_555
C6 C5 1_555 1_555
C7 C6 1_555 1_555
H7 C7 1_555 1_555
C8 C7 1_555 1_555
C9 C8 1_555 1_555
H8 C9 1_555 1_555
C10 C9 1_555 1_555
H9 C10 1_555 1_555
C11 C6 1_555 1_555
C12 N2 1_555 1_555
C13 C8 1_555 1_555
H10 C13 1_555 1_555
H11 C13 1_555 1_555
H12 C13 1_555 1_555
O2 C14 1_555 1_555
N3 H13 1_555 1_555
N4 C24 1_555 1_555
C14 N3 1_555 1_555
C15 N3 1_555 1_555
H14 C15 1_555 1_555
H15 C15 1_555 1_555
C16 C15 1_555 1_555
H16 C16 1_555 1_555
H17 C16 1_555 1_555
C17 C16 1_555 1_555
C18 C17 1_555 1_555
H18 C18 1_555 1_555
C19 C18 1_555 1_555
C20 C19 1_555 1_555
H19 C20 1_555 1_555
C21 C20 1_555 1_555
C22 C21 1_555 1_555
H20 C22 1_555 1_555
C23 C22 1_555 1_555
H21 C23 1_555 1_555
C24 C19 1_555 1_555
C25 N4 1_555 1_555
C26 C21 1_555 1_555
H22 C26 1_555 1_555
H23 C26 1_555 1_555
H24 C26 1_555 1_555
Cl1 C27 1_555 1_555
Cl2 C27 1_555 1_555
Cl3 C27 1_555 1_555
C27 H25 1_555 1_555
Cl4 C28 1_555 1_555
Cl5 C28 1_555 1_555
Cl6 C28 1_555 1_555
C28 H26 1_555 1_555
C1 C12 1_555 1_555
C4 C12 1_555 1_555
C10 C11 1_555 1_555
C14 C25 1_555 1_555
C17 C25 1_555 1_555
C23 C24 1_555 1_555

#END
