
#######################################################################
#
#                 Cambridge Crystallographic Data Centre
#                                CCDC 
#
#######################################################################
#
# If this CIF has been generated from an entry in the Cambridge 
# Structural Database, then it will include bibliographic, chemical, 
# crystal, experimental, refinement or atomic coordinate data resulting 
# from the CCDC's data processing and validation procedures.
#
#######################################################################

data_BUVKOS
_chemical_formula_moiety         'C40 H64 N4 O8,C8 H10'
_chemical_name_systematic        
'5,8,23,26,39,42,47,50-Octaoxa-2,11,20,29-tetra-aza(12.12.8^2,11^.8^20,29^)(1,4)benzeno(2)phane p-xylene'
_symmetry_cell_setting           monoclinic
_symmetry_space_group_name_H-M   'P 21/c'
_symmetry_Int_Tables_number      14
_space_group_name_Hall           '-P 2ybc'
loop_
_symmetry_equiv_pos_site_id
_symmetry_equiv_pos_as_xyz
1 x,y,z
2 -x,1/2+y,1/2-z
3 -x,-y,-z
4 x,1/2-y,1/2+z
_cell_length_a                   11.355(3)
_cell_length_b                   9.161(2)
_cell_length_c                   24.554(14)
_cell_angle_alpha                90
_cell_angle_beta                 108.71(3)
_cell_angle_gamma                90
_cell_volume                     2419.21
_chemical_melting_point          112-4deg.C
_cell_formula_units_Z            2
loop_
_atom_site_label
_atom_site_type_symbol
_atom_site_fract_x
_atom_site_fract_y
_atom_site_fract_z
C1 C 0.59800 -0.17600 0.82100
H1 H 0.63000 -0.29100 0.84100
H2 H 0.51000 -0.15600 0.79400
N1 N 0.67300 -0.15900 0.78000
C2 C 0.64100 -0.02200 0.74900
H3 H 0.63200 0.05900 0.77600
H4 H 0.56100 -0.02500 0.71700
C3 C 0.73900 0.03800 0.72600
H5 H 0.70800 0.12500 0.70100
H6 H 0.76700 -0.05100 0.69800
O1 O 0.84300 0.08300 0.77300
C4 C 0.93400 0.15700 0.75300
H7 H 0.88100 0.26300 0.73100
H8 H 0.93700 0.09900 0.72600
C5 C 1.03800 0.21100 0.80100
H9 H 1.02000 0.25600 0.83100
H10 H 1.09100 0.29100 0.80900
O2 O 1.12400 0.10400 0.83200
C6 C 1.08400 0.01800 0.87200
H11 H 1.02300 -0.05700 0.84100
H12 H 1.07700 0.12700 0.89400
C7 C 1.19100 -0.07700 0.90400
H13 H 1.24900 -0.02500 0.93100
H14 H 1.23400 -0.12300 0.87400
N2 N 1.15200 -0.18800 0.93700
C8 C 1.25600 -0.23400 0.98700
H15 H 1.31200 -0.24900 0.97900
H16 H 1.23400 -0.32500 1.00000
C9 C 1.29300 -0.12100 1.03400
C10 C 1.20500 -0.05700 1.05500
H17 H 1.11100 -0.06200 1.02800
C11 C 1.24000 0.03900 1.10100
H18 H 1.16500 0.09700 1.11500
C12 C 0.63700 -0.06900 0.86900
C13 C 0.54900 -0.00300 0.89300
H19 H 0.51800 -0.03500 0.87000
C14 C 1.41800 -0.09100 1.06200
H20 H 1.49000 -0.15900 1.05700
C15 C 0.65500 -0.28700 0.74200
H21 H 0.56900 -0.29900 0.72100
H22 H 0.67800 -0.23900 0.70700
C16 C 0.72800 -0.41600 0.76800
H23 H 0.72100 -0.48200 0.73900
H24 H 0.81700 -0.38700 0.79700
O3 O 0.67700 -0.48600 0.80800
C17 C 0.74300 -0.60800 0.83900
H25 H 0.67400 -0.69500 0.83500
H26 H 0.77100 -0.65100 0.81100
C18 C 0.84200 -0.56900 0.89300
H27 H 0.81300 -0.50700 0.91700
H28 H 0.89100 -0.66800 0.91600
O4 O 0.93900 -0.49100 0.88100
C19 C 1.00700 -0.39500 0.92500
H29 H 0.95100 -0.32100 0.93000
H30 H 1.04800 -0.45100 0.95900
C20 C 1.09300 -0.30900 0.90000
H31 H 1.16000 -0.38500 0.90400
H32 H 1.03800 -0.25700 0.86100
C12B C 1.36300 0.06900 1.13100
C11B C 0.76000 -0.03900 0.89900
C14B C 0.58200 0.09100 0.93800
C13B C 1.45100 0.00300 1.10700
C1B C 1.40200 0.17600 1.17900
C10B C 0.79500 0.05700 0.94500
H18B H 0.83500 -0.09700 0.88500
C9B C 0.70700 0.12100 0.96600
H20B H 0.51000 0.15900 0.94300
H19B H 1.48200 0.03500 1.13000
H1B H 1.37000 0.29100 1.15900
H2B H 1.49000 0.15600 1.20600
N1B N 1.32700 0.15900 1.22000
H17B H 0.88900 0.06200 0.97200
C8B C 0.74400 0.23400 1.01300
C2B C 1.35900 0.02200 1.25100
C15B C 1.34500 0.28700 1.25800
N2B N 0.84800 0.18800 1.06300
H15B H 0.68800 0.24900 1.02100
H16B H 0.76600 0.32500 1.00000
H3B H 1.36800 -0.05900 1.22400
H4B H 1.43900 0.02500 1.28300
C3B C 1.26100 -0.03800 1.27400
H21B H 1.43100 0.29900 1.27900
H22B H 1.32200 0.23900 1.29300
C16B C 1.27200 0.41600 1.23200
C7B C 0.80900 0.07700 1.09600
C20B C 0.90700 0.30900 1.10000
H5B H 1.29200 -0.12500 1.29900
H6B H 1.23300 0.05100 1.30200
O1B O 1.15700 -0.08300 1.22700
H23B H 1.27900 0.48200 1.26100
H24B H 1.18300 0.38700 1.20300
O3B O 1.32300 0.48600 1.19200
C6B C 0.91600 -0.01800 1.12800
H13B H 0.75100 0.02500 1.06900
H14B H 0.76600 0.12300 1.12600
C19B C 0.99300 0.39500 1.07500
H31B H 0.84000 0.38500 1.09600
H32B H 0.96200 0.25700 1.13900
C4B C 1.06600 -0.15700 1.24700
C17B C 1.25700 0.60800 1.16100
O2B O 0.87600 -0.10400 1.16800
H11B H 0.97700 0.05700 1.15900
H12B H 0.92300 -0.12700 1.10600
O4B O 1.06100 0.49100 1.11900
H29B H 1.04900 0.32100 1.07000
H30B H 0.95200 0.45100 1.04100
H7B H 1.11900 -0.26300 1.26900
H8B H 1.06300 -0.09900 1.27400
C5B C 0.96200 -0.21100 1.19900
H25B H 1.32600 0.69500 1.16500
H26B H 1.22900 0.65100 1.18900
C18B C 1.15800 0.56900 1.10700
H9B H 0.98000 -0.25600 1.16900
H10B H 0.90900 -0.29100 1.19100
H27B H 1.18700 0.50700 1.08300
H28B H 1.10900 0.66800 1.08400
C21 C 0.56200 -0.04300 0.55600
H33 H 0.62900 -0.09300 0.59100
C22 C 0.46400 0.05000 0.54400
H34 H 0.43300 0.07500 0.56600
C23 C 0.60000 -0.09500 0.51100
C24 C 0.71100 -0.19600 0.52200
H35 H 0.72900 -0.22300 0.48000
H36 H 0.79800 -0.14600 0.55100
H37 H 0.69900 -0.30000 0.54200
C23B C 0.40000 0.09500 0.48900
C22B C 0.53600 -0.05000 0.45600
C21B C 0.43800 0.04300 0.44400
C24B C 0.28900 0.19600 0.47800
H34B H 0.56700 -0.07500 0.43400
H33B H 0.37100 0.09300 0.40900
H35B H 0.27100 0.22300 0.52000
H36B H 0.20200 0.14600 0.44900
H37B H 0.30100 0.30000 0.45800
loop_
_geom_bond_atom_site_label_1
_geom_bond_atom_site_label_2
_geom_bond_site_symmetry_1
_geom_bond_site_symmetry_2
C1 H1 1_555 1_555
H2 C1 1_555 1_555
N1 C1 1_555 1_555
C2 N1 1_555 1_555
H3 C2 1_555 1_555
H4 C2 1_555 1_555
C3 C2 1_555 1_555
H5 C3 1_555 1_555
H6 C3 1_555 1_555
O1 C3 1_555 1_555
C4 O1 1_555 1_555
H7 C4 1_555 1_555
H8 C4 1_555 1_555
C5 C4 1_555 1_555
H9 C5 1_555 1_555
H10 C5 1_555 1_555
O2 C5 1_555 1_555
C6 O2 1_555 1_555
H11 C6 1_555 1_555
H12 C6 1_555 1_555
C7 C6 1_555 1_555
H13 C7 1_555 1_555
H14 C7 1_555 1_555
N2 C7 1_555 1_555
C8 N2 1_555 1_555
H15 C8 1_555 1_555
H16 C8 1_555 1_555
C9 C8 1_555 1_555
C10 C9 1_555 1_555
H17 C10 1_555 1_555
C11 C10 1_555 1_555
H18 C11 1_555 1_555
C12 C1 1_555 1_555
C13 C12 1_555 1_555
H19 C13 1_555 1_555
C14 C9 1_555 1_555
H20 C14 1_555 1_555
C15 N1 1_555 1_555
H21 C15 1_555 1_555
H22 C15 1_555 1_555
C16 C15 1_555 1_555
H23 C16 1_555 1_555
H24 C16 1_555 1_555
O3 C16 1_555 1_555
C17 O3 1_555 1_555
H25 C17 1_555 1_555
H26 C17 1_555 1_555
C18 C17 1_555 1_555
H27 C18 1_555 1_555
H28 C18 1_555 1_555
O4 C18 1_555 1_555
C19 O4 1_555 1_555
H29 C19 1_555 1_555
H30 C19 1_555 1_555
C20 N2 1_555 1_555
H31 C20 1_555 1_555
H32 C20 1_555 1_555
C21 H33 1_555 1_555
C22 C21 1_555 1_555
H34 C22 1_555 1_555
C23 C21 1_555 1_555
C24 C23 1_555 1_555
H35 C24 1_555 1_555
H36 C24 1_555 1_555
H37 C24 1_555 1_555
C12B C11 1_555 1_555
C11B C12 1_555 1_555
C14B C13 1_555 1_555
C13B C14 1_555 1_555
C1B C12B 1_555 1_555
C10B C11B 1_555 1_555
H18B C11B 1_555 1_555
C9B C14B 1_555 1_555
H20B C14B 1_555 1_555
H19B C13B 1_555 1_555
H1B C1B 1_555 1_555
H2B C1B 1_555 1_555
N1B C1B 1_555 1_555
H17B C10B 1_555 1_555
C8B C9B 1_555 1_555
C2B N1B 1_555 1_555
C15B N1B 1_555 1_555
N2B C8B 1_555 1_555
H15B C8B 1_555 1_555
H16B C8B 1_555 1_555
H3B C2B 1_555 1_555
H4B C2B 1_555 1_555
C3B C2B 1_555 1_555
H21B C15B 1_555 1_555
H22B C15B 1_555 1_555
C16B C15B 1_555 1_555
C7B N2B 1_555 1_555
C20B N2B 1_555 1_555
H5B C3B 1_555 1_555
H6B C3B 1_555 1_555
O1B C3B 1_555 1_555
H23B C16B 1_555 1_555
H24B C16B 1_555 1_555
O3B C16B 1_555 1_555
C6B C7B 1_555 1_555
H13B C7B 1_555 1_555
H14B C7B 1_555 1_555
C19B C20B 1_555 1_555
H31B C20B 1_555 1_555
H32B C20B 1_555 1_555
C4B O1B 1_555 1_555
C17B O3B 1_555 1_555
O2B C6B 1_555 1_555
H11B C6B 1_555 1_555
H12B C6B 1_555 1_555
O4B C19B 1_555 1_555
H29B C19B 1_555 1_555
H30B C19B 1_555 1_555
H7B C4B 1_555 1_555
H8B C4B 1_555 1_555
C5B C4B 1_555 1_555
H25B C17B 1_555 1_555
H26B C17B 1_555 1_555
C18B C17B 1_555 1_555
H9B C5B 1_555 1_555
H10B C5B 1_555 1_555
H27B C18B 1_555 1_555
H28B C18B 1_555 1_555
C23B C22 1_555 1_555
C22B C23 1_555 1_555
C21B C23B 1_555 1_555
C24B C23B 1_555 1_555
H34B C22B 1_555 1_555
H33B C21B 1_555 1_555
H35B C24B 1_555 1_555
H36B C24B 1_555 1_555
H37B C24B 1_555 1_555
C19 C20 1_555 1_555
C12B C13B 1_555 1_555
C10B C9B 1_555 1_555
O2B C5B 1_555 1_555
O4B C18B 1_555 1_555
C22B C21B 1_555 1_555

#END
