
#######################################################################
#
#                 Cambridge Crystallographic Data Centre
#                                CCDC 
#
#######################################################################
#
# If this CIF has been generated from an entry in the Cambridge 
# Structural Database, then it will include bibliographic, chemical, 
# crystal, experimental, refinement or atomic coordinate data resulting 
# from the CCDC's data processing and validation procedures.
#
#######################################################################

data_BUVKUY
_chemical_formula_moiety         'C72 H68 N4,3(C4 H8 O2)'
_chemical_name_systematic        
"2,5,26,29-Tetrabenzyl-2,5,26,29-tetra-aza(6.6)(4',4'')-o-terphenylo(6)phane 1,4-dioxane"
_symmetry_cell_setting           monoclinic
_symmetry_space_group_name_H-M   'P 21/c'
_symmetry_Int_Tables_number      14
_space_group_name_Hall           '-P 2ybc'
loop_
_symmetry_equiv_pos_site_id
_symmetry_equiv_pos_as_xyz
1 x,y,z
2 -x,1/2+y,1/2-z
3 -x,-y,-z
4 x,1/2-y,1/2+z
_cell_length_a                   15.974(8)
_cell_length_b                   10.180(10)
_cell_length_c                   26.432(5)
_cell_angle_alpha                90
_cell_angle_beta                 120.51(3)
_cell_angle_gamma                90
_cell_volume                     3703.12
_chemical_melting_point          158-62deg.C
_cell_formula_units_Z            2
loop_
_atom_site_label
_atom_site_type_symbol
_atom_site_fract_x
_atom_site_fract_y
_atom_site_fract_z
C1 C 0.74880 0.58840 0.04840
H1 H 0.72840 0.65770 0.07120
N1 N 0.85020 0.55740 0.06680
C2 C 0.87520 0.43070 0.09750
H2 H 0.95280 0.41690 0.11900
H3 H 0.85310 0.43200 0.12990
C3 C 0.82460 0.31560 0.05550
H4 H 0.87870 0.24260 0.06290
H5 H 0.79140 0.35110 0.01090
N2 N 0.74910 0.25420 0.06360
C4 C 0.79560 0.16670 0.11560
H6 H 0.82310 0.08040 0.10510
H7 H 0.85550 0.21850 0.15160
C5 C 0.72400 0.12520 0.13340
C6 C 0.70600 -0.00770 0.13830
H8 H 0.74660 -0.08190 0.13060
C7 C 0.63800 -0.04620 0.15320
H9 H 0.62550 -0.14950 0.15610
C8 C 0.58610 0.04690 0.16430
C9 C 0.60460 0.17910 0.15980
H10 H 0.56690 0.25320 0.16980
C10 C 0.67160 0.21630 0.14350
H11 H 0.68180 0.31940 0.13880
C11 C 0.51380 0.00560 0.18170
C12 C 0.54550 -0.08510 0.22740
H12 H 0.61870 -0.12310 0.24800
C13 C 0.48450 -0.12790 0.24690
H13 H 0.51100 -0.19500 0.28350
C14 C 0.38920 -0.08310 0.21930
H14 H 0.34060 -0.11860 0.23350
C15 C 0.35710 0.00630 0.17370
H15 H 0.28310 0.04140 0.15280
C16 C 0.41810 0.05130 0.15430
C17 C 0.37660 0.14130 0.10200
C18 C 0.39170 0.12120 0.05590
H16 H 0.43630 0.04010 0.05720
C19 C 0.35050 0.20480 0.00770
H17 H 0.36470 0.18800 -0.02760
C20 C 0.70850 0.68930 -0.00400
C21 C 0.72360 0.66850 -0.05080
H18 H 0.76770 0.58700 -0.04970
C22 C 0.31760 0.24830 0.09830
H19 H 0.30450 0.26530 0.13410
C23 C 0.68020 0.17890 0.01100
H20 H 0.72070 0.12310 -0.00430
H21 H 0.63990 0.11250 0.02260
C24 C 0.60990 0.26830 -0.03780
C25 C 0.61080 0.28340 -0.08860
H22 H 0.66290 0.23000 -0.09520
C26 C 0.54510 0.36650 -0.13160
H23 H 0.54830 0.38130 -0.17100
C27 C 0.47530 0.43150 -0.12510
H24 H 0.42200 0.49190 -0.16040
C28 C 0.47310 0.41770 -0.07550
C29 C 0.54010 0.33420 -0.03090
H25 H 0.53730 0.32190 0.00880
C30 C 0.91640 0.66250 0.10350
H26 H 0.89110 0.75520 0.08090
H27 H 0.91650 0.66620 0.14440
C31 C 1.01760 0.63810 0.11660
C32 C 1.03810 0.62010 0.07390
H28 H 0.97940 0.62080 0.02880
C33 C 1.13250 0.59960 0.08610
H29 H 1.14620 0.58500 0.05040
C34 C 1.20770 0.59440 0.14270
H30 H 1.28140 0.58120 0.15240
C35 C 1.18860 0.61150 0.18530
H31 H 1.24820 0.60690 0.23010
C36 C 1.09390 0.63170 0.17510
H32 H 1.08080 0.64260 0.21120
C20B C 0.29150 0.31070 0.00400
C19B C 0.64950 0.79520 -0.00770
C22B C 0.68240 0.75170 -0.09830
C21B C 0.27640 0.33150 0.05080
C1B C 0.25120 0.41160 -0.04840
C18B C 0.60830 0.87880 -0.05590
H17B H 0.63530 0.81200 0.02760
C17B C 0.62340 0.85870 -0.10200
H19B H 0.69550 0.73470 -0.13410
H18B H 0.23230 0.41300 0.04970
H1B H 0.27160 0.34230 -0.07120
N1B N 0.14980 0.44260 -0.06680
H16B H 0.56370 0.95990 -0.05720
C16B C 0.58190 0.94870 -0.15430
C2B C 0.12480 0.56930 -0.09750
C30B C 0.08360 0.33750 -0.10350
C11B C 0.48620 0.99440 -0.18170
C15B C 0.64290 0.99370 -0.17370
H2B H 0.04720 0.58310 -0.11900
H3B H 0.14690 0.56800 -0.12990
C3B C 0.17540 0.68440 -0.05550
H26B H 0.10890 0.24480 -0.08090
H27B H 0.08350 0.33380 -0.14440
C31B C -0.01760 0.36190 -0.11660
C8B C 0.41390 0.95310 -0.16430
C12B C 0.45450 1.08510 -0.22740
C14B C 0.61080 1.08310 -0.21930
H15B H 0.71690 0.95860 -0.15280
H4B H 0.12130 0.75740 -0.06290
H5B H 0.20860 0.64890 -0.01090
N2B N 0.25090 0.74580 -0.06360
C32B C -0.03810 0.37990 -0.07390
C36B C -0.09390 0.36830 -0.17510
C7B C 0.36200 1.04620 -0.15320
C9B C 0.39540 0.82090 -0.15980
H12B H 0.38130 1.12310 -0.24800
C13B C 0.51550 1.12790 -0.24690
H14B H 0.65940 1.11860 -0.23350
C4B C 0.20440 0.83330 -0.11560
C23B C 0.31980 0.82110 -0.01100
H28B H 0.02060 0.37920 -0.02880
C33B C -0.13250 0.40040 -0.08610
C35B C -0.18860 0.38850 -0.18530
H32B H -0.08080 0.35740 -0.21120
C6B C 0.29400 1.00770 -0.13830
H9B H 0.37450 1.14950 -0.15610
H10B H 0.43310 0.74680 -0.16980
C10B C 0.32840 0.78370 -0.14350
H13B H 0.48900 1.19500 -0.28350
H6B H 0.17690 0.91960 -0.10510
H7B H 0.14450 0.78150 -0.15160
C5B C 0.27600 0.87480 -0.13340
H20B H 0.27930 0.87690 0.00430
H21B H 0.36010 0.88750 -0.02260
C24B C 0.39010 0.73170 0.03780
H29B H -0.14620 0.41500 -0.05040
C34B C -0.20770 0.40560 -0.14270
H31B H -0.24820 0.39310 -0.23010
H8B H 0.25340 1.08190 -0.13060
H11B H 0.31820 0.68060 -0.13880
C25B C 0.38920 0.71660 0.08860
C29B C 0.45990 0.66580 0.03090
H30B H -0.28140 0.41880 -0.15240
H22B H 0.33710 0.77000 0.09520
C26B C 0.45490 0.63350 0.13160
C28B C 0.52690 0.58230 0.07550
H25B H 0.46270 0.67810 -0.00880
H23B H 0.45170 0.61870 0.17100
C27B C 0.52470 0.56850 0.12510
H24B H 0.57800 0.50810 0.16040
O1 O 0.04900 0.13860 0.23440
C37 C 0.05780 0.01490 0.20440
H33 H 0.02430 -0.05110 0.22100
H34 H 0.02260 0.00490 0.15730
C38 C 0.14600 -0.00970 0.24260
H35 H 0.18470 0.01230 0.28900
H36 H 0.15500 -0.11210 0.23610
O2 O 0.18250 0.08250 0.20930
C39 C 0.17990 0.19950 0.23270
H37 H 0.18840 0.27150 0.20570
H38 H 0.23890 0.20890 0.27760
C40 C 0.10370 0.22980 0.22550
H39 H 0.12430 0.29760 0.26140
H40 H 0.05740 0.27930 0.18440
O3 O 0.03250 -0.02210 -0.03490
C41 C 0.09650 -0.01110 0.02150
H41 H 0.15750 0.05680 0.02710
H42 H 0.11060 -0.01570 0.06850
C42 C -0.05990 -0.09130 -0.04030
H43 H 0.00460 -0.14430 -0.02420
C42B C 0.05990 0.09130 0.04030
C41B C -0.09650 0.01110 -0.02150
O3B O -0.03250 0.02210 0.03490
H43B H -0.00460 0.14430 0.02420
H41B H -0.15750 -0.05680 -0.02710
H42B H -0.11060 0.01570 -0.06850
loop_
_geom_bond_atom_site_label_1
_geom_bond_atom_site_label_2
_geom_bond_site_symmetry_1
_geom_bond_site_symmetry_2
C1 H1 1_555 1_555
N1 C1 1_555 1_555
C2 N1 1_555 1_555
H2 C2 1_555 1_555
H3 C2 1_555 1_555
C3 C2 1_555 1_555
H4 C3 1_555 1_555
H5 C3 1_555 1_555
N2 C3 1_555 1_555
C4 N2 1_555 1_555
H6 C4 1_555 1_555
H7 C4 1_555 1_555
C5 C4 1_555 1_555
C6 C5 1_555 1_555
H8 C6 1_555 1_555
C7 C6 1_555 1_555
H9 C7 1_555 1_555
C8 C7 1_555 1_555
C9 C8 1_555 1_555
H10 C9 1_555 1_555
C10 C5 1_555 1_555
H11 C10 1_555 1_555
C11 C8 1_555 1_555
C12 C11 1_555 1_555
H12 C12 1_555 1_555
C13 C12 1_555 1_555
H13 C13 1_555 1_555
C14 C13 1_555 1_555
H14 C14 1_555 1_555
C15 C14 1_555 1_555
H15 C15 1_555 1_555
C16 C11 1_555 1_555
C17 C16 1_555 1_555
C18 C17 1_555 1_555
H16 C18 1_555 1_555
C19 C18 1_555 1_555
H17 C19 1_555 1_555
C20 C1 1_555 1_555
C21 C20 1_555 1_555
H18 C21 1_555 1_555
C22 C17 1_555 1_555
H19 C22 1_555 1_555
C23 N2 1_555 1_555
H20 C23 1_555 1_555
H21 C23 1_555 1_555
C24 C23 1_555 1_555
C25 C24 1_555 1_555
H22 C25 1_555 1_555
C26 C25 1_555 1_555
H23 C26 1_555 1_555
C27 C26 1_555 1_555
H24 C27 1_555 1_555
C28 C27 1_555 1_555
C29 C24 1_555 1_555
H25 C29 1_555 1_555
C30 N1 1_555 1_555
H26 C30 1_555 1_555
H27 C30 1_555 1_555
C31 C30 1_555 1_555
C32 C31 1_555 1_555
H28 C32 1_555 1_555
C33 C32 1_555 1_555
H29 C33 1_555 1_555
C34 C33 1_555 1_555
H30 C34 1_555 1_555
C35 C34 1_555 1_555
H31 C35 1_555 1_555
C36 C31 1_555 1_555
H32 C36 1_555 1_555
O1 C37 1_555 1_555
C37 H33 1_555 1_555
H34 C37 1_555 1_555
C38 C37 1_555 1_555
H35 C38 1_555 1_555
H36 C38 1_555 1_555
O2 C38 1_555 1_555
C39 O2 1_555 1_555
H37 C39 1_555 1_555
H38 C39 1_555 1_555
C40 O1 1_555 1_555
H39 C40 1_555 1_555
H40 C40 1_555 1_555
O3 C41 1_555 1_555
C41 H41 1_555 1_555
H42 C41 1_555 1_555
C42 O3 1_555 1_555
H43 C42 1_555 1_555
C20B C19 1_555 1_555
C19B C20 1_555 1_555
C22B C21 1_555 1_555
C21B C22 1_555 1_555
C1B C20B 1_555 1_555
C18B C19B 1_555 1_555
H17B C19B 1_555 1_555
C17B C22B 1_555 1_555
H19B C22B 1_555 1_555
H18B C21B 1_555 1_555
H1B C1B 1_555 1_555
N1B C1B 1_555 1_555
H16B C18B 1_555 1_555
C16B C17B 1_555 1_555
C2B N1B 1_555 1_555
C30B N1B 1_555 1_555
C11B C16B 1_555 1_555
C15B C16B 1_555 1_555
H2B C2B 1_555 1_555
H3B C2B 1_555 1_555
C3B C2B 1_555 1_555
H26B C30B 1_555 1_555
H27B C30B 1_555 1_555
C31B C30B 1_555 1_555
C8B C11B 1_555 1_555
C12B C11B 1_555 1_555
C14B C15B 1_555 1_555
H15B C15B 1_555 1_555
H4B C3B 1_555 1_555
H5B C3B 1_555 1_555
N2B C3B 1_555 1_555
C32B C31B 1_555 1_555
C36B C31B 1_555 1_555
C7B C8B 1_555 1_555
C9B C8B 1_555 1_555
H12B C12B 1_555 1_555
C13B C12B 1_555 1_555
H14B C14B 1_555 1_555
C4B N2B 1_555 1_555
C23B N2B 1_555 1_555
H28B C32B 1_555 1_555
C33B C32B 1_555 1_555
C35B C36B 1_555 1_555
H32B C36B 1_555 1_555
C6B C7B 1_555 1_555
H9B C7B 1_555 1_555
H10B C9B 1_555 1_555
C10B C9B 1_555 1_555
H13B C13B 1_555 1_555
H6B C4B 1_555 1_555
H7B C4B 1_555 1_555
C5B C4B 1_555 1_555
H20B C23B 1_555 1_555
H21B C23B 1_555 1_555
C24B C23B 1_555 1_555
H29B C33B 1_555 1_555
C34B C33B 1_555 1_555
H31B C35B 1_555 1_555
H8B C6B 1_555 1_555
H11B C10B 1_555 1_555
C25B C24B 1_555 1_555
C29B C24B 1_555 1_555
H30B C34B 1_555 1_555
H22B C25B 1_555 1_555
C26B C25B 1_555 1_555
C28B C29B 1_555 1_555
H25B C29B 1_555 1_555
H23B C26B 1_555 1_555
C27B C26B 1_555 1_555
H24B C27B 1_555 1_555
C42B C41 1_555 1_555
C41B C42 1_555 1_555
O3B C42B 1_555 1_555
H43B C42B 1_555 1_555
H41B C41B 1_555 1_555
H42B C41B 1_555 1_555
C9 C10 1_555 1_555
C15 C16 1_555 1_555
C28 C29 1_555 1_555
C35 C36 1_555 1_555
C39 C40 1_555 1_555
C20B C21B 1_555 1_555
C18B C17B 1_555 1_555
C14B C13B 1_555 1_555
C35B C34B 1_555 1_555
C6B C5B 1_555 1_555
C10B C5B 1_555 1_555
C28B C27B 1_555 1_555
C41B O3B 1_555 1_555

#END
