
#######################################################################
#
#                 Cambridge Crystallographic Data Centre
#                                CCDC 
#
#######################################################################
#
# If this CIF has been generated from an entry in the Cambridge 
# Structural Database, then it will include bibliographic, chemical, 
# crystal, experimental, refinement or atomic coordinate data resulting 
# from the CCDC's data processing and validation procedures.
#
#######################################################################

data_BUVKEK
_chemical_formula_moiety         'C16 H12 O2'
_chemical_name_systematic        
2-(4-methylbenzylidene)-1-benzofuran-3(2H)-one
_symmetry_cell_setting           orthorhombic
_symmetry_space_group_name_H-M   'P 21 21 21'
_symmetry_Int_Tables_number      19
_space_group_name_Hall           'P 2ac 2ab'
loop_
_symmetry_equiv_pos_site_id
_symmetry_equiv_pos_as_xyz
1 x,y,z
2 1/2-x,-y,1/2+z
3 -x,1/2+y,1/2-z
4 1/2+x,1/2-y,-z
_cell_length_a                   6.9699(6)
_cell_length_b                   13.0281(12)
_cell_length_c                   13.3700(12)
_cell_angle_alpha                90
_cell_angle_beta                 90
_cell_angle_gamma                90
_cell_volume                     1214.06
_exptl_crystal_colour            colorless
_exptl_crystal_description       block
_cell_formula_units_Z            4
loop_
_atom_site_label
_atom_site_type_symbol
_atom_site_fract_x
_atom_site_fract_y
_atom_site_fract_z
C1 C 0.0968(2) 0.61562(11) 0.57133(9)
C2 C 0.0874(2) 0.54496(12) 0.65868(10)
C3 C 0.1041(2) 0.44286(11) 0.61472(10)
C4 C 0.1090(3) 0.34385(13) 0.65437(12)
H1 H 0.0960 0.3332 0.7228
C5 C 0.1331(3) 0.26310(13) 0.59087(15)
H2 H 0.1334 0.1965 0.6159
C6 C 0.1571(3) 0.27937(13) 0.48934(15)
H3 H 0.1760 0.2230 0.4478
C7 C 0.1540(2) 0.37629(13) 0.44761(12)
H4 H 0.1713 0.3869 0.3794
C8 C 0.1239(2) 0.45628(11) 0.51289(10)
C9 C 0.0884(2) 0.71734(11) 0.57447(10)
H5 H 0.0789 0.7448 0.6385
C10 C 0.0916(2) 0.79314(9) 0.49470(10)
C11 C 0.0889(2) 0.89681(11) 0.52000(12)
H6 H 0.0852 0.9157 0.5870
C12 C 0.0915(3) 0.97183(12) 0.44749(12)
H7 H 0.0909 1.0404 0.4667
C13 C 0.0951(2) 0.94759(11) 0.34699(12)
C14 C 0.0957(2) 0.84401(11) 0.32139(11)
H8 H 0.0964 0.8256 0.2542
C15 C 0.0951(2) 0.76809(11) 0.39310(10)
H9 H 0.0971 0.6995 0.3737
C16 C 0.0965(3) 1.02959(14) 0.26778(13)
H10 H -0.0318 1.0405 0.2439
H11 H 0.1768 1.0083 0.2133
H12 H 0.1454 1.0923 0.2956
O1 O 0.0712(2) 0.56989(10) 0.74641(7)
O2 O 0.11611(15) 0.55811(7) 0.48465(7)
loop_
_geom_bond_atom_site_label_1
_geom_bond_atom_site_label_2
_geom_bond_site_symmetry_1
_geom_bond_site_symmetry_2
C1 C2 1_555 1_555
C2 C3 1_555 1_555
C3 C4 1_555 1_555
C4 H1 1_555 1_555
C5 C4 1_555 1_555
H2 C5 1_555 1_555
C6 C5 1_555 1_555
H3 C6 1_555 1_555
C7 C6 1_555 1_555
H4 C7 1_555 1_555
C8 C3 1_555 1_555
C9 C1 1_555 1_555
H5 C9 1_555 1_555
C10 C9 1_555 1_555
C11 C10 1_555 1_555
H6 C11 1_555 1_555
C12 C11 1_555 1_555
H7 C12 1_555 1_555
C13 C12 1_555 1_555
C14 C13 1_555 1_555
H8 C14 1_555 1_555
C15 C10 1_555 1_555
H9 C15 1_555 1_555
C16 C13 1_555 1_555
H10 C16 1_555 1_555
H11 C16 1_555 1_555
H12 C16 1_555 1_555
O1 C2 1_555 1_555
O2 C1 1_555 1_555
C7 C8 1_555 1_555
C8 O2 1_555 1_555
C14 C15 1_555 1_555

#END
