
#######################################################################
#
#                 Cambridge Crystallographic Data Centre
#                                CCDC 
#
#######################################################################
#
# If this CIF has been generated from an entry in the Cambridge 
# Structural Database, then it will include bibliographic, chemical, 
# crystal, experimental, refinement or atomic coordinate data resulting 
# from the CCDC's data processing and validation procedures.
#
#######################################################################

data_BUVLAH
_chemical_compound_source        'Pseudolagarobasidium acaciicola'
_chemical_formula_moiety         'C15 H22 O3'
_chemical_name_systematic        
9-(hydroxymethyl)-2,2,6-trimethyl-7-oxatricyclo[6.3.1.0^1,6^]dodec-9-en-5-one
_chemical_properties_biological  'cytotoxic activity'
_symmetry_cell_setting           orthorhombic
_symmetry_space_group_name_H-M   'P 21 21 21'
_symmetry_Int_Tables_number      19
_space_group_name_Hall           'P 2ac 2ab'
loop_
_symmetry_equiv_pos_site_id
_symmetry_equiv_pos_as_xyz
1 x,y,z
2 1/2+x,1/2-y,-z
3 -x,1/2+y,1/2-z
4 1/2-x,-y,1/2+z
_cell_length_a                   7.5450(3)
_cell_length_b                   11.6517(4)
_cell_length_c                   15.2456(5)
_cell_angle_alpha                90
_cell_angle_beta                 90
_cell_angle_gamma                90
_cell_volume                     1340.27
_exptl_crystal_colour            colorless
_exptl_crystal_description       rod
_cell_formula_units_Z            4
loop_
_atom_site_label
_atom_site_type_symbol
_atom_site_fract_x
_atom_site_fract_y
_atom_site_fract_z
C1 C 0.8878(4) 0.6561(2) 0.00635(16)
H1 H 0.7605 0.6609 0.0143
H2 H 0.9425 0.7057 0.0497
C2 C 0.9330(4) 0.7001(2) -0.08303(16)
H3 H 0.8921 0.7723 -0.0996
C3 C 1.0293(3) 0.6401(2) -0.13963(16)
C4 C 1.0913(4) 0.5236(2) -0.11157(16)
H4 H 1.1929 0.4984 -0.1467
C5 C 1.1340(3) 0.5204(2) -0.01446(16)
H5 H 1.2093 0.5840 0.0028
H6 H 1.1897 0.4486 0.0023
C6 C 0.9470(3) 0.53151(18) 0.02402(14)
C7 C 0.8481(3) 0.4438(2) -0.03764(15)
C8 C 0.8527(3) 0.3194(2) -0.00489(17)
C9 C 0.8281(4) 0.2999(3) 0.09077(18)
H7 H 0.8475 0.2196 0.1045
H8 H 0.7079 0.3197 0.1076
C10 C 0.9592(4) 0.3739(2) 0.14120(17)
H9 H 1.0787 0.3521 0.1246
H10 H 0.9459 0.3589 0.2034
C11 C 0.9344(4) 0.5029(2) 0.12450(15)
C12 C 1.0816(6) 0.5646(3) 0.17542(19)
H11 H 1.1950 0.5371 0.1561
H12 H 1.0682 0.5497 0.2370
H13 H 1.0738 0.6457 0.1650
C13 C 0.7555(5) 0.5399(3) 0.1629(2)
H14 H 0.7478 0.6222 0.1629
H15 H 0.7455 0.5121 0.2220
H16 H 0.6613 0.5086 0.1280
C14 C 0.6557(4) 0.4700(3) -0.0604(2)
H17 H 0.6132 0.4146 -0.1020
H18 H 0.6477 0.5455 -0.0854
H19 H 0.5848 0.4665 -0.0082
C15 C 1.0711(4) 0.6783(2) -0.23104(16)
H20 H 1.1964 0.6961 -0.2355
H21 H 1.0452 0.6166 -0.2718
O1 O 0.9458(3) 0.44410(15) -0.11920(10)
O2 O 0.8739(3) 0.24111(17) -0.05630(13)
O3 O 0.9715(3) 0.77504(17) -0.25322(13)
H22 H 1.0138 0.8052 -0.2971
loop_
_geom_bond_atom_site_label_1
_geom_bond_atom_site_label_2
_geom_bond_site_symmetry_1
_geom_bond_site_symmetry_2
C1 H1 1_555 1_555
H2 C1 1_555 1_555
C2 C1 1_555 1_555
H3 C2 1_555 1_555
C3 C2 1_555 1_555
C4 C3 1_555 1_555
H4 C4 1_555 1_555
C5 C4 1_555 1_555
H5 C5 1_555 1_555
H6 C5 1_555 1_555
C6 C1 1_555 1_555
C7 C6 1_555 1_555
C8 C7 1_555 1_555
C9 C8 1_555 1_555
H7 C9 1_555 1_555
H8 C9 1_555 1_555
C10 C9 1_555 1_555
H9 C10 1_555 1_555
H10 C10 1_555 1_555
C11 C6 1_555 1_555
C12 C11 1_555 1_555
H11 C12 1_555 1_555
H12 C12 1_555 1_555
H13 C12 1_555 1_555
C13 C11 1_555 1_555
H14 C13 1_555 1_555
H15 C13 1_555 1_555
H16 C13 1_555 1_555
C14 C7 1_555 1_555
H17 C14 1_555 1_555
H18 C14 1_555 1_555
H19 C14 1_555 1_555
C15 C3 1_555 1_555
H20 C15 1_555 1_555
H21 C15 1_555 1_555
O1 C4 1_555 1_555
O2 C8 1_555 1_555
O3 C15 1_555 1_555
H22 O3 1_555 1_555
C5 C6 1_555 1_555
C7 O1 1_555 1_555
C10 C11 1_555 1_555

#END
