
#######################################################################
#
#                 Cambridge Crystallographic Data Centre
#                                CCDC 
#
#######################################################################
#
# If this CIF has been generated from an entry in the Cambridge 
# Structural Database, then it will include bibliographic, chemical, 
# crystal, experimental, refinement or atomic coordinate data resulting 
# from the CCDC's data processing and validation procedures.
#
#######################################################################

data_BUVLEL
_chemical_compound_source        'Pseudolagarobasidium acaciicola'
_chemical_formula_moiety         'C14 H22 O4'
_chemical_name_systematic        
10-hydroxy-2,2,6-trimethyl-7,8-dioxatricyclo[7.3.1.0^1,6^]tridecan-5-one
_chemical_properties_biological  'cytotoxic activity'
_symmetry_cell_setting           orthorhombic
_symmetry_space_group_name_H-M   'P 21 21 21'
_symmetry_Int_Tables_number      19
_space_group_name_Hall           'P 2ac 2ab'
loop_
_symmetry_equiv_pos_site_id
_symmetry_equiv_pos_as_xyz
1 x,y,z
2 1/2+x,1/2-y,-z
3 -x,1/2+y,1/2-z
4 1/2-x,-y,1/2+z
_cell_length_a                   7.3785(2)
_cell_length_b                   14.8493(3)
_cell_length_c                   23.8265(5)
_cell_angle_alpha                90
_cell_angle_beta                 90
_cell_angle_gamma                90
_cell_volume                     2610.56
_exptl_crystal_colour            colorless
_exptl_crystal_description       block
_cell_formula_units_Z            8
loop_
_atom_site_label
_atom_site_type_symbol
_atom_site_fract_x
_atom_site_fract_y
_atom_site_fract_z
C1 C 0.8985(3) 0.85498(14) 0.26226(10)
H1 H 0.9617 0.8897 0.2338
H2 H 0.9524 0.8685 0.2984
C2 C 0.9177(3) 0.75592(15) 0.24994(9)
H3 H 1.0476 0.7421 0.2505
C3 C 0.8276(4) 0.69612(14) 0.29391(10)
H4 H 0.8224 0.6342 0.2797
C4 C 0.6375(3) 0.72655(15) 0.30944(10)
H5 H 0.6057 0.7006 0.3455
H6 H 0.5531 0.7031 0.2818
C5 C 0.6141(3) 0.82904(15) 0.31286(9)
H7 H 0.6698 0.8503 0.3473
H8 H 0.4858 0.8428 0.3149
C6 C 0.6973(3) 0.88113(13) 0.26281(8)
C7 C 0.6136(3) 0.84897(14) 0.20564(8)
C8 C 0.6669(3) 0.90792(16) 0.15533(9)
C9 C 0.6581(4) 1.00751(16) 0.16447(10)
H9 H 0.5322 1.0263 0.1652
H10 H 0.7167 1.0378 0.1333
C10 C 0.7487(4) 1.03584(16) 0.21871(11)
H11 H 0.7312 1.1001 0.2238
H12 H 0.8780 1.0250 0.2155
C11 C 0.6771(4) 0.98637(15) 0.27112(10)
C12 C 0.7900(6) 1.01919(19) 0.32143(13)
H13 H 0.9161 1.0076 0.3145
H14 H 0.7527 0.9878 0.3547
H15 H 0.7718 1.0827 0.3265
C13 C 0.4799(4) 1.01586(19) 0.28190(12)
H16 H 0.4092 1.0063 0.2486
H17 H 0.4775 1.0786 0.2916
H18 H 0.4302 0.9811 0.3122
C14 C 0.4070(4) 0.8404(2) 0.20311(12)
H19 H 0.3642 0.8107 0.2363
H20 H 0.3734 0.8059 0.1707
H21 H 0.3539 0.8993 0.2007
O1 O 0.8554(3) 0.74011(13) 0.19432(7)
O2 O 0.6601(3) 0.75607(11) 0.19439(7)
O3 O 0.9447(2) 0.69894(10) 0.34188(7)
H22 H 0.9219 0.6563 0.3626
O4 O 0.7015(3) 0.87508(13) 0.11034(7)
C15 C 0.5524(3) 0.52214(13) 0.49939(9)
H23 H 0.5223 0.4870 0.4664
H24 H 0.4653 0.5080 0.5286
C16 C 0.5433(3) 0.62175(14) 0.48554(9)
H25 H 0.4195 0.6342 0.4728
C17 C 0.5767(3) 0.67986(13) 0.53723(10)
H26 H 0.5832 0.7433 0.5261
C18 C 0.7477(3) 0.65417(14) 0.56853(9)
H27 H 0.7433 0.6803 0.6058
H28 H 0.8511 0.6800 0.5492
C19 C 0.7762(3) 0.55225(14) 0.57395(9)
H29 H 0.6949 0.5295 0.6026
H30 H 0.8992 0.5414 0.5867
C20 C 0.7445(3) 0.49811(12) 0.51942(8)
C21 C 0.8784(3) 0.52948(13) 0.47211(8)
C22 C 0.8658(3) 0.47103(14) 0.41945(9)
C23 C 0.8758(4) 0.37150(15) 0.42971(10)
H31 H 0.9974 0.3557 0.4417
H32 H 0.8508 0.3397 0.3950
C24 C 0.7409(4) 0.34227(14) 0.47429(10)
H33 H 0.7574 0.2785 0.4814
H34 H 0.6194 0.3505 0.4596
C25 C 0.7562(3) 0.39292(13) 0.53022(9)
C26 C 0.5966(5) 0.36087(17) 0.56705(14)
H35 H 0.4846 0.3706 0.5474
H36 H 0.5956 0.3942 0.6016
H37 H 0.6102 0.2979 0.5751
C27 C 0.9309(5) 0.36366(18) 0.56037(12)
H38 H 1.0330 0.3738 0.5362
H39 H 0.9235 0.3008 0.5695
H40 H 0.9452 0.3981 0.5942
C28 C 1.0797(3) 0.53526(17) 0.48775(12)
H41 H 1.0928 0.5681 0.5222
H42 H 1.1447 0.5657 0.4585
H43 H 1.1277 0.4756 0.4923
O5 O 0.6601(2) 0.63976(10) 0.43966(6)
O6 O 0.8466(2) 0.62280(9) 0.45755(6)
O7 O 0.4196(3) 0.66563(12) 0.57105(9)
H44 H 0.4143 0.7046 0.5954
O8 O 0.8587(3) 0.50446(12) 0.37288(7)
loop_
_geom_bond_atom_site_label_1
_geom_bond_atom_site_label_2
_geom_bond_site_symmetry_1
_geom_bond_site_symmetry_2
C1 H1 1_555 1_555
H2 C1 1_555 1_555
C2 C1 1_555 1_555
H3 C2 1_555 1_555
C3 C2 1_555 1_555
H4 C3 1_555 1_555
C4 C3 1_555 1_555
H5 C4 1_555 1_555
H6 C4 1_555 1_555
C5 C4 1_555 1_555
H7 C5 1_555 1_555
H8 C5 1_555 1_555
C6 C1 1_555 1_555
C7 C6 1_555 1_555
C8 C7 1_555 1_555
C9 C8 1_555 1_555
H9 C9 1_555 1_555
H10 C9 1_555 1_555
C10 C9 1_555 1_555
H11 C10 1_555 1_555
H12 C10 1_555 1_555
C11 C6 1_555 1_555
C12 C11 1_555 1_555
H13 C12 1_555 1_555
H14 C12 1_555 1_555
H15 C12 1_555 1_555
C13 C11 1_555 1_555
H16 C13 1_555 1_555
H17 C13 1_555 1_555
H18 C13 1_555 1_555
C14 C7 1_555 1_555
H19 C14 1_555 1_555
H20 C14 1_555 1_555
H21 C14 1_555 1_555
O1 C2 1_555 1_555
O2 C7 1_555 1_555
O3 C3 1_555 1_555
H22 O3 1_555 1_555
O4 C8 1_555 1_555
C15 H23 1_555 1_555
H24 C15 1_555 1_555
C16 C15 1_555 1_555
H25 C16 1_555 1_555
C17 C16 1_555 1_555
H26 C17 1_555 1_555
C18 C17 1_555 1_555
H27 C18 1_555 1_555
H28 C18 1_555 1_555
C19 C18 1_555 1_555
H29 C19 1_555 1_555
H30 C19 1_555 1_555
C20 C15 1_555 1_555
C21 C20 1_555 1_555
C22 C21 1_555 1_555
C23 C22 1_555 1_555
H31 C23 1_555 1_555
H32 C23 1_555 1_555
C24 C23 1_555 1_555
H33 C24 1_555 1_555
H34 C24 1_555 1_555
C25 C20 1_555 1_555
C26 C25 1_555 1_555
H35 C26 1_555 1_555
H36 C26 1_555 1_555
H37 C26 1_555 1_555
C27 C25 1_555 1_555
H38 C27 1_555 1_555
H39 C27 1_555 1_555
H40 C27 1_555 1_555
C28 C21 1_555 1_555
H41 C28 1_555 1_555
H42 C28 1_555 1_555
H43 C28 1_555 1_555
O5 C16 1_555 1_555
O6 C21 1_555 1_555
O7 C17 1_555 1_555
H44 O7 1_555 1_555
O8 C22 1_555 1_555
C5 C6 1_555 1_555
C10 C11 1_555 1_555
O1 O2 1_555 1_555
C19 C20 1_555 1_555
C24 C25 1_555 1_555
O5 O6 1_555 1_555

#END
