
#######################################################################
#
#                 Cambridge Crystallographic Data Centre
#                                CCDC 
#
#######################################################################
#
# If this CIF has been generated from an entry in the Cambridge 
# Structural Database, then it will include bibliographic, chemical, 
# crystal, experimental, refinement or atomic coordinate data resulting 
# from the CCDC's data processing and validation procedures.
#
#######################################################################

data_BUVXUN
_chemical_formula_moiety         'C16 H13 F1 N2'
_chemical_name_systematic        
2-(2-fluorophenyl)-1,2,3,4-tetrahydroisoquinoline-1-carbonitrile
_symmetry_cell_setting           orthorhombic
_symmetry_space_group_name_H-M   'P b c a'
_symmetry_Int_Tables_number      61
_space_group_name_Hall           '-P 2ac 2ab'
loop_
_symmetry_equiv_pos_site_id
_symmetry_equiv_pos_as_xyz
1 x,y,z
2 1/2-x,-y,1/2+z
3 -x,1/2+y,1/2-z
4 1/2+x,1/2-y,-z
5 -x,-y,-z
6 1/2+x,y,1/2-z
7 x,1/2-y,1/2+z
8 1/2-x,1/2+y,z
_cell_length_a                   7.4686(7)
_cell_length_b                   14.9034(14)
_cell_length_c                   23.239(2)
_cell_angle_alpha                90
_cell_angle_beta                 90
_cell_angle_gamma                90
_cell_volume                     2586.68
_exptl_crystal_colour            colorless
_exptl_crystal_description       block
_cell_formula_units_Z            8
loop_
_atom_site_label
_atom_site_type_symbol
_atom_site_fract_x
_atom_site_fract_y
_atom_site_fract_z
C1 C 0.04004(17) 0.83353(8) 0.04447(6)
C2 C -0.0788(2) 0.83678(9) -0.00105(6)
H1 H -0.1905 0.8097 0.0023
C3 C -0.0328(2) 0.87989(12) -0.05160(7)
H2 H -0.1129 0.8819 -0.0822
C4 C 0.1327(3) 0.91983(11) -0.05618(7)
H3 H 0.1648 0.9487 -0.0901
C5 C 0.2503(2) 0.91725(9) -0.01108(6)
H4 H 0.3615 0.9447 -0.0148
C6 C 0.20719(19) 0.87441(9) 0.04027(6)
C7 C 0.3390(2) 0.86992(10) 0.08917(6)
H5 H 0.3949 0.9282 0.0938
H6 H 0.4322 0.8271 0.0796
C8 C 0.25278(19) 0.84265(9) 0.14561(6)
H7 H 0.3444 0.8288 0.1738
H8 H 0.1801 0.8915 0.1604
C9 C -0.01306(16) 0.78504(8) 0.09931(6)
H9 H -0.0717 0.7287 0.0885
C10 C -0.14573(19) 0.84091(9) 0.13170(6)
C11 C 0.10103(16) 0.70808(8) 0.18364(6)
C12 C 0.11651(19) 0.73471(9) 0.24033(6)
H10 H 0.1507 0.7933 0.2486
C13 C 0.0823(2) 0.67604(11) 0.28485(7)
H11 H 0.0961 0.6951 0.3227
C14 C 0.0280(2) 0.58964(11) 0.27378(8)
H12 H 0.0029 0.5508 0.3040
C15 C 0.0108(2) 0.56080(10) 0.21784(8)
H13 H -0.0253 0.5024 0.2098
C16 C 0.04800(18) 0.61959(9) 0.17439(6)
F1 F 0.03496(12) 0.59052(5) 0.11898(4)
N1 N 0.14068(13) 0.76342(7) 0.13528(5)
N2 N -0.24253(19) 0.88381(10) 0.15754(6)
loop_
_geom_bond_atom_site_label_1
_geom_bond_atom_site_label_2
_geom_bond_site_symmetry_1
_geom_bond_site_symmetry_2
C1 C2 1_555 1_555
C2 H1 1_555 1_555
C3 C2 1_555 1_555
H2 C3 1_555 1_555
C4 C3 1_555 1_555
H3 C4 1_555 1_555
C5 C4 1_555 1_555
H4 C5 1_555 1_555
C6 C1 1_555 1_555
C7 C6 1_555 1_555
H5 C7 1_555 1_555
H6 C7 1_555 1_555
C8 C7 1_555 1_555
H7 C8 1_555 1_555
H8 C8 1_555 1_555
C9 C1 1_555 1_555
H9 C9 1_555 1_555
C10 C9 1_555 1_555
C11 C12 1_555 1_555
C12 H10 1_555 1_555
C13 C12 1_555 1_555
H11 C13 1_555 1_555
C14 C13 1_555 1_555
H12 C14 1_555 1_555
C15 C14 1_555 1_555
H13 C15 1_555 1_555
C16 C11 1_555 1_555
F1 C16 1_555 1_555
N1 C8 1_555 1_555
N2 C10 1_555 1_555
C5 C6 1_555 1_555
C9 N1 1_555 1_555
C11 N1 1_555 1_555
C15 C16 1_555 1_555

#END
