
#######################################################################
#
#                 Cambridge Crystallographic Data Centre
#                                CCDC 
#
#######################################################################
#
# If this CIF has been generated from an entry in the Cambridge 
# Structural Database, then it will include bibliographic, chemical, 
# crystal, experimental, refinement or atomic coordinate data resulting 
# from the CCDC's data processing and validation procedures.
#
#######################################################################

data_BUWBUR
_chemical_formula_moiety         'C19 H16 Cl1 N1 O3'
_chemical_name_systematic        
cis-3'-(4-Chlorophenyl)-3'-ethyl-1-methyl-4'H-spiro[indole-3,2'-oxetane]-2,4'(1H)-dione
_symmetry_cell_setting           orthorhombic
_symmetry_space_group_name_H-M   'P 21 21 21'
_symmetry_Int_Tables_number      19
_space_group_name_Hall           'P 2ac 2ab'
loop_
_symmetry_equiv_pos_site_id
_symmetry_equiv_pos_as_xyz
1 x,y,z
2 1/2-x,-y,1/2+z
3 -x,1/2+y,1/2-z
4 1/2+x,1/2-y,-z
_cell_length_a                   7.0157(10)
_cell_length_b                   8.7083(13)
_cell_length_c                   27.048(4)
_cell_angle_alpha                90
_cell_angle_beta                 90
_cell_angle_gamma                90
_cell_volume                     1652.49
_exptl_crystal_colour            colorless
_exptl_crystal_description       plate
_cell_formula_units_Z            4
loop_
_atom_site_label
_atom_site_type_symbol
_atom_site_fract_x
_atom_site_fract_y
_atom_site_fract_z
Cl1 Cl 0.38548(12) 0.97567(9) 0.15486(3)
O1 O 1.0390(3) 1.3219(2) 0.07601(8)
O2 O 1.1592(3) 1.5935(3) 0.13076(8)
O3 O 1.1547(4) 1.5077(3) 0.21113(8)
N1 N 0.9200(4) 1.5050(3) 0.02278(9)
C1 C 0.9342(4) 1.7201(3) 0.07158(11)
C2 C 0.9354(4) 1.8772(3) 0.08012(12)
H1 H 0.9578 1.9159 0.1124
C3 C 0.9038(4) 1.9767(4) 0.04127(12)
H2 H 0.9031 2.0844 0.0469
C4 C 0.8732(4) 1.9199(4) -0.00576(12)
H3 H 0.8519 1.9899 -0.0321
C5 C 0.8726(4) 1.7633(3) -0.01553(11)
H4 H 0.8533 1.7248 -0.0480
C6 C 0.9013(4) 1.6668(3) 0.02385(10)
C7 C 0.9140(5) 1.4119(4) -0.02182(11)
H5 H 0.9530 1.3066 -0.0140
H6 H 1.0010 1.4551 -0.0465
H7 H 0.7839 1.4112 -0.0350
C8 C 0.9831(4) 1.4513(3) 0.06670(11)
C9 C 0.9763(4) 1.5854(3) 0.10364(10)
C10 C 0.8713(4) 1.5467(3) 0.15417(10)
C11 C 1.0751(5) 1.5390(4) 0.17338(11)
C12 C 0.7665(5) 1.6864(4) 0.17586(11)
H8 H 0.8547 1.7751 0.1767
H9 H 0.6584 1.7135 0.1540
C13 C 0.6917(6) 1.6572(4) 0.22766(13)
H10 H 0.6375 1.7523 0.2410
H11 H 0.7966 1.6229 0.2489
H12 H 0.5930 1.5777 0.2265
C14 C 0.7531(4) 1.4023(3) 0.15540(10)
C15 C 0.5768(4) 1.4010(3) 0.13165(11)
H13 H 0.5338 1.4911 0.1153
C16 C 0.4632(5) 1.2711(4) 0.13132(12)
H14 H 0.3438 1.2713 0.1147
C17 C 0.5265(4) 1.1408(3) 0.15564(11)
C18 C 0.6985(5) 1.1391(3) 0.18007(11)
H15 H 0.7395 1.0494 0.1970
C19 C 0.8118(5) 1.2705(3) 0.17962(11)
H16 H 0.9311 1.2696 0.1962
loop_
_geom_bond_atom_site_label_1
_geom_bond_atom_site_label_2
_geom_bond_site_symmetry_1
_geom_bond_site_symmetry_2
Cl1 C17 1_555 1_555
O1 C8 1_555 1_555
O2 C9 1_555 1_555
O3 C11 1_555 1_555
N1 C6 1_555 1_555
C1 C2 1_555 1_555
C2 H1 1_555 1_555
C3 C2 1_555 1_555
H2 C3 1_555 1_555
C4 C3 1_555 1_555
H3 C4 1_555 1_555
C5 C4 1_555 1_555
H4 C5 1_555 1_555
C6 C1 1_555 1_555
C7 N1 1_555 1_555
H5 C7 1_555 1_555
H6 C7 1_555 1_555
H7 C7 1_555 1_555
C8 N1 1_555 1_555
C9 C1 1_555 1_555
C10 C9 1_555 1_555
C11 O2 1_555 1_555
C12 C10 1_555 1_555
H8 C12 1_555 1_555
H9 C12 1_555 1_555
C13 C12 1_555 1_555
H10 C13 1_555 1_555
H11 C13 1_555 1_555
H12 C13 1_555 1_555
C14 C10 1_555 1_555
C15 C14 1_555 1_555
H13 C15 1_555 1_555
C16 C15 1_555 1_555
H14 C16 1_555 1_555
C17 C16 1_555 1_555
C18 C17 1_555 1_555
H15 C18 1_555 1_555
C19 C14 1_555 1_555
H16 C19 1_555 1_555
C5 C6 1_555 1_555
C8 C9 1_555 1_555
C10 C11 1_555 1_555
C18 C19 1_555 1_555

#END
