
#######################################################################
#
#                 Cambridge Crystallographic Data Centre
#                                CCDC 
#
#######################################################################
#
# If this CIF has been generated from an entry in the Cambridge 
# Structural Database, then it will include bibliographic, chemical, 
# crystal, experimental, refinement or atomic coordinate data resulting 
# from the CCDC's data processing and validation procedures.
#
#######################################################################

data_BUWBAY
_chemical_formula_moiety         'C22 H22 N2 O2'
_chemical_name_systematic        
1,5-bis(1-Amino-2-methylpenta-1,4-dien-3-ylidene)-1,5-dihydronaphthalene-2,6-dione
_symmetry_cell_setting           trigonal
_symmetry_space_group_name_H-M   'P 32 2 1'
_symmetry_Int_Tables_number      154
_space_group_name_Hall           'P 32 2"'
loop_
_symmetry_equiv_pos_site_id
_symmetry_equiv_pos_as_xyz
1 x,y,z
2 -y,x-y,2/3+z
3 -x+y,-x,1/3+z
4 y,x,-z
5 x-y,-y,1/3-z
6 -x,-x+y,2/3-z
_cell_length_a                   8.679(9)
_cell_length_b                   8.679(9)
_cell_length_c                   17.714(17)
_cell_angle_alpha                90
_cell_angle_beta                 90
_cell_angle_gamma                120
_cell_volume                     1155.54
_exptl_crystal_colour            'pale yellow'
_exptl_crystal_description       block-like
_chemical_melting_point          '196-197 deg.C'
_cell_formula_units_Z            3
loop_
_atom_site_label
_atom_site_type_symbol
_atom_site_fract_x
_atom_site_fract_y
_atom_site_fract_z
O1 O 0.8914(18) 0.7415(18) 0.1959(7)
N1 N 0.477(2) 0.106(2) 0.2746(8)
C1 C 0.268(2) 0.1561(19) 0.0967(9)
C2 C 0.799(2) 0.731(2) 0.1375(8)
C3 C 0.7297(14) 0.5616(15) 0.0793(5)
C4 C 0.5813(19) 0.4019(19) 0.1088(8)
C5 C 0.596(2) 0.322(2) 0.1820(9)
C6 C 0.451(3) 0.190(3) 0.2137(11)
C7 C 0.411(2) 0.316(2) 0.0708(10)
C8 C 0.7262(10) 0.6319(11) 0.0051(4)
C9 C 0.634(3) 0.823(3) 0.0588(10)
C10 C 0.739(2) 0.849(2) 0.1245(10)
C11 C 0.744(2) 0.400(2) 0.2215(8)
O1C O 0.7415(18) 0.8914(18) -0.1959(7)
N1C N 0.106(2) 0.477(2) -0.2746(8)
C1C C 0.1561(19) 0.268(2) -0.0967(9)
C2C C 0.731(2) 0.799(2) -0.1375(8)
C3C C 0.5616(15) 0.7297(14) -0.0793(5)
C4C C 0.4019(19) 0.5813(19) -0.1088(8)
C5C C 0.322(2) 0.596(2) -0.1820(9)
C6C C 0.190(3) 0.451(3) -0.2137(11)
C7C C 0.316(2) 0.411(2) -0.0708(10)
C8C C 0.6319(11) 0.7262(10) -0.0051(4)
C9C C 0.823(3) 0.634(3) -0.0588(10)
C10C C 0.849(2) 0.739(2) -0.1245(10)
C11C C 0.400(2) 0.744(2) -0.2215(8)
loop_
_geom_bond_atom_site_label_1
_geom_bond_atom_site_label_2
_geom_bond_site_symmetry_1
_geom_bond_site_symmetry_2
O1 C2 1_555 1_555
N1 C6 1_555 1_555
C1 C7 1_555 1_555
C2 C3 1_555 1_555
C3 C4 1_555 1_555
C4 C5 1_555 1_555
C5 C6 1_555 1_555
C7 C4 1_555 1_555
C8 C3 1_555 1_555
C9 C10 1_555 1_555
C10 C2 1_555 1_555
C11 C5 1_555 1_555
O1C C2C 1_555 1_555
N1C C6C 1_555 1_555
C1C C7C 1_555 1_555
C2C C3C 1_555 1_555
C3C C4C 1_555 1_555
C4C C5C 1_555 1_555
C5C C6C 1_555 1_555
C7C C4C 1_555 1_555
C8C C8 1_555 1_555
C9C C8 1_555 1_555
C10C C2C 1_555 1_555
C11C C5C 1_555 1_555
C9 C8C 1_555 1_555
C3C C8C 1_555 1_555
C9C C10C 1_555 1_555

#END
