
#######################################################################
#
#                 Cambridge Crystallographic Data Centre
#                                CCDC 
#
#######################################################################
#
# If this CIF has been generated from an entry in the Cambridge 
# Structural Database, then it will include bibliographic, chemical, 
# crystal, experimental, refinement or atomic coordinate data resulting 
# from the CCDC's data processing and validation procedures.
#
#######################################################################

data_BUWCIG
_chemical_formula_moiety         'C16 H18 O5'
_chemical_name_systematic        
'Dimethyl 1,2,3,3a,4,9b-hexahydrocyclopenta[c]chromene-1,3-dicarboxylate'
_symmetry_cell_setting           monoclinic
_symmetry_space_group_name_H-M   'P 21/n'
_symmetry_Int_Tables_number      14
_space_group_name_Hall           '-P 2yn'
loop_
_symmetry_equiv_pos_site_id
_symmetry_equiv_pos_as_xyz
1 x,y,z
2 1/2-x,1/2+y,1/2-z
3 -x,-y,-z
4 1/2+x,1/2-y,1/2+z
_cell_length_a                   8.3057(9)
_cell_length_b                   17.3257(18)
_cell_length_c                   9.9791(11)
_cell_angle_alpha                90
_cell_angle_beta                 94.245(2)
_cell_angle_gamma                90
_cell_volume                     1432.07
_exptl_crystal_colour            colorless
_exptl_crystal_description       prismatic
_cell_formula_units_Z            4
loop_
_atom_site_label
_atom_site_type_symbol
_atom_site_fract_x
_atom_site_fract_y
_atom_site_fract_z
O1 O 0.75853(17) 0.20946(7) 0.81854(12)
O2 O 0.60450(19) 0.16332(8) 0.23317(13)
O3 O 0.63404(17) 0.08209(7) 0.40551(13)
O4 O 0.62506(18) 0.44098(8) 0.37796(15)
O5 O 0.81875(15) 0.47148(7) 0.53591(13)
C1 C 0.77142(19) 0.33962(9) 0.49786(16)
H1 H 0.8792 0.3377 0.5448
C2 C 0.7645(2) 0.28544(10) 0.37715(17)
H2 H 0.8616 0.2898 0.3294
H3 H 0.6717 0.2970 0.3156
C3 C 0.7502(2) 0.20461(10) 0.43720(17)
H4 H 0.8595 0.1836 0.4523
C4 C 0.6821(2) 0.21600(9) 0.57705(16)
H5 H 0.5831 0.1859 0.5833
C5 C 0.64672(19) 0.30278(9) 0.58697(16)
H6 H 0.5383 0.3125 0.5448
C6 C 0.65227(19) 0.33074(9) 0.73041(16)
C7 C 0.7074(2) 0.28384(10) 0.83663(17)
C8 C 0.8075(2) 0.19322(11) 0.68704(17)
H7 H 0.8293 0.1384 0.6800
H8 H 0.9070 0.2207 0.6744
C9 C 0.5987(2) 0.40429(10) 0.76192(19)
H9 H 0.5576 0.4365 0.6931
C10 C 0.6051(2) 0.43046(12) 0.8920(2)
H10 H 0.5724 0.4805 0.9099
C11 C 0.6600(2) 0.38274(12) 0.9962(2)
H11 H 0.6628 0.4003 1.0844
C12 C 0.7105(2) 0.30894(12) 0.96920(18)
H12 H 0.7463 0.2762 1.0390
C13 C 0.6541(2) 0.14984(10) 0.34606(17)
C14 C 0.5444(3) 0.02438(12) 0.3277(2)
H13 H 0.4401 0.0444 0.2982
H14 H 0.5318 -0.0206 0.3821
H15 H 0.6017 0.0108 0.2510
C15 C 0.7293(2) 0.42166(10) 0.46145(17)
C16 C 0.7778(3) 0.55213(11) 0.5252(2)
H16 H 0.7830 0.5687 0.4338
H17 H 0.8526 0.5816 0.5825
H18 H 0.6704 0.5598 0.5522
loop_
_geom_bond_atom_site_label_1
_geom_bond_atom_site_label_2
_geom_bond_site_symmetry_1
_geom_bond_site_symmetry_2
O1 C7 1_555 1_555
O2 C13 1_555 1_555
O3 C13 1_555 1_555
O4 C15 1_555 1_555
O5 C15 1_555 1_555
C1 H1 1_555 1_555
C2 C1 1_555 1_555
H2 C2 1_555 1_555
H3 C2 1_555 1_555
C3 C2 1_555 1_555
H4 C3 1_555 1_555
C4 C3 1_555 1_555
H5 C4 1_555 1_555
C5 C1 1_555 1_555
H6 C5 1_555 1_555
C6 C5 1_555 1_555
C7 C6 1_555 1_555
C8 O1 1_555 1_555
H7 C8 1_555 1_555
H8 C8 1_555 1_555
C9 C6 1_555 1_555
H9 C9 1_555 1_555
C10 C9 1_555 1_555
H10 C10 1_555 1_555
C11 C10 1_555 1_555
H11 C11 1_555 1_555
C12 C7 1_555 1_555
H12 C12 1_555 1_555
C13 C3 1_555 1_555
C14 O3 1_555 1_555
H13 C14 1_555 1_555
H14 C14 1_555 1_555
H15 C14 1_555 1_555
C15 C1 1_555 1_555
C16 O5 1_555 1_555
H16 C16 1_555 1_555
H17 C16 1_555 1_555
H18 C16 1_555 1_555
C4 C5 1_555 1_555
C4 C8 1_555 1_555
C11 C12 1_555 1_555

#END
