
#######################################################################
#
#                 Cambridge Crystallographic Data Centre
#                                CCDC 
#
#######################################################################
#
# If this CIF has been generated from an entry in the Cambridge 
# Structural Database, then it will include bibliographic, chemical, 
# crystal, experimental, refinement or atomic coordinate data resulting 
# from the CCDC's data processing and validation procedures.
#
#######################################################################

data_BUWFEG
_chemical_name_common            
'ethyl 3-amino-3-(3,4,5-tris(benzyloxy)-6-methoxytetrahydro-2H-pyran-2-yl)propanoate'
_chemical_formula_moiety         'C32 H39 N1 O7'
_chemical_name_systematic        
Ethyl-6-amino-(methyl-2,3,4-tri-O-benzyl)-6,7-dideoxy-D-glycero-\a-D-gluco-octopyranuronate
_symmetry_cell_setting           monoclinic
_symmetry_space_group_name_H-M   'P 21'
_symmetry_Int_Tables_number      4
_space_group_name_Hall           'P 2yb'
loop_
_symmetry_equiv_pos_site_id
_symmetry_equiv_pos_as_xyz
1 x,y,z
2 -x,1/2+y,-z
_cell_length_a                   9.945(2)
_cell_length_b                   27.644(6)
_cell_length_c                   20.661(4)
_cell_angle_alpha                90
_cell_angle_beta                 90.17(3)
_cell_angle_gamma                90
_cell_volume                     5680.09
_exptl_crystal_colour            colorless
_exptl_crystal_description       Rod
_cell_formula_units_Z            8
loop_
_atom_site_label
_atom_site_type_symbol
_atom_site_fract_x
_atom_site_fract_y
_atom_site_fract_z
O1 O 0.0809(5) 0.69394(16) 0.1668(2)
C1 C 0.0868(7) 0.7443(2) 0.1774(3)
H1 H 0.1616 0.7513 0.2085
N1 N -0.0771(6) 0.6109(2) 0.1912(3)
H2 H -0.012(5) 0.620(2) 0.2206(14)
H3 H -0.084(7) 0.5779(10) 0.1936(18)
O2 O -0.0331(5) 0.76275(17) 0.2028(2)
C2 C 0.1157(7) 0.7703(2) 0.1140(3)
H4 H 0.2082 0.7612 0.0996
O3 O 0.1108(5) 0.82160(16) 0.1209(2)
C3 C 0.0165(7) 0.7563(2) 0.0605(3)
H5 H -0.0734 0.7712 0.0691
O4 O 0.0680(5) 0.77311(17) 0.0000(2)
C4 C 0.0032(7) 0.7013(2) 0.0559(3)
H6 H 0.0886 0.6873 0.0386
O5 O -0.1067(5) 0.68759(17) 0.0150(2)
C5 C -0.0257(7) 0.6798(2) 0.1227(3)
H7 H -0.1124 0.6935 0.1389
O6 O 0.0047(5) 0.52101(17) 0.1182(2)
C6 C -0.0338(7) 0.6249(3) 0.1260(3)
H8 H -0.1056 0.6144 0.0951
O7 O 0.1835(5) 0.53198(16) 0.0550(2)
C7 C 0.0868(7) 0.5475(2) 0.0941(3)
C8 C 0.1940(8) 0.4801(2) 0.0451(3)
H9 H 0.1748 0.4631 0.0862
H10 H 0.2871 0.4719 0.0321
C9 C 0.0976(8) 0.4627(3) -0.0063(4)
H11 H 0.1123 0.4810 -0.0463
H12 H 0.0050 0.4676 0.0084
H13 H 0.1128 0.4282 -0.0145
C10 C -0.0673(7) 0.7401(3) 0.2629(3)
H14 H -0.1012 0.7074 0.2545
H15 H -0.1368 0.7591 0.2847
H16 H 0.0128 0.7382 0.2905
C11 C 0.2298(8) 0.8423(3) 0.1451(5)
H17 H 0.3032 0.8378 0.1134
H18 H 0.2560 0.8259 0.1858
C12 C 0.2102(7) 0.8952(3) 0.1577(3)
C13 C 0.0885(7) 0.9183(3) 0.1471(3)
H19 H 0.0141 0.9005 0.1308
C14 C 0.0746(8) 0.9677(3) 0.1602(3)
H20 H -0.0091 0.9834 0.1533
C15 C 0.1853(8) 0.9937(3) 0.1837(4)
H21 H 0.1774 1.0274 0.1919
C16 C 0.3043(8) 0.9706(3) 0.1946(3)
H22 H 0.3787 0.9884 0.2111
C17 C 0.3183(7) 0.9217(3) 0.1822(3)
H23 H 0.4018 0.9061 0.1903
C18 C 0.0049(7) 0.8154(3) -0.0247(3)
H24 H 0.0007 0.8405 0.0095
H25 H -0.0882 0.8078 -0.0384
C19 C 0.0832(7) 0.8341(3) -0.0812(3)
C20 C 0.0440(8) 0.8772(3) -0.1109(3)
H26 H -0.0349 0.8933 -0.0966
C21 C 0.1181(9) 0.8965(3) -0.1606(4)
H27 H 0.0909 0.9262 -0.1796
C22 C 0.2299(8) 0.8736(3) -0.1828(3)
H28 H 0.2804 0.8874 -0.2171
C23 C 0.2699(7) 0.8304(3) -0.1555(3)
H29 H 0.3477 0.8142 -0.1709
C24 C 0.1946(7) 0.8107(3) -0.1048(3)
H30 H 0.2209 0.7807 -0.0864
C25 C -0.0829(9) 0.6874(3) -0.0532(3)
H31 H 0.0076 0.6741 -0.0620
H32 H -0.0860 0.7209 -0.0699
C26 C -0.1868(7) 0.6574(3) -0.0870(3)
C27 C -0.2416(8) 0.6741(3) -0.1455(4)
H33 H -0.2124 0.7039 -0.1637
C28 C -0.3412(8) 0.6459(3) -0.1770(4)
H34 H -0.3782 0.6565 -0.2170
C29 C -0.3844(9) 0.6035(3) -0.1503(4)
H35 H -0.4510 0.5849 -0.1719
C30 C -0.3327(9) 0.5877(3) -0.0926(4)
H36 H -0.3649 0.5587 -0.0736
C31 C -0.2338(8) 0.6141(3) -0.0625(4)
H37 H -0.1964 0.6022 -0.0232
C32 C 0.0969(7) 0.6013(2) 0.1047(3)
H38 H 0.1267 0.6168 0.0640
H39 H 0.1666 0.6077 0.1379
O8 O 0.5797(5) 0.69222(16) 0.1736(2)
N2 N 0.4212(6) 0.6086(2) 0.1905(3)
H40 H 0.487(5) 0.616(2) 0.2210(14)
H41 H 0.410(7) 0.5757(10) 0.1905(18)
C33 C 0.5833(7) 0.7424(2) 0.1875(3)
H42 H 0.6540 0.7485 0.2211
O9 O 0.4593(5) 0.75973(17) 0.2107(2)
C34 C 0.6184(7) 0.7705(2) 0.1271(3)
H43 H 0.7126 0.7621 0.1145
O10 O 0.6110(5) 0.82150(17) 0.1375(2)
C35 C 0.5252(7) 0.7579(2) 0.0705(3)
H44 H 0.4344 0.7724 0.0781
O11 O 0.5807(5) 0.77698(16) 0.0122(2)
C36 C 0.5117(7) 0.7033(2) 0.0621(3)
H45 H 0.5975 0.6895 0.0451
O12 O 0.4017(5) 0.69114(17) 0.0196(2)
C37 C 0.4762(7) 0.6795(2) 0.1269(3)
H46 H 0.3885 0.6930 0.1422
O13 O 0.4886(5) 0.52231(17) 0.1029(2)
C38 C 0.4669(7) 0.6247(2) 0.1268(3)
H47 H 0.3954 0.6156 0.0949
O14 O 0.6996(5) 0.53022(17) 0.0660(2)
C39 C 0.5857(7) 0.5473(2) 0.0915(3)
C40 C 0.7125(8) 0.4778(2) 0.0577(3)
H48 H 0.6513 0.4612 0.0882
H49 H 0.8057 0.4679 0.0683
C41 C 0.6799(9) 0.4625(3) -0.0096(3)
H50 H 0.5870 0.4715 -0.0199
H51 H 0.6902 0.4273 -0.0134
H52 H 0.7411 0.4786 -0.0399
C42 C 0.4234(8) 0.7369(3) 0.2703(3)
H53 H 0.3479 0.7543 0.2899
H54 H 0.5005 0.7374 0.2999
H55 H 0.3971 0.7033 0.2619
C43 C 0.7358(12) 0.8452(4) 0.1331(11)
H56 H 0.7636 0.8486 0.0873
H57 H 0.8062 0.8272 0.1570
C44 C 0.711(2) 0.8972(5) 0.1652(8)
C45 C 0.7432(16) 0.9201(6) 0.2231(8)
H58 H 0.7786 0.9015 0.2579
C46 C 0.7248(18) 0.9700(6) 0.2314(7)
H59 H 0.7468 0.9850 0.2714
C47 C 0.6747(18) 0.9968(6) 0.1812(8)
H60 H 0.6629 1.0306 0.1866
C48 C 0.6411(18) 0.9756(6) 0.1231(9)
H61 H 0.6028 0.9945 0.0893
C49 C 0.664(2) 0.9264(6) 0.1143(10)
H62 H 0.6465 0.9122 0.0732
C50 C 0.5171(7) 0.8199(2) -0.0098(3)
H63 H 0.5253 0.8454 0.0236
H64 H 0.4203 0.8137 -0.0174
C51 C 0.5816(7) 0.8368(2) -0.0716(3)
C52 C 0.5703(7) 0.8851(2) -0.0895(3)
H65 H 0.5263 0.9074 -0.0616
C53 C 0.6227(7) 0.9009(3) -0.1476(4)
H66 H 0.6142 0.9340 -0.1593
C54 C 0.6867(8) 0.8697(3) -0.1887(4)
H67 H 0.7225 0.8810 -0.2285
C55 C 0.6987(8) 0.8212(3) -0.1715(3)
H68 H 0.7431 0.7992 -0.1995
C56 C 0.6458(8) 0.8050(3) -0.1132(3)
H69 H 0.6536 0.7718 -0.1018
C57 C 0.4301(8) 0.6919(3) -0.0480(3)
H70 H 0.5208 0.6784 -0.0559
H71 H 0.4291 0.7257 -0.0639
C58 C 0.3267(7) 0.6627(2) -0.0840(3)
C59 C 0.2788(8) 0.6782(3) -0.1442(4)
H72 H 0.3095 0.7080 -0.1618
C60 C 0.1867(9) 0.6504(3) -0.1785(4)
H73 H 0.1573 0.6609 -0.2200
C61 C 0.1373(10) 0.6079(3) -0.1534(4)
H74 H 0.0731 0.5894 -0.1770
C62 C 0.1821(9) 0.5925(3) -0.0936(4)
H75 H 0.1477 0.5635 -0.0754
C63 C 0.2772(8) 0.6192(2) -0.0601(3)
H76 H 0.3094 0.6076 -0.0197
C64 C 0.5978(7) 0.6008(2) 0.1043(3)
H77 H 0.6282 0.6170 0.0642
H78 H 0.6678 0.6060 0.1378
O15 O 0.8282(4) 0.53860(16) 0.3220(2)
C72 C 0.8272(7) 0.4882(2) 0.3093(3)
H86 H 0.8970 0.4812 0.2758
N3 N 0.6716(6) 0.6225(2) 0.3023(3)
H87 H 0.740(5) 0.616(2) 0.2730(14)
H88 H 0.658(7) 0.6554(11) 0.3022(18)
O16 O 0.7035(5) 0.47174(17) 0.2863(2)
C73 C 0.8640(7) 0.4607(2) 0.3711(3)
H89 H 0.9589 0.4688 0.3831
O17 O 0.8536(5) 0.40943(16) 0.3623(2)
C74 C 0.7728(7) 0.4749(2) 0.4267(3)
H90 H 0.6815 0.4608 0.4194
O18 O 0.8280(5) 0.45578(16) 0.4854(2)
C75 C 0.7605(6) 0.5299(2) 0.4335(3)
H91 H 0.8469 0.5435 0.4503
O19 O 0.6531(5) 0.54320(17) 0.4754(2)
C76 C 0.7275(6) 0.5524(2) 0.3677(3)
H92 H 0.6391 0.5392 0.3526
O20 O 0.7554(5) 0.71053(17) 0.3774(2)
C77 C 0.7197(7) 0.6077(2) 0.3669(3)
H93 H 0.6495 0.6174 0.3989
O21 O 0.9385(5) 0.69909(17) 0.4395(2)
C78 C 0.8391(8) 0.6839(3) 0.3999(3)
C79 C 0.9455(9) 0.7507(3) 0.4522(4)
H94 H 0.9238 0.7688 0.4121
H95 H 1.0380 0.7595 0.4656
C80 C 0.8476(9) 0.7647(3) 0.5050(4)
H96 H 0.7559 0.7567 0.4912
H97 H 0.8542 0.7995 0.5132
H98 H 0.8694 0.7469 0.5446
C81 C 0.6634(8) 0.4951(3) 0.2275(3)
H99 H 0.7407 0.4975 0.1984
H100 H 0.6299 0.5276 0.2373
H101 H 0.5920 0.4762 0.2066
C82 C 0.9732(9) 0.3872(3) 0.3414(5)
H102 H 1.0463 0.3938 0.3729
H103 H 1.0002 0.4006 0.2990
C83 C 0.9511(8) 0.3333(3) 0.3356(4)
C84 C 0.9796(8) 0.3096(3) 0.2785(4)
H104 H 1.0131 0.3275 0.2427
C85 C 0.9602(8) 0.2604(3) 0.2725(4)
H105 H 0.9807 0.2447 0.2329
C86 C 0.9116(8) 0.2341(3) 0.3234(4)
H106 H 0.8962 0.2004 0.3187
C87 C 0.8849(8) 0.2566(3) 0.3814(4)
H107 H 0.8535 0.2383 0.4172
C88 C 0.9042(8) 0.3063(3) 0.3875(4)
H108 H 0.8851 0.3219 0.4274
C89 C 0.7609(8) 0.4133(3) 0.5077(3)
H109 H 0.7684 0.3873 0.4750
H110 H 0.6643 0.4203 0.5145
C90 C 0.8248(7) 0.3971(3) 0.5708(3)
C91 C 0.8168(7) 0.3485(3) 0.5871(3)
H111 H 0.7787 0.3261 0.5574
C92 C 0.8643(8) 0.3322(3) 0.6469(4)
H112 H 0.8560 0.2990 0.6583
C93 C 0.9233(8) 0.3643(3) 0.6893(4)
H113 H 0.9568 0.3533 0.7298
C94 C 0.9336(8) 0.4128(3) 0.6725(3)
H114 H 0.9742 0.4349 0.7018
C95 C 0.8857(7) 0.4290(3) 0.6138(3)
H115 H 0.8943 0.4622 0.6026
C96 C 0.6808(8) 0.5401(3) 0.5428(3)
H116 H 0.7741 0.5508 0.5515
H117 H 0.6720 0.5061 0.5574
C97 C 0.5840(8) 0.5715(3) 0.5793(3)
C98 C 0.5306(8) 0.5550(3) 0.6379(3)
H118 H 0.5542 0.5239 0.6537
C99 C 0.4426(8) 0.5842(3) 0.6731(4)
H119 H 0.4061 0.5730 0.7128
C100 C 0.4086(9) 0.6296(3) 0.6502(4)
H120 H 0.3498 0.6498 0.6742
C101 C 0.4606(8) 0.6452(3) 0.5922(4)
H121 H 0.4370 0.6763 0.5762
C102 C 0.5459(8) 0.6165(3) 0.5574(4)
H122 H 0.5796 0.6279 0.5172
C103 C 0.8514(7) 0.6308(2) 0.3882(3)
H123 H 0.8829 0.6150 0.4284
H124 H 0.9201 0.6252 0.3544
O22 O 0.3265(4) 0.54396(16) 0.3338(2)
C104 C 0.3292(7) 0.4931(2) 0.3238(3)
H125 H 0.4039 0.4855 0.2932
N4 N 0.1739(6) 0.6283(2) 0.3093(3)
H126 H 0.243(5) 0.620(2) 0.2810(14)
H127 H 0.163(7) 0.6610(10) 0.3084(18)
O23 O 0.2092(5) 0.47540(17) 0.2975(2)
C105 C 0.3573(7) 0.4673(2) 0.3875(3)
H128 H 0.4503 0.4758 0.4022
O24 O 0.3488(5) 0.41582(17) 0.3806(2)
C106 C 0.2583(7) 0.4823(2) 0.4398(3)
H129 H 0.1677 0.4683 0.4303
O25 O 0.3070(5) 0.46457(18) 0.5009(2)
C107 C 0.2487(7) 0.5372(2) 0.4440(3)
H130 H 0.3348 0.5504 0.4617
O26 O 0.1408(5) 0.55057(17) 0.4854(2)
C108 C 0.2223(7) 0.5585(2) 0.3771(3)
H131 H 0.1346 0.5458 0.3606
O27 O 0.2444(5) 0.71524(17) 0.3969(2)
C109 C 0.2180(7) 0.6140(2) 0.3751(3)
H132 H 0.1472 0.6248 0.4061
O28 O 0.4575(5) 0.70668(17) 0.4334(2)
C110 C 0.3417(7) 0.6900(3) 0.4082(3)
C111 C 0.4714(8) 0.7586(3) 0.4400(3)
H133 H 0.4074 0.7748 0.4104
H134 H 0.5636 0.7682 0.4274
C112 C 0.4451(9) 0.7750(3) 0.5085(3)
H135 H 0.4576 0.8101 0.5114
H136 H 0.5080 0.7588 0.5380
H137 H 0.3527 0.7667 0.5205
C113 C 0.1758(8) 0.4970(3) 0.2365(3)
H138 H 0.2575 0.5006 0.2106
H139 H 0.1354 0.5289 0.2439
H140 H 0.1116 0.4763 0.2135
C114 C 0.4678(8) 0.3946(3) 0.3579(5)
H141 H 0.5397 0.3984 0.3908
H142 H 0.4970 0.4113 0.3179
C115 C 0.4466(7) 0.3412(3) 0.3439(3)
C116 C 0.5550(7) 0.3150(3) 0.3211(3)
H143 H 0.6398 0.3302 0.3152
C117 C 0.5389(8) 0.2658(3) 0.3066(3)
H144 H 0.6128 0.2475 0.2910
C118 C 0.4139(8) 0.2437(3) 0.3152(4)
H145 H 0.4023 0.2104 0.3052
C119 C 0.3091(8) 0.2701(3) 0.3381(3)
H146 H 0.2241 0.2551 0.3442
C120 C 0.3252(7) 0.3189(2) 0.3527(3)
H147 H 0.2513 0.3369 0.3690
C121 C 0.2386(8) 0.4234(3) 0.5252(3)
H148 H 0.2283 0.3989 0.4906
H149 H 0.1479 0.4328 0.5403
C122 C 0.3187(8) 0.4024(3) 0.5807(3)
C123 C 0.2725(9) 0.3605(3) 0.6099(4)
H150 H 0.1892 0.3468 0.5966
C124 C 0.3468(9) 0.3383(3) 0.6586(4)
H151 H 0.3163 0.3088 0.6770
C125 C 0.4643(9) 0.3588(3) 0.6801(4)
H152 H 0.5137 0.3440 0.7142
C126 C 0.5103(8) 0.4006(3) 0.6523(3)
H153 H 0.5923 0.4146 0.6667
C127 C 0.4367(7) 0.4224(3) 0.6031(3)
H154 H 0.4685 0.4516 0.5845
C128 C 0.1709(17) 0.5512(6) 0.5544(6)
H155 H 0.2595 0.5665 0.5620
H156 H 0.1744 0.5176 0.5712
C129 C 0.063(3) 0.5792(10) 0.5889(14)
C130 C 0.016(2) 0.5619(6) 0.6478(8)
H157 H 0.0537 0.5333 0.6656
C131 C -0.084(3) 0.5856(10) 0.6803(12)
H158 H -0.1127 0.5741 0.7213
C132 C -0.142(2) 0.6268(8) 0.6533(8)
H159 H -0.2121 0.6433 0.6755
C133 C -0.0974(17) 0.6435(5) 0.5932(7)
H160 H -0.1377 0.6712 0.5742
C134 C 0.0051(18) 0.6198(6) 0.5616(7)
H161 H 0.0361 0.6314 0.5210
C135 C 0.3511(7) 0.6367(3) 0.3966(4)
H162 H 0.3816 0.6207 0.4369
H163 H 0.4198 0.6306 0.3630
C65? C 0.7276(19) 0.8434(7) 0.1665(11)
H79? H 0.8113 0.8288 0.1495
H80? H 0.7262 0.8400 0.2142
C66? C 0.715(4) 0.8978(9) 0.1458(15)
C67? C 0.763(4) 0.9080(12) 0.2068(16)
H81? H 0.8021 0.8831 0.2325
C68? C 0.755(4) 0.9548(13) 0.2305(15)
H82? H 0.7872 0.9618 0.2728
C69? C 0.701(4) 0.9909(14) 0.194(2)
H83? H 0.7047 1.0237 0.2075
C70? C 0.642(6) 0.9783(15) 0.137(2)
H84? H 0.6026 1.0032 0.1113
C71? C 0.635(5) 0.9311(14) 0.114(3)
H85? H 0.5781 0.9222 0.0794
C136? C 0.1885(14) 0.5827(5) 0.5354(6)
H164? H 0.2107 0.6148 0.5171
H165? H 0.2699 0.5693 0.5565
C137? C 0.075(4) 0.5867(11) 0.5833(17)
C138? C 0.0652(18) 0.5508(6) 0.6302(8)
H166? H 0.1244 0.5238 0.6292
C139? C -0.0300(17) 0.5544(6) 0.6780(7)
H167? H -0.0363 0.5299 0.7101
C140? C -0.117(2) 0.5936(7) 0.6795(12)
H168? H -0.1822 0.5959 0.7128
C141? C -0.109(2) 0.6296(7) 0.6324(11)
H169? H -0.1702 0.6560 0.6324
C142? C -0.012(2) 0.6256(7) 0.5864(9)
H170? H -0.0028 0.6507 0.5553
loop_
_geom_bond_atom_site_label_1
_geom_bond_atom_site_label_2
_geom_bond_site_symmetry_1
_geom_bond_site_symmetry_2
O1 C1 1_555 1_555
C1 H1 1_555 1_555
N1 H2 1_555 1_555
H3 N1 1_555 1_555
O2 C1 1_555 1_555
C2 C1 1_555 1_555
H4 C2 1_555 1_555
O3 C2 1_555 1_555
C3 C2 1_555 1_555
H5 C3 1_555 1_555
O4 C3 1_555 1_555
C4 C3 1_555 1_555
H6 C4 1_555 1_555
O5 C4 1_555 1_555
C5 O1 1_555 1_555
H7 C5 1_555 1_555
O6 C7 1_555 1_555
C6 N1 1_555 1_555
H8 C6 1_555 1_555
O7 C7 1_555 1_555
C7 C32 1_555 1_555
C8 O7 1_555 1_555
H9 C8 1_555 1_555
H10 C8 1_555 1_555
C9 C8 1_555 1_555
H11 C9 1_555 1_555
H12 C9 1_555 1_555
H13 C9 1_555 1_555
C10 O2 1_555 1_555
H14 C10 1_555 1_555
H15 C10 1_555 1_555
H16 C10 1_555 1_555
C11 O3 1_555 1_555
H17 C11 1_555 1_555
H18 C11 1_555 1_555
C12 C11 1_555 1_555
C13 C12 1_555 1_555
H19 C13 1_555 1_555
C14 C13 1_555 1_555
H20 C14 1_555 1_555
C15 C14 1_555 1_555
H21 C15 1_555 1_555
C16 C15 1_555 1_555
H22 C16 1_555 1_555
C17 C12 1_555 1_555
H23 C17 1_555 1_555
C18 O4 1_555 1_555
H24 C18 1_555 1_555
H25 C18 1_555 1_555
C19 C18 1_555 1_555
C20 C19 1_555 1_555
H26 C20 1_555 1_555
C21 C20 1_555 1_555
H27 C21 1_555 1_555
C22 C21 1_555 1_555
H28 C22 1_555 1_555
C23 C22 1_555 1_555
H29 C23 1_555 1_555
C24 C19 1_555 1_555
H30 C24 1_555 1_555
C25 O5 1_555 1_555
H31 C25 1_555 1_555
H32 C25 1_555 1_555
C26 C25 1_555 1_555
C27 C26 1_555 1_555
H33 C27 1_555 1_555
C28 C27 1_555 1_555
H34 C28 1_555 1_555
C29 C28 1_555 1_555
H35 C29 1_555 1_555
C30 C29 1_555 1_555
H36 C30 1_555 1_555
C31 C26 1_555 1_555
H37 C31 1_555 1_555
C32 C6 1_555 1_555
H38 C32 1_555 1_555
H39 C32 1_555 1_555
O8 C33 1_555 1_555
N2 H40 1_555 1_555
H41 N2 1_555 1_555
C33 H42 1_555 1_555
O9 C33 1_555 1_555
C34 C33 1_555 1_555
H43 C34 1_555 1_555
O10 C34 1_555 1_555
C35 C34 1_555 1_555
H44 C35 1_555 1_555
O11 C35 1_555 1_555
C36 C35 1_555 1_555
H45 C36 1_555 1_555
O12 C36 1_555 1_555
C37 O8 1_555 1_555
H46 C37 1_555 1_555
O13 C39 1_555 1_555
C38 N2 1_555 1_555
H47 C38 1_555 1_555
O14 C39 1_555 1_555
C39 C64 1_555 1_555
C40 O14 1_555 1_555
H48 C40 1_555 1_555
H49 C40 1_555 1_555
C41 C40 1_555 1_555
H50 C41 1_555 1_555
H51 C41 1_555 1_555
H52 C41 1_555 1_555
C42 O9 1_555 1_555
H53 C42 1_555 1_555
H54 C42 1_555 1_555
H55 C42 1_555 1_555
C43 O10 1_555 1_555
H56 C43 1_555 1_555
H57 C43 1_555 1_555
C44 C43 1_555 1_555
C45 C44 1_555 1_555
H58 C45 1_555 1_555
C46 C45 1_555 1_555
H59 C46 1_555 1_555
C47 C46 1_555 1_555
H60 C47 1_555 1_555
C48 C47 1_555 1_555
H61 C48 1_555 1_555
C49 C44 1_555 1_555
H62 C49 1_555 1_555
C50 O11 1_555 1_555
H63 C50 1_555 1_555
H64 C50 1_555 1_555
C51 C50 1_555 1_555
C52 C51 1_555 1_555
H65 C52 1_555 1_555
C53 C52 1_555 1_555
H66 C53 1_555 1_555
C54 C53 1_555 1_555
H67 C54 1_555 1_555
C55 C54 1_555 1_555
H68 C55 1_555 1_555
C56 C51 1_555 1_555
H69 C56 1_555 1_555
C57 O12 1_555 1_555
H70 C57 1_555 1_555
H71 C57 1_555 1_555
C58 C57 1_555 1_555
C59 C58 1_555 1_555
H72 C59 1_555 1_555
C60 C59 1_555 1_555
H73 C60 1_555 1_555
C61 C60 1_555 1_555
H74 C61 1_555 1_555
C62 C61 1_555 1_555
H75 C62 1_555 1_555
C63 C58 1_555 1_555
H76 C63 1_555 1_555
C64 C38 1_555 1_555
H77 C64 1_555 1_555
H78 C64 1_555 1_555
O15 C72 1_555 1_555
C72 H86 1_555 1_555
N3 H87 1_555 1_555
H88 N3 1_555 1_555
O16 C72 1_555 1_555
C73 C72 1_555 1_555
H89 C73 1_555 1_555
O17 C73 1_555 1_555
C74 C73 1_555 1_555
H90 C74 1_555 1_555
O18 C74 1_555 1_555
C75 C74 1_555 1_555
H91 C75 1_555 1_555
O19 C75 1_555 1_555
C76 O15 1_555 1_555
H92 C76 1_555 1_555
O20 C78 1_555 1_555
C77 N3 1_555 1_555
H93 C77 1_555 1_555
O21 C78 1_555 1_555
C78 C103 1_555 1_555
C79 O21 1_555 1_555
H94 C79 1_555 1_555
H95 C79 1_555 1_555
C80 C79 1_555 1_555
H96 C80 1_555 1_555
H97 C80 1_555 1_555
H98 C80 1_555 1_555
C81 O16 1_555 1_555
H99 C81 1_555 1_555
H100 C81 1_555 1_555
H101 C81 1_555 1_555
C82 O17 1_555 1_555
H102 C82 1_555 1_555
H103 C82 1_555 1_555
C83 C82 1_555 1_555
C84 C83 1_555 1_555
H104 C84 1_555 1_555
C85 C84 1_555 1_555
H105 C85 1_555 1_555
C86 C85 1_555 1_555
H106 C86 1_555 1_555
C87 C86 1_555 1_555
H107 C87 1_555 1_555
C88 C83 1_555 1_555
H108 C88 1_555 1_555
C89 O18 1_555 1_555
H109 C89 1_555 1_555
H110 C89 1_555 1_555
C90 C89 1_555 1_555
C91 C90 1_555 1_555
H111 C91 1_555 1_555
C92 C91 1_555 1_555
H112 C92 1_555 1_555
C93 C92 1_555 1_555
H113 C93 1_555 1_555
C94 C93 1_555 1_555
H114 C94 1_555 1_555
C95 C90 1_555 1_555
H115 C95 1_555 1_555
C96 O19 1_555 1_555
H116 C96 1_555 1_555
H117 C96 1_555 1_555
C97 C96 1_555 1_555
C98 C97 1_555 1_555
H118 C98 1_555 1_555
C99 C98 1_555 1_555
H119 C99 1_555 1_555
C100 C99 1_555 1_555
H120 C100 1_555 1_555
C101 C100 1_555 1_555
H121 C101 1_555 1_555
C102 C97 1_555 1_555
H122 C102 1_555 1_555
C103 C77 1_555 1_555
H123 C103 1_555 1_555
H124 C103 1_555 1_555
O22 C104 1_555 1_555
C104 H125 1_555 1_555
N4 H126 1_555 1_555
H127 N4 1_555 1_555
O23 C104 1_555 1_555
C105 C104 1_555 1_555
H128 C105 1_555 1_555
O24 C105 1_555 1_555
C106 C105 1_555 1_555
H129 C106 1_555 1_555
O25 C106 1_555 1_555
C107 C106 1_555 1_555
H130 C107 1_555 1_555
O26 C107 1_555 1_555
C108 O22 1_555 1_555
H131 C108 1_555 1_555
O27 C110 1_555 1_555
C109 N4 1_555 1_555
H132 C109 1_555 1_555
O28 C110 1_555 1_555
C110 C135 1_555 1_555
C111 O28 1_555 1_555
H133 C111 1_555 1_555
H134 C111 1_555 1_555
C112 C111 1_555 1_555
H135 C112 1_555 1_555
H136 C112 1_555 1_555
H137 C112 1_555 1_555
C113 O23 1_555 1_555
H138 C113 1_555 1_555
H139 C113 1_555 1_555
H140 C113 1_555 1_555
C114 O24 1_555 1_555
H141 C114 1_555 1_555
H142 C114 1_555 1_555
C115 C114 1_555 1_555
C116 C115 1_555 1_555
H143 C116 1_555 1_555
C117 C116 1_555 1_555
H144 C117 1_555 1_555
C118 C117 1_555 1_555
H145 C118 1_555 1_555
C119 C118 1_555 1_555
H146 C119 1_555 1_555
C120 C115 1_555 1_555
H147 C120 1_555 1_555
C121 O25 1_555 1_555
H148 C121 1_555 1_555
H149 C121 1_555 1_555
C122 C121 1_555 1_555
C123 C122 1_555 1_555
H150 C123 1_555 1_555
C124 C123 1_555 1_555
H151 C124 1_555 1_555
C125 C124 1_555 1_555
H152 C125 1_555 1_555
C126 C125 1_555 1_555
H153 C126 1_555 1_555
C127 C122 1_555 1_555
H154 C127 1_555 1_555
C128 O26 1_555 1_555
H155 C128 1_555 1_555
H156 C128 1_555 1_555
C129 C128 1_555 1_555
C130 C129 1_555 1_555
H157 C130 1_555 1_555
C131 C130 1_555 1_555
H158 C131 1_555 1_555
C132 C131 1_555 1_555
H159 C132 1_555 1_555
C133 C132 1_555 1_555
H160 C133 1_555 1_555
C134 C129 1_555 1_555
H161 C134 1_555 1_555
C135 C109 1_555 1_555
H162 C135 1_555 1_555
H163 C135 1_555 1_555
C4 C5 1_555 1_555
C5 C6 1_555 1_555
C16 C17 1_555 1_555
C23 C24 1_555 1_555
C30 C31 1_555 1_555
C36 C37 1_555 1_555
C37 C38 1_555 1_555
C48 C49 1_555 1_555
C55 C56 1_555 1_555
C62 C63 1_555 1_555
C75 C76 1_555 1_555
C76 C77 1_555 1_555
C87 C88 1_555 1_555
C94 C95 1_555 1_555
C101 C102 1_555 1_555
C107 C108 1_555 1_555
C108 C109 1_555 1_555
C119 C120 1_555 1_555
C126 C127 1_555 1_555
C133 C134 1_555 1_555

#END
