
#######################################################################
#
#                 Cambridge Crystallographic Data Centre
#                                CCDC 
#
#######################################################################
#
# If this CIF has been generated from an entry in the Cambridge 
# Structural Database, then it will include bibliographic, chemical, 
# crystal, experimental, refinement or atomic coordinate data resulting 
# from the CCDC's data processing and validation procedures.
#
#######################################################################

data_BUWJIO
_chemical_formula_moiety         'C28 H29 Cl1 N2 O3'
_chemical_name_systematic        
1-(4-(bis(4-methoxyphenyl)methyl)piperazin-1-yl)-3-(4-chlorophenyl)prop-2-en-1-one
_symmetry_cell_setting           monoclinic
_symmetry_space_group_name_H-M   'P 21/c'
_symmetry_Int_Tables_number      14
_space_group_name_Hall           '-P 2ybc'
loop_
_symmetry_equiv_pos_site_id
_symmetry_equiv_pos_as_xyz
1 x,y,z
2 -x,1/2+y,1/2-z
3 -x,-y,-z
4 x,1/2-y,1/2+z
_cell_length_a                   10.392(2)
_cell_length_b                   7.9180(16)
_cell_length_c                   30.474(6)
_cell_angle_alpha                90
_cell_angle_beta                 97.78(3)
_cell_angle_gamma                90
_cell_volume                     2484.44
_cell_formula_units_Z            4
loop_
_atom_site_label
_atom_site_type_symbol
_atom_site_fract_x
_atom_site_fract_y
_atom_site_fract_z
Cl1 Cl -0.11144(12) -0.30695(18) 0.47668(5)
O1 O 0.5557(3) 0.3417(4) 0.45884(11)
N1 N 0.4487(3) 0.5379(4) 0.41522(12)
C1 C 0.2453(4) -0.1145(6) 0.48232(15)
H1 H 0.3268 -0.1343 0.4982
O2 O 0.0617(3) 1.2711(4) 0.24461(10)
N2 N 0.4805(3) 0.8123(4) 0.35742(11)
C2 C 0.1423(5) -0.2178(6) 0.48915(15)
H2 H 0.1539 -0.3057 0.5095
O3 O 0.9421(3) 1.3432(4) 0.35556(10)
C3 C 0.0227(4) -0.1880(6) 0.46526(16)
C4 C 0.0042(5) -0.0653(6) 0.43319(16)
H3 H -0.0760 -0.0503 0.4160
C5 C 0.1099(5) 0.0354(6) 0.42748(15)
H4 H 0.0995 0.1189 0.4058
C6 C 0.2293(4) 0.0167(5) 0.45252(15)
C7 C 0.3380(4) 0.1317(6) 0.44964(15)
H5 H 0.4198 0.0900 0.4604
C8 C 0.3350(4) 0.2862(5) 0.43384(14)
H6 H 0.2566 0.3313 0.4206
C9 C 0.4538(4) 0.3892(6) 0.43677(15)
C10 C 0.3370(4) 0.6117(6) 0.38776(15)
H7 H 0.2989 0.6986 0.4044
H8 H 0.2719 0.5253 0.3798
C11 C 0.3769(4) 0.6871(6) 0.34652(15)
H9 H 0.4072 0.5983 0.3285
H10 H 0.3024 0.7407 0.3294
C12 C 0.5928(4) 0.7216(6) 0.37993(16)
H11 H 0.6662 0.7978 0.3859
H12 H 0.6167 0.6309 0.3612
C13 C 0.5594(4) 0.6506(6) 0.42261(16)
H13 H 0.6337 0.5895 0.4375
H14 H 0.5401 0.7425 0.4417
C14 C 0.5095(4) 0.9033(5) 0.31747(15)
H15 H 0.5327 0.8201 0.2960
C15 C 0.3888(4) 0.9985(5) 0.29665(14)
C16 C 0.3417(4) 0.9810(5) 0.25315(16)
H16 H 0.3836 0.9090 0.2356
C17 C 0.2311(4) 1.0697(6) 0.23423(15)
H17 H 0.1998 1.0559 0.2044
C18 C 0.1697(4) 1.1764(5) 0.25984(15)
C19 C 0.2159(4) 1.1941(6) 0.30355(15)
H18 H 0.1746 1.2665 0.3212
C20 C 0.3236(4) 1.1050(6) 0.32165(15)
H19 H 0.3533 1.1172 0.3517
C21 C -0.0012(4) 1.2420(7) 0.20179(16)
H20 H -0.0744 1.3164 0.1959
H21 H -0.0303 1.1269 0.1993
H22 H 0.0581 1.2627 0.1808
C22 C 0.6228(4) 1.0225(5) 0.32872(14)
C23 C 0.7213(4) 1.0333(5) 0.30173(14)
H23 H 0.7167 0.9653 0.2767
C24 C 0.8243(4) 1.1414(6) 0.31113(15)
H24 H 0.8877 1.1472 0.2924
C25 C 0.8337(4) 1.2407(5) 0.34824(14)
C26 C 0.7388(4) 1.2339(5) 0.37581(14)
H25 H 0.7442 1.3020 0.4008
C27 C 0.6354(4) 1.1237(5) 0.36552(15)
H26 H 0.5722 1.1183 0.3843
C28 C 0.9502(4) 1.4563(6) 0.39151(15)
H27 H 1.0291 1.5203 0.3930
H28 H 0.9497 1.3940 0.4185
H29 H 0.8772 1.5317 0.3875
loop_
_geom_bond_atom_site_label_1
_geom_bond_atom_site_label_2
_geom_bond_site_symmetry_1
_geom_bond_site_symmetry_2
Cl1 C3 1_555 1_555
O1 C9 1_555 1_555
N1 C9 1_555 1_555
C1 H1 1_555 1_555
O2 C18 1_555 1_555
N2 C11 1_555 1_555
C2 C1 1_555 1_555
H2 C2 1_555 1_555
O3 C25 1_555 1_555
C3 C2 1_555 1_555
C4 C3 1_555 1_555
H3 C4 1_555 1_555
C5 C4 1_555 1_555
H4 C5 1_555 1_555
C6 C1 1_555 1_555
C7 C6 1_555 1_555
H5 C7 1_555 1_555
C8 C7 1_555 1_555
H6 C8 1_555 1_555
C9 C8 1_555 1_555
C10 N1 1_555 1_555
H7 C10 1_555 1_555
H8 C10 1_555 1_555
C11 C10 1_555 1_555
H9 C11 1_555 1_555
H10 C11 1_555 1_555
C12 N2 1_555 1_555
H11 C12 1_555 1_555
H12 C12 1_555 1_555
C13 N1 1_555 1_555
H13 C13 1_555 1_555
H14 C13 1_555 1_555
C14 N2 1_555 1_555
H15 C14 1_555 1_555
C15 C14 1_555 1_555
C16 C15 1_555 1_555
H16 C16 1_555 1_555
C17 C16 1_555 1_555
H17 C17 1_555 1_555
C18 C17 1_555 1_555
C19 C18 1_555 1_555
H18 C19 1_555 1_555
C20 C15 1_555 1_555
H19 C20 1_555 1_555
C21 O2 1_555 1_555
H20 C21 1_555 1_555
H21 C21 1_555 1_555
H22 C21 1_555 1_555
C22 C14 1_555 1_555
C23 C22 1_555 1_555
H23 C23 1_555 1_555
C24 C23 1_555 1_555
H24 C24 1_555 1_555
C25 C24 1_555 1_555
C26 C25 1_555 1_555
H25 C26 1_555 1_555
C27 C22 1_555 1_555
H26 C27 1_555 1_555
C28 O3 1_555 1_555
H27 C28 1_555 1_555
H28 C28 1_555 1_555
H29 C28 1_555 1_555
C5 C6 1_555 1_555
C12 C13 1_555 1_555
C19 C20 1_555 1_555
C26 C27 1_555 1_555

#END
