
#######################################################################
#
#                 Cambridge Crystallographic Data Centre
#                                CCDC 
#
#######################################################################
#
# If this CIF has been generated from an entry in the Cambridge 
# Structural Database, then it will include bibliographic, chemical, 
# crystal, experimental, refinement or atomic coordinate data resulting 
# from the CCDC's data processing and validation procedures.
#
#######################################################################

data_BUWKUZ
_chemical_compound_source        'Curcuma longa'
_chemical_formula_moiety         'C19 H16 O4,C1 H4 O1'
_chemical_name_systematic        
'1,7-bis(4-Hydroxyphenyl)-hepta-1,6-diene-3,5-dione methanol solvate'
_symmetry_cell_setting           monoclinic
_symmetry_space_group_name_H-M   'P 21/n'
_symmetry_Int_Tables_number      14
_space_group_name_Hall           '-P 2yn'
loop_
_symmetry_equiv_pos_site_id
_symmetry_equiv_pos_as_xyz
1 x,y,z
2 1/2-x,1/2+y,1/2-z
3 -x,-y,-z
4 1/2+x,1/2-y,1/2+z
_cell_length_a                   6.781(2)
_cell_length_b                   7.606(1)
_cell_length_c                   33.024(5)
_cell_angle_alpha                90
_cell_angle_beta                 93.73(2)
_cell_angle_gamma                90
_cell_volume                     1699.65
_exptl_crystal_colour            'deep orange'
_cell_formula_units_Z            4
loop_
_atom_site_label
_atom_site_type_symbol
_atom_site_fract_x
_atom_site_fract_y
_atom_site_fract_z
O1 O -0.46440 0.47060 0.65120
O2 O 0.30830 0.31890 0.85490
O3 O 0.61800 0.36150 0.89990
O4 O 1.68700 0.86050 0.97380
C1 C -0.31910 0.44570 0.68100
C2 C -0.12610 0.50570 0.67830
C3 C 0.01220 0.48150 0.71040
C4 C -0.03690 0.39650 0.74600
C5 C -0.23060 0.33210 0.74720
C6 C -0.36940 0.35600 0.71540
C7 C 0.09610 0.37670 0.78230
C8 C 0.27170 0.45320 0.79030
C9 C 0.38820 0.42460 0.82810
C10 C 0.57070 0.49900 0.83640
C11 C 0.68330 0.46610 0.87340
C12 C 0.87420 0.55190 0.88100
C13 C 0.96670 0.55560 0.91800
C14 C 1.15540 0.63560 0.93080
C15 C 1.22510 0.62260 0.97130
C16 C 1.40110 0.69850 0.98550
C17 C 1.51370 0.78910 0.95890
C18 C 1.44900 0.80200 0.91810
C19 C 1.27220 0.72710 0.90440
H1 H -0.41900 0.51500 0.62900
H2 H -0.09100 0.56900 0.65400
H3 H -0.26600 0.27100 0.77100
H4 H 0.04900 0.29900 0.80300
H5 H 0.62500 0.57300 0.81700
H6 H 0.89700 0.49700 0.94000
H7 H 1.44700 0.68900 1.01300
H8 H 1.22500 0.74100 0.87500
H9 H 1.74100 0.92800 0.95400
H10 H 0.40600 0.31700 0.87700
H11 H 0.15000 0.52700 0.70800
H12 H -0.50300 0.31000 0.71700
H13 H 0.33100 0.53100 0.77200
H14 H 0.92900 0.61000 0.85800
H15 H 1.15200 0.55500 0.99100
H16 H 1.53300 0.86800 0.90000
O5 O 0.86110 0.08960 0.92210
C20 C 1.04460 0.12480 0.94570
H17 H 0.78900 0.19400 0.91700
H18 H 1.11000 0.01000 0.95100
H19 H 1.13000 0.20100 0.93000
H20 H 1.01600 0.18100 0.97200
loop_
_geom_bond_atom_site_label_1
_geom_bond_atom_site_label_2
_geom_bond_site_symmetry_1
_geom_bond_site_symmetry_2
O1 C1 1_555 1_555
O2 C9 1_555 1_555
O3 C11 1_555 1_555
O4 C17 1_555 1_555
C1 C2 1_555 1_555
C2 C3 1_555 1_555
C3 C4 1_555 1_555
C4 C5 1_555 1_555
C5 C6 1_555 1_555
C6 C1 1_555 1_555
C7 C4 1_555 1_555
C8 C7 1_555 1_555
C9 C8 1_555 1_555
C10 C9 1_555 1_555
C11 C10 1_555 1_555
C12 C11 1_555 1_555
C13 C12 1_555 1_555
C14 C13 1_555 1_555
C15 C14 1_555 1_555
C16 C15 1_555 1_555
C17 C16 1_555 1_555
C18 C17 1_555 1_555
C19 C14 1_555 1_555
H1 O1 1_555 1_555
H2 C2 1_555 1_555
H3 C5 1_555 1_555
H4 C7 1_555 1_555
H5 C10 1_555 1_555
H6 C13 1_555 1_555
H7 C16 1_555 1_555
H8 C19 1_555 1_555
H9 O4 1_555 1_555
H10 O2 1_555 1_555
H11 C3 1_555 1_555
H12 C6 1_555 1_555
H13 C8 1_555 1_555
H14 C12 1_555 1_555
H15 C15 1_555 1_555
H16 C18 1_555 1_555
O5 C20 1_555 1_555
C20 H18 1_555 1_555
H17 O5 1_555 1_555
H19 C20 1_555 1_555
H20 C20 1_555 1_555
C18 C19 1_555 1_555

#END
