
#######################################################################
#
#                 Cambridge Crystallographic Data Centre
#                                CCDC 
#
#######################################################################
#
# If this CIF has been generated from an entry in the Cambridge 
# Structural Database, then it will include bibliographic, chemical, 
# crystal, experimental, refinement or atomic coordinate data resulting 
# from the CCDC's data processing and validation procedures.
#
#######################################################################

data_BUWNOY
_chemical_formula_moiety         'C14 H11 Cl3 O3'
_chemical_name_systematic        
2-(5-chloro-2-(2,4-dichlorophenoxy)phenoxy)ethanol
_symmetry_cell_setting           monoclinic
_symmetry_space_group_name_H-M   'P 21/c'
_symmetry_Int_Tables_number      14
_space_group_name_Hall           '-P 2ybc'
loop_
_symmetry_equiv_pos_site_id
_symmetry_equiv_pos_as_xyz
1 x,y,z
2 -x,1/2+y,1/2-z
3 -x,-y,-z
4 x,1/2-y,1/2+z
_cell_length_a                   10.9914(3)
_cell_length_b                   4.71693(10)
_cell_length_c                   27.4699(7)
_cell_angle_alpha                90
_cell_angle_beta                 100.927(2)
_cell_angle_gamma                90
_cell_volume                     1398.37
_exptl_crystal_colour            colorless
_exptl_crystal_description       block
_cell_formula_units_Z            4
loop_
_atom_site_label
_atom_site_type_symbol
_atom_site_fract_x
_atom_site_fract_y
_atom_site_fract_z
Cl1 Cl -0.53184(3) 1.73519(8) 0.067329(15)
Cl2 Cl 0.16938(3) 0.92430(8) 0.053586(14)
Cl3 Cl 0.41558(4) 1.56646(11) 0.203232(17)
O1 O -0.04639(9) 1.2054(2) 0.07336(4)
O2 O -0.18146(9) 1.0551(2) 0.14172(4)
O3 O -0.05582(10) 0.8769(2) 0.23434(4)
H1 H -0.0105 0.7440 0.2477
C1 C -0.38593(13) 1.5859(3) 0.06975(5)
C2 C -0.34717(13) 1.3800(3) 0.10550(5)
H2 H -0.3990 1.3245 0.1278
C3 C -0.23116(13) 1.2565(3) 0.10805(5)
C4 C -0.15830(13) 1.3421(3) 0.07415(5)
C5 C -0.19831(14) 1.5490(3) 0.03957(5)
H3 H -0.1465 1.6070 0.0174
C6 C -0.31407(14) 1.6743(3) 0.03675(6)
H4 H -0.3425 1.8164 0.0128
C7 C 0.05779(13) 1.3026(3) 0.10457(5)
C8 C 0.16933(14) 1.1768(3) 0.09947(5)
C9 C 0.27947(14) 1.2552(3) 0.12955(6)
H5 H 0.3552 1.1668 0.1263
C10 C 0.27740(15) 1.4653(4) 0.16461(6)
C11 C 0.16834(15) 1.5973(3) 0.16943(6)
H6 H 0.1688 1.7432 0.1933
C12 C 0.05825(14) 1.5159(3) 0.13931(5)
H7 H -0.0171 1.6065 0.1424
C13 C -0.24804(14) 0.9885(3) 0.18030(5)
H8 H -0.3313 0.9142 0.1659
H9 H -0.2580 1.1605 0.1998
C14 C -0.17462(14) 0.7684(3) 0.21294(5)
H10 H -0.2194 0.7132 0.2395
H11 H -0.1650 0.5974 0.1931
loop_
_geom_bond_atom_site_label_1
_geom_bond_atom_site_label_2
_geom_bond_site_symmetry_1
_geom_bond_site_symmetry_2
Cl1 C1 1_555 1_555
Cl2 C8 1_555 1_555
Cl3 C10 1_555 1_555
O1 C4 1_555 1_555
O2 C3 1_555 1_555
O3 H1 1_555 1_555
C1 C2 1_555 1_555
C2 H2 1_555 1_555
C3 C2 1_555 1_555
C4 C3 1_555 1_555
C5 C4 1_555 1_555
H3 C5 1_555 1_555
C6 C1 1_555 1_555
H4 C6 1_555 1_555
C7 O1 1_555 1_555
C8 C7 1_555 1_555
C9 C8 1_555 1_555
H5 C9 1_555 1_555
C10 C9 1_555 1_555
C11 C10 1_555 1_555
H6 C11 1_555 1_555
C12 C7 1_555 1_555
H7 C12 1_555 1_555
C13 O2 1_555 1_555
H8 C13 1_555 1_555
H9 C13 1_555 1_555
C14 O3 1_555 1_555
H10 C14 1_555 1_555
H11 C14 1_555 1_555
C5 C6 1_555 1_555
C11 C12 1_555 1_555
C13 C14 1_555 1_555

#END
