
#######################################################################
#
#                 Cambridge Crystallographic Data Centre
#                                CCDC 
#
#######################################################################
#
# If this CIF has been generated from an entry in the Cambridge 
# Structural Database, then it will include bibliographic, chemical, 
# crystal, experimental, refinement or atomic coordinate data resulting 
# from the CCDC's data processing and validation procedures.
#
#######################################################################

data_BUWNIS
_chemical_formula_moiety         'C6 H10 N3 O3 1+,C7 H5 O5 1-'
_chemical_name_systematic        
'1-(2-hydroxyethyl)-5-methyl-2-nitro-1H-imidazol-3-ium 3,4,5-trihydroxybenzoate'
_symmetry_cell_setting           monoclinic
_symmetry_space_group_name_H-M   'P 21/c'
_symmetry_Int_Tables_number      14
_space_group_name_Hall           '-P 2ybc'
loop_
_symmetry_equiv_pos_site_id
_symmetry_equiv_pos_as_xyz
1 x,y,z
2 -x,1/2+y,1/2-z
3 -x,-y,-z
4 x,1/2-y,1/2+z
_cell_length_a                   14.8163(7)
_cell_length_b                   7.1017(4)
_cell_length_c                   14.6837(7)
_cell_angle_alpha                90
_cell_angle_beta                 104.599(5)
_cell_angle_gamma                90
_cell_volume                     1495.15
_exptl_crystal_colour            yellow
_exptl_crystal_description       block
_cell_formula_units_Z            4
loop_
_atom_site_label
_atom_site_type_symbol
_atom_site_fract_x
_atom_site_fract_y
_atom_site_fract_z
O1 O 0.52945(15) 0.2931(5) 0.25039(18)
O2 O 0.57572(19) 0.3736(5) 0.12840(17)
O3 O 0.65341(17) 0.5620(4) 0.51823(15)
N1 N 0.71029(15) 0.3445(3) 0.36493(16)
N2 N 0.7580(2) 0.4255(5) 0.2394(2)
H1 H 0.7586 0.4509 0.1823
N3 N 0.59003(18) 0.3442(5) 0.21261(19)
C1 C 0.68204(19) 0.3717(5) 0.2689(2)
C2 C 0.80254(19) 0.3840(4) 0.3885(2)
C3 C 0.83206(16) 0.4326(4) 0.31423(18)
H2 H 0.8927 0.4656 0.3137
C4 C 0.8631(2) 0.3787(5) 0.4861(2)
H3 H 0.8461 0.4794 0.5221
H4 H 0.9271 0.3930 0.4845
H5 H 0.8552 0.2604 0.5147
C5 C 0.6556(2) 0.2762(4) 0.4297(2)
H6 H 0.6980 0.2249 0.4856
H7 H 0.6150 0.1750 0.3993
C6 C 0.5973(2) 0.4271(4) 0.4587(2)
H8 H 0.5603 0.4895 0.4029
H9 H 0.5549 0.3699 0.4913
H10 H 0.659(3) 0.656(6) 0.484(3)
O4 O 0.35065(13) 0.3802(4) 0.30526(15)
O5 O 0.35203(14) 0.3262(3) 0.12580(15)
O6 O 0.19931(15) 0.3509(4) -0.01336(14)
O7 O -0.06303(14) 0.4793(4) 0.14540(15)
O8 O 0.00674(14) 0.4595(4) 0.29723(14)
C7 C 0.26669(18) 0.3885(4) 0.24136(18)
C8 C 0.27004(17) 0.3624(4) 0.14819(18)
C9 C 0.18915(18) 0.3742(4) 0.07593(18)
C10 C 0.10468(18) 0.4045(4) 0.09706(19)
H11 H 0.0501 0.4089 0.0490
C11 C 0.10075(18) 0.4286(4) 0.18996(18)
C12 C 0.18159(19) 0.4206(4) 0.26225(19)
H12 H 0.1789 0.4366 0.3244
C13 C 0.00731(19) 0.4588(4) 0.20771(19)
H13 H 0.148(3) 0.391(6) -0.060(3)
H14 H 0.390(3) 0.325(5) 0.168(3)
H15 H 0.345(3) 0.397(6) 0.371(3)
loop_
_geom_bond_atom_site_label_1
_geom_bond_atom_site_label_2
_geom_bond_site_symmetry_1
_geom_bond_site_symmetry_2
O1 N3 1_555 1_555
O2 N3 1_555 1_555
O3 C6 1_555 1_555
N1 C1 1_555 1_555
N2 H1 1_555 1_555
N3 C1 1_555 1_555
C1 N2 1_555 1_555
C2 N1 1_555 1_555
C3 N2 1_555 1_555
H2 C3 1_555 1_555
C4 C2 1_555 1_555
H3 C4 1_555 1_555
H4 C4 1_555 1_555
H5 C4 1_555 1_555
C5 N1 1_555 1_555
H6 C5 1_555 1_555
H7 C5 1_555 1_555
C6 C5 1_555 1_555
H8 C6 1_555 1_555
H9 C6 1_555 1_555
H10 O3 1_555 1_555
O4 C7 1_555 1_555
O5 C8 1_555 1_555
O6 C9 1_555 1_555
O7 C13 1_555 1_555
O8 C13 1_555 1_555
C7 C8 1_555 1_555
C8 C9 1_555 1_555
C9 C10 1_555 1_555
C10 H11 1_555 1_555
C11 C10 1_555 1_555
C12 C7 1_555 1_555
H12 C12 1_555 1_555
C13 C11 1_555 1_555
H13 O6 1_555 1_555
H14 O5 1_555 1_555
H15 O4 1_555 1_555
C2 C3 1_555 1_555
C11 C12 1_555 1_555

#END
