
#######################################################################
#
#                 Cambridge Crystallographic Data Centre
#                                CCDC 
#
#######################################################################
#
# If this CIF has been generated from an entry in the Cambridge 
# Structural Database, then it will include bibliographic, chemical, 
# crystal, experimental, refinement or atomic coordinate data resulting 
# from the CCDC's data processing and validation procedures.
#
#######################################################################

data_BUWNEO
_chemical_formula_moiety         'C15 H12 N2 O5,C4 H8 O2,H2 O1'
_chemical_name_systematic        
'1H-benzimidazol-2-ylmethyl 3,4,5-trihydroxybenzoate ethyl acetate solvate monohydrate'
_symmetry_cell_setting           triclinic
_symmetry_space_group_name_H-M   'P -1'
_symmetry_Int_Tables_number      2
_space_group_name_Hall           '-P 1'
loop_
_symmetry_equiv_pos_site_id
_symmetry_equiv_pos_as_xyz
1 x,y,z
2 -x,-y,-z
_cell_length_a                   7.5420(3)
_cell_length_b                   9.6464(5)
_cell_length_c                   14.5325(7)
_cell_angle_alpha                73.316(4)
_cell_angle_beta                 83.250(4)
_cell_angle_gamma                74.361(4)
_cell_volume                     974.359
_exptl_crystal_colour            colorless
_exptl_crystal_description       block
_cell_formula_units_Z            2
loop_
_atom_site_label
_atom_site_type_symbol
_atom_site_fract_x
_atom_site_fract_y
_atom_site_fract_z
O1 O 0.2304(3) 0.41640(18) 0.07447(14)
O2 O 0.0413(2) 0.27402(17) 0.15351(14)
O3 O 0.8446(2) 0.02556(19) 0.07354(16)
H1 H 0.8562 0.1069 0.0394
O4 O 0.7494(3) -0.23737(18) 0.12732(14)
H2 H 0.863(5) -0.222(4) 0.102(2)
O5 O 0.3902(2) -0.24800(18) 0.17734(16)
H3 H 0.4837 -0.3166 0.1840
N1 N -0.4143(3) 0.4652(2) 0.22044(17)
N2 N -0.2654(3) 0.2266(2) 0.26091(17)
H4 H -0.1769 0.1477 0.2645
C1 C -0.5304(4) 0.3819(3) 0.27824(19)
C2 C -0.4395(4) 0.2321(3) 0.3036(2)
C3 C -0.5243(5) 0.1248(3) 0.3603(3)
H5 H -0.4626 0.0242 0.3768
C4 C -0.7034(5) 0.1727(4) 0.3912(3)
H6 H -0.7643 0.1028 0.4294
C5 C -0.7952(5) 0.3212(4) 0.3671(2)
H7 H -0.9164 0.3496 0.3897
C6 C -0.7121(4) 0.4280(3) 0.3107(2)
H8 H -0.7750 0.5283 0.2945
C7 C -0.2587(4) 0.3676(3) 0.21235(18)
C8 C -0.0948(4) 0.4096(3) 0.1564(2)
H9 H -0.1277 0.4685 0.0917
H10 H -0.0467 0.4684 0.1867
C9 C 0.2045(3) 0.2933(3) 0.11089(18)
C10 C 0.3441(3) 0.1522(2) 0.11489(17)
C11 C 0.5249(3) 0.1607(3) 0.08825(18)
H11 H 0.5533 0.2531 0.0670
C12 C 0.6621(3) 0.0309(3) 0.09362(19)
C13 C 0.6189(3) -0.1074(2) 0.12309(18)
C14 C 0.4380(3) -0.1144(2) 0.14935(18)
C15 C 0.3004(3) 0.0149(3) 0.14573(18)
H12 H 0.1794 0.0098 0.1638
O6 O -0.0533(7) -0.0687(4) 0.3444(4)
O7 O 0.0867(4) -0.2916(3) 0.4178(2)
C16 C -0.0473(9) -0.2014(6) 0.3686(4)
C17 C -0.1841(9) -0.2859(10) 0.3594(5)
H13 H -0.2557 -0.3063 0.4187
H14 H -0.1190 -0.3783 0.3455
H15 H -0.2645 -0.2266 0.3083
C18 C 0.2404(12) -0.2315(8) 0.4344(9)
H16 H 0.2563 -0.1388 0.3982
C19 C 0.332(2) -0.302(2) 0.4912(9)
H17 H 0.3131 -0.3947 0.5263
H18 H 0.4300 -0.2708 0.5046
O8 O 0.8777(3) 0.2793(2) -0.0713(2)
H19 H 0.847(5) 0.372(5) -0.067(3)
H20 H 0.810(6) 0.266(4) -0.110(3)
loop_
_geom_bond_atom_site_label_1
_geom_bond_atom_site_label_2
_geom_bond_site_symmetry_1
_geom_bond_site_symmetry_2
O1 C9 1_555 1_555
O2 C8 1_555 1_555
O3 H1 1_555 1_555
O4 H2 1_555 1_555
O5 H3 1_555 1_555
N1 C1 1_555 1_555
N2 H4 1_555 1_555
C1 C2 1_555 1_555
C2 N2 1_555 1_555
C3 C2 1_555 1_555
H5 C3 1_555 1_555
C4 C3 1_555 1_555
H6 C4 1_555 1_555
C5 C4 1_555 1_555
H7 C5 1_555 1_555
C6 C1 1_555 1_555
H8 C6 1_555 1_555
C7 N1 1_555 1_555
C8 C7 1_555 1_555
H9 C8 1_555 1_555
H10 C8 1_555 1_555
C9 O2 1_555 1_555
C10 C9 1_555 1_555
C11 C10 1_555 1_555
H11 C11 1_555 1_555
C12 O3 1_555 1_555
C13 O4 1_555 1_555
C14 O5 1_555 1_555
C15 C10 1_555 1_555
H12 C15 1_555 1_555
O6 C16 1_555 1_555
O7 C16 1_555 1_555
C16 C17 1_555 1_555
C17 H13 1_555 1_555
H14 C17 1_555 1_555
H15 C17 1_555 1_555
C18 O7 1_555 1_555
H16 C18 1_555 1_555
C19 C18 1_555 1_555
H17 C19 1_555 1_555
H18 C19 1_555 1_555
O8 H19 1_555 1_555
H20 O8 1_555 1_555
N2 C7 1_555 1_555
C5 C6 1_555 1_555
C11 C12 1_555 1_555
C12 C13 1_555 1_555
C13 C14 1_555 1_555
C14 C15 1_555 1_555

#END
