
#######################################################################
#
#                 Cambridge Crystallographic Data Centre
#                                CCDC 
#
#######################################################################
#
# If this CIF has been generated from an entry in the Cambridge 
# Structural Database, then it will include bibliographic, chemical, 
# crystal, experimental, refinement or atomic coordinate data resulting 
# from the CCDC's data processing and validation procedures.
#
#######################################################################

data_BUWRAN
_chemical_formula_moiety         'C60 H50 O15 Si10,C7 H8'
_chemical_name_systematic        
'1,3,5,7,9,11,13,15,17,19-Decaphenylhexacyclo[9.9.1.1^3,9^.1^5,17^.1^7,15^.1^13,19^]decasiloxane toluene solvate'
_symmetry_cell_setting           triclinic
_symmetry_space_group_name_H-M   'P -1'
_symmetry_Int_Tables_number      2
_space_group_name_Hall           '-P 1'
loop_
_symmetry_equiv_pos_site_id
_symmetry_equiv_pos_as_xyz
1 x,y,z
2 -x,-y,-z
_cell_length_a                   12.5377(9)
_cell_length_b                   24.6836(17)
_cell_length_c                   35.061(2)
_cell_angle_alpha                72.7060(1)
_cell_angle_beta                 80.4340(1)
_cell_angle_gamma                81.3950(1)
_cell_volume                     10157.9
_exptl_crystal_colour            colorless
_exptl_crystal_description       needle
_cell_formula_units_Z            6
loop_
_atom_site_label
_atom_site_type_symbol
_atom_site_fract_x
_atom_site_fract_y
_atom_site_fract_z
Si1 Si 0.85496(3) 0.542754(17) 0.263821(12)
Si2 Si 1.09578(3) 0.550859(17) 0.269814(12)
Si3 Si 1.03055(3) 0.559487(17) 0.358207(12)
Si4 Si 1.04886(3) 0.434542(17) 0.419242(12)
Si5 Si 0.80365(3) 0.428024(17) 0.418248(12)
Si6 Si 0.79000(3) 0.548107(17) 0.353235(12)
Si7 Si 0.86899(3) 0.346250(17) 0.362944(12)
Si8 Si 0.90492(3) 0.413425(17) 0.270310(12)
Si9 Si 1.14518(3) 0.418788(17) 0.276307(12)
Si10 Si 1.11341(3) 0.347049(17) 0.367603(12)
O1 O 0.97443(9) 0.56421(5) 0.25691(3)
O2 O 1.09084(9) 0.56134(5) 0.31346(3)
O3 O 1.05933(9) 0.49702(5) 0.38823(3)
O4 O 0.92094(9) 0.42579(5) 0.43257(3)
O5 O 0.77263(9) 0.48882(5) 0.38737(3)
O6 O 0.80167(9) 0.53543(5) 0.30999(3)
O7 O 0.90004(9) 0.57135(5) 0.35769(3)
O8 O 0.80939(9) 0.37940(5) 0.39532(3)
O9 O 0.86437(9) 0.38897(5) 0.31787(3)
O10 O 0.86433(9) 0.48093(4) 0.25553(3)
O11 O 1.03706(9) 0.40591(5) 0.26217(3)
O12 O 1.13942(9) 0.48557(5) 0.27263(4)
O13 O 1.15213(9) 0.38478(5) 0.32279(3)
O14 O 0.99519(9) 0.32675(5) 0.36975(3)
O15 O 1.10544(9) 0.38593(5) 0.39789(3)
C1 C 0.67200(13) 0.60052(6) 0.35867(4)
C2 C 0.68224(14) 0.65327(7) 0.36412(5)
H1 H 0.7518 0.6624 0.3661
C3 C 0.59123(16) 0.69255(7) 0.36667(6)
H2 H 0.5990 0.7285 0.3700
C4 C 0.48951(16) 0.67942(8) 0.36441(6)
H3 H 0.4276 0.7063 0.3665
C5 C 0.47732(15) 0.62745(8) 0.35911(6)
H4 H 0.4073 0.6187 0.3574
C6 C 0.56791(13) 0.58815(7) 0.35627(5)
H5 H 0.5594 0.5525 0.3527
C7 C 1.21458(12) 0.28441(6) 0.38007(5)
C8 C 1.18767(14) 0.23088(7) 0.40434(5)
H6 H 1.1148 0.2264 0.4166
C9 C 1.26638(15) 0.18393(7) 0.41084(5)
H7 H 1.2469 0.1478 0.4275
C10 C 1.37293(15) 0.18976(8) 0.39317(5)
H8 H 1.4264 0.1577 0.3975
C11 C 1.40121(14) 0.24244(8) 0.36924(5)
H9 H 1.4744 0.2466 0.3573
C12 C 1.32284(13) 0.28924(7) 0.36265(5)
H10 H 1.3431 0.3252 0.3460
C13 C 1.26708(13) 0.39755(6) 0.24463(5)
C14 C 1.36977(14) 0.39623(8) 0.25548(6)
H11 H 1.3753 0.4059 0.2793
C15 C 1.46392(17) 0.38118(10) 0.23228(7)
H12 H 1.5331 0.3804 0.2403
C16 C 1.45640(18) 0.36736(9) 0.19735(7)
H13 H 1.5205 0.3562 0.1816
C17 C 1.3567(2) 0.36981(9) 0.18548(7)
H14 H 1.3520 0.3614 0.1611
C18 C 1.26175(17) 0.38464(8) 0.20893(6)
H15 H 1.1930 0.3859 0.2005
C19 C 0.85153(13) 0.37463(6) 0.24106(5)
C20 C 0.89033(15) 0.38142(7) 0.20034(5)
H16 H 0.9432 0.4071 0.1874
C21 C 0.85264(17) 0.35097(8) 0.17839(6)
H17 H 0.8788 0.3564 0.1506
C22 C 0.77682(16) 0.31280(8) 0.19742(6)
H18 H 0.7514 0.2919 0.1826
C23 C 0.73806(15) 0.30497(8) 0.23759(6)
H19 H 0.6869 0.2783 0.2505
C24 C 0.77415(14) 0.33630(7) 0.25929(5)
H20 H 0.7457 0.3315 0.2868
C25 C 0.79867(12) 0.28263(6) 0.37117(4)
C26 C 0.84299(14) 0.24057(7) 0.35182(5)
H21 H 0.9100 0.2449 0.3346
C27 C 0.79011(14) 0.19263(7) 0.35751(5)
H22 H 0.8200 0.1651 0.3436
C28 C 0.69438(14) 0.18491(7) 0.38337(5)
H23 H 0.6587 0.1520 0.3873
C29 C 0.65010(14) 0.22523(7) 0.40365(5)
H24 H 0.5852 0.2195 0.4220
C30 C 0.70135(13) 0.27408(7) 0.39698(5)
H25 H 0.6695 0.3021 0.4102
C31 C 0.69910(13) 0.41686(7) 0.46242(5)
C32 C 0.72395(15) 0.38826(8) 0.50126(5)
H26 H 0.7969 0.3732 0.5051
C33 C 0.64392(16) 0.38141(9) 0.53448(6)
H27 H 0.6625 0.3619 0.5606
C34 C 0.53798(17) 0.40293(10) 0.52943(6)
H28 H 0.4830 0.3975 0.5520
C35 C 0.51165(17) 0.43232(13) 0.49164(7)
H29 H 0.4387 0.4478 0.4882
C36 C 0.59173(15) 0.43942(11) 0.45832(6)
H30 H 0.5726 0.4600 0.4324
C37 C 1.11855(12) 0.42604(7) 0.46322(5)
C38 C 1.16145(15) 0.37170(8) 0.48486(5)
H31 H 1.1529 0.3391 0.4769
C39 C 1.21622(16) 0.36485(10) 0.51770(6)
H32 H 1.2446 0.3279 0.5320
C40 C 1.22923(15) 0.41203(10) 0.52941(6)
H33 H 1.2660 0.4073 0.5520
C41 C 1.18921(17) 0.46548(10) 0.50856(6)
H34 H 1.1990 0.4978 0.5165
C42 C 1.13404(16) 0.47254(8) 0.47569(6)
H35 H 1.1065 0.5098 0.4615
C43 C 1.07707(12) 0.61569(6) 0.37414(5)
C44 C 1.03089(14) 0.62708(7) 0.41048(5)
H36 H 0.9764 0.6049 0.4273
C45 C 1.06347(16) 0.67044(8) 0.42237(6)
H37 H 1.0309 0.6777 0.4471
C46 C 1.14281(15) 0.70283(7) 0.39835(6)
H38 H 1.1652 0.7323 0.4066
C47 C 1.18994(14) 0.69246(7) 0.36220(6)
H39 H 1.2446 0.7148 0.3456
C48 C 1.15729(13) 0.64928(7) 0.35012(5)
H40 H 1.1899 0.6425 0.3253
C49 C 1.18917(12) 0.59655(6) 0.23222(5)
C50 C 1.29208(13) 0.57303(7) 0.21870(5)
H41 H 1.3128 0.5334 0.2291
C51 C 1.36453(15) 0.60650(9) 0.19037(5)
H42 H 1.4340 0.5898 0.1816
C52 C 1.33503(15) 0.66408(9) 0.17503(5)
H43 H 1.3845 0.6871 0.1557
C53 C 1.23381(16) 0.68859(8) 0.18764(5)
H44 H 1.2139 0.7283 0.1769
C54 C 1.16109(14) 0.65523(7) 0.21609(5)
H45 H 1.0918 0.6724 0.2247
C55 C 0.77247(13) 0.59753(6) 0.22916(5)
C56 C 0.66070(13) 0.60894(7) 0.24002(5)
H46 H 0.6261 0.5862 0.2645
C57 C 0.59960(15) 0.65329(7) 0.21532(6)
H47 H 0.5237 0.6605 0.2230
C58 C 0.64935(16) 0.68688(7) 0.17963(6)
H48 H 0.6077 0.7173 0.1629
C59 C 0.75958(16) 0.67603(7) 0.16841(5)
H49 H 0.7935 0.6989 0.1438
C60 C 0.82115(14) 0.63190(7) 0.19288(5)
H50 H 0.8970 0.6250 0.1849
Si11 Si -0.02212(3) 0.126136(17) 0.589346(12)
Si12 Si 0.02217(3) -0.005968(17) 0.603059(12)
Si13 Si 0.27024(3) -0.002263(17) 0.607546(12)
Si14 Si 0.22363(3) 0.129478(17) 0.598698(13)
Si15 Si 0.15111(3) 0.143579(17) 0.684980(12)
Si16 Si -0.08707(3) 0.130214(17) 0.676890(12)
Si17 Si -0.07104(3) 0.011948(17) 0.739075(12)
Si18 Si -0.00083(3) -0.079751(17) 0.694150(12)
Si19 Si 0.24227(3) -0.072203(17) 0.698579(12)
Si20 Si 0.16763(3) 0.020972(17) 0.745991(12)
O16 O -0.03065(9) 0.06004(4) 0.59281(3)
O17 O 0.15385(9) -0.00944(5) 0.59635(3)
O18 O 0.27429(9) 0.06371(5) 0.60562(4)
O19 O 0.10422(9) 0.13637(5) 0.58494(3)
O20 O 0.21478(9) 0.14606(5) 0.64050(3)
O21 O 0.02124(9) 0.15244(5) 0.68366(3)
O22 O -0.08159(9) 0.06188(4) 0.69731(3)
O23 O -0.06054(9) -0.04795(4) 0.72775(3)
O24 O -0.01691(9) -0.03763(4) 0.64986(3)
O25 O 0.12674(9) -0.09447(5) 0.69935(4)
O26 O 0.22339(9) -0.02694(5) 0.72444(3)
O27 O 0.18736(10) 0.08229(5) 0.71465(4)
O28 O 0.03750(9) 0.01675(5) 0.75700(3)
O29 O 0.28668(9) -0.04135(5) 0.65260(3)
O30 O -0.08947(9) 0.14072(4) 0.62928(3)
C61 C 0.23130(13) 0.00931(7) 0.79194(5)
C62 C 0.32854(14) -0.02669(8) 0.79718(5)
H51 H 0.3613 -0.0441 0.7767
C63 C 0.37825(16) -0.03760(10) 0.83167(6)
H52 H 0.4442 -0.0622 0.8346
C64 C 0.33171(17) -0.01277(11) 0.86149(6)
H53 H 0.3657 -0.0201 0.8851
C65 C 0.23601(17) 0.02275(10) 0.85747(6)
H54 H 0.2042 0.0398 0.8783
C66 C 0.18566(15) 0.03380(8) 0.82281(5)
H55 H 0.1196 0.0583 0.8203
C67 C 0.34039(13) -0.13127(7) 0.72168(5)
C68 C 0.32922(15) -0.15317(7) 0.76377(5)
H56 H 0.2685 -0.1392 0.7796
C69 C 0.40563(16) -0.19503(8) 0.78270(6)
H57 H 0.3980 -0.2086 0.8113
C70 C 0.49229(16) -0.21673(8) 0.75998(7)
H58 H 0.5442 -0.2455 0.7729
C71 C 0.50405(15) -0.19691(8) 0.71863(7)
H59 H 0.5634 -0.2124 0.7030
C72 C 0.42879(14) -0.15397(8) 0.69955(6)
H60 H 0.4382 -0.1401 0.6710
C73 C -0.05596(12) -0.14783(6) 0.70223(4)
C74 C -0.13820(13) -0.15270(7) 0.68120(5)
H61 H -0.1651 -0.1203 0.6614
C75 C -0.18110(15) -0.20433(8) 0.68885(6)
H62 H -0.2369 -0.2070 0.6744
C76 C -0.14236(15) -0.25163(7) 0.71747(6)
H63 H -0.1724 -0.2867 0.7229
C77 C -0.06009(15) -0.24836(7) 0.73830(5)
H64 H -0.0333 -0.2812 0.7578
C78 C -0.01658(14) -0.19698(7) 0.73067(5)
H65 H 0.0404 -0.1951 0.7449
C79 C -0.18858(12) 0.01761(6) 0.77730(5)
C80 C -0.29388(13) 0.03312(7) 0.76628(5)
H66 H -0.3038 0.0415 0.7388
C81 C -0.38384(14) 0.03647(8) 0.79478(6)
H67 H -0.4545 0.0471 0.7868
C82 C -0.37006(16) 0.02418(8) 0.83502(6)
H68 H -0.4315 0.0262 0.8546
C83 C -0.26731(16) 0.00894(9) 0.84671(5)
H69 H -0.2583 0.0004 0.8743
C84 C -0.17698(15) 0.00609(8) 0.81808(5)
H70 H -0.1065 -0.0038 0.8263
C85 C -0.20776(13) 0.16790(6) 0.69920(5)
C86 C -0.31112(13) 0.16708(7) 0.68938(5)
H71 H -0.3189 0.1471 0.6708
C87 C -0.40267(15) 0.19519(8) 0.70650(6)
H72 H -0.4725 0.1940 0.6998
C88 C -0.39161(17) 0.22478(9) 0.73324(6)
H73 H -0.4538 0.2448 0.7444
C89 C -0.29062(18) 0.22546(9) 0.74389(6)
H74 H -0.2836 0.2454 0.7626
C90 C -0.19927(15) 0.19686(8) 0.72711(5)
H75 H -0.1301 0.1970 0.7347
C91 C 0.18505(13) 0.19876(7) 0.70501(5)
C92 C 0.11963(14) 0.25077(7) 0.70127(5)
H76 H 0.0600 0.2593 0.6861
C93 C 0.14158(16) 0.29007(7) 0.71965(6)
H77 H 0.0971 0.3254 0.7170
C94 C 0.22780(17) 0.27775(8) 0.74164(6)
H78 H 0.2424 0.3046 0.7542
C95 C 0.29319(16) 0.22678(8) 0.74569(6)
H79 H 0.3527 0.2187 0.7608
C96 C 0.27187(14) 0.18742(8) 0.72767(5)
H80 H 0.3168 0.1522 0.7307
C97 C 0.31052(13) 0.17835(7) 0.56018(5)
C98 C 0.38716(14) 0.20440(7) 0.57152(5)
H81 H 0.3940 0.1965 0.5993
C99 C 0.45368(16) 0.24167(8) 0.54311(6)
H82 H 0.5054 0.2587 0.5515
C100 C 0.44391(16) 0.25373(8) 0.50267(6)
H83 H 0.4892 0.2790 0.4832
C101 C 0.36865(16) 0.22918(9) 0.49040(6)
H84 H 0.3616 0.2379 0.4626
C102 C 0.30289(14) 0.19155(8) 0.51891(5)
H85 H 0.2518 0.1745 0.5102
C103 C 0.38303(14) -0.02673(7) 0.57387(5)
C104 C 0.48965(14) -0.01948(8) 0.57766(5)
H86 H 0.5007 -0.0002 0.5962
C105 C 0.57869(16) -0.03998(9) 0.55482(6)
H87 H 0.6501 -0.0345 0.5576
C106 C 0.56321(18) -0.06821(8) 0.52821(6)
H88 H 0.6244 -0.0820 0.5125
C107 C 0.46022(19) -0.07699(8) 0.52393(6)
H89 H 0.4508 -0.0971 0.5056
C108 C 0.36911(16) -0.05595(7) 0.54685(5)
H90 H 0.2980 -0.0617 0.5439
C109 C -0.02310(12) -0.03998(6) 0.56920(4)
C110 C -0.10229(13) -0.01238(7) 0.54404(5)
H91 H -0.1364 0.0242 0.5452
C111 C -0.13193(13) -0.03762(8) 0.51738(5)
H92 H -0.1861 -0.0184 0.5006
C112 C -0.08230(14) -0.09094(8) 0.51531(5)
H93 H -0.1024 -0.1082 0.4971
C113 C -0.00353(15) -0.11908(7) 0.53974(5)
H94 H 0.0308 -0.1555 0.5381
C114 C 0.02538(14) -0.09405(7) 0.56668(5)
H95 H 0.0788 -0.1139 0.5836
C115 C -0.08031(13) 0.17559(6) 0.54527(4)
C116 C -0.02390(14) 0.22082(7) 0.52034(5)
H96 H 0.0469 0.2241 0.5252
C117 C -0.06963(16) 0.26091(7) 0.48865(5)
H97 H -0.0302 0.2913 0.4720
C118 C -0.17241(17) 0.25656(8) 0.48148(5)
H98 H -0.2040 0.2843 0.4600
C119 C -0.22986(16) 0.21211(8) 0.50534(6)
H99 H -0.3003 0.2090 0.5001
C120 C -0.18415(14) 0.17200(8) 0.53708(5)
H100 H -0.2241 0.1417 0.5535
Si21 Si 0.24860(3) 0.663558(18) -0.027070(13)
Si22 Si 0.49613(3) 0.658226(17) -0.028871(13)
Si23 Si 0.46672(3) 0.656823(18) 0.062478(13)
Si24 Si 0.45337(3) 0.782107(17) 0.065673(13)
Si25 Si 0.46793(3) 0.859739(17) -0.023095(12)
Si26 Si 0.21391(3) 0.869109(17) -0.019088(12)
Si27 Si 0.24344(3) 0.792418(17) -0.078883(12)
Si28 Si 0.49236(3) 0.786748(17) -0.084337(12)
Si29 Si 0.19760(3) 0.792717(18) 0.069646(13)
Si30 Si 0.21347(3) 0.667594(18) 0.062722(13)
O31 O 0.37665(9) 0.64045(5) -0.02874(4)
O32 O 0.50761(10) 0.66183(5) 0.01545(3)
O33 O 0.48843(9) 0.71447(4) 0.07178(3)
O34 O 0.49236(9) 0.81575(5) 0.01957(3)
O35 O 0.33934(8) 0.88050(5) -0.02228(3)
O36 O 0.20369(9) 0.82664(5) -0.04525(3)
O37 O 0.23381(9) 0.72556(5) -0.05847(3)
O38 O 0.36941(9) 0.80150(5) -0.09616(3)
O39 O 0.50768(9) 0.82590(5) -0.05663(4)
O40 O 0.51068(9) 0.71997(5) -0.06034(3)
O41 O 0.17140(9) 0.83964(5) 0.02790(3)
O42 O 0.17585(10) 0.73098(5) 0.06769(4)
O43 O 0.20237(10) 0.67015(6) 0.01714(4)
O44 O 0.33821(9) 0.64944(5) 0.07139(3)
O45 O 0.32276(9) 0.79319(5) 0.07550(3)
C121 C 0.59331(12) 0.80257(7) -0.12928(5)
C122 C 0.63355(15) 0.76208(8) -0.14997(6)
H101 H 0.6081 0.7254 -0.1406
C123 C 0.71014(16) 0.77409(9) -0.18402(6)
H102 H 0.7373 0.7456 -0.1974
C124 C 0.74676(15) 0.82704(9) -0.19843(6)
H103 H 0.7979 0.8355 -0.2221
C125 C 0.70881(15) 0.86818(8) -0.17836(6)
H104 H 0.7346 0.9047 -0.1880
C126 C 0.63316(14) 0.85590(7) -0.14410(5)
H105 H 0.6079 0.8843 -0.1304
C127 C 0.15661(12) 0.81654(7) -0.11950(4)
C128 C 0.13761(13) 0.87425(7) -0.14004(5)
H106 H 0.1723 0.9016 -0.1338
C129 C 0.06839(14) 0.89207(8) -0.16958(5)
H107 H 0.0556 0.9315 -0.1831
C130 C 0.01804(14) 0.85274(8) -0.17940(5)
H108 H -0.0292 0.8652 -0.1996
C131 C 0.03660(16) 0.79536(8) -0.15980(6)
H109 H 0.0027 0.7683 -0.1667
C132 C 0.10506(14) 0.77722(7) -0.12993(5)
H110 H 0.1170 0.7377 -0.1164
C133 C 0.12519(13) 0.61545(6) 0.09689(5)
C134 C 0.02638(14) 0.61009(8) 0.08570(6)
H111 H 0.0055 0.6337 0.0607
C135 C -0.04207(17) 0.57077(9) 0.11043(6)
H112 H -0.1097 0.5682 0.1026
C136 C -0.01148(17) 0.53555(8) 0.14634(6)
H113 H -0.0578 0.5084 0.1632
C137 C 0.08556(18) 0.53955(8) 0.15787(6)
H114 H 0.1063 0.5151 0.1826
C138 C 0.15416(16) 0.57938(7) 0.13340(5)
H115 H 0.2212 0.5819 0.1417
C139 C 0.11078(13) 0.80842(7) 0.11373(5)
C140 C 0.13981(14) 0.84492(7) 0.13340(5)
H116 H 0.2023 0.8646 0.1224
C141 C 0.07915(16) 0.85282(8) 0.16861(6)
H117 H 0.1004 0.8775 0.1816
C142 C -0.01302(17) 0.82433(9) 0.18481(6)
H118 H -0.0545 0.8293 0.2090
C143 C -0.04400(16) 0.78904(10) 0.16578(6)
H119 H -0.1077 0.7702 0.1766
C144 C 0.01728(15) 0.78073(9) 0.13075(5)
H120 H -0.0046 0.7558 0.1181
C145 C 0.13323(12) 0.93828(7) -0.03744(4)
C146 C 0.04873(13) 0.94540(7) -0.06086(5)
H121 H 0.0311 0.9136 -0.0677
C147 C -0.00947(14) 0.99888(8) -0.07422(5)
H122 H -0.0658 1.0034 -0.0903
C148 C 0.01475(16) 1.04514(8) -0.06403(6)
H123 H -0.0260 1.0813 -0.0727
C149 C 0.09789(16) 1.03920(7) -0.04123(5)
H124 H 0.1147 1.0712 -0.0345
C150 C 0.15677(14) 0.98631(7) -0.02826(5)
H125 H 0.2143 0.9826 -0.0128
C151 C 0.54274(13) 0.92253(6) -0.03400(4)
C152 C 0.49304(14) 0.97833(7) -0.04752(5)
H126 H 0.4184 0.9843 -0.0513
C153 C 0.55114(16) 1.02526(7) -0.05555(5)
H127 H 0.5163 1.0628 -0.0648
C154 C 0.65936(16) 1.01704(8) -0.04998(5)
H128 H 0.6989 1.0490 -0.0554
C155 C 0.71066(16) 0.96232(8) -0.03653(5)
H129 H 0.7852 0.9568 -0.0327
C156 C 0.65270(13) 0.91535(7) -0.02863(5)
H130 H 0.6883 0.8780 -0.0195
C157 C 0.51791(14) 0.80842(7) 0.09934(5)
C158 C 0.46098(16) 0.81804(7) 0.13520(6)
H131 H 0.3877 0.8096 0.1430
C159 C 0.51083(19) 0.83979(8) 0.15941(6)
H132 H 0.4714 0.8461 0.1836
C160 C 0.6168(2) 0.85219(9) 0.14842(7)
H133 H 0.6501 0.8673 0.1649
C161 C 0.67508(19) 0.84272(11) 0.11345(7)
H134 H 0.7486 0.8509 0.1061
C162 C 0.62612(16) 0.82107(9) 0.08884(6)
H135 H 0.6665 0.8149 0.0648
C163 C 0.53906(13) 0.59507(7) 0.09584(5)
C164 C 0.61602(13) 0.60092(7) 0.11835(5)
H136 H 0.6366 0.6377 0.1149
C165 C 0.66343(14) 0.55407(8) 0.14574(5)
H137 H 0.7148 0.5591 0.1611
C166 C 0.6357(2) 0.50036(9) 0.15046(7)
H138 H 0.6676 0.4683 0.1692
C167 C 0.5609(3) 0.49336(10) 0.12775(9)
H139 H 0.5424 0.4563 0.1306
C168 C 0.5132(2) 0.54032(9) 0.10085(8)
H140 H 0.4618 0.5350 0.0856
C169 C 0.59931(13) 0.60399(7) -0.04364(6)
C170 C 0.5886(3) 0.54815(14) -0.03280(12)
H141 H 0.5243 0.5354 -0.0160
C171 C 0.6659(3) 0.50784(16) -0.04462(14)
H142 H 0.6519 0.4690 -0.0360
C172 C 0.75324(18) 0.52071(9) -0.06621(8)
H143 H 0.8083 0.4914 -0.0704
C173 C 0.6947(3) 0.62215(15) -0.07317(11)
H144 H 0.7038 0.6616 -0.0839
C174 C 0.7720(3) 0.58114(18) -0.08539(13)
H145 H 0.8332 0.5917 -0.1049
C175 C 0.17246(14) 0.61502(7) -0.04016(6)
C176 C 0.2196(3) 0.56753(17) -0.05052(15)
H146 H 0.2961 0.5585 -0.0513
C177 C 0.1589(4) 0.5312(2) -0.0602(2)
H147 H 0.1946 0.4994 -0.0689
C178 C 0.0466(5) 0.5420(3) -0.0570(3)
H148 H 0.0044 0.5160 -0.0614
C179 C -0.0049(4) 0.5921(2) -0.0470(2)
H149 H -0.0811 0.6019 -0.0473
C180 C 0.0566(3) 0.6265(2) -0.03704(15)
H150 H 0.0216 0.6581 -0.0280
C181 C 0.44156(17) 0.42389(9) 0.36822(7)
C182 C 0.36455(18) 0.46953(10) 0.35525(7)
H151 H 0.2990 0.4747 0.3724
C183 C 0.38283(18) 0.50751(9) 0.31751(7)
H152 H 0.3295 0.5386 0.3090
C184 C 0.47623(17) 0.50118(9) 0.29216(7)
H153 H 0.4869 0.5271 0.2660
C185 C 0.55467(18) 0.45692(10) 0.30479(7)
H154 H 0.6208 0.4527 0.2877
C186 C 0.53658(18) 0.41839(9) 0.34266(7)
H155 H 0.5906 0.3876 0.3511
C187 C 0.4217(2) 0.38141(13) 0.40919(8)
H156 H 0.4915 0.3649 0.4190
H157 H 0.3830 0.3510 0.4070
H158 H 0.3776 0.4008 0.4281
C188 C 0.59649(15) -0.01023(8) 0.69066(6)
C189 C 0.50093(15) 0.02663(9) 0.68623(6)
H159 H 0.4387 0.0181 0.7056
C190 C 0.49468(16) 0.07543(9) 0.65423(6)
H160 H 0.4289 0.1002 0.6520
C191 C 0.58422(16) 0.08819(8) 0.62543(6)
H161 H 0.5800 0.1213 0.6031
C192 C 0.67985(17) 0.05212(9) 0.62960(7)
H162 H 0.7421 0.0607 0.6102
C193 C 0.68529(16) 0.00365(8) 0.66184(6)
H163 H 0.7516 -0.0207 0.6643
C194 C 0.60317(18) -0.06304(9) 0.72567(6)
H164 H 0.6753 -0.0842 0.7231
H165 H 0.5475 -0.0871 0.7259
H166 H 0.5910 -0.0522 0.7509
C195 C 0.1551(3) 0.21035(16) 0.03844(11)
C196 C 0.0893(4) 0.2095(2) 0.01090(16)
H167 H 0.0385 0.1820 0.0185
C197 C 0.0941(4) 0.2464(2) -0.02676(15)
H168 H 0.0458 0.2450 -0.0446
C198 C 0.1682(4) 0.2855(2) -0.03905(15)
H169 H 0.1714 0.3123 -0.0650
C199 C 0.2405(4) 0.2845(3) -0.01131(17)
H170 H 0.2979 0.3083 -0.0198
C200 C 0.2292(3) 0.2515(2) 0.02530(14)
H171 H 0.2726 0.2554 0.0439
C201 C 0.1499(4) 0.1699(2) 0.07924(13)
H172 H 0.0751 0.1604 0.0886
H173 H 0.1730 0.1874 0.0978
H174 H 0.1982 0.1350 0.0784
C202? C 0.1633(4) 0.2499(3) 0.03213(14)
C203? C 0.0880(5) 0.2156(3) 0.03037(18)
C204? C 0.6717(3) 0.56939(15) -0.01377(12)
C205? C 0.7483(3) 0.52770(16) -0.02472(14)
C206? C 0.6787(3) 0.54806(17) -0.08742(14)
C207? C 0.6016(3) 0.58956(16) -0.07653(12)
C208? C 0.2242(5) 0.5809(2) -0.06781(16)
C209? C 0.1621(7) 0.5471(3) -0.0777(2)
C210? C 0.0582(9) 0.5454(4) -0.0642(4)
C211? C 0.0079(6) 0.5729(3) -0.0361(2)
C212? C 0.0720(5) 0.2083(3) -0.0053(2)
C213? C 0.0677(6) 0.6101(3) -0.0267(2)
C214? C 0.1322(5) 0.2337(3) -0.04015(16)
C215? C 0.2108(5) 0.2694(3) -0.03876(18)
C216? C 0.2132(5) 0.2813(3) -0.0049(2)
C217? C 0.1776(5) 0.2599(4) 0.07054(18)
H175? H 0.0462 0.1966 0.0546
H176? H 0.6661 0.5755 0.0120
H177? H 0.7960 0.5044 -0.0065
H178? H 0.6755 0.5397 -0.1119
H179? H 0.5485 0.6081 -0.0939
H180? H 0.2988 0.5823 -0.0785
H181? H 0.1952 0.5241 -0.0948
H182? H 0.0166 0.5247 -0.0742
H183? H -0.0642 0.5669 -0.0235
H184? H 0.0183 0.1851 -0.0056
H185? H 0.0314 0.6329 -0.0099
H186? H 0.1225 0.2280 -0.0649
H187? H 0.2602 0.2843 -0.0620
H188? H 0.2503 0.3125 -0.0056
H189? H 0.1097 0.2787 0.0813
H190? H 0.2360 0.2844 0.0657
H191? H 0.1966 0.2234 0.0900
loop_
_geom_bond_atom_site_label_1
_geom_bond_atom_site_label_2
_geom_bond_site_symmetry_1
_geom_bond_site_symmetry_2
Si1 O1 1_555 1_555
Si2 O1 1_555 1_555
Si3 O2 1_555 1_555
Si4 O3 1_555 1_555
Si5 O4 1_555 1_555
Si6 O5 1_555 1_555
Si7 O8 1_555 1_555
Si8 O9 1_555 1_555
Si9 O11 1_555 1_555
Si10 O13 1_555 1_555
Si11 O16 1_555 1_555
Si12 O16 1_555 1_555
Si13 O17 1_555 1_555
Si14 O18 1_555 1_555
Si15 O20 1_555 1_555
Si16 O21 1_555 1_555
Si17 O22 1_555 1_555
Si18 O23 1_555 1_555
Si19 O25 1_555 1_555
Si20 O26 1_555 1_555
Si21 O31 1_555 1_555
Si22 O31 1_555 1_555
Si23 O32 1_555 1_555
Si24 O33 1_555 1_555
Si25 O34 1_555 1_555
Si26 O35 1_555 1_555
Si27 O36 1_555 1_555
Si28 O38 1_555 1_555
Si29 O41 1_555 1_555
Si30 O42 1_555 1_555
O2 Si2 1_555 1_555
O3 Si3 1_555 1_555
O4 Si4 1_555 1_555
O5 Si5 1_555 1_555
O6 Si1 1_555 1_555
O7 Si3 1_555 1_555
O8 Si5 1_555 1_555
O9 Si7 1_555 1_555
O10 Si1 1_555 1_555
O11 Si8 1_555 1_555
O12 Si2 1_555 1_555
O13 Si9 1_555 1_555
O14 Si7 1_555 1_555
O15 Si4 1_555 1_555
O17 Si12 1_555 1_555
O18 Si13 1_555 1_555
O19 Si11 1_555 1_555
O20 Si14 1_555 1_555
O21 Si15 1_555 1_555
O22 Si16 1_555 1_555
O23 Si17 1_555 1_555
O24 Si12 1_555 1_555
O25 Si18 1_555 1_555
O26 Si19 1_555 1_555
O27 Si15 1_555 1_555
O28 Si17 1_555 1_555
O29 Si13 1_555 1_555
O30 Si11 1_555 1_555
O32 Si22 1_555 1_555
O33 Si23 1_555 1_555
O34 Si24 1_555 1_555
O35 Si25 1_555 1_555
O36 Si26 1_555 1_555
O37 Si21 1_555 1_555
O38 Si27 1_555 1_555
O39 Si25 1_555 1_555
O40 Si22 1_555 1_555
O41 Si26 1_555 1_555
O42 Si29 1_555 1_555
O43 Si21 1_555 1_555
O44 Si23 1_555 1_555
O45 Si24 1_555 1_555
C1 Si6 1_555 1_555
C2 C1 1_555 1_555
H1 C2 1_555 1_555
C3 C2 1_555 1_555
H2 C3 1_555 1_555
C4 C3 1_555 1_555
H3 C4 1_555 1_555
C5 C4 1_555 1_555
H4 C5 1_555 1_555
C6 C1 1_555 1_555
H5 C6 1_555 1_555
C7 Si10 1_555 1_555
C8 C7 1_555 1_555
H6 C8 1_555 1_555
C9 C8 1_555 1_555
H7 C9 1_555 1_555
C10 C9 1_555 1_555
H8 C10 1_555 1_555
C11 C10 1_555 1_555
H9 C11 1_555 1_555
C12 C7 1_555 1_555
H10 C12 1_555 1_555
C13 Si9 1_555 1_555
C14 C13 1_555 1_555
H11 C14 1_555 1_555
C15 C14 1_555 1_555
H12 C15 1_555 1_555
C16 C15 1_555 1_555
H13 C16 1_555 1_555
C17 C16 1_555 1_555
H14 C17 1_555 1_555
C18 C13 1_555 1_555
H15 C18 1_555 1_555
C19 Si8 1_555 1_555
C20 C19 1_555 1_555
H16 C20 1_555 1_555
C21 C20 1_555 1_555
H17 C21 1_555 1_555
C22 C21 1_555 1_555
H18 C22 1_555 1_555
C23 C22 1_555 1_555
H19 C23 1_555 1_555
C24 C19 1_555 1_555
H20 C24 1_555 1_555
C25 Si7 1_555 1_555
C26 C25 1_555 1_555
H21 C26 1_555 1_555
C27 C26 1_555 1_555
H22 C27 1_555 1_555
C28 C27 1_555 1_555
H23 C28 1_555 1_555
C29 C28 1_555 1_555
H24 C29 1_555 1_555
C30 C25 1_555 1_555
H25 C30 1_555 1_555
C31 Si5 1_555 1_555
C32 C31 1_555 1_555
H26 C32 1_555 1_555
C33 C32 1_555 1_555
H27 C33 1_555 1_555
C34 C33 1_555 1_555
H28 C34 1_555 1_555
C35 C34 1_555 1_555
H29 C35 1_555 1_555
C36 C31 1_555 1_555
H30 C36 1_555 1_555
C37 Si4 1_555 1_555
C38 C37 1_555 1_555
H31 C38 1_555 1_555
C39 C38 1_555 1_555
H32 C39 1_555 1_555
C40 C39 1_555 1_555
H33 C40 1_555 1_555
C41 C40 1_555 1_555
H34 C41 1_555 1_555
C42 C37 1_555 1_555
H35 C42 1_555 1_555
C43 Si3 1_555 1_555
C44 C43 1_555 1_555
H36 C44 1_555 1_555
C45 C44 1_555 1_555
H37 C45 1_555 1_555
C46 C45 1_555 1_555
H38 C46 1_555 1_555
C47 C46 1_555 1_555
H39 C47 1_555 1_555
C48 C43 1_555 1_555
H40 C48 1_555 1_555
C49 Si2 1_555 1_555
C50 C49 1_555 1_555
H41 C50 1_555 1_555
C51 C50 1_555 1_555
H42 C51 1_555 1_555
C52 C51 1_555 1_555
H43 C52 1_555 1_555
C53 C52 1_555 1_555
H44 C53 1_555 1_555
C54 C49 1_555 1_555
H45 C54 1_555 1_555
C55 Si1 1_555 1_555
C56 C55 1_555 1_555
H46 C56 1_555 1_555
C57 C56 1_555 1_555
H47 C57 1_555 1_555
C58 C57 1_555 1_555
H48 C58 1_555 1_555
C59 C58 1_555 1_555
H49 C59 1_555 1_555
C60 C55 1_555 1_555
H50 C60 1_555 1_555
C61 Si20 1_555 1_555
C62 C61 1_555 1_555
H51 C62 1_555 1_555
C63 C62 1_555 1_555
H52 C63 1_555 1_555
C64 C63 1_555 1_555
H53 C64 1_555 1_555
C65 C64 1_555 1_555
H54 C65 1_555 1_555
C66 C61 1_555 1_555
H55 C66 1_555 1_555
C67 Si19 1_555 1_555
C68 C67 1_555 1_555
H56 C68 1_555 1_555
C69 C68 1_555 1_555
H57 C69 1_555 1_555
C70 C69 1_555 1_555
H58 C70 1_555 1_555
C71 C70 1_555 1_555
H59 C71 1_555 1_555
C72 C67 1_555 1_555
H60 C72 1_555 1_555
C73 Si18 1_555 1_555
C74 C73 1_555 1_555
H61 C74 1_555 1_555
C75 C74 1_555 1_555
H62 C75 1_555 1_555
C76 C75 1_555 1_555
H63 C76 1_555 1_555
C77 C76 1_555 1_555
H64 C77 1_555 1_555
C78 C73 1_555 1_555
H65 C78 1_555 1_555
C79 Si17 1_555 1_555
C80 C79 1_555 1_555
H66 C80 1_555 1_555
C81 C80 1_555 1_555
H67 C81 1_555 1_555
C82 C81 1_555 1_555
H68 C82 1_555 1_555
C83 C82 1_555 1_555
H69 C83 1_555 1_555
C84 C79 1_555 1_555
H70 C84 1_555 1_555
C85 Si16 1_555 1_555
C86 C85 1_555 1_555
H71 C86 1_555 1_555
C87 C86 1_555 1_555
H72 C87 1_555 1_555
C88 C87 1_555 1_555
H73 C88 1_555 1_555
C89 C88 1_555 1_555
H74 C89 1_555 1_555
C90 C85 1_555 1_555
H75 C90 1_555 1_555
C91 Si15 1_555 1_555
C92 C91 1_555 1_555
H76 C92 1_555 1_555
C93 C92 1_555 1_555
H77 C93 1_555 1_555
C94 C93 1_555 1_555
H78 C94 1_555 1_555
C95 C94 1_555 1_555
H79 C95 1_555 1_555
C96 C91 1_555 1_555
H80 C96 1_555 1_555
C97 Si14 1_555 1_555
C98 C97 1_555 1_555
H81 C98 1_555 1_555
C99 C98 1_555 1_555
H82 C99 1_555 1_555
C100 C99 1_555 1_555
H83 C100 1_555 1_555
C101 C100 1_555 1_555
H84 C101 1_555 1_555
C102 C97 1_555 1_555
H85 C102 1_555 1_555
C103 Si13 1_555 1_555
C104 C103 1_555 1_555
H86 C104 1_555 1_555
C105 C104 1_555 1_555
H87 C105 1_555 1_555
C106 C105 1_555 1_555
H88 C106 1_555 1_555
C107 C106 1_555 1_555
H89 C107 1_555 1_555
C108 C103 1_555 1_555
H90 C108 1_555 1_555
C109 Si12 1_555 1_555
C110 C109 1_555 1_555
H91 C110 1_555 1_555
C111 C110 1_555 1_555
H92 C111 1_555 1_555
C112 C111 1_555 1_555
H93 C112 1_555 1_555
C113 C112 1_555 1_555
H94 C113 1_555 1_555
C114 C109 1_555 1_555
H95 C114 1_555 1_555
C115 Si11 1_555 1_555
C116 C115 1_555 1_555
H96 C116 1_555 1_555
C117 C116 1_555 1_555
H97 C117 1_555 1_555
C118 C117 1_555 1_555
H98 C118 1_555 1_555
C119 C118 1_555 1_555
H99 C119 1_555 1_555
C120 C115 1_555 1_555
H100 C120 1_555 1_555
C121 Si28 1_555 1_555
C122 C121 1_555 1_555
H101 C122 1_555 1_555
C123 C122 1_555 1_555
H102 C123 1_555 1_555
C124 C123 1_555 1_555
H103 C124 1_555 1_555
C125 C124 1_555 1_555
H104 C125 1_555 1_555
C126 C121 1_555 1_555
H105 C126 1_555 1_555
C127 Si27 1_555 1_555
C128 C127 1_555 1_555
H106 C128 1_555 1_555
C129 C128 1_555 1_555
H107 C129 1_555 1_555
C130 C129 1_555 1_555
H108 C130 1_555 1_555
C131 C130 1_555 1_555
H109 C131 1_555 1_555
C132 C127 1_555 1_555
H110 C132 1_555 1_555
C133 Si30 1_555 1_555
C134 C133 1_555 1_555
H111 C134 1_555 1_555
C135 C134 1_555 1_555
H112 C135 1_555 1_555
C136 C135 1_555 1_555
H113 C136 1_555 1_555
C137 C136 1_555 1_555
H114 C137 1_555 1_555
C138 C133 1_555 1_555
H115 C138 1_555 1_555
C139 Si29 1_555 1_555
C140 C139 1_555 1_555
H116 C140 1_555 1_555
C141 C140 1_555 1_555
H117 C141 1_555 1_555
C142 C141 1_555 1_555
H118 C142 1_555 1_555
C143 C142 1_555 1_555
H119 C143 1_555 1_555
C144 C139 1_555 1_555
H120 C144 1_555 1_555
C145 Si26 1_555 1_555
C146 C145 1_555 1_555
H121 C146 1_555 1_555
C147 C146 1_555 1_555
H122 C147 1_555 1_555
C148 C147 1_555 1_555
H123 C148 1_555 1_555
C149 C148 1_555 1_555
H124 C149 1_555 1_555
C150 C145 1_555 1_555
H125 C150 1_555 1_555
C151 Si25 1_555 1_555
C152 C151 1_555 1_555
H126 C152 1_555 1_555
C153 C152 1_555 1_555
H127 C153 1_555 1_555
C154 C153 1_555 1_555
H128 C154 1_555 1_555
C155 C154 1_555 1_555
H129 C155 1_555 1_555
C156 C151 1_555 1_555
H130 C156 1_555 1_555
C157 Si24 1_555 1_555
C158 C157 1_555 1_555
H131 C158 1_555 1_555
C159 C158 1_555 1_555
H132 C159 1_555 1_555
C160 C159 1_555 1_555
H133 C160 1_555 1_555
C161 C160 1_555 1_555
H134 C161 1_555 1_555
C162 C157 1_555 1_555
H135 C162 1_555 1_555
C163 Si23 1_555 1_555
C164 C163 1_555 1_555
H136 C164 1_555 1_555
C165 C164 1_555 1_555
H137 C165 1_555 1_555
C166 C165 1_555 1_555
H138 C166 1_555 1_555
C167 C166 1_555 1_555
H139 C167 1_555 1_555
C168 C163 1_555 1_555
H140 C168 1_555 1_555
C169 Si22 1_555 1_555
C170 C169 1_555 1_555
H141 C170 1_555 1_555
C171 C170 1_555 1_555
H142 C171 1_555 1_555
C172 C171 1_555 1_555
H143 C172 1_555 1_555
C173 C169 1_555 1_555
H144 C173 1_555 1_555
C174 C172 1_555 1_555
H145 C174 1_555 1_555
C175 Si21 1_555 1_555
C176 C175 1_555 1_555
H146 C176 1_555 1_555
C177 C176 1_555 1_555
H147 C177 1_555 1_555
C178 C177 1_555 1_555
H148 C178 1_555 1_555
C179 C178 1_555 1_555
H149 C179 1_555 1_555
C180 C175 1_555 1_555
H150 C180 1_555 1_555
C181 C182 1_555 1_555
C182 H151 1_555 1_555
C183 C182 1_555 1_555
H152 C183 1_555 1_555
C184 C183 1_555 1_555
H153 C184 1_555 1_555
C185 C184 1_555 1_555
H154 C185 1_555 1_555
C186 C181 1_555 1_555
H155 C186 1_555 1_555
C187 C181 1_555 1_555
H156 C187 1_555 1_555
H157 C187 1_555 1_555
H158 C187 1_555 1_555
C188 C189 1_555 1_555
C189 H159 1_555 1_555
C190 C189 1_555 1_555
H160 C190 1_555 1_555
C191 C190 1_555 1_555
H161 C191 1_555 1_555
C192 C191 1_555 1_555
H162 C192 1_555 1_555
C193 C188 1_555 1_555
H163 C193 1_555 1_555
C194 C188 1_555 1_555
H164 C194 1_555 1_555
H165 C194 1_555 1_555
H166 C194 1_555 1_555
C195 C196 1_555 1_555
C196 H167 1_555 1_555
C197 C196 1_555 1_555
H168 C197 1_555 1_555
C198 C197 1_555 1_555
H169 C198 1_555 1_555
C199 C198 1_555 1_555
H170 C199 1_555 1_555
C200 C195 1_555 1_555
H171 C200 1_555 1_555
C201 C195 1_555 1_555
H172 C201 1_555 1_555
H173 C201 1_555 1_555
H174 C201 1_555 1_555
Si6 O6 1_555 1_555
Si6 O7 1_555 1_555
Si8 O10 1_555 1_555
Si9 O12 1_555 1_555
Si10 O14 1_555 1_555
Si10 O15 1_555 1_555
Si14 O19 1_555 1_555
Si16 O30 1_555 1_555
Si18 O24 1_555 1_555
Si19 O29 1_555 1_555
Si20 O27 1_555 1_555
Si20 O28 1_555 1_555
Si27 O37 1_555 1_555
Si28 O39 1_555 1_555
Si28 O40 1_555 1_555
Si29 O45 1_555 1_555
Si30 O43 1_555 1_555
Si30 O44 1_555 1_555
C5 C6 1_555 1_555
C11 C12 1_555 1_555
C17 C18 1_555 1_555
C23 C24 1_555 1_555
C29 C30 1_555 1_555
C35 C36 1_555 1_555
C41 C42 1_555 1_555
C47 C48 1_555 1_555
C53 C54 1_555 1_555
C59 C60 1_555 1_555
C65 C66 1_555 1_555
C71 C72 1_555 1_555
C77 C78 1_555 1_555
C83 C84 1_555 1_555
C89 C90 1_555 1_555
C95 C96 1_555 1_555
C101 C102 1_555 1_555
C107 C108 1_555 1_555
C113 C114 1_555 1_555
C119 C120 1_555 1_555
C125 C126 1_555 1_555
C131 C132 1_555 1_555
C137 C138 1_555 1_555
C143 C144 1_555 1_555
C149 C150 1_555 1_555
C155 C156 1_555 1_555
C161 C162 1_555 1_555
C167 C168 1_555 1_555
C173 C174 1_555 1_555
C179 C180 1_555 1_555
C185 C186 1_555 1_555
C192 C193 1_555 1_555
C199 C200 1_555 1_555

#END
