
#######################################################################
#
#                 Cambridge Crystallographic Data Centre
#                                CCDC 
#
#######################################################################
#
# If this CIF has been generated from an entry in the Cambridge 
# Structural Database, then it will include bibliographic, chemical, 
# crystal, experimental, refinement or atomic coordinate data resulting 
# from the CCDC's data processing and validation procedures.
#
#######################################################################

data_BUWXEY
_chemical_formula_moiety         'C15 H11 N7 O2,2(C3 H7 N1 O1),H2 O1'
_chemical_name_systematic        
"2',7'-diamino-2,4'-dioxo-1,2,4',8'-tetrahydro-3'H-spiro[indole-3,5'-pyrido[2,3-d]pyrimidine]-6'-carbonitrile N,N-dimethylformamide solvate monohydrate"
_symmetry_cell_setting           triclinic
_symmetry_space_group_name_H-M   'P -1'
_symmetry_Int_Tables_number      2
_space_group_name_Hall           '-P 1'
loop_
_symmetry_equiv_pos_site_id
_symmetry_equiv_pos_as_xyz
1 x,y,z
2 -x,-y,-z
_cell_length_a                   9.8572(9)
_cell_length_b                   10.5042(7)
_cell_length_c                   12.5633(12)
_cell_angle_alpha                73.197(7)
_cell_angle_beta                 81.095(8)
_cell_angle_gamma                70.322(7)
_cell_volume                     1170.18
_exptl_crystal_colour            colorless
_exptl_crystal_description       block
_cell_formula_units_Z            2
loop_
_atom_site_label
_atom_site_type_symbol
_atom_site_fract_x
_atom_site_fract_y
_atom_site_fract_z
O1 O 0.11436(14) 0.53467(12) 0.39216(10)
O2 O 0.42181(14) 0.60277(13) 0.36783(10)
N1 N 0.10329(16) 1.00900(15) 0.27068(12)
H1 H 0.0590 1.0940 0.2787
N2 N -0.05613(15) 0.70534(15) 0.46134(12)
H2 H -0.0917 0.6423 0.5082
N3 N -0.06621(15) 0.94241(15) 0.40004(12)
N4 N -0.23859(16) 0.87665(16) 0.52756(13)
H3 H -0.2815 0.9647 0.5283
H4 H -0.2748 0.8113 0.5696
N5 N 0.39589(16) 0.50704(15) 0.23226(12)
H5 H 0.4699 0.4303 0.2455
N6 N 0.51049(18) 0.82750(17) 0.03930(14)
N7 N 0.26723(18) 1.10083(16) 0.15124(14)
H6 H 0.2196 1.1808 0.1677
H7 H 0.3436 1.0948 0.1040
C1 C 0.05010(18) 0.90206(17) 0.33092(14)
C2 C 0.11271(18) 0.76904(17) 0.31689(14)
C3 C 0.23515(18) 0.73219(17) 0.23181(14)
C4 C 0.28867(18) 0.85829(17) 0.17717(14)
C5 C 0.22317(18) 0.98723(18) 0.19853(14)
C6 C 0.06114(18) 0.66138(18) 0.38916(14)
C7 C -0.11828(19) 0.84218(18) 0.46242(14)
C8 C 0.36132(19) 0.60719(18) 0.28851(15)
C9 C 0.29904(19) 0.54098(18) 0.15034(14)
C10 C 0.2963(2) 0.4630(2) 0.07945(16)
H8 H 0.3662 0.3744 0.0811
C11 C 0.1870(2) 0.5195(2) 0.00559(17)
H9 H 0.1823 0.4684 -0.0443
C12 C 0.0848(2) 0.6485(2) 0.00311(16)
H10 H 0.0102 0.6840 -0.0472
C13 C 0.0909(2) 0.7262(2) 0.07376(15)
H11 H 0.0215 0.8152 0.0717
C14 C 0.19904(18) 0.67235(17) 0.14693(14)
C15 C 0.4108(2) 0.84122(17) 0.10146(15)
O3 O 0.41795(18) 0.83774(16) 0.44162(13)
H12 H 0.414(3) 0.769(2) 0.424(2)
H13 H 0.456(3) 0.804(3) 0.5020(13)
O4 O 1.05389(15) 0.28570(13) 0.26493(12)
N8 N 0.84739(17) 0.44434(16) 0.30871(13)
C16 C 0.9774(2) 0.40719(19) 0.25994(15)
H14 H 1.0156 0.4797 0.2175
C17 C 0.7659(3) 0.5913(2) 0.2953(2)
H15 H 0.8253 0.6489 0.2513
H16 H 0.7388 0.6108 0.3687
H17 H 0.6785 0.6132 0.2568
C18 C 0.7787(2) 0.3431(2) 0.37829(17)
H18 H 0.6940 0.3495 0.3428
H19 H 0.7485 0.3629 0.4514
H20 H 0.8473 0.2486 0.3875
O5 O 0.48740(16) 0.21909(13) 0.33523(11)
N9 N 0.63817(17) 0.07848(16) 0.23030(13)
C19 C 0.5368(2) 0.10604(19) 0.30922(16)
H21 H 0.4981 0.0331 0.3498
C20 C 0.6902(2) -0.0593(2) 0.2093(2)
H22 H 0.6366 -0.1189 0.2596
H23 H 0.7932 -0.1008 0.2224
H24 H 0.6758 -0.0512 0.1319
C21 C 0.7082(2) 0.1800(2) 0.16546(17)
H25 H 0.6595 0.2701 0.1834
H26 H 0.7029 0.1909 0.0859
H27 H 0.8096 0.1477 0.1832
loop_
_geom_bond_atom_site_label_1
_geom_bond_atom_site_label_2
_geom_bond_site_symmetry_1
_geom_bond_site_symmetry_2
O1 C6 1_555 1_555
O2 C8 1_555 1_555
N1 H1 1_555 1_555
N2 H2 1_555 1_555
N3 C1 1_555 1_555
N4 H3 1_555 1_555
H4 N4 1_555 1_555
N5 H5 1_555 1_555
N6 C15 1_555 1_555
N7 H6 1_555 1_555
H7 N7 1_555 1_555
C1 N1 1_555 1_555
C2 C1 1_555 1_555
C3 C2 1_555 1_555
C4 C3 1_555 1_555
C5 N1 1_555 1_555
C6 N2 1_555 1_555
C7 N2 1_555 1_555
C8 N5 1_555 1_555
C9 N5 1_555 1_555
C10 C9 1_555 1_555
H8 C10 1_555 1_555
C11 C10 1_555 1_555
H9 C11 1_555 1_555
C12 C11 1_555 1_555
H10 C12 1_555 1_555
C13 C12 1_555 1_555
H11 C13 1_555 1_555
C14 C3 1_555 1_555
C15 C4 1_555 1_555
O3 H12 1_555 1_555
H13 O3 1_555 1_555
O4 C16 1_555 1_555
N8 C16 1_555 1_555
C16 H14 1_555 1_555
C17 N8 1_555 1_555
H15 C17 1_555 1_555
H16 C17 1_555 1_555
H17 C17 1_555 1_555
C18 N8 1_555 1_555
H18 C18 1_555 1_555
H19 C18 1_555 1_555
H20 C18 1_555 1_555
O5 C19 1_555 1_555
N9 C19 1_555 1_555
C19 H21 1_555 1_555
C20 N9 1_555 1_555
H22 C20 1_555 1_555
H23 C20 1_555 1_555
H24 C20 1_555 1_555
C21 N9 1_555 1_555
H25 C21 1_555 1_555
H26 C21 1_555 1_555
H27 C21 1_555 1_555
N3 C7 1_555 1_555
N4 C7 1_555 1_555
N7 C5 1_555 1_555
C2 C6 1_555 1_555
C3 C8 1_555 1_555
C4 C5 1_555 1_555
C9 C14 1_555 1_555
C13 C14 1_555 1_555

#END
