
#######################################################################
#
#                 Cambridge Crystallographic Data Centre
#                                CCDC 
#
#######################################################################
#
# If this CIF has been generated from an entry in the Cambridge 
# Structural Database, then it will include bibliographic, chemical, 
# crystal, experimental, refinement or atomic coordinate data resulting 
# from the CCDC's data processing and validation procedures.
#
#######################################################################

data_BUXBEC
_chemical_formula_moiety         'C22 H19 N3 O1 2+,2(H2 O1),2(Br1 1-)'
_chemical_name_systematic        
"4'-(4-Methoxyphenyl)-2,2':6',2''-terpyridinedi-ium dibromide dihydrate"
_symmetry_cell_setting           triclinic
_symmetry_space_group_name_H-M   'P -1'
_symmetry_Int_Tables_number      2
_space_group_name_Hall           '-P 1'
loop_
_symmetry_equiv_pos_site_id
_symmetry_equiv_pos_as_xyz
1 x,y,z
2 -x,-y,-z
_cell_length_a                   8.2416(10)
_cell_length_b                   11.2464(14)
_cell_length_c                   13.9496(19)
_cell_angle_alpha                104.279(8)
_cell_angle_beta                 106.169(10)
_cell_angle_gamma                105.466(11)
_cell_volume                     1122.63
_exptl_crystal_colour            yellow
_exptl_crystal_description       block
_cell_formula_units_Z            2
loop_
_atom_site_label
_atom_site_type_symbol
_atom_site_fract_x
_atom_site_fract_y
_atom_site_fract_z
C1 C 1.3708(6) 0.5793(5) 1.4360(4)
H1 H 1.2770 0.5034 1.4312
H2 H 1.4489 0.6265 1.5091
H3 H 1.4399 0.5518 1.3957
O1 O 1.2915(4) 0.6624(3) 1.3943(2)
C2 C 1.1568(5) 0.6090(4) 1.2975(3)
C3 C 1.0726(5) 0.6930(4) 1.2661(3)
H4 H 1.1072 0.7782 1.3126
C4 C 0.9396(5) 0.6513(4) 1.1677(3)
H5 H 0.8859 0.7090 1.1481
C5 C 0.8831(5) 0.5230(4) 1.0962(3)
C6 C 0.9676(5) 0.4413(4) 1.1303(3)
H6 H 0.9319 0.3554 1.0847
C7 C 1.1026(5) 0.4822(4) 1.2293(3)
H7 H 1.1560 0.4247 1.2494
C8 C 0.7411(5) 0.4798(4) 0.9900(3)
C9 C 0.6655(5) 0.5658(4) 0.9561(3)
H8 H 0.7052 0.6527 1.0007
C10 C 0.5317(5) 0.5232(4) 0.8567(3)
N1 N 0.4721(4) 0.4004(3) 0.7876(3)
C11 C 0.5473(5) 0.3177(4) 0.8196(3)
C12 C 0.6775(5) 0.3533(4) 0.9189(3)
H9 H 0.7228 0.2916 0.9380
C13 C 0.4878(5) 0.1866(4) 0.7393(3)
N2 N 0.3512(5) 0.1587(4) 0.6483(3)
H10 H 0.3030 0.2168 0.6420
C14 C 0.2859(7) 0.0456(5) 0.5669(4)
H11 H 0.1904 0.0309 0.5055
C15 C 0.3586(7) -0.0466(5) 0.5740(4)
H12 H 0.3127 -0.1261 0.5179
C16 C 0.5004(7) -0.0237(5) 0.6639(4)
H13 H 0.5541 -0.0862 0.6681
C17 C 0.5647(6) 0.0947(4) 0.7498(4)
H14 H 0.6577 0.1102 0.8125
C18 C 0.4457(5) 0.6120(4) 0.8208(3)
C19 C 0.4860(6) 0.7399(4) 0.8791(3)
H15 H 0.5769 0.7787 0.9464
C20 C 0.3902(6) 0.8119(4) 0.8371(4)
H16 H 0.4181 0.8995 0.8764
C21 C 0.2566(6) 0.7552(5) 0.7395(4)
H17 H 0.1907 0.8027 0.7121
C22 C 0.2203(5) 0.6289(4) 0.6824(3)
H18 H 0.1305 0.5891 0.6147
N3 N 0.3140(4) 0.5615(3) 0.7236(2)
H19 H 0.2887 0.4812 0.6859
Br1 Br 0.10636(6) 0.29310(5) 0.51583(4)
O2 O 0.8641(6) 0.1194(4) 0.9730(3)
H20 H 0.9541 0.1164 0.9585
H21 H 0.8671 0.0925 1.0226
Br2 Br 0.15432(8) 0.04898(5) 0.85552(4)
O3 O 0.2456(6) 0.2221(4) 0.3017(4)
H22 H 0.2158 0.2499 0.3591
H23 H 0.1622 0.1357 0.2458
loop_
_geom_bond_atom_site_label_1
_geom_bond_atom_site_label_2
_geom_bond_site_symmetry_1
_geom_bond_site_symmetry_2
C1 H1 1_555 1_555
H2 C1 1_555 1_555
H3 C1 1_555 1_555
O1 C1 1_555 1_555
C2 O1 1_555 1_555
C3 C2 1_555 1_555
H4 C3 1_555 1_555
C4 C3 1_555 1_555
H5 C4 1_555 1_555
C5 C4 1_555 1_555
C6 C5 1_555 1_555
H6 C6 1_555 1_555
C7 C2 1_555 1_555
H7 C7 1_555 1_555
C8 C5 1_555 1_555
C9 C8 1_555 1_555
H8 C9 1_555 1_555
C10 C9 1_555 1_555
N1 C10 1_555 1_555
C11 N1 1_555 1_555
C12 C8 1_555 1_555
H9 C12 1_555 1_555
C13 C11 1_555 1_555
N2 C13 1_555 1_555
H10 N2 1_555 1_555
C14 N2 1_555 1_555
H11 C14 1_555 1_555
C15 C14 1_555 1_555
H12 C15 1_555 1_555
C16 C15 1_555 1_555
H13 C16 1_555 1_555
C17 C13 1_555 1_555
H14 C17 1_555 1_555
C18 C10 1_555 1_555
C19 C18 1_555 1_555
H15 C19 1_555 1_555
C20 C19 1_555 1_555
H16 C20 1_555 1_555
C21 C20 1_555 1_555
H17 C21 1_555 1_555
C22 C21 1_555 1_555
H18 C22 1_555 1_555
N3 C18 1_555 1_555
H19 N3 1_555 1_555
O2 H20 1_555 1_555
H21 O2 1_555 1_555
O3 H22 1_555 1_555
H23 O3 1_555 1_555
C6 C7 1_555 1_555
C11 C12 1_555 1_555
C16 C17 1_555 1_555
C22 N3 1_555 1_555

#END
