
#######################################################################
#
#                 Cambridge Crystallographic Data Centre
#                                CCDC 
#
#######################################################################
#
# If this CIF has been generated from an entry in the Cambridge 
# Structural Database, then it will include bibliographic, chemical, 
# crystal, experimental, refinement or atomic coordinate data resulting 
# from the CCDC's data processing and validation procedures.
#
#######################################################################

data_BUXJOV
_chemical_formula_moiety         'C18 H12 Br2 O2 S1'
_chemical_name_systematic        
(4-bromophenyl)(5-(4-bromophenyl)-4-(methylsulfanyl)-2-furyl)methanone
_symmetry_cell_setting           triclinic
_symmetry_space_group_name_H-M   'P -1'
_symmetry_Int_Tables_number      2
_space_group_name_Hall           '-P 1'
loop_
_symmetry_equiv_pos_site_id
_symmetry_equiv_pos_as_xyz
1 x,y,z
2 -x,-y,-z
_cell_length_a                   7.9582(15)
_cell_length_b                   8.0654(15)
_cell_length_c                   13.665(3)
_cell_angle_alpha                82.257(3)
_cell_angle_beta                 84.908(3)
_cell_angle_gamma                72.622(3)
_cell_volume                     828.343
_exptl_crystal_description       block
_cell_formula_units_Z            2
loop_
_atom_site_label
_atom_site_type_symbol
_atom_site_fract_x
_atom_site_fract_y
_atom_site_fract_z
Br1 Br 0.74084(8) 0.61679(8) 0.64943(4)
Br2 Br 0.06146(8) 1.04840(8) -0.38290(4)
C1 C 0.6679(7) 0.6330(6) 0.5194(3)
C2 C 0.5094(7) 0.7507(7) 0.4924(4)
H1 H 0.4369 0.8181 0.5384
C3 C 0.4599(6) 0.7677(6) 0.3976(4)
H2 H 0.3520 0.8456 0.3799
C4 C 0.5690(6) 0.6695(6) 0.3263(3)
C5 C 0.7278(6) 0.5463(6) 0.3569(4)
H3 H 0.8008 0.4769 0.3119
C6 C 0.7750(6) 0.5282(6) 0.4530(4)
H4 H 0.8788 0.4456 0.4732
C7 C 0.5278(6) 0.6803(6) 0.2217(4)
C8 C 0.4103(6) 0.8426(5) 0.1747(3)
C9 C 0.3356(6) 1.0081(6) 0.1976(4)
H5 H 0.3430 1.0493 0.2569
C10 C 0.2437(6) 1.1073(5) 0.1142(3)
C11 C 0.2668(6) 0.9960(5) 0.0442(3)
C12 C 0.2148(5) 1.0095(5) -0.0556(3)
C13 C 0.1186(7) 1.1687(6) -0.1058(4)
H6 H 0.0855 1.2691 -0.0737
C14 C 0.0725(7) 1.1791(6) -0.2015(4)
H7 H 0.0078 1.2853 -0.2335
C15 C 0.1224(6) 1.0317(6) -0.2498(3)
C16 C 0.2179(6) 0.8731(6) -0.2040(4)
H8 H 0.2533 0.7747 -0.2378
C17 C 0.2601(6) 0.8624(5) -0.1075(4)
H9 H 0.3205 0.7543 -0.0756
C18 C 0.2790(7) 1.4373(6) 0.0720(5)
H10 H 0.3735 1.3983 0.1165
H11 H 0.2272 1.5613 0.0714
H12 H 0.3241 1.4109 0.0066
O1 O 0.5922(5) 0.5557(4) 0.1747(3)
O2 O 0.3702(4) 0.8330(4) 0.0798(2)
S1 S 0.11476(16) 1.32784(14) 0.11246(10)
loop_
_geom_bond_atom_site_label_1
_geom_bond_atom_site_label_2
_geom_bond_site_symmetry_1
_geom_bond_site_symmetry_2
Br1 C1 1_555 1_555
Br2 C15 1_555 1_555
C1 C2 1_555 1_555
C2 H1 1_555 1_555
C3 C2 1_555 1_555
H2 C3 1_555 1_555
C4 C3 1_555 1_555
C5 C4 1_555 1_555
H3 C5 1_555 1_555
C6 C1 1_555 1_555
H4 C6 1_555 1_555
C7 C4 1_555 1_555
C8 C7 1_555 1_555
C9 C8 1_555 1_555
H5 C9 1_555 1_555
C10 C9 1_555 1_555
C11 C10 1_555 1_555
C12 C11 1_555 1_555
C13 C12 1_555 1_555
H6 C13 1_555 1_555
C14 C13 1_555 1_555
H7 C14 1_555 1_555
C15 C14 1_555 1_555
C16 C15 1_555 1_555
H8 C16 1_555 1_555
C17 C12 1_555 1_555
H9 C17 1_555 1_555
C18 H10 1_555 1_555
H11 C18 1_555 1_555
H12 C18 1_555 1_555
O1 C7 1_555 1_555
O2 C8 1_555 1_555
S1 C10 1_555 1_555
C5 C6 1_555 1_555
C11 O2 1_555 1_555
C16 C17 1_555 1_555
C18 S1 1_555 1_555

#END
