
#######################################################################
#
#                 Cambridge Crystallographic Data Centre
#                                CCDC 
#
#######################################################################
#
# If this CIF has been generated from an entry in the Cambridge 
# Structural Database, then it will include bibliographic, chemical, 
# crystal, experimental, refinement or atomic coordinate data resulting 
# from the CCDC's data processing and validation procedures.
#
#######################################################################

data_BUXLIR
_chemical_name_common            
'2,6-bis(4-(3-pyridyl)phenyl)-4-(hydroxymethyl)pyridine monohydrate'
_chemical_formula_moiety         'C28 H21 N3 O1,H2 O1'
_chemical_name_systematic        
'(2,6-bis(4-(pyridin-3-yl)phenyl)pyridin-4-yl)methanol monohydrate'
_symmetry_cell_setting           triclinic
_symmetry_space_group_name_H-M   'P -1'
_symmetry_Int_Tables_number      2
_space_group_name_Hall           '-P 1'
loop_
_symmetry_equiv_pos_site_id
_symmetry_equiv_pos_as_xyz
1 x,y,z
2 -x,-y,-z
_cell_length_a                   8.781(5)
_cell_length_b                   9.656(5)
_cell_length_c                   14.139(5)
_cell_angle_alpha                100.385(5)
_cell_angle_beta                 104.372(5)
_cell_angle_gamma                109.547(5)
_cell_volume                     1047.87
_exptl_crystal_colour            colorless
_exptl_crystal_description       plate
_cell_formula_units_Z            2
_exptl_crystal_preparation       
'Crystals were grown by diffusion of methanol into a dichloromethane solution  at 4 degrees.'
loop_
_atom_site_label
_atom_site_type_symbol
_atom_site_fract_x
_atom_site_fract_y
_atom_site_fract_z
O1 O 0.9244(3) -0.1553(3) 0.05476(19)
H1 H 0.8725 -0.2402 0.0632
N1 N -0.0015(4) 0.4959(4) 0.1960(2)
N2 N 0.8558(3) 0.1962(3) 0.3395(2)
N3 N 1.5721(4) 0.2937(3) 0.8979(2)
C1 C 0.1106(4) 0.4290(4) 0.1929(3)
H2 H 0.1006 0.3686 0.1289
C2 C 0.0138(4) 0.5799(4) 0.2873(3)
H3 H -0.0641 0.6278 0.2902
C3 C 0.1361(5) 0.5999(4) 0.3767(3)
H4 H 0.1414 0.6592 0.4397
C4 C 0.2514(4) 0.5323(4) 0.3733(3)
H5 H 0.3374 0.5451 0.4342
C5 C 0.2405(4) 0.4448(4) 0.2797(3)
C6 C 0.3650(4) 0.3736(4) 0.2723(2)
C7 C 0.4415(4) 0.3257(4) 0.3525(3)
H6 H 0.4079 0.3334 0.4115
C8 C 0.5641(4) 0.2679(4) 0.3477(2)
H7 H 0.6153 0.2382 0.4037
C9 C 0.6139(4) 0.2524(4) 0.2609(2)
C10 C 0.5397(4) 0.2999(4) 0.1809(2)
H8 H 0.5740 0.2924 0.1221
C11 C 0.4154(4) 0.3587(4) 0.1858(2)
H9 H 0.3646 0.3888 0.1298
C12 C 0.7380(4) 0.1798(4) 0.2523(2)
C13 C 0.7227(4) 0.0946(4) 0.1571(2)
H10 H 0.6373 0.0860 0.0973
C14 C 0.8348(4) 0.0219(4) 0.1511(2)
C15 C 0.9586(4) 0.0400(4) 0.2413(2)
H11 H 1.0384 -0.0061 0.2400
C16 C 0.9644(4) 0.1262(4) 0.3332(2)
C17 C 1.0937(4) 0.1443(4) 0.4305(2)
C18 C 1.1513(4) 0.2732(4) 0.5139(2)
H12 H 1.1076 0.3502 0.5083
C19 C 1.2716(4) 0.2905(4) 0.6050(2)
H13 H 1.3092 0.3794 0.6607
C20 C 1.3386(4) 0.1787(4) 0.6161(2)
C21 C 1.2819(4) 0.0511(4) 0.5317(2)
H14 H 1.3262 -0.0256 0.5368
C22 C 1.1617(4) 0.0340(4) 0.4403(2)
H15 H 1.1256 -0.0537 0.3841
C23 C 1.4620(4) 0.1939(4) 0.7140(2)
C24 C 1.5859(4) 0.1313(4) 0.7186(3)
H16 H 1.5921 0.0767 0.6577
C25 C 1.6985(4) 0.1492(4) 0.8117(3)
H17 H 1.7814 0.1057 0.8156
C26 C 1.6892(4) 0.2313(4) 0.8992(3)
H18 H 1.7685 0.2446 0.9630
C27 C 1.4605(4) 0.2713(4) 0.8070(2)
H19 H 1.3746 0.3108 0.8057
C28 C 0.8203(5) -0.0715(5) 0.0494(3)
H20 H 0.6994 -0.1440 0.0141
H21 H 0.8509 -0.0017 0.0074
O2 O 0.7481(3) -0.4368(3) 0.0690(2)
H22 H 0.678(4) -0.502(3) 0.0142(19)
H23 H 0.815(4) -0.477(4) 0.092(3)
loop_
_geom_bond_atom_site_label_1
_geom_bond_atom_site_label_2
_geom_bond_site_symmetry_1
_geom_bond_site_symmetry_2
O1 H1 1_555 1_555
N1 C1 1_555 1_555
N2 C12 1_555 1_555
N3 C26 1_555 1_555
C1 H2 1_555 1_555
C2 N1 1_555 1_555
H3 C2 1_555 1_555
C3 C2 1_555 1_555
H4 C3 1_555 1_555
C4 C3 1_555 1_555
H5 C4 1_555 1_555
C5 C1 1_555 1_555
C6 C5 1_555 1_555
C7 C6 1_555 1_555
H6 C7 1_555 1_555
C8 C7 1_555 1_555
H7 C8 1_555 1_555
C9 C8 1_555 1_555
C10 C9 1_555 1_555
H8 C10 1_555 1_555
C11 C6 1_555 1_555
H9 C11 1_555 1_555
C12 C9 1_555 1_555
C13 C12 1_555 1_555
H10 C13 1_555 1_555
C14 C13 1_555 1_555
C15 C14 1_555 1_555
H11 C15 1_555 1_555
C16 N2 1_555 1_555
C17 C16 1_555 1_555
C18 C17 1_555 1_555
H12 C18 1_555 1_555
C19 C18 1_555 1_555
H13 C19 1_555 1_555
C20 C19 1_555 1_555
C21 C20 1_555 1_555
H14 C21 1_555 1_555
C22 C17 1_555 1_555
H15 C22 1_555 1_555
C23 C20 1_555 1_555
C24 C23 1_555 1_555
H16 C24 1_555 1_555
C25 C24 1_555 1_555
H17 C25 1_555 1_555
C26 C25 1_555 1_555
H18 C26 1_555 1_555
C27 N3 1_555 1_555
H19 C27 1_555 1_555
C28 O1 1_555 1_555
H20 C28 1_555 1_555
H21 C28 1_555 1_555
O2 H22 1_555 1_555
H23 O2 1_555 1_555
C4 C5 1_555 1_555
C10 C11 1_555 1_555
C14 C28 1_555 1_555
C15 C16 1_555 1_555
C21 C22 1_555 1_555
C23 C27 1_555 1_555

#END
