
#######################################################################
#
#                 Cambridge Crystallographic Data Centre
#                                CCDC 
#
#######################################################################
#
# If this CIF has been generated from an entry in the Cambridge 
# Structural Database, then it will include bibliographic, chemical, 
# crystal, experimental, refinement or atomic coordinate data resulting 
# from the CCDC's data processing and validation procedures.
#
#######################################################################

data_BUXLUC
_chemical_formula_moiety         'C16 H16 O5'
_chemical_name_systematic        
'Dimethyl 2-methyl-3a,8-dihydro-8aH-indeno[2,1-b]furan-3,8a-dicarboxylate'
_symmetry_cell_setting           monoclinic
_symmetry_space_group_name_H-M   'P 21/n'
_symmetry_Int_Tables_number      14
_space_group_name_Hall           '-P 2yn'
loop_
_symmetry_equiv_pos_site_id
_symmetry_equiv_pos_as_xyz
1 x,y,z
2 1/2-x,1/2+y,1/2-z
3 -x,-y,-z
4 1/2+x,1/2-y,1/2+z
_cell_length_a                   10.3057(19)
_cell_length_b                   10.362(2)
_cell_length_c                   13.347(3)
_cell_angle_alpha                90
_cell_angle_beta                 104.855(10)
_cell_angle_gamma                90
_cell_volume                     1377.66
_exptl_crystal_colour            colorless
_exptl_crystal_description       block
_chemical_melting_point          57-59deg.C
_cell_formula_units_Z            4
loop_
_atom_site_label
_atom_site_type_symbol
_atom_site_fract_x
_atom_site_fract_y
_atom_site_fract_z
O1 O 0.02341(16) 0.79890(15) 0.20872(13)
O2 O -0.1556(2) 0.84579(17) 0.03702(15)
O3 O -0.1687(2) 0.64194(17) -0.01772(16)
O4 O -0.30231(19) 0.66574(19) 0.35987(15)
O5 O -0.2154(2) 0.85647(19) 0.42528(17)
C1 C 0.0110(3) 0.9574(2) 0.3365(2)
H1 H -0.0366 0.9756 0.3880
H2 H -0.0041 1.0258 0.2863
H3 H 0.1053 0.9508 0.3691
C2 C -0.0377(2) 0.8341(2) 0.28428(19)
C3 C -0.0432(2) 0.6853(2) 0.15620(19)
C4 C -0.1286(2) 0.7210(2) 0.0482(2)
C5 C -0.2454(3) 0.8822(3) -0.0611(2)
H4 H -0.2596 0.9738 -0.0624
H5 H -0.3298 0.8387 -0.0695
H6 H -0.2065 0.8583 -0.1165
C6 C 0.0605(2) 0.5801(2) 0.1526(2)
H7 H 0.0403 0.5387 0.0852
H8 H 0.1504 0.6159 0.1675
C7 C 0.0474(2) 0.4865(2) 0.23537(18)
C8 C 0.1269(3) 0.3785(2) 0.2707(2)
H9 H 0.1996 0.3589 0.2441
C9 C 0.0959(3) 0.3010(2) 0.3456(2)
H10 H 0.1489 0.2294 0.3702
C10 C -0.0131(3) 0.3290(2) 0.3844(2)
H11 H -0.0330 0.2755 0.4344
C11 C -0.0935(2) 0.4365(2) 0.3495(2)
H12 H -0.1668 0.4552 0.3756
C12 C -0.0615(2) 0.5147(2) 0.27493(18)
C13 C -0.1339(2) 0.6356(2) 0.22552(18)
H13 H -0.2253 0.6166 0.1846
C14 C -0.1305(2) 0.7492(2) 0.29734(18)
C15 C -0.2163(3) 0.7660(2) 0.3675(2)
C16 C -0.3965(3) 0.6764(3) 0.4215(3)
H14 H -0.4528 0.6012 0.4116
H15 H -0.4510 0.7519 0.4011
H16 H -0.3491 0.6833 0.4933
loop_
_geom_bond_atom_site_label_1
_geom_bond_atom_site_label_2
_geom_bond_site_symmetry_1
_geom_bond_site_symmetry_2
O1 C2 1_555 1_555
O2 C4 1_555 1_555
O3 C4 1_555 1_555
O4 C15 1_555 1_555
O5 C15 1_555 1_555
C1 H1 1_555 1_555
H2 C1 1_555 1_555
H3 C1 1_555 1_555
C2 C1 1_555 1_555
C3 O1 1_555 1_555
C4 C3 1_555 1_555
C5 O2 1_555 1_555
H4 C5 1_555 1_555
H5 C5 1_555 1_555
H6 C5 1_555 1_555
C6 C3 1_555 1_555
H7 C6 1_555 1_555
H8 C6 1_555 1_555
C7 C6 1_555 1_555
C8 C7 1_555 1_555
H9 C8 1_555 1_555
C9 C8 1_555 1_555
H10 C9 1_555 1_555
C10 C9 1_555 1_555
H11 C10 1_555 1_555
C11 C10 1_555 1_555
H12 C11 1_555 1_555
C12 C7 1_555 1_555
C13 C3 1_555 1_555
H13 C13 1_555 1_555
C14 C2 1_555 1_555
C15 C14 1_555 1_555
C16 O4 1_555 1_555
H14 C16 1_555 1_555
H15 C16 1_555 1_555
H16 C16 1_555 1_555
C11 C12 1_555 1_555
C12 C13 1_555 1_555
C13 C14 1_555 1_555

#END
