
#######################################################################
#
#                 Cambridge Crystallographic Data Centre
#                                CCDC 
#
#######################################################################
#
# If this CIF has been generated from an entry in the Cambridge 
# Structural Database, then it will include bibliographic, chemical, 
# crystal, experimental, refinement or atomic coordinate data resulting 
# from the CCDC's data processing and validation procedures.
#
#######################################################################

data_BUXQAN
_chemical_formula_moiety         'C15 H17 Br2 N3 O2'
_chemical_name_systematic        
(3R,3aS)-3-(2,4-dibromo-5-methoxyphenyl)-N-methyl-5,6-dihydro-3H-pyrrolo[1,2-b]pyrazole-3a(4H)-carboxamide
_symmetry_cell_setting           orthorhombic
_symmetry_space_group_name_H-M   'P 21 21 21'
_symmetry_Int_Tables_number      19
_space_group_name_Hall           'P 2ac 2ab'
loop_
_symmetry_equiv_pos_site_id
_symmetry_equiv_pos_as_xyz
1 x,y,z
2 1/2-x,-y,1/2+z
3 1/2+x,1/2-y,-z
4 -x,1/2+y,1/2-z
_cell_length_a                   8.0777(6)
_cell_length_b                   19.145(1)
_cell_length_c                   20.702(1)
_cell_angle_alpha                90
_cell_angle_beta                 90
_cell_angle_gamma                90
_cell_volume                     3201.51
_exptl_crystal_colour            colorless
_exptl_crystal_description       columnar
_chemical_melting_point          149-151deg.C
_cell_formula_units_Z            8
loop_
_atom_site_label
_atom_site_type_symbol
_atom_site_fract_x
_atom_site_fract_y
_atom_site_fract_z
Br1 Br -0.9644(1) -0.04642(4) -0.10622(4)
Br2 Br -0.7242(1) 0.21468(4) -0.02697(4)
O1 O -0.6990(6) -0.1650(3) -0.0272(2)
O2 O -0.3979(7) 0.1556(2) -0.0718(2)
N1 N -0.4137(8) -0.1724(3) -0.1619(3)
N2 N -0.3717(8) -0.1239(3) -0.2124(3)
N3 N -0.7102(8) -0.2253(3) -0.1219(3)
C1 C -0.4625(10) -0.0713(4) -0.2083(3)
C2 C -0.5887(10) -0.0727(3) -0.1540(3)
C3 C -0.5105(9) -0.1317(3) -0.1120(3)
C4 C -0.3819(9) -0.1125(4) -0.0613(3)
C5 C -0.274(1) -0.1787(4) -0.0586(4)
C6 C -0.263(1) -0.2011(4) -0.1305(4)
C7 C -0.6229(9) -0.0040(3) -0.1210(3)
C8 C -0.7793(9) 0.0146(4) -0.0991(4)
C9 C -0.8086(10) 0.0799(4) -0.0707(4)
C10 C -0.6813(10) 0.1266(4) -0.0641(3)
C11 C -0.5205(10) 0.1089(4) -0.0832(3)
C12 C -0.4953(9) 0.0434(4) -0.1129(3)
C13 C -0.6451(10) -0.1767(4) -0.0816(3)
C14 C -0.8529(10) -0.2685(4) -0.1046(4)
C15 C -0.231(1) 0.1321(4) -0.0812(4)
H1 H -0.4530 -0.0330 -0.2372
H2 H -0.6901 -0.0897 -0.1711
H3 H -0.3188 -0.0730 -0.0744
H4 H -0.4323 -0.1032 -0.0207
H5 H -0.1680 -0.1689 -0.0415
H6 H -0.3260 -0.2141 -0.0334
H7 H -0.2605 -0.2505 -0.1341
H8 H -0.1660 -0.1821 -0.1499
H9 H -0.9164 0.0917 -0.0560
H10 H -0.3875 0.0316 -0.1277
H11 H -0.9455 -0.2393 -0.0964
H12 H -0.8775 -0.2994 -0.1391
H13 H -0.8277 -0.2947 -0.0669
H14 H -0.2090 0.0942 -0.0530
H15 H -0.2171 0.1174 -0.1247
H16 H -0.1569 0.1694 -0.0722
H33 H -0.6166 -0.2351 -0.1660
Br3 Br -0.43172(10) -0.09471(4) -0.39745(4)
Br4 Br -0.5820(1) -0.33467(4) -0.25420(3)
O3 O -0.5935(7) 0.0449(2) -0.3151(2)
O4 O -0.9355(6) -0.2862(2) -0.2732(2)
N4 N -1.0000(7) 0.0326(3) -0.3857(3)
N5 N -1.0876(8) -0.0208(3) -0.4208(3)
N6 N -0.6867(8) 0.0859(3) -0.4106(3)
C16 C -0.9940(10) -0.0734(4) -0.4254(3)
C17 C -0.8289(9) -0.0677(4) -0.3946(4)
C18 C -0.8551(9) -0.0008(4) -0.3530(3)
C19 C -0.9075(10) -0.0116(4) -0.2817(3)
C20 C -1.092(1) 0.0053(4) -0.2795(4)
C21 C -1.108(1) 0.0598(4) -0.3337(4)
C22 C -0.7633(9) -0.1327(3) -0.3614(3)
C23 C -0.5995(9) -0.1497(3) -0.3586(3)
C24 C -0.5467(9) -0.2108(4) -0.3266(3)
C25 C -0.6622(9) -0.2540(4) -0.2975(4)
C26 C -0.8285(9) -0.2396(4) -0.3012(3)
C27 C -0.8784(9) -0.1784(4) -0.3325(3)
C28 C -0.7026(10) 0.0470(4) -0.3571(4)
C29 C -0.536(1) 0.1234(4) -0.4246(3)
C30 C -1.107(1) -0.2766(4) -0.2840(4)
H17 H -1.0277 -0.1145 -0.4474
H18 H -0.7524 -0.0559 -0.4277
H19 H -0.8881 -0.0586 -0.2689
H20 H -0.8472 0.0189 -0.2542
H21 H -1.1576 -0.0349 -0.2881
H22 H -1.1233 0.0243 -0.2388
H23 H -1.0713 0.1043 -0.3195
H24 H -1.2197 0.0632 -0.3481
H25 H -0.4324 -0.2224 -0.3250
H26 H -0.9930 -0.1674 -0.3344
H27 H -0.4469 0.0913 -0.4284
H28 H -0.5482 0.1484 -0.4640
H29 H -0.5132 0.1554 -0.3906
H30 H -1.1401 -0.2323 -0.2675
H31 H -1.1297 -0.2786 -0.3289
H32 H -1.1675 -0.3123 -0.2624
H34 H -0.7770 0.0891 -0.4399
loop_
_geom_bond_atom_site_label_1
_geom_bond_atom_site_label_2
_geom_bond_site_symmetry_1
_geom_bond_site_symmetry_2
Br1 C8 1_555 1_555
Br2 C10 1_555 1_555
Br3 C23 1_555 1_555
Br4 C25 1_555 1_555
O1 C13 1_555 1_555
O2 C11 1_555 1_555
O3 C28 1_555 1_555
O4 C26 1_555 1_555
N1 N2 1_555 1_555
N2 C1 1_555 1_555
N3 C13 1_555 1_555
N4 N5 1_555 1_555
N5 C16 1_555 1_555
N6 C28 1_555 1_555
C1 C2 1_555 1_555
C2 C3 1_555 1_555
C3 N1 1_555 1_555
C4 C3 1_555 1_555
C5 C4 1_555 1_555
C6 N1 1_555 1_555
C7 C2 1_555 1_555
C8 C7 1_555 1_555
C9 C8 1_555 1_555
C10 C9 1_555 1_555
C11 C10 1_555 1_555
C12 C7 1_555 1_555
C13 C3 1_555 1_555
C14 N3 1_555 1_555
C15 O2 1_555 1_555
C16 C17 1_555 1_555
C17 C18 1_555 1_555
C18 N4 1_555 1_555
C19 C18 1_555 1_555
C20 C19 1_555 1_555
C21 N4 1_555 1_555
C22 C17 1_555 1_555
C23 C22 1_555 1_555
C24 C23 1_555 1_555
C25 C24 1_555 1_555
C26 C25 1_555 1_555
C27 C22 1_555 1_555
C28 C18 1_555 1_555
C29 N6 1_555 1_555
C30 O4 1_555 1_555
H1 C1 1_555 1_555
H2 C2 1_555 1_555
H3 C4 1_555 1_555
H4 C4 1_555 1_555
H5 C5 1_555 1_555
H6 C5 1_555 1_555
H7 C6 1_555 1_555
H8 C6 1_555 1_555
H9 C9 1_555 1_555
H10 C12 1_555 1_555
H11 C14 1_555 1_555
H12 C14 1_555 1_555
H13 C14 1_555 1_555
H14 C15 1_555 1_555
H15 C15 1_555 1_555
H16 C15 1_555 1_555
H17 C16 1_555 1_555
H18 C17 1_555 1_555
H19 C19 1_555 1_555
H20 C19 1_555 1_555
H21 C20 1_555 1_555
H22 C20 1_555 1_555
H23 C21 1_555 1_555
H24 C21 1_555 1_555
H25 C24 1_555 1_555
H26 C27 1_555 1_555
H27 C29 1_555 1_555
H28 C29 1_555 1_555
H29 C29 1_555 1_555
H30 C30 1_555 1_555
H31 C30 1_555 1_555
H32 C30 1_555 1_555
H33 N3 1_555 1_555
H34 N6 1_555 1_555
C5 C6 1_555 1_555
C11 C12 1_555 1_555
C20 C21 1_555 1_555
C26 C27 1_555 1_555

#END
