
#######################################################################
#
#                 Cambridge Crystallographic Data Centre
#                                CCDC 
#
#######################################################################
#
# If this CIF has been generated from an entry in the Cambridge 
# Structural Database, then it will include bibliographic, chemical, 
# crystal, experimental, refinement or atomic coordinate data resulting 
# from the CCDC's data processing and validation procedures.
#
#######################################################################

data_BUXVAS
_chemical_name_common            
'Carbohydrazide trinitrophloroglucinol hemihydrate'
_chemical_formula_moiety         'C6 H1 N3 O9 2-,C1 H8 N4 O1 2+,0.5(H2 O1)'
_chemical_name_systematic        
"2,2'-Carbonyldihydrazinium 5-hydroxy-2,4,6-trinitrobenzene-1,3-diolate hemihydrate"
_symmetry_cell_setting           triclinic
_symmetry_space_group_name_H-M   'P -1'
_symmetry_Int_Tables_number      2
_space_group_name_Hall           '-P 1'
loop_
_symmetry_equiv_pos_site_id
_symmetry_equiv_pos_as_xyz
1 x,y,z
2 -x,-y,-z
_cell_length_a                   4.5578(9)
_cell_length_b                   10.142(2)
_cell_length_c                   13.041(3)
_cell_angle_alpha                86.53(3)
_cell_angle_beta                 89.54(3)
_cell_angle_gamma                81.94(3)
_cell_volume                     595.774
_exptl_crystal_colour            red
_exptl_crystal_description       needle
_cell_formula_units_Z            2
loop_
_atom_site_label
_atom_site_type_symbol
_atom_site_fract_x
_atom_site_fract_y
_atom_site_fract_z
O2 O 0.4271(9) 0.9845(4) 0.9948(4)
H9 H 0.4056 0.9032 1.0024
H10 H 0.2728 1.0415 0.9876
O2A O 0.5729(9) 1.0155(4) 1.0052(4)
H9A H 0.5944 1.0968 0.9976
H10A H 0.7272 0.9585 1.0124
O3 O 0.7299(4) 0.29749(17) 0.32512(14)
O4 O 1.2622(4) 0.49869(18) 0.06434(14)
H11 H 1.2929 0.4213 0.0476
O5 O 0.7045(5) 0.76213(17) 0.29935(13)
O6 O 0.8845(5) 0.17747(17) 0.15640(14)
O7 O 1.2144(5) 0.25973(18) 0.06665(14)
O8 O 1.3493(4) 0.73150(18) 0.10149(15)
O9 O 0.9584(5) 0.85763(17) 0.14153(14)
O10 O 0.4150(5) 0.64017(17) 0.43460(14)
O11 O 0.2705(4) 0.46137(17) 0.38467(14)
N5 N 1.0183(5) 0.2734(2) 0.13488(16)
N6 N 1.1024(5) 0.7451(2) 0.13839(16)
N7 N 0.4420(5) 0.5449(2) 0.37809(16)
C2 C 0.7708(6) 0.4017(3) 0.27237(19)
C3 C 0.9535(6) 0.3938(2) 0.18141(19)
C4 C 1.0734(6) 0.5076(3) 0.14090(19)
C5 C 0.9832(6) 0.6307(2) 0.18004(19)
C6 C 0.7742(6) 0.6497(2) 0.26250(19)
C7 C 0.6635(6) 0.5323(2) 0.30176(19)
O1 O 0.0973(4) 0.00835(17) 0.37875(13)
N1 N 0.4407(5) 0.0909(2) 0.27985(16)
H1 H 0.5500 0.1527 0.2680
N2 N 0.4253(5) -0.0096(2) 0.20978(16)
H2 H 0.5437 -0.0833 0.2311
H3 H 0.4829 0.0186 0.1479
H4 H 0.2397 -0.0270 0.2064
N3 N 0.3356(5) 0.1721(2) 0.43577(16)
H5 H 0.4984 0.2060 0.4348
N4 N 0.1159(5) 0.2034(2) 0.50980(16)
H6 H -0.0206 0.2680 0.4840
H7 H 0.1975 0.2307 0.5651
H8 H 0.0314 0.1313 0.5273
C1 C 0.2767(6) 0.0850(2) 0.3653(2)
loop_
_geom_bond_atom_site_label_1
_geom_bond_atom_site_label_2
_geom_bond_site_symmetry_1
_geom_bond_site_symmetry_2
O1 C1 1_555 1_555
N1 H1 1_555 1_555
N2 N1 1_555 1_555
H2 N2 1_555 1_555
H3 N2 1_555 1_555
H4 N2 1_555 1_555
N3 H5 1_555 1_555
N4 N3 1_555 1_555
H6 N4 1_555 1_555
H7 N4 1_555 1_555
H8 N4 1_555 1_555
C1 N1 1_555 1_555
O2 H9 1_555 1_555
H10 O2 1_555 1_555
O3 C2 1_555 1_555
O4 H11 1_555 1_555
O5 C6 1_555 1_555
O6 N5 1_555 1_555
O7 N5 1_555 1_555
O8 N6 1_555 1_555
O9 N6 1_555 1_555
O10 N7 1_555 1_555
O11 N7 1_555 1_555
N5 C3 1_555 1_555
N6 C5 1_555 1_555
N7 C7 1_555 1_555
C2 C3 1_555 1_555
C3 C4 1_555 1_555
C4 O4 1_555 1_555
C5 C4 1_555 1_555
C6 C5 1_555 1_555
C7 C2 1_555 1_555
O2A O2 1_555 1_555
H9A O2A 1_555 1_555
H10A O2A 1_555 1_555
N3 C1 1_555 1_555
C6 C7 1_555 1_555

#END
