
#######################################################################
#
#                 Cambridge Crystallographic Data Centre
#                                CCDC 
#
#######################################################################
#
# If this CIF has been generated from an entry in the Cambridge 
# Structural Database, then it will include bibliographic, chemical, 
# crystal, experimental, refinement or atomic coordinate data resulting 
# from the CCDC's data processing and validation procedures.
#
#######################################################################

data_BUXXID
_chemical_formula_moiety         'C25 H19 N3 O2'
_chemical_name_systematic        
((Z)-2-((Z)-2-(3-Butyl-1,3-benzoxazol-2(3H)-ylidene)ethylidene)-3-oxo-2,3-dihydro-1H-inden-1-ylidene)malononitrile
_symmetry_cell_setting           monoclinic
_symmetry_space_group_name_H-M   'C 2/c'
_symmetry_Int_Tables_number      15
_space_group_name_Hall           '-C 2yn'
loop_
_symmetry_equiv_pos_site_id
_symmetry_equiv_pos_as_xyz
1 x,y,z
2 -x,y,1/2-z
3 1/2+x,1/2+y,z
4 1/2-x,1/2+y,1/2-z
5 -x,-y,-z
6 x,-y,1/2+z
7 1/2-x,1/2-y,-z
8 1/2+x,1/2-y,1/2+z
_cell_length_a                   16.4756(18)
_cell_length_b                   18.589(2)
_cell_length_c                   13.4659(15)
_cell_angle_alpha                90
_cell_angle_beta                 99.8950(10)
_cell_angle_gamma                90
_cell_volume                     4062.78
_exptl_crystal_colour            red
_exptl_crystal_description       block
_chemical_melting_point          '269 deg.C'
_cell_formula_units_Z            8
loop_
_atom_site_label
_atom_site_type_symbol
_atom_site_fract_x
_atom_site_fract_y
_atom_site_fract_z
C1 C -0.00225(7) 1.02003(6) 0.12282(8)
C2 C -0.04902(7) 1.08497(6) 0.10169(8)
C3 C -0.13580(7) 1.06432(6) 0.06157(8)
C4 C -0.20659(7) 1.10496(7) 0.03044(9)
H1 H -0.2056 1.1558 0.0371
C5 C -0.27879(7) 1.06942(8) -0.01057(10)
H2 H -0.3275 1.0966 -0.0321
C6 C -0.28125(7) 0.99515(8) -0.02078(9)
H3 H -0.3312 0.9722 -0.0499
C7 C -0.21111(7) 0.95405(7) 0.01121(9)
H4 H -0.2123 0.9032 0.0046
C8 C -0.13966(7) 0.98961(6) 0.05298(8)
C9 C -0.05690(7) 0.95868(6) 0.09201(8)
C10 C -0.02103(7) 1.15500(6) 0.11011(10)
C11 C -0.07232(9) 1.21673(7) 0.08559(13)
C12 C 0.06403(9) 1.17352(7) 0.13834(12)
C13 C 0.08071(7) 1.01287(6) 0.16671(8)
H5 H 0.1110 1.0559 0.1839
C14 C 0.12209(7) 0.94884(6) 0.18701(8)
H6 H 0.0931 0.9049 0.1723
C15 C 0.20545(7) 0.94709(6) 0.22868(8)
C16 C 0.33285(7) 0.91216(6) 0.29196(8)
C17 C 0.40468(7) 0.87568(7) 0.33080(10)
H7 H 0.4076 0.8246 0.3311
C18 C 0.47207(8) 0.91798(8) 0.36915(11)
H8 H 0.5226 0.8952 0.3967
C19 C 0.46801(8) 0.99254(8) 0.36856(10)
H9 H 0.5158 1.0194 0.3954
C20 C 0.39589(7) 1.02904(7) 0.32973(9)
H10 H 0.3926 1.0801 0.3290
C21 C 0.32960(7) 0.98621(6) 0.29243(8)
C22 C 0.22587(7) 0.81417(6) 0.23382(9)
H11 H 0.2735 0.7834 0.2267
H12 H 0.1856 0.8110 0.1703
C23 C 0.18639(8) 0.78639(6) 0.31996(10)
H13 H 0.1442 0.8212 0.3338
H14 H 0.2289 0.7827 0.3814
C24 C 0.14634(9) 0.71330(7) 0.29679(13)
H15 H 0.1064 0.7162 0.2329
H16 H 0.1891 0.6777 0.2875
C25 C 0.10213(12) 0.68787(10) 0.38027(17)
H17 H 0.1421 0.6816 0.4425
H18 H 0.0748 0.6419 0.3610
H19 H 0.0609 0.7237 0.3912
N1 N -0.11006(9) 1.26813(7) 0.06729(16)
N2 N 0.13142(8) 1.19050(7) 0.16079(14)
N3 N 0.25372(6) 0.88905(5) 0.25000(7)
O1 O -0.04040(5) 0.89438(4) 0.09598(6)
O2 O 0.24997(5) 1.00783(4) 0.25324(6)
loop_
_geom_bond_atom_site_label_1
_geom_bond_atom_site_label_2
_geom_bond_site_symmetry_1
_geom_bond_site_symmetry_2
C1 C2 1_555 1_555
C2 C3 1_555 1_555
C3 C4 1_555 1_555
C4 H1 1_555 1_555
C5 C4 1_555 1_555
H2 C5 1_555 1_555
C6 C5 1_555 1_555
H3 C6 1_555 1_555
C7 C6 1_555 1_555
H4 C7 1_555 1_555
C8 C3 1_555 1_555
C9 C1 1_555 1_555
C10 C2 1_555 1_555
C11 C10 1_555 1_555
C12 C10 1_555 1_555
C13 C1 1_555 1_555
H5 C13 1_555 1_555
C14 C13 1_555 1_555
H6 C14 1_555 1_555
C15 C14 1_555 1_555
C16 C17 1_555 1_555
C17 H7 1_555 1_555
C18 C17 1_555 1_555
H8 C18 1_555 1_555
C19 C18 1_555 1_555
H9 C19 1_555 1_555
C20 C19 1_555 1_555
H10 C20 1_555 1_555
C21 C16 1_555 1_555
C22 H11 1_555 1_555
H12 C22 1_555 1_555
C23 C22 1_555 1_555
H13 C23 1_555 1_555
H14 C23 1_555 1_555
C24 C23 1_555 1_555
H15 C24 1_555 1_555
H16 C24 1_555 1_555
C25 C24 1_555 1_555
H17 C25 1_555 1_555
H18 C25 1_555 1_555
H19 C25 1_555 1_555
N1 C11 1_555 1_555
N2 C12 1_555 1_555
N3 C15 1_555 1_555
O1 C9 1_555 1_555
O2 C15 1_555 1_555
C7 C8 1_555 1_555
C8 C9 1_555 1_555
C16 N3 1_555 1_555
C20 C21 1_555 1_555
C21 O2 1_555 1_555
C22 N3 1_555 1_555

#END
