
#######################################################################
#
#                 Cambridge Crystallographic Data Centre
#                                CCDC 
#
#######################################################################
#
# If this CIF has been generated from an entry in the Cambridge 
# Structural Database, then it will include bibliographic, chemical, 
# crystal, experimental, refinement or atomic coordinate data resulting 
# from the CCDC's data processing and validation procedures.
#
#######################################################################

data_BUXXUP
_chemical_formula_moiety         'C25 H19 N3 O1 Se1'
_chemical_name_systematic        
((Z)-2-((Z)-2-(3-Butyl-1,3-benzoselenazol-2(3H)-ylidene)ethylidene)-3-oxo-2,3-dihydro-1H-inden-1-ylidene)malononitrile
_symmetry_cell_setting           monoclinic
_symmetry_space_group_name_H-M   'P 21/c'
_symmetry_Int_Tables_number      14
_space_group_name_Hall           '-P 2ybc'
loop_
_symmetry_equiv_pos_site_id
_symmetry_equiv_pos_as_xyz
1 x,y,z
2 -x,1/2+y,1/2-z
3 -x,-y,-z
4 x,1/2-y,1/2+z
_cell_length_a                   18.1452(8)
_cell_length_b                   4.7127(2)
_cell_length_c                   24.4115(11)
_cell_angle_alpha                90
_cell_angle_beta                 96.5210(10)
_cell_angle_gamma                90
_cell_volume                     2073.99
_exptl_crystal_colour            red
_exptl_crystal_description       needle
_chemical_melting_point          '305-307 deg.C'
_cell_formula_units_Z            4
loop_
_atom_site_label
_atom_site_type_symbol
_atom_site_fract_x
_atom_site_fract_y
_atom_site_fract_z
C1 C 0.27812(7) 0.1508(3) 0.52077(5)
C2 C 0.34842(7) 0.0582(3) 0.50236(5)
C3 C 0.38211(8) -0.1459(3) 0.54433(6)
C4 C 0.44919(9) -0.2866(4) 0.54597(7)
H1 H 0.4812 -0.2568 0.5183
C5 C 0.46834(9) -0.4729(4) 0.58937(7)
H2 H 0.5139 -0.5736 0.5915
C6 C 0.42127(10) -0.5122(4) 0.62949(7)
H3 H 0.4351 -0.6410 0.6588
C7 C 0.35415(9) -0.3680(4) 0.62805(6)
H4 H 0.3225 -0.3966 0.6560
C8 C 0.33440(8) -0.1815(3) 0.58487(6)
C9 C 0.26800(7) 0.0024(3) 0.57058(5)
C10 C 0.20804(8) 0.0144(3) 0.60107(6)
C11 C 0.14435(9) 0.1883(4) 0.58625(7)
C12 C 0.20353(9) -0.1465(4) 0.65008(7)
C13 C 0.23042(7) 0.3482(3) 0.49236(6)
H5 H 0.1874 0.3990 0.5090
C14 C 0.23928(7) 0.4763(3) 0.44293(5)
H6 H 0.2823 0.4360 0.4254
C15 C 0.18605(7) 0.6656(3) 0.41780(5)
C16 C 0.07911(7) 1.0136(3) 0.38775(5)
C17 C 0.02031(8) 1.2018(3) 0.37705(7)
H7 H -0.0137 1.2319 0.4033
C18 C 0.01264(8) 1.3438(3) 0.32727(7)
H8 H -0.0270 1.4743 0.3192
C19 C 0.06236(9) 1.2983(3) 0.28869(7)
H9 H 0.0561 1.3987 0.2547
C20 C 0.12090(8) 1.1091(3) 0.29886(6)
H10 H 0.1542 1.0766 0.2722
C21 C 0.12933(7) 0.9684(3) 0.34931(5)
C22 C 0.23971(8) 0.6830(3) 0.32933(6)
H11 H 0.2139 0.6694 0.2915
H12 H 0.2578 0.4909 0.3404
C23 C 0.30589(8) 0.8793(3) 0.32873(6)
H13 H 0.3273 0.9193 0.3671
H14 H 0.2895 1.0615 0.3112
C24 C 0.36495(9) 0.7457(4) 0.29713(7)
H15 H 0.3859 0.5776 0.3177
H16 H 0.3414 0.6799 0.2608
C25 C 0.42721(9) 0.9486(4) 0.28846(8)
H17 H 0.4071 1.1121 0.2669
H18 H 0.4638 0.8514 0.2686
H19 H 0.4510 1.0136 0.3243
N1 N 0.18598(6) 0.7746(2) 0.36674(5)
N2 N 0.09262(9) 0.3241(4) 0.57500(7)
N3 N 0.19736(10) -0.2725(5) 0.68977(7)
O1 O 0.37532(6) 0.1288(3) 0.46042(4)
Se1 Se 0.10433(2) 0.79686(3) 0.45175(2)
loop_
_geom_bond_atom_site_label_1
_geom_bond_atom_site_label_2
_geom_bond_site_symmetry_1
_geom_bond_site_symmetry_2
C1 C2 1_555 1_555
C2 C3 1_555 1_555
C3 C4 1_555 1_555
C4 H1 1_555 1_555
C5 C4 1_555 1_555
H2 C5 1_555 1_555
C6 C5 1_555 1_555
H3 C6 1_555 1_555
C7 C6 1_555 1_555
H4 C7 1_555 1_555
C8 C3 1_555 1_555
C9 C1 1_555 1_555
C10 C9 1_555 1_555
C11 C10 1_555 1_555
C12 C10 1_555 1_555
C13 C1 1_555 1_555
H5 C13 1_555 1_555
C14 C13 1_555 1_555
H6 C14 1_555 1_555
C15 C14 1_555 1_555
C16 C17 1_555 1_555
C17 H7 1_555 1_555
C18 C17 1_555 1_555
H8 C18 1_555 1_555
C19 C18 1_555 1_555
H9 C19 1_555 1_555
C20 C19 1_555 1_555
H10 C20 1_555 1_555
C21 C16 1_555 1_555
C22 H11 1_555 1_555
H12 C22 1_555 1_555
C23 C22 1_555 1_555
H13 C23 1_555 1_555
H14 C23 1_555 1_555
C24 C23 1_555 1_555
H15 C24 1_555 1_555
H16 C24 1_555 1_555
C25 C24 1_555 1_555
H17 C25 1_555 1_555
H18 C25 1_555 1_555
H19 C25 1_555 1_555
N1 C15 1_555 1_555
N2 C11 1_555 1_555
N3 C12 1_555 1_555
O1 C2 1_555 1_555
Se1 C15 1_555 1_555
C7 C8 1_555 1_555
C8 C9 1_555 1_555
C16 Se1 1_555 1_555
C20 C21 1_555 1_555
C21 N1 1_555 1_555
C22 N1 1_555 1_555

#END
