
#######################################################################
#
#                 Cambridge Crystallographic Data Centre
#                                CCDC 
#
#######################################################################
#
# If this CIF has been generated from an entry in the Cambridge 
# Structural Database, then it will include bibliographic, chemical, 
# crystal, experimental, refinement or atomic coordinate data resulting 
# from the CCDC's data processing and validation procedures.
#
#######################################################################

data_BUYJAH
_chemical_name_common            
"N,N'-bis(heptafluorobutyl)-2,6-dichloro-1,4,5,8-naphthalenetetracarboxylic acid diimide"
_chemical_formula_moiety         'C22 H6 Cl2 F14 N2 O4'
_chemical_name_systematic        
4,9-Dichloro-2,7-bis(2,2,3,3,4,4,4-heptafluorobutyl)benzo[lmn][3,8]phenanthroline-1,3,6,8(2H,7H)-tetrone
_symmetry_cell_setting           monoclinic
_symmetry_space_group_name_H-M   'P 21/c'
_symmetry_Int_Tables_number      14
_space_group_name_Hall           '-P 2ybc'
loop_
_symmetry_equiv_pos_site_id
_symmetry_equiv_pos_as_xyz
1 x,y,z
2 -x,1/2+y,1/2-z
3 -x,-y,-z
4 x,1/2-y,1/2+z
_cell_length_a                   11.870(3)
_cell_length_b                   16.633(3)
_cell_length_c                   5.9347(12)
_cell_angle_alpha                90
_cell_angle_beta                 104.419(9)
_cell_angle_gamma                90
_cell_volume                     1134.8
_exptl_crystal_colour            yellow
_exptl_crystal_description       plate
_cell_formula_units_Z            2
loop_
_atom_site_label
_atom_site_type_symbol
_atom_site_fract_x
_atom_site_fract_y
_atom_site_fract_z
Cl1 Cl 0.91387(11) 1.17035(7) 0.9618(3)
F1 F 0.3336(3) 0.95107(18) 0.6541(7)
F2 F 0.3466(3) 0.8515(2) 0.4309(7)
F3 F 0.2846(3) 0.83255(18) 0.7386(7)
F4 F 0.5021(3) 0.77684(15) 0.7836(7)
F5 F 0.5651(3) 0.98094(15) 0.7353(6)
F6 F 0.4889(3) 0.87642(18) 1.0170(7)
F7 F 0.5745(3) 0.88413(15) 0.4956(6)
O1 O 0.8045(4) 1.02129(19) 1.0055(8)
O2 O 0.7996(3) 0.79803(19) 0.5637(7)
N1 N 0.7918(4) 0.9138(3) 0.7649(9)
C1 C 0.3612(6) 0.8738(3) 0.6495(13)
C2 C 0.4837(5) 0.8567(3) 0.7929(11)
C3 C 0.5835(5) 0.9012(3) 0.7236(11)
C4 C 0.7035(5) 0.8785(3) 0.8694(11)
H1 H 0.7140 0.8986 1.0302
H2 H 0.7118 0.8192 0.8756
C5 C 0.8352(5) 0.9908(3) 0.8461(11)
C6 C 0.9174(5) 1.0290(3) 0.7244(11)
C7 C 0.9591(5) 0.9839(3) 0.5553(10)
C8 C 0.9183(5) 0.9043(3) 0.4976(11)
C9 C 0.8331(5) 0.8669(3) 0.6072(11)
C10 C 0.9596(5) 1.1070(3) 0.7731(11)
C11 C 1.0403(4) 1.1384(3) 0.6603(12)
H3 H 1.0673 1.1918 0.6954
Cl1B Cl 1.08613(11) 0.82965(7) 0.0382(3)
F1B F 1.6664(3) 1.04893(18) 0.3459(7)
F2B F 1.6534(3) 1.1485(2) 0.5691(7)
F3B F 1.7154(3) 1.16745(18) 0.2614(7)
F4B F 1.4979(3) 1.22316(15) 0.2164(7)
F5B F 1.4349(3) 1.01906(15) 0.2647(6)
F6B F 1.5111(3) 1.12358(18) -0.0170(7)
F7B F 1.4255(3) 1.11587(15) 0.5044(6)
O1B O 1.1955(4) 0.97871(19) -0.0055(8)
O2B O 1.2004(3) 1.20197(19) 0.4363(7)
N1B N 1.2082(4) 1.0862(3) 0.2351(9)
C1B C 1.6388(6) 1.1262(3) 0.3505(13)
C2B C 1.5163(5) 1.1433(3) 0.2071(11)
C3B C 1.4165(5) 1.0988(3) 0.2764(11)
C4B C 1.2965(5) 1.1215(3) 0.1306(11)
H1B H 1.2860 1.1014 -0.0302
H2B H 1.2882 1.1808 0.1244
C5B C 1.1648(5) 1.0092(3) 0.1539(11)
C6B C 1.0826(5) 0.9710(3) 0.2756(11)
C7B C 1.0409(5) 1.0161(3) 0.4447(10)
C8B C 1.0817(5) 1.0957(3) 0.5024(11)
C9B C 1.1669(5) 1.1331(3) 0.3928(11)
C10B C 1.0404(5) 0.8930(3) 0.2269(11)
C11B C 0.9597(4) 0.8616(3) 0.3397(12)
H3B H 0.9327 0.8082 0.3046
loop_
_geom_bond_atom_site_label_1
_geom_bond_atom_site_label_2
_geom_bond_site_symmetry_1
_geom_bond_site_symmetry_2
Cl1 C10 1_555 1_555
F1 C1 1_555 1_555
F2 C1 1_555 1_555
F3 C1 1_555 1_555
F4 C2 1_555 1_555
F5 C3 1_555 1_555
F6 C2 1_555 1_555
F7 C3 1_555 1_555
O1 C5 1_555 1_555
O2 C9 1_555 1_555
N1 C4 1_555 1_555
C1 C2 1_555 1_555
C2 C3 1_555 1_555
C3 C4 1_555 1_555
C4 H1 1_555 1_555
H2 C4 1_555 1_555
C5 N1 1_555 1_555
C6 C5 1_555 1_555
C7 C6 1_555 1_555
C8 C7 1_555 1_555
C9 N1 1_555 1_555
C10 C6 1_555 1_555
C11 C10 1_555 1_555
H3 C11 1_555 1_555
Cl1B C10B 1_555 1_555
F1B C1B 1_555 1_555
F2B C1B 1_555 1_555
F3B C1B 1_555 1_555
F4B C2B 1_555 1_555
F5B C3B 1_555 1_555
F6B C2B 1_555 1_555
F7B C3B 1_555 1_555
O1B C5B 1_555 1_555
O2B C9B 1_555 1_555
N1B C4B 1_555 1_555
C1B C2B 1_555 1_555
C2B C3B 1_555 1_555
C3B C4B 1_555 1_555
C4B H1B 1_555 1_555
H2B C4B 1_555 1_555
C5B N1B 1_555 1_555
C6B C5B 1_555 1_555
C7B C7 1_555 1_555
C8B C11 1_555 1_555
C9B N1B 1_555 1_555
C10B C6B 1_555 1_555
C11B C8 1_555 1_555
H3B C11B 1_555 1_555
C8 C9 1_555 1_555
C6B C7B 1_555 1_555
C7B C8B 1_555 1_555
C8B C9B 1_555 1_555
C10B C11B 1_555 1_555

#END
