
#######################################################################
#
#                 Cambridge Crystallographic Data Centre
#                                CCDC 
#
#######################################################################
#
# If this CIF has been generated from an entry in the Cambridge 
# Structural Database, then it will include bibliographic, chemical, 
# crystal, experimental, refinement or atomic coordinate data resulting 
# from the CCDC's data processing and validation procedures.
#
#######################################################################

data_BUYMAL
_chemical_formula_moiety         'C52 H76 N8 O4'
_chemical_name_systematic        
14,17,40,43-Tetraoxa-1,4,11,20,27,30,37,46-octaazaheptacyclo[28.22.2.2^4,27^.2^6,9^.2^22,25^.2^32,35^.2^48,51^]tetrahexaconta-6,8,22,24,32,34,48,50,55,57,61,63-dodecaene
_symmetry_cell_setting           triclinic
_symmetry_space_group_name_H-M   'P -1'
_symmetry_Int_Tables_number      2
_space_group_name_Hall           '-P 1'
loop_
_symmetry_equiv_pos_site_id
_symmetry_equiv_pos_as_xyz
1 x,y,z
2 -x,-y,-z
_cell_length_a                   9.5396(4)
_cell_length_b                   9.8037(4)
_cell_length_c                   14.4253(6)
_cell_angle_alpha                73.691(2)
_cell_angle_beta                 71.8150(10)
_cell_angle_gamma                74.944(2)
_cell_volume                     1208.03
_exptl_crystal_colour            colorless
_exptl_crystal_description       prism
_cell_formula_units_Z            1
_exptl_crystal_recrystallization_method dichloromethane
loop_
_atom_site_label
_atom_site_type_symbol
_atom_site_fract_x
_atom_site_fract_y
_atom_site_fract_z
C1 C 0.72147(14) 0.60785(14) 0.97686(10)
H1 H 0.7820 0.5873 1.0255
H2 H 0.7672 0.6753 0.9162
C2 C 0.49121(15) 0.75206(14) 0.94013(10)
H3 H 0.5259 0.6944 0.8880
H4 H 0.5229 0.8467 0.9091
C3 C 0.31984(15) 0.77808(14) 0.97319(10)
H5 H 0.2861 0.7914 1.0429
H6 H 0.2795 0.8686 0.9304
C4 C 0.27431(15) 0.53292(14) 1.05054(10)
H7 H 0.1891 0.5467 1.1096
H8 H 0.3681 0.5260 1.0688
C5 C 0.56716(16) 0.78149(15) 1.07613(11)
H9 H 0.4631 0.8342 1.0977
H10 H 0.6287 0.8531 1.0311
C6 C 0.62782(15) 0.71154(14) 1.16696(10)
C7 C 0.57773(16) 0.59169(15) 1.23562(11)
H11 H 0.5026 0.5535 1.2261
C8 C 0.63621(17) 0.52710(15) 1.31801(11)
H12 H 0.6002 0.4453 1.3640
C9 C 0.74627(16) 0.57956(15) 1.33460(10)
C10 C 0.79475(16) 0.70007(16) 1.26686(11)
H13 H 0.8694 0.7386 1.2768
C11 C 0.73612(16) 0.76563(15) 1.18467(11)
H14 H 0.7705 0.8488 1.1398
C12 C 0.81266(18) 0.50650(18) 1.42321(12)
H15 H 0.7775 0.5694 1.4721
H16 H 0.7767 0.4143 1.4565
C13 C 1.03853(17) 0.36845(17) 1.33218(11)
H17 H 1.0082 0.4055 1.2686
H18 H 0.9960 0.2803 1.3683
C14 C 1.20667(18) 0.33062(19) 1.30995(12)
H19 H 1.2457 0.2599 1.2663
H20 H 1.2501 0.4185 1.2748
C15 C 1.40436(17) 0.21369(17) 1.38831(13)
H21 H 1.4305 0.2056 1.4511
H22 H 1.4613 0.2827 1.3351
C16 C 0.09845(15) 0.70790(15) 0.96853(10)
H23 H 0.0443 0.7493 1.0281
H24 H 0.0554 0.6233 0.9743
C17 C 0.07300(14) 0.81964(14) 0.87624(10)
C18 C -0.03120(15) 0.94730(15) 0.88295(10)
H25 H -0.0872 0.9654 0.9469
C19 C -0.05485(15) 1.04885(15) 0.79766(10)
H26 H -0.1269 1.1354 0.8042
C20 C 0.02499(15) 1.02636(15) 0.70263(10)
C21 C 0.13060(16) 0.89881(16) 0.69615(10)
H27 H 0.1875 0.8812 0.6323
C22 C 0.15407(15) 0.79734(15) 0.78118(11)
H28 H 0.2266 0.7111 0.7747
C23 C 0.00018(16) 1.13563(16) 0.60861(10)
H29 H -0.0204 1.2339 0.6213
H30 H 0.0945 1.1261 0.5549
C24 C -0.27203(16) 1.15940(17) 0.63685(11)
H31 H -0.2845 1.2551 0.6518
H32 H -0.2844 1.0866 0.7008
C25 C -0.39023(16) 1.16329(16) 0.58569(11)
H33 H -0.4911 1.1862 0.6309
H34 H -0.3819 1.2415 0.5246
C26 C -0.45272(17) 0.93143(17) 0.63847(12)
H35 H -0.5626 0.9639 0.6481
H36 H -0.4283 0.9255 0.7015
N1 N 0.56697(12) 0.67719(12) 1.02025(8)
N2 N 0.25801(12) 0.65904(11) 0.96772(8)
N3 N 0.97840(15) 0.47712(15) 1.39241(11)
H37 H 1.013(2) 0.440(2) 1.4499(16)
N4 N -0.12272(13) 1.12267(14) 0.57227(9)
H38 H -0.109(2) 1.028(2) 0.5629(13)
O1 O 1.24780(11) 0.27062(11) 1.40095(7)
O2 O -0.37586(11) 1.03098(11) 0.55948(7)
C1A C 0.27853(14) 0.39215(14) 1.02314(10)
H1A H 0.2180 0.4127 0.9745
H2A H 0.2328 0.3247 1.0838
C2A C 0.50879(15) 0.24794(14) 1.05987(10)
H3A H 0.4741 0.3056 1.1120
H4A H 0.4771 0.1533 1.0909
C3A C 0.68016(15) 0.22192(14) 1.02681(10)
H5A H 0.7139 0.2086 0.9571
H6A H 0.7205 0.1314 1.0696
C4A C 0.72569(15) 0.46708(14) 0.94946(10)
H7A H 0.8109 0.4533 0.8904
H8A H 0.6319 0.4740 0.9312
C5A C 0.43284(16) 0.21851(15) 0.92387(11)
H9A H 0.5369 0.1658 0.9023
H10A H 0.3713 0.1469 0.9689
C6A C 0.37218(15) 0.28846(14) 0.83304(10)
C7A C 0.42227(16) 0.40831(15) 0.76438(11)
H11A H 0.4974 0.4465 0.7739
C8A C 0.36379(17) 0.47290(15) 0.68199(11)
H12A H 0.3998 0.5547 0.6360
C9A C 0.25373(16) 0.42044(15) 0.66540(10)
C10A C 0.20525(16) 0.29993(16) 0.73314(11)
H13A H 0.1306 0.2614 0.7232
C11A C 0.26388(16) 0.23437(15) 0.81533(11)
H14A H 0.2295 0.1512 0.8602
C12A C 0.18734(18) 0.49350(18) 0.57679(12)
H15A H 0.2225 0.4306 0.5279
H16A H 0.2233 0.5857 0.5435
C13A C -0.03853(17) 0.63155(17) 0.66782(11)
H17A H -0.0082 0.5945 0.7314
H18A H 0.0040 0.7197 0.6317
C14A C -0.20667(18) 0.66938(19) 0.69005(12)
H19A H -0.2457 0.7401 0.7337
H20A H -0.2501 0.5815 0.7252
C15A C -0.40436(17) 0.78631(17) 0.61169(13)
H21A H -0.4305 0.7944 0.5489
H22A H -0.4613 0.7173 0.6649
C16A C 0.90155(15) 0.29210(15) 1.03147(10)
H23A H 0.9557 0.2507 0.9719
H24A H 0.9446 0.3767 1.0257
C17A C 0.92700(14) 0.18036(14) 1.12376(10)
C18A C 1.03120(15) 0.05270(15) 1.11705(10)
H25A H 1.0872 0.0346 1.0531
C19A C 1.05485(15) -0.04885(15) 1.20234(10)
H26A H 1.1269 -0.1354 1.1958
C20A C 0.97501(15) -0.02636(15) 1.29737(10)
C21A C 0.86940(16) 0.10119(16) 1.30385(10)
H27A H 0.8125 0.1188 1.3677
C22A C 0.84593(15) 0.20266(15) 1.21882(11)
H28A H 0.7734 0.2889 1.2253
C23A C 0.99982(16) -0.13563(16) 1.39139(10)
H29A H 1.0204 -0.2339 1.3787
H30A H 0.9055 -0.1261 1.4451
C24A C 1.27203(16) -0.15940(17) 1.36315(11)
H31A H 1.2845 -0.2551 1.3482
H32A H 1.2844 -0.0866 1.2992
C25A C 1.39023(16) -0.16329(16) 1.41431(11)
H33A H 1.4911 -0.1862 1.3691
H34A H 1.3819 -0.2415 1.4754
C26A C 1.45272(17) 0.06857(17) 1.36153(12)
H35A H 1.5626 0.0361 1.3519
H36A H 1.4283 0.0745 1.2985
N1A N 0.43303(12) 0.32281(12) 0.97975(8)
N2A N 0.74199(12) 0.34096(11) 1.03228(8)
N3A N 0.02160(15) 0.52288(15) 0.60759(11)
H37A H -0.013(2) 0.560(2) 0.5501(16)
N4A N 1.12272(13) -0.12267(14) 1.42773(9)
H38A H 1.109(2) -0.028(2) 1.4371(13)
O1A O -0.24780(11) 0.72938(11) 0.59905(7)
O2A O 1.37586(11) -0.03098(11) 1.44052(7)
loop_
_geom_bond_atom_site_label_1
_geom_bond_atom_site_label_2
_geom_bond_site_symmetry_1
_geom_bond_site_symmetry_2
C1 H1 1_555 1_555
H2 C1 1_555 1_555
C2 H3 1_555 1_555
H4 C2 1_555 1_555
C3 C2 1_555 1_555
H5 C3 1_555 1_555
H6 C3 1_555 1_555
C4 H7 1_555 1_555
H8 C4 1_555 1_555
C5 H9 1_555 1_555
H10 C5 1_555 1_555
C6 C5 1_555 1_555
C7 C6 1_555 1_555
H11 C7 1_555 1_555
C8 C7 1_555 1_555
H12 C8 1_555 1_555
C9 C8 1_555 1_555
C10 C9 1_555 1_555
H13 C10 1_555 1_555
C11 C6 1_555 1_555
H14 C11 1_555 1_555
C12 C9 1_555 1_555
H15 C12 1_555 1_555
H16 C12 1_555 1_555
C13 H17 1_555 1_555
H18 C13 1_555 1_555
C14 C13 1_555 1_555
H19 C14 1_555 1_555
H20 C14 1_555 1_555
C15 H21 1_555 1_555
H22 C15 1_555 1_555
C16 H23 1_555 1_555
H24 C16 1_555 1_555
C17 C16 1_555 1_555
C18 C17 1_555 1_555
H25 C18 1_555 1_555
C19 C18 1_555 1_555
H26 C19 1_555 1_555
C20 C19 1_555 1_555
C21 C20 1_555 1_555
H27 C21 1_555 1_555
C22 C17 1_555 1_555
H28 C22 1_555 1_555
C23 C20 1_555 1_555
H29 C23 1_555 1_555
H30 C23 1_555 1_555
C24 H31 1_555 1_555
H32 C24 1_555 1_555
C25 C24 1_555 1_555
H33 C25 1_555 1_555
H34 C25 1_555 1_555
C26 H35 1_555 1_555
H36 C26 1_555 1_555
N1 C1 1_555 1_555
N2 C3 1_555 1_555
N3 C12 1_555 1_555
H37 N3 1_555 1_555
N4 C23 1_555 1_555
H38 N4 1_555 1_555
O1 C14 1_555 1_555
O2 C25 1_555 1_555
C1A C4 1_555 1_555
H1A C1A 1_555 1_555
H2A C1A 1_555 1_555
C2A H3A 1_555 1_555
H4A C2A 1_555 1_555
C3A C2A 1_555 1_555
H5A C3A 1_555 1_555
H6A C3A 1_555 1_555
C4A C1 1_555 1_555
H7A C4A 1_555 1_555
H8A C4A 1_555 1_555
C5A H9A 1_555 1_555
H10A C5A 1_555 1_555
C6A C5A 1_555 1_555
C7A C6A 1_555 1_555
H11A C7A 1_555 1_555
C8A C7A 1_555 1_555
H12A C8A 1_555 1_555
C9A C8A 1_555 1_555
C10A C9A 1_555 1_555
H13A C10A 1_555 1_555
C11A C6A 1_555 1_555
H14A C11A 1_555 1_555
C12A C9A 1_555 1_555
H15A C12A 1_555 1_555
H16A C12A 1_555 1_555
C13A H17A 1_555 1_555
H18A C13A 1_555 1_555
C14A C13A 1_555 1_555
H19A C14A 1_555 1_555
H20A C14A 1_555 1_555
C15A C26 1_555 1_555
H21A C15A 1_555 1_555
H22A C15A 1_555 1_555
C16A H23A 1_555 1_555
H24A C16A 1_555 1_555
C17A C16A 1_555 1_555
C18A C17A 1_555 1_555
H25A C18A 1_555 1_555
C19A C18A 1_555 1_555
H26A C19A 1_555 1_555
C20A C19A 1_555 1_555
C21A C20A 1_555 1_555
H27A C21A 1_555 1_555
C22A C17A 1_555 1_555
H28A C22A 1_555 1_555
C23A C20A 1_555 1_555
H29A C23A 1_555 1_555
H30A C23A 1_555 1_555
C24A H31A 1_555 1_555
H32A C24A 1_555 1_555
C25A C24A 1_555 1_555
H33A C25A 1_555 1_555
H34A C25A 1_555 1_555
C26A C15 1_555 1_555
H35A C26A 1_555 1_555
H36A C26A 1_555 1_555
N1A C1A 1_555 1_555
N2A C3A 1_555 1_555
N3A C12A 1_555 1_555
H37A N3A 1_555 1_555
N4A C23A 1_555 1_555
H38A N4A 1_555 1_555
O1A C14A 1_555 1_555
O2A C25A 1_555 1_555
C2 N1 1_555 1_555
C4 N2 1_555 1_555
C5 N1 1_555 1_555
C10 C11 1_555 1_555
C13 N3 1_555 1_555
C15 O1 1_555 1_555
C16 N2 1_555 1_555
C21 C22 1_555 1_555
C24 N4 1_555 1_555
C26 O2 1_555 1_555
C2A N1A 1_555 1_555
C4A N2A 1_555 1_555
C5A N1A 1_555 1_555
C10A C11A 1_555 1_555
C13A N3A 1_555 1_555
C15A O1A 1_555 1_555
C16A N2A 1_555 1_555
C21A C22A 1_555 1_555
C24A N4A 1_555 1_555
C26A O2A 1_555 1_555

#END
