
#######################################################################
#
#                 Cambridge Crystallographic Data Centre
#                                CCDC 
#
#######################################################################
#
# If this CIF has been generated from an entry in the Cambridge 
# Structural Database, then it will include bibliographic, chemical, 
# crystal, experimental, refinement or atomic coordinate data resulting 
# from the CCDC's data processing and validation procedures.
#
#######################################################################

data_BUYPAN
_chemical_name_common            
25,26,27,28-tetrabutoxy-5,11-dinitrocalix(4)arene
_chemical_formula_moiety         'C44 H54 N2 O8'
_chemical_name_systematic        
25,26,27,28-Tetrabutoxy-5,11-dinitropentacyclo[19.3.1.1^3,7^.1^9,13^.1^15,19^]octacosa-1(25),3(28),4,6,9(27),10,12,15(26),16,18,21,23-dodecaene
_symmetry_cell_setting           monoclinic
_symmetry_space_group_name_H-M   'P 21/c'
_symmetry_Int_Tables_number      14
_space_group_name_Hall           '-P 2ybc'
loop_
_symmetry_equiv_pos_site_id
_symmetry_equiv_pos_as_xyz
1 x,y,z
2 -x,1/2+y,1/2-z
3 -x,-y,-z
4 x,1/2-y,1/2+z
_cell_length_a                   17.573(3)
_cell_length_b                   18.503(2)
_cell_length_c                   25.893(4)
_cell_angle_alpha                90
_cell_angle_beta                 94.907(3)
_cell_angle_gamma                90
_cell_volume                     8388.33
_cell_formula_units_Z            8
loop_
_atom_site_label
_atom_site_type_symbol
_atom_site_fract_x
_atom_site_fract_y
_atom_site_fract_z
C1 C 0.65193(11) 0.64314(11) 0.70010(7)
C2 C 0.70042(12) 0.69678(11) 0.67808(7)
C3 C 0.66094(12) 0.74701(11) 0.64564(8)
H1 H 0.6882 0.7814 0.6286
C4 C 0.58492(12) 0.74652(11) 0.63872(8)
C5 C 0.53619(13) 0.69795(12) 0.66212(7)
H2 H 0.4832 0.7001 0.6569
C6 C 0.57526(11) 0.64610(10) 0.69407(7)
C7 C 0.50080(5) 0.68540(8) 0.79219(5)
C8 C 0.47019(7) 0.63567(7) 0.75592(5)
C9 C 0.39230(7) 0.63596(7) 0.74102(5)
H3 H 0.3718 0.6027 0.7168
C10 C 0.34502(5) 0.68599(7) 0.76240(5)
C11 C 0.37564(7) 0.73573(6) 0.79867(5)
H4 H 0.3440 0.7692 0.8130
C12 C 0.45353(7) 0.73543(7) 0.81357(5)
C13 C 0.61493(12) 0.84986(10) 0.83579(8)
C14 C 0.54046(12) 0.84325(11) 0.82056(7)
C15 C 0.50653(13) 0.87879(11) 0.77557(8)
H5 H 0.4544 0.8753 0.7661
C16 C 0.55488(12) 0.91945(12) 0.74596(9)
H6 H 0.5341 0.9434 0.7165
C17 C 0.63000(12) 0.92431(11) 0.75929(9)
H7 H 0.6599 0.9500 0.7377
C18 C 0.66751(12) 0.89128(11) 0.80604(8)
C19 C 0.78348(12) 0.79535(12) 0.75425(8)
C20 C 0.79112(13) 0.86957(12) 0.77266(8)
C21 C 0.83051(13) 0.91484(12) 0.74232(9)
H8 H 0.8364 0.9630 0.7522
C22 C 0.86120(14) 0.89279(13) 0.69865(9)
H9 H 0.8911 0.9242 0.6809
C23 C 0.84705(13) 0.81982(12) 0.67983(9)
H10 H 0.8643 0.8053 0.6485
C24 C 0.80805(12) 0.77210(12) 0.70860(7)
C25 C 0.52838(13) 0.59157(12) 0.72432(8)
H11 H 0.5624 0.5633 0.7479
H12 H 0.5007 0.5587 0.7003
C26 C 0.48795(13) 0.79482(13) 0.84917(8)
H13 H 0.4473 0.8237 0.8617
H14 H 0.5167 0.7731 0.8789
C27 C 0.74965(13) 0.89402(13) 0.81685(9)
H15 H 0.7643 0.8638 0.8467
H16 H 0.7647 0.9432 0.8256
C28 C 0.78115(12) 0.69804(12) 0.68752(8)
H17 H 0.8042 0.6881 0.6556
H18 H 0.7973 0.6608 0.7124
C29 C 0.69686(14) 0.52359(12) 0.70070(9)
H19 H 0.6465 0.5045 0.6902
H20 H 0.7236 0.5315 0.6699
C30 C 0.74054(12) 0.47211(13) 0.73673(9)
H21 H 0.7310 0.4230 0.7247
H22 H 0.7228 0.4764 0.7711
C31 C 0.82651(13) 0.48735(12) 0.73978(9)
H23 H 0.8392 0.4946 0.7044
H24 H 0.8342 0.5335 0.7572
C32 C 0.88592(12) 0.43687(12) 0.76468(9)
H25 H 0.8696 0.4194 0.7969
H26 H 0.9335 0.4622 0.7711
H27 H 0.8926 0.3968 0.7420
C33 C 0.60093(14) 0.61177(13) 0.84486(10)
H28 H 0.5722 0.5689 0.8338
H29 H 0.6548 0.6029 0.8419
C34 C 0.58661(15) 0.63235(15) 0.89965(9)
H30 H 0.6288 0.6612 0.9149
H31 H 0.5404 0.6610 0.8994
C35 C 0.57850(13) 0.56463(14) 0.93128(10)
H32 H 0.6282 0.5454 0.9433
H33 H 0.5502 0.5279 0.9110
C36 C 0.53312(13) 0.58966(12) 0.97877(9)
H34 H 0.5588 0.6300 0.9958
H35 H 0.5310 0.5505 1.0029
H36 H 0.4822 0.6036 0.9663
C37 C 0.64493(13) 0.85988(12) 0.92703(7)
H37 H 0.6777 0.9019 0.9255
H38 H 0.5932 0.8762 0.9308
C38 C 0.67230(13) 0.81255(13) 0.97095(8)
H39 H 0.6459 0.7666 0.9674
H40 H 0.6594 0.8346 1.0030
C39 C 0.75729(12) 0.79913(12) 0.97421(7)
H41 H 0.7679 0.7711 0.9440
H42 H 0.7822 0.8456 0.9713
C40 C 0.79524(12) 0.76162(12) 1.02106(8)
H43 H 0.7918 0.7915 1.0511
H44 H 0.8480 0.7531 1.0160
H45 H 0.7702 0.7163 1.0260
C41 C 0.78657(12) 0.72630(12) 0.83293(9)
H46 H 0.7502 0.7150 0.8579
H47 H 0.8172 0.7668 0.8464
C42 C 0.83786(13) 0.66228(13) 0.82785(8)
H48 H 0.8764 0.6770 0.8053
H49 H 0.8073 0.6255 0.8092
C43 C 0.88105(13) 0.62400(13) 0.87557(8)
H50 H 0.9010 0.5780 0.8648
H51 H 0.9238 0.6537 0.8889
C44 C 0.83020(13) 0.61206(13) 0.91606(9)
H52 H 0.8133 0.6578 0.9284
H53 H 0.8569 0.5861 0.9442
H54 H 0.7869 0.5844 0.9024
N1 N 0.54343(11) 0.80116(10) 0.60314(7)
N2 N 0.27035(11) 0.67832(10) 0.75089(7)
O1 O 0.69074(8) 0.59316(7) 0.73024(5)
O2 O 0.57146(8) 0.68197(8) 0.81058(5)
O3 O 0.64739(8) 0.81512(7) 0.87924(5)
O4 O 0.74497(7) 0.74781(7) 0.78455(5)
O5 O 0.58958(9) 0.85216(9) 0.58524(6)
O6 O 0.48036(9) 0.81013(8) 0.60123(6)
O7 O 0.23745(8) 0.62452(8) 0.72640(6)
O8 O 0.22580(8) 0.73050(8) 0.75866(5)
C45 C 0.87060(14) 0.40506(12) 0.44688(9)
C46 C 0.92483(12) 0.41306(11) 0.49257(8)
C47 C 0.90634(13) 0.46076(11) 0.53068(8)
H55 H 0.9407 0.4716 0.5590
C48 C 0.83370(12) 0.49186(12) 0.52468(8)
C49 C 0.77877(12) 0.47972(11) 0.48405(7)
H56 H 0.7301 0.4996 0.4834
C50 C 0.80184(12) 0.43406(11) 0.44263(8)
C51 C 0.66355(12) 0.33348(11) 0.44508(8)
C52 C 0.66531(12) 0.39480(10) 0.41622(7)
C53 C 0.60209(11) 0.43821(11) 0.40969(7)
H57 H 0.6017 0.4781 0.3878
C54 C 0.53952(12) 0.42234(11) 0.43564(8)
C55 C 0.53884(12) 0.36165(11) 0.46890(7)
H58 H 0.4960 0.3519 0.4865
C56 C 0.60030(12) 0.31796(10) 0.47509(7)
C57 C 0.73138(13) 0.23898(12) 0.57583(8)
C58 C 0.66823(13) 0.28404(11) 0.55743(7)
C59 C 0.66894(12) 0.35530(10) 0.57694(7)
H59 H 0.6288 0.3863 0.5667
C60 C 0.72836(12) 0.37979(13) 0.61110(8)
H60 H 0.7266 0.4269 0.6234
C61 C 0.78946(12) 0.33739(12) 0.62742(8)
H61 H 0.8291 0.3555 0.6498
C62 C 0.79103(12) 0.26209(12) 0.60858(7)
C63 C 0.94195(7) 0.28224(8) 0.56180(4)
C64 C 0.93300(7) 0.26265(7) 0.61275(5)
C65 C 0.97966(8) 0.29303(8) 0.65307(4)
H62 H 0.9737 0.2799 0.6872
C66 C 1.03528(7) 0.34301(7) 0.64244(4)
H63 H 1.0665 0.3633 0.6694
C67 C 1.04423(7) 0.36260(7) 0.59149(5)
H64 H 1.0814 0.3960 0.5844
C68 C 0.99756(8) 0.33221(8) 0.55117(4)
C69 C 0.74208(13) 0.41957(12) 0.39709(8)
H65 H 0.7609 0.3825 0.3750
H66 H 0.7340 0.4633 0.3767
C70 C 0.60980(12) 0.26062(12) 0.51729(8)
H67 H 0.5617 0.2533 0.5323
H68 H 0.6248 0.2151 0.5025
C71 C 0.86182(12) 0.21970(13) 0.62169(9)
H69 H 0.8605 0.1763 0.6006
H70 H 0.8639 0.2051 0.6578
C72 C 0.99548(13) 0.37027(12) 0.49722(9)
H71 H 1.0397 0.4013 0.4954
H72 H 0.9951 0.3348 0.4696
C73 C 0.93915(13) 0.39511(12) 0.37215(8)
H73 H 0.9121 0.4350 0.3545
H74 H 0.9861 0.4131 0.3900
C74 C 0.95485(12) 0.33648(12) 0.33514(8)
H75 H 0.9070 0.3203 0.3174
H76 H 0.9778 0.2958 0.3543
C75 C 1.00956(13) 0.36189(12) 0.29397(8)
H77 H 1.0495 0.3926 0.3101
H78 H 1.0332 0.3205 0.2788
C76 C 0.96284(13) 0.40233(13) 0.25369(9)
H79 H 0.9101 0.3998 0.2605
H80 H 0.9692 0.3816 0.2203
H81 H 0.9789 0.4519 0.2540
C77 C 0.71050(13) 0.20589(12) 0.42880(9)
H82 H 0.7455 0.1708 0.4455
H83 H 0.6581 0.1899 0.4301
C78 C 0.72946(15) 0.22549(13) 0.37492(9)
H84 H 0.7785 0.2498 0.3764
H85 H 0.6910 0.2581 0.3591
C79 C 0.73207(15) 0.15715(13) 0.34302(9)
H86 H 0.7821 0.1350 0.3486
H87 H 0.7225 0.1685 0.3065
C80 C 0.67155(14) 0.10559(15) 0.35936(9)
H88 H 0.6830 0.0925 0.3951
H89 H 0.6709 0.0629 0.3382
H90 H 0.6225 0.1287 0.3551
C81 C 0.69086(14) 0.12130(12) 0.59102(9)
H91 H 0.6410 0.1412 0.5961
H92 H 0.7190 0.1152 0.6246
C82 C 0.68320(13) 0.05044(12) 0.56276(9)
H93 H 0.6513 0.0174 0.5804
H94 H 0.6608 0.0575 0.5276
C83 C 0.76227(13) 0.02184(12) 0.56287(9)
H95 H 0.7932 0.0384 0.5934
H96 H 0.7856 0.0382 0.5323
C84 C 0.75643(13) -0.05871(12) 0.56300(9)
H97 H 0.7427 -0.0748 0.5962
H98 H 0.8047 -0.0793 0.5563
H99 H 0.7180 -0.0738 0.5366
C85 C 0.91169(13) 0.17995(12) 0.51384(9)
H100 H 0.8627 0.1579 0.5033
H101 H 0.9338 0.1557 0.5448
C86 C 0.96377(13) 0.17439(12) 0.47136(8)
H102 H 1.0124 0.1965 0.4826
H103 H 0.9418 0.2007 0.4413
C87 C 0.97664(13) 0.09730(12) 0.45653(9)
H104 H 0.9963 0.0707 0.4871
H105 H 0.9281 0.0759 0.4441
C88 C 1.03029(13) 0.08988(12) 0.41632(9)
H106 H 1.0465 0.1369 0.4061
H107 H 1.0055 0.0655 0.3868
H108 H 1.0739 0.0624 0.4298
N3 N 0.80966(11) 0.54267(9) 0.56525(7)
N4 N 0.47337(10) 0.46796(9) 0.43150(7)
O9 O 0.89031(9) 0.35853(9) 0.40907(6)
O10 O 0.72539(8) 0.29020(8) 0.45163(5)
O11 O 0.73291(8) 0.16943(7) 0.55755(6)
O12 O 0.90249(9) 0.25596(8) 0.52358(6)
O13 O 0.86041(8) 0.55575(8) 0.59954(6)
O14 O 0.74671(8) 0.56468(8) 0.56384(5)
O15 O 0.47056(8) 0.51701(8) 0.39763(5)
O16 O 0.42149(8) 0.46187(8) 0.46076(5)
loop_
_geom_bond_atom_site_label_1
_geom_bond_atom_site_label_2
_geom_bond_site_symmetry_1
_geom_bond_site_symmetry_2
C1 C2 1_555 1_555
C2 C3 1_555 1_555
C3 H1 1_555 1_555
C4 C3 1_555 1_555
C5 C4 1_555 1_555
H2 C5 1_555 1_555
C6 C1 1_555 1_555
C7 C8 1_555 1_555
C8 C9 1_555 1_555
C9 H3 1_555 1_555
C10 C9 1_555 1_555
C11 C10 1_555 1_555
H4 C11 1_555 1_555
C12 C7 1_555 1_555
C13 C14 1_555 1_555
C14 C15 1_555 1_555
C15 H5 1_555 1_555
C16 C15 1_555 1_555
H6 C16 1_555 1_555
C17 C16 1_555 1_555
H7 C17 1_555 1_555
C18 C13 1_555 1_555
C19 C20 1_555 1_555
C20 C21 1_555 1_555
C21 H8 1_555 1_555
C22 C21 1_555 1_555
H9 C22 1_555 1_555
C23 C22 1_555 1_555
H10 C23 1_555 1_555
C24 C19 1_555 1_555
C25 C6 1_555 1_555
H11 C25 1_555 1_555
H12 C25 1_555 1_555
C26 C12 1_555 1_555
H13 C26 1_555 1_555
H14 C26 1_555 1_555
C27 C18 1_555 1_555
H15 C27 1_555 1_555
H16 C27 1_555 1_555
C28 C2 1_555 1_555
H17 C28 1_555 1_555
H18 C28 1_555 1_555
C29 H19 1_555 1_555
H20 C29 1_555 1_555
C30 C29 1_555 1_555
H21 C30 1_555 1_555
H22 C30 1_555 1_555
C31 C30 1_555 1_555
H23 C31 1_555 1_555
H24 C31 1_555 1_555
C32 C31 1_555 1_555
H25 C32 1_555 1_555
H26 C32 1_555 1_555
H27 C32 1_555 1_555
C33 H28 1_555 1_555
H29 C33 1_555 1_555
C34 C33 1_555 1_555
H30 C34 1_555 1_555
H31 C34 1_555 1_555
C35 C34 1_555 1_555
H32 C35 1_555 1_555
H33 C35 1_555 1_555
C36 C35 1_555 1_555
H34 C36 1_555 1_555
H35 C36 1_555 1_555
H36 C36 1_555 1_555
C37 H37 1_555 1_555
H38 C37 1_555 1_555
C38 C37 1_555 1_555
H39 C38 1_555 1_555
H40 C38 1_555 1_555
C39 C38 1_555 1_555
H41 C39 1_555 1_555
H42 C39 1_555 1_555
C40 C39 1_555 1_555
H43 C40 1_555 1_555
H44 C40 1_555 1_555
H45 C40 1_555 1_555
C41 H46 1_555 1_555
H47 C41 1_555 1_555
C42 C41 1_555 1_555
H48 C42 1_555 1_555
H49 C42 1_555 1_555
C43 C42 1_555 1_555
H50 C43 1_555 1_555
H51 C43 1_555 1_555
C44 C43 1_555 1_555
H52 C44 1_555 1_555
H53 C44 1_555 1_555
H54 C44 1_555 1_555
C45 C46 1_555 1_555
C46 C47 1_555 1_555
C47 H55 1_555 1_555
C48 C47 1_555 1_555
C49 C48 1_555 1_555
H56 C49 1_555 1_555
C50 C45 1_555 1_555
C51 C52 1_555 1_555
C52 C53 1_555 1_555
C53 H57 1_555 1_555
C54 C53 1_555 1_555
C55 C54 1_555 1_555
H58 C55 1_555 1_555
C56 C51 1_555 1_555
C57 C58 1_555 1_555
C58 C59 1_555 1_555
C59 H59 1_555 1_555
C60 C59 1_555 1_555
H60 C60 1_555 1_555
C61 C60 1_555 1_555
H61 C61 1_555 1_555
C62 C57 1_555 1_555
C63 C64 1_555 1_555
C64 C65 1_555 1_555
C65 H62 1_555 1_555
C66 C65 1_555 1_555
H63 C66 1_555 1_555
C67 C66 1_555 1_555
H64 C67 1_555 1_555
C68 C63 1_555 1_555
C69 C50 1_555 1_555
H65 C69 1_555 1_555
H66 C69 1_555 1_555
C70 C56 1_555 1_555
H67 C70 1_555 1_555
H68 C70 1_555 1_555
C71 C62 1_555 1_555
H69 C71 1_555 1_555
H70 C71 1_555 1_555
C72 C46 1_555 1_555
H71 C72 1_555 1_555
H72 C72 1_555 1_555
C73 H73 1_555 1_555
H74 C73 1_555 1_555
C74 C73 1_555 1_555
H75 C74 1_555 1_555
H76 C74 1_555 1_555
C75 C74 1_555 1_555
H77 C75 1_555 1_555
H78 C75 1_555 1_555
C76 C75 1_555 1_555
H79 C76 1_555 1_555
H80 C76 1_555 1_555
H81 C76 1_555 1_555
C77 H82 1_555 1_555
H83 C77 1_555 1_555
C78 C77 1_555 1_555
H84 C78 1_555 1_555
H85 C78 1_555 1_555
C79 C78 1_555 1_555
H86 C79 1_555 1_555
H87 C79 1_555 1_555
C80 C79 1_555 1_555
H88 C80 1_555 1_555
H89 C80 1_555 1_555
H90 C80 1_555 1_555
C81 H91 1_555 1_555
H92 C81 1_555 1_555
C82 C81 1_555 1_555
H93 C82 1_555 1_555
H94 C82 1_555 1_555
C83 C82 1_555 1_555
H95 C83 1_555 1_555
H96 C83 1_555 1_555
C84 C83 1_555 1_555
H97 C84 1_555 1_555
H98 C84 1_555 1_555
H99 C84 1_555 1_555
C85 H100 1_555 1_555
H101 C85 1_555 1_555
C86 C85 1_555 1_555
H102 C86 1_555 1_555
H103 C86 1_555 1_555
C87 C86 1_555 1_555
H104 C87 1_555 1_555
H105 C87 1_555 1_555
C88 C87 1_555 1_555
H106 C88 1_555 1_555
H107 C88 1_555 1_555
H108 C88 1_555 1_555
N1 C4 1_555 1_555
N2 C10 1_555 1_555
N3 C48 1_555 1_555
N4 C54 1_555 1_555
O1 C1 1_555 1_555
O2 C7 1_555 1_555
O3 C13 1_555 1_555
O4 C19 1_555 1_555
O5 N1 1_555 1_555
O6 N1 1_555 1_555
O7 N2 1_555 1_555
O8 N2 1_555 1_555
O9 C45 1_555 1_555
O10 C51 1_555 1_555
O11 C57 1_555 1_555
O12 C63 1_555 1_555
O13 N3 1_555 1_555
O14 N3 1_555 1_555
O15 N4 1_555 1_555
O16 N4 1_555 1_555
C5 C6 1_555 1_555
C8 C25 1_555 1_555
C11 C12 1_555 1_555
C14 C26 1_555 1_555
C17 C18 1_555 1_555
C20 C27 1_555 1_555
C23 C24 1_555 1_555
C24 C28 1_555 1_555
C29 O1 1_555 1_555
C33 O2 1_555 1_555
C37 O3 1_555 1_555
C41 O4 1_555 1_555
C49 C50 1_555 1_555
C52 C69 1_555 1_555
C55 C56 1_555 1_555
C58 C70 1_555 1_555
C61 C62 1_555 1_555
C64 C71 1_555 1_555
C67 C68 1_555 1_555
C68 C72 1_555 1_555
C73 O9 1_555 1_555
C77 O10 1_555 1_555
C81 O11 1_555 1_555
C85 O12 1_555 1_555

#END
