
#######################################################################
#
#                 Cambridge Crystallographic Data Centre
#                                CCDC 
#
#######################################################################
#
# If this CIF has been generated from an entry in the Cambridge 
# Structural Database, then it will include bibliographic, chemical, 
# crystal, experimental, refinement or atomic coordinate data resulting 
# from the CCDC's data processing and validation procedures.
#
#######################################################################

data_BUYVUN
_chemical_formula_moiety         'C27 H34 P1 1+,B1 F4 1-'
_chemical_name_systematic        
'Dicyclohexyl(2-phenyl-1H-inden-3-yl)phosphonium tetrafluoroborate'
_symmetry_cell_setting           monoclinic
_symmetry_space_group_name_H-M   'P 21/c'
_symmetry_Int_Tables_number      14
_space_group_name_Hall           '-P 2ybc'
loop_
_symmetry_equiv_pos_site_id
_symmetry_equiv_pos_as_xyz
1 x,y,z
2 -x,1/2+y,1/2-z
3 -x,-y,-z
4 x,1/2-y,1/2+z
_cell_length_a                   9.7260(5)
_cell_length_b                   19.8110(8)
_cell_length_c                   15.5020(6)
_cell_angle_alpha                90
_cell_angle_beta                 123.837(2)
_cell_angle_gamma                90
_cell_volume                     2481.04
_exptl_crystal_colour            colorless
_exptl_crystal_description       block
_cell_formula_units_Z            4
loop_
_atom_site_label
_atom_site_type_symbol
_atom_site_fract_x
_atom_site_fract_y
_atom_site_fract_z
B1 B 0.0213(5) 0.3349(2) 0.6361(3)
F1 F 0.0352(19) 0.3724(3) 0.7114(7)
F2 F -0.1085(8) 0.2927(4) 0.5984(7)
F3 F 0.1592(7) 0.2968(4) 0.6781(6)
F4 F 0.0039(11) 0.3736(4) 0.5596(5)
C1 C 0.4319(5) 0.07193(16) 1.1010(3)
C2 C 0.5958(6) 0.06594(18) 1.1318(3)
H1 H 0.6206 0.0692 1.0820
C3 C 0.7212(6) 0.05543(18) 1.2330(4)
H2 H 0.8299 0.0520 1.2517
C4 C 0.6861(6) 0.04989(18) 1.3076(4)
H3 H 0.7707 0.0429 1.3768
C5 C 0.5263(7) 0.0548(2) 1.2788(4)
H4 H 0.5030 0.0504 1.3291
C6 C 0.3978(5) 0.06607(18) 1.1770(3)
H5 H 0.2897 0.0697 1.1593
C7 C 0.2943(5) 0.07994(16) 0.9918(3)
C8 C 0.2754(4) 0.12544(16) 0.9199(3)
C9 C 0.1198(4) 0.11236(16) 0.8193(3)
C10 C 0.0456(5) 0.14413(18) 0.7234(3)
H6 H 0.0948 0.1817 0.7154
C11 C -0.1009(5) 0.11937(19) 0.6407(3)
H7 H -0.1516 0.1406 0.5764
C12 C -0.1734(5) 0.06363(19) 0.6517(3)
H8 H -0.2712 0.0469 0.5943
C13 C -0.1036(5) 0.03179(18) 0.7470(3)
H9 H -0.1546 -0.0053 0.7546
C14 C 0.0430(5) 0.05661(16) 0.8299(3)
C15 C 0.1461(5) 0.03424(15) 0.9414(3)
H10 H 0.0852 0.0392 0.9737
H11 H 0.1792 -0.0126 0.9466
C16 C 0.4732(4) 0.19496(15) 0.8577(3)
H12 H 0.3745 0.1922 0.7866
C17 C 0.5677(5) 0.25786(16) 0.8628(3)
H13 H 0.6641 0.2638 0.9330
H14 H 0.4975 0.2973 0.8448
C18 C 0.6223(5) 0.25139(16) 0.7879(3)
H15 H 0.5254 0.2496 0.7172
H16 H 0.6864 0.2908 0.7942
C19 C 0.7257(5) 0.18855(18) 0.8100(3)
H17 H 0.8276 0.1921 0.8785
H18 H 0.7546 0.1849 0.7596
C20 C 0.6321(5) 0.12538(18) 0.8052(3)
H19 H 0.5375 0.1189 0.7346
H20 H 0.7039 0.0864 0.8243
C21 C 0.5732(5) 0.13016(16) 0.8770(3)
H21 H 0.6681 0.1295 0.9485
H22 H 0.5049 0.0913 0.8664
C22 C 0.2933(4) 0.27414(15) 0.9329(3)
H23 H 0.2298 0.2887 0.8602
C23 C 0.4126(5) 0.33082(15) 0.9986(3)
H24 H 0.4870 0.3395 0.9767
H25 H 0.4787 0.3173 1.0710
C24 C 0.3164(6) 0.39504(18) 0.9868(3)
H26 H 0.3935 0.4298 1.0320
H27 H 0.2604 0.4111 0.9158
C25 C 0.1900(6) 0.3836(2) 1.0132(3)
H28 H 0.2467 0.3736 1.0867
H29 H 0.1259 0.4245 0.9992
C26 C 0.0750(5) 0.32619(19) 0.9510(3)
H30 H 0.0087 0.3385 0.8781
H31 H 0.0007 0.3182 0.9730
C27 C 0.1705(5) 0.26175(17) 0.9645(3)
H32 H 0.0938 0.2262 0.9218
H33 H 0.2305 0.2473 1.0364
P1 P 0.40188(12) 0.19719(4) 0.94297(8)
H34 H 0.541(4) 0.1942(13) 1.042(2)
F5? F 0.057(3) 0.2774(4) 0.6112(17)
F6? F 0.1522(17) 0.3578(8) 0.7274(5)
F7? F -0.1065(12) 0.3292(9) 0.6441(10)
F8? F -0.0126(15) 0.3831(6) 0.5626(8)
loop_
_geom_bond_atom_site_label_1
_geom_bond_atom_site_label_2
_geom_bond_site_symmetry_1
_geom_bond_site_symmetry_2
B1 F1 1_555 1_555
C1 C2 1_555 1_555
C2 H1 1_555 1_555
C3 C2 1_555 1_555
H2 C3 1_555 1_555
C4 C3 1_555 1_555
H3 C4 1_555 1_555
C5 C4 1_555 1_555
H4 C5 1_555 1_555
C6 C1 1_555 1_555
H5 C6 1_555 1_555
C7 C1 1_555 1_555
C8 C7 1_555 1_555
C9 C8 1_555 1_555
C10 C9 1_555 1_555
H6 C10 1_555 1_555
C11 C10 1_555 1_555
H7 C11 1_555 1_555
C12 C11 1_555 1_555
H8 C12 1_555 1_555
C13 C12 1_555 1_555
H9 C13 1_555 1_555
C14 C9 1_555 1_555
C15 C7 1_555 1_555
H10 C15 1_555 1_555
H11 C15 1_555 1_555
C16 H12 1_555 1_555
C17 C16 1_555 1_555
H13 C17 1_555 1_555
H14 C17 1_555 1_555
C18 C17 1_555 1_555
H15 C18 1_555 1_555
H16 C18 1_555 1_555
C19 C18 1_555 1_555
H17 C19 1_555 1_555
H18 C19 1_555 1_555
C20 C19 1_555 1_555
H19 C20 1_555 1_555
H20 C20 1_555 1_555
C21 C16 1_555 1_555
H21 C21 1_555 1_555
H22 C21 1_555 1_555
C22 H23 1_555 1_555
C23 C22 1_555 1_555
H24 C23 1_555 1_555
H25 C23 1_555 1_555
C24 C23 1_555 1_555
H26 C24 1_555 1_555
H27 C24 1_555 1_555
C25 C24 1_555 1_555
H28 C25 1_555 1_555
H29 C25 1_555 1_555
C26 C25 1_555 1_555
H30 C26 1_555 1_555
H31 C26 1_555 1_555
C27 C22 1_555 1_555
H32 C27 1_555 1_555
H33 C27 1_555 1_555
F2 B1 1_555 1_555
F3 B1 1_555 1_555
F4 B1 1_555 1_555
P1 C8 1_555 1_555
H34 P1 1_555 1_555
C5 C6 1_555 1_555
C13 C14 1_555 1_555
C14 C15 1_555 1_555
C16 P1 1_555 1_555
C20 C21 1_555 1_555
C22 P1 1_555 1_555
C26 C27 1_555 1_555

#END
