
#######################################################################
#
#                 Cambridge Crystallographic Data Centre
#                                CCDC 
#
#######################################################################
#
# If this CIF has been generated from an entry in the Cambridge 
# Structural Database, then it will include bibliographic, chemical, 
# crystal, experimental, refinement or atomic coordinate data resulting 
# from the CCDC's data processing and validation procedures.
#
#######################################################################

data_BUYZUS
_chemical_name_common            
1,4,7,10-tetrakis(4-formyl-benzyl)-1,4,7,10-tetra-azacyclododecane
_chemical_formula_moiety         'C40 H44 N4 O4'
_chemical_name_systematic        
4,4',4'',4'''-(1,4,7,10-tetraazacyclododecane-1,4,7,10-tetrayltetrakis(methylene))tetrabenzaldehyde
_symmetry_cell_setting           triclinic
_symmetry_space_group_name_H-M   'P -1'
_symmetry_Int_Tables_number      2
_space_group_name_Hall           '-P 1'
loop_
_symmetry_equiv_pos_site_id
_symmetry_equiv_pos_as_xyz
1 x,y,z
2 -x,-y,-z
_cell_length_a                   11.5551(14)
_cell_length_b                   13.2390(17)
_cell_length_c                   24.552(3)
_cell_angle_alpha                87.470(3)
_cell_angle_beta                 82.055(3)
_cell_angle_gamma                66.377(3)
_cell_volume                     3407.88
_exptl_crystal_colour            colorless
_exptl_crystal_description       prism
_cell_formula_units_Z            4
_exptl_crystal_recrystallization_method chloroform/diethylether
loop_
_atom_site_label
_atom_site_type_symbol
_atom_site_fract_x
_atom_site_fract_y
_atom_site_fract_z
C1 C 0.33724(14) 0.77625(12) 0.31130(6)
H1 H 0.3334 0.7917 0.2716
H2 H 0.2570 0.7694 0.3270
C2 C 0.44897(14) 0.66615(12) 0.31767(6)
H3 H 0.4683 0.6217 0.2837
H4 H 0.5250 0.6807 0.3216
C3 C 0.42275(14) 0.65493(13) 0.41674(6)
H5 H 0.3785 0.7357 0.4129
H6 H 0.5114 0.6391 0.4226
C4 C 0.35746(15) 0.61953(13) 0.46752(6)
H7 H 0.3890 0.5381 0.4675
H8 H 0.3806 0.6426 0.5008
C5 C 0.16097(15) 0.78515(13) 0.48523(6)
H9 H 0.2268 0.8157 0.4766
H10 H 0.1333 0.7931 0.5254
C6 C 0.04751(14) 0.85138(13) 0.45535(6)
H11 H -0.0072 0.8099 0.4552
H12 H -0.0037 0.9220 0.4753
C7 C 0.13445(14) 0.96237(12) 0.39686(6)
H13 H 0.1814 0.9542 0.4287
H14 H 0.0602 1.0341 0.4011
C8 C 0.22098(13) 0.96484(12) 0.34475(6)
H15 H 0.1769 0.9670 0.3126
H16 H 0.2357 1.0335 0.3448
C9 C 0.43786(13) 0.90510(12) 0.30498(6)
H17 H 0.3981 0.9503 0.2741
H18 H 0.5113 0.8390 0.2892
C10 C 0.48527(13) 0.97103(12) 0.33797(6)
C11 C 0.52266(14) 0.93474(13) 0.38936(6)
H19 H 0.5141 0.8704 0.4045
C12 C 0.57220(15) 0.99173(13) 0.41850(7)
H20 H 0.5971 0.9666 0.4536
C13 C 0.58575(15) 1.08588(13) 0.39656(7)
C14 C 0.54780(15) 1.12335(13) 0.34539(7)
H21 H 0.5569 1.1874 0.3302
C15 C 0.49679(14) 1.06679(12) 0.31678(6)
H22 H 0.4692 1.0934 0.2823
C16 C 0.64060(19) 1.14494(15) 0.42756(9)
H23 H 0.6616 1.1185 0.4630
C17 C 0.52770(14) 0.48938(12) 0.36133(6)
H24 H 0.5120 0.4469 0.3936
H25 H 0.6103 0.4946 0.3628
C18 C 0.53639(14) 0.42790(12) 0.30950(6)
C19 C 0.64844(15) 0.38986(12) 0.27276(7)
H26 H 0.7201 0.4023 0.2804
C20 C 0.65620(16) 0.33398(13) 0.22502(7)
H27 H 0.7325 0.3094 0.1999
C21 C 0.55247(17) 0.31394(12) 0.21394(6)
C22 C 0.44020(17) 0.35068(13) 0.25082(7)
H28 H 0.3695 0.3362 0.2437
C23 C 0.43238(15) 0.40828(13) 0.29775(6)
H29 H 0.3552 0.4349 0.3223
C24 C 0.5640(2) 0.25509(14) 0.16276(7)
H30 H 0.6427 0.2325 0.1392
C25 C 0.16079(17) 0.60846(13) 0.50969(6)
H31 H 0.0671 0.6495 0.5146
H32 H 0.1905 0.6083 0.5456
C26 C 0.19141(15) 0.49090(13) 0.49351(6)
C27 C 0.22488(16) 0.45499(13) 0.43891(6)
H33 H 0.2327 0.5042 0.4107
C28 C 0.24682(16) 0.34780(13) 0.42569(6)
H34 H 0.2698 0.3238 0.3884
C29 C 0.23550(14) 0.27466(13) 0.46663(6)
C30 C 0.20428(16) 0.30982(14) 0.52148(6)
H35 H 0.1976 0.2605 0.5498
C31 C 0.18317(17) 0.41669(14) 0.53420(6)
H36 H 0.1625 0.4402 0.5716
C32 C 0.25610(15) 0.16253(13) 0.45079(6)
H37 H 0.2799 0.1433 0.4128
C33 C -0.01554(14) 0.90462(13) 0.36494(7)
H38 H 0.0073 0.9391 0.3308
H39 H -0.0929 0.9609 0.3853
C34 C -0.04739(13) 0.81060(13) 0.34925(6)
C35 C -0.15634(14) 0.83645(13) 0.32387(7)
H40 H -0.2069 0.9112 0.3166
C36 C -0.19104(14) 0.75401(14) 0.30930(7)
H41 H -0.2646 0.7723 0.2914
C37 C -0.11885(14) 0.64399(13) 0.32060(6)
C38 C -0.00769(14) 0.61782(12) 0.34477(6)
H42 H 0.0433 0.5430 0.3518
C39 C 0.02834(14) 0.70002(12) 0.35853(6)
H43 H 0.1047 0.6815 0.3743
C40 C -0.16357(15) 0.55984(14) 0.30771(6)
H44 H -0.2312 0.5816 0.2859
N1 N 0.34500(11) 0.87031(10) 0.33814(5)
N2 N 0.42589(12) 0.60130(10) 0.36484(5)
N3 N 0.21761(12) 0.66691(10) 0.47010(5)
N4 N 0.08793(11) 0.87415(10) 0.39836(5)
O1 O 0.66087(17) 1.22489(12) 0.41102(7)
O2 O 0.47973(17) 0.23325(12) 0.14840(6)
O3 O 0.24531(11) 0.09222(9) 0.48200(5)
O4 O -0.12173(11) 0.46502(10) 0.32252(5)
C41 C 0.29388(13) 0.53642(12) 0.15257(6)
H45 H 0.2766 0.4689 0.1530
H46 H 0.3443 0.5312 0.1828
C42 C 0.37204(13) 0.54096(12) 0.09837(6)
H47 H 0.4472 0.4701 0.0924
H48 H 0.3201 0.5490 0.0683
C43 C 0.44387(18) 0.65901(15) 0.03781(7)
H49 H 0.4939 0.5903 0.0162
H50 H 0.4966 0.7027 0.0362
C44 C 0.3242(2) 0.72419(16) 0.01222(7)
H51 H 0.3436 0.7149 -0.0283
H52 H 0.2591 0.6945 0.0249
C45 C 0.1326(2) 0.89030(16) 0.03781(9)
H53 H 0.0979 0.8706 0.0072
H54 H 0.1018 0.9717 0.0390
C46 C 0.08120(18) 0.85209(14) 0.09138(9)
H55 H -0.0107 0.8709 0.0912
H56 H 0.1244 0.7708 0.0929
C47 C 0.08088(15) 0.83504(13) 0.19012(8)
H57 H -0.0008 0.8268 0.1910
H58 H 0.0749 0.8769 0.2236
C48 C 0.18750(14) 0.72054(12) 0.19223(6)
H59 H 0.2691 0.7247 0.1766
H60 H 0.1935 0.6993 0.2312
C49 C 0.07752(14) 0.59902(12) 0.19518(6)
H61 H 0.0036 0.6656 0.2101
H62 H 0.1155 0.5550 0.2267
C50 C 0.03159(13) 0.53181(12) 0.16234(6)
C51 C 0.00027(14) 0.56260(12) 0.10962(6)
H63 H 0.0112 0.6251 0.0932
C52 C -0.04670(14) 0.50274(13) 0.08090(6)
H64 H -0.0676 0.5243 0.0449
C53 C -0.06336(14) 0.41112(12) 0.10452(6)
C54 C -0.03144(15) 0.37957(13) 0.15706(7)
H65 H -0.0426 0.3172 0.1735
C55 C 0.01651(15) 0.43891(13) 0.18533(6)
H66 H 0.0395 0.4161 0.2209
C56 C -0.11508(17) 0.34921(14) 0.07375(7)
H67 H -0.1313 0.3717 0.0373
C57 C 0.52700(14) 0.60070(13) 0.12410(8)
H68 H 0.6028 0.5501 0.1003
H69 H 0.5144 0.5600 0.1576
C58 C 0.55320(14) 0.69731(13) 0.14051(7)
C59 C 0.46544(14) 0.80585(13) 0.13812(7)
H70 H 0.3856 0.8214 0.1258
C60 C 0.49492(15) 0.89094(14) 0.15370(7)
H71 H 0.4344 0.9648 0.1523
C61 C 0.61130(15) 0.87049(14) 0.17142(7)
C62 C 0.69858(15) 0.76181(14) 0.17442(7)
H72 H 0.7782 0.7465 0.1868
C63 C 0.66961(14) 0.67670(14) 0.15942(7)
H73 H 0.7294 0.6028 0.1619
C64 C 0.63843(16) 0.96437(16) 0.18601(8)
H74 H 0.5744 1.0360 0.1825
C65 C 0.2821(4) 0.9148(3) -0.01638(14)
H75 H 0.2164 0.9240 -0.0403
H76 H 0.3662 0.8783 -0.0388
C66 C 0.2684(4) 1.0288(3) -0.00028(14)
C67 C 0.2794(4) 1.0521(3) 0.05324(17)
H77 H 0.2889 0.9980 0.0809
C68 C 0.2766(4) 1.1536(3) 0.06596(16)
H78 H 0.2844 1.1686 0.1025
C69 C 0.2627(4) 1.2344(3) 0.02631(14)
C70 C 0.2499(4) 1.2093(4) -0.0265(2)
H79 H 0.2400 1.2630 -0.0545
C71 C 0.2512(5) 1.1110(5) -0.0387(2)
H80 H 0.2398 1.0976 -0.0749
C72 C 0.2756(2) 1.33267(16) 0.04182(7)
H81 H 0.3106 1.3329 0.0746
C73 C 0.00196(17) 1.01400(14) 0.14993(10)
H82 H -0.0835 1.0133 0.1607
H83 H 0.0004 1.0539 0.1148
C74 C 0.03049(17) 1.07441(13) 0.19362(10)
C75 C -0.05467(18) 1.11737(14) 0.24069(10)
H84 H -0.1313 1.1057 0.2468
C76 C -0.02931(18) 1.17771(14) 0.27942(9)
H85 H -0.0879 1.2060 0.3117
C77 C 0.08229(18) 1.19593(14) 0.27021(9)
C78 C 0.16862(17) 1.15243(14) 0.22327(10)
H86 H 0.2450 1.1646 0.2169
C79 C 0.14318(18) 1.09155(15) 0.18600(11)
H87 H 0.2036 1.0606 0.1545
C80 C 0.1099(2) 1.25930(15) 0.31097(9)
H88 H 0.0552 1.2787 0.3449
N5 N 0.17193(11) 0.63280(9) 0.16261(5)
N6 N 0.41599(11) 0.63098(10) 0.09504(5)
N7 N 0.27180(18) 0.84299(13) 0.02637(6)
N8 N 0.09717(13) 0.89951(11) 0.14165(6)
O5 O -0.13852(14) 0.27131(11) 0.09165(6)
O6 O 0.73497(12) 0.95866(12) 0.20212(6)
O7 O 0.24364(11) 1.41364(10) 0.01468(5)
O8 O 0.19850(14) 1.28810(12) 0.30368(6)
C81? C 0.3405(3) 0.8914(2) -0.02048(11)
H89? H 0.4323 0.8428 -0.0270
H90? H 0.3039 0.8949 -0.0550
C82? C 0.3242(3) 1.0054(3) -0.00430(12)
C83? C 0.3837(3) 1.0189(3) 0.03789(14)
H91? H 0.4346 0.9559 0.0567
C84? C 0.3708(3) 1.1222(3) 0.05355(13)
H92? H 0.4102 1.1296 0.0838
C85? C 0.3016(4) 1.2143(3) 0.02583(14)
C86? C 0.2399(5) 1.2045(5) -0.0168(2)
H93? H 0.1894 1.2681 -0.0354
C87? C 0.2530(6) 1.0971(5) -0.0325(3)
H94? H 0.2128 1.0889 -0.0623
loop_
_geom_bond_atom_site_label_1
_geom_bond_atom_site_label_2
_geom_bond_site_symmetry_1
_geom_bond_site_symmetry_2
C1 H1 1_555 1_555
H2 C1 1_555 1_555
C2 C1 1_555 1_555
H3 C2 1_555 1_555
H4 C2 1_555 1_555
C3 H5 1_555 1_555
H6 C3 1_555 1_555
C4 C3 1_555 1_555
H7 C4 1_555 1_555
H8 C4 1_555 1_555
C5 H9 1_555 1_555
H10 C5 1_555 1_555
C6 C5 1_555 1_555
H11 C6 1_555 1_555
H12 C6 1_555 1_555
C7 H13 1_555 1_555
H14 C7 1_555 1_555
C8 C7 1_555 1_555
H15 C8 1_555 1_555
H16 C8 1_555 1_555
C9 H17 1_555 1_555
H18 C9 1_555 1_555
C10 C9 1_555 1_555
C11 C10 1_555 1_555
H19 C11 1_555 1_555
C12 C11 1_555 1_555
H20 C12 1_555 1_555
C13 C12 1_555 1_555
C14 C13 1_555 1_555
H21 C14 1_555 1_555
C15 C10 1_555 1_555
H22 C15 1_555 1_555
C16 C13 1_555 1_555
H23 C16 1_555 1_555
C17 H24 1_555 1_555
H25 C17 1_555 1_555
C18 C17 1_555 1_555
C19 C18 1_555 1_555
H26 C19 1_555 1_555
C20 C19 1_555 1_555
H27 C20 1_555 1_555
C21 C20 1_555 1_555
C22 C21 1_555 1_555
H28 C22 1_555 1_555
C23 C18 1_555 1_555
H29 C23 1_555 1_555
C24 C21 1_555 1_555
H30 C24 1_555 1_555
C25 H31 1_555 1_555
H32 C25 1_555 1_555
C26 C25 1_555 1_555
C27 C26 1_555 1_555
H33 C27 1_555 1_555
C28 C27 1_555 1_555
H34 C28 1_555 1_555
C29 C28 1_555 1_555
C30 C29 1_555 1_555
H35 C30 1_555 1_555
C31 C26 1_555 1_555
H36 C31 1_555 1_555
C32 C29 1_555 1_555
H37 C32 1_555 1_555
C33 H38 1_555 1_555
H39 C33 1_555 1_555
C34 C33 1_555 1_555
C35 C34 1_555 1_555
H40 C35 1_555 1_555
C36 C35 1_555 1_555
H41 C36 1_555 1_555
C37 C36 1_555 1_555
C38 C37 1_555 1_555
H42 C38 1_555 1_555
C39 C34 1_555 1_555
H43 C39 1_555 1_555
C40 C37 1_555 1_555
H44 C40 1_555 1_555
N1 C1 1_555 1_555
N2 C2 1_555 1_555
N3 C4 1_555 1_555
N4 C6 1_555 1_555
O1 C16 1_555 1_555
O2 C24 1_555 1_555
O3 C32 1_555 1_555
O4 C40 1_555 1_555
C41 H45 1_555 1_555
H46 C41 1_555 1_555
C42 C41 1_555 1_555
H47 C42 1_555 1_555
H48 C42 1_555 1_555
C43 H49 1_555 1_555
H50 C43 1_555 1_555
C44 C43 1_555 1_555
H51 C44 1_555 1_555
H52 C44 1_555 1_555
C45 H53 1_555 1_555
H54 C45 1_555 1_555
C46 C45 1_555 1_555
H55 C46 1_555 1_555
H56 C46 1_555 1_555
C47 H57 1_555 1_555
H58 C47 1_555 1_555
C48 C47 1_555 1_555
H59 C48 1_555 1_555
H60 C48 1_555 1_555
C49 H61 1_555 1_555
H62 C49 1_555 1_555
C50 C49 1_555 1_555
C51 C50 1_555 1_555
H63 C51 1_555 1_555
C52 C51 1_555 1_555
H64 C52 1_555 1_555
C53 C52 1_555 1_555
C54 C53 1_555 1_555
H65 C54 1_555 1_555
C55 C50 1_555 1_555
H66 C55 1_555 1_555
C56 C53 1_555 1_555
H67 C56 1_555 1_555
C57 H68 1_555 1_555
H69 C57 1_555 1_555
C58 C57 1_555 1_555
C59 C58 1_555 1_555
H70 C59 1_555 1_555
C60 C59 1_555 1_555
H71 C60 1_555 1_555
C61 C60 1_555 1_555
C62 C61 1_555 1_555
H72 C62 1_555 1_555
C63 C58 1_555 1_555
H73 C63 1_555 1_555
C64 C61 1_555 1_555
H74 C64 1_555 1_555
C65 H75 1_555 1_555
H76 C65 1_555 1_555
C66 C65 1_555 1_555
C67 C66 1_555 1_555
H77 C67 1_555 1_555
C68 C67 1_555 1_555
H78 C68 1_555 1_555
C69 C68 1_555 1_555
C70 C69 1_555 1_555
H79 C70 1_555 1_555
C71 C66 1_555 1_555
H80 C71 1_555 1_555
C72 C69 1_555 1_555
H81 C72 1_555 1_555
C73 H82 1_555 1_555
H83 C73 1_555 1_555
C74 C73 1_555 1_555
C75 C74 1_555 1_555
H84 C75 1_555 1_555
C76 C75 1_555 1_555
H85 C76 1_555 1_555
C77 C76 1_555 1_555
C78 C77 1_555 1_555
H86 C78 1_555 1_555
C79 C74 1_555 1_555
H87 C79 1_555 1_555
C80 C77 1_555 1_555
H88 C80 1_555 1_555
N5 C41 1_555 1_555
N6 C42 1_555 1_555
N7 C44 1_555 1_555
N8 C46 1_555 1_555
O5 C56 1_555 1_555
O6 C64 1_555 1_555
O7 C72 1_555 1_555
O8 C80 1_555 1_555
C3 N2 1_555 1_555
C5 N3 1_555 1_555
C7 N4 1_555 1_555
C8 N1 1_555 1_555
C9 N1 1_555 1_555
C14 C15 1_555 1_555
C17 N2 1_555 1_555
C22 C23 1_555 1_555
C25 N3 1_555 1_555
C30 C31 1_555 1_555
C33 N4 1_555 1_555
C38 C39 1_555 1_555
C43 N6 1_555 1_555
C45 N7 1_555 1_555
C47 N8 1_555 1_555
C48 N5 1_555 1_555
C49 N5 1_555 1_555
C54 C55 1_555 1_555
C57 N6 1_555 1_555
C62 C63 1_555 1_555
C65 N7 1_555 1_555
C70 C71 1_555 1_555
C73 N8 1_555 1_555
C78 C79 1_555 1_555

#END
