
#######################################################################
#
#                 Cambridge Crystallographic Data Centre
#                                CCDC 
#
#######################################################################
#
# If this CIF has been generated from an entry in the Cambridge 
# Structural Database, then it will include bibliographic, chemical, 
# crystal, experimental, refinement or atomic coordinate data resulting 
# from the CCDC's data processing and validation procedures.
#
#######################################################################

data_BUZQEU
_chemical_formula_moiety         'C41 H44 N2 O5'
_chemical_name_systematic        
1,1',1'',1'''-((2,7-di-t-butyl-9,9-dimethyl-9H-xanthene-4,5-diyl)dipyridine-4,2,6-triyl)tetraethanone
_symmetry_cell_setting           monoclinic
_symmetry_space_group_name_H-M   'P 21/c'
_symmetry_Int_Tables_number      14
_space_group_name_Hall           '-P 2ybc'
loop_
_symmetry_equiv_pos_site_id
_symmetry_equiv_pos_as_xyz
1 x,y,z
2 -x,1/2+y,1/2-z
3 -x,-y,-z
4 x,1/2-y,1/2+z
_cell_length_a                   13.134(2)
_cell_length_b                   15.114(3)
_cell_length_c                   18.249(3)
_cell_angle_alpha                90
_cell_angle_beta                 104.532(3)
_cell_angle_gamma                90
_cell_volume                     3506.67
_exptl_crystal_colour            colorless
_exptl_crystal_description       Block
_cell_formula_units_Z            4
loop_
_atom_site_label
_atom_site_type_symbol
_atom_site_fract_x
_atom_site_fract_y
_atom_site_fract_z
N1 N 0.11102(15) 0.44898(14) 0.31563(11)
N2 N 0.01554(15) 0.38836(13) 0.05120(11)
O1 O 0.39590(12) 0.37790(10) 0.18313(9)
O2 O 0.16802(15) 0.67079(12) 0.37210(11)
O3 O 0.14586(15) 0.22201(13) 0.29124(14)
O4 O 0.10557(13) 0.58056(12) 0.15819(10)
O5 O 0.00371(15) 0.18873(13) -0.05101(12)
C1 C 0.46910(17) 0.41794(14) 0.24172(13)
C2 C 0.43120(18) 0.46029(14) 0.29762(13)
C3 C 0.50316(18) 0.50499(15) 0.35525(13)
H1 H 0.4782 0.5343 0.3934
C4 C 0.60963(18) 0.50788(15) 0.35848(13)
C5 C 0.69017(19) 0.55887(17) 0.41989(13)
C6 C 0.6392(2) 0.60261(19) 0.47817(15)
H2 H 0.6078 0.5569 0.5037
H3 H 0.5845 0.6440 0.4522
H4 H 0.6930 0.6348 0.5157
C7 C 0.7775(2) 0.49604(19) 0.46172(15)
H5 H 0.8105 0.4678 0.4251
H6 H 0.7472 0.4506 0.4882
H7 H 0.8306 0.5297 0.4985
C8 C 0.7387(2) 0.63266(17) 0.38103(16)
H8 H 0.7715 0.6064 0.3435
H9 H 0.7919 0.6645 0.4191
H10 H 0.6834 0.6739 0.3558
C9 C 0.64427(18) 0.46205(15) 0.30281(13)
H11 H 0.7173 0.4619 0.3052
C10 C 0.57650(17) 0.41672(14) 0.24419(13)
C11 C 0.61400(18) 0.36186(16) 0.18578(13)
C12 C 0.71930(19) 0.39583(19) 0.17432(15)
H12 H 0.7112 0.4573 0.1568
H13 H 0.7407 0.3591 0.1365
H14 H 0.7731 0.3927 0.2224
C13 C 0.6294(2) 0.26491(17) 0.21342(15)
H15 H 0.5630 0.2420 0.2211
H16 H 0.6836 0.2624 0.2613
H17 H 0.6512 0.2289 0.1754
C14 C 0.52823(17) 0.36326(14) 0.11208(13)
C15 C 0.54927(18) 0.35285(15) 0.04146(13)
H18 H 0.6205 0.3487 0.0390
C16 C 0.47082(18) 0.34829(15) -0.02554(13)
C17 C 0.50104(19) 0.32845(16) -0.09994(14)
C18 C 0.5914(2) 0.38971(16) -0.10802(14)
H19 H 0.6101 0.3766 -0.1556
H20 H 0.6528 0.3799 -0.0655
H21 H 0.5689 0.4515 -0.1081
C19 C 0.4094(2) 0.3424(2) -0.16907(14)
H22 H 0.3506 0.3041 -0.1654
H23 H 0.4316 0.3276 -0.2150
H24 H 0.3869 0.4044 -0.1713
C20 C 0.5375(2) 0.23165(16) -0.09633(16)
H25 H 0.4799 0.1929 -0.0913
H26 H 0.5977 0.2236 -0.0526
H27 H 0.5582 0.2167 -0.1428
C21 C 0.36691(18) 0.35590(15) -0.02054(13)
H28 H 0.3117 0.3529 -0.0655
C22 C 0.34176(17) 0.36787(14) 0.04889(13)
C23 C 0.42316(18) 0.37045(14) 0.11404(13)
C24 C 0.31875(18) 0.45602(15) 0.30028(13)
C25 C 0.27047(19) 0.52968(15) 0.32304(13)
H29 H 0.3077 0.5839 0.3340
C26 C 0.16755(18) 0.52316(15) 0.32955(13)
C27 C 0.1169(2) 0.60311(17) 0.35503(14)
C28 C 0.0044(2) 0.5959(2) 0.35848(18)
H30 H -0.0182 0.6522 0.3758
H31 H -0.0023 0.5488 0.3939
H32 H -0.0397 0.5820 0.3080
C29 C -0.0200(2) 0.29481(19) 0.27121(17)
H33 H -0.0485 0.2346 0.2660
H34 H -0.0490 0.3278 0.2244
H35 H -0.0392 0.3245 0.3136
C30 C 0.09761(19) 0.29110(17) 0.28594(15)
C31 C 0.15810(18) 0.37739(15) 0.29580(14)
C32 C 0.26002(18) 0.37812(15) 0.28674(13)
H36 H 0.2895 0.3260 0.2714
C33 C 0.22919(18) 0.37584(15) 0.05080(13)
C34 C 0.19246(18) 0.44304(15) 0.09077(13)
H37 H 0.2400 0.4852 0.1192
C35 C 0.08601(18) 0.44724(15) 0.08836(13)
C36 C 0.04620(19) 0.52125(16) 0.12932(14)
C37 C -0.0664(2) 0.51742(17) 0.13424(16)
H38 H -0.0817 0.5691 0.1621
H39 H -0.0776 0.4633 0.1607
H40 H -0.1131 0.5173 0.0831
C38 C -0.1425(2) 0.27163(19) -0.03270(16)
H41 H -0.1839 0.2221 -0.0594
H42 H -0.1642 0.3265 -0.0609
H43 H -0.1543 0.2769 0.0181
C39 C -0.0285(2) 0.25545(17) -0.02634(15)
C40 C 0.04972(18) 0.32400(15) 0.01288(14)
C41 C 0.15457(18) 0.31692(15) 0.01013(13)
H44 H 0.1751 0.2719 -0.0195
H45? H 0.0455 0.4471 0.3193
H46? H -0.0511 0.3918 0.0519
loop_
_geom_bond_atom_site_label_1
_geom_bond_atom_site_label_2
_geom_bond_site_symmetry_1
_geom_bond_site_symmetry_2
N1 C26 1_555 1_555
N2 C35 1_555 1_555
O1 C1 1_555 1_555
O2 C27 1_555 1_555
O3 C30 1_555 1_555
O4 C36 1_555 1_555
O5 C39 1_555 1_555
C1 C2 1_555 1_555
C2 C3 1_555 1_555
C3 H1 1_555 1_555
C4 C3 1_555 1_555
C5 C4 1_555 1_555
C6 C5 1_555 1_555
H2 C6 1_555 1_555
H3 C6 1_555 1_555
H4 C6 1_555 1_555
C7 C5 1_555 1_555
H5 C7 1_555 1_555
H6 C7 1_555 1_555
H7 C7 1_555 1_555
C8 C5 1_555 1_555
H8 C8 1_555 1_555
H9 C8 1_555 1_555
H10 C8 1_555 1_555
C9 C4 1_555 1_555
H11 C9 1_555 1_555
C10 C1 1_555 1_555
C11 C10 1_555 1_555
C12 C11 1_555 1_555
H12 C12 1_555 1_555
H13 C12 1_555 1_555
H14 C12 1_555 1_555
C13 C11 1_555 1_555
H15 C13 1_555 1_555
H16 C13 1_555 1_555
H17 C13 1_555 1_555
C14 C11 1_555 1_555
C15 C14 1_555 1_555
H18 C15 1_555 1_555
C16 C15 1_555 1_555
C17 C16 1_555 1_555
C18 C17 1_555 1_555
H19 C18 1_555 1_555
H20 C18 1_555 1_555
H21 C18 1_555 1_555
C19 C17 1_555 1_555
H22 C19 1_555 1_555
H23 C19 1_555 1_555
H24 C19 1_555 1_555
C20 C17 1_555 1_555
H25 C20 1_555 1_555
H26 C20 1_555 1_555
H27 C20 1_555 1_555
C21 C16 1_555 1_555
H28 C21 1_555 1_555
C22 C21 1_555 1_555
C23 O1 1_555 1_555
C24 C2 1_555 1_555
C25 C24 1_555 1_555
H29 C25 1_555 1_555
C26 C25 1_555 1_555
C27 C26 1_555 1_555
C28 C27 1_555 1_555
H30 C28 1_555 1_555
H31 C28 1_555 1_555
H32 C28 1_555 1_555
C29 H33 1_555 1_555
H34 C29 1_555 1_555
H35 C29 1_555 1_555
C30 C29 1_555 1_555
C31 N1 1_555 1_555
C32 C24 1_555 1_555
H36 C32 1_555 1_555
C33 C22 1_555 1_555
C34 C33 1_555 1_555
H37 C34 1_555 1_555
C35 C34 1_555 1_555
C36 C35 1_555 1_555
C37 C36 1_555 1_555
H38 C37 1_555 1_555
H39 C37 1_555 1_555
H40 C37 1_555 1_555
C38 H41 1_555 1_555
H42 C38 1_555 1_555
H43 C38 1_555 1_555
C39 C38 1_555 1_555
C40 N2 1_555 1_555
C41 C33 1_555 1_555
H44 C41 1_555 1_555
C9 C10 1_555 1_555
C14 C23 1_555 1_555
C22 C23 1_555 1_555
C30 C31 1_555 1_555
C31 C32 1_555 1_555
C39 C40 1_555 1_555
C40 C41 1_555 1_555

#END
