
#######################################################################
#
#                 Cambridge Crystallographic Data Centre
#                                CCDC 
#
#######################################################################
#
# If this CIF has been generated from an entry in the Cambridge 
# Structural Database, then it will include bibliographic, chemical, 
# crystal, experimental, refinement or atomic coordinate data resulting 
# from the CCDC's data processing and validation procedures.
#
#######################################################################

data_BUZYIG
_chemical_formula_moiety         'C19 H17 Cl1 N2 O1,H2 O1'
_chemical_name_systematic        
'3-(4-(3-chlorophenyl)-2-naphthyl)-1,1-dimethylurea monohydrate'
_symmetry_cell_setting           monoclinic
_symmetry_space_group_name_H-M   'P 21/c'
_symmetry_Int_Tables_number      14
_space_group_name_Hall           '-P 2ybc'
loop_
_symmetry_equiv_pos_site_id
_symmetry_equiv_pos_as_xyz
1 x,y,z
2 -x,1/2+y,1/2-z
3 -x,-y,-z
4 x,1/2-y,1/2+z
_cell_length_a                   13.03(2)
_cell_length_b                   17.92(3)
_cell_length_c                   15.73(3)
_cell_angle_alpha                90
_cell_angle_beta                 101.88(4)
_cell_angle_gamma                90
_cell_volume                     3594.25
_exptl_crystal_colour            colorless
_exptl_crystal_description       plate
_cell_formula_units_Z            8
loop_
_atom_site_label
_atom_site_type_symbol
_atom_site_fract_x
_atom_site_fract_y
_atom_site_fract_z
C1 C 0.0777(9) 0.7804(7) 0.3799(8)
C2 C 0.1537(9) 0.8277(7) 0.3611(7)
H1 H 0.1530 0.8397 0.3035
C3 C 0.2292(8) 0.8570(7) 0.4242(8)
C4 C 0.2324(8) 0.8413(7) 0.5110(7)
C5 C 0.1549(9) 0.7934(7) 0.5284(7)
C6 C 0.0787(8) 0.7633(7) 0.4635(8)
H2 H 0.0283 0.7313 0.4773
C7 C 0.3080(9) 0.8662(8) 0.5809(8)
H3 H 0.3624 0.8961 0.5702
C8 C 0.3052(11) 0.8488(9) 0.6635(9)
H4 H 0.3571 0.8668 0.7086
C9 C 0.2274(11) 0.8051(9) 0.6819(9)
H5 H 0.2234 0.7961 0.7393
C10 C 0.1556(10) 0.7746(8) 0.6163(8)
H6 H 0.1063 0.7411 0.6290
C11 C 0.3046(9) 0.9093(9) 0.3985(7)
C12 C 0.3173(10) 0.9798(9) 0.4329(9)
H7 H 0.2802 0.9952 0.4744
C13 C 0.3851(10) 1.0261(9) 0.4051(9)
C14 C 0.4431(10) 1.0060(10) 0.3460(9)
H8 H 0.4915 1.0388 0.3304
C15 C 0.4287(11) 0.9393(11) 0.3118(9)
H9 H 0.4641 0.9253 0.2687
C16 C 0.3605(10) 0.8885(8) 0.3395(8)
H10 H 0.3540 0.8403 0.3171
C17 C -0.0415(9) 0.7740(9) 0.2349(9)
C18 C -0.1562(15) 0.6635(11) 0.2092(11)
H11 H -0.2072 0.6428 0.1622
H12 H -0.0997 0.6286 0.2262
H13 H -0.1885 0.6733 0.2576
C19 C -0.1654(11) 0.7558(9) 0.0963(8)
H14 H -0.2151 0.7192 0.0689
H15 H -0.2009 0.8022 0.1006
H16 H -0.1128 0.7629 0.0624
N1 N -0.0005(7) 0.7454(6) 0.3148(6)
H17 H -0.0236 0.7027 0.3272
N2 N -0.1166(8) 0.7307(8) 0.1819(7)
O1 O -0.0150(6) 0.8338(6) 0.2093(5)
Cl1 Cl 0.4057(3) 1.1154(3) 0.4510(3)
C20 C 0.8644(9) 1.0154(8) 0.1266(8)
C21 C 0.8042(10) 0.9571(8) 0.1510(7)
H18 H 0.8361 0.9115 0.1680
C22 C 0.6993(10) 0.9660(8) 0.1503(7)
C23 C 0.6518(9) 1.0348(8) 0.1273(7)
C24 C 0.7136(9) 1.0933(8) 0.1022(7)
C25 C 0.8195(9) 1.0825(8) 0.1024(7)
H19 H 0.8591 1.1210 0.0860
C26 C 0.5463(9) 1.0513(9) 0.1293(7)
H20 H 0.5042 1.0137 0.1445
C27 C 0.5059(10) 1.1169(10) 0.1108(8)
H21 H 0.4362 1.1253 0.1136
C28 C 0.5656(11) 1.1757(9) 0.0867(8)
H22 H 0.5360 1.2226 0.0736
C29 C 0.6666(10) 1.1627(8) 0.0828(7)
H23 H 0.7061 1.2014 0.0666
C30 C 0.6450(10) 0.9005(8) 0.1777(8)
C31 C 0.6873(9) 0.8658(8) 0.2533(9)
H24 H 0.7481 0.8847 0.2883
C32 C 0.6419(11) 0.8042(9) 0.2781(8)
C33 C 0.5535(12) 0.7746(9) 0.2273(10)
H25 H 0.5233 0.7315 0.2439
C34 C 0.5100(11) 0.8106(9) 0.1501(9)
H26 H 0.4491 0.7919 0.1151
C35 C 0.5551(11) 0.8723(8) 0.1256(8)
H27 H 0.5257 0.8959 0.0736
C36 C 1.0443(10) 1.0400(10) 0.1083(8)
C37 C 1.2285(9) 1.0504(8) 0.0940(9)
H28 H 1.2876 1.0180 0.0960
H29 H 1.2113 1.0743 0.0383
H30 H 1.2455 1.0876 0.1386
C38 C 1.1586(11) 0.9272(9) 0.1213(9)
H31 H 1.2300 0.9165 0.1185
H32 H 1.1465 0.9130 0.1772
H33 H 1.1123 0.8997 0.0769
N3 N 0.9695(7) 0.9943(6) 0.1283(6)
H34 H 0.9873 0.9492 0.1432
N4 N 1.1389(8) 1.0068(7) 0.1080(6)
O2 O 1.0328(6) 1.1053(6) 0.0925(6)
Cl2 Cl 0.6975(4) 0.7608(3) 0.3754(3)
O3 O 0.8911(17) 0.9303(14) 0.4457(14)
O4 O 0.042(2) 0.5147(19) 0.1263(19)
loop_
_geom_bond_atom_site_label_1
_geom_bond_atom_site_label_2
_geom_bond_site_symmetry_1
_geom_bond_site_symmetry_2
C1 C2 1_555 1_555
C2 H1 1_555 1_555
C3 C2 1_555 1_555
C4 C3 1_555 1_555
C5 C4 1_555 1_555
C6 C1 1_555 1_555
H2 C6 1_555 1_555
C7 C4 1_555 1_555
H3 C7 1_555 1_555
C8 C7 1_555 1_555
H4 C8 1_555 1_555
C9 C8 1_555 1_555
H5 C9 1_555 1_555
C10 C5 1_555 1_555
H6 C10 1_555 1_555
C11 C3 1_555 1_555
C12 C11 1_555 1_555
H7 C12 1_555 1_555
C13 C12 1_555 1_555
C14 C13 1_555 1_555
H8 C14 1_555 1_555
C15 C14 1_555 1_555
H9 C15 1_555 1_555
C16 C11 1_555 1_555
H10 C16 1_555 1_555
C17 N1 1_555 1_555
C18 H11 1_555 1_555
H12 C18 1_555 1_555
H13 C18 1_555 1_555
C19 H14 1_555 1_555
H15 C19 1_555 1_555
H16 C19 1_555 1_555
N1 C1 1_555 1_555
H17 N1 1_555 1_555
N2 C17 1_555 1_555
O1 C17 1_555 1_555
Cl1 C13 1_555 1_555
C20 C21 1_555 1_555
C21 H18 1_555 1_555
C22 C21 1_555 1_555
C23 C22 1_555 1_555
C24 C23 1_555 1_555
C25 C20 1_555 1_555
H19 C25 1_555 1_555
C26 C23 1_555 1_555
H20 C26 1_555 1_555
C27 C26 1_555 1_555
H21 C27 1_555 1_555
C28 C27 1_555 1_555
H22 C28 1_555 1_555
C29 C24 1_555 1_555
H23 C29 1_555 1_555
C30 C22 1_555 1_555
C31 C30 1_555 1_555
H24 C31 1_555 1_555
C32 C31 1_555 1_555
C33 C32 1_555 1_555
H25 C33 1_555 1_555
C34 C33 1_555 1_555
H26 C34 1_555 1_555
C35 C30 1_555 1_555
H27 C35 1_555 1_555
C36 N3 1_555 1_555
C37 H28 1_555 1_555
H29 C37 1_555 1_555
H30 C37 1_555 1_555
C38 H31 1_555 1_555
H32 C38 1_555 1_555
H33 C38 1_555 1_555
N3 C20 1_555 1_555
H34 N3 1_555 1_555
N4 C36 1_555 1_555
O2 C36 1_555 1_555
Cl2 C32 1_555 1_555
C5 C6 1_555 1_555
C9 C10 1_555 1_555
C15 C16 1_555 1_555
C18 N2 1_555 1_555
C19 N2 1_555 1_555
C24 C25 1_555 1_555
C28 C29 1_555 1_555
C34 C35 1_555 1_555
C37 N4 1_555 1_555
C38 N4 1_555 1_555

#END
