
#######################################################################
#
#                 Cambridge Crystallographic Data Centre
#                                CCDC 
#
#######################################################################
#
# If this CIF has been generated from an entry in the Cambridge 
# Structural Database, then it will include bibliographic, chemical, 
# crystal, experimental, refinement or atomic coordinate data resulting 
# from the CCDC's data processing and validation procedures.
#
#######################################################################

data_BUZZON
_chemical_formula_moiety         'C33 H28 N2 O6 Si1'
_chemical_name_systematic        
'(R)-(+)-5-(Dimethyl(phenyl)silyl)-5-(9H-fluoren-2-yl)penta-3,4-dien-1-yl 3,5-dinitrobenzoate'
_symmetry_cell_setting           orthorhombic
_symmetry_space_group_name_H-M   'P 21 21 21'
_symmetry_Int_Tables_number      19
_space_group_name_Hall           'P 2ac 2ab'
loop_
_symmetry_equiv_pos_site_id
_symmetry_equiv_pos_as_xyz
1 x,y,z
2 1/2-x,-y,1/2+z
3 1/2+x,1/2-y,-z
4 -x,1/2+y,1/2-z
_cell_length_a                   8.96330(10)
_cell_length_b                   13.5332(2)
_cell_length_c                   24.6569(3)
_cell_angle_alpha                90
_cell_angle_beta                 90
_cell_angle_gamma                90
_cell_volume                     2990.93
_exptl_crystal_colour            yellow
_exptl_crystal_description       block
_cell_formula_units_Z            4
loop_
_atom_site_label
_atom_site_type_symbol
_atom_site_fract_x
_atom_site_fract_y
_atom_site_fract_z
Si1 Si 0.87830(10) 0.53438(7) -0.07439(4)
O1 O 1.1913(3) 0.5084(2) 0.08844(10)
C1 C 0.8713(5) 0.3463(3) 0.21057(14)
O2 O 0.7346(6) 0.2573(3) 0.27248(16)
O3 O 1.1464(5) 0.3480(3) 0.07238(14)
C2 C 1.0298(4) 0.6330(3) 0.00564(13)
N1 N 0.7937(5) 0.2556(3) 0.22877(16)
C3 C 0.5111(4) 0.4818(3) 0.17098(13)
C4 C 1.0331(4) 0.4268(3) 0.14808(14)
C5 C 0.9086(4) 0.5800(2) -0.00262(12)
O4 O 0.9289(5) 0.6848(3) 0.22523(17)
C6 C 0.7465(4) 0.4649(3) 0.05016(14)
H1 H 0.7703 0.4148 0.0259
C7 C 0.4897(4) 0.3807(3) 0.16044(14)
C8 C 1.0066(4) 0.5154(3) 0.17475(14)
H2 H 1.0517 0.5736 0.1632
C9 C 0.8048(3) 0.5585(2) 0.04336(12)
C10 C 1.1541(4) 0.6778(3) 0.01425(14)
H3 H 1.1559 0.7463 0.0120
O5 O 0.7936(6) 0.1862(2) 0.19824(16)
C11 C 0.6694(4) 0.6155(2) 0.12283(13)
H4 H 0.6436 0.6659 0.1467
O6 O 0.7968(6) 0.6076(3) 0.28529(16)
C12 C 0.7658(4) 0.6331(3) 0.07985(13)
H5 H 0.8054 0.6961 0.0752
C13 C 0.9636(5) 0.3417(3) 0.16617(14)
H6 H 0.9793 0.2819 0.1484
N2 N 0.8776(5) 0.6095(3) 0.24583(16)
C14 C 0.6133(4) 0.5226(2) 0.12923(12)
C15 C 0.9114(4) 0.5149(2) 0.21895(13)
C16 C 0.8436(4) 0.4321(3) 0.23828(13)
H7 H 0.7820 0.4337 0.2686
C17 C 1.2787(5) 0.5176(4) 0.03888(16)
H8 H 1.2270 0.4862 0.0089
H9 H 1.3750 0.4859 0.0433
C18 C 0.6505(4) 0.4462(2) 0.09414(14)
C19 C 0.6727(4) 0.5287(3) -0.08958(13)
C20 C 1.1305(5) 0.4213(3) 0.09890(15)
C21 C 0.4394(5) 0.5258(3) 0.21430(16)
H10 H 0.4522 0.5928 0.2213
C22 C 0.5744(5) 0.3519(3) 0.11009(16)
C23 C 0.9696(5) 0.6253(4) -0.12063(16)
H11 H 0.9136 0.6857 -0.1207
H12 H 0.9730 0.5988 -0.1567
H13 H 1.0693 0.6381 -0.1083
C24 C 1.2984(5) 0.6243(4) 0.02797(17)
H14 H 1.3676 0.6322 -0.0020
H15 H 1.3426 0.6552 0.0596
C25 C 0.3995(5) 0.3261(4) 0.19318(18)
H16 H 0.3842 0.2593 0.1862
C26 C 0.5982(5) 0.6076(4) -0.11161(16)
H17 H 0.6501 0.6662 -0.1173
C27 C 0.5914(5) 0.4431(4) -0.08094(18)
H18 H 0.6384 0.3879 -0.0663
C28 C 0.3486(5) 0.4692(4) 0.24687(17)
H19 H 0.2990 0.4982 0.2759
C29 C 0.3310(6) 0.3707(4) 0.2368(2)
H20 H 0.2716 0.3330 0.2598
C30 C 0.4487(6) 0.6034(6) -0.1257(2)
H21 H 0.4013 0.6576 -0.1412
C31 C 0.4414(6) 0.4385(6) -0.0938(2)
H22 H 0.3878 0.3810 -0.0869
C32 C 0.9600(5) 0.4094(4) -0.0827(3)
H23 H 1.0575 0.4079 -0.0666
H24 H 0.9674 0.3939 -0.1206
H25 H 0.8972 0.3616 -0.0651
C33 C 0.3726(6) 0.5173(7) -0.1163(2)
H26 H 0.2721 0.5131 -0.1255
H27? H 0.5785 0.2906 0.0931
loop_
_geom_bond_atom_site_label_1
_geom_bond_atom_site_label_2
_geom_bond_site_symmetry_1
_geom_bond_site_symmetry_2
Si1 C5 1_555 1_555
O1 C17 1_555 1_555
C1 N1 1_555 1_555
O2 N1 1_555 1_555
O3 C20 1_555 1_555
C2 C5 1_555 1_555
N1 O5 1_555 1_555
C3 C7 1_555 1_555
C4 C8 1_555 1_555
C5 C9 1_555 1_555
O4 N2 1_555 1_555
C6 H1 1_555 1_555
C7 C22 1_555 1_555
C8 H2 1_555 1_555
C9 C6 1_555 1_555
C10 C2 1_555 1_555
H3 C10 1_555 1_555
C11 H4 1_555 1_555
O6 N2 1_555 1_555
C12 C9 1_555 1_555
H5 C12 1_555 1_555
C13 C1 1_555 1_555
H6 C13 1_555 1_555
N2 C15 1_555 1_555
C14 C3 1_555 1_555
C15 C8 1_555 1_555
C16 C1 1_555 1_555
H7 C16 1_555 1_555
C17 H8 1_555 1_555
H9 C17 1_555 1_555
C18 C6 1_555 1_555
C19 Si1 1_555 1_555
C20 O1 1_555 1_555
C21 C3 1_555 1_555
H10 C21 1_555 1_555
C22 C18 1_555 1_555
C23 Si1 1_555 1_555
H11 C23 1_555 1_555
H12 C23 1_555 1_555
H13 C23 1_555 1_555
C24 C10 1_555 1_555
H14 C24 1_555 1_555
H15 C24 1_555 1_555
C25 C7 1_555 1_555
H16 C25 1_555 1_555
C26 C19 1_555 1_555
H17 C26 1_555 1_555
C27 C19 1_555 1_555
H18 C27 1_555 1_555
C28 C21 1_555 1_555
H19 C28 1_555 1_555
C29 C25 1_555 1_555
H20 C29 1_555 1_555
C30 C26 1_555 1_555
H21 C30 1_555 1_555
C31 C27 1_555 1_555
H22 C31 1_555 1_555
C32 Si1 1_555 1_555
H23 C32 1_555 1_555
H24 C32 1_555 1_555
H25 C32 1_555 1_555
C33 C30 1_555 1_555
H26 C33 1_555 1_555
C4 C13 1_555 1_555
C4 C20 1_555 1_555
C11 C12 1_555 1_555
C11 C14 1_555 1_555
C14 C18 1_555 1_555
C15 C16 1_555 1_555
C17 C24 1_555 1_555
C28 C29 1_555 1_555
C31 C33 1_555 1_555

#END
