
#######################################################################
#
#                 Cambridge Crystallographic Data Centre
#                                CCDC 
#
#######################################################################
#
# If this CIF has been generated from an entry in the Cambridge 
# Structural Database, then it will include bibliographic, chemical, 
# crystal, experimental, refinement or atomic coordinate data resulting 
# from the CCDC's data processing and validation procedures.
#
#######################################################################

data_BZANIL02
_chemical_formula_moiety         'C13 H11 N1 O1'
_chemical_name_systematic        N-phenylbenzamide
_symmetry_cell_setting           triclinic
_symmetry_space_group_name_H-M   'P -1'
_symmetry_Int_Tables_number      2
_space_group_name_Hall           '-P 1'
loop_
_symmetry_equiv_pos_site_id
_symmetry_equiv_pos_as_xyz
1 x,y,z
2 -x,-y,-z
_cell_length_a                   5.352(6)
_cell_length_b                   7.971(8)
_cell_length_c                   12.471(13)
_cell_angle_alpha                73.23(2)
_cell_angle_beta                 79.202(19)
_cell_angle_gamma                89.85(2)
_cell_volume                     499.628
_exptl_crystal_colour            colorless
_exptl_crystal_description       prismatic
_cell_formula_units_Z            2
loop_
_atom_site_label
_atom_site_type_symbol
_atom_site_fract_x
_atom_site_fract_y
_atom_site_fract_z
N1 N 0.3127(4) 0.2518(3) 0.46428(19)
O1 O -0.1191(3) 0.2439(3) 0.50066(15)
C1 C 0.0833(5) 0.2459(4) 0.5335(2)
C2 C 0.0942(5) 0.2387(3) 0.65440(19)
C3 C -0.1088(5) 0.1521(3) 0.7387(2)
H1 H -0.2402 0.0977 0.7194
C4 C -0.1170(5) 0.1462(4) 0.8508(2)
H2 H -0.2534 0.0865 0.9067
C5 C 0.0731(5) 0.2272(4) 0.8813(2)
H3 H 0.0649 0.2229 0.9572
C6 C 0.2769(5) 0.3154(4) 0.7983(2)
H4 H 0.4055 0.3715 0.8182
C7 C 0.2886(5) 0.3196(3) 0.6856(2)
H5 H 0.4273 0.3770 0.6301
C8 C 0.3526(5) 0.2580(3) 0.34684(19)
C9 C 0.5661(5) 0.1828(4) 0.3051(2)
H6 H 0.6712 0.1253 0.3540
C10 C 0.6251(5) 0.1920(4) 0.1911(2)
H7 H 0.7696 0.1403 0.1639
C11 C 0.4724(5) 0.2770(4) 0.1171(2)
H8 H 0.5137 0.2827 0.0402
C12 C 0.2589(5) 0.3531(3) 0.1576(2)
H9 H 0.1554 0.4105 0.1078
C13 C 0.1963(5) 0.3450(3) 0.27228(19)
H10 H 0.0517 0.3970 0.2993
H11 H 0.428(6) 0.246(5) 0.505(3)
loop_
_geom_bond_atom_site_label_1
_geom_bond_atom_site_label_2
_geom_bond_site_symmetry_1
_geom_bond_site_symmetry_2
N1 C1 1_555 1_555
O1 C1 1_555 1_555
C1 C2 1_555 1_555
C2 C3 1_555 1_555
C3 H1 1_555 1_555
C4 C3 1_555 1_555
H2 C4 1_555 1_555
C5 C4 1_555 1_555
H3 C5 1_555 1_555
C6 C5 1_555 1_555
H4 C6 1_555 1_555
C7 C2 1_555 1_555
H5 C7 1_555 1_555
C8 N1 1_555 1_555
C9 C8 1_555 1_555
H6 C9 1_555 1_555
C10 C9 1_555 1_555
H7 C10 1_555 1_555
C11 C10 1_555 1_555
H8 C11 1_555 1_555
C12 C11 1_555 1_555
H9 C12 1_555 1_555
C13 C8 1_555 1_555
H10 C13 1_555 1_555
H11 N1 1_555 1_555
C6 C7 1_555 1_555
C12 C13 1_555 1_555

#END
