
#######################################################################
#
#                 Cambridge Crystallographic Data Centre
#                                CCDC 
#
#######################################################################
#
# If this CIF has been generated from an entry in the Cambridge 
# Structural Database, then it will include bibliographic, chemical, 
# crystal, experimental, refinement or atomic coordinate data resulting 
# from the CCDC's data processing and validation procedures.
#
#######################################################################

data_BZFLRN01
_chemical_formula_moiety         'C17 H10 O1'
_chemical_name_systematic        11H-Benzo[b]fluoren-11-one
_symmetry_cell_setting           monoclinic
_symmetry_space_group_name_H-M   'P 21/c'
_symmetry_Int_Tables_number      14
_space_group_name_Hall           '-P 2ybc'
loop_
_symmetry_equiv_pos_site_id
_symmetry_equiv_pos_as_xyz
1 x,y,z
2 -x,1/2+y,1/2-z
3 -x,-y,-z
4 x,1/2-y,1/2+z
_cell_length_a                   11.899(3)
_cell_length_b                   6.1305(15)
_cell_length_c                   16.461(5)
_cell_angle_alpha                90
_cell_angle_beta                 108.167(4)
_cell_angle_gamma                90
_cell_volume                     1140.92
_cell_formula_units_Z            4
loop_
_atom_site_label
_atom_site_type_symbol
_atom_site_fract_x
_atom_site_fract_y
_atom_site_fract_z
C1 C 0.23052(15) 0.1356(3) -0.02357(11)
H1 H 0.2243 0.2658 -0.0537
C2 C 0.13447(17) 0.0018(4) -0.03841(11)
H2 H 0.0629 0.0424 -0.0779
C3 C 0.14304(17) -0.1949(3) 0.00529(13)
H3 H 0.0772 -0.2853 -0.0057
C4 C 0.24714(16) -0.2571(3) 0.06422(11)
H4 H 0.2512 -0.3888 0.0930
C5 C 0.34837(14) -0.1234(3) 0.08183(10)
C6 C 0.33955(14) 0.0775(3) 0.03739(10)
C7 C 0.44017(15) 0.2148(3) 0.05449(10)
H5 H 0.4361 0.3463 0.0256
C8 C 0.54280(14) 0.1513(3) 0.11390(9)
C9 C 0.55199(14) -0.0500(2) 0.15874(9)
C10 C 0.45704(15) -0.1845(3) 0.14320(10)
H6 H 0.4631 -0.3158 0.1725
C11 C 0.65976(15) 0.2614(3) 0.14196(10)
C12 C 0.73823(15) 0.1144(3) 0.20799(10)
C13 C 0.67430(14) -0.0697(3) 0.21676(10)
C14 C 0.72929(17) -0.2323(3) 0.27383(11)
H7 H 0.6875 -0.3550 0.2810
C15 C 0.84736(19) -0.2084(4) 0.31975(13)
H8 H 0.8852 -0.3166 0.3581
C16 C 0.91061(17) -0.0254(4) 0.30966(12)
H9 H 0.9904 -0.0136 0.3406
C17 C 0.85614(16) 0.1384(3) 0.25430(12)
H10 H 0.8978 0.2625 0.2482
O1 O 0.68634(11) 0.4331(2) 0.11660(8)
loop_
_geom_bond_atom_site_label_1
_geom_bond_atom_site_label_2
_geom_bond_site_symmetry_1
_geom_bond_site_symmetry_2
C1 H1 1_555 1_555
C2 C1 1_555 1_555
H2 C2 1_555 1_555
C3 C2 1_555 1_555
H3 C3 1_555 1_555
C4 C3 1_555 1_555
H4 C4 1_555 1_555
C5 C4 1_555 1_555
C6 C1 1_555 1_555
C7 C6 1_555 1_555
H5 C7 1_555 1_555
C8 C7 1_555 1_555
C9 C8 1_555 1_555
C10 C5 1_555 1_555
H6 C10 1_555 1_555
C11 C8 1_555 1_555
C12 C11 1_555 1_555
C13 C9 1_555 1_555
C14 C13 1_555 1_555
H7 C14 1_555 1_555
C15 C14 1_555 1_555
H8 C15 1_555 1_555
C16 C15 1_555 1_555
H9 C16 1_555 1_555
C17 C12 1_555 1_555
H10 C17 1_555 1_555
O1 C11 1_555 1_555
C5 C6 1_555 1_555
C9 C10 1_555 1_555
C12 C13 1_555 1_555
C16 C17 1_555 1_555

#END
