
#######################################################################
#
#                 Cambridge Crystallographic Data Centre
#                                CCDC 
#
#######################################################################
#
# If this CIF has been generated from an entry in the Cambridge 
# Structural Database, then it will include bibliographic, chemical, 
# crystal, experimental, refinement or atomic coordinate data resulting 
# from the CCDC's data processing and validation procedures.
#
#######################################################################

data_BZOYAC10
_chemical_formula_moiety         'C10 H10 O2'
_chemical_name_systematic        4-Hydroxy-4-phenylbut-3-en-2-one
_symmetry_cell_setting           monoclinic
_symmetry_space_group_name_H-M   'P 21/n'
_symmetry_Int_Tables_number      14
_space_group_name_Hall           '-P 2yn'
loop_
_symmetry_equiv_pos_site_id
_symmetry_equiv_pos_as_xyz
1 x,y,z
2 1/2-x,1/2+y,1/2-z
3 -x,-y,-z
4 1/2+x,1/2-y,1/2+z
_cell_length_a                   8.2436(8)
_cell_length_b                   5.6026(6)
_cell_length_c                   18.4028(18)
_cell_angle_alpha                90
_cell_angle_beta                 92.757(5)
_cell_angle_gamma                90
_cell_volume                     848.96
_exptl_crystal_colour            colorless
_cell_formula_units_Z            4
loop_
_atom_site_label
_atom_site_type_symbol
_atom_site_fract_x
_atom_site_fract_y
_atom_site_fract_z
C1 C 0.5560(3) 0.3320(4) 0.67721(15)
C2 C 0.4584(4) 0.1474(5) 0.70137(16)
H1 H 0.4283 0.0235 0.6699
C3 C 0.4067(4) 0.1470(6) 0.77106(17)
H2 H 0.3419 0.0228 0.7865
C4 C 0.4500(4) 0.3298(5) 0.81861(17)
H3 H 0.4140 0.3290 0.8657
C5 C 0.5459(4) 0.5117(6) 0.79602(16)
H4 H 0.5756 0.6341 0.8281
C6 C 0.5995(4) 0.5155(5) 0.72568(15)
H5 H 0.6644 0.6404 0.7108
C7 C 0.6111(3) 0.3309(5) 0.60226(15)
C8 C 0.6948(4) 0.5157(6) 0.57215(16)
H6 H 0.7188 0.6511 0.5999
C9 C 0.7450(4) 0.5038(6) 0.50002(18)
C10 C 0.8334(4) 0.7042(7) 0.46638(19)
H7 H 0.9210 0.6416 0.4396
H8 H 0.8761 0.8092 0.5038
H9 H 0.7600 0.7909 0.4340
O1 O 0.5747(3) 0.1429(4) 0.56339(12)
H10 H 0.5715 0.0258 0.5900
O2 O 0.7145(3) 0.3212(4) 0.45991(13)
loop_
_geom_bond_atom_site_label_1
_geom_bond_atom_site_label_2
_geom_bond_site_symmetry_1
_geom_bond_site_symmetry_2
C1 C2 1_555 1_555
C2 H1 1_555 1_555
C3 C2 1_555 1_555
H2 C3 1_555 1_555
C4 C3 1_555 1_555
H3 C4 1_555 1_555
C5 C4 1_555 1_555
H4 C5 1_555 1_555
C6 C1 1_555 1_555
H5 C6 1_555 1_555
C7 C1 1_555 1_555
C8 C7 1_555 1_555
H6 C8 1_555 1_555
C9 C8 1_555 1_555
C10 C9 1_555 1_555
H7 C10 1_555 1_555
H8 C10 1_555 1_555
H9 C10 1_555 1_555
O1 C7 1_555 1_555
H10 O1 1_555 1_555
O2 C9 1_555 1_555
C5 C6 1_555 1_555

#END
