
#######################################################################
#
#                 Cambridge Crystallographic Data Centre
#                                CCDC 
#
#######################################################################
#
# If this CIF has been generated from an entry in the Cambridge 
# Structural Database, then it will include bibliographic, chemical, 
# crystal, experimental, refinement or atomic coordinate data resulting 
# from the CCDC's data processing and validation procedures.
#
#######################################################################

data_BZOYEY01
_chemical_formula_moiety         'C16 H12 O2'
_chemical_name_systematic        1,4-Diphenylbut-2-ene-1,4-dione
_symmetry_cell_setting           monoclinic
_symmetry_space_group_name_H-M   'P 21/c'
_symmetry_Int_Tables_number      14
_space_group_name_Hall           '-P 2ybc'
loop_
_symmetry_equiv_pos_site_id
_symmetry_equiv_pos_as_xyz
1 x,y,z
2 -x,1/2+y,1/2-z
3 -x,-y,-z
4 x,1/2-y,1/2+z
_cell_length_a                   9.050(5)
_cell_length_b                   5.026(5)
_cell_length_c                   13.142(5)
_cell_angle_alpha                90
_cell_angle_beta                 93.712(5)
_cell_angle_gamma                90
_cell_volume                     596.514
_cell_formula_units_Z            2
loop_
_atom_site_label
_atom_site_type_symbol
_atom_site_fract_x
_atom_site_fract_y
_atom_site_fract_z
O1 O 0.66630(15) 0.3102(3) -0.08731(9)
C1 C 0.72030(15) 0.4549(3) 0.08083(11)
C2 C 0.67862(17) 0.4674(3) 0.18032(12)
H1 H 0.6065 0.3523 0.2018
C3 C 0.54461(16) 0.0645(3) 0.03319(12)
H2 H 0.5438 0.0199 0.1018
C4 C 0.74399(19) 0.6507(4) 0.24783(13)
H3 H 0.7142 0.6601 0.3141
C5 C 0.64607(16) 0.2775(3) 0.00273(12)
C6 C 0.83177(16) 0.6248(3) 0.05141(12)
H4 H 0.8617 0.6179 -0.0149
C7 C 0.8525(2) 0.8186(3) 0.21752(14)
H5 H 0.8952 0.9427 0.2630
C8 C 0.89795(18) 0.8029(4) 0.12002(14)
H6 H 0.9736 0.9128 0.1002
O1B O 0.33370(15) -0.3102(3) 0.08731(9)
C1B C 0.27970(15) -0.4549(3) -0.08083(11)
C2B C 0.32138(17) -0.4674(3) -0.18032(12)
H1B H 0.3935 -0.3523 -0.2018
C3B C 0.45539(16) -0.0645(3) -0.03319(12)
H2B H 0.4562 -0.0199 -0.1018
C4B C 0.25601(19) -0.6507(4) -0.24783(13)
H3B H 0.2858 -0.6601 -0.3141
C5B C 0.35393(16) -0.2775(3) -0.00273(12)
C6B C 0.16823(16) -0.6248(3) -0.05141(12)
H4B H 0.1383 -0.6179 0.0149
C7B C 0.1475(2) -0.8186(3) -0.21752(14)
H5B H 0.1048 -0.9427 -0.2630
C8B C 0.10205(18) -0.8029(4) -0.12002(14)
H6B H 0.0264 -0.9128 -0.1002
loop_
_geom_bond_atom_site_label_1
_geom_bond_atom_site_label_2
_geom_bond_site_symmetry_1
_geom_bond_site_symmetry_2
O1 C5 1_555 1_555
C1 C2 1_555 1_555
C2 H1 1_555 1_555
C3 H2 1_555 1_555
C4 C2 1_555 1_555
H3 C4 1_555 1_555
C5 C1 1_555 1_555
C6 C1 1_555 1_555
H4 C6 1_555 1_555
C7 C4 1_555 1_555
H5 C7 1_555 1_555
C8 C6 1_555 1_555
H6 C8 1_555 1_555
O1B C5B 1_555 1_555
C1B C2B 1_555 1_555
C2B H1B 1_555 1_555
C3B C3 1_555 1_555
H2B C3B 1_555 1_555
C4B C2B 1_555 1_555
H3B C4B 1_555 1_555
C5B C1B 1_555 1_555
C6B C1B 1_555 1_555
H4B C6B 1_555 1_555
C7B C4B 1_555 1_555
H5B C7B 1_555 1_555
C8B C6B 1_555 1_555
H6B C8B 1_555 1_555
C3 C5 1_555 1_555
C7 C8 1_555 1_555
C3B C5B 1_555 1_555
C7B C8B 1_555 1_555

#END
