
#######################################################################
#
#                 Cambridge Crystallographic Data Centre
#                                CCDC 
#
#######################################################################
#
# If this CIF has been generated from an entry in the Cambridge 
# Structural Database, then it will include bibliographic, chemical, 
# crystal, experimental, refinement or atomic coordinate data resulting 
# from the CCDC's data processing and validation procedures.
#
#######################################################################

data_CABBEP
_chemical_formula_moiety         'C16 H13 N1 O4 S1'
_chemical_name_systematic        
(4-hydroxy-1-methyl-2,2-dioxido-1H-2,1-benzothiazin-3-yl)(phenyl)methanone
_chemical_properties_biological  'herbicidal activity'
_symmetry_cell_setting           monoclinic
_symmetry_space_group_name_H-M   'P 21/c'
_symmetry_Int_Tables_number      14
_space_group_name_Hall           '-P 2ybc'
loop_
_symmetry_equiv_pos_site_id
_symmetry_equiv_pos_as_xyz
1 x,y,z
2 -x,1/2+y,1/2-z
3 -x,-y,-z
4 x,1/2-y,1/2+z
_cell_length_a                   8.1925(16)
_cell_length_b                   19.324(4)
_cell_length_c                   8.8331(17)
_cell_angle_alpha                90
_cell_angle_beta                 104.492(2)
_cell_angle_gamma                90
_cell_volume                     1353.89
_exptl_crystal_colour            colorless
_exptl_crystal_description       Prism
_cell_formula_units_Z            4
loop_
_atom_site_label
_atom_site_type_symbol
_atom_site_fract_x
_atom_site_fract_y
_atom_site_fract_z
S1 S 0.42608(3) 0.364227(11) 0.76250(2)
O1 O 0.52261(9) 0.30160(4) 0.78173(8)
O2 O 0.28213(9) 0.36648(4) 0.82789(9)
O3 O 0.55094(9) 0.55899(3) 0.81425(8)
H1 H 0.6326 0.5511 0.8913
O4 O 0.77182(9) 0.49452(4) 0.99484(8)
N1 N 0.36746(11) 0.38010(4) 0.57387(9)
C1 C 0.28984(11) 0.44402(5) 0.52738(10)
C2 C 0.16366(12) 0.44937(5) 0.38796(11)
H2 H 0.1276 0.4093 0.3263
C3 C 0.09128(12) 0.51306(6) 0.33980(11)
H3 H 0.0042 0.5162 0.2460
C4 C 0.14485(12) 0.57268(5) 0.42752(12)
H4 H 0.0956 0.6162 0.3929
C5 C 0.27002(12) 0.56801(5) 0.56506(11)
H5 H 0.3068 0.6086 0.6245
C6 C 0.34347(11) 0.50383(5) 0.61795(10)
C7 C 0.48226(11) 0.50075(5) 0.75796(10)
C8 C 0.54767(11) 0.43722(4) 0.82775(10)
C9 C 0.70182(11) 0.43684(4) 0.94689(10)
C10 C 0.79637(11) 0.37401(5) 1.01662(10)
C11 C 0.72917(12) 0.32430(5) 1.09850(11)
H6 H 0.6153 0.3276 1.1046
C12 C 0.83018(13) 0.26983(5) 1.17127(12)
H7 H 0.7860 0.2367 1.2298
C13 C 0.99570(12) 0.26374(5) 1.15864(12)
H8 H 1.0635 0.2261 1.2070
C14 C 1.06163(12) 0.31281(5) 1.07518(11)
H9 H 1.1738 0.3082 1.0650
C15 C 0.96362(12) 0.36863(5) 1.00658(11)
H10 H 1.0101 0.4031 0.9530
C16 C 0.35809(16) 0.32307(5) 0.46262(12)
H11 H 0.2478 0.3005 0.4448
H12 H 0.4471 0.2893 0.5052
H13 H 0.3732 0.3412 0.3634
loop_
_geom_bond_atom_site_label_1
_geom_bond_atom_site_label_2
_geom_bond_site_symmetry_1
_geom_bond_site_symmetry_2
S1 O1 1_555 1_555
O2 S1 1_555 1_555
O3 H1 1_555 1_555
O4 C9 1_555 1_555
N1 S1 1_555 1_555
C1 N1 1_555 1_555
C2 C1 1_555 1_555
H2 C2 1_555 1_555
C3 C2 1_555 1_555
H3 C3 1_555 1_555
C4 C3 1_555 1_555
H4 C4 1_555 1_555
C5 C4 1_555 1_555
H5 C5 1_555 1_555
C6 C1 1_555 1_555
C7 O3 1_555 1_555
C8 S1 1_555 1_555
C9 C8 1_555 1_555
C10 C9 1_555 1_555
C11 C10 1_555 1_555
H6 C11 1_555 1_555
C12 C11 1_555 1_555
H7 C12 1_555 1_555
C13 C12 1_555 1_555
H8 C13 1_555 1_555
C14 C13 1_555 1_555
H9 C14 1_555 1_555
C15 C10 1_555 1_555
H10 C15 1_555 1_555
C16 N1 1_555 1_555
H11 C16 1_555 1_555
H12 C16 1_555 1_555
H13 C16 1_555 1_555
C5 C6 1_555 1_555
C6 C7 1_555 1_555
C7 C8 1_555 1_555
C14 C15 1_555 1_555

#END
