
#######################################################################
#
#                 Cambridge Crystallographic Data Centre
#                                CCDC 
#
#######################################################################
#
# If this CIF has been generated from an entry in the Cambridge 
# Structural Database, then it will include bibliographic, chemical, 
# crystal, experimental, refinement or atomic coordinate data resulting 
# from the CCDC's data processing and validation procedures.
#
#######################################################################

data_CABCIR
_chemical_name_common            Thiamphenicol
_chemical_formula_moiety         'C12 H15 Cl2 N1 O5 S1'
_chemical_name_systematic        
2,2-Dichloro-N-(2-hydroxy-1-(hydroxymethyl)-2-(4-(methylsulfonyl)phenyl)ethyl)-acetamide
_symmetry_cell_setting           orthorhombic
_symmetry_space_group_name_H-M   'P 21 21 21'
_symmetry_Int_Tables_number      19
_space_group_name_Hall           'P 2ac 2ab'
loop_
_symmetry_equiv_pos_site_id
_symmetry_equiv_pos_as_xyz
1 x,y,z
2 1/2+x,1/2-y,-z
3 -x,1/2+y,1/2-z
4 1/2-x,-y,1/2+z
_cell_length_a                   5.779(1)
_cell_length_b                   15.292(2)
_cell_length_c                   17.322(1)
_cell_angle_alpha                90
_cell_angle_beta                 90
_cell_angle_gamma                90
_cell_volume                     1530.79
_cell_formula_units_Z            4
loop_
_atom_site_label
_atom_site_type_symbol
_atom_site_fract_x
_atom_site_fract_y
_atom_site_fract_z
S1 S 0.36350 0.77760 0.35400
C1 C 0.31770 0.66430 0.34250
C2 C 0.11800 0.63550 0.30520
C3 C 0.08160 0.54500 0.29940
C4 C 0.23950 0.48670 0.33190
C5 C 0.43750 0.51750 0.36930
C6 C 0.47720 0.60810 0.37510
C7 C 0.18640 0.39000 0.33030
C8 C 0.00580 0.36970 0.39510
C9 C -0.06330 0.27280 0.39450
C10 C 0.02210 0.46680 0.50620
C11 C 0.11430 0.48190 0.58730
C12 C 0.16540 0.80950 0.42730
N1 N 0.09240 0.39420 0.47150
O1 O 0.59650 0.79090 0.38300
O2 O 0.29940 0.82140 0.28260
O3 O 0.38620 0.33680 0.34390
O4 O -0.25100 0.25880 0.44640
O5 O -0.10840 0.52110 0.48130
Cl1 Cl -0.03650 0.41040 0.65410
Cl2 Cl 0.41600 0.46270 0.59560
H1 H 0.00400 0.67800 0.28300
H2 H 0.55100 0.47500 0.39200
H3 H 0.12600 0.37600 0.27800
H4 H 0.07100 0.23600 0.41100
H5 H 0.08700 0.54500 0.60000
H6 H 0.22600 0.78300 0.48100
H7 H 0.48100 0.34300 0.30600
H8 H 0.20700 0.35500 0.49800
H9 H 0.05800 0.52200 0.27200
H10 H 0.61700 0.63100 0.40200
H11 H -0.12400 0.40500 0.38400
H12 H -0.11000 0.25500 0.34100
H13 H -0.00900 0.78900 0.44100
H14 H -0.34100 0.27500 0.43700
loop_
_geom_bond_atom_site_label_1
_geom_bond_atom_site_label_2
_geom_bond_site_symmetry_1
_geom_bond_site_symmetry_2
S1 C1 1_555 1_555
C1 C2 1_555 1_555
C2 C3 1_555 1_555
C3 C4 1_555 1_555
C4 C5 1_555 1_555
C5 C6 1_555 1_555
C6 C1 1_555 1_555
C7 C4 1_555 1_555
C8 C7 1_555 1_555
C9 C8 1_555 1_555
C10 C11 1_555 1_555
C11 Cl1 1_555 1_555
C12 S1 1_555 1_555
N1 C8 1_555 1_555
O1 S1 1_555 1_555
O2 S1 1_555 1_555
O3 C7 1_555 1_555
O4 C9 1_555 1_555
O5 C10 1_555 1_555
Cl2 C11 1_555 1_555
H1 C2 1_555 1_555
H2 C5 1_555 1_555
H3 C7 1_555 1_555
H4 C9 1_555 1_555
H5 C11 1_555 1_555
H6 C12 1_555 1_555
H7 O3 1_555 1_555
H8 N1 1_555 1_555
H9 C3 1_555 1_555
H10 C6 1_555 1_555
H11 C8 1_555 1_555
H12 C9 1_555 1_555
H13 C12 1_555 1_555
H14 O4 1_555 1_555
C10 N1 1_555 1_555

#END
