
#######################################################################
#
#                 Cambridge Crystallographic Data Centre
#                                CCDC 
#
#######################################################################
#
# If this CIF has been generated from an entry in the Cambridge 
# Structural Database, then it will include bibliographic, chemical, 
# crystal, experimental, refinement or atomic coordinate data resulting 
# from the CCDC's data processing and validation procedures.
#
#######################################################################

data_CABGEU
_chemical_formula_moiety         'C19 H20 O6,C1 H4 O1'
_chemical_name_systematic        
"5-(3-furyl)-2a'-hydroxy-7'-methyl-3',4,4',5,5',7',8',8a'-octahydrospiro[furan-3,6'-naphtho[1,8-bc]furan]-2,2'(2a'H)-dione methanol solvate"
_symmetry_cell_setting           monoclinic
_symmetry_space_group_name_H-M   'P 21'
_symmetry_Int_Tables_number      4
_space_group_name_Hall           'P 2yb'
loop_
_symmetry_equiv_pos_site_id
_symmetry_equiv_pos_as_xyz
1 x,y,z
2 -x,1/2+y,-z
_cell_length_a                   7.76825(7)
_cell_length_b                   12.07112(12)
_cell_length_c                   9.55484(9)
_cell_angle_alpha                90
_cell_angle_beta                 99.5128(9)
_cell_angle_gamma                90
_cell_volume                     883.651
_cell_formula_units_Z            2
loop_
_atom_site_label
_atom_site_type_symbol
_atom_site_fract_x
_atom_site_fract_y
_atom_site_fract_z
O1 O 0.34160(13) 0.47837(9) 0.48712(10)
O2 O -0.05395(11) 0.48331(8) 0.07161(10)
O3 O -0.13667(12) 0.30908(8) 0.01676(10)
O4 O 0.16203(13) 0.37102(9) -0.13559(10)
H1 H 0.2386 0.4131 -0.1529
O5 O 0.62358(12) 0.51421(8) 0.50509(10)
O6 O 1.01386(13) 0.77960(9) 0.60803(12)
C1 C 0.24720(16) 0.46342(11) 0.09493(13)
C2 C 0.46118(17) 0.51324(11) 0.43371(14)
C3 C 0.16826(16) 0.36406(11) 0.01509(13)
C4 C 0.39982(16) 0.46401(11) 0.18281(13)
C5 C 0.12723(17) 0.61502(11) 0.22614(14)
H2 H 0.1009 0.5685 0.3026
H3 H 0.0468 0.6771 0.2154
C6 C -0.02307(16) 0.37784(11) 0.03394(13)
C7 C 0.88687(19) 0.74223(13) 0.50150(17)
H4 H 0.8204 0.7871 0.4341
C8 C 0.10746(15) 0.54953(12) 0.09015(14)
H5 H 0.1079 0.5990 0.0089
C9 C 0.45088(16) 0.56068(11) 0.28376(13)
C10 C 0.99843(18) 0.59610(13) 0.62763(15)
H6 H 1.0201 0.5240 0.6601
C11 C 0.45199(17) 0.27225(12) 0.08855(15)
H7 H 0.5098 0.2031 0.1192
H8 H 0.4810 0.2910 -0.0035
C12 C 0.87218(16) 0.63074(12) 0.50851(14)
C13 C 0.31606(17) 0.65722(10) 0.26081(13)
H9 H 0.3392 0.6995 0.1784
C14 C 1.07933(18) 0.68879(14) 0.68296(14)
H10 H 1.1677 0.6905 0.7615
C15 C 0.63948(16) 0.60315(12) 0.28350(14)
H11 H 0.6824 0.5780 0.1992
H12 H 0.6429 0.6835 0.2860
C16 C 0.74977(16) 0.55457(12) 0.41740(14)
H13 H 0.8161 0.4913 0.3902
C17 C 0.51790(16) 0.36369(11) 0.19507(14)
H14 H 0.5283 0.3340 0.2904
H15 H 0.6333 0.3865 0.1804
C18 C 0.33532(19) 0.73730(13) 0.38661(15)
H16 H 0.2577 0.7989 0.3636
H17 H 0.4535 0.7636 0.4069
H18 H 0.3069 0.6996 0.4683
C19 C 0.25358(17) 0.25736(11) 0.07527(15)
H19 H 0.2149 0.1958 0.0127
H20 H 0.2223 0.2422 0.1676
O7 O 0.40540(14) 0.50255(10) 0.78205(11)
H21 H 0.3899 0.4946 0.6957
C20 C 0.58561(18) 0.48502(13) 0.83838(15)
H22 H 0.6559 0.5356 0.7946
H23 H 0.6173 0.4103 0.8194
H24 H 0.6047 0.4974 0.9390
loop_
_geom_bond_atom_site_label_1
_geom_bond_atom_site_label_2
_geom_bond_site_symmetry_1
_geom_bond_site_symmetry_2
O1 C2 1_555 1_555
O2 C6 1_555 1_555
O3 C6 1_555 1_555
O4 H1 1_555 1_555
O5 C2 1_555 1_555
O6 C7 1_555 1_555
C1 C3 1_555 1_555
C2 C9 1_555 1_555
C3 O4 1_555 1_555
C4 C1 1_555 1_555
C5 H2 1_555 1_555
H3 C5 1_555 1_555
C6 C3 1_555 1_555
C7 H4 1_555 1_555
C8 O2 1_555 1_555
H5 C8 1_555 1_555
C9 C4 1_555 1_555
C10 H6 1_555 1_555
C11 H7 1_555 1_555
H8 C11 1_555 1_555
C12 C7 1_555 1_555
C13 C5 1_555 1_555
H9 C13 1_555 1_555
C14 O6 1_555 1_555
H10 C14 1_555 1_555
C15 C9 1_555 1_555
H11 C15 1_555 1_555
H12 C15 1_555 1_555
C16 O5 1_555 1_555
H13 C16 1_555 1_555
C17 C4 1_555 1_555
H14 C17 1_555 1_555
H15 C17 1_555 1_555
C18 C13 1_555 1_555
H16 C18 1_555 1_555
H17 C18 1_555 1_555
H18 C18 1_555 1_555
C19 C3 1_555 1_555
H19 C19 1_555 1_555
H20 C19 1_555 1_555
O7 H21 1_555 1_555
C20 O7 1_555 1_555
H22 C20 1_555 1_555
H23 C20 1_555 1_555
H24 C20 1_555 1_555
C1 C8 1_555 1_555
C5 C8 1_555 1_555
C9 C13 1_555 1_555
C10 C12 1_555 1_555
C10 C14 1_555 1_555
C11 C17 1_555 1_555
C11 C19 1_555 1_555
C12 C16 1_555 1_555
C15 C16 1_555 1_555

#END
