
#######################################################################
#
#                 Cambridge Crystallographic Data Centre
#                                CCDC 
#
#######################################################################
#
# If this CIF has been generated from an entry in the Cambridge 
# Structural Database, then it will include bibliographic, chemical, 
# crystal, experimental, refinement or atomic coordinate data resulting 
# from the CCDC's data processing and validation procedures.
#
#######################################################################

data_CABKOI
_chemical_name_common            
(12-p-Tolyl-acenaphtho[1,2-b]quinolin-8-yl)-methanol
_chemical_formula_moiety         'C27 H19 N1 O1'
_chemical_name_systematic        
(12-(4-methylphenyl)acenaphtho[1,2-b]quinolin-8-yl)methanol
_symmetry_cell_setting           triclinic
_symmetry_space_group_name_H-M   'P -1'
_symmetry_Int_Tables_number      2
_space_group_name_Hall           '-P 1'
loop_
_symmetry_equiv_pos_site_id
_symmetry_equiv_pos_as_xyz
1 x,y,z
2 -x,-y,-z
_cell_length_a                   9.113(7)
_cell_length_b                   10.352(9)
_cell_length_c                   11.056(7)
_cell_angle_alpha                94.65(3)
_cell_angle_beta                 91.243(10)
_cell_angle_gamma                111.51(3)
_cell_volume                     965.675
_exptl_crystal_colour            yellow
_exptl_crystal_description       plate
_cell_formula_units_Z            2
_exptl_crystal_recrystallization_method methanol/dichloromethane
loop_
_atom_site_label
_atom_site_type_symbol
_atom_site_fract_x
_atom_site_fract_y
_atom_site_fract_z
N1 N 0.62801(13) 0.43428(11) 0.14606(10)
O1 O 0.64908(16) 0.39254(15) 0.39170(10)
H1 H 0.7033 0.4295 0.3367
C1 C 0.41214(17) 0.29625(15) 0.25628(12)
C2 C 0.26763(19) 0.19150(16) 0.25708(14)
H2 H 0.2184 0.1740 0.3301
C3 C 0.19209(17) 0.10996(15) 0.15029(14)
H3 H 0.0932 0.0398 0.1530
C4 C 0.26232(16) 0.13268(14) 0.04253(13)
H4 H 0.2117 0.0766 -0.0275
C5 C 0.48680(14) 0.27014(13) -0.07682(11)
C6 C 0.62474(14) 0.38304(13) -0.07411(11)
C7 C 0.69053(14) 0.46130(13) 0.04098(11)
C8 C 0.48515(15) 0.32457(13) 0.14420(11)
C9 C 0.41085(14) 0.24028(13) 0.03567(11)
C10 C 0.4930(2) 0.38565(19) 0.37018(14)
H5 H 0.4949 0.4793 0.3647
H6 H 0.4319 0.3490 0.4389
C11 C 0.73473(14) 0.44648(13) -0.16783(12)
C12 C 0.74140(17) 0.41948(16) -0.29050(13)
H7 H 0.6611 0.3459 -0.3341
C13 C 0.87270(19) 0.50559(18) -0.34949(15)
H8 H 0.8764 0.4880 -0.4330
C14 C 0.99477(18) 0.61387(18) -0.28873(16)
H9 H 1.0791 0.6678 -0.3311
C15 C 1.11066(17) 0.74661(15) -0.08473(17)
H10 H 1.2005 0.8071 -0.1172
C16 C 1.09344(17) 0.75795(15) 0.03794(17)
H11 H 1.1736 0.8257 0.0869
C17 C 0.95936(16) 0.67124(14) 0.09325(15)
H12 H 0.9507 0.6811 0.1769
C18 C 0.84168(15) 0.57153(13) 0.01950(13)
C19 C 0.99291(16) 0.64376(15) -0.16225(15)
C20 C 0.86081(15) 0.55846(13) -0.10568(13)
C21 C 0.41747(14) 0.17759(13) -0.19052(11)
C22 C 0.32172(18) 0.21009(16) -0.27239(13)
H13 H 0.3012 0.2914 -0.2571
C23 C 0.25663(19) 0.12221(18) -0.37657(14)
H14 H 0.1916 0.1450 -0.4299
C24 C 0.28591(18) 0.00099(15) -0.40349(13)
C25 C 0.38377(19) -0.02871(16) -0.32263(15)
H15 H 0.4069 -0.1085 -0.3393
C26 C 0.44844(17) 0.05748(15) -0.21704(14)
H16 H 0.5131 0.0344 -0.1636
C27 C 0.2150(3) -0.0949(2) -0.51719(17)
H17 H 0.2489 -0.1725 -0.5200
H18 H 0.2490 -0.0448 -0.5872
H19 H 0.1019 -0.1282 -0.5167
loop_
_geom_bond_atom_site_label_1
_geom_bond_atom_site_label_2
_geom_bond_site_symmetry_1
_geom_bond_site_symmetry_2
N1 C7 1_555 1_555
O1 H1 1_555 1_555
C1 C2 1_555 1_555
C2 H2 1_555 1_555
C3 C2 1_555 1_555
H3 C3 1_555 1_555
C4 C3 1_555 1_555
H4 C4 1_555 1_555
C5 C6 1_555 1_555
C6 C7 1_555 1_555
C7 C18 1_555 1_555
C8 N1 1_555 1_555
C9 C4 1_555 1_555
C10 O1 1_555 1_555
H5 C10 1_555 1_555
H6 C10 1_555 1_555
C11 C6 1_555 1_555
C12 C11 1_555 1_555
H7 C12 1_555 1_555
C13 C12 1_555 1_555
H8 C13 1_555 1_555
C14 C13 1_555 1_555
H9 C14 1_555 1_555
C15 H10 1_555 1_555
C16 C15 1_555 1_555
H11 C16 1_555 1_555
C17 C16 1_555 1_555
H12 C17 1_555 1_555
C18 C17 1_555 1_555
C19 C14 1_555 1_555
C20 C11 1_555 1_555
C21 C5 1_555 1_555
C22 C21 1_555 1_555
H13 C22 1_555 1_555
C23 C22 1_555 1_555
H14 C23 1_555 1_555
C24 C23 1_555 1_555
C25 C24 1_555 1_555
H15 C25 1_555 1_555
C26 C21 1_555 1_555
H16 C26 1_555 1_555
C27 C24 1_555 1_555
H17 C27 1_555 1_555
H18 C27 1_555 1_555
H19 C27 1_555 1_555
C1 C8 1_555 1_555
C1 C10 1_555 1_555
C5 C9 1_555 1_555
C8 C9 1_555 1_555
C15 C19 1_555 1_555
C18 C20 1_555 1_555
C19 C20 1_555 1_555
C25 C26 1_555 1_555

#END
