
#######################################################################
#
#                 Cambridge Crystallographic Data Centre
#                                CCDC 
#
#######################################################################
#
# If this CIF has been generated from an entry in the Cambridge 
# Structural Database, then it will include bibliographic, chemical, 
# crystal, experimental, refinement or atomic coordinate data resulting 
# from the CCDC's data processing and validation procedures.
#
#######################################################################

data_CABMEZ
_chemical_formula_moiety         'C15 H15 N3 O3,C1 H4 O1'
_chemical_name_systematic        
"N'-(3-Ethoxy-4-hydroxybenzylidene)isonicotinohydrazide methanol solvate"
_symmetry_cell_setting           monoclinic
_symmetry_space_group_name_H-M   'P 21'
_symmetry_Int_Tables_number      4
_space_group_name_Hall           'P 2yb'
loop_
_symmetry_equiv_pos_site_id
_symmetry_equiv_pos_as_xyz
1 x,y,z
2 -x,1/2+y,-z
_cell_length_a                   11.2785(8)
_cell_length_b                   6.4429(3)
_cell_length_c                   11.8901(8)
_cell_angle_alpha                90
_cell_angle_beta                 109.068(8)
_cell_angle_gamma                90
_cell_volume                     816.602
_exptl_crystal_colour            colorless
_exptl_crystal_description       block
_cell_formula_units_Z            2
_exptl_crystal_recrystallization_method methanol
loop_
_atom_site_label
_atom_site_type_symbol
_atom_site_fract_x
_atom_site_fract_y
_atom_site_fract_z
C1 C 0.5042(2) 0.2431(4) 0.3514(2)
H1 H 0.4823 0.3804 0.3586
N1 N 0.4468(2) 0.1439(3) 0.25569(19)
C2 C 0.6032(2) 0.1471(4) 0.4495(2)
C3 C 0.2759(2) 0.1672(5) 0.0783(2)
C4 C 0.7386(2) 0.1645(4) 0.6522(2)
H2 H 0.7657 0.2342 0.7247
N2 N 0.3598(2) 0.2631(3) 0.16964(18)
H3 H 0.3602 0.3962 0.1753
C5 C 0.7503(3) -0.1270(4) 0.5317(2)
O1 O 0.8844(2) -0.0981(3) 0.73601(17)
C6 C 0.1648(3) 0.5093(4) 0.0070(2)
H4 H 0.2057 0.5714 0.0800
C7 C 0.6563(2) -0.0436(4) 0.4374(2)
H5 H 0.6281 -0.1145 0.3654
N3 N 0.0211(2) 0.5474(4) -0.1904(2)
C8 C 0.1888(3) 0.3058(4) -0.0128(2)
C9 C 0.7958(3) -0.4002(4) 0.4156(2)
H6 H 0.8119 -0.2974 0.3627
H7 H 0.7105 -0.4501 0.3804
O2 O 0.81188(17) -0.3097(3) 0.52955(15)
C10 C 0.6455(2) 0.2505(4) 0.5575(2)
H8 H 0.6112 0.3783 0.5661
O3 O 0.2696(2) -0.0212(3) 0.06840(16)
C11 C 0.7914(2) -0.0224(4) 0.6408(2)
C12 C 0.0452(3) 0.3523(5) -0.2097(3)
H9 H 0.0052 0.2964 -0.2847
C13 C 0.1270(3) 0.2256(4) -0.1242(2)
H10 H 0.1399 0.0886 -0.1420
C14 C 0.0796(3) 0.6202(4) -0.0820(3)
H11 H 0.0619 0.7554 -0.0652
C15 C 0.8868(3) -0.5775(4) 0.4329(3)
H12 H 0.8771 -0.6414 0.3574
H13 H 0.8705 -0.6779 0.4856
H14 H 0.9710 -0.5263 0.4666
H15 H 0.902(3) -0.213(4) 0.727(2)
O4 O 0.4582(2) 0.6766(3) 0.18378(19)
H16 H 0.4110 0.7768 0.1730
C16 C 0.5261(4) 0.6863(7) 0.1060(3)
H17 H 0.5814 0.8039 0.1254
H18 H 0.4696 0.7001 0.0261
H19 H 0.5745 0.5616 0.1125
loop_
_geom_bond_atom_site_label_1
_geom_bond_atom_site_label_2
_geom_bond_site_symmetry_1
_geom_bond_site_symmetry_2
C1 H1 1_555 1_555
N1 C1 1_555 1_555
C2 C1 1_555 1_555
C3 N2 1_555 1_555
C4 H2 1_555 1_555
N2 N1 1_555 1_555
H3 N2 1_555 1_555
C5 C7 1_555 1_555
O1 C11 1_555 1_555
C6 H4 1_555 1_555
C7 C2 1_555 1_555
H5 C7 1_555 1_555
N3 C12 1_555 1_555
C8 C3 1_555 1_555
C9 H6 1_555 1_555
H7 C9 1_555 1_555
O2 C5 1_555 1_555
C10 C2 1_555 1_555
H8 C10 1_555 1_555
O3 C3 1_555 1_555
C11 C4 1_555 1_555
C12 H9 1_555 1_555
C13 C8 1_555 1_555
H10 C13 1_555 1_555
C14 C6 1_555 1_555
H11 C14 1_555 1_555
C15 C9 1_555 1_555
H12 C15 1_555 1_555
H13 C15 1_555 1_555
H14 C15 1_555 1_555
H15 O1 1_555 1_555
O4 H16 1_555 1_555
C16 O4 1_555 1_555
H17 C16 1_555 1_555
H18 C16 1_555 1_555
H19 C16 1_555 1_555
C4 C10 1_555 1_555
C5 C11 1_555 1_555
C6 C8 1_555 1_555
N3 C14 1_555 1_555
C9 O2 1_555 1_555
C12 C13 1_555 1_555

#END
