
#######################################################################
#
#                 Cambridge Crystallographic Data Centre
#                                CCDC 
#
#######################################################################
#
# If this CIF has been generated from an entry in the Cambridge 
# Structural Database, then it will include bibliographic, chemical, 
# crystal, experimental, refinement or atomic coordinate data resulting 
# from the CCDC's data processing and validation procedures.
#
#######################################################################

data_CABMID
_chemical_formula_moiety         'C21 H17 N3 O2'
_chemical_name_systematic        
1-(1,3-Diphenylallylidene)-2-(2-nitrophenyl)hydrazine
_symmetry_cell_setting           triclinic
_symmetry_space_group_name_H-M   'P -1'
_symmetry_Int_Tables_number      2
_space_group_name_Hall           '-P 1'
loop_
_symmetry_equiv_pos_site_id
_symmetry_equiv_pos_as_xyz
1 x,y,z
2 -x,-y,-z
_cell_length_a                   8.1686(13)
_cell_length_b                   9.8684(14)
_cell_length_c                   11.7741(15)
_cell_angle_alpha                93.016(11)
_cell_angle_beta                 93.753(12)
_cell_angle_gamma                110.370(14)
_cell_volume                     884.971
_exptl_crystal_colour            red
_exptl_crystal_description       block
_cell_formula_units_Z            2
_exptl_crystal_recrystallization_method methanol
loop_
_atom_site_label
_atom_site_type_symbol
_atom_site_fract_x
_atom_site_fract_y
_atom_site_fract_z
N1 N -0.00523(15) 0.28701(12) 0.85703(10)
H1 H -0.0239 0.3191 0.7928
N2 N 0.11366(15) 0.21849(12) 0.86928(10)
C1 C -0.09403(18) 0.30406(14) 0.94769(12)
C2 C 0.19166(18) 0.20294(15) 0.77952(13)
N3 N -0.26771(19) 0.42515(14) 0.83878(14)
C3 C -0.22135(18) 0.37024(14) 0.94244(13)
C4 C 0.38746(18) 0.07978(15) 0.71224(13)
H2 H 0.3642 0.1028 0.6388
C5 C 0.50412(18) -0.00393(15) 0.72596(13)
C6 C 0.31251(19) 0.12543(15) 0.79494(13)
H3 H 0.3394 0.1063 0.8690
O1 O -0.20491(17) 0.40508(14) 0.74974(11)
O2 O -0.37074(16) 0.49072(13) 0.84073(11)
C7 C 0.16005(19) 0.25656(16) 0.66735(12)
C8 C -0.1502(2) 0.26734(17) 1.14430(14)
H4 H -0.1255 0.2326 1.2128
C9 C 0.59680(19) -0.00339(15) 0.82896(14)
H5 H 0.5872 0.0530 0.8922
C10 C -0.3086(2) 0.38418(16) 1.03736(16)
H6 H -0.3914 0.4291 1.0322
C11 C -0.06335(19) 0.25269(16) 1.05237(13)
H7 H 0.0188 0.2072 1.0594
C12 C 0.52096(19) -0.09015(16) 0.63360(13)
H8 H 0.4603 -0.0924 0.5635
C13 C 0.6270(2) -0.17302(17) 0.64449(14)
H9 H 0.6368 -0.2306 0.5820
C14 C 0.2747(2) 0.38458(16) 0.63441(13)
H10 H 0.3766 0.4354 0.6809
C15 C -0.2744(2) 0.33300(18) 1.13744(15)
H11 H -0.3337 0.3420 1.2005
C16 C 0.7029(2) -0.08499(18) 0.83931(15)
H12 H 0.7651 -0.0825 0.9089
C17 C 0.2404(2) 0.43835(17) 0.53331(14)
H13 H 0.3187 0.5252 0.5125
C18 C 0.7171(2) -0.16982(18) 0.74719(15)
H14 H 0.7881 -0.2254 0.7546
C19 C 0.0920(3) 0.3647(2) 0.46370(14)
H15 H 0.0679 0.4017 0.3961
C20 C 0.0124(2) 0.18304(18) 0.59563(14)
H16 H -0.0665 0.0960 0.6157
C21 C -0.0201(2) 0.2370(2) 0.49408(14)
H17 H -0.1198 0.1852 0.4460
loop_
_geom_bond_atom_site_label_1
_geom_bond_atom_site_label_2
_geom_bond_site_symmetry_1
_geom_bond_site_symmetry_2
N1 H1 1_555 1_555
N2 N1 1_555 1_555
C1 N1 1_555 1_555
C2 N2 1_555 1_555
N3 C3 1_555 1_555
C3 C1 1_555 1_555
C4 H2 1_555 1_555
C5 C4 1_555 1_555
C6 C2 1_555 1_555
H3 C6 1_555 1_555
O1 N3 1_555 1_555
O2 N3 1_555 1_555
C7 C2 1_555 1_555
C8 H4 1_555 1_555
C9 C5 1_555 1_555
H5 C9 1_555 1_555
C10 C3 1_555 1_555
H6 C10 1_555 1_555
C11 C1 1_555 1_555
H7 C11 1_555 1_555
C12 C5 1_555 1_555
H8 C12 1_555 1_555
C13 C12 1_555 1_555
H9 C13 1_555 1_555
C14 C7 1_555 1_555
H10 C14 1_555 1_555
C15 C8 1_555 1_555
H11 C15 1_555 1_555
C16 C9 1_555 1_555
H12 C16 1_555 1_555
C17 C14 1_555 1_555
H13 C17 1_555 1_555
C18 C13 1_555 1_555
H14 C18 1_555 1_555
C19 C17 1_555 1_555
H15 C19 1_555 1_555
C20 C7 1_555 1_555
H16 C20 1_555 1_555
C21 C19 1_555 1_555
H17 C21 1_555 1_555
C4 C6 1_555 1_555
C8 C11 1_555 1_555
C10 C15 1_555 1_555
C16 C18 1_555 1_555
C20 C21 1_555 1_555

#END
