
#######################################################################
#
#                 Cambridge Crystallographic Data Centre
#                                CCDC 
#
#######################################################################
#
# If this CIF has been generated from an entry in the Cambridge 
# Structural Database, then it will include bibliographic, chemical, 
# crystal, experimental, refinement or atomic coordinate data resulting 
# from the CCDC's data processing and validation procedures.
#
#######################################################################

data_CABQAZ
_chemical_formula_moiety         'C6 H9 Cl2 N3'
_chemical_name_systematic        3,5-bis((R)-1-Chloroethyl)-1H-1,2,4-triazole
_symmetry_cell_setting           monoclinic
_symmetry_space_group_name_H-M   'P 21'
_symmetry_Int_Tables_number      4
_space_group_name_Hall           'P 2yb'
loop_
_symmetry_equiv_pos_site_id
_symmetry_equiv_pos_as_xyz
1 x,y,z
2 -x,1/2+y,-z
_cell_length_a                   9.0178(2)
_cell_length_b                   9.8706(2)
_cell_length_c                   20.1658(5)
_cell_angle_alpha                90
_cell_angle_beta                 91.585(2)
_cell_angle_gamma                90
_cell_volume                     1794.29
_exptl_crystal_colour            colorless
_exptl_crystal_description       block
_chemical_melting_point          '127-128 deg.C'
_cell_formula_units_Z            8
_exptl_crystal_recrystallization_method acetone/hexanes
loop_
_atom_site_label
_atom_site_type_symbol
_atom_site_fract_x
_atom_site_fract_y
_atom_site_fract_z
Cl1 Cl 0.79153(8) 1.16435(7) -0.01501(4)
Cl2 Cl 0.38111(9) 0.81401(9) 0.15378(4)
N1 N 0.7363(2) 0.8052(2) 0.12733(10)
H1 H 0.7229 0.7202 0.1388
N2 N 0.8399(3) 0.8490(2) 0.08432(12)
N3 N 0.7057(2) 1.0242(2) 0.12241(11)
C1 C 0.8168(3) 0.9808(3) 0.08339(13)
C2 C 0.9097(3) 1.0765(3) 0.04506(17)
H2 H 0.9482 1.1463 0.0771
C3 C 1.0396(5) 1.0167(5) 0.0134(3)
H3 H 1.1024 0.9715 0.0471
H4 H 1.0965 1.0883 -0.0079
H5 H 1.0063 0.9505 -0.0200
C4 C 0.6582(3) 0.9098(2) 0.14951(12)
C5 C 0.5348(3) 0.8969(3) 0.19718(13)
H6 H 0.5690 0.8379 0.2349
C6 C 0.4846(4) 1.0313(3) 0.22469(15)
H7 H 0.5684 1.0759 0.2477
H8 H 0.4050 1.0160 0.2560
H9 H 0.4479 1.0890 0.1883
Cl3 Cl 0.39997(10) 0.30700(9) 0.08083(5)
Cl4 Cl 0.90337(9) 0.64505(7) 0.28146(4)
N4 N 0.8270(2) 0.3197(2) 0.18637(11)
N5 N 0.7037(2) 0.3048(2) 0.14685(10)
H10 H 0.6657 0.2265 0.1343
N6 N 0.7334(2) 0.5230(2) 0.15639(11)
C7 C 0.6484(3) 0.4256(2) 0.12976(12)
C8 C 0.5166(3) 0.4528(3) 0.08527(13)
H11 H 0.4590 0.5291 0.1046
C9 C 0.5644(4) 0.4947(4) 0.01565(16)
H12 H 0.6290 0.5744 0.0190
H13 H 0.4764 0.5166 -0.0119
H14 H 0.6184 0.4199 -0.0046
C10 C 0.8410(3) 0.4524(2) 0.19052(12)
C11 C 0.9708(3) 0.5137(3) 0.22769(14)
H15 H 1.0205 0.4420 0.2554
C12 C 1.0829(4) 0.5752(4) 0.18240(18)
H16 H 1.1209 0.5051 0.1530
H17 H 1.1651 0.6136 0.2090
H18 H 1.0355 0.6470 0.1558
Cl5 Cl 1.40411(11) 1.25875(9) 0.50944(4)
Cl6 Cl 0.84071(9) 0.97321(9) 0.33505(5)
N7 N 1.0930(2) 1.2654(2) 0.34021(11)
N8 N 1.2066(2) 1.2780(2) 0.38569(11)
H19 H 1.2420 1.3554 0.4010
N9 N 1.1815(3) 1.0609(2) 0.37155(11)
C13 C 1.2562(3) 1.1561(3) 0.40363(13)
C14 C 1.3786(4) 1.1208(3) 0.45303(16)
H20 H 1.3438 1.0416 0.4793
C15 C 1.5190(4) 1.0783(4) 0.4201(2)
H21 H 1.4974 1.0030 0.3897
H22 H 1.5922 1.0493 0.4540
H23 H 1.5586 1.1549 0.3953
C16 C 1.0812(3) 1.1331(2) 0.33328(12)
C17 C 0.9705(3) 1.0709(3) 0.28721(15)
H24 H 0.9147 1.1450 0.2637
C18 C 1.0413(3) 0.9796(3) 0.23504(14)
H25 H 1.1110 1.0329 0.2092
H26 H 0.9635 0.9427 0.2053
H27 H 1.0944 0.9051 0.2573
Cl7 Cl 1.16054(11) 0.76358(9) 0.52188(4)
Cl8 Cl 1.42682(11) 0.39626(9) 0.26245(4)
N10 N 1.3871(3) 0.7426(2) 0.32959(11)
N11 N 1.2723(2) 0.7807(2) 0.36736(11)
H28 H 1.2372 0.8637 0.3698
N12 N 1.2977(2) 0.5643(2) 0.38624(11)
C19 C 1.2202(3) 0.6751(3) 0.40019(12)
C20 C 1.0939(3) 0.6853(3) 0.44548(14)
H29 H 1.0168 0.7455 0.4245
C21 C 1.0237(4) 0.5517(4) 0.46061(19)
H30 H 0.9879 0.5094 0.4192
H31 H 0.9402 0.5659 0.4899
H32 H 1.0971 0.4925 0.4826
C22 C 1.3985(3) 0.6113(3) 0.34281(12)
C23 C 1.5153(3) 0.5265(3) 0.31244(14)
H33 H 1.5752 0.5853 0.2830
C24 C 1.6212(3) 0.4601(3) 0.36514(17)
H34 H 1.6690 0.5309 0.3922
H35 H 1.6971 0.4073 0.3428
H36 H 1.5642 0.4002 0.3936
loop_
_geom_bond_atom_site_label_1
_geom_bond_atom_site_label_2
_geom_bond_site_symmetry_1
_geom_bond_site_symmetry_2
Cl1 C2 1_555 1_555
Cl2 C5 1_555 1_555
N1 H1 1_555 1_555
N2 N1 1_555 1_555
N3 C1 1_555 1_555
C1 N2 1_555 1_555
C2 C1 1_555 1_555
H2 C2 1_555 1_555
C3 C2 1_555 1_555
H3 C3 1_555 1_555
H4 C3 1_555 1_555
H5 C3 1_555 1_555
C4 N1 1_555 1_555
C5 C4 1_555 1_555
H6 C5 1_555 1_555
C6 C5 1_555 1_555
H7 C6 1_555 1_555
H8 C6 1_555 1_555
H9 C6 1_555 1_555
Cl3 C8 1_555 1_555
Cl4 C11 1_555 1_555
N4 N5 1_555 1_555
N5 H10 1_555 1_555
N6 C7 1_555 1_555
C7 N5 1_555 1_555
C8 C7 1_555 1_555
H11 C8 1_555 1_555
C9 C8 1_555 1_555
H12 C9 1_555 1_555
H13 C9 1_555 1_555
H14 C9 1_555 1_555
C10 N4 1_555 1_555
C11 C10 1_555 1_555
H15 C11 1_555 1_555
C12 C11 1_555 1_555
H16 C12 1_555 1_555
H17 C12 1_555 1_555
H18 C12 1_555 1_555
Cl5 C14 1_555 1_555
Cl6 C17 1_555 1_555
N7 N8 1_555 1_555
N8 H19 1_555 1_555
N9 C13 1_555 1_555
C13 N8 1_555 1_555
C14 C13 1_555 1_555
H20 C14 1_555 1_555
C15 C14 1_555 1_555
H21 C15 1_555 1_555
H22 C15 1_555 1_555
H23 C15 1_555 1_555
C16 N7 1_555 1_555
C17 C16 1_555 1_555
H24 C17 1_555 1_555
C18 C17 1_555 1_555
H25 C18 1_555 1_555
H26 C18 1_555 1_555
H27 C18 1_555 1_555
Cl7 C20 1_555 1_555
Cl8 C23 1_555 1_555
N10 N11 1_555 1_555
N11 H28 1_555 1_555
N12 C19 1_555 1_555
C19 N11 1_555 1_555
C20 C19 1_555 1_555
H29 C20 1_555 1_555
C21 C20 1_555 1_555
H30 C21 1_555 1_555
H31 C21 1_555 1_555
H32 C21 1_555 1_555
C22 N10 1_555 1_555
C23 C22 1_555 1_555
H33 C23 1_555 1_555
C24 C23 1_555 1_555
H34 C24 1_555 1_555
H35 C24 1_555 1_555
H36 C24 1_555 1_555
N3 C4 1_555 1_555
N6 C10 1_555 1_555
N9 C16 1_555 1_555
N12 C22 1_555 1_555

#END
