
#######################################################################
#
#                 Cambridge Crystallographic Data Centre
#                                CCDC 
#
#######################################################################
#
# If this CIF has been generated from an entry in the Cambridge 
# Structural Database, then it will include bibliographic, chemical, 
# crystal, experimental, refinement or atomic coordinate data resulting 
# from the CCDC's data processing and validation procedures.
#
#######################################################################

data_CABWAG
_chemical_compound_source        'roots of Eupatorium chinense'
_chemical_formula_moiety         'C26 H24 O7'
_chemical_name_systematic        
1-(2-(8-acetyl-4,7-dihydroxy-1,4-dimethyl-1,2,3,4-tetrahydrodibenzo[b,d]furan-1-yl)-6-hydroxy-1-benzofuran-5-yl)ethanone
_chemical_properties_biological  'antiviral activity'
_symmetry_cell_setting           orthorhombic
_symmetry_space_group_name_H-M   'P b c a'
_symmetry_Int_Tables_number      61
_space_group_name_Hall           '-P 2ac 2ab'
loop_
_symmetry_equiv_pos_site_id
_symmetry_equiv_pos_as_xyz
1 x,y,z
2 1/2-x,-y,1/2+z
3 -x,1/2+y,1/2-z
4 1/2+x,1/2-y,-z
5 -x,-y,-z
6 1/2+x,y,1/2-z
7 x,1/2-y,1/2+z
8 1/2-x,1/2+y,z
_cell_length_a                   17.9730(16)
_cell_length_b                   7.4822(9)
_cell_length_c                   31.905(3)
_cell_angle_alpha                90
_cell_angle_beta                 90
_cell_angle_gamma                90
_cell_volume                     4290.51
_exptl_crystal_colour            colorless
_exptl_crystal_description       block
_cell_formula_units_Z            8
loop_
_atom_site_label
_atom_site_type_symbol
_atom_site_fract_x
_atom_site_fract_y
_atom_site_fract_z
O1 O 0.31851(12) 0.6751(3) 0.15320(6)
O2 O 0.35594(16) 0.3502(3) 0.11130(8)
H1 H 0.3245 0.3508 0.1308
O3 O 0.41226(16) 1.3453(4) 0.26151(7)
O4 O 0.32300(14) 1.0858(4) 0.26793(6)
H2 H 0.3486 1.1731 0.2760
C1 C 0.36071(17) 0.6714(5) 0.11615(9)
C2 C 0.40677(16) 0.8132(5) 0.11295(9)
C3 C 0.42487(17) 1.0759(5) 0.16748(9)
H3 H 0.4612 1.1421 0.1524
C4 C 0.40017(18) 1.1357(5) 0.20679(9)
C5 C 0.34663(18) 1.0330(5) 0.22938(9)
C6 C 0.31582(18) 0.8784(5) 0.21307(9)
H4 H 0.2791 0.8118 0.2277
C7 C 0.34180(17) 0.8270(5) 0.17417(9)
C8 C 0.39577(17) 0.9188(4) 0.15069(9)
C9 C 0.35033(18) 0.5165(5) 0.08745(10)
C10 C 0.2754(2) 0.5204(6) 0.06534(12)
H5 H 0.2354 0.5205 0.0862
H6 H 0.2706 0.4146 0.0474
H7 H 0.2718 0.6285 0.0481
C11 C 0.41662(19) 0.5191(5) 0.05717(10)
H8 H 0.4615 0.4749 0.0718
H9 H 0.4064 0.4377 0.0334
C12 C 0.42823(19) 1.3038(5) 0.22482(10)
C13 C 0.4742(2) 1.4309(5) 0.19944(10)
H10 H 0.4876 1.5344 0.2167
H11 H 0.4455 1.4710 0.1751
H12 H 0.5196 1.3705 0.1900
O5 O 0.58554(11) 0.8676(3) 0.05427(6)
O6 O 0.85145(13) 0.8709(4) 0.05054(7)
H13 H 0.8872 0.8423 0.0661
O7 O 0.91680(12) 0.7580(3) 0.11693(7)
C14 C 0.53542(18) 0.8176(4) 0.08591(9)
C15 C 0.57197(17) 0.7580(5) 0.11996(9)
H14 H 0.5501 0.7166 0.1453
C16 C 0.71670(17) 0.7302(5) 0.13150(9)
H15 H 0.7154 0.6807 0.1589
C17 C 0.78576(17) 0.7641(5) 0.11195(9)
C18 C 0.78635(18) 0.8355(5) 0.07051(9)
C19 C 0.72097(18) 0.8724(5) 0.04917(9)
H16 H 0.7214 0.9190 0.0215
C20 C 0.65517(17) 0.8383(5) 0.06997(9)
C21 C 0.65072(17) 0.7688(5) 0.11084(9)
C22 C 0.45544(17) 0.8447(4) 0.07445(9)
C23 C 0.44384(18) 1.0352(5) 0.05771(9)
H17 H 0.4587 1.1218 0.0792
H18 H 0.3912 1.0527 0.0508
H19 H 0.4741 1.0526 0.0325
C24 C 0.4314(2) 0.7078(5) 0.04042(9)
H20 H 0.3856 0.7523 0.0266
H21 H 0.4708 0.7012 0.0188
C25 C 0.85535(18) 0.7266(5) 0.13385(9)
C26 C 0.85441(19) 0.6548(5) 0.17782(9)
H22 H 0.9056 0.6372 0.1875
H23 H 0.8279 0.5403 0.1783
H24 H 0.8291 0.7400 0.1963
loop_
_geom_bond_atom_site_label_1
_geom_bond_atom_site_label_2
_geom_bond_site_symmetry_1
_geom_bond_site_symmetry_2
O1 C1 1_555 1_555
O2 H1 1_555 1_555
O3 C12 1_555 1_555
O4 H2 1_555 1_555
C1 C2 1_555 1_555
C2 C8 1_555 1_555
C3 H3 1_555 1_555
C4 C3 1_555 1_555
C5 O4 1_555 1_555
C6 C5 1_555 1_555
H4 C6 1_555 1_555
C7 O1 1_555 1_555
C8 C3 1_555 1_555
C9 O2 1_555 1_555
C10 C9 1_555 1_555
H5 C10 1_555 1_555
H6 C10 1_555 1_555
H7 C10 1_555 1_555
C11 C9 1_555 1_555
H8 C11 1_555 1_555
H9 C11 1_555 1_555
C12 C4 1_555 1_555
C13 C12 1_555 1_555
H10 C13 1_555 1_555
H11 C13 1_555 1_555
H12 C13 1_555 1_555
O5 C14 1_555 1_555
O6 H13 1_555 1_555
O7 C25 1_555 1_555
C14 C15 1_555 1_555
C15 H14 1_555 1_555
C16 H15 1_555 1_555
C17 C16 1_555 1_555
C18 O6 1_555 1_555
C19 C18 1_555 1_555
H16 C19 1_555 1_555
C20 O5 1_555 1_555
C21 C15 1_555 1_555
C22 C2 1_555 1_555
C23 C22 1_555 1_555
H17 C23 1_555 1_555
H18 C23 1_555 1_555
H19 C23 1_555 1_555
C24 C11 1_555 1_555
H20 C24 1_555 1_555
H21 C24 1_555 1_555
C25 C17 1_555 1_555
C26 C25 1_555 1_555
H22 C26 1_555 1_555
H23 C26 1_555 1_555
H24 C26 1_555 1_555
C1 C9 1_555 1_555
C4 C5 1_555 1_555
C6 C7 1_555 1_555
C7 C8 1_555 1_555
C14 C22 1_555 1_555
C16 C21 1_555 1_555
C17 C18 1_555 1_555
C19 C20 1_555 1_555
C20 C21 1_555 1_555
C22 C24 1_555 1_555

#END
