
#######################################################################
#
#                 Cambridge Crystallographic Data Centre
#                                CCDC 
#
#######################################################################
#
# If this CIF has been generated from an entry in the Cambridge 
# Structural Database, then it will include bibliographic, chemical, 
# crystal, experimental, refinement or atomic coordinate data resulting 
# from the CCDC's data processing and validation procedures.
#
#######################################################################

data_CACCOA
_chemical_formula_moiety         'C25 H22 N2 O3'
_chemical_name_systematic        
(2'S*,3'S*,4'S*,5'R*)-3'-Benzoyl-5'-(hydroxymethyl)-4'-phenylspiro[indole-3,2'-pyrrolidin]-2(1H)-one
_symmetry_cell_setting           monoclinic
_symmetry_space_group_name_H-M   'P 21/n'
_symmetry_Int_Tables_number      14
_space_group_name_Hall           '-P 2yn'
loop_
_symmetry_equiv_pos_site_id
_symmetry_equiv_pos_as_xyz
1 x,y,z
2 1/2-x,1/2+y,1/2-z
3 -x,-y,-z
4 1/2+x,1/2-y,1/2+z
_cell_length_a                   14.3234(10)
_cell_length_b                   7.9521(6)
_cell_length_c                   18.5175(15)
_cell_angle_alpha                90
_cell_angle_beta                 94.248(2)
_cell_angle_gamma                90
_cell_volume                     2103.37
_exptl_crystal_colour            colorless
_exptl_crystal_description       block
_cell_formula_units_Z            4
loop_
_atom_site_label
_atom_site_type_symbol
_atom_site_fract_x
_atom_site_fract_y
_atom_site_fract_z
O1 O 0.96528(7) 0.55988(14) 0.08725(7)
N1 N 1.08575(8) 0.72839(15) -0.00854(7)
H1 H 1.0266(12) 0.769(2) -0.0144(9)
C1 C 1.12579(10) 1.03444(18) -0.01593(9)
N2 N 1.12084(9) 1.12302(18) -0.07811(8)
H2 H 1.1005(12) 1.227(2) -0.0814(10)
O2 O 1.10804(8) 1.08729(13) 0.04356(6)
H3 H 0.9413(13) 0.469(3) 0.0654(10)
C2 C 1.21971(9) 0.65333(18) 0.06099(8)
H4 H 1.2257 0.5498 0.0330
O3 O 1.34642(8) 0.61427(15) -0.04577(7)
C3 C 1.27829(9) 0.63322(19) 0.13149(8)
C4 C 1.11542(9) 0.68546(18) 0.06716(8)
H5 H 1.1067 0.7823 0.0987
C5 C 1.15688(9) 0.85707(19) -0.11423(8)
C6 C 1.13701(10) 1.02081(19) -0.13776(9)
C7 C 1.32820(10) 0.7602(2) -0.03295(9)
C8 C 1.38288(10) 0.9001(2) -0.06312(9)
C9 C 1.15475(9) 0.85103(17) -0.03304(8)
C10 C 1.06398(10) 0.53398(18) 0.09392(9)
H6 H 1.0793 0.4357 0.0661
H7 H 1.0842 0.5131 0.1443
C11 C 1.24783(9) 0.80180(18) 0.01352(8)
H8 H 1.2666 0.8965 0.0452
C12 C 1.17214(10) 0.7340(2) -0.16463(9)
H9 H 1.1849 0.6240 -0.1501
C13 C 1.13370(12) 1.0655(2) -0.20982(10)
H10 H 1.1213 1.1755 -0.2246
C14 C 1.33797(11) 0.4970(2) 0.14284(10)
H11 H 1.3418 0.4171 0.1065
C15 C 1.27399(12) 0.7477(2) 0.18716(10)
H12 H 1.2347 0.8405 0.1811
C16 C 1.16814(12) 0.7775(3) -0.23752(10)
H13 H 1.1781 0.6955 -0.2719
C17 C 1.37351(12) 1.0665(2) -0.04335(10)
H14 H 1.3304 1.0959 -0.0104
C18 C 1.39197(12) 0.4783(3) 0.20747(11)
H15 H 1.4323 0.3870 0.2138
C19 C 1.14953(12) 0.9403(3) -0.25935(10)
H16 H 1.1476 0.9667 -0.3084
C20 C 1.42822(14) 1.1901(3) -0.07244(12)
H17 H 1.4219 1.3017 -0.0587
C21 C 1.49092(14) 1.1477(3) -0.12099(13)
H18 H 1.5277 1.2305 -0.1402
C22 C 1.38665(13) 0.5923(3) 0.26185(11)
H19 H 1.4230 0.5790 0.3052
C23 C 1.44707(13) 0.8592(3) -0.11301(11)
H20 H 1.4543 0.7480 -0.1271
C24 C 1.32766(13) 0.7259(3) 0.25220(11)
H21 H 1.3232 0.8034 0.2894
C25 C 1.50022(15) 0.9843(4) -0.14168(12)
H22 H 1.5427 0.9568 -0.1754
loop_
_geom_bond_atom_site_label_1
_geom_bond_atom_site_label_2
_geom_bond_site_symmetry_1
_geom_bond_site_symmetry_2
O1 H3 1_555 1_555
N1 H1 1_555 1_555
C1 N2 1_555 1_555
N2 H2 1_555 1_555
O2 C1 1_555 1_555
C2 H4 1_555 1_555
O3 C7 1_555 1_555
C3 C2 1_555 1_555
C4 N1 1_555 1_555
H5 C4 1_555 1_555
C5 C6 1_555 1_555
C6 N2 1_555 1_555
C7 C8 1_555 1_555
C8 C17 1_555 1_555
C9 N1 1_555 1_555
C10 O1 1_555 1_555
H6 C10 1_555 1_555
H7 C10 1_555 1_555
C11 C2 1_555 1_555
H8 C11 1_555 1_555
C12 C5 1_555 1_555
H9 C12 1_555 1_555
C13 C6 1_555 1_555
H10 C13 1_555 1_555
C14 C3 1_555 1_555
H11 C14 1_555 1_555
C15 C3 1_555 1_555
H12 C15 1_555 1_555
C16 C12 1_555 1_555
H13 C16 1_555 1_555
C17 H14 1_555 1_555
C18 C14 1_555 1_555
H15 C18 1_555 1_555
C19 C13 1_555 1_555
H16 C19 1_555 1_555
C20 C17 1_555 1_555
H17 C20 1_555 1_555
C21 C20 1_555 1_555
H18 C21 1_555 1_555
C22 C18 1_555 1_555
H19 C22 1_555 1_555
C23 C8 1_555 1_555
H20 C23 1_555 1_555
C24 C15 1_555 1_555
H21 C24 1_555 1_555
C25 C21 1_555 1_555
H22 C25 1_555 1_555
C1 C9 1_555 1_555
C2 C4 1_555 1_555
C4 C10 1_555 1_555
C5 C9 1_555 1_555
C7 C11 1_555 1_555
C9 C11 1_555 1_555
C16 C19 1_555 1_555
C22 C24 1_555 1_555
C23 C25 1_555 1_555

#END
