
#######################################################################
#
#                 Cambridge Crystallographic Data Centre
#                                CCDC 
#
#######################################################################
#
# If this CIF has been generated from an entry in the Cambridge 
# Structural Database, then it will include bibliographic, chemical, 
# crystal, experimental, refinement or atomic coordinate data resulting 
# from the CCDC's data processing and validation procedures.
#
#######################################################################

data_CACCUH
_chemical_formula_moiety         'C31 H27 Cl1 O4'
_chemical_name_systematic        
9-(2-chlorophenyl)-4a-hydroxy-3,6-diphenyl-3,4,4a,5,6,7,9,9a-octahydro-1H-xanthene-1,8(2H)-dione
_symmetry_cell_setting           orthorhombic
_symmetry_space_group_name_H-M   'P 21 21 21'
_symmetry_Int_Tables_number      19
_space_group_name_Hall           'P 2ac 2ab'
loop_
_symmetry_equiv_pos_site_id
_symmetry_equiv_pos_as_xyz
1 x,y,z
2 1/2-x,-y,1/2+z
3 -x,1/2+y,1/2-z
4 1/2+x,1/2-y,-z
_cell_length_a                   8.4677(9)
_cell_length_b                   14.1882(15)
_cell_length_c                   21.284(2)
_cell_angle_alpha                90
_cell_angle_beta                 90
_cell_angle_gamma                90
_cell_volume                     2557.09
_cell_formula_units_Z            4
loop_
_atom_site_label
_atom_site_type_symbol
_atom_site_fract_x
_atom_site_fract_y
_atom_site_fract_z
C1 C 0.4190(3) 0.90021(19) -0.08127(12)
C2 C 0.3505(3) 0.89805(19) -0.01898(11)
C3 C 0.1939(3) 0.88793(19) -0.01392(12)
C4 C 0.0790(3) 0.8959(2) -0.06677(13)
H1 H -0.0118 0.9321 -0.0531
H2 H 0.0426 0.8335 -0.0784
C5 C 0.1526(4) 0.9430(3) -0.12328(14)
H3 H 0.1721 1.0087 -0.1115
C6 C 0.3094(4) 0.9001(3) -0.13650(13)
H4 H 0.3588 0.9343 -0.1707
H5 H 0.2939 0.8356 -0.1503
C7 C 0.0416(4) 0.9452(3) -0.17968(15)
C8 C -0.0866(5) 1.0039(4) -0.17871(19)
H6 H -0.1081 1.0393 -0.1429
C9 C -0.1843(5) 1.0111(5) -0.2305(2)
H7 H -0.2707 1.0515 -0.2293
C10 C -0.1553(7) 0.9598(5) -0.2831(2)
H8 H -0.2209 0.9658 -0.3179
C11 C -0.0296(7) 0.8995(4) -0.28481(19)
H9 H -0.0099 0.8638 -0.3206
C12 C 0.0673(5) 0.8919(3) -0.23349(15)
H10 H 0.1520 0.8503 -0.2347
C13 C 0.4605(3) 0.89939(19) 0.03728(12)
H11 H 0.5289 0.8439 0.0341
C14 C 0.3672(3) 0.8906(2) 0.09872(12)
H12 H 0.3331 0.9539 0.1112
C15 C 0.4604(4) 0.8487(2) 0.15266(13)
C16 C 0.3688(4) 0.8403(3) 0.21293(14)
H13 H 0.3462 0.9029 0.2289
H14 H 0.4330 0.8079 0.2439
C17 C 0.2134(4) 0.7867(2) 0.20427(12)
H15 H 0.2407 0.7214 0.1937
C18 C 0.1196(3) 0.8267(2) 0.14875(12)
H16 H 0.0275 0.7877 0.1412
H17 H 0.0835 0.8898 0.1589
C19 C 0.2201(3) 0.82999(19) 0.09022(12)
C20 C 0.1115(4) 0.7836(2) 0.26268(13)
C21 C 0.0964(6) 0.8575(3) 0.30259(19)
H18 H 0.1548 0.9119 0.2955
C22 C -0.0050(6) 0.8534(3) 0.3541(2)
H19 H -0.0137 0.9054 0.3805
C23 C -0.0894(5) 0.7766(3) 0.36608(15)
H20 H -0.1579 0.7749 0.4002
C24 C -0.0740(5) 0.7006(3) 0.32774(17)
H21 H -0.1313 0.6461 0.3359
C25 C 0.0269(4) 0.7041(3) 0.27631(15)
H22 H 0.0371 0.6513 0.2507
C26 C 0.5673(3) 0.98588(19) 0.03872(13)
C27 C 0.5143(4) 1.0782(2) 0.03705(14)
C28 C 0.6171(5) 1.1545(2) 0.04042(16)
H23 H 0.5780 1.2157 0.0389
C29 C 0.7749(5) 1.1391(3) 0.04588(17)
H24 H 0.8442 1.1898 0.0488
C30 C 0.8318(4) 1.0482(3) 0.04703(16)
H25 H 0.9399 1.0377 0.0504
C31 C 0.7311(4) 0.9733(2) 0.04330(14)
H26 H 0.7721 0.9125 0.0438
Cl1 Cl 0.31319(11) 1.10480(6) 0.03241(4)
O1 O 0.5615(2) 0.89656(15) -0.08995(9)
O2 O 0.5947(3) 0.82312(16) 0.14705(9)
O3 O 0.1197(2) 0.86947(14) 0.04132(8)
O4 O 0.2744(2) 0.74226(13) 0.07103(9)
H27 H 0.2062 0.7025 0.0777
loop_
_geom_bond_atom_site_label_1
_geom_bond_atom_site_label_2
_geom_bond_site_symmetry_1
_geom_bond_site_symmetry_2
C1 C2 1_555 1_555
C2 C3 1_555 1_555
C3 C4 1_555 1_555
C4 H1 1_555 1_555
H2 C4 1_555 1_555
C5 C4 1_555 1_555
H3 C5 1_555 1_555
C6 C1 1_555 1_555
H4 C6 1_555 1_555
H5 C6 1_555 1_555
C7 C5 1_555 1_555
C8 C7 1_555 1_555
H6 C8 1_555 1_555
C9 C8 1_555 1_555
H7 C9 1_555 1_555
C10 C9 1_555 1_555
H8 C10 1_555 1_555
C11 C10 1_555 1_555
H9 C11 1_555 1_555
C12 C7 1_555 1_555
H10 C12 1_555 1_555
C13 C2 1_555 1_555
H11 C13 1_555 1_555
C14 C13 1_555 1_555
H12 C14 1_555 1_555
C15 C14 1_555 1_555
C16 C15 1_555 1_555
H13 C16 1_555 1_555
H14 C16 1_555 1_555
C17 C16 1_555 1_555
H15 C17 1_555 1_555
C18 C17 1_555 1_555
H16 C18 1_555 1_555
H17 C18 1_555 1_555
C19 C14 1_555 1_555
C20 C17 1_555 1_555
C21 C20 1_555 1_555
H18 C21 1_555 1_555
C22 C21 1_555 1_555
H19 C22 1_555 1_555
C23 C22 1_555 1_555
H20 C23 1_555 1_555
C24 C23 1_555 1_555
H21 C24 1_555 1_555
C25 C20 1_555 1_555
H22 C25 1_555 1_555
C26 C13 1_555 1_555
C27 C26 1_555 1_555
C28 C27 1_555 1_555
H23 C28 1_555 1_555
C29 C28 1_555 1_555
H24 C29 1_555 1_555
C30 C29 1_555 1_555
H25 C30 1_555 1_555
C31 C26 1_555 1_555
H26 C31 1_555 1_555
Cl1 C27 1_555 1_555
O1 C1 1_555 1_555
O2 C15 1_555 1_555
O3 C3 1_555 1_555
O4 C19 1_555 1_555
H27 O4 1_555 1_555
C5 C6 1_555 1_555
C11 C12 1_555 1_555
C18 C19 1_555 1_555
C19 O3 1_555 1_555
C24 C25 1_555 1_555
C30 C31 1_555 1_555

#END
