
#######################################################################
#
#                 Cambridge Crystallographic Data Centre
#                                CCDC 
#
#######################################################################
#
# If this CIF has been generated from an entry in the Cambridge 
# Structural Database, then it will include bibliographic, chemical, 
# crystal, experimental, refinement or atomic coordinate data resulting 
# from the CCDC's data processing and validation procedures.
#
#######################################################################

data_CACHIA
_chemical_formula_moiety         'C51 H39 N3 O2,C2 H3 N1'
_chemical_name_systematic        
"N,N'-bis(4,5-dimethylpentacyclo[6.6.6.0^2,7^.0^9,14^.0^15,20^]icosa-2,4,6,9,11,13,15,17,19-nonaen-1-yl)pyridine-2,6-dicarboxamide acetonitrile solvate"
_symmetry_cell_setting           monoclinic
_symmetry_space_group_name_H-M   'P 21/n'
_symmetry_Int_Tables_number      14
_space_group_name_Hall           '-P 2yn'
loop_
_symmetry_equiv_pos_site_id
_symmetry_equiv_pos_as_xyz
1 x,y,z
2 1/2-x,1/2+y,1/2-z
3 -x,-y,-z
4 1/2+x,1/2-y,1/2+z
_cell_length_a                   9.3576(19)
_cell_length_b                   39.560(8)
_cell_length_c                   11.254(2)
_cell_angle_alpha                90
_cell_angle_beta                 99.55(3)
_cell_angle_gamma                90
_cell_volume                     4108.34
_exptl_crystal_colour            colorless
_exptl_crystal_description       block
_cell_formula_units_Z            4
loop_
_atom_site_label
_atom_site_type_symbol
_atom_site_fract_x
_atom_site_fract_y
_atom_site_fract_z
O1 O 0.8030(2) 0.22350(4) 1.22121(16)
O2 O 0.3643(2) 0.15050(4) 0.72524(15)
N1 N 0.7811(2) 0.16646(5) 1.21018(18)
H1 H 0.7304 0.1509 1.1697
N2 N 0.5905(2) 0.17356(5) 0.99833(17)
N3 N 0.5054(2) 0.11748(5) 0.86325(18)
H2 H 0.5536 0.1171 0.9353
C1 C 1.0465(3) 0.17266(6) 1.2824(2)
C2 C 1.0753(3) 0.18574(7) 1.1750(3)
H3 H 0.9988 0.1893 1.1093
C3 C 1.2177(4) 0.19362(8) 1.1639(3)
H4 H 1.2382 0.2026 1.0902
C4 C 1.3291(4) 0.18857(9) 1.2589(3)
H5 H 1.4255 0.1944 1.2509
C5 C 1.3007(3) 0.17502(8) 1.3659(3)
H6 H 1.3775 0.1713 1.4311
C6 C 1.1599(3) 0.16697(7) 1.3775(2)
C7 C 0.8995(3) 0.15992(6) 1.3087(2)
C8 C 1.1135(3) 0.14879(6) 1.4836(2)
H7 H 1.1956 0.1444 1.5509
C9 C 0.9257(3) 0.12212(6) 1.3353(2)
C10 C 0.8497(3) 0.09517(6) 1.2794(2)
H8 H 0.7709 0.0987 1.2157
C11 C 0.8906(3) 0.06238(7) 1.3180(2)
H9 H 0.8387 0.0436 1.2802
C12 C 1.0045(3) 0.05705(7) 1.4096(3)
H10 H 1.0311 0.0347 1.4346
C13 C 1.0807(3) 0.08424(7) 1.4657(2)
H11 H 1.1600 0.0806 1.5289
C14 C 1.0414(3) 0.11661(6) 1.4296(2)
C15 C 0.8754(3) 0.17455(6) 1.4306(2)
C16 C 0.7515(3) 0.18985(6) 1.4562(2)
H12 H 0.6711 0.1931 1.3936
C17 C 0.7427(3) 0.20062(7) 1.5729(3)
C18 C 0.8615(4) 0.19598(7) 1.6646(3)
C19 C 0.9844(3) 0.18006(7) 1.6381(2)
H13 H 1.0648 0.1765 1.7004
C20 C 0.9920(3) 0.16918(6) 1.5223(2)
C21 C 0.6046(4) 0.21682(8) 1.5967(3)
H14 H 0.5482 0.2247 1.5205
H15 H 0.6279 0.2361 1.6514
H16 H 0.5477 0.2002 1.6337
C22 C 0.8576(5) 0.20743(10) 1.7923(3)
H17 H 0.8306 0.2314 1.7921
H18 H 0.9535 0.2044 1.8414
H19 H 0.7862 0.1940 1.8263
C23 C 0.7460(3) 0.19818(6) 1.1724(2)
C24 C 0.6317(3) 0.20143(6) 1.0626(2)
C25 C 0.5770(3) 0.23324(6) 1.0321(2)
H20 H 0.6099 0.2523 1.0804
C26 C 0.4735(3) 0.23692(6) 0.9301(2)
H21 H 0.4334 0.2585 0.9071
C27 C 0.4299(3) 0.20858(6) 0.8624(2)
H22 H 0.3588 0.2103 0.7918
C28 C 0.4911(3) 0.17772(6) 0.8986(2)
C29 C 0.4466(3) 0.14724(6) 0.8210(2)
C30 C 0.5139(3) 0.02450(6) 0.8095(2)
C31 C 0.5797(3) -0.00521(6) 0.8537(2)
H23 H 0.5529 -0.0261 0.8143
C32 C 0.6853(3) -0.00441(7) 0.9562(2)
H24 H 0.7305 -0.0248 0.9877
C33 C 0.7241(3) 0.02591(7) 1.0121(3)
H25 H 0.7984 0.0264 1.0807
C34 C 0.6564(3) 0.05596(7) 0.9696(2)
H26 H 0.6822 0.0767 1.0103
C35 C 0.5512(3) 0.05534(6) 0.8678(2)
C36 C 0.4672(3) 0.08553(6) 0.8031(2)
C37 C 0.5022(3) 0.08374(6) 0.6740(2)
C38 C 0.5711(3) 0.10807(6) 0.6158(2)
H27 H 0.6016 0.1287 0.6553
C39 C 0.5953(3) 0.10210(7) 0.4992(2)
H28 H 0.6434 0.1187 0.4590
C40 C 0.5499(3) 0.07220(7) 0.4410(2)
H29 H 0.5651 0.0685 0.3606
C41 C 0.4824(3) 0.04756(6) 0.4995(2)
H30 H 0.4506 0.0271 0.4593
C42 C 0.4618(3) 0.05296(6) 0.6169(2)
C43 C 0.3998(3) 0.02795(6) 0.6968(2)
H31 H 0.3739 0.0058 0.6559
C44 C 0.2712(3) 0.04528(6) 0.7362(2)
C45 C 0.1299(3) 0.03415(6) 0.7168(2)
H32 H 0.1072 0.0130 0.6784
C46 C 0.0201(3) 0.05328(6) 0.7523(3)
C47 C 0.0548(3) 0.08390(7) 0.8129(3)
C48 C 0.1990(3) 0.09469(6) 0.8336(2)
H33 H 0.2234 0.1153 0.8756
C49 C 0.3066(3) 0.07610(6) 0.7943(2)
C50 C -0.0601(3) 0.10581(8) 0.8512(3)
H34 H -0.1270 0.1134 0.7798
H35 H -0.0148 0.1255 0.8951
H36 H -0.1137 0.0928 0.9036
C51 C -0.1344(3) 0.04124(8) 0.7192(3)
H37 H -0.1893 0.0573 0.6628
H38 H -0.1786 0.0397 0.7920
H39 H -0.1356 0.0189 0.6812
N4 N 0.4922(3) 0.10846(7) 0.1426(2)
C52 C 0.2301(4) 0.09617(10) 0.1771(4)
H40 H 0.1825 0.0810 0.1139
H41 H 0.1755 0.1174 0.1748
H42 H 0.2332 0.0854 0.2560
C53 C 0.3772(4) 0.10321(8) 0.1575(3)
loop_
_geom_bond_atom_site_label_1
_geom_bond_atom_site_label_2
_geom_bond_site_symmetry_1
_geom_bond_site_symmetry_2
O1 C23 1_555 1_555
O2 C29 1_555 1_555
N1 H1 1_555 1_555
N2 C24 1_555 1_555
N3 H2 1_555 1_555
C1 C2 1_555 1_555
C2 H3 1_555 1_555
C3 C2 1_555 1_555
H4 C3 1_555 1_555
C4 C3 1_555 1_555
H5 C4 1_555 1_555
C5 C4 1_555 1_555
H6 C5 1_555 1_555
C6 C1 1_555 1_555
C7 N1 1_555 1_555
C8 C6 1_555 1_555
H7 C8 1_555 1_555
C9 C7 1_555 1_555
C10 C9 1_555 1_555
H8 C10 1_555 1_555
C11 C10 1_555 1_555
H9 C11 1_555 1_555
C12 C11 1_555 1_555
H10 C12 1_555 1_555
C13 C12 1_555 1_555
H11 C13 1_555 1_555
C14 C8 1_555 1_555
C15 C7 1_555 1_555
C16 C15 1_555 1_555
H12 C16 1_555 1_555
C17 C16 1_555 1_555
C18 C17 1_555 1_555
C19 C18 1_555 1_555
H13 C19 1_555 1_555
C20 C8 1_555 1_555
C21 C17 1_555 1_555
H14 C21 1_555 1_555
H15 C21 1_555 1_555
H16 C21 1_555 1_555
C22 C18 1_555 1_555
H17 C22 1_555 1_555
H18 C22 1_555 1_555
H19 C22 1_555 1_555
C23 N1 1_555 1_555
C24 C23 1_555 1_555
C25 C24 1_555 1_555
H20 C25 1_555 1_555
C26 C25 1_555 1_555
H21 C26 1_555 1_555
C27 C26 1_555 1_555
H22 C27 1_555 1_555
C28 N2 1_555 1_555
C29 N3 1_555 1_555
C30 C31 1_555 1_555
C31 H23 1_555 1_555
C32 C31 1_555 1_555
H24 C32 1_555 1_555
C33 C32 1_555 1_555
H25 C33 1_555 1_555
C34 C33 1_555 1_555
H26 C34 1_555 1_555
C35 C30 1_555 1_555
C36 N3 1_555 1_555
C37 C36 1_555 1_555
C38 C37 1_555 1_555
H27 C38 1_555 1_555
C39 C38 1_555 1_555
H28 C39 1_555 1_555
C40 C39 1_555 1_555
H29 C40 1_555 1_555
C41 C40 1_555 1_555
H30 C41 1_555 1_555
C42 C37 1_555 1_555
C43 C30 1_555 1_555
H31 C43 1_555 1_555
C44 C43 1_555 1_555
C45 C44 1_555 1_555
H32 C45 1_555 1_555
C46 C45 1_555 1_555
C47 C46 1_555 1_555
C48 C47 1_555 1_555
H33 C48 1_555 1_555
C49 C36 1_555 1_555
C50 C47 1_555 1_555
H34 C50 1_555 1_555
H35 C50 1_555 1_555
H36 C50 1_555 1_555
C51 C46 1_555 1_555
H37 C51 1_555 1_555
H38 C51 1_555 1_555
H39 C51 1_555 1_555
N4 C53 1_555 1_555
C52 H40 1_555 1_555
H41 C52 1_555 1_555
H42 C52 1_555 1_555
C53 C52 1_555 1_555
C1 C7 1_555 1_555
C5 C6 1_555 1_555
C9 C14 1_555 1_555
C13 C14 1_555 1_555
C15 C20 1_555 1_555
C19 C20 1_555 1_555
C27 C28 1_555 1_555
C28 C29 1_555 1_555
C34 C35 1_555 1_555
C35 C36 1_555 1_555
C41 C42 1_555 1_555
C42 C43 1_555 1_555
C44 C49 1_555 1_555
C48 C49 1_555 1_555

#END
