
#######################################################################
#
#                 Cambridge Crystallographic Data Centre
#                                CCDC 
#
#######################################################################
#
# If this CIF has been generated from an entry in the Cambridge 
# Structural Database, then it will include bibliographic, chemical, 
# crystal, experimental, refinement or atomic coordinate data resulting 
# from the CCDC's data processing and validation procedures.
#
#######################################################################

data_CACHAS
_chemical_formula_moiety         'C47 H31 N3 O2,2(C2 H3 N1)'
_chemical_name_systematic        
"N,N'-bis(pentacyclo[6.6.6.0^2,7^.0^9,14^.0^15,20^]icosa-2,4,6,9,11,13,15,17,19-nonaen-1-yl)pyridine-2,6-dicarboxamide acetonitrile solvate"
_symmetry_cell_setting           triclinic
_symmetry_space_group_name_H-M   'P -1'
_symmetry_Int_Tables_number      2
_space_group_name_Hall           '-P 1'
loop_
_symmetry_equiv_pos_site_id
_symmetry_equiv_pos_as_xyz
1 x,y,z
2 -x,-y,-z
_cell_length_a                   9.009(3)
_cell_length_b                   14.683(5)
_cell_length_c                   15.413(5)
_cell_angle_alpha                84.335(10)
_cell_angle_beta                 78.411(10)
_cell_angle_gamma                80.118(10)
_cell_volume                     1963.26
_exptl_crystal_colour            colorless
_exptl_crystal_description       block
_cell_formula_units_Z            2
loop_
_atom_site_label
_atom_site_type_symbol
_atom_site_fract_x
_atom_site_fract_y
_atom_site_fract_z
O1 O 1.10191(19) 0.12900(13) 0.16565(11)
O2 O 0.9342(2) 0.17759(13) -0.26210(11)
N1 N 0.9495(2) 0.15487(13) -0.03184(12)
N2 N 0.8544(2) 0.17063(13) 0.14569(12)
H1 H 0.7938 0.1682 0.1097
N3 N 0.7440(2) 0.21580(14) -0.14462(12)
H2 H 0.7229 0.2234 -0.0886
C1 C 1.0060(3) 0.14103(16) 0.11826(15)
C2 C 1.0516(3) 0.12467(16) 0.02070(15)
C3 C 1.2019(3) 0.08271(18) -0.01027(17)
H3 H 1.2691 0.0625 0.0287
C4 C 1.2481(3) 0.07194(18) -0.10018(17)
H4 H 1.3464 0.0427 -0.1229
C5 C 1.1457(3) 0.10541(17) -0.15549(16)
H5 H 1.1751 0.1008 -0.2165
C6 C 0.9983(3) 0.14605(16) -0.11930(15)
C7 C 0.8898(3) 0.18199(16) -0.18207(15)
C8 C 0.7870(3) 0.20633(16) 0.23200(15)
C9 C 0.8128(3) 0.13899(17) 0.31230(15)
C10 C 0.8868(3) 0.04841(17) 0.31229(16)
H6 H 0.9345 0.0229 0.2589
C11 C 0.8901(3) -0.00460(18) 0.39196(18)
H7 H 0.9400 -0.0656 0.3917
C12 C 0.8200(3) 0.03260(19) 0.47126(17)
H8 H 0.8225 -0.0033 0.5243
C13 C 0.7451(3) 0.12394(19) 0.47235(16)
H9 H 0.6975 0.1492 0.5258
C14 C 0.7423(3) 0.17651(17) 0.39313(16)
C15 C 0.6577(3) 0.27490(17) 0.38298(16)
H10 H 0.6092 0.3006 0.4400
C16 C 0.8401(3) 0.29681(16) 0.24541(15)
C17 C 0.9395(3) 0.34467(17) 0.18501(16)
H11 H 0.9847 0.3212 0.1304
C18 C 0.9714(3) 0.42854(18) 0.20669(18)
H12 H 1.0373 0.4613 0.1661
C19 C 0.9056(3) 0.46296(18) 0.28803(18)
H13 H 0.9282 0.5185 0.3023
C20 C 0.8054(3) 0.41512(17) 0.34889(17)
H14 H 0.7614 0.4384 0.4038
C21 C 0.7717(3) 0.33272(17) 0.32733(16)
C22 C 0.6110(3) 0.22982(16) 0.24339(15)
C23 C 0.5201(3) 0.21374(17) 0.18583(17)
H15 H 0.5646 0.1872 0.1325
C24 C 0.3605(3) 0.23781(18) 0.20840(19)
H16 H 0.2988 0.2278 0.1697
C25 C 0.2946(3) 0.27636(19) 0.2879(2)
H17 H 0.1886 0.2925 0.3023
C26 C 0.3850(3) 0.29126(19) 0.34658(18)
H18 H 0.3399 0.3170 0.4002
C27 C 0.5428(3) 0.26757(17) 0.32475(16)
C28 C 0.6217(3) 0.23975(16) -0.19563(15)
C29 C 0.4644(3) 0.27423(16) -0.13860(15)
C30 C 0.4306(3) 0.28919(17) -0.04917(16)
H19 H 0.5069 0.2750 -0.0152
C31 C 0.2819(3) 0.32563(19) -0.01028(17)
H20 H 0.2598 0.3369 0.0496
C32 C 0.1672(3) 0.34515(18) -0.05938(17)
H21 H 0.0680 0.3688 -0.0324
C33 C 0.1992(3) 0.32965(17) -0.14901(16)
H22 H 0.1216 0.3425 -0.1822
C34 C 0.3475(3) 0.29492(16) -0.18889(16)
C35 C 0.4017(3) 0.27915(17) -0.28707(15)
H23 H 0.3190 0.2940 -0.3213
C36 C 0.6444(3) 0.32012(16) -0.26713(15)
C37 C 0.5272(3) 0.33874(16) -0.31693(15)
C38 C 0.5271(3) 0.41038(17) -0.38224(16)
H24 H 0.4512 0.4215 -0.4166
C39 C 0.6417(3) 0.46562(18) -0.39602(17)
H25 H 0.6430 0.5136 -0.4402
C40 C 0.7537(3) 0.44953(18) -0.34447(17)
H26 H 0.8284 0.4878 -0.3532
C41 C 0.7557(3) 0.37656(17) -0.27955(16)
H27 H 0.8312 0.3659 -0.2449
C42 C 0.5963(3) 0.15663(17) -0.24173(15)
C43 C 0.6715(3) 0.06636(17) -0.23556(17)
H28 H 0.7485 0.0510 -0.2021
C44 C 0.6312(3) -0.00112(19) -0.27965(19)
H29 H 0.6817 -0.0618 -0.2757
C45 C 0.5162(3) 0.02136(19) -0.32943(18)
H30 H 0.4904 -0.0242 -0.3590
C46 C 0.4393(3) 0.11166(19) -0.33543(16)
H31 H 0.3620 0.1268 -0.3687
C47 C 0.4794(3) 0.17904(17) -0.29109(15)
N4 N 0.2790(4) 0.6154(3) 0.9915(2)
C48 C 0.3492(4) 0.5778(2) 0.9324(2)
C49 C 0.4393(4) 0.5306(2) 0.8567(2)
H32 H 0.3724 0.5077 0.8256
H33 H 0.5093 0.4796 0.8766
H34 H 0.4959 0.5730 0.8177
N5 N 0.8397(3) 0.6276(2) 0.44724(18)
C50 C 0.9233(3) 0.6740(2) 0.45702(18)
C51 C 1.0286(4) 0.7335(2) 0.47028(19)
H35 H 0.9783 0.7753 0.5151
H36 H 1.0605 0.7684 0.4157
H37 H 1.1167 0.6963 0.4888
loop_
_geom_bond_atom_site_label_1
_geom_bond_atom_site_label_2
_geom_bond_site_symmetry_1
_geom_bond_site_symmetry_2
O1 C1 1_555 1_555
O2 C7 1_555 1_555
N1 C2 1_555 1_555
N2 H1 1_555 1_555
N3 H2 1_555 1_555
C1 N2 1_555 1_555
C2 C1 1_555 1_555
C3 C2 1_555 1_555
H3 C3 1_555 1_555
C4 C3 1_555 1_555
H4 C4 1_555 1_555
C5 C4 1_555 1_555
H5 C5 1_555 1_555
C6 N1 1_555 1_555
C7 N3 1_555 1_555
C8 N2 1_555 1_555
C9 C8 1_555 1_555
C10 C9 1_555 1_555
H6 C10 1_555 1_555
C11 C10 1_555 1_555
H7 C11 1_555 1_555
C12 C11 1_555 1_555
H8 C12 1_555 1_555
C13 C12 1_555 1_555
H9 C13 1_555 1_555
C14 C9 1_555 1_555
C15 C14 1_555 1_555
H10 C15 1_555 1_555
C16 C8 1_555 1_555
C17 C16 1_555 1_555
H11 C17 1_555 1_555
C18 C17 1_555 1_555
H12 C18 1_555 1_555
C19 C18 1_555 1_555
H13 C19 1_555 1_555
C20 C19 1_555 1_555
H14 C20 1_555 1_555
C21 C15 1_555 1_555
C22 C8 1_555 1_555
C23 C22 1_555 1_555
H15 C23 1_555 1_555
C24 C23 1_555 1_555
H16 C24 1_555 1_555
C25 C24 1_555 1_555
H17 C25 1_555 1_555
C26 C25 1_555 1_555
H18 C26 1_555 1_555
C27 C15 1_555 1_555
C28 N3 1_555 1_555
C29 C28 1_555 1_555
C30 C29 1_555 1_555
H19 C30 1_555 1_555
C31 C30 1_555 1_555
H20 C31 1_555 1_555
C32 C31 1_555 1_555
H21 C32 1_555 1_555
C33 C32 1_555 1_555
H22 C33 1_555 1_555
C34 C29 1_555 1_555
C35 C34 1_555 1_555
H23 C35 1_555 1_555
C36 C28 1_555 1_555
C37 C35 1_555 1_555
C38 C37 1_555 1_555
H24 C38 1_555 1_555
C39 C38 1_555 1_555
H25 C39 1_555 1_555
C40 C39 1_555 1_555
H26 C40 1_555 1_555
C41 C36 1_555 1_555
H27 C41 1_555 1_555
C42 C28 1_555 1_555
C43 C42 1_555 1_555
H28 C43 1_555 1_555
C44 C43 1_555 1_555
H29 C44 1_555 1_555
C45 C44 1_555 1_555
H30 C45 1_555 1_555
C46 C45 1_555 1_555
H31 C46 1_555 1_555
C47 C35 1_555 1_555
N4 C48 1_555 1_555
C48 C49 1_555 1_555
C49 H32 1_555 1_555
H33 C49 1_555 1_555
H34 C49 1_555 1_555
N5 C50 1_555 1_555
C50 C51 1_555 1_555
C51 H35 1_555 1_555
H36 C51 1_555 1_555
H37 C51 1_555 1_555
C5 C6 1_555 1_555
C6 C7 1_555 1_555
C13 C14 1_555 1_555
C16 C21 1_555 1_555
C20 C21 1_555 1_555
C22 C27 1_555 1_555
C26 C27 1_555 1_555
C33 C34 1_555 1_555
C36 C37 1_555 1_555
C40 C41 1_555 1_555
C42 C47 1_555 1_555
C46 C47 1_555 1_555

#END
