
#######################################################################
#
#                 Cambridge Crystallographic Data Centre
#                                CCDC 
#
#######################################################################
#
# If this CIF has been generated from an entry in the Cambridge 
# Structural Database, then it will include bibliographic, chemical, 
# crystal, experimental, refinement or atomic coordinate data resulting 
# from the CCDC's data processing and validation procedures.
#
#######################################################################

data_CACHOG
_chemical_formula_moiety         'C55 H47 N3 O2,C1 H4 O1'
_chemical_name_systematic        
"N,N'-bis(4,5,11,12-tetramethylpentacyclo[6.6.6.0^2,7^.0^9,14^.0^15,20^]icosa-2,4,6,9,11,13,15,17,19-nonaen-1-yl)pyridine-2,6-dicarboxamide methanol solvate"
_symmetry_cell_setting           monoclinic
_symmetry_space_group_name_H-M   'P 21/n'
_symmetry_Int_Tables_number      14
_space_group_name_Hall           '-P 2yn'
loop_
_symmetry_equiv_pos_site_id
_symmetry_equiv_pos_as_xyz
1 x,y,z
2 1/2-x,1/2+y,1/2-z
3 -x,-y,-z
4 1/2+x,1/2-y,1/2+z
_cell_length_a                   16.874(3)
_cell_length_b                   11.312(2)
_cell_length_c                   23.571(5)
_cell_angle_alpha                90
_cell_angle_beta                 97.27(3)
_cell_angle_gamma                90
_cell_volume                     4463.03
_exptl_crystal_colour            colorless
_exptl_crystal_description       block
_cell_formula_units_Z            4
loop_
_atom_site_label
_atom_site_type_symbol
_atom_site_fract_x
_atom_site_fract_y
_atom_site_fract_z
O1 O 0.25998(15) -0.0268(2) 0.22641(10)
O2 O 0.40418(15) 0.0815(3) 0.51132(10)
N1 N 0.31752(16) 0.0497(2) 0.36784(11)
N2 N 0.21132(17) 0.1165(3) 0.28121(11)
H1 H 0.2216 0.1580 0.3118
N3 N 0.27493(17) 0.0912(3) 0.46994(12)
H2 H 0.2452 0.0929 0.4375
C1 C -0.0339(2) 0.0851(5) 0.39915(18)
H3 H -0.0613 0.1509 0.3779
H4 H -0.0736 0.0304 0.4112
H5 H -0.0004 0.0434 0.3746
C2 C 0.0178(2) 0.1323(5) 0.45121(17)
C3 C 0.1000(2) 0.1166(4) 0.45613(15)
H6 H 0.1229 0.0772 0.4266
C4 C 0.1493(2) 0.1579(4) 0.50399(15)
C5 C 0.1165(2) 0.2160(4) 0.54836(17)
C6 C 0.0352(3) 0.2341(5) 0.54271(19)
H7 H 0.0126 0.2751 0.5720
C7 C -0.0154(2) 0.1932(5) 0.49452(19)
C8 C -0.1046(3) 0.2139(6) 0.4902(2)
H8 H -0.1231 0.2527 0.4538
H9 H -0.1162 0.2644 0.5219
H10 H -0.1320 0.1379 0.4922
C9 C 0.1783(3) 0.2488(4) 0.59913(17)
H11 H 0.1537 0.2872 0.6309
C10 C 0.2194(2) 0.1342(4) 0.61704(16)
C11 C 0.2227(3) 0.0808(5) 0.67037(18)
H12 H 0.2009 0.1201 0.7005
C12 C 0.2577(3) -0.0300(5) 0.67990(17)
C13 C 0.2922(3) -0.0872(4) 0.63578(19)
C14 C 0.2888(3) -0.0319(4) 0.58249(16)
H13 H 0.3109 -0.0702 0.5523
C15 C 0.2534(2) 0.0781(4) 0.57313(15)
C16 C 0.2588(4) -0.0876(6) 0.7376(2)
H14 H 0.2270 -0.1604 0.7337
H15 H 0.2360 -0.0333 0.7637
H16 H 0.3139 -0.1067 0.7531
C17 C 0.3302(5) -0.2044(6) 0.6440(3)
H17 H 0.2900 -0.2630 0.6516
H18 H 0.3725 -0.2014 0.6765
H19 H 0.3531 -0.2267 0.6094
C18 C 0.2406(2) 0.1466(4) 0.51674(15)
C19 C 0.2721(2) 0.2729(4) 0.52956(15)
C20 C 0.3231(2) 0.3337(4) 0.50031(17)
H20 H 0.3429 0.2984 0.4684
C21 C 0.3464(3) 0.4477(4) 0.5170(2)
H21 H 0.3826 0.4903 0.4969
C22 C 0.3164(4) 0.4978(5) 0.5629(2)
H22 H 0.3328 0.5753 0.5747
C23 C 0.2641(3) 0.4392(4) 0.5917(2)
H23 H 0.2442 0.4760 0.6233
C24 C 0.2396(3) 0.3272(4) 0.57572(17)
C25 C 0.3535(2) 0.0732(3) 0.46914(15)
C26 C 0.3765(2) 0.0418(3) 0.41119(14)
C27 C 0.4537(2) 0.0108(3) 0.40392(15)
H24 H 0.4945 0.0083 0.4356
C28 C 0.4704(2) -0.0166(3) 0.34940(16)
H25 H 0.5228 -0.0395 0.3433
C29 C 0.4099(2) -0.0103(3) 0.30372(15)
H26 H 0.4196 -0.0293 0.2660
C30 C 0.3346(2) 0.0249(3) 0.31530(14)
C31 C 0.2652(2) 0.0355(3) 0.26913(14)
C32 C 0.1289(2) 0.1256(3) 0.25403(14)
C33 C 0.1194(2) 0.1574(3) 0.19056(14)
C34 C 0.1798(2) 0.1840(3) 0.15828(14)
H27 H 0.2339 0.1811 0.1753
C35 C 0.1619(2) 0.2150(4) 0.10064(15)
C36 C 0.0827(2) 0.2177(4) 0.07539(15)
C37 C 0.0214(2) 0.1932(3) 0.10874(15)
H28 H -0.0328 0.1966 0.0921
C38 C 0.0399(2) 0.1638(3) 0.16595(15)
C39 C 0.2296(3) 0.2433(5) 0.06748(17)
H29 H 0.2236 0.3243 0.0527
H30 H 0.2292 0.1880 0.0355
H31 H 0.2803 0.2363 0.0926
C40 C 0.0608(3) 0.2488(4) 0.01340(16)
H32 H 0.0738 0.3319 0.0074
H33 H 0.0034 0.2363 0.0025
H34 H 0.0908 0.1985 -0.0101
C41 C -0.0190(2) 0.1427(4) 0.20886(15)
H35 H -0.0760 0.1497 0.1916
C42 C 0.0036(2) 0.2299(3) 0.25725(15)
C43 C -0.0459(2) 0.3113(4) 0.27851(17)
H36 H -0.0997 0.3190 0.2612
C44 C -0.0175(2) 0.3831(4) 0.32563(18)
C45 C 0.0607(2) 0.3725(4) 0.35089(16)
C46 C 0.1110(2) 0.2914(3) 0.32840(15)
H37 H 0.1652 0.2849 0.3450
C47 C 0.0831(2) 0.2211(3) 0.28264(14)
C48 C -0.0742(3) 0.4673(5) 0.3493(2)
H38 H -0.0779 0.4474 0.3893
H39 H -0.1271 0.4609 0.3270
H40 H -0.0543 0.5483 0.3469
C49 C 0.0946(3) 0.4457(5) 0.40299(19)
H41 H 0.0694 0.4210 0.4363
H42 H 0.0836 0.5296 0.3953
H43 H 0.1524 0.4333 0.4107
C50 C 0.0013(2) 0.0212(4) 0.23502(15)
C51 C -0.0508(3) -0.0720(4) 0.23803(17)
H44 H -0.1046 -0.0665 0.2206
C52 C -0.0233(3) -0.1746(4) 0.26716(19)
H45 H -0.0585 -0.2395 0.2691
C53 C 0.0544(3) -0.1825(4) 0.29312(18)
H46 H 0.0721 -0.2522 0.3134
C54 C 0.1068(2) -0.0892(4) 0.28977(15)
H47 H 0.1605 -0.0949 0.3074
C55 C 0.0805(2) 0.0120(3) 0.26062(14)
O3 O 0.31707(18) 0.3207(3) 0.35347(12)
H48 H 0.2999 0.3767 0.3319
C56 C 0.4011(3) 0.3349(4) 0.36287(17)
H49 H 0.4239 0.2794 0.3924
H50 H 0.4140 0.4161 0.3754
H51 H 0.4236 0.3192 0.3273
loop_
_geom_bond_atom_site_label_1
_geom_bond_atom_site_label_2
_geom_bond_site_symmetry_1
_geom_bond_site_symmetry_2
O1 C31 1_555 1_555
O2 C25 1_555 1_555
N1 C26 1_555 1_555
N2 H1 1_555 1_555
N3 H2 1_555 1_555
C1 H3 1_555 1_555
H4 C1 1_555 1_555
H5 C1 1_555 1_555
C2 C1 1_555 1_555
C3 C2 1_555 1_555
H6 C3 1_555 1_555
C4 C3 1_555 1_555
C5 C4 1_555 1_555
C6 C5 1_555 1_555
H7 C6 1_555 1_555
C7 C2 1_555 1_555
C8 C7 1_555 1_555
H8 C8 1_555 1_555
H9 C8 1_555 1_555
H10 C8 1_555 1_555
C9 C5 1_555 1_555
H11 C9 1_555 1_555
C10 C9 1_555 1_555
C11 C10 1_555 1_555
H12 C11 1_555 1_555
C12 C11 1_555 1_555
C13 C12 1_555 1_555
C14 C13 1_555 1_555
H13 C14 1_555 1_555
C15 C10 1_555 1_555
C16 C12 1_555 1_555
H14 C16 1_555 1_555
H15 C16 1_555 1_555
H16 C16 1_555 1_555
C17 C13 1_555 1_555
H17 C17 1_555 1_555
H18 C17 1_555 1_555
H19 C17 1_555 1_555
C18 N3 1_555 1_555
C19 C18 1_555 1_555
C20 C19 1_555 1_555
H20 C20 1_555 1_555
C21 C20 1_555 1_555
H21 C21 1_555 1_555
C22 C21 1_555 1_555
H22 C22 1_555 1_555
C23 C22 1_555 1_555
H23 C23 1_555 1_555
C24 C9 1_555 1_555
C25 N3 1_555 1_555
C26 C25 1_555 1_555
C27 C26 1_555 1_555
H24 C27 1_555 1_555
C28 C27 1_555 1_555
H25 C28 1_555 1_555
C29 C28 1_555 1_555
H26 C29 1_555 1_555
C30 N1 1_555 1_555
C31 N2 1_555 1_555
C32 N2 1_555 1_555
C33 C32 1_555 1_555
C34 C33 1_555 1_555
H27 C34 1_555 1_555
C35 C34 1_555 1_555
C36 C35 1_555 1_555
C37 C36 1_555 1_555
H28 C37 1_555 1_555
C38 C33 1_555 1_555
C39 C35 1_555 1_555
H29 C39 1_555 1_555
H30 C39 1_555 1_555
H31 C39 1_555 1_555
C40 C36 1_555 1_555
H32 C40 1_555 1_555
H33 C40 1_555 1_555
H34 C40 1_555 1_555
C41 C38 1_555 1_555
H35 C41 1_555 1_555
C42 C41 1_555 1_555
C43 C42 1_555 1_555
H36 C43 1_555 1_555
C44 C43 1_555 1_555
C45 C44 1_555 1_555
C46 C45 1_555 1_555
H37 C46 1_555 1_555
C47 C32 1_555 1_555
C48 C44 1_555 1_555
H38 C48 1_555 1_555
H39 C48 1_555 1_555
H40 C48 1_555 1_555
C49 C45 1_555 1_555
H41 C49 1_555 1_555
H42 C49 1_555 1_555
H43 C49 1_555 1_555
C50 C41 1_555 1_555
C51 C50 1_555 1_555
H44 C51 1_555 1_555
C52 C51 1_555 1_555
H45 C52 1_555 1_555
C53 C52 1_555 1_555
H46 C53 1_555 1_555
C54 C53 1_555 1_555
H47 C54 1_555 1_555
C55 C32 1_555 1_555
O3 H48 1_555 1_555
C56 O3 1_555 1_555
H49 C56 1_555 1_555
H50 C56 1_555 1_555
H51 C56 1_555 1_555
C4 C18 1_555 1_555
C6 C7 1_555 1_555
C14 C15 1_555 1_555
C15 C18 1_555 1_555
C19 C24 1_555 1_555
C23 C24 1_555 1_555
C29 C30 1_555 1_555
C30 C31 1_555 1_555
C37 C38 1_555 1_555
C42 C47 1_555 1_555
C46 C47 1_555 1_555
C50 C55 1_555 1_555
C54 C55 1_555 1_555

#END
