
#######################################################################
#
#                 Cambridge Crystallographic Data Centre
#                                CCDC 
#
#######################################################################
#
# If this CIF has been generated from an entry in the Cambridge 
# Structural Database, then it will include bibliographic, chemical, 
# crystal, experimental, refinement or atomic coordinate data resulting 
# from the CCDC's data processing and validation procedures.
#
#######################################################################

data_CACNIF
_chemical_formula_moiety         'C18 H20 Br1 N3 O3 S1'
_chemical_name_systematic        
'Ethyl 4-(4-bromophenyl)-6-methyl-2-(morpholin-4-ylsulfanyl)pyrimidine-5-carboxylate'
_symmetry_cell_setting           monoclinic
_symmetry_space_group_name_H-M   'P 21/n'
_symmetry_Int_Tables_number      14
_space_group_name_Hall           '-P 2yn'
loop_
_symmetry_equiv_pos_site_id
_symmetry_equiv_pos_as_xyz
1 x,y,z
2 1/2-x,1/2+y,1/2-z
3 -x,-y,-z
4 1/2+x,1/2-y,1/2+z
_cell_length_a                   5.457(5)
_cell_length_b                   17.110(2)
_cell_length_c                   21.550(3)
_cell_angle_alpha                90
_cell_angle_beta                 94.560(14)
_cell_angle_gamma                90
_cell_volume                     2005.74
_exptl_crystal_colour            colorless
_exptl_crystal_description       block
_cell_formula_units_Z            4
loop_
_atom_site_label
_atom_site_type_symbol
_atom_site_fract_x
_atom_site_fract_y
_atom_site_fract_z
Br1 Br 1.04587(11) -0.09426(4) 0.15213(3)
S1 S -0.0323(3) 0.23934(8) 0.34393(6)
N1 N 0.2841(7) 0.1816(2) 0.26411(15)
C1 C 0.3171(9) 0.2441(3) 0.1657(2)
N2 N 0.0588(8) 0.2995(2) 0.23817(18)
C2 C 0.1240(9) 0.2387(3) 0.2744(2)
C3 C 0.6545(9) -0.0176(3) 0.2078(2)
H1 H 0.6233 -0.0668 0.2238
O1 O 0.5389(8) 0.2931(3) 0.08187(18)
C4 C 0.8502(8) -0.0068(3) 0.1703(2)
C5 C 0.3818(8) 0.1838(3) 0.20831(19)
C6 C 0.5087(9) 0.0451(3) 0.2205(2)
H2 H 0.3799 0.0382 0.2457
C7 C 0.1594(9) 0.3030(3) 0.1834(2)
O2 O 0.2958(7) 0.1887(2) 0.06736(15)
C8 C 0.5520(8) 0.1196(3) 0.19578(19)
C9 C 0.4012(10) 0.2457(3) 0.1010(2)
N3 N 0.0499(7) 0.1604(2) 0.38539(16)
O3 O 0.2333(8) 0.0200(2) 0.43987(17)
C10 C -0.0327(9) 0.0837(3) 0.3603(2)
H3 H 0.0684 0.0678 0.3275
H4 H -0.2019 0.0871 0.3430
C11 C 0.7521(9) 0.1285(3) 0.1605(2)
H5 H 0.7869 0.1776 0.1449
C12 C 0.9014(9) 0.0658(3) 0.1479(2)
H6 H 1.0353 0.0730 0.1244
C13 C -0.0112(12) 0.0249(3) 0.4127(3)
H7 H -0.1194 0.0400 0.4442
H8 H -0.0631 -0.0260 0.3968
C14 C 0.3071(11) 0.0932(3) 0.4655(2)
H9 H 0.4730 0.0891 0.4851
H10 H 0.1995 0.1076 0.4974
C15 C 0.2992(10) 0.1558(3) 0.4165(2)
H11 H 0.3440 0.2057 0.4355
H12 H 0.4161 0.1438 0.3862
C16 C 0.0809(11) 0.3713(3) 0.1422(3)
H13 H -0.0669 0.3936 0.1559
H14 H 0.0512 0.3536 0.1000
H15 H 0.2085 0.4100 0.1445
C17 C 0.3606(17) 0.1835(5) 0.0031(3)
H16 H 0.2132 0.1883 -0.0249
H17 H 0.4699 0.2262 -0.0054
C18 C 0.475(2) 0.1125(6) -0.0074(4)
H18 H 0.6492 0.1176 0.0026
H19 H 0.4448 0.0983 -0.0504
H20 H 0.4112 0.0728 0.0183
loop_
_geom_bond_atom_site_label_1
_geom_bond_atom_site_label_2
_geom_bond_site_symmetry_1
_geom_bond_site_symmetry_2
Br1 C4 1_555 1_555
S1 C2 1_555 1_555
N1 C2 1_555 1_555
C1 C5 1_555 1_555
N2 C2 1_555 1_555
C3 H1 1_555 1_555
O1 C9 1_555 1_555
C4 C3 1_555 1_555
C5 N1 1_555 1_555
C6 C3 1_555 1_555
H2 C6 1_555 1_555
C7 C1 1_555 1_555
O2 C9 1_555 1_555
C8 C5 1_555 1_555
C9 C1 1_555 1_555
N3 S1 1_555 1_555
O3 C13 1_555 1_555
C10 N3 1_555 1_555
H3 C10 1_555 1_555
H4 C10 1_555 1_555
C11 C8 1_555 1_555
H5 C11 1_555 1_555
C12 C4 1_555 1_555
H6 C12 1_555 1_555
C13 C10 1_555 1_555
H7 C13 1_555 1_555
H8 C13 1_555 1_555
C14 O3 1_555 1_555
H9 C14 1_555 1_555
H10 C14 1_555 1_555
C15 N3 1_555 1_555
H11 C15 1_555 1_555
H12 C15 1_555 1_555
C16 C7 1_555 1_555
H13 C16 1_555 1_555
H14 C16 1_555 1_555
H15 C16 1_555 1_555
C17 O2 1_555 1_555
H16 C17 1_555 1_555
H17 C17 1_555 1_555
C18 C17 1_555 1_555
H18 C18 1_555 1_555
H19 C18 1_555 1_555
H20 C18 1_555 1_555
N2 C7 1_555 1_555
C6 C8 1_555 1_555
C11 C12 1_555 1_555
C14 C15 1_555 1_555

#END
