
#######################################################################
#
#                 Cambridge Crystallographic Data Centre
#                                CCDC 
#
#######################################################################
#
# If this CIF has been generated from an entry in the Cambridge 
# Structural Database, then it will include bibliographic, chemical, 
# crystal, experimental, refinement or atomic coordinate data resulting 
# from the CCDC's data processing and validation procedures.
#
#######################################################################

data_CACNOJ10
_chemical_formula_moiety         'C38 H48 N8 O8,2(H2 O1)'
_chemical_name_systematic        
'cyclo-bis(D-Alanyl-glycyl-L-prolyl-L-phenylalanine) dihydrate'
_symmetry_cell_setting           orthorhombic
_symmetry_space_group_name_H-M   'P 21 21 21'
_symmetry_Int_Tables_number      19
_space_group_name_Hall           'P 2ac 2ab'
loop_
_symmetry_equiv_pos_site_id
_symmetry_equiv_pos_as_xyz
1 x,y,z
2 1/2+x,1/2-y,-z
3 -x,1/2+y,1/2-z
4 1/2-x,-y,1/2+z
_cell_length_a                   28.412(2)
_cell_length_b                   17.036(2)
_cell_length_c                   8.959(1)
_cell_angle_alpha                90
_cell_angle_beta                 90
_cell_angle_gamma                90
_cell_volume                     4336.4
_cell_formula_units_Z            4
loop_
_atom_site_label
_atom_site_type_symbol
_atom_site_fract_x
_atom_site_fract_y
_atom_site_fract_z
N1 N 0.5358(2) 0.8703(3) 0.3048(7)
C1 C 0.5295(2) 0.9467(4) 0.2264(8)
C2 C 0.5549(4) 0.9446(5) 0.0802(10)
C3 C 0.5500(2) 1.0136(3) 0.3258(7)
O1 O 0.5842(2) 1.0010(3) 0.4083(8)
N2 N 0.5316(2) 1.0814(3) 0.3001(7)
C4 C 0.5457(2) 1.1517(4) 0.3752(9)
C5 C 0.5831(2) 1.2017(3) 0.2914(9)
O2 O 0.6039(2) 1.1772(3) 0.1790(5)
N3 N 0.5902(2) 1.2743(3) 0.3494(7)
C6 C 0.6185(2) 1.3278(3) 0.2642(8)
C7 C 0.6110(3) 1.4036(4) 0.3462(17)
C8 C 0.5940(4) 1.3806(6) 0.4993(15)
C9 C 0.5665(3) 1.3111(4) 0.4779(11)
C10 C 0.6693(2) 1.3083(3) 0.2566(7)
O3 O 0.6942(2) 1.3365(3) 0.1607(8)
N4 N 0.6871(2) 1.2630(3) 0.3677(6)
C11 C 0.7363(2) 1.2390(3) 0.3740(7)
C12 C 0.7556(3) 1.2449(4) 0.5343(1)
C13 C 0.7571(2) 1.3263(4) 0.5933(9)
C14 C 0.7903(4) 1.3811(6) 0.5438(11)
C15 C 0.7906(5) 1.4588(5) 0.6091(13)
C16 C 0.7570(5) 1.4743(8) 0.7154(19)
C17 C 0.7272(6) 1.4271(9) 0.7573(20)
C18 C 0.7264(4) 1.3525(8) 0.6992(20)
C19 C 0.7445(3) 1.1561(4) 0.3141(12)
O4 O 0.7820(2) 1.1262(3) 0.3244(14)
N5 N 0.7094(2) 1.1228(3) 0.2351(6)
C20 C 0.7139(3) 1.0459(3) 0.1750(8)
C21 C 0.6798(4) 1.0365(5) 0.0469(11)
C22 C 0.7055(2) 0.9876(3) 0.3051(9)
O5 O 0.6983(3) 1.0067(3) 0.4300(7)
N6 N 0.7083(3) 0.9142(3) 0.2608(8)
C23 C 0.7033(3) 0.8493(4) 0.3680(12)
C24 C 0.6649(2) 0.7927(3) 0.3275(8)
O6 O 0.6391(2) 0.8038(3) 0.2253(6)
N7 N 0.6624(2) 0.7303(3) 0.4183(7)
C25 C 0.6303(2) 0.6621(3) 0.3858(8)
C26 C 0.6456(3) 0.6001(4) 0.4908(11)
C27 C 0.6669(3) 0.6418(5) 0.6229(10)
C28 C 0.6919(3) 0.7139(3) 0.5501(11)
C29 C 0.5777(2) 0.6810(3) 0.3982(7)
O7 O 0.5499(2) 0.6345(3) 0.3460(6)
N8 N 0.5658(2) 0.7480(2) 0.4676(5)
C30 C 0.5176(2) 0.7713(3) 0.4938(7)
C31 C 0.5030(3) 0.7782(4) 0.6526(9)
C32 C 0.5179(3) 0.7055(7) 0.7350(9)
C33 C 0.5504(4) 0.7086(7) 0.8487(12)
C34 C 0.5627(5) 0.6312(12) 0.9320(10)
C35 C 0.5427(7) 0.5704(8) 0.8812(21)
C36 C 0.5116(9) 0.5613(7) 0.7878(19)
C37 C 0.4999(4) 0.6334(6) 0.7203(11)
C38 C 0.5060(2) 0.8467(3) 0.4097(8)
O8 O 0.4711(2) 0.8853(3) 0.4481(8)
H1 H 0.4946 0.9532 0.2108
H2 H 0.5495 0.9914 0.0253
H3 H 0.5868 0.9364 0.0962
H4 H 0.5429 0.9011 0.0183
H5 H 0.5618 0.8390 0.2813
H6 H 0.5066 1.0887 0.2260
H7 H 0.5597 1.1335 0.4689
H8 H 0.5192 1.1819 0.3986
H9 H 0.6122 1.3304 0.1587
H10 H 0.5874 1.4342 0.2995
H11 H 0.6397 1.4350 0.3490
H12 H 0.5800 1.4236 0.5475
H13 H 0.6239 1.3700 0.5608
H14 H 0.5346 1.3236 0.4559
H15 H 0.5665 1.2764 0.5641
H16 H 0.6666 1.2451 0.4496
H17 H 0.7538 1.2728 0.3086
H18 H 0.7855 1.2195 0.5422
H19 H 0.7342 1.2145 0.6003
H20 H 0.8145 1.3638 0.4693
H21 H 0.8133 1.4966 0.5737
H22 H 0.7529 1.5280 0.7587
H23 H 0.7083 1.4281 0.8624
H24 H 0.7036 1.3090 0.7231
H25 H 0.6803 1.1517 0.2158
H26 H 0.7443 1.0376 0.1304
H27 H 0.6812 0.9885 0.0046
H28 H 0.6479 1.0455 0.0884
H29 H 0.7129 0.8999 0.1536
H30 H 0.7335 0.8243 0.3741
H31 H 0.6974 0.8748 0.4617
H32 H 0.6320 0.6475 0.2819
H33 H 0.6696 0.5643 0.4421
H34 H 0.6209 0.5648 0.5204
H35 H 0.6910 0.6093 0.6737
H36 H 0.6445 0.6561 0.6927
H37 H 0.6920 0.7585 0.6182
H38 H 0.7238 0.7041 0.5226
H39 H 0.5908 0.7816 0.5076
H40 H 0.4976 0.7305 0.4509
H41 H 0.4699 0.7936 0.6691
H42 H 0.5197 0.8275 0.6997
H43 H 0.5696 0.7549 0.8768
H44 H 0.5779 0.6267 1.0327
H45 H 0.5649 0.5241 0.9166
H46 H 0.5019 0.5111 0.7747
H47 H 0.4701 0.6267 0.6530
H48 H 0.6843 1.0781 0.0247
O9 O 0.6495(3) 1.1413(5) 0.5822(20)
O10 O 0.6135(2) 0.8839(3) 0.5993(9)
loop_
_geom_bond_atom_site_label_1
_geom_bond_atom_site_label_2
_geom_bond_site_symmetry_1
_geom_bond_site_symmetry_2
N1 C1 1_555 1_555
C1 C2 1_555 1_555
C2 H2 1_555 1_555
C3 C1 1_555 1_555
O1 C3 1_555 1_555
N2 C3 1_555 1_555
C4 N2 1_555 1_555
C5 C4 1_555 1_555
O2 C5 1_555 1_555
N3 C5 1_555 1_555
C6 N3 1_555 1_555
C7 C6 1_555 1_555
C8 C7 1_555 1_555
C9 N3 1_555 1_555
C10 C6 1_555 1_555
O3 C10 1_555 1_555
N4 C10 1_555 1_555
C11 N4 1_555 1_555
C12 C11 1_555 1_555
C13 C12 1_555 1_555
C14 C13 1_555 1_555
C15 C14 1_555 1_555
C16 C15 1_555 1_555
C17 C16 1_555 1_555
C18 C13 1_555 1_555
C19 C11 1_555 1_555
O4 C19 1_555 1_555
N5 C19 1_555 1_555
C20 N5 1_555 1_555
C21 C20 1_555 1_555
C22 C20 1_555 1_555
O5 C22 1_555 1_555
N6 C22 1_555 1_555
C23 N6 1_555 1_555
C24 C23 1_555 1_555
O6 C24 1_555 1_555
N7 C24 1_555 1_555
C25 N7 1_555 1_555
C26 C25 1_555 1_555
C27 C26 1_555 1_555
C28 N7 1_555 1_555
C29 C25 1_555 1_555
O7 C29 1_555 1_555
N8 C29 1_555 1_555
C30 N8 1_555 1_555
C31 C30 1_555 1_555
C32 C31 1_555 1_555
C33 C32 1_555 1_555
C34 C33 1_555 1_555
C35 C34 1_555 1_555
C36 C35 1_555 1_555
C37 C32 1_555 1_555
C38 N1 1_555 1_555
O8 C38 1_555 1_555
H1 C1 1_555 1_555
H3 C2 1_555 1_555
H4 C2 1_555 1_555
H5 N1 1_555 1_555
H6 N2 1_555 1_555
H7 C4 1_555 1_555
H8 C4 1_555 1_555
H9 C6 1_555 1_555
H10 C7 1_555 1_555
H11 C7 1_555 1_555
H12 C8 1_555 1_555
H13 C8 1_555 1_555
H14 C9 1_555 1_555
H15 C9 1_555 1_555
H16 N4 1_555 1_555
H17 C11 1_555 1_555
H18 C12 1_555 1_555
H19 C12 1_555 1_555
H20 C14 1_555 1_555
H21 C15 1_555 1_555
H22 C16 1_555 1_555
H23 C17 1_555 1_555
H24 C18 1_555 1_555
H25 N5 1_555 1_555
H26 C20 1_555 1_555
H27 C21 1_555 1_555
H28 C21 1_555 1_555
H29 N6 1_555 1_555
H30 C23 1_555 1_555
H31 C23 1_555 1_555
H32 C25 1_555 1_555
H33 C26 1_555 1_555
H34 C26 1_555 1_555
H35 C27 1_555 1_555
H36 C27 1_555 1_555
H37 C28 1_555 1_555
H38 C28 1_555 1_555
H39 N8 1_555 1_555
H40 C30 1_555 1_555
H41 C31 1_555 1_555
H42 C31 1_555 1_555
H43 C33 1_555 1_555
H44 C34 1_555 1_555
H45 C35 1_555 1_555
H46 C36 1_555 1_555
H47 C37 1_555 1_555
H48 C21 1_555 1_555
C8 C9 1_555 1_555
C17 C18 1_555 1_555
C27 C28 1_555 1_555
C30 C38 1_555 1_555
C36 C37 1_555 1_555

#END
