
#######################################################################
#
#                 Cambridge Crystallographic Data Centre
#                                CCDC 
#
#######################################################################
#
# If this CIF has been generated from an entry in the Cambridge 
# Structural Database, then it will include bibliographic, chemical, 
# crystal, experimental, refinement or atomic coordinate data resulting 
# from the CCDC's data processing and validation procedures.
#
#######################################################################

data_CACWUA
_chemical_formula_moiety         'C25 H22 O7'
_chemical_name_systematic        
'Dimethyl 3-hydroxy-6-(2-hydroxybenzoyl)-4-(2-phenylethyl)phthalate'
_symmetry_cell_setting           monoclinic
_symmetry_space_group_name_H-M   'P 21'
_symmetry_Int_Tables_number      4
_space_group_name_Hall           'P 2yb'
loop_
_symmetry_equiv_pos_site_id
_symmetry_equiv_pos_as_xyz
1 x,y,z
2 -x,1/2+y,-z
_cell_length_a                   10.152(2)
_cell_length_b                   8.2423(16)
_cell_length_c                   12.511(3)
_cell_angle_alpha                90
_cell_angle_beta                 99.49(3)
_cell_angle_gamma                90
_cell_volume                     1032.54
_exptl_crystal_colour            'light yellow'
_exptl_crystal_description       prism
_cell_formula_units_Z            2
loop_
_atom_site_label
_atom_site_type_symbol
_atom_site_fract_x
_atom_site_fract_y
_atom_site_fract_z
C1 C 1.09553(17) 0.6565(2) 1.23809(14)
C2 C 1.0267(2) 0.6117(3) 1.32095(16)
H1 H 1.0605 0.6414 1.3937
C3 C 0.9105(2) 0.5251(3) 1.29789(17)
H2 H 0.8644 0.4955 1.3551
C4 C 0.85851(18) 0.4797(2) 1.19231(17)
H3 H 0.7774 0.4202 1.1774
C5 C 0.92606(16) 0.5219(2) 1.10960(15)
H4 H 0.8913 0.4902 1.0375
C6 C 1.04581(16) 0.6113(2) 1.13014(14)
C7 C 1.12557(15) 0.6464(2) 1.04532(13)
C8 C 1.08425(16) 0.5949(2) 0.93019(14)
C9 C 1.17652(16) 0.5143(2) 0.87867(13)
C10 C 1.14616(16) 0.4797(2) 0.76752(14)
C11 C 1.02383(17) 0.5334(2) 0.70878(14)
C12 C 0.92959(16) 0.6149(2) 0.76004(14)
C13 C 0.96109(16) 0.6425(2) 0.86981(14)
H5 H 0.8977 0.6954 0.9058
C14 C 1.30300(16) 0.4559(2) 0.94801(14)
C15 C 1.53374(17) 0.4878(3) 0.99858(18)
H6 H 1.5588 0.3827 0.9712
H7 H 1.5222 0.4764 1.0745
H8 H 1.6042 0.5673 0.9934
C16 C 1.23478(17) 0.3836(2) 0.70822(14)
C17 C 1.42809(19) 0.2216(3) 0.71861(18)
H9 H 1.4602 0.2881 0.6633
H10 H 1.3814 0.1261 0.6844
H11 H 1.5041 0.1866 0.7724
C18 C 0.79978(17) 0.6650(3) 0.69137(15)
H12 H 0.7514 0.5660 0.6623
H13 H 0.8202 0.7285 0.6289
C19 C 0.70811(16) 0.7649(2) 0.74965(14)
H14 H 0.6881 0.7036 0.8131
H15 H 0.7539 0.8667 0.7764
C20 C 0.57890(16) 0.8053(2) 0.67568(13)
C21 C 0.57738(18) 0.9085(2) 0.58810(15)
H16 H 0.6579 0.9591 0.5766
C22 C 0.46015(18) 0.9390(2) 0.51701(15)
H17 H 0.4607 1.0103 0.4574
C23 C 0.34235(18) 0.8656(2) 0.53291(15)
H18 H 0.2621 0.8845 0.4836
C24 C 0.34218(17) 0.7650(2) 0.62073(16)
H19 H 0.2613 0.7155 0.6325
C25 C 0.45962(17) 0.7354(2) 0.69230(15)
H20 H 0.4582 0.6668 0.7531
O1 O 1.20987(13) 0.73981(18) 1.26566(11)
O2 O 1.23389(11) 0.71742(17) 1.06782(10)
O3 O 1.30277(12) 0.34531(16) 1.01026(10)
O4 O 1.40961(11) 0.54225(15) 0.93453(10)
O5 O 1.21487(13) 0.36713(18) 0.61022(10)
O6 O 1.33696(12) 0.31633(16) 0.77160(10)
O7 O 0.99020(13) 0.50870(18) 0.60131(10)
H21 H 1.242(2) 0.746(3) 1.208(2)
H22 H 1.058(3) 0.452(3) 0.581(2)
loop_
_geom_bond_atom_site_label_1
_geom_bond_atom_site_label_2
_geom_bond_site_symmetry_1
_geom_bond_site_symmetry_2
C1 C2 1_555 1_555
C2 H1 1_555 1_555
C3 C2 1_555 1_555
H2 C3 1_555 1_555
C4 C3 1_555 1_555
H3 C4 1_555 1_555
C5 C4 1_555 1_555
H4 C5 1_555 1_555
C6 C1 1_555 1_555
C7 C6 1_555 1_555
C8 C7 1_555 1_555
C9 C8 1_555 1_555
C10 C9 1_555 1_555
C11 C10 1_555 1_555
C12 C11 1_555 1_555
C13 C8 1_555 1_555
H5 C13 1_555 1_555
C14 C9 1_555 1_555
C15 H6 1_555 1_555
H7 C15 1_555 1_555
H8 C15 1_555 1_555
C16 C10 1_555 1_555
C17 H9 1_555 1_555
H10 C17 1_555 1_555
H11 C17 1_555 1_555
C18 C12 1_555 1_555
H12 C18 1_555 1_555
H13 C18 1_555 1_555
C19 C18 1_555 1_555
H14 C19 1_555 1_555
H15 C19 1_555 1_555
C20 C19 1_555 1_555
C21 C20 1_555 1_555
H16 C21 1_555 1_555
C22 C21 1_555 1_555
H17 C22 1_555 1_555
C23 C22 1_555 1_555
H18 C23 1_555 1_555
C24 C23 1_555 1_555
H19 C24 1_555 1_555
C25 C20 1_555 1_555
H20 C25 1_555 1_555
O1 C1 1_555 1_555
O2 C7 1_555 1_555
O3 C14 1_555 1_555
O4 C14 1_555 1_555
O5 C16 1_555 1_555
O6 C16 1_555 1_555
O7 C11 1_555 1_555
H21 O1 1_555 1_555
H22 O7 1_555 1_555
C5 C6 1_555 1_555
C12 C13 1_555 1_555
C15 O4 1_555 1_555
C17 O6 1_555 1_555
C24 C25 1_555 1_555

#END
