
#######################################################################
#
#                 Cambridge Crystallographic Data Centre
#                                CCDC 
#
#######################################################################
#
# If this CIF has been generated from an entry in the Cambridge 
# Structural Database, then it will include bibliographic, chemical, 
# crystal, experimental, refinement or atomic coordinate data resulting 
# from the CCDC's data processing and validation procedures.
#
#######################################################################

data_CACWAG
_chemical_formula_moiety         'C19 H16 O2'
_chemical_name_systematic        
1-Phenyl-1,2,5,6-tetrahydro-3H-benzo[f]chromen-3-one
_symmetry_cell_setting           orthorhombic
_symmetry_space_group_name_H-M   'P 21 21 21'
_symmetry_Int_Tables_number      19
_space_group_name_Hall           'P 2ac 2ab'
loop_
_symmetry_equiv_pos_site_id
_symmetry_equiv_pos_as_xyz
1 x,y,z
2 1/2-x,-y,1/2+z
3 1/2+x,1/2-y,-z
4 -x,1/2+y,1/2-z
_cell_length_a                   5.93500(10)
_cell_length_b                   14.0588(3)
_cell_length_c                   17.2947(5)
_cell_angle_alpha                90
_cell_angle_beta                 90
_cell_angle_gamma                90
_cell_volume                     1443.05
_exptl_crystal_colour            colorless
_exptl_crystal_description       prism
_chemical_melting_point          '432.4 K'
_cell_formula_units_Z            4
loop_
_atom_site_label
_atom_site_type_symbol
_atom_site_fract_x
_atom_site_fract_y
_atom_site_fract_z
O1 O 0.1428(3) -0.08533(12) 0.31627(9)
O2 O 0.0445(4) -0.12371(16) 0.19817(11)
C1 C 0.1958(5) -0.10029(19) 0.24027(14)
C2 C 0.4363(5) -0.09050(19) 0.21951(14)
H1 H 0.4507 -0.0892 0.1637
H2 H 0.5184 -0.1454 0.2385
C3 C 0.5408(5) 0.00024(16) 0.25343(13)
H3 H 0.7050 -0.0053 0.2491
C4 C 0.4680(4) 0.08780(17) 0.20779(12)
C5 C 0.5986(5) 0.1208(2) 0.14735(15)
H4 H 0.7341 0.0907 0.1360
C6 C 0.5310(7) 0.1984(2) 0.10312(16)
H5 H 0.6217 0.2202 0.0630
C7 C 0.3319(7) 0.2421(2) 0.11875(18)
H6 H 0.2856 0.2936 0.0890
C8 C 0.2002(6) 0.2107(2) 0.17778(17)
H7 H 0.0640 0.2407 0.1882
C9 C 0.2685(5) 0.13404(18) 0.22246(16)
H8 H 0.1778 0.1136 0.2630
C10 C 0.4822(4) 0.00471(16) 0.33821(13)
C11 C 0.2998(4) -0.03986(16) 0.36455(13)
C12 C 0.2241(5) -0.0404(2) 0.44677(14)
H9 H 0.1508 -0.1004 0.4583
H10 H 0.1157 0.0103 0.4550
C13 C 0.4244(5) -0.02666(19) 0.50032(14)
H11 H 0.3699 -0.0100 0.5514
H12 H 0.5056 -0.0863 0.5046
C14 C 0.5835(4) 0.04913(16) 0.47303(13)
C15 C 0.6150(4) 0.06160(16) 0.39325(12)
C16 C 0.7685(4) 0.13014(17) 0.36823(15)
H13 H 0.7901 0.1394 0.3155
C17 C 0.8885(5) 0.18442(19) 0.42017(15)
H14 H 0.9900 0.2299 0.4025
C18 C 0.8579(5) 0.17119(19) 0.49831(15)
H15 H 0.9396 0.2073 0.5336
C19 C 0.7064(5) 0.10455(18) 0.52399(13)
H16 H 0.6858 0.0964 0.5769
loop_
_geom_bond_atom_site_label_1
_geom_bond_atom_site_label_2
_geom_bond_site_symmetry_1
_geom_bond_site_symmetry_2
O1 C1 1_555 1_555
O2 C1 1_555 1_555
C1 C2 1_555 1_555
C2 H1 1_555 1_555
H2 C2 1_555 1_555
C3 C2 1_555 1_555
H3 C3 1_555 1_555
C4 C3 1_555 1_555
C5 C4 1_555 1_555
H4 C5 1_555 1_555
C6 C5 1_555 1_555
H5 C6 1_555 1_555
C7 C6 1_555 1_555
H6 C7 1_555 1_555
C8 C7 1_555 1_555
H7 C8 1_555 1_555
C9 C4 1_555 1_555
H8 C9 1_555 1_555
C10 C3 1_555 1_555
C11 O1 1_555 1_555
C12 C11 1_555 1_555
H9 C12 1_555 1_555
H10 C12 1_555 1_555
C13 C12 1_555 1_555
H11 C13 1_555 1_555
H12 C13 1_555 1_555
C14 C13 1_555 1_555
C15 C10 1_555 1_555
C16 C15 1_555 1_555
H13 C16 1_555 1_555
C17 C16 1_555 1_555
H14 C17 1_555 1_555
C18 C17 1_555 1_555
H15 C18 1_555 1_555
C19 C14 1_555 1_555
H16 C19 1_555 1_555
C8 C9 1_555 1_555
C10 C11 1_555 1_555
C14 C15 1_555 1_555
C18 C19 1_555 1_555

#END
