
#######################################################################
#
#                 Cambridge Crystallographic Data Centre
#                                CCDC 
#
#######################################################################
#
# If this CIF has been generated from an entry in the Cambridge 
# Structural Database, then it will include bibliographic, chemical, 
# crystal, experimental, refinement or atomic coordinate data resulting 
# from the CCDC's data processing and validation procedures.
#
#######################################################################

data_CACXIP
_chemical_formula_moiety         'C33 H45 Br1 O7'
_chemical_name_systematic        
'Dimethyl 6-(5-bromo-2-hydroxybenzoyl)-4-hexadecyl-3-hydroxyphthalate'
_symmetry_cell_setting           triclinic
_symmetry_space_group_name_H-M   'P -1'
_symmetry_Int_Tables_number      2
_space_group_name_Hall           '-P 1'
loop_
_symmetry_equiv_pos_site_id
_symmetry_equiv_pos_as_xyz
1 x,y,z
2 -x,-y,-z
_cell_length_a                   9.0595(4)
_cell_length_b                   11.5721(5)
_cell_length_c                   15.5179(6)
_cell_angle_alpha                73.732(3)
_cell_angle_beta                 84.917(3)
_cell_angle_gamma                87.568(3)
_cell_volume                     1555.32
_exptl_crystal_colour            colorless
_exptl_crystal_description       prism
_cell_formula_units_Z            2
loop_
_atom_site_label
_atom_site_type_symbol
_atom_site_fract_x
_atom_site_fract_y
_atom_site_fract_z
Br1 Br -0.10059(2) 0.049038(18) 0.188857(15)
C1 C 0.14974(18) -0.06194(15) 0.12003(12)
H1 H 0.1313 -0.1258 0.1734
C2 C 0.06262(18) 0.04090(15) 0.10498(12)
C3 C 0.08944(19) 0.13629(15) 0.02875(13)
H2 H 0.0292 0.2072 0.0198
C4 C 0.2038(2) 0.12801(15) -0.03402(13)
H3 H 0.2234 0.1939 -0.0859
C5 C 0.29133(18) 0.02320(15) -0.02188(12)
C6 C 0.26553(17) -0.07237(14) 0.05667(11)
C7 C 0.35497(17) -0.18451(14) 0.06890(12)
C8 C 0.34683(17) -0.27450(14) 0.15976(11)
C9 C 0.29223(17) -0.38821(14) 0.17220(11)
C10 C 0.28934(17) -0.47212(14) 0.25774(12)
C11 C 0.35299(17) -0.44169(14) 0.32791(11)
C12 C 0.41339(17) -0.32720(15) 0.31462(12)
C13 C 0.40526(17) -0.24495(14) 0.23152(11)
H4 H 0.4402 -0.1659 0.2225
C14 C 0.24126(19) -0.41906(15) 0.09156(12)
C15 C 0.2870(3) -0.54953(19) -0.00106(14)
H5 H 0.1824 -0.5718 0.0102
H6 H 0.3484 -0.6206 -0.0033
H7 H 0.3015 -0.4874 -0.0586
C16 C 0.21754(18) -0.59055(15) 0.27928(12)
C17 C 0.0684(2) -0.71651(17) 0.22846(15)
H8 H 0.1477 -0.7761 0.2261
H9 H 0.0032 -0.7114 0.1803
H10 H 0.0109 -0.7409 0.2870
C18 C 0.48329(18) -0.30209(15) 0.39222(11)
H11 H 0.5616 -0.3639 0.4117
H12 H 0.4068 -0.3113 0.4432
C19 C 0.55119(18) -0.17856(15) 0.37286(12)
H13 H 0.4731 -0.1159 0.3554
H14 H 0.6272 -0.1678 0.3214
C20 C 0.62223(18) -0.16173(15) 0.45379(12)
H15 H 0.5471 -0.1763 0.5058
H16 H 0.7028 -0.2226 0.4696
C21 C 0.68532(18) -0.03709(15) 0.43761(12)
H17 H 0.6052 0.0237 0.4199
H18 H 0.7623 -0.0236 0.3866
C22 C 0.75286(18) -0.01727(15) 0.51855(12)
H19 H 0.8331 -0.0778 0.5365
H20 H 0.6760 -0.0300 0.5696
C23 C 0.81554(18) 0.10810(15) 0.50012(12)
H21 H 0.7357 0.1684 0.4804
H22 H 0.8938 0.1198 0.4499
C24 C 0.88059(19) 0.13163(15) 0.58086(12)
H23 H 0.8021 0.1217 0.6309
H24 H 0.9597 0.0710 0.6012
C25 C 0.94454(19) 0.25697(16) 0.55990(12)
H25 H 0.8650 0.3175 0.5399
H26 H 1.0222 0.2670 0.5094
C26 C 1.01113(19) 0.28174(15) 0.63957(12)
H27 H 0.9325 0.2754 0.6891
H28 H 1.0876 0.2192 0.6613
C27 C 1.08079(19) 0.40504(16) 0.61711(12)
H29 H 1.0031 0.4676 0.5983
H30 H 1.1558 0.4129 0.5655
C28 C 1.15435(19) 0.42803(15) 0.69511(12)
H31 H 1.0787 0.4238 0.7459
H32 H 1.2294 0.3637 0.7156
C29 C 1.2288(2) 0.54971(16) 0.67029(12)
H33 H 1.1548 0.6136 0.6466
H34 H 1.3080 0.5522 0.6216
C30 C 1.29577(19) 0.57650(15) 0.74920(12)
H35 H 1.2166 0.5734 0.7980
H36 H 1.3701 0.5128 0.7726
C31 C 1.3696(2) 0.69848(16) 0.72516(12)
H37 H 1.4464 0.7027 0.6749
H38 H 1.2945 0.7623 0.7038
C32 C 1.4412(2) 0.72357(15) 0.80306(12)
H39 H 1.3634 0.7250 0.8518
H40 H 1.5116 0.6570 0.8272
C33 C 1.5229(2) 0.84144(17) 0.77670(14)
H41 H 1.5937 0.8439 0.7247
H42 H 1.5762 0.8480 0.8274
H43 H 1.4516 0.9086 0.7610
O1 O 0.39874(14) 0.01868(12) -0.08662(9)
O2 O 0.43585(13) -0.20459(11) 0.00700(8)
O3 O 0.13985(16) -0.36996(12) 0.05042(10)
O4 O 0.32906(14) -0.50354(11) 0.07060(8)
O5 O 0.23177(15) -0.67011(11) 0.34818(9)
O6 O 0.13256(14) -0.60011(11) 0.21671(9)
O7 O 0.35869(14) -0.51873(11) 0.41048(8)
H44 H 0.433(3) -0.046(2) -0.0764(16)
H45 H 0.322(3) -0.584(2) 0.4104(16)
loop_
_geom_bond_atom_site_label_1
_geom_bond_atom_site_label_2
_geom_bond_site_symmetry_1
_geom_bond_site_symmetry_2
Br1 C2 1_555 1_555
C1 H1 1_555 1_555
C2 C1 1_555 1_555
C3 C2 1_555 1_555
H2 C3 1_555 1_555
C4 C3 1_555 1_555
H3 C4 1_555 1_555
C5 C4 1_555 1_555
C6 C1 1_555 1_555
C7 C6 1_555 1_555
C8 C7 1_555 1_555
C9 C8 1_555 1_555
C10 C9 1_555 1_555
C11 C10 1_555 1_555
C12 C11 1_555 1_555
C13 C8 1_555 1_555
H4 C13 1_555 1_555
C14 C9 1_555 1_555
C15 H5 1_555 1_555
H6 C15 1_555 1_555
H7 C15 1_555 1_555
C16 C10 1_555 1_555
C17 H8 1_555 1_555
H9 C17 1_555 1_555
H10 C17 1_555 1_555
C18 C12 1_555 1_555
H11 C18 1_555 1_555
H12 C18 1_555 1_555
C19 C18 1_555 1_555
H13 C19 1_555 1_555
H14 C19 1_555 1_555
C20 C19 1_555 1_555
H15 C20 1_555 1_555
H16 C20 1_555 1_555
C21 C20 1_555 1_555
H17 C21 1_555 1_555
H18 C21 1_555 1_555
C22 C21 1_555 1_555
H19 C22 1_555 1_555
H20 C22 1_555 1_555
C23 C22 1_555 1_555
H21 C23 1_555 1_555
H22 C23 1_555 1_555
C24 C23 1_555 1_555
H23 C24 1_555 1_555
H24 C24 1_555 1_555
C25 C24 1_555 1_555
H25 C25 1_555 1_555
H26 C25 1_555 1_555
C26 C25 1_555 1_555
H27 C26 1_555 1_555
H28 C26 1_555 1_555
C27 C26 1_555 1_555
H29 C27 1_555 1_555
H30 C27 1_555 1_555
C28 C27 1_555 1_555
H31 C28 1_555 1_555
H32 C28 1_555 1_555
C29 C28 1_555 1_555
H33 C29 1_555 1_555
H34 C29 1_555 1_555
C30 C29 1_555 1_555
H35 C30 1_555 1_555
H36 C30 1_555 1_555
C31 C30 1_555 1_555
H37 C31 1_555 1_555
H38 C31 1_555 1_555
C32 C31 1_555 1_555
H39 C32 1_555 1_555
H40 C32 1_555 1_555
C33 C32 1_555 1_555
H41 C33 1_555 1_555
H42 C33 1_555 1_555
H43 C33 1_555 1_555
O1 C5 1_555 1_555
O2 C7 1_555 1_555
O3 C14 1_555 1_555
O4 C14 1_555 1_555
O5 C16 1_555 1_555
O6 C16 1_555 1_555
O7 C11 1_555 1_555
H44 O1 1_555 1_555
H45 O7 1_555 1_555
C5 C6 1_555 1_555
C12 C13 1_555 1_555
C15 O4 1_555 1_555
C17 O6 1_555 1_555

#END
