
#######################################################################
#
#                 Cambridge Crystallographic Data Centre
#                                CCDC 
#
#######################################################################
#
# If this CIF has been generated from an entry in the Cambridge 
# Structural Database, then it will include bibliographic, chemical, 
# crystal, experimental, refinement or atomic coordinate data resulting 
# from the CCDC's data processing and validation procedures.
#
#######################################################################

data_CACYIR
_chemical_formula_moiety         'C31 H34 Cl1 N1 O4'
_chemical_name_systematic        
10-(4-chlorophenyl)-9-(3,4-dimethoxyphenyl)-3,3,6,6-tetramethyl-3,4,6,7,9,10-hexahydroacridine-1,8(2H,5H)-dione
_symmetry_cell_setting           monoclinic
_symmetry_space_group_name_H-M   'P 21/c'
_symmetry_Int_Tables_number      14
_space_group_name_Hall           '-P 2ybc'
loop_
_symmetry_equiv_pos_site_id
_symmetry_equiv_pos_as_xyz
1 x,y,z
2 -x,1/2+y,1/2-z
3 -x,-y,-z
4 x,1/2-y,1/2+z
_cell_length_a                   9.5839(14)
_cell_length_b                   19.873(3)
_cell_length_c                   14.505(2)
_cell_angle_alpha                90
_cell_angle_beta                 94.235(2)
_cell_angle_gamma                90
_cell_volume                     2755.09
_exptl_crystal_description       block
_cell_formula_units_Z            4
loop_
_atom_site_label
_atom_site_type_symbol
_atom_site_fract_x
_atom_site_fract_y
_atom_site_fract_z
C1 C 0.6831(2) 0.55283(11) 0.51969(16)
C2 C 0.7560(3) 0.49612(11) 0.47339(16)
H1 H 0.7051 0.4547 0.4823
H2 H 0.8490 0.4908 0.5036
C3 C 0.7689(2) 0.50626(11) 0.36988(15)
C4 C 0.6224(2) 0.52219(11) 0.32478(16)
H3 H 0.6307 0.5353 0.2610
H4 H 0.5656 0.4818 0.3247
C5 C 0.5494(2) 0.57759(10) 0.37348(15)
C6 C 0.5834(2) 0.59418(11) 0.46311(15)
C7 C 0.8689(3) 0.56429(13) 0.35345(17)
H5 H 0.8759 0.5700 0.2882
H6 H 0.9596 0.5543 0.3827
H7 H 0.8339 0.6049 0.3791
C8 C 0.8235(3) 0.44214(13) 0.32647(18)
H8 H 0.8310 0.4493 0.2616
H9 H 0.7598 0.4058 0.3351
H10 H 0.9138 0.4312 0.3555
C9 C 0.5214(2) 0.65541(10) 0.50664(15)
H11 H 0.5085 0.6450 0.5715
C10 C 0.3795(2) 0.66986(10) 0.45824(15)
C11 C 0.2757(2) 0.70489(11) 0.51015(16)
C12 C 0.1347(2) 0.71873(12) 0.45955(16)
H12 H 0.0912 0.7565 0.4887
H13 H 0.0749 0.6798 0.4652
C13 C 0.1449(2) 0.73443(11) 0.35731(16)
C14 C 0.2278(3) 0.79915(12) 0.34732(17)
H14 H 0.2340 0.8089 0.2829
H15 H 0.3201 0.7937 0.3768
H16 H 0.1814 0.8356 0.3760
C15 C 0.0005(2) 0.74442(13) 0.30715(18)
H17 H -0.0540 0.7043 0.3124
H18 H 0.0107 0.7538 0.2431
H19 H -0.0458 0.7815 0.3345
C16 C 0.2177(2) 0.67474(11) 0.31379(16)
H20 H 0.1529 0.6372 0.3078
H21 H 0.2411 0.6873 0.2522
C17 C 0.3489(2) 0.65230(10) 0.36876(15)
C18 C 0.6202(2) 0.71581(10) 0.50373(15)
C19 C 0.6155(2) 0.75726(11) 0.42538(15)
H22 H 0.5506 0.7481 0.3761
C20 C 0.7047(2) 0.81127(11) 0.41975(15)
C21 C 0.8029(2) 0.82554(11) 0.49358(16)
C22 C 0.8084(2) 0.78506(12) 0.57066(16)
H23 H 0.8728 0.7944 0.6201
C23 C 0.7188(2) 0.73018(12) 0.57573(16)
H24 H 0.7253 0.7029 0.6280
C24 C 0.5846(3) 0.85430(12) 0.28255(16)
H25 H 0.5978 0.8855 0.2334
H26 H 0.5053 0.8678 0.3148
H27 H 0.5687 0.8101 0.2572
C25 C 0.9801(3) 0.89963(14) 0.5579(2)
H28 H 1.0335 0.9380 0.5409
H29 H 1.0423 0.8631 0.5751
H30 H 0.9269 0.9111 0.6092
C26 C 0.4065(2) 0.59271(11) 0.22719(15)
C27 C 0.3261(2) 0.53604(11) 0.20744(15)
H31 H 0.2912 0.5113 0.2551
C28 C 0.2973(2) 0.51603(11) 0.11586(15)
H32 H 0.2442 0.4777 0.1018
C29 C 0.3494(2) 0.55418(11) 0.04638(15)
C30 C 0.4278(2) 0.61141(12) 0.06578(16)
H33 H 0.4609 0.6367 0.0181
C31 C 0.4566(2) 0.63069(11) 0.15652(15)
H34 H 0.5095 0.6691 0.1703
Cl1 Cl 0.31473(7) 0.52904(3) -0.06784(4)
N1 N 0.44137(18) 0.61165(9) 0.32273(12)
O1 O 0.70520(18) 0.56224(9) 0.60315(11)
O2 O 0.30121(18) 0.72094(8) 0.59139(11)
O3 O 0.70616(16) 0.85354(8) 0.34504(11)
O4 O 0.88759(17) 0.87985(8) 0.48145(12)
loop_
_geom_bond_atom_site_label_1
_geom_bond_atom_site_label_2
_geom_bond_site_symmetry_1
_geom_bond_site_symmetry_2
C1 C2 1_555 1_555
C2 H1 1_555 1_555
H2 C2 1_555 1_555
C3 C2 1_555 1_555
C4 C3 1_555 1_555
H3 C4 1_555 1_555
H4 C4 1_555 1_555
C5 C4 1_555 1_555
C6 C1 1_555 1_555
C7 C3 1_555 1_555
H5 C7 1_555 1_555
H6 C7 1_555 1_555
H7 C7 1_555 1_555
C8 C3 1_555 1_555
H8 C8 1_555 1_555
H9 C8 1_555 1_555
H10 C8 1_555 1_555
C9 C6 1_555 1_555
H11 C9 1_555 1_555
C10 C9 1_555 1_555
C11 C10 1_555 1_555
C12 C11 1_555 1_555
H12 C12 1_555 1_555
H13 C12 1_555 1_555
C13 C12 1_555 1_555
C14 C13 1_555 1_555
H14 C14 1_555 1_555
H15 C14 1_555 1_555
H16 C14 1_555 1_555
C15 C13 1_555 1_555
H17 C15 1_555 1_555
H18 C15 1_555 1_555
H19 C15 1_555 1_555
C16 C13 1_555 1_555
H20 C16 1_555 1_555
H21 C16 1_555 1_555
C17 C10 1_555 1_555
C18 C9 1_555 1_555
C19 C18 1_555 1_555
H22 C19 1_555 1_555
C20 C19 1_555 1_555
C21 C20 1_555 1_555
C22 C21 1_555 1_555
H23 C22 1_555 1_555
C23 C18 1_555 1_555
H24 C23 1_555 1_555
C24 H25 1_555 1_555
H26 C24 1_555 1_555
H27 C24 1_555 1_555
C25 H28 1_555 1_555
H29 C25 1_555 1_555
H30 C25 1_555 1_555
C26 C27 1_555 1_555
C27 H31 1_555 1_555
C28 C27 1_555 1_555
H32 C28 1_555 1_555
C29 C28 1_555 1_555
C30 C29 1_555 1_555
H33 C30 1_555 1_555
C31 C26 1_555 1_555
H34 C31 1_555 1_555
Cl1 C29 1_555 1_555
N1 C5 1_555 1_555
O1 C1 1_555 1_555
O2 C11 1_555 1_555
O3 C20 1_555 1_555
O4 C21 1_555 1_555
C5 C6 1_555 1_555
C16 C17 1_555 1_555
C17 N1 1_555 1_555
C22 C23 1_555 1_555
C24 O3 1_555 1_555
C25 O4 1_555 1_555
C26 N1 1_555 1_555
C30 C31 1_555 1_555

#END
