
#######################################################################
#
#                 Cambridge Crystallographic Data Centre
#                                CCDC 
#
#######################################################################
#
# If this CIF has been generated from an entry in the Cambridge 
# Structural Database, then it will include bibliographic, chemical, 
# crystal, experimental, refinement or atomic coordinate data resulting 
# from the CCDC's data processing and validation procedures.
#
#######################################################################

data_CADBIV
_chemical_formula_moiety         'C5 H2 F3 N5 O2'
_chemical_name_systematic        
4-(5-(trifluoromethyl)-1,2,4-oxadiazol-3-yl)-1,2,5-oxadiazol-3-amine
_symmetry_cell_setting           monoclinic
_symmetry_space_group_name_H-M   'P 21/c'
_symmetry_Int_Tables_number      14
_space_group_name_Hall           '-P 2ybc'
loop_
_symmetry_equiv_pos_site_id
_symmetry_equiv_pos_as_xyz
1 x,y,z
2 -x,1/2+y,1/2-z
3 -x,-y,-z
4 x,1/2-y,1/2+z
_cell_length_a                   18.6710(12)
_cell_length_b                   4.7383(4)
_cell_length_c                   9.2530(6)
_cell_angle_alpha                90
_cell_angle_beta                 94.272(6)
_cell_angle_gamma                90
_cell_volume                     816.327
_cell_formula_units_Z            4
loop_
_atom_site_label
_atom_site_type_symbol
_atom_site_fract_x
_atom_site_fract_y
_atom_site_fract_z
N1 N 0.29857(15) 0.6098(7) 0.4924(3)
O1 O 0.28737(13) 0.2490(6) 0.6402(3)
C1 C 0.17859(16) 0.5587(8) 0.3557(3)
N2 N 0.07640(15) 0.5832(8) 0.2171(3)
C2 C 0.23373(16) 0.4723(7) 0.4661(3)
O2 O 0.12813(14) 0.7725(6) 0.1738(3)
C3 C 0.10735(16) 0.4496(8) 0.3297(3)
N3 N 0.22394(16) 0.2587(7) 0.5493(3)
N4 N 0.18983(16) 0.7532(7) 0.2620(3)
C4 C 0.32647(18) 0.4624(9) 0.5985(4)
N5 N 0.07529(17) 0.2510(8) 0.4040(3)
H1 H 0.0317 0.2032 0.3791
H2 H 0.0982 0.1707 0.4769
F1 F 0.40248(19) 0.4033(12) 0.8055(4)
F2 F 0.44765(15) 0.3687(12) 0.6148(4)
F3 F 0.4153(3) 0.7593(9) 0.6882(8)
C5 C 0.3990(2) 0.5043(12) 0.6769(6)
loop_
_geom_bond_atom_site_label_1
_geom_bond_atom_site_label_2
_geom_bond_site_symmetry_1
_geom_bond_site_symmetry_2
N1 C2 1_555 1_555
O1 N3 1_555 1_555
C1 C2 1_555 1_555
N2 O2 1_555 1_555
C2 N3 1_555 1_555
O2 N4 1_555 1_555
C3 C1 1_555 1_555
N4 C1 1_555 1_555
C4 N1 1_555 1_555
N5 C3 1_555 1_555
H1 N5 1_555 1_555
H2 N5 1_555 1_555
F1 C5 1_555 1_555
F2 C5 1_555 1_555
F3 C5 1_555 1_555
C5 C4 1_555 1_555
O1 C4 1_555 1_555
N2 C3 1_555 1_555

#END
