
#######################################################################
#
#                 Cambridge Crystallographic Data Centre
#                                CCDC 
#
#######################################################################
#
# If this CIF has been generated from an entry in the Cambridge 
# Structural Database, then it will include bibliographic, chemical, 
# crystal, experimental, refinement or atomic coordinate data resulting 
# from the CCDC's data processing and validation procedures.
#
#######################################################################

data_CADBIU
_chemical_formula_moiety         'C12 H17 N3 O1'
_chemical_name_systematic        
5-Isopropyl-5-methyl-2-(pyridin-2-yl)imidazolidin-4-one
_symmetry_cell_setting           orthorhombic
_symmetry_space_group_name_H-M   'P 21 21 2'
_symmetry_Int_Tables_number      18
_space_group_name_Hall           'P 2 2ab'
loop_
_symmetry_equiv_pos_site_id
_symmetry_equiv_pos_as_xyz
1 x,y,z
2 -x,-y,z
3 1/2+x,1/2-y,-z
4 1/2-x,1/2+y,-z
_cell_length_a                   11.2140(5)
_cell_length_b                   11.4761(6)
_cell_length_c                   9.3960(5)
_cell_angle_alpha                90
_cell_angle_beta                 90
_cell_angle_gamma                90
_cell_volume                     1209.2
_exptl_crystal_colour            colorless
_exptl_crystal_description       plate
_cell_formula_units_Z            4
loop_
_atom_site_label
_atom_site_type_symbol
_atom_site_fract_x
_atom_site_fract_y
_atom_site_fract_z
O1 O 0.6780(3) 0.2890(3) 0.1158(5)
N1 N 0.6334(4) 0.1031(4) 0.1826(5)
H1 H 0.5748 0.1198 0.2380
N2 N 0.7867(4) 0.0017(4) 0.0815(6)
H2 H 0.8406 -0.0506 0.0689
C1 C 0.6902(5) -0.0764(4) 0.2987(6)
C2 C 0.6956(4) 0.1842(4) 0.1102(6)
C3 C 0.6752(4) -0.0157(4) 0.1585(6)
H3 H 0.6185 -0.0577 0.0979
N3 N 0.5897(4) -0.1210(4) 0.3530(5)
C4 C 0.7987(6) -0.0813(6) 0.3732(9)
H4 H 0.8670 -0.0477 0.3348
C5 C 0.7928(4) 0.1230(4) 0.0269(7)
C6 C 0.9145(5) 0.1760(5) 0.0647(10)
H5 H 0.9291 0.1684 0.1650
H6 H 0.9151 0.2570 0.0391
H7 H 0.9757 0.1357 0.0128
C7 C 0.7651(6) 0.1359(5) -0.1310(7)
H8 H 0.7586 0.2194 -0.1512
C8 C 0.6465(6) 0.0818(6) -0.1735(7)
H9 H 0.6306 0.0948 -0.2726
H10 H 0.5848 0.1172 -0.1173
H11 H 0.6485 -0.0004 -0.1549
C9 C 0.5958(8) -0.1696(6) 0.4839(8)
H12 H 0.5271 -0.2020 0.5228
C10 C 0.8647(7) 0.0893(6) -0.2252(10)
H13 H 0.8850 0.0115 -0.1963
H14 H 0.9335 0.1386 -0.2168
H15 H 0.8382 0.0885 -0.3224
C11 C 0.8023(9) -0.1331(6) 0.5034(10)
H16 H 0.8744 -0.1382 0.5518
C12 C 0.7008(9) -0.1757(7) 0.5610(9)
H17 H 0.7019 -0.2091 0.6512
loop_
_geom_bond_atom_site_label_1
_geom_bond_atom_site_label_2
_geom_bond_site_symmetry_1
_geom_bond_site_symmetry_2
O1 C2 1_555 1_555
N1 H1 1_555 1_555
N2 H2 1_555 1_555
C1 C3 1_555 1_555
C2 N1 1_555 1_555
C3 N1 1_555 1_555
H3 C3 1_555 1_555
N3 C1 1_555 1_555
C4 C1 1_555 1_555
H4 C4 1_555 1_555
C5 N2 1_555 1_555
C6 C5 1_555 1_555
H5 C6 1_555 1_555
H6 C6 1_555 1_555
H7 C6 1_555 1_555
C7 C5 1_555 1_555
H8 C7 1_555 1_555
C8 C7 1_555 1_555
H9 C8 1_555 1_555
H10 C8 1_555 1_555
H11 C8 1_555 1_555
C9 N3 1_555 1_555
H12 C9 1_555 1_555
C10 C7 1_555 1_555
H13 C10 1_555 1_555
H14 C10 1_555 1_555
H15 C10 1_555 1_555
C11 C4 1_555 1_555
H16 C11 1_555 1_555
C12 C9 1_555 1_555
H17 C12 1_555 1_555
N2 C3 1_555 1_555
C2 C5 1_555 1_555
C11 C12 1_555 1_555

#END
