
#######################################################################
#
#                 Cambridge Crystallographic Data Centre
#                                CCDC 
#
#######################################################################
#
# If this CIF has been generated from an entry in the Cambridge 
# Structural Database, then it will include bibliographic, chemical, 
# crystal, experimental, refinement or atomic coordinate data resulting 
# from the CCDC's data processing and validation procedures.
#
#######################################################################

data_CADLUR
_chemical_name_common            'vortioxetine bis(5-fluorouracil)'
_chemical_formula_moiety         
'C18 H23 N2 S1 1+,C4 H3 F1 N2 O2,C4 H2 F1 N2 O2 1-'
_chemical_name_systematic        
'4-(2-((2,4-dimethylphenyl)sulfanyl)phenyl)piperazin-1-ium 5-fluoro-2,4-dioxo-3,4-dihydro-2H-pyrimidin-1-ide bis(5-fluoropyrimidine-2,4(1H,3H)-dione)'
_symmetry_cell_setting           monoclinic
_symmetry_space_group_name_H-M   'P 21/c'
_symmetry_Int_Tables_number      14
_space_group_name_Hall           '-P 2ybc'
loop_
_symmetry_equiv_pos_site_id
_symmetry_equiv_pos_as_xyz
1 x,y,z
2 -x,1/2+y,1/2-z
3 -x,-y,-z
4 x,1/2-y,1/2+z
_cell_length_a                   20.039(3)
_cell_length_b                   6.5395(11)
_cell_length_c                   21.710(4)
_cell_angle_alpha                90
_cell_angle_beta                 110.855(3)
_cell_angle_gamma                90
_cell_volume                     2658.6
_exptl_crystal_colour            colorless
_exptl_crystal_description       block
_cell_formula_units_Z            4
loop_
_atom_site_label
_atom_site_type_symbol
_atom_site_fract_x
_atom_site_fract_y
_atom_site_fract_z
C1 C 0.27588(12) 0.0908(4) 0.54612(13)
H1 H 0.3044 -0.0001 0.5808
H2 H 0.2332 0.0180 0.5195
C2 C 0.27675(12) 0.3018(4) 0.45268(12)
H3 H 0.2343 0.2368 0.4222
H4 H 0.3061 0.3465 0.4281
C3 C 0.25592(11) 0.4830(4) 0.48480(12)
H5 H 0.2985 0.5521 0.5135
H6 H 0.2285 0.5790 0.4513
C4 C 0.25562(12) 0.2773(4) 0.57584(12)
H7 H 0.2283 0.2375 0.6028
H8 H 0.2983 0.3475 0.6037
C5 C 0.17842(10) 0.5786(3) 0.54326(11)
C6 C 0.20571(11) 0.6729(4) 0.60403(12)
H9 H 0.2488 0.6280 0.6347
C7 C 0.17001(13) 0.8323(4) 0.61990(12)
H10 H 0.1888 0.8940 0.6611
C8 C 0.10690(13) 0.9000(4) 0.57497(13)
H11 H 0.0832 1.0094 0.5854
C9 C 0.07830(12) 0.8072(4) 0.51455(13)
H12 H 0.0351 0.8536 0.4845
C10 C 0.11305(11) 0.6451(4) 0.49786(11)
C11 C 0.01134(11) 0.6661(4) 0.36983(11)
C12 C -0.05758(12) 0.5886(4) 0.34784(12)
H13 H -0.0672 0.4677 0.3656
C13 C -0.11198(13) 0.6897(5) 0.29978(13)
H14 H -0.1579 0.6355 0.2854
C14 C -0.09938(13) 0.8690(5) 0.27296(11)
C15 C -0.03090(13) 0.9465(4) 0.29582(12)
H15 H -0.0221 1.0693 0.2785
C16 C 0.02545(12) 0.8490(4) 0.34365(12)
C17 C 0.09903(13) 0.9440(4) 0.36596(14)
H16 H 0.1075 1.0174 0.4063
H17 H 0.1021 1.0365 0.3327
H18 H 0.1342 0.8384 0.3730
C18 C -0.15817(14) 0.9809(5) 0.21978(13)
H19 H -0.1577 1.1226 0.2315
H20 H -0.2035 0.9218 0.2154
H21 H -0.1506 0.9693 0.1787
H22 H 0.3615(14) 0.218(4) 0.5317(13)
H23 H 0.3297(14) 0.049(4) 0.4848(14)
N1 N 0.31726(11) 0.1533(4) 0.50462(12)
N2 N 0.21313(8) 0.4134(3) 0.52325(9)
S1 S 0.07930(3) 0.50650(10) 0.42323(3)
C19 C 0.40633(11) 0.7777(3) 0.43946(11)
C20 C 0.49918(11) 0.7194(3) 0.39292(11)
C21 C 0.38170(12) 0.7425(4) 0.32396(12)
H24 H 0.3481 0.7404 0.2814
C22 C 0.35847(11) 0.7715(4) 0.37412(11)
F1 F 0.28852(6) 0.8036(3) 0.36412(7)
H25 H 0.5087(12) 0.752(4) 0.4872(12)
N3 N 0.47573(9) 0.7465(3) 0.44530(9)
N4 N 0.45112(10) 0.7160(3) 0.33176(9)
O1 O 0.38976(7) 0.8065(2) 0.48903(7)
O2 O 0.56438(8) 0.6975(3) 0.40479(8)
C23 C 0.44390(11) 0.2359(3) 0.37076(11)
C24 C 0.54373(12) 0.2184(4) 0.33010(11)
C25 C 0.42393(12) 0.2251(4) 0.25487(12)
H26 H 0.3926 0.2248 0.2113
C26 C 0.39807(11) 0.2334(4) 0.30305(11)
F2 F 0.32707(7) 0.2424(3) 0.29039(8)
H27 H 0.5138(12) 0.218(4) 0.2337(13)
H28 H 0.5464(11) 0.227(3) 0.4220(11)
N5 N 0.51469(9) 0.2243(3) 0.37901(9)
N6 N 0.49546(10) 0.2170(3) 0.26795(10)
O3 O 0.42418(7) 0.2453(2) 0.41854(8)
O4 O 0.60808(8) 0.2150(3) 0.34253(9)
loop_
_geom_bond_atom_site_label_1
_geom_bond_atom_site_label_2
_geom_bond_site_symmetry_1
_geom_bond_site_symmetry_2
C1 H1 1_555 1_555
H2 C1 1_555 1_555
C2 H3 1_555 1_555
H4 C2 1_555 1_555
C3 C2 1_555 1_555
H5 C3 1_555 1_555
H6 C3 1_555 1_555
C4 C1 1_555 1_555
H7 C4 1_555 1_555
H8 C4 1_555 1_555
C5 C6 1_555 1_555
C6 H9 1_555 1_555
C7 C6 1_555 1_555
H10 C7 1_555 1_555
C8 C7 1_555 1_555
H11 C8 1_555 1_555
C9 C8 1_555 1_555
H12 C9 1_555 1_555
C10 C5 1_555 1_555
C11 C12 1_555 1_555
C12 H13 1_555 1_555
C13 C12 1_555 1_555
H14 C13 1_555 1_555
C14 C13 1_555 1_555
C15 C14 1_555 1_555
H15 C15 1_555 1_555
C16 C11 1_555 1_555
C17 C16 1_555 1_555
H16 C17 1_555 1_555
H17 C17 1_555 1_555
H18 C17 1_555 1_555
C18 C14 1_555 1_555
H19 C18 1_555 1_555
H20 C18 1_555 1_555
H21 C18 1_555 1_555
H22 N1 1_555 1_555
H23 N1 1_555 1_555
N1 C1 1_555 1_555
N2 C3 1_555 1_555
S1 C10 1_555 1_555
C19 C22 1_555 1_555
C20 N3 1_555 1_555
C21 H24 1_555 1_555
C22 C21 1_555 1_555
F1 C22 1_555 1_555
H25 N3 1_555 1_555
N3 C19 1_555 1_555
N4 C20 1_555 1_555
O1 C19 1_555 1_555
O2 C20 1_555 1_555
C23 C26 1_555 1_555
C24 N5 1_555 1_555
C25 H26 1_555 1_555
C26 C25 1_555 1_555
F2 C26 1_555 1_555
H27 N6 1_555 1_555
H28 N5 1_555 1_555
N5 C23 1_555 1_555
N6 C24 1_555 1_555
O3 C23 1_555 1_555
O4 C24 1_555 1_555
C2 N1 1_555 1_555
C4 N2 1_555 1_555
C5 N2 1_555 1_555
C9 C10 1_555 1_555
C11 S1 1_555 1_555
C15 C16 1_555 1_555
C21 N4 1_555 1_555
C25 N6 1_555 1_555

#END
