
#######################################################################
#
#                 Cambridge Crystallographic Data Centre
#                                CCDC 
#
#######################################################################
#
# If this CIF has been generated from an entry in the Cambridge 
# Structural Database, then it will include bibliographic, chemical, 
# crystal, experimental, refinement or atomic coordinate data resulting 
# from the CCDC's data processing and validation procedures.
#
#######################################################################

data_CADLOL
_chemical_name_common            'vortioxetine salicylic acid'
_chemical_formula_moiety         'C18 H23 N2 S1 1+,C7 H5 O3 1-'
_chemical_name_systematic        
'1-[2-(2,4-dimethy(phenylsulfanyl)phenyl)piperazine] salicylic acid'
_symmetry_cell_setting           monoclinic
_symmetry_space_group_name_H-M   'P 21/c'
_symmetry_Int_Tables_number      14
_space_group_name_Hall           '-P 2ybc'
loop_
_symmetry_equiv_pos_site_id
_symmetry_equiv_pos_as_xyz
1 x,y,z
2 -x,1/2+y,1/2-z
3 -x,-y,-z
4 x,1/2-y,1/2+z
_cell_length_a                   10.8177(11)
_cell_length_b                   15.0906(15)
_cell_length_c                   14.6449(15)
_cell_angle_alpha                90
_cell_angle_beta                 103.845(2)
_cell_angle_gamma                90
_cell_volume                     2321.26
_exptl_crystal_colour            colorless
_exptl_crystal_description       block
_cell_formula_units_Z            4
loop_
_atom_site_label
_atom_site_type_symbol
_atom_site_fract_x
_atom_site_fract_y
_atom_site_fract_z
C1 C 0.75156(18) -0.00791(14) 0.48643(12)
H1 H 0.7321 -0.0287 0.5441
H2 H 0.7876 0.0511 0.4977
C2 C 0.65923(18) 0.02037(14) 0.31954(12)
H3 H 0.6900 0.0809 0.3224
H4 H 0.5813 0.0168 0.2704
C3 C 0.75747(17) -0.04099(14) 0.29694(12)
H5 H 0.7244 -0.1010 0.2899
H6 H 0.7762 -0.0234 0.2380
C4 C 0.84663(17) -0.06884(13) 0.45955(12)
H7 H 0.9244 -0.0697 0.5090
H8 H 0.8127 -0.1286 0.4515
C5 C 0.97976(15) -0.07958(12) 0.34606(11)
C6 C 1.02333(17) -0.16347(13) 0.37614(14)
H9 H 0.9832 -0.1953 0.4152
C7 C 1.12536(19) -0.20030(14) 0.34901(16)
H10 H 1.1550 -0.2560 0.3712
C8 C 1.18319(18) -0.15566(14) 0.28987(15)
H11 H 1.2500 -0.1818 0.2699
C9 C 1.14269(17) -0.07183(13) 0.25966(13)
H12 H 1.1826 -0.0416 0.2194
C10 C 1.04314(16) -0.03206(12) 0.28864(11)
C11 C 1.05800(16) 0.10319(11) 0.16197(12)
C12 C 0.97540(18) 0.09731(12) 0.07461(13)
H13 H 0.8935 0.0757 0.0696
C13 C 1.0115(2) 0.12264(14) -0.00502(13)
H14 H 0.9536 0.1191 -0.0631
C14 C 1.1327(2) 0.15332(13) 0.00030(13)
C15 C 1.21521(18) 0.15857(12) 0.08748(13)
H15 H 1.2975 0.1790 0.0916
C16 C 1.18111(17) 0.13472(13) 0.17004(12)
C17 C 1.2767(2) 0.14402(19) 0.26184(14)
H16 H 1.3546 0.1155 0.2580
H17 H 1.2444 0.1168 0.3107
H18 H 1.2924 0.2057 0.2759
C18 C 1.1750(3) 0.18191(19) -0.08647(16)
H19 H 1.1507 0.2425 -0.1008
H20 H 1.1352 0.1449 -0.1385
H21 H 1.2658 0.1765 -0.0752
H22 H 0.581(2) 0.0381(15) 0.4275(15)
H23 H 0.595(2) -0.0575(15) 0.4055(14)
N1 N 0.63309(15) -0.00439(13) 0.41065(11)
N2 N 0.87406(13) -0.03830(10) 0.37211(9)
S1 S 0.99567(5) 0.07899(3) 0.26104(4)
C19 C 0.54831(16) 0.26838(12) 0.49783(13)
C20 C 0.57632(17) 0.33691(14) 0.56327(15)
C21 C 0.6157(2) 0.41803(16) 0.5361(2)
H24 H 0.6357 0.4637 0.5798
C22 C 0.6256(2) 0.43169(18) 0.4458(2)
H25 H 0.6522 0.4865 0.4286
C23 C 0.5965(2) 0.36513(19) 0.3804(2)
H26 H 0.6019 0.3749 0.3188
C24 C 0.55953(19) 0.28412(16) 0.40661(15)
H27 H 0.5416 0.2387 0.3625
C25 C 0.50407(16) 0.18046(13) 0.52345(14)
H28 H 0.536(3) 0.262(2) 0.6537(19)
O1 O 0.48606(13) 0.11947(10) 0.46463(10)
O2 O 0.48332(14) 0.17231(10) 0.60480(10)
O3 O 0.56593(16) 0.32602(13) 0.65268(11)
loop_
_geom_bond_atom_site_label_1
_geom_bond_atom_site_label_2
_geom_bond_site_symmetry_1
_geom_bond_site_symmetry_2
C1 H1 1_555 1_555
H2 C1 1_555 1_555
C2 H3 1_555 1_555
H4 C2 1_555 1_555
C3 C2 1_555 1_555
H5 C3 1_555 1_555
H6 C3 1_555 1_555
C4 C1 1_555 1_555
H7 C4 1_555 1_555
H8 C4 1_555 1_555
C5 C6 1_555 1_555
C6 H9 1_555 1_555
C7 C6 1_555 1_555
H10 C7 1_555 1_555
C8 C7 1_555 1_555
H11 C8 1_555 1_555
C9 C8 1_555 1_555
H12 C9 1_555 1_555
C10 C5 1_555 1_555
C11 C12 1_555 1_555
C12 H13 1_555 1_555
C13 C12 1_555 1_555
H14 C13 1_555 1_555
C14 C13 1_555 1_555
C15 C14 1_555 1_555
H15 C15 1_555 1_555
C16 C11 1_555 1_555
C17 C16 1_555 1_555
H16 C17 1_555 1_555
H17 C17 1_555 1_555
H18 C17 1_555 1_555
C18 C14 1_555 1_555
H19 C18 1_555 1_555
H20 C18 1_555 1_555
H21 C18 1_555 1_555
H22 N1 1_555 1_555
H23 N1 1_555 1_555
N1 C1 1_555 1_555
N2 C3 1_555 1_555
S1 C10 1_555 1_555
C19 C20 1_555 1_555
C20 C21 1_555 1_555
C21 H24 1_555 1_555
C22 C21 1_555 1_555
H25 C22 1_555 1_555
C23 C22 1_555 1_555
H26 C23 1_555 1_555
C24 C19 1_555 1_555
H27 C24 1_555 1_555
C25 C19 1_555 1_555
H28 O3 1_555 1_555
O1 C25 1_555 1_555
O2 C25 1_555 1_555
O3 C20 1_555 1_555
C2 N1 1_555 1_555
C4 N2 1_555 1_555
C5 N2 1_555 1_555
C9 C10 1_555 1_555
C11 S1 1_555 1_555
C15 C16 1_555 1_555
C23 C24 1_555 1_555

#END
