
#######################################################################
#
#                 Cambridge Crystallographic Data Centre
#                                CCDC 
#
#######################################################################
#
# If this CIF has been generated from an entry in the Cambridge 
# Structural Database, then it will include bibliographic, chemical, 
# crystal, experimental, refinement or atomic coordinate data resulting 
# from the CCDC's data processing and validation procedures.
#
#######################################################################

data_CADTUY
_chemical_formula_moiety         'C27 H25 N3 O3,0.5(C4 H8 O2)'
_chemical_name_systematic        
'5,8-bis(4-Methoxyphenyl)-3,3-dimethyl-1-phenyl-1,6,7-triazaspiro[3.4]octa-5,7-dien-2-one ethyl acetate solvate'
_symmetry_cell_setting           monoclinic
_symmetry_space_group_name_H-M   'P 21/c'
_symmetry_Int_Tables_number      14
_space_group_name_Hall           '-P 2ybc'
loop_
_symmetry_equiv_pos_site_id
_symmetry_equiv_pos_as_xyz
1 x,y,z
2 -x,1/2+y,1/2-z
3 -x,-y,-z
4 x,1/2-y,1/2+z
_cell_length_a                   29.316(11)
_cell_length_b                   7.455(3)
_cell_length_c                   23.171(8)
_cell_angle_alpha                90
_cell_angle_beta                 103.778(3)
_cell_angle_gamma                90
_cell_volume                     4918.33
_exptl_crystal_colour            colorless
_exptl_crystal_description       prism
_cell_formula_units_Z            8
loop_
_atom_site_label
_atom_site_type_symbol
_atom_site_fract_x
_atom_site_fract_y
_atom_site_fract_z
O1 O 0.33806(6) 0.5749(2) 0.68322(6)
O2 O 0.44669(5) 0.3877(2) 0.15680(6)
O3 O 0.35245(5) 0.96063(19) 0.37604(7)
N1 N 0.44524(6) 0.3590(2) 0.48832(7)
N2 N 0.45629(6) 0.3340(2) 0.43170(7)
N3 N 0.36082(6) 0.6494(2) 0.39460(7)
C1 C 0.36287(9) 0.5048(3) 0.73947(9)
H1 H 0.3715 0.3796 0.7347
H2 H 0.3427 0.5111 0.7677
H3 H 0.3914 0.5757 0.7546
C2 C 0.35967(8) 0.5643(3) 0.63674(9)
C3 C 0.40636(8) 0.5142(3) 0.64336(9)
H4 H 0.4258 0.4922 0.6818
C4 C 0.42420(7) 0.4968(3) 0.59325(9)
H5 H 0.4559 0.4600 0.5976
C5 C 0.39650(7) 0.5324(3) 0.53661(9)
C6 C 0.35040(7) 0.5920(3) 0.53125(9)
H6 H 0.3314 0.6221 0.4932
C7 C 0.33233(7) 0.6074(3) 0.58115(9)
H7 H 0.3010 0.6477 0.5771
C8 C 0.41538(7) 0.4890(3) 0.48470(9)
C9 C 0.40736(7) 0.5812(3) 0.42481(8)
C10 C 0.43323(7) 0.4484(3) 0.39412(9)
C11 C 0.43541(7) 0.4407(3) 0.33155(9)
C12 C 0.47094(7) 0.3382(3) 0.31593(9)
H8 H 0.4932 0.2772 0.3461
C13 C 0.47411(7) 0.3246(3) 0.25774(9)
H9 H 0.4987 0.2566 0.2481
C14 C 0.44107(7) 0.4111(3) 0.21307(9)
C15 C 0.40556(7) 0.5121(3) 0.22716(9)
H10 H 0.3831 0.5713 0.1968
C16 C 0.40301(7) 0.5260(3) 0.28616(9)
H11 H 0.3786 0.5953 0.2957
C17 C 0.40820(9) 0.4397(3) 0.10936(9)
H12 H 0.3791 0.3881 0.1158
H13 H 0.4135 0.3959 0.0716
H14 H 0.4057 0.5708 0.1081
C18 C 0.42497(7) 0.7886(3) 0.42738(9)
C19 C 0.43842(7) 0.8743(3) 0.48865(9)
H15 H 0.4429 1.0035 0.4846
H16 H 0.4677 0.8206 0.5116
H17 H 0.4133 0.8540 0.5093
C20 C 0.46145(7) 0.8366(3) 0.39255(9)
H18 H 0.4636 0.9673 0.3896
H19 H 0.4521 0.7850 0.3526
H20 H 0.4921 0.7882 0.4131
C21 C 0.37431(7) 0.8267(3) 0.39497(9)
C22 C 0.31906(7) 0.5579(3) 0.36725(8)
C23 C 0.31796(8) 0.3710(3) 0.36783(9)
H21 H 0.3449 0.3049 0.3874
C24 C 0.27708(8) 0.2822(3) 0.33948(10)
H22 H 0.2761 0.1548 0.3399
C25 C 0.23785(8) 0.3780(3) 0.31058(10)
H23 H 0.2100 0.3166 0.2913
C26 C 0.23936(8) 0.5634(3) 0.30983(10)
H24 H 0.2124 0.6289 0.2898
C27 C 0.27973(7) 0.6550(3) 0.33804(9)
H25 H 0.2805 0.7824 0.3374
O4 O 0.16882(6) 0.5489(2) -0.21512(6)
O5 O 0.05620(5) 0.5089(2) 0.31353(6)
O6 O 0.15894(5) 0.9629(2) 0.08028(7)
N4 N 0.06474(6) 0.3432(2) -0.01346(8)
N5 N 0.05350(6) 0.3342(2) 0.04379(8)
N6 N 0.14898(6) 0.6491(2) 0.07228(7)
C28 C 0.14403(9) 0.4790(3) -0.27119(10)
H26 H 0.1381 0.3508 -0.2672
H27 H 0.1629 0.4961 -0.3005
H28 H 0.1140 0.5422 -0.2844
C29 C 0.14839(8) 0.5315(3) -0.16786(9)
C30 C 0.10465(8) 0.4537(3) -0.17154(9)
H29 H 0.0866 0.4105 -0.2085
C31 C 0.08773(7) 0.4399(3) -0.12076(9)
H30 H 0.0580 0.3859 -0.1234
C32 C 0.11327(7) 0.5032(3) -0.06594(9)
C33 C 0.15669(7) 0.5844(3) -0.06362(9)
H31 H 0.1745 0.6308 -0.0270
C34 C 0.17402(8) 0.5982(3) -0.11388(9)
H32 H 0.2036 0.6535 -0.1115
C35 C 0.09436(7) 0.4729(3) -0.01327(9)
C36 C 0.10229(7) 0.5787(3) 0.04397(9)
C37 C 0.07636(7) 0.4571(3) 0.07796(9)
C38 C 0.07199(7) 0.4711(3) 0.13987(9)
C39 C 0.03084(7) 0.4117(3) 0.15357(9)
H33 H 0.0067 0.3629 0.1228
C40 C 0.02396(7) 0.4211(3) 0.21067(9)
H34 H -0.0045 0.3798 0.2187
C41 C 0.05923(8) 0.4916(3) 0.25593(9)
C42 C 0.10098(8) 0.5503(3) 0.24351(9)
H35 H 0.1252 0.5976 0.2745
C43 C 0.10739(8) 0.5402(3) 0.18647(9)
H36 H 0.1361 0.5805 0.1786
C44 C 0.01383(8) 0.4495(3) 0.32775(10)
H37 H -0.0125 0.5235 0.3065
H38 H 0.0169 0.4603 0.3707
H39 H 0.0080 0.3239 0.3158
C45 C 0.08495(7) 0.7866(3) 0.03679(9)
C46 C 0.06666(7) 0.8587(3) -0.02562(9)
H40 H 0.0350 0.8118 -0.0422
H41 H 0.0876 0.8209 -0.0506
H42 H 0.0656 0.9900 -0.0244
C47 C 0.05215(7) 0.8467(3) 0.07529(9)
H43 H 0.0488 0.9775 0.0732
H44 H 0.0653 0.8107 0.1166
H45 H 0.0213 0.7905 0.0609
C48 C 0.13647(7) 0.8274(3) 0.06602(9)
C49 C 0.19031(7) 0.5565(3) 0.10100(9)
C50 C 0.19158(7) 0.3703(3) 0.09888(9)
H46 H 0.1652 0.3054 0.0771
C51 C 0.23143(8) 0.2800(3) 0.12870(10)
H47 H 0.2324 0.1528 0.1271
C52 C 0.27010(8) 0.3734(3) 0.16095(10)
H48 H 0.2973 0.3107 0.1818
C53 C 0.26865(8) 0.5593(3) 0.16245(10)
H49 H 0.2951 0.6238 0.1843
C54 C 0.22918(7) 0.6524(3) 0.13263(9)
H50 H 0.2286 0.7797 0.1337
O7 O 0.23980(6) 0.5446(2) 0.47470(8)
O8 O 0.23108(5) 0.2451(2) 0.46641(7)
C55 C 0.16537(8) 0.4206(3) 0.42392(12)
H51 H 0.1453 0.3822 0.4499
H52 H 0.1608 0.3399 0.3896
H53 H 0.1570 0.5433 0.4101
C56 C 0.21568(8) 0.4152(3) 0.45757(10)
C57 C 0.27945(8) 0.2194(3) 0.49801(10)
H54 H 0.2845 0.2635 0.5393
H55 H 0.3007 0.2858 0.4782
C58 C 0.28910(9) 0.0218(3) 0.49757(12)
H56 H 0.2673 -0.0425 0.5163
H57 H 0.3214 -0.0018 0.5196
H58 H 0.2849 -0.0193 0.4565
loop_
_geom_bond_atom_site_label_1
_geom_bond_atom_site_label_2
_geom_bond_site_symmetry_1
_geom_bond_site_symmetry_2
O1 C1 1_555 1_555
O2 C14 1_555 1_555
O3 C21 1_555 1_555
O4 C28 1_555 1_555
O5 C41 1_555 1_555
O6 C48 1_555 1_555
N1 N2 1_555 1_555
N2 C10 1_555 1_555
N3 C9 1_555 1_555
N4 N5 1_555 1_555
N5 C37 1_555 1_555
N6 C36 1_555 1_555
C1 H1 1_555 1_555
H2 C1 1_555 1_555
H3 C1 1_555 1_555
C2 O1 1_555 1_555
C3 C2 1_555 1_555
H4 C3 1_555 1_555
C4 C3 1_555 1_555
H5 C4 1_555 1_555
C5 C4 1_555 1_555
C6 C5 1_555 1_555
H6 C6 1_555 1_555
C7 C2 1_555 1_555
H7 C7 1_555 1_555
C8 N1 1_555 1_555
C9 C8 1_555 1_555
C10 C9 1_555 1_555
C11 C10 1_555 1_555
C12 C11 1_555 1_555
H8 C12 1_555 1_555
C13 C12 1_555 1_555
H9 C13 1_555 1_555
C14 C13 1_555 1_555
C15 C14 1_555 1_555
H10 C15 1_555 1_555
C16 C11 1_555 1_555
H11 C16 1_555 1_555
C17 O2 1_555 1_555
H12 C17 1_555 1_555
H13 C17 1_555 1_555
H14 C17 1_555 1_555
C18 C9 1_555 1_555
C19 C18 1_555 1_555
H15 C19 1_555 1_555
H16 C19 1_555 1_555
H17 C19 1_555 1_555
C20 C18 1_555 1_555
H18 C20 1_555 1_555
H19 C20 1_555 1_555
H20 C20 1_555 1_555
C21 N3 1_555 1_555
C22 N3 1_555 1_555
C23 C22 1_555 1_555
H21 C23 1_555 1_555
C24 C23 1_555 1_555
H22 C24 1_555 1_555
C25 C24 1_555 1_555
H23 C25 1_555 1_555
C26 C25 1_555 1_555
H24 C26 1_555 1_555
C27 C22 1_555 1_555
H25 C27 1_555 1_555
C28 H26 1_555 1_555
H27 C28 1_555 1_555
H28 C28 1_555 1_555
C29 O4 1_555 1_555
C30 C29 1_555 1_555
H29 C30 1_555 1_555
C31 C30 1_555 1_555
H30 C31 1_555 1_555
C32 C31 1_555 1_555
C33 C32 1_555 1_555
H31 C33 1_555 1_555
C34 C29 1_555 1_555
H32 C34 1_555 1_555
C35 N4 1_555 1_555
C36 C35 1_555 1_555
C37 C36 1_555 1_555
C38 C37 1_555 1_555
C39 C38 1_555 1_555
H33 C39 1_555 1_555
C40 C39 1_555 1_555
H34 C40 1_555 1_555
C41 C40 1_555 1_555
C42 C41 1_555 1_555
H35 C42 1_555 1_555
C43 C38 1_555 1_555
H36 C43 1_555 1_555
C44 O5 1_555 1_555
H37 C44 1_555 1_555
H38 C44 1_555 1_555
H39 C44 1_555 1_555
C45 C36 1_555 1_555
C46 C45 1_555 1_555
H40 C46 1_555 1_555
H41 C46 1_555 1_555
H42 C46 1_555 1_555
C47 C45 1_555 1_555
H43 C47 1_555 1_555
H44 C47 1_555 1_555
H45 C47 1_555 1_555
C48 N6 1_555 1_555
C49 N6 1_555 1_555
C50 C49 1_555 1_555
H46 C50 1_555 1_555
C51 C50 1_555 1_555
H47 C51 1_555 1_555
C52 C51 1_555 1_555
H48 C52 1_555 1_555
C53 C52 1_555 1_555
H49 C53 1_555 1_555
C54 C49 1_555 1_555
H50 C54 1_555 1_555
O7 C56 1_555 1_555
O8 C56 1_555 1_555
C55 H51 1_555 1_555
H52 C55 1_555 1_555
H53 C55 1_555 1_555
C56 C55 1_555 1_555
C57 O8 1_555 1_555
H54 C57 1_555 1_555
H55 C57 1_555 1_555
C58 C57 1_555 1_555
H56 C58 1_555 1_555
H57 C58 1_555 1_555
H58 C58 1_555 1_555
C5 C8 1_555 1_555
C6 C7 1_555 1_555
C15 C16 1_555 1_555
C18 C21 1_555 1_555
C26 C27 1_555 1_555
C32 C35 1_555 1_555
C33 C34 1_555 1_555
C42 C43 1_555 1_555
C45 C48 1_555 1_555
C53 C54 1_555 1_555

#END
