
#######################################################################
#
#                 Cambridge Crystallographic Data Centre
#                                CCDC 
#
#######################################################################
#
# If this CIF has been generated from an entry in the Cambridge 
# Structural Database, then it will include bibliographic, chemical, 
# crystal, experimental, refinement or atomic coordinate data resulting 
# from the CCDC's data processing and validation procedures.
#
#######################################################################

data_CADTOS
_chemical_formula_moiety         'C25 H19 Cl2 N1 O1'
_chemical_name_systematic        
6-Chloro-8-(4-chlorophenyl)-3,3-dimethyl-1-phenyl-3,3a-dihydroindeno[2,1-b]pyrrol-2(1H)-one
_symmetry_cell_setting           triclinic
_symmetry_space_group_name_H-M   'P -1'
_symmetry_Int_Tables_number      2
_space_group_name_Hall           '-P 1'
loop_
_symmetry_equiv_pos_site_id
_symmetry_equiv_pos_as_xyz
1 x,y,z
2 -x,-y,-z
_cell_length_a                   9.5724(13)
_cell_length_b                   10.2383(15)
_cell_length_c                   11.9176(16)
_cell_angle_alpha                101.788(2)
_cell_angle_beta                 113.095(2)
_cell_angle_gamma                99.135(2)
_cell_volume                     1014.03
_exptl_crystal_colour            colorless
_exptl_crystal_description       block
_cell_formula_units_Z            2
loop_
_atom_site_label
_atom_site_type_symbol
_atom_site_fract_x
_atom_site_fract_y
_atom_site_fract_z
C1 C 1.3607(3) 0.9973(2) 1.2880(2)
C2 C 1.3080(3) 1.0061(2) 1.3813(2)
H1 H 1.3739 1.0643 1.4656
C3 C 1.1572(3) 0.9288(2) 1.3506(2)
H2 H 1.1199 0.9334 1.4140
C4 C 1.0631(3) 0.8459(2) 1.2275(2)
C5 C 1.1200(3) 0.8349(2) 1.1341(2)
C6 C 1.2694(3) 0.9112(2) 1.1638(2)
H3 H 1.3084 0.9050 1.1014
C7 C 0.9948(3) 0.7417(2) 1.0098(2)
C8 C 1.0071(3) 0.7215(2) 0.8878(2)
C9 C 1.1274(3) 0.6714(3) 0.8725(2)
H4 H 1.2010 0.6478 0.9409
C10 C 1.1424(3) 0.6552(3) 0.7599(2)
H5 H 1.2245 0.6201 0.7505
C11 C 1.0357(3) 0.6911(3) 0.6613(2)
C12 C 0.9148(3) 0.7408(3) 0.6728(2)
H6 H 0.8419 0.7645 0.6042
C13 C 0.9012(3) 0.7556(2) 0.7859(2)
H7 H 0.8179 0.7896 0.7942
C14 C 0.8714(3) 0.6964(2) 1.0328(2)
C15 C 0.6273(3) 0.6832(2) 1.0266(2)
C16 C 0.7478(3) 0.7907(2) 1.1532(2)
C17 C 0.7015(3) 0.7825(3) 1.2607(2)
H8 H 0.5967 0.7980 1.2383
H9 H 0.7783 0.8533 1.3395
H10 H 0.6996 0.6907 1.2733
C18 C 0.7535(3) 0.9333(3) 1.1300(3)
H11 H 0.7873 0.9363 1.0627
H12 H 0.8282 1.0053 1.2089
H13 H 0.6485 0.9492 1.1038
C19 C 0.9006(3) 0.7483(2) 1.1684(2)
H14 H 0.9055 0.6694 1.2061
C20 C 0.6390(3) 0.5470(2) 0.8311(2)
C21 C 0.5059(3) 0.5665(2) 0.7400(2)
H15 H 0.4625 0.6393 0.7623
C22 C 0.4370(3) 0.4797(3) 0.6169(2)
H16 H 0.3441 0.4910 0.5548
C23 C 0.5025(3) 0.3762(3) 0.5833(2)
H17 H 0.4549 0.3168 0.4983
C24 C 0.6376(3) 0.3591(3) 0.6736(2)
H18 H 0.6839 0.2893 0.6501
C25 C 0.7051(3) 0.4435(2) 0.7980(2)
H19 H 0.7964 0.4306 0.8604
Cl1 Cl 1.54790(7) 1.09790(6) 1.32750(6)
Cl2 Cl 1.05890(8) 0.67957(8) 0.52173(6)
N1 N 0.7103(2) 0.6360(2) 0.95890(19)
O1 O 0.48611(19) 0.65019(18) 0.98742(17)
loop_
_geom_bond_atom_site_label_1
_geom_bond_atom_site_label_2
_geom_bond_site_symmetry_1
_geom_bond_site_symmetry_2
C1 C2 1_555 1_555
C2 H1 1_555 1_555
C3 C2 1_555 1_555
H2 C3 1_555 1_555
C4 C3 1_555 1_555
C5 C4 1_555 1_555
C6 C1 1_555 1_555
H3 C6 1_555 1_555
C7 C5 1_555 1_555
C8 C7 1_555 1_555
C9 C8 1_555 1_555
H4 C9 1_555 1_555
C10 C9 1_555 1_555
H5 C10 1_555 1_555
C11 C10 1_555 1_555
C12 C11 1_555 1_555
H6 C12 1_555 1_555
C13 C8 1_555 1_555
H7 C13 1_555 1_555
C14 C7 1_555 1_555
C15 C16 1_555 1_555
C16 C17 1_555 1_555
C17 H8 1_555 1_555
H9 C17 1_555 1_555
H10 C17 1_555 1_555
C18 C16 1_555 1_555
H11 C18 1_555 1_555
H12 C18 1_555 1_555
H13 C18 1_555 1_555
C19 C4 1_555 1_555
H14 C19 1_555 1_555
C20 C21 1_555 1_555
C21 H15 1_555 1_555
C22 C21 1_555 1_555
H16 C22 1_555 1_555
C23 C22 1_555 1_555
H17 C23 1_555 1_555
C24 C23 1_555 1_555
H18 C24 1_555 1_555
C25 C20 1_555 1_555
H19 C25 1_555 1_555
Cl1 C1 1_555 1_555
Cl2 C11 1_555 1_555
N1 C14 1_555 1_555
O1 C15 1_555 1_555
C5 C6 1_555 1_555
C12 C13 1_555 1_555
C14 C19 1_555 1_555
C15 N1 1_555 1_555
C16 C19 1_555 1_555
C20 N1 1_555 1_555
C24 C25 1_555 1_555

#END
