
#######################################################################
#
#                 Cambridge Crystallographic Data Centre
#                                CCDC 
#
#######################################################################
#
# If this CIF has been generated from an entry in the Cambridge 
# Structural Database, then it will include bibliographic, chemical, 
# crystal, experimental, refinement or atomic coordinate data resulting 
# from the CCDC's data processing and validation procedures.
#
#######################################################################

data_CADVAG
_chemical_formula_moiety         'C25 H19 Cl2 N3 O1'
_chemical_name_systematic        
3,6a-bis(4-Chlorophenyl)-6,6-dimethyl-4-phenyl-6,6a-dihydropyrrolo[3,2-c]pyrazol-5(4H)-one
_symmetry_cell_setting           monoclinic
_symmetry_space_group_name_H-M   'C 2'
_symmetry_Int_Tables_number      5
_space_group_name_Hall           'C 2y'
loop_
_symmetry_equiv_pos_site_id
_symmetry_equiv_pos_as_xyz
1 x,y,z
2 -x,y,-z
3 1/2+x,1/2+y,z
4 1/2-x,1/2+y,-z
_cell_length_a                   24.184(5)
_cell_length_b                   12.837(3)
_cell_length_c                   7.0688(15)
_cell_angle_alpha                90
_cell_angle_beta                 92.193(4)
_cell_angle_gamma                90
_cell_volume                     2192.9
_cell_formula_units_Z            4
loop_
_atom_site_label
_atom_site_type_symbol
_atom_site_fract_x
_atom_site_fract_y
_atom_site_fract_z
C1 C 0.03350(17) -0.0246(4) 0.7614(5)
C2 C 0.08122(16) -0.0822(4) 0.7362(5)
H1 H 0.0793 -0.1551 0.7143
C3 C 0.13181(16) -0.0310(3) 0.7437(5)
H2 H 0.1648 -0.0696 0.7277
C4 C 0.13486(14) 0.0752(3) 0.7741(4)
C5 C 0.08650(15) 0.1305(3) 0.8010(5)
H3 H 0.0883 0.2034 0.8239
C6 C 0.03552(15) 0.0805(4) 0.7947(5)
H4 H 0.0025 0.1187 0.8133
C7 C 0.18858(14) 0.1276(3) 0.7715(5)
C8 C 0.21369(14) 0.2079(3) 0.8619(5)
C9 C 0.15947(15) 0.2967(3) 1.1103(5)
C10 C 0.14608(15) 0.2049(3) 1.1998(5)
H5 H 0.1643 0.1418 1.1693
C11 C 0.10564(16) 0.2056(4) 1.3351(5)
H6 H 0.0962 0.1430 1.3976
C12 C 0.07954(19) 0.2972(5) 1.3776(6)
H7 H 0.0515 0.2975 1.4682
C13 C 0.09382(19) 0.3886(4) 1.2893(6)
H8 H 0.0762 0.4518 1.3221
C14 C 0.13374(17) 0.3894(4) 1.1528(5)
H9 H 0.1431 0.4522 1.0903
C15 C 0.23623(15) 0.3768(3) 0.9223(5)
C16 C 0.26797(15) 0.3416(3) 0.7481(5)
C17 C 0.32290(16) 0.3983(3) 0.7372(5)
H10 H 0.3161 0.4728 0.7169
H11 H 0.3435 0.3703 0.6318
H12 H 0.3445 0.3883 0.8559
C18 C 0.23148(16) 0.3646(3) 0.5693(5)
H13 H 0.2225 0.4391 0.5645
H14 H 0.1972 0.3241 0.5732
H15 H 0.2515 0.3454 0.4565
C19 C 0.26962(15) 0.2218(3) 0.7882(5)
C20 C 0.31654(14) 0.1903(3) 0.9244(5)
C21 C 0.36998(16) 0.1776(3) 0.8591(5)
H16 H 0.3767 0.1908 0.7298
C22 C 0.41276(16) 0.1466(3) 0.9779(5)
H17 H 0.4487 0.1374 0.9305
C23 C 0.40376(16) 0.1287(3) 1.1667(6)
C24 C 0.35156(16) 0.1407(3) 1.2378(5)
H18 H 0.3455 0.1275 1.3676
C25 C 0.30829(15) 0.1722(3) 1.1173(5)
H19 H 0.2725 0.1817 1.1656
Cl1 Cl -0.03008(5) -0.08794(12) 0.75187(16)
Cl2 Cl 0.45774(5) 0.08903(14) 1.31739(17)
N1 N 0.20066(12) 0.2939(2) 0.9696(4)
N2 N 0.27037(12) 0.1477(2) 0.6271(4)
N3 N 0.22664(12) 0.0929(2) 0.6293(4)
O1 O 0.23947(11) 0.4588(2) 1.0029(4)
loop_
_geom_bond_atom_site_label_1
_geom_bond_atom_site_label_2
_geom_bond_site_symmetry_1
_geom_bond_site_symmetry_2
C1 C2 1_555 1_555
C2 H1 1_555 1_555
C3 C2 1_555 1_555
H2 C3 1_555 1_555
C4 C3 1_555 1_555
C5 C4 1_555 1_555
H3 C5 1_555 1_555
C6 C1 1_555 1_555
H4 C6 1_555 1_555
C7 C4 1_555 1_555
C8 C7 1_555 1_555
C9 C10 1_555 1_555
C10 H5 1_555 1_555
C11 C10 1_555 1_555
H6 C11 1_555 1_555
C12 C11 1_555 1_555
H7 C12 1_555 1_555
C13 C12 1_555 1_555
H8 C13 1_555 1_555
C14 C9 1_555 1_555
H9 C14 1_555 1_555
C15 C16 1_555 1_555
C16 C17 1_555 1_555
C17 H10 1_555 1_555
H11 C17 1_555 1_555
H12 C17 1_555 1_555
C18 C16 1_555 1_555
H13 C18 1_555 1_555
H14 C18 1_555 1_555
H15 C18 1_555 1_555
C19 C8 1_555 1_555
C20 C19 1_555 1_555
C21 C20 1_555 1_555
H16 C21 1_555 1_555
C22 C21 1_555 1_555
H17 C22 1_555 1_555
C23 C22 1_555 1_555
C24 C23 1_555 1_555
H18 C24 1_555 1_555
C25 C20 1_555 1_555
H19 C25 1_555 1_555
Cl1 C1 1_555 1_555
Cl2 C23 1_555 1_555
N1 C8 1_555 1_555
N2 C19 1_555 1_555
N3 C7 1_555 1_555
O1 C15 1_555 1_555
C5 C6 1_555 1_555
C9 N1 1_555 1_555
C13 C14 1_555 1_555
C15 N1 1_555 1_555
C16 C19 1_555 1_555
C24 C25 1_555 1_555
N2 N3 1_555 1_555

#END
