
#######################################################################
#
#                 Cambridge Crystallographic Data Centre
#                                CCDC 
#
#######################################################################
#
# If this CIF has been generated from an entry in the Cambridge 
# Structural Database, then it will include bibliographic, chemical, 
# crystal, experimental, refinement or atomic coordinate data resulting 
# from the CCDC's data processing and validation procedures.
#
#######################################################################

data_CADXUC
_chemical_formula_moiety         'C24 H10 S6'
_chemical_name_systematic        
2,2'-Bi-bisthieno[2,3-e:2',3'-g][1]benzothiophene
_symmetry_cell_setting           monoclinic
_symmetry_space_group_name_H-M   'P 21/n'
_symmetry_Int_Tables_number      14
_space_group_name_Hall           '-P 2yn'
loop_
_symmetry_equiv_pos_site_id
_symmetry_equiv_pos_as_xyz
1 x,y,z
2 1/2-x,1/2+y,1/2-z
3 -x,-y,-z
4 1/2+x,1/2-y,1/2+z
_cell_length_a                   16.683(18)
_cell_length_b                   3.890(4)
_cell_length_c                   17.188(19)
_cell_angle_alpha                90
_cell_angle_beta                 115.150(3)
_cell_angle_gamma                90
_cell_volume                     1009.7
_exptl_crystal_colour            colorless
_exptl_crystal_description       platelet
_cell_formula_units_Z            2
loop_
_atom_site_label
_atom_site_type_symbol
_atom_site_fract_x
_atom_site_fract_y
_atom_site_fract_z
S1 S 0.6992(2) 0.4127(5) -0.15524(13)
S2 S 0.9685(2) 0.0053(7) 0.14050(19)
S3 S 0.63193(18) -0.1219(5) 0.10127(13)
C1 C 0.8079(4) 0.4398(8) -0.1403(3)
H1 H 0.8257 0.5245 -0.1811
C2 C 0.9417(4) -0.1588(9) 0.2207(3)
H2 H 0.9838 -0.2308 0.2741
C3 C 0.5453(2) 0.0180(6) 0.00543(19)
C4 C 0.7330(3) 0.2449(6) -0.05368(19)
C5 C 0.8240(3) 0.2088(6) -0.0074(2)
C6 C 0.8574(3) 0.0683(6) 0.0770(2)
C7 C 0.8009(3) -0.0338(6) 0.11258(19)
C8 C 0.7076(3) 0.0037(6) 0.06363(19)
C9 C 0.6734(3) 0.1441(6) -0.01865(18)
C10 C 0.8545(16) -0.171(5) 0.1980(11)
H3 H 0.8303 -0.2588 0.2335
C11 C 0.8652(13) 0.321(5) -0.0606(15)
H4 H 0.9262 0.3136 -0.0428
C12 C 0.5784(9) 0.140(2) -0.0488(6)
H5 H 0.5412 0.2186 -0.1035
S1B S 0.3008(2) -0.4127(5) 0.15524(13)
S2B S 0.0315(2) -0.0053(7) -0.14050(19)
S3B S 0.36807(18) 0.1219(5) -0.10127(13)
C1B C 0.1921(4) -0.4398(8) 0.1403(3)
H1B H 0.1743 -0.5245 0.1811
C2B C 0.0583(4) 0.1588(9) -0.2207(3)
H2B H 0.0162 0.2308 -0.2741
C3B C 0.4547(2) -0.0180(6) -0.00543(19)
C4B C 0.2670(3) -0.2449(6) 0.05368(19)
C5B C 0.1760(3) -0.2088(6) 0.0074(2)
C6B C 0.1426(3) -0.0683(6) -0.0770(2)
C7B C 0.1991(3) 0.0338(6) -0.11258(19)
C8B C 0.2924(3) -0.0037(6) -0.06363(19)
C9B C 0.3266(3) -0.1441(6) 0.01865(18)
C10B C 0.1455(16) 0.171(5) -0.1980(11)
H3B H 0.1697 0.2588 -0.2335
C11B C 0.1348(13) -0.321(5) 0.0606(15)
H4B H 0.0738 -0.3136 0.0428
C12B C 0.4216(9) -0.140(2) 0.0488(6)
H5B H 0.4588 -0.2186 0.1035
C13? C 0.9382(16) -0.011(7) 0.153(2)
C14? C 0.6197(17) -0.053(4) 0.0719(13)
C15? C 0.733(2) 0.411(6) -0.127(2)
H6? H 0.6197 -0.1347 0.1227
H7? H 0.8101 0.5106 -0.1911
H8? H 0.6800 0.5022 -0.1677
H9? H 0.9929 -0.2338 0.2666
H10? H 0.9917 0.0514 0.1529
S4? S 0.8975(9) 0.324(3) -0.0474(9)
S5? S 0.8359(10) -0.197(3) 0.2130(6)
S6? S 0.5635(5) 0.1971(15) -0.0791(3)
loop_
_geom_bond_atom_site_label_1
_geom_bond_atom_site_label_2
_geom_bond_site_symmetry_1
_geom_bond_site_symmetry_2
S1 C1 1_555 1_555
S2 C2 1_555 1_555
S3 C3 1_555 1_555
C1 H1 1_555 1_555
C2 H2 1_555 1_555
C3 C12 1_555 1_555
C4 S1 1_555 1_555
C5 C4 1_555 1_555
C6 S2 1_555 1_555
C7 C6 1_555 1_555
C8 S3 1_555 1_555
C9 C4 1_555 1_555
C10 C2 1_555 1_555
H3 C10 1_555 1_555
C11 C1 1_555 1_555
H4 C11 1_555 1_555
C12 C9 1_555 1_555
H5 C12 1_555 1_555
S1B C1B 1_555 1_555
S2B C2B 1_555 1_555
S3B C3B 1_555 1_555
C1B H1B 1_555 1_555
C2B H2B 1_555 1_555
C3B C3 1_555 1_555
C4B S1B 1_555 1_555
C5B C4B 1_555 1_555
C6B S2B 1_555 1_555
C7B C6B 1_555 1_555
C8B S3B 1_555 1_555
C9B C4B 1_555 1_555
C10B C2B 1_555 1_555
H3B C10B 1_555 1_555
C11B C1B 1_555 1_555
H4B C11B 1_555 1_555
C12B C3B 1_555 1_555
H5B C12B 1_555 1_555
C5 C6 1_555 1_555
C5 C11 1_555 1_555
C7 C8 1_555 1_555
C7 C10 1_555 1_555
C8 C9 1_555 1_555
C5B C6B 1_555 1_555
C5B C11B 1_555 1_555
C7B C8B 1_555 1_555
C7B C10B 1_555 1_555
C8B C9B 1_555 1_555
C9B C12B 1_555 1_555

#END
