
#######################################################################
#
#                 Cambridge Crystallographic Data Centre
#                                CCDC 
#
#######################################################################
#
# If this CIF has been generated from an entry in the Cambridge 
# Structural Database, then it will include bibliographic, chemical, 
# crystal, experimental, refinement or atomic coordinate data resulting 
# from the CCDC's data processing and validation procedures.
#
#######################################################################

data_CADZOZ
_chemical_formula_moiety         'C36 H22 Br2 N2'
_chemical_name_systematic        
9,9'-bis(4-bromophenyl)-9H,9'H-3,3'-bicarbazole
_symmetry_cell_setting           triclinic
_symmetry_space_group_name_H-M   'P -1'
_symmetry_Int_Tables_number      2
_space_group_name_Hall           '-P 1'
loop_
_symmetry_equiv_pos_site_id
_symmetry_equiv_pos_as_xyz
1 x,y,z
2 -x,-y,-z
_cell_length_a                   7.7145(5)
_cell_length_b                   10.5317(6)
_cell_length_c                   17.8098(10)
_cell_angle_alpha                86.729(3)
_cell_angle_beta                 86.706(3)
_cell_angle_gamma                74.416(3)
_cell_volume                     1390.19
_exptl_crystal_colour            colorless
_exptl_crystal_description       needle
_cell_formula_units_Z            2
loop_
_atom_site_label
_atom_site_type_symbol
_atom_site_fract_x
_atom_site_fract_y
_atom_site_fract_z
Br1 Br 0.44604(12) 0.72641(8) -0.02978(4)
Br2 Br 1.37125(9) -0.31297(6) 0.77738(3)
C1 C 0.5305(7) 0.7203(5) 0.3586(3)
C2 C 0.6488(7) 0.5979(5) 0.3494(3)
H1 H 0.6766 0.5619 0.3011
C3 C 0.7258(7) 0.5292(5) 0.4129(3)
H2 H 0.8094 0.4454 0.4071
C4 C 0.6866(7) 0.5770(5) 0.4857(3)
C5 C 0.5708(7) 0.7015(5) 0.4926(3)
H3 H 0.5424 0.7373 0.5409
C6 C 0.4950(7) 0.7753(5) 0.4292(3)
C7 C 0.3694(7) 0.9033(5) 0.4187(3)
C8 C 0.2818(7) 1.0006(5) 0.4667(3)
H4 H 0.3046 0.9907 0.5189
C9 C 0.1613(8) 1.1122(6) 0.4387(3)
H5 H 0.1013 1.1794 0.4718
C10 C 0.1265(7) 1.1274(5) 0.3624(3)
H6 H 0.0408 1.2042 0.3443
C11 C 0.2141(7) 1.0329(5) 0.3127(3)
H7 H 0.1914 1.0438 0.2606
C12 C 0.3356(7) 0.9223(5) 0.3413(3)
C13 C 0.4367(7) 0.7909(5) 0.2265(3)
C14 C 0.4635(7) 0.8876(6) 0.1745(3)
H8 H 0.4815 0.9671 0.1910
C15 C 0.4640(8) 0.8678(6) 0.0986(3)
H9 H 0.4806 0.9347 0.0630
C16 C 0.4409(8) 0.7533(6) 0.0741(3)
C17 C 0.4147(8) 0.6565(6) 0.1254(3)
H10 H 0.3980 0.5768 0.1085
C18 C 0.4127(7) 0.6754(5) 0.2014(3)
H11 H 0.3948 0.6085 0.2367
C19 C 0.8735(7) 0.4698(5) 0.6792(3)
C20 C 0.7888(7) 0.5500(5) 0.6195(3)
H12 H 0.7428 0.6423 0.6252
C21 C 0.7711(7) 0.4958(5) 0.5516(3)
C22 C 0.8327(7) 0.3588(5) 0.5473(3)
H13 H 0.8144 0.3202 0.5025
C23 C 0.9191(7) 0.2766(5) 0.6049(3)
H14 H 0.9617 0.1840 0.5998
C24 C 0.9408(7) 0.3342(5) 0.6700(3)
C25 C 1.0117(7) 0.3731(5) 0.7862(3)
C26 C 1.0823(8) 0.3641(6) 0.8569(3)
H15 H 1.1485 0.2817 0.8781
C27 C 1.0537(8) 0.4775(6) 0.8951(3)
H16 H 1.1028 0.4735 0.9431
C28 C 0.9538(8) 0.5991(6) 0.8652(3)
H17 H 0.9324 0.6757 0.8938
C29 C 0.8863(8) 0.6086(6) 0.7942(3)
H18 H 0.8203 0.6913 0.7734
C30 C 0.9165(7) 0.4953(5) 0.7542(3)
C31 C 1.1068(7) 0.1379(5) 0.7467(3)
C32 C 1.2231(7) 0.0708(5) 0.6917(3)
H19 H 1.2501 0.1172 0.6472
C33 C 1.3007(7) -0.0628(6) 0.7007(3)
H20 H 1.3789 -0.1087 0.6622
C34 C 1.2640(8) -0.1292(5) 0.7660(3)
C35 C 1.1487(7) -0.0636(6) 0.8223(3)
H21 H 1.1248 -0.1102 0.8673
C36 C 1.0685(7) 0.0702(6) 0.8126(3)
H22 H 0.9879 0.1157 0.8506
N1 N 0.4354(6) 0.8107(4) 0.3046(2)
N2 N 1.0233(6) 0.2753(4) 0.7357(2)
loop_
_geom_bond_atom_site_label_1
_geom_bond_atom_site_label_2
_geom_bond_site_symmetry_1
_geom_bond_site_symmetry_2
Br1 C16 1_555 1_555
Br2 C34 1_555 1_555
C1 C2 1_555 1_555
C2 H1 1_555 1_555
C3 C2 1_555 1_555
H2 C3 1_555 1_555
C4 C3 1_555 1_555
C5 C4 1_555 1_555
H3 C5 1_555 1_555
C6 C1 1_555 1_555
C7 C6 1_555 1_555
C8 C7 1_555 1_555
H4 C8 1_555 1_555
C9 C8 1_555 1_555
H5 C9 1_555 1_555
C10 C9 1_555 1_555
H6 C10 1_555 1_555
C11 C10 1_555 1_555
H7 C11 1_555 1_555
C12 C7 1_555 1_555
C13 C14 1_555 1_555
C14 H8 1_555 1_555
C15 C14 1_555 1_555
H9 C15 1_555 1_555
C16 C15 1_555 1_555
C17 C16 1_555 1_555
H10 C17 1_555 1_555
C18 C13 1_555 1_555
H11 C18 1_555 1_555
C19 C20 1_555 1_555
C20 H12 1_555 1_555
C21 C4 1_555 1_555
C22 C21 1_555 1_555
H13 C22 1_555 1_555
C23 C22 1_555 1_555
H14 C23 1_555 1_555
C24 C19 1_555 1_555
C25 C26 1_555 1_555
C26 H15 1_555 1_555
C27 C26 1_555 1_555
H16 C27 1_555 1_555
C28 C27 1_555 1_555
H17 C28 1_555 1_555
C29 C28 1_555 1_555
H18 C29 1_555 1_555
C30 C19 1_555 1_555
C31 C32 1_555 1_555
C32 H19 1_555 1_555
C33 C32 1_555 1_555
H20 C33 1_555 1_555
C34 C33 1_555 1_555
C35 C34 1_555 1_555
H21 C35 1_555 1_555
C36 C31 1_555 1_555
H22 C36 1_555 1_555
N1 C1 1_555 1_555
N2 C24 1_555 1_555
C5 C6 1_555 1_555
C11 C12 1_555 1_555
C12 N1 1_555 1_555
C13 N1 1_555 1_555
C17 C18 1_555 1_555
C20 C21 1_555 1_555
C23 C24 1_555 1_555
C25 C30 1_555 1_555
C25 N2 1_555 1_555
C29 C30 1_555 1_555
C31 N2 1_555 1_555
C35 C36 1_555 1_555

#END
