
#######################################################################
#
#                 Cambridge Crystallographic Data Centre
#                                CCDC 
#
#######################################################################
#
# If this CIF has been generated from an entry in the Cambridge 
# Structural Database, then it will include bibliographic, chemical, 
# crystal, experimental, refinement or atomic coordinate data resulting 
# from the CCDC's data processing and validation procedures.
#
#######################################################################

data_CADZEP
_chemical_formula_moiety         'C31 H27 B1 O4 S1'
_chemical_name_systematic        
2-(10',10'-dioxidospiro[fluorene-9,9'-thioxanthen]-2-yl)-4,4,5,5-tetramethyl-1,3,2-dioxaborolane
_symmetry_cell_setting           monoclinic
_symmetry_space_group_name_H-M   'P 21/c'
_symmetry_Int_Tables_number      14
_space_group_name_Hall           '-P 2ybc'
loop_
_symmetry_equiv_pos_site_id
_symmetry_equiv_pos_as_xyz
1 x,y,z
2 -x,1/2+y,1/2-z
3 -x,-y,-z
4 x,1/2-y,1/2+z
_cell_length_a                   12.5791(10)
_cell_length_b                   13.9632(11)
_cell_length_c                   15.7907(12)
_cell_angle_alpha                90
_cell_angle_beta                 110.473(2)
_cell_angle_gamma                90
_cell_volume                     2598.36
_exptl_crystal_colour            colorless
_exptl_crystal_description       block
_cell_formula_units_Z            4
_chemical_properties_physical    Heat-sensitive
_exptl_crystal_recrystallization_method chloroform/methanol
loop_
_atom_site_label
_atom_site_type_symbol
_atom_site_fract_x
_atom_site_fract_y
_atom_site_fract_z
S1 S 0.76831(6) 0.60833(4) 0.00228(4)
O1 O 0.84248(17) 0.67966(14) 0.05850(12)
O2 O 0.8040(2) 0.51050(14) 0.01451(16)
O3 O 0.90231(17) 0.99685(13) 0.10463(14)
O4 O 0.81468(18) 1.13537(14) 0.05496(19)
C1 C 0.65356(18) 0.70489(14) -0.15329(13)
C2 C 0.6453(2) 0.73564(17) -0.23944(15)
H1 H 0.582(2) 0.7817(19) -0.2726(18)
C3 C 0.7176(2) 0.7028(2) -0.28092(18)
H2 H 0.709(3) 0.721(2) -0.343(2)
C4 C 0.7998(2) 0.6374(2) -0.23900(19)
H3 H 0.846(2) 0.612(2) -0.2664(19)
C5 C 0.8126(2) 0.60669(18) -0.1529(2)
H4 H 0.867(2) 0.5657(19) -0.1204(19)
C6 C 0.74004(19) 0.64100(15) -0.11050(14)
C7 C 0.6370(2) 0.61935(14) 0.01550(14)
C8 C 0.6194(3) 0.56503(18) 0.08400(17)
H5 H 0.680(3) 0.525(2) 0.114(2)
C9 C 0.5222(3) 0.5768(2) 0.10263(18)
H6 H 0.5105 0.5412 0.1484
C10 C 0.4420(3) 0.6409(2) 0.05414(19)
H7 H 0.3761 0.6489 0.0674
C11 C 0.4577(2) 0.69380(17) -0.01442(16)
H8 H 0.4019 0.7368 -0.0469
C12 C 0.5559(2) 0.68383(13) -0.03577(13)
C13 C 0.56835(18) 0.74339(13) -0.11300(12)
C14 C 0.45164(18) 0.75313(15) -0.18810(14)
C15 C 0.3856(2) 0.68244(19) -0.24269(16)
H9 H 0.414(2) 0.6207(19) -0.2332(17)
C16 C 0.2843(2) 0.7084(2) -0.30857(18)
H10 H 0.235(2) 0.659(2) -0.346(2)
C17 C 0.2491(2) 0.8021(2) -0.3192(2)
H11 H 0.177(3) 0.817(2) -0.366(2)
C18 C 0.3142(2) 0.8729(2) -0.26479(18)
H12 H 0.293(2) 0.939(2) -0.2725(19)
C19 C 0.41634(18) 0.84796(15) -0.19881(14)
C20 C 0.50389(18) 0.90690(14) -0.13505(14)
C21 C 0.59443(17) 0.84902(13) -0.08454(12)
C22 C 0.69099(19) 0.88859(14) -0.02279(14)
H13 H 0.7547(19) 0.8501(16) 0.0082(15)
C23 C 0.69785(19) 0.98843(15) -0.01075(14)
C24 C 0.6052(2) 1.04432(16) -0.06034(17)
H14 H 0.611(2) 1.1137(19) -0.0532(16)
C25 C 0.5085(2) 1.00523(15) -0.12195(17)
H15 H 0.444(2) 1.0439(17) -0.1546(17)
C26 C 0.9823(2) 1.0685(2) 0.15512(19)
C27 C 0.9301(2) 1.1629(2) 0.1063(2)
C28 C 1.0980(3) 1.0436(4) 0.1519(4)
H16 H 1.1245 0.9853 0.1847
H17 H 1.1503 1.0944 0.1787
H18 H 1.0924 1.0352 0.0901
C29 C 0.9867(3) 1.0624(3) 0.2512(2)
H19 H 0.9118 1.0709 0.2530
H20 H 1.0358 1.1115 0.2864
H21 H 1.0153 1.0008 0.2756
C30 C 0.9232(4) 1.2440(3) 0.1687(3)
H22 H 0.8746 1.2254 0.2010
H23 H 0.8931 1.3002 0.1335
H24 H 0.9978 1.2576 0.2109
C31 C 0.9854(4) 1.1978(3) 0.0416(3)
H25 H 1.0633 1.2134 0.0744
H26 H 0.9464 1.2538 0.0107
H27 H 0.9817 1.1486 -0.0018
B1 B 0.8067(2) 1.03958(19) 0.05156(18)
loop_
_geom_bond_atom_site_label_1
_geom_bond_atom_site_label_2
_geom_bond_site_symmetry_1
_geom_bond_site_symmetry_2
S1 O1 1_555 1_555
O2 S1 1_555 1_555
O3 C26 1_555 1_555
O4 C27 1_555 1_555
C1 C2 1_555 1_555
C2 H1 1_555 1_555
C3 C2 1_555 1_555
H2 C3 1_555 1_555
C4 C3 1_555 1_555
H3 C4 1_555 1_555
C5 C4 1_555 1_555
H4 C5 1_555 1_555
C6 S1 1_555 1_555
C7 S1 1_555 1_555
C8 C7 1_555 1_555
H5 C8 1_555 1_555
C9 C8 1_555 1_555
H6 C9 1_555 1_555
C10 C9 1_555 1_555
H7 C10 1_555 1_555
C11 C10 1_555 1_555
H8 C11 1_555 1_555
C12 C7 1_555 1_555
C13 C1 1_555 1_555
C14 C13 1_555 1_555
C15 C14 1_555 1_555
H9 C15 1_555 1_555
C16 C15 1_555 1_555
H10 C16 1_555 1_555
C17 C16 1_555 1_555
H11 C17 1_555 1_555
C18 C17 1_555 1_555
H12 C18 1_555 1_555
C19 C14 1_555 1_555
C20 C19 1_555 1_555
C21 C13 1_555 1_555
C22 C21 1_555 1_555
H13 C22 1_555 1_555
C23 C22 1_555 1_555
C24 C23 1_555 1_555
H14 C24 1_555 1_555
C25 C20 1_555 1_555
H15 C25 1_555 1_555
C26 C27 1_555 1_555
C27 C30 1_555 1_555
C28 C26 1_555 1_555
H16 C28 1_555 1_555
H17 C28 1_555 1_555
H18 C28 1_555 1_555
C29 C26 1_555 1_555
H19 C29 1_555 1_555
H20 C29 1_555 1_555
H21 C29 1_555 1_555
C30 H22 1_555 1_555
H23 C30 1_555 1_555
H24 C30 1_555 1_555
C31 C27 1_555 1_555
H25 C31 1_555 1_555
H26 C31 1_555 1_555
H27 C31 1_555 1_555
B1 O3 1_555 1_555
O4 B1 1_555 1_555
C1 C6 1_555 1_555
C5 C6 1_555 1_555
C11 C12 1_555 1_555
C12 C13 1_555 1_555
C18 C19 1_555 1_555
C20 C21 1_555 1_555
C23 B1 1_555 1_555
C24 C25 1_555 1_555

#END
