
#######################################################################
#
#                 Cambridge Crystallographic Data Centre
#                                CCDC 
#
#######################################################################
#
# If this CIF has been generated from an entry in the Cambridge 
# Structural Database, then it will include bibliographic, chemical, 
# crystal, experimental, refinement or atomic coordinate data resulting 
# from the CCDC's data processing and validation procedures.
#
#######################################################################

data_CAFHAV01
_chemical_formula_moiety         'C36 H24 N2'
_chemical_name_systematic        "9, 9'-diphenyl-9H, 9'H-3, 3'-bicarbazole"
_symmetry_cell_setting           monoclinic
_symmetry_space_group_name_H-M   'P 21/c'
_symmetry_Int_Tables_number      14
_space_group_name_Hall           '-P 2ybc'
loop_
_symmetry_equiv_pos_site_id
_symmetry_equiv_pos_as_xyz
1 x,y,z
2 -x,1/2+y,1/2-z
3 -x,-y,-z
4 x,1/2-y,1/2+z
_cell_length_a                   9.4067(11)
_cell_length_b                   9.6150(11)
_cell_length_c                   14.1821(16)
_cell_angle_alpha                90
_cell_angle_beta                 104.252(3)
_cell_angle_gamma                90
_cell_volume                     1243.23
_exptl_crystal_colour            colorless
_exptl_crystal_description       block
_chemical_melting_point          '208 deg.C'
_cell_formula_units_Z            2
_exptl_crystal_recrystallization_method 'dichloromethane/petroleum ether'
loop_
_atom_site_label
_atom_site_type_symbol
_atom_site_fract_x
_atom_site_fract_y
_atom_site_fract_z
C1 C 0.28194(14) 0.40648(13) 0.24779(9)
C2 C 0.25519(15) 0.53123(15) 0.19601(10)
H1 H 0.1805 0.5386 0.1394
C3 C 0.34366(16) 0.64308(15) 0.23188(11)
H2 H 0.3270 0.7275 0.1991
C4 C 0.45716(16) 0.63358(15) 0.31563(11)
H3 H 0.5157 0.7108 0.3371
C5 C 0.48385(15) 0.51012(14) 0.36743(10)
H4 H 0.5598 0.5038 0.4234
C6 C 0.39472(13) 0.39550(13) 0.33403(9)
C7 C 0.38898(13) 0.25439(12) 0.36914(9)
C8 C 0.47725(13) 0.18148(13) 0.44669(8)
H5 H 0.5533 0.2270 0.4901
C9 C 0.45217(13) 0.04059(12) 0.45965(8)
C10 C 0.33390(16) -0.02286(14) 0.39285(10)
H6 H 0.3148 -0.1163 0.4015
C11 C 0.24517(16) 0.04689(14) 0.31532(10)
H7 H 0.1683 0.0018 0.2724
C12 C 0.27433(14) 0.18692(13) 0.30338(9)
C13 C 0.10145(14) 0.24217(14) 0.14339(9)
C14 C -0.02744(15) 0.17939(16) 0.15120(11)
H8 H -0.0461 0.1669 0.2121
C15 C -0.12848(16) 0.13529(18) 0.06865(12)
H9 H -0.2144 0.0919 0.0742
C16 C -0.10263(18) 0.15519(19) -0.02193(12)
H10 H -0.1703 0.1244 -0.0774
C17 C 0.02410(19) 0.2210(2) -0.02974(11)
H11 H 0.0402 0.2369 -0.0909
C18 C 0.12765(16) 0.26367(17) 0.05236(11)
H12 H 0.2139 0.3063 0.0466
N1 N 0.20844(12) 0.27956(12) 0.22954(8)
C1B C 0.71806(14) -0.40648(13) 0.75221(9)
C2B C 0.74481(15) -0.53123(15) 0.80399(10)
H1B H 0.8195 -0.5386 0.8606
C3B C 0.65634(16) -0.64308(15) 0.76812(11)
H2B H 0.6730 -0.7275 0.8009
C4B C 0.54284(16) -0.63358(15) 0.68437(11)
H3B H 0.4843 -0.7108 0.6629
C5B C 0.51615(15) -0.51012(14) 0.63257(10)
H4B H 0.4402 -0.5038 0.5766
C6B C 0.60528(13) -0.39550(13) 0.66597(9)
C7B C 0.61102(13) -0.25439(12) 0.63086(9)
C8B C 0.52275(13) -0.18148(13) 0.55331(8)
H5B H 0.4467 -0.2270 0.5099
C9B C 0.54783(13) -0.04059(12) 0.54035(8)
C10B C 0.66610(16) 0.02286(14) 0.60715(10)
H6B H 0.6852 0.1163 0.5985
C11B C 0.75483(16) -0.04689(14) 0.68468(10)
H7B H 0.8317 -0.0018 0.7276
C12B C 0.72567(14) -0.18692(13) 0.69662(9)
C13B C 0.89855(14) -0.24217(14) 0.85661(9)
C14B C 1.02744(15) -0.17939(16) 0.84880(11)
H8B H 1.0461 -0.1669 0.7879
C15B C 1.12848(16) -0.13529(18) 0.93135(12)
H9B H 1.2144 -0.0919 0.9258
C16B C 1.10263(18) -0.15519(19) 1.02193(12)
H10B H 1.1703 -0.1244 1.0774
C17B C 0.97590(19) -0.2210(2) 1.02974(11)
H11B H 0.9598 -0.2369 1.0909
C18B C 0.87235(16) -0.26367(17) 0.94764(11)
H12B H 0.7861 -0.3063 0.9534
N1B N 0.79156(12) -0.27956(12) 0.77046(8)
loop_
_geom_bond_atom_site_label_1
_geom_bond_atom_site_label_2
_geom_bond_site_symmetry_1
_geom_bond_site_symmetry_2
C1 C2 1_555 1_555
C2 H1 1_555 1_555
C3 C2 1_555 1_555
H2 C3 1_555 1_555
C4 C3 1_555 1_555
H3 C4 1_555 1_555
C5 C4 1_555 1_555
H4 C5 1_555 1_555
C6 C1 1_555 1_555
C7 C6 1_555 1_555
C8 C7 1_555 1_555
H5 C8 1_555 1_555
C9 C8 1_555 1_555
C10 C9 1_555 1_555
H6 C10 1_555 1_555
C11 C10 1_555 1_555
H7 C11 1_555 1_555
C12 C7 1_555 1_555
C13 C14 1_555 1_555
C14 H8 1_555 1_555
C15 C14 1_555 1_555
H9 C15 1_555 1_555
C16 C15 1_555 1_555
H10 C16 1_555 1_555
C17 C16 1_555 1_555
H11 C17 1_555 1_555
C18 C13 1_555 1_555
H12 C18 1_555 1_555
N1 C1 1_555 1_555
C1B C2B 1_555 1_555
C2B H1B 1_555 1_555
C3B C2B 1_555 1_555
H2B C3B 1_555 1_555
C4B C3B 1_555 1_555
H3B C4B 1_555 1_555
C5B C4B 1_555 1_555
H4B C5B 1_555 1_555
C6B C1B 1_555 1_555
C7B C6B 1_555 1_555
C8B C7B 1_555 1_555
H5B C8B 1_555 1_555
C9B C9 1_555 1_555
C10B C9B 1_555 1_555
H6B C10B 1_555 1_555
C11B C10B 1_555 1_555
H7B C11B 1_555 1_555
C12B C7B 1_555 1_555
C13B C14B 1_555 1_555
C14B H8B 1_555 1_555
C15B C14B 1_555 1_555
H9B C15B 1_555 1_555
C16B C15B 1_555 1_555
H10B C16B 1_555 1_555
C17B C16B 1_555 1_555
H11B C17B 1_555 1_555
C18B C13B 1_555 1_555
H12B C18B 1_555 1_555
N1B C1B 1_555 1_555
C5 C6 1_555 1_555
C11 C12 1_555 1_555
C12 N1 1_555 1_555
C13 N1 1_555 1_555
C17 C18 1_555 1_555
C5B C6B 1_555 1_555
C8B C9B 1_555 1_555
C11B C12B 1_555 1_555
C12B N1B 1_555 1_555
C13B N1B 1_555 1_555
C17B C18B 1_555 1_555

#END
