
#######################################################################
#
#                 Cambridge Crystallographic Data Centre
#                                CCDC 
#
#######################################################################
#
# If this CIF has been generated from an entry in the Cambridge 
# Structural Database, then it will include bibliographic, chemical, 
# crystal, experimental, refinement or atomic coordinate data resulting 
# from the CCDC's data processing and validation procedures.
#
#######################################################################

data_CAFHAV
_chemical_formula_moiety         'C36 H24 N2'
_chemical_name_systematic        9,9'-diphenyl-9H,9'H-3,3'-bicarbazole
_symmetry_cell_setting           monoclinic
_symmetry_space_group_name_H-M   'P 21/c'
_symmetry_Int_Tables_number      14
_space_group_name_Hall           '-P 2ybc'
loop_
_symmetry_equiv_pos_site_id
_symmetry_equiv_pos_as_xyz
1 x,y,z
2 -x,1/2+y,1/2-z
3 -x,-y,-z
4 x,1/2-y,1/2+z
_cell_length_a                   9.414(3)
_cell_length_b                   9.617(3)
_cell_length_c                   14.174(4)
_cell_angle_alpha                90
_cell_angle_beta                 104.261(3)
_cell_angle_gamma                90
_cell_volume                     1243.69
_exptl_crystal_colour            yellow
_exptl_crystal_description       block
_cell_formula_units_Z            2
loop_
_atom_site_label
_atom_site_type_symbol
_atom_site_fract_x
_atom_site_fract_y
_atom_site_fract_z
C1 C 0.28247(14) 0.40624(13) 0.24797(10)
C2 C 0.25546(16) 0.53070(14) 0.19620(11)
H1 H 0.1807 0.5380 0.1396
C3 C 0.34375(17) 0.64229(15) 0.23210(11)
H2 H 0.3270 0.7268 0.1993
C4 C 0.45686(16) 0.63290(14) 0.31556(11)
H3 H 0.5153 0.7102 0.3369
C5 C 0.48382(15) 0.50977(14) 0.36744(10)
H4 H 0.5598 0.5034 0.4234
C6 C 0.39432(14) 0.39516(13) 0.33395(9)
C7 C 0.38914(14) 0.25412(12) 0.36913(9)
C8 C 0.47682(14) 0.18122(13) 0.44656(9)
H5 H 0.5526 0.2268 0.4901
C9 C 0.45226(14) 0.04049(12) 0.45964(9)
C10 C 0.33436(17) -0.02240(14) 0.39267(11)
H6 H 0.3153 -0.1158 0.4012
C11 C 0.24573(16) 0.04674(14) 0.31522(11)
H7 H 0.1689 0.0016 0.2723
C12 C 0.27497(14) 0.18653(13) 0.30326(9)
C13 C 0.10154(14) 0.24194(14) 0.14335(10)
C14 C -0.02745(15) 0.17937(15) 0.15081(11)
H8 H -0.0462 0.1668 0.2117
C15 C -0.12798(17) 0.13575(17) 0.06848(12)
H9 H -0.2138 0.0923 0.0740
C16 C -0.10272(19) 0.15575(18) -0.02188(12)
H10 H -0.1706 0.1252 -0.0774
C17 C 0.02387(19) 0.22136(18) -0.02969(12)
H11 H 0.0401 0.2374 -0.0909
C18 C 0.12688(17) 0.26357(16) 0.05234(11)
H12 H 0.2129 0.3063 0.0465
N1 N 0.20850(12) 0.27929(11) 0.22937(8)
C1B C 0.71753(14) -0.40624(13) 0.75203(10)
C2B C 0.74454(16) -0.53070(14) 0.80380(11)
H1B H 0.8193 -0.5380 0.8604
C3B C 0.65625(17) -0.64229(15) 0.76790(11)
H2B H 0.6730 -0.7268 0.8007
C4B C 0.54314(16) -0.63290(14) 0.68444(11)
H3B H 0.4847 -0.7102 0.6631
C5B C 0.51618(15) -0.50977(14) 0.63256(10)
H4B H 0.4402 -0.5034 0.5766
C6B C 0.60568(14) -0.39516(13) 0.66605(9)
C7B C 0.61086(14) -0.25412(12) 0.63087(9)
C8B C 0.52318(14) -0.18122(13) 0.55344(9)
H5B H 0.4474 -0.2268 0.5099
C9B C 0.54774(14) -0.04049(12) 0.54036(9)
C10B C 0.66564(17) 0.02240(14) 0.60733(11)
H6B H 0.6847 0.1158 0.5988
C11B C 0.75427(16) -0.04674(14) 0.68478(11)
H7B H 0.8311 -0.0016 0.7277
C12B C 0.72503(14) -0.18653(13) 0.69674(9)
C13B C 0.89846(14) -0.24194(14) 0.85665(10)
C14B C 1.02745(15) -0.17937(15) 0.84919(11)
H8B H 1.0462 -0.1668 0.7883
C15B C 1.12798(17) -0.13575(17) 0.93152(12)
H9B H 1.2138 -0.0923 0.9260
C16B C 1.10272(19) -0.15575(18) 1.02188(12)
H10B H 1.1706 -0.1252 1.0774
C17B C 0.97613(19) -0.22136(18) 1.02969(12)
H11B H 0.9599 -0.2374 1.0909
C18B C 0.87312(17) -0.26357(16) 0.94766(11)
H12B H 0.7871 -0.3063 0.9535
N1B N 0.79150(12) -0.27929(11) 0.77063(8)
loop_
_geom_bond_atom_site_label_1
_geom_bond_atom_site_label_2
_geom_bond_site_symmetry_1
_geom_bond_site_symmetry_2
C1 C2 1_555 1_555
C2 H1 1_555 1_555
C3 C2 1_555 1_555
H2 C3 1_555 1_555
C4 C3 1_555 1_555
H3 C4 1_555 1_555
C5 C4 1_555 1_555
H4 C5 1_555 1_555
C6 C1 1_555 1_555
C7 C6 1_555 1_555
C8 C7 1_555 1_555
H5 C8 1_555 1_555
C9 C8 1_555 1_555
C10 C9 1_555 1_555
H6 C10 1_555 1_555
C11 C10 1_555 1_555
H7 C11 1_555 1_555
C12 C7 1_555 1_555
C13 C14 1_555 1_555
C14 H8 1_555 1_555
C15 C14 1_555 1_555
H9 C15 1_555 1_555
C16 C15 1_555 1_555
H10 C16 1_555 1_555
C17 C16 1_555 1_555
H11 C17 1_555 1_555
C18 C13 1_555 1_555
H12 C18 1_555 1_555
N1 C1 1_555 1_555
C1B C2B 1_555 1_555
C2B H1B 1_555 1_555
C3B C2B 1_555 1_555
H2B C3B 1_555 1_555
C4B C3B 1_555 1_555
H3B C4B 1_555 1_555
C5B C4B 1_555 1_555
H4B C5B 1_555 1_555
C6B C1B 1_555 1_555
C7B C6B 1_555 1_555
C8B C7B 1_555 1_555
H5B C8B 1_555 1_555
C9B C9 1_555 1_555
C10B C9B 1_555 1_555
H6B C10B 1_555 1_555
C11B C10B 1_555 1_555
H7B C11B 1_555 1_555
C12B C7B 1_555 1_555
C13B C14B 1_555 1_555
C14B H8B 1_555 1_555
C15B C14B 1_555 1_555
H9B C15B 1_555 1_555
C16B C15B 1_555 1_555
H10B C16B 1_555 1_555
C17B C16B 1_555 1_555
H11B C17B 1_555 1_555
C18B C13B 1_555 1_555
H12B C18B 1_555 1_555
N1B C1B 1_555 1_555
C5 C6 1_555 1_555
C11 C12 1_555 1_555
C12 N1 1_555 1_555
C13 N1 1_555 1_555
C17 C18 1_555 1_555
C5B C6B 1_555 1_555
C8B C9B 1_555 1_555
C11B C12B 1_555 1_555
C12B N1B 1_555 1_555
C13B N1B 1_555 1_555
C17B C18B 1_555 1_555

#END
