
#######################################################################
#
#                 Cambridge Crystallographic Data Centre
#                                CCDC 
#
#######################################################################
#
# If this CIF has been generated from an entry in the Cambridge 
# Structural Database, then it will include bibliographic, chemical, 
# crystal, experimental, refinement or atomic coordinate data resulting 
# from the CCDC's data processing and validation procedures.
#
#######################################################################

data_CAFNUU
_chemical_formula_moiety         'C30 H28 N2 O4 S2'
_chemical_name_systematic        
(R)-1,1'-bis(Methylsulfonyl)-2,2',5,5'-tetrahydro-1H,1'H-11,11'-binaphtho[2,3-b]azepine
_symmetry_cell_setting           trigonal
_symmetry_space_group_name_H-M   'P 31 2 1'
_symmetry_Int_Tables_number      152
_space_group_name_Hall           'P 31 2"'
loop_
_symmetry_equiv_pos_site_id
_symmetry_equiv_pos_as_xyz
1 x,y,z
2 -y,x-y,1/3+z
3 -x+y,-x,2/3+z
4 y,x,-z
5 x-y,-y,2/3-z
6 -x,-x+y,1/3-z
_cell_length_a                   10.6948(3)
_cell_length_b                   10.6948(3)
_cell_length_c                   40.1721(13)
_cell_angle_alpha                90
_cell_angle_beta                 90
_cell_angle_gamma                120
_cell_volume                     3979.24
_exptl_crystal_colour            colorless
_exptl_crystal_description       block
_cell_formula_units_Z            6
loop_
_atom_site_label
_atom_site_type_symbol
_atom_site_fract_x
_atom_site_fract_y
_atom_site_fract_z
S1 S 0.38056(10) 0.55672(10) 0.03875(2)
S2 S 0.24899(10) 0.93486(9) 0.12833(2)
O1 O 0.2506(3) 0.4253(3) 0.03093(5)
O2 O 0.5065(3) 0.5495(3) 0.04838(6)
O3 O 0.3818(3) 0.9867(3) 0.11025(6)
O4 O 0.2291(3) 1.0334(3) 0.14922(6)
N1 N 0.3394(3) 0.6373(3) 0.06868(6)
N2 N 0.1154(3) 0.8599(3) 0.10149(6)
C1 C -0.0516(4) 0.5022(4) 0.09041(7)
C2 C -0.1713(4) 0.5151(4) 0.08064(8)
H1 H -0.1583 0.5863 0.0647
C3 C -0.3073(4) 0.4263(4) 0.09377(8)
H2 H -0.3863 0.4371 0.0868
C4 C -0.3289(4) 0.3208(4) 0.11721(8)
H3 H -0.4223 0.2606 0.1263
C5 C -0.2153(4) 0.3040(4) 0.12711(8)
H4 H -0.2311 0.2323 0.1432
C6 C -0.0754(4) 0.3911(4) 0.11395(8)
C7 C 0.0417(4) 0.3708(4) 0.12224(7)
H5 H 0.0273 0.2998 0.1384
C8 C 0.1761(4) 0.4500(4) 0.10781(8)
C9 C 0.2997(4) 0.4243(4) 0.11696(8)
H6 H 0.2639 0.3435 0.1331
H7 H 0.3311 0.3947 0.0967
C10 C 0.4284(4) 0.5548(4) 0.13188(9)
H8 H 0.4654 0.5400 0.1521
C11 C 0.4954(4) 0.6886(4) 0.11969(9)
H9 H 0.5751 0.7578 0.1323
C12 C 0.4623(4) 0.7447(4) 0.08881(8)
H10 H 0.4425 0.8225 0.0952
H11 H 0.5496 0.7887 0.0746
C13 C 0.1981(4) 0.5591(4) 0.08405(8)
C14 C 0.1157(3) 0.7129(4) 0.05446(8)
C15 C 0.0905(4) 0.5902(3) 0.07688(7)
C16 C 0.1099(4) 0.6923(4) 0.01896(8)
C17 C 0.0637(4) 0.5554(4) 0.00437(8)
H12 H 0.0374 0.4741 0.0183
C18 C 0.0565(4) 0.5386(4) -0.02953(8)
H13 H 0.0229 0.4456 -0.0389
C19 C 0.0985(4) 0.6580(4) -0.05047(8)
H14 H 0.0972 0.6462 -0.0739
C20 C 0.1413(4) 0.7913(4) -0.03738(8)
H15 H 0.1697 0.8713 -0.0519
C21 C 0.1440(4) 0.8121(4) -0.00231(8)
C22 C 0.1779(4) 0.9460(4) 0.01165(8)
H16 H 0.2041 1.0261 -0.0026
C23 C 0.1742(4) 0.9640(4) 0.04572(8)
C24 C 0.2087(4) 1.1077(4) 0.06004(9)
H17 H 0.2897 1.1393 0.0759
H18 H 0.2416 1.1796 0.0418
C25 C 0.0843(4) 1.1070(4) 0.07760(9)
H19 H 0.0722 1.1880 0.0739
C26 C -0.0114(4) 1.0042(4) 0.09787(9)
H20 H -0.0857 1.0196 0.1063
C27 C -0.0164(4) 0.8684(4) 0.10901(9)
H21 H -0.0328 0.8585 0.1334
H22 H -0.1001 0.7854 0.0983
C28 C 0.1385(4) 0.8434(4) 0.06652(8)
C29 C 0.4328(4) 0.6765(4) 0.00470(8)
H23 H 0.5217 0.7661 0.0103
H24 H 0.3560 0.6982 -0.0003
H25 H 0.4498 0.6318 -0.0148
C30 C 0.2285(4) 0.7922(4) 0.15405(9)
H26 H 0.1385 0.7545 0.1667
H27 H 0.3103 0.8278 0.1694
H28 H 0.2252 0.7151 0.1402
loop_
_geom_bond_atom_site_label_1
_geom_bond_atom_site_label_2
_geom_bond_site_symmetry_1
_geom_bond_site_symmetry_2
S1 O1 1_555 1_555
S2 O3 1_555 1_555
O2 S1 1_555 1_555
O4 S2 1_555 1_555
N1 S1 1_555 1_555
N2 S2 1_555 1_555
C1 C2 1_555 1_555
C2 H1 1_555 1_555
C3 C2 1_555 1_555
H2 C3 1_555 1_555
C4 C3 1_555 1_555
H3 C4 1_555 1_555
C5 C4 1_555 1_555
H4 C5 1_555 1_555
C6 C1 1_555 1_555
C7 C6 1_555 1_555
H5 C7 1_555 1_555
C8 C7 1_555 1_555
C9 C8 1_555 1_555
H6 C9 1_555 1_555
H7 C9 1_555 1_555
C10 C9 1_555 1_555
H8 C10 1_555 1_555
C11 C10 1_555 1_555
H9 C11 1_555 1_555
C12 N1 1_555 1_555
H10 C12 1_555 1_555
H11 C12 1_555 1_555
C13 N1 1_555 1_555
C14 C15 1_555 1_555
C15 C1 1_555 1_555
C16 C14 1_555 1_555
C17 C16 1_555 1_555
H12 C17 1_555 1_555
C18 C17 1_555 1_555
H13 C18 1_555 1_555
C19 C18 1_555 1_555
H14 C19 1_555 1_555
C20 C19 1_555 1_555
H15 C20 1_555 1_555
C21 C16 1_555 1_555
C22 C21 1_555 1_555
H16 C22 1_555 1_555
C23 C22 1_555 1_555
C24 C23 1_555 1_555
H17 C24 1_555 1_555
H18 C24 1_555 1_555
C25 C24 1_555 1_555
H19 C25 1_555 1_555
C26 C25 1_555 1_555
H20 C26 1_555 1_555
C27 N2 1_555 1_555
H21 C27 1_555 1_555
H22 C27 1_555 1_555
C28 N2 1_555 1_555
C29 S1 1_555 1_555
H23 C29 1_555 1_555
H24 C29 1_555 1_555
H25 C29 1_555 1_555
C30 S2 1_555 1_555
H26 C30 1_555 1_555
H27 C30 1_555 1_555
H28 C30 1_555 1_555
C5 C6 1_555 1_555
C8 C13 1_555 1_555
C11 C12 1_555 1_555
C13 C15 1_555 1_555
C14 C28 1_555 1_555
C20 C21 1_555 1_555
C23 C28 1_555 1_555
C26 C27 1_555 1_555

#END
