
#######################################################################
#
#                 Cambridge Crystallographic Data Centre
#                                CCDC 
#
#######################################################################
#
# If this CIF has been generated from an entry in the Cambridge 
# Structural Database, then it will include bibliographic, chemical, 
# crystal, experimental, refinement or atomic coordinate data resulting 
# from the CCDC's data processing and validation procedures.
#
#######################################################################

data_CAFNAB
_chemical_formula_moiety         'C18 H17 Br1 O1'
_chemical_name_systematic        
7-bromo-1-(2-vinylphenyl)-1,2,3,4-tetrahydronaphthalen-1-ol
_symmetry_cell_setting           triclinic
_symmetry_space_group_name_H-M   'P 1'
_symmetry_Int_Tables_number      1
_space_group_name_Hall           'P 1'
loop_
_symmetry_equiv_pos_site_id
_symmetry_equiv_pos_as_xyz
1 x,y,z
_cell_length_a                   7.6489(8)
_cell_length_b                   9.0467(10)
_cell_length_c                   11.6236(12)
_cell_angle_alpha                98.5920(10)
_cell_angle_beta                 98.8500(10)
_cell_angle_gamma                101.3790(10)
_cell_volume                     765.592
_exptl_crystal_colour            colorless
_exptl_crystal_description       block
_cell_formula_units_Z            2
loop_
_atom_site_label
_atom_site_type_symbol
_atom_site_fract_x
_atom_site_fract_y
_atom_site_fract_z
Br1 Br 1.18227(3) 1.19641(3) 0.58239(3)
C1 C 0.7717(4) 0.8392(3) 0.6158(2)
C2 C 0.9396(3) 0.9316(3) 0.6165(2)
H1 H 1.0443 0.8958 0.6354
C3 C 0.9530(4) 1.0760(3) 0.5896(2)
C4 C 0.6143(4) 0.8931(4) 0.5867(2)
C5 C 0.6331(4) 1.0409(4) 0.5621(3)
H2 H 0.5294 1.0784 0.5441
C6 C 0.8008(4) 1.1339(4) 0.5637(3)
H3 H 0.8105 1.2326 0.5476
C7 C 0.8965(4) 0.7432(4) 0.8589(2)
O1 O 0.8044(3) 0.5910(2) 0.53073(15)
H4 H 0.8411 0.6511 0.4888
C8 C 0.9024(3) 0.6684(3) 0.7434(2)
C9 C 1.0307(4) 0.5824(3) 0.7299(2)
H5 H 1.0339 0.5328 0.6544
C10 C 0.5729(4) 0.5896(4) 0.6448(2)
H6 H 0.5671 0.4802 0.6306
H7 H 0.5509 0.6186 0.7241
C11 C 0.7624(3) 0.6759(3) 0.63639(19)
C12 C 0.7670(4) 0.8374(4) 0.8827(2)
H8 H 0.7416 0.9004 0.8290
C13 C 0.4257(4) 0.6244(4) 0.5553(3)
H9 H 0.4471 0.5964 0.4757
H10 H 0.3077 0.5648 0.5603
C14 C 0.6839(7) 0.8411(6) 0.9725(4)
H11 H 0.7053 0.7801 1.0284
H12 H 0.6033 0.9049 0.9807
C15 C 1.1512(5) 0.6396(4) 0.9369(3)
H13 H 1.2346 0.6310 1.0014
C16 C 1.1551(5) 0.5678(4) 0.8255(3)
H14 H 1.2406 0.5096 0.8138
C17 C 0.4283(4) 0.7935(5) 0.5817(3)
H15 H 0.3908 0.8174 0.6570
H16 H 0.3416 0.8170 0.5209
C18 C 1.0248(5) 0.7239(4) 0.9532(3)
H17 H 1.0231 0.7707 1.0298
Br2 Br 0.43958(3) 0.89534(2) 0.24563(2)
C19 C 1.0320(4) 0.5202(4) 0.2766(3)
H18 H 1.0674 0.5042 0.1998
H19 H 1.1379 0.5787 0.3340
C20 C 0.6203(3) 0.7805(3) 0.2607(2)
C21 C 0.6402(3) 0.3632(3) 0.2355(2)
C22 C 0.8007(3) 0.8565(3) 0.2904(2)
H20 H 0.8335 0.9632 0.3070
O2 O 0.5792(3) 0.3424(2) 0.34507(16)
H21 H 0.6447 0.4067 0.3999
C23 C 0.9690(4) 0.3675(4) 0.3105(3)
H22 H 0.9475 0.3827 0.3911
H23 H 1.0622 0.3091 0.3070
C24 C 0.8861(3) 0.6105(3) 0.27109(19)
C25 C 0.4777(3) 0.2916(3) 0.1348(2)
C26 C 0.9312(3) 0.7710(3) 0.2948(2)
H24 H 1.0530 0.8216 0.3140
C27 C 0.7023(3) 0.5364(3) 0.24474(19)
C28 C 0.7959(4) 0.2799(4) 0.2268(3)
H25 H 0.7610 0.1785 0.2456
H26 H 0.8174 0.2675 0.1462
C29 C 0.5710(3) 0.6230(3) 0.2384(2)
H27 H 0.4487 0.5738 0.2188
C30 C 0.1652(4) 0.1487(4) 0.0738(4)
H28 H 0.0578 0.1006 0.0937
C31 C 0.3157(4) 0.2192(3) 0.1616(3)
H29 H 0.3076 0.2178 0.2404
C32 C 0.3359(6) 0.2224(5) -0.0706(4)
H30 H 0.3411 0.2235 -0.1499
C33 C 0.1767(6) 0.1508(5) -0.0423(4)
H31 H 0.0769 0.1039 -0.1020
C34 C 0.6592(6) 0.3653(4) -0.0232(3)
H32 H 0.7336 0.4525 0.0264
C35 C 0.4907(4) 0.2937(3) 0.0155(3)
C36 C 0.7104(9) 0.3165(6) -0.1199(4)
H33 H 0.6398 0.2297 -0.1719
H34 H 0.8179 0.3682 -0.1374
loop_
_geom_bond_atom_site_label_1
_geom_bond_atom_site_label_2
_geom_bond_site_symmetry_1
_geom_bond_site_symmetry_2
Br1 C3 1_555 1_555
C1 C2 1_555 1_555
C2 H1 1_555 1_555
C3 C2 1_555 1_555
C4 C1 1_555 1_555
C5 C4 1_555 1_555
H2 C5 1_555 1_555
C6 C3 1_555 1_555
H3 C6 1_555 1_555
C7 C8 1_555 1_555
O1 H4 1_555 1_555
C8 C9 1_555 1_555
C9 H5 1_555 1_555
C10 H6 1_555 1_555
H7 C10 1_555 1_555
C11 C1 1_555 1_555
C12 C7 1_555 1_555
H8 C12 1_555 1_555
C13 C10 1_555 1_555
H9 C13 1_555 1_555
H10 C13 1_555 1_555
C14 C12 1_555 1_555
H11 C14 1_555 1_555
H12 C14 1_555 1_555
C15 H13 1_555 1_555
C16 C9 1_555 1_555
H14 C16 1_555 1_555
C17 C4 1_555 1_555
H15 C17 1_555 1_555
H16 C17 1_555 1_555
C18 C7 1_555 1_555
H17 C18 1_555 1_555
Br2 C20 1_555 1_555
C19 H18 1_555 1_555
H19 C19 1_555 1_555
C20 C22 1_555 1_555
C21 O2 1_555 1_555
C22 H20 1_555 1_555
O2 H21 1_555 1_555
C23 C19 1_555 1_555
H22 C23 1_555 1_555
H23 C23 1_555 1_555
C24 C19 1_555 1_555
C25 C21 1_555 1_555
C26 C22 1_555 1_555
H24 C26 1_555 1_555
C27 C21 1_555 1_555
C28 C21 1_555 1_555
H25 C28 1_555 1_555
H26 C28 1_555 1_555
C29 C20 1_555 1_555
H27 C29 1_555 1_555
C30 H28 1_555 1_555
C31 C25 1_555 1_555
H29 C31 1_555 1_555
C32 H30 1_555 1_555
C33 C30 1_555 1_555
H31 C33 1_555 1_555
C34 H32 1_555 1_555
C35 C25 1_555 1_555
C36 C34 1_555 1_555
H33 C36 1_555 1_555
H34 C36 1_555 1_555
C5 C6 1_555 1_555
O1 C11 1_555 1_555
C8 C11 1_555 1_555
C10 C11 1_555 1_555
C13 C17 1_555 1_555
C15 C16 1_555 1_555
C15 C18 1_555 1_555
C23 C28 1_555 1_555
C24 C26 1_555 1_555
C24 C27 1_555 1_555
C27 C29 1_555 1_555
C30 C31 1_555 1_555
C32 C33 1_555 1_555
C32 C35 1_555 1_555
C34 C35 1_555 1_555

#END
