
#######################################################################
#
#                 Cambridge Crystallographic Data Centre
#                                CCDC 
#
#######################################################################
#
# If this CIF has been generated from an entry in the Cambridge 
# Structural Database, then it will include bibliographic, chemical, 
# crystal, experimental, refinement or atomic coordinate data resulting 
# from the CCDC's data processing and validation procedures.
#
#######################################################################

data_CAFNOO
_chemical_formula_moiety         'C19 H27 N3'
_chemical_name_systematic        N,1-Dicyclohexyl-1H-benzimidazol-2-amine
_symmetry_cell_setting           tetragonal
_symmetry_space_group_name_H-M   'P 43 21 2'
_symmetry_Int_Tables_number      96
_space_group_name_Hall           'P 4nw 2abw'
loop_
_symmetry_equiv_pos_site_id
_symmetry_equiv_pos_as_xyz
1 x,y,z
2 -x,-y,1/2+z
3 1/2-y,1/2+x,3/4+z
4 1/2+y,1/2-x,1/4+z
5 1/2-x,1/2+y,3/4-z
6 1/2+x,1/2-y,1/4-z
7 y,x,-z
8 -y,-x,1/2-z
_cell_length_a                   13.1671(19)
_cell_length_b                   13.1671(19)
_cell_length_c                   19.597(4)
_cell_angle_alpha                90
_cell_angle_beta                 90
_cell_angle_gamma                90
_cell_volume                     3397.58
_exptl_crystal_colour            yellow
_exptl_crystal_description       needle
_cell_formula_units_Z            8
loop_
_atom_site_label
_atom_site_type_symbol
_atom_site_fract_x
_atom_site_fract_y
_atom_site_fract_z
N1 N 0.3224(3) 0.9425(2) 0.01427(15)
N2 N 0.5009(3) 0.9353(3) 0.03272(19)
N3 N 0.3822(2) 0.9497(3) 0.12278(16)
C1 C 0.4054(3) 0.9413(3) 0.05711(19)
C2 C 0.3218(3) 0.9385(3) -0.06064(18)
H1 H 0.3941 0.9338 -0.0758
C3 C 0.2784(4) 1.0361(3) -0.0909(2)
H2 H 0.3198 1.0946 -0.0757
H3 H 0.2082 1.0461 -0.0742
C4 C 0.2773(3) 0.9583(3) 0.1237(2)
C5 C 0.6837(3) 0.9578(4) 0.0383(2)
H4 H 0.6755 1.0275 0.0200
H5 H 0.6922 0.9110 -0.0008
C6 C 0.2380(3) 0.9535(3) 0.0573(2)
C7 C 0.6018(3) 0.8252(3) 0.1115(2)
H6 H 0.5404 0.8088 0.1385
H7 H 0.6097 0.7726 0.0758
C8 C 0.2691(4) 0.8412(4) -0.1647(2)
H8 H 0.3400 0.8345 -0.1809
H9 H 0.2305 0.7814 -0.1809
C9 C 0.5894(3) 0.9284(3) 0.0783(2)
H10 H 0.5801 0.9796 0.1155
C10 C 0.2782(4) 1.0312(4) -0.1692(2)
H11 H 0.2450 1.0928 -0.1876
H12 H 0.3491 1.0298 -0.1860
C11 C 0.6941(3) 0.8247(4) 0.1577(2)
H13 H 0.7021 0.7565 0.1782
H14 H 0.6838 0.8740 0.1952
C12 C 0.2678(4) 0.8437(3) -0.0869(2)
H15 H 0.3021 0.7824 -0.0689
H16 H 0.1967 0.8433 -0.0705
C13 C 0.2224(4) 0.9375(3) -0.1944(2)
H17 H 0.2257 0.9348 -0.2448
H18 H 0.1501 0.9418 -0.1809
C14 C 0.1343(3) 0.9601(4) 0.0439(2)
H19 H 0.1082 0.9563 -0.0012
C15 C 0.7778(3) 0.9534(5) 0.0834(3)
H20 H 0.8387 0.9666 0.0551
H21 H 0.7736 1.0076 0.1183
C16 C 0.1091(4) 0.9788(5) 0.1650(3)
H22 H 0.0633 0.9886 0.2019
C17 C 0.0716(4) 0.9725(4) 0.0995(2)
H23 H 0.0003 0.9769 0.0925
C18 C 0.7898(3) 0.8522(4) 0.1185(3)
H24 H 0.8481 0.8552 0.1504
H25 H 0.8041 0.7990 0.0841
C19 C 0.2116(4) 0.9714(4) 0.1782(2)
H26 H 0.2367 0.9751 0.2236
H27 H 0.515(3) 0.934(3) -0.006(2)
loop_
_geom_bond_atom_site_label_1
_geom_bond_atom_site_label_2
_geom_bond_site_symmetry_1
_geom_bond_site_symmetry_2
N1 C1 1_555 1_555
N2 C1 1_555 1_555
N3 C1 1_555 1_555
C2 N1 1_555 1_555
H1 C2 1_555 1_555
C3 C2 1_555 1_555
H2 C3 1_555 1_555
H3 C3 1_555 1_555
C4 N3 1_555 1_555
C5 H4 1_555 1_555
H5 C5 1_555 1_555
C6 N1 1_555 1_555
C7 H6 1_555 1_555
H7 C7 1_555 1_555
C8 H8 1_555 1_555
H9 C8 1_555 1_555
C9 N2 1_555 1_555
H10 C9 1_555 1_555
C10 C3 1_555 1_555
H11 C10 1_555 1_555
H12 C10 1_555 1_555
C11 C7 1_555 1_555
H13 C11 1_555 1_555
H14 C11 1_555 1_555
C12 C2 1_555 1_555
H15 C12 1_555 1_555
H16 C12 1_555 1_555
C13 C8 1_555 1_555
H17 C13 1_555 1_555
H18 C13 1_555 1_555
C14 C6 1_555 1_555
H19 C14 1_555 1_555
C15 C5 1_555 1_555
H20 C15 1_555 1_555
H21 C15 1_555 1_555
C16 H22 1_555 1_555
C17 C14 1_555 1_555
H23 C17 1_555 1_555
C18 C11 1_555 1_555
H24 C18 1_555 1_555
H25 C18 1_555 1_555
C19 C4 1_555 1_555
H26 C19 1_555 1_555
H27 N2 1_555 1_555
C4 C6 1_555 1_555
C5 C9 1_555 1_555
C7 C9 1_555 1_555
C8 C12 1_555 1_555
C10 C13 1_555 1_555
C15 C18 1_555 1_555
C16 C17 1_555 1_555
C16 C19 1_555 1_555

#END
