
#######################################################################
#
#                 Cambridge Crystallographic Data Centre
#                                CCDC 
#
#######################################################################
#
# If this CIF has been generated from an entry in the Cambridge 
# Structural Database, then it will include bibliographic, chemical, 
# crystal, experimental, refinement or atomic coordinate data resulting 
# from the CCDC's data processing and validation procedures.
#
#######################################################################

data_CAFPEG
_chemical_formula_moiety         'C34 H36 N2 O4 S2'
_chemical_name_systematic        
(R)-N,N'-(3,3'-Diallyl-1,1'-binaphthyl-2,2'-diyl)bis(N-allylmethanesulfonamide)
_symmetry_cell_setting           orthorhombic
_symmetry_space_group_name_H-M   'P 21 21 21'
_symmetry_Int_Tables_number      19
_space_group_name_Hall           'P 2ac 2ab'
loop_
_symmetry_equiv_pos_site_id
_symmetry_equiv_pos_as_xyz
1 x,y,z
2 1/2-x,-y,1/2+z
3 -x,1/2+y,1/2-z
4 1/2+x,1/2-y,-z
_cell_length_a                   10.4123(7)
_cell_length_b                   10.7934(6)
_cell_length_c                   27.6152(16)
_cell_angle_alpha                90
_cell_angle_beta                 90
_cell_angle_gamma                90
_cell_volume                     3103.51
_exptl_crystal_colour            colorless
_exptl_crystal_description       block
_cell_formula_units_Z            4
loop_
_atom_site_label
_atom_site_type_symbol
_atom_site_fract_x
_atom_site_fract_y
_atom_site_fract_z
S1 S 0.24336(7) 0.08660(6) 0.17284(2)
S2 S 0.69547(7) 0.24533(7) 0.05749(3)
O1 O 0.2555(2) -0.03825(16) 0.19058(7)
O2 O 0.1219(2) 0.12567(18) 0.15317(7)
O3 O 0.7997(2) 0.30249(18) 0.03129(7)
O4 O 0.6035(2) 0.32369(18) 0.08169(7)
N1 N 0.3583(2) 0.10700(19) 0.13194(8)
N2 N 0.7532(2) 0.14966(19) 0.09857(8)
C1 C 0.5583(3) -0.0147(2) 0.13551(10)
C2 C 0.6309(3) -0.1241(2) 0.12449(10)
C3 C 0.7508(3) -0.1513(2) 0.14730(10)
H1 H 0.7838 -0.0963 0.1711
C4 C 0.8191(3) -0.2555(3) 0.13528(11)
H2 H 0.8994 -0.2715 0.1504
C5 C 0.7700(3) -0.3394(3) 0.10044(11)
H3 H 0.8185 -0.4108 0.0920
C6 C 0.6548(3) -0.3190(3) 0.07905(11)
H4 H 0.6231 -0.3765 0.0559
C7 C 0.5798(3) -0.2114(2) 0.09098(11)
C8 C 0.4554(3) -0.1910(3) 0.07253(11)
H5 H 0.4221 -0.2486 0.0497
C9 C 0.3795(3) -0.0923(3) 0.08577(10)
C10 C 0.4335(3) -0.0013(2) 0.11804(10)
C11 C 0.3257(3) 0.2002(2) 0.09317(10)
H6 H 0.3898 0.1944 0.0668
H7 H 0.2405 0.1802 0.0794
C12 C 0.3238(3) 0.3303(3) 0.11241(10)
H8 H 0.3999 0.3616 0.1269
C13 C 0.2225(3) 0.4039(3) 0.11034(10)
H9 H 0.1450 0.3753 0.0960
H10 H 0.2271 0.4855 0.1232
C14 C 0.2423(3) -0.0884(2) 0.06707(10)
H11 H 0.1994 -0.0128 0.0793
H12 H 0.2433 -0.0844 0.0313
C15 C 0.1678(3) -0.2002(3) 0.08287(13)
H13 H 0.1501 -0.2083 0.1165
C16 C 0.1247(3) -0.2881(3) 0.05398(14)
H14 H 0.1403 -0.2835 0.0201
H15 H 0.0781 -0.3560 0.0670
C17 C 0.2804(3) 0.1916(2) 0.22005(10)
H16 H 0.3626 0.1684 0.2348
H17 H 0.2126 0.1889 0.2446
H18 H 0.2867 0.2757 0.2069
C18 C 0.6228(3) 0.0796(2) 0.16741(10)
C19 C 0.5997(3) 0.0766(2) 0.21881(10)
C20 C 0.5226(3) -0.0172(3) 0.24053(10)
H19 H 0.4866 -0.0809 0.2210
C21 C 0.4998(3) -0.0161(3) 0.28961(11)
H20 H 0.4489 -0.0795 0.3038
C22 C 0.5519(3) 0.0790(3) 0.31911(10)
H21 H 0.5318 0.0820 0.3526
C23 C 0.6314(3) 0.1669(2) 0.29908(10)
H22 H 0.6680 0.2291 0.3191
C24 C 0.6595(3) 0.1655(2) 0.24882(10)
C25 C 0.7476(3) 0.2502(2) 0.22817(9)
H23 H 0.7872 0.3101 0.2485
C26 C 0.7778(3) 0.2488(2) 0.17964(10)
C27 C 0.7145(3) 0.1601(2) 0.14892(9)
C28 C 0.8812(3) 0.0919(3) 0.08762(10)
H24 H 0.9432 0.1578 0.0789
H25 H 0.9137 0.0497 0.1170
C29 C 0.8730(3) 0.0002(2) 0.04693(10)
H26 H 0.8237 -0.0727 0.0521
C30 C 0.9288(3) 0.0134(3) 0.00471(12)
H27 H 0.9788 0.0851 -0.0018
H28 H 0.9193 -0.0487 -0.0194
C31 C 0.8775(3) 0.3380(2) 0.15912(10)
H29 H 0.9599 0.2933 0.1552
H30 H 0.8493 0.3653 0.1266
C32 C 0.8996(3) 0.4504(3) 0.19020(11)
H31 H 0.8277 0.5022 0.1965
C33 C 1.0100(3) 0.4830(3) 0.20935(13)
H32 H 1.0843 0.4338 0.2039
H33 H 1.0156 0.5557 0.2286
C34 C 0.6133(3) 0.1488(3) 0.01577(11)
H34 H 0.6753 0.0954 -0.0009
H35 H 0.5682 0.2002 -0.0080
H36 H 0.5511 0.0973 0.0332
loop_
_geom_bond_atom_site_label_1
_geom_bond_atom_site_label_2
_geom_bond_site_symmetry_1
_geom_bond_site_symmetry_2
S1 O1 1_555 1_555
S2 O3 1_555 1_555
O2 S1 1_555 1_555
O4 S2 1_555 1_555
N1 S1 1_555 1_555
N2 S2 1_555 1_555
C1 C2 1_555 1_555
C2 C3 1_555 1_555
C3 H1 1_555 1_555
C4 C3 1_555 1_555
H2 C4 1_555 1_555
C5 C4 1_555 1_555
H3 C5 1_555 1_555
C6 C5 1_555 1_555
H4 C6 1_555 1_555
C7 C2 1_555 1_555
C8 C7 1_555 1_555
H5 C8 1_555 1_555
C9 C8 1_555 1_555
C10 N1 1_555 1_555
C11 N1 1_555 1_555
H6 C11 1_555 1_555
H7 C11 1_555 1_555
C12 C11 1_555 1_555
H8 C12 1_555 1_555
C13 C12 1_555 1_555
H9 C13 1_555 1_555
H10 C13 1_555 1_555
C14 C9 1_555 1_555
H11 C14 1_555 1_555
H12 C14 1_555 1_555
C15 C14 1_555 1_555
H13 C15 1_555 1_555
C16 C15 1_555 1_555
H14 C16 1_555 1_555
H15 C16 1_555 1_555
C17 S1 1_555 1_555
H16 C17 1_555 1_555
H17 C17 1_555 1_555
H18 C17 1_555 1_555
C18 C1 1_555 1_555
C19 C18 1_555 1_555
C20 C19 1_555 1_555
H19 C20 1_555 1_555
C21 C20 1_555 1_555
H20 C21 1_555 1_555
C22 C21 1_555 1_555
H21 C22 1_555 1_555
C23 C22 1_555 1_555
H22 C23 1_555 1_555
C24 C19 1_555 1_555
C25 C24 1_555 1_555
H23 C25 1_555 1_555
C26 C25 1_555 1_555
C27 N2 1_555 1_555
C28 N2 1_555 1_555
H24 C28 1_555 1_555
H25 C28 1_555 1_555
C29 C28 1_555 1_555
H26 C29 1_555 1_555
C30 C29 1_555 1_555
H27 C30 1_555 1_555
H28 C30 1_555 1_555
C31 C26 1_555 1_555
H29 C31 1_555 1_555
H30 C31 1_555 1_555
C32 C31 1_555 1_555
H31 C32 1_555 1_555
C33 C32 1_555 1_555
H32 C33 1_555 1_555
H33 C33 1_555 1_555
C34 S2 1_555 1_555
H34 C34 1_555 1_555
H35 C34 1_555 1_555
H36 C34 1_555 1_555
C1 C10 1_555 1_555
C6 C7 1_555 1_555
C9 C10 1_555 1_555
C18 C27 1_555 1_555
C23 C24 1_555 1_555
C26 C27 1_555 1_555

#END
