
#######################################################################
#
#                 Cambridge Crystallographic Data Centre
#                                CCDC 
#
#######################################################################
#
# If this CIF has been generated from an entry in the Cambridge 
# Structural Database, then it will include bibliographic, chemical, 
# crystal, experimental, refinement or atomic coordinate data resulting 
# from the CCDC's data processing and validation procedures.
#
#######################################################################

data_CAFPEG01
_chemical_formula_moiety         'C34 H36 N2 O4 S2'
_chemical_name_systematic        
(R)-N,N'-(3,3'-Diallyl-1,1'-binaphthyl-2,2'-diyl)bis(N-allylmethanesulfonamide)
_symmetry_cell_setting           trigonal
_symmetry_space_group_name_H-M   'P 32 2 1'
_symmetry_Int_Tables_number      154
_space_group_name_Hall           'P 32 2"'
loop_
_symmetry_equiv_pos_site_id
_symmetry_equiv_pos_as_xyz
1 x,y,z
2 -y,x-y,2/3+z
3 -x+y,-x,1/3+z
4 y,x,-z
5 x-y,-y,1/3-z
6 -x,-x+y,2/3-z
_cell_length_a                   10.7373(15)
_cell_length_b                   10.7373(15)
_cell_length_c                   47.341(10)
_cell_angle_alpha                90
_cell_angle_beta                 90
_cell_angle_gamma                120
_cell_volume                     4726.7
_exptl_crystal_colour            colorless
_exptl_crystal_description       block
_cell_formula_units_Z            6
loop_
_atom_site_label
_atom_site_type_symbol
_atom_site_fract_x
_atom_site_fract_y
_atom_site_fract_z
S1 S -0.21592(13) 1.43828(11) 0.067247(19)
S2 S 0.03880(10) 0.95799(10) 0.094138(18)
O1 O -0.1486(4) 1.5686(3) 0.05067(5)
O2 O -0.3582(3) 1.3270(3) 0.05998(5)
O3 O 0.1776(3) 0.9795(3) 0.10117(5)
O4 O -0.0824(3) 0.8642(3) 0.11126(5)
N1 N -0.1132(4) 1.3649(3) 0.06701(6)
N2 N 0.0458(3) 1.1149(3) 0.09351(5)
C1 C -0.2069(4) 1.1068(4) 0.07199(6)
C2 C -0.2826(4) 0.9634(4) 0.06070(7)
C3 C -0.3425(4) 0.8396(4) 0.07792(7)
H1 H -0.3325 0.8500 0.0979
C4 C -0.4150(4) 0.7045(4) 0.06636(7)
H2 H -0.4568 0.6223 0.0783
C5 C -0.4274(4) 0.6877(4) 0.03674(8)
H3 H -0.4750 0.5941 0.0287
C6 C -0.3710(4) 0.8055(4) 0.01975(7)
H4 H -0.3795 0.7929 -0.0002
C7 C -0.3006(4) 0.9454(4) 0.03093(7)
C8 C -0.2471(4) 1.0694(4) 0.01359(7)
H5 H -0.2531 1.0577 -0.0063
C9 C -0.1874(4) 1.2047(4) 0.02447(7)
C10 C -0.1711(4) 1.2219(4) 0.05459(6)
C11 C -0.1402(5) 1.3352(4) 0.00544(7)
H6 H -0.2151 1.3633 0.0063
H7 H -0.0510 1.4158 0.0134
C12 C -0.1143(8) 1.3190(6) -0.02376(10)
H8 H -0.1883 1.2275 -0.0300
C13 C -0.0393(8) 1.3741(6) -0.04199(12)
H9 H 0.0417 1.4675 -0.0396
H10 H -0.0569 1.3272 -0.0598
C14 C 0.0432(5) 1.4652(4) 0.06681(8)
H11 H 0.0640 1.5471 0.0543
H12 H 0.0916 1.4153 0.0588
C15 C 0.1049(5) 1.5219(5) 0.09525(10)
H13 H 0.0730 1.4564 0.1106
C16 C 0.2006(7) 1.6567(7) 0.10040(14)
H14 H 0.2348 1.7250 0.0855
H15 H 0.2357 1.6860 0.1191
C17 C -0.2148(5) 1.4914(5) 0.10251(8)
H16 H -0.1176 1.5674 0.1076
H17 H -0.2443 1.4087 0.1150
H18 H -0.2819 1.5278 0.1045
C18 C -0.1712(4) 1.1279(4) 0.10302(6)
C19 C -0.2670(4) 1.1415(4) 0.12200(7)
C20 C -0.4045(4) 1.1172(4) 0.11335(7)
H19 H -0.4348 1.0897 0.0944
C21 C -0.4926(4) 1.1325(5) 0.13171(8)
H20 H -0.5834 1.1168 0.1255
C22 C -0.4502(4) 1.1718(4) 0.16018(7)
H21 H -0.5121 1.1831 0.1729
C23 C -0.3201(4) 1.1932(4) 0.16921(7)
H22 H -0.2917 1.2209 0.1882
C24 C -0.2267(4) 1.1750(4) 0.15082(6)
C25 C -0.0936(4) 1.1922(4) 0.15974(7)
H23 H -0.0650 1.2175 0.1788
C26 C -0.0032(4) 1.1732(4) 0.14148(6)
C27 C -0.0453(4) 1.1391(3) 0.11282(7)
C28 C 0.1391(4) 1.1945(4) 0.15282(7)
H24 H 0.1216 1.1427 0.1710
H25 H 0.1780 1.1519 0.1394
C29 C 0.2491(5) 1.3503(5) 0.15727(8)
H26 H 0.2175 1.4083 0.1664
C30 C 0.3837(5) 1.4132(5) 0.14972(9)
H27 H 0.4202 1.3596 0.1405
H28 H 0.4453 1.5126 0.1534
C31 C 0.1857(4) 1.2406(4) 0.08451(7)
H29 H 0.2653 1.2342 0.0936
H30 H 0.1901 1.3302 0.0911
C32 C 0.2063(5) 1.2484(4) 0.05326(8)
H31 H 0.1284 1.2340 0.0416
C33 C 0.3275(6) 1.2742(5) 0.04102(11)
H32 H 0.4071 1.2890 0.0522
H33 H 0.3350 1.2780 0.0210
C34 C 0.0043(4) 0.8968(4) 0.05903(7)
H34 H -0.0904 0.8805 0.0533
H35 H 0.0059 0.8065 0.0575
H36 H 0.0783 0.9691 0.0467
loop_
_geom_bond_atom_site_label_1
_geom_bond_atom_site_label_2
_geom_bond_site_symmetry_1
_geom_bond_site_symmetry_2
S1 O1 1_555 1_555
S2 O3 1_555 1_555
O2 S1 1_555 1_555
O4 S2 1_555 1_555
N1 S1 1_555 1_555
N2 S2 1_555 1_555
C1 C2 1_555 1_555
C2 C3 1_555 1_555
C3 H1 1_555 1_555
C4 C3 1_555 1_555
H2 C4 1_555 1_555
C5 C4 1_555 1_555
H3 C5 1_555 1_555
C6 C5 1_555 1_555
H4 C6 1_555 1_555
C7 C2 1_555 1_555
C8 C7 1_555 1_555
H5 C8 1_555 1_555
C9 C8 1_555 1_555
C10 N1 1_555 1_555
C11 C9 1_555 1_555
H6 C11 1_555 1_555
H7 C11 1_555 1_555
C12 C11 1_555 1_555
H8 C12 1_555 1_555
C13 C12 1_555 1_555
H9 C13 1_555 1_555
H10 C13 1_555 1_555
C14 N1 1_555 1_555
H11 C14 1_555 1_555
H12 C14 1_555 1_555
C15 C14 1_555 1_555
H13 C15 1_555 1_555
C16 C15 1_555 1_555
H14 C16 1_555 1_555
H15 C16 1_555 1_555
C17 S1 1_555 1_555
H16 C17 1_555 1_555
H17 C17 1_555 1_555
H18 C17 1_555 1_555
C18 C1 1_555 1_555
C19 C18 1_555 1_555
C20 C19 1_555 1_555
H19 C20 1_555 1_555
C21 C20 1_555 1_555
H20 C21 1_555 1_555
C22 C21 1_555 1_555
H21 C22 1_555 1_555
C23 C22 1_555 1_555
H22 C23 1_555 1_555
C24 C19 1_555 1_555
C25 C24 1_555 1_555
H23 C25 1_555 1_555
C26 C25 1_555 1_555
C27 N2 1_555 1_555
C28 C26 1_555 1_555
H24 C28 1_555 1_555
H25 C28 1_555 1_555
C29 C28 1_555 1_555
H26 C29 1_555 1_555
C30 C29 1_555 1_555
H27 C30 1_555 1_555
H28 C30 1_555 1_555
C31 N2 1_555 1_555
H29 C31 1_555 1_555
H30 C31 1_555 1_555
C32 C31 1_555 1_555
H31 C32 1_555 1_555
C33 C32 1_555 1_555
H32 C33 1_555 1_555
H33 C33 1_555 1_555
C34 S2 1_555 1_555
H34 C34 1_555 1_555
H35 C34 1_555 1_555
H36 C34 1_555 1_555
C1 C10 1_555 1_555
C6 C7 1_555 1_555
C9 C10 1_555 1_555
C18 C27 1_555 1_555
C23 C24 1_555 1_555
C26 C27 1_555 1_555

#END
