
#######################################################################
#
#                 Cambridge Crystallographic Data Centre
#                                CCDC 
#
#######################################################################
#
# If this CIF has been generated from an entry in the Cambridge 
# Structural Database, then it will include bibliographic, chemical, 
# crystal, experimental, refinement or atomic coordinate data resulting 
# from the CCDC's data processing and validation procedures.
#
#######################################################################

data_CAFQOQ
_chemical_formula_moiety         'C23 H30 N1 O1 1+,Cl1 1-'
_chemical_name_systematic        
'3-(2-(bis(Phenyl)methoxy)ethyl)-8-methyl-8-azabicyclo[3.2.1]octane hydrochloride'
_chemical_properties_biological  
'binds to dopamine transporter and inhibits re-uptake'
_symmetry_cell_setting           orthorhombic
_symmetry_space_group_name_H-M   'P c a 21'
_symmetry_Int_Tables_number      29
_space_group_name_Hall           'P 2c -2ac'
loop_
_symmetry_equiv_pos_site_id
_symmetry_equiv_pos_as_xyz
1 x,y,z
2 -x,-y,1/2+z
3 1/2+x,-y,z
4 1/2-x,y,1/2+z
_cell_length_a                   11.38170(10)
_cell_length_b                   17.7483(2)
_cell_length_c                   10.12070(10)
_cell_angle_alpha                90
_cell_angle_beta                 90
_cell_angle_gamma                90
_cell_volume                     2044.44
_chemical_melting_point          218-219deg.C
_cell_formula_units_Z            4
loop_
_atom_site_label
_atom_site_type_symbol
_atom_site_fract_x
_atom_site_fract_y
_atom_site_fract_z
Cl1 Cl 0.72376(8) -0.04151(4) 0.27634(10)
N1 N 0.5778(3) 0.05522(14) 0.4630(3)
H1 H 0.6305 0.0352 0.4052
C1 C 0.6427(4) 0.10236(19) 0.5628(4)
H2 H 0.6773 0.0704 0.6316
C2 C 0.7380(3) 0.14508(18) 0.4887(4)
H3 H 0.7928 0.1089 0.4516
H4 H 0.7810 0.1760 0.5513
C3 C 0.6927(3) 0.19601(19) 0.3765(4)
H5 H 0.7568 0.1995 0.3122
C4 C 0.5902(3) 0.1582(2) 0.3041(3)
H6 H 0.5460 0.1967 0.2577
H7 H 0.6219 0.1240 0.2384
C5 C 0.5063(3) 0.1145(2) 0.3925(4)
H8 H 0.4441 0.0910 0.3397
C6 C 0.4535(4) 0.1580(2) 0.5081(4)
H9 H 0.3788 0.1364 0.5343
H10 H 0.4416 0.2104 0.4848
C7 C 0.5441(4) 0.1507(2) 0.6196(4)
H11 H 0.5735 0.1998 0.6453
H12 H 0.5095 0.1266 0.6963
C8 C 0.6636(4) 0.27787(18) 0.4169(4)
H13 H 0.6368 0.3049 0.3392
H14 H 0.5990 0.2768 0.4795
C9 C 0.7642(4) 0.3213(2) 0.4780(5)
H15 H 0.7360 0.3694 0.5109
H16 H 0.7962 0.2932 0.5520
O1 O 0.8532(2) 0.33349(14) 0.3825(3)
C10 C 0.9515(3) 0.37344(19) 0.4361(4)
H17 H 0.9221 0.4147 0.4912
C11 C 1.0302(4) 0.32378(18) 0.5197(4)
C12 C 1.0647(4) 0.2531(2) 0.4743(5)
H18 H 1.0354 0.2349 0.3946
C13 C 1.1418(4) 0.2101(2) 0.5465(5)
H19 H 1.1648 0.1633 0.5144
C14 C 1.1850(4) 0.2346(2) 0.6640(5)
H20 H 1.2367 0.2047 0.7123
C15 C 1.1513(4) 0.3044(2) 0.7107(5)
H21 H 1.1816 0.3223 0.7901
C16 C 1.0726(4) 0.3480(2) 0.6396(4)
H22 H 1.0480 0.3941 0.6734
C17 C 1.0207(4) 0.40672(19) 0.3222(4)
C18 C 1.0957(4) 0.4672(2) 0.3464(5)
H23 H 1.0979 0.4893 0.4297
C19 C 1.1671(5) 0.4942(3) 0.2461(7)
H24 H 1.2174 0.5345 0.2627
C20 C 1.1645(5) 0.4630(3) 0.1247(7)
H25 H 1.2142 0.4807 0.0588
C21 C 1.0886(6) 0.4050(3) 0.0986(6)
H26 H 1.0859 0.3839 0.0145
C22 C 1.0167(5) 0.3780(2) 0.1965(5)
H27 H 0.9642 0.3394 0.1772
C23 C 0.5065(5) -0.0072(2) 0.5218(6)
H28 H 0.5577 -0.0426 0.5645
H29 H 0.4633 -0.0323 0.4532
H30 H 0.4526 0.0132 0.5854
loop_
_geom_bond_atom_site_label_1
_geom_bond_atom_site_label_2
_geom_bond_site_symmetry_1
_geom_bond_site_symmetry_2
N1 H1 1_555 1_555
C1 N1 1_555 1_555
H2 C1 1_555 1_555
C2 C1 1_555 1_555
H3 C2 1_555 1_555
H4 C2 1_555 1_555
C3 C2 1_555 1_555
H5 C3 1_555 1_555
C4 C3 1_555 1_555
H6 C4 1_555 1_555
H7 C4 1_555 1_555
C5 N1 1_555 1_555
H8 C5 1_555 1_555
C6 C5 1_555 1_555
H9 C6 1_555 1_555
H10 C6 1_555 1_555
C7 C1 1_555 1_555
H11 C7 1_555 1_555
H12 C7 1_555 1_555
C8 C3 1_555 1_555
H13 C8 1_555 1_555
H14 C8 1_555 1_555
C9 C8 1_555 1_555
H15 C9 1_555 1_555
H16 C9 1_555 1_555
O1 C9 1_555 1_555
C10 O1 1_555 1_555
H17 C10 1_555 1_555
C11 C10 1_555 1_555
C12 C11 1_555 1_555
H18 C12 1_555 1_555
C13 C12 1_555 1_555
H19 C13 1_555 1_555
C14 C13 1_555 1_555
H20 C14 1_555 1_555
C15 C14 1_555 1_555
H21 C15 1_555 1_555
C16 C11 1_555 1_555
H22 C16 1_555 1_555
C17 C10 1_555 1_555
C18 C17 1_555 1_555
H23 C18 1_555 1_555
C19 C18 1_555 1_555
H24 C19 1_555 1_555
C20 C19 1_555 1_555
H25 C20 1_555 1_555
C21 C20 1_555 1_555
H26 C21 1_555 1_555
C22 C17 1_555 1_555
H27 C22 1_555 1_555
C23 N1 1_555 1_555
H28 C23 1_555 1_555
H29 C23 1_555 1_555
H30 C23 1_555 1_555
C4 C5 1_555 1_555
C6 C7 1_555 1_555
C15 C16 1_555 1_555
C21 C22 1_555 1_555

#END
