
#######################################################################
#
#                 Cambridge Crystallographic Data Centre
#                                CCDC 
#
#######################################################################
#
# If this CIF has been generated from an entry in the Cambridge 
# Structural Database, then it will include bibliographic, chemical, 
# crystal, experimental, refinement or atomic coordinate data resulting 
# from the CCDC's data processing and validation procedures.
#
#######################################################################

data_CAFQIK
_chemical_formula_moiety         'C23 H27 F2 N2 O1 1+,Cl1 1-'
_chemical_name_systematic        
'N-(bis(4-Fluorophenyl)methyl)-2-(8-methyl-8-azabicyclo[3.2.1]oct-3-yl)acetamide hydrochloride'
_chemical_properties_biological  
'binds to dopamine transporter and inhibits re-uptake'
_symmetry_cell_setting           orthorhombic
_symmetry_space_group_name_H-M   'P c a 21'
_symmetry_Int_Tables_number      29
_space_group_name_Hall           'P 2c -2ac'
loop_
_symmetry_equiv_pos_site_id
_symmetry_equiv_pos_as_xyz
1 x,y,z
2 -x,-y,1/2+z
3 1/2+x,-y,z
4 1/2-x,y,1/2+z
_cell_length_a                   11.5619(11)
_cell_length_b                   19.2722(15)
_cell_length_c                   9.7509(13)
_cell_angle_alpha                90
_cell_angle_beta                 90
_cell_angle_gamma                90
_cell_volume                     2172.73
_chemical_melting_point          300deg.C(dec.)
_cell_formula_units_Z            4
loop_
_atom_site_label
_atom_site_type_symbol
_atom_site_fract_x
_atom_site_fract_y
_atom_site_fract_z
Cl1 Cl 0.72543(12) 0.03160(7) 0.43527(19)
C1 C 0.6347(6) -0.0976(3) 0.1456(6)
H1 H 0.6743 -0.0706 0.0745
C2 C 0.7214(5) -0.1396(3) 0.2299(6)
H2 H 0.7769 -0.1078 0.2702
H3 H 0.7634 -0.1701 0.1685
C3 C 0.6678(5) -0.1836(3) 0.3452(6)
H4 H 0.7280 -0.1881 0.4155
C4 C 0.5680(5) -0.1434(3) 0.4137(6)
H5 H 0.5187 -0.1765 0.4608
H6 H 0.6005 -0.1128 0.4825
C5 C 0.4932(5) -0.1006(3) 0.3181(6)
H7 H 0.4331 -0.0756 0.3690
C6 C 0.4409(5) -0.1417(3) 0.1968(7)
H8 H 0.3703 -0.1199 0.1646
H9 H 0.4238 -0.1890 0.2236
C7 C 0.5354(6) -0.1400(3) 0.0840(7)
H10 H 0.5609 -0.1866 0.0617
H11 H 0.5063 -0.1181 0.0013
N1 N 0.5726(4) -0.0509(2) 0.2440(6)
H12 H 0.6248 -0.0338 0.3052
C8 C 0.5123(7) 0.0083(4) 0.1775(9)
H13 H 0.5680 0.0375 0.1328
H14 H 0.4716 0.0346 0.2458
H15 H 0.4583 -0.0090 0.1110
C9 C 0.6353(5) -0.2575(3) 0.3048(7)
H16 H 0.6071 -0.2819 0.3852
H17 H 0.5728 -0.2558 0.2384
O1 O 0.7434(5) -0.3087(3) 0.1195(5)
C10 C 0.7330(6) -0.2968(3) 0.2454(7)
N2 N 0.8129(4) -0.3196(3) 0.3334(5)
H18 H 0.8008 -0.3124 0.4193
C11 C 0.9185(5) -0.3555(3) 0.2956(6)
H19 H 0.9254 -0.3510 0.1958
C12 C 0.9142(6) -0.4324(4) 0.3250(8)
C13 C 1.0001(7) -0.4752(4) 0.2760(10)
H20 H 1.0591 -0.4563 0.2230
C14 C 1.0006(9) -0.5456(4) 0.3038(12)
H21 H 1.0591 -0.5742 0.2707
C15 C 0.9151(9) -0.5712(4) 0.3790(15)
F1 F 0.9170(5) -0.6404(2) 0.4102(12)
C16 C 0.8307(7) -0.5326(4) 0.4305(17)
H22 H 0.7728 -0.5528 0.4833
C17 C 0.8292(6) -0.4611(4) 0.4050(12)
H23 H 0.7711 -0.4334 0.4419
C18 C 1.0218(6) -0.3179(4) 0.3556(6)
C19 C 1.0716(7) -0.3376(4) 0.4799(7)
H24 H 1.0414 -0.3753 0.5273
C20 C 1.1640(7) -0.3025(4) 0.5333(8)
H25 H 1.1974 -0.3169 0.6152
C21 C 1.2059(6) -0.2473(4) 0.4666(7)
F2 F 1.2987(4) -0.2124(2) 0.5169(5)
C22 C 1.1595(6) -0.2233(4) 0.3467(9)
H26 H 1.1884 -0.1839 0.3036
C23 C 1.0667(6) -0.2606(4) 0.2916(7)
H27 H 1.0345 -0.2461 0.2091
loop_
_geom_bond_atom_site_label_1
_geom_bond_atom_site_label_2
_geom_bond_site_symmetry_1
_geom_bond_site_symmetry_2
C1 H1 1_555 1_555
C2 C1 1_555 1_555
H2 C2 1_555 1_555
H3 C2 1_555 1_555
C3 C2 1_555 1_555
H4 C3 1_555 1_555
C4 C3 1_555 1_555
H5 C4 1_555 1_555
H6 C4 1_555 1_555
C5 C4 1_555 1_555
H7 C5 1_555 1_555
C6 C5 1_555 1_555
H8 C6 1_555 1_555
H9 C6 1_555 1_555
C7 C1 1_555 1_555
H10 C7 1_555 1_555
H11 C7 1_555 1_555
N1 C1 1_555 1_555
H12 N1 1_555 1_555
C8 N1 1_555 1_555
H13 C8 1_555 1_555
H14 C8 1_555 1_555
H15 C8 1_555 1_555
C9 C3 1_555 1_555
H16 C9 1_555 1_555
H17 C9 1_555 1_555
O1 C10 1_555 1_555
C10 C9 1_555 1_555
N2 C10 1_555 1_555
H18 N2 1_555 1_555
C11 N2 1_555 1_555
H19 C11 1_555 1_555
C12 C11 1_555 1_555
C13 C12 1_555 1_555
H20 C13 1_555 1_555
C14 C13 1_555 1_555
H21 C14 1_555 1_555
C15 C14 1_555 1_555
F1 C15 1_555 1_555
C16 C15 1_555 1_555
H22 C16 1_555 1_555
C17 C12 1_555 1_555
H23 C17 1_555 1_555
C18 C11 1_555 1_555
C19 C18 1_555 1_555
H24 C19 1_555 1_555
C20 C19 1_555 1_555
H25 C20 1_555 1_555
C21 C20 1_555 1_555
F2 C21 1_555 1_555
C22 C21 1_555 1_555
H26 C22 1_555 1_555
C23 C18 1_555 1_555
H27 C23 1_555 1_555
C5 N1 1_555 1_555
C6 C7 1_555 1_555
C16 C17 1_555 1_555
C22 C23 1_555 1_555

#END
