
#######################################################################
#
#                 Cambridge Crystallographic Data Centre
#                                CCDC 
#
#######################################################################
#
# If this CIF has been generated from an entry in the Cambridge 
# Structural Database, then it will include bibliographic, chemical, 
# crystal, experimental, refinement or atomic coordinate data resulting 
# from the CCDC's data processing and validation procedures.
#
#######################################################################

data_CAFROT
_chemical_formula_moiety         '2(C21 H16 F1 N1 O3 S1),C6 H2 Cl4 O2'
_chemical_name_systematic        
'bis(2-(1-benzoylpyrrolo[1,2-a]quinolin-3-yl)ethanesulfonyl fluoride) 2,3,5,6-tetrachlorobenzene-1,4-diol'
_symmetry_cell_setting           monoclinic
_symmetry_space_group_name_H-M   'P 21/c'
_symmetry_Int_Tables_number      14
_space_group_name_Hall           '-P 2ybc'
loop_
_symmetry_equiv_pos_site_id
_symmetry_equiv_pos_as_xyz
1 x,y,z
2 -x,1/2+y,1/2-z
3 -x,-y,-z
4 x,1/2-y,1/2+z
_cell_length_a                   9.2301(6)
_cell_length_b                   23.9464(11)
_cell_length_c                   10.7826(7)
_cell_angle_alpha                90
_cell_angle_beta                 111.191(7)
_cell_angle_gamma                90
_cell_volume                     2222.1
_exptl_crystal_colour            yellow
_exptl_crystal_description       platelet
_cell_formula_units_Z            2
loop_
_atom_site_label
_atom_site_type_symbol
_atom_site_fract_x
_atom_site_fract_y
_atom_site_fract_z
C1 C 1.0706(4) 0.32394(15) 0.7026(4)
H1 H 1.0153 0.3475 0.6243
H2 H 0.9917 0.3015 0.7226
C2 C 1.1520(4) 0.36160(14) 0.8204(4)
H3 H 1.2176 0.3389 0.8967
H4 H 1.2200 0.3883 0.7970
C3 C 1.0330(4) 0.39301(14) 0.8580(3)
C4 C 0.9699(4) 0.44527(14) 0.8106(3)
C5 C 1.0051(4) 0.48410(13) 0.7263(4)
H5 H 1.0853 0.4764 0.6931
C6 C 0.9240(4) 0.53190(14) 0.6936(3)
H6 H 0.9413 0.5563 0.6309
C7 C 0.8123(4) 0.54687(14) 0.7513(3)
C8 C 0.7373(4) 0.59903(14) 0.7279(4)
H7 H 0.7548 0.6242 0.6665
C9 C 0.6390(4) 0.61432(14) 0.7923(4)
H8 H 0.5870 0.6493 0.7739
C10 C 0.6164(4) 0.57823(15) 0.8842(4)
H9 H 0.5514 0.5894 0.9308
C11 C 0.6865(4) 0.52637(14) 0.9095(4)
H10 H 0.6703 0.5023 0.9733
C12 C 0.7808(4) 0.50973(13) 0.8408(3)
C13 C 0.8373(4) 0.41058(14) 0.9334(3)
C14 C 0.9516(4) 0.37279(15) 0.9340(4)
H11 H 0.9711 0.3381 0.9799
C15 C 0.7004(4) 0.39349(14) 0.9586(4)
C16 C 0.7182(4) 0.34795(14) 1.0563(4)
C17 C 0.5988(5) 0.30930(15) 1.0323(5)
H12 H 0.5106 0.3114 0.9522
C18 C 0.6070(6) 0.26828(17) 1.1228(6)
H13 H 0.5253 0.2417 1.1042
C19 C 0.7315(8) 0.2650(2) 1.2398(6)
H14 H 0.7349 0.2369 1.3028
C20 C 0.8525(6) 0.30278(19) 1.2666(5)
H15 H 0.9391 0.3005 1.3478
C21 C 0.8471(5) 0.34405(16) 1.1744(4)
H16 H 0.9309 0.3696 1.1917
N1 N 0.8522(3) 0.45682(11) 0.8582(3)
O1 O 1.1230(9) 0.2520(3) 0.5366(8)
O2 O 1.2710(7) 0.2437(3) 0.7870(6)
F1 F 1.3226(7) 0.3156(2) 0.6581(6)
O3 O 0.5676(3) 0.41248(10) 0.8991(2)
S1 S 1.19490(12) 0.27881(4) 0.66174(11)
C22 C 0.6072(4) 0.47139(14) 0.4610(3)
C23 C 0.5464(4) 0.44703(14) 0.5482(3)
C24 C 0.4391(4) 0.47504(14) 0.5887(3)
O6 O 0.3735(3) 0.45160(10) 0.6705(3)
H17 H 0.448(5) 0.4369(16) 0.744(4)
Cl1 Cl 0.73600(10) 0.43579(4) 0.40732(9)
Cl2 Cl 0.60000(11) 0.37987(4) 0.60460(9)
C22B C 0.3928(4) 0.52861(14) 0.5390(3)
C23B C 0.4536(4) 0.55297(14) 0.4518(3)
C24B C 0.5609(4) 0.52496(14) 0.4113(3)
O6B O 0.6265(3) 0.54840(10) 0.3295(3)
H17B H 0.552(5) 0.5631(16) 0.256(4)
Cl1B Cl 0.26400(10) 0.56421(4) 0.59268(9)
Cl2B Cl 0.40000(11) 0.62013(4) 0.39540(9)
O4? O 1.1129(10) 0.2435(4) 0.5585(9)
O5? O 1.3165(9) 0.2593(3) 0.7606(7)
F2? F 1.2638(7) 0.3267(2) 0.5887(7)
loop_
_geom_bond_atom_site_label_1
_geom_bond_atom_site_label_2
_geom_bond_site_symmetry_1
_geom_bond_site_symmetry_2
C1 H1 1_555 1_555
H2 C1 1_555 1_555
C2 C1 1_555 1_555
H3 C2 1_555 1_555
H4 C2 1_555 1_555
C3 C2 1_555 1_555
C4 C3 1_555 1_555
C5 C4 1_555 1_555
H5 C5 1_555 1_555
C6 C5 1_555 1_555
H6 C6 1_555 1_555
C7 C6 1_555 1_555
C8 C7 1_555 1_555
H7 C8 1_555 1_555
C9 C8 1_555 1_555
H8 C9 1_555 1_555
C10 C9 1_555 1_555
H9 C10 1_555 1_555
C11 C10 1_555 1_555
H10 C11 1_555 1_555
C12 C7 1_555 1_555
C13 C14 1_555 1_555
C14 C3 1_555 1_555
H11 C14 1_555 1_555
C15 C13 1_555 1_555
C16 C15 1_555 1_555
C17 C16 1_555 1_555
H12 C17 1_555 1_555
C18 C17 1_555 1_555
H13 C18 1_555 1_555
C19 C18 1_555 1_555
H14 C19 1_555 1_555
C20 C19 1_555 1_555
H15 C20 1_555 1_555
C21 C16 1_555 1_555
H16 C21 1_555 1_555
N1 C4 1_555 1_555
O1 S1 1_555 1_555
O2 S1 1_555 1_555
F1 S1 1_555 1_555
O3 C15 1_555 1_555
S1 C1 1_555 1_555
C22 C23 1_555 1_555
C23 C24 1_555 1_555
C24 O6 1_555 1_555
O6 H17 1_555 1_555
Cl1 C22 1_555 1_555
Cl2 C23 1_555 1_555
C22B C24 1_555 1_555
C23B C22B 1_555 1_555
C24B C22 1_555 1_555
O6B C24B 1_555 1_555
H17B O6B 1_555 1_555
Cl1B C22B 1_555 1_555
Cl2B C23B 1_555 1_555
C11 C12 1_555 1_555
C12 N1 1_555 1_555
C13 N1 1_555 1_555
C20 C21 1_555 1_555
C23B C24B 1_555 1_555

#END
