
#######################################################################
#
#                 Cambridge Crystallographic Data Centre
#                                CCDC 
#
#######################################################################
#
# If this CIF has been generated from an entry in the Cambridge 
# Structural Database, then it will include bibliographic, chemical, 
# crystal, experimental, refinement or atomic coordinate data resulting 
# from the CCDC's data processing and validation procedures.
#
#######################################################################

data_CAFRUZ
_chemical_formula_moiety         'C11 H11 F1 O4 S1'
_chemical_name_systematic        
'2-(4-methoxybenzoyl)cyclopropanesulfonyl fluoride'
_symmetry_cell_setting           monoclinic
_symmetry_space_group_name_H-M   'P 21'
_symmetry_Int_Tables_number      4
_space_group_name_Hall           'P 2yb'
loop_
_symmetry_equiv_pos_site_id
_symmetry_equiv_pos_as_xyz
1 x,y,z
2 -x,1/2+y,-z
_cell_length_a                   7.9550(2)
_cell_length_b                   5.39730(10)
_cell_length_c                   13.4709(4)
_cell_angle_alpha                90
_cell_angle_beta                 102.8027(12)
_cell_angle_gamma                90
_cell_volume                     564.001
_exptl_crystal_colour            colorless
_exptl_crystal_description       block
_cell_formula_units_Z            2
loop_
_atom_site_label
_atom_site_type_symbol
_atom_site_fract_x
_atom_site_fract_y
_atom_site_fract_z
C1 C 0.2959(3) 0.1315(5) 0.0737(2)
H1 H 0.2751 0.3133 0.0632
C2 C 0.4512(4) 0.0571(6) 0.1530(2)
H2 H 0.5254 0.1907 0.1893
H3 H 0.5136 -0.0942 0.1403
C3 C 0.2745(3) 0.0253(5) 0.1750(2)
H4 H 0.2282 -0.1469 0.1752
C4 C 0.2185(4) 0.2135(5) 0.2438(2)
C5 C 0.0770(3) 0.1487(5) 0.2944(2)
C6 C -0.0265(3) -0.0595(7) 0.26969(18)
H5 H -0.0022 -0.1728 0.2207
C7 C -0.1644(3) -0.1066(5) 0.3145(2)
H6 H -0.2333 -0.2505 0.2967
C8 C -0.2003(3) 0.0602(6) 0.3861(2)
C9 C -0.0960(4) 0.2679(5) 0.4135(2)
H7 H -0.1182 0.3785 0.4639
C10 C 0.0395(4) 0.3123(6) 0.3675(2)
H8 H 0.1086 0.4559 0.3856
C11 C -0.4345(4) -0.1865(7) 0.4162(2)
H9 H -0.4945 -0.1941 0.3444
H10 H -0.5192 -0.1860 0.4590
H11 H -0.3589 -0.3309 0.4329
O1 O 0.3065(3) 0.0523(4) -0.11357(15)
O2 O 0.2741(3) -0.3078(4) -0.01075(16)
O3 O 0.2887(3) 0.4153(4) 0.25534(16)
O4 O -0.3332(3) 0.0358(4) 0.43404(15)
F1 F 0.0424(2) -0.0174(4) -0.06349(14)
S1 S 0.23651(9) -0.05563(13) -0.03309(5)
loop_
_geom_bond_atom_site_label_1
_geom_bond_atom_site_label_2
_geom_bond_site_symmetry_1
_geom_bond_site_symmetry_2
C1 H1 1_555 1_555
C2 C1 1_555 1_555
H2 C2 1_555 1_555
H3 C2 1_555 1_555
C3 C1 1_555 1_555
H4 C3 1_555 1_555
C4 C3 1_555 1_555
C5 C4 1_555 1_555
C6 C5 1_555 1_555
H5 C6 1_555 1_555
C7 C6 1_555 1_555
H6 C7 1_555 1_555
C8 C7 1_555 1_555
C9 C8 1_555 1_555
H7 C9 1_555 1_555
C10 C5 1_555 1_555
H8 C10 1_555 1_555
C11 H9 1_555 1_555
H10 C11 1_555 1_555
H11 C11 1_555 1_555
O1 S1 1_555 1_555
O2 S1 1_555 1_555
O3 C4 1_555 1_555
O4 C8 1_555 1_555
F1 S1 1_555 1_555
S1 C1 1_555 1_555
C2 C3 1_555 1_555
C9 C10 1_555 1_555
C11 O4 1_555 1_555

#END
