
#######################################################################
#
#                 Cambridge Crystallographic Data Centre
#                                CCDC 
#
#######################################################################
#
# If this CIF has been generated from an entry in the Cambridge 
# Structural Database, then it will include bibliographic, chemical, 
# crystal, experimental, refinement or atomic coordinate data resulting 
# from the CCDC's data processing and validation procedures.
#
#######################################################################

data_CAFTAG
_chemical_name_common            
N-(3beta-Acetoxy-urs-12-en-28-oyl)-N'-(2-hydroxyethyl)piperazine
_chemical_formula_moiety         'C38 H62 N2 O4'
_chemical_name_systematic        
'28-(4-(2-Hydroxyethyl)piperazin-1-yl)-28-oxours-12-en-3-yl acetate'
_chemical_properties_biological  'Cytotoxic activity'
_symmetry_cell_setting           monoclinic
_symmetry_space_group_name_H-M   'P 21'
_symmetry_Int_Tables_number      4
_space_group_name_Hall           'P 2yb'
loop_
_symmetry_equiv_pos_site_id
_symmetry_equiv_pos_as_xyz
1 x,y,z
2 -x,1/2+y,-z
_cell_length_a                   7.5072(15)
_cell_length_b                   24.482(5)
_cell_length_c                   9.783(2)
_cell_angle_alpha                90
_cell_angle_beta                 98.27(3)
_cell_angle_gamma                90
_cell_volume                     1779.33
_exptl_crystal_colour            colorless
_exptl_crystal_description       block
_chemical_melting_point          '196-198 deg.C'
_cell_formula_units_Z            2
loop_
_atom_site_label
_atom_site_type_symbol
_atom_site_fract_x
_atom_site_fract_y
_atom_site_fract_z
O1 O 0.4276(8) 0.13946(16) 0.3640(4)
N1 N -0.0284(5) -0.33152(17) 0.0366(4)
C1 C 0.1188(6) -0.02398(17) 0.2745(5)
H1 H -0.0080 -0.0325 0.2709
H2 H 0.1351 -0.0080 0.1864
O2 O 0.4195(5) 0.07001(13) 0.5112(3)
N2 N -0.2847(5) -0.41180(16) 0.1032(4)
C2 C 0.1717(6) 0.01852(19) 0.3889(5)
H3 H 0.1024 0.0517 0.3683
H4 H 0.1461 0.0044 0.4767
O3 O 0.2715(5) -0.33528(15) 0.0469(4)
C3 C 0.3714(7) 0.03089(19) 0.3977(4)
H5 H 0.3930 0.0480 0.3110
O4 O -0.6670(8) -0.4453(2) 0.1270(7)
H6 H -0.6851 -0.4142 0.0967
C4 C 0.4960(6) -0.01835(19) 0.4263(5)
C5 C 0.4314(5) -0.06094(17) 0.3115(4)
H7 H 0.4455 -0.0423 0.2250
C6 C 0.5475(6) -0.1124(2) 0.3113(4)
H8 H 0.6737 -0.1022 0.3270
H9 H 0.5248 -0.1362 0.3861
C7 C 0.5075(6) -0.14310(18) 0.1747(5)
H10 H 0.5824 -0.1755 0.1795
H11 H 0.5402 -0.1201 0.1015
C8 C 0.3090(5) -0.16031(17) 0.1373(4)
C9 C 0.1854(5) -0.11069(16) 0.1562(4)
H12 H 0.2053 -0.0850 0.0831
C10 C 0.2269(6) -0.07698(16) 0.2944(4)
C11 C -0.0111(6) -0.12650(19) 0.1240(5)
H13 H -0.0513 -0.1392 0.2083
H14 H -0.0804 -0.0941 0.0938
C12 C -0.0515(5) -0.17006(19) 0.0151(5)
H15 H -0.1711 -0.1807 -0.0076
C13 C 0.0688(6) -0.19472(16) -0.0516(4)
C14 C 0.2679(5) -0.17948(16) -0.0210(4)
C15 C 0.3922(5) -0.22811(19) -0.0465(5)
H16 H 0.5046 -0.2134 -0.0686
H17 H 0.4195 -0.2485 0.0389
C16 C 0.3166(6) -0.26809(18) -0.1616(5)
H18 H 0.3189 -0.2505 -0.2503
H19 H 0.3949 -0.2998 -0.1575
C17 C 0.1238(6) -0.28747(18) -0.1535(5)
C18 C 0.0005(5) -0.23620(15) -0.1645(4)
H20 H -0.1170 -0.2487 -0.1442
C19 C -0.0326(6) -0.21250(16) -0.3120(4)
H21 H 0.0831 -0.1994 -0.3347
C20 C -0.1034(7) -0.25721(19) -0.4186(5)
H22 H -0.2149 -0.2717 -0.3916
C21 C 0.0292(7) -0.3042(2) -0.4134(5)
H23 H 0.1410 -0.2909 -0.4401
H24 H -0.0189 -0.3318 -0.4796
C22 C 0.0684(7) -0.33026(19) -0.2692(5)
H25 H 0.1645 -0.3568 -0.2687
H26 H -0.0380 -0.3495 -0.2499
C23 C 0.5059(8) -0.0399(2) 0.5752(5)
H27 H 0.5764 -0.0153 0.6376
H28 H 0.5608 -0.0754 0.5816
H29 H 0.3866 -0.0424 0.5992
C24 C 0.6872(7) 0.0010(3) 0.4080(6)
H30 H 0.7178 0.0329 0.4638
H31 H 0.6903 0.0098 0.3127
H32 H 0.7722 -0.0275 0.4360
C25 C 0.1734(7) -0.1071(2) 0.4194(5)
H33 H 0.1561 -0.0811 0.4899
H34 H 0.2670 -0.1322 0.4547
H35 H 0.0635 -0.1268 0.3921
C26 C 0.2740(7) -0.20828(19) 0.2329(5)
H36 H 0.3176 -0.1988 0.3271
H37 H 0.3356 -0.2403 0.2076
H38 H 0.1471 -0.2155 0.2235
C27 C 0.3018(6) -0.13353(19) -0.1234(5)
H39 H 0.2803 -0.1474 -0.2161
H40 H 0.4241 -0.1212 -0.1029
H41 H 0.2218 -0.1036 -0.1146
C28 C 0.1257(6) -0.32005(16) -0.0158(5)
C29 C -0.1611(8) -0.1637(2) -0.3201(5)
H42 H -0.1797 -0.1497 -0.4127
H43 H -0.1099 -0.1357 -0.2579
H44 H -0.2742 -0.1752 -0.2948
C30 C -0.1480(9) -0.2360(2) -0.5663(5)
H45 H -0.0437 -0.2187 -0.5933
H46 H -0.2443 -0.2099 -0.5710
H47 H -0.1842 -0.2659 -0.6274
C31 C -0.0195(8) -0.3550(3) 0.1737(5)
H48 H -0.0852 -0.3318 0.2295
H49 H 0.1050 -0.3562 0.2170
C32 C -0.0983(8) -0.4125(2) 0.1695(6)
H50 H -0.0284 -0.4365 0.1187
H51 H -0.0922 -0.4266 0.2627
C33 C -0.2939(7) -0.38930(19) -0.0359(5)
H52 H -0.4184 -0.3882 -0.0793
H53 H -0.2283 -0.4129 -0.0908
C34 C -0.2149(6) -0.33197(18) -0.0336(5)
H54 H -0.2181 -0.3189 -0.1275
H55 H -0.2871 -0.3075 0.0138
C35 C -0.3597(8) -0.4671(2) 0.1005(6)
H56 H -0.3364 -0.4819 0.1932
H57 H -0.2950 -0.4896 0.0424
C36 C -0.5563(10) -0.4724(3) 0.0502(8)
H58 H -0.5795 -0.4590 -0.0440
H59 H -0.5877 -0.5109 0.0484
C37 C 0.4477(7) 0.12166(19) 0.4793(5)
C38 C 0.5078(8) 0.1549(2) 0.6071(6)
H60 H 0.6353 0.1507 0.6333
H61 H 0.4464 0.1424 0.6808
H62 H 0.4801 0.1927 0.5886
loop_
_geom_bond_atom_site_label_1
_geom_bond_atom_site_label_2
_geom_bond_site_symmetry_1
_geom_bond_site_symmetry_2
O1 C37 1_555 1_555
N1 C28 1_555 1_555
C1 H1 1_555 1_555
H2 C1 1_555 1_555
O2 C3 1_555 1_555
N2 C32 1_555 1_555
C2 C1 1_555 1_555
H3 C2 1_555 1_555
H4 C2 1_555 1_555
O3 C28 1_555 1_555
C3 C2 1_555 1_555
H5 C3 1_555 1_555
O4 H6 1_555 1_555
C4 C3 1_555 1_555
C5 C4 1_555 1_555
H7 C5 1_555 1_555
C6 C5 1_555 1_555
H8 C6 1_555 1_555
H9 C6 1_555 1_555
C7 C6 1_555 1_555
H10 C7 1_555 1_555
H11 C7 1_555 1_555
C8 C7 1_555 1_555
C9 C8 1_555 1_555
H12 C9 1_555 1_555
C10 C1 1_555 1_555
C11 C9 1_555 1_555
H13 C11 1_555 1_555
H14 C11 1_555 1_555
C12 C11 1_555 1_555
H15 C12 1_555 1_555
C13 C12 1_555 1_555
C14 C8 1_555 1_555
C15 C14 1_555 1_555
H16 C15 1_555 1_555
H17 C15 1_555 1_555
C16 C15 1_555 1_555
H18 C16 1_555 1_555
H19 C16 1_555 1_555
C17 C16 1_555 1_555
C18 C13 1_555 1_555
H20 C18 1_555 1_555
C19 C18 1_555 1_555
H21 C19 1_555 1_555
C20 C19 1_555 1_555
H22 C20 1_555 1_555
C21 C20 1_555 1_555
H23 C21 1_555 1_555
H24 C21 1_555 1_555
C22 C17 1_555 1_555
H25 C22 1_555 1_555
H26 C22 1_555 1_555
C23 C4 1_555 1_555
H27 C23 1_555 1_555
H28 C23 1_555 1_555
H29 C23 1_555 1_555
C24 C4 1_555 1_555
H30 C24 1_555 1_555
H31 C24 1_555 1_555
H32 C24 1_555 1_555
C25 C10 1_555 1_555
H33 C25 1_555 1_555
H34 C25 1_555 1_555
H35 C25 1_555 1_555
C26 C8 1_555 1_555
H36 C26 1_555 1_555
H37 C26 1_555 1_555
H38 C26 1_555 1_555
C27 C14 1_555 1_555
H39 C27 1_555 1_555
H40 C27 1_555 1_555
H41 C27 1_555 1_555
C28 C17 1_555 1_555
C29 C19 1_555 1_555
H42 C29 1_555 1_555
H43 C29 1_555 1_555
H44 C29 1_555 1_555
C30 C20 1_555 1_555
H45 C30 1_555 1_555
H46 C30 1_555 1_555
H47 C30 1_555 1_555
C31 N1 1_555 1_555
H48 C31 1_555 1_555
H49 C31 1_555 1_555
C32 C31 1_555 1_555
H50 C32 1_555 1_555
H51 C32 1_555 1_555
C33 N2 1_555 1_555
H52 C33 1_555 1_555
H53 C33 1_555 1_555
C34 N1 1_555 1_555
H54 C34 1_555 1_555
H55 C34 1_555 1_555
C35 N2 1_555 1_555
H56 C35 1_555 1_555
H57 C35 1_555 1_555
C36 O4 1_555 1_555
H58 C36 1_555 1_555
H59 C36 1_555 1_555
C37 O2 1_555 1_555
C38 C37 1_555 1_555
H60 C38 1_555 1_555
H61 C38 1_555 1_555
H62 C38 1_555 1_555
C5 C10 1_555 1_555
C9 C10 1_555 1_555
C13 C14 1_555 1_555
C17 C18 1_555 1_555
C21 C22 1_555 1_555
C33 C34 1_555 1_555
C35 C36 1_555 1_555

#END
