
#######################################################################
#
#                 Cambridge Crystallographic Data Centre
#                                CCDC 
#
#######################################################################
#
# If this CIF has been generated from an entry in the Cambridge 
# Structural Database, then it will include bibliographic, chemical, 
# crystal, experimental, refinement or atomic coordinate data resulting 
# from the CCDC's data processing and validation procedures.
#
#######################################################################

data_CAFYAM
_chemical_name_common            
"5,11,17,23-tetra-t-butyl-25,26-(1,1'-binaphthalene-2,2'-diylbis(oxyethoxy))-27-hydroxy-28-(diethylaminocarbonylmethoxy)calix(4)arene acetone solvate"
_chemical_formula_moiety         'C74 H85 N1 O7,C3 H6 O1'
_chemical_name_systematic        
'N,N-diethyl-2-((34,40,46,52-tetra-t-butyl-56-hydroxy-3,6,27,30-tetraoxadecacyclo[30.21.1.1^38,42^.1^44,48^.0^2,50^.0^7,16^.0^10,15^.0^17,26^.0^18,23^.0^31,36^]hexapentaconta-1,7(16),8,10(15),11,13,17,19,21,23,25,31,33,35,38(56),39,41,44(55),45,47,50,52-docosaen-55-yl)oxy)acetamide acetone solvate'
_symmetry_cell_setting           orthorhombic
_symmetry_space_group_name_H-M   'P 21 21 21'
_symmetry_Int_Tables_number      19
_space_group_name_Hall           'P 2ac 2ab'
loop_
_symmetry_equiv_pos_site_id
_symmetry_equiv_pos_as_xyz
1 x,y,z
2 1/2+x,1/2-y,-z
3 -x,1/2+y,1/2-z
4 1/2-x,-y,1/2+z
_cell_length_a                   10.5751(14)
_cell_length_b                   17.271(2)
_cell_length_c                   37.696(5)
_cell_angle_alpha                90
_cell_angle_beta                 90
_cell_angle_gamma                90
_cell_volume                     6884.89
_cell_formula_units_Z            4
loop_
_atom_site_label
_atom_site_type_symbol
_atom_site_fract_x
_atom_site_fract_y
_atom_site_fract_z
C1 C 0.6978(5) 0.4981(3) 0.10613(14)
C2 C 0.7542(5) 0.4371(3) 0.12415(14)
C3 C 0.7762(5) 0.4454(3) 0.16020(15)
H1 H 0.8159 0.4053 0.1724
C4 C 0.7413(5) 0.5113(3) 0.17882(14)
C5 C 0.6791(5) 0.5682(3) 0.15991(15)
H2 H 0.6519 0.6120 0.1720
C6 C 0.6553(5) 0.5636(3) 0.12401(15)
C7 C 0.5781(5) 0.6264(3) 0.10581(15)
H3 H 0.6196 0.6760 0.1091
H4 H 0.5743 0.6159 0.0806
C8 C 0.4455(5) 0.6308(3) 0.12049(14)
C9 C 0.3525(5) 0.5784(3) 0.11072(14)
C10 C 0.2346(5) 0.5776(3) 0.12609(14)
C11 C 0.2086(6) 0.6331(3) 0.15204(14)
H5 H 0.1293 0.6333 0.1627
C12 C 0.2972(6) 0.6880(3) 0.16240(14)
C13 C 0.4142(6) 0.6850(3) 0.14662(14)
H6 H 0.4753 0.7206 0.1536
C14 C 0.1386(5) 0.5161(3) 0.11722(14)
H7 H 0.1279 0.5132 0.0917
H8 H 0.0576 0.5297 0.1276
C15 C 0.1807(5) 0.4377(3) 0.13126(13)
C16 C 0.2229(5) 0.3787(3) 0.10941(13)
C17 C 0.2792(5) 0.3127(3) 0.12276(13)
C18 C 0.2861(5) 0.3051(3) 0.15923(14)
H9 H 0.3225 0.2604 0.1685
C19 C 0.2417(5) 0.3606(3) 0.18248(13)
C20 C 0.1906(5) 0.4267(3) 0.16795(13)
H10 H 0.1617 0.4655 0.1830
C21 C 0.3432(5) 0.2539(3) 0.09882(13)
H11 H 0.2986 0.2049 0.1002
H12 H 0.3399 0.2717 0.0744
C22 C 0.4791(5) 0.2425(3) 0.10978(13)
C23 C 0.5668(6) 0.2999(3) 0.10142(13)
C24 C 0.6900(6) 0.2966(3) 0.11433(13)
C25 C 0.7223(6) 0.2333(3) 0.13550(14)
H13 H 0.8041 0.2309 0.1445
C26 C 0.6400(6) 0.1743(3) 0.14390(13)
C27 C 0.5179(6) 0.1809(3) 0.13046(13)
H14 H 0.4597 0.1421 0.1356
C28 C 0.7859(5) 0.3607(3) 0.10660(14)
H15 H 0.8687 0.3440 0.1146
H16 H 0.7906 0.3685 0.0811
C29 C 0.7860(5) 0.5029(3) 0.04757(14)
H17 H 0.7955 0.4595 0.0315
H18 H 0.8609 0.5051 0.0624
C30 C 0.7759(6) 0.5756(3) 0.02671(15)
H19 H 0.7502 0.6180 0.0420
H20 H 0.8570 0.5884 0.0162
C31 C 0.6421(6) 0.6253(3) -0.02029(16)
C32 C 0.6767(7) 0.7009(4) -0.01160(19)
H21 H 0.7307 0.7107 0.0073
C33 C 0.6292(8) 0.7604(4) -0.0316(2)
H22 H 0.6516 0.8109 -0.0258
C34 C 0.5491(7) 0.7485(4) -0.0601(2)
C35 C 0.5179(6) 0.6708(4) -0.06928(17)
C36 C 0.5688(6) 0.6080(3) -0.04888(16)
C37 C 0.4367(7) 0.6574(4) -0.09855(19)
H23 H 0.4167 0.6071 -0.1053
C38 C 0.3877(8) 0.7194(6) -0.1170(2)
H24 H 0.3329 0.7105 -0.1358
C39 C 0.4185(9) 0.7942(6) -0.1079(3)
H25 H 0.3859 0.8353 -0.1210
C40 C 0.4964(9) 0.8086(5) -0.0799(3)
H26 H 0.5148 0.8596 -0.0738
C41 C 0.5356(6) 0.5267(3) -0.05812(13)
C42 C 0.4512(5) 0.4869(3) -0.03727(14)
C43 C 0.4175(6) 0.4098(4) -0.04438(16)
H27 H 0.3624 0.3836 -0.0294
C44 C 0.4663(6) 0.3738(4) -0.07360(16)
H28 H 0.4420 0.3233 -0.0788
C45 C 0.5521(6) 0.4114(4) -0.09585(14)
C46 C 0.5886(5) 0.4882(3) -0.08804(14)
C47 C 0.6743(6) 0.5246(4) -0.11111(16)
H29 H 0.6997 0.5750 -0.1063
C48 C 0.7213(7) 0.4883(5) -0.14034(18)
H30 H 0.7797 0.5132 -0.1549
C49 C 0.6808(8) 0.4134(5) -0.14826(18)
H31 H 0.7100 0.3895 -0.1688
C50 C 0.6001(7) 0.3749(4) -0.12672(18)
H32 H 0.5761 0.3245 -0.1322
C51 C 0.4009(5) 0.4917(3) 0.02401(13)
H33 H 0.4872 0.4770 0.0296
H34 H 0.3481 0.4458 0.0249
C52 C 0.3548(6) 0.5507(3) 0.04971(14)
H35 H 0.3969 0.5997 0.0455
H36 H 0.2645 0.5583 0.0468
C53 C 0.7718(6) 0.5234(4) 0.21852(15)
C54 C 0.8136(14) 0.4476(5) 0.2359(2)
H37 H 0.8425 0.4578 0.2596
H38 H 0.8811 0.4251 0.2224
H39 H 0.7436 0.4123 0.2367
C55 C 0.6606(10) 0.5572(9) 0.2379(3)
H40 H 0.5938 0.5197 0.2389
H41 H 0.6315 0.6026 0.2256
H42 H 0.6856 0.5711 0.2616
C56 C 0.8866(10) 0.5776(6) 0.2208(2)
H43 H 0.8647 0.6273 0.2112
H44 H 0.9554 0.5560 0.2074
H45 H 0.9115 0.5834 0.2451
C57 C 0.2310(15) 0.4241(6) 0.2434(3)
H46 H 0.2306 0.4134 0.2684
H47 H 0.1511 0.4459 0.2366
H48 H 0.2974 0.4603 0.2381
C58 C 0.3755(12) 0.3112(11) 0.2329(4)
H49 H 0.3776 0.3028 0.2581
H50 H 0.4449 0.3439 0.2262
H51 H 0.3823 0.2625 0.2209
C59 C 0.1405(12) 0.2943(8) 0.2327(3)
H52 H 0.1575 0.2434 0.2237
H53 H 0.0639 0.3137 0.2223
H54 H 0.1312 0.2921 0.2580
C60 C 0.252(2) 0.7099(9) 0.2257(3)
H55 H 0.2268 0.7468 0.2433
H56 H 0.3322 0.6876 0.2323
H57 H 0.1900 0.6698 0.2239
C61 C 0.1455(13) 0.7929(9) 0.1800(4)
H58 H 0.0760 0.7573 0.1786
H59 H 0.1583 0.8167 0.1572
H60 H 0.1269 0.8322 0.1972
C62 C 0.3686(14) 0.8130(9) 0.1920(5)
H61 H 0.3384 0.8565 0.2054
H62 H 0.3879 0.8293 0.1682
H63 H 0.4435 0.7927 0.2029
C63 C 0.6778(6) 0.1026(3) 0.16584(14)
C64 C 0.0946(6) 0.3621(4) 0.05838(14)
H64 H 0.0257 0.3748 0.0743
H65 H 0.0966 0.3063 0.0552
C65 C 0.0760(5) 0.4013(4) 0.02334(15)
C66 C 0.0534(7) 0.3977(4) -0.04018(14)
H66 H 0.0821 0.3634 -0.0589
H67 H 0.1085 0.4426 -0.0399
C67 C -0.0804(7) 0.4237(4) -0.04831(16)
H68 H -0.1363 0.3799 -0.0474
H69 H -0.0832 0.4462 -0.0716
H70 H -0.1065 0.4615 -0.0311
C68 C 0.0589(6) 0.2730(4) -0.00671(17)
H71 H 0.0059 0.2567 -0.0263
H72 H 0.0200 0.2547 0.0150
C69 C 0.1860(8) 0.2364(4) -0.0105(2)
H73 H 0.2268 0.2561 -0.0314
H74 H 0.1765 0.1813 -0.0125
H75 H 0.2364 0.2483 0.0100
C70 C 0.2531(7) 0.3496(4) 0.22300(15)
C71 C 0.2654(6) 0.7494(3) 0.19091(15)
C72 C 0.583(2) 0.095(2) 0.1964(6)
H76 H 0.5954 0.0467 0.2082
H77 H 0.4986 0.0977 0.1871
H78 H 0.5959 0.1369 0.2129
C73 C 0.8101(14) 0.109(2) 0.1818(7)
H79 H 0.8100 0.1481 0.2000
H80 H 0.8692 0.1233 0.1636
H81 H 0.8341 0.0603 0.1919
C74 C 0.670(4) 0.0328(10) 0.1416(6)
H82 H 0.7313 0.0376 0.1230
H83 H 0.5866 0.0302 0.1313
H84 H 0.6857 -0.0134 0.1549
N1 N 0.0637(5) 0.3573(3) -0.00597(11)
O1 O 0.6761(3) 0.4905(2) 0.06969(9)
O2 O 0.6832(4) 0.5632(2) -0.00059(10)
O3 O 0.3949(4) 0.5257(2) -0.01005(9)
O4 O 0.3815(3) 0.52392(19) 0.08459(8)
O5 O 0.2111(3) 0.3883(2) 0.07267(8)
O6 O 0.0738(4) 0.4724(3) 0.02243(10)
O7 O 0.5249(4) 0.3571(2) 0.07910(10)
H85 H 0.5712 0.3950 0.0809
C87 C 0.4423(11) 0.8132(7) 0.0654(3)
H122 H 0.4743 0.7693 0.0526
H123 H 0.3938 0.8453 0.0496
H124 H 0.3893 0.7957 0.0845
C88 C 0.5441(14) 0.8562(6) 0.0793(3)
C89 C 0.6417(11) 0.8866(6) 0.0562(3)
H125 H 0.6836 0.9290 0.0678
H126 H 0.6042 0.9044 0.0345
H127 H 0.7020 0.8466 0.0511
O8 O 0.5545(14) 0.8612(6) 0.1112(3)
C75? C 0.568(3) 0.064(3) 0.1855(15)
H86? H 0.6013 0.0265 0.2020
H87? H 0.5144 0.0382 0.1687
H88? H 0.5208 0.1023 0.1981
C76? C 0.780(4) 0.129(3) 0.1919(13)
H89? H 0.7942 0.0891 0.2092
H90? H 0.7534 0.1754 0.2036
H91? H 0.8573 0.1386 0.1792
C77? C 0.739(5) 0.0435(17) 0.1409(8)
H92? H 0.8124 0.0662 0.1299
H93? H 0.6798 0.0287 0.1229
H94? H 0.7642 -0.0014 0.1541
C78? C 0.904(2) 0.497(3) 0.2283(13)
H95? H 0.9239 0.5138 0.2518
H96? H 0.9637 0.5179 0.2118
H97? H 0.9074 0.4411 0.2274
C79? C 0.673(3) 0.474(2) 0.2376(9)
H98? H 0.6848 0.4207 0.2316
H99? H 0.5898 0.4904 0.2305
H100? H 0.6818 0.4808 0.2628
C80? C 0.749(4) 0.6086(9) 0.2269(11)
H101? H 0.7095 0.6131 0.2498
H102? H 0.6952 0.6308 0.2092
H103? H 0.8285 0.6356 0.2272
C81? C 0.143(2) 0.3845(17) 0.2432(7)
H104? H 0.1483 0.3693 0.2677
H105? H 0.0653 0.3665 0.2332
H106? H 0.1473 0.4400 0.2416
C82? C 0.375(2) 0.3967(16) 0.2316(7)
H107? H 0.4037 0.3843 0.2552
H108? H 0.3575 0.4511 0.2302
H109? H 0.4404 0.3837 0.2149
C83? C 0.286(2) 0.2680(8) 0.2348(6)
H110? H 0.3695 0.2551 0.2266
H111? H 0.2261 0.2322 0.2250
H112? H 0.2837 0.2652 0.2602
C84? C 0.3644(14) 0.7450(11) 0.2197(4)
H113? H 0.3345 0.7717 0.2404
H114? H 0.4411 0.7688 0.2116
H115? H 0.3804 0.6918 0.2255
C85? C 0.1381(13) 0.7302(10) 0.2096(4)
H116? H 0.1452 0.6814 0.2216
H117? H 0.0719 0.7273 0.1922
H118? H 0.1186 0.7700 0.2265
C86? C 0.253(2) 0.8259(7) 0.1729(4)
H119? H 0.2241 0.8638 0.1896
H120? H 0.1940 0.8218 0.1537
H121? H 0.3342 0.8413 0.1638
loop_
_geom_bond_atom_site_label_1
_geom_bond_atom_site_label_2
_geom_bond_site_symmetry_1
_geom_bond_site_symmetry_2
C1 C2 1_555 1_555
C2 C3 1_555 1_555
C3 H1 1_555 1_555
C4 C3 1_555 1_555
C5 C4 1_555 1_555
H2 C5 1_555 1_555
C6 C1 1_555 1_555
C7 C6 1_555 1_555
H3 C7 1_555 1_555
H4 C7 1_555 1_555
C8 C7 1_555 1_555
C9 C8 1_555 1_555
C10 C9 1_555 1_555
C11 C10 1_555 1_555
H5 C11 1_555 1_555
C12 C11 1_555 1_555
C13 C8 1_555 1_555
H6 C13 1_555 1_555
C14 C10 1_555 1_555
H7 C14 1_555 1_555
H8 C14 1_555 1_555
C15 C14 1_555 1_555
C16 C15 1_555 1_555
C17 C16 1_555 1_555
C18 C17 1_555 1_555
H9 C18 1_555 1_555
C19 C18 1_555 1_555
C20 C15 1_555 1_555
H10 C20 1_555 1_555
C21 C17 1_555 1_555
H11 C21 1_555 1_555
H12 C21 1_555 1_555
C22 C21 1_555 1_555
C23 C22 1_555 1_555
C24 C23 1_555 1_555
C25 C24 1_555 1_555
H13 C25 1_555 1_555
C26 C25 1_555 1_555
C27 C22 1_555 1_555
H14 C27 1_555 1_555
C28 C2 1_555 1_555
H15 C28 1_555 1_555
H16 C28 1_555 1_555
C29 H17 1_555 1_555
H18 C29 1_555 1_555
C30 C29 1_555 1_555
H19 C30 1_555 1_555
H20 C30 1_555 1_555
C31 C32 1_555 1_555
C32 H21 1_555 1_555
C33 C32 1_555 1_555
H22 C33 1_555 1_555
C34 C33 1_555 1_555
C35 C34 1_555 1_555
C36 C31 1_555 1_555
C37 C35 1_555 1_555
H23 C37 1_555 1_555
C38 C37 1_555 1_555
H24 C38 1_555 1_555
C39 C38 1_555 1_555
H25 C39 1_555 1_555
C40 C34 1_555 1_555
H26 C40 1_555 1_555
C41 C36 1_555 1_555
C42 C41 1_555 1_555
C43 C42 1_555 1_555
H27 C43 1_555 1_555
C44 C43 1_555 1_555
H28 C44 1_555 1_555
C45 C44 1_555 1_555
C46 C41 1_555 1_555
C47 C46 1_555 1_555
H29 C47 1_555 1_555
C48 C47 1_555 1_555
H30 C48 1_555 1_555
C49 C48 1_555 1_555
H31 C49 1_555 1_555
C50 C45 1_555 1_555
H32 C50 1_555 1_555
C51 H33 1_555 1_555
H34 C51 1_555 1_555
C52 C51 1_555 1_555
H35 C52 1_555 1_555
H36 C52 1_555 1_555
C53 C4 1_555 1_555
C54 C53 1_555 1_555
H37 C54 1_555 1_555
H38 C54 1_555 1_555
H39 C54 1_555 1_555
C55 C53 1_555 1_555
H40 C55 1_555 1_555
H41 C55 1_555 1_555
H42 C55 1_555 1_555
C56 C53 1_555 1_555
H43 C56 1_555 1_555
H44 C56 1_555 1_555
H45 C56 1_555 1_555
C57 H46 1_555 1_555
H47 C57 1_555 1_555
H48 C57 1_555 1_555
C58 H49 1_555 1_555
H50 C58 1_555 1_555
H51 C58 1_555 1_555
C59 H52 1_555 1_555
H53 C59 1_555 1_555
H54 C59 1_555 1_555
C60 H55 1_555 1_555
H56 C60 1_555 1_555
H57 C60 1_555 1_555
C61 H58 1_555 1_555
H59 C61 1_555 1_555
H60 C61 1_555 1_555
C62 H61 1_555 1_555
H62 C62 1_555 1_555
H63 C62 1_555 1_555
C63 C26 1_555 1_555
C64 H64 1_555 1_555
H65 C64 1_555 1_555
C65 C64 1_555 1_555
C66 H66 1_555 1_555
H67 C66 1_555 1_555
C67 C66 1_555 1_555
H68 C67 1_555 1_555
H69 C67 1_555 1_555
H70 C67 1_555 1_555
C68 H71 1_555 1_555
H72 C68 1_555 1_555
C69 C68 1_555 1_555
H73 C69 1_555 1_555
H74 C69 1_555 1_555
H75 C69 1_555 1_555
C70 C19 1_555 1_555
C71 C12 1_555 1_555
C72 C63 1_555 1_555
H76 C72 1_555 1_555
H77 C72 1_555 1_555
H78 C72 1_555 1_555
C73 C63 1_555 1_555
H79 C73 1_555 1_555
H80 C73 1_555 1_555
H81 C73 1_555 1_555
C74 C63 1_555 1_555
H82 C74 1_555 1_555
H83 C74 1_555 1_555
H84 C74 1_555 1_555
N1 C65 1_555 1_555
O1 C1 1_555 1_555
O2 C30 1_555 1_555
O3 C42 1_555 1_555
O4 C9 1_555 1_555
O5 C16 1_555 1_555
O6 C65 1_555 1_555
O7 C23 1_555 1_555
H85 O7 1_555 1_555
C87 H122 1_555 1_555
H123 C87 1_555 1_555
H124 C87 1_555 1_555
C88 C87 1_555 1_555
C89 C88 1_555 1_555
H125 C89 1_555 1_555
H126 C89 1_555 1_555
H127 C89 1_555 1_555
O8 C88 1_555 1_555
C5 C6 1_555 1_555
C12 C13 1_555 1_555
C19 C20 1_555 1_555
C24 C28 1_555 1_555
C26 C27 1_555 1_555
C29 O1 1_555 1_555
C31 O2 1_555 1_555
C35 C36 1_555 1_555
C39 C40 1_555 1_555
C45 C46 1_555 1_555
C49 C50 1_555 1_555
C51 O3 1_555 1_555
C52 O4 1_555 1_555
C57 C70 1_555 1_555
C58 C70 1_555 1_555
C59 C70 1_555 1_555
C60 C71 1_555 1_555
C61 C71 1_555 1_555
C62 C71 1_555 1_555
C64 O5 1_555 1_555
C66 N1 1_555 1_555
C68 N1 1_555 1_555

#END
