
#######################################################################
#
#                 Cambridge Crystallographic Data Centre
#                                CCDC 
#
#######################################################################
#
# If this CIF has been generated from an entry in the Cambridge 
# Structural Database, then it will include bibliographic, chemical, 
# crystal, experimental, refinement or atomic coordinate data resulting 
# from the CCDC's data processing and validation procedures.
#
#######################################################################

data_CAGDOF
_chemical_formula_moiety         'C19 H30 O5'
_chemical_name_systematic        
"(4,5',5',8a-Tetramethyl-8-oxo-octahydro-2H-spiro[azulene-1,2'-[1,3]dioxan]-7-yl)acetic acid"
_symmetry_cell_setting           monoclinic
_symmetry_space_group_name_H-M   'C 2/c'
_symmetry_Int_Tables_number      15
_space_group_name_Hall           '-C 2yn'
loop_
_symmetry_equiv_pos_site_id
_symmetry_equiv_pos_as_xyz
1 x,y,z
2 -x,y,1/2-z
3 1/2+x,1/2+y,z
4 1/2-x,1/2+y,1/2-z
5 -x,-y,-z
6 x,-y,1/2+z
7 1/2-x,1/2-y,-z
8 1/2+x,1/2-y,1/2+z
_cell_length_a                   22.357(5)
_cell_length_b                   10.230(2)
_cell_length_c                   18.278(4)
_cell_angle_alpha                90
_cell_angle_beta                 116.86(3)
_cell_angle_gamma                90
_cell_volume                     3729.39
_chemical_melting_point          '148-149 deg.C'
_cell_formula_units_Z            8
loop_
_atom_site_label
_atom_site_type_symbol
_atom_site_fract_x
_atom_site_fract_y
_atom_site_fract_z
C1 C 0.71955(15) 0.1862(3) 0.8893(2)
C2 C 0.69402(16) 0.1424(3) 0.8021(2)
H1 H 0.6503 0.1812 0.7698
H2 H 0.6883 0.0483 0.7999
C3 C 0.73981(14) 0.1779(3) 0.76352(17)
H3 H 0.7523 0.2702 0.7752
C4 C 0.70165(17) 0.1604(3) 0.66905(19)
H4 H 0.6684 0.0922 0.6574
H5 H 0.6776 0.2408 0.6456
C5 C 0.74310(19) 0.1264(3) 0.62486(19)
H6 H 0.7636 0.0417 0.6445
H7 H 0.7127 0.1169 0.5670
C6 C 0.79801(19) 0.2206(4) 0.63269(18)
H8 H 0.7755 0.3024 0.6069
C7 C 0.84540(15) 0.2542(3) 0.72290(17)
H9 H 0.8217 0.3204 0.7387
C8 C 0.86329(15) 0.1440(3) 0.78738(17)
C9 C 0.80330(15) 0.0970(3) 0.79925(17)
C10 C 0.91344(17) 0.3142(4) 0.7426(2)
H10 H 0.9370 0.2619 0.7196
H11 H 0.9083 0.4023 0.7209
C11 C 0.95115(18) 0.3151(4) 0.8363(2)
H12 H 0.9507 0.4019 0.8574
H13 H 0.9974 0.2882 0.8548
C12 C 0.91397(14) 0.2173(3) 0.86579(17)
C13 C 0.91033(14) 0.3420(3) 0.97468(17)
H14 H 0.8790 0.3786 0.9925
H15 H 0.9375 0.4129 0.9707
C14 C 0.95553(14) 0.2429(3) 1.03825(17)
C15 C 0.99797(14) 0.1827(3) 1.00176(18)
H16 H 1.0265 0.2493 0.9962
H17 H 1.0266 0.1156 1.0383
C16 C 0.99994(18) 0.3135(4) 1.1183(2)
H18 H 1.0272 0.2508 1.1587
H19 H 0.9723 0.3590 1.1376
H20 H 1.0282 0.3749 1.1089
C17 C 0.91435(17) 0.1377(3) 1.0533(2)
H21 H 0.8876 0.1767 1.0764
H22 H 0.9439 0.0739 1.0907
H23 H 0.8856 0.0961 1.0023
C18 C 0.89808(19) 0.0251(3) 0.7714(2)
H24 H 0.8680 -0.0159 0.7208
H25 H 0.9103 -0.0362 0.8156
H26 H 0.9376 0.0535 0.7679
C19 C 0.8341(3) 0.1726(5) 0.5829(2)
H27 H 0.8598 0.0958 0.6084
H28 H 0.8634 0.2399 0.5814
H29 H 0.8015 0.1520 0.5280
O1 O 0.73923(12) 0.2992(2) 0.90964(15)
O2 O 0.71741(13) 0.1020(2) 0.94095(15)
O3 O 0.80628(13) -0.0042(2) 0.83482(15)
O4 O 0.87385(9) 0.28324(17) 0.89590(11)
O5 O 0.95682(9) 0.12672(19) 0.92341(11)
loop_
_geom_bond_atom_site_label_1
_geom_bond_atom_site_label_2
_geom_bond_site_symmetry_1
_geom_bond_site_symmetry_2
C1 C2 1_555 1_555
C2 H1 1_555 1_555
H2 C2 1_555 1_555
C3 C2 1_555 1_555
H3 C3 1_555 1_555
C4 C3 1_555 1_555
H4 C4 1_555 1_555
H5 C4 1_555 1_555
C5 C4 1_555 1_555
H6 C5 1_555 1_555
H7 C5 1_555 1_555
C6 C5 1_555 1_555
H8 C6 1_555 1_555
C7 C6 1_555 1_555
H9 C7 1_555 1_555
C8 C7 1_555 1_555
C9 C3 1_555 1_555
C10 C7 1_555 1_555
H10 C10 1_555 1_555
H11 C10 1_555 1_555
C11 C10 1_555 1_555
H12 C11 1_555 1_555
H13 C11 1_555 1_555
C12 C8 1_555 1_555
C13 H14 1_555 1_555
H15 C13 1_555 1_555
C14 C13 1_555 1_555
C15 C14 1_555 1_555
H16 C15 1_555 1_555
H17 C15 1_555 1_555
C16 C14 1_555 1_555
H18 C16 1_555 1_555
H19 C16 1_555 1_555
H20 C16 1_555 1_555
C17 C14 1_555 1_555
H21 C17 1_555 1_555
H22 C17 1_555 1_555
H23 C17 1_555 1_555
C18 C8 1_555 1_555
H24 C18 1_555 1_555
H25 C18 1_555 1_555
H26 C18 1_555 1_555
C19 C6 1_555 1_555
H27 C19 1_555 1_555
H28 C19 1_555 1_555
H29 C19 1_555 1_555
O1 C1 1_555 1_555
O2 C1 1_555 1_555
O3 C9 1_555 1_555
O4 C12 1_555 1_555
O5 C12 1_555 1_555
C8 C9 1_555 1_555
C11 C12 1_555 1_555
C13 O4 1_555 1_555
C15 O5 1_555 1_555

#END
