
#######################################################################
#
#                 Cambridge Crystallographic Data Centre
#                                CCDC 
#
#######################################################################
#
# If this CIF has been generated from an entry in the Cambridge 
# Structural Database, then it will include bibliographic, chemical, 
# crystal, experimental, refinement or atomic coordinate data resulting 
# from the CCDC's data processing and validation procedures.
#
#######################################################################

data_CAGFUM
_chemical_formula_moiety         'C24 H12 F12,C6 H6'
_chemical_name_systematic        
'2,2,3,3,5,5,6,6,8,8,9,9-Dodecafluoro-1,4,7(1,4)-tribenzena-cyclononaphane benzene solvate'
_symmetry_cell_setting           monoclinic
_symmetry_space_group_name_H-M   'P 21/c'
_symmetry_Int_Tables_number      14
_space_group_name_Hall           '-P 2ybc'
loop_
_symmetry_equiv_pos_site_id
_symmetry_equiv_pos_as_xyz
1 x,y,z
2 x,1/2-y,1/2+z
3 -x,-y,-z
4 -x,1/2+y,1/2-z
_cell_length_a                   15.304(2)
_cell_length_b                   10.339(2)
_cell_length_c                   17.173(2)
_cell_angle_alpha                90
_cell_angle_beta                 94.69(1)
_cell_angle_gamma                90
_cell_volume                     2708.15
_exptl_crystal_colour            colorless
_exptl_crystal_description       prismatic
_cell_formula_units_Z            4
loop_
_atom_site_label
_atom_site_type_symbol
_atom_site_fract_x
_atom_site_fract_y
_atom_site_fract_z
F1 F 0.3863(3) -0.2478(4) 1.2749(2)
F2 F 0.4358(3) -0.1180(4) 1.3701(2)
F3 F 0.5044(2) 0.0360(4) 1.2757(2)
F4 F 0.5344(2) -0.1626(3) 1.2464(2)
F5 F 0.3683(2) -0.0387(4) 0.8705(2)
F6 F 0.3324(2) 0.1522(3) 0.9100(2)
F7 F 0.2251(2) -0.1421(3) 0.9032(2)
F8 F 0.1983(2) 0.0399(3) 0.8425(2)
F9 F -0.0384(2) 0.2186(4) 1.1482(2)
F10 F -0.0183(3) 0.0214(4) 1.2008(3)
F11 F 0.0966(3) 0.3057(4) 1.2130(3)
F12 F 0.0297(2) 0.1873(4) 1.3003(2)
C1 C 0.4004(5) -0.1132(8) 1.2956(4)
C2 C 0.4674(4) -0.0808(7) 1.2401(3)
C3 C 0.4333(3) -0.0544(6) 1.1574(3)
C4 C 0.4147(4) -0.1562(6) 1.1070(4)
C5 C 0.3810(4) -0.1307(6) 1.0307(3)
C6 C 0.3671(3) -0.0054(5) 1.0066(3)
C7 C 0.3886(4) 0.0919(5) 1.0570(4)
C8 C 0.4221(4) 0.0689(6) 1.1321(3)
C9 C 0.3259(4) 0.0241(6) 0.9259(3)
C10 C 0.2288(4) -0.0105(6) 0.9123(3)
C11 C 0.1719(3) 0.0304(6) 0.9752(3)
C12 C 0.1570(4) 0.1582(6) 0.9890(3)
C13 C 0.1098(4) 0.1954(6) 1.0502(4)
C14 C 0.0760(3) 0.1042(7) 1.0980(3)
C15 C 0.0897(4) -0.0225(7) 1.0829(3)
C16 C 0.1370(4) -0.0613(5) 1.0213(3)
C17 C 0.0277(5) 0.1409(9) 1.1676(4)
C18 C 0.0755(5) 0.1658(10) 1.2394(4)
C19 C 0.1586(4) 0.0939(8) 1.2622(3)
C20 C 0.1600(5) -0.0384(10) 1.2682(4)
C21 C 0.2375(6) -0.1044(6) 1.2802(4)
C22 C 0.3160(4) -0.0394(7) 1.2899(3)
C23 C 0.3138(4) 0.0922(7) 1.2898(4)
C24 C 0.2362(5) 0.1578(6) 1.2744(3)
H1 H 0.4138 -0.2438 1.1217
H2 H 0.3629 -0.1893 0.9926
H3 H 0.3827 0.1798 1.0457
H4 H 0.4411 0.1404 1.1646
H5 H 0.1793 0.2222 0.9559
H6 H 0.1050 0.2816 1.0548
H7 H 0.0668 -0.0806 1.1113
H8 H 0.1419 -0.1604 1.0109
H9 H 0.1102 -0.0758 1.2605
H10 H 0.2342 -0.1787 1.2785
H11 H 0.3649 0.1385 1.3019
H12 H 0.2348 0.2486 1.2781
C25 C 0.745(1) 0.012(1) 0.4935(9)
C26 C 0.832(1) 0.053(1) 0.4956(7)
C27 C 0.8708(6) 0.0771(8) 0.4289(9)
C28 C 0.8252(9) 0.0648(8) 0.3618(6)
C29 C 0.7421(9) 0.0263(10) 0.3558(5)
C30 C 0.7011(7) -0.002(1) 0.4203(10)
H13 H 0.7140 -0.0112 0.5381
H14 H 0.9303 0.1035 0.4320
H15 H 0.8521 0.0838 0.3160
H16 H 0.8614 0.0646 0.5454
H17 H 0.7114 0.0206 0.3064
H18 H 0.6404 -0.0328 0.4146
loop_
_geom_bond_atom_site_label_1
_geom_bond_atom_site_label_2
_geom_bond_site_symmetry_1
_geom_bond_site_symmetry_2
F1 C1 1_555 1_555
F2 C1 1_555 1_555
F3 C2 1_555 1_555
F4 C2 1_555 1_555
F5 C9 1_555 1_555
F6 C9 1_555 1_555
F7 C10 1_555 1_555
F8 C10 1_555 1_555
F9 C17 1_555 1_555
F10 C17 1_555 1_555
F11 C18 1_555 1_555
F12 C18 1_555 1_555
C1 C2 1_555 1_555
C2 C3 1_555 1_555
C3 C4 1_555 1_555
C4 C5 1_555 1_555
C5 C6 1_555 1_555
C6 C7 1_555 1_555
C7 C8 1_555 1_555
C8 C3 1_555 1_555
C9 C6 1_555 1_555
C10 C9 1_555 1_555
C11 C10 1_555 1_555
C12 C11 1_555 1_555
C13 C12 1_555 1_555
C14 C13 1_555 1_555
C15 C14 1_555 1_555
C16 C11 1_555 1_555
C17 C14 1_555 1_555
C18 C17 1_555 1_555
C19 C18 1_555 1_555
C20 C19 1_555 1_555
C21 C20 1_555 1_555
C22 C1 1_555 1_555
C23 C22 1_555 1_555
C24 C19 1_555 1_555
C25 C26 1_555 1_555
C26 C27 1_555 1_555
C27 C28 1_555 1_555
C28 C29 1_555 1_555
C29 C30 1_555 1_555
C30 C25 1_555 1_555
H1 C4 1_555 1_555
H2 C5 1_555 1_555
H3 C7 1_555 1_555
H4 C8 1_555 1_555
H5 C12 1_555 1_555
H6 C13 1_555 1_555
H7 C15 1_555 1_555
H8 C16 1_555 1_555
H9 C20 1_555 1_555
H10 C21 1_555 1_555
H11 C23 1_555 1_555
H12 C24 1_555 1_555
H13 C25 1_555 1_555
H14 C27 1_555 1_555
H15 C28 1_555 1_555
H16 C26 1_555 1_555
H17 C29 1_555 1_555
H18 C30 1_555 1_555
C15 C16 1_555 1_555
C21 C22 1_555 1_555
C23 C24 1_555 1_555

#END
