
#######################################################################
#
#                 Cambridge Crystallographic Data Centre
#                                CCDC 
#
#######################################################################
#
# If this CIF has been generated from an entry in the Cambridge 
# Structural Database, then it will include bibliographic, chemical, 
# crystal, experimental, refinement or atomic coordinate data resulting 
# from the CCDC's data processing and validation procedures.
#
#######################################################################

data_CAGFIA
_chemical_name_common            
'(N-(6-Hydroxy-2-pyridylmethyl)-1-aza-15-crown-5)-rubidium isothiocyanate'
_chemical_formula_moiety         'C16 H26 N2 O5 Rb1 1+,C1 N1 S1 1-'
_chemical_name_systematic        
"(N-(6'-Hydroxy-2'-pyridylmethyl)-1,4,7,10-tetraoxa-13-azacyclopentadecane)-rubidium isothiocyanate"
_symmetry_cell_setting           monoclinic
_symmetry_space_group_name_H-M   'P 21/n'
_symmetry_Int_Tables_number      14
_space_group_name_Hall           '-P 2yn'
loop_
_symmetry_equiv_pos_site_id
_symmetry_equiv_pos_as_xyz
1 x,y,z
2 1/2-x,1/2+y,1/2-z
3 -x,-y,-z
4 1/2+x,1/2-y,1/2+z
_cell_length_a                   13.418(8)
_cell_length_b                   9.053(8)
_cell_length_c                   18.191(6)
_cell_angle_alpha                90
_cell_angle_beta                 102.43(4)
_cell_angle_gamma                90
_cell_volume                     2157.92
_exptl_crystal_colour            colorless
_exptl_crystal_description       prismatic
_cell_formula_units_Z            4
_exptl_crystal_recrystallization_method acetonitrile
loop_
_atom_site_label
_atom_site_type_symbol
_atom_site_fract_x
_atom_site_fract_y
_atom_site_fract_z
Rb1 Rb 0.31226(8) 0.4273(1) 0.53182(6)
O1 O 0.4395(6) 0.6725(9) 0.4992(5)
O2 O 0.4387(8) 0.608(1) 0.6548(5)
O3 O 0.2403(8) 0.535(1) 0.6589(5)
O4 O 0.1238(5) 0.6019(9) 0.5153(5)
O5 O 0.0545(5) 0.4600(7) 0.2211(4)
N1 N 0.2338(7) 0.6279(9) 0.3933(5)
N2 N 0.2349(7) 0.298(1) 0.3758(5)
C1 C 0.2989(9) 0.760(1) 0.3982(6)
C2 C 0.408(1) 0.731(1) 0.4249(9)
C3 C 0.469(1) 0.770(2) 0.555(1)
C4 C 0.4969(10) 0.715(2) 0.6278(9)
C5 C 0.388(2) 0.656(3) 0.704(1)
C6 C 0.296(2) 0.641(3) 0.7056(9)
C7 C 0.134(1) 0.541(2) 0.6416(9)
C8 C 0.092(1) 0.636(2) 0.582(1)
C9 C 0.1057(8) 0.719(1) 0.4636(8)
C10 C 0.1278(8) 0.670(1) 0.3914(6)
C11 C 0.2373(7) 0.543(1) 0.3244(6)
C12 C 0.1880(9) 0.394(1) 0.3240(6)
C13 C 0.0960(9) 0.357(1) 0.2722(6)
C14 C 0.0550(9) 0.219(1) 0.2760(6)
C15 C 0.103(1) 0.122(1) 0.3300(8)
C16 C 0.193(1) 0.169(2) 0.3766(7)
H1 H 0.2850 0.8146 0.3506
H2 H 0.2769 0.8330 0.4338
H3 H 0.4462 0.8232 0.4208
H4 H 0.4270 0.6633 0.3904
H5 H 0.5342 0.8261 0.5493
H6 H 0.4233 0.8488 0.5591
H7 H 0.5051 0.8025 0.6634
H8 H 0.5679 0.6799 0.6346
H9 H 0.4297 0.6393 0.7547
H10 H 0.3966 0.7739 0.7023
H11 H 0.2676 0.7395 0.6994
H12 H 0.3019 0.6182 0.7598
H13 H 0.1133 0.4306 0.6232
H14 H 0.1061 0.5398 0.6876
H15 H 0.1232 0.7326 0.6057
H16 H 0.0219 0.6458 0.5806
H17 H 0.0346 0.7542 0.4520
H18 H 0.1475 0.8039 0.4771
H19 H 0.1072 0.7470 0.3504
H20 H 0.0824 0.5866 0.3707
H21 H 0.2059 0.6002 0.2798
H22 H 0.3106 0.5378 0.3214
H23 H -0.0086 0.1880 0.2418
H24 H 0.0818 0.0186 0.3364
H25 H 0.2295 0.0964 0.4187
H26 H 0.0234 0.5628 0.2361
S1 S 0.1690(3) 0.0933(4) 0.5755(2)
N3 N 0.3749(8) 0.116(1) 0.6331(6)
C17 C 0.2898(10) 0.104(1) 0.6104(6)
loop_
_geom_bond_atom_site_label_1
_geom_bond_atom_site_label_2
_geom_bond_site_symmetry_1
_geom_bond_site_symmetry_2
Rb1 O1 1_555 1_555
O1 C2 1_555 1_555
O2 Rb1 1_555 1_555
O3 Rb1 1_555 1_555
O4 Rb1 1_555 1_555
O5 C13 1_555 1_555
N1 Rb1 1_555 1_555
N2 Rb1 1_555 1_555
C1 N1 1_555 1_555
C2 C1 1_555 1_555
C3 O1 1_555 1_555
C4 O2 1_555 1_555
C5 O2 1_555 1_555
C6 O3 1_555 1_555
C7 O3 1_555 1_555
C8 O4 1_555 1_555
C9 O4 1_555 1_555
C10 N1 1_555 1_555
C11 N1 1_555 1_555
C12 N2 1_555 1_555
C13 C12 1_555 1_555
C14 C13 1_555 1_555
C15 C14 1_555 1_555
C16 N2 1_555 1_555
H1 C1 1_555 1_555
H2 C1 1_555 1_555
H3 C2 1_555 1_555
H4 C2 1_555 1_555
H5 C3 1_555 1_555
H6 C3 1_555 1_555
H7 C4 1_555 1_555
H8 C4 1_555 1_555
H9 C5 1_555 1_555
H10 C5 1_555 1_555
H11 C6 1_555 1_555
H12 C6 1_555 1_555
H13 C7 1_555 1_555
H14 C7 1_555 1_555
H15 C8 1_555 1_555
H16 C8 1_555 1_555
H17 C9 1_555 1_555
H18 C9 1_555 1_555
H19 C10 1_555 1_555
H20 C10 1_555 1_555
H21 C11 1_555 1_555
H22 C11 1_555 1_555
H23 C14 1_555 1_555
H24 C15 1_555 1_555
H25 C16 1_555 1_555
H26 O5 1_555 1_555
S1 C17 1_555 1_555
N3 C17 1_555 1_555
C3 C4 1_555 1_555
C5 C6 1_555 1_555
C7 C8 1_555 1_555
C9 C10 1_555 1_555
C11 C12 1_555 1_555
C15 C16 1_555 1_555

#END
