
#######################################################################
#
#                 Cambridge Crystallographic Data Centre
#                                CCDC 
#
#######################################################################
#
# If this CIF has been generated from an entry in the Cambridge 
# Structural Database, then it will include bibliographic, chemical, 
# crystal, experimental, refinement or atomic coordinate data resulting 
# from the CCDC's data processing and validation procedures.
#
#######################################################################

data_CAGGUN
_chemical_formula_moiety         'C11 H8 N4 O1'
_chemical_name_systematic        1-(2-Pyridyl)benzotriazole-3-N-oxide
_symmetry_cell_setting           orthorhombic
_symmetry_space_group_name_H-M   'P c a 21'
_symmetry_Int_Tables_number      29
_space_group_name_Hall           'P 2c -2ac'
loop_
_symmetry_equiv_pos_site_id
_symmetry_equiv_pos_as_xyz
1 x,y,z
2 -x,-y,1/2+z
3 1/2+x,-y,z
4 1/2-x,y,1/2+z
_cell_length_a                   7.312(4)
_cell_length_b                   12.442(7)
_cell_length_c                   21.003(12)
_cell_angle_alpha                90
_cell_angle_beta                 90
_cell_angle_gamma                90
_cell_volume                     1910.77
_exptl_crystal_colour            white
_exptl_crystal_description       microprisms
_chemical_melting_point          172-173deg.C
_cell_formula_units_Z            8
_exptl_crystal_recrystallization_method 'ethyl acetate'
loop_
_atom_site_label
_atom_site_type_symbol
_atom_site_fract_x
_atom_site_fract_y
_atom_site_fract_z
N1 N 0.1421(6) 0.5465(3) 0.0100(2)
N2 N 0.1374(6) 0.6555(3) 0.0047(2)
N3 N 0.0723(6) 0.6741(4) -0.0527(2)
C1 C 0.0328(8) 0.5813(5) -0.0836(3)
C2 C -0.0361(9) 0.5663(6) -0.1467(3)
H1 H -0.0634 0.6250 -0.1740
C3 C -0.0600(10) 0.4626(6) -0.1651(4)
H2 H -0.1056 0.4488 -0.2067
C4 C -0.0199(7) 0.3743(5) -0.1251(3)
H3 H -0.0426 0.3034 -0.1399
C5 C 0.0525(7) 0.3898(5) -0.0643(3)
H4 H 0.0810 0.3316 -0.0368
C6 C 0.0801(9) 0.4966(4) -0.0467(4)
O1 O 0.0472(6) 0.7713(3) -0.07309(19)
N4 N 0.2174(7) 0.3935(3) 0.0666(2)
C7 C 0.2096(11) 0.4992(4) 0.0652(4)
C8 C 0.2594(7) 0.5651(4) 0.1192(3)
H5 H 0.2494 0.6412 0.1182
C9 C 0.3234(11) 0.5107(5) 0.1733(5)
H6 H 0.3586 0.5503 0.2100
C10 C 0.3354(8) 0.4016(5) 0.1736(3)
H7 H 0.3797 0.3647 0.2101
C11 C 0.2820(8) 0.3454(4) 0.1201(3)
H8 H 0.2908 0.2692 0.1207
N5 N 0.1079(6) 0.9528(3) 0.1661(2)
N6 N 0.1212(6) 0.8433(3) 0.1709(2)
N7 N 0.1917(7) 0.8265(4) 0.2283(2)
C12 C 0.2202(8) 0.9194(5) 0.2624(3)
C13 C 0.2935(9) 0.9392(5) 0.3240(4)
H9 H 0.3308 0.8829 0.3517
C14 C 0.3063(9) 1.0449(5) 0.3402(3)
H10 H 0.3551 1.0626 0.3808
C15 C 0.2512(7) 1.1286(5) 0.3003(3)
H11 H 0.2633 1.2004 0.3151
C16 C 0.1821(9) 1.1121(5) 0.2421(3)
H12 H 0.1432 1.1708 0.2166
C17 C 0.1679(10) 1.0038(4) 0.2190(4)
O2 O 0.2227(6) 0.7313(3) 0.2493(2)
N8 N 0.0239(6) 1.1046(3) 0.1084(2)
C18 C 0.0398(11) 0.9985(4) 0.1057(4)
C19 C -0.0046(8) 0.9314(5) 0.0570(3)
H13 H 0.0076 0.8556 0.0596
C20 C -0.0693(11) 0.9834(6) 0.0031(5)
H14 H -0.1017 0.9422 -0.0333
C21 C -0.0873(7) 1.0924(5) 0.0011(3)
H15 H -0.1311 1.1277 -0.0360
C22 C -0.0392(8) 1.1502(5) 0.0553(3)
H16 H -0.0521 1.2262 0.0545
loop_
_geom_bond_atom_site_label_1
_geom_bond_atom_site_label_2
_geom_bond_site_symmetry_1
_geom_bond_site_symmetry_2
N1 N2 1_555 1_555
N2 N3 1_555 1_555
N3 C1 1_555 1_555
C1 C2 1_555 1_555
C2 H1 1_555 1_555
C3 C2 1_555 1_555
H2 C3 1_555 1_555
C4 C3 1_555 1_555
H3 C4 1_555 1_555
C5 C4 1_555 1_555
H4 C5 1_555 1_555
C6 N1 1_555 1_555
O1 N3 1_555 1_555
N4 C7 1_555 1_555
C7 N1 1_555 1_555
C8 C7 1_555 1_555
H5 C8 1_555 1_555
C9 C8 1_555 1_555
H6 C9 1_555 1_555
C10 C9 1_555 1_555
H7 C10 1_555 1_555
C11 N4 1_555 1_555
H8 C11 1_555 1_555
N5 N6 1_555 1_555
N6 N7 1_555 1_555
N7 C12 1_555 1_555
C12 C13 1_555 1_555
C13 H9 1_555 1_555
C14 C13 1_555 1_555
H10 C14 1_555 1_555
C15 C14 1_555 1_555
H11 C15 1_555 1_555
C16 C15 1_555 1_555
H12 C16 1_555 1_555
C17 N5 1_555 1_555
O2 N7 1_555 1_555
N8 C18 1_555 1_555
C18 N5 1_555 1_555
C19 C18 1_555 1_555
H13 C19 1_555 1_555
C20 C19 1_555 1_555
H14 C20 1_555 1_555
C21 C20 1_555 1_555
H15 C21 1_555 1_555
C22 N8 1_555 1_555
H16 C22 1_555 1_555
C1 C6 1_555 1_555
C5 C6 1_555 1_555
C10 C11 1_555 1_555
C12 C17 1_555 1_555
C16 C17 1_555 1_555
C21 C22 1_555 1_555

#END
