
#######################################################################
#
#                 Cambridge Crystallographic Data Centre
#                                CCDC 
#
#######################################################################
#
# If this CIF has been generated from an entry in the Cambridge 
# Structural Database, then it will include bibliographic, chemical, 
# crystal, experimental, refinement or atomic coordinate data resulting 
# from the CCDC's data processing and validation procedures.
#
#######################################################################

data_CAGGIB
_chemical_formula_moiety         'C12 H10 N4 O1'
_chemical_name_systematic        
2-(Benzotriazol-1-yl)-4-methylpyridine-N-oxide
_symmetry_cell_setting           orthorhombic
_symmetry_space_group_name_H-M   'P 21 21 21'
_symmetry_Int_Tables_number      19
_space_group_name_Hall           'P 2ac 2ab'
loop_
_symmetry_equiv_pos_site_id
_symmetry_equiv_pos_as_xyz
1 x,y,z
2 1/2-x,-y,1/2+z
3 -x,1/2+y,1/2-z
4 1/2+x,1/2-y,-z
_cell_length_a                   7.592(6)
_cell_length_b                   11.741(9)
_cell_length_c                   12.236(9)
_cell_angle_alpha                90
_cell_angle_beta                 90
_cell_angle_gamma                90
_cell_volume                     1090.69
_exptl_crystal_colour            white
_exptl_crystal_description       needles
_chemical_melting_point          182deg.C
_cell_formula_units_Z            4
_exptl_crystal_recrystallization_method 'ethyl acetate/acetone'
loop_
_atom_site_label
_atom_site_type_symbol
_atom_site_fract_x
_atom_site_fract_y
_atom_site_fract_z
O1 O 0.1951(5) 0.5788(3) 0.0775(3)
N1 N 0.2572(6) 0.6135(3) -0.0169(3)
C1 C 0.3164(8) 0.7212(4) -0.0309(4)
C2 C 0.3779(7) 0.7586(4) -0.1318(4)
H1 H 0.4211 0.8342 -0.1391
C3 C 0.3769(7) 0.6851(5) -0.2239(4)
C4 C 0.3174(8) 0.5725(5) -0.2035(4)
H2 H 0.3173 0.5187 -0.2616
C5 C 0.2607(8) 0.5396(5) -0.1032(4)
H3 H 0.2224 0.4634 -0.0927
C6 C 0.4405(9) 0.7234(6) -0.3333(5)
H4 H 0.5625 0.7500 -0.3272
H5 H 0.3659 0.7857 -0.3596
H6 H 0.4349 0.6596 -0.3849
N2 N 0.3050(6) 0.7981(3) 0.0569(3)
N3 N 0.2371(6) 0.9067(4) 0.0357(4)
N4 N 0.2461(6) 0.9668(4) 0.1249(4)
C7 C 0.3173(8) 0.9001(4) 0.2075(4)
C8 C 0.3542(9) 0.9272(5) 0.3166(4)
H7 H 0.3268 0.9997 0.3466
C9 C 0.4308(9) 0.8445(5) 0.3766(5)
H8 H 0.4568 0.8609 0.4509
C10 C 0.4748(8) 0.7358(5) 0.3372(4)
H9 H 0.5314 0.6823 0.3836
C11 C 0.4347(7) 0.7067(5) 0.2287(5)
H10 H 0.4579 0.6329 0.2004
C12 C 0.3586(7) 0.7926(4) 0.1644(4)
loop_
_geom_bond_atom_site_label_1
_geom_bond_atom_site_label_2
_geom_bond_site_symmetry_1
_geom_bond_site_symmetry_2
O1 N1 1_555 1_555
N1 C1 1_555 1_555
C1 C2 1_555 1_555
C2 H1 1_555 1_555
C3 C2 1_555 1_555
C4 C3 1_555 1_555
H2 C4 1_555 1_555
C5 N1 1_555 1_555
H3 C5 1_555 1_555
C6 C3 1_555 1_555
H4 C6 1_555 1_555
H5 C6 1_555 1_555
H6 C6 1_555 1_555
N2 C1 1_555 1_555
N3 N2 1_555 1_555
N4 N3 1_555 1_555
C7 N4 1_555 1_555
C8 C7 1_555 1_555
H7 C8 1_555 1_555
C9 C8 1_555 1_555
H8 C9 1_555 1_555
C10 C9 1_555 1_555
H9 C10 1_555 1_555
C11 C10 1_555 1_555
H10 C11 1_555 1_555
C12 N2 1_555 1_555
C4 C5 1_555 1_555
C7 C12 1_555 1_555
C11 C12 1_555 1_555

#END
