
#######################################################################
#
#                 Cambridge Crystallographic Data Centre
#                                CCDC 
#
#######################################################################
#
# If this CIF has been generated from an entry in the Cambridge 
# Structural Database, then it will include bibliographic, chemical, 
# crystal, experimental, refinement or atomic coordinate data resulting 
# from the CCDC's data processing and validation procedures.
#
#######################################################################

data_CAGTOU
_chemical_formula_moiety         'C19 H26 N3 O7 P1'
_chemical_name_systematic        
'N-(1-Ethoxycarbonylethyl) 1-(ethoxycarbonylmethyl)-3-ethyl-1,2,3,4-tetrahydro-4-oxo-1,3,2-benzodiazaphosphorine-2-carboxamide 2-oxide'
_symmetry_cell_setting           triclinic
_symmetry_space_group_name_H-M   'P -1'
_symmetry_Int_Tables_number      2
_space_group_name_Hall           '-P 1'
loop_
_symmetry_equiv_pos_site_id
_symmetry_equiv_pos_as_xyz
1 x,y,z
2 -x,-y,-z
_cell_length_a                   8.955(2)
_cell_length_b                   11.863(2)
_cell_length_c                   12.309(2)
_cell_angle_alpha                62.67(3)
_cell_angle_beta                 68.10(3)
_cell_angle_gamma                78.07(3)
_cell_volume                     1076.83
_exptl_crystal_colour            colorless
_chemical_melting_point          '138-140 deg.C'
_cell_formula_units_Z            2
loop_
_atom_site_label
_atom_site_type_symbol
_atom_site_fract_x
_atom_site_fract_y
_atom_site_fract_z
P1 P 0.0630(4) 0.8032(3) 0.4413(3)
C1 C 0.1792(11) 0.5691(9) 0.5120(10)
C2 C 0.2587(12) 0.4704(9) 0.5955(10)
C3 C 0.3573(12) 0.3867(10) 0.5504(11)
C4 C 0.3772(12) 0.3925(10) 0.4366(11)
C5 C 0.2982(12) 0.4843(10) 0.3557(11)
C6 C 0.1941(11) 0.5744(9) 0.3970(9)
C7 C 0.1100(12) 0.6694(9) 0.3058(10)
O1 O 0.1077(9) 0.6582(7) 0.2138(8)
N1 N 0.0350(9) 0.7704(7) 0.3351(8)
C8 C -0.0523(13) 0.8673(10) 0.2461(10)
C9 C 0.0486(13) 0.9759(11) 0.1428(11)
O2 O -0.0633(8) 0.8797(7) 0.4921(7)
C10 C 0.2594(10) 0.8731(9) 0.3633(9)
O3 O 0.3701(8) 0.8237(6) 0.3056(7)
N2 N 0.2697(9) 0.9797(7) 0.3727(7)
C11 C 0.4318(12) 1.0318(10) 0.3167(10)
C12 C 0.4335(15) 1.1287(12) 0.3575(13)
C13 C 0.5030(13) 1.0736(11) 0.1801(12)
O4 O 0.6491(11) 1.0685(9) 0.1240(9)
O5 O 0.4048(9) 1.1266(7) 0.1132(8)
C14 C 0.4697(14) 1.1804(12) -0.0283(11)
C15 C 0.3434(15) 1.2503(13) -0.0819(13)
N3 N 0.0778(10) 0.6598(7) 0.5567(8)
C16 C 0.0186(11) 0.6371(9) 0.6888(9)
C17 C 0.1243(12) 0.6781(9) 0.7334(9)
O6 O 0.2390(9) 0.7412(7) 0.6624(7)
O7 O 0.0674(9) 0.6374(7) 0.8593(7)
C18 C 0.1476(13) 0.6752(11) 0.9221(11)
C19 C 0.2830(14) 0.5860(12) 0.9472(12)
loop_
_geom_bond_atom_site_label_1
_geom_bond_atom_site_label_2
_geom_bond_site_symmetry_1
_geom_bond_site_symmetry_2
P1 N1 1_555 1_555
C1 C2 1_555 1_555
C2 C3 1_555 1_555
C3 C4 1_555 1_555
C4 C5 1_555 1_555
C5 C6 1_555 1_555
C6 C1 1_555 1_555
C7 C6 1_555 1_555
O1 C7 1_555 1_555
N1 C7 1_555 1_555
C8 N1 1_555 1_555
C9 C8 1_555 1_555
O2 P1 1_555 1_555
C10 P1 1_555 1_555
O3 C10 1_555 1_555
N2 C10 1_555 1_555
C11 N2 1_555 1_555
C12 C11 1_555 1_555
C13 C11 1_555 1_555
O4 C13 1_555 1_555
O5 C13 1_555 1_555
C14 O5 1_555 1_555
C15 C14 1_555 1_555
N3 P1 1_555 1_555
C16 N3 1_555 1_555
C17 C16 1_555 1_555
O6 C17 1_555 1_555
O7 C17 1_555 1_555
C18 O7 1_555 1_555
C19 C18 1_555 1_555
C1 N3 1_555 1_555

#END
