
#######################################################################
#
#                 Cambridge Crystallographic Data Centre
#                                CCDC 
#
#######################################################################
#
# If this CIF has been generated from an entry in the Cambridge 
# Structural Database, then it will include bibliographic, chemical, 
# crystal, experimental, refinement or atomic coordinate data resulting 
# from the CCDC's data processing and validation procedures.
#
#######################################################################

data_CAGXUG
_chemical_formula_moiety         'C14 H6 Br2 F4'
_chemical_name_systematic        
1,1'-ethene-1,2-diylbis(4-bromo-2,6-difluorobenzene)
_symmetry_cell_setting           monoclinic
_symmetry_space_group_name_H-M   'P 21/c'
_symmetry_Int_Tables_number      14
_space_group_name_Hall           '-P 2ybc'
loop_
_symmetry_equiv_pos_site_id
_symmetry_equiv_pos_as_xyz
1 x,y,z
2 -x,1/2+y,1/2-z
3 -x,-y,-z
4 x,1/2-y,1/2+z
_cell_length_a                   10.453(4)
_cell_length_b                   4.7776(16)
_cell_length_c                   12.787(5)
_cell_angle_alpha                90
_cell_angle_beta                 91.545(6)
_cell_angle_gamma                90
_cell_volume                     638.354
_exptl_crystal_colour            colorless
_exptl_crystal_description       plate
_cell_formula_units_Z            2
loop_
_atom_site_label
_atom_site_type_symbol
_atom_site_fract_x
_atom_site_fract_y
_atom_site_fract_z
Br1 Br 0.92851(3) 0.06046(6) 0.65830(2)
F1 F 0.73966(17) 0.6955(4) 0.36443(12)
F2 F 0.53311(17) 0.6958(4) 0.68697(12)
C1 C 0.8085(2) 0.3194(6) 0.60195(19)
C2 C 0.8180(3) 0.4109(6) 0.4995(2)
H1 H 0.8815 0.3439 0.4566
C3 C 0.7302(3) 0.6036(6) 0.46404(18)
C4 C 0.6306(2) 0.7172(5) 0.52247(18)
C5 C 0.6278(3) 0.6086(5) 0.62397(18)
C6 C 0.7117(3) 0.4148(6) 0.66532(19)
H2 H 0.7041 0.3495 0.7334
C7 C 0.5435(3) 0.9228(5) 0.47540(19)
H3 H 0.5490 0.9497 0.4036
Br1B Br 0.07149(3) 1.93954(6) 0.34170(2)
F1B F 0.26034(17) 1.3045(4) 0.63557(12)
F2B F 0.46689(17) 1.3042(4) 0.31303(12)
C1B C 0.1915(2) 1.6806(6) 0.39805(19)
C2B C 0.1820(3) 1.5891(6) 0.5005(2)
H1B H 0.1185 1.6561 0.5434
C3B C 0.2698(3) 1.3964(6) 0.53596(18)
C4B C 0.3694(2) 1.2828(5) 0.47753(18)
C5B C 0.3722(3) 1.3914(5) 0.37603(18)
C6B C 0.2883(3) 1.5852(6) 0.33468(19)
H2B H 0.2959 1.6505 0.2666
C7B C 0.4565(3) 1.0772(5) 0.52460(19)
H3B H 0.4510 1.0503 0.5964
loop_
_geom_bond_atom_site_label_1
_geom_bond_atom_site_label_2
_geom_bond_site_symmetry_1
_geom_bond_site_symmetry_2
Br1 C1 1_555 1_555
F1 C3 1_555 1_555
F2 C5 1_555 1_555
C1 C2 1_555 1_555
C2 H1 1_555 1_555
C3 C2 1_555 1_555
C4 C3 1_555 1_555
C5 C4 1_555 1_555
C6 C1 1_555 1_555
H2 C6 1_555 1_555
C7 C4 1_555 1_555
H3 C7 1_555 1_555
Br1B C1B 1_555 1_555
F1B C3B 1_555 1_555
F2B C5B 1_555 1_555
C1B C2B 1_555 1_555
C2B H1B 1_555 1_555
C3B C2B 1_555 1_555
C4B C3B 1_555 1_555
C5B C4B 1_555 1_555
C6B C1B 1_555 1_555
H2B C6B 1_555 1_555
C7B C7 1_555 1_555
H3B C7B 1_555 1_555
C5 C6 1_555 1_555
C4B C7B 1_555 1_555
C5B C6B 1_555 1_555

#END
