
#######################################################################
#
#                 Cambridge Crystallographic Data Centre
#                                CCDC 
#
#######################################################################
#
# If this CIF has been generated from an entry in the Cambridge 
# Structural Database, then it will include bibliographic, chemical, 
# crystal, experimental, refinement or atomic coordinate data resulting 
# from the CCDC's data processing and validation procedures.
#
#######################################################################

data_CAHCAQ
_chemical_compound_source        'aerial parts of Teucrium integrifolium'
_chemical_name_common            '3beta-hydroxy-fern-9(11)-en-23-oic acid'
_chemical_formula_moiety         'C30 H48 O3'
_chemical_name_systematic        Integrifolin
_symmetry_cell_setting           orthorhombic
_symmetry_space_group_name_H-M   'P 21 21 21'
_symmetry_Int_Tables_number      19
_space_group_name_Hall           'P 2ac 2ab'
loop_
_symmetry_equiv_pos_site_id
_symmetry_equiv_pos_as_xyz
1 x,y,z
2 1/2-x,-y,1/2+z
3 1/2+x,1/2-y,-z
4 -x,1/2+y,1/2-z
_cell_length_a                   10.427(1)
_cell_length_b                   13.424(1)
_cell_length_c                   19.063(1)
_cell_angle_alpha                90
_cell_angle_beta                 90
_cell_angle_gamma                90
_cell_volume                     2668.29
_exptl_crystal_colour            colorless
_exptl_crystal_description       granular
_chemical_melting_point          '315.5-316.5 deg.C'
_cell_formula_units_Z            4
loop_
_atom_site_label
_atom_site_type_symbol
_atom_site_fract_x
_atom_site_fract_y
_atom_site_fract_z
O1 O -0.1127(3) -0.7420(3) -0.9795(1)
O2 O -0.0574(3) -0.7148(2) -1.0898(1)
O3 O -0.3436(3) -0.6910(2) -0.9355(1)
C1 C -0.2098(5) -0.4372(3) -0.9799(2)
C2 C -0.2332(5) -0.5322(3) -0.9374(2)
C3 C -0.3132(4) -0.6065(3) -0.9792(2)
C4 C -0.2493(4) -0.6356(3) -1.0493(1)
C5 C -0.2263(4) -0.5372(3) -1.0906(1)
C6 C -0.1829(4) -0.5504(3) -1.1672(1)
C7 C -0.1673(5) -0.4526(3) -1.2058(2)
C8 C -0.2150(4) -0.3605(3) -1.1651(1)
C9 C -0.1497(4) -0.3589(3) -1.0940(1)
C10 C -0.1457(4) -0.4574(3) -1.0519(1)
C11 C -0.1014(5) -0.2575(3) -1.0675(2)
C12 C -0.1174(5) -0.1730(3) -1.0990(2)
C13 C -0.2269(4) -0.1726(3) -1.1537(1)
C14 C -0.1998(4) -0.2605(3) -1.2051(1)
C15 C -0.2959(4) -0.2554(3) -1.2675(1)
C16 C -0.2916(4) -0.1556(3) -1.3075(1)
C17 C -0.3181(4) -0.0667(3) -1.2592(2)
C18 C -0.2258(4) -0.0750(3) -1.1951(2)
C19 C -0.2427(6) 0.0254(3) -1.1567(2)
C20 C -0.2624(5) 0.1002(3) -1.2181(3)
C21 C -0.2760(4) 0.0379(3) -1.2863(2)
C22 C -0.3415(4) -0.7042(3) -1.0906(2)
C23 C -0.1326(4) -0.7005(3) -1.0350(2)
C24 C -0.0037(4) -0.4902(4) -1.0418(3)
C25 C -0.3543(5) -0.1876(3) -1.1131(2)
C26 C -0.0617(4) -0.2559(3) -1.2359(2)
C27 C -0.4633(4) -0.0628(4) -1.2410(3)
C28 C -0.3564(4) 0.0934(3) -1.3422(3)
C29 C -0.3764(5) 0.0334(4) -1.4094(3)
C30 C -0.2929(6) 0.1945(4) -1.3602(3)
loop_
_geom_bond_atom_site_label_1
_geom_bond_atom_site_label_2
_geom_bond_site_symmetry_1
_geom_bond_site_symmetry_2
O1 C23 1_555 1_555
O2 C23 1_555 1_555
O3 C3 1_555 1_555
C1 C2 1_555 1_555
C2 C3 1_555 1_555
C3 C4 1_555 1_555
C4 C5 1_555 1_555
C5 C6 1_555 1_555
C6 C7 1_555 1_555
C7 C8 1_555 1_555
C8 C9 1_555 1_555
C9 C10 1_555 1_555
C10 C1 1_555 1_555
C11 C9 1_555 1_555
C12 C11 1_555 1_555
C13 C12 1_555 1_555
C14 C8 1_555 1_555
C15 C14 1_555 1_555
C16 C15 1_555 1_555
C17 C16 1_555 1_555
C18 C13 1_555 1_555
C19 C18 1_555 1_555
C20 C19 1_555 1_555
C21 C17 1_555 1_555
C22 C4 1_555 1_555
C23 C4 1_555 1_555
C24 C10 1_555 1_555
C25 C13 1_555 1_555
C26 C14 1_555 1_555
C27 C17 1_555 1_555
C28 C21 1_555 1_555
C29 C28 1_555 1_555
C30 C28 1_555 1_555
C5 C10 1_555 1_555
C13 C14 1_555 1_555
C17 C18 1_555 1_555
C20 C21 1_555 1_555

#END
