
#######################################################################
#
#                 Cambridge Crystallographic Data Centre
#                                CCDC 
#
#######################################################################
#
# If this CIF has been generated from an entry in the Cambridge 
# Structural Database, then it will include bibliographic, chemical, 
# crystal, experimental, refinement or atomic coordinate data resulting 
# from the CCDC's data processing and validation procedures.
#
#######################################################################

data_CAHKUU
_chemical_name_common            (+)-limaspermidine
_chemical_formula_moiety         'C19 H26 N2 O1'
_chemical_name_systematic        (+)-aspidospermidin-21-ol
_symmetry_cell_setting           orthorhombic
_symmetry_space_group_name_H-M   'P 21 21 21'
_symmetry_Int_Tables_number      19
_space_group_name_Hall           'P 2ac 2ab'
loop_
_symmetry_equiv_pos_site_id
_symmetry_equiv_pos_as_xyz
1 x,y,z
2 1/2-x,-y,1/2+z
3 1/2+x,1/2-y,-z
4 -x,1/2+y,1/2-z
_cell_length_a                   7.62594(9)
_cell_length_b                   13.76475(18)
_cell_length_c                   15.17422(18)
_cell_angle_alpha                90
_cell_angle_beta                 90
_cell_angle_gamma                90
_cell_volume                     1592.83
_exptl_crystal_colour            'light yellow'
_exptl_crystal_description       block
_cell_formula_units_Z            4
_exptl_crystal_recrystallization_method 'ethyl acetate/n-hexane'
loop_
_atom_site_label
_atom_site_type_symbol
_atom_site_fract_x
_atom_site_fract_y
_atom_site_fract_z
O1 O -0.22693(17) -0.03583(11) -0.48857(10)
H1 H -0.2859 -0.0164 -0.5302
N1 N 0.5357(2) 0.02677(11) -0.62704(11)
C1 C 0.2512(2) 0.01435(13) -0.54426(11)
N2 N 0.3639(3) -0.27945(12) -0.61127(13)
C2 C 0.1002(3) -0.13722(17) -0.75818(13)
H2 H 0.1028 -0.0741 -0.7800
C3 C 0.3127(3) -0.15793(13) -0.49350(12)
H3 H 0.1908 -0.1757 -0.5021
H4 H 0.3576 -0.1959 -0.4446
C4 C 0.3229(2) -0.05069(14) -0.46989(12)
H5 H 0.4441 -0.0334 -0.4582
H6 H 0.2561 -0.0391 -0.4165
C5 C 0.0539(2) -0.00554(13) -0.56025(13)
H7 H 0.0169 0.0321 -0.6110
H8 H 0.0402 -0.0736 -0.5752
C6 C 0.3529(2) -0.00816(12) -0.62950(12)
H9 H 0.2933 0.0250 -0.6782
C7 C -0.0272(3) -0.29670(19) -0.75483(16)
H10 H -0.1140 -0.3395 -0.7734
C8 C 0.2241(3) -0.26321(14) -0.66822(13)
C9 C 0.2229(2) -0.16723(14) -0.69766(12)
C10 C 0.5449(3) 0.13245(14) -0.61679(15)
H11 H 0.4821 0.1640 -0.6644
H12 H 0.6662 0.1537 -0.6186
C11 C 0.0985(3) -0.32887(16) -0.69657(15)
H13 H 0.0990 -0.3928 -0.6768
C12 C 0.2758(3) 0.12325(14) -0.52237(14)
H14 H 0.2030 0.1612 -0.5619
H15 H 0.2344 0.1348 -0.4628
C13 C 0.3767(2) -0.11534(13) -0.65580(13)
C14 C 0.4639(3) 0.15938(15) -0.52952(17)
H16 H 0.4656 0.2295 -0.5229
H17 H 0.5330 0.1315 -0.4822
C15 C 0.6114(3) -0.00914(15) -0.70970(14)
H18 H 0.7384 -0.0113 -0.7062
H19 H 0.5778 0.0320 -0.7588
C16 C -0.0276(3) -0.2020(2) -0.78654(15)
H20 H -0.1129 -0.1821 -0.8265
C17 C -0.0685(3) 0.01736(16) -0.48450(15)
H21 H -0.0096 0.0029 -0.4294
H22 H -0.0952 0.0863 -0.4850
C18 C 0.5358(3) -0.11078(16) -0.72018(16)
H23 H 0.6225 -0.1595 -0.7049
H24 H 0.4980 -0.1216 -0.7804
C19 C 0.4156(2) -0.18337(13) -0.57630(13)
H25 H 0.5415 -0.1830 -0.5634
H26 H 0.342(3) -0.323(2) -0.5681(18)
loop_
_geom_bond_atom_site_label_1
_geom_bond_atom_site_label_2
_geom_bond_site_symmetry_1
_geom_bond_site_symmetry_2
O1 H1 1_555 1_555
N1 C6 1_555 1_555
C1 C4 1_555 1_555
N2 C8 1_555 1_555
C2 H2 1_555 1_555
C3 H3 1_555 1_555
H4 C3 1_555 1_555
C4 C3 1_555 1_555
H5 C4 1_555 1_555
H6 C4 1_555 1_555
C5 C1 1_555 1_555
H7 C5 1_555 1_555
H8 C5 1_555 1_555
C6 C1 1_555 1_555
H9 C6 1_555 1_555
C7 H10 1_555 1_555
C8 C9 1_555 1_555
C9 C2 1_555 1_555
C10 N1 1_555 1_555
H11 C10 1_555 1_555
H12 C10 1_555 1_555
C11 C7 1_555 1_555
H13 C11 1_555 1_555
C12 C1 1_555 1_555
H14 C12 1_555 1_555
H15 C12 1_555 1_555
C13 C6 1_555 1_555
C14 C10 1_555 1_555
H16 C14 1_555 1_555
H17 C14 1_555 1_555
C15 N1 1_555 1_555
H18 C15 1_555 1_555
H19 C15 1_555 1_555
C16 C2 1_555 1_555
H20 C16 1_555 1_555
C17 O1 1_555 1_555
H21 C17 1_555 1_555
H22 C17 1_555 1_555
C18 C13 1_555 1_555
H23 C18 1_555 1_555
H24 C18 1_555 1_555
C19 N2 1_555 1_555
H25 C19 1_555 1_555
H26 N2 1_555 1_555
C3 C19 1_555 1_555
C5 C17 1_555 1_555
C7 C16 1_555 1_555
C8 C11 1_555 1_555
C9 C13 1_555 1_555
C12 C14 1_555 1_555
C13 C19 1_555 1_555
C15 C18 1_555 1_555

#END
