
#######################################################################
#
#                 Cambridge Crystallographic Data Centre
#                                CCDC 
#
#######################################################################
#
# If this CIF has been generated from an entry in the Cambridge 
# Structural Database, then it will include bibliographic, chemical, 
# crystal, experimental, refinement or atomic coordinate data resulting 
# from the CCDC's data processing and validation procedures.
#
#######################################################################

data_CAHMAL13
_chemical_formula_moiety         'C8 H16 Ca1 O13'
_chemical_name_systematic        'pentaaqua-bis(hydrogen maleato)-calcium'
_symmetry_cell_setting           orthorhombic
_symmetry_space_group_name_H-M   'P n m a'
_symmetry_Int_Tables_number      62
_space_group_name_Hall           '-P 2ac 2n'
loop_
_symmetry_equiv_pos_site_id
_symmetry_equiv_pos_as_xyz
1 x,y,z
2 1/2+x,1/2-y,1/2-z
3 -x,1/2+y,-z
4 1/2-x,-y,1/2+z
5 -x,-y,-z
6 1/2-x,1/2+y,1/2+z
7 x,1/2-y,z
8 1/2+x,y,1/2-z
_cell_length_a                   11.724(2)
_cell_length_b                   19.637(4)
_cell_length_c                   6.3269(13)
_cell_angle_alpha                90
_cell_angle_beta                 90
_cell_angle_gamma                90
_cell_volume                     1456.61
_exptl_crystal_colour            colorless
_exptl_crystal_description       block
_cell_formula_units_Z            4
loop_
_atom_site_label
_atom_site_type_symbol
_atom_site_fract_x
_atom_site_fract_y
_atom_site_fract_z
Ca1 Ca 0.1064(2) 0.2500 0.8861(4)
C1 C 0.11264(12) 0.05891(7) 0.7243(2)
C2 C 0.09477(13) -0.00841(8) 0.7312(2)
C3 C 0.17775(13) -0.06714(8) 0.7282(2)
O1 O 0.13842(14) -0.12556(9) 0.7356(3)
O2 O 0.28543(14) -0.05504(8) 0.7181(3)
O3 O 0.31993(15) 0.06704(9) 0.7091(3)
O4 O 0.21748(14) 0.16160(8) 0.7177(3)
O5 O 0.2868(2) 0.2500 1.0806(4)
O6 O -0.1024(2) 0.2500 0.9386(4)
O7 O 0.07224(15) 0.16360(10) 1.1381(3)
H1 H 0.0378(3) 0.09197(19) 0.7260(7)
H2 H 0.0064(3) -0.0252(2) 0.7362(7)
H3 H 0.3071(3) 0.0102(2) 0.7114(7)
H4 H -0.0027(3) 0.1485(2) 1.1838(7)
H5 H 0.1260(3) 0.12750(19) 1.1752(6)
C4 C 0.22282(13) 0.09852(7) 0.7172(2)
H6 H 0.3024(3) 0.20943(19) 1.1666(7)
H7 H -0.1490(3) 0.2116(2) 0.8972(8)
O8 O 0.0214(3) 0.2500 0.5501(6)
H8 H -0.0589(5) 0.2500 0.5229(11)
H6F H 0.3024(3) 0.29057(19) 1.1666(7)
H7F H -0.1490(3) 0.2884(2) 0.8972(8)
C1F C 0.11264(12) 0.44109(7) 0.7243(2)
C2F C 0.09477(13) 0.50841(8) 0.7312(2)
C3F C 0.17775(13) 0.56714(8) 0.7282(2)
O1F O 0.13842(14) 0.62556(9) 0.7356(3)
O2F O 0.28543(14) 0.55504(8) 0.7181(3)
O3F O 0.31993(15) 0.43296(9) 0.7091(3)
O4F O 0.21748(14) 0.33840(8) 0.7177(3)
O7F O 0.07224(15) 0.33640(10) 1.1381(3)
H1F H 0.0378(3) 0.40803(19) 0.7260(7)
H2F H 0.0064(3) 0.5252(2) 0.7362(7)
H3F H 0.3071(3) 0.4898(2) 0.7114(7)
H4F H -0.0027(3) 0.3515(2) 1.1838(7)
H5F H 0.1260(3) 0.37250(19) 1.1752(6)
C4F C 0.22282(13) 0.40148(7) 0.7172(2)
H9? H 0.0552(7) 0.2215(5) 0.4211(14)
loop_
_geom_bond_atom_site_label_1
_geom_bond_atom_site_label_2
_geom_bond_site_symmetry_1
_geom_bond_site_symmetry_2
Ca1 O4 1_555 1_555
C1 C2 1_555 1_555
C2 C3 1_555 1_555
C3 O1 1_555 1_555
O2 C3 1_555 1_555
O3 H3 1_555 1_555
O4 C4 1_555 1_555
O5 Ca1 1_555 1_555
O6 Ca1 1_555 1_555
O7 Ca1 1_555 1_555
H1 C1 1_555 1_555
H2 C2 1_555 1_555
H4 O7 1_555 1_555
H5 O7 1_555 1_555
C4 C1 1_555 1_555
H6 O5 1_555 1_555
H7 O6 1_555 1_555
O8 Ca1 1_555 1_555
H8 O8 1_555 1_555
H6F O5 1_555 1_555
H7F O6 1_555 1_555
C1F C2F 1_555 1_555
C2F C3F 1_555 1_555
C3F O1F 1_555 1_555
O2F C3F 1_555 1_555
O3F H3F 1_555 1_555
O4F Ca1 1_555 1_555
O7F Ca1 1_555 1_555
H1F C1F 1_555 1_555
H2F C2F 1_555 1_555
H4F O7F 1_555 1_555
H5F O7F 1_555 1_555
C4F C1F 1_555 1_555
O3 C4 1_555 1_555
O3F C4F 1_555 1_555
O4F C4F 1_555 1_555

#END
