
#######################################################################
#
#                 Cambridge Crystallographic Data Centre
#                                CCDC 
#
#######################################################################
#
# If this CIF has been generated from an entry in the Cambridge 
# Structural Database, then it will include bibliographic, chemical, 
# crystal, experimental, refinement or atomic coordinate data resulting 
# from the CCDC's data processing and validation procedures.
#
#######################################################################

data_CAHMAC
_chemical_name_common            4,4'-dicyano-2-fluorobiphenyl
_chemical_formula_moiety         'C14 H7 F1 N2'
_chemical_name_systematic        2-fluoro[1,1'-biphenyl]-4,4'-dicarbonitrile
_symmetry_cell_setting           orthorhombic
_symmetry_space_group_name_H-M   'P n n n'
_symmetry_Int_Tables_number      48
_space_group_name_Hall           '-P 2ab 2bc'
loop_
_symmetry_equiv_pos_site_id
_symmetry_equiv_pos_as_xyz
1 x,y,z
2 x,1/2-y,1/2-z
3 1/2-x,y,1/2-z
4 1/2-x,1/2-y,z
5 -x,-y,-z
6 -x,1/2+y,1/2+z
7 1/2+x,-y,1/2+z
8 1/2+x,1/2+y,-z
_cell_length_a                   3.7829(3)
_cell_length_b                   6.1063(6)
_cell_length_c                   22.652(2)
_cell_angle_alpha                90
_cell_angle_beta                 90
_cell_angle_gamma                90
_cell_volume                     523.25
_exptl_crystal_colour            colorless
_exptl_crystal_description       needle
_chemical_melting_point          '523 K'
_cell_formula_units_Z            2
loop_
_atom_site_label
_atom_site_type_symbol
_atom_site_fract_x
_atom_site_fract_y
_atom_site_fract_z
C1 C 0.2500 0.2500 0.71711(12)
C2 C 0.3705(6) 0.0700(3) 0.68520(9)
F1 F 0.5170(15) -0.1060(8) 0.7119(2)
C3 C 0.3714(6) 0.0670(4) 0.62428(9)
H1 H 0.4535 -0.0580 0.6034
C4 C 0.2500 0.2500 0.59401(13)
N1 N 0.2500 0.2500 0.48004(12)
C5 C 0.2500 0.2500 0.53025(14)
C1A C 0.2500 0.2500 0.78289(12)
C2A C 0.3705(6) 0.4300(3) 0.81480(9)
F1A F 0.5170(15) 0.6060(8) 0.7881(2)
C3A C 0.3714(6) 0.4330(4) 0.87572(9)
H1A H 0.4535 0.5580 0.8966
C4A C 0.2500 0.2500 0.90599(13)
N1A N 0.2500 0.2500 1.01996(12)
C5A C 0.2500 0.2500 0.96975(14)
C2B C 0.1295(6) 0.0700(3) 0.81480(9)
F1B F -0.0170(15) -0.1060(8) 0.7881(2)
C3B C 0.1286(6) 0.0670(4) 0.87572(9)
H1B H 0.0465 -0.0580 0.8966
C2C C 0.1295(6) 0.4300(3) 0.68520(9)
F1C F -0.0170(15) 0.6060(8) 0.7119(2)
C3C C 0.1286(6) 0.4330(4) 0.62428(9)
H1C H 0.0465 0.5580 0.6034
H2? H 0.4525 -0.0581 0.7061
loop_
_geom_bond_atom_site_label_1
_geom_bond_atom_site_label_2
_geom_bond_site_symmetry_1
_geom_bond_site_symmetry_2
C1 C2 1_555 1_555
C2 F1 1_555 1_555
C3 C2 1_555 1_555
H1 C3 1_555 1_555
C4 C3 1_555 1_555
N1 C5 1_555 1_555
C5 C4 1_555 1_555
C1A C1 1_555 1_555
C2A C1A 1_555 1_555
F1A C2A 1_555 1_555
C3A C2A 1_555 1_555
H1A C3A 1_555 1_555
C4A C3A 1_555 1_555
N1A C5A 1_555 1_555
C5A C4A 1_555 1_555
C2B C1A 1_555 1_555
F1B C2B 1_555 1_555
C3B C4A 1_555 1_555
H1B C3B 1_555 1_555
C2C C1 1_555 1_555
F1C C2C 1_555 1_555
C3C C4 1_555 1_555
H1C C3C 1_555 1_555
C2B C3B 1_555 1_555
C2C C3C 1_555 1_555

#END
