
#######################################################################
#
#                 Cambridge Crystallographic Data Centre
#                                CCDC 
#
#######################################################################
#
# If this CIF has been generated from an entry in the Cambridge 
# Structural Database, then it will include bibliographic, chemical, 
# crystal, experimental, refinement or atomic coordinate data resulting 
# from the CCDC's data processing and validation procedures.
#
#######################################################################

data_CAHVAK03
_chemical_formula_moiety         'C72 H84 N12,0.2(I5)'
_chemical_name_systematic        
'5,12,20,27,35,42,50,57,62,69,74,81-Dodecaazatridecacyclo[29.29.10.10^16,46^.1^3,59^.1^14,18^.1^29,33^.1^44,48^.0^6,11^.0^21,26^.0^36,41^.0^51,56^.0^63,68^.0^75,80^]tetraoctaconta-1,3(71),4,12,14(84),15,17,19,27,29(83),30,32,34,42,44(72),45,47,49,57,59,61,69,73,81-tetracosaene pentaiodine clathrate'
_symmetry_cell_setting           cubic
_symmetry_space_group_name_H-M   'F 41 3 2'
_symmetry_Int_Tables_number      210
_space_group_name_Hall           'F 4d 2 3'
loop_
_symmetry_equiv_pos_site_id
_symmetry_equiv_pos_as_xyz
1 x,y,z
2 -x,1/2-y,1/2+z
3 1/2-x,1/2+y,-z
4 1/2+x,-y,1/2-z
5 z,x,y
6 1/2+z,-x,1/2-y
7 -z,1/2-x,1/2+y
8 1/2-z,1/2+x,-y
9 y,z,x
10 1/2-y,1/2+z,-x
11 1/2+y,-z,1/2-x
12 -y,1/2-z,1/2+x
13 3/4+y,1/4+x,3/4-z
14 1/4-y,1/4-x,1/4-z
15 1/4+y,3/4-x,3/4+z
16 3/4-y,3/4+x,1/4+z
17 3/4+x,1/4+z,3/4-y
18 3/4-x,3/4+z,1/4+y
19 1/4-x,1/4-z,1/4-y
20 1/4+x,3/4-z,3/4+y
21 3/4+z,1/4+y,3/4-x
22 1/4+z,3/4-y,3/4+x
23 3/4-z,3/4+y,1/4+x
24 1/4-z,1/4-y,1/4-x
25 x,1/2+y,1/2+z
26 -x,-y,z
27 1/2-x,y,1/2-z
28 1/2+x,1/2-y,-z
29 z,1/2+x,1/2+y
30 1/2+z,1/2-x,-y
31 -z,-x,y
32 1/2-z,x,1/2-y
33 y,1/2+z,1/2+x
34 1/2-y,z,1/2-x
35 1/2+y,1/2-z,-x
36 -y,-z,x
37 3/4+y,3/4+x,1/4-z
38 1/4-y,3/4-x,3/4-z
39 1/4+y,1/4-x,1/4+z
40 3/4-y,1/4+x,3/4+z
41 3/4+x,3/4+z,1/4-y
42 3/4-x,1/4+z,3/4+y
43 1/4-x,3/4-z,3/4-y
44 1/4+x,1/4-z,1/4+y
45 3/4+z,3/4+y,1/4-x
46 1/4+z,1/4-y,1/4+x
47 3/4-z,1/4+y,3/4+x
48 1/4-z,3/4-y,3/4-x
49 1/2+x,y,1/2+z
50 1/2-x,1/2-y,z
51 -x,1/2+y,1/2-z
52 x,-y,-z
53 1/2+z,x,1/2+y
54 z,-x,-y
55 1/2-z,1/2-x,y
56 -z,1/2+x,1/2-y
57 1/2+y,z,1/2+x
58 -y,1/2+z,1/2-x
59 y,-z,-x
60 1/2-y,1/2-z,x
61 1/4+y,1/4+x,1/4-z
62 3/4-y,1/4-x,3/4-z
63 3/4+y,3/4-x,1/4+z
64 1/4-y,3/4+x,3/4+z
65 1/4+x,1/4+z,1/4-y
66 1/4-x,3/4+z,3/4+y
67 3/4-x,1/4-z,3/4-y
68 3/4+x,3/4-z,1/4+y
69 1/4+z,1/4+y,1/4-x
70 3/4+z,3/4-y,1/4+x
71 1/4-z,3/4+y,3/4+x
72 3/4-z,1/4-y,3/4-x
73 1/2+x,1/2+y,z
74 1/2-x,-y,1/2+z
75 -x,y,-z
76 x,1/2-y,1/2-z
77 1/2+z,1/2+x,y
78 z,1/2-x,1/2-y
79 1/2-z,-x,1/2+y
80 -z,x,-y
81 1/2+y,1/2+z,x
82 -y,z,-x
83 y,1/2-z,1/2-x
84 1/2-y,-z,1/2+x
85 1/4+y,3/4+x,3/4-z
86 3/4-y,3/4-x,1/4-z
87 3/4+y,1/4-x,3/4+z
88 1/4-y,1/4+x,1/4+z
89 1/4+x,3/4+z,3/4-y
90 1/4-x,1/4+z,1/4+y
91 3/4-x,3/4-z,1/4-y
92 3/4+x,1/4-z,3/4+y
93 1/4+z,3/4+y,3/4-x
94 3/4+z,1/4-y,3/4+x
95 1/4-z,1/4+y,1/4+x
96 3/4-z,3/4-y,1/4-x
_cell_length_a                   24.933(3)
_cell_length_b                   24.933(3)
_cell_length_c                   24.933(3)
_cell_angle_alpha                90
_cell_angle_beta                 90
_cell_angle_gamma                90
_cell_volume                     15499.7
_cell_formula_units_Z            8
loop_
_atom_site_label
_atom_site_type_symbol
_atom_site_fract_x
_atom_site_fract_y
_atom_site_fract_z
N1 N 0.0446(2) 1.2225(2) -0.0364(2)
C1 C 0.1101(3) 1.1280(3) -0.0538(2)
H1 H 0.1186 1.1488 -0.0240
C2 C 0.0660(3) 1.1418(2) -0.0845(3)
C3 C 0.0327(2) 1.1885(3) -0.0711(3)
H2 H 0.0006 1.1930 -0.0896
C4 C 0.0097(2) 1.2685(2) -0.02869(19)
H3 H -0.0208 1.2666 -0.0534
C5 C 0.0427(3) 1.3199(3) -0.0393(4)
H4 H 0.0548 1.3204 -0.0763
H5 H 0.0739 1.3206 -0.0161
C6 C 0.0066(6) 1.3696(3) -0.0280(4)
H6 H 0.0255 1.4023 -0.0373
H7 H -0.0259 1.3677 -0.0493
N1AC N 0.0364(2) 1.0446(2) -0.2225(2)
N1AB N -0.0364(2) 0.9554(2) -0.2225(2)
N1CC N -0.2225(2) 0.9636(2) -0.0446(2)
N1IA N -0.2225(2) 1.0364(2) 0.0446(2)
N1VB N -0.0446(2) 1.2225(2) 0.0364(2)
N1D N -0.0364(2) 1.0446(2) 0.2225(2)
N1DA N 0.0364(2) 0.9554(2) 0.2225(2)
N1H N 0.2225(2) 0.9636(2) 0.0446(2)
N1FB N 0.2225(2) 1.0364(2) -0.0446(2)
N1YA N 0.0446(2) 0.7775(2) 0.0364(2)
N1Y N -0.0446(2) 0.7775(2) -0.0364(2)
C1FB C 0.1280(3) 1.0538(2) -0.1101(3)
C1AC C 0.0538(2) 1.1101(3) -0.1280(3)
C1AB C -0.0538(2) 0.8899(3) -0.1280(3)
C1Y C -0.1101(3) 0.8720(3) -0.0538(2)
C1CC C -0.1280(3) 0.9462(2) -0.1101(3)
C1IA C -0.1280(3) 1.0538(2) 0.1101(3)
C1D C -0.0538(2) 1.1101(3) 0.1280(3)
C1VB C -0.1101(3) 1.1280(3) 0.0538(2)
C1DA C 0.0538(2) 0.8899(3) 0.1280(3)
C1YA C 0.1101(3) 0.8720(3) 0.0538(2)
C1H C 0.1280(3) 0.9462(2) 0.1101(3)
H1FB H 0.1488 1.0240 -0.1186
H1AC H 0.0240 1.1186 -0.1488
H1AB H -0.0240 0.8814 -0.1488
H1Y H -0.1186 0.8512 -0.0240
H1CC H -0.1488 0.9760 -0.1186
H1IA H -0.1488 1.0240 0.1186
H1D H -0.0240 1.1186 0.1488
H1VB H -0.1186 1.1488 0.0240
H1DA H 0.0240 0.8814 0.1488
H1YA H 0.1186 0.8512 0.0240
H1H H 0.1488 0.9760 0.1186
C2FB C 0.1418(2) 1.0845(3) -0.0660(3)
C2AC C 0.0845(3) 1.0660(3) -0.1418(2)
C2AB C -0.0845(3) 0.9340(3) -0.1418(2)
C2Y C -0.0660(3) 0.8582(2) -0.0845(3)
C2CC C -0.1418(2) 0.9155(3) -0.0660(3)
C2IA C -0.1418(2) 1.0845(3) 0.0660(3)
C2D C -0.0845(3) 1.0660(3) 0.1418(2)
C2VB C -0.0660(3) 1.1418(2) 0.0845(3)
C2DA C 0.0845(3) 0.9340(3) 0.1418(2)
C2YA C 0.0660(3) 0.8582(2) 0.0845(3)
C2H C 0.1418(2) 0.9155(3) 0.0660(3)
C3AC C 0.0711(3) 1.0327(2) -0.1885(3)
C3AB C -0.0711(3) 0.9673(2) -0.1885(3)
C3CC C -0.1885(3) 0.9289(3) -0.0327(2)
C3IA C -0.1885(3) 1.0711(3) 0.0327(2)
C3VB C -0.0327(2) 1.1885(3) 0.0711(3)
C3D C -0.0711(3) 1.0327(2) 0.1885(3)
C3DA C 0.0711(3) 0.9673(2) 0.1885(3)
C3H C 0.1885(3) 0.9289(3) 0.0327(2)
C3FB C 0.1885(3) 1.0711(3) -0.0327(2)
C3YA C 0.0327(2) 0.8115(3) 0.0711(3)
C3Y C -0.0327(2) 0.8115(3) -0.0711(3)
H2VB H -0.0006 1.1930 0.0896
H2FB H 0.1930 1.0896 -0.0006
H2H H 0.1930 0.9104 0.0006
H2Y H -0.0006 0.8070 -0.0896
H2YA H 0.0006 0.8070 0.0896
H2DA H 0.0896 0.9994 0.1930
H2D H -0.0896 1.0006 0.1930
H2IA H -0.1930 1.0896 0.0006
H2CC H -0.1930 0.9104 -0.0006
H2AB H -0.0896 0.9994 -0.1930
H2AC H 0.0896 1.0006 -0.1930
C4AC C 0.02869(19) 1.0097(2) -0.2685(2)
C4AB C -0.02869(19) 0.9903(2) -0.2685(2)
C4CC C -0.2685(2) 0.97131(19) -0.0097(2)
C4IA C -0.2685(2) 1.02869(19) 0.0097(2)
C4VB C -0.0097(2) 1.2685(2) 0.02869(19)
C4D C -0.02869(19) 1.0097(2) 0.2685(2)
C4DA C 0.02869(19) 0.9903(2) 0.2685(2)
C4H C 0.2685(2) 0.97131(19) 0.0097(2)
C4FB C 0.2685(2) 1.02869(19) -0.0097(2)
C4YA C 0.0097(2) 0.7315(2) 0.02869(19)
C4Y C -0.0097(2) 0.7315(2) -0.02869(19)
H3VB H 0.0208 1.2666 0.0534
H3FB H 0.2666 1.0534 0.0208
H3H H 0.2666 0.9466 -0.0208
H3Y H 0.0208 0.7334 -0.0534
H3YA H -0.0208 0.7334 0.0534
H3DA H 0.0534 1.0208 0.2666
H3D H -0.0534 0.9792 0.2666
H3IA H -0.2666 1.0534 -0.0208
H3CC H -0.2666 0.9466 0.0208
H3AB H -0.0534 1.0208 -0.2666
H3AC H 0.0534 0.9792 -0.2666
C5VB C -0.0427(3) 1.3199(3) 0.0393(4)
C5FB C 0.3199(3) 1.0393(4) -0.0427(3)
C5H C 0.3199(3) 0.9607(4) 0.0427(3)
C5Y C -0.0427(3) 0.6801(3) -0.0393(4)
C5YA C 0.0427(3) 0.6801(3) 0.0393(4)
C5DA C 0.0393(4) 0.9573(3) 0.3199(3)
C5D C -0.0393(4) 1.0427(3) 0.3199(3)
C5IA C -0.3199(3) 1.0393(4) 0.0427(3)
C5CC C -0.3199(3) 0.9607(4) -0.0427(3)
C5AB C -0.0393(4) 0.9573(3) -0.3199(3)
C5AC C 0.0393(4) 1.0427(3) -0.3199(3)
H4VB H -0.0548 1.3204 0.0763
H4FB H 0.3204 1.0763 -0.0548
H4H H 0.3204 0.9237 0.0548
H4Y H -0.0548 0.6796 -0.0763
H4YA H 0.0548 0.6796 0.0763
H4DA H 0.0763 0.9452 0.3204
H4D H -0.0763 1.0548 0.3204
H4IA H -0.3204 1.0763 0.0548
H4CC H -0.3204 0.9237 -0.0548
H4AB H -0.0763 0.9452 -0.3204
H4AC H 0.0763 1.0548 -0.3204
H5VB H -0.0739 1.3206 0.0161
H5FB H 0.3206 1.0161 -0.0739
H5H H 0.3206 0.9839 0.0739
H5Y H -0.0739 0.6794 -0.0161
H5YA H 0.0739 0.6794 0.0161
H5DA H 0.0161 0.9261 0.3206
H5D H -0.0161 1.0739 0.3206
H5IA H -0.3206 1.0161 0.0739
H5CC H -0.3206 0.9839 -0.0739
H5AB H -0.0161 0.9261 -0.3206
H5AC H 0.0161 1.0739 -0.3206
C6VB C -0.0066(6) 1.3696(3) 0.0280(4)
C6FB C 0.3696(3) 1.0280(4) -0.0066(6)
C6H C 0.3696(3) 0.9720(4) 0.0066(6)
C6Y C -0.0066(6) 0.6304(3) -0.0280(4)
C6YA C 0.0066(6) 0.6304(3) 0.0280(4)
C6DA C 0.0280(4) 0.9934(6) 0.3696(3)
C6D C -0.0280(4) 1.0066(6) 0.3696(3)
C6IA C -0.3696(3) 1.0280(4) 0.0066(6)
C6CC C -0.3696(3) 0.9720(4) -0.0066(6)
C6AB C -0.0280(4) 0.9934(6) -0.3696(3)
C6AC C 0.0280(4) 1.0066(6) -0.3696(3)
H6VB H -0.0255 1.4023 0.0373
H6H H 0.4023 0.9627 0.0255
H6FB H 0.4023 1.0373 -0.0255
H6YA H 0.0255 0.5977 0.0373
H6Y H -0.0255 0.5977 -0.0373
H6D H -0.0373 1.0255 0.4023
H6DA H 0.0373 0.9745 0.4023
H6CC H -0.4023 0.9627 -0.0255
H6IA H -0.4023 1.0373 0.0255
H6AC H 0.0373 1.0255 -0.4023
H6AB H -0.0373 0.9745 -0.4023
H7VB H 0.0259 1.3677 0.0493
H7H H 0.3677 0.9507 -0.0259
H7FB H 0.3677 1.0493 0.0259
H7YA H -0.0259 0.6323 0.0493
H7Y H 0.0259 0.6323 -0.0493
H7D H -0.0493 0.9741 0.3677
H7DA H 0.0493 1.0259 0.3677
H7CC H -0.3677 0.9507 0.0259
H7IA H -0.3677 1.0493 -0.0259
H7AC H 0.0493 0.9741 -0.3677
H7AB H -0.0493 1.0259 -0.3677
I1? I 0.1250 1.1250 0.1250
I2? I 0.1922(5) 1.1922(5) 0.1922(5)
I3? I 0.2635(3) 1.2635(3) 0.2365(3)
loop_
_geom_bond_atom_site_label_1
_geom_bond_atom_site_label_2
_geom_bond_site_symmetry_1
_geom_bond_site_symmetry_2
N1 C3 1_555 1_555
C1 H1 1_555 1_555
C2 C1 1_555 1_555
C3 C2 1_555 1_555
H2 C3 1_555 1_555
C4 N1 1_555 1_555
H3 C4 1_555 1_555
C5 C4 1_555 1_555
H4 C5 1_555 1_555
H5 C5 1_555 1_555
C6 C5 1_555 1_555
H6 C6 1_555 1_555
H7 C6 1_555 1_555
N1AC C3AC 1_555 1_555
N1AB C3AB 1_555 1_555
N1CC C3CC 1_555 1_555
N1IA C3IA 1_555 1_555
N1VB C3VB 1_555 1_555
N1D C3D 1_555 1_555
N1DA C3DA 1_555 1_555
N1H C3H 1_555 1_555
N1FB C3FB 1_555 1_555
N1YA C3YA 1_555 1_555
N1Y C3Y 1_555 1_555
C1FB H1FB 1_555 1_555
C1AC C2 1_555 1_555
C1AB H1AB 1_555 1_555
C1Y H1Y 1_555 1_555
C1CC H1CC 1_555 1_555
C1IA H1IA 1_555 1_555
C1D H1D 1_555 1_555
C1VB H1VB 1_555 1_555
C1DA H1DA 1_555 1_555
C1YA H1YA 1_555 1_555
C1H H1H 1_555 1_555
H1AC C1AC 1_555 1_555
C2FB C1 1_555 1_555
C2AC C1FB 1_555 1_555
C2AB C1AB 1_555 1_555
C2Y C1AB 1_555 1_555
C2CC C1Y 1_555 1_555
C2IA C1IA 1_555 1_555
C2D C1IA 1_555 1_555
C2VB C1D 1_555 1_555
C2DA C1DA 1_555 1_555
C2YA C1DA 1_555 1_555
C2H C1YA 1_555 1_555
C3AC C2AC 1_555 1_555
C3AB C2AB 1_555 1_555
C3CC C2CC 1_555 1_555
C3IA C2IA 1_555 1_555
C3VB C2VB 1_555 1_555
C3D C2D 1_555 1_555
C3DA C2DA 1_555 1_555
C3H C2H 1_555 1_555
C3FB C2FB 1_555 1_555
C3YA C2YA 1_555 1_555
C3Y C2Y 1_555 1_555
H2VB C3VB 1_555 1_555
H2FB C3FB 1_555 1_555
H2H C3H 1_555 1_555
H2Y C3Y 1_555 1_555
H2YA C3YA 1_555 1_555
H2DA C3DA 1_555 1_555
H2D C3D 1_555 1_555
H2IA C3IA 1_555 1_555
H2CC C3CC 1_555 1_555
H2AB C3AB 1_555 1_555
H2AC C3AC 1_555 1_555
C4AC N1AC 1_555 1_555
C4AB N1AB 1_555 1_555
C4CC N1CC 1_555 1_555
C4IA N1IA 1_555 1_555
C4VB C4 1_555 1_555
C4D N1D 1_555 1_555
C4DA N1DA 1_555 1_555
C4H N1H 1_555 1_555
C4FB N1FB 1_555 1_555
C4YA N1YA 1_555 1_555
C4Y N1Y 1_555 1_555
H3VB C4VB 1_555 1_555
H3FB C4FB 1_555 1_555
H3H C4H 1_555 1_555
H3Y C4Y 1_555 1_555
H3YA C4YA 1_555 1_555
H3DA C4DA 1_555 1_555
H3D C4D 1_555 1_555
H3IA C4IA 1_555 1_555
H3CC C4CC 1_555 1_555
H3AB C4AB 1_555 1_555
H3AC C4AC 1_555 1_555
C5VB C4VB 1_555 1_555
C5FB C4FB 1_555 1_555
C5H C4H 1_555 1_555
C5Y C4Y 1_555 1_555
C5YA C4YA 1_555 1_555
C5DA C4DA 1_555 1_555
C5D C4D 1_555 1_555
C5IA C4IA 1_555 1_555
C5CC C4CC 1_555 1_555
C5AB C4AB 1_555 1_555
C5AC C4AC 1_555 1_555
H4VB C5VB 1_555 1_555
H4FB C5FB 1_555 1_555
H4H C5H 1_555 1_555
H4Y C5Y 1_555 1_555
H4YA C5YA 1_555 1_555
H4DA C5DA 1_555 1_555
H4D C5D 1_555 1_555
H4IA C5IA 1_555 1_555
H4CC C5CC 1_555 1_555
H4AB C5AB 1_555 1_555
H4AC C5AC 1_555 1_555
H5VB C5VB 1_555 1_555
H5FB C5FB 1_555 1_555
H5H C5H 1_555 1_555
H5Y C5Y 1_555 1_555
H5YA C5YA 1_555 1_555
H5DA C5DA 1_555 1_555
H5D C5D 1_555 1_555
H5IA C5IA 1_555 1_555
H5CC C5CC 1_555 1_555
H5AB C5AB 1_555 1_555
H5AC C5AC 1_555 1_555
C6VB C6 1_555 1_555
C6FB C5FB 1_555 1_555
C6H C5H 1_555 1_555
C6Y C5Y 1_555 1_555
C6YA C5YA 1_555 1_555
C6DA C5DA 1_555 1_555
C6D C5D 1_555 1_555
C6IA C5IA 1_555 1_555
C6CC C5CC 1_555 1_555
C6AB C5AB 1_555 1_555
C6AC C5AC 1_555 1_555
H6VB C6VB 1_555 1_555
H6H C6H 1_555 1_555
H6FB C6FB 1_555 1_555
H6YA C6YA 1_555 1_555
H6Y C6Y 1_555 1_555
H6D C6D 1_555 1_555
H6DA C6DA 1_555 1_555
H6CC C6CC 1_555 1_555
H6IA C6IA 1_555 1_555
H6AC C6AC 1_555 1_555
H6AB C6AB 1_555 1_555
H7VB C6VB 1_555 1_555
H7H C6H 1_555 1_555
H7FB C6FB 1_555 1_555
H7YA C6YA 1_555 1_555
H7Y C6Y 1_555 1_555
H7D C6D 1_555 1_555
H7DA C6DA 1_555 1_555
H7CC C6CC 1_555 1_555
H7IA C6IA 1_555 1_555
H7AC C6AC 1_555 1_555
H7AB C6AB 1_555 1_555
N1VB C4VB 1_555 1_555
C1FB C2FB 1_555 1_555
C1AC C2AC 1_555 1_555
C1Y C2Y 1_555 1_555
C1CC C2AB 1_555 1_555
C1CC C2CC 1_555 1_555
C1D C2D 1_555 1_555
C1VB C2IA 1_555 1_555
C1VB C2VB 1_555 1_555
C1YA C2YA 1_555 1_555
C1H C2DA 1_555 1_555
C1H C2H 1_555 1_555
C4AC C4AB 1_555 1_555
C4CC C4IA 1_555 1_555
C4D C4DA 1_555 1_555
C4H C4FB 1_555 1_555
C4YA C4Y 1_555 1_555
C5VB C6VB 1_555 1_555
C6FB C6H 1_555 1_555
C6Y C6YA 1_555 1_555
C6DA C6D 1_555 1_555
C6IA C6CC 1_555 1_555
C6AB C6AC 1_555 1_555

#END
