
#######################################################################
#
#                 Cambridge Crystallographic Data Centre
#                                CCDC 
#
#######################################################################
#
# If this CIF has been generated from an entry in the Cambridge 
# Structural Database, then it will include bibliographic, chemical, 
# crystal, experimental, refinement or atomic coordinate data resulting 
# from the CCDC's data processing and validation procedures.
#
#######################################################################

data_CAHXIU
_chemical_formula_moiety         'C15 H14 O5'
_chemical_name_systematic        
'(R)-Methyl 3-(3-hydroxy-1,4-dioxo-1,4-dihydronaphthalen-2-yl)butanoate'
_symmetry_cell_setting           monoclinic
_symmetry_space_group_name_H-M   'C 2'
_symmetry_Int_Tables_number      5
_space_group_name_Hall           'C 2y'
loop_
_symmetry_equiv_pos_site_id
_symmetry_equiv_pos_as_xyz
1 x,y,z
2 -x,y,-z
3 1/2+x,1/2+y,z
4 1/2-x,1/2+y,-z
_cell_length_a                   26.598(2)
_cell_length_b                   5.0807(7)
_cell_length_c                   20.9740(18)
_cell_angle_alpha                90
_cell_angle_beta                 111.055(13)
_cell_angle_gamma                90
_cell_volume                     2645.12
_exptl_crystal_colour            yellow
_exptl_crystal_description       prism
_cell_formula_units_Z            8
loop_
_atom_site_label
_atom_site_type_symbol
_atom_site_fract_x
_atom_site_fract_y
_atom_site_fract_z
O1 O 0.33276(6) 0.8825(4) 0.24404(7)
O2 O 0.42268(6) 0.9837(3) 0.22210(8)
O3 O 0.37162(6) 0.3469(4) 0.04909(7)
O4 O 0.57780(7) 0.6480(5) 0.17883(10)
O5 O 0.55736(6) 0.3100(4) 0.10611(8)
C1 C 0.34008(8) 0.7495(4) 0.19980(9)
C2 C 0.39010(7) 0.7963(4) 0.18436(8)
C3 C 0.40284(8) 0.6579(4) 0.13714(9)
C4 C 0.36399(8) 0.4633(4) 0.09564(8)
C5 C 0.31428(8) 0.4044(4) 0.11057(9)
C6 C 0.30268(8) 0.5418(4) 0.16171(9)
C7 C 0.25671(9) 0.4840(5) 0.17564(12)
H1 H 0.2493 0.5750 0.2097
C8 C 0.22214(10) 0.2909(6) 0.13875(13)
H2 H 0.1914 0.2516 0.1482
C9 C 0.23259(9) 0.1550(6) 0.08786(12)
H3 H 0.2090 0.0249 0.0633
C10 C 0.27839(9) 0.2128(5) 0.07342(10)
H4 H 0.2851 0.1228 0.0387
C11 C 0.45580(8) 0.7041(4) 0.12651(10)
H5 H 0.4759 0.8394 0.1590
C12 C 0.48918(9) 0.4493(5) 0.14307(12)
H6 H 0.4904 0.3831 0.1870
H7 H 0.4715 0.3177 0.1088
C13 C 0.54607(8) 0.4873(5) 0.14520(10)
C14 C 0.44875(10) 0.7989(5) 0.05478(11)
H8 H 0.4368 0.6552 0.0232
H9 H 0.4825 0.8639 0.0544
H10 H 0.4224 0.9373 0.0416
C15 C 0.61054(10) 0.3078(9) 0.10382(13)
H11 H 0.6179 0.4753 0.0879
H12 H 0.6130 0.1719 0.0733
H13 H 0.6363 0.2749 0.1488
H27 H 0.4117(11) 1.069(7) 0.2503(13)
O6 O 0.66717(6) 0.1168(3) 0.26195(7)
O7 O 0.57782(7) 0.0579(4) 0.28781(9)
O8 O 0.64310(7) 0.6976(4) 0.45970(7)
O9 O 0.41312(6) 0.3362(4) 0.31968(9)
O10 O 0.45673(7) 0.6461(4) 0.39258(9)
C16 C 0.66220(8) 0.2658(4) 0.30490(9)
C17 C 0.61289(8) 0.2424(4) 0.32304(10)
C18 C 0.60376(8) 0.3961(5) 0.37063(9)
C19 C 0.64614(8) 0.5783(4) 0.41026(9)
C20 C 0.69449(8) 0.6188(4) 0.39101(9)
C21 C 0.70161(7) 0.4687(4) 0.33911(9)
C22 C 0.74635(9) 0.5168(5) 0.32086(11)
H14 H 0.7512 0.4194 0.2859
C23 C 0.78324(9) 0.7059(6) 0.35385(12)
H15 H 0.8129 0.7358 0.3413
C24 C 0.77654(10) 0.8524(6) 0.40567(12)
H16 H 0.8019 0.9795 0.4280
C25 C 0.73247(9) 0.8117(5) 0.42457(10)
H17 H 0.7280 0.9115 0.4593
C26 C 0.55371(9) 0.3935(5) 0.38990(11)
H18 H 0.5570 0.5486 0.4189
C27 C 0.50355(9) 0.4362(7) 0.32939(11)
H19 H 0.4989 0.2891 0.2983
H20 H 0.5080 0.5937 0.3058
C28 C 0.45304(9) 0.4648(5) 0.34618(10)
C29 C 0.55261(12) 0.1620(6) 0.43391(16)
H21 H 0.5237 0.1832 0.4508
H22 H 0.5862 0.1513 0.4717
H23 H 0.5471 0.0034 0.4074
C30 C 0.40951(11) 0.6878(7) 0.40968(14)
H24 H 0.3784 0.6994 0.3685
H25 H 0.4134 0.8485 0.4351
H26 H 0.4053 0.5434 0.4368
H28 H 0.5850(9) -0.024(6) 0.2588(11)
loop_
_geom_bond_atom_site_label_1
_geom_bond_atom_site_label_2
_geom_bond_site_symmetry_1
_geom_bond_site_symmetry_2
O1 C1 1_555 1_555
O2 C2 1_555 1_555
O3 C4 1_555 1_555
O4 C13 1_555 1_555
O5 C13 1_555 1_555
O6 C16 1_555 1_555
O7 C17 1_555 1_555
O8 C19 1_555 1_555
O9 C28 1_555 1_555
O10 C28 1_555 1_555
C1 C2 1_555 1_555
C2 C3 1_555 1_555
C3 C4 1_555 1_555
C4 C5 1_555 1_555
C5 C6 1_555 1_555
C6 C1 1_555 1_555
C7 C6 1_555 1_555
H1 C7 1_555 1_555
C8 C7 1_555 1_555
H2 C8 1_555 1_555
C9 C8 1_555 1_555
H3 C9 1_555 1_555
C10 C5 1_555 1_555
H4 C10 1_555 1_555
C11 C3 1_555 1_555
H5 C11 1_555 1_555
C12 C11 1_555 1_555
H6 C12 1_555 1_555
H7 C12 1_555 1_555
C13 C12 1_555 1_555
C14 C11 1_555 1_555
H8 C14 1_555 1_555
H9 C14 1_555 1_555
H10 C14 1_555 1_555
C15 O5 1_555 1_555
H11 C15 1_555 1_555
H12 C15 1_555 1_555
H13 C15 1_555 1_555
C16 C17 1_555 1_555
C17 C18 1_555 1_555
C18 C19 1_555 1_555
C19 C20 1_555 1_555
C20 C21 1_555 1_555
C21 C16 1_555 1_555
C22 C21 1_555 1_555
H14 C22 1_555 1_555
C23 C22 1_555 1_555
H15 C23 1_555 1_555
C24 C23 1_555 1_555
H16 C24 1_555 1_555
C25 C20 1_555 1_555
H17 C25 1_555 1_555
C26 C18 1_555 1_555
H18 C26 1_555 1_555
C27 C26 1_555 1_555
H19 C27 1_555 1_555
H20 C27 1_555 1_555
C28 C27 1_555 1_555
C29 C26 1_555 1_555
H21 C29 1_555 1_555
H22 C29 1_555 1_555
H23 C29 1_555 1_555
C30 O10 1_555 1_555
H24 C30 1_555 1_555
H25 C30 1_555 1_555
H26 C30 1_555 1_555
H27 O2 1_555 1_555
H28 O7 1_555 1_555
C9 C10 1_555 1_555
C24 C25 1_555 1_555

#END
