
#######################################################################
#
#                 Cambridge Crystallographic Data Centre
#                                CCDC 
#
#######################################################################
#
# If this CIF has been generated from an entry in the Cambridge 
# Structural Database, then it will include bibliographic, chemical, 
# crystal, experimental, refinement or atomic coordinate data resulting 
# from the CCDC's data processing and validation procedures.
#
#######################################################################

data_CAHYER
_chemical_name_common            
2-Methylene-4-nitro-3-(4-tosyloxyphenyl)butanenitrile
_chemical_formula_moiety         'C18 H16 N2 O5 S1'
_chemical_name_systematic        
'4-(3-Cyano-1-nitrobut-3-en-2-yl)phenyl 4-methylbenzenesulfonate'
_symmetry_cell_setting           monoclinic
_symmetry_space_group_name_H-M   'P 21/c'
_symmetry_Int_Tables_number      14
_space_group_name_Hall           '-P 2ybc'
loop_
_symmetry_equiv_pos_site_id
_symmetry_equiv_pos_as_xyz
1 x,y,z
2 -x,1/2+y,1/2-z
3 -x,-y,-z
4 x,1/2-y,1/2+z
_cell_length_a                   13.2247(16)
_cell_length_b                   8.4060(9)
_cell_length_c                   17.517(3)
_cell_angle_alpha                90
_cell_angle_beta                 106.670(15)
_cell_angle_gamma                90
_cell_volume                     1865.47
_exptl_crystal_colour            colorless
_exptl_crystal_description       block
_cell_formula_units_Z            4
loop_
_atom_site_label
_atom_site_type_symbol
_atom_site_fract_x
_atom_site_fract_y
_atom_site_fract_z
S1 S 0.34568(10) 0.92503(12) 0.53296(8)
O1 O 0.4185(2) 0.7746(3) 0.53284(16)
O2 O 0.3329(4) 0.1456(5) 0.1528(3)
O3 O 0.3330(3) 1.0127(3) 0.4615(2)
C1 C 0.3431(3) 0.4491(4) 0.3463(2)
O4 O 0.3948(3) 0.9946(4) 0.6089(2)
C2 C 0.3812(3) 0.5970(5) 0.3353(2)
H1 H 0.3905 0.6232 0.2861
C3 C 0.2223(3) 0.8471(5) 0.5318(3)
C4 C 0.3559(3) 0.5202(4) 0.4818(2)
H2 H 0.3473 0.4952 0.5313
C5 C 0.2096(5) 0.7788(6) 0.5993(3)
H3 H 0.2667 0.7692 0.6447
C6 C 0.3331(3) 0.4102(4) 0.4203(2)
H4 H 0.3108 0.3087 0.4291
O5 O 0.4037(3) -0.0423(5) 0.2322(3)
N1 N 0.3757(3) 0.0939(5) 0.2173(3)
C7 C 0.1787(4) 0.1165(7) 0.2783(3)
H5 H 0.1086 0.0898 0.2721
H6 H 0.2307 0.0385 0.2915
C8 C 0.1106(5) 0.7239(7) 0.5993(4)
H7 H 0.1020 0.6788 0.6455
C9 C 0.4060(3) 0.7076(4) 0.3966(2)
H8 H 0.4320 0.8073 0.3891
C10 C -0.0839(5) 0.6774(9) 0.5352(4)
H9 H -0.1262 0.7677 0.5398
H10 H -0.0773 0.6078 0.5799
H11 H -0.1170 0.6213 0.4868
C11 C 0.3917(3) 0.6679(4) 0.4674(2)
C12 C 0.3141(3) 0.3303(5) 0.2770(3)
H12 H 0.3118 0.3889 0.2282
C13 C 0.0265(5) 0.7340(7) 0.5341(4)
C14 C 0.3946(3) 0.2066(5) 0.2871(3)
H13 H 0.3971 0.1459 0.3347
H14 H 0.4628 0.2570 0.2952
C15 C 0.2046(3) 0.2659(6) 0.2681(3)
C16 C 0.1244(4) 0.3853(8) 0.2478(3)
N2 N 0.0617(4) 0.4789(9) 0.2328(4)
C17 C 0.1397(4) 0.8556(7) 0.4653(3)
H15 H 0.1479 0.8979 0.4184
C18 C 0.0410(5) 0.7992(9) 0.4687(4)
H16 H -0.0165 0.8076 0.4234
loop_
_geom_bond_atom_site_label_1
_geom_bond_atom_site_label_2
_geom_bond_site_symmetry_1
_geom_bond_site_symmetry_2
S1 O1 1_555 1_555
O1 C11 1_555 1_555
O2 N1 1_555 1_555
O3 S1 1_555 1_555
C1 C2 1_555 1_555
O4 S1 1_555 1_555
C2 H1 1_555 1_555
C3 S1 1_555 1_555
C4 H2 1_555 1_555
C5 C3 1_555 1_555
H3 C5 1_555 1_555
C6 C1 1_555 1_555
H4 C6 1_555 1_555
O5 N1 1_555 1_555
N1 C14 1_555 1_555
C7 H5 1_555 1_555
H6 C7 1_555 1_555
C8 C5 1_555 1_555
H7 C8 1_555 1_555
C9 C2 1_555 1_555
H8 C9 1_555 1_555
C10 H9 1_555 1_555
H10 C10 1_555 1_555
H11 C10 1_555 1_555
C11 C4 1_555 1_555
C12 C1 1_555 1_555
H12 C12 1_555 1_555
C13 C8 1_555 1_555
C14 C12 1_555 1_555
H13 C14 1_555 1_555
H14 C14 1_555 1_555
C15 C7 1_555 1_555
C16 C15 1_555 1_555
N2 C16 1_555 1_555
C17 C3 1_555 1_555
H15 C17 1_555 1_555
C18 C13 1_555 1_555
H16 C18 1_555 1_555
C4 C6 1_555 1_555
C9 C11 1_555 1_555
C10 C13 1_555 1_555
C12 C15 1_555 1_555
C17 C18 1_555 1_555

#END
