
#######################################################################
#
#                 Cambridge Crystallographic Data Centre
#                                CCDC 
#
#######################################################################
#
# If this CIF has been generated from an entry in the Cambridge 
# Structural Database, then it will include bibliographic, chemical, 
# crystal, experimental, refinement or atomic coordinate data resulting 
# from the CCDC's data processing and validation procedures.
#
#######################################################################

data_CAHZES
_chemical_formula_moiety         'C22 H20 B1 F2 N3 O1'
_chemical_name_systematic        
4,4-Difluoro-8-(5-(8-hydroxyquinoline))-1,3,5,7-tetramethyl-4-bora-3a,4a-diaza-s-indacene
_symmetry_cell_setting           triclinic
_symmetry_space_group_name_H-M   'P -1'
_symmetry_Int_Tables_number      2
_space_group_name_Hall           '-P 1'
loop_
_symmetry_equiv_pos_site_id
_symmetry_equiv_pos_as_xyz
1 x,y,z
2 -x,-y,-z
_cell_length_a                   8.8527(12)
_cell_length_b                   10.5888(15)
_cell_length_c                   11.3977(16)
_cell_angle_alpha                90.588(2)
_cell_angle_beta                 106.949(2)
_cell_angle_gamma                109.116(2)
_cell_volume                     959.021
_exptl_crystal_colour            red
_exptl_crystal_description       block
_cell_formula_units_Z            2
loop_
_atom_site_label
_atom_site_type_symbol
_atom_site_fract_x
_atom_site_fract_y
_atom_site_fract_z
O1 O 0.3382(3) 0.5926(2) 0.5292(2)
H1 H 0.4049 0.5632 0.5119
N1 N 0.4342(2) 0.37615(19) 0.60893(17)
C1 C 0.3082(3) 0.3989(2) 0.6432(2)
N2 N -0.2160(2) 0.05906(18) 0.84864(18)
C2 C 0.1371(3) 0.5372(3) 0.6338(3)
H2 H 0.1087 0.6117 0.6078
C3 C 0.0929(3) 0.3453(2) 0.7490(2)
C4 C 0.2247(3) 0.3168(2) 0.71901(19)
N3 N -0.0175(3) 0.2176(2) 1.03293(18)
C5 C 0.0028(3) 0.2600(2) 0.8284(2)
C6 C -0.1321(3) 0.1404(2) 0.7749(2)
F1 F -0.1489(3) -0.01611(17) 1.04943(16)
F2 F -0.3101(2) 0.11639(19) 1.01205(18)
C7 C 0.2808(3) 0.2100(2) 0.7626(2)
H3 H 0.2303 0.1535 0.8128
C8 C 0.0579(3) 0.3000(2) 0.9551(2)
C9 C 0.1950(4) 0.3936(3) 1.1509(3)
H4 H 0.2702 0.4506 1.2212
C10 C -0.3389(3) -0.0484(2) 0.7756(3)
C11 C -0.2095(3) 0.0785(2) 0.6507(2)
C12 C 0.0523(3) 0.4541(2) 0.7058(2)
H5 H -0.0338 0.4731 0.7248
C13 C 0.4091(3) 0.1903(2) 0.7306(2)
H6 H 0.4484 0.1216 0.7601
C14 C 0.2617(3) 0.5104(2) 0.6011(2)
C15 C 0.4810(3) 0.2750(2) 0.6527(2)
H7 H 0.5668 0.2590 0.6305
C16 C 0.0658(4) 0.2733(3) 1.1500(2)
C17 C -0.3378(3) -0.0388(3) 0.6535(3)
H8 H -0.4107 -0.1005 0.5856
C18 C 0.1930(3) 0.4140(3) 1.0308(2)
B1 B -0.1765(4) 0.0905(3) 0.9891(3)
C19 C 0.3051(4) 0.5355(3) 0.9943(3)
H9 H 0.2798 0.5268 0.9061
H10 H 0.4205 0.5436 1.0324
H11 H 0.2872 0.6142 1.0209
C20 C -0.1683(4) 0.1240(3) 0.5358(2)
H12 H -0.0749 0.2073 0.5566
H13 H -0.2643 0.1369 0.4784
H14 H -0.1395 0.0569 0.4989
C21 C -0.4546(4) -0.1585(3) 0.8223(3)
H15 H -0.4268 -0.1395 0.9101
H16 H -0.4425 -0.2426 0.8036
H17 H -0.5688 -0.1640 0.7832
C22 C 0.0233(5) 0.2118(4) 1.2592(3)
H18 H -0.0709 0.1294 1.2314
H19 H -0.0049 0.2732 1.3043
H20 H 0.1184 0.1935 1.3120
loop_
_geom_bond_atom_site_label_1
_geom_bond_atom_site_label_2
_geom_bond_site_symmetry_1
_geom_bond_site_symmetry_2
O1 H1 1_555 1_555
N1 C1 1_555 1_555
C1 C4 1_555 1_555
N2 C6 1_555 1_555
C2 H2 1_555 1_555
C3 C4 1_555 1_555
C4 C7 1_555 1_555
N3 C8 1_555 1_555
C5 C3 1_555 1_555
C6 C5 1_555 1_555
F1 B1 1_555 1_555
F2 B1 1_555 1_555
C7 H3 1_555 1_555
C8 C5 1_555 1_555
C9 H4 1_555 1_555
C10 N2 1_555 1_555
C11 C6 1_555 1_555
C12 C2 1_555 1_555
H5 C12 1_555 1_555
C13 C7 1_555 1_555
H6 C13 1_555 1_555
C14 O1 1_555 1_555
C15 N1 1_555 1_555
H7 C15 1_555 1_555
C16 N3 1_555 1_555
C17 C10 1_555 1_555
H8 C17 1_555 1_555
C18 C8 1_555 1_555
B1 N2 1_555 1_555
C19 C18 1_555 1_555
H9 C19 1_555 1_555
H10 C19 1_555 1_555
H11 C19 1_555 1_555
C20 C11 1_555 1_555
H12 C20 1_555 1_555
H13 C20 1_555 1_555
H14 C20 1_555 1_555
C21 C10 1_555 1_555
H15 C21 1_555 1_555
H16 C21 1_555 1_555
H17 C21 1_555 1_555
C22 C16 1_555 1_555
H18 C22 1_555 1_555
H19 C22 1_555 1_555
H20 C22 1_555 1_555
C1 C14 1_555 1_555
C2 C14 1_555 1_555
C3 C12 1_555 1_555
N3 B1 1_555 1_555
C9 C16 1_555 1_555
C9 C18 1_555 1_555
C11 C17 1_555 1_555
C13 C15 1_555 1_555

#END
