
#######################################################################
#
#                 Cambridge Crystallographic Data Centre
#                                CCDC 
#
#######################################################################
#
# If this CIF has been generated from an entry in the Cambridge 
# Structural Database, then it will include bibliographic, chemical, 
# crystal, experimental, refinement or atomic coordinate data resulting 
# from the CCDC's data processing and validation procedures.
#
#######################################################################

data_CAHZAO
_chemical_formula_moiety         'C20 H16 B1 F2 N3 O1'
_chemical_name_systematic        
4,4-Difluoro-8-(5-(8-hydroxyquinoline))-3,5-dimethyl-4-bora-3a,4a-diaza-s-indacene
_symmetry_cell_setting           orthorhombic
_symmetry_space_group_name_H-M   'P b c a'
_symmetry_Int_Tables_number      61
_space_group_name_Hall           '-P 2ac 2ab'
loop_
_symmetry_equiv_pos_site_id
_symmetry_equiv_pos_as_xyz
1 x,y,z
2 1/2-x,-y,1/2+z
3 1/2+x,1/2-y,-z
4 -x,1/2+y,1/2-z
5 -x,-y,-z
6 1/2+x,y,1/2-z
7 1/2-x,1/2+y,z
8 x,1/2-y,1/2+z
_cell_length_a                   6.7062(4)
_cell_length_b                   23.8749(15)
_cell_length_c                   42.484(3)
_cell_angle_alpha                90
_cell_angle_beta                 90
_cell_angle_gamma                90
_cell_volume                     6802.11
_exptl_crystal_colour            red
_exptl_crystal_description       block
_cell_formula_units_Z            16
loop_
_atom_site_label
_atom_site_type_symbol
_atom_site_fract_x
_atom_site_fract_y
_atom_site_fract_z
F1 F 0.9400(6) 1.05869(15) 0.90159(9)
F2 F 0.7626(6) 1.07936(12) 0.94552(9)
N1 N 0.6671(6) 0.99867(15) 0.91575(10)
N2 N 0.9821(6) 0.99992(16) 0.94706(10)
N3 N 0.9453(7) 0.7108(2) 0.93395(12)
O1 O 0.6210(7) 0.68672(17) 0.96795(12)
H1 H 0.7065 0.6671 0.9596
B1 B 0.8385(10) 1.0370(2) 0.92725(15)
C1 C 0.4872(11) 1.0697(2) 0.88303(15)
H4 H 0.5933 1.0934 0.8903
H5 H 0.3615 1.0849 0.8897
H6 H 0.4907 1.0677 0.8605
C2 C 0.5126(9) 1.0119(2) 0.89657(12)
C3 C 0.3916(9) 0.9657(2) 0.89184(13)
H7 H 0.2754 0.9646 0.8799
C4 C 0.4750(8) 0.9213(2) 0.90810(12)
H8 H 0.4264 0.8849 0.9089
C5 C 0.6476(8) 0.94178(19) 0.92322(12)
C6 C 0.7869(8) 0.91474(19) 0.94209(11)
C7 C 0.9495(8) 0.94325(19) 0.95427(12)
C8 C 1.1033(8) 0.9262(2) 0.97473(12)
H9 H 1.1200 0.8907 0.9834
C9 C 1.2236(8) 0.9719(2) 0.97948(13)
H10 H 1.3369 0.9729 0.9921
C10 C 1.1466(8) 1.0168(2) 0.96203(13)
C11 C 1.2274(9) 1.0748(2) 0.96002(15)
H11 H 1.1446 1.0968 0.9463
H12 H 1.3607 1.0736 0.9518
H13 H 1.2289 1.0913 0.9806
C12 C 0.7477(8) 0.8537(2) 0.95013(12)
C13 C 0.5798(8) 0.8378(2) 0.96706(13)
H14 H 0.4935 0.8653 0.9744
C14 C 0.5366(10) 0.7815(2) 0.97334(15)
H15 H 0.4247 0.7723 0.9852
C15 C 0.6588(9) 0.7400(2) 0.96209(13)
C16 C 0.8302(9) 0.7546(2) 0.94467(12)
C17 C 1.1036(10) 0.7236(3) 0.91716(16)
H16 H 1.1845 0.6944 0.9102
C18 C 1.1574(10) 0.7781(2) 0.90912(15)
H17 H 1.2696 0.7846 0.8968
C19 C 1.0430(8) 0.8225(2) 0.91965(12)
H18 H 1.0768 0.8590 0.9143
C20 C 0.8780(8) 0.8122(2) 0.93823(12)
F3 F 0.1337(6) 0.67087(14) 0.84341(8)
F4 F 0.3115(5) 0.66714(13) 0.79836(8)
N4 N 0.3712(6) 0.74391(15) 0.83373(9)
N5 N 0.0555(6) 0.73711(15) 0.80307(9)
N6 N 0.358(3) 1.0248(5) 0.7904(4)
O2 O 0.0273(13) 1.0603(3) 0.81914(19)
H2 H 0.1141 1.0777 0.8097
B2 B 0.2194(9) 0.7025(2) 0.81995(14)
C21 C 0.5887(10) 0.6751(3) 0.86120(16)
H19 H 0.5393 0.6682 0.8821
H20 H 0.7312 0.6714 0.8611
H21 H 0.5314 0.6484 0.8469
C22 C 0.5335(8) 0.7320(2) 0.85137(12)
C23 C 0.6292(8) 0.7821(2) 0.85968(13)
H22 H 0.7453 0.7855 0.8715
C24 C 0.5205(9) 0.8249(2) 0.84719(13)
H23 H 0.5487 0.8629 0.8493
C25 C 0.3602(8) 0.80222(19) 0.83078(12)
C26 C 0.2005(9) 0.8269(2) 0.81512(13)
C27 C 0.0536(8) 0.79535(19) 0.80098(12)
C28 C -0.1135(8) 0.8110(2) 0.78281(12)
H24 H -0.1509 0.8473 0.7776
C29 C -0.2103(8) 0.7630(2) 0.77424(13)
H25 H -0.3261 0.7607 0.7623
C30 C -0.1029(8) 0.7175(2) 0.78680(12)
C31 C -0.1491(10) 0.6572(2) 0.78323(15)
H26 H -0.0738 0.6421 0.7660
H27 H -0.2890 0.6526 0.7791
H28 H -0.1145 0.6377 0.8022
C32 C 0.1524(15) 0.8902(4) 0.8174(2)
C33 C -0.015(15) 0.911(6) 0.833(3)
H29 H -0.1012 0.8859 0.8424
C34 C -0.0564(16) 0.9681(4) 0.8335(2)
H30 H -0.1689 0.9813 0.8440
C35 C 0.070(4) 1.0047(7) 0.8188(7)
C36 C 0.241(3) 0.9850(15) 0.8042(8)
C37 C 0.5275(14) 1.0077(3) 0.7752(2)
H31 H 0.6109 1.0344 0.7662
C38 C 0.5773(17) 0.9514(4) 0.7730(2)
H32 H 0.6939 0.9405 0.7629
C39 C 0.453(15) 0.912(6) 0.786(3)
H33 H 0.4827 0.8741 0.7834
C40 C 0.2843(13) 0.9278(4) 0.80272(18)
N7? N 0.043(6) 1.0270(11) 0.8168(9)
O3? O 0.368(3) 1.0553(6) 0.7832(4)
H3? H 0.2801 1.0746 0.7910
C41? C 0.264(3) 0.8890(8) 0.8044(4)
C42? C 0.43(3) 0.905(11) 0.788(6)
H34? H 0.5276 0.8778 0.7826
C43? C 0.466(3) 0.9601(8) 0.7801(5)
H35? H 0.5742 0.9698 0.7674
C44? C 0.337(7) 1.0008(13) 0.7909(11)
C45? C 0.167(6) 0.985(3) 0.8072(16)
C46? C -0.119(3) 1.0135(7) 0.8352(4)
H36? H -0.2059 1.0417 0.8414
C47? C -0.156(3) 0.9589(7) 0.8445(5)
H37? H -0.2628 0.9507 0.8577
C48? C -0.03(3) 0.916(12) 0.834(6)
H38? H -0.0540 0.8795 0.8399
C49? C 0.130(3) 0.9293(8) 0.8145(4)
loop_
_geom_bond_atom_site_label_1
_geom_bond_atom_site_label_2
_geom_bond_site_symmetry_1
_geom_bond_site_symmetry_2
F1 B1 1_555 1_555
F2 B1 1_555 1_555
F3 B2 1_555 1_555
F4 B2 1_555 1_555
N1 B1 1_555 1_555
N2 B1 1_555 1_555
N3 C16 1_555 1_555
N4 B2 1_555 1_555
N5 B2 1_555 1_555
N6 C36 1_555 1_555
O1 H1 1_555 1_555
O2 H2 1_555 1_555
C1 H4 1_555 1_555
H5 C1 1_555 1_555
H6 C1 1_555 1_555
C2 N1 1_555 1_555
C3 C2 1_555 1_555
H7 C3 1_555 1_555
C4 C3 1_555 1_555
H8 C4 1_555 1_555
C5 N1 1_555 1_555
C6 C5 1_555 1_555
C7 N2 1_555 1_555
C8 C7 1_555 1_555
H9 C8 1_555 1_555
C9 C8 1_555 1_555
H10 C9 1_555 1_555
C10 N2 1_555 1_555
C11 C10 1_555 1_555
H11 C11 1_555 1_555
H12 C11 1_555 1_555
H13 C11 1_555 1_555
C12 C6 1_555 1_555
C13 C12 1_555 1_555
H14 C13 1_555 1_555
C14 C13 1_555 1_555
H15 C14 1_555 1_555
C15 O1 1_555 1_555
C16 C15 1_555 1_555
C17 N3 1_555 1_555
H16 C17 1_555 1_555
C18 C17 1_555 1_555
H17 C18 1_555 1_555
C19 C18 1_555 1_555
H18 C19 1_555 1_555
C20 C12 1_555 1_555
C21 H19 1_555 1_555
H20 C21 1_555 1_555
H21 C21 1_555 1_555
C22 N4 1_555 1_555
C23 C22 1_555 1_555
H22 C23 1_555 1_555
C24 C23 1_555 1_555
H23 C24 1_555 1_555
C25 N4 1_555 1_555
C26 C25 1_555 1_555
C27 N5 1_555 1_555
C28 C27 1_555 1_555
H24 C28 1_555 1_555
C29 C28 1_555 1_555
H25 C29 1_555 1_555
C30 N5 1_555 1_555
C31 C30 1_555 1_555
H26 C31 1_555 1_555
H27 C31 1_555 1_555
H28 C31 1_555 1_555
C32 C26 1_555 1_555
C33 C32 1_555 1_555
H29 C33 1_555 1_555
C34 C33 1_555 1_555
H30 C34 1_555 1_555
C35 O2 1_555 1_555
C36 C35 1_555 1_555
C37 N6 1_555 1_555
H31 C37 1_555 1_555
C38 C37 1_555 1_555
H32 C38 1_555 1_555
C39 C38 1_555 1_555
H33 C39 1_555 1_555
C40 C32 1_555 1_555
C1 C2 1_555 1_555
C4 C5 1_555 1_555
C6 C7 1_555 1_555
C9 C10 1_555 1_555
C14 C15 1_555 1_555
C16 C20 1_555 1_555
C19 C20 1_555 1_555
C21 C22 1_555 1_555
C24 C25 1_555 1_555
C26 C27 1_555 1_555
C29 C30 1_555 1_555
C34 C35 1_555 1_555
C36 C40 1_555 1_555
C39 C40 1_555 1_555

#END
