
#######################################################################
#
#                 Cambridge Crystallographic Data Centre
#                                CCDC 
#
#######################################################################
#
# If this CIF has been generated from an entry in the Cambridge 
# Structural Database, then it will include bibliographic, chemical, 
# crystal, experimental, refinement or atomic coordinate data resulting 
# from the CCDC's data processing and validation procedures.
#
#######################################################################

data_CAJCAU
_chemical_formula_moiety         'C18 H18 O4'
_chemical_name_systematic        
'3-methoxy-2-(2-((2-methylphenoxy)methyl)phenyl)acrylic acid'
_symmetry_cell_setting           triclinic
_symmetry_space_group_name_H-M   'P -1'
_symmetry_Int_Tables_number      2
_space_group_name_Hall           '-P 1'
loop_
_symmetry_equiv_pos_site_id
_symmetry_equiv_pos_as_xyz
1 x,y,z
2 -x,-y,-z
_cell_length_a                   7.889(5)
_cell_length_b                   8.561(5)
_cell_length_c                   12.581(5)
_cell_angle_alpha                87.975(5)
_cell_angle_beta                 82.295(5)
_cell_angle_gamma                65.684(5)
_cell_volume                     767.138
_exptl_crystal_colour            yellow
_exptl_crystal_description       block
_cell_formula_units_Z            2
loop_
_atom_site_label
_atom_site_type_symbol
_atom_site_fract_x
_atom_site_fract_y
_atom_site_fract_z
H1 H 0.606(6) 0.551(5) 0.493(3)
O1 O 0.7058(2) 0.3416(2) 0.17048(13)
O2 O 0.5842(2) 0.3074(2) 0.44445(16)
C1 C 1.0421(3) 0.2338(2) 0.35693(15)
H2 H 1.0456 0.3289 0.3885
O3 O 1.1968(2) 0.1052(2) 0.30190(16)
C2 C 0.8946(3) 0.2078(3) 0.35968(17)
O4 O 0.7341(3) 0.4756(2) 0.45083(17)
C3 C 0.8636(3) 0.0452(3) 0.20612(18)
C4 C 0.8815(3) 0.0551(3) 0.31406(18)
C5 C 0.6680(3) 0.4816(3) 0.10591(19)
C6 C 0.7230(3) 0.3370(3) 0.42206(18)
C7 C 0.8591(3) 0.1855(3) 0.13129(19)
H3 H 0.9761 0.1988 0.1266
H4 H 0.8438 0.1575 0.0602
C8 C 0.8513(3) -0.1002(3) 0.1693(2)
H5 H 0.8370 -0.1078 0.0977
C9 C 0.8865(3) -0.0772(3) 0.3811(2)
H6 H 0.8959 -0.0687 0.4534
C10 C 0.5104(3) 0.6293(3) 0.1435(2)
C11 C 0.7742(4) 0.4812(3) 0.0094(2)
H7 H 0.8795 0.3828 -0.0145
C12 C 0.4658(4) 0.7718(3) 0.0802(2)
H8 H 0.3614 0.8712 0.1038
C13 C 0.8776(4) -0.2224(3) 0.3422(3)
H9 H 0.8836 -0.3121 0.3877
C14 C 0.7248(4) 0.6266(4) -0.0519(2)
H10 H 0.7964 0.6256 -0.1171
C15 C 0.5700(4) 0.7726(4) -0.0167(3)
H11 H 0.5360 0.8706 -0.0578
C16 C 0.8600(4) -0.2330(3) 0.2359(3)
H12 H 0.8539 -0.3301 0.2090
C17 C 0.3951(4) 0.6317(4) 0.2483(3)
H13 H 0.3674 0.5323 0.2522
H14 H 0.2801 0.7333 0.2541
H15 H 0.4637 0.6311 0.3060
C18 C 1.3628(4) 0.1251(5) 0.3192(3)
H16 H 1.3525 0.2367 0.2968
H17 H 1.4701 0.0390 0.2782
H18 H 1.3770 0.1131 0.3940
loop_
_geom_bond_atom_site_label_1
_geom_bond_atom_site_label_2
_geom_bond_site_symmetry_1
_geom_bond_site_symmetry_2
H1 O4 1_555 1_555
O1 C5 1_555 1_555
O2 C6 1_555 1_555
C1 H2 1_555 1_555
O3 C1 1_555 1_555
C2 C1 1_555 1_555
O4 C6 1_555 1_555
C3 C4 1_555 1_555
C4 C2 1_555 1_555
C5 C10 1_555 1_555
C6 C2 1_555 1_555
C7 O1 1_555 1_555
H3 C7 1_555 1_555
H4 C7 1_555 1_555
C8 C3 1_555 1_555
H5 C8 1_555 1_555
C9 C4 1_555 1_555
H6 C9 1_555 1_555
C10 C12 1_555 1_555
C11 C5 1_555 1_555
H7 C11 1_555 1_555
C12 H8 1_555 1_555
C13 C9 1_555 1_555
H9 C13 1_555 1_555
C14 C11 1_555 1_555
H10 C14 1_555 1_555
C15 C12 1_555 1_555
H11 C15 1_555 1_555
C16 C8 1_555 1_555
H12 C16 1_555 1_555
C17 C10 1_555 1_555
H13 C17 1_555 1_555
H14 C17 1_555 1_555
H15 C17 1_555 1_555
C18 O3 1_555 1_555
H16 C18 1_555 1_555
H17 C18 1_555 1_555
H18 C18 1_555 1_555
C3 C7 1_555 1_555
C13 C16 1_555 1_555
C14 C15 1_555 1_555

#END
