
#######################################################################
#
#                 Cambridge Crystallographic Data Centre
#                                CCDC 
#
#######################################################################
#
# If this CIF has been generated from an entry in the Cambridge 
# Structural Database, then it will include bibliographic, chemical, 
# crystal, experimental, refinement or atomic coordinate data resulting 
# from the CCDC's data processing and validation procedures.
#
#######################################################################

data_CAJGOL
_chemical_formula_moiety         'C22 H27 N1 O1'
_chemical_name_systematic        
3-(4-Methylenedecahydro-3H-cyclohepta[1,6]benzo[1,2-c]furan-3-yl)-1H-indole
_symmetry_cell_setting           monoclinic
_symmetry_space_group_name_H-M   'C 2/c'
_symmetry_Int_Tables_number      15
_space_group_name_Hall           '-C 2yn'
loop_
_symmetry_equiv_pos_site_id
_symmetry_equiv_pos_as_xyz
1 x,y,z
2 -x,y,1/2-z
3 1/2+x,1/2+y,z
4 1/2-x,1/2+y,1/2-z
5 -x,-y,-z
6 x,-y,1/2+z
7 1/2-x,1/2-y,-z
8 1/2+x,1/2-y,1/2+z
_cell_length_a                   20.741(4)
_cell_length_b                   6.7355(13)
_cell_length_c                   26.237(5)
_cell_angle_alpha                90
_cell_angle_beta                 101.57(3)
_cell_angle_gamma                90
_cell_volume                     3590.86
_cell_formula_units_Z            8
loop_
_atom_site_label
_atom_site_type_symbol
_atom_site_fract_x
_atom_site_fract_y
_atom_site_fract_z
C1 C 0.13222(13) 0.1909(5) 0.30505(9)
H1 H 0.0898 0.2582 0.2941
C2 C 0.12327(13) 0.0202(5) 0.34126(9)
H2 H 0.1608 -0.0699 0.3433
C3 C 0.06126(16) -0.1006(5) 0.32570(11)
C4 C 0.06357(17) -0.2898(6) 0.31344(11)
H3 H 0.0251 -0.3644 0.3063
H4 H 0.1037 -0.3487 0.3119
C5 C -0.00184(13) 0.0045(5) 0.32888(11)
H5 H -0.0383 -0.0884 0.3219
H6 H -0.0102 0.1093 0.3030
C6 C 0.00408(14) 0.0929(5) 0.38342(12)
H7 H 0.0080 -0.0139 0.4086
H8 H -0.0356 0.1669 0.3850
C7 C 0.06412(15) 0.2317(5) 0.39790(10)
H9 H 0.0585 0.3316 0.3702
C8 C 0.06409(16) 0.3494(5) 0.44843(11)
H10 H 0.1027 0.4342 0.4547
H11 H 0.0258 0.4356 0.4423
C9 C 0.06360(18) 0.2337(7) 0.49769(12)
H12 H 0.0617 0.3313 0.5245
H13 H 0.0221 0.1627 0.4919
C10 C 0.1143(3) 0.0899(12) 0.52073(17)
H14 H 0.0924 -0.0359 0.5233
H15 H 0.1322 0.1333 0.5560
C11 C 0.17080(16) 0.0506(7) 0.49510(11)
H16 H 0.1994 -0.0460 0.5158
H17 H 0.1957 0.1725 0.4952
C12 C 0.15283(15) -0.0257(5) 0.43922(10)
H18 H 0.1184 -0.1243 0.4378
H19 H 0.1911 -0.0937 0.4317
C13 C 0.12956(14) 0.1238(5) 0.39522(10)
C14 C 0.18290(14) 0.2773(5) 0.39077(10)
H20 H 0.1771 0.3954 0.4105
H21 H 0.2261 0.2228 0.4046
C15 C 0.15819(12) 0.1379(5) 0.25750(10)
C16 C 0.19367(13) -0.0262(5) 0.25017(10)
H22 H 0.2052 -0.1285 0.2741
C17 C 0.15262(12) 0.2581(5) 0.21161(10)
C18 C 0.12443(14) 0.4396(5) 0.19614(11)
H23 H 0.1022 0.5103 0.2177
C19 C 0.12968(15) 0.5152(6) 0.14794(11)
H24 H 0.1110 0.6375 0.1373
C20 C 0.16276(16) 0.4094(6) 0.11533(12)
H25 H 0.1651 0.4623 0.0830
C21 C 0.19187(14) 0.2299(6) 0.12959(11)
H26 H 0.2142 0.1605 0.1079
C22 C 0.18648(13) 0.1568(5) 0.17777(11)
N1 N 0.20993(13) -0.0169(5) 0.20159(10)
O1 O 0.17740(9) 0.3264(3) 0.33719(7)
H27 H 0.2381(12) -0.089(4) 0.1908(10)
C23? C 0.1412(5) 0.225(3) 0.5117(9)
H28? H 0.1582 0.3400 0.4965
H29? H 0.1550 0.2361 0.5492
loop_
_geom_bond_atom_site_label_1
_geom_bond_atom_site_label_2
_geom_bond_site_symmetry_1
_geom_bond_site_symmetry_2
C1 H1 1_555 1_555
C2 C1 1_555 1_555
H2 C2 1_555 1_555
C3 C2 1_555 1_555
C4 C3 1_555 1_555
H3 C4 1_555 1_555
H4 C4 1_555 1_555
C5 C3 1_555 1_555
H5 C5 1_555 1_555
H6 C5 1_555 1_555
C6 C5 1_555 1_555
H7 C6 1_555 1_555
H8 C6 1_555 1_555
C7 C6 1_555 1_555
H9 C7 1_555 1_555
C8 C7 1_555 1_555
H10 C8 1_555 1_555
H11 C8 1_555 1_555
C9 C8 1_555 1_555
H12 C9 1_555 1_555
H13 C9 1_555 1_555
C10 C9 1_555 1_555
H14 C10 1_555 1_555
H15 C10 1_555 1_555
C11 C10 1_555 1_555
H16 C11 1_555 1_555
H17 C11 1_555 1_555
C12 C11 1_555 1_555
H18 C12 1_555 1_555
H19 C12 1_555 1_555
C13 C2 1_555 1_555
C14 C13 1_555 1_555
H20 C14 1_555 1_555
H21 C14 1_555 1_555
C15 C1 1_555 1_555
C16 C15 1_555 1_555
H22 C16 1_555 1_555
C17 C15 1_555 1_555
C18 C17 1_555 1_555
H23 C18 1_555 1_555
C19 C18 1_555 1_555
H24 C19 1_555 1_555
C20 C19 1_555 1_555
H25 C20 1_555 1_555
C21 C20 1_555 1_555
H26 C21 1_555 1_555
C22 C17 1_555 1_555
N1 C16 1_555 1_555
O1 C1 1_555 1_555
H27 N1 1_555 1_555
C7 C13 1_555 1_555
C12 C13 1_555 1_555
C14 O1 1_555 1_555
C21 C22 1_555 1_555
C22 N1 1_555 1_555

#END
