
#######################################################################
#
#                 Cambridge Crystallographic Data Centre
#                                CCDC 
#
#######################################################################
#
# If this CIF has been generated from an entry in the Cambridge 
# Structural Database, then it will include bibliographic, chemical, 
# crystal, experimental, refinement or atomic coordinate data resulting 
# from the CCDC's data processing and validation procedures.
#
#######################################################################

data_CAJJOP
_chemical_formula_moiety         'C28 H21 N1 O3'
_chemical_name_systematic        
'ethyl 1-benzoyl-2-phenylpyrrolo[2,1-a]isoquinoline-3-carboxylate'
_symmetry_cell_setting           triclinic
_symmetry_space_group_name_H-M   'P -1'
_symmetry_Int_Tables_number      2
_space_group_name_Hall           '-P 1'
loop_
_symmetry_equiv_pos_site_id
_symmetry_equiv_pos_as_xyz
1 x,y,z
2 -x,-y,-z
_cell_length_a                   9.0874(18)
_cell_length_b                   11.029(2)
_cell_length_c                   11.300(2)
_cell_angle_alpha                77.83(3)
_cell_angle_beta                 81.05(3)
_cell_angle_gamma                77.29(3)
_cell_volume                     1072.86
_exptl_crystal_colour            colorless
_exptl_crystal_description       block
_cell_formula_units_Z            2
_chemical_properties_physical    Air-sensitive
loop_
_atom_site_label
_atom_site_type_symbol
_atom_site_fract_x
_atom_site_fract_y
_atom_site_fract_z
N1 N 1.02251(13) 0.50172(10) 0.74771(10)
O1 O 1.27114(13) 0.36368(10) 0.50792(10)
C1 C 0.82962(15) 0.51434(13) 0.92327(12)
C2 C 1.04689(15) 0.30436(12) 0.71219(12)
C3 C 0.92332(15) 0.44304(12) 0.83572(12)
C4 C 1.09904(15) 0.41793(13) 0.67113(12)
C5 C 0.75371(15) 0.17234(12) 0.82323(12)
O2 O 0.87292(15) 0.17803(11) 0.99217(10)
C6 C 0.85661(16) 0.21966(12) 0.88520(12)
C7 C 1.09930(15) 0.18199(13) 0.67011(12)
C8 C 0.93795(15) 0.32036(12) 0.81392(12)
C9 C 1.03890(18) 0.62528(13) 0.74548(15)
H1 H 1.1067 0.6623 0.6860
C10 C 0.85047(17) 0.63831(14) 0.92040(14)
C11 C 1.14606(16) 0.07351(13) 0.75433(13)
H2 H 1.1455 0.0797 0.8352
C12 C 0.70960(16) 0.23343(14) 0.71078(13)
H3 H 0.7487 0.3040 0.6699
C13 C 1.21341(17) 0.45463(14) 0.57213(14)
O3 O 1.25280(17) 0.55534(12) 0.54756(13)
C14 C 1.19329(18) -0.04323(15) 0.71970(15)
H4 H 1.2236 -0.1148 0.7772
C15 C 1.09915(17) 0.16888(15) 0.55038(13)
H5 H 1.0654 0.2394 0.4929
C16 C 0.95758(19) 0.68991(14) 0.82837(16)
H6 H 0.9710 0.7716 0.8263
C17 C 0.60784(18) 0.19056(17) 0.65847(16)
H7 H 0.5773 0.2332 0.5834
C18 C 0.72003(19) 0.46652(16) 1.01138(15)
H8 H 0.7035 0.3856 1.0142
C19 C 1.14848(19) 0.05235(17) 0.51599(16)
H9 H 1.1500 0.0453 0.4352
C20 C 1.19550(19) -0.05362(16) 0.60083(17)
H10 H 1.2286 -0.1319 0.5773
C21 C 1.3740(2) 0.39262(17) 0.39962(15)
H11 H 1.4645 0.4120 0.4209
H12 H 1.3256 0.4652 0.3446
C22 C 0.6945(2) 0.06655(15) 0.88201(17)
H13 H 0.7225 0.0246 0.9580
C23 C 0.5519(2) 0.0854(2) 0.7170(2)
H14 H 0.4847 0.0558 0.6810
C24 C 0.7650(2) 0.70748(16) 1.00736(17)
H15 H 0.7801 0.7883 1.0068
C25 C 0.6369(2) 0.53805(19) 1.09348(18)
H16 H 0.5636 0.5052 1.1506
C26 C 1.4146(2) 0.27923(19) 0.34033(17)
H17 H 1.4828 0.2956 0.2676
H18 H 1.3242 0.2609 0.3199
H19 H 1.4629 0.2082 0.3954
C27 C 0.6599(2) 0.65776(19) 1.09289(18)
H20 H 0.6043 0.7043 1.1503
C28 C 0.5948(2) 0.02346(19) 0.8285(2)
H21 H 0.5564 -0.0479 0.8681
loop_
_geom_bond_atom_site_label_1
_geom_bond_atom_site_label_2
_geom_bond_site_symmetry_1
_geom_bond_site_symmetry_2
N1 C3 1_555 1_555
O1 C13 1_555 1_555
C1 C3 1_555 1_555
C2 C4 1_555 1_555
C3 C8 1_555 1_555
C4 N1 1_555 1_555
C5 C6 1_555 1_555
O2 C6 1_555 1_555
C6 C8 1_555 1_555
C7 C2 1_555 1_555
C8 C2 1_555 1_555
C9 N1 1_555 1_555
H1 C9 1_555 1_555
C10 C1 1_555 1_555
C11 C7 1_555 1_555
H2 C11 1_555 1_555
C12 C5 1_555 1_555
H3 C12 1_555 1_555
C13 C4 1_555 1_555
O3 C13 1_555 1_555
C14 C11 1_555 1_555
H4 C14 1_555 1_555
C15 C7 1_555 1_555
H5 C15 1_555 1_555
C16 C9 1_555 1_555
H6 C16 1_555 1_555
C17 C12 1_555 1_555
H7 C17 1_555 1_555
C18 C1 1_555 1_555
H8 C18 1_555 1_555
C19 C15 1_555 1_555
H9 C19 1_555 1_555
C20 C14 1_555 1_555
H10 C20 1_555 1_555
C21 O1 1_555 1_555
H11 C21 1_555 1_555
H12 C21 1_555 1_555
C22 C5 1_555 1_555
H13 C22 1_555 1_555
C23 C17 1_555 1_555
H14 C23 1_555 1_555
C24 C10 1_555 1_555
H15 C24 1_555 1_555
C25 C18 1_555 1_555
H16 C25 1_555 1_555
C26 C21 1_555 1_555
H17 C26 1_555 1_555
H18 C26 1_555 1_555
H19 C26 1_555 1_555
C27 C24 1_555 1_555
H20 C27 1_555 1_555
C28 C22 1_555 1_555
H21 C28 1_555 1_555
C10 C16 1_555 1_555
C19 C20 1_555 1_555
C23 C28 1_555 1_555
C25 C27 1_555 1_555

#END
