
#######################################################################
#
#                 Cambridge Crystallographic Data Centre
#                                CCDC 
#
#######################################################################
#
# If this CIF has been generated from an entry in the Cambridge 
# Structural Database, then it will include bibliographic, chemical, 
# crystal, experimental, refinement or atomic coordinate data resulting 
# from the CCDC's data processing and validation procedures.
#
#######################################################################

data_CAJSOY
_chemical_formula_moiety         'C32 H36 N2'
_chemical_name_systematic        
4,4'-Octa-1,3,5,7-tetrayne-1,8-diylbis(N,N-diisopropylaniline)
_symmetry_cell_setting           triclinic
_symmetry_space_group_name_H-M   'P -1'
_symmetry_Int_Tables_number      2
_space_group_name_Hall           '-P 1'
loop_
_symmetry_equiv_pos_site_id
_symmetry_equiv_pos_as_xyz
1 x,y,z
2 -x,-y,-z
_cell_length_a                   11.1445(7)
_cell_length_b                   11.8651(8)
_cell_length_c                   12.2963(8)
_cell_angle_alpha                62.511(3)
_cell_angle_beta                 72.385(3)
_cell_angle_gamma                64.665(3)
_cell_volume                     1292.4
_exptl_crystal_colour            black
_exptl_crystal_description       prism
_cell_formula_units_Z            2
loop_
_atom_site_label
_atom_site_type_symbol
_atom_site_fract_x
_atom_site_fract_y
_atom_site_fract_z
N1 N 0.57338(13) 0.16030(14) 1.00969(12)
N2 N -0.19614(14) 1.73650(15) -0.48030(13)
C1 C 0.32279(17) 0.63361(17) 0.62477(16)
C2 C 0.26597(17) 0.73672(17) 0.54527(16)
C3 C 0.20674(17) 0.85283(18) 0.45406(16)
C4 C 0.15528(17) 0.95634(18) 0.37122(17)
C5 C 0.09756(18) 1.06611(18) 0.27550(17)
C6 C 0.04733(18) 1.15955(18) 0.18575(17)
C7 C -0.00506(18) 1.25974(18) 0.08183(17)
C8 C -0.04630(18) 1.34362(18) -0.01452(17)
C9 C 0.38856(16) 0.51456(16) 0.72035(16)
C10 C 0.33586(17) 0.49076(17) 0.84464(16)
H1 H 0.257(2) 0.5529(19) 0.8666(17)
C11 C 0.39674(17) 0.37675(17) 0.93774(17)
H2 H 0.3553(19) 0.3660(18) 1.0178(19)
C12 C 0.51653(16) 0.27707(16) 0.91476(15)
C13 C 0.57034(17) 0.30300(17) 0.78951(16)
H3 H 0.6533(19) 0.2409(18) 0.7692(16)
C14 C 0.50741(17) 0.41754(18) 0.69567(17)
H4 H 0.5471(19) 0.4324(19) 0.6071(19)
C15 C 0.54676(18) 0.15149(17) 1.13822(16)
H5 H 0.6178(17) 0.0699(17) 1.1789(15)
C16 C 0.5688(2) 0.2639(2) 1.14923(19)
H6 H 0.565(2) 0.247(2) 1.235(2)
H7 H 0.662(2) 0.268(2) 1.1034(19)
H8 H 0.507(2) 0.348(2) 1.1163(19)
C17 C 0.4147(2) 0.1283(2) 1.20861(19)
H9 H 0.333(2) 0.205(2) 1.184(2)
H10 H 0.414(2) 0.105(2) 1.296(2)
H11 H 0.411(2) 0.045(2) 1.207(2)
C18 C 0.68932(16) 0.04992(16) 0.98369(16)
H12 H 0.6861(17) 0.0612(17) 0.9015(17)
C19 C 0.82088(18) 0.0592(2) 0.9847(2)
H13 H 0.8295(18) 0.0494(18) 1.0667(18)
H14 H 0.899(2) -0.012(2) 0.967(2)
H15 H 0.8311(19) 0.147(2) 0.9230(18)
C20 C 0.67759(19) -0.08819(18) 1.07032(18)
H16 H 0.7514(19) -0.1611(18) 1.0407(17)
H17 H 0.6913(19) -0.1148(19) 1.1571(19)
H18 H 0.590(2) -0.088(2) 1.0742(19)
C21 C -0.08737(17) 1.44394(17) -0.13011(16)
C22 C -0.01454(19) 1.5293(2) -0.20897(17)
H19 H 0.067(2) 1.520(2) -0.181(2)
C23 C -0.04910(19) 1.62346(19) -0.32246(17)
H20 H 0.007(2) 1.678(2) -0.3732(18)
C24 C -0.16099(16) 1.64090(16) -0.36648(15)
C25 C -0.23543(18) 1.55590(19) -0.28531(17)
H21 H -0.320(2) 1.569(2) -0.3094(19)
C26 C -0.19991(19) 1.46097(18) -0.17181(17)
H22 H -0.2512(18) 1.4033(18) -0.1224(16)
C27 C -0.11937(18) 1.83051(19) -0.55860(17)
H23 H -0.076(2) 1.838(2) -0.499(2)
C28 C -0.2099(2) 1.9721(2) -0.6168(2)
H24 H -0.278(2) 2.001(2) -0.552(2)
H25 H -0.154(2) 2.038(2) -0.660(2)
H26 H -0.255(3) 1.978(3) -0.686(3)
C29 C -0.0115(2) 1.7782(3) -0.6507(2)
H27 H -0.052(2) 1.774(2) -0.711(2)
H28 H 0.043(3) 1.690(3) -0.602(2)
H29 H 0.045(3) 1.848(3) -0.710(2)
C30 C -0.27975(19) 1.7306(2) -0.54802(19)
H30 H -0.2598(19) 1.795(2) -0.6394(19)
C31 C -0.4286(2) 1.7892(3) -0.5099(2)
H31 H -0.458(2) 1.722(2) -0.420(2)
H32 H -0.484(3) 1.799(2) -0.565(2)
H33 H -0.453(2) 1.876(3) -0.505(2)
C32 C -0.2383(3) 1.5929(3) -0.5532(2)
H34 H -0.259(2) 1.521(3) -0.472(2)
H35 H -0.296(2) 1.616(2) -0.610(2)
H36 H -0.126(3) 1.553(3) -0.580(3)
loop_
_geom_bond_atom_site_label_1
_geom_bond_atom_site_label_2
_geom_bond_site_symmetry_1
_geom_bond_site_symmetry_2
N1 C12 1_555 1_555
N2 C24 1_555 1_555
C1 C2 1_555 1_555
C2 C3 1_555 1_555
C3 C4 1_555 1_555
C4 C5 1_555 1_555
C5 C6 1_555 1_555
C6 C7 1_555 1_555
C7 C8 1_555 1_555
C8 C21 1_555 1_555
C9 C1 1_555 1_555
C10 C9 1_555 1_555
H1 C10 1_555 1_555
C11 C10 1_555 1_555
H2 C11 1_555 1_555
C12 C11 1_555 1_555
C13 C12 1_555 1_555
H3 C13 1_555 1_555
C14 C9 1_555 1_555
H4 C14 1_555 1_555
C15 N1 1_555 1_555
H5 C15 1_555 1_555
C16 C15 1_555 1_555
H6 C16 1_555 1_555
H7 C16 1_555 1_555
H8 C16 1_555 1_555
C17 C15 1_555 1_555
H9 C17 1_555 1_555
H10 C17 1_555 1_555
H11 C17 1_555 1_555
C18 N1 1_555 1_555
H12 C18 1_555 1_555
C19 C18 1_555 1_555
H13 C19 1_555 1_555
H14 C19 1_555 1_555
H15 C19 1_555 1_555
C20 C18 1_555 1_555
H16 C20 1_555 1_555
H17 C20 1_555 1_555
H18 C20 1_555 1_555
C21 C22 1_555 1_555
C22 H19 1_555 1_555
C23 C22 1_555 1_555
H20 C23 1_555 1_555
C24 C23 1_555 1_555
C25 C24 1_555 1_555
H21 C25 1_555 1_555
C26 C21 1_555 1_555
H22 C26 1_555 1_555
C27 N2 1_555 1_555
H23 C27 1_555 1_555
C28 C27 1_555 1_555
H24 C28 1_555 1_555
H25 C28 1_555 1_555
H26 C28 1_555 1_555
C29 C27 1_555 1_555
H27 C29 1_555 1_555
H28 C29 1_555 1_555
H29 C29 1_555 1_555
C30 N2 1_555 1_555
H30 C30 1_555 1_555
C31 C30 1_555 1_555
H31 C31 1_555 1_555
H32 C31 1_555 1_555
H33 C31 1_555 1_555
C32 C30 1_555 1_555
H34 C32 1_555 1_555
H35 C32 1_555 1_555
H36 C32 1_555 1_555
C13 C14 1_555 1_555
C25 C26 1_555 1_555

#END
