
#######################################################################
#
#                 Cambridge Crystallographic Data Centre
#                                CCDC 
#
#######################################################################
#
# If this CIF has been generated from an entry in the Cambridge 
# Structural Database, then it will include bibliographic, chemical, 
# crystal, experimental, refinement or atomic coordinate data resulting 
# from the CCDC's data processing and validation procedures.
#
#######################################################################

data_CAJSUB02
_chemical_formula_moiety         'C14 H22 N2 O8,H2 O1'
_chemical_name_systematic        
'trans-1,2-Cyclohexanediaminetetra-acetic acid monohydrate'
_symmetry_cell_setting           monoclinic
_symmetry_space_group_name_H-M   'P 21/n'
_symmetry_Int_Tables_number      14
_space_group_name_Hall           '-P 2yn'
loop_
_symmetry_equiv_pos_site_id
_symmetry_equiv_pos_as_xyz
1 x,y,z
2 1/2-x,1/2+y,1/2-z
3 -x,-y,-z
4 1/2+x,1/2-y,1/2+z
_cell_length_a                   11.548(4)
_cell_length_b                   10.753(4)
_cell_length_c                   13.306(5)
_cell_angle_alpha                90
_cell_angle_beta                 99.831(7)
_cell_angle_gamma                90
_cell_volume                     1628.02
_cell_formula_units_Z            4
loop_
_atom_site_label
_atom_site_type_symbol
_atom_site_fract_x
_atom_site_fract_y
_atom_site_fract_z
O1 O 0.8560(2) 0.1364(2) 0.37840(18)
N1 N 1.0473(2) 0.1204(3) 0.2182(2)
O2 O 0.7127(2) 0.2459(2) 0.42651(18)
O3 O 1.1323(2) 0.0308(2) 0.48033(18)
H1 H 1.1281 -0.0340 0.5120
N2 N 0.8143(2) 0.2074(3) 0.1849(2)
O4 O 0.6726(2) 0.0033(2) 0.1304(2)
O5 O 0.6486(3) 0.0529(3) -0.0353(2)
H2 H 0.6201 -0.0170 -0.0435
C1 C 0.7562(3) 0.1911(3) 0.0767(3)
H3 H 0.8153 0.1910 0.0329
H4 H 0.7035 0.2604 0.0566
O6 O 0.9207(2) -0.0617(2) 0.1121(2)
H5 H 0.8860 -0.1275 0.0974
O7 O 1.0777(3) -0.1769(3) 0.1029(2)
C2 C 1.0908(3) 0.0124(4) 0.3832(3)
C3 C 0.9154(3) 0.3011(3) 0.1974(3)
H6 H 0.9348 0.3213 0.2701
C4 C 0.8838(3) 0.4223(3) 0.1406(3)
H7 H 0.8645 0.4065 0.0679
H8 H 0.8157 0.4593 0.1626
C5 C 1.0238(3) 0.2406(3) 0.1672(3)
H9 H 1.0059 0.2243 0.0937
O8 O 1.0525(3) -0.0845(3) 0.3469(2)
C6 C 1.1270(3) 0.3327(3) 0.1850(3)
H10 H 1.1491 0.3487 0.2575
H11 H 1.1942 0.2964 0.1609
C7 C 0.7687(3) 0.2063(3) 0.3617(3)
C8 C 1.1016(3) 0.1294(3) 0.3245(3)
H12 H 1.0654 0.1971 0.3560
H13 H 1.1842 0.1492 0.3284
C9 C 0.7255(3) 0.2429(3) 0.2510(3)
H14 H 0.6514 0.2015 0.2263
H15 H 0.7120 0.3319 0.2468
C10 C 0.6879(3) 0.0714(4) 0.0626(3)
C11 C 1.1065(3) 0.0321(3) 0.1608(3)
H16 H 1.1786 0.0051 0.2037
H17 H 1.1279 0.0745 0.1023
C12 C 1.0347(4) -0.0807(4) 0.1241(3)
C13 C 0.9879(3) 0.5112(3) 0.1624(3)
H18 H 0.9685 0.5886 0.1260
H19 H 1.0048 0.5297 0.2348
C14 C 1.0943(3) 0.4540(4) 0.1296(3)
H20 H 1.1599 0.5114 0.1437
H21 H 1.0783 0.4390 0.0567
O9 O 0.5748(4) 0.8224(3) 0.9302(3)
loop_
_geom_bond_atom_site_label_1
_geom_bond_atom_site_label_2
_geom_bond_site_symmetry_1
_geom_bond_site_symmetry_2
O1 C7 1_555 1_555
N1 C5 1_555 1_555
O2 C7 1_555 1_555
O3 H1 1_555 1_555
N2 C1 1_555 1_555
O4 C10 1_555 1_555
O5 H2 1_555 1_555
C1 H3 1_555 1_555
H4 C1 1_555 1_555
O6 H5 1_555 1_555
O7 C12 1_555 1_555
C2 O3 1_555 1_555
C3 N2 1_555 1_555
H6 C3 1_555 1_555
C4 C3 1_555 1_555
H7 C4 1_555 1_555
H8 C4 1_555 1_555
C5 C3 1_555 1_555
H9 C5 1_555 1_555
O8 C2 1_555 1_555
C6 C5 1_555 1_555
H10 C6 1_555 1_555
H11 C6 1_555 1_555
C7 C9 1_555 1_555
C8 N1 1_555 1_555
H12 C8 1_555 1_555
H13 C8 1_555 1_555
C9 N2 1_555 1_555
H14 C9 1_555 1_555
H15 C9 1_555 1_555
C10 O5 1_555 1_555
C11 N1 1_555 1_555
H16 C11 1_555 1_555
H17 C11 1_555 1_555
C12 O6 1_555 1_555
C13 C4 1_555 1_555
H18 C13 1_555 1_555
H19 C13 1_555 1_555
C14 C6 1_555 1_555
H20 C14 1_555 1_555
H21 C14 1_555 1_555
C1 C10 1_555 1_555
C2 C8 1_555 1_555
C11 C12 1_555 1_555
C13 C14 1_555 1_555

#END
