
#######################################################################
#
#                 Cambridge Crystallographic Data Centre
#                                CCDC 
#
#######################################################################
#
# If this CIF has been generated from an entry in the Cambridge 
# Structural Database, then it will include bibliographic, chemical, 
# crystal, experimental, refinement or atomic coordinate data resulting 
# from the CCDC's data processing and validation procedures.
#
#######################################################################

data_CAJTOZ
_chemical_formula_moiety         'C27 H35 N1 O4 S1'
_chemical_name_systematic        
'2-Isobutyl-5-(4-methylphenyl)-1-((4-methylphenyl)sulfonyl)-2,5-dihydro-1H-pyrrol-3-yl pivalate'
_symmetry_cell_setting           monoclinic
_symmetry_space_group_name_H-M   'P 21/n'
_symmetry_Int_Tables_number      14
_space_group_name_Hall           '-P 2yn'
loop_
_symmetry_equiv_pos_site_id
_symmetry_equiv_pos_as_xyz
1 x,y,z
2 1/2-x,1/2+y,1/2-z
3 -x,-y,-z
4 1/2+x,1/2-y,1/2+z
_cell_length_a                   11.9596(6)
_cell_length_b                   11.6787(6)
_cell_length_c                   19.4011(8)
_cell_angle_alpha                90
_cell_angle_beta                 103.643(5)
_cell_angle_gamma                90
_cell_volume                     2633.34
_exptl_crystal_colour            'light colorless'
_exptl_crystal_description       block
_cell_formula_units_Z            4
loop_
_atom_site_label
_atom_site_type_symbol
_atom_site_fract_x
_atom_site_fract_y
_atom_site_fract_z
S1 S 0.25173(6) 0.28211(7) 0.68422(4)
O1 O 0.63214(17) 0.3867(2) 0.63399(12)
O2 O 0.7338(9) 0.3018(9) 0.7321(7)
O3 O 0.18752(17) 0.1793(2) 0.66587(11)
O4 O 0.19566(17) 0.3909(2) 0.67539(12)
N1 N 0.34659(18) 0.2849(2) 0.63569(12)
C1 C 0.4004(2) 0.1749(3) 0.62097(15)
H1 H 0.4033 0.1218 0.6605
C2 C 0.5202(2) 0.2130(3) 0.62078(17)
H2 H 0.5776 0.1648 0.6125
C3 C 0.5334(2) 0.3228(3) 0.63373(16)
C4 C 0.4290(2) 0.3829(3) 0.64517(15)
H3 H 0.4437 0.4107 0.6942
C5 C 0.3377(2) 0.1188(3) 0.55242(15)
C6 C 0.3210(3) 0.1745(3) 0.48859(17)
H4 H 0.3488 0.2487 0.4874
C7 C 0.2637(3) 0.1229(3) 0.42586(19)
H5 H 0.2526 0.1636 0.3836
C8 C 0.2230(3) 0.0130(3) 0.42505(19)
C9 C 0.2415(3) -0.0438(3) 0.4887(2)
H6 H 0.2156 -0.1187 0.4898
C10 C 0.2982(3) 0.0083(3) 0.55146(19)
H7 H 0.3096 -0.0324 0.5937
C11 C 0.1579(4) -0.0430(4) 0.3567(2)
H8 H 0.1308 0.0149 0.3216
H9 H 0.0935 -0.0849 0.3654
H10 H 0.2081 -0.0945 0.3399
C12 C 0.3838(3) 0.4813(3) 0.59405(15)
H11 H 0.3789 0.4542 0.5462
H12 H 0.3061 0.4988 0.5977
C13 C 0.4518(3) 0.5918(3) 0.60384(18)
H13 H 0.5259 0.5764 0.5924
C14 C 0.3897(4) 0.6821(4) 0.5520(2)
H14 H 0.3727 0.6515 0.5047
H15 H 0.4380 0.7483 0.5542
H16 H 0.3194 0.7033 0.5643
C15 C 0.4760(4) 0.6374(4) 0.6779(2)
H17 H 0.4057 0.6409 0.6935
H18 H 0.5084 0.7128 0.6790
H19 H 0.5294 0.5878 0.7088
C16 C 0.7230(3) 0.3790(3) 0.68926(17)
C17 C 0.8246(2) 0.4491(3) 0.67952(18)
C18 C 0.9116(4) 0.4561(6) 0.7496(3)
H20 H 0.8836 0.5065 0.7808
H21 H 0.9830 0.4852 0.7421
H22 H 0.9237 0.3812 0.7704
C19 C 0.8789(5) 0.3852(6) 0.6298(4)
H23 H 0.8873 0.3062 0.6437
H24 H 0.9532 0.4173 0.6309
H25 H 0.8312 0.3908 0.5826
C20 C 0.7900(4) 0.5651(4) 0.6539(4)
H26 H 0.7400 0.5609 0.6074
H27 H 0.8571 0.6090 0.6521
H28 H 0.7503 0.6014 0.6856
C21 C 0.3275(2) 0.2719(3) 0.77380(15)
C22 C 0.3516(2) 0.1655(3) 0.80495(17)
H29 H 0.3275 0.0995 0.7788
C23 C 0.4117(3) 0.1574(4) 0.87520(18)
H30 H 0.4262 0.0857 0.8962
C24 C 0.4504(3) 0.2541(4) 0.91459(17)
C25 C 0.4243(3) 0.3600(4) 0.88265(19)
H31 H 0.4486 0.4260 0.9088
C26 C 0.3631(3) 0.3703(3) 0.81293(17)
H32 H 0.3461 0.4422 0.7925
C27 C 0.5196(4) 0.2456(5) 0.9910(2)
H33 H 0.4685 0.2507 1.0224
H34 H 0.5744 0.3070 1.0008
H35 H 0.5594 0.1736 0.9980
O5? O 0.7008(10) 0.3468(10) 0.7432(6)
loop_
_geom_bond_atom_site_label_1
_geom_bond_atom_site_label_2
_geom_bond_site_symmetry_1
_geom_bond_site_symmetry_2
S1 O3 1_555 1_555
O1 C3 1_555 1_555
O2 C16 1_555 1_555
O4 S1 1_555 1_555
N1 S1 1_555 1_555
C1 N1 1_555 1_555
H1 C1 1_555 1_555
C2 C1 1_555 1_555
H2 C2 1_555 1_555
C3 C2 1_555 1_555
C4 N1 1_555 1_555
H3 C4 1_555 1_555
C5 C1 1_555 1_555
C6 C5 1_555 1_555
H4 C6 1_555 1_555
C7 C6 1_555 1_555
H5 C7 1_555 1_555
C8 C7 1_555 1_555
C9 C8 1_555 1_555
H6 C9 1_555 1_555
C10 C5 1_555 1_555
H7 C10 1_555 1_555
C11 C8 1_555 1_555
H8 C11 1_555 1_555
H9 C11 1_555 1_555
H10 C11 1_555 1_555
C12 C4 1_555 1_555
H11 C12 1_555 1_555
H12 C12 1_555 1_555
C13 C12 1_555 1_555
H13 C13 1_555 1_555
C14 C13 1_555 1_555
H14 C14 1_555 1_555
H15 C14 1_555 1_555
H16 C14 1_555 1_555
C15 C13 1_555 1_555
H17 C15 1_555 1_555
H18 C15 1_555 1_555
H19 C15 1_555 1_555
C16 O1 1_555 1_555
C17 C16 1_555 1_555
C18 C17 1_555 1_555
H20 C18 1_555 1_555
H21 C18 1_555 1_555
H22 C18 1_555 1_555
C19 C17 1_555 1_555
H23 C19 1_555 1_555
H24 C19 1_555 1_555
H25 C19 1_555 1_555
C20 C17 1_555 1_555
H26 C20 1_555 1_555
H27 C20 1_555 1_555
H28 C20 1_555 1_555
C21 S1 1_555 1_555
C22 C21 1_555 1_555
H29 C22 1_555 1_555
C23 C22 1_555 1_555
H30 C23 1_555 1_555
C24 C23 1_555 1_555
C25 C24 1_555 1_555
H31 C25 1_555 1_555
C26 C21 1_555 1_555
H32 C26 1_555 1_555
C27 C24 1_555 1_555
H33 C27 1_555 1_555
H34 C27 1_555 1_555
H35 C27 1_555 1_555
C3 C4 1_555 1_555
C9 C10 1_555 1_555
C25 C26 1_555 1_555

#END
