
#######################################################################
#
#                 Cambridge Crystallographic Data Centre
#                                CCDC 
#
#######################################################################
#
# If this CIF has been generated from an entry in the Cambridge 
# Structural Database, then it will include bibliographic, chemical, 
# crystal, experimental, refinement or atomic coordinate data resulting 
# from the CCDC's data processing and validation procedures.
#
#######################################################################

data_CAJTUF
_chemical_formula_moiety         'C27 H35 N1 O5 S1'
_chemical_name_systematic        
'5-Isobutyl-2-(4-methoxyphenyl)-1-((4-methylphenyl)sulfonyl)-2,5-dihydro-1H-pyrrol-3-yl pivalate'
_symmetry_cell_setting           orthorhombic
_symmetry_space_group_name_H-M   'P 21 c a'
_symmetry_Int_Tables_number      29
_space_group_name_Hall           'P -2ac 2a'
loop_
_symmetry_equiv_pos_site_id
_symmetry_equiv_pos_as_xyz
1 x,y,z
2 1/2+x,y,1/2-z
3 1/2+x,-y,-z
4 x,-y,1/2+z
_cell_length_a                   38.592(3)
_cell_length_b                   6.3381(3)
_cell_length_c                   22.1174(10)
_cell_angle_alpha                90
_cell_angle_beta                 90
_cell_angle_gamma                90
_cell_volume                     5409.92
_exptl_crystal_colour            'light colorless'
_exptl_crystal_description       block
_cell_formula_units_Z            8
loop_
_atom_site_label
_atom_site_type_symbol
_atom_site_fract_x
_atom_site_fract_y
_atom_site_fract_z
S1 S 0.67958(4) 0.3859(3) 0.67249(7)
O1 O 0.56144(13) 0.3041(8) 0.5722(2)
O2 O 0.54836(17) 0.6240(11) 0.6092(3)
O3 O 0.6796(2) 0.5890(13) 0.3900(3)
O4 O 0.69110(14) 0.2630(10) 0.7231(2)
O5 O 0.67961(16) 0.6109(7) 0.6744(2)
N1 N 0.64052(15) 0.3119(9) 0.6589(2)
C1 C 0.61727(19) 0.4303(11) 0.6175(3)
H1 H 0.6095 0.5605 0.6372
C2 C 0.58765(17) 0.2745(10) 0.6148(3)
C3 C 0.59083(18) 0.1071(11) 0.6486(3)
H2 H 0.5753 -0.0051 0.6493
C4 C 0.62351(17) 0.1214(10) 0.6868(3)
H3 H 0.6379 -0.0048 0.6819
C5 C 0.6150(2) 0.1615(10) 0.7538(3)
H4 H 0.6364 0.1919 0.7750
H5 H 0.6005 0.2862 0.7565
C6 C 0.5968(3) -0.0186(12) 0.7860(3)
H6 H 0.5749 -0.0461 0.7649
C7 C 0.6174(3) -0.2173(14) 0.7858(4)
H7 H 0.6183 -0.2733 0.7455
H8 H 0.6068 -0.3184 0.8122
H9 H 0.6405 -0.1882 0.7996
C8 C 0.5884(3) 0.0453(17) 0.8497(4)
H10 H 0.6095 0.0671 0.8717
H11 H 0.5751 -0.0640 0.8688
H12 H 0.5752 0.1738 0.8492
C9 C 0.5456(2) 0.4978(12) 0.5698(4)
C10 C 0.4932(6) 0.643(4) 0.5277(9)
H13 H 0.4852 0.6062 0.5674
H14 H 0.4754 0.6145 0.4987
H15 H 0.4989 0.7908 0.5267
C11 C 0.5137(6) 0.278(4) 0.4849(12)
H16 H 0.5342 0.2133 0.4689
H17 H 0.4968 0.2931 0.4533
H18 H 0.5043 0.1916 0.5165
C12 C 0.5476(6) 0.629(4) 0.4699(9)
H19 H 0.5525 0.7687 0.4841
H20 H 0.5369 0.6362 0.4308
H21 H 0.5689 0.5506 0.4669
C13 C 0.5237(2) 0.5204(14) 0.5132(4)
C14 C 0.63231(19) 0.4816(10) 0.5556(3)
C15 C 0.6381(2) 0.3219(12) 0.5149(3)
H22 H 0.6311 0.1850 0.5240
C16 C 0.6544(3) 0.3653(13) 0.4595(3)
H23 H 0.6589 0.2569 0.4322
C17 C 0.6636(2) 0.5657(14) 0.4461(3)
C18 C 0.6572(2) 0.7257(12) 0.4851(4)
H24 H 0.6634 0.8631 0.4751
C19 C 0.6411(2) 0.6828(12) 0.5410(3)
H25 H 0.6365 0.7922 0.5679
C20 C 0.6968(3) 0.7641(18) 0.3756(4)
H26 H 0.7100 0.7405 0.3395
H27 H 0.7121 0.8014 0.4081
H28 H 0.6806 0.8766 0.3690
C21 C 0.70554(16) 0.3131(9) 0.6112(3)
C22 C 0.7129(3) 0.1039(12) 0.5999(4)
H29 H 0.7035 -0.0015 0.6242
C23 C 0.7345(3) 0.0521(13) 0.5517(4)
H30 H 0.7396 -0.0890 0.5443
C24 C 0.74865(19) 0.2059(11) 0.5146(3)
C25 C 0.7414(2) 0.4110(12) 0.5272(3)
H31 H 0.7504 0.5164 0.5026
C26 C 0.7208(2) 0.4662(11) 0.5758(3)
H32 H 0.7173 0.6079 0.5848
C27 C 0.7736(3) 0.1472(16) 0.4639(3)
H33 H 0.7908 0.2559 0.4596
H34 H 0.7610 0.1327 0.4267
H35 H 0.7848 0.0160 0.4734
S2 S 0.33366(5) 0.4146(3) 0.42870(7)
O6 O 0.46431(18) 0.6457(10) 0.3600(3)
O7 O 0.45113(14) 0.3213(7) 0.3286(2)
O8 O 0.3336(3) 0.6841(18) 0.1524(4)
O9 O 0.33418(16) 0.6402(7) 0.4314(2)
O10 O 0.32135(14) 0.2936(9) 0.47859(19)
N2 N 0.37272(15) 0.3337(9) 0.4149(2)
C31 C 0.39618(18) 0.4566(11) 0.3747(3)
H45 H 0.4041 0.5850 0.3952
C32 C 0.42515(17) 0.2973(10) 0.3714(3)
C33 C 0.42157(19) 0.1291(10) 0.4058(3)
H46 H 0.4367 0.0148 0.4067
C34 C 0.38919(18) 0.1506(10) 0.4436(3)
H47 H 0.3746 0.0255 0.4384
C35 C 0.3971(2) 0.1830(11) 0.5106(3)
H48 H 0.4113 0.3085 0.5146
H49 H 0.3754 0.2106 0.5313
C36 C 0.4150(3) 0.0058(11) 0.5426(3)
H50 H 0.4357 -0.0299 0.5191
C37 C 0.3929(4) -0.1868(14) 0.5454(5)
H51 H 0.3725 -0.1577 0.5690
H52 H 0.4056 -0.2998 0.5638
H53 H 0.3862 -0.2270 0.5052
C38 C 0.4269(3) 0.0675(17) 0.6056(4)
H54 H 0.4426 0.1846 0.6029
H55 H 0.4385 -0.0500 0.6242
H56 H 0.4072 0.1068 0.6296
C39 C 0.3812(2) 0.5097(10) 0.3136(3)
C40 C 0.3590(3) 0.4022(14) 0.2171(3)
H57 H 0.3545 0.2975 0.1887
C41 C 0.3739(2) 0.3522(11) 0.2723(3)
H58 H 0.3789 0.2125 0.2815
C42 C 0.3508(3) 0.6130(16) 0.2049(4)
C43 C 0.3577(3) 0.7653(13) 0.2447(4)
H59 H 0.3520 0.9047 0.2362
C44 C 0.3733(2) 0.7135(11) 0.2979(4)
H60 H 0.3788 0.8211 0.3248
C45 C 0.3177(4) 0.538(2) 0.1229(6)
H61 H 0.2991 0.5990 0.1001
H62 H 0.3086 0.4360 0.1508
H63 H 0.3336 0.4699 0.0959
C46 C 0.4668(2) 0.5100(13) 0.3232(3)
C47 C 0.4871(2) 0.5233(15) 0.2648(4)
C48 C 0.5004(8) 0.751(2) 0.2552(11)
H64 H 0.4818 0.8380 0.2409
H65 H 0.5188 0.7498 0.2259
H66 H 0.5090 0.8056 0.2928
C49 C 0.4649(4) 0.453(3) 0.2123(5)
H67 H 0.4590 0.3066 0.2171
H68 H 0.4774 0.4714 0.1752
H69 H 0.4440 0.5356 0.2112
C50 C 0.5205(3) 0.400(3) 0.2714(6)
H70 H 0.5358 0.4737 0.2985
H71 H 0.5314 0.3868 0.2326
H72 H 0.5156 0.2627 0.2873
C51 C 0.30692(18) 0.3489(10) 0.3664(3)
C52 C 0.3009(2) 0.1353(11) 0.3532(3)
H73 H 0.3107 0.0293 0.3768
C53 C 0.2799(3) 0.0861(12) 0.3036(4)
H74 H 0.2767 -0.0545 0.2930
C54 C 0.26391(19) 0.2409(11) 0.2701(3)
C55 C 0.2702(2) 0.4472(12) 0.2849(3)
H75 H 0.2592 0.5535 0.2632
C56 C 0.2926(2) 0.5014(10) 0.3314(3)
H76 H 0.2978 0.6425 0.3386
C57 C 0.2409(3) 0.1817(15) 0.2188(4)
H77 H 0.2171 0.1885 0.2316
H78 H 0.2462 0.0407 0.2059
H79 H 0.2445 0.2777 0.1858
C28? C 0.4968(8) 0.388(5) 0.5177(13)
H36? H 0.4924 0.3578 0.5596
H37? H 0.5020 0.2590 0.4968
H38? H 0.4766 0.4518 0.5001
C29? C 0.5427(9) 0.429(6) 0.4596(9)
H39? H 0.5671 0.4532 0.4641
H40? H 0.5347 0.4965 0.4232
H41? H 0.5383 0.2805 0.4572
C30? C 0.5207(8) 0.765(4) 0.5021(11)
H42? H 0.5030 0.8224 0.5279
H43? H 0.5147 0.7908 0.4606
H44? H 0.5425 0.8313 0.5111
loop_
_geom_bond_atom_site_label_1
_geom_bond_atom_site_label_2
_geom_bond_site_symmetry_1
_geom_bond_site_symmetry_2
S1 O4 1_555 1_555
O1 C2 1_555 1_555
O2 C9 1_555 1_555
O3 C17 1_555 1_555
O5 S1 1_555 1_555
N1 S1 1_555 1_555
C1 N1 1_555 1_555
H1 C1 1_555 1_555
C2 C1 1_555 1_555
C3 C2 1_555 1_555
H2 C3 1_555 1_555
C4 N1 1_555 1_555
H3 C4 1_555 1_555
C5 C4 1_555 1_555
H4 C5 1_555 1_555
H5 C5 1_555 1_555
C6 C5 1_555 1_555
H6 C6 1_555 1_555
C7 C6 1_555 1_555
H7 C7 1_555 1_555
H8 C7 1_555 1_555
H9 C7 1_555 1_555
C8 C6 1_555 1_555
H10 C8 1_555 1_555
H11 C8 1_555 1_555
H12 C8 1_555 1_555
C9 O1 1_555 1_555
C10 H13 1_555 1_555
H14 C10 1_555 1_555
H15 C10 1_555 1_555
C11 H16 1_555 1_555
H17 C11 1_555 1_555
H18 C11 1_555 1_555
C12 H19 1_555 1_555
H20 C12 1_555 1_555
H21 C12 1_555 1_555
C13 C9 1_555 1_555
C14 C1 1_555 1_555
C15 C14 1_555 1_555
H22 C15 1_555 1_555
C16 C15 1_555 1_555
H23 C16 1_555 1_555
C17 C16 1_555 1_555
C18 C17 1_555 1_555
H24 C18 1_555 1_555
C19 C14 1_555 1_555
H25 C19 1_555 1_555
C20 O3 1_555 1_555
H26 C20 1_555 1_555
H27 C20 1_555 1_555
H28 C20 1_555 1_555
C21 S1 1_555 1_555
C22 C21 1_555 1_555
H29 C22 1_555 1_555
C23 C22 1_555 1_555
H30 C23 1_555 1_555
C24 C23 1_555 1_555
C25 C24 1_555 1_555
H31 C25 1_555 1_555
C26 C21 1_555 1_555
H32 C26 1_555 1_555
C27 C24 1_555 1_555
H33 C27 1_555 1_555
H34 C27 1_555 1_555
H35 C27 1_555 1_555
S2 O9 1_555 1_555
O6 C46 1_555 1_555
O7 C32 1_555 1_555
O8 C42 1_555 1_555
O10 S2 1_555 1_555
N2 S2 1_555 1_555
C31 N2 1_555 1_555
H45 C31 1_555 1_555
C32 C31 1_555 1_555
C33 C32 1_555 1_555
H46 C33 1_555 1_555
C34 N2 1_555 1_555
H47 C34 1_555 1_555
C35 C34 1_555 1_555
H48 C35 1_555 1_555
H49 C35 1_555 1_555
C36 C35 1_555 1_555
H50 C36 1_555 1_555
C37 C36 1_555 1_555
H51 C37 1_555 1_555
H52 C37 1_555 1_555
H53 C37 1_555 1_555
C38 C36 1_555 1_555
H54 C38 1_555 1_555
H55 C38 1_555 1_555
H56 C38 1_555 1_555
C39 C31 1_555 1_555
C40 H57 1_555 1_555
C41 C39 1_555 1_555
H58 C41 1_555 1_555
C42 C40 1_555 1_555
C43 C42 1_555 1_555
H59 C43 1_555 1_555
C44 C39 1_555 1_555
H60 C44 1_555 1_555
C45 O8 1_555 1_555
H61 C45 1_555 1_555
H62 C45 1_555 1_555
H63 C45 1_555 1_555
C46 O7 1_555 1_555
C47 C46 1_555 1_555
C48 C47 1_555 1_555
H64 C48 1_555 1_555
H65 C48 1_555 1_555
H66 C48 1_555 1_555
C49 C47 1_555 1_555
H67 C49 1_555 1_555
H68 C49 1_555 1_555
H69 C49 1_555 1_555
C50 C47 1_555 1_555
H70 C50 1_555 1_555
H71 C50 1_555 1_555
H72 C50 1_555 1_555
C51 S2 1_555 1_555
C52 C51 1_555 1_555
H73 C52 1_555 1_555
C53 C52 1_555 1_555
H74 C53 1_555 1_555
C54 C53 1_555 1_555
C55 C54 1_555 1_555
H75 C55 1_555 1_555
C56 C51 1_555 1_555
H76 C56 1_555 1_555
C57 C54 1_555 1_555
H77 C57 1_555 1_555
H78 C57 1_555 1_555
H79 C57 1_555 1_555
C3 C4 1_555 1_555
C10 C13 1_555 1_555
C11 C13 1_555 1_555
C12 C13 1_555 1_555
C18 C19 1_555 1_555
C25 C26 1_555 1_555
C33 C34 1_555 1_555
C40 C41 1_555 1_555
C43 C44 1_555 1_555
C55 C56 1_555 1_555

#END
