
#######################################################################
#
#                 Cambridge Crystallographic Data Centre
#                                CCDC 
#
#######################################################################
#
# If this CIF has been generated from an entry in the Cambridge 
# Structural Database, then it will include bibliographic, chemical, 
# crystal, experimental, refinement or atomic coordinate data resulting 
# from the CCDC's data processing and validation procedures.
#
#######################################################################

data_CAJWAL
_chemical_formula_moiety         'C48 H32 Ba1 N8 O4 2+,2(C24 H20 B1 1-)'
_chemical_name_systematic        
'bis(4,5:14,15-Dibenzo-3,6,13,16-tetra-aza-21,22-dioxatricyclo(16.2.1.1^8,11^)docosa-1(20),2,4,6,8,10,12,14,16,18-decaene)-barium(ii) bis(tetraphenylborate)'
_symmetry_cell_setting           monoclinic
_symmetry_space_group_name_H-M   'A 2/a'
_symmetry_Int_Tables_number      15
_space_group_name_Hall           '-A 2yn'
loop_
_symmetry_equiv_pos_site_id
_symmetry_equiv_pos_as_xyz
1 x,y,z
2 1/2-x,y,-z
3 x,1/2+y,1/2+z
4 1/2-x,1/2+y,1/2-z
5 -x,-y,-z
6 1/2+x,-y,z
7 -x,1/2-y,1/2-z
8 1/2+x,1/2-y,1/2+z
_cell_length_a                   23.25(1)
_cell_length_b                   14.92(1)
_cell_length_c                   23.69(1)
_cell_angle_alpha                90
_cell_angle_beta                 101.0(1)
_cell_angle_gamma                90
_cell_volume                     8066.84
_cell_formula_units_Z            4
loop_
_atom_site_label
_atom_site_type_symbol
_atom_site_fract_x
_atom_site_fract_y
_atom_site_fract_z
Ba1 Ba 0.25000 0.56100 0.50000
N1 N 0.11680 0.53000 0.48430
C23 C 0.09710 0.44770 0.46160
C24 C 0.13240 0.37490 0.48460
N2 N 0.18720 0.39050 0.52140
C25 C 0.20580 0.32490 0.55640
C26 C 0.25690 0.35820 0.59530
O1 O 0.27670 0.43760 0.59670
C27 C 0.32830 0.44790 0.64310
C28 C 0.35060 0.53760 0.64550
N3 N 0.33270 0.59760 0.60890
C29 C 0.36210 0.67490 0.61810
C30 C 0.32730 0.75630 0.59610
N4 N 0.27050 0.73030 0.57150
C31 C 0.23000 0.78680 0.57310
C32 C 0.16990 0.76730 0.55120
O2 O 0.15950 0.69040 0.52820
C33 C 0.09790 0.67150 0.50790
C34 C 0.07880 0.58160 0.48850
C35 C 0.04620 0.43410 0.42370
C36 C 0.03410 0.33650 0.40310
C37 C 0.07550 0.27070 0.42710
C38 C 0.11980 0.28940 0.46140
C39 C 0.29040 0.31160 0.64090
C40 C 0.32720 0.35690 0.67110
C41 C 0.42300 0.69150 0.64260
C42 C 0.44620 0.77850 0.64520
C43 C 0.40870 0.84980 0.62210
C44 C 0.35420 0.83190 0.60010
C45 C 0.12000 0.81590 0.54410
C46 C 0.07350 0.76080 0.51960
N1A N 0.38320 0.53000 0.51570
C23A C 0.40290 0.44770 0.53840
C24A C 0.36760 0.37490 0.51540
N2A N 0.31280 0.39050 0.47860
O1A O 0.22330 0.43760 0.40330
C26A C 0.24310 0.35820 0.40470
C25A C 0.29420 0.32490 0.44360
C39A C 0.20960 0.31160 0.35910
C40A C 0.17280 0.35690 0.32890
C27A C 0.17170 0.44790 0.35690
C28A C 0.14940 0.53760 0.35450
N3A N 0.16730 0.59760 0.39110
N4A N 0.22950 0.73030 0.42850
C30A C 0.17270 0.75630 0.40390
C29A C 0.13790 0.67490 0.38190
C41A C 0.07700 0.69150 0.35740
C42A C 0.05380 0.77850 0.35480
C43A C 0.09130 0.84980 0.37790
C44A C 0.14580 0.83190 0.39990
C31A C 0.27000 0.78680 0.42690
C32A C 0.33010 0.76730 0.44880
O2A O 0.34050 0.69040 0.47180
C33A C 0.40210 0.67150 0.49210
C34A C 0.42120 0.58160 0.51150
C46A C 0.42650 0.76080 0.48040
C45A C 0.38000 0.81590 0.45590
C38A C 0.38020 0.28940 0.53860
C37A C 0.42450 0.27070 0.57290
C36A C 0.46590 0.33650 0.59690
C35A C 0.45380 0.43410 0.57630
C1 C 0.37660 0.19910 0.32750
C2 C 0.37270 0.24970 0.27740
C3 C 0.39220 0.33820 0.28050
C4 C 0.41550 0.37630 0.33380
C5 C 0.41930 0.32570 0.38390
C6 C 0.39990 0.23710 0.38070
C7 C 0.40710 0.01670 0.31660
C8 C 0.40310 -0.07320 0.32880
C9 C 0.44150 -0.13520 0.31100
C10 C 0.48390 -0.10520 0.28100
C11 C 0.48790 -0.01420 0.26880
C12 C 0.44960 0.04670 0.28660
B1 B 0.38730 0.07530 0.36090
C13 C 0.31280 0.03900 0.34330
C14 C 0.29290 -0.02570 0.30170
C15 C 0.23310 -0.04250 0.28520
C16 C 0.19300 0.00560 0.31030
C17 C 0.21290 0.07030 0.35190
C18 C 0.27270 0.08710 0.36840
C19 C 0.38920 0.05350 0.47700
C20 C 0.42150 0.04500 0.53270
C21 C 0.47630 0.02240 0.43870
C22 C 0.41670 0.04220 0.43000
C47? C 0.4811 0.0252 0.5415
C48? C 0.5086 0.0138 0.4945
loop_
_geom_bond_atom_site_label_1
_geom_bond_atom_site_label_2
_geom_bond_site_symmetry_1
_geom_bond_site_symmetry_2
C1 C2 1_555 1_555
C2 C3 1_555 1_555
C3 C4 1_555 1_555
C4 C5 1_555 1_555
C5 C6 1_555 1_555
C6 C1 1_555 1_555
C7 C8 1_555 1_555
C8 C9 1_555 1_555
C9 C10 1_555 1_555
C10 C11 1_555 1_555
C11 C12 1_555 1_555
C12 C7 1_555 1_555
B1 C1 1_555 1_555
C13 B1 1_555 1_555
C14 C13 1_555 1_555
C15 C14 1_555 1_555
C16 C15 1_555 1_555
C17 C16 1_555 1_555
C18 C13 1_555 1_555
C19 C20 1_555 1_555
C21 C22 1_555 1_555
C22 B1 1_555 1_555
Ba1 N1 1_555 1_555
N1 C23 1_555 1_555
C23 C24 1_555 1_555
C24 N2 1_555 1_555
N2 Ba1 1_555 1_555
C25 N2 1_555 1_555
C26 C25 1_555 1_555
O1 Ba1 1_555 1_555
C27 O1 1_555 1_555
C28 C27 1_555 1_555
N3 Ba1 1_555 1_555
C29 N3 1_555 1_555
C30 C29 1_555 1_555
N4 Ba1 1_555 1_555
C31 N4 1_555 1_555
C32 C31 1_555 1_555
O2 Ba1 1_555 1_555
C33 O2 1_555 1_555
C34 N1 1_555 1_555
C35 C23 1_555 1_555
C36 C35 1_555 1_555
C37 C36 1_555 1_555
C38 C24 1_555 1_555
C39 C26 1_555 1_555
C40 C27 1_555 1_555
C41 C29 1_555 1_555
C42 C41 1_555 1_555
C43 C42 1_555 1_555
C44 C30 1_555 1_555
C45 C32 1_555 1_555
C46 C33 1_555 1_555
N1A Ba1 1_555 1_555
C23A N1A 1_555 1_555
C24A C23A 1_555 1_555
N2A Ba1 1_555 1_555
O1A Ba1 1_555 1_555
C26A O1A 1_555 1_555
C25A N2A 1_555 1_555
C39A C26A 1_555 1_555
C40A C39A 1_555 1_555
C27A O1A 1_555 1_555
C28A C27A 1_555 1_555
N3A Ba1 1_555 1_555
N4A Ba1 1_555 1_555
C30A N4A 1_555 1_555
C29A N3A 1_555 1_555
C41A C29A 1_555 1_555
C42A C41A 1_555 1_555
C43A C42A 1_555 1_555
C44A C30A 1_555 1_555
C31A N4A 1_555 1_555
C32A C31A 1_555 1_555
O2A Ba1 1_555 1_555
C33A O2A 1_555 1_555
C34A N1A 1_555 1_555
C46A C33A 1_555 1_555
C45A C32A 1_555 1_555
C38A C24A 1_555 1_555
C37A C38A 1_555 1_555
C36A C37A 1_555 1_555
C35A C23A 1_555 1_555
C7 B1 1_555 1_555
C17 C18 1_555 1_555
C19 C22 1_555 1_555
C26 O1 1_555 1_555
C28 N3 1_555 1_555
C30 N4 1_555 1_555
C32 O2 1_555 1_555
C33 C34 1_555 1_555
C37 C38 1_555 1_555
C39 C40 1_555 1_555
C43 C44 1_555 1_555
C45 C46 1_555 1_555
C24A N2A 1_555 1_555
C26A C25A 1_555 1_555
C40A C27A 1_555 1_555
C28A N3A 1_555 1_555
C30A C29A 1_555 1_555
C43A C44A 1_555 1_555
C32A O2A 1_555 1_555
C33A C34A 1_555 1_555
C46A C45A 1_555 1_555
C36A C35A 1_555 1_555

#END
