
#######################################################################
#
#                 Cambridge Crystallographic Data Centre
#                                CCDC 
#
#######################################################################
#
# If this CIF has been generated from an entry in the Cambridge 
# Structural Database, then it will include bibliographic, chemical, 
# crystal, experimental, refinement or atomic coordinate data resulting 
# from the CCDC's data processing and validation procedures.
#
#######################################################################

data_CAJWIW
_chemical_formula_moiety         'C25 H31 N1 O4 S1'
_chemical_name_systematic        
'5-isopropyl-1-((4-methylphenyl)sulfonyl)-2-phenyl-2,5-dihydro-1H-pyrrol-3-yl pivalate'
_symmetry_cell_setting           monoclinic
_symmetry_space_group_name_H-M   'P 21/a'
_symmetry_Int_Tables_number      14
_space_group_name_Hall           '-P 2yab'
loop_
_symmetry_equiv_pos_site_id
_symmetry_equiv_pos_as_xyz
1 x,y,z
2 1/2-x,1/2+y,-z
3 -x,-y,-z
4 1/2+x,1/2-y,z
_cell_length_a                   9.6115(13)
_cell_length_b                   22.286(4)
_cell_length_c                   11.323(3)
_cell_angle_alpha                90
_cell_angle_beta                 93.165(15)
_cell_angle_gamma                90
_cell_volume                     2421.71
_exptl_crystal_colour            'light yellow'
_exptl_crystal_description       block
_cell_formula_units_Z            4
loop_
_atom_site_label
_atom_site_type_symbol
_atom_site_fract_x
_atom_site_fract_y
_atom_site_fract_z
S1 S 0.27426(10) 0.66431(5) 0.35443(10)
O1 O -0.1840(2) 0.58045(13) 0.1829(2)
O2 O 0.3732(2) 0.70114(14) 0.2984(3)
O3 O 0.3175(3) 0.61037(13) 0.4141(3)
N1 N 0.1593(3) 0.64366(15) 0.2498(3)
O4 O -0.2198(3) 0.58076(18) 0.3746(3)
C1 C -0.2527(4) 0.5623(2) 0.2786(4)
C2 C 0.1884(4) 0.70898(19) 0.4560(4)
C3 C 0.0551(3) 0.59705(17) 0.2808(4)
H1 H 0.0330 0.6016 0.3638
C4 C -0.0675(3) 0.61669(19) 0.2019(3)
C5 C -0.3690(4) 0.5199(2) 0.2432(4)
C6 C 0.1008(3) 0.53337(19) 0.2586(4)
C7 C -0.0483(4) 0.66674(19) 0.1448(4)
H2 H -0.1138 0.6839 0.0916
C8 C 0.1759(4) 0.7102(2) 0.0695(4)
H3 H 0.2688 0.7226 0.1002
C9 C 0.0922(4) 0.69285(18) 0.1757(4)
H4 H 0.0813 0.7284 0.2254
C10 C 0.1169(4) 0.6823(2) 0.5440(4)
H5 H 0.1155 0.6408 0.5511
C11 C 0.1906(4) 0.7703(2) 0.4451(4)
H6 H 0.2393 0.7882 0.3856
C12 C 0.1525(4) 0.4532(2) 0.1260(4)
H7 H 0.1628 0.4395 0.0494
C13 C 0.0454(5) 0.7796(2) 0.6118(5)
C14 C 0.1734(4) 0.4148(2) 0.2191(5)
H8 H 0.1979 0.3751 0.2061
C15 C 0.1229(4) 0.4940(2) 0.3515(4)
H9 H 0.1139 0.5075 0.4284
C16 C 0.1160(4) 0.51235(19) 0.1445(4)
H10 H 0.1016 0.5381 0.0805
C17 C 0.1207(5) 0.8052(2) 0.5223(4)
H11 H 0.1234 0.8468 0.5150
C18 C 0.0466(5) 0.7179(2) 0.6224(4)
H12 H -0.0002 0.6998 0.6828
C19 C 0.1581(5) 0.4350(2) 0.3324(5)
H13 H 0.1716 0.4089 0.3960
C20 C -0.3089(6) 0.4654(2) 0.1821(5)
H14 H -0.2652 0.4782 0.1121
H15 H -0.3825 0.4377 0.1609
H16 H -0.2412 0.4462 0.2349
C21 C 0.1082(5) 0.7640(3) 0.0075(5)
H17 H 0.0188 0.7527 -0.0275
H18 H 0.1664 0.7779 -0.0531
H19 H 0.0966 0.7955 0.0639
C22 C -0.4732(4) 0.5523(3) 0.1590(5)
H20 H -0.5097 0.5867 0.1981
H21 H -0.5482 0.5256 0.1359
H22 H -0.4274 0.5651 0.0901
C23 C -0.0332(5) 0.8184(3) 0.6966(5)
H23 H 0.0284 0.8297 0.7624
H24 H -0.1102 0.7961 0.7246
H25 H -0.0673 0.8537 0.6561
C24 C 0.1948(5) 0.6583(2) -0.0150(4)
H26 H 0.2407 0.6257 0.0268
H27 H 0.2503 0.6711 -0.0782
H28 H 0.1053 0.6452 -0.0469
C25 C -0.4402(4) 0.5002(2) 0.3549(4)
H29 H -0.3761 0.4770 0.4043
H30 H -0.5205 0.4763 0.3328
H31 H -0.4685 0.5350 0.3974
loop_
_geom_bond_atom_site_label_1
_geom_bond_atom_site_label_2
_geom_bond_site_symmetry_1
_geom_bond_site_symmetry_2
S1 O2 1_555 1_555
O1 C1 1_555 1_555
O3 S1 1_555 1_555
N1 S1 1_555 1_555
O4 C1 1_555 1_555
C1 C5 1_555 1_555
C2 S1 1_555 1_555
C3 N1 1_555 1_555
H1 C3 1_555 1_555
C4 O1 1_555 1_555
C5 C20 1_555 1_555
C6 C3 1_555 1_555
C7 C4 1_555 1_555
H2 C7 1_555 1_555
C8 H3 1_555 1_555
C9 N1 1_555 1_555
H4 C9 1_555 1_555
C10 C2 1_555 1_555
H5 C10 1_555 1_555
C11 C2 1_555 1_555
H6 C11 1_555 1_555
C12 H7 1_555 1_555
C13 C17 1_555 1_555
C14 C12 1_555 1_555
H8 C14 1_555 1_555
C15 C6 1_555 1_555
H9 C15 1_555 1_555
C16 C6 1_555 1_555
H10 C16 1_555 1_555
C17 C11 1_555 1_555
H11 C17 1_555 1_555
C18 C10 1_555 1_555
H12 C18 1_555 1_555
C19 C14 1_555 1_555
H13 C19 1_555 1_555
C20 H14 1_555 1_555
H15 C20 1_555 1_555
H16 C20 1_555 1_555
C21 C8 1_555 1_555
H17 C21 1_555 1_555
H18 C21 1_555 1_555
H19 C21 1_555 1_555
C22 C5 1_555 1_555
H20 C22 1_555 1_555
H21 C22 1_555 1_555
H22 C22 1_555 1_555
C23 C13 1_555 1_555
H23 C23 1_555 1_555
H24 C23 1_555 1_555
H25 C23 1_555 1_555
C24 C8 1_555 1_555
H26 C24 1_555 1_555
H27 C24 1_555 1_555
H28 C24 1_555 1_555
C25 C5 1_555 1_555
H29 C25 1_555 1_555
H30 C25 1_555 1_555
H31 C25 1_555 1_555
C3 C4 1_555 1_555
C7 C9 1_555 1_555
C8 C9 1_555 1_555
C12 C16 1_555 1_555
C13 C18 1_555 1_555
C15 C19 1_555 1_555

#END
