
#######################################################################
#
#                 Cambridge Crystallographic Data Centre
#                                CCDC 
#
#######################################################################
#
# If this CIF has been generated from an entry in the Cambridge 
# Structural Database, then it will include bibliographic, chemical, 
# crystal, experimental, refinement or atomic coordinate data resulting 
# from the CCDC's data processing and validation procedures.
#
#######################################################################

data_CAJYOE
_chemical_formula_moiety         'C30 H23 N5'
_chemical_name_systematic        
(4-(3,3-dicyano-1-(4-(diethylamino)phenyl)-2-phenylprop-2-en-1-ylidene)cyclohexa-2,5-dien-1-ylidene)malononitrile
_symmetry_cell_setting           monoclinic
_symmetry_space_group_name_H-M   'C 2/c'
_symmetry_Int_Tables_number      15
_space_group_name_Hall           '-C 2yn'
loop_
_symmetry_equiv_pos_site_id
_symmetry_equiv_pos_as_xyz
1 x,y,z
2 -x,y,1/2-z
3 1/2+x,1/2+y,z
4 1/2-x,1/2+y,1/2-z
5 -x,-y,-z
6 x,-y,1/2+z
7 1/2-x,1/2-y,-z
8 1/2+x,1/2-y,1/2+z
_cell_length_a                   17.6357(7)
_cell_length_b                   11.4958(6)
_cell_length_c                   25.4554(15)
_cell_angle_alpha                90
_cell_angle_beta                 109.522(2)
_cell_angle_gamma                90
_cell_volume                     4864.06
_exptl_crystal_colour            black
_exptl_crystal_description       plate
_cell_formula_units_Z            8
loop_
_atom_site_label
_atom_site_type_symbol
_atom_site_fract_x
_atom_site_fract_y
_atom_site_fract_z
N1 N 0.21317(7) -0.40866(12) 0.06960(5)
N2 N 0.62527(8) 0.10188(14) 0.40119(6)
N3 N 0.52754(8) 0.44746(14) 0.34399(6)
N4 N 0.18427(9) 0.02905(15) 0.29619(6)
N5 N 0.00836(9) 0.26419(15) 0.18306(7)
C1 C 0.12780(9) 0.12240(14) 0.19834(7)
C2 C 0.16119(9) 0.09680(14) 0.15883(6)
C3 C 0.23694(9) 0.02686(14) 0.17491(6)
C4 C 0.23286(9) -0.08369(14) 0.14895(6)
C5 C 0.15809(9) -0.14121(14) 0.12554(6)
H1 H 0.1109(10) -0.1041(15) 0.1299(7)
C6 C 0.15173(9) -0.24764(15) 0.10130(6)
H2 H 0.1005(11) -0.2873(18) 0.0882(8)
C7 C 0.22015(9) -0.30572(14) 0.09600(6)
C8 C 0.29550(9) -0.24734(15) 0.11842(6)
H3 H 0.3441(11) -0.2837(16) 0.1150(8)
C9 C 0.30120(9) -0.14175(15) 0.14369(6)
H4 H 0.3558(10) -0.1001(16) 0.1578(7)
C10 C 0.28360(10) -0.47009(16) 0.06508(7)
H5 H 0.2675(10) -0.5551(18) 0.0616(8)
H6 H 0.3300(11) -0.4596(17) 0.1012(8)
C11 C 0.30438(12) -0.42981(18) 0.01492(8)
H7 H 0.3525(12) -0.4727(18) 0.0121(8)
H8 H 0.3169(12) -0.345(2) 0.0175(8)
H9 H 0.2575(13) -0.445(2) -0.0207(10)
C12 C 0.13463(10) -0.46367(17) 0.04308(8)
H10 H 0.1388(10) -0.5154(17) 0.0138(8)
H11 H 0.0945(11) -0.4014(18) 0.0234(8)
C13 C 0.10617(15) -0.5313(2) 0.08422(10)
H12 H 0.1491(13) -0.591(2) 0.1049(10)
H13 H 0.0553(15) -0.569(2) 0.0660(10)
H14 H 0.0997(12) -0.478(2) 0.1127(10)
C14 C 0.30566(9) 0.07544(15) 0.21440(6)
C15 C 0.37035(9) 0.00495(15) 0.24839(6)
H15 H 0.3651(9) -0.0770(17) 0.2449(7)
C16 C 0.43663(9) 0.05252(15) 0.28679(6)
H16 H 0.4790(10) 0.0020(16) 0.3107(7)
C17 C 0.44508(9) 0.17531(15) 0.29325(6)
C18 C 0.38131(9) 0.24648(15) 0.25922(7)
H17 H 0.3876(10) 0.3286(18) 0.2627(7)
C19 C 0.31381(9) 0.19837(15) 0.22266(6)
H18 H 0.2710(10) 0.2495(16) 0.1987(8)
C20 C 0.51334(9) 0.22542(15) 0.33278(6)
C21 C 0.57537(9) 0.15663(16) 0.36964(7)
C22 C 0.52231(9) 0.34810(17) 0.33901(7)
C23 C 0.12569(9) 0.13484(14) 0.10015(7)
C24 C 0.17606(10) 0.17400(15) 0.07180(7)
H19 H 0.2339(10) 0.1726(17) 0.0906(7)
C25 C 0.14367(10) 0.21287(16) 0.01738(7)
H20 H 0.1789(10) 0.2435(16) -0.0016(8)
C26 C 0.06137(10) 0.20875(16) -0.00965(7)
H21 H 0.0405(10) 0.2326(17) -0.0471(8)
C27 C 0.01123(10) 0.16566(17) 0.01757(7)
H22 H -0.0475(10) 0.1609(16) -0.0023(7)
C28 C 0.04271(10) 0.13016(16) 0.07249(7)
H23 H 0.0090(10) 0.0977(16) 0.0915(7)
C29 C 0.15967(9) 0.07220(16) 0.25320(7)
C30 C 0.06001(10) 0.19942(16) 0.18901(7)
loop_
_geom_bond_atom_site_label_1
_geom_bond_atom_site_label_2
_geom_bond_site_symmetry_1
_geom_bond_site_symmetry_2
N1 C7 1_555 1_555
N2 C21 1_555 1_555
N3 C22 1_555 1_555
N4 C29 1_555 1_555
N5 C30 1_555 1_555
C1 C2 1_555 1_555
C2 C3 1_555 1_555
C3 C4 1_555 1_555
C4 C5 1_555 1_555
C5 H1 1_555 1_555
C6 C5 1_555 1_555
H2 C6 1_555 1_555
C7 C6 1_555 1_555
C8 C7 1_555 1_555
H3 C8 1_555 1_555
C9 C4 1_555 1_555
H4 C9 1_555 1_555
C10 N1 1_555 1_555
H5 C10 1_555 1_555
H6 C10 1_555 1_555
C11 C10 1_555 1_555
H7 C11 1_555 1_555
H8 C11 1_555 1_555
H9 C11 1_555 1_555
C12 N1 1_555 1_555
H10 C12 1_555 1_555
H11 C12 1_555 1_555
C13 C12 1_555 1_555
H12 C13 1_555 1_555
H13 C13 1_555 1_555
H14 C13 1_555 1_555
C14 C3 1_555 1_555
C15 C14 1_555 1_555
H15 C15 1_555 1_555
C16 C15 1_555 1_555
H16 C16 1_555 1_555
C17 C16 1_555 1_555
C18 C17 1_555 1_555
H17 C18 1_555 1_555
C19 C14 1_555 1_555
H18 C19 1_555 1_555
C20 C17 1_555 1_555
C21 C20 1_555 1_555
C22 C20 1_555 1_555
C23 C2 1_555 1_555
C24 C23 1_555 1_555
H19 C24 1_555 1_555
C25 C24 1_555 1_555
H20 C25 1_555 1_555
C26 C25 1_555 1_555
H21 C26 1_555 1_555
C27 C26 1_555 1_555
H22 C27 1_555 1_555
C28 C23 1_555 1_555
H23 C28 1_555 1_555
C29 C1 1_555 1_555
C30 C1 1_555 1_555
C8 C9 1_555 1_555
C18 C19 1_555 1_555
C27 C28 1_555 1_555

#END
