
#######################################################################
#
#                 Cambridge Crystallographic Data Centre
#                                CCDC 
#
#######################################################################
#
# If this CIF has been generated from an entry in the Cambridge 
# Structural Database, then it will include bibliographic, chemical, 
# crystal, experimental, refinement or atomic coordinate data resulting 
# from the CCDC's data processing and validation procedures.
#
#######################################################################

data_CAKBIC
_chemical_formula_moiety         'C18 H21 N1 O3'
_chemical_name_systematic        
4-((6,7-dimethoxy-3,4-dihydroisoquinolin-2(1H)-yl)methyl)phenol
_symmetry_cell_setting           monoclinic
_symmetry_space_group_name_H-M   'P 21/n'
_symmetry_Int_Tables_number      14
_space_group_name_Hall           '-P 2yn'
loop_
_symmetry_equiv_pos_site_id
_symmetry_equiv_pos_as_xyz
1 x,y,z
2 1/2-x,1/2+y,1/2-z
3 -x,-y,-z
4 1/2+x,1/2-y,1/2+z
_cell_length_a                   6.4140(1)
_cell_length_b                   13.0324(3)
_cell_length_c                   19.2120(4)
_cell_angle_alpha                90
_cell_angle_beta                 98.8791(11)
_cell_angle_gamma                90
_cell_volume                     1586.68
_exptl_crystal_colour            colorless
_exptl_crystal_description       block
_cell_formula_units_Z            4
loop_
_atom_site_label
_atom_site_type_symbol
_atom_site_fract_x
_atom_site_fract_y
_atom_site_fract_z
N1 N 0.30675(13) 0.56304(6) 0.61637(4)
C1 C 0.53332(16) 0.58679(8) 0.62237(6)
C2 C 0.66266(17) 0.49717(8) 0.65556(6)
C3 C 0.59534(16) 0.39692(7) 0.61962(5)
C4 C 0.72646(17) 0.31020(8) 0.63056(6)
C5 C 0.66297(17) 0.21695(8) 0.60044(5)
C6 C 0.46325(16) 0.20814(7) 0.55800(5)
C7 C 0.33350(16) 0.29330(8) 0.54794(5)
C8 C 0.39900(15) 0.38809(7) 0.57868(5)
C9 C 0.25268(16) 0.47912(8) 0.56526(5)
C10 C 0.17511(17) 0.65323(8) 0.59074(6)
C11 C 0.21740(16) 0.74753(8) 0.63635(5)
C12 C 0.32570(19) 0.83073(9) 0.61408(6)
C13 C 0.36814(19) 0.91795(9) 0.65537(6)
C14 C 0.30035(16) 0.92331(8) 0.72069(5)
C15 C 0.19183(19) 0.84098(8) 0.74349(6)
C16 C 0.14968(19) 0.75419(8) 0.70153(6)
O1 O 0.34284(13) 1.01130(6) 0.75849(4)
O2 O 0.77892(13) 0.12874(6) 0.60773(5)
C17 C 0.9675(2) 0.12954(11) 0.65791(8)
O3 O 0.41631(13) 0.11324(6) 0.53023(4)
C18 C 0.2209(2) 0.10134(10) 0.48401(8)
H1 H 0.568(2) 0.6519(10) 0.6524(7)
H2 H 0.5736(19) 0.6020(10) 0.5730(7)
H3 H 0.646(2) 0.4936(10) 0.7061(7)
H4 H 0.812(2) 0.5093(10) 0.6542(7)
H5 H 0.858(2) 0.3153(10) 0.6596(7)
H6 H 0.194(2) 0.2877(9) 0.5200(7)
H7 H 0.101(2) 0.4563(10) 0.5668(6)
H8 H 0.2547(19) 0.5057(10) 0.5145(7)
H9 H 0.018(2) 0.6290(10) 0.5874(7)
H10 H 0.200(2) 0.6694(10) 0.5405(7)
H11 H 0.374(2) 0.8280(10) 0.5670(7)
H12 H 0.447(2) 0.9739(11) 0.6417(7)
H13 H 0.144(2) 0.8443(10) 0.7890(7)
H14 H 0.070(2) 0.6961(11) 0.7182(7)
H15 H 0.276(3) 1.0161(12) 0.7948(9)
H16 H 1.017(3) 0.0599(14) 0.6585(9)
H17 H 0.932(3) 0.1501(14) 0.7064(10)
H18 H 1.080(3) 0.1812(14) 0.6435(9)
H19 H 0.227(2) 0.0307(14) 0.4688(9)
H20 H 0.100(3) 0.1140(13) 0.5093(9)
H21 H 0.214(3) 0.1513(13) 0.4417(9)
loop_
_geom_bond_atom_site_label_1
_geom_bond_atom_site_label_2
_geom_bond_site_symmetry_1
_geom_bond_site_symmetry_2
N1 C1 1_555 1_555
C1 C2 1_555 1_555
C2 C3 1_555 1_555
C3 C4 1_555 1_555
C4 C5 1_555 1_555
C5 C6 1_555 1_555
C6 C7 1_555 1_555
C7 C8 1_555 1_555
C8 C3 1_555 1_555
C9 N1 1_555 1_555
C10 N1 1_555 1_555
C11 C10 1_555 1_555
C12 C11 1_555 1_555
C13 C12 1_555 1_555
C14 C13 1_555 1_555
C15 C14 1_555 1_555
C16 C11 1_555 1_555
O1 C14 1_555 1_555
O2 C5 1_555 1_555
C17 O2 1_555 1_555
O3 C6 1_555 1_555
C18 O3 1_555 1_555
H1 C1 1_555 1_555
H2 C1 1_555 1_555
H3 C2 1_555 1_555
H4 C2 1_555 1_555
H5 C4 1_555 1_555
H6 C7 1_555 1_555
H7 C9 1_555 1_555
H8 C9 1_555 1_555
H9 C10 1_555 1_555
H10 C10 1_555 1_555
H11 C12 1_555 1_555
H12 C13 1_555 1_555
H13 C15 1_555 1_555
H14 C16 1_555 1_555
H15 O1 1_555 1_555
H16 C17 1_555 1_555
H17 C17 1_555 1_555
H18 C17 1_555 1_555
H19 C18 1_555 1_555
H20 C18 1_555 1_555
H21 C18 1_555 1_555
C8 C9 1_555 1_555
C15 C16 1_555 1_555

#END
