
#######################################################################
#
#                 Cambridge Crystallographic Data Centre
#                                CCDC 
#
#######################################################################
#
# If this CIF has been generated from an entry in the Cambridge 
# Structural Database, then it will include bibliographic, chemical, 
# crystal, experimental, refinement or atomic coordinate data resulting 
# from the CCDC's data processing and validation procedures.
#
#######################################################################

data_CAKCAV
_chemical_formula_moiety         'C20 H15 N1 O4'
_chemical_name_systematic        
13-methyl-13,14-dihydro[1,3]benzodioxolo[5,6-c][1,3]dioxolo[4,5-i]phenanthridine
_symmetry_cell_setting           triclinic
_symmetry_space_group_name_H-M   'P -1'
_symmetry_Int_Tables_number      2
_space_group_name_Hall           '-P 1'
loop_
_symmetry_equiv_pos_site_id
_symmetry_equiv_pos_as_xyz
1 x,y,z
2 -x,-y,-z
_cell_length_a                   9.3269(2)
_cell_length_b                   10.2708(2)
_cell_length_c                   17.5397(3)
_cell_angle_alpha                103.6455(9)
_cell_angle_beta                 100.3950(12)
_cell_angle_gamma                103.6436(12)
_cell_volume                     1536.33
_exptl_crystal_colour            colorless
_exptl_crystal_description       block
_cell_formula_units_Z            4
loop_
_atom_site_label
_atom_site_type_symbol
_atom_site_fract_x
_atom_site_fract_y
_atom_site_fract_z
C1 C 1.0643(3) 0.5629(3) 0.16694(17)
N1 N 0.96092(19) 0.44779(19) 0.09810(12)
C2 C 0.8825(2) 0.3348(2) 0.12391(12)
C3 C 0.9524(2) 0.2273(2) 0.13075(12)
C4 C 1.0907(2) 0.2260(2) 0.10730(14)
C5 C 1.1461(2) 0.1172(2) 0.11363(14)
O1 O 1.27751(19) 0.09300(19) 0.09618(13)
C6 C 1.2688(3) -0.0458(3) 0.10028(19)
O2 O 1.1615(2) -0.08084(19) 0.14662(14)
C7 C 1.0752(3) 0.0110(2) 0.14449(15)
C8 C 0.9448(2) 0.0082(2) 0.16813(15)
C9 C 0.8784(2) 0.1175(2) 0.16027(12)
C10 C 0.7360(2) 0.1162(2) 0.17739(13)
C11 C 0.6686(2) 0.2178(2) 0.16755(12)
C12 C 0.7425(2) 0.3313(2) 0.14191(11)
C13 C 0.6748(2) 0.4453(2) 0.13453(12)
C14 C 0.5573(2) 0.4702(2) 0.17003(14)
C15 C 0.4900(2) 0.5741(2) 0.15775(15)
C16 C 0.5450(2) 0.6524(2) 0.11015(14)
O3 O 0.5013(2) 0.7610(2) 0.08936(13)
C17 C 0.5861(3) 0.7951(2) 0.03240(14)
O4 O 0.6981(2) 0.72128(19) 0.03137(11)
C18 C 0.6631(2) 0.6296(2) 0.07579(13)
C19 C 0.7303(2) 0.5276(2) 0.08606(12)
C20 C 0.8540(2) 0.4954(3) 0.04701(14)
H1 H 1.1191 0.6350 0.1462
H2 H 1.1387 0.5264 0.1963
H3 H 1.0072 0.6020 0.2023
H4 H 1.1389 0.2985 0.0874
H5 H 1.3685 -0.0508 0.1279
H6 H 1.2343 -0.1124 0.0447
H7 H 0.8971 -0.0627 0.1897
H8 H 0.6863 0.0431 0.1966
H9 H 0.5699 0.2122 0.1772
H10 H 0.5210 0.4172 0.2039
H11 H 0.4081 0.5914 0.1803
H12 H 0.6374 0.8972 0.0497
H13 H 0.5209 0.7653 -0.0213
H14 H 0.9086 0.5766 0.0339
H15 H 0.8067 0.4203 -0.0036
C21 C 0.0779(3) 0.5975(2) 0.64495(15)
N2 N 0.13948(19) 0.65442(18) 0.58425(11)
C22 C 0.2414(2) 0.7931(2) 0.61899(12)
C23 C 0.1771(2) 0.9070(2) 0.62656(13)
C24 C 0.0170(3) 0.8835(2) 0.59722(15)
C25 C -0.0339(3) 0.9986(3) 0.60531(16)
O5 O -0.1814(2) 1.0024(2) 0.58207(16)
C26 C -0.1741(4) 1.1463(3) 0.5981(2)
O6 O -0.0212(3) 1.2287(2) 0.64086(15)
C27 C 0.0628(3) 1.1358(3) 0.64126(16)
C28 C 0.2148(3) 1.1632(2) 0.67044(15)
C29 C 0.2751(3) 1.0465(2) 0.66283(13)
C30 C 0.4340(3) 1.0667(2) 0.68870(14)
C31 C 0.4935(2) 0.9559(2) 0.67903(13)
C32 C 0.3980(2) 0.8160(2) 0.64463(12)
C33 C 0.4600(2) 0.6954(2) 0.63822(12)
C34 C 0.6056(2) 0.7041(3) 0.68097(14)
C35 C 0.6589(2) 0.5862(3) 0.67312(15)
C36 C 0.5624(3) 0.4613(3) 0.62165(15)
O7 O 0.5857(2) 0.3313(2) 0.60423(13)
C37 C 0.4550(3) 0.2414(3) 0.54027(15)
O8 O 0.3448(2) 0.31639(19) 0.53192(12)
C38 C 0.4184(2) 0.4517(2) 0.57867(13)
C39 C 0.3630(2) 0.5651(2) 0.58517(13)
C40 C 0.2101(2) 0.5605(2) 0.53748(13)
H16 H -0.0020 0.5091 0.6168
H17 H 0.0293 0.6630 0.6724
H18 H 0.1574 0.5830 0.6836
H19 H -0.0499 0.7916 0.5720
H20 H -0.2454 1.1721 0.6313
H21 H -0.1989 1.1688 0.5460
H22 H 0.2783 1.2568 0.6954
H23 H 0.4983 1.1582 0.7135
H24 H 0.6014 0.9726 0.6955
H25 H 0.6708 0.7923 0.7161
H26 H 0.7593 0.5945 0.7013
H27 H 0.4095 0.1555 0.5541
H28 H 0.4843 0.2213 0.4900
H29 H 0.1424 0.4643 0.5183
H30 H 0.2250 0.5891 0.4889
loop_
_geom_bond_atom_site_label_1
_geom_bond_atom_site_label_2
_geom_bond_site_symmetry_1
_geom_bond_site_symmetry_2
C1 N1 1_555 1_555
N1 C2 1_555 1_555
C2 C3 1_555 1_555
C3 C4 1_555 1_555
C4 C5 1_555 1_555
C5 O1 1_555 1_555
O1 C6 1_555 1_555
C6 O2 1_555 1_555
O2 C7 1_555 1_555
C7 C5 1_555 1_555
C8 C7 1_555 1_555
C9 C3 1_555 1_555
C10 C9 1_555 1_555
C11 C10 1_555 1_555
C12 C2 1_555 1_555
C13 C12 1_555 1_555
C14 C13 1_555 1_555
C15 C14 1_555 1_555
C16 C15 1_555 1_555
O3 C16 1_555 1_555
C17 O3 1_555 1_555
O4 C17 1_555 1_555
C18 C16 1_555 1_555
C19 C13 1_555 1_555
C20 N1 1_555 1_555
H1 C1 1_555 1_555
H2 C1 1_555 1_555
H3 C1 1_555 1_555
H4 C4 1_555 1_555
H5 C6 1_555 1_555
H6 C6 1_555 1_555
H7 C8 1_555 1_555
H8 C10 1_555 1_555
H9 C11 1_555 1_555
H10 C14 1_555 1_555
H11 C15 1_555 1_555
H12 C17 1_555 1_555
H13 C17 1_555 1_555
H14 C20 1_555 1_555
H15 C20 1_555 1_555
C21 N2 1_555 1_555
N2 C22 1_555 1_555
C22 C23 1_555 1_555
C23 C24 1_555 1_555
C24 C25 1_555 1_555
C25 O5 1_555 1_555
O5 C26 1_555 1_555
C26 O6 1_555 1_555
O6 C27 1_555 1_555
C27 C25 1_555 1_555
C28 C27 1_555 1_555
C29 C23 1_555 1_555
C30 C29 1_555 1_555
C31 C30 1_555 1_555
C32 C22 1_555 1_555
C33 C32 1_555 1_555
C34 C33 1_555 1_555
C35 C34 1_555 1_555
C36 C35 1_555 1_555
O7 C36 1_555 1_555
C37 O7 1_555 1_555
O8 C37 1_555 1_555
C38 C36 1_555 1_555
C39 C33 1_555 1_555
C40 N2 1_555 1_555
H16 C21 1_555 1_555
H17 C21 1_555 1_555
H18 C21 1_555 1_555
H19 C24 1_555 1_555
H20 C26 1_555 1_555
H21 C26 1_555 1_555
H22 C28 1_555 1_555
H23 C30 1_555 1_555
H24 C31 1_555 1_555
H25 C34 1_555 1_555
H26 C35 1_555 1_555
H27 C37 1_555 1_555
H28 C37 1_555 1_555
H29 C40 1_555 1_555
H30 C40 1_555 1_555
C8 C9 1_555 1_555
C11 C12 1_555 1_555
O4 C18 1_555 1_555
C18 C19 1_555 1_555
C19 C20 1_555 1_555
C28 C29 1_555 1_555
C31 C32 1_555 1_555
O8 C38 1_555 1_555
C38 C39 1_555 1_555
C39 C40 1_555 1_555

#END
