
#######################################################################
#
#                 Cambridge Crystallographic Data Centre
#                                CCDC 
#
#######################################################################
#
# If this CIF has been generated from an entry in the Cambridge 
# Structural Database, then it will include bibliographic, chemical, 
# crystal, experimental, refinement or atomic coordinate data resulting 
# from the CCDC's data processing and validation procedures.
#
#######################################################################

data_CAKMUZ
_chemical_formula_moiety         'C20 H15 N5 O1 S1'
_chemical_name_systematic        
N'-(3-amino-4-(phenylsulfanyl)-1H-isoindol-1-ylidene)pyridine-2-carbohydrazide
_symmetry_cell_setting           monoclinic
_symmetry_space_group_name_H-M   'P 21/c'
_symmetry_Int_Tables_number      14
_space_group_name_Hall           '-P 2ybc'
loop_
_symmetry_equiv_pos_site_id
_symmetry_equiv_pos_as_xyz
1 x,y,z
2 -x,1/2+y,1/2-z
3 -x,-y,-z
4 x,1/2-y,1/2+z
_cell_length_a                   13.1211(14)
_cell_length_b                   13.2319(13)
_cell_length_c                   10.4040(9)
_cell_angle_alpha                90
_cell_angle_beta                 104.124(5)
_cell_angle_gamma                90
_cell_volume                     1751.71
_exptl_crystal_colour            'light yellow'
_exptl_crystal_description       needle
_cell_formula_units_Z            4
loop_
_atom_site_label
_atom_site_type_symbol
_atom_site_fract_x
_atom_site_fract_y
_atom_site_fract_z
S1 S 0.26456(9) 0.32589(8) 0.51897(9)
O1 O -0.1675(3) 0.0657(2) 0.9965(3)
N1 N 0.0154(3) 0.3092(2) 0.7802(3)
N2 N 0.0951(3) 0.4253(3) 0.6659(4)
N3 N -0.0319(3) 0.1497(3) 0.8597(3)
N4 N -0.0917(3) 0.2047(3) 0.9265(3)
N5 N -0.1932(3) 0.3277(3) 1.0576(3)
C1 C 0.0189(3) 0.2042(3) 0.7938(4)
C2 C 0.0803(3) 0.3315(3) 0.7029(4)
C3 C 0.2071(3) 0.2260(3) 0.5906(4)
C4 C 0.2353(4) 0.1266(3) 0.5727(4)
C5 C 0.1919(4) 0.0452(3) 0.6271(5)
C6 C 0.1201(4) 0.0611(3) 0.7013(4)
C7 C 0.0902(3) 0.1597(3) 0.7182(4)
C8 C 0.1311(3) 0.2410(3) 0.6632(4)
C9 C 0.3685(3) 0.3669(3) 0.6530(4)
C10 C 0.4325(4) 0.4443(3) 0.6249(4)
C11 C 0.5134(4) 0.4821(4) 0.7236(5)
C12 C 0.5337(4) 0.4429(4) 0.8513(4)
C13 C 0.4699(4) 0.3659(4) 0.8790(4)
C14 C 0.3881(4) 0.3277(4) 0.7802(4)
C15 C -0.1560(3) 0.1579(3) 0.9921(4)
C16 C -0.2147(3) 0.2282(3) 1.0610(4)
C17 C -0.2426(4) 0.3890(3) 1.1263(4)
C18 C -0.3143(4) 0.3554(4) 1.1937(4)
C19 C -0.3376(4) 0.2541(4) 1.1941(4)
C20 C -0.2857(4) 0.1886(4) 1.1272(4)
H1 H 0.284(5) 0.113(4) 0.520(5)
H2 H 0.213(3) -0.021(3) 0.612(4)
H3 H 0.095(4) 0.009(4) 0.740(5)
H4 H 0.130(4) 0.438(3) 0.611(4)
H5 H 0.056(4) 0.488(4) 0.686(4)
H6 H 0.409(4) 0.474(3) 0.527(4)
H7 H 0.557(4) 0.534(4) 0.696(5)
H8 H 0.592(4) 0.471(4) 0.926(5)
H9 H 0.483(4) 0.337(3) 0.974(4)
H10 H 0.357(4) 0.272(4) 0.801(4)
H11 H -0.090(4) 0.274(4) 0.924(4)
H12 H -0.224(4) 0.465(4) 1.122(4)
H13 H -0.341(4) 0.406(4) 1.229(5)
H14 H -0.393(5) 0.225(4) 1.238(5)
H15 H -0.301(5) 0.115(4) 1.125(5)
loop_
_geom_bond_atom_site_label_1
_geom_bond_atom_site_label_2
_geom_bond_site_symmetry_1
_geom_bond_site_symmetry_2
S1 C3 1_555 1_555
O1 C15 1_555 1_555
N1 C1 1_555 1_555
N2 C2 1_555 1_555
N3 N4 1_555 1_555
N4 C15 1_555 1_555
N5 C16 1_555 1_555
C1 N3 1_555 1_555
C2 N1 1_555 1_555
C3 C4 1_555 1_555
C4 C5 1_555 1_555
C5 C6 1_555 1_555
C6 C7 1_555 1_555
C7 C1 1_555 1_555
C8 C2 1_555 1_555
C9 S1 1_555 1_555
C10 C9 1_555 1_555
C11 C10 1_555 1_555
C12 C11 1_555 1_555
C13 C12 1_555 1_555
C14 C9 1_555 1_555
C15 C16 1_555 1_555
C16 C20 1_555 1_555
C17 N5 1_555 1_555
C18 C17 1_555 1_555
C19 C18 1_555 1_555
C20 C19 1_555 1_555
H1 C4 1_555 1_555
H2 C5 1_555 1_555
H3 C6 1_555 1_555
H4 N2 1_555 1_555
H5 N2 1_555 1_555
H6 C10 1_555 1_555
H7 C11 1_555 1_555
H8 C12 1_555 1_555
H9 C13 1_555 1_555
H10 C14 1_555 1_555
H11 N4 1_555 1_555
H12 C17 1_555 1_555
H13 C18 1_555 1_555
H14 C19 1_555 1_555
H15 C20 1_555 1_555
C3 C8 1_555 1_555
C7 C8 1_555 1_555
C13 C14 1_555 1_555

#END
