
#######################################################################
#
#                 Cambridge Crystallographic Data Centre
#                                CCDC 
#
#######################################################################
#
# If this CIF has been generated from an entry in the Cambridge 
# Structural Database, then it will include bibliographic, chemical, 
# crystal, experimental, refinement or atomic coordinate data resulting 
# from the CCDC's data processing and validation procedures.
#
#######################################################################

data_CAKMOT
_chemical_formula_moiety         'C20 H15 N5 O2,0.5(C7 H8)'
_chemical_name_systematic        
"N'-(3-amino-7-phenoxy-1H-isoindol-1-ylidene)pyridine-2-carbohydrazide toluene solvate"
_symmetry_cell_setting           monoclinic
_symmetry_space_group_name_H-M   'P 21'
_symmetry_Int_Tables_number      4
_space_group_name_Hall           'P 2yb'
loop_
_symmetry_equiv_pos_site_id
_symmetry_equiv_pos_as_xyz
1 x,y,z
2 -x,1/2+y,-z
_cell_length_a                   7.7598(11)
_cell_length_b                   18.275(2)
_cell_length_c                   14.398(3)
_cell_angle_alpha                90
_cell_angle_beta                 92.142(4)
_cell_angle_gamma                90
_cell_volume                     2040.36
_exptl_crystal_colour            'pale yellow'
_exptl_crystal_description       Cube
_cell_formula_units_Z            4
loop_
_atom_site_label
_atom_site_type_symbol
_atom_site_fract_x
_atom_site_fract_y
_atom_site_fract_z
O1 O 0.6765(8) 0.2675(4) -0.2331(4)
O2 O 0.1269(8) 0.3858(3) -0.2075(4)
N1 N 0.3425(9) 0.2703(4) 0.0439(5)
N2 N 0.1690(10) 0.2588(4) 0.1723(5)
N3 N 0.4165(9) 0.2959(4) -0.1140(5)
N4 N 0.5605(9) 0.2542(4) -0.0898(5)
N5 N 0.8277(10) 0.1735(5) -0.0285(6)
C1 C 0.3113(11) 0.3017(5) -0.0451(6)
C2 C 0.1949(12) 0.2829(5) 0.0874(7)
C3 C -0.0937(12) 0.3509(6) 0.0495(7)
C4 C -0.1795(13) 0.3896(6) -0.0211(7)
C5 C -0.1123(12) 0.4020(6) -0.1070(6)
C6 C 0.0559(12) 0.3767(5) -0.1240(6)
C7 C 0.1483(11) 0.3392(6) -0.0550(6)
C8 C 0.0699(11) 0.3261(5) 0.0313(5)
C9 C 0.6876(11) 0.2439(6) -0.1514(6)
C10 C 0.8360(11) 0.2019(6) -0.1153(6)
C11 C 0.9664(14) 0.1368(6) 0.0031(9)
C12 C 1.1138(13) 0.1266(6) -0.0434(8)
C13 C 1.1200(11) 0.1551(6) -0.1326(8)
C14 C 0.9790(12) 0.1930(6) -0.1704(7)
C15 C 0.0587(11) 0.4403(5) -0.2685(6)
C16 C 0.0614(11) 0.5124(6) -0.2426(7)
C17 C 0.0076(11) 0.5658(6) -0.3026(6)
C18 C -0.0527(11) 0.5471(6) -0.3940(7)
C19 C -0.0549(12) 0.4751(6) -0.4172(6)
C20 C 0.0002(12) 0.4219(6) -0.3543(7)
H1 H 0.0562 0.2695 0.2021
H2 H 0.2615 0.2301 0.2286
H3 H 0.5703 0.2335 -0.0323
H4 H -0.1465 0.3417 0.1091
H5 H -0.2942 0.4092 -0.0092
H6 H -0.1801 0.4279 -0.1555
H7 H 0.9617 0.1152 0.0653
H8 H 1.2120 0.1000 -0.0151
H9 H 1.2233 0.1485 -0.1688
H10 H 0.9797 0.2129 -0.2336
H11 H 0.1029 0.5256 -0.1797
H12 H 0.0103 0.6172 -0.2828
H13 H -0.0912 0.5848 -0.4386
H14 H -0.0963 0.4604 -0.4796
H15 H -0.0035 0.3703 -0.3726
O3 O -0.1694(8) 0.2746(4) 0.2506(4)
O4 O 0.3833(8) 0.1543(4) 0.2978(4)
N6 N 0.1728(9) 0.2692(4) 0.5376(4)
N7 N 0.3486(10) 0.2831(5) 0.6765(5)
N8 N 0.0933(9) 0.2440(4) 0.3785(5)
N9 N -0.0575(10) 0.2835(5) 0.3997(5)
N10 N -0.3203(10) 0.3609(5) 0.4518(6)
C21 C 0.1958(12) 0.2385(5) 0.4514(6)
C22 C 0.3162(11) 0.2601(5) 0.5872(6)
C23 C 0.6168(11) 0.1976(5) 0.5612(6)
C24 C 0.7058(12) 0.1579(5) 0.4954(6)
C25 C 0.6278(12) 0.1404(5) 0.4091(6)
C26 C 0.4581(11) 0.1638(5) 0.3849(6)
C27 C 0.3733(10) 0.2042(5) 0.4518(6)
C28 C 0.4500(11) 0.2183(5) 0.5386(6)
C29 C -0.1784(11) 0.2954(5) 0.3328(6)
C30 C -0.3341(11) 0.3351(5) 0.3649(7)
C31 C -0.4612(14) 0.3963(6) 0.4825(8)
C32 C -0.6116(13) 0.4055(6) 0.4287(7)
C33 C -0.6248(13) 0.3768(6) 0.3410(7)
C34 C -0.4789(12) 0.3412(6) 0.3072(6)
C35 C 0.4465(13) 0.0987(5) 0.2442(6)
C36 C 0.5026(12) 0.1184(6) 0.1549(6)
C37 C 0.5507(11) 0.0617(5) 0.0968(6)
C38 C 0.5477(12) -0.0104(5) 0.1216(7)
C39 C 0.4938(12) -0.0283(5) 0.2129(7)
C40 C 0.4390(12) 0.0260(5) 0.2684(7)
H16 H 0.4642 0.2730 0.7084
H17 H 0.2572 0.3105 0.7105
H18 H -0.0719 0.3006 0.4583
H19 H 0.6714 0.2103 0.6215
H20 H 0.8244 0.1420 0.5099
H21 H 0.6917 0.1114 0.3646
H22 H -0.4563 0.4162 0.5457
H23 H -0.7085 0.4327 0.4535
H24 H -0.7319 0.3809 0.3031
H25 H -0.4804 0.3213 0.2439
H26 H 0.5071 0.1696 0.1350
H27 H 0.5890 0.0742 0.0347
H28 H 0.5815 -0.0487 0.0782
H29 H 0.4965 -0.0791 0.2347
H30 H 0.3920 0.0130 0.3284
C41 C 0.3205(16) 0.0175(8) 0.7361(10)
C42 C 0.4468(17) 0.0598(7) 0.6946(9)
C43 C 0.6130(18) 0.0640(8) 0.7354(9)
C44 C 0.6529(18) 0.0260(9) 0.8178(10)
C45 C 0.527(2) -0.0163(8) 0.8593(10)
C46 C 0.3603(18) -0.0205(8) 0.8185(10)
C47 C 0.148(3) 0.0157(14) 0.6878(16)
H31 H 0.4189 0.0865 0.6369
H32 H 0.7015 0.0936 0.7064
H33 H 0.7693 0.0289 0.8464
H34 H 0.5545 -0.0429 0.9170
H35 H 0.2719 -0.0501 0.8476
H36 H 0.1501 0.0495 0.6263
H37 H 0.0526 0.0362 0.7337
H38 H 0.1172 -0.0399 0.6682
C48? C 0.056(4) 0.0157(18) 0.682(2)
C49? C 0.176(4) 0.0602(17) 0.640(2)
C50? C 0.341(3) 0.0662(15) 0.6786(18)
C51? C 0.388(3) 0.0276(14) 0.7587(16)
C52? C 0.268(3) -0.0169(12) 0.8001(15)
C53? C 0.102(3) -0.0229(15) 0.7616(18)
C54? C 0.566(4) 0.036(2) 0.807(2)
H39? H -0.0614 0.0115 0.6543
H40? H 0.1429 0.0875 0.5835
H41? H 0.4259 0.0976 0.6493
H42? H 0.3005 -0.0442 0.8567
H43? H 0.0175 -0.0544 0.7909
H44? H 0.6629 0.0393 0.7552
H45? H 0.5918 -0.0107 0.8513
H46? H 0.5689 0.0853 0.8483
loop_
_geom_bond_atom_site_label_1
_geom_bond_atom_site_label_2
_geom_bond_site_symmetry_1
_geom_bond_site_symmetry_2
O1 C9 1_555 1_555
O2 C6 1_555 1_555
N1 C1 1_555 1_555
N2 C2 1_555 1_555
N3 N4 1_555 1_555
N4 C9 1_555 1_555
N5 C10 1_555 1_555
C1 N3 1_555 1_555
C2 N1 1_555 1_555
C3 C4 1_555 1_555
C4 C5 1_555 1_555
C5 C6 1_555 1_555
C6 C7 1_555 1_555
C7 C1 1_555 1_555
C8 C2 1_555 1_555
C9 C10 1_555 1_555
C10 C14 1_555 1_555
C11 N5 1_555 1_555
C12 C11 1_555 1_555
C13 C12 1_555 1_555
C14 C13 1_555 1_555
C15 O2 1_555 1_555
C16 C15 1_555 1_555
C17 C16 1_555 1_555
C18 C17 1_555 1_555
C19 C18 1_555 1_555
C20 C15 1_555 1_555
H1 N2 1_555 1_555
H2 N2 1_555 1_555
H3 N4 1_555 1_555
H4 C3 1_555 1_555
H5 C4 1_555 1_555
H6 C5 1_555 1_555
H7 C11 1_555 1_555
H8 C12 1_555 1_555
H9 C13 1_555 1_555
H10 C14 1_555 1_555
H11 C16 1_555 1_555
H12 C17 1_555 1_555
H13 C18 1_555 1_555
H14 C19 1_555 1_555
H15 C20 1_555 1_555
O3 C29 1_555 1_555
O4 C26 1_555 1_555
N6 C21 1_555 1_555
N7 C22 1_555 1_555
N8 N9 1_555 1_555
N9 C29 1_555 1_555
N10 C30 1_555 1_555
C21 N8 1_555 1_555
C22 N6 1_555 1_555
C23 C24 1_555 1_555
C24 C25 1_555 1_555
C25 C26 1_555 1_555
C26 C27 1_555 1_555
C27 C21 1_555 1_555
C28 C22 1_555 1_555
C29 C30 1_555 1_555
C30 C34 1_555 1_555
C31 N10 1_555 1_555
C32 C31 1_555 1_555
C33 C32 1_555 1_555
C34 C33 1_555 1_555
C35 O4 1_555 1_555
C36 C35 1_555 1_555
C37 C36 1_555 1_555
C38 C37 1_555 1_555
C39 C38 1_555 1_555
C40 C35 1_555 1_555
H16 N7 1_555 1_555
H17 N7 1_555 1_555
H18 N9 1_555 1_555
H19 C23 1_555 1_555
H20 C24 1_555 1_555
H21 C25 1_555 1_555
H22 C31 1_555 1_555
H23 C32 1_555 1_555
H24 C33 1_555 1_555
H25 C34 1_555 1_555
H26 C36 1_555 1_555
H27 C37 1_555 1_555
H28 C38 1_555 1_555
H29 C39 1_555 1_555
H30 C40 1_555 1_555
C41 C42 1_555 1_555
C42 C43 1_555 1_555
C43 C44 1_555 1_555
C44 C45 1_555 1_555
C45 C46 1_555 1_555
C46 C41 1_555 1_555
C47 C41 1_555 1_555
H31 C42 1_555 1_555
H32 C43 1_555 1_555
H33 C44 1_555 1_555
H34 C45 1_555 1_555
H35 C46 1_555 1_555
H36 C47 1_555 1_555
H37 C47 1_555 1_555
H38 C47 1_555 1_555
C3 C8 1_555 1_555
C7 C8 1_555 1_555
C19 C20 1_555 1_555
C23 C28 1_555 1_555
C27 C28 1_555 1_555
C39 C40 1_555 1_555

#END
