
#######################################################################
#
#                 Cambridge Crystallographic Data Centre
#                                CCDC 
#
#######################################################################
#
# If this CIF has been generated from an entry in the Cambridge 
# Structural Database, then it will include bibliographic, chemical, 
# crystal, experimental, refinement or atomic coordinate data resulting 
# from the CCDC's data processing and validation procedures.
#
#######################################################################

data_CAKNAG
_chemical_formula_moiety         'C17 H17 N5 O2'
_chemical_name_systematic        
N'-(3-amino-1H-isoindol-1-ylidene)-4-isopropoxypyridine-2-carbohydrazide
_symmetry_cell_setting           triclinic
_symmetry_space_group_name_H-M   'P -1'
_symmetry_Int_Tables_number      2
_space_group_name_Hall           '-P 1'
loop_
_symmetry_equiv_pos_site_id
_symmetry_equiv_pos_as_xyz
1 x,y,z
2 -x,-y,-z
_cell_length_a                   8.0035(12)
_cell_length_b                   8.1503(12)
_cell_length_c                   13.081(3)
_cell_angle_alpha                81.871(7)
_cell_angle_beta                 85.700(8)
_cell_angle_gamma                64.789(7)
_cell_volume                     764.146
_exptl_crystal_colour            colorless
_exptl_crystal_description       Cube
_cell_formula_units_Z            2
loop_
_atom_site_label
_atom_site_type_symbol
_atom_site_fract_x
_atom_site_fract_y
_atom_site_fract_z
O1 O 0.4434(6) 0.8685(5) 0.3371(3)
O2 O 0.2554(5) 0.3648(4) 0.4803(3)
N1 N 0.6129(6) 0.7562(6) 0.1937(3)
N2 N 0.6167(6) 0.9165(5) 0.1482(3)
N3 N 0.8052(6) 0.7342(5) 0.0194(3)
N4 N 0.9978(7) 0.6468(6) -0.1248(3)
C1 C 0.5190(7) 0.5601(6) 0.3121(4)
C2 C 0.3994(7) 0.5390(7) 0.3890(4)
C3 C 0.3803(7) 0.3762(6) 0.4068(3)
C4 C 0.4871(8) 0.2380(7) 0.3483(4)
C5 C 0.6095(8) 0.2684(7) 0.2763(4)
N5 N 0.6297(6) 0.4242(5) 0.2566(3)
C6 C 0.2068(9) 0.2101(7) 0.4903(4)
C7 C 0.1148(9) 0.2084(8) 0.5940(5)
C8 C 0.0816(10) 0.2325(9) 0.4022(4)
C9 C 0.5221(7) 0.7434(6) 0.2840(4)
C10 C 0.7094(7) 0.8987(6) 0.0618(3)
C11 C 0.7349(7) 1.0493(7) -0.0041(3)
C12 C 0.6768(8) 1.2325(6) 0.0035(4)
C13 C 0.7354(8) 1.3360(8) -0.0740(4)
C14 C 0.8473(8) 1.2542(7) -0.1547(4)
C15 C 0.9020(8) 1.0708(7) -0.1642(4)
C16 C 0.8447(7) 0.9706(6) -0.0870(4)
C17 C 0.8865(8) 0.7744(6) -0.0660(4)
H1 H 0.0664 0.1072 0.4016
H2 H 0.1419 0.2637 0.3297
H3 H -0.0523 0.3425 0.4130
H4 H 0.641(10) 0.669(9) 0.163(5)
H5 H 1.065(8) 0.680(6) -0.181(4)
H6 H 1.034(9) 0.530(9) -0.097(5)
H7 H 0.349(8) 0.636(7) 0.430(4)
H8 H 0.483(6) 0.131(6) 0.352(3)
H9 H 0.670(8) 0.170(7) 0.234(4)
H10 H 0.324(9) 0.091(7) 0.485(4)
H11 H 0.065(9) 0.098(7) 0.602(4)
H12 H 0.202(11) 0.188(9) 0.658(5)
H13 H 0.003(10) 0.337(8) 0.591(4)
H14 H 0.618(8) 1.278(6) 0.061(4)
H15 H 0.706(8) 1.461(8) -0.067(4)
H16 H 0.881(7) 1.328(6) -0.210(3)
H17 H 0.986(7) 1.011(6) -0.220(4)
loop_
_geom_bond_atom_site_label_1
_geom_bond_atom_site_label_2
_geom_bond_site_symmetry_1
_geom_bond_site_symmetry_2
O1 C9 1_555 1_555
O2 C3 1_555 1_555
N1 N2 1_555 1_555
N2 C10 1_555 1_555
N3 C10 1_555 1_555
N4 C17 1_555 1_555
C1 C2 1_555 1_555
C2 C3 1_555 1_555
C3 C4 1_555 1_555
C4 C5 1_555 1_555
C5 N5 1_555 1_555
N5 C1 1_555 1_555
C6 O2 1_555 1_555
C7 C6 1_555 1_555
C8 C6 1_555 1_555
C9 N1 1_555 1_555
C10 C11 1_555 1_555
C11 C12 1_555 1_555
C12 C13 1_555 1_555
C13 C14 1_555 1_555
C14 C15 1_555 1_555
C15 C16 1_555 1_555
C16 C11 1_555 1_555
C17 N3 1_555 1_555
H1 C8 1_555 1_555
H2 C8 1_555 1_555
H3 C8 1_555 1_555
H4 N1 1_555 1_555
H5 N4 1_555 1_555
H6 N4 1_555 1_555
H7 C2 1_555 1_555
H8 C4 1_555 1_555
H9 C5 1_555 1_555
H10 C6 1_555 1_555
H11 C7 1_555 1_555
H12 C7 1_555 1_555
H13 C7 1_555 1_555
H14 C12 1_555 1_555
H15 C13 1_555 1_555
H16 C14 1_555 1_555
H17 C15 1_555 1_555
C1 C9 1_555 1_555
C16 C17 1_555 1_555

#END
