
#######################################################################
#
#                 Cambridge Crystallographic Data Centre
#                                CCDC 
#
#######################################################################
#
# If this CIF has been generated from an entry in the Cambridge 
# Structural Database, then it will include bibliographic, chemical, 
# crystal, experimental, refinement or atomic coordinate data resulting 
# from the CCDC's data processing and validation procedures.
#
#######################################################################

data_CAKNOU
_chemical_formula_moiety         'C11 H13 N3 O4'
_chemical_name_systematic        
2-(hydroxymethyl)-5-(3H-imidazo[4,5-c]pyridin-3-yl)tetrahydrofuran-3,4-diol
_symmetry_cell_setting           orthorhombic
_symmetry_space_group_name_H-M   'P 21 21 21'
_symmetry_Int_Tables_number      19
_space_group_name_Hall           'P 2ac 2ab'
loop_
_symmetry_equiv_pos_site_id
_symmetry_equiv_pos_as_xyz
1 x,y,z
2 1/2-x,-y,1/2+z
3 1/2+x,1/2-y,-z
4 -x,1/2+y,1/2-z
_cell_length_a                   5.3464(2)
_cell_length_b                   12.4150(4)
_cell_length_c                   16.2711(6)
_cell_angle_alpha                90
_cell_angle_beta                 90
_cell_angle_gamma                90
_cell_volume                     1080
_exptl_crystal_colour            colorless
_exptl_crystal_description       needle
_cell_formula_units_Z            4
loop_
_atom_site_label
_atom_site_type_symbol
_atom_site_fract_x
_atom_site_fract_y
_atom_site_fract_z
O1 O 0.7261(2) 0.05489(9) 0.05681(8)
O2 O 0.3886(2) 0.11589(8) 0.19236(6)
O3 O 0.6288(2) 0.38016(8) 0.16821(7)
O4 O 0.19344(18) 0.31224(8) 0.10556(6)
N1 N 0.7374(2) 0.15577(9) 0.27069(6)
N2 N 0.9749(3) 0.03046(9) 0.33213(7)
N3 N 1.1216(3) 0.34906(9) 0.39018(7)
C1 C 0.5313(2) 0.20206(10) 0.22215(7)
C2 C 0.6170(2) 0.26960(9) 0.14758(8)
C3 C 0.4049(2) 0.24711(9) 0.08679(7)
C4 C 0.3331(2) 0.13132(10) 0.10578(8)
C5 C 0.4618(3) 0.04592(10) 0.05466(9)
C6 C 0.7884(3) 0.04926(10) 0.28074(8)
C7 C 1.0518(2) 0.13083(10) 0.35778(7)
C8 C 1.2424(3) 0.16252(11) 0.41124(7)
C9 C 1.2653(3) 0.27137(12) 0.42533(8)
C10 C 0.9418(3) 0.31960(10) 0.33753(7)
C11 C 0.9042(2) 0.21102(9) 0.32085(7)
H1 H 0.157(3) 0.1251(14) 0.0969(10)
H2 H 0.438(4) 0.2525(17) 0.2587(12)
H3 H 0.452(3) 0.2586(13) 0.0286(10)
H4 H 0.394(4) -0.0299(15) 0.0755(11)
H5 H 0.395(4) 0.0534(17) -0.0074(11)
H6 H 1.359(5) 0.1101(18) 0.4388(13)
H7 H 0.775(3) 0.2412(15) 0.1249(11)
H8 H 0.801(5) -0.010(2) 0.0725(13)
H9 H 0.857(4) 0.3761(15) 0.3120(10)
H10 H 0.780(5) 0.410(2) 0.1625(15)
H11 H 0.702(4) -0.0052(16) 0.2509(11)
H12 H 1.373(5) 0.305(2) 0.4686(14)
H13 H 0.241(4) 0.380(2) 0.0997(13)
loop_
_geom_bond_atom_site_label_1
_geom_bond_atom_site_label_2
_geom_bond_site_symmetry_1
_geom_bond_site_symmetry_2
O1 C5 1_555 1_555
O2 C1 1_555 1_555
O3 C2 1_555 1_555
O4 C3 1_555 1_555
N1 C1 1_555 1_555
N2 C6 1_555 1_555
N3 C9 1_555 1_555
C1 C2 1_555 1_555
C2 C3 1_555 1_555
C3 C4 1_555 1_555
C4 O2 1_555 1_555
C5 C4 1_555 1_555
C6 N1 1_555 1_555
C7 N2 1_555 1_555
C8 C7 1_555 1_555
C9 C8 1_555 1_555
C10 N3 1_555 1_555
C11 N1 1_555 1_555
H1 C4 1_555 1_555
H2 C1 1_555 1_555
H3 C3 1_555 1_555
H4 C5 1_555 1_555
H5 C5 1_555 1_555
H6 C8 1_555 1_555
H7 C2 1_555 1_555
H8 O1 1_555 1_555
H9 C10 1_555 1_555
H10 O3 1_555 1_555
H11 C6 1_555 1_555
H12 C9 1_555 1_555
H13 O4 1_555 1_555
C7 C11 1_555 1_555
C10 C11 1_555 1_555

#END
