
#######################################################################
#
#                 Cambridge Crystallographic Data Centre
#                                CCDC 
#
#######################################################################
#
# If this CIF has been generated from an entry in the Cambridge 
# Structural Database, then it will include bibliographic, chemical, 
# crystal, experimental, refinement or atomic coordinate data resulting 
# from the CCDC's data processing and validation procedures.
#
#######################################################################

data_CAKNIO
_chemical_formula_moiety         'C11 H14 N4 O4'
_chemical_name_systematic        
2-(hydroxymethyl)-5-(6-methyl-9H-purin-9-yl)tetrahydrofuran-3,4-diol
_symmetry_cell_setting           orthorhombic
_symmetry_space_group_name_H-M   'P 21 21 21'
_symmetry_Int_Tables_number      19
_space_group_name_Hall           'P 2ac 2ab'
loop_
_symmetry_equiv_pos_site_id
_symmetry_equiv_pos_as_xyz
1 x,y,z
2 1/2-x,-y,1/2+z
3 1/2+x,1/2-y,-z
4 -x,1/2+y,1/2-z
_cell_length_a                   5.5448(4)
_cell_length_b                   10.5831(10)
_cell_length_c                   20.346(2)
_cell_angle_alpha                90
_cell_angle_beta                 90
_cell_angle_gamma                90
_cell_volume                     1193.93
_exptl_crystal_colour            colorless
_exptl_crystal_description       needle
_cell_formula_units_Z            4
loop_
_atom_site_label
_atom_site_type_symbol
_atom_site_fract_x
_atom_site_fract_y
_atom_site_fract_z
O1 O 1.0898(6) 1.0327(3) 0.17468(14)
O2 O 0.7387(6) 1.2176(4) 0.21295(17)
O3 O 1.3008(6) 1.1932(3) 0.06503(16)
O4 O 0.8810(6) 1.0970(3) 0.01069(13)
N1 N 0.7313(8) 0.5368(4) 0.06390(18)
N2 N 0.9668(7) 0.7266(4) 0.05230(17)
N3 N 0.5146(7) 0.7931(4) 0.17290(18)
N4 N 0.8225(6) 0.8953(4) 0.12451(16)
C1 C 1.1342(9) 1.1689(4) 0.1729(2)
C2 C 1.0840(8) 1.2087(4) 0.10216(19)
C3 C 0.9002(8) 1.1107(4) 0.07939(17)
C4 C 1.0023(8) 0.9918(4) 0.11268(19)
C5 C 0.9879(8) 1.2322(5) 0.2254(2)
C6 C 0.4036(10) 0.5064(5) 0.1424(2)
C7 C 0.9066(9) 0.6079(5) 0.0381(2)
C8 C 0.8193(8) 0.7748(4) 0.09802(19)
C9 C 0.6275(7) 0.7139(4) 0.12803(18)
C10 C 0.5867(8) 0.5877(5) 0.11117(19)
C11 C 0.6334(8) 0.8984(5) 0.1682(2)
H1 H 1.3228 1.1852 0.1831
H2 H 1.0144 1.3038 0.0991
H3 H 0.7254 1.1326 0.0999
H4 H 1.1483 0.9536 0.0837
H5 H 1.0314 1.1914 0.2726
H6 H 1.0322 1.3315 0.2270
H7 H 0.4849 0.4177 0.1564
H8 H 0.2586 0.4891 0.1082
H9 H 0.3332 0.5530 0.1856
H10 H 1.0083 0.5654 0.0027
H11 H 0.5900 0.9770 0.1947
H12 H 0.662(13) 1.233(7) 0.249(4)
H13 H 1.35(2) 1.279(7) 0.040(5)
H14 H 1.025(16) 1.072(7) -0.011(3)
loop_
_geom_bond_atom_site_label_1
_geom_bond_atom_site_label_2
_geom_bond_site_symmetry_1
_geom_bond_site_symmetry_2
O1 C1 1_555 1_555
O2 C5 1_555 1_555
O3 C2 1_555 1_555
O4 C3 1_555 1_555
N1 C7 1_555 1_555
N2 C7 1_555 1_555
N3 C9 1_555 1_555
N4 C4 1_555 1_555
C1 C2 1_555 1_555
C2 C3 1_555 1_555
C3 C4 1_555 1_555
C4 O1 1_555 1_555
C5 C1 1_555 1_555
C6 C10 1_555 1_555
C7 H10 1_555 1_555
C8 N2 1_555 1_555
C9 C8 1_555 1_555
C10 N1 1_555 1_555
C11 N3 1_555 1_555
H1 C1 1_555 1_555
H2 C2 1_555 1_555
H3 C3 1_555 1_555
H4 C4 1_555 1_555
H5 C5 1_555 1_555
H6 C5 1_555 1_555
H7 C6 1_555 1_555
H8 C6 1_555 1_555
H9 C6 1_555 1_555
H11 C11 1_555 1_555
H12 O2 1_555 1_555
H13 O3 1_555 1_555
H14 O4 1_555 1_555
N4 C8 1_555 1_555
N4 C11 1_555 1_555
C9 C10 1_555 1_555

#END
