
#######################################################################
#
#                 Cambridge Crystallographic Data Centre
#                                CCDC 
#
#######################################################################
#
# If this CIF has been generated from an entry in the Cambridge 
# Structural Database, then it will include bibliographic, chemical, 
# crystal, experimental, refinement or atomic coordinate data resulting 
# from the CCDC's data processing and validation procedures.
#
#######################################################################

data_CAKNUA
_chemical_formula_moiety         'C10 H15 N2 Si1 1+,C1 F3 O3 S1 1-'
_chemical_name_systematic        
'1-(trimethylsilyl)-1H-pyrrolo[3,2-c]pyridin-5-ium trifluoromethanesulfonate'
_symmetry_cell_setting           triclinic
_symmetry_space_group_name_H-M   'P -1'
_symmetry_Int_Tables_number      2
_space_group_name_Hall           '-P 1'
loop_
_symmetry_equiv_pos_site_id
_symmetry_equiv_pos_as_xyz
1 x,y,z
2 -x,-y,-z
_cell_length_a                   6.8871(3)
_cell_length_b                   9.0688(3)
_cell_length_c                   12.7899(5)
_cell_angle_alpha                71.506(2)
_cell_angle_beta                 89.305(2)
_cell_angle_gamma                87.950(2)
_cell_volume                     757.089
_exptl_crystal_colour            colorless
_exptl_crystal_description       plate
_cell_formula_units_Z            2
loop_
_atom_site_label
_atom_site_type_symbol
_atom_site_fract_x
_atom_site_fract_y
_atom_site_fract_z
S1 S 0.32993(13) 0.91154(9) 0.74020(7)
O1 O 0.4164(5) 0.9294(3) 0.6345(2)
O2 O 0.4233(4) 0.8008(3) 0.8325(3)
O3 O 0.2689(4) 1.0576(3) 0.7562(2)
C1 C 0.1019(6) 0.8235(4) 0.7299(3)
F1 F 0.0020(4) 0.9107(3) 0.6413(3)
F2 F -0.0103(4) 0.8094(3) 0.8170(3)
F3 F 0.1304(4) 0.6831(2) 0.7197(2)
Si1 Si 0.67104(13) 0.28987(10) 0.86745(7)
N1 N 0.7152(4) 0.3223(3) 0.7219(2)
C2 C 0.7110(4) 0.4606(3) 0.6360(2)
C3 C 0.6680(5) 0.6124(4) 0.6358(3)
C4 C 0.6724(5) 0.7275(4) 0.5354(3)
N2 N 0.7157(4) 0.6945(3) 0.4420(2)
C5 C 0.7564(4) 0.5503(4) 0.4391(3)
C6 C 0.7534(4) 0.4265(3) 0.5367(2)
C7 C 0.7846(5) 0.2633(4) 0.5642(3)
C8 C 0.7612(5) 0.2056(4) 0.6750(3)
C9 C 0.8275(8) 0.4203(6) 0.9113(4)
C10 C 0.4112(6) 0.3345(5) 0.8827(3)
C11 C 0.7388(7) 0.0826(4) 0.9344(3)
H1 H 0.631(4) 0.636(4) 0.704(3)
H2 H 0.649(6) 0.841(5) 0.522(4)
H3 H 0.725(7) 0.761(6) 0.381(4)
H4 H 0.798(5) 0.536(4) 0.364(3)
H5 H 0.775(5) 0.097(5) 0.718(4)
H6 H 0.381(8) 0.324(6) 0.960(5)
H7 H 0.378(6) 0.454(6) 0.849(4)
H8 H 0.324(7) 0.270(6) 0.862(4)
H9 H 0.652(6) 0.016(5) 0.906(4)
H10 H 0.851(8) 0.090(7) 0.923(5)
H11 H 0.730(6) 0.062(6) 1.018(5)
H12 H 0.818(8) 0.396(6) 0.997(5)
H13 H 0.955(9) 0.413(7) 0.897(5)
H14 H 0.779(10) 0.538(9) 0.876(6)
H15 H 0.815(6) 0.188(6) 0.512(4)
loop_
_geom_bond_atom_site_label_1
_geom_bond_atom_site_label_2
_geom_bond_site_symmetry_1
_geom_bond_site_symmetry_2
S1 O1 1_555 1_555
O2 S1 1_555 1_555
O3 S1 1_555 1_555
C1 S1 1_555 1_555
F1 C1 1_555 1_555
F2 C1 1_555 1_555
F3 C1 1_555 1_555
Si1 N1 1_555 1_555
N1 C2 1_555 1_555
C2 C3 1_555 1_555
C3 C4 1_555 1_555
C4 N2 1_555 1_555
N2 C5 1_555 1_555
C5 C6 1_555 1_555
C6 C2 1_555 1_555
C7 C6 1_555 1_555
C8 N1 1_555 1_555
C9 Si1 1_555 1_555
C10 Si1 1_555 1_555
C11 Si1 1_555 1_555
H1 C3 1_555 1_555
H2 C4 1_555 1_555
H3 N2 1_555 1_555
H4 C5 1_555 1_555
H5 C8 1_555 1_555
H6 C10 1_555 1_555
H7 C10 1_555 1_555
H8 C10 1_555 1_555
H9 C11 1_555 1_555
H10 C11 1_555 1_555
H11 C11 1_555 1_555
H12 C9 1_555 1_555
H13 C9 1_555 1_555
H14 C9 1_555 1_555
H15 C7 1_555 1_555
C7 C8 1_555 1_555

#END
