
#######################################################################
#
#                 Cambridge Crystallographic Data Centre
#                                CCDC 
#
#######################################################################
#
# If this CIF has been generated from an entry in the Cambridge 
# Structural Database, then it will include bibliographic, chemical, 
# crystal, experimental, refinement or atomic coordinate data resulting 
# from the CCDC's data processing and validation procedures.
#
#######################################################################

data_CAKTOA
_chemical_formula_moiety         'C35 H58 K1 N6 O10 1+,0.75(H2 O1),I1 1-'
_chemical_name_systematic        
"(tri-t-butyl 2,2',2''-(10-(2-((4-methoxy-2-nitrophenyl)amino)-2-oxoethyl)-1,4,7,10-tetra-azacyclododecane-1,4,7-triyl)triacetate)-potassium iodide hydrate"
_symmetry_cell_setting           monoclinic
_symmetry_space_group_name_H-M   'C 2/c'
_symmetry_Int_Tables_number      15
_space_group_name_Hall           '-C 2yn'
loop_
_symmetry_equiv_pos_site_id
_symmetry_equiv_pos_as_xyz
1 x,y,z
2 -x,y,1/2-z
3 1/2+x,1/2+y,z
4 1/2-x,1/2+y,1/2-z
5 -x,-y,-z
6 x,-y,1/2+z
7 1/2-x,1/2-y,-z
8 1/2+x,1/2-y,1/2+z
_cell_length_a                   21.3350(4)
_cell_length_b                   23.2170(5)
_cell_length_c                   17.8310(4)
_cell_angle_alpha                90
_cell_angle_beta                 97.0750(10)
_cell_angle_gamma                90
_cell_volume                     8765.06
_exptl_crystal_colour            yellow
_exptl_crystal_description       block
_cell_formula_units_Z            8
loop_
_atom_site_label
_atom_site_type_symbol
_atom_site_fract_x
_atom_site_fract_y
_atom_site_fract_z
C1 C 0.3516(3) 0.0343(3) 0.4603(3)
H1 H 0.3921 0.0551 0.4604
H2 H 0.3605 -0.0024 0.4878
C2 C 0.3071(3) 0.0702(3) 0.5013(3)
H3 H 0.2684 0.0476 0.5057
H4 H 0.3276 0.0784 0.5531
C3 C 0.3380(3) 0.1687(3) 0.4799(3)
H5 H 0.3800 0.1508 0.4788
H6 H 0.3362 0.1839 0.5315
C4 C 0.3307(3) 0.2177(3) 0.4248(4)
H7 H 0.2898 0.2372 0.4282
H8 H 0.3647 0.2461 0.4388
C5 C 0.3986(3) 0.1889(3) 0.3317(4)
H9 H 0.4218 0.1691 0.3758
H10 H 0.4193 0.2265 0.3259
C6 C 0.4025(3) 0.1534(3) 0.2624(4)
H11 H 0.3821 0.1748 0.2179
H12 H 0.4475 0.1482 0.2556
C7 C 0.4118(3) 0.0558(3) 0.3125(4)
H13 H 0.4314 0.0762 0.3582
H14 H 0.4462 0.0416 0.2848
C8 C 0.3747(3) 0.0049(3) 0.3362(4)
H15 H 0.3553 -0.0156 0.2905
H16 H 0.4039 -0.0221 0.3658
C9 C 0.2771(3) -0.0231(3) 0.3801(3)
H17 H 0.2535 -0.0184 0.4242
H18 H 0.2976 -0.0614 0.3838
C10 C 0.2313(3) -0.0197(3) 0.3075(4)
C11 C 0.1400(3) -0.0679(3) 0.2403(4)
C12 C 0.1003(3) -0.0139(3) 0.2244(4)
H19 H 0.0830 -0.0020 0.2704
H20 H 0.0656 -0.0218 0.1844
H21 H 0.1267 0.0171 0.2080
C13 C 0.1739(4) -0.0849(3) 0.1723(4)
H22 H 0.1918 -0.0504 0.1515
H23 H 0.1436 -0.1029 0.1335
H24 H 0.2078 -0.1122 0.1888
C14 C 0.1001(4) -0.1178(3) 0.2633(4)
H25 H 0.1272 -0.1514 0.2760
H26 H 0.0678 -0.1276 0.2213
H27 H 0.0796 -0.1067 0.3074
C15 C 0.2284(3) 0.1442(3) 0.4834(4)
H28 H 0.2231 0.1856 0.4710
H29 H 0.2279 0.1399 0.5386
C16 C 0.1740(3) 0.1111(3) 0.4425(4)
C17 C 0.0608(3) 0.0940(5) 0.4442(4)
C18 C 0.0666(4) 0.0300(5) 0.4482(5)
H30 H 0.0967 0.0171 0.4144
H31 H 0.0253 0.0125 0.4326
H32 H 0.0817 0.0185 0.5002
C19 C 0.0178(5) 0.1180(6) 0.4999(6)
H33 H 0.0373 0.1110 0.5518
H34 H -0.0233 0.0988 0.4917
H35 H 0.0121 0.1595 0.4917
C20 C 0.0411(4) 0.1169(4) 0.3631(5)
H36 H 0.0421 0.1591 0.3635
H37 H -0.0018 0.1038 0.3451
H38 H 0.0704 0.1024 0.3294
C21 C 0.3009(3) 0.2404(3) 0.2933(4)
H39 H 0.3131 0.2338 0.2421
H40 H 0.3141 0.2798 0.3094
C22 C 0.2294(3) 0.2349(3) 0.2906(4)
C23 C 0.1322(3) 0.2869(3) 0.2396(4)
C24 C 0.1096(3) 0.2416(3) 0.1833(4)
H41 H 0.1366 0.2412 0.1427
H42 H 0.0660 0.2500 0.1621
H43 H 0.1114 0.2039 0.2082
C25 C 0.1017(4) 0.2837(4) 0.3121(4)
H44 H 0.0572 0.2948 0.3018
H45 H 0.1236 0.3099 0.3497
H46 H 0.1047 0.2442 0.3317
C26 C 0.1268(4) 0.3480(3) 0.2050(5)
H47 H 0.1504 0.3496 0.1613
H48 H 0.1442 0.3761 0.2429
H49 H 0.0823 0.3569 0.1889
C27 C 0.3577(3) 0.0755(3) 0.1868(3)
H50 H 0.3456 0.0344 0.1878
H51 H 0.3957 0.0786 0.1603
C28 C 0.3056(3) 0.1087(3) 0.1449(3)
C29 C 0.2619(3) 0.1409(3) 0.0186(3)
C30 C 0.1972(3) 0.1343(3) 0.0196(3)
C31 C 0.1534(3) 0.1669(3) -0.0256(3)
H52 H 0.1097 0.1626 -0.0215
C32 C 0.1727(3) 0.2056(3) -0.0767(3)
C33 C 0.2377(3) 0.2107(3) -0.0814(3)
H53 H 0.2520 0.2356 -0.1180
C34 C 0.2809(3) 0.1798(3) -0.0334(3)
H54 H 0.3247 0.1852 -0.0359
C35 C 0.0686(3) 0.2379(3) -0.1140(4)
H55 H 0.0531 0.1983 -0.1213
H56 H 0.0449 0.2631 -0.1514
H57 H 0.0629 0.2509 -0.0630
N1 N 0.3251(2) 0.0217(2) 0.3814(3)
N2 N 0.2893(2) 0.1246(2) 0.4635(3)
N3 N 0.3331(2) 0.1987(2) 0.3457(3)
N4 N 0.3727(2) 0.0965(2) 0.2643(3)
N5 N 0.3082(2) 0.1123(2) 0.0688(3)
H58 H 0.3401 0.0959 0.0502
N6 N 0.1724(3) 0.0897(3) 0.0639(3)
O1 O 0.2358(2) 0.0136(2) 0.2575(2)
O2 O 0.1872(2) -0.06061(19) 0.3068(2)
O3 O 0.1774(2) 0.0791(2) 0.3901(2)
O4 O 0.1220(2) 0.1219(3) 0.4726(3)
O5 O 0.2027(2) 0.1945(2) 0.3122(3)
O6 O 0.2021(2) 0.2822(2) 0.2582(3)
O7 O 0.26183(19) 0.12991(19) 0.1751(2)
O8 O 0.1978(2) 0.0426(2) 0.0662(3)
O9 O 0.1244(2) 0.1002(3) 0.0934(3)
O10 O 0.13429(19) 0.2399(2) -0.1232(2)
K1 K 0.26720(11) 0.10720(10) 0.31527(13)
O11 O 0.5000 -0.0785(9) 0.2500
O12 O 0.4598(4) 0.0247(4) 0.6105(5)
I1 I 0.463786(19) 0.11940(2) 0.00889(3)
loop_
_geom_bond_atom_site_label_1
_geom_bond_atom_site_label_2
_geom_bond_site_symmetry_1
_geom_bond_site_symmetry_2
C1 H1 1_555 1_555
H2 C1 1_555 1_555
C2 C1 1_555 1_555
H3 C2 1_555 1_555
H4 C2 1_555 1_555
C3 H5 1_555 1_555
H6 C3 1_555 1_555
C4 C3 1_555 1_555
H7 C4 1_555 1_555
H8 C4 1_555 1_555
C5 H9 1_555 1_555
H10 C5 1_555 1_555
C6 C5 1_555 1_555
H11 C6 1_555 1_555
H12 C6 1_555 1_555
C7 H13 1_555 1_555
H14 C7 1_555 1_555
C8 C7 1_555 1_555
H15 C8 1_555 1_555
H16 C8 1_555 1_555
C9 H17 1_555 1_555
H18 C9 1_555 1_555
C10 C9 1_555 1_555
C11 C12 1_555 1_555
C12 H19 1_555 1_555
H20 C12 1_555 1_555
H21 C12 1_555 1_555
C13 C11 1_555 1_555
H22 C13 1_555 1_555
H23 C13 1_555 1_555
H24 C13 1_555 1_555
C14 C11 1_555 1_555
H25 C14 1_555 1_555
H26 C14 1_555 1_555
H27 C14 1_555 1_555
C15 H28 1_555 1_555
H29 C15 1_555 1_555
C16 C15 1_555 1_555
C17 C18 1_555 1_555
C18 H30 1_555 1_555
H31 C18 1_555 1_555
H32 C18 1_555 1_555
C19 C17 1_555 1_555
H33 C19 1_555 1_555
H34 C19 1_555 1_555
H35 C19 1_555 1_555
C20 C17 1_555 1_555
H36 C20 1_555 1_555
H37 C20 1_555 1_555
H38 C20 1_555 1_555
C21 H39 1_555 1_555
H40 C21 1_555 1_555
C22 C21 1_555 1_555
C23 C24 1_555 1_555
C24 H41 1_555 1_555
H42 C24 1_555 1_555
H43 C24 1_555 1_555
C25 C23 1_555 1_555
H44 C25 1_555 1_555
H45 C25 1_555 1_555
H46 C25 1_555 1_555
C26 C23 1_555 1_555
H47 C26 1_555 1_555
H48 C26 1_555 1_555
H49 C26 1_555 1_555
C27 H50 1_555 1_555
H51 C27 1_555 1_555
C28 C27 1_555 1_555
C29 C30 1_555 1_555
C30 C31 1_555 1_555
C31 H52 1_555 1_555
C32 C31 1_555 1_555
C33 C32 1_555 1_555
H53 C33 1_555 1_555
C34 C29 1_555 1_555
H54 C34 1_555 1_555
C35 H55 1_555 1_555
H56 C35 1_555 1_555
H57 C35 1_555 1_555
N1 C1 1_555 1_555
N2 C2 1_555 1_555
N3 C4 1_555 1_555
N4 C6 1_555 1_555
N5 C28 1_555 1_555
H58 N5 1_555 1_555
N6 C30 1_555 1_555
O1 C10 1_555 1_555
O2 C10 1_555 1_555
O3 C16 1_555 1_555
O4 C16 1_555 1_555
O5 C22 1_555 1_555
O6 C22 1_555 1_555
O7 C28 1_555 1_555
O8 N6 1_555 1_555
O9 N6 1_555 1_555
O10 C32 1_555 1_555
K1 N1 1_555 1_555
C3 N2 1_555 1_555
C5 N3 1_555 1_555
C7 N4 1_555 1_555
C8 N1 1_555 1_555
C9 N1 1_555 1_555
C11 O2 1_555 1_555
C15 N2 1_555 1_555
C17 O4 1_555 1_555
C21 N3 1_555 1_555
C23 O6 1_555 1_555
C27 N4 1_555 1_555
C29 N5 1_555 1_555
C33 C34 1_555 1_555
C35 O10 1_555 1_555
N2 K1 1_555 1_555
N3 K1 1_555 1_555
N4 K1 1_555 1_555
O1 K1 1_555 1_555
O3 K1 1_555 1_555
O5 K1 1_555 1_555
O7 K1 1_555 1_555

#END
