
#######################################################################
#
#                 Cambridge Crystallographic Data Centre
#                                CCDC 
#
#######################################################################
#
# If this CIF has been generated from an entry in the Cambridge 
# Structural Database, then it will include bibliographic, chemical, 
# crystal, experimental, refinement or atomic coordinate data resulting 
# from the CCDC's data processing and validation procedures.
#
#######################################################################

data_CAKVAO
_chemical_formula_moiety         'C8 H7 Cl1 N2 O4'
_chemical_name_systematic        2-chloro-N-(2-hydroxy-6-nitrophenyl)acetamide
_symmetry_cell_setting           monoclinic
_symmetry_space_group_name_H-M   'P 21/n'
_symmetry_Int_Tables_number      14
_space_group_name_Hall           '-P 2yn'
loop_
_symmetry_equiv_pos_site_id
_symmetry_equiv_pos_as_xyz
1 x,y,z
2 1/2-x,1/2+y,1/2-z
3 -x,-y,-z
4 1/2+x,1/2-y,1/2+z
_cell_length_a                   6.2783(6)
_cell_length_b                   14.9977(13)
_cell_length_c                   9.8799(9)
_cell_angle_alpha                90
_cell_angle_beta                 100.430(4)
_cell_angle_gamma                90
_cell_volume                     914.921
_exptl_crystal_colour            yellow
_exptl_crystal_description       block
_cell_formula_units_Z            4
loop_
_atom_site_label
_atom_site_type_symbol
_atom_site_fract_x
_atom_site_fract_y
_atom_site_fract_z
Cl1 Cl 1.11878(5) 0.39486(2) 1.03509(3)
O1 O 0.92902(14) 0.29154(6) 0.60119(9)
H1 H 0.9675 0.2555 0.5319
O2 O 0.45124(16) 0.49685(7) 0.82051(10)
O3 O 0.13867(15) 0.47582(7) 0.69215(11)
O4 O 0.53147(15) 0.30662(7) 0.89861(10)
C1 C 0.64396(19) 0.37510(8) 0.65996(12)
C2 C 0.7330(2) 0.32930(8) 0.55988(12)
C3 C 0.6172(2) 0.32304(8) 0.42493(13)
H2 H 0.6771 0.2912 0.3609
C4 C 0.4127(2) 0.35940(9) 0.39131(13)
H3 H 0.3374 0.3524 0.2950
C5 C 0.3188(2) 0.40381(8) 0.48923(14)
H4 H 0.1923 0.4293 0.4727
C6 C 0.4367(2) 0.41191(8) 0.62190(13)
C7 C 0.7071(2) 0.34442(8) 0.90411(12)
C8 C 0.8544(2) 0.35488(9) 1.04247(13)
H5 H 0.8742 0.2939 1.0951
H6 H 0.7908 0.3993 1.0958
N1 N 0.33648(17) 0.46432(7) 0.71954(11)
N2 N 0.77116(17) 0.37928(7) 0.79389(10)
H7 H 0.9024 0.4034 0.7978
loop_
_geom_bond_atom_site_label_1
_geom_bond_atom_site_label_2
_geom_bond_site_symmetry_1
_geom_bond_site_symmetry_2
Cl1 C8 1_555 1_555
O1 H1 1_555 1_555
O2 N1 1_555 1_555
O3 N1 1_555 1_555
O4 C7 1_555 1_555
C1 C2 1_555 1_555
C2 O1 1_555 1_555
C3 C2 1_555 1_555
H2 C3 1_555 1_555
C4 C3 1_555 1_555
H3 C4 1_555 1_555
C5 C4 1_555 1_555
H4 C5 1_555 1_555
C6 C1 1_555 1_555
C7 C8 1_555 1_555
C8 H5 1_555 1_555
H6 C8 1_555 1_555
N1 C6 1_555 1_555
N2 C1 1_555 1_555
H7 N2 1_555 1_555
C5 C6 1_555 1_555
C7 N2 1_555 1_555

#END
