
#######################################################################
#
#                 Cambridge Crystallographic Data Centre
#                                CCDC 
#
#######################################################################
#
# If this CIF has been generated from an entry in the Cambridge 
# Structural Database, then it will include bibliographic, chemical, 
# crystal, experimental, refinement or atomic coordinate data resulting 
# from the CCDC's data processing and validation procedures.
#
#######################################################################

data_CAKYUL
_chemical_formula_moiety         'C18 H18 O4'
_chemical_name_systematic        
5,6-dimethoxy-3-phenyl-11,12-dioxatricyclo[7.2.1.0^2,7^]dodeca-2,4,6-triene
_symmetry_cell_setting           triclinic
_symmetry_space_group_name_H-M   'P -1'
_symmetry_Int_Tables_number      2
_space_group_name_Hall           '-P 1'
loop_
_symmetry_equiv_pos_site_id
_symmetry_equiv_pos_as_xyz
1 x,y,z
2 -x,-y,-z
_cell_length_a                   12.6329(3)
_cell_length_b                   15.5564(4)
_cell_length_c                   16.0916(4)
_cell_angle_alpha                96.0720(10)
_cell_angle_beta                 105.8490(10)
_cell_angle_gamma                94.8470(10)
_cell_volume                     3003.75
_exptl_crystal_colour            colorless
_cell_formula_units_Z            8
loop_
_atom_site_label
_atom_site_type_symbol
_atom_site_fract_x
_atom_site_fract_y
_atom_site_fract_z
O1 O 0.90495(11) 0.32095(9) 0.82761(8)
O2 O 0.57106(11) 0.46920(11) 0.75975(9)
O3 O 0.67806(13) 0.59739(10) 0.80809(8)
O4 O 0.98615(12) 0.34098(9) 1.00260(9)
C1 C 0.6308(2) 0.65111(17) 1.14386(15)
H1 H 0.6016 0.6866 1.1801
C2 C 0.6444(2) 0.56603(18) 1.15790(14)
H2 H 0.6245 0.5444 1.2039
C3 C 0.68734(18) 0.51297(15) 1.10420(12)
H3 H 0.6961 0.4559 1.1144
C4 C 0.71778(15) 0.54385(12) 1.03480(11)
C5 C 0.76607(15) 0.48714(12) 0.97800(11)
C6 C 0.72693(15) 0.47600(12) 0.88702(11)
C7 C 0.77507(15) 0.42068(12) 0.83726(11)
C8 C 0.86234(15) 0.37771(12) 0.87802(11)
C9 C 1.00929(18) 0.35440(17) 0.81734(15)
H4 H 1.0027 0.4093 0.7954
H5 H 1.0303 0.3141 0.7770
H6 H 1.0647 0.3622 0.8727
C10 C 0.73004(18) 0.40677(15) 0.73876(12)
H7 H 0.7907 0.4146 0.7131
H8 H 0.6939 0.3477 0.7195
C11 C 0.64852(17) 0.46989(16) 0.70844(12)
H9 H 0.6099 0.4548 0.6462
C12 C 0.63383(16) 0.52202(14) 0.83717(12)
H10 H 0.5861 0.5385 0.8736
C13 C 0.7001(2) 0.56479(16) 0.72897(13)
H11 H 0.7793 0.5688 0.7365
H12 H 0.6669 0.5974 0.6824
C14 C 0.85340(15) 0.44222(12) 1.01752(11)
H13 H 0.8797 0.4490 1.0780
C15 C 0.90148(15) 0.38797(12) 0.96879(12)
C16 C 1.0382(2) 0.35883(16) 1.09335(13)
H14 H 1.0637 0.4199 1.1089
H15 H 1.1001 0.3260 1.1084
H16 H 0.9861 0.3428 1.1243
C17 C 0.66055(19) 0.68266(15) 1.07636(14)
H17 H 0.6516 0.7398 1.0666
C18 C 0.70399(17) 0.62981(13) 1.02243(12)
H18 H 0.7244 0.6522 0.9770
O5 O -0.02727(11) 0.79299(9) 0.35808(8)
O6 O 0.37645(12) 0.84732(10) 0.43651(9)
O7 O 0.36895(11) 0.99172(9) 0.44777(8)
O8 O -0.08893(11) 0.85226(10) 0.49996(9)
C19 C 0.41765(19) 1.10009(16) 0.79939(13)
H19 H 0.4600 1.1374 0.8483
C20 C 0.3463(2) 1.03270(17) 0.80776(13)
H20 H 0.3406 1.0240 0.8627
C21 C 0.28266(19) 0.97749(15) 0.73523(12)
H21 H 0.2350 0.9316 0.7421
C22 C 0.28850(16) 0.98931(12) 0.65182(11)
C23 C 0.20994(16) 0.93507(12) 0.57352(11)
C24 C 0.23952(15) 0.90373(12) 0.49924(11)
C25 C 0.15837(16) 0.85809(12) 0.42670(11)
C26 C 0.04973(16) 0.84195(12) 0.42904(12)
C27 C -0.1087(2) 0.84071(16) 0.30859(14)
H22 H -0.1515 0.8639 0.3447
H23 H -0.1567 0.8026 0.2595
H24 H -0.0724 0.8876 0.2884
C28 C 0.18902(17) 0.82662(14) 0.34486(13)
H25 H 0.1805 0.7635 0.3358
H26 H 0.1395 0.8463 0.2949
C29 C 0.30730(18) 0.86094(15) 0.35254(13)
H27 H 0.3322 0.8316 0.3055
C30 C 0.35651(16) 0.91776(13) 0.49076(12)
H28 H 0.4109 0.9251 0.5483
C31 C 0.32681(19) 0.95953(15) 0.35635(13)
H29 H 0.3802 0.9755 0.3256
H30 H 0.2582 0.9827 0.3306
C32 C 0.09980(16) 0.91758(12) 0.57429(12)
H31 H 0.0798 0.9377 0.6237
C33 C 0.02016(16) 0.87138(12) 0.50376(12)
C34 C -0.12659(18) 0.89486(15) 0.56722(13)
H32 H -0.0901 0.8765 0.6219
H33 H -0.2052 0.8801 0.5546
H34 H -0.1099 0.9567 0.5706
C35 C 0.42625(18) 1.11223(15) 0.71807(14)
H35 H 0.4755 1.1575 0.7120
C36 C 0.36207(17) 1.05750(13) 0.64518(12)
H36 H 0.3685 1.0667 0.5905
O9 O 0.01909(11) 1.11112(10) 0.21113(8)
O10 O -0.06826(11) 0.94934(11) 0.12824(10)
O11 O 0.41898(11) 1.12850(9) 0.25081(9)
O12 O 0.38994(12) 1.12879(9) 0.10704(9)
C37 C -0.0691(2) 1.13982(18) 0.14786(16)
H37 H -0.0412 1.1615 0.1033
H38 H -0.0996 1.1854 0.1755
H39 H -0.1258 1.0919 0.1222
C38 C 0.08351(15) 1.05807(13) 0.17688(11)
C39 C 0.04101(15) 0.97448(14) 0.13465(12)
C40 C 0.10778(15) 0.92255(13) 0.10266(12)
H40 H 0.0792 0.8665 0.0751
C41 C 0.21868(15) 0.95309(12) 0.11112(11)
C42 C 0.28402(15) 0.89505(12) 0.07057(11)
C43 C 0.34145(16) 0.92395(14) 0.01483(12)
H41 H 0.3437 0.9820 0.0054
C44 C 0.39532(18) 0.86796(17) -0.02693(13)
H42 H 0.4327 0.8884 -0.0647
C45 C 0.39417(18) 0.78216(17) -0.01321(15)
H43 H 0.4300 0.7445 -0.0420
C46 C -0.1215(2) 0.87433(19) 0.06989(18)
H44 H -0.1114 0.8795 0.0136
H45 H -0.1992 0.8684 0.0653
H46 H -0.0902 0.8240 0.0911
C47 C 0.26121(14) 1.03604(12) 0.15511(11)
C48 C 0.19367(15) 1.08867(12) 0.18842(11)
C49 C 0.24145(16) 1.17766(13) 0.23820(13)
H47 H 0.2438 1.1779 0.2990
H48 H 0.1943 1.2206 0.2148
C50 C 0.35806(16) 1.20161(13) 0.23137(13)
H49 H 0.3946 1.2542 0.2714
C51 C 0.38047(15) 1.07331(13) 0.17073(12)
H50 H 0.4273 1.0264 0.1696
C52 C 0.36086(18) 1.21058(13) 0.13877(14)
H51 H 0.2890 1.2213 0.1033
H52 H 0.4157 1.2580 0.1384
C53 C 0.28440(18) 0.80805(13) 0.08452(14)
H53 H 0.2469 0.7873 0.1220
C54 C 0.33959(19) 0.75241(15) 0.04346(16)
H54 H 0.3400 0.6948 0.0540
O13 O 0.99990(11) 0.36638(9) 0.29944(8)
O14 O 1.07916(11) 0.52876(9) 0.38383(9)
O15 O 0.59737(11) 0.33853(9) 0.24364(9)
O16 O 0.61285(11) 0.34529(9) 0.38648(9)
C55 C 1.07378(19) 0.32884(17) 0.36653(15)
H55 H 1.1241 0.3743 0.4065
H56 H 1.1150 0.2902 0.3408
H57 H 1.0318 0.2969 0.3972
C56 C 0.93008(16) 0.41769(13) 0.32933(11)
C57 C 0.96873(15) 0.50215(13) 0.37141(11)
C58 C 0.89646(15) 0.55299(13) 0.39824(11)
H58 H 0.9222 0.6095 0.4258
C59 C 0.78540(14) 0.52111(12) 0.38479(11)
C60 C 0.71342(14) 0.57916(12) 0.41752(11)
C61 C 0.71387(19) 0.66481(13) 0.39956(14)
H59 H 0.7577 0.6852 0.3661
C62 C 0.6490(2) 0.71969(16) 0.43156(17)
H60 H 0.6498 0.7768 0.4192
C63 C 0.5837(2) 0.69150(16) 0.48102(16)
H61 H 0.5399 0.7288 0.5014
C64 C 1.12365(17) 0.60941(14) 0.43738(13)
H62 H 1.0895 0.6558 0.4097
H63 H 1.2022 0.6185 0.4457
H64 H 1.1093 0.6083 0.4929
C65 C 0.74724(15) 0.43667(12) 0.34181(11)
C66 C 0.82010(15) 0.38495(12) 0.31419(11)
C67 C 0.77814(17) 0.29360(14) 0.26790(14)
H65 H 0.8260 0.2530 0.2958
H66 H 0.7798 0.2905 0.2078
C68 C 0.66013(17) 0.26842(14) 0.27076(14)
H67 H 0.6275 0.2137 0.2328
C69 C 0.62765(15) 0.39742(13) 0.32144(12)
H68 H 0.5787 0.4434 0.3167
C70 C 0.65060(18) 0.26413(14) 0.36265(15)
H69 H 0.5978 0.2153 0.3633
H70 H 0.7219 0.2581 0.4024
C71 C 0.64796(15) 0.55167(13) 0.46874(12)
H71 H 0.6474 0.4950 0.4821
C72 C 0.58364(17) 0.60737(15) 0.50013(14)
H72 H 0.5403 0.5879 0.5342
loop_
_geom_bond_atom_site_label_1
_geom_bond_atom_site_label_2
_geom_bond_site_symmetry_1
_geom_bond_site_symmetry_2
O1 C8 1_555 1_555
O2 C11 1_555 1_555
O3 C12 1_555 1_555
O4 C15 1_555 1_555
C1 H1 1_555 1_555
C2 C1 1_555 1_555
H2 C2 1_555 1_555
C3 C2 1_555 1_555
H3 C3 1_555 1_555
C4 C3 1_555 1_555
C5 C4 1_555 1_555
C6 C5 1_555 1_555
C7 C6 1_555 1_555
C8 C7 1_555 1_555
C9 O1 1_555 1_555
H4 C9 1_555 1_555
H5 C9 1_555 1_555
H6 C9 1_555 1_555
C10 C7 1_555 1_555
H7 C10 1_555 1_555
H8 C10 1_555 1_555
C11 C10 1_555 1_555
H9 C11 1_555 1_555
C12 O2 1_555 1_555
H10 C12 1_555 1_555
C13 O3 1_555 1_555
H11 C13 1_555 1_555
H12 C13 1_555 1_555
C14 C5 1_555 1_555
H13 C14 1_555 1_555
C15 C8 1_555 1_555
C16 O4 1_555 1_555
H14 C16 1_555 1_555
H15 C16 1_555 1_555
H16 C16 1_555 1_555
C17 C1 1_555 1_555
H17 C17 1_555 1_555
C18 C4 1_555 1_555
H18 C18 1_555 1_555
O5 C26 1_555 1_555
O6 C29 1_555 1_555
O7 C30 1_555 1_555
O8 C33 1_555 1_555
C19 H19 1_555 1_555
C20 C19 1_555 1_555
H20 C20 1_555 1_555
C21 C20 1_555 1_555
H21 C21 1_555 1_555
C22 C21 1_555 1_555
C23 C22 1_555 1_555
C24 C23 1_555 1_555
C25 C24 1_555 1_555
C26 C25 1_555 1_555
C27 O5 1_555 1_555
H22 C27 1_555 1_555
H23 C27 1_555 1_555
H24 C27 1_555 1_555
C28 C25 1_555 1_555
H25 C28 1_555 1_555
H26 C28 1_555 1_555
C29 C28 1_555 1_555
H27 C29 1_555 1_555
C30 O6 1_555 1_555
H28 C30 1_555 1_555
C31 O7 1_555 1_555
H29 C31 1_555 1_555
H30 C31 1_555 1_555
C32 C23 1_555 1_555
H31 C32 1_555 1_555
C33 C26 1_555 1_555
C34 O8 1_555 1_555
H32 C34 1_555 1_555
H33 C34 1_555 1_555
H34 C34 1_555 1_555
C35 C19 1_555 1_555
H35 C35 1_555 1_555
C36 C22 1_555 1_555
H36 C36 1_555 1_555
O9 C37 1_555 1_555
O10 C39 1_555 1_555
O11 C50 1_555 1_555
O12 C51 1_555 1_555
C37 H37 1_555 1_555
H38 C37 1_555 1_555
H39 C37 1_555 1_555
C38 O9 1_555 1_555
C39 C38 1_555 1_555
C40 C39 1_555 1_555
H40 C40 1_555 1_555
C41 C40 1_555 1_555
C42 C41 1_555 1_555
C43 C42 1_555 1_555
H41 C43 1_555 1_555
C44 C43 1_555 1_555
H42 C44 1_555 1_555
C45 C44 1_555 1_555
H43 C45 1_555 1_555
C46 O10 1_555 1_555
H44 C46 1_555 1_555
H45 C46 1_555 1_555
H46 C46 1_555 1_555
C47 C41 1_555 1_555
C48 C38 1_555 1_555
C49 C48 1_555 1_555
H47 C49 1_555 1_555
H48 C49 1_555 1_555
C50 C49 1_555 1_555
H49 C50 1_555 1_555
C51 O11 1_555 1_555
H50 C51 1_555 1_555
C52 O12 1_555 1_555
H51 C52 1_555 1_555
H52 C52 1_555 1_555
C53 C42 1_555 1_555
H53 C53 1_555 1_555
C54 C45 1_555 1_555
H54 C54 1_555 1_555
O13 C55 1_555 1_555
O14 C57 1_555 1_555
O15 C68 1_555 1_555
O16 C69 1_555 1_555
C55 H55 1_555 1_555
H56 C55 1_555 1_555
H57 C55 1_555 1_555
C56 O13 1_555 1_555
C57 C56 1_555 1_555
C58 C57 1_555 1_555
H58 C58 1_555 1_555
C59 C58 1_555 1_555
C60 C59 1_555 1_555
C61 C60 1_555 1_555
H59 C61 1_555 1_555
C62 C61 1_555 1_555
H60 C62 1_555 1_555
C63 C62 1_555 1_555
H61 C63 1_555 1_555
C64 O14 1_555 1_555
H62 C64 1_555 1_555
H63 C64 1_555 1_555
H64 C64 1_555 1_555
C65 C59 1_555 1_555
C66 C56 1_555 1_555
C67 C66 1_555 1_555
H65 C67 1_555 1_555
H66 C67 1_555 1_555
C68 C67 1_555 1_555
H67 C68 1_555 1_555
C69 O15 1_555 1_555
H68 C69 1_555 1_555
C70 O16 1_555 1_555
H69 C70 1_555 1_555
H70 C70 1_555 1_555
C71 C60 1_555 1_555
H71 C71 1_555 1_555
C72 C63 1_555 1_555
H72 C72 1_555 1_555
C6 C12 1_555 1_555
C11 C13 1_555 1_555
C14 C15 1_555 1_555
C17 C18 1_555 1_555
C24 C30 1_555 1_555
C29 C31 1_555 1_555
C32 C33 1_555 1_555
C35 C36 1_555 1_555
C47 C48 1_555 1_555
C47 C51 1_555 1_555
C50 C52 1_555 1_555
C53 C54 1_555 1_555
C65 C66 1_555 1_555
C65 C69 1_555 1_555
C68 C70 1_555 1_555
C71 C72 1_555 1_555

#END
