
#######################################################################
#
#                 Cambridge Crystallographic Data Centre
#                                CCDC 
#
#######################################################################
#
# If this CIF has been generated from an entry in the Cambridge 
# Structural Database, then it will include bibliographic, chemical, 
# crystal, experimental, refinement or atomic coordinate data resulting 
# from the CCDC's data processing and validation procedures.
#
#######################################################################

data_CAKZOG
_chemical_formula_moiety         'C15 H20 O5'
_chemical_name_systematic        
5-butoxy-3-(hydroxymethyl)-6-methoxy-3,4-dihydro-1H-isochromen-1-one
_symmetry_cell_setting           monoclinic
_symmetry_space_group_name_H-M   'C 2/c'
_symmetry_Int_Tables_number      15
_space_group_name_Hall           '-C 2yn'
loop_
_symmetry_equiv_pos_site_id
_symmetry_equiv_pos_as_xyz
1 x,y,z
2 -x,y,1/2-z
3 1/2+x,1/2+y,z
4 1/2-x,1/2+y,1/2-z
5 -x,-y,-z
6 x,-y,1/2+z
7 1/2-x,1/2-y,-z
8 1/2+x,1/2-y,1/2+z
_cell_length_a                   36.172(6)
_cell_length_b                   4.3144(6)
_cell_length_c                   21.587(3)
_cell_angle_alpha                90
_cell_angle_beta                 125.607(3)
_cell_angle_gamma                90
_cell_volume                     2739
_exptl_crystal_colour            colorless
_cell_formula_units_Z            8
loop_
_atom_site_label
_atom_site_type_symbol
_atom_site_fract_x
_atom_site_fract_y
_atom_site_fract_z
O1 O 0.16167(3) 0.5479(3) 0.08430(6)
H1 H 0.1828 0.4637 0.0847
O2 O 0.08120(3) 0.1981(2) 0.22266(5)
O3 O 0.21845(3) 0.8036(2) 0.27932(5)
O4 O 0.26178(3) 0.8425(3) 0.40444(6)
O5 O 0.10382(3) -0.0071(3) 0.35788(6)
C1 C 0.18037(5) 0.7601(4) 0.14578(8)
H2 H 0.1600 0.9416 0.1300
H3 H 0.2102 0.8342 0.1597
C2 C 0.18628(5) 0.6064(4) 0.21437(8)
H4 H 0.2004 0.3977 0.2219
C3 C 0.14254(5) 0.5681(4) 0.20824(8)
H5 H 0.1265 0.7694 0.1951
H6 H 0.1224 0.4185 0.1673
C4 C 0.15323(5) 0.4532(3) 0.28274(8)
C5 C 0.12309(5) 0.2767(3) 0.28794(8)
C6 C 0.04474(5) 0.3817(4) 0.21389(9)
H7 H 0.0490 0.6031 0.2075
H8 H 0.0450 0.3610 0.2598
C7 C -0.00002(5) 0.2669(4) 0.14459(8)
H9 H -0.0251 0.3749 0.1417
H10 H -0.0029 0.0428 0.1508
C8 C -0.00530(5) 0.3165(4) 0.07002(8)
H11 H 0.0188 0.1996 0.0716
H12 H -0.0010 0.5391 0.0648
C9 C -0.05160(5) 0.2131(4) 0.00053(8)
H13 H -0.0558 -0.0083 0.0048
H14 H -0.0531 0.2497 -0.0457
H15 H -0.0756 0.3315 -0.0022
C10 C 0.22754(5) 0.7328(3) 0.34791(8)
C11 C 0.19538(5) 0.5332(3) 0.35001(8)
C12 C 0.13524(5) 0.1715(3) 0.35938(8)
C13 C 0.11536(5) -0.1186(4) 0.42980(9)
H16 H 0.1429 -0.2458 0.4542
H17 H 0.0903 -0.2439 0.4216
H18 H 0.1208 0.0578 0.4627
C14 C 0.17701(5) 0.2546(4) 0.42552(8)
H19 H 0.1851 0.1862 0.4738
C15 C 0.20652(5) 0.4370(4) 0.42050(8)
H20 H 0.2348 0.4974 0.4657
loop_
_geom_bond_atom_site_label_1
_geom_bond_atom_site_label_2
_geom_bond_site_symmetry_1
_geom_bond_site_symmetry_2
O1 H1 1_555 1_555
O2 C5 1_555 1_555
O3 C2 1_555 1_555
O4 C10 1_555 1_555
O5 C12 1_555 1_555
C1 O1 1_555 1_555
H2 C1 1_555 1_555
H3 C1 1_555 1_555
C2 C1 1_555 1_555
H4 C2 1_555 1_555
C3 C2 1_555 1_555
H5 C3 1_555 1_555
H6 C3 1_555 1_555
C4 C3 1_555 1_555
C5 C4 1_555 1_555
C6 O2 1_555 1_555
H7 C6 1_555 1_555
H8 C6 1_555 1_555
C7 C6 1_555 1_555
H9 C7 1_555 1_555
H10 C7 1_555 1_555
C8 C7 1_555 1_555
H11 C8 1_555 1_555
H12 C8 1_555 1_555
C9 C8 1_555 1_555
H13 C9 1_555 1_555
H14 C9 1_555 1_555
H15 C9 1_555 1_555
C10 O3 1_555 1_555
C11 C4 1_555 1_555
C12 C5 1_555 1_555
C13 O5 1_555 1_555
H16 C13 1_555 1_555
H17 C13 1_555 1_555
H18 C13 1_555 1_555
C14 C12 1_555 1_555
H19 C14 1_555 1_555
C15 C11 1_555 1_555
H20 C15 1_555 1_555
C10 C11 1_555 1_555
C14 C15 1_555 1_555

#END
