
#######################################################################
#
#                 Cambridge Crystallographic Data Centre
#                                CCDC 
#
#######################################################################
#
# If this CIF has been generated from an entry in the Cambridge 
# Structural Database, then it will include bibliographic, chemical, 
# crystal, experimental, refinement or atomic coordinate data resulting 
# from the CCDC's data processing and validation procedures.
#
#######################################################################

data_CALBIA
_chemical_formula_moiety         'C17 H12 O1'
_chemical_name_systematic        Benzo(a)heptalene-5-carbaldehyde
_symmetry_cell_setting           orthorhombic
_symmetry_space_group_name_H-M   'P n a 21'
_symmetry_Int_Tables_number      33
_space_group_name_Hall           'P 2c -2n'
loop_
_symmetry_equiv_pos_site_id
_symmetry_equiv_pos_as_xyz
1 x,y,z
2 -x,-y,1/2+z
3 1/2-x,1/2+y,1/2+z
4 1/2+x,1/2-y,z
_cell_length_a                   14.443(2)
_cell_length_b                   7.727(3)
_cell_length_c                   22.112(5)
_cell_angle_alpha                90
_cell_angle_beta                 90
_cell_angle_gamma                90
_cell_volume                     2467.72
_exptl_crystal_colour            orange
_exptl_crystal_description       prism
_chemical_melting_point          391.4-392.3K
_cell_formula_units_Z            8
loop_
_atom_site_label
_atom_site_type_symbol
_atom_site_fract_x
_atom_site_fract_y
_atom_site_fract_z
O1 O 0.3775(2) 0.3942(4) 0.01157
C1 C 0.6637(2) 1.0506(5) -0.0543(2)
C2 C 0.6347(2) 1.2035(5) -0.0816(2)
C3 C 0.5581(3) 1.2001(5) -0.1201(2)
C4 C 0.5108(2) 1.0475(5) -0.1293(2)
C5 C 0.5371(2) 0.8935(5) -0.1006(2)
C6 C 0.4811(2) 0.7396(5) -0.1116(2)
C7 C 0.4663(2) 0.6047(5) -0.0748(2)
C8 C 0.5053(2) 0.5754(4) -0.0143(2)
C9 C 0.5887(2) 0.6348(4) 0.0051(2)
C10 C 0.6229(2) 0.6097(4) 0.0674(2)
C11 C 0.7042(2) 0.5362(5) 0.0825(2)
C12 C 0.7741(2) 0.4768(5) 0.0405(2)
C13 C 0.7905(2) 0.5446(5) -0.0148(2)
C14 C 0.7423(2) 0.6857(5) -0.0424(2)
C15 C 0.6527(2) 0.7340(5) -0.0348(2)
C16 C 0.6167(2) 0.8948(4) -0.0629(2)
C17 C 0.4519(2) 0.4593(5) 0.0254(2)
H1 H 0.717 1.052 -0.029
H2 H 0.667 1.309 -0.074
H3 H 0.539 1.303 -0.140
H4 H 0.459 1.047 -0.156
H5 H 0.451 0.734 -0.150
H6 H 0.426 0.518 -0.090
H7 H 0.584 0.648 0.099
H8 H 0.717 0.522 0.124
H9 H 0.812 0.382 0.053
H10 H 0.839 0.493 -0.038
H11 H 0.778 0.754 -0.070
H12 H 0.477 0.433 0.064
O2 O 0.3670(2) 0.5929(4) 0.1467(2)
C18 C 0.0729(2) -0.0247(5) 0.2278(2)
C19 C 0.1026(3) -0.1750(5) 0.2557(2)
C20 C 0.1818(3) -0.1743(5) 0.2913(2)
C21 C 0.2306(2) -0.0223(5) 0.2985(2)
C22 C 0.2038(2) 0.1319(5) 0.2703(2)
C23 C 0.2611(2) 0.2858(5) 0.2789(2)
C24 C 0.2750(2) 0.4149(5) 0.2397(2)
C25 C 0.2349(2) 0.4365(4) 0.1798(2)
C26 C 0.1483(2) 0.3801(4) 0.1631(2)
C27 C 0.1118(2) 0.3940(5) 0.1011(2)
C28 C 0.0300(2) 0.4660(5) 0.0868(2)
C29 C -0.0374(2) 0.5364(5) 0.1286(2)
C30 C -0.0518(2) 0.4811(5) 0.1851(2)
C31 C -0.0025(2) 0.3418(5) 0.2153(2)
C32 C 0.0858(2) 0.2892(5) 0.2055(2)
C33 C 0.1220(2) 0.1301(4) 0.2347(2)
C34 C 0.2899(3) 0.5359(5) 0.1358(2)
H13 H 0.018 -0.027 0.204
H14 H 0.069 -0.279 0.250
H15 H 0.202 -0.278 0.311
H16 H 0.284 -0.022 0.323
H17 H 0.292 0.295 0.317
H18 H 0.316 0.503 0.252
H19 H 0.149 0.349 0.069
H20 H 0.015 0.471 0.045
H21 H -0.075 0.630 0.115
H22 H -0.099 0.538 0.208
H23 H -0.036 0.280 0.245
H24 H 0.264 0.557 0.097
loop_
_geom_bond_atom_site_label_1
_geom_bond_atom_site_label_2
_geom_bond_site_symmetry_1
_geom_bond_site_symmetry_2
O1 C17 1_555 1_555
C1 C2 1_555 1_555
C2 C3 1_555 1_555
C3 C4 1_555 1_555
C4 C5 1_555 1_555
C5 C6 1_555 1_555
C6 C7 1_555 1_555
C7 C8 1_555 1_555
C8 C9 1_555 1_555
C9 C10 1_555 1_555
C10 C11 1_555 1_555
C11 C12 1_555 1_555
C12 C13 1_555 1_555
C13 C14 1_555 1_555
C14 C15 1_555 1_555
C15 C9 1_555 1_555
C16 C1 1_555 1_555
C17 C8 1_555 1_555
O2 C34 1_555 1_555
C18 C19 1_555 1_555
C19 C20 1_555 1_555
C20 C21 1_555 1_555
C21 C22 1_555 1_555
C22 C23 1_555 1_555
C23 C24 1_555 1_555
C24 C25 1_555 1_555
C25 C26 1_555 1_555
C26 C27 1_555 1_555
C27 C28 1_555 1_555
C28 C29 1_555 1_555
C29 C30 1_555 1_555
C30 C31 1_555 1_555
C31 C32 1_555 1_555
C32 C26 1_555 1_555
C33 C18 1_555 1_555
C34 C25 1_555 1_555
H1 C1 1_555 1_555
H2 C2 1_555 1_555
H3 C3 1_555 1_555
H4 C4 1_555 1_555
H5 C6 1_555 1_555
H6 C7 1_555 1_555
H7 C10 1_555 1_555
H8 C11 1_555 1_555
H9 C12 1_555 1_555
H10 C13 1_555 1_555
H11 C14 1_555 1_555
H12 C17 1_555 1_555
H13 C18 1_555 1_555
H14 C19 1_555 1_555
H15 C20 1_555 1_555
H16 C21 1_555 1_555
H17 C23 1_555 1_555
H18 C24 1_555 1_555
H19 C27 1_555 1_555
H20 C28 1_555 1_555
H21 C29 1_555 1_555
H22 C30 1_555 1_555
H23 C31 1_555 1_555
H24 C34 1_555 1_555
C5 C16 1_555 1_555
C15 C16 1_555 1_555
C22 C33 1_555 1_555
C32 C33 1_555 1_555

#END
