
#######################################################################
#
#                 Cambridge Crystallographic Data Centre
#                                CCDC 
#
#######################################################################
#
# If this CIF has been generated from an entry in the Cambridge 
# Structural Database, then it will include bibliographic, chemical, 
# crystal, experimental, refinement or atomic coordinate data resulting 
# from the CCDC's data processing and validation procedures.
#
#######################################################################

data_CALGIH01
_chemical_formula_moiety         'C5 H4 Br2 O1 S2'
_chemical_name_systematic        4,5-bis(Bromomethyl)-1,3-dithiol-2-one
_symmetry_cell_setting           monoclinic
_symmetry_space_group_name_H-M   'C 2/c'
_symmetry_Int_Tables_number      15
_space_group_name_Hall           '-C 2yn'
loop_
_symmetry_equiv_pos_site_id
_symmetry_equiv_pos_as_xyz
1 x,y,z
2 1/2+x,1/2+y,z
3 -x,y,1/2-z
4 1/2-x,1/2+y,1/2-z
5 -x,-y,-z
6 1/2-x,1/2-y,-z
7 x,-y,1/2+z
8 1/2+x,1/2-y,1/2+z
_cell_length_a                   14.910(5)
_cell_length_b                   7.894(3)
_cell_length_c                   7.414(3)
_cell_angle_alpha                90
_cell_angle_beta                 104.974(4)
_cell_angle_gamma                90
_cell_volume                     842.993
_exptl_crystal_colour            colorless
_exptl_crystal_description       block
_chemical_melting_point          '426 K'
_cell_formula_units_Z            4
_exptl_crystal_recrystallization_method chloroform/heptane
loop_
_atom_site_label
_atom_site_type_symbol
_atom_site_fract_x
_atom_site_fract_y
_atom_site_fract_z
Br1 Br 0.693878(13) 0.86862(3) 0.25614(3)
C1 C 0.59740(13) 0.8197(3) 0.3880(3)
C2 C 0.54293(12) 0.6666(2) 0.3083(3)
S1 S 0.59409(3) 0.46931(6) 0.37617(6)
C3 C 0.5000 0.3452(4) 0.2500
O1 O 0.5000 0.1915(3) 0.2500
H1 H 0.6296 0.7990 0.5144
H2 H 0.5599 0.9214 0.3756
Br1B Br 0.306122(13) 0.86862(3) 0.24386(3)
C1B C 0.40260(13) 0.8197(3) 0.1120(3)
C2B C 0.45707(12) 0.6666(2) 0.1917(3)
S1B S 0.40591(3) 0.46931(6) 0.12383(6)
H1B H 0.3704 0.7990 -0.0144
H2B H 0.4401 0.9214 0.1244
loop_
_geom_bond_atom_site_label_1
_geom_bond_atom_site_label_2
_geom_bond_site_symmetry_1
_geom_bond_site_symmetry_2
Br1 C1 1_555 1_555
C1 C2 1_555 1_555
C2 S1 1_555 1_555
S1 C3 1_555 1_555
C3 O1 1_555 1_555
H1 C1 1_555 1_555
H2 C1 1_555 1_555
Br1B C1B 1_555 1_555
C1B C2B 1_555 1_555
C2B C2 1_555 1_555
S1B C3 1_555 1_555
H1B C1B 1_555 1_555
H2B C1B 1_555 1_555
C2B S1B 1_555 1_555

#END
