
#######################################################################
#
#                 Cambridge Crystallographic Data Centre
#                                CCDC 
#
#######################################################################
#
# If this CIF has been generated from an entry in the Cambridge 
# Structural Database, then it will include bibliographic, chemical, 
# crystal, experimental, refinement or atomic coordinate data resulting 
# from the CCDC's data processing and validation procedures.
#
#######################################################################

data_CALKEF10
_chemical_name_common            Brendane
_chemical_formula_moiety         'C16 H19 Cl1 O2 S1'
_chemical_name_systematic        
(exo-2)-6-Chloro-2-(p-tosyl)tricyclo(4.2.1.0^3,7^)nonane
_symmetry_cell_setting           monoclinic
_symmetry_space_group_name_H-M   'P 21/c'
_symmetry_Int_Tables_number      14
_space_group_name_Hall           '-P 2ybc'
loop_
_symmetry_equiv_pos_site_id
_symmetry_equiv_pos_as_xyz
1 x,y,z
2 -x,1/2+y,1/2-z
3 -x,-y,-z
4 x,1/2-y,1/2+z
_cell_length_a                   18.208(4)
_cell_length_b                   7.455(2)
_cell_length_c                   11.309(3)
_cell_angle_alpha                90
_cell_angle_beta                 100.95(2)
_cell_angle_gamma                90
_cell_volume                     1507.14
_exptl_crystal_colour            colorless
_chemical_melting_point          149-151deg.C
_cell_formula_units_Z            4
loop_
_atom_site_label
_atom_site_type_symbol
_atom_site_fract_x
_atom_site_fract_y
_atom_site_fract_z
S1 S 0.2164(1) 0.7335(1) 0.8520(1)
Cl1 Cl 0.4408(1) 1.3143(1) 1.0903(1)
O1 O 0.2229(1) 0.7897(4) 0.7331(2)
O2 O 0.2328(1) 0.5499(3) 0.8851(2)
C1 C 0.2633(1) 1.0746(3) 0.9364(2)
C2 C 0.2707(1) 0.8731(3) 0.9631(2)
C3 C 0.3564(1) 0.8374(4) 0.9766(2)
C4 C 0.3946(2) 0.7967(4) 1.1060(3)
C5 C 0.4098(2) 0.9808(5) 1.1671(3)
C6 C 0.3830(1) 1.1172(4) 1.0689(2)
C7 C 0.3856(1) 1.0234(4) 0.9492(2)
C8 C 0.3225(2) 1.1076(4) 0.8593(2)
C9 C 0.2993(2) 1.1694(4) 1.0541(3)
C10 C 0.1233(1) 0.7766(3) 0.8677(2)
C11 C 0.0956(1) 0.6964(4) 0.9611(2)
C12 C 0.0214(2) 0.7242(4) 0.9693(2)
C13 C -0.0256(2) 0.8278(4) 0.8870(2)
C14 C 0.0037(2) 0.9115(4) 0.7966(2)
C15 C 0.0780(2) 0.8873(4) 0.7872(2)
C16 C -0.1068(2) 0.8496(5) 0.8940(3)
H1 H 0.0015 0.6681 1.0349
H2 H 0.0984 0.9460 0.7225
H3 H 0.2922 1.2980 1.0476
H4 H 0.2774 1.1276 1.1210
H5 H 0.2521 0.8454 1.0356
H6 H 0.3660 0.7388 0.9239
H7 H 0.1281 0.6229 1.0215
H8 H 0.2124 1.1121 0.9039
H9 H 0.4331 1.0272 0.9221
H10 H 0.4402 0.7288 1.1111
H11 H 0.3614 0.7266 1.1478
H12 H -0.1323 0.9256 0.8295
H13 H -0.1122 0.9024 0.9697
H14 H -0.1321 0.7340 0.8867
H15 H 0.3309 1.2329 0.8429
H16 H 0.3124 1.0455 0.7817
H17 H -0.0281 0.9903 0.7391
H18 H 0.4632 0.9955 1.1979
H19 H 0.3841 0.9942 1.2334
loop_
_geom_bond_atom_site_label_1
_geom_bond_atom_site_label_2
_geom_bond_site_symmetry_1
_geom_bond_site_symmetry_2
S1 O1 1_555 1_555
Cl1 C6 1_555 1_555
O2 S1 1_555 1_555
C1 C2 1_555 1_555
C2 S1 1_555 1_555
C3 C2 1_555 1_555
C4 C3 1_555 1_555
C5 C4 1_555 1_555
C6 C5 1_555 1_555
C7 C3 1_555 1_555
C8 C1 1_555 1_555
C9 C1 1_555 1_555
C10 S1 1_555 1_555
C11 C10 1_555 1_555
C12 C11 1_555 1_555
C13 C12 1_555 1_555
C14 C13 1_555 1_555
C15 C10 1_555 1_555
C16 C13 1_555 1_555
H1 C12 1_555 1_555
H2 C15 1_555 1_555
H3 C9 1_555 1_555
H4 C9 1_555 1_555
H5 C2 1_555 1_555
H6 C3 1_555 1_555
H7 C11 1_555 1_555
H8 C1 1_555 1_555
H9 C7 1_555 1_555
H10 C4 1_555 1_555
H11 C4 1_555 1_555
H12 C16 1_555 1_555
H13 C16 1_555 1_555
H14 C16 1_555 1_555
H15 C8 1_555 1_555
H16 C8 1_555 1_555
H17 C14 1_555 1_555
H18 C5 1_555 1_555
H19 C5 1_555 1_555
C6 C7 1_555 1_555
C6 C9 1_555 1_555
C7 C8 1_555 1_555
C14 C15 1_555 1_555

#END
