
#######################################################################
#
#                 Cambridge Crystallographic Data Centre
#                                CCDC 
#
#######################################################################
#
# If this CIF has been generated from an entry in the Cambridge 
# Structural Database, then it will include bibliographic, chemical, 
# crystal, experimental, refinement or atomic coordinate data resulting 
# from the CCDC's data processing and validation procedures.
#
#######################################################################

data_CAMBAV01
_chemical_formula_moiety         'C11 H7 N1 S2'
_chemical_name_systematic        2-(2-thienyl)-1,3-benzothiazole
_symmetry_cell_setting           monoclinic
_symmetry_space_group_name_H-M   'P 21/c'
_symmetry_Int_Tables_number      14
_space_group_name_Hall           '-P 2ybc'
loop_
_symmetry_equiv_pos_site_id
_symmetry_equiv_pos_as_xyz
1 x,y,z
2 -x,1/2+y,1/2-z
3 -x,-y,-z
4 x,1/2-y,1/2+z
_cell_length_a                   9.7682(5)
_cell_length_b                   12.6868(5)
_cell_length_c                   16.3518(9)
_cell_angle_alpha                90
_cell_angle_beta                 101.613(2)
_cell_angle_gamma                90
_cell_volume                     1984.95
_exptl_crystal_colour            colorless
_exptl_crystal_description       prism
_cell_formula_units_Z            8
loop_
_atom_site_label
_atom_site_type_symbol
_atom_site_fract_x
_atom_site_fract_y
_atom_site_fract_z
C1 C 0.3066(5) 0.8182(4) 0.0513(3)
C2 C 0.2515(6) 0.7359(4) -0.0058(4)
C3 C 0.2104(6) 0.7404(5) -0.0937(4)
H1 H 0.2151 0.8015 -0.1266
C4 C 0.1615(7) 0.6408(6) -0.1255(4)
H2 H 0.1284 0.6278 -0.1833
C5 C 0.1659(7) 0.5655(6) -0.0662(5)
H3 H 0.1368 0.4947 -0.0780
C6 C 0.3797(5) 0.9025(4) 0.1701(3)
C7 C 0.4141(5) 0.9191(4) 0.2568(3)
H4 H 0.4084 0.8634 0.2947
C8 C 0.4568(7) 1.0194(5) 0.2854(4)
H5 H 0.4784 1.0322 0.3438
C9 C 0.4685(6) 1.1011(5) 0.2311(4)
H6 H 0.4986 1.1688 0.2522
C10 C 0.4363(6) 1.0837(4) 0.1456(4)
H7 H 0.4448 1.1390 0.1078
C11 C 0.3918(5) 0.9849(4) 0.1161(4)
N1 N 0.3303(4) 0.8073(4) 0.1314(3)
S1 S 0.34038(14) 0.94168(11) 0.01285(8)
S2 S 0.2284(2) 0.61120(12) 0.03078(11)
C12 C 0.8870(6) 0.9098(5) 0.1283(4)
C13 C 0.9411(6) 0.9946(5) 0.1833(4)
C14 C 1.0655(5) 1.0579(4) 0.1858(3)
H8 H 1.1317 1.0488 0.1511
C15 C 1.0717(7) 1.1366(5) 0.2496(4)
H9 H 1.1460 1.1860 0.2624
C16 C 0.9635(8) 1.1350(6) 0.2902(4)
H10 H 0.9543 1.1837 0.3330
C17 C 0.7477(6) 0.7842(4) 0.0643(4)
C18 C 0.6296(5) 0.7190(4) 0.0480(3)
H11 H 0.5624 0.7193 0.0828
C19 C 0.6155(6) 0.6533(5) -0.0220(4)
H12 H 0.5373 0.6073 -0.0350
C20 C 0.7128(7) 0.6539(5) -0.0725(4)
H13 H 0.7018 0.6107 -0.1208
C21 C 0.8351(6) 0.7244(5) -0.0485(4)
H14 H 0.9069 0.7244 -0.0799
C22 C 0.8433(6) 0.7833(5) 0.0128(5)
N2 N 0.7728(6) 0.8592(4) 0.1324(4)
S3 S 0.97367(17) 0.87718(14) 0.04823(11)
S4 S 0.8467(2) 1.03828(17) 0.25743(12)
loop_
_geom_bond_atom_site_label_1
_geom_bond_atom_site_label_2
_geom_bond_site_symmetry_1
_geom_bond_site_symmetry_2
C1 C2 1_555 1_555
C2 C3 1_555 1_555
C3 H1 1_555 1_555
C4 C3 1_555 1_555
H2 C4 1_555 1_555
C5 C4 1_555 1_555
H3 C5 1_555 1_555
C6 C7 1_555 1_555
C7 H4 1_555 1_555
C8 C7 1_555 1_555
H5 C8 1_555 1_555
C9 C8 1_555 1_555
H6 C9 1_555 1_555
C10 C9 1_555 1_555
H7 C10 1_555 1_555
C11 C6 1_555 1_555
N1 C1 1_555 1_555
S1 C1 1_555 1_555
S2 C2 1_555 1_555
C12 C13 1_555 1_555
C13 C14 1_555 1_555
C14 H8 1_555 1_555
C15 C14 1_555 1_555
H9 C15 1_555 1_555
C16 C15 1_555 1_555
H10 C16 1_555 1_555
C17 C18 1_555 1_555
C18 H11 1_555 1_555
C19 C18 1_555 1_555
H12 C19 1_555 1_555
C20 C19 1_555 1_555
H13 C20 1_555 1_555
C21 C20 1_555 1_555
H14 C21 1_555 1_555
C22 C17 1_555 1_555
N2 C12 1_555 1_555
S3 C12 1_555 1_555
S4 C13 1_555 1_555
C5 S2 1_555 1_555
C6 N1 1_555 1_555
C10 C11 1_555 1_555
C11 S1 1_555 1_555
C16 S4 1_555 1_555
C17 N2 1_555 1_555
C21 C22 1_555 1_555
C22 S3 1_555 1_555

#END
