
#######################################################################
#
#                 Cambridge Crystallographic Data Centre
#                                CCDC 
#
#######################################################################
#
# If this CIF has been generated from an entry in the Cambridge 
# Structural Database, then it will include bibliographic, chemical, 
# crystal, experimental, refinement or atomic coordinate data resulting 
# from the CCDC's data processing and validation procedures.
#
#######################################################################

data_CAMGII
_chemical_formula_moiety         'C23 H19 N1 S1'
_chemical_name_systematic        
4-(Diphenylmethyl)-2-methyl-5-phenyl-1,3-thiazole
_symmetry_cell_setting           triclinic
_symmetry_space_group_name_H-M   'P -1'
_symmetry_Int_Tables_number      2
_space_group_name_Hall           '-P 1'
loop_
_symmetry_equiv_pos_site_id
_symmetry_equiv_pos_as_xyz
1 x,y,z
2 -x,-y,-z
_cell_length_a                   9.6709(3)
_cell_length_b                   10.2215(4)
_cell_length_c                   10.6585(6)
_cell_angle_alpha                107.473(3)
_cell_angle_beta                 92.291(2)
_cell_angle_gamma                116.375(2)
_cell_volume                     881.654
_exptl_crystal_colour            colorless
_exptl_crystal_description       block
_cell_formula_units_Z            2
loop_
_atom_site_label
_atom_site_type_symbol
_atom_site_fract_x
_atom_site_fract_y
_atom_site_fract_z
C1 C 0.3892(3) 0.7631(3) -0.0080(3)
H1 H 0.4864 0.8583 0.0444
H2 H 0.3466 0.7792 -0.0836
H3 H 0.4122 0.6761 -0.0420
C2 C 0.2716(3) 0.7263(2) 0.0792(2)
C3 C 0.1529(2) 0.6493(2) 0.2375(2)
C4 C 0.0555(2) 0.7013(2) 0.1984(2)
C5 C 0.1308(2) 0.5714(2) 0.3412(2)
H4 H 0.0384 0.5739 0.3786
C6 C 0.2711(2) 0.6624(2) 0.4594(2)
C7 C 0.3385(2) 0.8249(2) 0.5164(2)
H5 H 0.3010 0.8781 0.4770
C8 C 0.4585(3) 0.9097(2) 0.6290(2)
H6 H 0.5015 1.0200 0.6669
C9 C 0.5164(3) 0.8349(3) 0.6866(3)
H7 H 0.6000 0.8933 0.7632
C10 C 0.4513(3) 0.6737(3) 0.6313(3)
H8 H 0.4906 0.6216 0.6703
C11 C 0.3298(3) 0.5883(3) 0.5200(2)
H9 H 0.2853 0.4778 0.4842
C12 C 0.0871(2) 0.4000(2) 0.2780(2)
C13 C -0.0579(3) 0.2861(2) 0.2838(2)
H10 H -0.1306 0.3161 0.3235
C14 C -0.0986(3) 0.1281(3) 0.2322(3)
H11 H -0.1969 0.0514 0.2393
C15 C 0.0048(3) 0.0838(3) 0.1707(3)
H12 H -0.0223 -0.0235 0.1352
C16 C 0.1487(3) 0.1968(3) 0.1610(2)
H13 H 0.2191 0.1662 0.1177
C17 C 0.1897(2) 0.3535(2) 0.2142(2)
H14 H 0.2882 0.4299 0.2072
C18 C -0.0810(2) 0.7103(2) 0.2490(2)
C19 C -0.0723(3) 0.7773(3) 0.3859(3)
H15 H 0.0216 0.8145 0.4481
C20 C -0.1999(3) 0.7902(3) 0.4324(3)
H16 H -0.1933 0.8349 0.5259
C21 C -0.3365(3) 0.7379(3) 0.3421(3)
H17 H -0.4231 0.7476 0.3738
C22 C -0.3469(3) 0.6717(3) 0.2067(3)
H18 H -0.4411 0.6354 0.1452
C23 C -0.2206(3) 0.6578(3) 0.1592(3)
H19 H -0.2287 0.6126 0.0655
N1 N 0.2753(2) 0.6650(2) 0.16980(19)
S1 S 0.11813(6) 0.76781(6) 0.06907(5)
loop_
_geom_bond_atom_site_label_1
_geom_bond_atom_site_label_2
_geom_bond_site_symmetry_1
_geom_bond_site_symmetry_2
C1 H1 1_555 1_555
H2 C1 1_555 1_555
H3 C1 1_555 1_555
C2 C1 1_555 1_555
C3 C4 1_555 1_555
C4 C18 1_555 1_555
C5 C3 1_555 1_555
H4 C5 1_555 1_555
C6 C5 1_555 1_555
C7 C6 1_555 1_555
H5 C7 1_555 1_555
C8 C7 1_555 1_555
H6 C8 1_555 1_555
C9 C8 1_555 1_555
H7 C9 1_555 1_555
C10 C9 1_555 1_555
H8 C10 1_555 1_555
C11 C6 1_555 1_555
H9 C11 1_555 1_555
C12 C5 1_555 1_555
C13 C12 1_555 1_555
H10 C13 1_555 1_555
C14 C13 1_555 1_555
H11 C14 1_555 1_555
C15 C14 1_555 1_555
H12 C15 1_555 1_555
C16 C15 1_555 1_555
H13 C16 1_555 1_555
C17 C12 1_555 1_555
H14 C17 1_555 1_555
C18 C19 1_555 1_555
C19 H15 1_555 1_555
C20 C19 1_555 1_555
H16 C20 1_555 1_555
C21 C20 1_555 1_555
H17 C21 1_555 1_555
C22 C21 1_555 1_555
H18 C22 1_555 1_555
C23 C18 1_555 1_555
H19 C23 1_555 1_555
N1 C2 1_555 1_555
S1 C2 1_555 1_555
C3 N1 1_555 1_555
C4 S1 1_555 1_555
C10 C11 1_555 1_555
C16 C17 1_555 1_555
C22 C23 1_555 1_555

#END
