
#######################################################################
#
#                 Cambridge Crystallographic Data Centre
#                                CCDC 
#
#######################################################################
#
# If this CIF has been generated from an entry in the Cambridge 
# Structural Database, then it will include bibliographic, chemical, 
# crystal, experimental, refinement or atomic coordinate data resulting 
# from the CCDC's data processing and validation procedures.
#
#######################################################################

data_CAMHAZ10
_chemical_formula_moiety         'C17 H17 N3 O3'
_chemical_name_systematic        
8,10-Dimethyl-4-phenyl-2,4,6-triazatricyclo(5.3.2.0^2,6^)dodec-11-ene-3,5,9-trione
_symmetry_cell_setting           orthorhombic
_symmetry_space_group_name_H-M   'P 21 21 21'
_symmetry_Int_Tables_number      19
_space_group_name_Hall           'P 2ac 2ab'
loop_
_symmetry_equiv_pos_site_id
_symmetry_equiv_pos_as_xyz
1 x,y,z
2 1/2+x,1/2-y,-z
3 -x,1/2+y,1/2-z
4 1/2-x,-y,1/2+z
_cell_length_a                   7.230(3)
_cell_length_b                   9.301(3)
_cell_length_c                   21.854(7)
_cell_angle_alpha                90
_cell_angle_beta                 90
_cell_angle_gamma                90
_cell_volume                     1469.6
_chemical_melting_point          219-220deg.C
_cell_formula_units_Z            4
loop_
_atom_site_label
_atom_site_type_symbol
_atom_site_fract_x
_atom_site_fract_y
_atom_site_fract_z
C1 C 0.8437(4) -0.1107(4) 0.6518(2)
H1 H 0.918(6) -0.046(4) 0.650(2)
C2 C 0.8721(5) -0.1857(4) 0.7128(2)
H2 H 0.862(6) -0.118(5) 0.747(1)
C3 C 0.7399(6) -0.3099(4) 0.7263(2)
O1 O 0.7758(6) -0.3886(4) 0.7678(2)
C4 C 0.5571(5) -0.3379(4) 0.6925(2)
H3 H 0.481(7) -0.304(5) 0.722(2)
C5 C 0.5354(5) -0.2680(4) 0.6296(2)
H4 H 0.438(5) -0.304(4) 0.608(1)
C6 C 0.7013(5) -0.2924(4) 0.5887(2)
H5 H 0.707(6) -0.350(4) 0.552(2)
C7 C 0.8485(5) -0.2128(4) 0.5990(2)
H6 H 0.942(8) -0.203(7) 0.571(2)
N1 N 0.6661(3) -0.0311(3) 0.6519(1)
N2 N 0.5073(4) -0.1119(3) 0.6359(1)
O2 O 0.2460(3) -0.0672(3) 0.5778(1)
C8 C 0.3901(4) -0.0295(4) 0.6029(1)
N3 N 0.4668(3) 0.1070(3) 0.6031(1)
O3 O 0.7542(3) 0.2024(3) 0.6319(1)
C9 C 0.6448(4) 0.1048(4) 0.6287(1)
C10 C 1.0724(6) -0.2420(7) 0.7185(3)
H7 H 1.099(9) -0.327(7) 0.675(3)
H8 H 1.129(11) -0.163(8) 0.712(3)
H9 H 1.103(7) -0.269(6) 0.764(2)
C11 C 0.5215(8) -0.4976(5) 0.6886(2)
H10 H 0.399(9) -0.521(7) 0.668(2)
H11 H 0.597(9) -0.536(6) 0.654(2)
H12 H 0.533(5) -0.540(4) 0.729(1)
C12 C 0.3777(4) 0.2337(4) 0.5799(1)
C13 C 0.4698(5) 0.3219(4) 0.5400(2)
H13 H 0.594(7) 0.297(6) 0.518(2)
C14 C 0.3834(6) 0.4437(5) 0.5182(2)
H14 H 0.440(6) 0.513(5) 0.485(2)
C15 C 0.2051(6) 0.4788(5) 0.5371(2)
H15 H 0.161(7) 0.562(5) 0.518(2)
C16 C 0.1142(6) 0.3894(5) 0.5776(2)
H16 H 0.022(8) 0.411(5) 0.596(2)
C17 C 0.1983(4) 0.2669(4) 0.5997(2)
H17 H 0.154(7) 0.215(5) 0.632(2)
loop_
_geom_bond_atom_site_label_1
_geom_bond_atom_site_label_2
_geom_bond_site_symmetry_1
_geom_bond_site_symmetry_2
C1 H1 1_555 1_555
C2 C1 1_555 1_555
H2 C2 1_555 1_555
C3 C2 1_555 1_555
O1 C3 1_555 1_555
C4 C3 1_555 1_555
H3 C4 1_555 1_555
C5 C4 1_555 1_555
H4 C5 1_555 1_555
C6 C5 1_555 1_555
H5 C6 1_555 1_555
C7 C1 1_555 1_555
H6 C7 1_555 1_555
N1 C1 1_555 1_555
N2 C5 1_555 1_555
O2 C8 1_555 1_555
C8 N2 1_555 1_555
N3 C8 1_555 1_555
O3 C9 1_555 1_555
C9 N1 1_555 1_555
C10 C2 1_555 1_555
H7 C10 1_555 1_555
H8 C10 1_555 1_555
H9 C10 1_555 1_555
C11 C4 1_555 1_555
H10 C11 1_555 1_555
H11 C11 1_555 1_555
H12 C11 1_555 1_555
C12 N3 1_555 1_555
C13 C12 1_555 1_555
H13 C13 1_555 1_555
C14 C13 1_555 1_555
H14 C14 1_555 1_555
C15 C14 1_555 1_555
H15 C15 1_555 1_555
C16 C15 1_555 1_555
H16 C16 1_555 1_555
C17 C12 1_555 1_555
H17 C17 1_555 1_555
C6 C7 1_555 1_555
N1 N2 1_555 1_555
N3 C9 1_555 1_555
C16 C17 1_555 1_555

#END
