
#######################################################################
#
#                 Cambridge Crystallographic Data Centre
#                                CCDC 
#
#######################################################################
#
# If this CIF has been generated from an entry in the Cambridge 
# Structural Database, then it will include bibliographic, chemical, 
# crystal, experimental, refinement or atomic coordinate data resulting 
# from the CCDC's data processing and validation procedures.
#
#######################################################################

data_CAMMUA
_chemical_formula_moiety         'C15 H11 N1 O4'
_chemical_name_systematic        
(E)-2-(4-Hydroxyphenyl)-3-(4-nitrophenyl)acrylaldehyde
_symmetry_cell_setting           orthorhombic
_symmetry_space_group_name_H-M   'P n a 21'
_symmetry_Int_Tables_number      33
_space_group_name_Hall           'P 2c -2n'
loop_
_symmetry_equiv_pos_site_id
_symmetry_equiv_pos_as_xyz
1 x,y,z
2 -x,-y,1/2+z
3 1/2+x,1/2-y,z
4 1/2-x,1/2+y,1/2+z
_cell_length_a                   18.8185(9)
_cell_length_b                   11.4200(5)
_cell_length_c                   5.8021(2)
_cell_angle_alpha                90
_cell_angle_beta                 90
_cell_angle_gamma                90
_cell_volume                     1246.91
_exptl_crystal_colour            yellow
_chemical_melting_point          185-186deg.C
_cell_formula_units_Z            4
loop_
_atom_site_label
_atom_site_type_symbol
_atom_site_fract_x
_atom_site_fract_y
_atom_site_fract_z
N1 N 0.88053(10) 0.59655(17) -0.3369(4)
O1 O 0.94385(10) 0.61542(16) -0.3621(4)
O2 O 0.83447(9) 0.64225(16) -0.4552(4)
O3 O 1.13054(8) 0.12893(15) 0.4981(4)
H1 H 1.1411 0.0710 0.4187
O4 O 0.81832(9) 0.07546(15) 0.8153(4)
C1 C 0.77305(11) 0.38423(18) -0.0014(5)
H2 H 0.7278 0.3495 -0.0063
C2 C 0.79186(11) 0.46366(18) -0.1702(5)
H3 H 0.7603 0.4828 -0.2900
C3 C 0.85845(11) 0.51423(18) -0.1577(4)
C4 C 0.90563(11) 0.48874(19) 0.0164(5)
H4 H 0.9504 0.5253 0.0215
C5 C 0.88634(11) 0.40876(19) 0.1834(5)
H5 H 0.9182 0.3907 0.3030
C6 C 0.81979(11) 0.35429(18) 0.1765(4)
C7 C 0.79590(11) 0.27356(18) 0.3561(4)
H6 H 0.7464 0.2686 0.3750
C8 C 0.83438(11) 0.20521(18) 0.4985(4)
C9 C 0.91242(11) 0.18629(18) 0.4928(5)
C10 C 0.94487(12) 0.12732(19) 0.3127(4)
H7 H 0.9170 0.1013 0.1885
C11 C 1.01677(12) 0.1058(2) 0.3104(5)
H8 H 1.0376 0.0646 0.1875
C12 C 1.05816(11) 0.14580(18) 0.4917(5)
C13 C 1.02756(12) 0.20547(19) 0.6717(5)
H9 H 1.0559 0.2336 0.7931
C14 C 0.95507(12) 0.22393(19) 0.6738(5)
H10 H 0.9342 0.2626 0.7998
C15 C 0.79362(13) 0.1423(2) 0.6737(5)
H11 H 0.7442 0.1547 0.6770
loop_
_geom_bond_atom_site_label_1
_geom_bond_atom_site_label_2
_geom_bond_site_symmetry_1
_geom_bond_site_symmetry_2
N1 O1 1_555 1_555
O2 N1 1_555 1_555
O3 H1 1_555 1_555
O4 C15 1_555 1_555
C1 H2 1_555 1_555
C2 C1 1_555 1_555
H3 C2 1_555 1_555
C3 N1 1_555 1_555
C4 C3 1_555 1_555
H4 C4 1_555 1_555
C5 C4 1_555 1_555
H5 C5 1_555 1_555
C6 C1 1_555 1_555
C7 C6 1_555 1_555
H6 C7 1_555 1_555
C8 C7 1_555 1_555
C9 C8 1_555 1_555
C10 C9 1_555 1_555
H7 C10 1_555 1_555
C11 C10 1_555 1_555
H8 C11 1_555 1_555
C12 O3 1_555 1_555
C13 C12 1_555 1_555
H9 C13 1_555 1_555
C14 C9 1_555 1_555
H10 C14 1_555 1_555
C15 C8 1_555 1_555
H11 C15 1_555 1_555
C2 C3 1_555 1_555
C5 C6 1_555 1_555
C11 C12 1_555 1_555
C13 C14 1_555 1_555

#END
