
#######################################################################
#
#                 Cambridge Crystallographic Data Centre
#                                CCDC 
#
#######################################################################
#
# If this CIF has been generated from an entry in the Cambridge 
# Structural Database, then it will include bibliographic, chemical, 
# crystal, experimental, refinement or atomic coordinate data resulting 
# from the CCDC's data processing and validation procedures.
#
#######################################################################

data_CAMVOE
_chemical_formula_moiety         'C40 H38 O6 P1 1+,2(C2 H3 N1),Cl1 O4 1-'
_chemical_name_systematic        
'(27-oxo-6,9,12,15,18-pentaoxatetracyclo[21.3.1.0^5,26^.0^19,24^]heptacosa-1(26),2,4,19,21,23-hexaen-25-yl)(triphenyl)phosphonium perchlorate acetonitrile solvate'
_symmetry_cell_setting           monoclinic
_symmetry_space_group_name_H-M   'P c'
_symmetry_Int_Tables_number      7
_space_group_name_Hall           'P -2yc'
loop_
_symmetry_equiv_pos_site_id
_symmetry_equiv_pos_as_xyz
1 x,y,z
2 x,-y,1/2+z
_cell_length_a                   12.1812(15)
_cell_length_b                   11.2560(14)
_cell_length_c                   14.9539(19)
_cell_angle_alpha                90
_cell_angle_beta                 102.441(2)
_cell_angle_gamma                90
_cell_volume                     2002.21
_exptl_crystal_colour            colorless
_exptl_crystal_description       block
_cell_formula_units_Z            2
loop_
_atom_site_label
_atom_site_type_symbol
_atom_site_fract_x
_atom_site_fract_y
_atom_site_fract_z
C1 C 0.5975(2) 0.7798(2) 0.87683(19)
C2 C 0.6268(2) 0.9428(3) 0.7669(2)
C3 C 0.5614(2) 0.7253(2) 0.58329(17)
C4 C 0.3184(2) 0.7082(2) 0.56036(19)
C5 C 0.5679(3) 0.4141(3) 0.7992(2)
H1 H 0.6350 0.3919 0.8410
C6 C 0.4624(2) 0.5583(2) 0.69605(18)
C7 C 0.6760(2) 0.8590(3) 0.8401(2)
C8 C 0.4492(2) 0.8206(2) 0.73289(18)
H2 H 0.3698 0.8482 0.7266
C9 C 0.2184(2) 0.7327(3) 0.5879(2)
H3 H 0.2199 0.7535 0.6497
C10 C 0.6537(2) 0.6483(2) 0.59331(19)
H4 H 0.6602 0.5823 0.6337
C11 C 0.4095(2) 0.7022(2) 0.86485(19)
C12 C 0.4859(2) 0.7676(2) 0.82672(17)
C13 C 0.2192(2) 0.6445(3) 0.8551(2)
H5 H 0.2150 0.6881 0.9117
H6 H 0.2410 0.5614 0.8719
C14 C 0.5596(2) 0.5245(2) 0.75816(18)
H7 H 0.6211 0.5781 0.7725
C15 C 0.4699(2) 1.0122(2) 0.6512(2)
C16 C 0.4789(3) 0.3365(3) 0.7793(2)
H8 H 0.4842 0.2610 0.8084
C17 C -0.0468(2) 0.7648(3) 0.7322(2)
H9 H -0.0921 0.7426 0.7772
H10 H -0.0609 0.7056 0.6821
C18 C 0.3129(3) 1.0780(3) 0.5345(2)
H11 H 0.3610 1.0886 0.4896
H12 H 0.3063 1.1557 0.5640
C19 C 0.1168(2) 0.7267(3) 0.5251(2)
H13 H 0.0487 0.7414 0.5444
C20 C 0.1996(3) 1.0358(3) 0.4871(2)
H14 H 0.1707 1.0860 0.4328
H15 H 0.2046 0.9529 0.4661
C21 C 0.3821(3) 0.3675(3) 0.7176(2)
H16 H 0.3216 0.3124 0.7039
C22 C 0.1139(3) 0.6993(3) 0.4341(2)
H17 H 0.0442 0.6971 0.3909
C23 C 0.5187(2) 0.9276(2) 0.71691(18)
C24 C 0.7350(2) 0.6698(3) 0.5437(2)
H18 H 0.7972 0.6173 0.5496
C25 C 0.6409(3) 1.1246(3) 0.6864(2)
H19 H 0.6832 1.1919 0.6754
C26 C 0.5530(2) 0.8223(2) 0.52398(18)
H20 H 0.4903 0.8744 0.5165
C27 C 0.5572(3) 0.6568(3) 0.9956(2)
H21 H 0.5820 0.6172 1.0524
C28 C 0.7274(2) 0.7664(3) 0.4858(2)
H22 H 0.7845 0.7805 0.4528
C29 C 0.6326(2) 0.7227(3) 0.9601(2)
H23 H 0.7085 0.7291 0.9925
C30 C -0.0807(3) 0.8848(3) 0.6946(2)
H24 H -0.1635 0.8888 0.6737
H25 H -0.0569 0.9458 0.7425
C31 C 0.3712(2) 0.4787(2) 0.67486(19)
H26 H 0.3040 0.5000 0.6326
C32 C 0.6372(3) 0.8420(3) 0.4759(2)
H27 H 0.6322 0.9083 0.4359
C33 C 0.4446(2) 0.6468(2) 0.94967(19)
H28 H 0.3929 0.6028 0.9759
C34 C 0.6897(2) 1.0444(3) 0.7511(2)
H29 H 0.7644 1.0559 0.7850
C35 C 0.2136(2) 0.6753(2) 0.4068(2)
H30 H 0.2119 0.6568 0.3445
C36 C 0.3149(2) 0.6779(2) 0.46913(18)
H31 H 0.3825 0.6593 0.4501
C37 C 0.1087(2) 0.6465(3) 0.7914(2)
H32 H 0.1149 0.6094 0.7326
H33 H 0.0542 0.5998 0.8174
C38 C 0.5331(2) 1.1119(2) 0.6367(2)
H34 H 0.5013 1.1700 0.5926
C39 C 0.0100(3) 1.0275(3) 0.5017(3)
H35 H 0.0014 0.9563 0.4620
H36 H -0.0153 1.0979 0.4630
C40 C -0.0587(3) 1.0143(3) 0.5744(3)
H37 H -0.0431 1.0813 0.6182
H38 H -0.1399 1.0147 0.5457
O1 O 0.30243(15) 0.69857(15) 0.81294(13)
O2 O 0.36370(16) 0.99076(15) 0.60384(13)
O3 O 0.77730(16) 0.8589(2) 0.87479(16)
O4 O 0.06973(16) 0.76449(19) 0.77556(15)
O5 O 0.12435(17) 1.0413(2) 0.54822(15)
O6 O -0.02911(16) 0.9062(2) 0.62043(15)
P1 P 0.44915(5) 0.70254(5) 0.64311(4)
C41 C 0.2910(3) 1.0571(3) 0.8070(2)
N1 N 0.3812(3) 1.0550(3) 0.8479(2)
C42 C 0.1754(3) 1.0612(5) 0.7568(3)
H39 H 0.1284 1.0958 0.7956
H40 H 0.1494 0.9806 0.7390
H41 H 0.1702 1.1101 0.7018
C43 C 1.0527(3) 0.3715(3) 0.5317(2)
N2 N 1.1459(3) 0.3537(3) 0.5598(3)
C44 C 0.9331(3) 0.3887(4) 0.4948(3)
H42 H 0.8933 0.3917 0.5451
H43 H 0.9040 0.3225 0.4539
H44 H 0.9214 0.4634 0.4604
O7 O 0.77842(17) 0.38572(18) 0.65965(15)
O8 O 0.97166(17) 0.3961(2) 0.72570(15)
O9 O 0.8487(2) 0.2941(3) 0.79941(19)
O10 O 0.8423(2) 0.5007(3) 0.7891(2)
Cl1 Cl 0.86081(6) 0.39270(7) 0.74320(5)
loop_
_geom_bond_atom_site_label_1
_geom_bond_atom_site_label_2
_geom_bond_site_symmetry_1
_geom_bond_site_symmetry_2
C1 C7 1_555 1_555
C2 C7 1_555 1_555
C3 C10 1_555 1_555
C4 C9 1_555 1_555
C5 H1 1_555 1_555
C6 C14 1_555 1_555
C7 O3 1_555 1_555
C8 H2 1_555 1_555
C9 H3 1_555 1_555
C10 H4 1_555 1_555
C11 C12 1_555 1_555
C12 C1 1_555 1_555
C13 H5 1_555 1_555
H6 C13 1_555 1_555
C14 C5 1_555 1_555
H7 C14 1_555 1_555
C15 C23 1_555 1_555
C16 C5 1_555 1_555
H8 C16 1_555 1_555
C17 H9 1_555 1_555
H10 C17 1_555 1_555
C18 H11 1_555 1_555
H12 C18 1_555 1_555
C19 C9 1_555 1_555
H13 C19 1_555 1_555
C20 C18 1_555 1_555
H14 C20 1_555 1_555
H15 C20 1_555 1_555
C21 C16 1_555 1_555
H16 C21 1_555 1_555
C22 C19 1_555 1_555
H17 C22 1_555 1_555
C23 C2 1_555 1_555
C24 C10 1_555 1_555
H18 C24 1_555 1_555
C25 H19 1_555 1_555
C26 C3 1_555 1_555
H20 C26 1_555 1_555
C27 H21 1_555 1_555
C28 C24 1_555 1_555
H22 C28 1_555 1_555
C29 C1 1_555 1_555
H23 C29 1_555 1_555
C30 C17 1_555 1_555
H24 C30 1_555 1_555
H25 C30 1_555 1_555
C31 C6 1_555 1_555
H26 C31 1_555 1_555
C32 C26 1_555 1_555
H27 C32 1_555 1_555
C33 C11 1_555 1_555
H28 C33 1_555 1_555
C34 C2 1_555 1_555
H29 C34 1_555 1_555
C35 C22 1_555 1_555
H30 C35 1_555 1_555
C36 C4 1_555 1_555
H31 C36 1_555 1_555
C37 C13 1_555 1_555
H32 C37 1_555 1_555
H33 C37 1_555 1_555
C38 C15 1_555 1_555
H34 C38 1_555 1_555
C39 H35 1_555 1_555
H36 C39 1_555 1_555
C40 C39 1_555 1_555
H37 C40 1_555 1_555
H38 C40 1_555 1_555
O1 C11 1_555 1_555
O2 C15 1_555 1_555
O4 C17 1_555 1_555
O5 C20 1_555 1_555
O6 C30 1_555 1_555
P1 C3 1_555 1_555
C41 N1 1_555 1_555
C42 C41 1_555 1_555
H39 C42 1_555 1_555
H40 C42 1_555 1_555
H41 C42 1_555 1_555
C43 N2 1_555 1_555
C44 C43 1_555 1_555
H42 C44 1_555 1_555
H43 C44 1_555 1_555
H44 C44 1_555 1_555
O7 Cl1 1_555 1_555
O8 Cl1 1_555 1_555
O9 Cl1 1_555 1_555
O10 Cl1 1_555 1_555
C4 P1 1_555 1_555
C6 P1 1_555 1_555
C8 C12 1_555 1_555
C8 C23 1_555 1_555
C8 P1 1_555 1_555
C13 O1 1_555 1_555
C18 O2 1_555 1_555
C21 C31 1_555 1_555
C25 C34 1_555 1_555
C25 C38 1_555 1_555
C27 C29 1_555 1_555
C27 C33 1_555 1_555
C28 C32 1_555 1_555
C35 C36 1_555 1_555
C37 O4 1_555 1_555
C39 O5 1_555 1_555
C40 O6 1_555 1_555

#END
