
#######################################################################
#
#                 Cambridge Crystallographic Data Centre
#                                CCDC 
#
#######################################################################
#
# If this CIF has been generated from an entry in the Cambridge 
# Structural Database, then it will include bibliographic, chemical, 
# crystal, experimental, refinement or atomic coordinate data resulting 
# from the CCDC's data processing and validation procedures.
#
#######################################################################

data_CAMVEU
_chemical_formula_moiety         'C28 H30 N1 O7 S1 1+,H1 O4 S1 1-'
_chemical_name_systematic        
'1-oxo-2-(5-(23-oxo-6,7,9,10,12,13,15,16-octahydro-22H-1,21-methanodibenzo[n,q][1,4,7,10,13]pentaoxacyclooctadecin-22-yl)thiophen-2-yl)ethan-1-aminium hydrogen sulfate'
_symmetry_cell_setting           monoclinic
_symmetry_space_group_name_H-M   'P 21/c'
_symmetry_Int_Tables_number      14
_space_group_name_Hall           '-P 2ybc'
loop_
_symmetry_equiv_pos_site_id
_symmetry_equiv_pos_as_xyz
1 x,y,z
2 -x,1/2+y,1/2-z
3 -x,-y,-z
4 x,1/2-y,1/2+z
_cell_length_a                   11.9134(10)
_cell_length_b                   21.6293(19)
_cell_length_c                   11.4081(10)
_cell_angle_alpha                90
_cell_angle_beta                 93.3460(10)
_cell_angle_gamma                90
_cell_volume                     2934.61
_exptl_crystal_colour            yellow
_exptl_crystal_description       block
_cell_formula_units_Z            4
loop_
_atom_site_label
_atom_site_type_symbol
_atom_site_fract_x
_atom_site_fract_y
_atom_site_fract_z
C1 C 0.2485(3) 0.01074(16) 0.4987(3)
C2 C 0.3329(3) -0.01755(17) 0.4361(3)
C3 C 0.2220(3) -0.01501(16) 0.6054(3)
C4 C 0.3548(3) -0.09686(18) 0.5830(4)
H1 H 0.3897 -0.1340 0.6107
C5 C 0.3837(3) -0.07205(18) 0.4781(4)
H2 H 0.4384 -0.0920 0.4340
C6 C 0.2766(3) -0.06897(19) 0.6479(4)
H3 H 0.2591 -0.0859 0.7215
C7 C 0.1337(3) 0.01227(18) 0.6734(3)
C8 C 0.1924(3) 0.06884(15) 0.4502(3)
H4 H 0.1720 0.0615 0.3651
C9 C 0.0602(3) 0.06057(17) 0.6166(3)
C10 C 0.0854(3) 0.08496(16) 0.5083(3)
C11 C 0.0112(3) 0.12863(17) 0.4545(3)
C12 C -0.0844(3) 0.14690(18) 0.5097(4)
H5 H -0.1349 0.1759 0.4727
C13 C -0.1061(3) 0.1229(2) 0.6185(4)
H6 H -0.1708 0.1362 0.6564
C14 C -0.0356(3) 0.0802(2) 0.6725(3)
H7 H -0.0513 0.0640 0.7472
C15 C 0.2733(3) 0.12318(16) 0.4583(3)
C16 C 0.3087(4) 0.15961(19) 0.3711(4)
H8 H 0.2852 0.1542 0.2907
C17 C 0.4083(3) 0.20530(16) 0.5294(4)
C18 C 0.3839(4) 0.20625(19) 0.4115(4)
H9 H 0.4148 0.2358 0.3608
C19 C 0.4790(4) 0.25110(19) 0.5985(5)
H10 H 0.4282 0.2807 0.6349
H11 H 0.5234 0.2747 0.5429
C20 C 0.5589(4) 0.22581(19) 0.6935(4)
C21 C 0.4562(3) -0.00953(19) 0.2792(4)
H12 H 0.4418 -0.0496 0.2392
H13 H 0.5196 -0.0149 0.3384
C22 C 0.4840(3) 0.0385(2) 0.1926(4)
H14 H 0.4894 0.0793 0.2318
H15 H 0.5578 0.0291 0.1611
C23 C 0.4342(4) 0.0806(2) 0.0075(4)
H16 H 0.4893 0.0590 -0.0396
H17 H 0.4707 0.1180 0.0421
C24 C 0.3369(4) 0.0982(2) -0.0674(4)
H18 H 0.3614 0.1191 -0.1388
H19 H 0.2931 0.0610 -0.0918
C25 C 0.1719(5) 0.1589(3) -0.0667(4)
H20 H 0.1217 0.1233 -0.0850
H21 H 0.1917 0.1780 -0.1416
C26 C 0.1143(4) 0.2047(3) 0.0059(5)
H22 H 0.1672 0.2382 0.0304
H23 H 0.0502 0.2233 -0.0407
C27 C 0.0225(4) 0.2166(2) 0.1828(4)
H24 H -0.0319 0.2424 0.1358
H25 H 0.0804 0.2443 0.2199
C28 C -0.0372(4) 0.1841(2) 0.2763(4)
H26 H -0.0774 0.2145 0.3233
H27 H -0.0931 0.1549 0.2402
N1 N 0.6543(4) 0.2547(2) 0.7126(4)
H28 H 0.7016 0.2430 0.7704
H29 H 0.6714 0.2860 0.6676
O1 O 0.1192(3) -0.00543(17) 0.7737(3)
O2 O 0.3571(2) 0.01075(12) 0.3351(2)
O3 O 0.0429(2) 0.15148(12) 0.3497(2)
O4 O 0.4004(2) 0.04066(13) 0.0994(2)
O5 O 0.0744(3) 0.17476(15) 0.1077(3)
O6 O 0.2690(3) 0.13907(15) -0.0034(3)
O7 O 0.5306(2) 0.18159(14) 0.7540(3)
S1 S 0.33401(7) 0.14621(4) 0.59298(8)
S2 S 0.75797(13) 0.15826(8) 0.96002(12)
O8 O 0.7105(6) 0.1446(3) 1.0681(5)
O9 O 0.6888(6) 0.1215(3) 0.8637(5)
O10 O 0.8626(8) 0.1077(5) 0.9756(9)
O11 O 0.7943(7) 0.2112(4) 0.9207(7)
O12? O 0.6353(10) 0.1474(6) 0.9303(13)
O13? O 0.8644(9) 0.1482(6) 0.9281(11)
O14? O 0.7617(17) 0.1539(10) 1.0836(13)
O15? O 0.7325(8) 0.2288(4) 0.9343(8)
loop_
_geom_bond_atom_site_label_1
_geom_bond_atom_site_label_2
_geom_bond_site_symmetry_1
_geom_bond_site_symmetry_2
C1 C2 1_555 1_555
C2 C5 1_555 1_555
C3 C1 1_555 1_555
C4 H1 1_555 1_555
C5 C4 1_555 1_555
H2 C5 1_555 1_555
C6 C3 1_555 1_555
H3 C6 1_555 1_555
C7 C3 1_555 1_555
C8 C1 1_555 1_555
H4 C8 1_555 1_555
C9 C7 1_555 1_555
C10 C8 1_555 1_555
C11 C10 1_555 1_555
C12 C11 1_555 1_555
H5 C12 1_555 1_555
C13 C12 1_555 1_555
H6 C13 1_555 1_555
C14 C9 1_555 1_555
H7 C14 1_555 1_555
C15 C8 1_555 1_555
C16 C15 1_555 1_555
H8 C16 1_555 1_555
C17 C18 1_555 1_555
C18 C16 1_555 1_555
H9 C18 1_555 1_555
C19 C17 1_555 1_555
H10 C19 1_555 1_555
H11 C19 1_555 1_555
C20 C19 1_555 1_555
C21 H12 1_555 1_555
H13 C21 1_555 1_555
C22 C21 1_555 1_555
H14 C22 1_555 1_555
H15 C22 1_555 1_555
C23 H16 1_555 1_555
H17 C23 1_555 1_555
C24 C23 1_555 1_555
H18 C24 1_555 1_555
H19 C24 1_555 1_555
C25 H20 1_555 1_555
H21 C25 1_555 1_555
C26 C25 1_555 1_555
H22 C26 1_555 1_555
H23 C26 1_555 1_555
C27 H24 1_555 1_555
H25 C27 1_555 1_555
C28 C27 1_555 1_555
H26 C28 1_555 1_555
H27 C28 1_555 1_555
N1 C20 1_555 1_555
H28 N1 1_555 1_555
H29 N1 1_555 1_555
O1 C7 1_555 1_555
O2 C2 1_555 1_555
O3 C11 1_555 1_555
O4 C22 1_555 1_555
O5 C26 1_555 1_555
O6 C24 1_555 1_555
O7 C20 1_555 1_555
S1 C15 1_555 1_555
S2 O8 1_555 1_555
O9 S2 1_555 1_555
O10 S2 1_555 1_555
O11 S2 1_555 1_555
C4 C6 1_555 1_555
C9 C10 1_555 1_555
C13 C14 1_555 1_555
C17 S1 1_555 1_555
C21 O2 1_555 1_555
C23 O4 1_555 1_555
C25 O6 1_555 1_555
C27 O5 1_555 1_555
C28 O3 1_555 1_555

#END
