
#######################################################################
#
#                 Cambridge Crystallographic Data Centre
#                                CCDC 
#
#######################################################################
#
# If this CIF has been generated from an entry in the Cambridge 
# Structural Database, then it will include bibliographic, chemical, 
# crystal, experimental, refinement or atomic coordinate data resulting 
# from the CCDC's data processing and validation procedures.
#
#######################################################################

data_CAMWEV
_chemical_formula_moiety         'C26 H27 N2 O6 1+,C2 H3 N1,Cl1 O4 1-'
_chemical_name_systematic        
'1-(27-oxo-6,9,12,15,18-pentaoxatetracyclo[21.3.1.0^5,26^.0^19,24^]heptacosa-1(26),2,4,19,21,23-hexaen-25-yl)pyrimidin-1-ium perchlorate acetonitrile solvate'
_symmetry_cell_setting           triclinic
_symmetry_space_group_name_H-M   'P -1'
_symmetry_Int_Tables_number      2
_space_group_name_Hall           '-P 1'
loop_
_symmetry_equiv_pos_site_id
_symmetry_equiv_pos_as_xyz
1 x,y,z
2 -x,-y,-z
_cell_length_a                   10.9002(5)
_cell_length_b                   11.5936(5)
_cell_length_c                   13.3742(6)
_cell_angle_alpha                68.8570(10)
_cell_angle_beta                 88.5780(10)
_cell_angle_gamma                62.37
_cell_volume                     1375.68
_exptl_crystal_colour            yellow
_exptl_crystal_description       block
_cell_formula_units_Z            2
loop_
_atom_site_label
_atom_site_type_symbol
_atom_site_fract_x
_atom_site_fract_y
_atom_site_fract_z
O1 O 0.11666(15) 0.93052(15) 0.26614(12)
Cl1 Cl 0.14539(5) 0.78910(5) 0.33141(4)
O2 O 0.10569(15) 0.78348(17) 0.43509(11)
O3 O 0.29390(14) 0.69315(15) 0.34586(12)
O4 O 0.06777(19) 0.75099(19) 0.27810(16)
O5 O -0.16420(12) 0.74328(14) -0.18522(10)
O6 O -0.41454(15) 0.82318(15) 0.19836(10)
O7 O -0.65671(12) 0.88122(13) -0.22050(10)
O8 O -0.11491(14) 0.63284(14) -0.34506(11)
C1 C -0.27892(19) 0.76229(18) 0.06734(14)
N1 N -0.38360(14) 0.67366(14) -0.13076(11)
O9 O -0.37634(15) 0.75615(14) -0.49171(10)
C2 C -0.66877(18) 0.89302(18) -0.12228(14)
C3 C -0.54308(18) 0.85407(17) 0.04291(14)
C4 C -0.4118(2) 0.81265(18) 0.11058(14)
C5 C -0.15345(18) 0.73085(18) -0.08018(14)
C6 C -0.27871(17) 0.76358(17) -0.03771(14)
C7 C -0.40882(17) 0.80143(17) -0.10787(13)
H1 H -0.4238 0.8798 -0.1788
N2 N -0.34908(17) 0.44149(16) -0.05818(13)
C8 C -0.36793(17) 0.55641(18) -0.04729(14)
H2 H -0.3707 0.5571 0.0235
C9 C -0.54168(17) 0.84911(17) -0.05974(14)
C10 C -0.3451(2) 0.4436(2) -0.15938(16)
H3 H -0.3321 0.3622 -0.1701
C11 C -0.37935(17) 0.67619(19) -0.23191(14)
H4 H -0.3901 0.7580 -0.2913
C12 C -0.7921(2) 0.9440(2) 0.02059(16)
H5 H -0.8775 0.9758 0.0482
C13 C -0.35931(18) 0.55910(19) -0.24818(15)
H6 H -0.3553 0.5575 -0.3187
C14 C -0.1548(2) 0.7212(2) 0.13078(15)
H7 H -0.1552 0.7191 0.2025
C15 C -0.79405(19) 0.94212(19) -0.08251(16)
H8 H -0.8803 0.9741 -0.1256
C16 C -0.0390(2) 0.7126(2) -0.23328(16)
H9 H 0.0347 0.6134 -0.1919
H10 H -0.0027 0.7761 -0.2322
C17 C -0.6691(2) 0.90062(18) 0.08324(15)
H11 H -0.6695 0.9022 0.1538
C18 C -0.0301(2) 0.6901(2) -0.01635(16)
H12 H 0.0550 0.6665 -0.0448
C19 C -0.0768(2) 0.7348(2) -0.34731(16)
H13 H -0.1564 0.8314 -0.3866
H14 H 0.0042 0.7245 -0.3855
C20 C -0.1262(2) 0.6256(2) -0.44824(17)
H15 H -0.1312 0.5389 -0.4376
H16 H -0.0398 0.6167 -0.4784
C21 C -0.0323(2) 0.6840(2) 0.08920(17)
H17 H 0.0526 0.6536 0.1334
C22 C -0.78281(19) 0.9303(2) -0.29121(15)
H18 H -0.8327 1.0351 -0.3264
H19 H -0.8460 0.9002 -0.2487
C23 C -0.7444(2) 0.8697(2) -0.37558(16)
H20 H -0.7007 0.7652 -0.3401
H21 H -0.8306 0.9053 -0.4262
C24 C -0.6243(2) 0.8624(2) -0.52356(16)
H22 H -0.7080 0.9240 -0.5819
H23 H -0.6070 0.7639 -0.4987
C25 C -0.5004(2) 0.8706(2) -0.56679(15)
H24 H -0.4969 0.8639 -0.6387
H25 H -0.5072 0.9621 -0.5759
C26 C -0.2512(2) 0.7509(2) -0.52990(16)
H26 H -0.2499 0.8392 -0.5397
H27 H -0.2481 0.7424 -0.6011
O10 O -0.64967(14) 0.90654(14) -0.43497(10)
C27 C 0.6609(2) 0.5046(2) 0.29140(17)
N3 N 0.6784(2) 0.4825(2) 0.21389(15)
C28 C 0.6371(2) 0.5316(2) 0.38878(17)
H28 H 0.5361 0.5899 0.3851
H29 H 0.6861 0.5818 0.3955
H30 H 0.6730 0.4415 0.4521
loop_
_geom_bond_atom_site_label_1
_geom_bond_atom_site_label_2
_geom_bond_site_symmetry_1
_geom_bond_site_symmetry_2
O1 Cl1 1_555 1_555
Cl1 O2 1_555 1_555
O3 Cl1 1_555 1_555
O4 Cl1 1_555 1_555
O5 C5 1_555 1_555
O6 C4 1_555 1_555
O7 C2 1_555 1_555
O8 C19 1_555 1_555
C1 C4 1_555 1_555
N1 C7 1_555 1_555
O9 C25 1_555 1_555
C2 C9 1_555 1_555
C3 C4 1_555 1_555
C5 C6 1_555 1_555
C6 C1 1_555 1_555
C7 C6 1_555 1_555
H1 C7 1_555 1_555
N2 C8 1_555 1_555
C8 N1 1_555 1_555
H2 C8 1_555 1_555
C9 C3 1_555 1_555
C10 N2 1_555 1_555
H3 C10 1_555 1_555
C11 N1 1_555 1_555
H4 C11 1_555 1_555
C12 H5 1_555 1_555
C13 C10 1_555 1_555
H6 C13 1_555 1_555
C14 C1 1_555 1_555
H7 C14 1_555 1_555
C15 C2 1_555 1_555
H8 C15 1_555 1_555
C16 O5 1_555 1_555
H9 C16 1_555 1_555
H10 C16 1_555 1_555
C17 C3 1_555 1_555
H11 C17 1_555 1_555
C18 C5 1_555 1_555
H12 C18 1_555 1_555
C19 C16 1_555 1_555
H13 C19 1_555 1_555
H14 C19 1_555 1_555
C20 O8 1_555 1_555
H15 C20 1_555 1_555
H16 C20 1_555 1_555
C21 C14 1_555 1_555
H17 C21 1_555 1_555
C22 O7 1_555 1_555
H18 C22 1_555 1_555
H19 C22 1_555 1_555
C23 C22 1_555 1_555
H20 C23 1_555 1_555
H21 C23 1_555 1_555
C24 H22 1_555 1_555
H23 C24 1_555 1_555
C25 C24 1_555 1_555
H24 C25 1_555 1_555
H25 C25 1_555 1_555
C26 O9 1_555 1_555
H26 C26 1_555 1_555
H27 C26 1_555 1_555
O10 C23 1_555 1_555
C27 N3 1_555 1_555
C28 C27 1_555 1_555
H28 C28 1_555 1_555
H29 C28 1_555 1_555
H30 C28 1_555 1_555
C7 C9 1_555 1_555
C11 C13 1_555 1_555
C12 C15 1_555 1_555
C12 C17 1_555 1_555
C18 C21 1_555 1_555
C20 C26 1_555 1_555
C24 O10 1_555 1_555

#END
