
#######################################################################
#
#                 Cambridge Crystallographic Data Centre
#                                CCDC 
#
#######################################################################
#
# If this CIF has been generated from an entry in the Cambridge 
# Structural Database, then it will include bibliographic, chemical, 
# crystal, experimental, refinement or atomic coordinate data resulting 
# from the CCDC's data processing and validation procedures.
#
#######################################################################

data_CAMWIZ
_chemical_formula_moiety         'C26 H27 N2 O6 1+,Cl1 O4 1-,0.25(H2 O1)'
_chemical_name_systematic        
'1-(27-oxo-6,9,12,15,18-pentaoxatetracyclo[21.3.1.0^5,26^.0^19,24^]heptacosa-1(26),2,4,19,21,23-hexaen-25-yl)pyridazin-1-ium perchlorate hydrate'
_symmetry_cell_setting           triclinic
_symmetry_space_group_name_H-M   'P -1'
_symmetry_Int_Tables_number      2
_space_group_name_Hall           '-P 1'
loop_
_symmetry_equiv_pos_site_id
_symmetry_equiv_pos_as_xyz
1 x,y,z
2 -x,-y,-z
_cell_length_a                   10.097(2)
_cell_length_b                   10.802(2)
_cell_length_c                   24.017(5)
_cell_angle_alpha                86.680(2)
_cell_angle_beta                 85.093(2)
_cell_angle_gamma                81.142(2)
_cell_volume                     2576.09
_exptl_crystal_colour            yellow
_exptl_crystal_description       block
_cell_formula_units_Z            4
loop_
_atom_site_label
_atom_site_type_symbol
_atom_site_fract_x
_atom_site_fract_y
_atom_site_fract_z
C1 C 0.3280(3) 0.8236(3) 0.17321(11)
H1 H 0.2449 0.8505 0.1937
C2 C 0.4342(3) 0.8904(2) 0.17771(11)
H2 H 0.4228 0.9620 0.1998
C3 C 0.5545(3) 0.8500(2) 0.14954(10)
H3 H 0.6299 0.8920 0.1516
C4 C 0.5631(2) 0.7453(2) 0.11770(9)
H4 H 0.6459 0.7133 0.0981
C5 C 0.4766(2) 0.3224(2) 0.19435(9)
H5 H 0.5377 0.2862 0.2208
C6 C 0.3557(2) 0.2776(2) 0.19168(9)
H6 H 0.3339 0.2111 0.2167
C7 C 0.2670(2) 0.3287(2) 0.15299(9)
H7 H 0.1840 0.2982 0.1517
C8 C 0.2995(2) 0.4254(2) 0.11564(8)
C9 C 0.2077(2) 0.4741(2) 0.07216(9)
C10 C 0.2515(2) 0.5667(2) 0.02923(9)
C11 C 0.1709(2) 0.6048(2) -0.01482(9)
H8 H 0.0906 0.5704 -0.0174
C12 C 0.2081(2) 0.6923(2) -0.05450(10)
H9 H 0.1517 0.7195 -0.0839
C13 C 0.3261(2) 0.7415(2) -0.05244(9)
H10 H 0.3509 0.8016 -0.0803
C14 C 0.4084(2) 0.7017(2) -0.00891(9)
C15 C 0.3708(2) 0.6155(2) 0.03253(8)
C16 C 0.4591(2) 0.57802(19) 0.08015(8)
H11 H 0.5533 0.5526 0.0639
C17 C 0.4200(2) 0.4721(2) 0.11813(8)
C18 C 0.5076(2) 0.4201(2) 0.15816(8)
C19 C 0.7238(2) 0.4200(2) 0.19367(9)
H12 H 0.7544 0.3308 0.1856
H13 H 0.6897 0.4251 0.2335
C20 C 0.8359(2) 0.4946(2) 0.18134(10)
H14 H 0.9154 0.4550 0.2007
H15 H 0.8614 0.4983 0.1406
C21 C 0.8981(3) 0.6912(3) 0.20014(13)
H16 H 0.9683 0.6459 0.2233
H17 H 0.8621 0.7711 0.2180
C22 C 0.9618(3) 0.7204(3) 0.14338(13)
H18 H 1.0376 0.7671 0.1468
H19 H 0.9975 0.6415 0.1246
C23 C 0.9195(3) 0.8316(3) 0.05772(13)
H20 H 0.9297 0.7616 0.0321
H21 H 1.0093 0.8556 0.0607
C24 C 0.8267(3) 0.9410(3) 0.03533(13)
H22 H 0.8120 1.0074 0.0629
H23 H 0.8705 0.9752 0.0006
C25 C 0.7020(3) 0.8620(2) -0.03054(11)
H24 H 0.7642 0.7817 -0.0324
H25 H 0.7348 0.9215 -0.0595
C26 C 0.5641(3) 0.8413(2) -0.04137(10)
H26 H 0.4995 0.9190 -0.0353
H27 H 0.5624 0.8180 -0.0805
N1 N 0.45699(17) 0.69055(16) 0.11476(7)
N2 N 0.33623(18) 0.72582(19) 0.14234(8)
O1 O 0.09936(17) 0.43675(18) 0.07098(8)
O2 O 0.62065(14) 0.47421(14) 0.15789(6)
O3 O 0.79160(17) 0.61745(16) 0.20024(7)
O4 O 0.86466(16) 0.79327(16) 0.11152(8)
O5 O 0.69933(16) 0.91134(15) 0.02351(7)
O6 O 0.52811(15) 0.74177(14) -0.00340(6)
C27 C 0.8915(2) 0.8841(2) 0.34029(9)
H28 H 0.8128 0.9235 0.3237
C28 C 1.0050(2) 0.9449(2) 0.33396(8)
H29 H 1.0032 1.0234 0.3138
C29 C 1.1178(2) 0.8883(2) 0.35747(8)
H30 H 1.1974 0.9259 0.3542
C30 C 1.1133(2) 0.77340(19) 0.38649(8)
H31 H 1.1904 0.7312 0.4034
C31 C 0.90448(19) 0.70037(18) 0.51247(8)
C32 C 0.8055(2) 0.7274(2) 0.55619(8)
H32 H 0.8175 0.7832 0.5839
C33 C 0.6898(2) 0.6725(2) 0.55888(9)
H33 H 0.6231 0.6902 0.5889
C34 C 0.6702(2) 0.5930(2) 0.51886(9)
H34 H 0.5915 0.5540 0.5218
C35 C 0.76621(19) 0.56947(19) 0.47377(9)
C36 C 0.7393(2) 0.48700(19) 0.43030(9)
C37 C 0.8453(2) 0.45502(19) 0.38465(8)
C38 C 0.8259(2) 0.3680(2) 0.34655(9)
H35 H 0.7436 0.3350 0.3485
C39 C 0.9265(2) 0.3302(2) 0.30623(9)
H36 H 0.9134 0.2706 0.2804
C40 C 1.0469(2) 0.3780(2) 0.30274(9)
H37 H 1.1163 0.3504 0.2750
C41 C 1.0655(2) 0.46643(19) 0.33989(8)
C42 C 0.96442(19) 0.50588(18) 0.38158(8)
C43 C 0.99014(19) 0.59957(18) 0.42191(8)
H38 H 1.0784 0.5684 0.4376
C44 C 0.88436(18) 0.62272(18) 0.47033(8)
C45 C 1.0429(2) 0.8363(2) 0.54650(8)
H39 H 1.0231 0.8043 0.5853
H40 H 0.9814 0.9154 0.5399
C46 C 1.1855(2) 0.8590(2) 0.53819(8)
H41 H 1.2047 0.9120 0.5679
H42 H 1.2466 0.7782 0.5406
C47 C 1.3436(2) 0.9443(2) 0.47472(10)
H43 H 1.3741 0.9697 0.5099
H44 H 1.3459 1.0154 0.4469
C48 C 1.4392(2) 0.8336(2) 0.45374(9)
H45 H 1.5328 0.8511 0.4526
H46 H 1.4310 0.7591 0.4791
C49 C 1.5173(2) 0.7415(2) 0.36769(11)
H47 H 1.5364 0.6549 0.3840
H48 H 1.5987 0.7818 0.3687
C50 C 1.4820(2) 0.7388(2) 0.30857(10)
H49 H 1.4601 0.8261 0.2935
H50 H 1.5617 0.6983 0.2859
C51 C 1.4042(2) 0.5425(2) 0.31195(10)
H51 H 1.4246 0.5231 0.3514
H52 H 1.4848 0.5103 0.2876
C52 C 1.2881(2) 0.4810(2) 0.29952(9)
H53 H 1.2619 0.5063 0.2613
H54 H 1.3127 0.3886 0.3021
N3 N 1.00119(15) 0.72347(15) 0.39038(6)
N4 N 0.88696(16) 0.77558(16) 0.36781(7)
O7 O 0.63338(15) 0.44470(15) 0.43215(7)
O8 O 1.02427(13) 0.74528(13) 0.50744(5)
O9 O 1.20786(14) 0.91994(13) 0.48490(6)
O10 O 1.40748(14) 0.81014(14) 0.39902(6)
O11 O 1.37146(15) 0.67385(14) 0.30243(6)
O12 O 1.17859(13) 0.52056(13) 0.34017(6)
O13 O 0.37512(17) 0.11440(18) 0.33551(8)
O14 O 0.55102(19) 0.23148(15) 0.32134(7)
O15 O 0.57512(17) 0.04891(17) 0.37883(7)
O16 O 0.5706(2) 0.03450(17) 0.28270(7)
Cl1 Cl 0.51872(5) 0.10741(5) 0.32958(2)
O21 O -0.3127(3) 0.0820(3) 0.17188(14)
H55 H -0.342(5) 0.078(4) 0.204(2)
H56 H -0.237(3) 0.047(5) 0.178(2)
Cl3 Cl 0.04147(12) 0.07318(7) 0.18459(3)
O22 O -0.0227(2) 0.1971(2) 0.17448(13)
O23 O -0.0476(4) -0.0076(4) 0.21007(13)
O24 O 0.0746(5) 0.0282(4) 0.12869(16)
O25 O 0.1444(2) 0.0770(2) 0.22236(10)
Cl2? Cl -0.0273(4) 0.0657(2) 0.17420(11)
O17? O 0.1254(9) 0.0329(10) 0.1359(4)
O18? O 0.0122(10) 0.1668(10) 0.2057(4)
O19? O 0.0104(10) -0.0446(11) 0.2088(5)
O20? O -0.1641(8) 0.0861(7) 0.1658(3)
loop_
_geom_bond_atom_site_label_1
_geom_bond_atom_site_label_2
_geom_bond_site_symmetry_1
_geom_bond_site_symmetry_2
C1 H1 1_555 1_555
C2 C1 1_555 1_555
H2 C2 1_555 1_555
C3 C2 1_555 1_555
H3 C3 1_555 1_555
C4 C3 1_555 1_555
H4 C4 1_555 1_555
C5 H5 1_555 1_555
C6 C5 1_555 1_555
H6 C6 1_555 1_555
C7 C6 1_555 1_555
H7 C7 1_555 1_555
C8 C7 1_555 1_555
C9 C8 1_555 1_555
C10 C9 1_555 1_555
C11 C10 1_555 1_555
H8 C11 1_555 1_555
C12 C11 1_555 1_555
H9 C12 1_555 1_555
C13 C12 1_555 1_555
H10 C13 1_555 1_555
C14 C13 1_555 1_555
C15 C10 1_555 1_555
C16 C15 1_555 1_555
H11 C16 1_555 1_555
C17 C8 1_555 1_555
C18 C5 1_555 1_555
C19 H12 1_555 1_555
H13 C19 1_555 1_555
C20 C19 1_555 1_555
H14 C20 1_555 1_555
H15 C20 1_555 1_555
C21 H16 1_555 1_555
H17 C21 1_555 1_555
C22 C21 1_555 1_555
H18 C22 1_555 1_555
H19 C22 1_555 1_555
C23 H20 1_555 1_555
H21 C23 1_555 1_555
C24 C23 1_555 1_555
H22 C24 1_555 1_555
H23 C24 1_555 1_555
C25 H24 1_555 1_555
H25 C25 1_555 1_555
C26 C25 1_555 1_555
H26 C26 1_555 1_555
H27 C26 1_555 1_555
N1 C4 1_555 1_555
N2 C1 1_555 1_555
O1 C9 1_555 1_555
O2 C18 1_555 1_555
O3 C20 1_555 1_555
O4 C22 1_555 1_555
O5 C24 1_555 1_555
O6 C14 1_555 1_555
C27 H28 1_555 1_555
C28 C27 1_555 1_555
H29 C28 1_555 1_555
C29 C28 1_555 1_555
H30 C29 1_555 1_555
C30 C29 1_555 1_555
H31 C30 1_555 1_555
C31 C32 1_555 1_555
C32 H32 1_555 1_555
C33 C32 1_555 1_555
H33 C33 1_555 1_555
C34 C33 1_555 1_555
H34 C34 1_555 1_555
C35 C34 1_555 1_555
C36 C35 1_555 1_555
C37 C36 1_555 1_555
C38 C37 1_555 1_555
H35 C38 1_555 1_555
C39 C38 1_555 1_555
H36 C39 1_555 1_555
C40 C39 1_555 1_555
H37 C40 1_555 1_555
C41 C40 1_555 1_555
C42 C37 1_555 1_555
C43 C42 1_555 1_555
H38 C43 1_555 1_555
C44 C31 1_555 1_555
C45 H39 1_555 1_555
H40 C45 1_555 1_555
C46 C45 1_555 1_555
H41 C46 1_555 1_555
H42 C46 1_555 1_555
C47 H43 1_555 1_555
H44 C47 1_555 1_555
C48 C47 1_555 1_555
H45 C48 1_555 1_555
H46 C48 1_555 1_555
C49 H47 1_555 1_555
H48 C49 1_555 1_555
C50 C49 1_555 1_555
H49 C50 1_555 1_555
H50 C50 1_555 1_555
C51 H51 1_555 1_555
H52 C51 1_555 1_555
C52 C51 1_555 1_555
H53 C52 1_555 1_555
H54 C52 1_555 1_555
N3 C30 1_555 1_555
N4 C27 1_555 1_555
O7 C36 1_555 1_555
O8 C31 1_555 1_555
O9 C46 1_555 1_555
O10 C48 1_555 1_555
O11 C50 1_555 1_555
O12 C41 1_555 1_555
O13 Cl1 1_555 1_555
O14 Cl1 1_555 1_555
O15 Cl1 1_555 1_555
O16 Cl1 1_555 1_555
O21 H55 1_555 1_555
H56 O21 1_555 1_555
Cl3 O22 1_555 1_555
O23 Cl3 1_555 1_555
O24 Cl3 1_555 1_555
O25 Cl3 1_555 1_555
C14 C15 1_555 1_555
C16 C17 1_555 1_555
C16 N1 1_555 1_555
C17 C18 1_555 1_555
C19 O2 1_555 1_555
C21 O3 1_555 1_555
C23 O4 1_555 1_555
C25 O5 1_555 1_555
C26 O6 1_555 1_555
N1 N2 1_555 1_555
C35 C44 1_555 1_555
C41 C42 1_555 1_555
C43 C44 1_555 1_555
C43 N3 1_555 1_555
C45 O8 1_555 1_555
C47 O9 1_555 1_555
C49 O10 1_555 1_555
C51 O11 1_555 1_555
C52 O12 1_555 1_555
N3 N4 1_555 1_555

#END
