
#######################################################################
#
#                 Cambridge Crystallographic Data Centre
#                                CCDC 
#
#######################################################################
#
# If this CIF has been generated from an entry in the Cambridge 
# Structural Database, then it will include bibliographic, chemical, 
# crystal, experimental, refinement or atomic coordinate data resulting 
# from the CCDC's data processing and validation procedures.
#
#######################################################################

data_CANBUR
_chemical_formula_moiety         'C29 H25 N2 O1 P1'
_chemical_name_systematic        
'1-benzyl-4-(diphenylphosphoryl)-5-methyl-2-phenyl-1H-imidazole unknown solvate'
_symmetry_cell_setting           monoclinic
_symmetry_space_group_name_H-M   'P 21/n'
_symmetry_Int_Tables_number      14
_space_group_name_Hall           '-P 2yn'
loop_
_symmetry_equiv_pos_site_id
_symmetry_equiv_pos_as_xyz
1 x,y,z
2 1/2-x,1/2+y,1/2-z
3 -x,-y,-z
4 1/2+x,1/2-y,1/2+z
_cell_length_a                   10.2862(9)
_cell_length_b                   9.3501(7)
_cell_length_c                   26.524(2)
_cell_angle_alpha                90
_cell_angle_beta                 92.955(8)
_cell_angle_gamma                90
_cell_volume                     2547.61
_exptl_crystal_colour            colorless
_exptl_crystal_description       block
_cell_formula_units_Z            4
loop_
_atom_site_label
_atom_site_type_symbol
_atom_site_fract_x
_atom_site_fract_y
_atom_site_fract_z
P1 P 0.59764(6) 0.83082(6) 0.64735(2)
O1 O 0.61979(16) 0.68047(16) 0.66409(6)
N1 N 0.50323(18) 1.08120(19) 0.69198(7)
N2 N 0.55338(18) 1.04163(19) 0.77360(6)
C1 C 0.7372(2) 0.9033(2) 0.61784(8)
C2 C 0.7905(2) 0.8259(3) 0.57921(9)
H1 H 0.7480 0.7422 0.5666
C3 C 0.9048(3) 0.8701(3) 0.55913(10)
H2 H 0.9410 0.8160 0.5330
C4 C 0.9669(2) 0.9925(3) 0.57689(9)
H3 H 1.0460 1.0224 0.5632
C5 C 0.9140(3) 1.0706(3) 0.61433(11)
H4 H 0.9560 1.1554 0.6263
C6 C 0.7993(3) 1.0265(3) 0.63493(11)
H5 H 0.7632 1.0814 0.6609
C7 C 0.4642(2) 0.8433(2) 0.60108(8)
C8 C 0.4450(3) 0.9609(3) 0.56988(9)
H6 H 0.5018 1.0408 0.5734
C9 C 0.3433(3) 0.9630(3) 0.53347(10)
H7 H 0.3307 1.0436 0.5119
C10 C 0.2600(3) 0.8466(3) 0.52873(10)
H8 H 0.1908 0.8472 0.5036
C11 C 0.2768(3) 0.7295(3) 0.56026(11)
H9 H 0.2183 0.6509 0.5573
C12 C 0.3791(3) 0.7276(3) 0.59603(10)
H10 H 0.3916 0.6468 0.6174
C13 C 0.5640(2) 0.9485(2) 0.69812(8)
C14 C 0.5963(2) 0.9241(2) 0.74804(8)
C15 C 0.4972(2) 1.1333(2) 0.73809(8)
C16 C 0.6652(3) 0.8029(3) 0.77468(9)
H11 H 0.6042 0.7520 0.7955
H12 H 0.7375 0.8403 0.7963
H13 H 0.6989 0.7371 0.7498
C17 C 0.5757(2) 1.0668(3) 0.82784(8)
H14 H 0.5613 1.1694 0.8348
H15 H 0.6678 1.0448 0.8375
C18 C 0.4891(2) 0.9787(2) 0.86043(8)
C19 C 0.5246(3) 0.9674(3) 0.91203(9)
H16 H 0.6016 1.0127 0.9253
C20 C 0.4479(3) 0.8907(3) 0.94362(9)
H17 H 0.4729 0.8833 0.9785
C21 C 0.3354(3) 0.8246(3) 0.92514(10)
H18 H 0.2830 0.7722 0.9471
C22 C 0.2996(2) 0.8355(3) 0.87417(10)
H19 H 0.2222 0.7904 0.8611
C23 C 0.3761(2) 0.9118(2) 0.84222(9)
H20 H 0.3508 0.9184 0.8073
C24 C 0.4404(2) 1.2728(2) 0.75144(8)
C25 C 0.3577(2) 1.2851(2) 0.79139(9)
H21 H 0.3363 1.2025 0.8101
C26 C 0.3066(2) 1.4164(2) 0.80400(9)
H22 H 0.2509 1.4237 0.8313
C27 C 0.3368(2) 1.5372(2) 0.77677(9)
H23 H 0.3022 1.6276 0.7855
C28 C 0.4177(2) 1.5255(2) 0.73670(9)
H24 H 0.4381 1.6083 0.7179
C29 C 0.4689(2) 1.3945(2) 0.72384(9)
H25 H 0.5235 1.3876 0.6961
loop_
_geom_bond_atom_site_label_1
_geom_bond_atom_site_label_2
_geom_bond_site_symmetry_1
_geom_bond_site_symmetry_2
P1 O1 1_555 1_555
N1 C13 1_555 1_555
N2 C14 1_555 1_555
C1 P1 1_555 1_555
C2 C1 1_555 1_555
H1 C2 1_555 1_555
C3 C2 1_555 1_555
H2 C3 1_555 1_555
C4 C3 1_555 1_555
H3 C4 1_555 1_555
C5 C4 1_555 1_555
H4 C5 1_555 1_555
C6 C1 1_555 1_555
H5 C6 1_555 1_555
C7 P1 1_555 1_555
C8 C7 1_555 1_555
H6 C8 1_555 1_555
C9 C8 1_555 1_555
H7 C9 1_555 1_555
C10 C9 1_555 1_555
H8 C10 1_555 1_555
C11 C10 1_555 1_555
H9 C11 1_555 1_555
C12 C7 1_555 1_555
H10 C12 1_555 1_555
C13 P1 1_555 1_555
C14 C13 1_555 1_555
C15 N1 1_555 1_555
C16 C14 1_555 1_555
H11 C16 1_555 1_555
H12 C16 1_555 1_555
H13 C16 1_555 1_555
C17 N2 1_555 1_555
H14 C17 1_555 1_555
H15 C17 1_555 1_555
C18 C17 1_555 1_555
C19 C18 1_555 1_555
H16 C19 1_555 1_555
C20 C19 1_555 1_555
H17 C20 1_555 1_555
C21 C20 1_555 1_555
H18 C21 1_555 1_555
C22 C21 1_555 1_555
H19 C22 1_555 1_555
C23 C18 1_555 1_555
H20 C23 1_555 1_555
C24 C15 1_555 1_555
C25 C24 1_555 1_555
H21 C25 1_555 1_555
C26 C25 1_555 1_555
H22 C26 1_555 1_555
C27 C26 1_555 1_555
H23 C27 1_555 1_555
C28 C27 1_555 1_555
H24 C28 1_555 1_555
C29 C24 1_555 1_555
H25 C29 1_555 1_555
N2 C15 1_555 1_555
C5 C6 1_555 1_555
C11 C12 1_555 1_555
C22 C23 1_555 1_555
C28 C29 1_555 1_555

#END
