
#######################################################################
#
#                 Cambridge Crystallographic Data Centre
#                                CCDC 
#
#######################################################################
#
# If this CIF has been generated from an entry in the Cambridge 
# Structural Database, then it will include bibliographic, chemical, 
# crystal, experimental, refinement or atomic coordinate data resulting 
# from the CCDC's data processing and validation procedures.
#
#######################################################################

data_CANBAV
_chemical_formula_moiety         'C25 H28 N4 O4'
_chemical_name_systematic        
'Methyl 3-(dimethylamino)-2-(2-(1-(3-(2-methylphenyl)-1,2,4-oxadiazol-5-yl)-2-(dimethylamino)vinyloxyl)phenyl)acrylate'
_symmetry_cell_setting           triclinic
_symmetry_space_group_name_H-M   'P -1'
_symmetry_Int_Tables_number      2
_space_group_name_Hall           '-P 1'
loop_
_symmetry_equiv_pos_site_id
_symmetry_equiv_pos_as_xyz
1 x,y,z
2 -x,-y,-z
_cell_length_a                   10.250(2)
_cell_length_b                   10.691(2)
_cell_length_c                   12.263(3)
_cell_angle_alpha                105.46(3)
_cell_angle_beta                 110.74(3)
_cell_angle_gamma                92.30(3)
_cell_volume                     1197.69
_exptl_crystal_colour            colorless
_exptl_crystal_description       block
_cell_formula_units_Z            2
_exptl_crystal_recrystallization_method ethanol
loop_
_atom_site_label
_atom_site_type_symbol
_atom_site_fract_x
_atom_site_fract_y
_atom_site_fract_z
O1 O 0.04961(18) 0.61344(17) 0.69447(15)
O2 O 0.0979(2) 0.39304(18) 0.76054(19)
O3 O -0.3092(2) 0.7983(2) 0.6037(2)
O4 O -0.0842(2) 0.89519(19) 0.70297(19)
N1 N 0.1987(3) 0.6623(2) 0.5313(2)
N2 N 0.1478(3) 0.2794(2) 0.7915(2)
N3 N 0.2616(2) 0.3469(2) 0.6849(2)
N4 N -0.2754(2) 0.5680(2) 0.8282(3)
C1 C 0.2697(4) 0.6623(4) 0.4479(3)
H1 H 0.3170 0.5867 0.4395
H2 H 0.3374 0.7405 0.4795
H3 H 0.2015 0.6596 0.3694
C2 C 0.1223(4) 0.7722(3) 0.5538(3)
H4 H 0.0791 0.7632 0.6097
H5 H 0.0507 0.7728 0.4781
H6 H 0.1867 0.8529 0.5884
C3 C 0.2022(3) 0.5638(3) 0.5803(2)
H7 H 0.2545 0.5003 0.5570
C4 C 0.1440(3) 0.5390(2) 0.6572(2)
C5 C 0.1711(3) 0.4251(2) 0.6977(2)
C6 C 0.2436(3) 0.2584(2) 0.7443(2)
C7 C 0.3273(3) 0.1482(2) 0.7496(2)
C8 C 0.4012(3) 0.1225(3) 0.6726(2)
H8 H 0.3966 0.1737 0.6212
C9 C 0.4814(3) 0.0221(3) 0.6711(3)
H9 H 0.5308 0.0062 0.6193
C10 C 0.4881(3) -0.0544(3) 0.7464(3)
H10 H 0.5417 -0.1226 0.7455
C11 C 0.4154(3) -0.0299(3) 0.8231(3)
H11 H 0.4208 -0.0825 0.8735
C12 C 0.3336(3) 0.0714(3) 0.8278(2)
C13 C 0.2577(4) 0.0905(3) 0.9144(3)
H12 H 0.2780 0.0268 0.9582
H13 H 0.1580 0.0796 0.8691
H14 H 0.2888 0.1772 0.9713
C14 C 0.0957(3) 0.6880(2) 0.8166(2)
C15 C 0.2338(3) 0.7045(2) 0.8969(2)
H15 H 0.3010 0.6655 0.8701
C16 C 0.2718(3) 0.7794(3) 1.0175(3)
H16 H 0.3646 0.7901 1.0719
C17 C 0.1740(3) 0.8375(3) 1.0569(3)
H17 H 0.1993 0.8872 1.1381
C18 C 0.0362(3) 0.8217(3) 0.9743(3)
H18 H -0.0296 0.8634 1.0011
C19 C -0.0069(3) 0.7459(2) 0.8535(2)
C20 C -0.1945(3) 0.8058(3) 0.6828(3)
C21 C -0.1558(3) 0.7291(2) 0.7685(2)
C22 C -0.1110(4) 0.9776(3) 0.6237(3)
H19 H -0.0265 1.0365 0.6451
H20 H -0.1844 1.0274 0.6329
H21 H -0.1400 0.9238 0.5403
C23 C -0.2668(3) 0.6534(3) 0.7668(3)
H22 H -0.3537 0.6622 0.7126
C24 C -0.4117(4) 0.5119(5) 0.8176(5)
H23 H -0.4847 0.5457 0.7640
H24 H -0.4174 0.5346 0.8969
H25 H -0.4237 0.4181 0.7849
C25 C -0.1542(3) 0.5261(3) 0.9058(3)
H26 H -0.0695 0.5703 0.9078
H27 H -0.1585 0.4330 0.8741
H28 H -0.1538 0.5472 0.9870
loop_
_geom_bond_atom_site_label_1
_geom_bond_atom_site_label_2
_geom_bond_site_symmetry_1
_geom_bond_site_symmetry_2
O1 C4 1_555 1_555
O2 N2 1_555 1_555
O3 C20 1_555 1_555
O4 C20 1_555 1_555
N1 C1 1_555 1_555
N2 C6 1_555 1_555
N3 C5 1_555 1_555
N4 C23 1_555 1_555
C1 H1 1_555 1_555
H2 C1 1_555 1_555
H3 C1 1_555 1_555
C2 N1 1_555 1_555
H4 C2 1_555 1_555
H5 C2 1_555 1_555
H6 C2 1_555 1_555
C3 N1 1_555 1_555
H7 C3 1_555 1_555
C4 C3 1_555 1_555
C5 O2 1_555 1_555
C6 N3 1_555 1_555
C7 C6 1_555 1_555
C8 C7 1_555 1_555
H8 C8 1_555 1_555
C9 C8 1_555 1_555
H9 C9 1_555 1_555
C10 C9 1_555 1_555
H10 C10 1_555 1_555
C11 C10 1_555 1_555
H11 C11 1_555 1_555
C12 C7 1_555 1_555
C13 C12 1_555 1_555
H12 C13 1_555 1_555
H13 C13 1_555 1_555
H14 C13 1_555 1_555
C14 O1 1_555 1_555
C15 C14 1_555 1_555
H15 C15 1_555 1_555
C16 C15 1_555 1_555
H16 C16 1_555 1_555
C17 C16 1_555 1_555
H17 C17 1_555 1_555
C18 C17 1_555 1_555
H18 C18 1_555 1_555
C19 C14 1_555 1_555
C20 C21 1_555 1_555
C21 C19 1_555 1_555
C22 O4 1_555 1_555
H19 C22 1_555 1_555
H20 C22 1_555 1_555
H21 C22 1_555 1_555
C23 C21 1_555 1_555
H22 C23 1_555 1_555
C24 N4 1_555 1_555
H23 C24 1_555 1_555
H24 C24 1_555 1_555
H25 C24 1_555 1_555
C25 N4 1_555 1_555
H26 C25 1_555 1_555
H27 C25 1_555 1_555
H28 C25 1_555 1_555
C4 C5 1_555 1_555
C11 C12 1_555 1_555
C18 C19 1_555 1_555

#END
