
#######################################################################
#
#                 Cambridge Crystallographic Data Centre
#                                CCDC 
#
#######################################################################
#
# If this CIF has been generated from an entry in the Cambridge 
# Structural Database, then it will include bibliographic, chemical, 
# crystal, experimental, refinement or atomic coordinate data resulting 
# from the CCDC's data processing and validation procedures.
#
#######################################################################

data_CANCAW
_chemical_formula_moiety         'C10 H8 N6 O1'
_chemical_name_systematic        
2-Amino-5-(2-phenyl-1,2,3-triazol-4-yl)-1,3,4-oxadiazole
_symmetry_cell_setting           monoclinic
_symmetry_space_group_name_H-M   'P 21/c'
_symmetry_Int_Tables_number      14
_space_group_name_Hall           '-P 2ybc'
loop_
_symmetry_equiv_pos_site_id
_symmetry_equiv_pos_as_xyz
1 x,y,z
2 -x,1/2+y,1/2-z
3 -x,-y,-z
4 x,1/2-y,1/2+z
_cell_length_a                   13.616(2)
_cell_length_b                   5.9421(9)
_cell_length_c                   12.7479(19)
_cell_angle_alpha                90
_cell_angle_beta                 99.952(3)
_cell_angle_gamma                90
_cell_volume                     1015.88
_exptl_crystal_colour            colorless
_exptl_crystal_description       plate
_chemical_melting_point          '548-549 K'
_cell_formula_units_Z            4
_exptl_crystal_recrystallization_method ethanol/DMF
loop_
_atom_site_label
_atom_site_type_symbol
_atom_site_fract_x
_atom_site_fract_y
_atom_site_fract_z
C1 C 0.17641(13) 0.0895(3) 0.26105(13)
C2 C 0.16553(14) -0.0403(3) 0.34813(15)
H1 H 0.1945 -0.1822 0.3576
C3 C 0.11103(16) 0.0441(4) 0.42074(16)
H2 H 0.1026 -0.0422 0.4794
C4 C 0.06906(16) 0.2546(4) 0.40723(18)
H3 H 0.0321 0.3101 0.4565
C5 C 0.08156(15) 0.3830(4) 0.32116(17)
H4 H 0.0531 0.5255 0.3124
C6 C 0.13607(14) 0.3025(3) 0.24748(15)
H5 H 0.1454 0.3904 0.1897
C7 C 0.29727(15) -0.2355(3) 0.09801(15)
H6 H 0.3206 -0.3681 0.0723
C8 C 0.31127(13) -0.0199(3) 0.06011(13)
C9 C 0.36258(13) 0.0465(3) -0.02546(13)
C10 C 0.42580(12) 0.2696(3) -0.12606(13)
N1 N 0.24575(12) -0.2210(2) 0.17602(13)
N2 N 0.23038(11) 0.0007(2) 0.18417(11)
N3 N 0.26884(10) 0.1289(2) 0.11601(11)
N4 N 0.39963(11) -0.0776(2) -0.09011(11)
N5 N 0.44204(11) 0.0664(2) -0.15796(11)
N6 N 0.45229(12) 0.4654(2) -0.16166(12)
H7 H 0.4853 0.4699 -0.2134
H8 H 0.4366 0.5884 -0.1331
O1 O 0.37577(9) 0.27168(18) -0.04253(9)
loop_
_geom_bond_atom_site_label_1
_geom_bond_atom_site_label_2
_geom_bond_site_symmetry_1
_geom_bond_site_symmetry_2
C1 C2 1_555 1_555
C2 H1 1_555 1_555
C3 C2 1_555 1_555
H2 C3 1_555 1_555
C4 C3 1_555 1_555
H3 C4 1_555 1_555
C5 C4 1_555 1_555
H4 C5 1_555 1_555
C6 C1 1_555 1_555
H5 C6 1_555 1_555
C7 H6 1_555 1_555
C8 C7 1_555 1_555
C9 C8 1_555 1_555
C10 N5 1_555 1_555
N1 C7 1_555 1_555
N2 C1 1_555 1_555
N3 C8 1_555 1_555
N4 C9 1_555 1_555
N5 N4 1_555 1_555
N6 C10 1_555 1_555
H7 N6 1_555 1_555
H8 N6 1_555 1_555
O1 C9 1_555 1_555
C5 C6 1_555 1_555
C10 O1 1_555 1_555
N1 N2 1_555 1_555
N2 N3 1_555 1_555

#END
