
#######################################################################
#
#                 Cambridge Crystallographic Data Centre
#                                CCDC 
#
#######################################################################
#
# If this CIF has been generated from an entry in the Cambridge 
# Structural Database, then it will include bibliographic, chemical, 
# crystal, experimental, refinement or atomic coordinate data resulting 
# from the CCDC's data processing and validation procedures.
#
#######################################################################

data_CANCOJ10
_chemical_formula_moiety         'C16 H16 O2'
_chemical_name_systematic        
trans-3,4,4a,9,10,10a-Hexahydro-3,4a-ethanophenanthrene-2(1H),12-dione
_symmetry_cell_setting           monoclinic
_symmetry_space_group_name_H-M   'P 21'
_symmetry_Int_Tables_number      4
_space_group_name_Hall           'P 2yb'
loop_
_symmetry_equiv_pos_site_id
_symmetry_equiv_pos_as_xyz
1 x,y,z
2 -x,1/2+y,-z
_cell_length_a                   8.638(1)
_cell_length_b                   7.160(1)
_cell_length_c                   10.554(1)
_cell_angle_alpha                90
_cell_angle_beta                 104.08(1)
_cell_angle_gamma                90
_cell_volume                     633.134
_chemical_melting_point          435K
_cell_formula_units_Z            2
loop_
_atom_site_label
_atom_site_type_symbol
_atom_site_fract_x
_atom_site_fract_y
_atom_site_fract_z
C1 C 0.27600 0.34830 -0.39390
C2 C 0.35040 0.51890 -0.40660
C3 C 0.36830 0.58010 -0.52640
C4 C 0.31070 0.47050 -0.63650
C5 C 0.24100 0.30110 -0.62500
C6 C 0.22320 0.23690 -0.50470
C7 C 0.14970 0.04610 -0.49890
C8 C 0.18500 -0.03280 -0.36050
C9 C 0.14490 0.11970 -0.27070
C10 C 0.13840 0.03950 -0.13690
C11 C 0.13360 0.18700 -0.03690
C12 C 0.23700 0.35690 -0.04170
C13 C 0.19410 0.43970 -0.18180
C14 C 0.26000 0.28830 -0.25910
C15 C 0.42530 0.24580 -0.16670
C16 C 0.40410 0.28380 -0.03070
O1 O 0.50500 0.26140 0.07070
O2 O 0.05880 0.17090 0.04530
H1 H 0.39500 0.58600 -0.32800
H2 H 0.42500 0.68900 -0.53400
H3 H 0.32900 0.50000 -0.72000
H4 H 0.19900 0.22500 -0.70400
H5 H 0.19000 -0.03800 -0.55700
H6 H 0.02800 0.04800 -0.53700
H7 H 0.30400 -0.06200 -0.32900
H8 H 0.11700 -0.13700 -0.35800
H9 H 0.03200 0.15700 -0.31400
H10 H 0.24100 -0.04800 -0.10100
H11 H 0.04400 -0.04800 -0.14900
H12 H 0.22800 0.45700 0.02600
H13 H 0.25200 0.55300 -0.18600
H14 H 0.07300 0.46400 -0.21800
H15 H 0.51000 0.33100 -0.18400
H16 H 0.46500 0.12100 -0.17500
loop_
_geom_bond_atom_site_label_1
_geom_bond_atom_site_label_2
_geom_bond_site_symmetry_1
_geom_bond_site_symmetry_2
C1 C2 1_555 1_555
C2 C3 1_555 1_555
C3 C4 1_555 1_555
C4 C5 1_555 1_555
C5 C6 1_555 1_555
C6 C1 1_555 1_555
C7 C6 1_555 1_555
C8 C7 1_555 1_555
C9 C8 1_555 1_555
C10 C9 1_555 1_555
C11 C10 1_555 1_555
C12 C11 1_555 1_555
C13 C12 1_555 1_555
C14 C1 1_555 1_555
C15 C14 1_555 1_555
C16 C12 1_555 1_555
O1 C16 1_555 1_555
O2 C11 1_555 1_555
H1 C2 1_555 1_555
H2 C3 1_555 1_555
H3 C4 1_555 1_555
H4 C5 1_555 1_555
H5 C7 1_555 1_555
H6 C7 1_555 1_555
H7 C8 1_555 1_555
H8 C8 1_555 1_555
H9 C9 1_555 1_555
H10 C10 1_555 1_555
H11 C10 1_555 1_555
H12 C12 1_555 1_555
H13 C13 1_555 1_555
H14 C13 1_555 1_555
H15 C15 1_555 1_555
H16 C15 1_555 1_555
C9 C14 1_555 1_555
C13 C14 1_555 1_555
C15 C16 1_555 1_555

#END
