
#######################################################################
#
#                 Cambridge Crystallographic Data Centre
#                                CCDC 
#
#######################################################################
#
# If this CIF has been generated from an entry in the Cambridge 
# Structural Database, then it will include bibliographic, chemical, 
# crystal, experimental, refinement or atomic coordinate data resulting 
# from the CCDC's data processing and validation procedures.
#
#######################################################################

data_CANCID10
_chemical_formula_moiety         'C16 H16 O2'
_chemical_name_systematic        
cis-3,4,4a,9,10,10a-Hexahydro-1,4a-ethanophenanthrene-2(1H),12-dione
_symmetry_cell_setting           orthorhombic
_symmetry_space_group_name_H-M   'P c a 21'
_symmetry_Int_Tables_number      29
_space_group_name_Hall           'P 2c -2ac'
loop_
_symmetry_equiv_pos_site_id
_symmetry_equiv_pos_as_xyz
1 x,y,z
2 1/2-x,y,1/2+z
3 1/2+x,-y,z
4 -x,-y,1/2+z
_cell_length_a                   11.385(9)
_cell_length_b                   11.938(8)
_cell_length_c                   18.50(2)
_cell_angle_alpha                90
_cell_angle_beta                 90
_cell_angle_gamma                90
_cell_volume                     2514.41
_chemical_melting_point          417K
_cell_formula_units_Z            8
loop_
_atom_site_label
_atom_site_type_symbol
_atom_site_fract_x
_atom_site_fract_y
_atom_site_fract_z
C1 C -0.09260 0.43940 0.10490
C2 C -0.15400 0.45230 0.04040
C3 C -0.23940 0.38030 0.02020
C4 C -0.26910 0.28990 0.06390
C5 C -0.20850 0.27360 0.12860
C6 C -0.12030 0.34800 0.14930
C7 C -0.05450 0.33430 0.22020
C8 C -0.11330 0.40540 0.27930
C9 C -0.04280 0.40810 0.34970
C10 C 0.08710 0.41140 0.33840
C11 C 0.13090 0.33590 0.27930
C12 C 0.07290 0.37390 0.20820
C13 C 0.08280 0.49610 0.18730
C14 C 0.00240 0.52220 0.12250
C15 C 0.07680 0.22070 0.28980
C16 C -0.03580 0.21450 0.24710
O1 O 0.11780 0.14700 0.32720
O2 O 0.15380 0.47030 0.37300
C17 C 0.32570 0.13460 0.56550
C18 C 0.27960 0.10240 0.63190
C19 C 0.32490 0.01170 0.66830
C20 C 0.41870 -0.04810 0.64190
C21 C 0.46570 -0.01710 0.57460
C22 C 0.42150 0.07410 0.53670
C23 C 0.46970 0.10620 0.46390
C24 C 0.40010 0.04870 0.40450
C25 C 0.43110 0.08680 0.32710
C26 C 0.46200 0.20850 0.32250
C27 C 0.53270 0.25350 0.38590
C28 C 0.46170 0.23440 0.45540
C29 C 0.33570 0.27480 0.45870
C30 C 0.27680 0.23560 0.52750
C31 C 0.63660 0.17400 0.39750
C32 C 0.60120 0.08600 0.45230
O3 O 0.73010 0.18250 0.36830
O4 O 0.43500 0.26520 0.27070
loop_
_geom_bond_atom_site_label_1
_geom_bond_atom_site_label_2
_geom_bond_site_symmetry_1
_geom_bond_site_symmetry_2
C1 C2 1_555 1_555
C2 C3 1_555 1_555
C3 C4 1_555 1_555
C4 C5 1_555 1_555
C5 C6 1_555 1_555
C6 C1 1_555 1_555
C7 C6 1_555 1_555
C8 C7 1_555 1_555
C9 C8 1_555 1_555
C10 C9 1_555 1_555
C11 C10 1_555 1_555
C12 C7 1_555 1_555
C13 C12 1_555 1_555
C14 C1 1_555 1_555
C15 C11 1_555 1_555
C16 C7 1_555 1_555
O1 C15 1_555 1_555
O2 C10 1_555 1_555
C17 C18 1_555 1_555
C18 C19 1_555 1_555
C19 C20 1_555 1_555
C20 C21 1_555 1_555
C21 C22 1_555 1_555
C22 C17 1_555 1_555
C23 C22 1_555 1_555
C24 C23 1_555 1_555
C25 C24 1_555 1_555
C26 C25 1_555 1_555
C27 C26 1_555 1_555
C28 C23 1_555 1_555
C29 C28 1_555 1_555
C30 C17 1_555 1_555
C31 C27 1_555 1_555
C32 C23 1_555 1_555
O3 C31 1_555 1_555
O4 C26 1_555 1_555
C11 C12 1_555 1_555
C13 C14 1_555 1_555
C15 C16 1_555 1_555
C27 C28 1_555 1_555
C29 C30 1_555 1_555
C31 C32 1_555 1_555

#END
