
#######################################################################
#
#                 Cambridge Crystallographic Data Centre
#                                CCDC 
#
#######################################################################
#
# If this CIF has been generated from an entry in the Cambridge 
# Structural Database, then it will include bibliographic, chemical, 
# crystal, experimental, refinement or atomic coordinate data resulting 
# from the CCDC's data processing and validation procedures.
#
#######################################################################

data_CANDEC
_chemical_formula_moiety         'C30 H33 N3 O2'
_chemical_name_systematic        
N-Cyclohexyl-N-(cyclohexylcarbamoyl)-3-phenylpyrrolo[2,1,5-cd]indolizine-1-carboxamide
_symmetry_cell_setting           triclinic
_symmetry_space_group_name_H-M   'P -1'
_symmetry_Int_Tables_number      2
_space_group_name_Hall           '-P 1'
loop_
_symmetry_equiv_pos_site_id
_symmetry_equiv_pos_as_xyz
1 x,y,z
2 -x,-y,-z
_cell_length_a                   10.661(2)
_cell_length_b                   11.788(3)
_cell_length_c                   11.9648(14)
_cell_angle_alpha                87.521(2)
_cell_angle_beta                 68.260(3)
_cell_angle_gamma                65.656(2)
_cell_volume                     1261.82
_exptl_crystal_colour            colorless
_exptl_crystal_description       block
_cell_formula_units_Z            2
loop_
_atom_site_label
_atom_site_type_symbol
_atom_site_fract_x
_atom_site_fract_y
_atom_site_fract_z
C1 C 0.2258(2) 1.10247(18) 0.39427(17)
C2 C 0.2384(2) 1.16392(19) 0.29230(18)
H1 H 0.3312 1.1451 0.2307
C3 C 0.1085(2) 1.25469(18) 0.28420(18)
H2 H 0.1167 1.2961 0.2157
C4 C -0.0327(2) 1.28625(19) 0.37365(18)
H3 H -0.1163 1.3486 0.3651
C5 C -0.0484(2) 1.22497(19) 0.47467(18)
C6 C -0.1574(2) 1.22005(18) 0.58514(18)
H4 H -0.2596 1.2691 0.6111
C7 C -0.0883(2) 1.13076(18) 0.64882(17)
C8 C 0.0699(2) 1.07629(18) 0.57595(18)
C9 C 0.2174(2) 0.99197(18) 0.55665(18)
H5 H 0.2459 0.9356 0.6090
C10 C 0.3153(2) 1.00629(18) 0.44568(17)
C11 C 0.4784(2) 0.94943(18) 0.38264(17)
C12 C 0.5093(2) 0.74678(18) 0.46639(18)
C13 C -0.1623(2) 1.10024(19) 0.76775(17)
C14 C -0.3172(2) 1.14259(19) 0.82088(18)
H6 H -0.3753 1.1918 0.7800
C15 C -0.3848(2) 1.11277(19) 0.93235(19)
H7 H -0.4883 1.1429 0.9661
C16 C -0.3028(2) 1.03920(19) 0.99508(19)
H8 H -0.3495 1.0184 1.0701
C17 C -0.1502(2) 0.99683(19) 0.94478(18)
H9 H -0.0933 0.9476 0.9866
C18 C -0.0806(2) 1.02665(19) 0.83270(18)
H10 H 0.0228 0.9970 0.8001
C19 C 0.7265(2) 0.7738(2) 0.31584(18)
H11 H 0.7625 0.8394 0.3042
C20 C 0.7456(2) 0.7259(2) 0.19222(18)
H12 H 0.6864 0.7940 0.1590
H13 H 0.7103 0.6609 0.2005
C21 C 0.9095(2) 0.6728(2) 0.10605(18)
H14 H 0.9209 0.6395 0.0284
H15 H 0.9426 0.7394 0.0927
C22 C 1.0047(2) 0.56960(19) 0.15888(17)
H16 H 0.9772 0.5000 0.1652
H17 H 1.1089 0.5393 0.1046
C23 C 0.9857(2) 0.6151(2) 0.28232(19)
H18 H 1.0231 0.6786 0.2748
H19 H 1.0438 0.5457 0.3150
C24 C 0.8214(2) 0.67050(19) 0.36958(18)
H20 H 0.7868 0.6049 0.3846
H21 H 0.8112 0.7046 0.4464
C25 C 0.4576(2) 0.66663(18) 0.66361(18)
H22 H 0.4567 0.6016 0.6160
C26 C 0.3067(2) 0.73068(19) 0.75977(19)
H23 H 0.2337 0.7635 0.7229
H24 H 0.3014 0.8010 0.8035
C27 C 0.2684(2) 0.6416(2) 0.84904(19)
H25 H 0.1721 0.6882 0.9139
H26 H 0.2611 0.5772 0.8074
C28 C 0.3844(2) 0.58044(19) 0.90229(17)
H27 H 0.3853 0.6437 0.9508
H28 H 0.3601 0.5211 0.9547
C29 C 0.5341(2) 0.51411(19) 0.80334(17)
H29 H 0.5351 0.4462 0.7594
H30 H 0.6088 0.4779 0.8382
C30 C 0.5729(2) 0.6028(2) 0.71614(18)
H31 H 0.5816 0.6658 0.7585
H32 H 0.6689 0.5561 0.6509
N1 N 0.08308(18) 1.13605(15) 0.47591(15)
N2 N 0.56619(17) 0.83253(14) 0.39955(14)
N3 N 0.49645(17) 0.75302(15) 0.58091(14)
H33 H 0.5117 0.8106 0.6078
O1 O 0.53719(15) 1.00919(13) 0.31039(12)
O2 O 0.48967(14) 0.67201(13) 0.41629(12)
loop_
_geom_bond_atom_site_label_1
_geom_bond_atom_site_label_2
_geom_bond_site_symmetry_1
_geom_bond_site_symmetry_2
C1 C2 1_555 1_555
C2 H1 1_555 1_555
C3 C2 1_555 1_555
H2 C3 1_555 1_555
C4 C3 1_555 1_555
H3 C4 1_555 1_555
C5 C4 1_555 1_555
C6 C5 1_555 1_555
H4 C6 1_555 1_555
C7 C6 1_555 1_555
C8 C7 1_555 1_555
C9 C8 1_555 1_555
H5 C9 1_555 1_555
C10 C1 1_555 1_555
C11 C10 1_555 1_555
C12 N2 1_555 1_555
C13 C7 1_555 1_555
C14 C13 1_555 1_555
H6 C14 1_555 1_555
C15 C14 1_555 1_555
H7 C15 1_555 1_555
C16 C15 1_555 1_555
H8 C16 1_555 1_555
C17 C16 1_555 1_555
H9 C17 1_555 1_555
C18 C13 1_555 1_555
H10 C18 1_555 1_555
C19 H11 1_555 1_555
C20 C19 1_555 1_555
H12 C20 1_555 1_555
H13 C20 1_555 1_555
C21 C20 1_555 1_555
H14 C21 1_555 1_555
H15 C21 1_555 1_555
C22 C21 1_555 1_555
H16 C22 1_555 1_555
H17 C22 1_555 1_555
C23 C22 1_555 1_555
H18 C23 1_555 1_555
H19 C23 1_555 1_555
C24 C19 1_555 1_555
H20 C24 1_555 1_555
H21 C24 1_555 1_555
C25 H22 1_555 1_555
C26 C25 1_555 1_555
H23 C26 1_555 1_555
H24 C26 1_555 1_555
C27 C26 1_555 1_555
H25 C27 1_555 1_555
H26 C27 1_555 1_555
C28 C27 1_555 1_555
H27 C28 1_555 1_555
H28 C28 1_555 1_555
C29 C28 1_555 1_555
H29 C29 1_555 1_555
H30 C29 1_555 1_555
C30 C25 1_555 1_555
H31 C30 1_555 1_555
H32 C30 1_555 1_555
N1 C1 1_555 1_555
N2 C11 1_555 1_555
N3 C12 1_555 1_555
H33 N3 1_555 1_555
O1 C11 1_555 1_555
O2 C12 1_555 1_555
C5 N1 1_555 1_555
C8 N1 1_555 1_555
C9 C10 1_555 1_555
C17 C18 1_555 1_555
C19 N2 1_555 1_555
C23 C24 1_555 1_555
C25 N3 1_555 1_555
C29 C30 1_555 1_555

#END
