
#######################################################################
#
#                 Cambridge Crystallographic Data Centre
#                                CCDC 
#
#######################################################################
#
# If this CIF has been generated from an entry in the Cambridge 
# Structural Database, then it will include bibliographic, chemical, 
# crystal, experimental, refinement or atomic coordinate data resulting 
# from the CCDC's data processing and validation procedures.
#
#######################################################################

data_CANDAX
_chemical_formula_moiety         'C14 H17 N1 O3'
_chemical_name_systematic        
3-Acetoxy-4-(4-hydroxyphenethylamino)but-3-en-1-one
_symmetry_cell_setting           monoclinic
_symmetry_space_group_name_H-M   'C c'
_symmetry_Int_Tables_number      9
_space_group_name_Hall           'C -2yc'
loop_
_symmetry_equiv_pos_site_id
_symmetry_equiv_pos_as_xyz
1 x,y,z
2 x,-y,1/2+z
3 1/2+x,1/2+y,z
4 1/2+x,1/2-y,1/2+z
_cell_length_a                   7.400(2)
_cell_length_b                   16.462(5)
_cell_length_c                   10.999(3)
_cell_angle_alpha                90
_cell_angle_beta                 98.558(4)
_cell_angle_gamma                90
_cell_volume                     1324.97
_exptl_crystal_colour            colorless
_exptl_crystal_description       block
_cell_formula_units_Z            4
_exptl_crystal_recrystallization_method ethanol
loop_
_atom_site_label
_atom_site_type_symbol
_atom_site_fract_x
_atom_site_fract_y
_atom_site_fract_z
C1 C 0.2626(5) 0.0173(2) 0.7758(3)
H1 H 0.2960 0.0403 0.8531
O1 O -0.5149(4) 0.37437(19) 0.9299(3)
H2 H -0.6191 0.3764 0.8922
N1 N 0.1251(4) 0.0510(2) 0.7065(3)
H3 H 0.0926 0.0311 0.6342
C2 C 0.3084(5) -0.0935(2) 0.6352(4)
C3 C -0.4300(5) 0.3073(2) 0.8957(3)
O2 O 0.1809(4) -0.06909(19) 0.5588(3)
C4 C 0.3655(5) -0.0488(2) 0.7481(3)
C5 C -0.4078(6) 0.1909(3) 0.7689(4)
H4 H -0.4568 0.1593 0.7021
C6 C -0.1770(5) 0.2158(3) 0.9368(3)
H5 H -0.0673 0.2016 0.9848
C7 C -0.2443(5) 0.1679(2) 0.8383(3)
C8 C -0.1397(6) 0.0944(3) 0.8038(4)
H6 H -0.2204 0.0603 0.7478
H7 H -0.0973 0.0629 0.8770
C9 C -0.5004(5) 0.2600(3) 0.7967(4)
H8 H -0.6098 0.2744 0.7486
C10 C 0.0230(5) 0.1198(2) 0.7430(4)
H9 H -0.0200 0.1523 0.6710
H10 H 0.1037 0.1533 0.7997
C11 C 0.3971(8) -0.1719(3) 0.6085(5)
H11 H 0.3178 -0.2013 0.5466
H12 H 0.4195 -0.2039 0.6822
H13 H 0.5108 -0.1609 0.5796
O3 O 0.6439(4) -0.1160(2) 0.8053(3)
C12 C -0.2675(5) 0.2843(3) 0.9663(4)
H14 H -0.2192 0.3153 1.0340
C13 C 0.5282(5) -0.0697(2) 0.8329(4)
C14 C 0.5599(7) -0.0326(3) 0.9600(4)
H15 H 0.6653 -0.0570 1.0074
H16 H 0.4548 -0.0419 0.9999
H17 H 0.5795 0.0248 0.9535
loop_
_geom_bond_atom_site_label_1
_geom_bond_atom_site_label_2
_geom_bond_site_symmetry_1
_geom_bond_site_symmetry_2
C1 H1 1_555 1_555
O1 H2 1_555 1_555
N1 C1 1_555 1_555
H3 N1 1_555 1_555
C2 O2 1_555 1_555
C3 O1 1_555 1_555
C4 C1 1_555 1_555
C5 H4 1_555 1_555
C6 H5 1_555 1_555
C7 C5 1_555 1_555
C8 C7 1_555 1_555
H6 C8 1_555 1_555
H7 C8 1_555 1_555
C9 C3 1_555 1_555
H8 C9 1_555 1_555
C10 N1 1_555 1_555
H9 C10 1_555 1_555
H10 C10 1_555 1_555
C11 C2 1_555 1_555
H11 C11 1_555 1_555
H12 C11 1_555 1_555
H13 C11 1_555 1_555
O3 C13 1_555 1_555
C12 C3 1_555 1_555
H14 C12 1_555 1_555
C13 C4 1_555 1_555
C14 C13 1_555 1_555
H15 C14 1_555 1_555
H16 C14 1_555 1_555
H17 C14 1_555 1_555
C2 C4 1_555 1_555
C5 C9 1_555 1_555
C6 C7 1_555 1_555
C6 C12 1_555 1_555
C8 C10 1_555 1_555

#END
