
#######################################################################
#
#                 Cambridge Crystallographic Data Centre
#                                CCDC 
#
#######################################################################
#
# If this CIF has been generated from an entry in the Cambridge 
# Structural Database, then it will include bibliographic, chemical, 
# crystal, experimental, refinement or atomic coordinate data resulting 
# from the CCDC's data processing and validation procedures.
#
#######################################################################

data_CANDIN01
_chemical_formula_moiety         'C10 H12 O4'
_chemical_name_systematic        Cantharidin
_chemical_properties_biological  'antitumour activity'
_symmetry_cell_setting           orthorhombic
_symmetry_space_group_name_H-M   'P 21 n b'
_symmetry_Int_Tables_number      33
_space_group_name_Hall           'P -2bc 2a'
loop_
_symmetry_equiv_pos_site_id
_symmetry_equiv_pos_as_xyz
1 x,y,z
2 1/2+x,1/2-y,1/2+z
3 x,1/2+y,1/2-z
4 1/2+x,-y,-z
_cell_length_a                   12.510
_cell_length_b                   11.087
_cell_length_c                   6.740
_cell_angle_alpha                90
_cell_angle_beta                 90
_cell_angle_gamma                90
_cell_volume                     934.827
_cell_formula_units_Z            4
loop_
_atom_site_label
_atom_site_type_symbol
_atom_site_fract_x
_atom_site_fract_y
_atom_site_fract_z
C1 C 0.3231 0.2000 0.8627
C2 C 0.3507(1) 0.3329 0.8993(2)
C3 C 0.3201(2) 0.3672(1) 1.1171(3)
C4 C 0.1953(2) 0.3671(1) 1.1131(2)
C5 C 0.1780(1) 0.3351(1) 0.8984(2)
C6 C 0.1989(1) 0.2002 0.8544(1)
C7 C 0.1741(1) 0.1740(1) 0.6495(2)
C8 C 0.3547(1) 0.1764(1) 0.6446(3)
C9 C 0.3828(2) 0.1092 0.9934
C10 C 0.1393 0.1105(1) 0.9942(3)
O1 O 0.4395(1) 0.1585(1) 0.5823(1)
O2 O 0.2675(1) 0.1651 0.5297
O3 O 0.0866(1) 0.1711(2) 0.5613(1)
O4 O 0.2624(1) 0.3921 0.7926
H1 H 0.428(1) 0.363(2) 0.852
H2 H 0.348 0.447(1) 1.167(2)
H3 H 0.343(1) 0.304 1.215(2)
H4 H 0.169 0.440(1) 1.153
H5 H 0.172(2) 0.286 1.224(2)
H6 H 0.106(2) 0.362(2) 0.840
H7 H 0.367(1) 0.021(1) 0.944(2)
H8 H 0.350(1) 0.122(2) 1.162(14)
H9 H 0.474 0.111(1) 0.985(2)
H10 H 0.179(37) 0.050(6) 1.069(26)
H11 H 0.098(5) 0.042(3) 0.867(37)
H12? H 0.102(2) 0.122(3) 1.154(16)
loop_
_geom_bond_atom_site_label_1
_geom_bond_atom_site_label_2
_geom_bond_site_symmetry_1
_geom_bond_site_symmetry_2
C1 C2 1_555 1_555
C2 C3 1_555 1_555
C3 C4 1_555 1_555
C4 C5 1_555 1_555
C5 C6 1_555 1_555
C6 C1 1_555 1_555
C7 C6 1_555 1_555
C8 C1 1_555 1_555
C9 C1 1_555 1_555
C10 C6 1_555 1_555
O1 C8 1_555 1_555
O2 C7 1_555 1_555
O3 C7 1_555 1_555
O4 C2 1_555 1_555
H1 C2 1_555 1_555
H2 C3 1_555 1_555
H3 C3 1_555 1_555
H4 C4 1_555 1_555
H5 C4 1_555 1_555
H6 C5 1_555 1_555
H7 C9 1_555 1_555
H8 C9 1_555 1_555
H9 C9 1_555 1_555
H10 C10 1_555 1_555
H11 C10 1_555 1_555
C5 O4 1_555 1_555
C8 O2 1_555 1_555

#END
