
#######################################################################
#
#                 Cambridge Crystallographic Data Centre
#                                CCDC 
#
#######################################################################
#
# If this CIF has been generated from an entry in the Cambridge 
# Structural Database, then it will include bibliographic, chemical, 
# crystal, experimental, refinement or atomic coordinate data resulting 
# from the CCDC's data processing and validation procedures.
#
#######################################################################

data_CANGUV
_chemical_name_common            
'(1S*,2R*,6S*,7R*)-4-(Adamantan-1-yl)-10-oxa-4-azatricyclo[5.2.1.0$2,6!]decane-3,5-dione hydrate'
_chemical_formula_moiety         'C18 H23 N1 O3,0.17(H2 O1)'
_chemical_name_systematic        
'(3aR*,4S*,7R*,7aS*)-4,7-Epoxyhexahydro-2-(tricyclo[3.3.1.13,7]decane)-1H-isoindole-1,3(2H)-dione hydrate'
_chemical_properties_biological  'Anticancer activity'
_symmetry_cell_setting           monoclinic
_symmetry_space_group_name_H-M   'P 21/n'
_symmetry_Int_Tables_number      14
_space_group_name_Hall           '-P 2yn'
loop_
_symmetry_equiv_pos_site_id
_symmetry_equiv_pos_as_xyz
1 x,y,z
2 1/2-x,1/2+y,1/2-z
3 -x,-y,-z
4 1/2+x,1/2-y,1/2+z
_cell_length_a                   6.87288(16)
_cell_length_b                   10.2647(2)
_cell_length_c                   21.4346(5)
_cell_angle_alpha                90
_cell_angle_beta                 94.579(2)
_cell_angle_gamma                90
_cell_volume                     1507.34
_exptl_crystal_colour            colorless
_exptl_crystal_description       plate
_chemical_melting_point          '159.7-160.5 deg.C'
_cell_formula_units_Z            4
_exptl_crystal_recrystallization_method 'ethyl acetate'
loop_
_atom_site_label
_atom_site_type_symbol
_atom_site_fract_x
_atom_site_fract_y
_atom_site_fract_z
O1 O 0.4112(6) -0.0984(4) 0.11375(15)
O2 O 0.3051(5) 0.1607(3) 0.23349(12)
O3 O 0.3483(4) 0.2068(3) 0.02127(11)
N1 N 0.3672(4) 0.2118(3) 0.12968(12)
C1 C 0.2678(7) -0.1022(4) 0.15891(19)
H1 H 0.3224 -0.1165 0.2020
C2 C 0.1656(7) 0.0304(4) 0.14821(18)
H2 H 0.0339 0.0316 0.1627
C3 C 0.1652(8) 0.0467(4) 0.0775(2)
H3 H 0.0353 0.0571 0.0557
C4 C 0.2775(12) -0.0782(6) 0.0589(3)
H4 H 0.3403 -0.0708 0.0196
C5 C 0.1414(12) -0.1947(6) 0.0622(2)
H5 H 0.1965 -0.2720 0.0444
H6 H 0.0147 -0.1770 0.0406
C6 C 0.1269(10) -0.2101(4) 0.1336(2)
H7 H -0.0049 -0.1948 0.1451
H8 H 0.1701 -0.2955 0.1482
C7 C 0.2967(5) 0.1360(3) 0.17880(13)
C8 C 0.3033(5) 0.1633(3) 0.07099(16)
C9 C 0.5158(5) 0.3189(4) 0.13726(18)
C10 C 0.4409(5) 0.4392(4) 0.10210(19)
H9 H 0.4057 0.4168 0.0587
H10 H 0.3245 0.4707 0.1200
C11 C 0.5911(15) 0.5441(7) 0.1051(4)
H11 H 0.5399 0.6197 0.0812
C12 C 0.6406(8) 0.5845(5) 0.1743(2)
H12 H 0.7376 0.6534 0.1768
H13 H 0.5245 0.6164 0.1922
C13 C 0.7086(6) 0.2720(4) 0.11066(18)
H14 H 0.7591 0.1968 0.1341
H15 H 0.6823 0.2463 0.0673
C14 C 0.8590(6) 0.3804(5) 0.1153(2)
H16 H 0.9787 0.3505 0.0978
C15 C 0.7776(7) 0.4973(4) 0.07835(19)
H17 H 0.7499 0.4733 0.0348
H18 H 0.8733 0.5669 0.0805
C16 C 0.5689(8) 0.3555(5) 0.20670(18)
H19 H 0.4528 0.3839 0.2258
H20 H 0.6212 0.2799 0.2294
C17 C 0.7200(7) 0.4645(5) 0.21031(19)
H21 H 0.7500 0.4884 0.2543
C18 C 0.9051(8) 0.4205(6) 0.1835(2)
H22 H 0.9607 0.3473 0.2074
H23 H 0.9997 0.4908 0.1860
O4 O 0.7512(18) -0.0725(14) 0.0918(7)
C19? C 0.4791(18) 0.3840(12) 0.1850(6)
C20? C 0.574(2) 0.5267(14) 0.1767(7)
C21? C 0.781(2) 0.5068(15) 0.2029(7)
C22? C 0.5659(17) 0.3226(11) 0.0777(5)
C23? C 0.6681(18) 0.4610(15) 0.0707(6)
C24? C 0.578(4) 0.563(2) 0.1083(9)
C25? C 0.7911(17) 0.2786(12) 0.1737(5)
C26? C 0.890(3) 0.4092(16) 0.1641(6)
C27? C 0.875(2) 0.443(2) 0.0968(7)
C28? C 0.080(2) -0.0187(13) 0.1245(6)
C29? C 0.2646(19) -0.0145(11) 0.1703(5)
C30? C 0.417(3) -0.0713(15) 0.1316(7)
C31? C 0.290(4) -0.101(2) 0.0716(11)
C32? C 0.154(4) -0.218(2) 0.0793(10)
C33? C 0.004(3) -0.1595(13) 0.1172(7)
C34? C 0.2967(5) 0.1360(3) 0.17880(13)
C35? C 0.5537(14) 0.0402(9) 0.1214(5)
C36? C 0.5859(17) 0.2860(13) 0.1462(6)
H24? H 0.3415 0.3856 0.1710
H25? H 0.4918 0.3589 0.2288
H26? H 0.5079 0.5934 0.2000
H27? H 0.7814 0.4753 0.2456
H28? H 0.8490 0.5897 0.2038
H29? H 0.4292 0.3275 0.0627
H30? H 0.6285 0.2576 0.0532
H31? H 0.6635 0.4869 0.0266
H32? H 0.4456 0.5781 0.0908
H33? H 0.6505 0.6432 0.1052
H34? H 0.8599 0.2099 0.1536
H35? H 0.7937 0.2590 0.2181
H36? H 1.0275 0.4049 0.1800
H37? H 0.9338 0.3738 0.0738
H38? H 0.9469 0.5223 0.0908
H39? H -0.0198 0.0446 0.1341
H40? H 0.2508 -0.0611 0.2096
H41? H 0.4829 -0.1480 0.1506
H42? H 0.3679 -0.1118 0.0356
H43? H 0.0973 -0.2487 0.0391
H44? H 0.2222 -0.2891 0.1013
H45? H -0.1250 -0.1623 0.0951
H46? H 0.0003 -0.2025 0.1573
N2? N 0.4900(11) 0.1505(8) 0.1518(4)
O5? O 0.167(2) 0.0069(12) 0.0655(5)
O6? O 0.2456(15) 0.1993(9) 0.2148(4)
O7? O 0.7003(12) 0.0353(8) 0.0930(3)
loop_
_geom_bond_atom_site_label_1
_geom_bond_atom_site_label_2
_geom_bond_site_symmetry_1
_geom_bond_site_symmetry_2
O1 C1 1_555 1_555
O2 C7 1_555 1_555
O3 C8 1_555 1_555
N1 C7 1_555 1_555
C1 H1 1_555 1_555
C2 C1 1_555 1_555
H2 C2 1_555 1_555
C3 C2 1_555 1_555
H3 C3 1_555 1_555
C4 O1 1_555 1_555
H4 C4 1_555 1_555
C5 C4 1_555 1_555
H5 C5 1_555 1_555
H6 C5 1_555 1_555
C6 C1 1_555 1_555
H7 C6 1_555 1_555
H8 C6 1_555 1_555
C7 C2 1_555 1_555
C8 N1 1_555 1_555
C9 N1 1_555 1_555
C10 C9 1_555 1_555
H9 C10 1_555 1_555
H10 C10 1_555 1_555
C11 C10 1_555 1_555
H11 C11 1_555 1_555
C12 C11 1_555 1_555
H12 C12 1_555 1_555
H13 C12 1_555 1_555
C13 C9 1_555 1_555
H14 C13 1_555 1_555
H15 C13 1_555 1_555
C14 C13 1_555 1_555
H16 C14 1_555 1_555
C15 C11 1_555 1_555
H17 C15 1_555 1_555
H18 C15 1_555 1_555
C16 C9 1_555 1_555
H19 C16 1_555 1_555
H20 C16 1_555 1_555
C17 C12 1_555 1_555
H21 C17 1_555 1_555
C18 C14 1_555 1_555
H22 C18 1_555 1_555
H23 C18 1_555 1_555
C3 C4 1_555 1_555
C3 C8 1_555 1_555
C5 C6 1_555 1_555
C14 C15 1_555 1_555
C16 C17 1_555 1_555
C17 C18 1_555 1_555

#END
