
#######################################################################
#
#                 Cambridge Crystallographic Data Centre
#                                CCDC 
#
#######################################################################
#
# If this CIF has been generated from an entry in the Cambridge 
# Structural Database, then it will include bibliographic, chemical, 
# crystal, experimental, refinement or atomic coordinate data resulting 
# from the CCDC's data processing and validation procedures.
#
#######################################################################

data_CANJIN
_chemical_formula_moiety         'C4 H1 N9 O4 2-,2(C1 H7 N4 1+),H2 O1'
_chemical_name_systematic        
'bis(amino(hydrazinyl)methaniminium) 5-((3,5-dinitropyrazol-1-id-4-yl)amino)tetrazol-1-ide monohydrate'
_symmetry_cell_setting           monoclinic
_symmetry_space_group_name_H-M   'P 21/c'
_symmetry_Int_Tables_number      14
_space_group_name_Hall           '-P 2ybc'
loop_
_symmetry_equiv_pos_site_id
_symmetry_equiv_pos_as_xyz
1 x,y,z
2 -x,1/2+y,1/2-z
3 -x,-y,-z
4 x,1/2-y,1/2+z
_cell_length_a                   9.771(2)
_cell_length_b                   7.0600(14)
_cell_length_c                   23.868(5)
_cell_angle_alpha                90
_cell_angle_beta                 97.28(3)
_cell_angle_gamma                90
_cell_volume                     1633.22
_cell_formula_units_Z            4
loop_
_atom_site_label
_atom_site_type_symbol
_atom_site_fract_x
_atom_site_fract_y
_atom_site_fract_z
O1 O 1.2003(2) 0.5935(4) 0.3739(1)
O2 O 0.6143(2) 1.0010(4) 0.3087(1)
O3 O 1.1209(2) 0.5469(4) 0.4541(1)
O4 O 0.7571(2) 0.9776(3) 0.2464(1)
N1 N 1.1088(2) 0.6090(4) 0.4056(1)
N2 N 0.8123(3) 0.6058(4) 0.1574(1)
N3 N 0.7885(2) 0.8412(4) 0.3884(1)
N4 N 0.8930(3) 0.7535(4) 0.4191(1)
N5 N 1.0126(2) 0.7381(4) 0.1825(1)
N6 N 0.9229(3) 0.6757(4) 0.1386(1)
N7 N 0.7261(2) 0.9453(4) 0.2940(1)
N8 N 0.8275(3) 0.6162(4) 0.2141(1)
N9 N 1.0125(2) 0.7295(4) 0.2824(1)
H1 H 1.0999 0.6962 0.2886
C1 C 0.9855(3) 0.7038(4) 0.3839(1)
C2 C 0.9437(3) 0.7580(4) 0.3278(1)
C3 C 0.9504(3) 0.6978(4) 0.2274(1)
C4 C 0.8163(3) 0.8445(4) 0.3335(1)
N10 N 0.7483(3) 0.3096(4) 0.4159(1)
H2 H 0.8017 0.3924 0.4357
H3 H 0.7803 0.1939 0.4132
N11 N 0.7407(2) 0.3786(4) 0.3598(1)
H4 H 0.8159 0.3900 0.3433
N12 N 0.5044(3) 0.4138(4) 0.3570(1)
H5 H 0.4242 0.4462 0.3384
H6 H 0.5094 0.3731 0.3920
N13 N 0.6122(3) 0.4873(5) 0.2795(1)
H7 H 0.5326 0.5201 0.2605
H8 H 0.6883 0.4950 0.2635
C5 C 0.6173(3) 0.4264(5) 0.3322(1)
O5 O 0.1351(2) 0.0728(4) 0.4736(1)
H9 H 0.0848 0.1139 0.4450
H10 H 0.0998 0.1326 0.4986
N14 N 0.3961(3) 0.3282(4) 0.4796(1)
H11 H 0.3250 0.2721 0.4615
H12 H 0.3806 0.4490 0.4798
N15 N 0.5524(3) 0.0767(4) 0.6011(1)
H13 H 0.6293 0.0152 0.6124
H14 H 0.4853 0.0787 0.6224
N16 N 0.6365(2) 0.1656(4) 0.5190(1)
H15 H 0.7142 0.1050 0.5296
H16 H 0.6247 0.2258 0.4865
N17 N 0.4205(3) 0.2599(4) 0.5356(1)
H17 H 0.3597 0.2788 0.5593
C6 C 0.5377(3) 0.1660(4) 0.5519(1)
loop_
_geom_bond_atom_site_label_1
_geom_bond_atom_site_label_2
_geom_bond_site_symmetry_1
_geom_bond_site_symmetry_2
O1 N1 1_555 1_555
O2 N7 1_555 1_555
O3 N1 1_555 1_555
O4 N7 1_555 1_555
N1 C1 1_555 1_555
N2 N6 1_555 1_555
N3 N4 1_555 1_555
N4 C1 1_555 1_555
N5 N6 1_555 1_555
N7 C4 1_555 1_555
N8 N2 1_555 1_555
N9 H1 1_555 1_555
C1 C2 1_555 1_555
C2 N9 1_555 1_555
C3 N5 1_555 1_555
C4 N3 1_555 1_555
N10 H2 1_555 1_555
H3 N10 1_555 1_555
N11 N10 1_555 1_555
H4 N11 1_555 1_555
N12 H5 1_555 1_555
H6 N12 1_555 1_555
N13 H7 1_555 1_555
H8 N13 1_555 1_555
C5 N11 1_555 1_555
O5 H9 1_555 1_555
H10 O5 1_555 1_555
N14 H11 1_555 1_555
H12 N14 1_555 1_555
N15 H13 1_555 1_555
H14 N15 1_555 1_555
N16 H15 1_555 1_555
H16 N16 1_555 1_555
N17 N14 1_555 1_555
H17 N17 1_555 1_555
C6 N15 1_555 1_555
N8 C3 1_555 1_555
N9 C3 1_555 1_555
C2 C4 1_555 1_555
N12 C5 1_555 1_555
N13 C5 1_555 1_555
N16 C6 1_555 1_555
N17 C6 1_555 1_555

#END
