
#######################################################################
#
#                 Cambridge Crystallographic Data Centre
#                                CCDC 
#
#######################################################################
#
# If this CIF has been generated from an entry in the Cambridge 
# Structural Database, then it will include bibliographic, chemical, 
# crystal, experimental, refinement or atomic coordinate data resulting 
# from the CCDC's data processing and validation procedures.
#
#######################################################################

data_CANNIO
_chemical_formula_moiety         'C18 H18 O1'
_chemical_name_systematic        
'Di-9-pentacyclo(4.3.0.0^2,4^.0^3,8^.0^5,7^)nonyl ether'
_symmetry_cell_setting           monoclinic
_symmetry_space_group_name_H-M   'P 21/c'
_symmetry_Int_Tables_number      14
_space_group_name_Hall           '-P 2ybc'
loop_
_symmetry_equiv_pos_site_id
_symmetry_equiv_pos_as_xyz
1 x,y,z
2 -x,1/2+y,1/2-z
3 -x,-y,-z
4 x,1/2-y,1/2+z
_cell_length_a                   10.889(3)
_cell_length_b                   9.602(3)
_cell_length_c                   11.874(3)
_cell_angle_alpha                90
_cell_angle_beta                 94.77(9)
_cell_angle_gamma                90
_cell_volume                     1237.2
_cell_formula_units_Z            4
loop_
_atom_site_label
_atom_site_type_symbol
_atom_site_fract_x
_atom_site_fract_y
_atom_site_fract_z
O1 O 0.22380 0.47990 0.40680
C1 C 0.33600 0.39490 0.24320
C2 C 0.21920 0.31500 0.20540
C3 C 0.20140 0.21710 0.30210
C4 C 0.25050 0.16270 0.19590
C5 C 0.38610 0.14750 0.21620
C6 C 0.44030 0.28960 0.23900
C7 C 0.42260 0.19090 0.33530
C8 C 0.30980 0.24810 0.38790
C9 C 0.32730 0.40570 0.37180
C10 C 0.29180 0.72180 0.46870
C11 C 0.25510 0.86340 0.41910
C12 C 0.12300 0.84160 0.36820
C13 C 0.14800 0.91950 0.47680
C14 C 0.12590 0.82200 0.57100
C15 C 0.21740 0.70510 0.57100
C16 C 0.08820 0.68470 0.52140
C17 C 0.09740 0.69010 0.39400
C18 C 0.22330 0.62540 0.38130
H1 H 0.34600 0.47900 0.20500
H2 H 0.15000 0.35400 0.16600
H3 H 0.11600 0.18800 0.32800
H4 H 0.20100 0.10400 0.14500
H5 H 0.42900 0.07700 0.18400
H6 H 0.51500 0.31500 0.21500
H7 H 0.48700 0.14700 0.38400
H8 H 0.30200 0.22600 0.45900
H9 H 0.40500 0.43800 0.41100
H10 H 0.37400 0.70700 0.48400
H11 H 0.31200 0.93000 0.37900
H12 H 0.09300 0.88400 0.30200
H13 H 0.13300 1.01800 0.48000
H14 H 0.09800 0.85300 0.63500
H15 H 0.24800 0.66200 0.64100
H16 H 0.03500 0.63100 0.55100
H17 H 0.03000 0.65000 0.34700
H18 H 0.25200 0.63900 0.30400
loop_
_geom_bond_atom_site_label_1
_geom_bond_atom_site_label_2
_geom_bond_site_symmetry_1
_geom_bond_site_symmetry_2
O1 C9 1_555 1_555
C1 C2 1_555 1_555
C2 C3 1_555 1_555
C3 C4 1_555 1_555
C4 C2 1_555 1_555
C5 C4 1_555 1_555
C6 C1 1_555 1_555
C7 C5 1_555 1_555
C8 C3 1_555 1_555
C9 C1 1_555 1_555
C10 C11 1_555 1_555
C11 C12 1_555 1_555
C12 C13 1_555 1_555
C13 C11 1_555 1_555
C14 C13 1_555 1_555
C15 C10 1_555 1_555
C16 C14 1_555 1_555
C17 C12 1_555 1_555
C18 O1 1_555 1_555
H1 C1 1_555 1_555
H2 C2 1_555 1_555
H3 C3 1_555 1_555
H4 C4 1_555 1_555
H5 C5 1_555 1_555
H6 C6 1_555 1_555
H7 C7 1_555 1_555
H8 C8 1_555 1_555
H9 C9 1_555 1_555
H10 C10 1_555 1_555
H11 C11 1_555 1_555
H12 C12 1_555 1_555
H13 C13 1_555 1_555
H14 C14 1_555 1_555
H15 C15 1_555 1_555
H16 C16 1_555 1_555
H17 C17 1_555 1_555
H18 C18 1_555 1_555
C5 C6 1_555 1_555
C6 C7 1_555 1_555
C7 C8 1_555 1_555
C8 C9 1_555 1_555
C10 C18 1_555 1_555
C14 C15 1_555 1_555
C15 C16 1_555 1_555
C16 C17 1_555 1_555
C17 C18 1_555 1_555

#END
