
#######################################################################
#
#                 Cambridge Crystallographic Data Centre
#                                CCDC 
#
#######################################################################
#
# If this CIF has been generated from an entry in the Cambridge 
# Structural Database, then it will include bibliographic, chemical, 
# crystal, experimental, refinement or atomic coordinate data resulting 
# from the CCDC's data processing and validation procedures.
#
#######################################################################

data_CANPEP
_chemical_name_common            
"N,N'-bis(4-Trifluoromethylthiobenzyl)naphthalene-1,4,5,8-tetracarboxylic acid diimide"
_chemical_formula_moiety         'C30 H16 F6 N2 O4 S2'
_chemical_name_systematic        
2,7-bis(4-((trifluoromethyl)sulfanyl)benzyl)benzo[lmn][3,8]phenanthroline-1,3,6,8(2H,7H)-tetrone
_symmetry_cell_setting           monoclinic
_symmetry_space_group_name_H-M   'P 21/c'
_symmetry_Int_Tables_number      14
_space_group_name_Hall           '-P 2ybc'
loop_
_symmetry_equiv_pos_site_id
_symmetry_equiv_pos_as_xyz
1 x,y,z
2 -x,1/2+y,1/2-z
3 -x,-y,-z
4 x,1/2-y,1/2+z
_cell_length_a                   20.943(11)
_cell_length_b                   4.6447(17)
_cell_length_c                   14.264(7)
_cell_angle_alpha                90
_cell_angle_beta                 109.415(17)
_cell_angle_gamma                90
_cell_volume                     1308.62
_cell_formula_units_Z            2
_exptl_crystal_recrystallization_method Sublimation
loop_
_atom_site_label
_atom_site_type_symbol
_atom_site_fract_x
_atom_site_fract_y
_atom_site_fract_z
S1 S 0.11608(7) 0.4617(3) -0.00464(9)
N1 N 0.34293(14) -0.2990(7) 0.35694(19)
C1 C 0.46832(17) -0.0584(7) 0.4710(2)
C2 C 0.46589(16) -0.2568(8) 0.3949(2)
O1 O 0.29102(15) -0.0389(8) 0.4449(2)
C3 C 0.27578(19) -0.4166(9) 0.2961(3)
H1 H 0.2505 -0.4695 0.3395
H2 H 0.2824 -0.5893 0.2622
C4 C 0.23532(17) -0.2013(8) 0.2203(2)
F1 F 0.02686(16) 0.0602(8) -0.0815(3)
F2 F 0.02953(18) 0.4172(7) -0.1761(2)
C5 C 0.41355(18) 0.2121(9) 0.5675(2)
H3 H 0.3746 0.2621 0.5813
C6 C 0.40935(17) 0.0190(8) 0.4910(2)
C7 C 0.34370(18) -0.0999(9) 0.4311(2)
C8 C 0.52398(18) -0.3320(10) 0.3761(2)
H4 H 0.5219 -0.4629 0.3258
O2 O 0.39635(15) -0.5678(8) 0.2722(2)
C9 C 0.40027(19) -0.3860(9) 0.3353(3)
C10 C 0.2201(2) 0.0798(9) 0.0725(3)
H5 H 0.2354 0.1370 0.0212
C11 C 0.17643(19) -0.0853(9) 0.2271(3)
H6 H 0.1618 -0.1376 0.2796
C12 C 0.16104(19) 0.1924(9) 0.0798(3)
F3 F 0.1033(2) 0.0843(8) -0.1437(2)
C13 C 0.1389(2) 0.1078(10) 0.1567(3)
H7 H 0.0987 0.1812 0.1610
C14 C 0.25690(18) -0.1200(9) 0.1425(3)
H8 H 0.2962 -0.1993 0.1369
C15 C 0.0667(2) 0.2457(10) -0.1033(3)
S1B S 0.88392(7) -0.4617(3) 1.00464(9)
N1B N 0.65707(14) 0.2990(7) 0.64306(19)
C1B C 0.53168(17) 0.0584(7) 0.5290(2)
C2B C 0.53411(16) 0.2568(8) 0.6051(2)
O1B O 0.70898(15) 0.0389(8) 0.5551(2)
C3B C 0.72422(19) 0.4166(9) 0.7039(3)
H1B H 0.7495 0.4695 0.6605
H2B H 0.7176 0.5893 0.7378
C4B C 0.76468(17) 0.2013(8) 0.7797(2)
F1B F 0.97314(16) -0.0602(8) 1.0815(3)
F2B F 0.97047(18) -0.4172(7) 1.1761(2)
C5B C 0.58645(18) -0.2121(9) 0.4325(2)
H3B H 0.6254 -0.2621 0.4187
C6B C 0.59065(17) -0.0190(8) 0.5090(2)
C7B C 0.65630(18) 0.0999(9) 0.5689(2)
C8B C 0.47602(18) 0.3320(10) 0.6239(2)
H4B H 0.4781 0.4629 0.6742
O2B O 0.60365(15) 0.5678(8) 0.7278(2)
C9B C 0.59973(19) 0.3860(9) 0.6647(3)
C10B C 0.7799(2) -0.0798(9) 0.9275(3)
H5B H 0.7646 -0.1370 0.9788
C11B C 0.82357(19) 0.0853(9) 0.7729(3)
H6B H 0.8382 0.1376 0.7204
C12B C 0.83896(19) -0.1924(9) 0.9202(3)
F3B F 0.8967(2) -0.0843(8) 1.1437(2)
C13B C 0.8611(2) -0.1078(10) 0.8433(3)
H7B H 0.9013 -0.1812 0.8390
C14B C 0.74310(18) 0.1200(9) 0.8575(3)
H8B H 0.7038 0.1993 0.8631
C15B C 0.9333(2) -0.2457(10) 1.1033(3)
loop_
_geom_bond_atom_site_label_1
_geom_bond_atom_site_label_2
_geom_bond_site_symmetry_1
_geom_bond_site_symmetry_2
S1 C12 1_555 1_555
N1 C3 1_555 1_555
C1 C2 1_555 1_555
C2 C8 1_555 1_555
O1 C7 1_555 1_555
C3 H1 1_555 1_555
H2 C3 1_555 1_555
C4 C3 1_555 1_555
F1 C15 1_555 1_555
F2 C15 1_555 1_555
C5 H3 1_555 1_555
C6 C1 1_555 1_555
C7 N1 1_555 1_555
C8 H4 1_555 1_555
O2 C9 1_555 1_555
C9 N1 1_555 1_555
C10 H5 1_555 1_555
C11 C4 1_555 1_555
H6 C11 1_555 1_555
C12 C10 1_555 1_555
F3 C15 1_555 1_555
C13 C11 1_555 1_555
H7 C13 1_555 1_555
C14 C4 1_555 1_555
H8 C14 1_555 1_555
C15 S1 1_555 1_555
S1B C12B 1_555 1_555
N1B C3B 1_555 1_555
C1B C1 1_555 1_555
C2B C1B 1_555 1_555
O1B C7B 1_555 1_555
C3B H1B 1_555 1_555
H2B C3B 1_555 1_555
C4B C3B 1_555 1_555
F1B C15B 1_555 1_555
F2B C15B 1_555 1_555
C5B C8 1_555 1_555
H3B C5B 1_555 1_555
C6B C1B 1_555 1_555
C7B N1B 1_555 1_555
C8B C5 1_555 1_555
H4B C8B 1_555 1_555
O2B C9B 1_555 1_555
C9B N1B 1_555 1_555
C10B H5B 1_555 1_555
C11B C4B 1_555 1_555
H6B C11B 1_555 1_555
C12B C10B 1_555 1_555
F3B C15B 1_555 1_555
C13B C11B 1_555 1_555
H7B C13B 1_555 1_555
C14B C4B 1_555 1_555
H8B C14B 1_555 1_555
C15B S1B 1_555 1_555
C2 C9 1_555 1_555
C5 C6 1_555 1_555
C6 C7 1_555 1_555
C10 C14 1_555 1_555
C12 C13 1_555 1_555
C2B C8B 1_555 1_555
C2B C9B 1_555 1_555
C5B C6B 1_555 1_555
C6B C7B 1_555 1_555
C10B C14B 1_555 1_555
C12B C13B 1_555 1_555

#END
