
#######################################################################
#
#                 Cambridge Crystallographic Data Centre
#                                CCDC 
#
#######################################################################
#
# If this CIF has been generated from an entry in the Cambridge 
# Structural Database, then it will include bibliographic, chemical, 
# crystal, experimental, refinement or atomic coordinate data resulting 
# from the CCDC's data processing and validation procedures.
#
#######################################################################

data_CANSAM
_chemical_formula_moiety         'C16 H26 O3'
_chemical_name_systematic        
8-(3,5-dihydroxypentyl)-7-methyl-3,4,4a,7,8,8a-hexahydronaphthalen-1(2H)-one
_symmetry_cell_setting           monoclinic
_symmetry_space_group_name_H-M   'P 21'
_symmetry_Int_Tables_number      4
_space_group_name_Hall           'P 2yb'
loop_
_symmetry_equiv_pos_site_id
_symmetry_equiv_pos_as_xyz
1 x,y,z
2 -x,1/2+y,-z
_cell_length_a                   5.521(3)
_cell_length_b                   7.874(4)
_cell_length_c                   18.048(8)
_cell_angle_alpha                90
_cell_angle_beta                 96.83(4)
_cell_angle_gamma                90
_cell_volume                     779.021
_exptl_crystal_colour            colorless
_exptl_crystal_description       parallelepiped
_chemical_melting_point          '82.5-83 deg.C'
_cell_formula_units_Z            2
_exptl_crystal_recrystallization_method 'hexanes/diethyl ether'
loop_
_atom_site_label
_atom_site_type_symbol
_atom_site_fract_x
_atom_site_fract_y
_atom_site_fract_z
O1 O -0.0691(4) 0.9207(3) 0.11205(11)
O2 O -0.1314(3) 0.9330(3) 0.43482(9)
H1 H -0.1877 0.8469 0.4542
O3 O -0.7907(3) 1.1644(3) 0.48080(11)
H2 H -0.8735 1.0821 0.4622
C1 C 0.0979(5) 0.6686(4) 0.17339(14)
H3 H 0.2595 0.6606 0.2047
C2 C 0.1018(5) 0.8222(4) 0.12285(15)
C3 C 0.3202(6) 0.8314(4) 0.08096(17)
H4 H 0.4703 0.8415 0.1166
H5 H 0.3082 0.9329 0.0484
C4 C 0.3337(6) 0.6707(5) 0.03336(16)
H6 H 0.2050 0.6760 -0.0097
H7 H 0.4935 0.6675 0.0137
C5 C 0.3021(6) 0.5081(5) 0.07697(16)
H8 H 0.4483 0.4898 0.1135
H9 H 0.2869 0.4104 0.0422
C6 C 0.0748(5) 0.5172(4) 0.11833(15)
H10 H -0.0681 0.5406 0.0803
C7 C 0.0235(6) 0.3548(4) 0.15685(17)
H11 H 0.0466 0.2503 0.1323
C8 C -0.0531(6) 0.3510(5) 0.22398(18)
H12 H -0.0825 0.2423 0.2439
C9 C -0.0971(6) 0.5007(4) 0.27071(16)
H13 H -0.2630 0.4862 0.2868
C10 C -0.1022(5) 0.6679(4) 0.22514(14)
H14 H -0.2619 0.6712 0.1926
C11 C 0.0867(6) 0.4975(5) 0.34189(17)
H15 H 0.0771 0.3877 0.3670
H16 H 0.0479 0.5887 0.3755
H17 H 0.2521 0.5140 0.3285
C12 C -0.0914(5) 0.8270(4) 0.27532(16)
H18 H 0.0510 0.8176 0.3140
H19 H -0.0670 0.9284 0.2446
C13 C -0.3224(5) 0.8519(4) 0.31364(16)
H20 H -0.4594 0.8804 0.2752
H21 H -0.3624 0.7431 0.3368
C14 C -0.3018(5) 0.9900(4) 0.37328(15)
H22 H -0.2392 1.0966 0.3522
C15 C -0.5487(5) 1.0240(4) 0.39858(15)
H23 H -0.6133 0.9159 0.4162
H24 H -0.6613 1.0622 0.3550
C16 C -0.5496(5) 1.1548(5) 0.45986(15)
H25 H -0.4330 1.1217 0.5034
H26 H -0.5000 1.2669 0.4419
loop_
_geom_bond_atom_site_label_1
_geom_bond_atom_site_label_2
_geom_bond_site_symmetry_1
_geom_bond_site_symmetry_2
O1 C2 1_555 1_555
O2 H1 1_555 1_555
O3 H2 1_555 1_555
C1 H3 1_555 1_555
C2 C1 1_555 1_555
C3 C2 1_555 1_555
H4 C3 1_555 1_555
H5 C3 1_555 1_555
C4 C3 1_555 1_555
H6 C4 1_555 1_555
H7 C4 1_555 1_555
C5 C4 1_555 1_555
H8 C5 1_555 1_555
H9 C5 1_555 1_555
C6 C1 1_555 1_555
H10 C6 1_555 1_555
C7 C6 1_555 1_555
H11 C7 1_555 1_555
C8 C7 1_555 1_555
H12 C8 1_555 1_555
C9 C8 1_555 1_555
H13 C9 1_555 1_555
C10 C1 1_555 1_555
H14 C10 1_555 1_555
C11 C9 1_555 1_555
H15 C11 1_555 1_555
H16 C11 1_555 1_555
H17 C11 1_555 1_555
C12 C10 1_555 1_555
H18 C12 1_555 1_555
H19 C12 1_555 1_555
C13 C12 1_555 1_555
H20 C13 1_555 1_555
H21 C13 1_555 1_555
C14 O2 1_555 1_555
H22 C14 1_555 1_555
C15 C14 1_555 1_555
H23 C15 1_555 1_555
H24 C15 1_555 1_555
C16 O3 1_555 1_555
H25 C16 1_555 1_555
H26 C16 1_555 1_555
C5 C6 1_555 1_555
C9 C10 1_555 1_555
C13 C14 1_555 1_555
C15 C16 1_555 1_555

#END
