
#######################################################################
#
#                 Cambridge Crystallographic Data Centre
#                                CCDC 
#
#######################################################################
#
# If this CIF has been generated from an entry in the Cambridge 
# Structural Database, then it will include bibliographic, chemical, 
# crystal, experimental, refinement or atomic coordinate data resulting 
# from the CCDC's data processing and validation procedures.
#
#######################################################################

data_CANTEQ01
_chemical_formula_moiety         'C21 H21 P1'
_chemical_name_systematic        Tri-p-tolylphosphine
_symmetry_cell_setting           rhombohedral
_symmetry_space_group_name_H-M   'R -3'
_symmetry_Int_Tables_number      148
_space_group_name_Hall           '-R 3'
loop_
_symmetry_equiv_pos_site_id
_symmetry_equiv_pos_as_xyz
1 x,y,z
2 -y,x-y,z
3 -x+y,-x,z
4 2/3+x,1/3+y,1/3+z
5 2/3-y,1/3+x-y,1/3+z
6 2/3-x+y,1/3-x,1/3+z
7 1/3+x,2/3+y,2/3+z
8 1/3-y,2/3+x-y,2/3+z
9 1/3-x+y,2/3-x,2/3+z
10 -x,-y,-z
11 y,-x+y,-z
12 x-y,x,-z
13 1/3-x,2/3-y,2/3-z
14 1/3+y,2/3-x+y,2/3-z
15 1/3+x-y,2/3+x,2/3-z
16 2/3-x,1/3-y,1/3-z
17 2/3+y,1/3-x+y,1/3-z
18 2/3+x-y,1/3+x,1/3-z
_cell_length_a                   12.6562(18)
_cell_length_b                   12.6562(18)
_cell_length_c                   19.696(4)
_cell_angle_alpha                90
_cell_angle_beta                 90
_cell_angle_gamma                120.00
_cell_volume                     2732.22
_exptl_crystal_colour            colorless
_exptl_crystal_description       block
_cell_formula_units_Z            6
_exptl_crystal_recrystallization_method methanol
loop_
_atom_site_label
_atom_site_type_symbol
_atom_site_fract_x
_atom_site_fract_y
_atom_site_fract_z
P1 P 0.6667 0.3333 0.01046(7)
C1 C 0.8153(4) 0.8316(3) -0.1198(2)
H1 H 0.7776 0.8686 -0.0944
H2 H 0.7882 0.8209 -0.1661
H3 H 0.9024 0.8832 -0.1182
C2 C 0.7805(3) 0.7091(3) -0.08924(18)
C3 C 0.8232(3) 0.6365(3) -0.11520(14)
H4 H 0.8752 0.6636 -0.1525
C4 C 0.7903(3) 0.5238(3) -0.08689(15)
H5 H 0.8205 0.4768 -0.1058
C5 C 0.7147(3) 0.4803(2) -0.03192(14)
C6 C 0.6732(3) 0.5549(3) -0.0040(2)
H6 H 0.6247 0.5301 0.0348
C7 C 0.7050(3) 0.6663(3) -0.03445(19)
H7 H 0.6735 0.7130 -0.0167
C1A C 0.1684(3) -0.0163(5) -0.1198(2)
C1B C 1.0163(5) 0.1847(4) -0.1198(2)
H1A H 0.1314 -0.0910 -0.0944
H1B H 1.0910 0.2224 -0.0944
H2A H 0.1791 -0.0327 -0.1661
H2B H 1.0327 0.2118 -0.1661
H3A H 0.1168 0.0192 -0.1182
H3B H 0.9808 0.0976 -0.1182
C2A C 0.2909(3) 0.0714(4) -0.08924(18)
C2B C 0.9286(4) 0.2195(3) -0.08924(18)
C3A C 0.3635(3) 0.1867(4) -0.11520(14)
C3B C 0.8133(4) 0.1768(3) -0.11520(14)
H4A H 0.3364 0.2116 -0.1525
H4B H 0.7884 0.1248 -0.1525
C4A C 0.4762(3) 0.2665(4) -0.08689(15)
C4B C 0.7335(4) 0.2097(3) -0.08689(15)
H5A H 0.5232 0.3437 -0.1058
H5B H 0.6563 0.1795 -0.1058
C5A C 0.5197(2) 0.2344(4) -0.03192(14)
C5B C 0.7656(4) 0.2853(3) -0.03192(14)
C6A C 0.4451(3) 0.1183(4) -0.0040(2)
C6B C 0.8817(4) 0.3268(3) -0.0040(2)
H6A H 0.4699 0.0946 0.0348
H6B H 0.9054 0.3753 0.0348
C7A C 0.3337(3) 0.0387(4) -0.03445(19)
C7B C 0.9613(4) 0.2950(3) -0.03445(19)
H7A H 0.2870 -0.0395 -0.0167
H7B H 1.0395 0.3265 -0.0167
loop_
_geom_bond_atom_site_label_1
_geom_bond_atom_site_label_2
_geom_bond_site_symmetry_1
_geom_bond_site_symmetry_2
P1 C5 1_555 1_555
C1 H1 1_555 1_555
H2 C1 1_555 1_555
H3 C1 1_555 1_555
C2 C1 1_555 1_555
C3 C2 1_555 1_555
H4 C3 1_555 1_555
C4 C3 1_555 1_555
H5 C4 1_555 1_555
C5 C4 1_555 1_555
C6 C5 1_555 1_555
H6 C6 1_555 1_555
C7 C2 1_555 1_555
H7 C7 1_555 1_555
C1A H1A 1_555 1_555
C1B H1B 1_555 1_555
H2A C1A 1_555 1_555
H2B C1B 1_555 1_555
H3A C1A 1_555 1_555
H3B C1B 1_555 1_555
C2A C1A 1_555 1_555
C2B C1B 1_555 1_555
C3A C2A 1_555 1_555
C3B C2B 1_555 1_555
H4A C3A 1_555 1_555
H4B C3B 1_555 1_555
C4A C3A 1_555 1_555
C4B C3B 1_555 1_555
H5A C4A 1_555 1_555
H5B C4B 1_555 1_555
C5A P1 1_555 1_555
C5B P1 1_555 1_555
C6A C5A 1_555 1_555
C6B C5B 1_555 1_555
H6A C6A 1_555 1_555
H6B C6B 1_555 1_555
C7A C2A 1_555 1_555
C7B C2B 1_555 1_555
H7A C7A 1_555 1_555
H7B C7B 1_555 1_555
C6 C7 1_555 1_555
C4A C5A 1_555 1_555
C4B C5B 1_555 1_555
C6A C7A 1_555 1_555
C6B C7B 1_555 1_555

#END
