
#######################################################################
#
#                 Cambridge Crystallographic Data Centre
#                                CCDC 
#
#######################################################################
#
# If this CIF has been generated from an entry in the Cambridge 
# Structural Database, then it will include bibliographic, chemical, 
# crystal, experimental, refinement or atomic coordinate data resulting 
# from the CCDC's data processing and validation procedures.
#
#######################################################################

data_CANXOE
_chemical_formula_moiety         'C42 H42 B6 N2 O6,3(C6 H6)'
_chemical_name_systematic        
'1,4-bis(1,3,5-Triphenylboroxine)-1,4-diazabicyclo(2.2.2)octane benzene solvate'
_symmetry_cell_setting           orthorhombic
_symmetry_space_group_name_H-M   'P n m a'
_symmetry_Int_Tables_number      62
_space_group_name_Hall           '-P 2ac 2n'
loop_
_symmetry_equiv_pos_site_id
_symmetry_equiv_pos_as_xyz
1 x,y,z
2 1/2-x,-y,1/2+z
3 1/2+x,1/2-y,1/2-z
4 -x,1/2+y,-z
5 -x,-y,-z
6 1/2+x,y,1/2-z
7 1/2-x,1/2+y,1/2+z
8 x,1/2-y,z
_cell_length_a                   11.222(3)
_cell_length_b                   24.984(6)
_cell_length_c                   19.743(9)
_cell_angle_alpha                90
_cell_angle_beta                 90
_cell_angle_gamma                90
_cell_volume                     5535.35
_cell_formula_units_Z            4
loop_
_atom_site_label
_atom_site_type_symbol
_atom_site_fract_x
_atom_site_fract_y
_atom_site_fract_z
B1 B 0.24090 0.12810 0.44550
B2 B 0.06720 0.08640 0.50250
B3 B 0.25840 0.08900 0.56080
O1 O 0.11470 0.11500 0.45000
O2 O 0.13930 0.07380 0.55840
O3 O 0.30820 0.11480 0.50700
N1 N 0.24290 0.19740 0.44510
C1 C 0.36860 0.21910 0.44390
C2 C 0.17790 0.21900 0.38440
C3 C 0.18270 0.21990 0.50770
C4 C 0.30350 0.10460 0.37650
C5 C 0.41910 0.08360 0.38060
C6 C 0.47090 0.05910 0.32390
C7 C 0.40690 0.05550 0.26310
C8 C 0.29130 0.07650 0.25900
C9 C 0.23950 0.10100 0.31570
C10 C -0.06800 0.06970 0.50240
C11 C -0.13950 0.08130 0.44610
C12 C -0.26030 0.06710 0.44630
C13 C -0.30950 0.04120 0.50280
C14 C -0.23800 0.02960 0.55910
C15 C -0.11720 0.04380 0.55890
C16 C 0.33420 0.07920 0.62720
C17 C 0.27960 0.05720 0.68470
C18 C 0.34130 0.05520 0.74630
C19 C 0.45790 0.07510 0.75040
C20 C 0.51260 0.09710 0.69290
C21 C 0.45080 0.09920 0.63130
H1 H 0.39910 0.21190 0.39800
H2 H 0.41200 0.20840 0.48500
H3 H 0.21530 0.20350 0.34380
H4 H 0.09340 0.20850 0.38660
H5 H 0.23390 0.20810 0.54540
H6 H 0.09810 0.20960 0.50960
H7 H 0.46310 0.08610 0.42240
H8 H 0.55040 0.04470 0.32670
H9 H 0.44250 0.03870 0.22400
H10 H 0.24730 0.07400 0.21720
H11 H 0.16000 0.11540 0.31290
H12 H -0.10560 0.09910 0.40720
H13 H -0.30950 0.07510 0.40760
H14 H -0.39260 0.03140 0.50290
H15 H -0.27190 0.01180 0.59790
H16 H -0.06800 0.03580 0.59760
H17 H 0.19940 0.04350 0.68190
H18 H 0.30380 0.04100 0.78580
H19 H 0.50050 0.07370 0.79280
H20 H 0.59280 0.11090 0.69570
C1G C 0.36860 0.28090 0.44390
C2G C 0.17790 0.28100 0.38440
C3G C 0.18270 0.28010 0.50770
N1G N 0.24290 0.30260 0.44510
H1G H 0.39910 0.28810 0.39800
H2G H 0.41200 0.29160 0.48500
H3G H 0.21530 0.29650 0.34380
H4G H 0.09340 0.29150 0.38660
H5G H 0.23390 0.29190 0.54540
H6G H 0.09810 0.29040 0.50960
B1G B 0.24090 0.37190 0.44550
O1G O 0.11470 0.38500 0.45000
O3G O 0.30820 0.38520 0.50700
C4G C 0.30350 0.39540 0.37650
B2G B 0.06720 0.41360 0.50250
B3G B 0.25840 0.41100 0.56080
C5G C 0.41910 0.41640 0.38060
C9G C 0.23950 0.39900 0.31570
O2G O 0.13930 0.42620 0.55840
C10G C -0.06800 0.43030 0.50240
C16G C 0.33420 0.42080 0.62720
C6G C 0.47090 0.44090 0.32390
H7G H 0.46310 0.41390 0.42240
C8G C 0.29130 0.42350 0.25900
H11G H 0.16000 0.38460 0.31290
C11G C -0.13950 0.41870 0.44610
C15G C -0.11720 0.45620 0.55890
C17G C 0.27960 0.44280 0.68470
C21G C 0.45080 0.40080 0.63130
C7G C 0.40690 0.44450 0.26310
H8G H 0.55040 0.45530 0.32670
H10G H 0.24730 0.42600 0.21720
C12G C -0.26030 0.43290 0.44630
H12G H -0.10560 0.40090 0.40720
C14G C -0.23800 0.47040 0.55910
H16G H -0.06800 0.46420 0.59760
C18G C 0.34130 0.44480 0.74630
H17G H 0.19940 0.45650 0.68190
C20G C 0.51260 0.40290 0.69290
H9G H 0.44250 0.46130 0.22400
C13G C -0.30950 0.45880 0.50280
H13G H -0.30950 0.42490 0.40760
H15G H -0.27190 0.48820 0.59790
C19G C 0.45790 0.42490 0.75040
H18G H 0.30380 0.45900 0.78580
H20G H 0.59280 0.38910 0.69570
H14G H -0.39260 0.46860 0.50290
H19G H 0.50050 0.42630 0.79280
C22 C -0.03600 0.25000 0.25000
C23 C -0.01110 0.20160 0.24040
C24 C 0.09320 0.19950 0.19360
C25 C 0.14520 0.25000 0.16630
C23G C -0.01110 0.29840 0.24040
C24G C 0.09320 0.30050 0.19360
C26 C 0.25370 0.22100 0.69850
C27 C 0.14450 0.19320 0.68520
C28 C 0.03620 0.21880 0.67420
C26G C 0.25370 0.27900 0.69850
C28G C 0.03620 0.28120 0.67420
C27G C 0.14450 0.30680 0.68520
C29 C 0.16580 0.22060 0.89430
C30 C 0.23640 0.19410 0.94290
C31 C 0.30120 0.22200 0.99330
C29G C 0.16580 0.27940 0.89430
C31G C 0.30120 0.27800 0.99330
C30G C 0.23640 0.30590 0.94290
loop_
_geom_bond_atom_site_label_1
_geom_bond_atom_site_label_2
_geom_bond_site_symmetry_1
_geom_bond_site_symmetry_2
B1 O1 1_555 1_555
B2 O1 1_555 1_555
B3 O2 1_555 1_555
O2 B2 1_555 1_555
O3 B1 1_555 1_555
N1 B1 1_555 1_555
C1 N1 1_555 1_555
C2 N1 1_555 1_555
C3 N1 1_555 1_555
C4 B1 1_555 1_555
C5 C4 1_555 1_555
C6 C5 1_555 1_555
C7 C6 1_555 1_555
C8 C7 1_555 1_555
C9 C4 1_555 1_555
C10 B2 1_555 1_555
C11 C10 1_555 1_555
C12 C11 1_555 1_555
C13 C12 1_555 1_555
C14 C13 1_555 1_555
C15 C10 1_555 1_555
C16 B3 1_555 1_555
C17 C16 1_555 1_555
C18 C17 1_555 1_555
C19 C18 1_555 1_555
C20 C19 1_555 1_555
C21 C16 1_555 1_555
H1 C1 1_555 1_555
H2 C1 1_555 1_555
H3 C2 1_555 1_555
H4 C2 1_555 1_555
H5 C3 1_555 1_555
H6 C3 1_555 1_555
H7 C5 1_555 1_555
H8 C6 1_555 1_555
H9 C7 1_555 1_555
H10 C8 1_555 1_555
H11 C9 1_555 1_555
H12 C11 1_555 1_555
H13 C12 1_555 1_555
H14 C13 1_555 1_555
H15 C14 1_555 1_555
H16 C15 1_555 1_555
H17 C17 1_555 1_555
H18 C18 1_555 1_555
H19 C19 1_555 1_555
H20 C20 1_555 1_555
C22 C23 1_555 1_555
C23 C24 1_555 1_555
C24 C25 1_555 1_555
C25 C24G 1_555 1_555
C26 C27 1_555 1_555
C27 C28 1_555 1_555
C28 C28G 1_555 1_555
C29 C30 1_555 1_555
C30 C31 1_555 1_555
C31 C31G 1_555 1_555
C1G C1 1_555 1_555
C2G C2 1_555 1_555
C3G C3 1_555 1_555
N1G C1G 1_555 1_555
H1G C1G 1_555 1_555
H2G C1G 1_555 1_555
H3G C2G 1_555 1_555
H4G C2G 1_555 1_555
H5G C3G 1_555 1_555
H6G C3G 1_555 1_555
B1G N1G 1_555 1_555
O1G B1G 1_555 1_555
O3G B1G 1_555 1_555
C4G B1G 1_555 1_555
B2G O1G 1_555 1_555
B3G O3G 1_555 1_555
C5G C4G 1_555 1_555
C9G C4G 1_555 1_555
O2G B2G 1_555 1_555
C10G B2G 1_555 1_555
C16G B3G 1_555 1_555
C6G C5G 1_555 1_555
H7G C5G 1_555 1_555
C8G C9G 1_555 1_555
H11G C9G 1_555 1_555
C11G C10G 1_555 1_555
C15G C10G 1_555 1_555
C17G C16G 1_555 1_555
C21G C16G 1_555 1_555
C7G C6G 1_555 1_555
H8G C6G 1_555 1_555
H10G C8G 1_555 1_555
C12G C11G 1_555 1_555
H12G C11G 1_555 1_555
C14G C15G 1_555 1_555
H16G C15G 1_555 1_555
C18G C17G 1_555 1_555
H17G C17G 1_555 1_555
C20G C21G 1_555 1_555
H9G C7G 1_555 1_555
C13G C12G 1_555 1_555
H13G C12G 1_555 1_555
H15G C14G 1_555 1_555
C19G C18G 1_555 1_555
H18G C18G 1_555 1_555
H20G C20G 1_555 1_555
H14G C13G 1_555 1_555
H19G C19G 1_555 1_555
C23G C22 1_555 1_555
C24G C23G 1_555 1_555
C26G C26 1_555 1_555
C28G C27G 1_555 1_555
C27G C26G 1_555 1_555
C29G C29 1_555 1_555
C31G C30G 1_555 1_555
C30G C29G 1_555 1_555
B3 O3 1_555 1_555
C8 C9 1_555 1_555
C14 C15 1_555 1_555
C20 C21 1_555 1_555
C2G N1G 1_555 1_555
C3G N1G 1_555 1_555
B3G O2G 1_555 1_555
C8G C7G 1_555 1_555
C14G C13G 1_555 1_555
C20G C19G 1_555 1_555

#END
