
#######################################################################
#
#                 Cambridge Crystallographic Data Centre
#                                CCDC 
#
#######################################################################
#
# If this CIF has been generated from an entry in the Cambridge 
# Structural Database, then it will include bibliographic, chemical, 
# crystal, experimental, refinement or atomic coordinate data resulting 
# from the CCDC's data processing and validation procedures.
#
#######################################################################

data_CAPBUS
_chemical_formula_moiety         'C26 H26 F9 N7 O2'
_chemical_name_systematic        
'Isopropyl 4-((3,5-bis(trifluoromethyl)benzyl)(2-methyl-2H-tetrazol-5-yl)amino)-2-ethyl-6-(trifluoromethyl)-3,4-dihydro-1,5-naphthyridine-1(2H)-carboxylate'
_symmetry_cell_setting           triclinic
_symmetry_space_group_name_H-M   'P -1'
_symmetry_Int_Tables_number      2
_space_group_name_Hall           '-P 1'
loop_
_symmetry_equiv_pos_site_id
_symmetry_equiv_pos_as_xyz
1 x,y,z
2 -x,-y,-z
_cell_length_a                   10.3849(4)
_cell_length_b                   12.2847(6)
_cell_length_c                   12.5188(5)
_cell_angle_alpha                67.799(3)
_cell_angle_beta                 77.094(3)
_cell_angle_gamma                82.323(3)
_cell_volume                     1439.19
_exptl_crystal_colour            colorless
_exptl_crystal_description       prism
_cell_formula_units_Z            2
loop_
_atom_site_label
_atom_site_type_symbol
_atom_site_fract_x
_atom_site_fract_y
_atom_site_fract_z
O1 O 0.46022(19) 0.18362(15) 0.25969(15)
N1 N 0.75152(18) 0.56271(17) 0.24895(16)
N2 N 0.54920(18) 0.32775(17) 0.28133(16)
O2 O 0.49123(18) 0.35561(16) 0.10629(14)
N3 N 0.88849(18) 0.36646(17) 0.38587(16)
C1 C 0.6849(2) 0.6571(2) 0.1852(2)
N4 N 1.1037(2) 0.4415(2) 0.32666(18)
C2 C 0.7043(2) 0.4586(2) 0.27688(18)
C3 C 0.5190(2) 0.5429(2) 0.1821(2)
H1 H 0.4392 0.5364 0.1603
N5 N 1.13254(19) 0.46357(19) 0.14736(18)
N6 N 1.01207(18) 0.42107(18) 0.19008(17)
C4 C 0.9977(2) 0.4091(2) 0.3025(2)
C5 C 0.7752(2) 0.3471(2) 0.34580(19)
H2 H 0.8085 0.3013 0.2931
C6 C 0.5875(2) 0.4443(2) 0.24517(18)
C7 C 0.5692(2) 0.6519(2) 0.1511(2)
H3 H 0.5247 0.7217 0.1072
C8 C 0.4983(2) 0.2946(2) 0.2066(2)
C9 C 0.9861(2) 0.1865(2) 0.5809(2)
H4 H 1.0271 0.1916 0.5034
C10 C 0.9546(3) 0.0783(2) 0.7892(2)
H5 H 0.9732 0.0107 0.8539
C11 C 0.8710(2) 0.3867(2) 0.4960(2)
H6 H 0.7789 0.4168 0.5152
H7 H 0.9306 0.4481 0.4852
C12 C 1.0134(3) 0.0882(2) 0.6764(2)
N7 N 1.1892(2) 0.4761(2) 0.22508(19)
C13 C 0.8993(2) 0.2771(2) 0.5983(2)
C14 C 0.8401(2) 0.2674(2) 0.7126(2)
H8 H 0.7804 0.3287 0.7261
C15 C 0.8678(2) 0.1686(2) 0.8071(2)
C16 C 0.5604(2) 0.2444(2) 0.4021(2)
H9 H 0.5840 0.1643 0.3978
C17 C 0.6711(2) 0.2752(2) 0.4467(2)
H10 H 0.7143 0.2016 0.4946
H11 H 0.6325 0.3207 0.4978
C18 C 0.3995(3) 0.1356(2) 0.1940(2)
H12 H 0.4364 0.1726 0.1082
C19 C 0.4269(3) 0.2384(3) 0.4859(2)
H13 H 0.3642 0.2023 0.4616
H14 H 0.4387 0.1854 0.5658
C20 C 0.8006(3) 0.1599(3) 0.9283(2)
C21 C 1.1941(3) 0.4966(3) 0.0244(2)
H15 H 1.2862 0.5145 0.0141
H16 H 1.1460 0.5662 -0.0222
H17 H 1.1917 0.4313 -0.0019
C22 C 0.3652(3) 0.3550(3) 0.4921(3)
H18 H 0.4250 0.3909 0.5182
H19 H 0.2808 0.3422 0.5478
H20 H 0.3498 0.4075 0.4141
C23 C 0.4376(5) 0.0069(4) 0.2349(5)
H21 H 0.5342 -0.0046 0.2188
H22 H 0.3993 -0.0302 0.1932
H23 H 0.4044 -0.0289 0.3195
C24 C 0.2562(4) 0.1606(4) 0.2148(5)
H24 H 0.2189 0.1194 0.2978
H25 H 0.2164 0.1336 0.1658
H26 H 0.2372 0.2456 0.1947
F1 F 0.6748(2) 0.1289(3) 0.95142(18)
F2 F 0.7930(5) 0.2560(2) 0.94703(18)
F3 F 0.8524(2) 0.0755(2) 1.01166(15)
C25 C 1.1091(3) -0.0085(2) 0.6559(3)
F4 F 1.2252(5) 0.0134(7) 0.6415(14)
F5 F 1.0832(12) -0.0417(9) 0.5796(10)
F6 F 1.0936(10) -0.1083(5) 0.7552(6)
C26 C 0.7490(3) 0.7715(2) 0.1472(2)
F7 F 0.6848(6) 0.8593(4) 0.0774(5)
F8 F 0.7598(9) 0.8022(7) 0.2339(4)
F9 F 0.8697(4) 0.7699(6) 0.0861(6)
C27? C 1.1091(3) -0.0085(2) 0.6559(3)
C28? C 0.7490(3) 0.7715(2) 0.1472(2)
F10? F 1.2021(10) -0.0386(11) 0.7159(10)
F11? F 1.1797(9) 0.0225(5) 0.5430(5)
F12? F 1.0559(5) -0.1007(5) 0.6698(13)
F13? F 0.6667(18) 0.8629(15) 0.122(4)
F14? F 0.804(3) 0.776(2) 0.2298(15)
F15? F 0.842(3) 0.785(2) 0.056(2)
loop_
_geom_bond_atom_site_label_1
_geom_bond_atom_site_label_2
_geom_bond_site_symmetry_1
_geom_bond_site_symmetry_2
O1 C8 1_555 1_555
N1 C1 1_555 1_555
N2 C6 1_555 1_555
O2 C8 1_555 1_555
N3 C4 1_555 1_555
C1 C7 1_555 1_555
N4 C4 1_555 1_555
C2 N1 1_555 1_555
C3 H1 1_555 1_555
N5 N6 1_555 1_555
N6 C4 1_555 1_555
C5 N3 1_555 1_555
H2 C5 1_555 1_555
C6 C2 1_555 1_555
C7 C3 1_555 1_555
H3 C7 1_555 1_555
C8 N2 1_555 1_555
C9 H4 1_555 1_555
C10 H5 1_555 1_555
C11 N3 1_555 1_555
H6 C11 1_555 1_555
H7 C11 1_555 1_555
C12 C9 1_555 1_555
N7 N4 1_555 1_555
C13 C9 1_555 1_555
C14 C13 1_555 1_555
H8 C14 1_555 1_555
C15 C10 1_555 1_555
C16 N2 1_555 1_555
H9 C16 1_555 1_555
C17 C5 1_555 1_555
H10 C17 1_555 1_555
H11 C17 1_555 1_555
C18 O1 1_555 1_555
H12 C18 1_555 1_555
C19 C16 1_555 1_555
H13 C19 1_555 1_555
H14 C19 1_555 1_555
C20 C15 1_555 1_555
C21 N5 1_555 1_555
H15 C21 1_555 1_555
H16 C21 1_555 1_555
H17 C21 1_555 1_555
C22 C19 1_555 1_555
H18 C22 1_555 1_555
H19 C22 1_555 1_555
H20 C22 1_555 1_555
C23 C18 1_555 1_555
H21 C23 1_555 1_555
H22 C23 1_555 1_555
H23 C23 1_555 1_555
C24 C18 1_555 1_555
H24 C24 1_555 1_555
H25 C24 1_555 1_555
H26 C24 1_555 1_555
F1 C20 1_555 1_555
F2 C20 1_555 1_555
F3 C20 1_555 1_555
C25 C12 1_555 1_555
F4 C25 1_555 1_555
F5 C25 1_555 1_555
F6 C25 1_555 1_555
C26 C1 1_555 1_555
F7 C26 1_555 1_555
F8 C26 1_555 1_555
F9 C26 1_555 1_555
C2 C5 1_555 1_555
C3 C6 1_555 1_555
N5 N7 1_555 1_555
C10 C12 1_555 1_555
C11 C13 1_555 1_555
C14 C15 1_555 1_555
C16 C17 1_555 1_555

#END
