
#######################################################################
#
#                 Cambridge Crystallographic Data Centre
#                                CCDC 
#
#######################################################################
#
# If this CIF has been generated from an entry in the Cambridge 
# Structural Database, then it will include bibliographic, chemical, 
# crystal, experimental, refinement or atomic coordinate data resulting 
# from the CCDC's data processing and validation procedures.
#
#######################################################################

data_CAPBIG
_chemical_formula_moiety         'C15 H13 N3 O3 S1'
_chemical_name_systematic        
"Methyl (5-oxo-2,3-dihydro[1,3]thiazolo[3',2':1,2]pyrimido[5,4-b]indol-6(5H)-yl)acetate"
_symmetry_cell_setting           orthorhombic
_symmetry_space_group_name_H-M   'P c a 21'
_symmetry_Int_Tables_number      29
_space_group_name_Hall           'P 2c -2ac'
loop_
_symmetry_equiv_pos_site_id
_symmetry_equiv_pos_as_xyz
1 x,y,z
2 -x,-y,1/2+z
3 1/2+x,-y,z
4 1/2-x,y,1/2+z
_cell_length_a                   29.853(5)
_cell_length_b                   4.9488(8)
_cell_length_c                   9.3698(15)
_cell_angle_alpha                90
_cell_angle_beta                 90
_cell_angle_gamma                90
_cell_volume                     1384.26
_exptl_crystal_colour            colorless
_exptl_crystal_description       needle
_cell_formula_units_Z            4
loop_
_atom_site_label
_atom_site_type_symbol
_atom_site_fract_x
_atom_site_fract_y
_atom_site_fract_z
S1 S 0.280598(15) -0.16646(9) 0.21421(5)
C1 C 0.23254(6) -0.0529(4) 0.3170(2)
H1 H 0.2062 -0.0281 0.2544
H2 H 0.2249 -0.1860 0.3921
C2 C 0.24649(6) 0.2139(4) 0.3831(2)
H3 H 0.2402 0.3650 0.3168
H4 H 0.2299 0.2459 0.4731
N1 N 0.29467(5) 0.1930(3) 0.41092(16)
C3 C 0.31604(6) 0.3743(4) 0.50321(19)
O1 O 0.29458(4) 0.5435(3) 0.57148(14)
C4 C 0.36334(6) 0.3286(4) 0.50356(18)
N2 N 0.39597(5) 0.4672(3) 0.57887(17)
C5 C 0.43666(6) 0.3531(4) 0.54453(19)
C6 C 0.47939(7) 0.4182(4) 0.5949(2)
H5 H 0.4838 0.5537 0.6654
C7 C 0.51496(7) 0.2760(5) 0.5372(2)
H6 H 0.5444 0.3174 0.5686
C8 C 0.50926(7) 0.0736(4) 0.4347(2)
H7 H 0.5347 -0.0191 0.3982
C9 C 0.46705(7) 0.0074(4) 0.3860(2)
H8 H 0.4630 -0.1305 0.3166
C10 C 0.43041(6) 0.1485(4) 0.44129(19)
C11 C 0.38283(6) 0.1352(4) 0.41708(18)
N3 N 0.35977(5) -0.0312(3) 0.32595(17)
C12 C 0.31717(6) 0.0082(4) 0.32729(19)
C13 C 0.38780(6) 0.6267(4) 0.7052(2)
H9 H 0.3618 0.7468 0.6889
H10 H 0.4142 0.7414 0.7252
C14 C 0.37861(6) 0.4461(4) 0.8324(2)
O2 O 0.37201(6) 0.2076(3) 0.82518(17)
O3 O 0.37811(5) 0.5847(3) 0.95416(15)
C15 C 0.37177(7) 0.4232(5) 1.0816(2)
H11 H 0.3418 0.3430 1.0804
H12 H 0.3750 0.5381 1.1662
H13 H 0.3943 0.2793 1.0844
loop_
_geom_bond_atom_site_label_1
_geom_bond_atom_site_label_2
_geom_bond_site_symmetry_1
_geom_bond_site_symmetry_2
S1 C1 1_555 1_555
C1 H1 1_555 1_555
H2 C1 1_555 1_555
C2 C1 1_555 1_555
H3 C2 1_555 1_555
H4 C2 1_555 1_555
N1 C2 1_555 1_555
C3 N1 1_555 1_555
O1 C3 1_555 1_555
C4 C3 1_555 1_555
N2 C4 1_555 1_555
C5 N2 1_555 1_555
C6 C5 1_555 1_555
H5 C6 1_555 1_555
C7 C6 1_555 1_555
H6 C7 1_555 1_555
C8 C7 1_555 1_555
H7 C8 1_555 1_555
C9 C8 1_555 1_555
H8 C9 1_555 1_555
C10 C5 1_555 1_555
C11 C4 1_555 1_555
N3 C11 1_555 1_555
C12 S1 1_555 1_555
C13 N2 1_555 1_555
H9 C13 1_555 1_555
H10 C13 1_555 1_555
C14 C13 1_555 1_555
O2 C14 1_555 1_555
O3 C14 1_555 1_555
C15 O3 1_555 1_555
H11 C15 1_555 1_555
H12 C15 1_555 1_555
H13 C15 1_555 1_555
N1 C12 1_555 1_555
C9 C10 1_555 1_555
C10 C11 1_555 1_555
N3 C12 1_555 1_555

#END
