
#######################################################################
#
#                 Cambridge Crystallographic Data Centre
#                                CCDC 
#
#######################################################################
#
# If this CIF has been generated from an entry in the Cambridge 
# Structural Database, then it will include bibliographic, chemical, 
# crystal, experimental, refinement or atomic coordinate data resulting 
# from the CCDC's data processing and validation procedures.
#
#######################################################################

data_CAPFUX
_chemical_formula_moiety         'C34 H28 O2'
_chemical_name_systematic        
5,5'-But-2-ene-1,4-diylbis(5H-dibenzo[a,d][7]annulen-5-ol)
_symmetry_cell_setting           orthorhombic
_symmetry_space_group_name_H-M   'P c a 21'
_symmetry_Int_Tables_number      29
_space_group_name_Hall           'P 2c -2ac'
loop_
_symmetry_equiv_pos_site_id
_symmetry_equiv_pos_as_xyz
1 x,y,z
2 -x,-y,1/2+z
3 1/2-x,y,1/2+z
4 1/2+x,-y,z
_cell_length_a                   21.6617(18)
_cell_length_b                   9.2296(8)
_cell_length_c                   24.861(2)
_cell_angle_alpha                90
_cell_angle_beta                 90
_cell_angle_gamma                90
_cell_volume                     4970.43
_exptl_crystal_colour            colorless
_cell_formula_units_Z            8
loop_
_atom_site_label
_atom_site_type_symbol
_atom_site_fract_x
_atom_site_fract_y
_atom_site_fract_z
O1 O 0.26124(17) 0.9761(3) -0.08008(15)
H1 H 0.2775 0.8963 -0.0774
O2 O 0.41117(14) 0.6943(4) 0.05552(15)
H2 H 0.3897 0.7639 0.0472
C1 C 0.5687(3) 0.3173(6) 0.0464(2)
H3 H 0.5887 0.2282 0.0450
C2 C 0.5075(3) 0.3238(6) 0.0589(2)
H4 H 0.4855 0.2397 0.0665
C3 C 0.4784(2) 0.4578(5) 0.0600(2)
H5 H 0.4367 0.4624 0.0686
C4 C 0.5099(2) 0.5853(5) 0.04862(17)
C5 C 0.47438(19) 0.7279(5) 0.04589(17)
C6 C 0.4792(2) 0.7934(5) -0.01093(17)
H6 H 0.5223 0.8130 -0.0187
H7 H 0.4649 0.7222 -0.0368
C7 C 0.4434(2) 0.9292(5) -0.01843(18)
H8 H 0.4581 1.0118 -0.0013
C8 C 0.3934(2) 0.9427(5) -0.04673(17)
H9 H 0.3772 0.8589 -0.0620
C9 C 0.3594(2) 1.0808(5) -0.05698(18)
H10 H 0.3640 1.1059 -0.0947
H11 H 0.3785 1.1572 -0.0360
C10 C 0.2903(2) 1.0755(5) -0.04333(18)
C11 C 0.27895(19) 1.0173(4) 0.01311(17)
C12 C 0.3013(2) 1.0883(5) 0.05852(18)
C13 C 0.2945(3) 1.0210(6) 0.1090(2)
H12 H 0.3105 1.0661 0.1395
C14 C 0.2650(3) 0.8907(7) 0.1143(3)
H13 H 0.2599 0.8490 0.1480
C15 C 0.2177(3) 1.5049(6) -0.0745(2)
H14 H 0.2044 1.5979 -0.0830
C16 C 0.2600(3) 1.4837(5) -0.0348(2)
H15 H 0.2748 1.5639 -0.0162
C17 C 0.2820(2) 1.3471(5) -0.02080(19)
C18 C 0.3229(2) 1.3374(5) 0.0250(2)
H16 H 0.3465 1.4195 0.0318
C19 C 0.3312(2) 1.2300(6) 0.0580(2)
H17 H 0.3602 1.2455 0.0850
C20 C 0.2434(3) 0.8233(6) 0.0699(3)
H18 H 0.2241 0.7338 0.0732
C21 C 0.2496(2) 0.8851(5) 0.0200(2)
H19 H 0.2337 0.8373 -0.0099
C22 C 0.6008(3) 0.4425(6) 0.03605(19)
H20 H 0.6425 0.4366 0.0273
C23 C 0.5724(2) 0.5803(5) 0.03835(17)
C24 C 0.6135(2) 0.7048(6) 0.0326(2)
H21 H 0.6482 0.6918 0.0111
C25 C 0.6068(2) 0.8349(6) 0.0549(2)
H22 H 0.6373 0.9022 0.0469
C26 C 0.5576(2) 0.8858(5) 0.09030(19)
C27 C 0.4972(2) 0.8341(5) 0.08931(16)
C28 C 0.4563(3) 0.8859(5) 0.12859(19)
H23 H 0.4161 0.8503 0.1294
C29 C 0.4736(4) 0.9863(6) 0.1655(2)
H24 H 0.4452 1.0181 0.1909
C30 C 0.5324(4) 1.0416(6) 0.1659(3)
H25 H 0.5441 1.1117 0.1907
C31 C 0.5728(3) 0.9909(5) 0.1290(2)
H26 H 0.6128 1.0276 0.1292
C32 C 0.2617(2) 1.2268(5) -0.05122(17)
C33 C 0.2179(2) 1.2495(6) -0.0910(2)
H27 H 0.2035 1.1712 -0.1109
C34 C 0.1950(2) 1.3873(7) -0.1017(2)
H28 H 0.1642 1.3997 -0.1274
O3 O -0.02828(17) 0.5085(3) 0.40225(13)
H29 H -0.0258 0.4759 0.4329
O4 O 0.11887(13) 0.7836(3) 0.26792(16)
H30 H 0.0979 0.7110 0.2731
C35 C -0.0330(3) 0.6022(6) 0.2094(2)
H31 H -0.0392 0.6462 0.1762
C36 C -0.0531(2) 0.6672(5) 0.2555(3)
H32 H -0.0739 0.7550 0.2535
C37 C -0.0428(2) 0.6044(5) 0.3048(2)
H33 H -0.0560 0.6523 0.3357
C38 C -0.0135(2) 0.4719(4) 0.30974(16)
C39 C -0.0006(2) 0.4080(5) 0.36506(16)
C40 C 0.0694(2) 0.4019(5) 0.37819(18)
H34 H 0.0744 0.3755 0.4157
H35 H 0.0882 0.3261 0.3567
C41 C 0.1030(2) 0.5397(5) 0.36828(18)
H36 H 0.0873 0.6244 0.3832
C42 C 0.1542(2) 0.5480(5) 0.33934(17)
H37 H 0.1685 0.4636 0.3231
C43 C 0.1907(2) 0.6839(5) 0.33095(16)
H38 H 0.2341 0.6635 0.3372
H39 H 0.1778 0.7557 0.3571
C44 C 0.18299(19) 0.7480(4) 0.27350(17)
C45 C 0.2184(2) 0.8900(5) 0.26850(17)
C46 C 0.2834(2) 0.8960(5) 0.27537(19)
C47 C 0.3112(3) 1.0306(7) 0.2752(2)
H40 H 0.3536 1.0357 0.2806
C48 C 0.2794(3) 1.1561(7) 0.2675(2)
H41 H 0.2997 1.2448 0.2689
C49 C -0.0735(3) -0.0230(6) 0.3922(3)
H42 H -0.0874 -0.1164 0.3994
C50 C -0.0971(3) 0.0941(7) 0.4202(2)
H43 H -0.1277 0.0801 0.4459
C51 C -0.0749(2) 0.2338(5) 0.40960(19)
H44 H -0.0910 0.3118 0.4287
C52 C -0.0293(2) 0.2589(5) 0.37138(15)
C53 C -0.0035(3) 0.4708(5) 0.21289(19)
H45 H 0.0097 0.4256 0.1815
C54 C 0.0075(2) 0.4023(5) 0.26285(19)
C55 C 0.0369(2) 0.2617(5) 0.2611(2)
H46 H 0.0635 0.2465 0.2323
C56 C 0.0312(2) 0.1508(5) 0.2953(2)
H47 H 0.0561 0.0708 0.2884
C57 C -0.0087(2) 0.1398(5) 0.34159(18)
C58 C -0.0298(3) 0.0003(5) 0.3544(2)
H48 H -0.0132 -0.0787 0.3363
C59 C 0.1873(2) 1.0197(5) 0.2586(2)
H49 H 0.1450 1.0175 0.2524
C60 C 0.2175(3) 1.1504(6) 0.2577(2)
H50 H 0.1957 1.2351 0.2504
C61 C 0.3229(2) 0.7704(7) 0.2789(2)
H51 H 0.3586 0.7817 0.2992
C62 C 0.3146(3) 0.6391(7) 0.2565(3)
H52 H 0.3463 0.5724 0.2617
C63 C 0.2620(3) 0.5891(5) 0.2251(2)
C64 C 0.2012(2) 0.6407(4) 0.23029(17)
C65 C 0.1564(3) 0.5865(5) 0.19603(19)
H53 H 0.1162 0.6213 0.1984
C66 C 0.1707(4) 0.4812(6) 0.1583(2)
H54 H 0.1400 0.4457 0.1358
C67 C 0.2294(5) 0.4290(8) 0.1539(3)
H55 H 0.2384 0.3577 0.1287
C68 C 0.2750(4) 0.4818(7) 0.1866(3)
H56 H 0.3150 0.4464 0.1833
loop_
_geom_bond_atom_site_label_1
_geom_bond_atom_site_label_2
_geom_bond_site_symmetry_1
_geom_bond_site_symmetry_2
O1 H1 1_555 1_555
O2 H2 1_555 1_555
C1 H3 1_555 1_555
C2 C1 1_555 1_555
H4 C2 1_555 1_555
C3 C2 1_555 1_555
H5 C3 1_555 1_555
C4 C3 1_555 1_555
C5 O2 1_555 1_555
C6 C5 1_555 1_555
H6 C6 1_555 1_555
H7 C6 1_555 1_555
C7 C6 1_555 1_555
H8 C7 1_555 1_555
C8 C7 1_555 1_555
H9 C8 1_555 1_555
C9 C8 1_555 1_555
H10 C9 1_555 1_555
H11 C9 1_555 1_555
C10 O1 1_555 1_555
C11 C10 1_555 1_555
C12 C11 1_555 1_555
C13 C12 1_555 1_555
H12 C13 1_555 1_555
C14 C13 1_555 1_555
H13 C14 1_555 1_555
C15 H14 1_555 1_555
C16 C15 1_555 1_555
H15 C16 1_555 1_555
C17 C16 1_555 1_555
C18 C17 1_555 1_555
H16 C18 1_555 1_555
C19 C12 1_555 1_555
H17 C19 1_555 1_555
C20 C14 1_555 1_555
H18 C20 1_555 1_555
C21 C11 1_555 1_555
H19 C21 1_555 1_555
C22 C1 1_555 1_555
H20 C22 1_555 1_555
C23 C4 1_555 1_555
C24 C23 1_555 1_555
H21 C24 1_555 1_555
C25 C24 1_555 1_555
H22 C25 1_555 1_555
C26 C25 1_555 1_555
C27 C5 1_555 1_555
C28 C27 1_555 1_555
H23 C28 1_555 1_555
C29 C28 1_555 1_555
H24 C29 1_555 1_555
C30 C29 1_555 1_555
H25 C30 1_555 1_555
C31 C26 1_555 1_555
H26 C31 1_555 1_555
C32 C10 1_555 1_555
C33 C32 1_555 1_555
H27 C33 1_555 1_555
C34 C15 1_555 1_555
H28 C34 1_555 1_555
O3 H29 1_555 1_555
O4 H30 1_555 1_555
C35 H31 1_555 1_555
C36 C35 1_555 1_555
H32 C36 1_555 1_555
C37 C36 1_555 1_555
H33 C37 1_555 1_555
C38 C37 1_555 1_555
C39 O3 1_555 1_555
C40 C39 1_555 1_555
H34 C40 1_555 1_555
H35 C40 1_555 1_555
C41 C40 1_555 1_555
H36 C41 1_555 1_555
C42 C41 1_555 1_555
H37 C42 1_555 1_555
C43 C42 1_555 1_555
H38 C43 1_555 1_555
H39 C43 1_555 1_555
C44 O4 1_555 1_555
C45 C44 1_555 1_555
C46 C45 1_555 1_555
C47 C46 1_555 1_555
H40 C47 1_555 1_555
C48 C47 1_555 1_555
H41 C48 1_555 1_555
C49 H42 1_555 1_555
C50 C49 1_555 1_555
H43 C50 1_555 1_555
C51 C50 1_555 1_555
H44 C51 1_555 1_555
C52 C39 1_555 1_555
C53 C35 1_555 1_555
H45 C53 1_555 1_555
C54 C38 1_555 1_555
C55 C54 1_555 1_555
H46 C55 1_555 1_555
C56 C55 1_555 1_555
H47 C56 1_555 1_555
C57 C52 1_555 1_555
C58 C49 1_555 1_555
H48 C58 1_555 1_555
C59 C45 1_555 1_555
H49 C59 1_555 1_555
C60 C48 1_555 1_555
H50 C60 1_555 1_555
C61 C46 1_555 1_555
H51 C61 1_555 1_555
C62 C61 1_555 1_555
H52 C62 1_555 1_555
C63 C62 1_555 1_555
C64 C44 1_555 1_555
C65 C64 1_555 1_555
H53 C65 1_555 1_555
C66 C65 1_555 1_555
H54 C66 1_555 1_555
C67 C66 1_555 1_555
H55 C67 1_555 1_555
C68 C63 1_555 1_555
H56 C68 1_555 1_555
C4 C5 1_555 1_555
C9 C10 1_555 1_555
C17 C32 1_555 1_555
C18 C19 1_555 1_555
C20 C21 1_555 1_555
C22 C23 1_555 1_555
C26 C27 1_555 1_555
C30 C31 1_555 1_555
C33 C34 1_555 1_555
C38 C39 1_555 1_555
C43 C44 1_555 1_555
C51 C52 1_555 1_555
C53 C54 1_555 1_555
C56 C57 1_555 1_555
C57 C58 1_555 1_555
C59 C60 1_555 1_555
C63 C64 1_555 1_555
C67 C68 1_555 1_555

#END
