
#######################################################################
#
#                 Cambridge Crystallographic Data Centre
#                                CCDC 
#
#######################################################################
#
# If this CIF has been generated from an entry in the Cambridge 
# Structural Database, then it will include bibliographic, chemical, 
# crystal, experimental, refinement or atomic coordinate data resulting 
# from the CCDC's data processing and validation procedures.
#
#######################################################################

data_CAPFOR
_chemical_formula_moiety         'C18 H19 N1 O2 S1'
_chemical_name_systematic        
N-(2-phenylcyclohex-2-en-1-yl)benzenesulfonamide
_symmetry_cell_setting           monoclinic
_symmetry_space_group_name_H-M   'P 21/n'
_symmetry_Int_Tables_number      14
_space_group_name_Hall           '-P 2yn'
loop_
_symmetry_equiv_pos_site_id
_symmetry_equiv_pos_as_xyz
1 x,y,z
2 1/2-x,1/2+y,1/2-z
3 -x,-y,-z
4 1/2+x,1/2-y,1/2+z
_cell_length_a                   10.3560(4)
_cell_length_b                   13.8538(5)
_cell_length_c                   11.6259(4)
_cell_angle_alpha                90
_cell_angle_beta                 110.9860(10)
_cell_angle_gamma                90
_cell_volume                     1557.33
_exptl_crystal_colour            colorless
_cell_formula_units_Z            4
loop_
_atom_site_label
_atom_site_type_symbol
_atom_site_fract_x
_atom_site_fract_y
_atom_site_fract_z
S1 S 0.22731(4) 0.99627(3) 0.62211(3)
O1 O 0.34982(11) 0.94566(8) 0.69605(10)
O2 O 0.10539(11) 0.99215(8) 0.65496(10)
N1 N 0.17952(12) 0.95632(9) 0.48366(11)
H1 H 0.0909 0.9460 0.4434
C1 C 0.33946(17) 1.31274(12) 0.62734(16)
H2 H 0.3623 1.3793 0.6295
C2 C 0.43953(17) 1.24622(13) 0.69059(17)
H3 H 0.5312 1.2672 0.7354
C3 C 0.40643(16) 1.14911(12) 0.68882(15)
H4 H 0.4748 1.1034 0.7323
C4 C 0.27227(15) 1.11952(11) 0.62281(14)
C5 C 0.27814(14) 0.93604(11) 0.42053(14)
H5 H 0.3712 0.9238 0.4848
C6 C 0.22964(14) 0.84343(11) 0.34700(14)
C7 C 0.22600(14) 0.75475(11) 0.41821(13)
C8 C 0.32980(15) 0.73424(11) 0.53174(14)
H6 H 0.4058 0.7772 0.5639
C9 C 0.32352(16) 0.65223(12) 0.59814(14)
H7 H 0.3949 0.6396 0.6750
C10 C 0.21315(15) 0.58854(11) 0.55252(14)
H8 H 0.2087 0.5324 0.5979
C11 C 0.29101(16) 1.02098(12) 0.34063(15)
H9 H 0.2945 1.0822 0.3855
H10 H 0.3783 1.0149 0.3245
C12 C 0.16933(16) 1.02362(12) 0.21854(15)
H11 H 0.0815 1.0277 0.2340
H12 H 0.1764 1.0812 0.1707
C13 C 0.17073(16) 0.93245(12) 0.14584(14)
H13 H 0.0833 0.9281 0.0739
H14 H 0.2480 0.9359 0.1148
C14 C 0.18684(15) 0.84373(11) 0.22402(14)
H15 H 0.1650 0.7833 0.1830
C15 C 0.10937(15) 0.60766(11) 0.43993(14)
H16 H 0.0340 0.5642 0.4079
C16 C 0.11540(15) 0.68997(11) 0.37425(14)
H17 H 0.0431 0.7026 0.2980
C17 C 0.17079(16) 1.18560(12) 0.55821(15)
H18 H 0.0792 1.1647 0.5132
C18 C 0.20568(17) 1.28210(12) 0.56076(17)
H19 H 0.1376 1.3278 0.5166
loop_
_geom_bond_atom_site_label_1
_geom_bond_atom_site_label_2
_geom_bond_site_symmetry_1
_geom_bond_site_symmetry_2
S1 O1 1_555 1_555
O2 S1 1_555 1_555
N1 S1 1_555 1_555
H1 N1 1_555 1_555
C1 H2 1_555 1_555
C2 C1 1_555 1_555
H3 C2 1_555 1_555
C3 C2 1_555 1_555
H4 C3 1_555 1_555
C4 S1 1_555 1_555
C5 N1 1_555 1_555
H5 C5 1_555 1_555
C6 C5 1_555 1_555
C7 C6 1_555 1_555
C8 C7 1_555 1_555
H6 C8 1_555 1_555
C9 C8 1_555 1_555
H7 C9 1_555 1_555
C10 C9 1_555 1_555
H8 C10 1_555 1_555
C11 C5 1_555 1_555
H9 C11 1_555 1_555
H10 C11 1_555 1_555
C12 C11 1_555 1_555
H11 C12 1_555 1_555
H12 C12 1_555 1_555
C13 C12 1_555 1_555
H13 C13 1_555 1_555
H14 C13 1_555 1_555
C14 C6 1_555 1_555
H15 C14 1_555 1_555
C15 C10 1_555 1_555
H16 C15 1_555 1_555
C16 C7 1_555 1_555
H17 C16 1_555 1_555
C17 C4 1_555 1_555
H18 C17 1_555 1_555
C18 C1 1_555 1_555
H19 C18 1_555 1_555
C3 C4 1_555 1_555
C13 C14 1_555 1_555
C15 C16 1_555 1_555
C17 C18 1_555 1_555

#END
