
#######################################################################
#
#                 Cambridge Crystallographic Data Centre
#                                CCDC 
#
#######################################################################
#
# If this CIF has been generated from an entry in the Cambridge 
# Structural Database, then it will include bibliographic, chemical, 
# crystal, experimental, refinement or atomic coordinate data resulting 
# from the CCDC's data processing and validation procedures.
#
#######################################################################

data_CAPGUY
_chemical_formula_moiety         'C23 H24 N4 O4 S1'
_chemical_name_systematic        
'ethyl (1-(phenylsulfonyl)-3-(4-phenyl-1H-1,2,3-triazol-1-yl)piperidin-4-ylidene)acetate'
_symmetry_cell_setting           monoclinic
_symmetry_space_group_name_H-M   'P 21/c'
_symmetry_Int_Tables_number      14
_space_group_name_Hall           '-P 2ybc'
loop_
_symmetry_equiv_pos_site_id
_symmetry_equiv_pos_as_xyz
1 x,y,z
2 -x,1/2+y,1/2-z
3 -x,-y,-z
4 x,1/2-y,1/2+z
_cell_length_a                   24.0130(7)
_cell_length_b                   9.6962(3)
_cell_length_c                   9.8711(2)
_cell_angle_alpha                90
_cell_angle_beta                 97.389(2)
_cell_angle_gamma                90
_cell_volume                     2279.25
_exptl_crystal_colour            colorless
_cell_formula_units_Z            4
loop_
_atom_site_label
_atom_site_type_symbol
_atom_site_fract_x
_atom_site_fract_y
_atom_site_fract_z
S1 S 0.40433(3) 0.40434(7) 1.00620(6)
O1 O 0.45211(9) 0.3266(2) 1.06124(18)
O2 O 0.37961(11) 0.5012(2) 1.08935(19)
O3 O 0.27841(11) -0.1750(3) 0.7178(3)
O4 O 0.21002(13) -0.0988(3) 0.5617(3)
N1 N 0.35480(9) 0.2917(2) 0.95728(19)
N2 N 0.20077(9) 0.2927(2) 0.8506(2)
N3 N 0.19297(11) 0.3609(3) 0.7313(2)
N4 N 0.13964(11) 0.3933(3) 0.7079(2)
C1 C 0.44426(14) 0.6259(3) 0.6295(3)
H1 H 0.4532 0.6724 0.5528
C2 C 0.47201(13) 0.5067(3) 0.6715(3)
H2 H 0.4992 0.4716 0.6220
C3 C 0.45989(12) 0.4389(3) 0.7859(3)
H3 H 0.4788 0.3580 0.8139
C4 C 0.41952(11) 0.4912(3) 0.8592(2)
C5 C 0.30109(11) 0.3474(3) 0.8949(3)
H4 H 0.3030 0.3701 0.7999
H5 H 0.2923 0.4308 0.9421
C6 C 0.25558(11) 0.2383(3) 0.9050(2)
H6 H 0.2547 0.2199 1.0024
C7 C 0.15216(11) 0.2817(3) 0.9028(3)
H7 H 0.1464 0.2385 0.9839
C8 C 0.11296(12) 0.3467(3) 0.8131(3)
C9 C 0.05332(13) 0.3687(3) 0.8190(3)
C10 C 0.02806(15) 0.3133(4) 0.9247(4)
H8 H 0.0495 0.2618 0.9917
C11 C -0.02796(18) 0.3326(5) 0.9331(5)
H9 H -0.0442 0.2946 1.0051
C12 C -0.05959(18) 0.4079(5) 0.8350(6)
H10 H -0.0976 0.4207 0.8401
C13 C -0.03618(18) 0.4642(5) 0.7302(5)
H11 H -0.0582 0.5153 0.6639
C14 C 0.02070(16) 0.4460(4) 0.7214(4)
H12 H 0.0367 0.4858 0.6499
C15 C 0.23546(12) 0.0446(3) 0.7432(3)
H13 H 0.2018 0.0899 0.7148
C16 C 0.24516(14) -0.0876(3) 0.6755(3)
C17 C 0.27019(11) 0.1044(3) 0.8402(2)
C18 C 0.32820(12) 0.0546(3) 0.8949(3)
H14 H 0.3377 -0.0249 0.8427
H15 H 0.3288 0.0263 0.9893
C19 C 0.37166(12) 0.1678(3) 0.8860(3)
H16 H 0.4082 0.1366 0.9280
H17 H 0.3742 0.1895 0.7911
C20 C 0.39112(13) 0.6098(3) 0.8168(3)
H18 H 0.3638 0.6449 0.8661
C21 C 0.40329(14) 0.6766(3) 0.7008(3)
H19 H 0.3837 0.7559 0.6709
C22 C 0.2148(5) -0.2103(10) 0.4634(8)
H20 H 0.2533 -0.2423 0.4698
H21 H 0.2032 -0.1782 0.3710
C23 C 0.1769(4) -0.3252(9) 0.4987(12)
H22 H 0.1969 -0.3830 0.5675
H23 H 0.1651 -0.3790 0.4185
H24 H 0.1446 -0.2868 0.5327
C24? C 0.2140(10) -0.2535(16) 0.5180(13)
H25? H 0.2490 -0.2751 0.4837
H26? H 0.2074 -0.3174 0.5899
C25? C 0.1645(6) -0.2433(15) 0.4054(17)
H27? H 0.1340 -0.2985 0.4292
H28? H 0.1756 -0.2761 0.3211
H29? H 0.1526 -0.1489 0.3948
loop_
_geom_bond_atom_site_label_1
_geom_bond_atom_site_label_2
_geom_bond_site_symmetry_1
_geom_bond_site_symmetry_2
S1 O1 1_555 1_555
O2 S1 1_555 1_555
O3 C16 1_555 1_555
O4 C16 1_555 1_555
N1 S1 1_555 1_555
N2 N3 1_555 1_555
N3 N4 1_555 1_555
N4 C8 1_555 1_555
C1 H1 1_555 1_555
C2 C1 1_555 1_555
H2 C2 1_555 1_555
C3 C2 1_555 1_555
H3 C3 1_555 1_555
C4 S1 1_555 1_555
C5 N1 1_555 1_555
H4 C5 1_555 1_555
H5 C5 1_555 1_555
C6 N2 1_555 1_555
H6 C6 1_555 1_555
C7 N2 1_555 1_555
H7 C7 1_555 1_555
C8 C7 1_555 1_555
C9 C8 1_555 1_555
C10 C9 1_555 1_555
H8 C10 1_555 1_555
C11 C10 1_555 1_555
H9 C11 1_555 1_555
C12 C11 1_555 1_555
H10 C12 1_555 1_555
C13 C12 1_555 1_555
H11 C13 1_555 1_555
C14 C9 1_555 1_555
H12 C14 1_555 1_555
C15 H13 1_555 1_555
C16 C15 1_555 1_555
C17 C6 1_555 1_555
C18 C17 1_555 1_555
H14 C18 1_555 1_555
H15 C18 1_555 1_555
C19 N1 1_555 1_555
H16 C19 1_555 1_555
H17 C19 1_555 1_555
C20 C4 1_555 1_555
H18 C20 1_555 1_555
C21 C1 1_555 1_555
H19 C21 1_555 1_555
C22 O4 1_555 1_555
H20 C22 1_555 1_555
H21 C22 1_555 1_555
C23 C22 1_555 1_555
H22 C23 1_555 1_555
H23 C23 1_555 1_555
H24 C23 1_555 1_555
C3 C4 1_555 1_555
C5 C6 1_555 1_555
C13 C14 1_555 1_555
C15 C17 1_555 1_555
C18 C19 1_555 1_555
C20 C21 1_555 1_555

#END
