
#######################################################################
#
#                 Cambridge Crystallographic Data Centre
#                                CCDC 
#
#######################################################################
#
# If this CIF has been generated from an entry in the Cambridge 
# Structural Database, then it will include bibliographic, chemical, 
# crystal, experimental, refinement or atomic coordinate data resulting 
# from the CCDC's data processing and validation procedures.
#
#######################################################################

data_CAPGUX
_chemical_formula_moiety         'C11 H12 N2 O4,H2 O1'
_chemical_name_systematic        
'Methyl 2-((2-hydroxybenzoyl)hydrazono)propanoate monohydrate'
_symmetry_cell_setting           monoclinic
_symmetry_space_group_name_H-M   'P 21/n'
_symmetry_Int_Tables_number      14
_space_group_name_Hall           '-P 2yn'
loop_
_symmetry_equiv_pos_site_id
_symmetry_equiv_pos_as_xyz
1 x,y,z
2 1/2-x,1/2+y,1/2-z
3 -x,-y,-z
4 1/2+x,1/2-y,1/2+z
_cell_length_a                   7.4621(8)
_cell_length_b                   8.4621(9)
_cell_length_c                   19.893(2)
_cell_angle_alpha                90
_cell_angle_beta                 100.81
_cell_angle_gamma                90
_cell_volume                     1233.85
_cell_formula_units_Z            4
loop_
_atom_site_label
_atom_site_type_symbol
_atom_site_fract_x
_atom_site_fract_y
_atom_site_fract_z
O1 O 0.8272(3) 0.8687(3) 0.98035(10)
O2 O 0.7747(3) 0.4026(2) 0.91392(10)
O3 O 0.6549(3) 0.3909(2) 1.20749(10)
O4 O 0.6248(2) 0.2319(2) 1.11689(8)
N1 N 0.7640(3) 0.5718(3) 1.00084(11)
N2 N 0.7185(3) 0.4564(2) 1.04221(10)
C1 C 0.8360(3) 0.6719(3) 0.89527(13)
C2 C 0.8534(4) 0.8287(3) 0.91659(14)
C3 C 0.8973(4) 0.9441(5) 0.87277(19)
C4 C 0.9194(4) 0.9057(5) 0.8085(2)
C5 C 0.9004(5) 0.7529(6) 0.78591(18)
C6 C 0.8615(4) 0.6368(4) 0.82868(15)
C7 C 0.7889(4) 0.5366(3) 0.93659(13)
C8 C 0.7039(4) 0.4986(3) 1.10270(13)
C9 C 0.7337(8) 0.6605(4) 1.1320(2)
C10 C 0.6591(4) 0.3706(3) 1.14853(13)
C11 C 0.5886(6) 0.1013(4) 1.1593(2)
H1 H 0.901(4) 1.050(4) 0.8854(16)
H2 H 0.950(4) 0.978(3) 0.7808(14)
H3 H 0.912(4) 0.725(3) 0.7436(16)
H4 H 0.853(4) 0.529(3) 0.8180(14)
H5 H 0.656(5) 0.738(4) 1.1038(17)
H6 H 0.711(5) 0.671(4) 1.172(2)
H7 H 0.859(7) 0.696(6) 1.132(3)
H8 H 0.701(4) 0.075(3) 1.1922(17)
H9 H 0.496(5) 0.124(4) 1.1851(18)
H10 H 0.557(4) 0.020(4) 1.1276(17)
H11 H 0.782(3) 0.670(3) 1.0119(12)
H12 H 0.791(5) 0.968(4) 0.9820(18)
O5 O 0.6685(4) 1.1392(3) 0.97788(14)
H13 H 0.720(6) 1.233(6) 0.958(2)
H14 H 0.663(6) 1.175(5) 1.017(3)
loop_
_geom_bond_atom_site_label_1
_geom_bond_atom_site_label_2
_geom_bond_site_symmetry_1
_geom_bond_site_symmetry_2
O1 C2 1_555 1_555
O2 C7 1_555 1_555
O3 C10 1_555 1_555
O4 C10 1_555 1_555
O5 H13 1_555 1_555
N1 N2 1_555 1_555
N2 C8 1_555 1_555
C1 C2 1_555 1_555
C2 C3 1_555 1_555
C3 C4 1_555 1_555
C4 C5 1_555 1_555
C5 C6 1_555 1_555
C6 C1 1_555 1_555
C7 N1 1_555 1_555
C8 C9 1_555 1_555
C9 H5 1_555 1_555
C10 C8 1_555 1_555
C11 O4 1_555 1_555
H1 C3 1_555 1_555
H2 C4 1_555 1_555
H3 C5 1_555 1_555
H4 C6 1_555 1_555
H6 C9 1_555 1_555
H7 C9 1_555 1_555
H8 C11 1_555 1_555
H9 C11 1_555 1_555
H10 C11 1_555 1_555
H11 N1 1_555 1_555
H12 O1 1_555 1_555
H14 O5 1_555 1_555
C1 C7 1_555 1_555

#END
