
#######################################################################
#
#                 Cambridge Crystallographic Data Centre
#                                CCDC 
#
#######################################################################
#
# If this CIF has been generated from an entry in the Cambridge 
# Structural Database, then it will include bibliographic, chemical, 
# crystal, experimental, refinement or atomic coordinate data resulting 
# from the CCDC's data processing and validation procedures.
#
#######################################################################

data_CAPGAD
_chemical_formula_moiety         'C10 H15 N1 O4 S1'
_chemical_name_systematic        
4-Hydroxy-2,2-dimethyltetrahydro-3aH-[1,3]dioxolo[4,5-c][1,3]thiazolo[3,2-a]pyridin-7(8H)-one
_symmetry_cell_setting           monoclinic
_symmetry_space_group_name_H-M   'P 21'
_symmetry_Int_Tables_number      4
_space_group_name_Hall           'P 2yb'
loop_
_symmetry_equiv_pos_site_id
_symmetry_equiv_pos_as_xyz
1 x,y,z
2 -x,1/2+y,-z
_cell_length_a                   7.1833(6)
_cell_length_b                   8.1808(7)
_cell_length_c                   10.1928(9)
_cell_angle_alpha                90
_cell_angle_beta                 107.9200(10)
_cell_angle_gamma                90
_cell_volume                     569.923
_cell_formula_units_Z            2
loop_
_atom_site_label
_atom_site_type_symbol
_atom_site_fract_x
_atom_site_fract_y
_atom_site_fract_z
S1 S 0.62580(8) 0.27539(8) 0.35731(8)
O1 O 0.8373(2) 0.64308(18) 0.33314(18)
O2 O 0.1055(3) 0.2956(2) 0.10207(19)
O3 O 0.60540(18) 0.84171(18) 0.25920(13)
O4 O 0.2774(3) 0.8614(2) 0.03593(19)
H1 H 0.1555 0.8553 0.0000
C1 C 0.8008(3) 0.8145(2) 0.3469(2)
C2 C 0.9462(3) 0.9136(3) 0.2994(3)
H2 H 0.9329 0.8865 0.2033
H3 H 1.0793 0.8881 0.3576
H4 H 0.9205 1.0304 0.3067
C3 C 0.6714(3) 0.5739(2) 0.2322(2)
H5 H 0.7138 0.4977 0.1701
C4 C 0.5449(3) 0.4833(2) 0.3071(2)
H6 H 0.5452 0.5466 0.3910
N1 N 0.3454(2) 0.4677(2) 0.21740(18)
C5 C 0.2693(3) 0.3205(3) 0.1798(2)
C6 C 0.8074(3) 0.8525(3) 0.4920(2)
H7 H 0.7924 0.9706 0.5016
H8 H 0.9332 0.8170 0.5555
H9 H 0.7009 0.7949 0.5137
C7 C 0.4069(4) 0.1843(3) 0.2446(3)
H10 H 0.4381 0.1186 0.1726
H11 H 0.3462 0.1117 0.2977
C8 C 0.2474(3) 0.6212(3) 0.1671(2)
H12 H 0.2481 0.6923 0.2458
H13 H 0.1097 0.6003 0.1122
C9 C 0.3537(3) 0.7042(3) 0.0788(2)
H14 H 0.3377 0.6357 -0.0053
C10 C 0.5712(3) 0.7225(3) 0.1534(2)
H15 H 0.6397 0.7558 0.0858
loop_
_geom_bond_atom_site_label_1
_geom_bond_atom_site_label_2
_geom_bond_site_symmetry_1
_geom_bond_site_symmetry_2
S1 C4 1_555 1_555
O1 C1 1_555 1_555
O2 C5 1_555 1_555
O3 C1 1_555 1_555
O4 H1 1_555 1_555
C1 C2 1_555 1_555
C2 H2 1_555 1_555
H3 C2 1_555 1_555
H4 C2 1_555 1_555
C3 O1 1_555 1_555
H5 C3 1_555 1_555
C4 C3 1_555 1_555
H6 C4 1_555 1_555
N1 C4 1_555 1_555
C5 N1 1_555 1_555
C6 C1 1_555 1_555
H7 C6 1_555 1_555
H8 C6 1_555 1_555
H9 C6 1_555 1_555
C7 S1 1_555 1_555
H10 C7 1_555 1_555
H11 C7 1_555 1_555
C8 N1 1_555 1_555
H12 C8 1_555 1_555
H13 C8 1_555 1_555
C9 O4 1_555 1_555
H14 C9 1_555 1_555
C10 O3 1_555 1_555
H15 C10 1_555 1_555
C3 C10 1_555 1_555
C5 C7 1_555 1_555
C8 C9 1_555 1_555
C9 C10 1_555 1_555

#END
