
#######################################################################
#
#                 Cambridge Crystallographic Data Centre
#                                CCDC 
#
#######################################################################
#
# If this CIF has been generated from an entry in the Cambridge 
# Structural Database, then it will include bibliographic, chemical, 
# crystal, experimental, refinement or atomic coordinate data resulting 
# from the CCDC's data processing and validation procedures.
#
#######################################################################

data_CAPGIM
_chemical_formula_moiety         'C30 H20 O2'
_chemical_name_systematic        
4b,4c,13b,13c-tetrahydrodibenzo[a,e]dibenzo[3',4':6',7']cyclohepta[1',2':3,4]cyclobuta[1,2-c][7]annulene-9,18-dione
_symmetry_cell_setting           monoclinic
_symmetry_space_group_name_H-M   'P 21/c'
_symmetry_Int_Tables_number      14
_space_group_name_Hall           '-P 2ybc'
loop_
_symmetry_equiv_pos_site_id
_symmetry_equiv_pos_as_xyz
1 x,y,z
2 -x,1/2+y,1/2-z
3 -x,-y,-z
4 x,1/2-y,1/2+z
_cell_length_a                   10.3270(9)
_cell_length_b                   10.6469(7)
_cell_length_c                   18.8079(13)
_cell_angle_alpha                90
_cell_angle_beta                 99.232(5)
_cell_angle_gamma                90
_cell_volume                     2041.15
_exptl_crystal_colour            colorless
_cell_formula_units_Z            4
loop_
_atom_site_label
_atom_site_type_symbol
_atom_site_fract_x
_atom_site_fract_y
_atom_site_fract_z
O1 O 0.73525(14) 0.93981(13) 0.82658(8)
O2 O 0.12072(14) 0.58128(13) 0.89948(8)
C1 C 0.1849(2) 0.9230(2) 1.01130(11)
H1 H 0.1419 0.9452 1.0505
C2 C 0.1454(2) 0.81835(19) 0.96978(11)
H2 H 0.0772 0.7669 0.9821
C3 C 0.20343(19) 0.78698(18) 0.91039(10)
C4 C 0.3078(2) 0.85920(18) 0.89388(10)
C5 C 0.37805(19) 0.82747(18) 0.83248(11)
H3 H 0.4494 0.8908 0.8318
C6 C 0.3041(2) 0.81307(18) 0.75424(11)
H4 H 0.3122 0.8897 0.7245
C7 C 0.40801(19) 0.70830(18) 0.74244(11)
H5 H 0.3634 0.6315 0.7198
C8 C 0.5113(2) 0.75344(17) 0.70096(11)
C9 C 0.6253(2) 0.82137(18) 0.72857(11)
C10 C 0.7077(2) 0.86482(19) 0.68171(11)
H6 H 0.7835 0.9122 0.7004
C11 C 0.6810(2) 0.84027(19) 0.60901(12)
H7 H 0.7391 0.8688 0.5781
C12 C 0.8202(2) 0.5965(2) 0.93888(11)
H8 H 0.9044 0.5743 0.9640
C13 C 0.8047(2) 0.70263(19) 0.89539(11)
H9 H 0.8784 0.7544 0.8919
C14 C 0.6828(2) 0.73391(18) 0.85704(10)
C15 C 0.67884(19) 0.84219(18) 0.80649(11)
C16 C 0.5693(2) 0.77394(19) 0.58127(11)
H10 H 0.5501 0.7570 0.5311
C17 C 0.4853(2) 0.73219(19) 0.62671(11)
H11 H 0.4081 0.6879 0.6069
C18 C 0.14821(19) 0.67507(18) 0.86713(11)
C19 C 0.1083(2) 0.68389(18) 0.78731(11)
C20 C -0.0050(2) 0.6155(2) 0.76045(12)
H12 H -0.0431 0.5627 0.7922
C21 C -0.0628(2) 0.6228(2) 0.68905(12)
H13 H -0.1390 0.5748 0.6718
C22 C -0.0085(2) 0.7005(2) 0.64308(12)
H14 H -0.0493 0.7092 0.5943
C23 C 0.1053(2) 0.7656(2) 0.66823(12)
H15 H 0.1424 0.8177 0.6357
C24 C 0.1679(2) 0.75773(18) 0.73962(11)
C25 C 0.2873(2) 0.99459(19) 0.99506(11)
H16 H 0.3157 1.0663 1.0234
C26 C 0.3486(2) 0.96207(18) 0.93751(11)
H17 H 0.4204 1.0111 0.9275
C27 C 0.4382(2) 0.69473(18) 0.82567(11)
H18 H 0.3754 0.6318 0.8401
C28 C 0.57185(19) 0.66160(18) 0.86373(10)
C29 C 0.5896(2) 0.55725(19) 0.90901(11)
H19 H 0.5157 0.5079 0.9152
C30 C 0.7120(2) 0.5237(2) 0.94510(11)
H20 H 0.7217 0.4504 0.9742
loop_
_geom_bond_atom_site_label_1
_geom_bond_atom_site_label_2
_geom_bond_site_symmetry_1
_geom_bond_site_symmetry_2
O1 C15 1_555 1_555
O2 C18 1_555 1_555
C1 H1 1_555 1_555
C2 C1 1_555 1_555
H2 C2 1_555 1_555
C3 C2 1_555 1_555
C4 C3 1_555 1_555
C5 C4 1_555 1_555
H3 C5 1_555 1_555
C6 C5 1_555 1_555
H4 C6 1_555 1_555
C7 C6 1_555 1_555
H5 C7 1_555 1_555
C8 C7 1_555 1_555
C9 C8 1_555 1_555
C10 C9 1_555 1_555
H6 C10 1_555 1_555
C11 C10 1_555 1_555
H7 C11 1_555 1_555
C12 H8 1_555 1_555
C13 C12 1_555 1_555
H9 C13 1_555 1_555
C14 C13 1_555 1_555
C15 C9 1_555 1_555
C16 C11 1_555 1_555
H10 C16 1_555 1_555
C17 C8 1_555 1_555
H11 C17 1_555 1_555
C18 C3 1_555 1_555
C19 C18 1_555 1_555
C20 C19 1_555 1_555
H12 C20 1_555 1_555
C21 C20 1_555 1_555
H13 C21 1_555 1_555
C22 C21 1_555 1_555
H14 C22 1_555 1_555
C23 C22 1_555 1_555
H15 C23 1_555 1_555
C24 C6 1_555 1_555
C25 C1 1_555 1_555
H16 C25 1_555 1_555
C26 C4 1_555 1_555
H17 C26 1_555 1_555
C27 C5 1_555 1_555
H18 C27 1_555 1_555
C28 C14 1_555 1_555
C29 C28 1_555 1_555
H19 C29 1_555 1_555
C30 C12 1_555 1_555
H20 C30 1_555 1_555
C7 C27 1_555 1_555
C14 C15 1_555 1_555
C16 C17 1_555 1_555
C19 C24 1_555 1_555
C23 C24 1_555 1_555
C25 C26 1_555 1_555
C27 C28 1_555 1_555
C29 C30 1_555 1_555

#END
