
#######################################################################
#
#                 Cambridge Crystallographic Data Centre
#                                CCDC 
#
#######################################################################
#
# If this CIF has been generated from an entry in the Cambridge 
# Structural Database, then it will include bibliographic, chemical, 
# crystal, experimental, refinement or atomic coordinate data resulting 
# from the CCDC's data processing and validation procedures.
#
#######################################################################

data_CAPGOS
_chemical_formula_moiety         'C18 H16 O2'
_chemical_name_systematic        
'3-(5H-dibenzo[a,d][7]annulen-5-yl)propanoic acid'
_symmetry_cell_setting           triclinic
_symmetry_space_group_name_H-M   'P -1'
_symmetry_Int_Tables_number      2
_space_group_name_Hall           '-P 1'
loop_
_symmetry_equiv_pos_site_id
_symmetry_equiv_pos_as_xyz
1 x,y,z
2 -x,-y,-z
_cell_length_a                   9.0372(4)
_cell_length_b                   11.3033(5)
_cell_length_c                   15.0270(6)
_cell_angle_alpha                80.4750(10)
_cell_angle_beta                 82.5160(10)
_cell_angle_gamma                73.5630(10)
_cell_volume                     1446.32
_exptl_crystal_colour            colorless
_exptl_crystal_description       Columnar
_cell_formula_units_Z            4
loop_
_atom_site_label
_atom_site_type_symbol
_atom_site_fract_x
_atom_site_fract_y
_atom_site_fract_z
O1 O 1.0468(2) 0.93699(15) 0.11368(10)
H1 H 1.0587 0.9895 0.0707
O2 O 0.92035(19) 0.88491(14) 0.01695(9)
C1 C 0.3439(2) 0.5485(2) 0.18295(18)
H2 H 0.2511 0.5341 0.1737
C2 C 0.3478(2) 0.6180(3) 0.2479(2)
H3 H 0.2575 0.6516 0.2828
C3 C 0.4858(2) 0.6387(2) 0.26193(16)
H4 H 0.4875 0.6854 0.3071
C4 C 0.62191(19) 0.59132(16) 0.21023(13)
C5 C 0.76645(19) 0.62600(16) 0.22408(13)
H5 H 0.7392 0.6684 0.2781
C6 C 0.8031(2) 0.72164(17) 0.14890(13)
H6 H 0.7101 0.7892 0.1397
H7 H 0.8329 0.6840 0.0935
C7 C 0.9305(2) 0.77481(17) 0.16608(13)
H8 H 0.9012 0.8119 0.2217
H9 H 1.0240 0.7075 0.1747
C8 C 0.9649(2) 0.87019(16) 0.09164(13)
C9 C 0.4759(2) 0.5000(2) 0.13147(15)
H10 H 0.4715 0.4533 0.0869
C10 C 0.6188(2) 0.51868(17) 0.14398(13)
C11 C 0.7540(3) 0.4586(2) 0.08851(16)
H11 H 0.7359 0.4476 0.0313
C12 C 0.9013(3) 0.4169(2) 0.10859(17)
H12 H 0.9720 0.3795 0.0640
C13 C 0.9648(2) 0.42278(18) 0.19131(16)
C14 C 0.90271(19) 0.51558(16) 0.24718(13)
C15 C 0.9706(2) 0.5091(2) 0.32609(15)
H13 H 0.9286 0.5702 0.3637
C16 C 1.0991(3) 0.4142(3) 0.3500(2)
H14 H 1.1437 0.4122 0.4028
C17 C 1.1602(3) 0.3238(3) 0.2961(3)
H15 H 1.2460 0.2591 0.3124
C18 C 1.0957(3) 0.3278(2) 0.2181(2)
H16 H 1.1396 0.2657 0.1815
O3 O 0.30373(16) 0.58077(17) 0.52341(13)
H17 H 0.3633 0.5222 0.5005
O4 O 0.52292(16) 0.61295(15) 0.54807(11)
C19 C 0.0436(3) 1.1960(2) 0.55273(16)
H18 H -0.0098 1.2632 0.5141
C20 C -0.0336(2) 1.1197(2) 0.60712(16)
H19 H -0.1401 1.1351 0.6061
C21 C 0.0464(2) 1.01927(19) 0.66392(13)
H20 H -0.0074 0.9675 0.7004
C22 C 0.2050(2) 0.99418(16) 0.66756(12)
C23 C 0.2872(2) 0.87755(16) 0.72591(12)
H21 H 0.2046 0.8450 0.7611
C24 C 0.3798(2) 0.77593(17) 0.67215(13)
H22 H 0.4260 0.7036 0.7139
H23 H 0.4634 0.8037 0.6355
C25 C 0.2867(2) 0.73757(17) 0.61079(13)
H24 H 0.2038 0.7087 0.6472
H25 H 0.2400 0.8097 0.5690
C26 C 0.3817(2) 0.63799(17) 0.55832(12)
C27 C 0.2004(3) 1.1733(2) 0.55526(15)
H26 H 0.2524 1.2252 0.5175
C28 C 0.2841(2) 1.07393(17) 0.61316(13)
C29 C 0.4490(2) 1.0622(2) 0.61416(16)
H27 H 0.4975 1.0927 0.5604
C30 C 0.5391(2) 1.0138(2) 0.68142(18)
H28 H 0.6409 1.0186 0.6687
C31 C 0.5029(2) 0.95435(19) 0.77202(15)
C32 C 0.5977(3) 0.9529(2) 0.8398(2)
H29 H 0.6794 0.9894 0.8251
C33 C 0.5718(4) 0.8985(3) 0.9268(2)
H30 H 0.6367 0.8974 0.9703
C34 C 0.4514(4) 0.8460(3) 0.94980(17)
H31 H 0.4333 0.8100 1.0091
C35 C 0.3559(3) 0.8462(2) 0.88466(15)
H32 H 0.2728 0.8115 0.9010
C36 C 0.3821(2) 0.89740(17) 0.79548(13)
loop_
_geom_bond_atom_site_label_1
_geom_bond_atom_site_label_2
_geom_bond_site_symmetry_1
_geom_bond_site_symmetry_2
O1 H1 1_555 1_555
O2 C8 1_555 1_555
C1 H2 1_555 1_555
C2 C1 1_555 1_555
H3 C2 1_555 1_555
C3 C2 1_555 1_555
H4 C3 1_555 1_555
C4 C3 1_555 1_555
C5 C4 1_555 1_555
H5 C5 1_555 1_555
C6 C5 1_555 1_555
H6 C6 1_555 1_555
H7 C6 1_555 1_555
C7 C6 1_555 1_555
H8 C7 1_555 1_555
H9 C7 1_555 1_555
C8 O1 1_555 1_555
C9 C1 1_555 1_555
H10 C9 1_555 1_555
C10 C4 1_555 1_555
C11 C10 1_555 1_555
H11 C11 1_555 1_555
C12 C11 1_555 1_555
H12 C12 1_555 1_555
C13 C12 1_555 1_555
C14 C5 1_555 1_555
C15 C14 1_555 1_555
H13 C15 1_555 1_555
C16 C15 1_555 1_555
H14 C16 1_555 1_555
C17 C16 1_555 1_555
H15 C17 1_555 1_555
C18 C13 1_555 1_555
H16 C18 1_555 1_555
O3 H17 1_555 1_555
O4 C26 1_555 1_555
C19 H18 1_555 1_555
C20 C19 1_555 1_555
H19 C20 1_555 1_555
C21 C20 1_555 1_555
H20 C21 1_555 1_555
C22 C21 1_555 1_555
C23 C22 1_555 1_555
H21 C23 1_555 1_555
C24 C23 1_555 1_555
H22 C24 1_555 1_555
H23 C24 1_555 1_555
C25 C24 1_555 1_555
H24 C25 1_555 1_555
H25 C25 1_555 1_555
C26 O3 1_555 1_555
C27 C19 1_555 1_555
H26 C27 1_555 1_555
C28 C22 1_555 1_555
C29 C28 1_555 1_555
H27 C29 1_555 1_555
C30 C29 1_555 1_555
H28 C30 1_555 1_555
C31 C30 1_555 1_555
C32 C31 1_555 1_555
H29 C32 1_555 1_555
C33 C32 1_555 1_555
H30 C33 1_555 1_555
C34 C33 1_555 1_555
H31 C34 1_555 1_555
C35 C34 1_555 1_555
H32 C35 1_555 1_555
C36 C23 1_555 1_555
C7 C8 1_555 1_555
C9 C10 1_555 1_555
C13 C14 1_555 1_555
C17 C18 1_555 1_555
C25 C26 1_555 1_555
C27 C28 1_555 1_555
C31 C36 1_555 1_555
C35 C36 1_555 1_555

#END
