
#######################################################################
#
#                 Cambridge Crystallographic Data Centre
#                                CCDC 
#
#######################################################################
#
# If this CIF has been generated from an entry in the Cambridge 
# Structural Database, then it will include bibliographic, chemical, 
# crystal, experimental, refinement or atomic coordinate data resulting 
# from the CCDC's data processing and validation procedures.
#
#######################################################################

data_CAPGEH
_chemical_formula_moiety         'C8 H13 N1 O4 S1'
_chemical_name_systematic        
7,8,9-Trihydroxyhexahydro-4H,6H-pyrido[2,1-b][1,3]thiazin-4-one
_symmetry_cell_setting           orthorhombic
_symmetry_space_group_name_H-M   'P 21 21 21'
_symmetry_Int_Tables_number      19
_space_group_name_Hall           'P 2ac 2ab'
loop_
_symmetry_equiv_pos_site_id
_symmetry_equiv_pos_as_xyz
1 x,y,z
2 1/2+x,1/2-y,-z
3 -x,1/2+y,1/2-z
4 1/2-x,-y,1/2+z
_cell_length_a                   5.2995(3)
_cell_length_b                   8.2839(4)
_cell_length_c                   21.3157(10)
_cell_angle_alpha                90
_cell_angle_beta                 90
_cell_angle_gamma                90
_cell_volume                     935.77
_cell_formula_units_Z            4
loop_
_atom_site_label
_atom_site_type_symbol
_atom_site_fract_x
_atom_site_fract_y
_atom_site_fract_z
C1 C 0.3082(3) 0.61972(16) 0.80283(6)
C2 C 0.4170(3) 0.77082(17) 0.83167(6)
H1 H 0.5973 0.7702 0.8238
H2 H 0.3474 0.8623 0.8092
C3 C 0.3791(3) 0.80133(16) 0.90082(6)
H3 H 0.4270 0.9114 0.9108
H4 H 0.4858 0.7291 0.9249
C4 C 0.0256(2) 0.56430(15) 0.89484(5)
H5 H -0.1561 0.5431 0.8925
C5 C 0.1329(3) 0.43304(16) 0.93821(5)
H6 H 0.0634 0.4488 0.9804
C6 C 0.0510(2) 0.26665(15) 0.91429(6)
H7 H -0.1334 0.2593 0.9164
C7 C 0.1339(2) 0.24242(16) 0.84629(6)
H8 H 0.0662 0.1401 0.8305
C8 C 0.0383(3) 0.38116(16) 0.80560(6)
H9 H 0.1016 0.3688 0.7632
H10 H -0.1446 0.3787 0.8040
N1 N 0.1225(2) 0.53650(13) 0.83128(5)
O1 O 0.3873(3) 0.57741(14) 0.75094(5)
O2 O 0.40152(18) 0.44258(12) 0.94175(4)
H11 H 0.4641 0.3800 0.9163
O3 O 0.1565(2) 0.14238(13) 0.95132(5)
H12 H 0.0668 0.1265 0.9820
O4 O 0.40316(18) 0.23657(14) 0.84576(4)
H13 H 0.4513 0.1910 0.8138
S1 S 0.05403(7) 0.76914(4) 0.921701(17)
loop_
_geom_bond_atom_site_label_1
_geom_bond_atom_site_label_2
_geom_bond_site_symmetry_1
_geom_bond_site_symmetry_2
C1 C2 1_555 1_555
C2 H1 1_555 1_555
H2 C2 1_555 1_555
C3 C2 1_555 1_555
H3 C3 1_555 1_555
H4 C3 1_555 1_555
C4 H5 1_555 1_555
C5 C4 1_555 1_555
H6 C5 1_555 1_555
C6 C5 1_555 1_555
H7 C6 1_555 1_555
C7 C6 1_555 1_555
H8 C7 1_555 1_555
C8 C7 1_555 1_555
H9 C8 1_555 1_555
H10 C8 1_555 1_555
N1 C1 1_555 1_555
O1 C1 1_555 1_555
O2 C5 1_555 1_555
H11 O2 1_555 1_555
O3 C6 1_555 1_555
H12 O3 1_555 1_555
O4 C7 1_555 1_555
H13 O4 1_555 1_555
S1 C3 1_555 1_555
C4 N1 1_555 1_555
C4 S1 1_555 1_555
C8 N1 1_555 1_555

#END
