
#######################################################################
#
#                 Cambridge Crystallographic Data Centre
#                                CCDC 
#
#######################################################################
#
# If this CIF has been generated from an entry in the Cambridge 
# Structural Database, then it will include bibliographic, chemical, 
# crystal, experimental, refinement or atomic coordinate data resulting 
# from the CCDC's data processing and validation procedures.
#
#######################################################################

data_CAPKIQ
_chemical_formula_moiety         'C22 H30 O5'
_chemical_name_systematic        
1-(6-hydroxy-2-isopropyl-4-methoxy-8a-methyl-1a,2,3,3a,8a,8b-hexahydro-1,8-dioxacyclopropa[a]fluoren-7-yl)-3-methylbutan-1-one
_symmetry_cell_setting           monoclinic
_symmetry_space_group_name_H-M   'P 21'
_symmetry_Int_Tables_number      4
_space_group_name_Hall           'P 2yb'
loop_
_symmetry_equiv_pos_site_id
_symmetry_equiv_pos_as_xyz
1 x,y,z
2 -x,1/2+y,-z
_cell_length_a                   9.0314(2)
_cell_length_b                   11.3662(2)
_cell_length_c                   10.1622(2)
_cell_angle_alpha                90
_cell_angle_beta                 93.500(2)
_cell_angle_gamma                90
_cell_volume                     1041.23
_cell_formula_units_Z            2
loop_
_atom_site_label
_atom_site_type_symbol
_atom_site_fract_x
_atom_site_fract_y
_atom_site_fract_z
O1 O 0.8581(2) 0.3946(2) -0.00406(19)
O2 O 0.8097(3) 0.1051(2) 0.3048(2)
O3 O 0.4704(3) 0.2802(3) -0.2247(3)
O4 O 0.4445(3) 0.1237(3) -0.0504(3)
H1 H 0.4305 0.1539 -0.1234
C1 C 0.9706(3) 0.3043(3) 0.1918(2)
H2 H 0.9674 0.3254 0.2851
O5 O 1.1668(3) 0.3597(3) -0.0402(2)
C2 C 1.1030(3) 0.2228(3) 0.1736(3)
H3 H 1.1041 0.1615 0.2400
H4 H 1.0906 0.1854 0.0879
C3 C 0.8252(3) 0.2488(3) 0.1446(3)
C4 C 0.7727(3) 0.3016(3) 0.0293(3)
C5 C 0.9673(3) 0.4172(3) 0.1072(3)
C6 C 0.7499(3) 0.1530(3) 0.1926(3)
C7 C 1.2518(3) 0.2875(3) 0.1840(3)
H5 H 1.3278 0.2313 0.1600
C8 C 0.5929(3) 0.3117(3) -0.1740(3)
C9 C 1.2995(3) 0.3351(3) 0.3218(3)
H6 H 1.2272 0.3949 0.3443
C10 C 0.5698(3) 0.1678(3) 0.0097(3)
C11 C 0.6199(3) 0.1138(3) 0.1251(3)
H7 H 0.5672 0.0512 0.1582
C12 C 0.6454(3) 0.2642(3) -0.0456(3)
C13 C 1.1106(4) 0.4460(4) 0.0460(3)
H8 H 1.1216 0.5280 0.0182
C14 C 0.6873(4) 0.3901(4) -0.2522(3)
H9 H 0.7297 0.4520 -0.1959
H10 H 0.6269 0.4266 -0.3230
C15 C 1.2477(4) 0.3848(4) 0.0824(3)
H11 H 1.3392 0.4304 0.0768
C16 C 0.9100(5) 0.5215(3) 0.1814(4)
H12 H 0.8908 0.5857 0.1215
H13 H 0.9829 0.5449 0.2491
H14 H 0.8199 0.5000 0.2208
C17 C 0.7363(6) 0.0041(4) 0.3560(5)
H15 H 0.7255 -0.0553 0.2890
H16 H 0.6402 0.0266 0.3826
H17 H 0.7943 -0.0265 0.4307
C18 C 1.2991(6) 0.2402(4) 0.4262(4)
H18 H 1.1991 0.2149 0.4365
H19 H 1.3406 0.2709 0.5084
H20 H 1.3574 0.1746 0.3999
C19 C 1.4526(4) 0.3948(5) 0.3238(5)
H21 H 1.5234 0.3413 0.2902
H22 H 1.4835 0.4163 0.4126
H23 H 1.4464 0.4641 0.2697
C20 C 0.8143(6) 0.3177(5) -0.3109(5)
H24 H 0.8860 0.2935 -0.2397
C21 C 0.7625(7) 0.2144(6) -0.3855(6)
H25 H 0.7163 0.1606 -0.3280
H26 H 0.8453 0.1766 -0.4228
H27 H 0.6920 0.2382 -0.4550
C22 C 0.8891(9) 0.4045(8) -0.4033(7)
H28 H 0.9228 0.4725 -0.3541
H29 H 0.8189 0.4281 -0.4730
H30 H 0.9722 0.3667 -0.4402
loop_
_geom_bond_atom_site_label_1
_geom_bond_atom_site_label_2
_geom_bond_site_symmetry_1
_geom_bond_site_symmetry_2
O1 C4 1_555 1_555
O2 C6 1_555 1_555
O3 C8 1_555 1_555
O4 H1 1_555 1_555
C1 H2 1_555 1_555
O5 C13 1_555 1_555
C2 C1 1_555 1_555
H3 C2 1_555 1_555
H4 C2 1_555 1_555
C3 C1 1_555 1_555
C4 C3 1_555 1_555
C5 O1 1_555 1_555
C6 C3 1_555 1_555
C7 C2 1_555 1_555
H5 C7 1_555 1_555
C8 C12 1_555 1_555
C9 C7 1_555 1_555
H6 C9 1_555 1_555
C10 O4 1_555 1_555
C11 C6 1_555 1_555
H7 C11 1_555 1_555
C12 C4 1_555 1_555
C13 C5 1_555 1_555
H8 C13 1_555 1_555
C14 C8 1_555 1_555
H9 C14 1_555 1_555
H10 C14 1_555 1_555
C15 O5 1_555 1_555
H11 C15 1_555 1_555
C16 C5 1_555 1_555
H12 C16 1_555 1_555
H13 C16 1_555 1_555
H14 C16 1_555 1_555
C17 O2 1_555 1_555
H15 C17 1_555 1_555
H16 C17 1_555 1_555
H17 C17 1_555 1_555
C18 C9 1_555 1_555
H18 C18 1_555 1_555
H19 C18 1_555 1_555
H20 C18 1_555 1_555
C19 C9 1_555 1_555
H21 C19 1_555 1_555
H22 C19 1_555 1_555
H23 C19 1_555 1_555
C20 C14 1_555 1_555
H24 C20 1_555 1_555
C21 C20 1_555 1_555
H25 C21 1_555 1_555
H26 C21 1_555 1_555
H27 C21 1_555 1_555
C22 C20 1_555 1_555
H28 C22 1_555 1_555
H29 C22 1_555 1_555
H30 C22 1_555 1_555
C1 C5 1_555 1_555
C7 C15 1_555 1_555
C10 C11 1_555 1_555
C10 C12 1_555 1_555
C13 C15 1_555 1_555

#END
