
#######################################################################
#
#                 Cambridge Crystallographic Data Centre
#                                CCDC 
#
#######################################################################
#
# If this CIF has been generated from an entry in the Cambridge 
# Structural Database, then it will include bibliographic, chemical, 
# crystal, experimental, refinement or atomic coordinate data resulting 
# from the CCDC's data processing and validation procedures.
#
#######################################################################

data_CAPROL10
_chemical_formula_moiety         '2(C5 H8 N1 O3 1-),Ca1 2+,5(H2 O1)'
_chemical_name_systematic        'Calcium bis(hydroxy-L-proline) pentahydrate'
_symmetry_cell_setting           monoclinic
_symmetry_space_group_name_H-M   'P 21'
_symmetry_Int_Tables_number      4
_space_group_name_Hall           'P 2yb'
loop_
_symmetry_equiv_pos_site_id
_symmetry_equiv_pos_as_xyz
1 x,y,z
2 -x,1/2+y,-z
_cell_length_a                   6.213(1)
_cell_length_b                   14.905(4)
_cell_length_c                   9.483(3)
_cell_angle_alpha                90
_cell_angle_beta                 96.41(2)
_cell_angle_gamma                90
_cell_volume                     872.681
_exptl_crystal_colour            colorless
_cell_formula_units_Z            2
loop_
_atom_site_label
_atom_site_type_symbol
_atom_site_fract_x
_atom_site_fract_y
_atom_site_fract_z
Ca1 Ca 0.0434(1) 0.25000 0.2427(1)
O1 O 0.3653(5) 0.1812(2) 0.1846(3)
O2 O 0.5410(5) 0.0560(2) 0.1451(3)
O3 O -0.1340(5) 0.0389(2) -0.2340(3)
N1 N -0.0088(5) 0.1321(2) 0.03783
C1 C 0.3730(6) 0.1049(2) 0.1298(4)
C2 C 0.1743(7) 0.0697(3) 0.0383(4)
C3 C 0.2277(8) 0.0612(4) -0.1190(5)
C4 C 0.0342(8) 0.1046(3) -0.2042(5)
C5 C -0.0330(8) 0.1753(3) -0.1035(4)
H1 H -0.2747 0.0667 -0.2837
H2 H -0.1449 0.1000 0.0531
H3 H 0.1448 0.0042 0.0852
H4 H 0.3778 0.0976 -0.1439
H5 H 0.2419 -0.0051 -0.1467
H6 H 0.0825 0.1347 -0.3050
H7 H -0.1943 0.2004 -0.1246
H8 H 0.0761 0.2267 -0.0995
O4 O 0.2298(5) 0.2339(2) 0.4684(3)
O5 O 0.3698(5) 0.2768(2) 0.6795(3)
O6 O -0.1821(5) 0.5283(2) 0.5790(4)
N2 N -0.0234(5) 0.3804(2) 0.4139(3)
C6 C 0.2497(7) 0.2894(3) 0.5656(4)
C7 C 0.1220(7) 0.3767(3) 0.5483(4)
C8 C -0.0203(9) 0.3927(4) 0.6679(5)
C9 C -0.2266(7) 0.4350(3) 0.5941(4)
C10 C -0.2497(7) 0.3875(3) 0.4526(5)
H9 H -0.1713 0.5508 0.4773
H10 H 0.0126 0.4317 0.3594
H11 H 0.2279 0.4252 0.5491
H12 H 0.0163 0.4324 0.7476
H13 H -0.0750 0.3333 0.7218
H14 H -0.3384 0.4280 0.6557
H15 H -0.2950 0.3192 0.4650
H16 H -0.3480 0.4338 0.3813
O7 O 0.1667(6) 0.3722(2) 0.1122(3)
H17 H 0.1756 0.4355 0.1478
H18 H 0.2549 0.3736 0.0251
O8 O -0.1688(5) 0.1342(2) 0.3483(3)
H19 H -0.0425 0.0959 0.3823
H20 H -0.2555 0.0954 0.2773
O9 O -0.3031(5) 0.2925(2) 0.1411(4)
H21 H -0.4385 0.2720 0.1556
H22 H -0.3251 0.3213 0.0530
O10 O 0.4346(5) 0.6115(2) 0.4279(3)
H23 H 0.3320 0.6380 0.5080
H24 H 0.4445 0.6605 0.3700
O11 O 0.4624(5) 0.3771(2) -0.0835(3)
H25 H 0.4450 0.3372 -0.1761
H26 H 0.4538 0.4417 -0.1147
loop_
_geom_bond_atom_site_label_1
_geom_bond_atom_site_label_2
_geom_bond_site_symmetry_1
_geom_bond_site_symmetry_2
O1 C1 1_555 1_555
O2 C1 1_555 1_555
O3 C4 1_555 1_555
N1 C2 1_555 1_555
C1 C2 1_555 1_555
C2 C3 1_555 1_555
C3 C4 1_555 1_555
C4 C5 1_555 1_555
C5 N1 1_555 1_555
H1 O3 1_555 1_555
H2 N1 1_555 1_555
H3 C2 1_555 1_555
H4 C3 1_555 1_555
H5 C3 1_555 1_555
H6 C4 1_555 1_555
H7 C5 1_555 1_555
H8 C5 1_555 1_555
O4 C6 1_555 1_555
O5 C6 1_555 1_555
O6 C9 1_555 1_555
N2 C7 1_555 1_555
C6 C7 1_555 1_555
C7 C8 1_555 1_555
C8 C9 1_555 1_555
C9 C10 1_555 1_555
C10 N2 1_555 1_555
H9 O6 1_555 1_555
H10 N2 1_555 1_555
H11 C7 1_555 1_555
H12 C8 1_555 1_555
H13 C8 1_555 1_555
H14 C9 1_555 1_555
H15 C10 1_555 1_555
H16 C10 1_555 1_555
O7 H17 1_555 1_555
H18 O7 1_555 1_555
O8 H19 1_555 1_555
H20 O8 1_555 1_555
O9 H21 1_555 1_555
H22 O9 1_555 1_555
O10 H23 1_555 1_555
H24 O10 1_555 1_555
O11 H25 1_555 1_555
H26 O11 1_555 1_555

#END
