
#######################################################################
#
#                 Cambridge Crystallographic Data Centre
#                                CCDC 
#
#######################################################################
#
# If this CIF has been generated from an entry in the Cambridge 
# Structural Database, then it will include bibliographic, chemical, 
# crystal, experimental, refinement or atomic coordinate data resulting 
# from the CCDC's data processing and validation procedures.
#
#######################################################################

data_CAPVEX
_chemical_formula_moiety         'C33 H28 N2 O8 S4'
_chemical_name_systematic        
N-(1-(bis(phenylsulfonyl)amino)-2,3-dihydro-1H-inden-2-yl)-N-(phenylsulfonyl)benzenesulfonamide
_symmetry_cell_setting           orthorhombic
_symmetry_space_group_name_H-M   'P 21 21 21'
_symmetry_Int_Tables_number      19
_space_group_name_Hall           'P 2ac 2ab'
loop_
_symmetry_equiv_pos_site_id
_symmetry_equiv_pos_as_xyz
1 x,y,z
2 1/2-x,-y,1/2+z
3 -x,1/2+y,1/2-z
4 1/2+x,1/2-y,-z
_cell_length_a                   10.2626(4)
_cell_length_b                   16.2896(7)
_cell_length_c                   18.8592(7)
_cell_angle_alpha                90
_cell_angle_beta                 90
_cell_angle_gamma                90
_cell_volume                     3152.76
_exptl_crystal_colour            colorless
_exptl_crystal_description       prism
_cell_formula_units_Z            4
loop_
_atom_site_label
_atom_site_type_symbol
_atom_site_fract_x
_atom_site_fract_y
_atom_site_fract_z
C1 C 0.1751(2) 0.20144(13) 1.05041(12)
C2 C 0.0942(3) 0.25382(15) 1.08726(16)
H1 H 0.0578 0.2381 1.1315
C3 C 0.0672(3) 0.33051(17) 1.0578(2)
H2 H 0.0104 0.3673 1.0818
C4 C 0.1218(3) 0.35316(18) 0.9947(2)
H3 H 0.1024 0.4055 0.9751
C5 C 0.2043(3) 0.30115(17) 0.95940(14)
H4 H 0.2428 0.3179 0.9159
C6 C 0.2318(3) 0.22445(15) 0.98676(12)
H5 H 0.2885 0.1881 0.9623
C7 C -0.0016(2) -0.05422(13) 1.17109(11)
C8 C -0.0478(2) -0.13128(13) 1.15244(12)
H6 H -0.1050 -0.1376 1.1132
C9 C -0.0096(2) -0.19864(15) 1.19157(12)
H7 H -0.0406 -0.2517 1.1793
C10 C 0.0738(2) -0.18901(16) 1.24872(13)
H8 H 0.1019 -0.2357 1.2747
C11 C 0.1162(2) -0.11165(16) 1.26816(12)
H9 H 0.1717 -0.1055 1.3081
C12 C 0.0783(2) -0.04263(15) 1.22958(11)
H10 H 0.1064 0.0107 1.2429
C13 C 0.0638(2) 0.02710(12) 0.98453(11)
H11 H 0.1491 0.0408 0.9618
C14 C -0.0438(2) 0.07513(13) 0.94347(12)
H12 H -0.0955 0.1097 0.9762
H13 H -0.0048 0.1106 0.9065
C15 C -0.1270(2) 0.00939(14) 0.91079(11)
C16 C -0.2374(2) 0.01819(17) 0.86881(13)
H14 H -0.2667 0.0712 0.8553
C17 C -0.3039(3) -0.05070(19) 0.84705(13)
H15 H -0.3801 -0.0447 0.8189
C18 C -0.2617(3) -0.12884(18) 0.86546(13)
H16 H -0.3093 -0.1758 0.8505
C19 C -0.1498(2) -0.13802(15) 0.90582(12)
H17 H -0.1193 -0.1911 0.9184
C20 C -0.0834(2) -0.06869(13) 0.92743(10)
C21 C 0.0386(2) -0.06600(12) 0.97142(10)
H18 H 0.0202 -0.0927 1.0181
C22 C 0.1090(2) -0.14550(15) 0.79547(11)
C23 C 0.0065(3) -0.10945(18) 0.76008(13)
H19 H -0.0168 -0.0540 0.7692
C24 C -0.0622(3) -0.1559(2) 0.71063(15)
H20 H -0.1331 -0.1322 0.6856
C25 C -0.0273(4) -0.2358(2) 0.69815(15)
H21 H -0.0746 -0.2671 0.6643
C26 C 0.0749(3) -0.27153(19) 0.73377(15)
H22 H 0.0978 -0.3270 0.7246
C27 C 0.1448(3) -0.22616(16) 0.78323(13)
H23 H 0.2157 -0.2500 0.8082
C28 C 0.3469(2) -0.13917(13) 1.03430(11)
C29 C 0.3224(2) -0.12150(14) 1.10518(12)
H24 H 0.2401 -0.1335 1.1257
C30 C 0.4204(3) -0.08602(17) 1.14518(13)
H25 H 0.4051 -0.0728 1.1935
C31 C 0.5401(3) -0.06982(16) 1.11515(14)
H26 H 0.6070 -0.0458 1.1431
C32 C 0.5639(2) -0.08811(16) 1.04474(14)
H27 H 0.6469 -0.0769 1.0246
C33 C 0.4671(2) -0.12268(14) 1.00382(13)
H28 H 0.4825 -0.1351 0.9553
N1 N 0.07570(18) 0.04739(11) 1.06175(9)
N2 N 0.15149(16) -0.10966(10) 0.93737(9)
O1 O 0.31424(16) 0.07001(10) 1.04452(10)
O2 O 0.21142(17) 0.10522(11) 1.15945(8)
O3 O -0.15340(14) 0.00548(10) 1.07393(8)
O4 O -0.06306(16) 0.10109(10) 1.16312(8)
O5 O 0.15876(16) -0.00126(10) 0.84602(8)
O6 O 0.33341(15) -0.10529(11) 0.84904(8)
O7 O 0.28056(16) -0.24083(9) 0.93398(8)
O8 O 0.12521(15) -0.21495(9) 1.03189(8)
S1 S 0.20835(5) 0.10302(3) 1.08423(3)
S2 S -0.04822(5) 0.03089(3) 1.11861(3)
S3 S 0.19915(5) -0.08474(3) 0.85512(3)
S4 S 0.22324(5) -0.18621(3) 0.98418(3)
loop_
_geom_bond_atom_site_label_1
_geom_bond_atom_site_label_2
_geom_bond_site_symmetry_1
_geom_bond_site_symmetry_2
C1 C2 1_555 1_555
C2 H1 1_555 1_555
C3 C2 1_555 1_555
H2 C3 1_555 1_555
C4 C3 1_555 1_555
H3 C4 1_555 1_555
C5 C4 1_555 1_555
H4 C5 1_555 1_555
C6 C1 1_555 1_555
H5 C6 1_555 1_555
C7 C8 1_555 1_555
C8 H6 1_555 1_555
C9 C8 1_555 1_555
H7 C9 1_555 1_555
C10 C9 1_555 1_555
H8 C10 1_555 1_555
C11 C10 1_555 1_555
H9 C11 1_555 1_555
C12 C7 1_555 1_555
H10 C12 1_555 1_555
C13 H11 1_555 1_555
C14 C13 1_555 1_555
H12 C14 1_555 1_555
H13 C14 1_555 1_555
C15 C14 1_555 1_555
C16 C15 1_555 1_555
H14 C16 1_555 1_555
C17 C16 1_555 1_555
H15 C17 1_555 1_555
C18 C17 1_555 1_555
H16 C18 1_555 1_555
C19 C18 1_555 1_555
H17 C19 1_555 1_555
C20 C15 1_555 1_555
C21 C13 1_555 1_555
H18 C21 1_555 1_555
C22 C23 1_555 1_555
C23 H19 1_555 1_555
C24 C23 1_555 1_555
H20 C24 1_555 1_555
C25 C24 1_555 1_555
H21 C25 1_555 1_555
C26 C25 1_555 1_555
H22 C26 1_555 1_555
C27 C22 1_555 1_555
H23 C27 1_555 1_555
C28 C29 1_555 1_555
C29 H24 1_555 1_555
C30 C29 1_555 1_555
H25 C30 1_555 1_555
C31 C30 1_555 1_555
H26 C31 1_555 1_555
C32 C31 1_555 1_555
H27 C32 1_555 1_555
C33 C28 1_555 1_555
H28 C33 1_555 1_555
N1 C13 1_555 1_555
N2 C21 1_555 1_555
O1 S1 1_555 1_555
O2 S1 1_555 1_555
O3 S2 1_555 1_555
O4 S2 1_555 1_555
O5 S3 1_555 1_555
O6 S3 1_555 1_555
O7 S4 1_555 1_555
O8 S4 1_555 1_555
S1 C1 1_555 1_555
S2 C7 1_555 1_555
S3 C22 1_555 1_555
S4 C28 1_555 1_555
C5 C6 1_555 1_555
C11 C12 1_555 1_555
C19 C20 1_555 1_555
C20 C21 1_555 1_555
C26 C27 1_555 1_555
C32 C33 1_555 1_555
N1 S1 1_555 1_555
N1 S2 1_555 1_555
N2 S3 1_555 1_555
N2 S4 1_555 1_555

#END
