
#######################################################################
#
#                 Cambridge Crystallographic Data Centre
#                                CCDC 
#
#######################################################################
#
# If this CIF has been generated from an entry in the Cambridge 
# Structural Database, then it will include bibliographic, chemical, 
# crystal, experimental, refinement or atomic coordinate data resulting 
# from the CCDC's data processing and validation procedures.
#
#######################################################################

data_CAPWIC
_chemical_formula_moiety         'C22 H18 Cl1 N3 O1'
_chemical_name_systematic        
10-chloro-5,5-dimethyl-2-phenyl-2,4,5,6-tetrahydro-1H-pyridazino[3,4,5-kl]acridin-1-one
_symmetry_cell_setting           triclinic
_symmetry_space_group_name_H-M   'P -1'
_symmetry_Int_Tables_number      2
_space_group_name_Hall           '-P 1'
loop_
_symmetry_equiv_pos_site_id
_symmetry_equiv_pos_as_xyz
1 x,y,z
2 -x,-y,-z
_cell_length_a                   9.169(4)
_cell_length_b                   10.723(5)
_cell_length_c                   10.784(5)
_cell_angle_alpha                107.756(5)
_cell_angle_beta                 100.560(5)
_cell_angle_gamma                110.185(5)
_cell_volume                     897.032
_exptl_crystal_colour            yellow
_exptl_crystal_description       rectangular
_cell_formula_units_Z            2
loop_
_atom_site_label
_atom_site_type_symbol
_atom_site_fract_x
_atom_site_fract_y
_atom_site_fract_z
Cl1 Cl 0.29122(7) -0.59906(6) 0.34383(6)
O1 O 0.7736(2) -0.12463(16) 0.59802(15)
N1 N 0.8916(2) 0.10717(17) 0.61579(16)
N2 N 0.9097(2) 0.21459(18) 0.56787(17)
N3 N 0.4016(2) -0.09493(18) 0.19983(17)
C1 C 1.2793(3) 0.2574(3) 0.9793(2)
H1 H 1.3652 0.2923 1.0600
C2 C 1.1227(3) 0.1666(2) 0.9662(2)
H2 H 1.1037 0.1402 1.0383
C3 C 0.9939(3) 0.1145(2) 0.8467(2)
H3 H 0.8884 0.0539 0.8385
C4 C 1.0237(2) 0.1534(2) 0.7396(2)
C5 C 0.7690(2) -0.0344(2) 0.5531(2)
C6 C 0.6391(2) -0.0603(2) 0.43179(19)
C7 C 0.4977(2) -0.1977(2) 0.3562(2)
C8 C 0.3831(2) -0.2077(2) 0.2412(2)
C9 C 0.2430(2) -0.3382(2) 0.1626(2)
H4 H 0.1677 -0.3437 0.0882
C10 C 0.2147(3) -0.4571(2) 0.1927(2)
H5 H 0.1214 -0.5432 0.1395
C11 C 0.3288(3) -0.4472(2) 0.3052(2)
C12 C 0.4666(2) -0.3220(2) 0.3861(2)
H6 H 0.5397 -0.3188 0.4605
C13 C 0.7968(2) 0.1869(2) 0.4582(2)
C14 C 0.6544(2) 0.0494(2) 0.38711(19)
C15 C 0.5309(2) 0.0280(2) 0.2696(2)
C16 C 0.5497(3) 0.1509(2) 0.2250(2)
H7 H 0.4976 0.2067 0.2717
H8 H 0.4929 0.1114 0.1269
C17 C 0.7302(3) 0.2529(2) 0.2552(2)
C18 C 0.8190(3) 0.3069(2) 0.4088(2)
H9 H 0.9353 0.3624 0.4277
H10 H 0.7787 0.3714 0.4602
C19 C 0.8096(3) 0.1720(3) 0.1701(2)
H11 H 0.9230 0.2353 0.1921
H12 H 0.7538 0.1404 0.0740
H13 H 0.8021 0.0894 0.1906
C20 C 0.7372(3) 0.3830(3) 0.2208(3)
H14 H 0.8496 0.4483 0.2426
H15 H 0.6851 0.4322 0.2736
H16 H 0.6811 0.3499 0.1245
C21 C 1.3078(3) 0.2960(3) 0.8732(2)
H17 H 1.4133 0.3574 0.8824
C22 C 1.1811(3) 0.2446(2) 0.7523(2)
H18 H 1.2011 0.2709 0.6804
loop_
_geom_bond_atom_site_label_1
_geom_bond_atom_site_label_2
_geom_bond_site_symmetry_1
_geom_bond_site_symmetry_2
Cl1 C11 1_555 1_555
O1 C5 1_555 1_555
N1 N2 1_555 1_555
N2 C13 1_555 1_555
N3 C8 1_555 1_555
C1 H1 1_555 1_555
C2 C1 1_555 1_555
H2 C2 1_555 1_555
C3 C2 1_555 1_555
H3 C3 1_555 1_555
C4 N1 1_555 1_555
C5 N1 1_555 1_555
C6 C5 1_555 1_555
C7 C6 1_555 1_555
C8 C7 1_555 1_555
C9 C8 1_555 1_555
H4 C9 1_555 1_555
C10 C9 1_555 1_555
H5 C10 1_555 1_555
C11 C10 1_555 1_555
C12 C7 1_555 1_555
H6 C12 1_555 1_555
C13 C14 1_555 1_555
C14 C6 1_555 1_555
C15 N3 1_555 1_555
C16 C15 1_555 1_555
H7 C16 1_555 1_555
H8 C16 1_555 1_555
C17 C16 1_555 1_555
C18 C13 1_555 1_555
H9 C18 1_555 1_555
H10 C18 1_555 1_555
C19 C17 1_555 1_555
H11 C19 1_555 1_555
H12 C19 1_555 1_555
H13 C19 1_555 1_555
C20 C17 1_555 1_555
H14 C20 1_555 1_555
H15 C20 1_555 1_555
H16 C20 1_555 1_555
C21 C1 1_555 1_555
H17 C21 1_555 1_555
C22 C4 1_555 1_555
H18 C22 1_555 1_555
C3 C4 1_555 1_555
C11 C12 1_555 1_555
C14 C15 1_555 1_555
C17 C18 1_555 1_555
C21 C22 1_555 1_555

#END
