
#######################################################################
#
#                 Cambridge Crystallographic Data Centre
#                                CCDC 
#
#######################################################################
#
# If this CIF has been generated from an entry in the Cambridge 
# Structural Database, then it will include bibliographic, chemical, 
# crystal, experimental, refinement or atomic coordinate data resulting 
# from the CCDC's data processing and validation procedures.
#
#######################################################################

data_CAQCIJ
_chemical_formula_moiety         'C46 H68 N6 O16,H2 O1'
_chemical_name_systematic        
"N,N'-{4,6-bis[2-(2-methoxyethoxy)ethoxy]-1,3-phenylene}bis{N'-[2,4-bis(2-methylpropoxy)-5-nitrophenyl]urea} monohydrate"
_symmetry_cell_setting           triclinic
_symmetry_space_group_name_H-M   'P -1'
_symmetry_Int_Tables_number      2
_space_group_name_Hall           '-P 1'
loop_
_symmetry_equiv_pos_site_id
_symmetry_equiv_pos_as_xyz
1 x,y,z
2 -x,-y,-z
_cell_length_a                   11.689(4)
_cell_length_b                   14.240(4)
_cell_length_c                   17.345(5)
_cell_angle_alpha                112.693(4)
_cell_angle_beta                 101.236(5)
_cell_angle_gamma                97.554(5)
_cell_volume                     2543.52
_exptl_crystal_colour            orange
_exptl_crystal_description       plate
_cell_formula_units_Z            2
loop_
_atom_site_label
_atom_site_type_symbol
_atom_site_fract_x
_atom_site_fract_y
_atom_site_fract_z
C1 C 0.8619(4) 1.3073(3) 0.7026(2)
C2 C 0.8883(3) 1.3088(3) 0.6286(2)
H1 H 0.9078 1.3725 0.6256
C3 C 0.8863(3) 1.2178(3) 0.5591(2)
C4 C 0.8561(3) 1.1196(3) 0.5607(2)
C5 C 0.8277(3) 1.1171(3) 0.6335(2)
H2 H 0.8062 1.0532 0.6358
C6 C 0.8309(3) 1.2089(3) 0.7035(2)
N1 N 0.8587(3) 1.0325(2) 0.4873(2)
H3 H 0.8847 1.0455 0.4485
C7 C 0.8246(3) 0.9291(3) 0.4703(2)
N2 N 0.8339(3) 0.8650(2) 0.3916(2)
H4 H 0.8577 0.8955 0.3615
C8 C 0.8099(3) 0.7551(3) 0.3525(2)
C9 C 0.8184(4) 0.7074(3) 0.2671(2)
C10 C 0.7998(4) 0.6009(3) 0.2259(2)
H5 H 0.8080 0.5699 0.1698
C11 C 0.7691(3) 0.5390(3) 0.2669(2)
C12 C 0.7564(3) 0.5844(3) 0.3506(2)
C13 C 0.7780(3) 0.6928(3) 0.3932(2)
H6 H 0.7710 0.7238 0.4496
N3 N 0.7205(3) 0.5145(2) 0.38563(19)
H7 H 0.7130 0.4492 0.3539
C14 C 0.6965(3) 0.5382(3) 0.4633(2)
N4 N 0.6555(3) 0.4508(2) 0.4755(2)
H8 H 0.6501 0.3909 0.4344
C15 C 0.6217(3) 0.4507(3) 0.5494(2)
C16 C 0.5949(3) 0.3523(3) 0.5519(2)
C17 C 0.5656(4) 0.3453(3) 0.6234(3)
H9 H 0.5490 0.2801 0.6244
C18 C 0.5606(4) 0.4332(3) 0.6933(3)
C19 C 0.5811(4) 0.5289(3) 0.6873(2)
C20 C 0.6113(4) 0.5368(3) 0.6165(2)
H10 H 0.6246 0.6016 0.6144
O1 O 0.8611(3) 1.3935(2) 0.77194(17)
C21 C 0.8918(4) 1.4933(3) 0.7693(3)
H11 H 0.8366 1.4952 0.7206
H12 H 0.9723 1.5052 0.7627
C22 C 0.8843(4) 1.5757(3) 0.8531(3)
H13 H 0.8024 1.5608 0.8580
C23 C 0.9688(6) 1.5733(4) 0.9299(3)
H14 H 0.9478 1.5063 0.9307
H15 H 0.9629 1.6270 0.9825
H16 H 1.0494 1.5852 0.9252
C24 C 0.9082(6) 1.6816(3) 0.8495(3)
H17 H 0.9879 1.6973 0.8442
H18 H 0.9003 1.7346 0.9017
H19 H 0.8515 1.6794 0.8004
O2 O 0.8432(3) 0.7756(2) 0.23048(17)
C25 C 0.8454(5) 0.7322(3) 0.1420(3)
H20 H 0.7759 0.6751 0.1075
H21 H 0.9168 0.7051 0.1366
C26 C 0.8449(6) 0.8162(4) 0.1109(3)
H22 H 0.8363 0.7864 0.0489
H23 H 0.7772 0.8473 0.1214
O3 O 0.9499(4) 0.8922(3) 0.1532(2)
C27 C 0.9634(8) 0.9669(5) 0.1192(4)
H24 H 0.8993 1.0038 0.1258
H25 H 0.9570 0.9315 0.0577
C28 C 1.0769(8) 1.0409(5) 0.1621(5)
H26 H 1.1408 1.0037 0.1572
H27 H 1.0859 1.0867 0.1332
O4 O 1.0876(5) 1.0996(4) 0.2471(3)
C29 C 1.2040(6) 1.1599(5) 0.2963(5)
H28 H 1.2497 1.1177 0.3151
H29 H 1.1990 1.2186 0.3460
H30 H 1.2423 1.1844 0.2612
O5 O 0.7509(3) 0.4310(2) 0.22866(17)
C30 C 0.6881(5) 0.3792(3) 0.1402(3)
H31 H 0.7366 0.3953 0.1056
H32 H 0.6147 0.4027 0.1304
C31 C 0.6593(5) 0.2642(3) 0.1139(3)
H33 H 0.6307 0.2503 0.1582
H34 H 0.5955 0.2308 0.0603
O6 O 0.7583(4) 0.2210(3) 0.1018(3)
C32 C 0.7636(8) 0.1792(6) 0.0141(5)
H35 H 0.8450 0.1726 0.0134
H36 H 0.7463 0.2291 -0.0094
C33 C 0.6822(8) 0.0772(6) -0.0438(5)
H37 H 0.6019 0.0784 -0.0370
H38 H 0.6794 0.0627 -0.1037
O7 O 0.7226(6) -0.0003(4) -0.0237(4)
C34 C 0.6435(10) -0.0985(6) -0.0759(7)
H39 H 0.5686 -0.0887 -0.1024
H40 H 0.6303 -0.1346 -0.0407
H41 H 0.6777 -0.1389 -0.1203
O8 O 0.7103(3) 0.6265(2) 0.51769(19)
O9 O 0.6019(3) 0.27020(19) 0.48133(17)
C35 C 0.5603(4) 0.1658(3) 0.4739(3)
H42 H 0.4754 0.1529 0.4701
H43 H 0.6027 0.1588 0.5247
C36 C 0.5829(4) 0.0885(3) 0.3940(3)
H44 H 0.6692 0.1039 0.3998
C37 C 0.5193(6) 0.0926(4) 0.3115(3)
H45 H 0.4343 0.0751 0.3031
H46 H 0.5404 0.0436 0.2633
H47 H 0.5427 0.1619 0.3153
C38 C 0.5474(5) -0.0206(3) 0.3912(4)
H48 H 0.5890 -0.0208 0.4447
H49 H 0.5686 -0.0709 0.3438
H50 H 0.4626 -0.0386 0.3834
O10 O 0.5328(3) 0.4315(2) 0.76484(19)
C39 C 0.5231(4) 0.3357(4) 0.7744(3)
H51 H 0.5939 0.3084 0.7667
H52 H 0.4536 0.2840 0.7314
C40 C 0.5107(5) 0.3592(4) 0.8648(3)
H53 H 0.4395 0.3879 0.8706
C41 C 0.4897(6) 0.2572(6) 0.8748(4)
H54 H 0.4198 0.2095 0.8308
H55 H 0.4781 0.2707 0.9310
H56 H 0.5580 0.2270 0.8687
C42 C 0.6175(6) 0.4399(5) 0.9337(3)
H57 H 0.6116 0.4465 0.9899
H58 H 0.6188 0.5061 0.9309
H59 H 0.6898 0.4184 0.9238
N5 N 0.5664(3) 0.6230(3) 0.7538(2)
O11 O 0.5966(4) 0.6386(3) 0.8303(2)
O12 O 0.5222(4) 0.6843(2) 0.7298(2)
O13 O 0.9110(3) 1.21489(19) 0.48489(16)
C43 C 0.9381(4) 1.3117(3) 0.4764(2)
H60 H 1.0119 1.3564 0.5192
H61 H 0.8741 1.3482 0.4858
C44 C 0.9513(4) 1.2865(3) 0.3867(3)
H62 H 1.0115 1.2445 0.3774
C45 C 0.9978(5) 1.3889(4) 0.3813(4)
H63 H 0.9387 1.4302 0.3882
H64 H 1.0133 1.3736 0.3259
H65 H 1.0705 1.4270 0.4265
C46 C 0.8357(6) 1.2243(4) 0.3175(3)
H66 H 0.8104 1.1596 0.3211
H67 H 0.8482 1.2100 0.2613
H68 H 0.7750 1.2637 0.3260
N6 N 0.8013(3) 1.1990(3) 0.7780(2)
O14 O 0.7362(4) 1.1176(3) 0.7655(2)
O15 O 0.8421(4) 1.2707(3) 0.8501(2)
O16 O 0.7894(3) 0.8996(2) 0.52069(19)
O17 O 0.9561(4) 1.0135(3) 0.3389(3)
H69 H 0.880(2) 1.011(4) 0.301(3)
H70 H 0.961(7) 0.986(5) 0.2784(17)
loop_
_geom_bond_atom_site_label_1
_geom_bond_atom_site_label_2
_geom_bond_site_symmetry_1
_geom_bond_site_symmetry_2
C1 C2 1_555 1_555
C2 H1 1_555 1_555
C3 C2 1_555 1_555
C4 C3 1_555 1_555
C5 C4 1_555 1_555
H2 C5 1_555 1_555
C6 C1 1_555 1_555
N1 C4 1_555 1_555
H3 N1 1_555 1_555
C7 N1 1_555 1_555
N2 C7 1_555 1_555
H4 N2 1_555 1_555
C8 N2 1_555 1_555
C9 C8 1_555 1_555
C10 C9 1_555 1_555
H5 C10 1_555 1_555
C11 C10 1_555 1_555
C12 C11 1_555 1_555
C13 C8 1_555 1_555
H6 C13 1_555 1_555
N3 C12 1_555 1_555
H7 N3 1_555 1_555
C14 N3 1_555 1_555
N4 C14 1_555 1_555
H8 N4 1_555 1_555
C15 N4 1_555 1_555
C16 C15 1_555 1_555
C17 C16 1_555 1_555
H9 C17 1_555 1_555
C18 C17 1_555 1_555
C19 C18 1_555 1_555
C20 C15 1_555 1_555
H10 C20 1_555 1_555
O1 C1 1_555 1_555
C21 O1 1_555 1_555
H11 C21 1_555 1_555
H12 C21 1_555 1_555
C22 C21 1_555 1_555
H13 C22 1_555 1_555
C23 C22 1_555 1_555
H14 C23 1_555 1_555
H15 C23 1_555 1_555
H16 C23 1_555 1_555
C24 C22 1_555 1_555
H17 C24 1_555 1_555
H18 C24 1_555 1_555
H19 C24 1_555 1_555
O2 C9 1_555 1_555
C25 O2 1_555 1_555
H20 C25 1_555 1_555
H21 C25 1_555 1_555
C26 C25 1_555 1_555
H22 C26 1_555 1_555
H23 C26 1_555 1_555
O3 C26 1_555 1_555
C27 O3 1_555 1_555
H24 C27 1_555 1_555
H25 C27 1_555 1_555
C28 C27 1_555 1_555
H26 C28 1_555 1_555
H27 C28 1_555 1_555
O4 C28 1_555 1_555
C29 O4 1_555 1_555
H28 C29 1_555 1_555
H29 C29 1_555 1_555
H30 C29 1_555 1_555
O5 C11 1_555 1_555
C30 O5 1_555 1_555
H31 C30 1_555 1_555
H32 C30 1_555 1_555
C31 C30 1_555 1_555
H33 C31 1_555 1_555
H34 C31 1_555 1_555
O6 C31 1_555 1_555
C32 O6 1_555 1_555
H35 C32 1_555 1_555
H36 C32 1_555 1_555
C33 C32 1_555 1_555
H37 C33 1_555 1_555
H38 C33 1_555 1_555
O7 C33 1_555 1_555
C34 O7 1_555 1_555
H39 C34 1_555 1_555
H40 C34 1_555 1_555
H41 C34 1_555 1_555
O8 C14 1_555 1_555
O9 C16 1_555 1_555
C35 O9 1_555 1_555
H42 C35 1_555 1_555
H43 C35 1_555 1_555
C36 C35 1_555 1_555
H44 C36 1_555 1_555
C37 C36 1_555 1_555
H45 C37 1_555 1_555
H46 C37 1_555 1_555
H47 C37 1_555 1_555
C38 C36 1_555 1_555
H48 C38 1_555 1_555
H49 C38 1_555 1_555
H50 C38 1_555 1_555
O10 C18 1_555 1_555
C39 O10 1_555 1_555
H51 C39 1_555 1_555
H52 C39 1_555 1_555
C40 C39 1_555 1_555
H53 C40 1_555 1_555
C41 C40 1_555 1_555
H54 C41 1_555 1_555
H55 C41 1_555 1_555
H56 C41 1_555 1_555
C42 C40 1_555 1_555
H57 C42 1_555 1_555
H58 C42 1_555 1_555
H59 C42 1_555 1_555
N5 C19 1_555 1_555
O11 N5 1_555 1_555
O12 N5 1_555 1_555
O13 C3 1_555 1_555
C43 O13 1_555 1_555
H60 C43 1_555 1_555
H61 C43 1_555 1_555
C44 C43 1_555 1_555
H62 C44 1_555 1_555
C45 C44 1_555 1_555
H63 C45 1_555 1_555
H64 C45 1_555 1_555
H65 C45 1_555 1_555
C46 C44 1_555 1_555
H66 C46 1_555 1_555
H67 C46 1_555 1_555
H68 C46 1_555 1_555
N6 C6 1_555 1_555
O14 N6 1_555 1_555
O15 N6 1_555 1_555
O16 C7 1_555 1_555
O17 H69 1_555 1_555
H70 O17 1_555 1_555
C5 C6 1_555 1_555
C12 C13 1_555 1_555
C19 C20 1_555 1_555

#END
