
#######################################################################
#
#                 Cambridge Crystallographic Data Centre
#                                CCDC 
#
#######################################################################
#
# If this CIF has been generated from an entry in the Cambridge 
# Structural Database, then it will include bibliographic, chemical, 
# crystal, experimental, refinement or atomic coordinate data resulting 
# from the CCDC's data processing and validation procedures.
#
#######################################################################

data_CAQKUC
_chemical_formula_moiety         'C15 H24 N6 Se3 2+,2(C1 F3 O3 S1 1-)'
_chemical_name_systematic        
'1,2,3-tris(1,3-dimethyl-1,3-dihydro-2H-imidazol-2-ylidene)-triselane-1,3-diium bis(trifluoromethanesulfonate)'
_symmetry_cell_setting           monoclinic
_symmetry_space_group_name_H-M   'P 21/n'
_symmetry_Int_Tables_number      14
_space_group_name_Hall           '-P 2yn'
loop_
_symmetry_equiv_pos_site_id
_symmetry_equiv_pos_as_xyz
1 x,y,z
2 1/2-x,1/2+y,1/2-z
3 -x,-y,-z
4 1/2+x,1/2-y,1/2+z
_cell_length_a                   11.611(2)
_cell_length_b                   21.563(4)
_cell_length_c                   11.669(2)
_cell_angle_alpha                90
_cell_angle_beta                 98.95(3)
_cell_angle_gamma                90
_cell_volume                     2885.97
_exptl_crystal_colour            brown
_exptl_crystal_description       rods
_cell_formula_units_Z            4
loop_
_atom_site_label
_atom_site_type_symbol
_atom_site_fract_x
_atom_site_fract_y
_atom_site_fract_z
Se1 Se 0.80772(4) 0.01290(2) 0.53099(4)
Se2 Se 0.99361(4) 0.08003(2) 0.59474(4)
Se3 Se 0.60968(4) -0.05359(2) 0.48658(5)
N1 N 0.7092(3) -0.12480(19) 0.3169(4)
N2 N 0.9343(3) 0.20578(18) 0.5262(4)
N3 N 0.7208(3) -0.17308(19) 0.4806(4)
N4 N 0.9538(3) 0.14762(19) 0.3782(4)
N5 N 0.7169(3) 0.06080(18) 0.7294(3)
C1 C 0.6831(4) -0.1199(2) 0.4251(4)
C2 C 0.7247(3) 0.0665(2) 0.6163(4)
N6 N 0.6688(3) 0.11922(17) 0.5770(3)
C3 C 0.6264(4) 0.1470(2) 0.6673(4)
H1 H 0.5846 0.1839 0.6640
C4 C 0.9654(5) 0.0943(3) 0.3040(5)
H2 H 0.9901 0.0588 0.3513
H3 H 1.0222 0.1032 0.2547
H4 H 0.8916 0.0857 0.2572
C5 C 0.9574(4) 0.1474(2) 0.4941(4)
C6 C 0.7682(4) -0.2106(2) 0.4060(6)
H5 H 0.7992 -0.2499 0.4225
C7 C 0.7690(5) 0.0114(2) 0.8062(4)
H6 H 0.7363 -0.0277 0.7789
H7 H 0.7533 0.0188 0.8834
H8 H 0.8518 0.0108 0.8067
C8 C 0.6560(4) 0.1111(2) 0.7619(5)
H9 H 0.6386 0.1189 0.8358
C9 C 0.6852(6) -0.0778(3) 0.2269(6)
H10 H 0.7195 -0.0392 0.2552
H11 H 0.6024 -0.0728 0.2061
H12 H 0.7178 -0.0905 0.1599
C10 C 0.9274(5) 0.2067(3) 0.3370(5)
H13 H 0.9192 0.2195 0.2600
C11 C 0.9259(5) 0.2266(3) 0.6434(5)
H14 H 0.9122 0.1916 0.6903
H15 H 0.8625 0.2555 0.6408
H16 H 0.9974 0.2465 0.6763
C12 C 0.7620(4) -0.1805(3) 0.3043(5)
H17 H 0.7886 -0.1948 0.2380
C13 C 0.7101(6) -0.1889(3) 0.6002(6)
H18 H 0.7564 -0.2249 0.6236
H19 H 0.6299 -0.1974 0.6055
H20 H 0.7368 -0.1547 0.6501
C15 C 0.9158(5) 0.2426(2) 0.4291(5)
H21 H 0.8984 0.2847 0.4273
C16 C 0.6526(4) 0.1411(2) 0.4573(4)
H22 H 0.7072 0.1206 0.4162
H23 H 0.6654 0.1850 0.4563
H24 H 0.5746 0.1320 0.4206
S1 S 0.63673(11) 0.11428(6) 0.10454(11)
C14 C 0.5003(5) 0.0838(2) 0.1389(5)
O1 O 0.6867(5) 0.1469(3) 0.2057(4)
O2 O 0.5997(4) 0.15439(19) 0.0073(3)
O3 O 0.6961(4) 0.0600(2) 0.0744(5)
F1 F 0.5168(4) 0.04357(19) 0.2245(4)
F2 F 0.4365(4) 0.12807(19) 0.1761(5)
F3 F 0.4382(4) 0.0571(3) 0.0508(4)
S2 S 0.59813(13) 0.32171(7) 0.54041(14)
F4 F 0.4534(6) 0.4145(3) 0.5343(5)
F5 F 0.4382(5) 0.3642(3) 0.3796(4)
F6 F 0.5769(6) 0.4241(3) 0.4199(6)
O4 O 0.5107(5) 0.2808(3) 0.5728(6)
O5 O 0.6610(5) 0.3507(4) 0.6401(5)
C17 C 0.5153(7) 0.3852(3) 0.4690(6)
O6 O 0.6669(5) 0.3003(2) 0.4581(5)
loop_
_geom_bond_atom_site_label_1
_geom_bond_atom_site_label_2
_geom_bond_site_symmetry_1
_geom_bond_site_symmetry_2
Se1 Se2 1_555 1_555
Se2 C5 1_555 1_555
Se3 Se1 1_555 1_555
N1 C1 1_555 1_555
N2 C5 1_555 1_555
N3 C1 1_555 1_555
N4 C4 1_555 1_555
N5 C2 1_555 1_555
C1 Se3 1_555 1_555
C2 Se1 1_555 1_555
N6 C2 1_555 1_555
C3 N6 1_555 1_555
H1 C3 1_555 1_555
C4 H2 1_555 1_555
H3 C4 1_555 1_555
H4 C4 1_555 1_555
C5 N4 1_555 1_555
C6 N3 1_555 1_555
H5 C6 1_555 1_555
C7 N5 1_555 1_555
H6 C7 1_555 1_555
H7 C7 1_555 1_555
H8 C7 1_555 1_555
C8 N5 1_555 1_555
H9 C8 1_555 1_555
C9 N1 1_555 1_555
H10 C9 1_555 1_555
H11 C9 1_555 1_555
H12 C9 1_555 1_555
C10 N4 1_555 1_555
H13 C10 1_555 1_555
C11 N2 1_555 1_555
H14 C11 1_555 1_555
H15 C11 1_555 1_555
H16 C11 1_555 1_555
C12 N1 1_555 1_555
H17 C12 1_555 1_555
C13 N3 1_555 1_555
H18 C13 1_555 1_555
H19 C13 1_555 1_555
H20 C13 1_555 1_555
S1 C14 1_555 1_555
C14 F1 1_555 1_555
C15 N2 1_555 1_555
H21 C15 1_555 1_555
O1 S1 1_555 1_555
O2 S1 1_555 1_555
O3 S1 1_555 1_555
S2 O4 1_555 1_555
F2 C14 1_555 1_555
F3 C14 1_555 1_555
C16 N6 1_555 1_555
H22 C16 1_555 1_555
H23 C16 1_555 1_555
H24 C16 1_555 1_555
F4 C17 1_555 1_555
F5 C17 1_555 1_555
F6 C17 1_555 1_555
O5 S2 1_555 1_555
C17 S2 1_555 1_555
O6 S2 1_555 1_555
C3 C8 1_555 1_555
C6 C12 1_555 1_555
C10 C15 1_555 1_555

#END
