
#######################################################################
#
#                 Cambridge Crystallographic Data Centre
#                                CCDC 
#
#######################################################################
#
# If this CIF has been generated from an entry in the Cambridge 
# Structural Database, then it will include bibliographic, chemical, 
# crystal, experimental, refinement or atomic coordinate data resulting 
# from the CCDC's data processing and validation procedures.
#
#######################################################################

data_CAQKEN
_chemical_formula_moiety         'C21 H15 F1 O2'
_chemical_name_systematic        
2-(3-fluorophenyl)-2-(4-methylphenyl)-1-benzofuran-3(2H)-one
_symmetry_cell_setting           monoclinic
_symmetry_space_group_name_H-M   'P 21'
_symmetry_Int_Tables_number      4
_space_group_name_Hall           'P 2yb'
loop_
_symmetry_equiv_pos_site_id
_symmetry_equiv_pos_as_xyz
1 x,y,z
2 -x,1/2+y,-z
_cell_length_a                   6.2656(5)
_cell_length_b                   15.4462(11)
_cell_length_c                   8.1799(6)
_cell_angle_alpha                90
_cell_angle_beta                 94.209(3)
_cell_angle_gamma                90
_cell_volume                     789.513
_exptl_crystal_colour            colorless
_exptl_crystal_description       block
_cell_formula_units_Z            2
loop_
_atom_site_label
_atom_site_type_symbol
_atom_site_fract_x
_atom_site_fract_y
_atom_site_fract_z
O1 O 0.5803(2) 0.45683(10) 0.61887(17)
F1 F 0.2661(2) 0.45634(15) 0.04894(17)
O2 O 1.0921(2) 0.40001(11) 0.49132(19)
C1 C 0.6995(3) 0.49787(13) 0.3530(2)
C2 C 0.8473(4) 0.53492(15) 0.2545(3)
H1 H 0.9807 0.5536 0.3015
C3 C 0.6076(3) 0.37235(15) 0.6649(2)
C4 C 0.8583(3) 0.56437(14) 0.6186(2)
C5 C 0.9163(3) 0.40319(15) 0.5441(2)
C6 C 0.5023(3) 0.47094(16) 0.2843(3)
H2 H 0.4007 0.4459 0.3489
C7 C 0.7979(4) 0.54424(15) 0.0876(3)
H3 H 0.8990 0.5687 0.0217
C8 C 1.1390(4) 0.64610(18) 0.7647(3)
H4 H 1.2810 0.6492 0.8102
C9 C 1.0071(4) 0.71695(16) 0.7778(3)
C10 C 0.7672(3) 0.48310(14) 0.5339(2)
C11 C 0.7254(4) 0.63584(16) 0.6290(3)
H5 H 0.5841 0.6334 0.5819
C12 C 0.7985(4) 0.33614(15) 0.6237(3)
C13 C 1.0688(4) 0.57016(16) 0.6864(3)
H6 H 1.1627 0.5231 0.6792
C14 C 0.4588(4) 0.32586(16) 0.7476(3)
H7 H 0.3309 0.3510 0.7779
C15 C 0.4594(4) 0.48202(17) 0.1174(3)
C16 C 1.0862(6) 0.79839(19) 0.8642(4)
H8 H 1.0393 0.7991 0.9746
H9 H 1.0290 0.8485 0.8045
H10 H 1.2413 0.7999 0.8690
C17 C 0.8468(4) 0.24952(17) 0.6597(3)
H11 H 0.9750 0.2243 0.6301
C18 C 0.6018(4) 0.51792(18) 0.0171(3)
H12 H 0.5668 0.5244 -0.0960
C19 C 0.7982(4) 0.71052(16) 0.7079(3)
H13 H 0.7050 0.7579 0.7145
C20 C 0.5102(4) 0.24030(18) 0.7828(3)
H14 H 0.4134 0.2064 0.8377
C21 C 0.7007(5) 0.20265(17) 0.7395(4)
H15 H 0.7290 0.1443 0.7656
loop_
_geom_bond_atom_site_label_1
_geom_bond_atom_site_label_2
_geom_bond_site_symmetry_1
_geom_bond_site_symmetry_2
O1 C3 1_555 1_555
F1 C15 1_555 1_555
O2 C5 1_555 1_555
C1 C2 1_555 1_555
C2 H1 1_555 1_555
C3 C12 1_555 1_555
C4 C10 1_555 1_555
C5 C10 1_555 1_555
C6 C1 1_555 1_555
H2 C6 1_555 1_555
C7 C2 1_555 1_555
H3 C7 1_555 1_555
C8 H4 1_555 1_555
C9 C8 1_555 1_555
C10 O1 1_555 1_555
C11 C4 1_555 1_555
H5 C11 1_555 1_555
C12 C5 1_555 1_555
C13 C4 1_555 1_555
H6 C13 1_555 1_555
C14 C3 1_555 1_555
H7 C14 1_555 1_555
C15 C6 1_555 1_555
C16 C9 1_555 1_555
H8 C16 1_555 1_555
H9 C16 1_555 1_555
H10 C16 1_555 1_555
C17 C12 1_555 1_555
H11 C17 1_555 1_555
C18 C7 1_555 1_555
H12 C18 1_555 1_555
C19 C9 1_555 1_555
H13 C19 1_555 1_555
C20 C14 1_555 1_555
H14 C20 1_555 1_555
C21 C17 1_555 1_555
H15 C21 1_555 1_555
C1 C10 1_555 1_555
C8 C13 1_555 1_555
C11 C19 1_555 1_555
C15 C18 1_555 1_555
C20 C21 1_555 1_555

#END
