
#######################################################################
#
#                 Cambridge Crystallographic Data Centre
#                                CCDC 
#
#######################################################################
#
# If this CIF has been generated from an entry in the Cambridge 
# Structural Database, then it will include bibliographic, chemical, 
# crystal, experimental, refinement or atomic coordinate data resulting 
# from the CCDC's data processing and validation procedures.
#
#######################################################################

data_CAQKUD
_chemical_formula_moiety         'C13 H14 N3 1+,C6 H2 N3 O7 1-,2(C3 H6 O1)'
_chemical_name_systematic        
'dianilinomethaniminium 2,4,6-trinitrophenolate acetone solvate'
_symmetry_cell_setting           monoclinic
_symmetry_space_group_name_H-M   'C c'
_symmetry_Int_Tables_number      9
_space_group_name_Hall           'C -2yc'
loop_
_symmetry_equiv_pos_site_id
_symmetry_equiv_pos_as_xyz
1 x,y,z
2 x,-y,1/2+z
3 1/2+x,1/2+y,z
4 1/2+x,1/2-y,1/2+z
_cell_length_a                   22.6439(4)
_cell_length_b                   5.79490(10)
_cell_length_c                   22.5798(4)
_cell_angle_alpha                90
_cell_angle_beta                 113.1440(10)
_cell_angle_gamma                90
_cell_volume                     2724.45
_exptl_crystal_colour            orange
_exptl_crystal_description       Rectangle
_cell_formula_units_Z            4
loop_
_atom_site_label
_atom_site_type_symbol
_atom_site_fract_x
_atom_site_fract_y
_atom_site_fract_z
C1 C 0.57123(9) 1.0393(3) 0.36843(9)
H1 H 0.5826 1.0019 0.3343
C2 C 0.52875(9) 0.8991(3) 0.38256(8)
H2 H 0.5115 0.7683 0.3580
C3 C 0.51227(7) 0.9570(3) 0.43409(7)
C4 C 0.53831(8) 1.1497(3) 0.47131(8)
H3 H 0.5272 1.1868 0.5057
C5 C 0.58114(9) 1.2875(3) 0.45696(9)
H4 H 0.5995 1.4158 0.4823
C6 C 0.59660(9) 1.2338(3) 0.40485(9)
H5 H 0.6241 1.3292 0.3944
N1 N 0.46608(7) 0.8166(2) 0.44611(6)
H6 H 0.4275 0.8132 0.4172
C7 C 0.47906(7) 0.6908(3) 0.49925(7)
N2 N 0.53735(6) 0.6880(2) 0.54620(6)
H7 H 0.5677 0.7685 0.5427
H8 H 0.5447 0.6057 0.5801
N3 N 0.43248(6) 0.5644(2) 0.50597(6)
H9 H 0.4411 0.4897 0.5413
C8 C 0.36868(7) 0.5482(3) 0.45667(7)
C9 C 0.35091(8) 0.3547(3) 0.41796(8)
H10 H 0.3804 0.2365 0.4234
C10 C 0.28948(9) 0.3366(3) 0.37123(8)
H11 H 0.2774 0.2058 0.3454
C11 C 0.24577(9) 0.5144(4) 0.36290(8)
H12 H 0.2042 0.5024 0.3317
C12 C 0.26417(8) 0.7090(3) 0.40109(9)
H13 H 0.2351 0.8292 0.3948
C13 C 0.32547(8) 0.7268(3) 0.44866(8)
H14 H 0.3375 0.8567 0.4749
C14 C 0.59240(7) 0.0503(3) 0.67383(7)
C15 C 0.52742(7) 0.1380(3) 0.64232(7)
C16 C 0.48035(8) -0.0169(3) 0.64940(8)
C17 C 0.49491(8) -0.2144(3) 0.68591(8)
H15 H 0.4627 -0.3027 0.6905
C18 C 0.55861(8) -0.2789(3) 0.71561(8)
C19 C 0.60729(8) -0.1502(3) 0.70897(7)
H16 H 0.6497 -0.1994 0.7282
N4 N 0.57478(7) -0.4867(3) 0.75444(6)
O1 O 0.53071(7) -0.5970(2) 0.75997(6)
O2 O 0.63179(7) -0.5431(2) 0.78057(6)
N5 N 0.64632(7) 0.1804(2) 0.67061(6)
O3 O 0.70094(6) 0.1228(2) 0.70709(6)
O4 O 0.63600(6) 0.3395(2) 0.63217(7)
O5 O 0.51305(6) 0.32824(19) 0.61445(5)
N6 N 0.41269(7) 0.0414(3) 0.61807(7)
O6 O 0.37533(8) -0.0398(4) 0.63908(10)
O7 O 0.39419(7) 0.1568(3) 0.56837(8)
C20 C 0.34119(8) 0.7659(3) 0.27528(8)
O8 O 0.36197(6) 0.8655(2) 0.32702(6)
C21 C 0.37000(11) 0.5480(4) 0.26434(11)
H17 H 0.4039 0.5002 0.3038
H18 H 0.3871 0.5727 0.2321
H19 H 0.3376 0.4302 0.2500
C22 C 0.28576(9) 0.8634(4) 0.21973(9)
H20 H 0.2690 0.9950 0.2338
H21 H 0.2528 0.7484 0.2031
H22 H 0.2998 0.9095 0.1866
C23 C 0.70880(8) 0.8857(3) 0.54938(8)
O9 O 0.66335(6) 0.8523(3) 0.56412(7)
C24 C 0.75485(12) 1.0796(4) 0.57774(11)
H23 H 0.7407 1.1699 0.6054
H24 H 0.7566 1.1754 0.5438
H25 H 0.7968 1.0182 0.6023
C25 C 0.72197(11) 0.7361(4) 0.50227(11)
H26 H 0.7594 0.6438 0.5245
H27 H 0.7293 0.8310 0.4709
H28 H 0.6858 0.6372 0.4810
loop_
_geom_bond_atom_site_label_1
_geom_bond_atom_site_label_2
_geom_bond_site_symmetry_1
_geom_bond_site_symmetry_2
C1 H1 1_555 1_555
C2 C1 1_555 1_555
H2 C2 1_555 1_555
C3 C2 1_555 1_555
C4 C3 1_555 1_555
H3 C4 1_555 1_555
C5 C4 1_555 1_555
H4 C5 1_555 1_555
C6 C1 1_555 1_555
H5 C6 1_555 1_555
N1 C3 1_555 1_555
H6 N1 1_555 1_555
C7 N1 1_555 1_555
N2 C7 1_555 1_555
H7 N2 1_555 1_555
H8 N2 1_555 1_555
N3 C7 1_555 1_555
H9 N3 1_555 1_555
C8 N3 1_555 1_555
C9 C8 1_555 1_555
H10 C9 1_555 1_555
C10 C9 1_555 1_555
H11 C10 1_555 1_555
C11 C10 1_555 1_555
H12 C11 1_555 1_555
C12 C11 1_555 1_555
H13 C12 1_555 1_555
C13 C8 1_555 1_555
H14 C13 1_555 1_555
C14 C15 1_555 1_555
C15 C16 1_555 1_555
C16 C17 1_555 1_555
C17 H15 1_555 1_555
C18 C17 1_555 1_555
C19 C14 1_555 1_555
H16 C19 1_555 1_555
N4 C18 1_555 1_555
O1 N4 1_555 1_555
O2 N4 1_555 1_555
N5 C14 1_555 1_555
O3 N5 1_555 1_555
O4 N5 1_555 1_555
O5 C15 1_555 1_555
N6 C16 1_555 1_555
O6 N6 1_555 1_555
O7 N6 1_555 1_555
C20 O8 1_555 1_555
C21 C20 1_555 1_555
H17 C21 1_555 1_555
H18 C21 1_555 1_555
H19 C21 1_555 1_555
C22 C20 1_555 1_555
H20 C22 1_555 1_555
H21 C22 1_555 1_555
H22 C22 1_555 1_555
C23 O9 1_555 1_555
C24 C23 1_555 1_555
H23 C24 1_555 1_555
H24 C24 1_555 1_555
H25 C24 1_555 1_555
C25 C23 1_555 1_555
H26 C25 1_555 1_555
H27 C25 1_555 1_555
H28 C25 1_555 1_555
C5 C6 1_555 1_555
C12 C13 1_555 1_555
C18 C19 1_555 1_555

#END
