
#######################################################################
#
#                 Cambridge Crystallographic Data Centre
#                                CCDC 
#
#######################################################################
#
# If this CIF has been generated from an entry in the Cambridge 
# Structural Database, then it will include bibliographic, chemical, 
# crystal, experimental, refinement or atomic coordinate data resulting 
# from the CCDC's data processing and validation procedures.
#
#######################################################################

data_CAQSOD
_chemical_formula_moiety         'C18 H10 F1 N1 O2'
_chemical_name_systematic        
2-(4-Fluorophenyl)pyrido(2,1-a)isoindole-4,6-dione
_chemical_properties_biological  
'potential inhibitor of tumour cell proliferation'
_symmetry_cell_setting           monoclinic
_symmetry_space_group_name_H-M   'P 21/a'
_symmetry_Int_Tables_number      14
_space_group_name_Hall           '-P 2yab'
loop_
_symmetry_equiv_pos_site_id
_symmetry_equiv_pos_as_xyz
1 x,y,z
2 1/2-x,1/2+y,-z
3 -x,-y,-z
4 1/2+x,1/2-y,z
_cell_length_a                   13.185(5)
_cell_length_b                   4.852(2)
_cell_length_c                   21.305(6)
_cell_angle_alpha                90
_cell_angle_beta                 104.28(3)
_cell_angle_gamma                90
_cell_volume                     1320.85
_exptl_crystal_colour            green
_exptl_crystal_description       parallelepiped
_chemical_melting_point          276-278deg.C
_cell_formula_units_Z            4
loop_
_atom_site_label
_atom_site_type_symbol
_atom_site_fract_x
_atom_site_fract_y
_atom_site_fract_z
F1 F 0.1875(6) 1.1991(16) 0.4860(4)
N1 N -0.3388(4) 0.7796(11) 0.1950(3)
O1 O -0.5079(4) 0.7380(11) 0.1267(3)
O2 O -0.4360(4) 1.1094(11) 0.2310(3)
C1 C 0.1036(11) 1.135(2) 0.4387(6)
C2 C 0.0126(17) 1.238(4) 0.4384(10)
H1 H 0.0056 1.3554 0.4717
C3 C -0.0742(13) 1.176(4) 0.3888(8)
H2 H -0.1372 1.2623 0.3884
C4 C -0.0715(6) 1.0023(16) 0.3431(3)
C5 C 0.0232(7) 0.901(3) 0.3466(4)
H3 H 0.0312 0.7768 0.3149
C6 C 0.1108(8) 0.970(4) 0.3950(4)
H4 H 0.1754 0.8928 0.3949
C7 C -0.1641(5) 0.9313(13) 0.2912(3)
C8 C -0.1573(5) 0.7255(13) 0.2442(3)
H5 H -0.0936 0.6402 0.2457
C9 C -0.2424(5) 0.6552(13) 0.1982(3)
C10 C -0.2585(5) 0.4557(12) 0.1463(3)
C11 C -0.1892(5) 0.2742(14) 0.1279(3)
H6 H -0.1191 0.2669 0.1502
C12 C -0.2285(5) 0.1062(14) 0.0756(3)
H7 H -0.1836 -0.0164 0.0624
C13 C -0.3312(5) 0.1131(14) 0.0422(3)
H8 H -0.3543 -0.0033 0.0069
C14 C -0.4011(5) 0.2889(15) 0.0599(3)
H9 H -0.4711 0.2933 0.0375
C15 C -0.3627(5) 0.4598(13) 0.1128(3)
C16 C -0.4170(5) 0.6715(14) 0.1424(3)
C17 C -0.3518(5) 0.9953(15) 0.2368(3)
C18 C -0.2591(6) 1.0537(15) 0.2860(3)
H10 H -0.2638 1.1853 0.3169
loop_
_geom_bond_atom_site_label_1
_geom_bond_atom_site_label_2
_geom_bond_site_symmetry_1
_geom_bond_site_symmetry_2
F1 C1 1_555 1_555
N1 C9 1_555 1_555
O1 C16 1_555 1_555
O2 C17 1_555 1_555
C1 C2 1_555 1_555
C2 H1 1_555 1_555
C3 C2 1_555 1_555
H2 C3 1_555 1_555
C4 C3 1_555 1_555
C5 C4 1_555 1_555
H3 C5 1_555 1_555
C6 C1 1_555 1_555
H4 C6 1_555 1_555
C7 C4 1_555 1_555
C8 C7 1_555 1_555
H5 C8 1_555 1_555
C9 C8 1_555 1_555
C10 C9 1_555 1_555
C11 C10 1_555 1_555
H6 C11 1_555 1_555
C12 C11 1_555 1_555
H7 C12 1_555 1_555
C13 C12 1_555 1_555
H8 C13 1_555 1_555
C14 C13 1_555 1_555
H9 C14 1_555 1_555
C15 C10 1_555 1_555
C16 N1 1_555 1_555
C17 N1 1_555 1_555
C18 C7 1_555 1_555
H10 C18 1_555 1_555
C5 C6 1_555 1_555
C14 C15 1_555 1_555
C15 C16 1_555 1_555
C17 C18 1_555 1_555

#END
