
#######################################################################
#
#                 Cambridge Crystallographic Data Centre
#                                CCDC 
#
#######################################################################
#
# If this CIF has been generated from an entry in the Cambridge 
# Structural Database, then it will include bibliographic, chemical, 
# crystal, experimental, refinement or atomic coordinate data resulting 
# from the CCDC's data processing and validation procedures.
#
#######################################################################

data_CAQVAT
_chemical_formula_moiety         'C32 H24 B1 F10 1-,C12 H28 P1 1+'
_chemical_name_systematic        
'Tri-t-butylphosphonium bis(perfluorophenyl)-((1R,2R,3R,4S)-4,7,7-trimethyl-3-phenylbicyclo[2.2.1]heptan-2-yl)borohydride'
_symmetry_cell_setting           orthorhombic
_symmetry_space_group_name_H-M   'P 21 21 21'
_symmetry_Int_Tables_number      19
_space_group_name_Hall           'P 2ac 2ab'
loop_
_symmetry_equiv_pos_site_id
_symmetry_equiv_pos_as_xyz
1 x,y,z
2 1/2-x,-y,1/2+z
3 -x,1/2+y,1/2-z
4 1/2+x,1/2-y,-z
_cell_length_a                   13.2200(17)
_cell_length_b                   15.156(2)
_cell_length_c                   20.705(3)
_cell_angle_alpha                90
_cell_angle_beta                 90
_cell_angle_gamma                90
_cell_volume                     4148.5
_exptl_crystal_colour            colorless
_exptl_crystal_description       block
_cell_formula_units_Z            4
loop_
_atom_site_label
_atom_site_type_symbol
_atom_site_fract_x
_atom_site_fract_y
_atom_site_fract_z
F1 F 0.44064(18) -0.08900(17) 0.55764(12)
F2 F 0.5350(2) -0.23084(18) 0.51549(14)
F3 F 0.4527(2) -0.33377(18) 0.42165(15)
F4 F 0.2718(2) -0.28844(18) 0.36921(14)
F5 F 0.1745(2) -0.14527(18) 0.40966(13)
F6 F 0.41671(19) 0.04826(18) 0.44617(13)
F7 F 0.4256(3) 0.1779(2) 0.35930(16)
F8 F 0.2531(3) 0.2492(2) 0.31001(16)
F9 F 0.0705(3) 0.1882(2) 0.35082(16)
F10 F 0.05860(19) 0.06205(18) 0.43956(13)
C1 C 0.2994(3) -0.1097(3) 0.4867(2)
C2 C 0.3923(3) -0.1368(3) 0.5108(2)
C3 C 0.4441(3) -0.2100(3) 0.4902(2)
C4 C 0.4037(4) -0.2616(3) 0.4424(2)
C5 C 0.3117(4) -0.2382(3) 0.4166(2)
C6 C 0.2638(3) -0.1645(3) 0.4389(2)
C7 C 0.2373(3) 0.0486(3) 0.44757(18)
C8 C 0.3276(4) 0.0812(3) 0.4238(2)
C9 C 0.3352(4) 0.1479(3) 0.3788(2)
C10 C 0.2468(5) 0.1837(3) 0.3555(2)
C11 C 0.1562(4) 0.1540(3) 0.3754(2)
C12 C 0.1537(3) 0.0877(3) 0.4203(2)
C13 C 0.2715(3) 0.0297(3) 0.57212(19)
H1 H 0.3425 0.0489 0.5633
C14 C 0.2095(3) 0.1154(3) 0.58713(19)
H2 H 0.1395 0.1052 0.5704
C15 C 0.2464(3) 0.2006(3) 0.55678(19)
C16 C 0.3521(3) 0.2200(3) 0.5493(2)
H3 H 0.4013 0.1804 0.5659
C17 C 0.3825(3) 0.2957(3) 0.5182(2)
H4 H 0.4528 0.3077 0.5142
C18 C 0.3128(3) 0.3556(3) 0.4921(2)
C19 C 0.3424(4) 0.4331(3) 0.4582(2)
H5 H 0.4122 0.4452 0.4517
C20 C 0.2717(4) 0.4900(3) 0.4350(2)
H6 H 0.2925 0.5419 0.4130
C21 C 0.1691(4) 0.4731(3) 0.4432(2)
H7 H 0.1209 0.5134 0.4263
C22 C 0.1364(4) 0.3993(3) 0.4753(2)
H8 H 0.0661 0.3890 0.4810
C23 C 0.2085(3) 0.3381(3) 0.5000(2)
C24 C 0.1792(3) 0.2599(3) 0.53319(19)
H9 H 0.1091 0.2487 0.5391
C25 C 0.2020(3) 0.1153(3) 0.6625(2)
C26 C 0.1288(4) 0.1827(3) 0.6905(2)
H10 H 0.0622 0.1753 0.6705
H11 H 0.1540 0.2424 0.6818
H12 H 0.1232 0.1740 0.7373
C27 C 0.1770(3) 0.0152(3) 0.6747(2)
C28 C 0.1739(4) -0.0101(3) 0.7465(2)
H13 H 0.2368 0.0086 0.7674
H14 H 0.1665 -0.0742 0.7506
H15 H 0.1164 0.0191 0.7673
C29 C 0.0772(3) -0.0162(3) 0.6456(2)
H16 H 0.0756 -0.0015 0.5995
H17 H 0.0208 0.0131 0.6676
H18 H 0.0711 -0.0802 0.6510
C30 C 0.2727(3) -0.0168(3) 0.63944(19)
H19 H 0.2791 -0.0825 0.6371
C31 C 0.3566(4) 0.0280(3) 0.6783(2)
H20 H 0.4202 0.0318 0.6532
H21 H 0.3698 -0.0035 0.7194
C32 C 0.3105(3) 0.1210(3) 0.6907(2)
H22 H 0.3086 0.1344 0.7375
H23 H 0.3503 0.1672 0.6684
B1 B 0.2330(4) -0.0220(3) 0.5078(2)
H24 H 0.1539 -0.0422 0.5151
P1 P 0.71528(9) 0.08439(8) 0.80638(6)
H25 H 0.7147 0.1195 0.7599
C33 C 0.5948(3) 0.1177(3) 0.8454(2)
C34 C 0.5929(4) 0.0978(3) 0.9172(2)
H26 H 0.6489 0.1287 0.9385
H27 H 0.6002 0.0341 0.9240
H28 H 0.5286 0.1177 0.9356
C35 C 0.5768(4) 0.2167(3) 0.8326(3)
H29 H 0.5784 0.2279 0.7860
H30 H 0.6299 0.2513 0.8538
H31 H 0.5107 0.2339 0.8499
C36 C 0.5066(4) 0.0678(4) 0.8131(2)
H32 H 0.5067 0.0798 0.7666
H33 H 0.4424 0.0875 0.8319
H34 H 0.5147 0.0043 0.8204
C37 C 0.7230(4) -0.0351(3) 0.7832(2)
C38 C 0.6495(4) -0.0487(4) 0.7254(2)
H35 H 0.6694 -0.0100 0.6897
H36 H 0.5804 -0.0344 0.7390
H37 H 0.6524 -0.1104 0.7112
C39 C 0.6932(4) -0.0956(3) 0.8391(2)
H38 H 0.7398 -0.0866 0.8753
H39 H 0.6965 -0.1572 0.8249
H40 H 0.6241 -0.0817 0.8529
C40 C 0.8298(4) -0.0590(4) 0.7593(3)
H41 H 0.8482 -0.0203 0.7232
H42 H 0.8307 -0.1205 0.7448
H43 H 0.8784 -0.0512 0.7945
C41 C 0.8312(3) 0.1271(3) 0.8484(2)
C42 C 0.9156(4) 0.1361(4) 0.7977(3)
H44 H 0.9306 0.0780 0.7793
H45 H 0.9765 0.1600 0.8182
H46 H 0.8933 0.1761 0.7633
C43 C 0.8621(4) 0.0676(4) 0.9038(3)
H47 H 0.8741 0.0078 0.8875
H48 H 0.8080 0.0662 0.9361
H49 H 0.9242 0.0904 0.9236
C44 C 0.8120(4) 0.2201(3) 0.8746(3)
H50 H 0.7922 0.2592 0.8391
H51 H 0.8739 0.2427 0.8948
H52 H 0.7576 0.2181 0.9068
loop_
_geom_bond_atom_site_label_1
_geom_bond_atom_site_label_2
_geom_bond_site_symmetry_1
_geom_bond_site_symmetry_2
F1 C2 1_555 1_555
F2 C3 1_555 1_555
F3 C4 1_555 1_555
F4 C5 1_555 1_555
F5 C6 1_555 1_555
F6 C8 1_555 1_555
F7 C9 1_555 1_555
F8 C10 1_555 1_555
F9 C11 1_555 1_555
F10 C12 1_555 1_555
C1 C2 1_555 1_555
C2 C3 1_555 1_555
C3 C4 1_555 1_555
C4 C5 1_555 1_555
C5 C6 1_555 1_555
C6 C1 1_555 1_555
C7 C8 1_555 1_555
C8 C9 1_555 1_555
C9 C10 1_555 1_555
C10 C11 1_555 1_555
C11 C12 1_555 1_555
C12 C7 1_555 1_555
C13 H1 1_555 1_555
C14 C13 1_555 1_555
H2 C14 1_555 1_555
C15 C14 1_555 1_555
C16 C15 1_555 1_555
H3 C16 1_555 1_555
C17 C16 1_555 1_555
H4 C17 1_555 1_555
C18 C17 1_555 1_555
C19 C18 1_555 1_555
H5 C19 1_555 1_555
C20 C19 1_555 1_555
H6 C20 1_555 1_555
C21 C20 1_555 1_555
H7 C21 1_555 1_555
C22 C21 1_555 1_555
H8 C22 1_555 1_555
C23 C18 1_555 1_555
C24 C15 1_555 1_555
H9 C24 1_555 1_555
C25 C14 1_555 1_555
C26 C25 1_555 1_555
H10 C26 1_555 1_555
H11 C26 1_555 1_555
H12 C26 1_555 1_555
C27 C25 1_555 1_555
C28 C27 1_555 1_555
H13 C28 1_555 1_555
H14 C28 1_555 1_555
H15 C28 1_555 1_555
C29 C27 1_555 1_555
H16 C29 1_555 1_555
H17 C29 1_555 1_555
H18 C29 1_555 1_555
C30 C13 1_555 1_555
H19 C30 1_555 1_555
C31 C30 1_555 1_555
H20 C31 1_555 1_555
H21 C31 1_555 1_555
C32 C25 1_555 1_555
H22 C32 1_555 1_555
H23 C32 1_555 1_555
B1 C1 1_555 1_555
H24 B1 1_555 1_555
P1 H25 1_555 1_555
C33 P1 1_555 1_555
C34 C33 1_555 1_555
H26 C34 1_555 1_555
H27 C34 1_555 1_555
H28 C34 1_555 1_555
C35 C33 1_555 1_555
H29 C35 1_555 1_555
H30 C35 1_555 1_555
H31 C35 1_555 1_555
C36 C33 1_555 1_555
H32 C36 1_555 1_555
H33 C36 1_555 1_555
H34 C36 1_555 1_555
C37 P1 1_555 1_555
C38 C37 1_555 1_555
H35 C38 1_555 1_555
H36 C38 1_555 1_555
H37 C38 1_555 1_555
C39 C37 1_555 1_555
H38 C39 1_555 1_555
H39 C39 1_555 1_555
H40 C39 1_555 1_555
C40 C37 1_555 1_555
H41 C40 1_555 1_555
H42 C40 1_555 1_555
H43 C40 1_555 1_555
C41 P1 1_555 1_555
C42 C41 1_555 1_555
H44 C42 1_555 1_555
H45 C42 1_555 1_555
H46 C42 1_555 1_555
C43 C41 1_555 1_555
H47 C43 1_555 1_555
H48 C43 1_555 1_555
H49 C43 1_555 1_555
C44 C41 1_555 1_555
H50 C44 1_555 1_555
H51 C44 1_555 1_555
H52 C44 1_555 1_555
C7 B1 1_555 1_555
C13 B1 1_555 1_555
C22 C23 1_555 1_555
C23 C24 1_555 1_555
C27 C30 1_555 1_555
C31 C32 1_555 1_555

#END
