
#######################################################################
#
#                 Cambridge Crystallographic Data Centre
#                                CCDC 
#
#######################################################################
#
# If this CIF has been generated from an entry in the Cambridge 
# Structural Database, then it will include bibliographic, chemical, 
# crystal, experimental, refinement or atomic coordinate data resulting 
# from the CCDC's data processing and validation procedures.
#
#######################################################################

data_CARBIJ01
_chemical_formula_moiety         'C32 H23 N1'
_chemical_name_systematic        3-(anthracen-9-yl)-N,N-diphenylaniline
_symmetry_cell_setting           orthorhombic
_symmetry_space_group_name_H-M   'P c c n'
_symmetry_Int_Tables_number      56
_space_group_name_Hall           '-P 2ab 2ac'
loop_
_symmetry_equiv_pos_site_id
_symmetry_equiv_pos_as_xyz
1 x,y,z
2 1/2-x,1/2-y,z
3 -x,1/2+y,1/2-z
4 1/2+x,-y,1/2-z
5 -x,-y,-z
6 1/2+x,1/2+y,-z
7 x,1/2-y,1/2+z
8 1/2-x,y,1/2+z
_cell_length_a                   18.1663(17)
_cell_length_b                   29.653(3)
_cell_length_c                   8.5668(8)
_cell_angle_alpha                90
_cell_angle_beta                 90
_cell_angle_gamma                90
_cell_volume                     4614.81
_exptl_crystal_colour            colorless
_exptl_crystal_description       block
_chemical_melting_point          '454 K'
_cell_formula_units_Z            8
_chemical_properties_physical    ', Heat-sensitive'
_exptl_crystal_recrystallization_method dichloromethane/methanol
_exptl_crystal_preparation       ', Luminescent'
loop_
_atom_site_label
_atom_site_type_symbol
_atom_site_fract_x
_atom_site_fract_y
_atom_site_fract_z
C1 C 0.13901(10) 0.49882(6) 0.5574(2)
C2 C 0.18015(11) 0.46803(7) 0.6432(2)
H1 H 0.1959 0.4414 0.5964
C3 C 0.19793(11) 0.47654(8) 0.7969(2)
H2 H 0.2244 0.4552 0.8533
C4 C 0.17703(13) 0.51611(8) 0.8680(3)
H3 H 0.1890 0.5217 0.9717
C5 C 0.13822(13) 0.54713(8) 0.7827(2)
H4 H 0.1248 0.5743 0.8288
C6 C 0.11858(11) 0.53883(7) 0.6295(2)
H5 H 0.0915 0.5602 0.5744
C7 C 0.09855(11) 0.52539(6) 0.2994(2)
C8 C 0.14307(12) 0.56324(6) 0.2852(2)
H6 H 0.1879 0.5644 0.3377
C9 C 0.12120(15) 0.59904(7) 0.1938(3)
H7 H 0.1511 0.6244 0.1861
C10 C 0.05568(16) 0.59763(8) 0.1141(3)
H8 H 0.0406 0.6221 0.0544
C11 C 0.01256(13) 0.55964(9) 0.1236(3)
H9 H -0.0311 0.5581 0.0670
C12 C 0.03339(12) 0.52377(7) 0.2161(2)
H10 H 0.0035 0.4984 0.2225
C13 C 0.10506(10) 0.44431(6) 0.3543(2)
C14 C 0.12581(11) 0.42982(7) 0.2062(2)
H11 H 0.1472 0.4500 0.1367
C15 C 0.11487(12) 0.38573(7) 0.1621(2)
H12 H 0.1282 0.3766 0.0621
C16 C 0.08450(12) 0.35498(7) 0.2638(2)
H13 H 0.0784 0.3251 0.2333
C17 C 0.06306(11) 0.36865(6) 0.4121(2)
C18 C 0.07269(10) 0.41344(6) 0.4547(2)
H14 H 0.0571 0.4229 0.5527
C19 C 0.03000(12) 0.33690(6) 0.5280(2)
C20 C -0.04440(13) 0.32491(6) 0.5157(3)
C21 C -0.09072(13) 0.34089(7) 0.3938(3)
H15 H -0.0709 0.3591 0.3160
C22 C -0.16324(15) 0.33014(9) 0.3888(4)
H16 H -0.1925 0.3414 0.3088
C23 C -0.19444(17) 0.30227(10) 0.5028(5)
H17 H -0.2443 0.2952 0.4979
C24 C -0.15291(18) 0.28561(9) 0.6196(4)
H18 H -0.1744 0.2668 0.6936
C25 C -0.07680(15) 0.29617(7) 0.6318(3)
C26 C -0.03357(17) 0.28074(7) 0.7533(3)
H19 H -0.0548 0.2621 0.8283
C27 C 0.04041(16) 0.29200(7) 0.7676(3)
C28 C 0.0851(2) 0.27617(8) 0.8917(3)
H20 H 0.0641 0.2580 0.9681
C29 C 0.1569(2) 0.28665(9) 0.9022(3)
H21 H 0.1847 0.2758 0.9853
C30 C 0.19015(16) 0.31405(9) 0.7874(3)
H22 H 0.2400 0.3209 0.7944
C31 C 0.14977(14) 0.33054(8) 0.6668(3)
H23 H 0.1725 0.3487 0.5925
C32 C 0.07333(13) 0.32061(7) 0.6517(2)
N1 N 0.11827(9) 0.48952(5) 0.40154(18)
loop_
_geom_bond_atom_site_label_1
_geom_bond_atom_site_label_2
_geom_bond_site_symmetry_1
_geom_bond_site_symmetry_2
C1 C2 1_555 1_555
C2 H1 1_555 1_555
C3 C2 1_555 1_555
H2 C3 1_555 1_555
C4 C3 1_555 1_555
H3 C4 1_555 1_555
C5 C4 1_555 1_555
H4 C5 1_555 1_555
C6 C1 1_555 1_555
H5 C6 1_555 1_555
C7 C8 1_555 1_555
C8 H6 1_555 1_555
C9 C8 1_555 1_555
H7 C9 1_555 1_555
C10 C9 1_555 1_555
H8 C10 1_555 1_555
C11 C10 1_555 1_555
H9 C11 1_555 1_555
C12 C7 1_555 1_555
H10 C12 1_555 1_555
C13 C14 1_555 1_555
C14 H11 1_555 1_555
C15 C14 1_555 1_555
H12 C15 1_555 1_555
C16 C15 1_555 1_555
H13 C16 1_555 1_555
C17 C16 1_555 1_555
C18 C13 1_555 1_555
H14 C18 1_555 1_555
C19 C17 1_555 1_555
C20 C19 1_555 1_555
C21 C20 1_555 1_555
H15 C21 1_555 1_555
C22 C21 1_555 1_555
H16 C22 1_555 1_555
C23 C22 1_555 1_555
H17 C23 1_555 1_555
C24 C23 1_555 1_555
H18 C24 1_555 1_555
C25 C20 1_555 1_555
C26 C25 1_555 1_555
H19 C26 1_555 1_555
C27 C26 1_555 1_555
C28 C27 1_555 1_555
H20 C28 1_555 1_555
C29 C28 1_555 1_555
H21 C29 1_555 1_555
C30 C29 1_555 1_555
H22 C30 1_555 1_555
C31 C30 1_555 1_555
H23 C31 1_555 1_555
C32 C19 1_555 1_555
N1 C1 1_555 1_555
C5 C6 1_555 1_555
C7 N1 1_555 1_555
C11 C12 1_555 1_555
C13 N1 1_555 1_555
C17 C18 1_555 1_555
C24 C25 1_555 1_555
C27 C32 1_555 1_555
C31 C32 1_555 1_555

#END
