
#######################################################################
#
#                 Cambridge Crystallographic Data Centre
#                                CCDC 
#
#######################################################################
#
# If this CIF has been generated from an entry in the Cambridge 
# Structural Database, then it will include bibliographic, chemical, 
# crystal, experimental, refinement or atomic coordinate data resulting 
# from the CCDC's data processing and validation procedures.
#
#######################################################################

data_CARBEF
_chemical_formula_moiety         'C16 H38 Li1 N4 O1 1+,C21 H22 B1 1-'
_chemical_name_systematic        
'(N,N-tris[2-(dimethylamino)ethyl]amine)-(tetrahydrofuran)-lithium(i) hydridotris(4-methylphenyl)borate'
_symmetry_cell_setting           monoclinic
_symmetry_space_group_name_H-M   'P 21'
_symmetry_Int_Tables_number      4
_space_group_name_Hall           'P 2yb'
loop_
_symmetry_equiv_pos_site_id
_symmetry_equiv_pos_as_xyz
1 x,y,z
2 -x,1/2+y,-z
_cell_length_a                   12.765(4)
_cell_length_b                   17.436(6)
_cell_length_c                   16.405(6)
_cell_angle_alpha                90
_cell_angle_beta                 92.854(7)
_cell_angle_gamma                90
_cell_volume                     3646.74
_exptl_crystal_colour            colorless
_exptl_crystal_description       block
_cell_formula_units_Z            4
_chemical_properties_physical    
Air-sensitive,Moisture-sensitive,Oxygen-sensitive
_exptl_crystal_recrystallization_method 'tetrahydrofuran / pentane'
loop_
_atom_site_label
_atom_site_type_symbol
_atom_site_fract_x
_atom_site_fract_y
_atom_site_fract_z
Li1 Li 0.3162(8) 0.5458(6) 0.0041(7)
N1 N 0.4151(5) 0.6533(3) 0.0111(3)
N2 N 0.4071(4) 0.4347(3) -0.0015(3)
N3 N 0.1670(4) 0.5443(3) 0.0650(3)
N4 N 0.3808(4) 0.5379(3) 0.1351(3)
O1 O 0.2495(4) 0.5548(3) -0.1156(3)
C1 C 0.5150(6) 0.6362(4) -0.0260(5)
H1 H 0.5626 0.6800 -0.0184
H2 H 0.5021 0.6265 -0.0845
H3 H 0.5470 0.5907 0.0000
C2 C 0.3692(7) 0.7215(4) -0.0278(5)
H4 H 0.3644 0.7142 -0.0871
H5 H 0.4135 0.7661 -0.0144
H6 H 0.2989 0.7300 -0.0082
C3 C 0.3349(6) 0.3681(4) 0.0028(5)
H7 H 0.2946 0.3722 0.0519
H8 H 0.3758 0.3205 0.0049
H9 H 0.2867 0.3676 -0.0456
C4 C 0.4682(5) 0.4259(4) -0.0751(4)
H10 H 0.5121 0.3798 -0.0696
H11 H 0.5130 0.4710 -0.0812
H12 H 0.4202 0.4209 -0.1233
C5 C 0.0877(6) 0.4939(4) 0.0216(5)
H13 H 0.0237 0.4926 0.0522
H14 H 0.1161 0.4419 0.0175
H15 H 0.0713 0.5143 -0.0332
C6 C 0.1208(6) 0.6216(4) 0.0699(5)
H16 H 0.1698 0.6556 0.1003
H17 H 0.0549 0.6187 0.0979
H18 H 0.1069 0.6419 0.0147
C7 C 0.4313(6) 0.6694(4) 0.0996(4)
H19 H 0.3661 0.6915 0.1201
H20 H 0.4876 0.7081 0.1079
C8 C 0.4604(6) 0.5983(4) 0.1484(5)
H21 H 0.5292 0.5791 0.1320
H22 H 0.4669 0.6114 0.2071
C9 C 0.4794(5) 0.4349(4) 0.0706(4)
H23 H 0.5388 0.4697 0.0609
H24 H 0.5080 0.3826 0.0794
C10 C 0.4261(6) 0.4606(4) 0.1464(4)
H25 H 0.3698 0.4238 0.1585
H26 H 0.4777 0.4610 0.1935
C11 C 0.1911(6) 0.5140(4) 0.1471(5)
H27 H 0.2001 0.4578 0.1439
H28 H 0.1313 0.5244 0.1816
C12 C 0.2894(6) 0.5493(4) 0.1864(4)
H29 H 0.2781 0.6049 0.1945
H30 H 0.3043 0.5257 0.2406
C13 C 0.1994(6) 0.6227(4) -0.1501(4)
H31 H 0.2456 0.6485 -0.1883
H32 H 0.1822 0.6593 -0.1067
C14 C 0.1000(7) 0.5934(5) -0.1950(6)
H33 H 0.0400 0.5944 -0.1591
H34 H 0.0825 0.6249 -0.2441
C15 C 0.1266(7) 0.5117(5) -0.2186(5)
H35 H 0.1297 0.5068 -0.2786
H36 H 0.0737 0.4753 -0.1993
C16 C 0.2334(6) 0.4967(4) -0.1767(5)
H37 H 0.2352 0.4452 -0.1513
H38 H 0.2889 0.4994 -0.2166
B1 B 0.3862(6) 0.7779(4) 0.6377(5)
H39 H 0.395(6) 0.829(4) 0.588(4)
C17 C 0.3584(5) 0.6995(4) 0.5863(4)
C18 C 0.3689(6) 0.6946(4) 0.5023(4)
H40 H 0.3957 0.7380 0.4751
C19 C 0.3428(6) 0.6309(4) 0.4562(4)
H41 H 0.3517 0.6321 0.3991
C20 C 0.3039(5) 0.5649(4) 0.4911(4)
C21 C 0.2934(5) 0.5673(4) 0.5751(4)
H42 H 0.2675 0.5235 0.6020
C22 C 0.3201(6) 0.6329(4) 0.6210(4)
H43 H 0.3117 0.6319 0.6782
C23 C 0.2757(6) 0.4955(4) 0.4409(5)
H44 H 0.2403 0.4581 0.4745
H45 H 0.3396 0.4727 0.4207
H46 H 0.2287 0.5105 0.3945
C24 C 0.5054(5) 0.7773(4) 0.6793(4)
C25 C 0.5348(5) 0.7373(4) 0.7516(4)
H47 H 0.4840 0.7066 0.7766
C26 C 0.6338(5) 0.7410(4) 0.7869(4)
H48 H 0.6494 0.7135 0.8359
C27 C 0.7124(5) 0.7841(4) 0.7531(4)
C28 C 0.6859(5) 0.8246(4) 0.6826(4)
H49 H 0.7374 0.8551 0.6581
C29 C 0.5851(5) 0.8212(4) 0.6471(4)
H50 H 0.5696 0.8499 0.5989
C30 C 0.8238(5) 0.7878(4) 0.7910(5)
H51 H 0.8627 0.8285 0.7647
H52 H 0.8589 0.7385 0.7833
H53 H 0.8213 0.7987 0.8495
C31 C 0.3018(5) 0.7965(3) 0.7042(4)
C32 C 0.3280(5) 0.8346(4) 0.7787(4)
H54 H 0.3987 0.8499 0.7897
C33 C 0.2552(5) 0.8505(4) 0.8362(5)
H55 H 0.2774 0.8757 0.8855
C34 C 0.1514(5) 0.8304(4) 0.8235(5)
C35 C 0.1212(6) 0.7959(4) 0.7500(5)
H56 H 0.0496 0.7831 0.7389
C36 C 0.1936(5) 0.7799(4) 0.6926(5)
H57 H 0.1696 0.7566 0.6428
C37 C 0.0724(6) 0.8442(6) 0.8891(6)
H58 H 0.0107 0.8706 0.8649
H59 H 0.1049 0.8758 0.9328
H60 H 0.0511 0.7949 0.9117
Li2 Li 0.2016(8) 0.0426(7) 0.4967(7)
N5 N 0.1341(5) -0.0650(3) 0.4508(4)
N6 N 0.0996(5) 0.1487(4) 0.4708(4)
N7 N 0.3133(5) 0.0496(4) 0.6099(4)
N8 N 0.0845(6) 0.0276(4) 0.5908(4)
O2 O 0.3083(4) 0.0538(3) 0.4031(3)
C38 C 0.2108(8) -0.1208(5) 0.4747(7)
H61 H 0.1820 -0.1722 0.4649
H62 H 0.2304 -0.1147 0.5329
H63 H 0.2730 -0.1138 0.4428
C39 C 0.1099(8) -0.0724(6) 0.3612(6)
H64 H 0.0769 -0.1223 0.3496
H65 H 0.1750 -0.0686 0.3322
H66 H 0.0619 -0.0313 0.3430
C40 C 0.0297(6) 0.1388(5) 0.3981(5)
H67 H -0.0166 0.1834 0.3917
H68 H -0.0126 0.0924 0.4041
H69 H 0.0716 0.1338 0.3499
C41 C 0.1608(8) 0.2208(5) 0.4552(7)
H70 H 0.2043 0.2340 0.5041
H71 H 0.1121 0.2629 0.4419
H72 H 0.2058 0.2123 0.4093
C42 C 0.3352(9) 0.1281(5) 0.6248(7)
H73 H 0.3889 0.1456 0.5885
H74 H 0.3607 0.1349 0.6817
H75 H 0.2711 0.1583 0.6147
C43 C 0.4109(6) 0.0053(4) 0.6132(5)
H76 H 0.4414 0.0052 0.6692
H77 H 0.4605 0.0285 0.5768
H78 H 0.3961 -0.0476 0.5959
C44 C 0.0333(7) -0.0739(5) 0.4904(6)
H79 H 0.0090 -0.1277 0.4850
H80 H -0.0202 -0.0404 0.4630
C45 C 0.0463(6) -0.0523(4) 0.5818(5)
H81 H -0.0219 -0.0575 0.6074
H82 H 0.0969 -0.0877 0.6099
C46 C 0.0407(7) 0.1601(5) 0.5421(5)
H83 H -0.0173 0.1965 0.5293
H84 H 0.0867 0.1826 0.5861
C47 C -0.0025(6) 0.0870(4) 0.5701(6)
H85 H -0.0513 0.0659 0.5269
H86 H -0.0429 0.0963 0.6191
C48 C 0.2411(8) 0.0130(5) 0.6754(5)
H87 H 0.2401 -0.0434 0.6683
H88 H 0.2719 0.0241 0.7307
C49 C 0.1334(7) 0.0416(6) 0.6694(5)
H89 H 0.0923 0.0162 0.7114
H90 H 0.1336 0.0974 0.6804
C50 C 0.2800(11) 0.0798(7) 0.3213(7)
H91 H 0.2919 0.1356 0.3162
H92 H 0.2054 0.0686 0.3068
C51 C 0.3506(10) 0.0356(6) 0.2676(6)
H93 H 0.3181 -0.0139 0.2510
H94 H 0.3646 0.0654 0.2179
C52 C 0.4465(9) 0.0230(9) 0.3161(7)
H95 H 0.5019 0.0588 0.2997
H96 H 0.4716 -0.0302 0.3093
C53 C 0.4192(7) 0.0377(9) 0.4053(6)
H97 H 0.4355 -0.0080 0.4393
H98 H 0.4596 0.0818 0.4282
B2 B 0.1187(6) 0.2838(4) 0.8535(5)
H99 H 0.123(5) 0.343(4) 0.894(4)
C54 C -0.0052(5) 0.2791(4) 0.8210(4)
C55 C -0.0820(5) 0.3251(4) 0.8537(4)
H100 H -0.0621 0.3593 0.8969
C56 C -0.1869(5) 0.3230(4) 0.8257(4)
H101 H -0.2362 0.3552 0.8505
C57 C -0.2204(5) 0.2756(4) 0.7633(4)
C58 C -0.1454(5) 0.2277(4) 0.7296(4)
H102 H -0.1660 0.1933 0.6868
C59 C -0.0416(5) 0.2302(4) 0.7582(4)
H103 H 0.0072 0.1972 0.7341
C60 C -0.3315(5) 0.2772(4) 0.7280(5)
H104 H -0.3755 0.3064 0.7642
H105 H -0.3581 0.2246 0.7226
H106 H -0.3331 0.3015 0.6741
C61 C 0.1508(5) 0.2071(4) 0.9059(4)
C62 C 0.1400(5) 0.2035(4) 0.9903(4)
H107 H 0.1167 0.2481 1.0174
C63 C 0.1618(5) 0.1375(4) 1.0364(4)
H108 H 0.1528 0.1383 1.0935
C64 C 0.1959(5) 0.0714(4) 1.0006(4)
C65 C 0.2083(5) 0.0733(4) 0.9163(4)
H109 H 0.2322 0.0287 0.8896
C66 C 0.1862(5) 0.1388(4) 0.8710(4)
H110 H 0.1954 0.1376 0.8139
C67 C 0.2189(6) -0.0001(4) 1.0493(5)
H111 H 0.1613 -0.0099 1.0852
H112 H 0.2844 0.0067 1.0823
H113 H 0.2261 -0.0436 1.0122
C68 C 0.1967(5) 0.2981(3) 0.7794(4)
C69 C 0.1631(5) 0.3285(4) 0.7035(4)
H114 H 0.0905 0.3387 0.6932
C70 C 0.2328(5) 0.3446(4) 0.6419(4)
H115 H 0.2061 0.3650 0.5913
C71 C 0.3394(5) 0.3313(4) 0.6535(4)
C72 C 0.3745(5) 0.3005(4) 0.7286(4)
H116 H 0.4471 0.2902 0.7388
C73 C 0.3047(5) 0.2848(4) 0.7885(4)
H117 H 0.3317 0.2638 0.8386
C74 C 0.4139(6) 0.3470(4) 0.5873(5)
H118 H 0.4862 0.3395 0.6088
H119 H 0.4050 0.4000 0.5683
H120 H 0.3991 0.3117 0.5416
loop_
_geom_bond_atom_site_label_1
_geom_bond_atom_site_label_2
_geom_bond_site_symmetry_1
_geom_bond_site_symmetry_2
Li1 N1 1_555 1_555
N1 C1 1_555 1_555
N2 Li1 1_555 1_555
N3 Li1 1_555 1_555
N4 Li1 1_555 1_555
O1 Li1 1_555 1_555
C1 H1 1_555 1_555
H2 C1 1_555 1_555
H3 C1 1_555 1_555
C2 N1 1_555 1_555
H4 C2 1_555 1_555
H5 C2 1_555 1_555
H6 C2 1_555 1_555
C3 N2 1_555 1_555
H7 C3 1_555 1_555
H8 C3 1_555 1_555
H9 C3 1_555 1_555
C4 N2 1_555 1_555
H10 C4 1_555 1_555
H11 C4 1_555 1_555
H12 C4 1_555 1_555
C5 N3 1_555 1_555
H13 C5 1_555 1_555
H14 C5 1_555 1_555
H15 C5 1_555 1_555
C6 N3 1_555 1_555
H16 C6 1_555 1_555
H17 C6 1_555 1_555
H18 C6 1_555 1_555
C7 N1 1_555 1_555
H19 C7 1_555 1_555
H20 C7 1_555 1_555
C8 N4 1_555 1_555
H21 C8 1_555 1_555
H22 C8 1_555 1_555
C9 N2 1_555 1_555
H23 C9 1_555 1_555
H24 C9 1_555 1_555
C10 N4 1_555 1_555
H25 C10 1_555 1_555
H26 C10 1_555 1_555
C11 N3 1_555 1_555
H27 C11 1_555 1_555
H28 C11 1_555 1_555
C12 N4 1_555 1_555
H29 C12 1_555 1_555
H30 C12 1_555 1_555
C13 O1 1_555 1_555
H31 C13 1_555 1_555
H32 C13 1_555 1_555
C14 C13 1_555 1_555
H33 C14 1_555 1_555
H34 C14 1_555 1_555
C15 C14 1_555 1_555
H35 C15 1_555 1_555
H36 C15 1_555 1_555
C16 O1 1_555 1_555
H37 C16 1_555 1_555
H38 C16 1_555 1_555
B1 H39 1_555 1_555
C17 B1 1_555 1_555
C18 C17 1_555 1_555
H40 C18 1_555 1_555
C19 C18 1_555 1_555
H41 C19 1_555 1_555
C20 C19 1_555 1_555
C21 C20 1_555 1_555
H42 C21 1_555 1_555
C22 C17 1_555 1_555
H43 C22 1_555 1_555
C23 C20 1_555 1_555
H44 C23 1_555 1_555
H45 C23 1_555 1_555
H46 C23 1_555 1_555
C24 B1 1_555 1_555
C25 C24 1_555 1_555
H47 C25 1_555 1_555
C26 C25 1_555 1_555
H48 C26 1_555 1_555
C27 C26 1_555 1_555
C28 C27 1_555 1_555
H49 C28 1_555 1_555
C29 C24 1_555 1_555
H50 C29 1_555 1_555
C30 C27 1_555 1_555
H51 C30 1_555 1_555
H52 C30 1_555 1_555
H53 C30 1_555 1_555
C31 B1 1_555 1_555
C32 C31 1_555 1_555
H54 C32 1_555 1_555
C33 C32 1_555 1_555
H55 C33 1_555 1_555
C34 C33 1_555 1_555
C35 C34 1_555 1_555
H56 C35 1_555 1_555
C36 C31 1_555 1_555
H57 C36 1_555 1_555
C37 C34 1_555 1_555
H58 C37 1_555 1_555
H59 C37 1_555 1_555
H60 C37 1_555 1_555
Li2 N5 1_555 1_555
N5 C38 1_555 1_555
N6 Li2 1_555 1_555
N7 Li2 1_555 1_555
N8 Li2 1_555 1_555
O2 Li2 1_555 1_555
C38 H61 1_555 1_555
H62 C38 1_555 1_555
H63 C38 1_555 1_555
C39 N5 1_555 1_555
H64 C39 1_555 1_555
H65 C39 1_555 1_555
H66 C39 1_555 1_555
C40 N6 1_555 1_555
H67 C40 1_555 1_555
H68 C40 1_555 1_555
H69 C40 1_555 1_555
C41 N6 1_555 1_555
H70 C41 1_555 1_555
H71 C41 1_555 1_555
H72 C41 1_555 1_555
C42 N7 1_555 1_555
H73 C42 1_555 1_555
H74 C42 1_555 1_555
H75 C42 1_555 1_555
C43 N7 1_555 1_555
H76 C43 1_555 1_555
H77 C43 1_555 1_555
H78 C43 1_555 1_555
C44 N5 1_555 1_555
H79 C44 1_555 1_555
H80 C44 1_555 1_555
C45 N8 1_555 1_555
H81 C45 1_555 1_555
H82 C45 1_555 1_555
C46 N6 1_555 1_555
H83 C46 1_555 1_555
H84 C46 1_555 1_555
C47 N8 1_555 1_555
H85 C47 1_555 1_555
H86 C47 1_555 1_555
C48 N7 1_555 1_555
H87 C48 1_555 1_555
H88 C48 1_555 1_555
C49 N8 1_555 1_555
H89 C49 1_555 1_555
H90 C49 1_555 1_555
C50 O2 1_555 1_555
H91 C50 1_555 1_555
H92 C50 1_555 1_555
C51 C50 1_555 1_555
H93 C51 1_555 1_555
H94 C51 1_555 1_555
C52 C51 1_555 1_555
H95 C52 1_555 1_555
H96 C52 1_555 1_555
C53 O2 1_555 1_555
H97 C53 1_555 1_555
H98 C53 1_555 1_555
B2 H99 1_555 1_555
C54 B2 1_555 1_555
C55 C54 1_555 1_555
H100 C55 1_555 1_555
C56 C55 1_555 1_555
H101 C56 1_555 1_555
C57 C56 1_555 1_555
C58 C57 1_555 1_555
H102 C58 1_555 1_555
C59 C54 1_555 1_555
H103 C59 1_555 1_555
C60 C57 1_555 1_555
H104 C60 1_555 1_555
H105 C60 1_555 1_555
H106 C60 1_555 1_555
C61 B2 1_555 1_555
C62 C61 1_555 1_555
H107 C62 1_555 1_555
C63 C62 1_555 1_555
H108 C63 1_555 1_555
C64 C63 1_555 1_555
C65 C64 1_555 1_555
H109 C65 1_555 1_555
C66 C61 1_555 1_555
H110 C66 1_555 1_555
C67 C64 1_555 1_555
H111 C67 1_555 1_555
H112 C67 1_555 1_555
H113 C67 1_555 1_555
C68 B2 1_555 1_555
C69 C68 1_555 1_555
H114 C69 1_555 1_555
C70 C69 1_555 1_555
H115 C70 1_555 1_555
C71 C70 1_555 1_555
C72 C71 1_555 1_555
H116 C72 1_555 1_555
C73 C68 1_555 1_555
H117 C73 1_555 1_555
C74 C71 1_555 1_555
H118 C74 1_555 1_555
H119 C74 1_555 1_555
H120 C74 1_555 1_555
C7 C8 1_555 1_555
C9 C10 1_555 1_555
C11 C12 1_555 1_555
C15 C16 1_555 1_555
C21 C22 1_555 1_555
C28 C29 1_555 1_555
C35 C36 1_555 1_555
C44 C45 1_555 1_555
C46 C47 1_555 1_555
C48 C49 1_555 1_555
C52 C53 1_555 1_555
C58 C59 1_555 1_555
C65 C66 1_555 1_555
C72 C73 1_555 1_555

#END
