
#######################################################################
#
#                 Cambridge Crystallographic Data Centre
#                                CCDC 
#
#######################################################################
#
# If this CIF has been generated from an entry in the Cambridge 
# Structural Database, then it will include bibliographic, chemical, 
# crystal, experimental, refinement or atomic coordinate data resulting 
# from the CCDC's data processing and validation procedures.
#
#######################################################################

data_CARDOR
_chemical_formula_moiety         'C20 H40 K1 O8 1+,0.5(C54 H66 B2 2-)'
_chemical_name_systematic        
"(benzeneselenolato)-(18-crown-6)-potassium(i) hemikis((2,2',4,4',6,6'-hexamethyl-1,1'-biphenyl)(dihydrido)(tetramesity)diborate)"
_symmetry_cell_setting           monoclinic
_symmetry_space_group_name_H-M   'C 2/c'
_symmetry_Int_Tables_number      15
_space_group_name_Hall           '-C 2yn'
loop_
_symmetry_equiv_pos_site_id
_symmetry_equiv_pos_as_xyz
1 x,y,z
2 -x,y,1/2-z
3 1/2+x,1/2+y,z
4 1/2-x,1/2+y,1/2-z
5 -x,-y,-z
6 x,-y,1/2+z
7 1/2-x,1/2-y,-z
8 1/2+x,1/2-y,1/2+z
_cell_length_a                   19.1855(11)
_cell_length_b                   17.3562(11)
_cell_length_c                   31.0173(18)
_cell_angle_alpha                90
_cell_angle_beta                 104.546(2)
_cell_angle_gamma                90
_cell_volume                     9997.31
_exptl_crystal_colour            colorless
_exptl_crystal_description       block
_cell_formula_units_Z            8
loop_
_atom_site_label
_atom_site_type_symbol
_atom_site_fract_x
_atom_site_fract_y
_atom_site_fract_z
B1 B 0.1702(3) 0.0702(4) 0.37913(19)
H41 H 0.1943 0.0272 0.3988
C21 C 0.0418(6) -0.0118(6) 0.2641(3)
C22 C 0.0674(4) 0.0316(5) 0.3046(3)
C23 C 0.1374(4) 0.0213(4) 0.3327(2)
C24 C 0.1807(5) -0.0348(4) 0.3186(3)
C25 C 0.1556(6) -0.0728(7) 0.2779(3)
H42 H 0.1872 -0.1079 0.2688
C26 C 0.0871(5) -0.0624(6) 0.2497(3)
C27 C 0.0176(5) 0.0920(7) 0.3145(3)
H43 H -0.0215 0.1014 0.2878
H44 H 0.0444 0.1399 0.3234
H45 H -0.0028 0.0742 0.3387
C28 C 0.2564(4) -0.0521(6) 0.3462(3)
H46 H 0.2865 -0.0061 0.3476
H47 H 0.2768 -0.0943 0.3324
H48 H 0.2546 -0.0670 0.3764
C29 C 0.0625(10) -0.1104(11) 0.2082(5)
H49 H 0.1042 -0.1357 0.2015
H50 H 0.0390 -0.0772 0.1833
H51 H 0.0284 -0.1495 0.2130
C30 C 0.1137(6) 0.1775(5) 0.4230(3)
C31 C 0.1172(4) 0.1020(4) 0.4091(2)
C32 C 0.0695(6) 0.0502(6) 0.4237(4)
C33 C 0.0253(7) 0.0732(7) 0.4508(4)
H52 H -0.0047 0.0361 0.4597
C34 C 0.0239(8) 0.1486(8) 0.4652(5)
C35 C 0.0701(7) 0.1989(8) 0.4520(5)
H53 H 0.0731 0.2503 0.4628
C36 C 0.1558(7) 0.2425(6) 0.4087(5)
H54 H 0.2073 0.2358 0.4227
H55 H 0.1396 0.2919 0.4180
H56 H 0.1479 0.2418 0.3763
C37 C 0.0659(8) -0.0336(6) 0.4100(5)
H57 H 0.0437 -0.0377 0.3779
H58 H 0.0369 -0.0623 0.4264
H59 H 0.1146 -0.0551 0.4166
C38 C -0.0216(8) 0.1710(11) 0.4964(5)
H60 H -0.0152 0.2260 0.5034
H61 H -0.0068 0.1409 0.5239
H62 H -0.0724 0.1608 0.4821
C39 C 0.2484(4) 0.1600(4) 0.33831(19)
C40 C 0.2441(3) 0.1240(3) 0.37756(19)
C41 C 0.3011(3) 0.1293(4) 0.4153(2)
C42 C 0.3625(4) 0.1707(7) 0.4138(3)
H63 H 0.4015 0.1743 0.4396
C43 C 0.3668(4) 0.2067(7) 0.3745(3)
C44 C 0.3098(5) 0.2014(6) 0.3368(3)
H64 H 0.3128 0.2260 0.3100
C45 C 0.1872(6) 0.1623(6) 0.2966(3)
H65 H 0.1411 0.1609 0.3048
H66 H 0.1906 0.1176 0.2778
H67 H 0.1903 0.2098 0.2800
C46 C 0.2965(6) 0.0984(9) 0.4597(3)
H68 H 0.3077 0.0433 0.4613
H69 H 0.2477 0.1063 0.4633
H70 H 0.3311 0.1256 0.4835
C47 C 0.4333(7) 0.2551(11) 0.3734(6)
H71 H 0.4468 0.2456 0.3454
H72 H 0.4734 0.2408 0.3985
H73 H 0.4222 0.3099 0.3755
B2 B -0.1461(4) 0.1231(5) 0.1384(3)
H74 H -0.1207 0.1664 0.1572
C48 C -0.0338(4) -0.0061(6) 0.2360(3)
C49 C -0.0531(4) 0.0500(4) 0.2032(3)
C50 C -0.1227(3) 0.0520(4) 0.17604(19)
C51 C -0.1731(3) -0.0022(5) 0.1817(3)
C52 C -0.1538(5) -0.0583(5) 0.2145(3)
H75 H -0.1883 -0.0953 0.2183
C53 C -0.0842(5) -0.0603(5) 0.2417(3)
C54 C 0.0050(6) 0.1022(8) 0.1947(4)
H76 H -0.0105 0.1234 0.1646
H77 H 0.0495 0.0726 0.1977
H78 H 0.0136 0.1443 0.2164
C55 C -0.2479(5) -0.0088(8) 0.1509(4)
H79 H -0.2461 0.0040 0.1205
H80 H -0.2804 0.0269 0.1607
H81 H -0.2655 -0.0617 0.1517
C56 C -0.0678(10) -0.1130(13) 0.2823(6)
H82 H -0.1057 -0.1520 0.2790
H83 H -0.0658 -0.0824 0.3092
H84 H -0.0213 -0.1384 0.2850
C57 C -0.1023(5) 0.2024(4) 0.0788(3)
C58 C -0.1056(4) 0.1296(5) 0.0969(2)
C59 C -0.0749(5) 0.0669(4) 0.0807(3)
C60 C -0.0408(6) 0.0770(6) 0.0465(4)
H85 H -0.0198 0.0341 0.0355
C61 C -0.0375(6) 0.1497(7) 0.0284(3)
C62 C -0.0683(7) 0.2125(5) 0.0445(4)
H86 H -0.0660 0.2622 0.0322
C63 C -0.1335(8) 0.2728(7) 0.0956(5)
H87 H -0.1816 0.2608 0.0992
H88 H -0.1368 0.3150 0.0742
H89 H -0.1023 0.2883 0.1244
C64 C -0.0780(9) -0.0149(6) 0.0969(5)
H90 H -0.0636 -0.0505 0.0762
H91 H -0.1272 -0.0268 0.0985
H92 H -0.0451 -0.0204 0.1266
C65 C 0.0001(7) 0.1609(10) -0.0091(4)
H93 H 0.0417 0.1264 -0.0045
H94 H 0.0163 0.2144 -0.0092
H95 H -0.0336 0.1491 -0.0378
C66 C -0.2503(4) 0.1833(6) 0.1693(2)
C67 C -0.2319(3) 0.1550(4) 0.1317(2)
C68 C -0.2827(3) 0.1543(5) 0.0909(2)
C69 C -0.3518(3) 0.1820(7) 0.0877(3)
H96 H -0.3865 0.1816 0.0598
C70 C -0.3701(4) 0.2103(8) 0.1253(3)
C71 C -0.3194(5) 0.2110(7) 0.1661(3)
H97 H -0.3319 0.2303 0.1918
C72 C -0.1969(6) 0.1884(8) 0.2139(3)
H98 H -0.1817 0.1364 0.2245
H99 H -0.2192 0.2140 0.2351
H100 H -0.1548 0.2181 0.2109
C73 C -0.2682(7) 0.1205(9) 0.0491(4)
H101 H -0.2370 0.0753 0.0568
H102 H -0.2445 0.1591 0.0346
H103 H -0.3139 0.1051 0.0287
C74 C -0.4469(7) 0.2392(12) 0.1227(7)
H104 H -0.4445 0.2892 0.1378
H105 H -0.4718 0.2020 0.1374
H106 H -0.4733 0.2449 0.0915
B1A B -0.1702(3) 0.0702(4) 0.12087(19)
H41A H -0.1943 0.0272 0.1012
C21A C -0.0418(6) -0.0118(6) 0.2359(3)
C22A C -0.0674(4) 0.0316(5) 0.1954(3)
C23A C -0.1374(4) 0.0213(4) 0.1673(2)
C24A C -0.1807(5) -0.0348(4) 0.1814(3)
C25A C -0.1556(6) -0.0728(7) 0.2221(3)
H42A H -0.1872 -0.1079 0.2312
C26A C -0.0871(5) -0.0624(6) 0.2503(3)
C27A C -0.0176(5) 0.0920(7) 0.1855(3)
H43A H 0.0215 0.1014 0.2122
H44A H -0.0444 0.1399 0.1766
H45A H 0.0028 0.0742 0.1613
C28A C -0.2564(4) -0.0521(6) 0.1538(3)
H46A H -0.2865 -0.0061 0.1524
H47A H -0.2768 -0.0943 0.1676
H48A H -0.2546 -0.0670 0.1236
C29A C -0.0625(10) -0.1104(11) 0.2918(5)
H49A H -0.1042 -0.1357 0.2985
H50A H -0.0390 -0.0772 0.3167
H51A H -0.0284 -0.1495 0.2870
C30A C -0.1137(6) 0.1775(5) 0.0770(3)
C31A C -0.1172(4) 0.1020(4) 0.0909(2)
C32A C -0.0695(6) 0.0502(6) 0.0763(4)
C33A C -0.0253(7) 0.0732(7) 0.0492(4)
H52A H 0.0047 0.0361 0.0403
C34A C -0.0239(8) 0.1486(8) 0.0348(5)
C35A C -0.0701(7) 0.1989(8) 0.0480(5)
H53A H -0.0731 0.2503 0.0372
C36A C -0.1558(7) 0.2425(6) 0.0913(5)
H54A H -0.2073 0.2358 0.0773
H55A H -0.1396 0.2919 0.0820
H56A H -0.1479 0.2418 0.1237
C37A C -0.0659(8) -0.0336(6) 0.0900(5)
H57A H -0.0437 -0.0377 0.1221
H58A H -0.0369 -0.0623 0.0736
H59A H -0.1146 -0.0551 0.0834
C38A C 0.0216(8) 0.1710(11) 0.0036(5)
H60A H 0.0152 0.2260 -0.0034
H61A H 0.0068 0.1409 -0.0239
H62A H 0.0724 0.1608 0.0179
C39A C -0.2484(4) 0.1600(4) 0.16169(19)
C40A C -0.2441(3) 0.1240(3) 0.12244(19)
C41A C -0.3011(3) 0.1293(4) 0.0847(2)
C42A C -0.3625(4) 0.1707(7) 0.0862(3)
H63A H -0.4015 0.1743 0.0604
C43A C -0.3668(4) 0.2067(7) 0.1255(3)
C44A C -0.3098(5) 0.2014(6) 0.1632(3)
H64A H -0.3128 0.2260 0.1900
C45A C -0.1872(6) 0.1623(6) 0.2034(3)
H65A H -0.1411 0.1609 0.1952
H66A H -0.1906 0.1176 0.2222
H67A H -0.1903 0.2098 0.2200
C46A C -0.2965(6) 0.0984(9) 0.0403(3)
H68A H -0.3077 0.0433 0.0387
H69A H -0.2477 0.1063 0.0367
H70A H -0.3311 0.1256 0.0165
C47A C -0.4333(7) 0.2551(11) 0.1266(6)
H71A H -0.4468 0.2456 0.1546
H72A H -0.4734 0.2408 0.1015
H73A H -0.4222 0.3099 0.1245
B2A B 0.1461(4) 0.1231(5) 0.3616(3)
H74A H 0.1207 0.1664 0.3428
C48A C 0.0338(4) -0.0061(6) 0.2640(3)
C49A C 0.0531(4) 0.0500(4) 0.2968(3)
C50A C 0.1227(3) 0.0520(4) 0.32396(19)
C51A C 0.1731(3) -0.0022(5) 0.3183(3)
C52A C 0.1538(5) -0.0583(5) 0.2855(3)
H75A H 0.1883 -0.0953 0.2817
C53A C 0.0842(5) -0.0603(5) 0.2583(3)
C54A C -0.0050(6) 0.1022(8) 0.3053(4)
H76A H 0.0105 0.1234 0.3354
H77A H -0.0495 0.0726 0.3023
H78A H -0.0136 0.1443 0.2836
C55A C 0.2479(5) -0.0088(8) 0.3491(4)
H79A H 0.2461 0.0040 0.3795
H80A H 0.2804 0.0269 0.3393
H81A H 0.2655 -0.0617 0.3483
C56A C 0.0678(10) -0.1130(13) 0.2177(6)
H82A H 0.1057 -0.1520 0.2210
H83A H 0.0658 -0.0824 0.1908
H84A H 0.0213 -0.1384 0.2150
C57A C 0.1023(5) 0.2024(4) 0.4212(3)
C58A C 0.1056(4) 0.1296(5) 0.4031(2)
C59A C 0.0749(5) 0.0669(4) 0.4193(3)
C60A C 0.0408(6) 0.0770(6) 0.4535(4)
H85A H 0.0198 0.0341 0.4645
C61A C 0.0375(6) 0.1497(7) 0.4716(3)
C62A C 0.0683(7) 0.2125(5) 0.4555(4)
H86A H 0.0660 0.2622 0.4678
C63A C 0.1335(8) 0.2728(7) 0.4044(5)
H87A H 0.1816 0.2608 0.4008
H88A H 0.1368 0.3150 0.4258
H89A H 0.1023 0.2883 0.3756
C64A C 0.0780(9) -0.0149(6) 0.4031(5)
H90A H 0.0636 -0.0505 0.4238
H91A H 0.1272 -0.0268 0.4015
H92A H 0.0451 -0.0204 0.3734
C65A C -0.0001(7) 0.1609(10) 0.5091(4)
H93A H -0.0417 0.1264 0.5045
H94A H -0.0163 0.2144 0.5092
H95A H 0.0336 0.1491 0.5378
C66A C 0.2503(4) 0.1833(6) 0.3307(2)
C67A C 0.2319(3) 0.1550(4) 0.3683(2)
C68A C 0.2827(3) 0.1543(5) 0.4091(2)
C69A C 0.3518(3) 0.1820(7) 0.4123(3)
H96A H 0.3865 0.1816 0.4402
C70A C 0.3701(4) 0.2103(8) 0.3747(3)
C71A C 0.3194(5) 0.2110(7) 0.3339(3)
H97A H 0.3319 0.2303 0.3082
C72A C 0.1969(6) 0.1884(8) 0.2861(3)
H98A H 0.1817 0.1364 0.2755
H99A H 0.2192 0.2140 0.2649
H100A H 0.1548 0.2181 0.2891
C73A C 0.2682(7) 0.1205(9) 0.4509(4)
H101A H 0.2370 0.0753 0.4432
H102A H 0.2445 0.1591 0.4654
H103A H 0.3139 0.1051 0.4713
C74A C 0.4469(7) 0.2392(12) 0.3773(7)
H104A H 0.4445 0.2892 0.3622
H105A H 0.4718 0.2020 0.3626
H106A H 0.4733 0.2449 0.4085
K1 K 0.30178(5) 0.08410(6) 0.12214(3)
O1 O 0.2453(5) 0.0357(5) 0.0342(3)
O2 O 0.2177(5) -0.0475(5) 0.1058(2)
O3 O 0.2963(5) -0.0126(5) 0.1922(3)
O4 O 0.3439(5) 0.1375(5) 0.2108(3)
O5 O 0.3766(6) 0.2208(6) 0.1388(3)
O6 O 0.3018(5) 0.1870(6) 0.0500(3)
C1 C 0.1847(6) -0.0132(6) 0.0289(3)
H1 H 0.1712 -0.0343 -0.0017
H2 H 0.1432 0.0160 0.0340
C2 C 0.2046(7) -0.0785(6) 0.0626(3)
H3 H 0.1648 -0.1163 0.0579
H4 H 0.2482 -0.1053 0.0588
C3 C 0.2404(7) -0.1048(6) 0.1388(3)
H5 H 0.2884 -0.1245 0.1377
H6 H 0.2061 -0.1485 0.1331
C4 C 0.2443(7) -0.0715(6) 0.1843(3)
H7 H 0.1969 -0.0504 0.1855
H8 H 0.2580 -0.1120 0.2074
C5 C 0.3037(7) 0.0204(6) 0.2353(3)
H9 H 0.3149 -0.0203 0.2584
H10 H 0.2581 0.0457 0.2369
C6 C 0.3637(7) 0.0788(6) 0.2432(3)
H11 H 0.3715 0.1010 0.2735
H12 H 0.4090 0.0539 0.2408
C7 C 0.3980(7) 0.1946(7) 0.2166(4)
H13 H 0.4444 0.1707 0.2156
H14 H 0.4042 0.2195 0.2461
C8 C 0.3764(8) 0.2543(6) 0.1799(4)
H15 H 0.3277 0.2742 0.1790
H16 H 0.4106 0.2980 0.1860
C9 C 0.3655(7) 0.2750(7) 0.1037(3)
H17 H 0.4048 0.3135 0.1100
H18 H 0.3194 0.3024 0.1013
C10 C 0.3637(6) 0.2350(7) 0.0607(4)
H19 H 0.3614 0.2734 0.0367
H20 H 0.4078 0.2037 0.0636
C11 C 0.2994(6) 0.1451(7) 0.0106(3)
H21 H 0.3439 0.1143 0.0142
H22 H 0.2959 0.1810 -0.0146
C12 C 0.2347(7) 0.0925(6) 0.0013(3)
H23 H 0.1908 0.1225 0.0013
H24 H 0.2282 0.0682 -0.0283
O7 O 0.1976(5) 0.1760(6) 0.1315(3)
C13 C 0.1450(8) 0.2062(12) 0.0951(4)
H25 H 0.1109 0.1656 0.0806
H26 H 0.1678 0.2290 0.0727
C14 C 0.1080(8) 0.2657(9) 0.1148(5)
H27 H 0.0552 0.2631 0.1020
H28 H 0.1251 0.3178 0.1093
C15 C 0.1262(9) 0.2484(11) 0.1630(5)
H29 H 0.1460 0.2950 0.1802
H30 H 0.0825 0.2323 0.1720
C16 C 0.1778(8) 0.1886(10) 0.1719(4)
H31 H 0.1570 0.1413 0.1813
H32 H 0.2203 0.2041 0.1958
O8 O 0.4254(7) 0.0300(14) 0.1076(7)
C17 C 0.4875(7) 0.0382(10) 0.1434(5)
H33 H 0.4794 0.0153 0.1709
H34 H 0.4999 0.0933 0.1489
C18 C 0.5452(6) -0.0029(9) 0.1294(5)
H35 H 0.5840 0.0335 0.1273
H36 H 0.5660 -0.0432 0.1514
C19 C 0.5141(8) -0.0374(11) 0.0863(6)
H37 H 0.5447 -0.0270 0.0655
H38 H 0.5095 -0.0939 0.0892
C20 C 0.4449(8) -0.0029(12) 0.0705(5)
H39 H 0.4467 0.0375 0.0482
H40 H 0.4091 -0.0421 0.0562
O9? O 0.2357(5) 0.0075(6) 0.0454(3)
O10? O 0.2248(6) -0.0479(6) 0.1284(3)
O11? O 0.3201(5) 0.0105(6) 0.2050(3)
O12? O 0.3624(5) 0.1633(5) 0.2026(3)
O13? O 0.3769(5) 0.2196(5) 0.1195(2)
O14? O 0.2887(5) 0.1590(5) 0.0398(3)
C75? C 0.1813(7) -0.0433(8) 0.0497(4)
H107? H 0.1663 -0.0754 0.0225
H108? H 0.1388 -0.0138 0.0531
C76? C 0.2076(8) -0.0933(7) 0.0889(4)
H109? H 0.1701 -0.1315 0.0907
H110? H 0.2509 -0.1216 0.0859
C77? C 0.2533(8) -0.0950(6) 0.1658(4)
H111? H 0.2987 -0.1193 0.1631
H112? H 0.2186 -0.1363 0.1678
C78? C 0.2672(7) -0.0453(8) 0.2067(4)
H113? H 0.2221 -0.0194 0.2085
H114? H 0.2839 -0.0777 0.2336
C79? C 0.3329(7) 0.0576(7) 0.2433(4)
H115? H 0.3490 0.0258 0.2704
H116? H 0.2881 0.0847 0.2447
C80? C 0.3909(6) 0.1157(7) 0.2402(3)
H117? H 0.4041 0.1473 0.2676
H118? H 0.4346 0.0887 0.2367
C81? C 0.4116(6) 0.2220(6) 0.1984(3)
H119? H 0.4580 0.1987 0.1969
H120? H 0.4206 0.2563 0.2247
C82? C 0.3812(6) 0.2680(6) 0.1570(3)
H121? H 0.3327 0.2874 0.1571
H122? H 0.4126 0.3127 0.1557
C83? C 0.3580(6) 0.2632(6) 0.0797(3)
H123? H 0.3965 0.3007 0.0789
H124? H 0.3128 0.2919 0.0780
C84? C 0.3481(6) 0.2076(6) 0.0407(3)
H125? H 0.3398 0.2368 0.0125
H126? H 0.3922 0.1761 0.0438
C85? C 0.2764(6) 0.1062(6) 0.0043(3)
H127? H 0.3197 0.0740 0.0064
H128? H 0.2658 0.1342 -0.0245
C86? C 0.2124(6) 0.0554(6) 0.0068(4)
H129? H 0.1710 0.0876 0.0093
H130? H 0.1973 0.0233 -0.0204
O15? O 0.1735(8) 0.1703(7) 0.1097(5)
C87? C 0.1630(10) 0.2533(9) 0.1048(6)
H131? H 0.2098 0.2796 0.1076
H132? H 0.1310 0.2657 0.0752
C88? C 0.1304(12) 0.2773(9) 0.1401(7)
H133? H 0.1669 0.3018 0.1646
H134? H 0.0914 0.3149 0.1286
C89? C 0.1019(10) 0.2096(9) 0.1560(6)
H135? H 0.0491 0.2070 0.1438
H136? H 0.1123 0.2104 0.1889
C90? C 0.1365(8) 0.1437(8) 0.1411(5)
H137? H 0.1708 0.1195 0.1668
H138? H 0.1000 0.1049 0.1272
O16? O 0.4308(8) 0.0216(16) 0.1060(9)
C91? C 0.5035(8) 0.0479(11) 0.1164(7)
H139? H 0.5264 0.0408 0.1485
H140? H 0.5055 0.1032 0.1090
C92? C 0.5398(8) 0.0013(12) 0.0894(8)
H141? H 0.5648 0.0350 0.0723
H142? H 0.5760 -0.0327 0.1088
C93? C 0.4851(9) -0.0447(12) 0.0593(7)
H143? H 0.5034 -0.0968 0.0554
H144? H 0.4692 -0.0196 0.0297
C94? C 0.4260(8) -0.0484(11) 0.0813(6)
H145? H 0.3790 -0.0521 0.0591
H146? H 0.4317 -0.0935 0.1014
loop_
_geom_bond_atom_site_label_1
_geom_bond_atom_site_label_2
_geom_bond_site_symmetry_1
_geom_bond_site_symmetry_2
K1 O1 1_555 1_555
O1 C1 1_555 1_555
O2 K1 1_555 1_555
O3 K1 1_555 1_555
O4 K1 1_555 1_555
O5 K1 1_555 1_555
O6 K1 1_555 1_555
C1 H1 1_555 1_555
H2 C1 1_555 1_555
C2 O2 1_555 1_555
H3 C2 1_555 1_555
H4 C2 1_555 1_555
C3 O2 1_555 1_555
H5 C3 1_555 1_555
H6 C3 1_555 1_555
C4 O3 1_555 1_555
H7 C4 1_555 1_555
H8 C4 1_555 1_555
C5 O3 1_555 1_555
H9 C5 1_555 1_555
H10 C5 1_555 1_555
C6 O4 1_555 1_555
H11 C6 1_555 1_555
H12 C6 1_555 1_555
C7 O4 1_555 1_555
H13 C7 1_555 1_555
H14 C7 1_555 1_555
C8 O5 1_555 1_555
H15 C8 1_555 1_555
H16 C8 1_555 1_555
C9 O5 1_555 1_555
H17 C9 1_555 1_555
H18 C9 1_555 1_555
C10 O6 1_555 1_555
H19 C10 1_555 1_555
H20 C10 1_555 1_555
C11 O6 1_555 1_555
H21 C11 1_555 1_555
H22 C11 1_555 1_555
C12 O1 1_555 1_555
H23 C12 1_555 1_555
H24 C12 1_555 1_555
O7 K1 1_555 1_555
C13 O7 1_555 1_555
H25 C13 1_555 1_555
H26 C13 1_555 1_555
C14 C13 1_555 1_555
H27 C14 1_555 1_555
H28 C14 1_555 1_555
C15 C14 1_555 1_555
H29 C15 1_555 1_555
H30 C15 1_555 1_555
C16 O7 1_555 1_555
H31 C16 1_555 1_555
H32 C16 1_555 1_555
O8 K1 1_555 1_555
C17 O8 1_555 1_555
H33 C17 1_555 1_555
H34 C17 1_555 1_555
C18 C17 1_555 1_555
H35 C18 1_555 1_555
H36 C18 1_555 1_555
C19 C18 1_555 1_555
H37 C19 1_555 1_555
H38 C19 1_555 1_555
C20 O8 1_555 1_555
H39 C20 1_555 1_555
H40 C20 1_555 1_555
B1 H41 1_555 1_555
C21 C22 1_555 1_555
C22 C23 1_555 1_555
C23 B1 1_555 1_555
C24 C23 1_555 1_555
C25 C24 1_555 1_555
H42 C25 1_555 1_555
C26 C21 1_555 1_555
C27 C22 1_555 1_555
H43 C27 1_555 1_555
H44 C27 1_555 1_555
H45 C27 1_555 1_555
C28 C24 1_555 1_555
H46 C28 1_555 1_555
H47 C28 1_555 1_555
H48 C28 1_555 1_555
C29 C26 1_555 1_555
H49 C29 1_555 1_555
H50 C29 1_555 1_555
H51 C29 1_555 1_555
C30 C31 1_555 1_555
C31 B1 1_555 1_555
C32 C31 1_555 1_555
C33 C32 1_555 1_555
H52 C33 1_555 1_555
C34 C33 1_555 1_555
C35 C30 1_555 1_555
H53 C35 1_555 1_555
C36 C30 1_555 1_555
H54 C36 1_555 1_555
H55 C36 1_555 1_555
H56 C36 1_555 1_555
C37 C32 1_555 1_555
H57 C37 1_555 1_555
H58 C37 1_555 1_555
H59 C37 1_555 1_555
C38 C34 1_555 1_555
H60 C38 1_555 1_555
H61 C38 1_555 1_555
H62 C38 1_555 1_555
C39 C40 1_555 1_555
C40 B1 1_555 1_555
C41 C40 1_555 1_555
C42 C41 1_555 1_555
H63 C42 1_555 1_555
C43 C42 1_555 1_555
C44 C39 1_555 1_555
H64 C44 1_555 1_555
C45 C39 1_555 1_555
H65 C45 1_555 1_555
H66 C45 1_555 1_555
H67 C45 1_555 1_555
C46 C41 1_555 1_555
H68 C46 1_555 1_555
H69 C46 1_555 1_555
H70 C46 1_555 1_555
C47 C43 1_555 1_555
H71 C47 1_555 1_555
H72 C47 1_555 1_555
H73 C47 1_555 1_555
B2 H74 1_555 1_555
C48 C21 1_555 1_555
C49 C48 1_555 1_555
C50 B2 1_555 1_555
C51 C50 1_555 1_555
C52 C51 1_555 1_555
H75 C52 1_555 1_555
C53 C48 1_555 1_555
C54 C49 1_555 1_555
H76 C54 1_555 1_555
H77 C54 1_555 1_555
H78 C54 1_555 1_555
C55 C51 1_555 1_555
H79 C55 1_555 1_555
H80 C55 1_555 1_555
H81 C55 1_555 1_555
C56 C53 1_555 1_555
H82 C56 1_555 1_555
H83 C56 1_555 1_555
H84 C56 1_555 1_555
C57 C58 1_555 1_555
C58 B2 1_555 1_555
C59 C58 1_555 1_555
C60 C59 1_555 1_555
H85 C60 1_555 1_555
C61 C60 1_555 1_555
C62 C57 1_555 1_555
H86 C62 1_555 1_555
C63 C57 1_555 1_555
H87 C63 1_555 1_555
H88 C63 1_555 1_555
H89 C63 1_555 1_555
C64 C59 1_555 1_555
H90 C64 1_555 1_555
H91 C64 1_555 1_555
H92 C64 1_555 1_555
C65 C61 1_555 1_555
H93 C65 1_555 1_555
H94 C65 1_555 1_555
H95 C65 1_555 1_555
C66 C67 1_555 1_555
C67 B2 1_555 1_555
C68 C67 1_555 1_555
C69 C68 1_555 1_555
H96 C69 1_555 1_555
C70 C69 1_555 1_555
C71 C66 1_555 1_555
H97 C71 1_555 1_555
C72 C66 1_555 1_555
H98 C72 1_555 1_555
H99 C72 1_555 1_555
H100 C72 1_555 1_555
C73 C68 1_555 1_555
H101 C73 1_555 1_555
H102 C73 1_555 1_555
H103 C73 1_555 1_555
C74 C70 1_555 1_555
H104 C74 1_555 1_555
H105 C74 1_555 1_555
H106 C74 1_555 1_555
B1A B2 1_555 1_555
H41A B1A 1_555 1_555
C21A C21 1_555 1_555
C22A C48 1_555 1_555
C23A C49 1_555 1_555
C24A C51 1_555 1_555
C25A C51 1_555 1_555
H42A C52 1_555 1_555
C26A C48 1_555 1_555
C27A C49 1_555 1_555
H43A C54 1_555 1_555
H44A C54 1_555 1_555
H45A C54 1_555 1_555
C28A C55 1_555 1_555
H46A C55 1_555 1_555
H47A C28A 1_555 1_555
H48A C55 1_555 1_555
C29A C53 1_555 1_555
H49A C56 1_555 1_555
H50A C56 1_555 1_555
H51A C56 1_555 1_555
C30A C58 1_555 1_555
C31A B2 1_555 1_555
C32A C58 1_555 1_555
C33A C59 1_555 1_555
H52A C60 1_555 1_555
C34A C60 1_555 1_555
C35A C57 1_555 1_555
H53A C62 1_555 1_555
C36A C57 1_555 1_555
H54A C36A 1_555 1_555
H55A C36A 1_555 1_555
H56A C63 1_555 1_555
C37A C59 1_555 1_555
H57A C64 1_555 1_555
H58A C37A 1_555 1_555
H59A C64 1_555 1_555
C38A C61 1_555 1_555
H60A C65 1_555 1_555
H61A C65 1_555 1_555
H62A C38A 1_555 1_555
C39A C67 1_555 1_555
C40A C66 1_555 1_555
C41A C68 1_555 1_555
C42A C68 1_555 1_555
H63A C69 1_555 1_555
C43A C69 1_555 1_555
C44A C66 1_555 1_555
H64A C71 1_555 1_555
C45A C66 1_555 1_555
H65A C45A 1_555 1_555
H66A C72 1_555 1_555
H67A C45A 1_555 1_555
C46A C73 1_555 1_555
H68A C46A 1_555 1_555
H69A C73 1_555 1_555
H70A C46A 1_555 1_555
C47A C70 1_555 1_555
H71A C74 1_555 1_555
H72A C74 1_555 1_555
H73A C74 1_555 1_555
B2A B1 1_555 1_555
H74A B2A 1_555 1_555
C48A C22 1_555 1_555
C49A C21 1_555 1_555
C50A C22 1_555 1_555
C51A C23 1_555 1_555
C52A C24 1_555 1_555
H75A C25 1_555 1_555
C53A C21 1_555 1_555
C54A H43 1_555 1_555
H76A C27 1_555 1_555
H77A C27 1_555 1_555
H78A C27 1_555 1_555
C55A C24 1_555 1_555
H79A C55A 1_555 1_555
H80A C55A 1_555 1_555
H81A C55A 1_555 1_555
C56A C26 1_555 1_555
H82A C29 1_555 1_555
H83A C29 1_555 1_555
H84A C29 1_555 1_555
C57A C35 1_555 1_555
C58A B1 1_555 1_555
C59A C31 1_555 1_555
C60A C32 1_555 1_555
H85A C33 1_555 1_555
C61A C33 1_555 1_555
C62A C30 1_555 1_555
H86A C35 1_555 1_555
C63A C36 1_555 1_555
H87A C36 1_555 1_555
H88A C63A 1_555 1_555
H89A C63A 1_555 1_555
C64A C32 1_555 1_555
H90A C64A 1_555 1_555
H91A C37 1_555 1_555
H92A C37 1_555 1_555
C65A C34 1_555 1_555
H93A C38 1_555 1_555
H94A C38 1_555 1_555
H95A C65A 1_555 1_555
C66A C40 1_555 1_555
C67A C39 1_555 1_555
C68A C40 1_555 1_555
C69A C41 1_555 1_555
H96A C42 1_555 1_555
C70A C42 1_555 1_555
C71A C39 1_555 1_555
H97A C44 1_555 1_555
C72A C39 1_555 1_555
H98A C45 1_555 1_555
H99A C72A 1_555 1_555
H100A C45 1_555 1_555
C73A C41 1_555 1_555
H101A C46 1_555 1_555
H102A C73A 1_555 1_555
H103A C73A 1_555 1_555
C74A C43 1_555 1_555
H104A C47 1_555 1_555
H105A C47 1_555 1_555
H106A C47 1_555 1_555
C1 C2 1_555 1_555
C3 C4 1_555 1_555
C5 C6 1_555 1_555
C7 C8 1_555 1_555
C9 C10 1_555 1_555
C11 C12 1_555 1_555
C15 C16 1_555 1_555
C19 C20 1_555 1_555
C23 C49A 1_555 1_555
C23 C50A 1_555 1_555
C24 C51A 1_555 1_555
C25 C26 1_555 1_555
C25 C51A 1_555 1_555
C25 C53A 1_555 1_555
H42 C52A 1_555 1_555
C26 C48A 1_555 1_555
C26 C52A 1_555 1_555
C27 C49A 1_555 1_555
H44 C54A 1_555 1_555
H45 C54A 1_555 1_555
C28 C55A 1_555 1_555
H46 C55A 1_555 1_555
H48 C55A 1_555 1_555
C29 C53A 1_555 1_555
H49 C56A 1_555 1_555
H50 C56A 1_555 1_555
H51 C56A 1_555 1_555
C30 C58A 1_555 1_555
C31 B2A 1_555 1_555
C32 C58A 1_555 1_555
C33 C59A 1_555 1_555
H52 C60A 1_555 1_555
C34 C35 1_555 1_555
C34 C60A 1_555 1_555
C34 C62A 1_555 1_555
C35 C61A 1_555 1_555
H53 C62A 1_555 1_555
C36 C57A 1_555 1_555
H56 C63A 1_555 1_555
C37 C59A 1_555 1_555
H57 C64A 1_555 1_555
H59 C64A 1_555 1_555
C38 C61A 1_555 1_555
H60 C65A 1_555 1_555
H61 C65A 1_555 1_555
C40 C67A 1_555 1_555
C41 C68A 1_555 1_555
C42 C68A 1_555 1_555
H63 C69A 1_555 1_555
C43 C44 1_555 1_555
C43 C69A 1_555 1_555
C43 C71A 1_555 1_555
C44 C66A 1_555 1_555
C44 C70A 1_555 1_555
H64 C71A 1_555 1_555
C45 C66A 1_555 1_555
C45 C72A 1_555 1_555
H66 C72A 1_555 1_555
C46 C73A 1_555 1_555
H69 C73A 1_555 1_555
C47 C70A 1_555 1_555
H71 C74A 1_555 1_555
H72 C74A 1_555 1_555
H73 C74A 1_555 1_555
C48 C48A 1_555 1_555
C49 C50 1_555 1_555
C49 C21A 1_555 1_555
C50 C22A 1_555 1_555
C50 C23A 1_555 1_555
C51 C23A 1_555 1_555
C52 C53 1_555 1_555
C52 C24A 1_555 1_555
C52 C26A 1_555 1_555
H75 C25A 1_555 1_555
C53 C21A 1_555 1_555
C53 C25A 1_555 1_555
H76 C27A 1_555 1_555
H77 C27A 1_555 1_555
H78 C27A 1_555 1_555
C55 C24A 1_555 1_555
C56 C26A 1_555 1_555
H82 C29A 1_555 1_555
H83 C29A 1_555 1_555
H84 C29A 1_555 1_555
C58 B1A 1_555 1_555
C59 C31A 1_555 1_555
C60 C32A 1_555 1_555
H85 C33A 1_555 1_555
C61 C62 1_555 1_555
C61 C33A 1_555 1_555
C61 C35A 1_555 1_555
C62 C30A 1_555 1_555
C62 C34A 1_555 1_555
H86 C35A 1_555 1_555
C63 C36A 1_555 1_555
H87 C36A 1_555 1_555
C64 C32A 1_555 1_555
H91 C37A 1_555 1_555
H92 C37A 1_555 1_555
C65 C34A 1_555 1_555
H93 C38A 1_555 1_555
H94 C38A 1_555 1_555
C67 C40A 1_555 1_555
C68 C40A 1_555 1_555
C69 C41A 1_555 1_555
H96 C42A 1_555 1_555
C70 C71 1_555 1_555
C70 C42A 1_555 1_555
C70 C44A 1_555 1_555
C71 C39A 1_555 1_555
C71 C43A 1_555 1_555
H97 C44A 1_555 1_555
C72 C39A 1_555 1_555
C72 C45A 1_555 1_555
H98 C45A 1_555 1_555
H100 C45A 1_555 1_555
C73 C41A 1_555 1_555
H101 C46A 1_555 1_555
C74 C43A 1_555 1_555
H104 C47A 1_555 1_555
H105 C47A 1_555 1_555
H106 C47A 1_555 1_555
B1A C23A 1_555 1_555
B1A C31A 1_555 1_555
B1A C40A 1_555 1_555
C21A C22A 1_555 1_555
C21A C26A 1_555 1_555
C21A C48A 1_555 1_555
C22A C23A 1_555 1_555
C22A C27A 1_555 1_555
C23A C24A 1_555 1_555
C24A C25A 1_555 1_555
C24A C28A 1_555 1_555
C25A H42A 1_555 1_555
C25A C26A 1_555 1_555
C26A C29A 1_555 1_555
C27A H43A 1_555 1_555
C27A H44A 1_555 1_555
C27A H45A 1_555 1_555
C28A H46A 1_555 1_555
C28A H48A 1_555 1_555
C29A H49A 1_555 1_555
C29A H50A 1_555 1_555
C29A H51A 1_555 1_555
C30A C31A 1_555 1_555
C30A C35A 1_555 1_555
C30A C36A 1_555 1_555
C31A C32A 1_555 1_555
C32A C33A 1_555 1_555
C32A C37A 1_555 1_555
C33A H52A 1_555 1_555
C33A C34A 1_555 1_555
C34A C35A 1_555 1_555
C34A C38A 1_555 1_555
C35A H53A 1_555 1_555
C36A H56A 1_555 1_555
C37A H57A 1_555 1_555
C37A H59A 1_555 1_555
C38A H60A 1_555 1_555
C38A H61A 1_555 1_555
C39A C40A 1_555 1_555
C39A C44A 1_555 1_555
C39A C45A 1_555 1_555
C40A C41A 1_555 1_555
C41A C42A 1_555 1_555
C41A C46A 1_555 1_555
C42A H63A 1_555 1_555
C42A C43A 1_555 1_555
C43A C44A 1_555 1_555
C43A C47A 1_555 1_555
C44A H64A 1_555 1_555
C45A H66A 1_555 1_555
C46A H69A 1_555 1_555
C47A H71A 1_555 1_555
C47A H72A 1_555 1_555
C47A H73A 1_555 1_555
B2A C50A 1_555 1_555
B2A C58A 1_555 1_555
B2A C67A 1_555 1_555
C48A C49A 1_555 1_555
C48A C53A 1_555 1_555
C49A C50A 1_555 1_555
C49A C54A 1_555 1_555
C50A C51A 1_555 1_555
C51A C52A 1_555 1_555
C51A C55A 1_555 1_555
C52A H75A 1_555 1_555
C52A C53A 1_555 1_555
C53A C56A 1_555 1_555
C54A H76A 1_555 1_555
C54A H77A 1_555 1_555
C54A H78A 1_555 1_555
C56A H82A 1_555 1_555
C56A H83A 1_555 1_555
C56A H84A 1_555 1_555
C57A C58A 1_555 1_555
C57A C62A 1_555 1_555
C57A C63A 1_555 1_555
C58A C59A 1_555 1_555
C59A C60A 1_555 1_555
C59A C64A 1_555 1_555
C60A H85A 1_555 1_555
C60A C61A 1_555 1_555
C61A C62A 1_555 1_555
C61A C65A 1_555 1_555
C62A H86A 1_555 1_555
C63A H87A 1_555 1_555
C64A H91A 1_555 1_555
C64A H92A 1_555 1_555
C65A H93A 1_555 1_555
C65A H94A 1_555 1_555
C66A C67A 1_555 1_555
C66A C71A 1_555 1_555
C66A C72A 1_555 1_555
C67A C68A 1_555 1_555
C68A C69A 1_555 1_555
C68A C73A 1_555 1_555
C69A H96A 1_555 1_555
C69A C70A 1_555 1_555
C70A C71A 1_555 1_555
C70A C74A 1_555 1_555
C71A H97A 1_555 1_555
C72A H98A 1_555 1_555
C72A H100A 1_555 1_555
C73A H101A 1_555 1_555
C74A H104A 1_555 1_555
C74A H105A 1_555 1_555
C74A H106A 1_555 1_555

#END
