
#######################################################################
#
#                 Cambridge Crystallographic Data Centre
#                                CCDC 
#
#######################################################################
#
# If this CIF has been generated from an entry in the Cambridge 
# Structural Database, then it will include bibliographic, chemical, 
# crystal, experimental, refinement or atomic coordinate data resulting 
# from the CCDC's data processing and validation procedures.
#
#######################################################################

data_CARJEM
_chemical_formula_moiety         'C16 H8 Br2'
_chemical_name_systematic        2,7-Dibromopyrene
_symmetry_cell_setting           monoclinic
_symmetry_space_group_name_H-M   'I 2/m'
_symmetry_Int_Tables_number      12
_space_group_name_Hall           '-I 2y'
loop_
_symmetry_equiv_pos_site_id
_symmetry_equiv_pos_as_xyz
1 x,y,z
2 -x,y,-z
3 1/2+x,1/2+y,1/2+z
4 1/2-x,1/2+y,1/2-z
5 -x,-y,-z
6 x,-y,z
7 1/2-x,1/2-y,1/2-z
8 1/2+x,1/2-y,1/2+z
_cell_length_a                   4.7115(3)
_cell_length_b                   10.8788(8)
_cell_length_c                   11.5010(9)
_cell_angle_alpha                90
_cell_angle_beta                 94.985(4)
_cell_angle_gamma                90
_cell_volume                     587.259
_exptl_crystal_colour            colorless
_exptl_crystal_description       needle
_chemical_melting_point          '573 K'
_cell_formula_units_Z            2
loop_
_atom_site_label
_atom_site_type_symbol
_atom_site_fract_x
_atom_site_fract_y
_atom_site_fract_z
Br1 Br -0.33918(10) 0.5000 0.14976(4)
C1 C 0.0534(7) 0.6116(3) 0.3186(3)
H1 H -0.0234 0.6864 0.2869
C2 C -0.0490(9) 0.5000 0.2763(4)
C3 C 0.3922(7) 0.7257(3) 0.4574(3)
H2 H 0.3176 0.8018 0.4281
C4 C 0.3870(9) 0.5000 0.4553(4)
C5 C 0.2751(7) 0.6132(3) 0.4094(3)
Br1A Br 1.33918(10) 0.5000 0.85024(4)
C1A C 0.9466(7) 0.6116(3) 0.6814(3)
C1D C 0.9466(7) 0.3884(3) 0.6814(3)
C1E C 0.0534(7) 0.3884(3) 0.3186(3)
H1A H 1.0234 0.6864 0.7131
H1D H 1.0234 0.3136 0.7131
H1E H -0.0234 0.3136 0.2869
C2A C 1.0490(9) 0.5000 0.7237(4)
C3A C 0.6078(7) 0.7257(3) 0.5426(3)
C3D C 0.6078(7) 0.2743(3) 0.5426(3)
C3E C 0.3922(7) 0.2743(3) 0.4574(3)
H2A H 0.6824 0.8018 0.5719
H2D H 0.6824 0.1982 0.5719
H2E H 0.3176 0.1982 0.4281
C4A C 0.6130(9) 0.5000 0.5447(4)
C5A C 0.7249(7) 0.6132(3) 0.5906(3)
C5D C 0.7249(7) 0.3868(3) 0.5906(3)
C5E C 0.2751(7) 0.3868(3) 0.4094(3)
loop_
_geom_bond_atom_site_label_1
_geom_bond_atom_site_label_2
_geom_bond_site_symmetry_1
_geom_bond_site_symmetry_2
Br1 C2 1_555 1_555
C1 H1 1_555 1_555
C2 C1 1_555 1_555
C3 H2 1_555 1_555
C4 C5 1_555 1_555
C5 C1 1_555 1_555
Br1A C2A 1_555 1_555
C1A H1A 1_555 1_555
C1D H1D 1_555 1_555
C1E C2 1_555 1_555
H1E C1E 1_555 1_555
C2A C1A 1_555 1_555
C3A C3 1_555 1_555
C3D C3E 1_555 1_555
C3E H2E 1_555 1_555
H2A C3A 1_555 1_555
H2D C3D 1_555 1_555
C4A C4 1_555 1_555
C5A C1A 1_555 1_555
C5D C1D 1_555 1_555
C5E C4 1_555 1_555
C3 C5 1_555 1_555
C1D C2A 1_555 1_555
C1E C5E 1_555 1_555
C3A C5A 1_555 1_555
C3D C5D 1_555 1_555
C3E C5E 1_555 1_555
C4A C5A 1_555 1_555
C4A C5D 1_555 1_555

#END
