
#######################################################################
#
#                 Cambridge Crystallographic Data Centre
#                                CCDC 
#
#######################################################################
#
# If this CIF has been generated from an entry in the Cambridge 
# Structural Database, then it will include bibliographic, chemical, 
# crystal, experimental, refinement or atomic coordinate data resulting 
# from the CCDC's data processing and validation procedures.
#
#######################################################################

data_CARKIR
_chemical_formula_moiety         'K1 1+,C16 H9 B1 F3 1-'
_chemical_name_systematic        'potassium trifluoro(pyren-2-yl)borate'
_symmetry_cell_setting           monoclinic
_symmetry_space_group_name_H-M   'P 21/c'
_symmetry_Int_Tables_number      14
_space_group_name_Hall           '-P 2ybc'
loop_
_symmetry_equiv_pos_site_id
_symmetry_equiv_pos_as_xyz
1 x,y,z
2 -x,1/2+y,1/2-z
3 -x,-y,-z
4 x,1/2-y,1/2+z
_cell_length_a                   20.7067(13)
_cell_length_b                   6.8278(4)
_cell_length_c                   9.0417(6)
_cell_angle_alpha                90
_cell_angle_beta                 91.16(3)
_cell_angle_gamma                90
_cell_volume                     1278.06
_exptl_crystal_colour            colorless
_exptl_crystal_description       plate
_chemical_melting_point          '586.7 K'
_cell_formula_units_Z            4
loop_
_atom_site_label
_atom_site_type_symbol
_atom_site_fract_x
_atom_site_fract_y
_atom_site_fract_z
K1 K 0.541348(15) 0.66011(4) 0.69529(3)
F1 F 0.47691(4) 0.69029(12) 0.43017(9)
F2 F 0.43398(4) 0.91566(14) 0.58543(10)
F3 F 0.43064(4) 0.96887(13) 0.33535(10)
C1 C 0.34563(7) 0.5314(2) 0.50063(15)
H1 H 0.3800(9) 0.473(3) 0.5562(19)
C2 C 0.35516(7) 0.7147(2) 0.43473(15)
C3 C 0.30205(7) 0.8034(2) 0.36402(16)
H2 H 0.3064(9) 0.932(3) 0.318(2)
C4 C 0.18556(7) 0.8125(2) 0.29297(17)
H3 H 0.1914(9) 0.941(3) 0.250(2)
C5 C 0.12617(7) 0.7289(2) 0.29403(18)
H4 H 0.0912(10) 0.797(3) 0.251(2)
C6 C 0.05502(7) 0.4505(3) 0.36372(18)
H5 H 0.0187(11) 0.517(3) 0.323(2)
C7 C 0.04732(8) 0.2688(3) 0.43013(18)
H6 H 0.0041(11) 0.205(3) 0.430(2)
C8 C 0.09956(8) 0.1731(2) 0.49569(18)
H7 H 0.0952(10) 0.048(3) 0.539(2)
C9 C 0.21628(8) 0.1636(2) 0.56509(17)
H8 H 0.2110(9) 0.038(3) 0.604(2)
C10 C 0.27517(7) 0.2489(2) 0.56609(16)
H9 H 0.3124(9) 0.179(3) 0.617(2)
C11 C 0.28550(7) 0.4369(2) 0.49868(15)
C12 C 0.23191(7) 0.5326(2) 0.42905(15)
C13 C 0.24063(7) 0.7177(2) 0.36109(16)
C14 C 0.16951(7) 0.4433(2) 0.42922(15)
C15 C 0.16114(7) 0.2577(2) 0.49730(16)
C16 C 0.11593(7) 0.5413(2) 0.36190(16)
B1 B 0.42303(8) 0.8247(2) 0.44631(18)
loop_
_geom_bond_atom_site_label_1
_geom_bond_atom_site_label_2
_geom_bond_site_symmetry_1
_geom_bond_site_symmetry_2
F1 B1 1_555 1_555
F2 B1 1_555 1_555
F3 B1 1_555 1_555
C1 H1 1_555 1_555
C2 C1 1_555 1_555
C3 C2 1_555 1_555
H2 C3 1_555 1_555
C4 H3 1_555 1_555
C5 C4 1_555 1_555
H4 C5 1_555 1_555
C6 H5 1_555 1_555
C7 C6 1_555 1_555
H6 C7 1_555 1_555
C8 C7 1_555 1_555
H7 C8 1_555 1_555
C9 H8 1_555 1_555
C10 C9 1_555 1_555
H9 C10 1_555 1_555
C11 C1 1_555 1_555
C12 C11 1_555 1_555
C13 C3 1_555 1_555
C14 C12 1_555 1_555
C15 C8 1_555 1_555
C16 C5 1_555 1_555
B1 C2 1_555 1_555
C4 C13 1_555 1_555
C6 C16 1_555 1_555
C9 C15 1_555 1_555
C10 C11 1_555 1_555
C12 C13 1_555 1_555
C14 C15 1_555 1_555
C14 C16 1_555 1_555

#END
