
#######################################################################
#
#                 Cambridge Crystallographic Data Centre
#                                CCDC 
#
#######################################################################
#
# If this CIF has been generated from an entry in the Cambridge 
# Structural Database, then it will include bibliographic, chemical, 
# crystal, experimental, refinement or atomic coordinate data resulting 
# from the CCDC's data processing and validation procedures.
#
#######################################################################

data_CARLOY
_chemical_formula_moiety         'C21 H18 O2'
_chemical_name_systematic        'Methyl 4-(pyren-2-yl)butanoate'
_symmetry_cell_setting           monoclinic
_symmetry_space_group_name_H-M   'P 21/n'
_symmetry_Int_Tables_number      14
_space_group_name_Hall           '-P 2yn'
loop_
_symmetry_equiv_pos_site_id
_symmetry_equiv_pos_as_xyz
1 x,y,z
2 1/2-x,1/2+y,1/2-z
3 -x,-y,-z
4 1/2+x,1/2-y,1/2+z
_cell_length_a                   13.9144(5)
_cell_length_b                   5.0864(2)
_cell_length_c                   22.0871(8)
_cell_angle_alpha                90
_cell_angle_beta                 103.028(13)
_cell_angle_gamma                90
_cell_volume                     1522.96
_exptl_crystal_colour            colorless
_exptl_crystal_description       blade
_chemical_melting_point          '334.7 K'
_cell_formula_units_Z            4
loop_
_atom_site_label
_atom_site_type_symbol
_atom_site_fract_x
_atom_site_fract_y
_atom_site_fract_z
O1 O 0.62961(7) 0.2506(2) 0.05956(5)
O2 O 0.55455(8) 0.5730(2) 0.09923(6)
C1 C 0.19682(11) 0.1235(3) 0.16293(7)
H1 H 0.2383 -0.0129 0.1835
C2 C 0.20845(11) 0.2106(3) 0.10528(7)
C3 C 0.14726(11) 0.4102(3) 0.07578(7)
H2 H 0.1549 0.4706 0.0364
C4 C 0.01103(11) 0.7311(3) 0.07188(7)
H3 H 0.0176 0.7930 0.0324
C5 C -0.05807(11) 0.8388(3) 0.09828(7)
H4 H -0.0987 0.9756 0.0771
C6 C -0.14249(11) 0.8580(3) 0.18643(8)
H5 H -0.1837 0.9963 0.1666
C7 C -0.15363(11) 0.7654(3) 0.24343(7)
H6 H -0.2024 0.8403 0.2621
C8 C -0.09411(11) 0.5641(3) 0.27336(7)
H7 H -0.1030 0.5012 0.3122
C9 C 0.04236(11) 0.2475(3) 0.27691(7)
H8 H 0.0354 0.1842 0.3162
C10 C 0.11203(11) 0.1418(3) 0.25068(7)
H9 H 0.1529 0.0053 0.2718
C11 C 0.12590(10) 0.2311(3) 0.19140(7)
C12 C 0.06370(10) 0.4349(3) 0.16071(7)
C13 C 0.07497(11) 0.5251(3) 0.10186(7)
C14 C -0.00974(10) 0.5475(3) 0.18852(7)
C15 C -0.02125(11) 0.4528(3) 0.24706(7)
C16 C -0.07180(10) 0.7515(3) 0.15774(7)
C17 C 0.28883(11) 0.1018(3) 0.07679(7)
H10 H 0.2647 0.0909 0.0311
H11 H 0.3059 -0.0781 0.0927
C18 C 0.38087(11) 0.2751(3) 0.09205(7)
H12 H 0.3624 0.4566 0.0778
H13 H 0.4058 0.2803 0.1377
C19 C 0.46322(11) 0.1810(3) 0.06229(7)
H14 H 0.4834 0.0018 0.0775
H15 H 0.4380 0.1710 0.0167
C20 C 0.55146(11) 0.3581(3) 0.07634(7)
C21 C 0.71731(11) 0.4121(3) 0.07125(8)
H16 H 0.7020 0.5823 0.0505
H17 H 0.7689 0.3239 0.0551
H18 H 0.7404 0.4396 0.1161
loop_
_geom_bond_atom_site_label_1
_geom_bond_atom_site_label_2
_geom_bond_site_symmetry_1
_geom_bond_site_symmetry_2
O1 C20 1_555 1_555
O2 C20 1_555 1_555
C1 H1 1_555 1_555
C2 C1 1_555 1_555
C3 C2 1_555 1_555
H2 C3 1_555 1_555
C4 H3 1_555 1_555
C5 C4 1_555 1_555
H4 C5 1_555 1_555
C6 H5 1_555 1_555
C7 C6 1_555 1_555
H6 C7 1_555 1_555
C8 C7 1_555 1_555
H7 C8 1_555 1_555
C9 H8 1_555 1_555
C10 C9 1_555 1_555
H9 C10 1_555 1_555
C11 C1 1_555 1_555
C12 C11 1_555 1_555
C13 C3 1_555 1_555
C14 C12 1_555 1_555
C15 C8 1_555 1_555
C16 C5 1_555 1_555
C17 C2 1_555 1_555
H10 C17 1_555 1_555
H11 C17 1_555 1_555
C18 C17 1_555 1_555
H12 C18 1_555 1_555
H13 C18 1_555 1_555
C19 C18 1_555 1_555
H14 C19 1_555 1_555
H15 C19 1_555 1_555
C20 C19 1_555 1_555
C21 O1 1_555 1_555
H16 C21 1_555 1_555
H17 C21 1_555 1_555
H18 C21 1_555 1_555
C4 C13 1_555 1_555
C6 C16 1_555 1_555
C9 C15 1_555 1_555
C10 C11 1_555 1_555
C12 C13 1_555 1_555
C14 C15 1_555 1_555
C14 C16 1_555 1_555

#END
