
#######################################################################
#
#                 Cambridge Crystallographic Data Centre
#                                CCDC 
#
#######################################################################
#
# If this CIF has been generated from an entry in the Cambridge 
# Structural Database, then it will include bibliographic, chemical, 
# crystal, experimental, refinement or atomic coordinate data resulting 
# from the CCDC's data processing and validation procedures.
#
#######################################################################

data_CARLUE
_chemical_formula_moiety         'C21 H18 O3'
_chemical_name_systematic        'Methyl 4-(pyren-2-yloxy)butanoate'
_symmetry_cell_setting           monoclinic
_symmetry_space_group_name_H-M   'P 21/c'
_symmetry_Int_Tables_number      14
_space_group_name_Hall           '-P 2ybc'
loop_
_symmetry_equiv_pos_site_id
_symmetry_equiv_pos_as_xyz
1 x,y,z
2 -x,1/2+y,1/2-z
3 -x,-y,-z
4 x,1/2-y,1/2+z
_cell_length_a                   12.9365(15)
_cell_length_b                   13.0467(16)
_cell_length_c                   9.1748(11)
_cell_angle_alpha                90
_cell_angle_beta                 91.066(7)
_cell_angle_gamma                90
_cell_volume                     1548.24
_exptl_crystal_colour            colorless
_exptl_crystal_description       tablet
_chemical_melting_point          '354.7 K'
_cell_formula_units_Z            4
loop_
_atom_site_label
_atom_site_type_symbol
_atom_site_fract_x
_atom_site_fract_y
_atom_site_fract_z
O1 O 0.95486(5) 0.45851(6) 0.34500(8)
O2 O 0.92444(6) 0.36392(7) 0.14426(8)
O3 O 0.62748(5) 0.29515(5) 0.44397(7)
C1 C 0.50994(7) 0.17949(7) 0.57026(9)
H1 H 0.5420 0.1199 0.5323
C2 C 0.54522(7) 0.27650(7) 0.53189(9)
C3 C 0.49787(7) 0.36458(7) 0.58542(9)
H2 H 0.5226 0.4301 0.5572
C4 C 0.36502(7) 0.44789(7) 0.73709(10)
H3 H 0.3875 0.5140 0.7082
C5 C 0.28627(7) 0.43890(7) 0.83219(10)
H4 H 0.2550 0.4992 0.8692
C6 C 0.16819(7) 0.33008(8) 0.97666(10)
H5 H 0.1366 0.3884 1.0135
C7 C 0.13462(7) 0.23373(8) 1.01988(10)
H6 H 0.0799 0.2281 1.0871
C8 C 0.18039(7) 0.14557(8) 0.96569(10)
H7 H 0.1570 0.0802 0.9965
C9 C 0.31005(7) 0.06339(7) 0.80620(10)
H8 H 0.2873 -0.0028 0.8344
C10 C 0.38852(7) 0.07194(7) 0.71011(10)
H9 H 0.4187 0.0116 0.6717
C11 C 0.42666(6) 0.17032(6) 0.66549(9)
C12 C 0.37892(6) 0.25947(6) 0.72226(9)
C13 C 0.41490(7) 0.35799(7) 0.67949(9)
C14 C 0.29607(7) 0.25065(7) 0.82169(9)
C15 C 0.26094(7) 0.15237(7) 0.86579(10)
C16 C 0.24903(7) 0.34043(7) 0.87821(10)
C17 C 0.68040(7) 0.21013(7) 0.38086(10)
H10 H 0.6317 0.1674 0.3227
H11 H 0.7126 0.1670 0.4580
C18 C 0.76226(7) 0.25530(8) 0.28443(10)
H12 H 0.7284 0.2976 0.2078
H13 H 0.7995 0.1990 0.2357
C19 C 0.83990(7) 0.32115(8) 0.36912(10)
H14 H 0.8019 0.3695 0.4318
H15 H 0.8825 0.2764 0.4335
C20 C 0.91001(7) 0.38099(7) 0.27156(10)
C21 C 1.02395(8) 0.52255(9) 0.26377(13)
H16 H 0.9868 0.5517 0.1794
H17 H 1.0823 0.4814 0.2302
H18 H 1.0498 0.5781 0.3264
loop_
_geom_bond_atom_site_label_1
_geom_bond_atom_site_label_2
_geom_bond_site_symmetry_1
_geom_bond_site_symmetry_2
O1 C20 1_555 1_555
O2 C20 1_555 1_555
O3 C2 1_555 1_555
C1 H1 1_555 1_555
C2 C1 1_555 1_555
C3 C2 1_555 1_555
H2 C3 1_555 1_555
C4 H3 1_555 1_555
C5 C4 1_555 1_555
H4 C5 1_555 1_555
C6 H5 1_555 1_555
C7 C6 1_555 1_555
H6 C7 1_555 1_555
C8 C7 1_555 1_555
H7 C8 1_555 1_555
C9 H8 1_555 1_555
C10 C9 1_555 1_555
H9 C10 1_555 1_555
C11 C1 1_555 1_555
C12 C11 1_555 1_555
C13 C3 1_555 1_555
C14 C12 1_555 1_555
C15 C8 1_555 1_555
C16 C5 1_555 1_555
C17 O3 1_555 1_555
H10 C17 1_555 1_555
H11 C17 1_555 1_555
C18 C17 1_555 1_555
H12 C18 1_555 1_555
H13 C18 1_555 1_555
C19 C18 1_555 1_555
H14 C19 1_555 1_555
H15 C19 1_555 1_555
C20 C19 1_555 1_555
C21 O1 1_555 1_555
H16 C21 1_555 1_555
H17 C21 1_555 1_555
H18 C21 1_555 1_555
C4 C13 1_555 1_555
C6 C16 1_555 1_555
C9 C15 1_555 1_555
C10 C11 1_555 1_555
C12 C13 1_555 1_555
C14 C15 1_555 1_555
C14 C16 1_555 1_555

#END
