
#######################################################################
#
#                 Cambridge Crystallographic Data Centre
#                                CCDC 
#
#######################################################################
#
# If this CIF has been generated from an entry in the Cambridge 
# Structural Database, then it will include bibliographic, chemical, 
# crystal, experimental, refinement or atomic coordinate data resulting 
# from the CCDC's data processing and validation procedures.
#
#######################################################################

data_CARLEO
_chemical_name_common            2-[4-(Methylbenzoate)]pyrene
_chemical_formula_moiety         'C24 H16 O2'
_chemical_name_systematic        'Methyl 4-(pyren-2-yl)benzoate'
_symmetry_cell_setting           monoclinic
_symmetry_space_group_name_H-M   'P 21/c'
_symmetry_Int_Tables_number      14
_space_group_name_Hall           '-P 2ybc'
loop_
_symmetry_equiv_pos_site_id
_symmetry_equiv_pos_as_xyz
1 x,y,z
2 -x,1/2+y,1/2-z
3 -x,-y,-z
4 x,1/2-y,1/2+z
_cell_length_a                   26.916(3)
_cell_length_b                   6.7166(9)
_cell_length_c                   9.1495(11)
_cell_angle_alpha                90
_cell_angle_beta                 98.94(2)
_cell_angle_gamma                90
_cell_volume                     1633.99
_exptl_crystal_colour            colorless
_exptl_crystal_description       plate
_chemical_melting_point          '442.7 K'
_cell_formula_units_Z            4
loop_
_atom_site_label
_atom_site_type_symbol
_atom_site_fract_x
_atom_site_fract_y
_atom_site_fract_z
O1 O 0.43154(4) -0.22493(18) 0.41770(14)
O2 O 0.45720(5) 0.0795(2) 0.35926(14)
C1 C 0.21835(6) 0.1900(2) 0.66137(16)
H1 H 0.2146(7) 0.062(3) 0.608(2)
C2 C 0.26413(5) 0.2928(2) 0.67900(16)
C3 C 0.26762(6) 0.4779(2) 0.75073(16)
H2 H 0.2993(7) 0.547(3) 0.768(2)
C4 C 0.22944(6) 0.7503(2) 0.88016(16)
H3 H 0.2622(7) 0.823(3) 0.895(2)
C5 C 0.18886(6) 0.8307(2) 0.92832(16)
H4 H 0.1922(7) 0.960(3) 0.981(2)
C6 C 0.09841(6) 0.8117(2) 0.95597(16)
H5 H 0.1008(7) 0.942(3) 1.007(2)
C7 C 0.05281(6) 0.7103(3) 0.93350(18)
H6 H 0.0220(8) 0.771(3) 0.962(2)
C8 C 0.04859(6) 0.5259(2) 0.86258(17)
H7 H 0.0161(7) 0.455(3) 0.843(2)
C9 C 0.08767(6) 0.2487(2) 0.73981(16)
H8 H 0.0544(8) 0.179(3) 0.725(2)
C10 C 0.12825(6) 0.1679(2) 0.69199(16)
H9 H 0.1242(7) 0.039(3) 0.639(2)
C11 C 0.17594(6) 0.2696(2) 0.71151(15)
C12 C 0.17965(5) 0.4582(2) 0.78360(15)
C13 C 0.22645(5) 0.5613(2) 0.80426(15)
C14 C 0.13691(5) 0.5426(2) 0.83470(15)
C15 C 0.09021(6) 0.4396(2) 0.81241(16)
C16 C 0.14099(6) 0.7308(2) 0.90739(16)
C17 C 0.30805(5) 0.2095(2) 0.61958(16)
C18 C 0.31975(6) 0.0064(2) 0.63169(16)
H10 H 0.3009(7) -0.083(3) 0.687(2)
C19 C 0.35972(6) -0.0711(2) 0.57059(17)
H11 H 0.3681(7) -0.206(3) 0.583(2)
C20 C 0.38867(5) 0.0525(2) 0.49487(16)
C21 C 0.37795(6) 0.2559(2) 0.48471(18)
H12 H 0.3968(8) 0.341(3) 0.432(2)
C22 C 0.33834(6) 0.3326(2) 0.54708(17)
H13 H 0.3304(7) 0.475(3) 0.539(2)
C23 C 0.42948(6) -0.0254(2) 0.41767(17)
C24 C 0.46989(7) -0.3101(3) 0.3403(2)
H14 H 0.4650(9) -0.258(3) 0.240(3)
H15 H 0.4643(9) -0.454(4) 0.342(3)
H16 H 0.5021(9) -0.276(3) 0.394(2)
loop_
_geom_bond_atom_site_label_1
_geom_bond_atom_site_label_2
_geom_bond_site_symmetry_1
_geom_bond_site_symmetry_2
O1 C23 1_555 1_555
O2 C23 1_555 1_555
C1 H1 1_555 1_555
C2 C1 1_555 1_555
C3 C2 1_555 1_555
H2 C3 1_555 1_555
C4 H3 1_555 1_555
C5 C4 1_555 1_555
H4 C5 1_555 1_555
C6 H5 1_555 1_555
C7 C6 1_555 1_555
H6 C7 1_555 1_555
C8 C7 1_555 1_555
H7 C8 1_555 1_555
C9 H8 1_555 1_555
C10 C9 1_555 1_555
H9 C10 1_555 1_555
C11 C1 1_555 1_555
C12 C11 1_555 1_555
C13 C3 1_555 1_555
C14 C12 1_555 1_555
C15 C8 1_555 1_555
C16 C5 1_555 1_555
C17 C2 1_555 1_555
C18 C17 1_555 1_555
H10 C18 1_555 1_555
C19 C18 1_555 1_555
H11 C19 1_555 1_555
C20 C19 1_555 1_555
C21 C20 1_555 1_555
H12 C21 1_555 1_555
C22 C17 1_555 1_555
H13 C22 1_555 1_555
C23 C20 1_555 1_555
C24 O1 1_555 1_555
H14 C24 1_555 1_555
H15 C24 1_555 1_555
H16 C24 1_555 1_555
C4 C13 1_555 1_555
C6 C16 1_555 1_555
C9 C15 1_555 1_555
C10 C11 1_555 1_555
C12 C13 1_555 1_555
C14 C15 1_555 1_555
C14 C16 1_555 1_555
C21 C22 1_555 1_555

#END
