
#######################################################################
#
#                 Cambridge Crystallographic Data Centre
#                                CCDC 
#
#######################################################################
#
# If this CIF has been generated from an entry in the Cambridge 
# Structural Database, then it will include bibliographic, chemical, 
# crystal, experimental, refinement or atomic coordinate data resulting 
# from the CCDC's data processing and validation procedures.
#
#######################################################################

data_CARNIS
_chemical_formula_moiety         'C13 H22 N2 O1 S2'
_chemical_name_systematic        
5-Methyl-3-(1-oxo-decyl)-1,3,4-thiadiazole-2(3H)-2-thione
_symmetry_cell_setting           monoclinic
_symmetry_space_group_name_H-M   'P 21/a'
_symmetry_Int_Tables_number      14
_space_group_name_Hall           '-P 2yab'
loop_
_symmetry_equiv_pos_site_id
_symmetry_equiv_pos_as_xyz
1 x,y,z
2 1/2-x,1/2+y,-z
3 -x,-y,-z
4 1/2+x,1/2-y,z
_cell_length_a                   8.0494(7)
_cell_length_b                   9.2472(4)
_cell_length_c                   20.1232(16)
_cell_angle_alpha                90
_cell_angle_beta                 94.709(3)
_cell_angle_gamma                90
_cell_volume                     1492.8
_exptl_crystal_colour            yellow
_exptl_crystal_description       plate
_cell_formula_units_Z            4
loop_
_atom_site_label
_atom_site_type_symbol
_atom_site_fract_x
_atom_site_fract_y
_atom_site_fract_z
S1 S 0.69940(10) 0.46668(7) 0.05098(4)
C1 C 0.6290(3) 0.3240(3) 0.09701(14)
S2 S 0.65641(10) 0.15416(7) 0.07616(4)
N1 N 0.5519(3) 0.3832(2) 0.14957(10)
N2 N 0.5416(3) 0.5340(2) 0.15205(11)
C2 C 0.6134(3) 0.5900(3) 0.10354(14)
C3 C 0.6228(4) 0.7499(3) 0.09292(15)
C4 C 0.4790(4) 0.3041(3) 0.20097(14)
O1 O 0.4752(3) 0.17479(19) 0.19909(10)
C5 C 0.4144(4) 0.3931(3) 0.25577(13)
C6 C 0.3681(3) 0.2983(3) 0.31331(13)
C7 C 0.3220(3) 0.3846(3) 0.37359(13)
C8 C 0.2837(3) 0.2918(3) 0.43280(13)
C9 C 0.2450(3) 0.3784(3) 0.49383(13)
C10 C 0.2078(3) 0.2860(3) 0.55303(13)
C11 C 0.1716(3) 0.3713(3) 0.61482(13)
C12 C 0.1345(3) 0.2755(3) 0.67349(13)
C13 C 0.1007(4) 0.3578(3) 0.73602(14)
H1 H 0.5657 0.7744 0.0506
H2 H 0.7374 0.7789 0.0935
H3 H 0.5711 0.7990 0.1279
H4 H 0.3172 0.4469 0.2382
H5 H 0.4991 0.4620 0.2720
H6 H 0.4614 0.2356 0.3268
H7 H 0.2745 0.2374 0.2980
H8 H 0.4135 0.4492 0.3874
H9 H 0.2254 0.4438 0.3605
H10 H 0.1891 0.2303 0.4196
H11 H 0.3785 0.2296 0.4447
H12 H 0.3393 0.4404 0.5068
H13 H 0.1498 0.4402 0.4820
H14 H 0.3023 0.2231 0.5643
H15 H 0.1124 0.2251 0.5401
H16 H 0.0768 0.4341 0.6038
H17 H 0.2668 0.4320 0.6280
H18 H 0.0384 0.2158 0.6603
H19 H 0.2287 0.2116 0.6838
H20 H 0.0795 0.2906 0.7707
H21 H 0.0052 0.4190 0.7269
H22 H 0.1959 0.4160 0.7501
loop_
_geom_bond_atom_site_label_1
_geom_bond_atom_site_label_2
_geom_bond_site_symmetry_1
_geom_bond_site_symmetry_2
S1 C1 1_555 1_555
C1 S2 1_555 1_555
N1 C1 1_555 1_555
N2 N1 1_555 1_555
C2 S1 1_555 1_555
C3 C2 1_555 1_555
C4 N1 1_555 1_555
O1 C4 1_555 1_555
C5 C4 1_555 1_555
C6 C5 1_555 1_555
C7 C6 1_555 1_555
C8 C7 1_555 1_555
C9 C8 1_555 1_555
C10 C9 1_555 1_555
C11 C10 1_555 1_555
C12 C11 1_555 1_555
C13 C12 1_555 1_555
H1 C3 1_555 1_555
H2 C3 1_555 1_555
H3 C3 1_555 1_555
H4 C5 1_555 1_555
H5 C5 1_555 1_555
H6 C6 1_555 1_555
H7 C6 1_555 1_555
H8 C7 1_555 1_555
H9 C7 1_555 1_555
H10 C8 1_555 1_555
H11 C8 1_555 1_555
H12 C9 1_555 1_555
H13 C9 1_555 1_555
H14 C10 1_555 1_555
H15 C10 1_555 1_555
H16 C11 1_555 1_555
H17 C11 1_555 1_555
H18 C12 1_555 1_555
H19 C12 1_555 1_555
H20 C13 1_555 1_555
H21 C13 1_555 1_555
H22 C13 1_555 1_555
N2 C2 1_555 1_555

#END
