
#######################################################################
#
#                 Cambridge Crystallographic Data Centre
#                                CCDC 
#
#######################################################################
#
# If this CIF has been generated from an entry in the Cambridge 
# Structural Database, then it will include bibliographic, chemical, 
# crystal, experimental, refinement or atomic coordinate data resulting 
# from the CCDC's data processing and validation procedures.
#
#######################################################################

data_CARRIY
_chemical_formula_moiety         'C15 H22 O3'
_chemical_name_systematic        
5-Hydroxy-3,3-dimethyl-6-methylenedecahydro-2-oxacycloocta[cd]pentalen-1(2aH)-one
_symmetry_cell_setting           orthorhombic
_symmetry_space_group_name_H-M   'P 21 21 21'
_symmetry_Int_Tables_number      19
_space_group_name_Hall           'P 2ac 2ab'
loop_
_symmetry_equiv_pos_site_id
_symmetry_equiv_pos_as_xyz
1 x,y,z
2 1/2-x,-y,1/2+z
3 -x,1/2+y,1/2-z
4 1/2+x,1/2-y,-z
_cell_length_a                   6.2388(12)
_cell_length_b                   13.386(3)
_cell_length_c                   15.778(3)
_cell_angle_alpha                90
_cell_angle_beta                 90
_cell_angle_gamma                90
_cell_volume                     1317.66
_exptl_crystal_colour            colorless
_exptl_crystal_description       rod
_chemical_melting_point          '127-128 deg.C'
_cell_formula_units_Z            4
loop_
_atom_site_label
_atom_site_type_symbol
_atom_site_fract_x
_atom_site_fract_y
_atom_site_fract_z
O1 O -0.6209(4) -0.34397(15) 0.31248(14)
O2 O -0.4134(3) -0.25854(14) 0.40100(11)
O3 O -0.0104(3) 0.03633(12) 0.17609(11)
H1 H -0.1222 0.0706 0.1818
C1 C -0.2337(4) -0.18923(19) 0.39698(15)
H2 H -0.1215 -0.2092 0.4389
C2 C -0.2994(4) -0.07837(19) 0.41182(15)
C3 C -0.5313(5) -0.0667(2) 0.44166(19)
H3 H -0.5676 0.0044 0.4448
H4 H -0.5475 -0.0971 0.4978
H5 H -0.6274 -0.1000 0.4015
C4 C -0.1497(5) -0.0322(2) 0.47793(16)
H6 H -0.0009 -0.0385 0.4588
H7 H -0.1672 -0.0672 0.5321
H8 H -0.1852 0.0385 0.4853
C5 C -0.2624(4) -0.02875(18) 0.32457(15)
H9 H -0.3950 -0.0308 0.2902
H10 H -0.2182 0.0418 0.3316
C6 C -0.0842(4) -0.08931(17) 0.28207(15)
H11 H 0.0542 -0.0723 0.3106
C7 C -0.0595(4) -0.06715(17) 0.18712(15)
H12 H -0.1993 -0.0813 0.1586
C8 C 0.1125(4) -0.1280(2) 0.14420(15)
C9 C 0.2932(5) -0.0854(2) 0.11845(17)
H13 H 0.3151 -0.0159 0.1270
H14 H 0.4005 -0.1244 0.0915
C10 C 0.0781(5) -0.2392(2) 0.13061(17)
H15 H 0.1261 -0.2745 0.1824
H16 H 0.1730 -0.2609 0.0838
C11 C -0.1509(5) -0.2746(2) 0.11005(16)
H17 H -0.2314 -0.2176 0.0857
H18 H -0.1423 -0.3269 0.0659
C12 C -0.2788(5) -0.31620(19) 0.18520(17)
H19 H -0.4152 -0.3439 0.1634
H20 H -0.1967 -0.3722 0.2102
C13 C -0.3311(4) -0.24152(18) 0.25581(15)
H21 H -0.4124 -0.1848 0.2299
C14 C -0.4712(5) -0.2880(2) 0.32312(18)
C15 C -0.1434(4) -0.19737(18) 0.30621(14)
H22 H -0.0152 -0.2422 0.3042
loop_
_geom_bond_atom_site_label_1
_geom_bond_atom_site_label_2
_geom_bond_site_symmetry_1
_geom_bond_site_symmetry_2
O1 C14 1_555 1_555
O2 C1 1_555 1_555
O3 H1 1_555 1_555
C1 H2 1_555 1_555
C2 C1 1_555 1_555
C3 C2 1_555 1_555
H3 C3 1_555 1_555
H4 C3 1_555 1_555
H5 C3 1_555 1_555
C4 C2 1_555 1_555
H6 C4 1_555 1_555
H7 C4 1_555 1_555
H8 C4 1_555 1_555
C5 C2 1_555 1_555
H9 C5 1_555 1_555
H10 C5 1_555 1_555
C6 C5 1_555 1_555
H11 C6 1_555 1_555
C7 O3 1_555 1_555
H12 C7 1_555 1_555
C8 C7 1_555 1_555
C9 C8 1_555 1_555
H13 C9 1_555 1_555
H14 C9 1_555 1_555
C10 C8 1_555 1_555
H15 C10 1_555 1_555
H16 C10 1_555 1_555
C11 C10 1_555 1_555
H17 C11 1_555 1_555
H18 C11 1_555 1_555
C12 C11 1_555 1_555
H19 C12 1_555 1_555
H20 C12 1_555 1_555
C13 C12 1_555 1_555
H21 C13 1_555 1_555
C14 O2 1_555 1_555
C15 C1 1_555 1_555
H22 C15 1_555 1_555
C6 C7 1_555 1_555
C6 C15 1_555 1_555
C13 C14 1_555 1_555
C13 C15 1_555 1_555

#END
