
#######################################################################
#
#                 Cambridge Crystallographic Data Centre
#                                CCDC 
#
#######################################################################
#
# If this CIF has been generated from an entry in the Cambridge 
# Structural Database, then it will include bibliographic, chemical, 
# crystal, experimental, refinement or atomic coordinate data resulting 
# from the CCDC's data processing and validation procedures.
#
#######################################################################

data_CARTEX
_chemical_formula_moiety         'C18 H18 O2 S1'
_chemical_name_systematic        
5-(((4-methylphenyl)sulfanyl)methyl)-5-phenyldihydrofuran-2(3H)-one
_symmetry_cell_setting           monoclinic
_symmetry_space_group_name_H-M   'P 21/c'
_symmetry_Int_Tables_number      14
_space_group_name_Hall           '-P 2ybc'
loop_
_symmetry_equiv_pos_site_id
_symmetry_equiv_pos_as_xyz
1 x,y,z
2 -x,1/2+y,1/2-z
3 -x,-y,-z
4 x,1/2-y,1/2+z
_cell_length_a                   6.9021(9)
_cell_length_b                   10.5761(14)
_cell_length_c                   21.419(3)
_cell_angle_alpha                90
_cell_angle_beta                 97.055(3)
_cell_angle_gamma                90
_cell_volume                     1551.69
_cell_formula_units_Z            4
loop_
_atom_site_label
_atom_site_type_symbol
_atom_site_fract_x
_atom_site_fract_y
_atom_site_fract_z
S1 S 0.16237(8) 0.60780(5) 0.63800(3)
O1 O 0.42796(17) 0.60373(11) 0.76660(6)
O2 O 0.67108(19) 0.72982(15) 0.74882(8)
C1 C 0.2191(2) 0.60829(15) 0.77047(9)
C2 C 0.1781(3) 0.53827(16) 0.82894(8)
C3 C 0.5021(3) 0.71868(18) 0.75571(9)
C4 C 0.1172(3) 0.53936(18) 0.71269(9)
H1 H -0.0224 0.5395 0.7149
H2 H 0.1602 0.4520 0.7141
C5 C 0.1691(3) 0.75101(16) 0.77147(10)
H3 H 0.0573 0.7701 0.7409
H4 H 0.1400 0.7764 0.8128
C6 C 0.3403(3) 0.50481(18) 0.61259(8)
C7 C -0.0085(3) 0.5398(2) 0.84665(10)
H5 H -0.1067 0.5851 0.8228
C8 C 0.5189(3) 0.5513(2) 0.60118(10)
H6 H 0.5514 0.6349 0.6111
C9 C 0.3484(3) 0.81771(17) 0.75499(10)
H7 H 0.3233 0.8562 0.7137
H8 H 0.3885 0.8832 0.7856
C10 C 0.6096(3) 0.3498(2) 0.56063(9)
C11 C 0.2984(3) 0.3786(2) 0.59899(10)
H9 H 0.1791 0.3449 0.6066
C12 C 0.3209(3) 0.4690(2) 0.86512(10)
H10 H 0.4470 0.4662 0.8541
C13 C -0.0503(3) 0.4745(2) 0.89942(11)
H11 H -0.1759 0.4769 0.9109
C14 C 0.6507(3) 0.4747(2) 0.57506(10)
H12 H 0.7697 0.5084 0.5671
C15 C 0.4332(3) 0.3030(2) 0.57423(10)
H13 H 0.4041 0.2182 0.5665
C16 C 0.0920(4) 0.4068(2) 0.93461(11)
H14 H 0.0636 0.3627 0.9699
C17 C 0.2765(4) 0.4041(2) 0.91762(11)
H15 H 0.3734 0.3581 0.9417
C18 C 0.7514(4) 0.2681(3) 0.53080(12)
H16 H 0.8749 0.3106 0.5327
H17 H 0.7016 0.2524 0.4877
H18 H 0.7682 0.1893 0.5530
loop_
_geom_bond_atom_site_label_1
_geom_bond_atom_site_label_2
_geom_bond_site_symmetry_1
_geom_bond_site_symmetry_2
S1 C4 1_555 1_555
O1 C1 1_555 1_555
O2 C3 1_555 1_555
C1 C2 1_555 1_555
C2 C7 1_555 1_555
C3 O1 1_555 1_555
C4 C1 1_555 1_555
H1 C4 1_555 1_555
H2 C4 1_555 1_555
C5 C1 1_555 1_555
H3 C5 1_555 1_555
H4 C5 1_555 1_555
C6 S1 1_555 1_555
C7 H5 1_555 1_555
C8 C6 1_555 1_555
H6 C8 1_555 1_555
C9 C3 1_555 1_555
H7 C9 1_555 1_555
H8 C9 1_555 1_555
C10 C14 1_555 1_555
C11 C6 1_555 1_555
H9 C11 1_555 1_555
C12 C2 1_555 1_555
H10 C12 1_555 1_555
C13 C7 1_555 1_555
H11 C13 1_555 1_555
C14 C8 1_555 1_555
H12 C14 1_555 1_555
C15 C10 1_555 1_555
H13 C15 1_555 1_555
C16 C13 1_555 1_555
H14 C16 1_555 1_555
C17 C12 1_555 1_555
H15 C17 1_555 1_555
C18 C10 1_555 1_555
H16 C18 1_555 1_555
H17 C18 1_555 1_555
H18 C18 1_555 1_555
C5 C9 1_555 1_555
C11 C15 1_555 1_555
C16 C17 1_555 1_555

#END
