
#######################################################################
#
#                 Cambridge Crystallographic Data Centre
#                                CCDC 
#
#######################################################################
#
# If this CIF has been generated from an entry in the Cambridge 
# Structural Database, then it will include bibliographic, chemical, 
# crystal, experimental, refinement or atomic coordinate data resulting 
# from the CCDC's data processing and validation procedures.
#
#######################################################################

data_CARVID
_chemical_formula_moiety         'C23 H22 N1 O3 P1'
_chemical_name_systematic        
'diethyl [8-(naphthalen-1-yl)quinolin-7-yl]phosphonate'
_symmetry_cell_setting           monoclinic
_symmetry_space_group_name_H-M   'P 21'
_symmetry_Int_Tables_number      4
_space_group_name_Hall           'P 2yb'
loop_
_symmetry_equiv_pos_site_id
_symmetry_equiv_pos_as_xyz
1 x,y,z
2 -x,1/2+y,-z
_cell_length_a                   10.8978(6)
_cell_length_b                   7.6316(4)
_cell_length_c                   11.6940(6)
_cell_angle_alpha                90
_cell_angle_beta                 96.598(2)
_cell_angle_gamma                90
_cell_volume                     966.121
_exptl_crystal_colour            colorless
_exptl_crystal_description       block
_cell_formula_units_Z            2
loop_
_atom_site_label
_atom_site_type_symbol
_atom_site_fract_x
_atom_site_fract_y
_atom_site_fract_z
P1 P 0.17410(5) 0.55357(7) 0.82254(4)
O1 O 0.14108(14) 0.74626(19) 0.85749(14)
O2 O 0.13178(13) 0.5495(2) 0.68891(11)
O3 O 0.12162(15) 0.4122(2) 0.88723(13)
N1 N 0.61462(17) 0.3326(2) 0.77271(15)
C1 C 0.41374(19) 0.4478(3) 0.79166(16)
C2 C 0.34037(18) 0.5677(3) 0.84164(16)
C3 C 0.3961(2) 0.7011(3) 0.91602(17)
H1 H 0.3450 0.7825 0.9497
C4 C 0.5212(2) 0.7137(3) 0.93954(17)
H2 H 0.5564 0.8064 0.9866
C5 C 0.59884(19) 0.5894(3) 0.89419(17)
C6 C 0.72906(19) 0.5888(3) 0.92176(17)
H3 H 0.7685 0.6762 0.9709
C7 C 0.7970(2) 0.4612(3) 0.87673(18)
H4 H 0.8841 0.4561 0.8955
C8 C 0.7348(2) 0.3367(3) 0.80152(19)
H5 H 0.7833 0.2499 0.7696
C9 C 0.54483(19) 0.4568(3) 0.81941(16)
C10 C 0.36421(18) 0.3082(3) 0.70890(17)
C11 C 0.3321(2) 0.1466(3) 0.74691(18)
H6 H 0.3352 0.1254 0.8272
C12 C 0.2944(2) 0.0107(3) 0.66797(19)
H7 H 0.2727 -0.1007 0.6958
C13 C 0.28916(19) 0.0390(3) 0.55262(18)
H8 H 0.2649 -0.0535 0.5005
C14 C 0.31954(19) 0.2054(3) 0.50938(18)
C15 C 0.3144(2) 0.2383(3) 0.38942(19)
H9 H 0.2883 0.1481 0.3361
C16 C 0.3464(2) 0.3985(4) 0.34975(19)
H10 H 0.3428 0.4186 0.2693
C17 C 0.3846(2) 0.5337(3) 0.42739(18)
H11 H 0.4071 0.6444 0.3990
C18 C 0.38974(19) 0.5071(3) 0.54356(18)
H12 H 0.4147 0.6002 0.5950
C19 C 0.35830(19) 0.3428(3) 0.58816(17)
C20 C 0.0126(2) 0.7973(3) 0.8576(2)
H13 H -0.0148 0.7731 0.9339
H14 H -0.0401 0.7292 0.7990
C21 C 0.0009(2) 0.9889(3) 0.8312(2)
H15 H 0.0221 1.0105 0.7532
H16 H 0.0572 1.0549 0.8867
H17 H -0.0842 1.0266 0.8363
C22 C 0.0591(2) 0.4069(3) 0.63290(18)
H18 H -0.0201 0.3950 0.6660
H19 H 0.1048 0.2950 0.6440
C23 C 0.0356(2) 0.4508(3) 0.5068(2)
H20 H -0.0124 0.3565 0.4661
H21 H 0.1146 0.4636 0.4752
H22 H -0.0107 0.5609 0.4969
loop_
_geom_bond_atom_site_label_1
_geom_bond_atom_site_label_2
_geom_bond_site_symmetry_1
_geom_bond_site_symmetry_2
P1 O1 1_555 1_555
O1 C20 1_555 1_555
O2 P1 1_555 1_555
O3 P1 1_555 1_555
N1 C8 1_555 1_555
C1 C2 1_555 1_555
C2 P1 1_555 1_555
C3 C2 1_555 1_555
H1 C3 1_555 1_555
C4 C3 1_555 1_555
H2 C4 1_555 1_555
C5 C4 1_555 1_555
C6 C5 1_555 1_555
H3 C6 1_555 1_555
C7 C6 1_555 1_555
H4 C7 1_555 1_555
C8 C7 1_555 1_555
H5 C8 1_555 1_555
C9 N1 1_555 1_555
C10 C1 1_555 1_555
C11 C10 1_555 1_555
H6 C11 1_555 1_555
C12 C11 1_555 1_555
H7 C12 1_555 1_555
C13 C12 1_555 1_555
H8 C13 1_555 1_555
C14 C13 1_555 1_555
C15 C14 1_555 1_555
H9 C15 1_555 1_555
C16 C15 1_555 1_555
H10 C16 1_555 1_555
C17 C16 1_555 1_555
H11 C17 1_555 1_555
C18 C17 1_555 1_555
H12 C18 1_555 1_555
C19 C10 1_555 1_555
C20 H13 1_555 1_555
H14 C20 1_555 1_555
C21 C20 1_555 1_555
H15 C21 1_555 1_555
H16 C21 1_555 1_555
H17 C21 1_555 1_555
C22 O2 1_555 1_555
H18 C22 1_555 1_555
H19 C22 1_555 1_555
C23 C22 1_555 1_555
H20 C23 1_555 1_555
H21 C23 1_555 1_555
H22 C23 1_555 1_555
C1 C9 1_555 1_555
C5 C9 1_555 1_555
C14 C19 1_555 1_555
C18 C19 1_555 1_555

#END
