
#######################################################################
#
#                 Cambridge Crystallographic Data Centre
#                                CCDC 
#
#######################################################################
#
# If this CIF has been generated from an entry in the Cambridge 
# Structural Database, then it will include bibliographic, chemical, 
# crystal, experimental, refinement or atomic coordinate data resulting 
# from the CCDC's data processing and validation procedures.
#
#######################################################################

data_CARWAW
_chemical_formula_moiety         'C24 H25 F1 N2 O4'
_chemical_name_systematic        
't-butyl [5-fluoro-2-oxo-3-(2-oxo-2-phenylethyl)-1-(prop-2-en-1-yl)-2,3-dihydro-1H-indol-3-yl]carbamate'
_symmetry_cell_setting           orthorhombic
_symmetry_space_group_name_H-M   'P 21 21 2'
_symmetry_Int_Tables_number      18
_space_group_name_Hall           'P 2 2ab'
loop_
_symmetry_equiv_pos_site_id
_symmetry_equiv_pos_as_xyz
1 x,y,z
2 -x,-y,z
3 1/2+x,1/2-y,-z
4 1/2-x,1/2+y,-z
_cell_length_a                   19.798(2)
_cell_length_b                   25.043(3)
_cell_length_c                   9.2803(9)
_cell_angle_alpha                90
_cell_angle_beta                 90
_cell_angle_gamma                90
_cell_volume                     4601.18
_exptl_crystal_colour            colorless
_exptl_crystal_description       block
_cell_formula_units_Z            8
loop_
_atom_site_label
_atom_site_type_symbol
_atom_site_fract_x
_atom_site_fract_y
_atom_site_fract_z
F1 F -0.09169(9) -0.19613(7) 1.14946(14)
O1 O -0.20186(7) -0.12080(6) 0.44701(15)
O2 O -0.14731(10) -0.01814(7) 0.6633(2)
O3 O -0.21872(6) -0.23497(5) 0.60781(15)
O4 O -0.32344(6) -0.24078(5) 0.70955(15)
N1 N -0.10853(7) -0.13971(6) 0.58278(16)
N2 N -0.27036(7) -0.16386(6) 0.71146(17)
H1 H -0.3087 -0.1506 0.7367
C1 C -0.21009(8) -0.13055(7) 0.71171(19)
C2 C -0.15346(8) -0.15037(6) 0.80767(18)
C3 C -0.15386(10) -0.16458(8) 0.9504(2)
H2 H -0.1930 -0.1632 1.0056
C4 C -0.09295(13) -0.18110(9) 1.0076(2)
C5 C -0.03413(11) -0.18360(9) 0.9311(3)
H3 H 0.0056 -0.1948 0.9752
C6 C -0.03432(9) -0.16924(8) 0.7860(2)
H4 H 0.0050 -0.1705 0.7312
C7 C -0.09477(8) -0.15312(7) 0.72680(18)
C8 C -0.23405(9) -0.07356(7) 0.7477(2)
H5 H -0.2625 -0.0607 0.6701
H6 H -0.2611 -0.0746 0.8348
C9 C -0.17611(10) -0.03484(8) 0.7693(3)
C10 C -0.15485(10) -0.01839(7) 0.9169(3)
C11 C -0.10091(13) 0.01738(10) 0.9278(4)
H7 H -0.0797 0.0301 0.8453
C12 C -0.07935(18) 0.03362(14) 1.0631(6)
H8 H -0.0430 0.0570 1.0711
C13 C -0.1111(2) 0.01554(16) 1.1854(5)
H9 H -0.0968 0.0272 1.2755
C14 C -0.1640(2) -0.01963(13) 1.1749(4)
H10 H -0.1851 -0.0323 1.2577
C15 C -0.18566(14) -0.03604(10) 1.0415(3)
H11 H -0.2219 -0.0596 1.0350
C16 C -0.05878(11) -0.14017(10) 0.4676(2)
H12 H -0.0819 -0.1401 0.3754
H13 H -0.0324 -0.1727 0.4737
C17 C -0.01299(17) -0.09362(18) 0.4753(4)
H14 H 0.0052 -0.0866 0.3848
C18 C 0.0055(4) -0.0658(3) 0.5511(9)
H15 H 0.0517 -0.0632 0.5679
H16 H -0.0243 -0.0440 0.6012
C19 C -0.17507(8) -0.13018(7) 0.56230(19)
C20 C -0.26590(9) -0.21569(7) 0.67136(19)
C21 C -0.32820(11) -0.29944(7) 0.7048(2)
C22 C -0.32952(15) -0.31807(9) 0.5500(2)
H17 H -0.3650 -0.2999 0.4992
H18 H -0.3375 -0.3559 0.5472
H19 H -0.2869 -0.3103 0.5053
C23 C -0.39467(13) -0.30911(10) 0.7794(3)
H20 H -0.3916 -0.2975 0.8778
H21 H -0.4051 -0.3465 0.7769
H22 H -0.4296 -0.2895 0.7312
C24 C -0.27001(15) -0.32407(11) 0.7879(3)
H23 H -0.2287 -0.3188 0.7355
H24 H -0.2780 -0.3616 0.8001
H25 H -0.2665 -0.3073 0.8807
F2 F -0.53464(9) -0.21803(7) 0.5943(2)
O5 O -0.33303(7) -0.14031(6) -0.00607(14)
O6 O -0.37978(7) -0.26535(6) 0.14732(19)
O7 O -0.41494(8) -0.05793(6) 0.2354(2)
O8 O -0.32736(8) -0.02758(5) 0.37054(18)
N3 N -0.44145(8) -0.16074(7) 0.06155(18)
N4 N -0.33155(8) -0.11225(6) 0.31128(18)
H27 H -0.2940 -0.1143 0.3575
C26 C -0.35993(8) -0.16014(7) 0.24654(18)
C27 C -0.42872(9) -0.17487(7) 0.3038(2)
C28 C -0.44787(11) -0.18867(8) 0.4411(2)
H28 H -0.4173 -0.1888 0.5171
C29 C -0.51471(12) -0.20224(9) 0.4603(3)
C30 C -0.56137(12) -0.20177(9) 0.3521(4)
H29 H -0.6060 -0.2111 0.3708
C31 C -0.54178(10) -0.18710(8) 0.2129(3)
H30 H -0.5728 -0.1861 0.1376
C32 C -0.47480(9) -0.17419(7) 0.1911(2)
C33 C -0.30622(8) -0.20406(7) 0.26266(18)
H31 H -0.2648 -0.1917 0.2179
H32 H -0.2971 -0.2090 0.3645
C34 C -0.32443(9) -0.25758(7) 0.19834(18)
C35 C -0.27298(9) -0.30066(7) 0.19764(17)
C36 C -0.20617(10) -0.29202(8) 0.2323(2)
H33 H -0.1920 -0.2584 0.2623
C37 C -0.16007(12) -0.33367(10) 0.2223(3)
H34 H -0.1150 -0.3277 0.2454
C38 C -0.18018(13) -0.38319(10) 0.1792(3)
H35 H -0.1488 -0.4106 0.1708
C39 C -0.24672(13) -0.39243(9) 0.1482(3)
H36 H -0.2606 -0.4265 0.1211
C40 C -0.29318(11) -0.35182(8) 0.1570(2)
H37 H -0.3383 -0.3585 0.1357
C41 C -0.37494(9) -0.15170(7) 0.0849(2)
C42 C -0.47042(13) -0.16040(10) -0.0819(3)
H38 H -0.5098 -0.1835 -0.0828
H39 H -0.4377 -0.1751 -0.1489
C43 C -0.49031(19) -0.10726(17) -0.1314(5)
H40 H -0.5016 -0.1057 -0.2286
C44 C -0.4945(6) -0.0678(4) -0.0734(12)
H41 H -0.4846 -0.0362 -0.1217
H42 H -0.5079 -0.0668 0.0226
C45 C -0.36297(10) -0.06484(8) 0.3002(2)
C46 C -0.34842(13) 0.02873(9) 0.3704(3)
C47 C -0.29098(17) 0.05499(11) 0.4541(4)
H43 H -0.2875 0.0390 0.5478
H44 H -0.2999 0.0925 0.4642
H45 H -0.2493 0.0501 0.4029
C48 C -0.3486(2) 0.04897(12) 0.2150(4)
H46 H -0.3062 0.0404 0.1702
H47 H -0.3550 0.0870 0.2145
H48 H -0.3847 0.0322 0.1627
C49 C -0.4166(3) 0.0382(2) 0.4288(11)
H49 H -0.4496 0.0243 0.3630
H50 H -0.4235 0.0759 0.4412
H51 H -0.4209 0.0206 0.5201
H26? H -0.0327 -0.0650 0.4270
C25? C 0.0434(3) -0.0793(3) 0.5244(9)
H52? H -0.5201 -0.0888 -0.0722
C50? C -0.4724(6) -0.0838(3) -0.2424(11)
H53? H -0.4686 -0.0468 -0.2428
H54? H -0.4627 -0.1032 -0.3253
C51? C -0.4047(10) 0.0230(7) 0.504(3)
H55? H -0.4443 0.0051 0.4694
H56? H -0.4169 0.0579 0.5385
H57? H -0.3853 0.0027 0.5817
loop_
_geom_bond_atom_site_label_1
_geom_bond_atom_site_label_2
_geom_bond_site_symmetry_1
_geom_bond_site_symmetry_2
F1 C4 1_555 1_555
O1 C19 1_555 1_555
O2 C9 1_555 1_555
O3 C20 1_555 1_555
O4 C20 1_555 1_555
N1 C7 1_555 1_555
N2 H1 1_555 1_555
C1 N2 1_555 1_555
C2 C1 1_555 1_555
C3 C2 1_555 1_555
H2 C3 1_555 1_555
C4 C3 1_555 1_555
C5 C4 1_555 1_555
H3 C5 1_555 1_555
C6 C5 1_555 1_555
H4 C6 1_555 1_555
C7 C2 1_555 1_555
C8 C1 1_555 1_555
H5 C8 1_555 1_555
H6 C8 1_555 1_555
C9 C8 1_555 1_555
C10 C9 1_555 1_555
C11 C10 1_555 1_555
H7 C11 1_555 1_555
C12 C11 1_555 1_555
H8 C12 1_555 1_555
C13 C12 1_555 1_555
H9 C13 1_555 1_555
C14 C13 1_555 1_555
H10 C14 1_555 1_555
C15 C10 1_555 1_555
H11 C15 1_555 1_555
C16 N1 1_555 1_555
H12 C16 1_555 1_555
H13 C16 1_555 1_555
C17 C16 1_555 1_555
H14 C17 1_555 1_555
C18 C17 1_555 1_555
H15 C18 1_555 1_555
H16 C18 1_555 1_555
C19 N1 1_555 1_555
C20 N2 1_555 1_555
C21 O4 1_555 1_555
C22 C21 1_555 1_555
H17 C22 1_555 1_555
H18 C22 1_555 1_555
H19 C22 1_555 1_555
C23 C21 1_555 1_555
H20 C23 1_555 1_555
H21 C23 1_555 1_555
H22 C23 1_555 1_555
C24 C21 1_555 1_555
H23 C24 1_555 1_555
H24 C24 1_555 1_555
H25 C24 1_555 1_555
F2 C29 1_555 1_555
O5 C41 1_555 1_555
O6 C34 1_555 1_555
O7 C45 1_555 1_555
O8 C45 1_555 1_555
N3 C32 1_555 1_555
N4 H27 1_555 1_555
C26 N4 1_555 1_555
C27 C26 1_555 1_555
C28 C27 1_555 1_555
H28 C28 1_555 1_555
C29 C28 1_555 1_555
C30 C29 1_555 1_555
H29 C30 1_555 1_555
C31 C30 1_555 1_555
H30 C31 1_555 1_555
C32 C27 1_555 1_555
C33 C26 1_555 1_555
H31 C33 1_555 1_555
H32 C33 1_555 1_555
C34 C33 1_555 1_555
C35 C34 1_555 1_555
C36 C35 1_555 1_555
H33 C36 1_555 1_555
C37 C36 1_555 1_555
H34 C37 1_555 1_555
C38 C37 1_555 1_555
H35 C38 1_555 1_555
C39 C38 1_555 1_555
H36 C39 1_555 1_555
C40 C35 1_555 1_555
H37 C40 1_555 1_555
C41 N3 1_555 1_555
C42 N3 1_555 1_555
H38 C42 1_555 1_555
H39 C42 1_555 1_555
C43 C42 1_555 1_555
H40 C43 1_555 1_555
C44 C43 1_555 1_555
H41 C44 1_555 1_555
H42 C44 1_555 1_555
C45 N4 1_555 1_555
C46 O8 1_555 1_555
C47 C46 1_555 1_555
H43 C47 1_555 1_555
H44 C47 1_555 1_555
H45 C47 1_555 1_555
C48 C46 1_555 1_555
H46 C48 1_555 1_555
H47 C48 1_555 1_555
H48 C48 1_555 1_555
C49 C46 1_555 1_555
H49 C49 1_555 1_555
H50 C49 1_555 1_555
H51 C49 1_555 1_555
C1 C19 1_555 1_555
C6 C7 1_555 1_555
C14 C15 1_555 1_555
C26 C41 1_555 1_555
C31 C32 1_555 1_555
C39 C40 1_555 1_555

#END
