
#######################################################################
#
#                 Cambridge Crystallographic Data Centre
#                                CCDC 
#
#######################################################################
#
# If this CIF has been generated from an entry in the Cambridge 
# Structural Database, then it will include bibliographic, chemical, 
# crystal, experimental, refinement or atomic coordinate data resulting 
# from the CCDC's data processing and validation procedures.
#
#######################################################################

data_CARXUQ
_chemical_formula_moiety         'C34 H36 I2,0.5(C6 H12)'
_chemical_name_systematic        
'1,4-Dihexyl-2,5-bis((4-iodophenyl)ethynyl)benzene cyclohexane solvate'
_symmetry_cell_setting           triclinic
_symmetry_space_group_name_H-M   'P -1'
_symmetry_Int_Tables_number      2
_space_group_name_Hall           '-P 1'
loop_
_symmetry_equiv_pos_site_id
_symmetry_equiv_pos_as_xyz
1 x,y,z
2 -x,-y,-z
_cell_length_a                   7.2908(9)
_cell_length_b                   15.0277(16)
_cell_length_c                   15.3177(15)
_cell_angle_alpha                88.906(6)
_cell_angle_beta                 78.977(7)
_cell_angle_gamma                82.784(7)
_cell_volume                     1634.24
_exptl_crystal_colour            colorless
_exptl_crystal_description       block
_cell_formula_units_Z            2
loop_
_atom_site_label
_atom_site_type_symbol
_atom_site_fract_x
_atom_site_fract_y
_atom_site_fract_z
I1 I -0.23129(6) 0.85804(3) 0.67025(2)
C1 C -0.1847(7) 0.8796(4) 0.5325(3)
C2 C -0.1124(8) 0.8074(3) 0.4756(3)
C3 C -0.0758(8) 0.8221(3) 0.3842(3)
C4 C -0.1152(7) 0.9074(3) 0.3499(3)
C5 C -0.1893(9) 0.9781(4) 0.4077(3)
C6 C -0.2252(9) 0.9642(4) 0.4997(3)
C7 C -0.0789(8) 0.9231(3) 0.2563(3)
C8 C -0.0531(7) 0.9424(3) 0.1784(3)
C9 C -0.0270(7) 0.9725(3) 0.0878(3)
C10 C 0.0540(7) 0.9101(3) 0.0192(3)
C11 C 0.0801(7) 0.9378(3) -0.0691(3)
C12 C 0.1649(8) 0.8720(3) -0.1446(3)
C13 C 0.2024(7) 0.7748(4) -0.1195(3)
C14 C 0.2789(8) 0.7155(3) -0.2009(3)
C15 C 0.3122(8) 0.6166(3) -0.1798(3)
C16 C 0.3847(9) 0.5574(4) -0.2616(3)
C17 C 0.4154(10) 0.4594(4) -0.2415(5)
H1 H -0.0893 0.7499 0.4980
H2 H -0.0245 0.7740 0.3450
H3 H -0.2150 1.0353 0.3855
H4 H -0.2759 1.0122 0.5381
H5 H 0.0876 0.8499 0.0341
H6 H 0.2835 0.8908 -0.1737
H7 H 0.0776 0.8762 -0.1852
H8 H 0.0871 0.7545 -0.0881
H9 H 0.2950 0.7685 -0.0815
H10 H 0.3973 0.7348 -0.2297
H11 H 0.1895 0.7234 -0.2405
H12 H 0.1943 0.5973 -0.1486
H13 H 0.4054 0.6075 -0.1415
H14 H 0.2939 0.5658 -0.3004
H15 H 0.5031 0.5760 -0.2918
H16 H 0.2963 0.4399 -0.2162
H17 H 0.4689 0.4264 -0.2950
H18 H 0.4981 0.4497 -0.1999
I1A I 0.23129(6) 1.14196(3) -0.67025(2)
C1A C 0.1847(7) 1.1204(4) -0.5325(3)
C2A C 0.1124(8) 1.1926(3) -0.4756(3)
C3A C 0.0758(8) 1.1779(3) -0.3842(3)
C4A C 0.1152(7) 1.0926(3) -0.3499(3)
C5A C 0.1893(9) 1.0219(4) -0.4077(3)
C6A C 0.2252(9) 1.0358(4) -0.4997(3)
C7A C 0.0789(8) 1.0769(3) -0.2563(3)
C8A C 0.0531(7) 1.0576(3) -0.1784(3)
C9A C 0.0270(7) 1.0275(3) -0.0878(3)
C10A C -0.0540(7) 1.0899(3) -0.0192(3)
C11A C -0.0801(7) 1.0622(3) 0.0691(3)
C12A C -0.1649(8) 1.1280(3) 0.1446(3)
C13A C -0.2024(7) 1.2252(4) 0.1195(3)
C14A C -0.2789(8) 1.2845(3) 0.2009(3)
C15A C -0.3122(8) 1.3834(3) 0.1798(3)
C16A C -0.3847(9) 1.4426(4) 0.2616(3)
C17A C -0.4154(10) 1.5406(4) 0.2415(5)
H1A H 0.0893 1.2501 -0.4980
H2A H 0.0245 1.2260 -0.3450
H3A H 0.2150 0.9647 -0.3855
H4A H 0.2759 0.9878 -0.5381
H5A H -0.0876 1.1501 -0.0341
H6A H -0.2835 1.1092 0.1737
H7A H -0.0776 1.1238 0.1852
H8A H -0.0871 1.2455 0.0881
H9A H -0.2950 1.2315 0.0815
H10A H -0.3973 1.2652 0.2297
H11A H -0.1895 1.2766 0.2405
H12A H -0.1943 1.4027 0.1486
H13A H -0.4054 1.3925 0.1415
H14A H -0.2939 1.4342 0.3004
H15A H -0.5031 1.4240 0.2918
H16A H -0.2963 1.5601 0.2162
H17A H -0.4689 1.5736 0.2950
H18A H -0.4981 1.5503 0.1999
I2 I 0.08085(6) 0.66799(2) 0.15059(3)
C18 C 0.1504(7) 0.5289(3) 0.1299(3)
C19 C 0.1344(8) 0.4713(3) 0.2003(3)
C20 C 0.1826(8) 0.3795(3) 0.1861(3)
C21 C 0.2452(7) 0.3464(3) 0.1000(3)
C22 C 0.2598(9) 0.4058(4) 0.0290(3)
C23 C 0.2138(9) 0.4963(4) 0.0437(3)
C24 C 0.3004(7) 0.2512(3) 0.0833(3)
C25 C 0.3529(7) 0.1745(3) 0.0613(3)
C26 C 0.4250(7) 0.0859(3) 0.0301(4)
C27 C 0.4386(7) 0.0150(3) 0.0899(3)
C28 C 0.5131(7) -0.0717(3) 0.0615(3)
C29 C 0.5295(8) -0.1480(3) 0.1268(3)
C30 C 0.4626(8) -0.1251(3) 0.2247(3)
C31 C 0.4865(8) -0.2083(4) 0.2833(3)
C32 C 0.4268(8) -0.1877(4) 0.3818(4)
C33 C 0.4365(9) -0.2708(4) 0.4402(4)
C34 C 0.3746(9) -0.2495(4) 0.5393(4)
H19 H 0.0914 0.4934 0.2575
H20 H 0.1723 0.3403 0.2343
H21 H 0.3019 0.3838 -0.0286
H22 H 0.2241 0.5359 -0.0036
H23 H 0.3982 0.0256 0.1501
H24 H 0.6617 -0.1724 0.1193
H25 H 0.4577 -0.1933 0.1120
H26 H 0.5348 -0.0796 0.2413
H27 H 0.3304 -0.1016 0.2349
H28 H 0.6181 -0.2332 0.2721
H29 H 0.4114 -0.2521 0.2679
H30 H 0.2975 -0.1592 0.3931
H31 H 0.5090 -0.1478 0.3984
H32 H 0.5649 -0.3003 0.4297
H33 H 0.3549 -0.3111 0.4239
H34 H 0.3764 -0.3041 0.5730
H35 H 0.2491 -0.2178 0.5511
H36 H 0.4601 -0.2132 0.5575
I2A I 0.91915(6) -0.66799(2) -0.15059(3)
C18A C 0.8496(7) -0.5289(3) -0.1299(3)
C19A C 0.8656(8) -0.4713(3) -0.2003(3)
C20A C 0.8174(8) -0.3795(3) -0.1861(3)
C21A C 0.7548(7) -0.3464(3) -0.1000(3)
C22A C 0.7402(9) -0.4058(4) -0.0290(3)
C23A C 0.7862(9) -0.4963(4) -0.0437(3)
C24A C 0.6996(7) -0.2512(3) -0.0833(3)
C25A C 0.6471(7) -0.1745(3) -0.0613(3)
C26A C 0.5750(7) -0.0859(3) -0.0301(4)
C27A C 0.5614(7) -0.0150(3) -0.0899(3)
C28A C 0.4869(7) 0.0717(3) -0.0615(3)
C29A C 0.4705(8) 0.1480(3) -0.1268(3)
C30A C 0.5374(8) 0.1251(3) -0.2247(3)
C31A C 0.5135(8) 0.2083(4) -0.2833(3)
C32A C 0.5732(8) 0.1877(4) -0.3818(4)
C33A C 0.5635(9) 0.2708(4) -0.4402(4)
C34A C 0.6254(9) 0.2495(4) -0.5393(4)
H19A H 0.9086 -0.4934 -0.2575
H20A H 0.8277 -0.3403 -0.2343
H21A H 0.6981 -0.3838 0.0286
H22A H 0.7759 -0.5359 0.0036
H23A H 0.6018 -0.0256 -0.1501
H24A H 0.3383 0.1724 -0.1193
H25A H 0.5423 0.1933 -0.1120
H26A H 0.4652 0.0796 -0.2413
H27A H 0.6696 0.1016 -0.2349
H28A H 0.3819 0.2332 -0.2721
H29A H 0.5886 0.2521 -0.2679
H30A H 0.7025 0.1592 -0.3931
H31A H 0.4910 0.1478 -0.3984
H32A H 0.4351 0.3003 -0.4297
H33A H 0.6451 0.3111 -0.4239
H34A H 0.6236 0.3041 -0.5730
H35A H 0.7509 0.2178 -0.5511
H36A H 0.5399 0.2132 -0.5575
C35 C -0.1622(9) 0.5596(4) 0.5472(4)
C36 C 0.0404(10) 0.5724(4) 0.5529(4)
C37 C 0.1685(9) 0.4839(5) 0.5394(4)
H37 H -0.2397 0.6175 0.5521
H38 H -0.2116 0.5212 0.5954
H39 H 0.0864 0.6136 0.5064
H40 H 0.0427 0.5975 0.6108
H41 H 0.2972 0.4928 0.5418
H42 H 0.1223 0.4435 0.5861
C35A C 0.1622(9) 0.4404(4) 0.4528(4)
C36A C -0.0404(10) 0.4276(4) 0.4471(4)
C37A C -0.1685(9) 0.5161(5) 0.4606(4)
H37A H 0.2397 0.3825 0.4479
H38A H 0.2116 0.4788 0.4046
H39A H -0.0864 0.3864 0.4936
H40A H -0.0427 0.4025 0.3892
H41A H -0.2972 0.5072 0.4582
H42A H -0.1223 0.5565 0.4139
loop_
_geom_bond_atom_site_label_1
_geom_bond_atom_site_label_2
_geom_bond_site_symmetry_1
_geom_bond_site_symmetry_2
I1 C1 1_555 1_555
C1 C2 1_555 1_555
C2 C3 1_555 1_555
C3 C4 1_555 1_555
C4 C5 1_555 1_555
C5 C6 1_555 1_555
C6 C1 1_555 1_555
C7 C4 1_555 1_555
C8 C7 1_555 1_555
C9 C8 1_555 1_555
C10 C9 1_555 1_555
C11 C10 1_555 1_555
C12 C11 1_555 1_555
C13 C12 1_555 1_555
C14 C13 1_555 1_555
C15 C14 1_555 1_555
C16 C15 1_555 1_555
C17 C16 1_555 1_555
H1 C2 1_555 1_555
H2 C3 1_555 1_555
H3 C5 1_555 1_555
H4 C6 1_555 1_555
H5 C10 1_555 1_555
H6 C12 1_555 1_555
H7 C12 1_555 1_555
H8 C13 1_555 1_555
H9 C13 1_555 1_555
H10 C14 1_555 1_555
H11 C14 1_555 1_555
H12 C15 1_555 1_555
H13 C15 1_555 1_555
H14 C16 1_555 1_555
H15 C16 1_555 1_555
H16 C17 1_555 1_555
H17 C17 1_555 1_555
H18 C17 1_555 1_555
I2 C18 1_555 1_555
C18 C19 1_555 1_555
C19 C20 1_555 1_555
C20 C21 1_555 1_555
C21 C22 1_555 1_555
C22 C23 1_555 1_555
C23 C18 1_555 1_555
C24 C21 1_555 1_555
C25 C24 1_555 1_555
C26 C25 1_555 1_555
C27 C26 1_555 1_555
C28 C27 1_555 1_555
C29 C28 1_555 1_555
C30 C29 1_555 1_555
C31 C30 1_555 1_555
C32 C31 1_555 1_555
C33 C32 1_555 1_555
C34 C33 1_555 1_555
H19 C19 1_555 1_555
H20 C20 1_555 1_555
H21 C22 1_555 1_555
H22 C23 1_555 1_555
H23 C27 1_555 1_555
H24 C29 1_555 1_555
H25 C29 1_555 1_555
H26 C30 1_555 1_555
H27 C30 1_555 1_555
H28 C31 1_555 1_555
H29 C31 1_555 1_555
H30 C32 1_555 1_555
H31 C32 1_555 1_555
H32 C33 1_555 1_555
H33 C33 1_555 1_555
H34 C34 1_555 1_555
H35 C34 1_555 1_555
H36 C34 1_555 1_555
C35 C36 1_555 1_555
C36 C37 1_555 1_555
C37 H41 1_555 1_555
H37 C35 1_555 1_555
H38 C35 1_555 1_555
H39 C36 1_555 1_555
H40 C36 1_555 1_555
H42 C37 1_555 1_555
I1A C1A 1_555 1_555
C1A C2A 1_555 1_555
C2A C3A 1_555 1_555
C3A C4A 1_555 1_555
C4A C5A 1_555 1_555
C5A C6A 1_555 1_555
C6A C1A 1_555 1_555
C7A C4A 1_555 1_555
C8A C7A 1_555 1_555
C9A C11 1_555 1_555
C10A C9A 1_555 1_555
C11A C9 1_555 1_555
C12A C11A 1_555 1_555
C13A C12A 1_555 1_555
C14A C13A 1_555 1_555
C15A C14A 1_555 1_555
C16A C15A 1_555 1_555
C17A C16A 1_555 1_555
H1A C2A 1_555 1_555
H2A C3A 1_555 1_555
H3A C5A 1_555 1_555
H4A C6A 1_555 1_555
H5A C10A 1_555 1_555
H6A C12A 1_555 1_555
H7A C12A 1_555 1_555
H8A C13A 1_555 1_555
H9A C13A 1_555 1_555
H10A C14A 1_555 1_555
H11A C14A 1_555 1_555
H12A C15A 1_555 1_555
H13A C15A 1_555 1_555
H14A C16A 1_555 1_555
H15A C16A 1_555 1_555
H16A C17A 1_555 1_555
H17A C17A 1_555 1_555
H18A C17A 1_555 1_555
I2A C18A 1_555 1_555
C18A C19A 1_555 1_555
C19A C20A 1_555 1_555
C20A C21A 1_555 1_555
C21A C22A 1_555 1_555
C22A C23A 1_555 1_555
C23A C18A 1_555 1_555
C24A C21A 1_555 1_555
C25A C24A 1_555 1_555
C26A C28 1_555 1_555
C27A C26A 1_555 1_555
C28A C26 1_555 1_555
C29A C28A 1_555 1_555
C30A C29A 1_555 1_555
C31A C30A 1_555 1_555
C32A C31A 1_555 1_555
C33A C32A 1_555 1_555
C34A C33A 1_555 1_555
H19A C19A 1_555 1_555
H20A C20A 1_555 1_555
H21A C22A 1_555 1_555
H22A C23A 1_555 1_555
H23A C27A 1_555 1_555
H24A C29A 1_555 1_555
H25A C29A 1_555 1_555
H26A C30A 1_555 1_555
H27A C30A 1_555 1_555
H28A C31A 1_555 1_555
H29A C31A 1_555 1_555
H30A C32A 1_555 1_555
H31A C32A 1_555 1_555
H32A C33A 1_555 1_555
H33A C33A 1_555 1_555
H34A C34A 1_555 1_555
H35A C34A 1_555 1_555
H36A C34A 1_555 1_555
C35A C37 1_555 1_555
C36A C35A 1_555 1_555
C37A C35 1_555 1_555
H37A C35A 1_555 1_555
H38A C35A 1_555 1_555
H39A C36A 1_555 1_555
H40A C36A 1_555 1_555
H41A C37A 1_555 1_555
H42A C37A 1_555 1_555
C8A C9A 1_555 1_555
C10A C11A 1_555 1_555
C25A C26A 1_555 1_555
C27A C28A 1_555 1_555
C36A C37A 1_555 1_555

#END
