
#######################################################################
#
#                 Cambridge Crystallographic Data Centre
#                                CCDC 
#
#######################################################################
#
# If this CIF has been generated from an entry in the Cambridge 
# Structural Database, then it will include bibliographic, chemical, 
# crystal, experimental, refinement or atomic coordinate data resulting 
# from the CCDC's data processing and validation procedures.
#
#######################################################################

data_CARXIE
_chemical_formula_moiety         'C34 H36 Cl2'
_chemical_name_systematic        
1,4-bis((4-Chlorophenyl)ethynyl)-2,5-dihexylbenzene
_symmetry_cell_setting           triclinic
_symmetry_space_group_name_H-M   'P -1'
_symmetry_Int_Tables_number      2
_space_group_name_Hall           '-P 1'
loop_
_symmetry_equiv_pos_site_id
_symmetry_equiv_pos_as_xyz
1 x,y,z
2 -x,-y,-z
_cell_length_a                   5.6220(7)
_cell_length_b                   8.0932(11)
_cell_length_c                   15.495(2)
_cell_angle_alpha                86.859(9)
_cell_angle_beta                 83.191(9)
_cell_angle_gamma                87.654(9)
_cell_volume                     698.576
_exptl_crystal_colour            colorless
_exptl_crystal_description       plate
_cell_formula_units_Z            1
loop_
_atom_site_label
_atom_site_type_symbol
_atom_site_fract_x
_atom_site_fract_y
_atom_site_fract_z
Cl1 Cl 1.24650(9) 0.73710(7) 1.03085(3)
C1 C 1.1117(3) 0.6855(2) 0.94062(11)
C2 C 0.8946(3) 0.7631(2) 0.92518(11)
C3 C 0.7920(3) 0.7246(2) 0.85232(11)
C4 C 0.9038(3) 0.6109(2) 0.79461(11)
C5 C 1.1232(3) 0.5351(2) 0.81178(12)
C6 C 1.2261(3) 0.5714(2) 0.88519(11)
C7 C 0.7972(3) 0.5740(2) 0.71853(11)
C8 C 0.7051(3) 0.5460(2) 0.65478(11)
C9 C 0.6014(3) 0.5192(2) 0.57688(10)
C10 C 0.4042(3) 0.6193(2) 0.55613(11)
C11 C 0.3004(3) 0.6031(2) 0.47995(10)
C12 C 0.0955(3) 0.7161(2) 0.45712(11)
C13 C 0.1840(3) 0.8652(2) 0.39886(11)
C14 C -0.0158(3) 0.9673(2) 0.35959(11)
C15 C -0.1283(3) 0.8772(2) 0.29146(12)
C16 C -0.2987(3) 0.9852(2) 0.24143(12)
C17 C -0.3994(4) 0.8899(3) 0.17224(13)
H1 H 0.8178 0.8423 0.9645
H2 H 0.6401 0.7768 0.8412
H3 H 1.2027 0.4571 0.7721
H4 H 1.3750 0.5195 0.8979
H5 H 0.3389 0.7009 0.5959
H6 H 0.0042 0.7552 0.5111
H7 H -0.0129 0.6530 0.4257
H8 H 0.2740 0.9370 0.4332
H9 H 0.2963 0.8210 0.3496
H10 H -0.1410 0.9978 0.4075
H11 H 0.0542 1.0712 0.3328
H12 H -0.2177 0.7817 0.3197
H13 H 0.0018 0.8338 0.2491
H14 H -0.4321 1.0275 0.2839
H15 H -0.2104 1.0808 0.2127
H16 H -0.5001 0.9622 0.1382
H17 H -0.4941 0.7981 0.2000
H18 H -0.2650 0.8447 0.1330
Cl1A Cl -0.24650(9) 0.26290(7) -0.03085(3)
C1A C -0.1117(3) 0.3145(2) 0.05938(11)
C2A C 0.1054(3) 0.2369(2) 0.07482(11)
C3A C 0.2080(3) 0.2754(2) 0.14768(11)
C4A C 0.0962(3) 0.3891(2) 0.20539(11)
C5A C -0.1232(3) 0.4649(2) 0.18822(12)
C6A C -0.2261(3) 0.4286(2) 0.11481(11)
C7A C 0.2028(3) 0.4260(2) 0.28147(11)
C8A C 0.2949(3) 0.4540(2) 0.34522(11)
C9A C 0.3986(3) 0.4808(2) 0.42312(10)
C10A C 0.5958(3) 0.3807(2) 0.44387(11)
C11A C 0.6996(3) 0.3969(2) 0.52005(10)
C12A C 0.9045(3) 0.2839(2) 0.54288(11)
C13A C 0.8160(3) 0.1348(2) 0.60114(11)
C14A C 1.0158(3) 0.0327(2) 0.64041(11)
C15A C 1.1283(3) 0.1228(2) 0.70854(12)
C16A C 1.2987(3) 0.0148(2) 0.75857(12)
C17A C 1.3994(4) 0.1101(3) 0.82776(13)
H1A H 0.1822 0.1577 0.0355
H2A H 0.3599 0.2232 0.1588
H3A H -0.2027 0.5429 0.2279
H4A H -0.3750 0.4805 0.1021
H5A H 0.6611 0.2991 0.4041
H6A H 0.9958 0.2448 0.4889
H7A H 1.0129 0.3470 0.5743
H8A H 0.7260 0.0630 0.5668
H9A H 0.7037 0.1790 0.6504
H10A H 1.1410 0.0022 0.5925
H11A H 0.9458 -0.0712 0.6672
H12A H 1.2177 0.2183 0.6803
H13A H 0.9982 0.1662 0.7509
H14A H 1.4321 -0.0275 0.7161
H15A H 1.2104 -0.0808 0.7873
H16A H 1.5001 0.0378 0.8618
H17A H 1.4941 0.2019 0.8000
H18A H 1.2650 0.1553 0.8670
loop_
_geom_bond_atom_site_label_1
_geom_bond_atom_site_label_2
_geom_bond_site_symmetry_1
_geom_bond_site_symmetry_2
Cl1 C1 1_555 1_555
C1 C2 1_555 1_555
C2 C3 1_555 1_555
C3 C4 1_555 1_555
C4 C5 1_555 1_555
C5 C6 1_555 1_555
C6 C1 1_555 1_555
C7 C4 1_555 1_555
C8 C7 1_555 1_555
C9 C8 1_555 1_555
C10 C9 1_555 1_555
C11 C10 1_555 1_555
C12 C11 1_555 1_555
C13 C12 1_555 1_555
C14 C13 1_555 1_555
C15 C14 1_555 1_555
C16 C15 1_555 1_555
C17 C16 1_555 1_555
H1 C2 1_555 1_555
H2 C3 1_555 1_555
H3 C5 1_555 1_555
H4 C6 1_555 1_555
H5 C10 1_555 1_555
H6 C12 1_555 1_555
H7 C12 1_555 1_555
H8 C13 1_555 1_555
H9 C13 1_555 1_555
H10 C14 1_555 1_555
H11 C14 1_555 1_555
H12 C15 1_555 1_555
H13 C15 1_555 1_555
H14 C16 1_555 1_555
H15 C16 1_555 1_555
H16 C17 1_555 1_555
H17 C17 1_555 1_555
H18 C17 1_555 1_555
Cl1A C1A 1_555 1_555
C1A C2A 1_555 1_555
C2A C3A 1_555 1_555
C3A C4A 1_555 1_555
C4A C5A 1_555 1_555
C5A C6A 1_555 1_555
C6A C1A 1_555 1_555
C7A C4A 1_555 1_555
C8A C7A 1_555 1_555
C9A C11 1_555 1_555
C10A C9A 1_555 1_555
C11A C9 1_555 1_555
C12A C11A 1_555 1_555
C13A C12A 1_555 1_555
C14A C13A 1_555 1_555
C15A C14A 1_555 1_555
C16A C15A 1_555 1_555
C17A C16A 1_555 1_555
H1A C2A 1_555 1_555
H2A C3A 1_555 1_555
H3A C5A 1_555 1_555
H4A C6A 1_555 1_555
H5A C10A 1_555 1_555
H6A C12A 1_555 1_555
H7A C12A 1_555 1_555
H8A C13A 1_555 1_555
H9A C13A 1_555 1_555
H10A C14A 1_555 1_555
H11A C14A 1_555 1_555
H12A C15A 1_555 1_555
H13A C15A 1_555 1_555
H14A C16A 1_555 1_555
H15A C16A 1_555 1_555
H16A C17A 1_555 1_555
H17A C17A 1_555 1_555
H18A C17A 1_555 1_555
C8A C9A 1_555 1_555
C10A C11A 1_555 1_555

#END
