
#######################################################################
#
#                 Cambridge Crystallographic Data Centre
#                                CCDC 
#
#######################################################################
#
# If this CIF has been generated from an entry in the Cambridge 
# Structural Database, then it will include bibliographic, chemical, 
# crystal, experimental, refinement or atomic coordinate data resulting 
# from the CCDC's data processing and validation procedures.
#
#######################################################################

data_CARXOK
_chemical_formula_moiety         'C34 H36 Br2'
_chemical_name_systematic        
1,4-bis((4-Bromophenyl)ethynyl)-2,5-dihexylbenzene
_symmetry_cell_setting           triclinic
_symmetry_space_group_name_H-M   'P -1'
_symmetry_Int_Tables_number      2
_space_group_name_Hall           '-P 1'
loop_
_symmetry_equiv_pos_site_id
_symmetry_equiv_pos_as_xyz
1 x,y,z
2 -x,-y,-z
_cell_length_a                   5.7434(8)
_cell_length_b                   8.0996(8)
_cell_length_c                   15.4925(16)
_cell_angle_alpha                86.096(5)
_cell_angle_beta                 82.539(5)
_cell_angle_gamma                87.253(4)
_cell_volume                     712.383
_exptl_crystal_colour            colorless
_exptl_crystal_description       needle
_cell_formula_units_Z            1
loop_
_atom_site_label
_atom_site_type_symbol
_atom_site_fract_x
_atom_site_fract_y
_atom_site_fract_z
Br1 Br 1.25410(2) 0.740888(17) 1.032281(7)
C1 C 1.10874(18) 0.68527(13) 0.93532(6)
C2 C 0.89330(18) 0.76043(14) 0.92220(7)
C3 C 0.79030(18) 0.72299(14) 0.84985(7)
C4 C 0.90271(17) 0.61239(12) 0.79056(6)
C5 C 1.12058(18) 0.53901(13) 0.80543(7)
C6 C 1.22371(18) 0.57397(13) 0.87836(7)
C7 C 0.79528(18) 0.57600(13) 0.71586(6)
C8 C 0.70391(18) 0.54789(13) 0.65267(6)
C9 C 0.60031(18) 0.51991(13) 0.57603(6)
C10 C 0.40507(18) 0.61908(13) 0.55602(6)
C11 C 0.30172(17) 0.60218(12) 0.48071(6)
C12 C 0.09802(18) 0.71391(13) 0.45877(6)
C13 C 0.18131(19) 0.86391(13) 0.39924(7)
C14 C -0.0169(2) 0.96534(13) 0.36117(7)
C15 C -0.1288(2) 0.87457(14) 0.29439(7)
C16 C -0.2963(2) 0.98354(14) 0.24461(7)
C17 C -0.3962(2) 0.88884(16) 0.17655(8)
H1 H 0.8167 0.8392 0.9609
H2 H 0.6423 0.7725 0.8397
H3 H 1.1966 0.4629 0.7657
H4 H 1.3700 0.5219 0.8886
H5 H 0.3415 0.7005 0.5954
H6 H 0.0109 0.7535 0.5124
H7 H -0.0060 0.6506 0.4291
H8 H 0.2641 0.9364 0.4321
H9 H 0.2929 0.8223 0.3511
H10 H 0.0439 1.0678 0.3330
H11 H -0.1406 0.9956 0.4085
H12 H -0.0044 0.8301 0.2524
H13 H -0.2160 0.7801 0.3238
H14 H -0.2135 1.0786 0.2172
H15 H -0.4274 1.0262 0.2864
H16 H -0.4938 0.9618 0.1443
H17 H -0.2698 0.8464 0.1367
H18 H -0.4869 0.7962 0.2035
Br1A Br -0.25410(2) 0.259112(17) -0.032281(7)
C1A C -0.10874(18) 0.31473(13) 0.06468(6)
C2A C 0.10670(18) 0.23957(14) 0.07780(7)
C3A C 0.20970(18) 0.27701(14) 0.15015(7)
C4A C 0.09729(17) 0.38761(12) 0.20944(6)
C5A C -0.12058(18) 0.46099(13) 0.19457(7)
C6A C -0.22371(18) 0.42603(13) 0.12164(7)
C7A C 0.20472(18) 0.42400(13) 0.28414(6)
C8A C 0.29609(18) 0.45211(13) 0.34733(6)
C9A C 0.39969(18) 0.48009(13) 0.42397(6)
C10A C 0.59493(18) 0.38092(13) 0.44398(6)
C11A C 0.69828(17) 0.39782(12) 0.51929(6)
C12A C 0.90198(18) 0.28609(13) 0.54123(6)
C13A C 0.81869(19) 0.13609(13) 0.60076(7)
C14A C 1.0169(2) 0.03466(13) 0.63883(7)
C15A C 1.1288(2) 0.12543(14) 0.70561(7)
C16A C 1.2963(2) 0.01646(14) 0.75539(7)
C17A C 1.3962(2) 0.11116(16) 0.82345(8)
H1A H 0.1833 0.1608 0.0391
H2A H 0.3577 0.2275 0.1603
H3A H -0.1966 0.5371 0.2343
H4A H -0.3700 0.4781 0.1114
H5A H 0.6585 0.2995 0.4046
H6A H 0.9891 0.2465 0.4876
H7A H 1.0060 0.3494 0.5709
H8A H 0.7359 0.0636 0.5679
H9A H 0.7071 0.1777 0.6489
H10A H 0.9561 -0.0678 0.6670
H11A H 1.1406 0.0044 0.5915
H12A H 1.0044 0.1699 0.7476
H13A H 1.2160 0.2199 0.6762
H14A H 1.2135 -0.0786 0.7828
H15A H 1.4274 -0.0262 0.7136
H16A H 1.4938 0.0382 0.8557
H17A H 1.2698 0.1536 0.8633
H18A H 1.4869 0.2038 0.7965
loop_
_geom_bond_atom_site_label_1
_geom_bond_atom_site_label_2
_geom_bond_site_symmetry_1
_geom_bond_site_symmetry_2
Br1 C1 1_555 1_555
C1 C2 1_555 1_555
C2 C3 1_555 1_555
C3 C4 1_555 1_555
C4 C5 1_555 1_555
C5 C6 1_555 1_555
C6 C1 1_555 1_555
C7 C4 1_555 1_555
C8 C7 1_555 1_555
C9 C8 1_555 1_555
C10 C9 1_555 1_555
C11 C10 1_555 1_555
C12 C11 1_555 1_555
C13 C12 1_555 1_555
C14 C13 1_555 1_555
C15 C14 1_555 1_555
C16 C15 1_555 1_555
C17 C16 1_555 1_555
H1 C2 1_555 1_555
H2 C3 1_555 1_555
H3 C5 1_555 1_555
H4 C6 1_555 1_555
H5 C10 1_555 1_555
H6 C12 1_555 1_555
H7 C12 1_555 1_555
H8 C13 1_555 1_555
H9 C13 1_555 1_555
H10 C14 1_555 1_555
H11 C14 1_555 1_555
H12 C15 1_555 1_555
H13 C15 1_555 1_555
H14 C16 1_555 1_555
H15 C16 1_555 1_555
H16 C17 1_555 1_555
H17 C17 1_555 1_555
H18 C17 1_555 1_555
Br1A C1A 1_555 1_555
C1A C2A 1_555 1_555
C2A C3A 1_555 1_555
C3A C4A 1_555 1_555
C4A C5A 1_555 1_555
C5A C6A 1_555 1_555
C6A C1A 1_555 1_555
C7A C4A 1_555 1_555
C8A C7A 1_555 1_555
C9A C11 1_555 1_555
C10A C9A 1_555 1_555
C11A C9 1_555 1_555
C12A C11A 1_555 1_555
C13A C12A 1_555 1_555
C14A C13A 1_555 1_555
C15A C14A 1_555 1_555
C16A C15A 1_555 1_555
C17A C16A 1_555 1_555
H1A C2A 1_555 1_555
H2A C3A 1_555 1_555
H3A C5A 1_555 1_555
H4A C6A 1_555 1_555
H5A C10A 1_555 1_555
H6A C12A 1_555 1_555
H7A C12A 1_555 1_555
H8A C13A 1_555 1_555
H9A C13A 1_555 1_555
H10A C14A 1_555 1_555
H11A C14A 1_555 1_555
H12A C15A 1_555 1_555
H13A C15A 1_555 1_555
H14A C16A 1_555 1_555
H15A C16A 1_555 1_555
H16A C17A 1_555 1_555
H17A C17A 1_555 1_555
H18A C17A 1_555 1_555
C8A C9A 1_555 1_555
C10A C11A 1_555 1_555

#END
