
#######################################################################
#
#                 Cambridge Crystallographic Data Centre
#                                CCDC 
#
#######################################################################
#
# If this CIF has been generated from an entry in the Cambridge 
# Structural Database, then it will include bibliographic, chemical, 
# crystal, experimental, refinement or atomic coordinate data resulting 
# from the CCDC's data processing and validation procedures.
#
#######################################################################

data_CARYIF
_chemical_formula_moiety         'C18 H15 N5'
_chemical_name_systematic        
(Z)-4-(4-(Diethylamino)phenyl)buta-1,3-diene-1,1,2,3-tetracarbonitrile
_symmetry_cell_setting           monoclinic
_symmetry_space_group_name_H-M   'P 21/c'
_symmetry_Int_Tables_number      14
_space_group_name_Hall           '-P 2ybc'
loop_
_symmetry_equiv_pos_site_id
_symmetry_equiv_pos_as_xyz
1 x,y,z
2 -x,1/2+y,1/2-z
3 -x,-y,-z
4 x,1/2-y,1/2+z
_cell_length_a                   12.4970(4)
_cell_length_b                   13.8141(4)
_cell_length_c                   9.7310(2)
_cell_angle_alpha                90
_cell_angle_beta                 112.3439(12)
_cell_angle_gamma                90
_cell_volume                     1553.78
_exptl_crystal_colour            'deep blue'
_exptl_crystal_description       rod
_chemical_melting_point          '231.0-232.0 deg.C'
_cell_formula_units_Z            4
_exptl_crystal_recrystallization_method dichloromethane/pentane
loop_
_atom_site_label
_atom_site_type_symbol
_atom_site_fract_x
_atom_site_fract_y
_atom_site_fract_z
N1 N 0.88967(11) 0.33037(9) 1.31743(13)
N2 N 0.78191(13) 0.05313(9) 1.14734(14)
N3 N 0.70426(12) 0.46765(9) 0.96285(13)
N4 N 0.60135(12) 0.05064(9) 0.80060(13)
N5 N 0.20668(10) 0.22385(8) 0.13507(12)
C1 C 0.76128(12) 0.23477(10) 1.08553(14)
C2 C 0.68989(11) 0.27970(10) 0.95588(14)
C3 C 0.61150(11) 0.23716(10) 0.82101(14)
C4 C 0.54171(11) 0.29534(10) 0.70315(14)
C5 C 0.46093(11) 0.27158(9) 0.56070(14)
C6 C 0.43030(12) 0.17642(9) 0.50154(14)
C7 C 0.34924(11) 0.16110(9) 0.36281(14)
C8 C 0.28990(11) 0.24019(10) 0.26951(14)
C9 C 0.32198(12) 0.33581(9) 0.32584(15)
C10 C 0.40321(12) 0.34964(9) 0.46516(15)
C11 C 0.83195(12) 0.29030(10) 1.21151(15)
C12 C 0.76924(13) 0.13285(10) 1.11222(15)
C13 C 0.69682(12) 0.38464(10) 0.95969(14)
C14 C 0.60647(12) 0.13374(10) 0.81066(14)
C15 C 0.16537(13) 0.12484(10) 0.08527(15)
C16 C 0.08948(14) 0.08404(11) 0.16215(17)
C17 C 0.14744(12) 0.30437(10) 0.03599(14)
C18 C 0.04671(14) 0.34621(11) 0.06844(18)
H1 H 0.5547(15) 0.3664(12) 0.7281(19)
H2 H 0.4683(14) 0.1211(12) 0.5629(18)
H3 H 0.3324(14) 0.0952(12) 0.3278(18)
H4 H 0.2827(14) 0.3929(12) 0.2633(18)
H5 H 0.4222(14) 0.4162(11) 0.5036(18)
H6 H 0.2356(15) 0.0831(11) 0.1035(18)
H7 H 0.1197(14) 0.1327(11) -0.0238(18)
H8 H 0.0648(16) 0.0183(15) 0.1233(19)
H9 H 0.1313(15) 0.0767(12) 0.269(2)
H10 H 0.0152(18) 0.1279(14) 0.140(2)
H11 H 0.1176(13) 0.2802(11) -0.0703(17)
H12 H 0.2041(14) 0.3536(11) 0.0398(16)
H13 H -0.0145(18) 0.2932(15) 0.059(2)
H14 H 0.0109(17) 0.4016(13) -0.006(2)
H15 H 0.0747(17) 0.3750(14) 0.168(2)
loop_
_geom_bond_atom_site_label_1
_geom_bond_atom_site_label_2
_geom_bond_site_symmetry_1
_geom_bond_site_symmetry_2
N1 C11 1_555 1_555
N2 C12 1_555 1_555
N3 C13 1_555 1_555
N4 C14 1_555 1_555
N5 C8 1_555 1_555
C1 C2 1_555 1_555
C2 C3 1_555 1_555
C3 C4 1_555 1_555
C4 C5 1_555 1_555
C5 C6 1_555 1_555
C6 C7 1_555 1_555
C7 C8 1_555 1_555
C8 C9 1_555 1_555
C9 C10 1_555 1_555
C10 C5 1_555 1_555
C11 C1 1_555 1_555
C12 C1 1_555 1_555
C13 C2 1_555 1_555
C14 C3 1_555 1_555
C15 N5 1_555 1_555
C16 C15 1_555 1_555
C17 N5 1_555 1_555
C18 C17 1_555 1_555
H1 C4 1_555 1_555
H2 C6 1_555 1_555
H3 C7 1_555 1_555
H4 C9 1_555 1_555
H5 C10 1_555 1_555
H6 C15 1_555 1_555
H7 C15 1_555 1_555
H8 C16 1_555 1_555
H9 C16 1_555 1_555
H10 C16 1_555 1_555
H11 C17 1_555 1_555
H12 C17 1_555 1_555
H13 C18 1_555 1_555
H14 C18 1_555 1_555
H15 C18 1_555 1_555

#END
