
#######################################################################
#
#                 Cambridge Crystallographic Data Centre
#                                CCDC 
#
#######################################################################
#
# If this CIF has been generated from an entry in the Cambridge 
# Structural Database, then it will include bibliographic, chemical, 
# crystal, experimental, refinement or atomic coordinate data resulting 
# from the CCDC's data processing and validation procedures.
#
#######################################################################

data_CARYIG
_chemical_formula_moiety         'C23 H27 N1 O4'
_chemical_name_systematic        
'8-cyano-8-methyl-3-isopropylbicyclo[4.2.0]octa-1,3,5-trien-2-yl 4,7,7-trimethyl-3-oxo-2-oxabicyclo[2.2.1]heptane-1-carboxylate'
_symmetry_cell_setting           monoclinic
_symmetry_space_group_name_H-M   'P 21'
_symmetry_Int_Tables_number      4
_space_group_name_Hall           'P 2yb'
loop_
_symmetry_equiv_pos_site_id
_symmetry_equiv_pos_as_xyz
1 x,y,z
2 -x,1/2+y,-z
_cell_length_a                   10.0156(8)
_cell_length_b                   6.6130(5)
_cell_length_c                   15.9543(11)
_cell_angle_alpha                90
_cell_angle_beta                 91.121(7)
_cell_angle_gamma                90
_cell_volume                     1056.5
_exptl_crystal_description       block
_cell_formula_units_Z            2
loop_
_atom_site_label
_atom_site_type_symbol
_atom_site_fract_x
_atom_site_fract_y
_atom_site_fract_z
O1 O -0.8346(2) -0.4602(4) -0.40585(12)
O2 O -0.7360(3) -0.4007(5) -0.52822(15)
O3 O -0.9101(4) -0.7019(5) -0.21388(17)
O4 O -0.8724(2) -0.3820(3) -0.25207(12)
N1 N -0.6080(4) -0.6899(6) -0.0669(3)
C1 C -0.8458(3) -0.6403(5) -0.35332(18)
C2 C -0.9474(3) -0.7751(7) -0.3974(2)
H1 H -1.0278 -0.7009 -0.4127
H2 H -0.9709 -0.8901 -0.3629
C3 C -0.8704(4) -0.8413(7) -0.4755(2)
H3 H -0.9148 -0.7945 -0.5265
H4 H -0.8617 -0.9872 -0.4778
C4 C -0.7313(3) -0.7381(6) -0.46328(19)
C5 C -0.7617(3) -0.5176(6) -0.4736(2)
C6 C -0.7113(3) -0.7472(5) -0.36672(18)
C7 C -0.6230(4) -0.8195(7) -0.5191(2)
H5 H -0.6488 -0.7997 -0.5768
H6 H -0.6109 -0.9613 -0.5085
H7 H -0.5409 -0.7492 -0.5074
C8 C -0.5919(3) -0.6229(7) -0.3344(2)
H8 H -0.5986 -0.4874 -0.3557
H9 H -0.5106 -0.6835 -0.3530
H10 H -0.5918 -0.6200 -0.2742
C9 C -0.7025(4) -0.9610(7) -0.3308(3)
H11 H -0.7131 -0.9560 -0.2711
H12 H -0.6171 -1.0184 -0.3432
H13 H -0.7719 -1.0430 -0.3555
C10 C -0.8798(3) -0.5812(6) -0.2654(2)
C11 C -0.9145(3) -0.3132(5) -0.17284(18)
C12 C -0.8253(3) -0.2875(5) -0.10799(19)
C13 C -0.6788(3) -0.3131(6) -0.0810(2)
C14 C -0.7230(4) -0.2219(7) 0.0056(2)
H14 H -0.7125 -0.3138 0.0527
H15 H -0.6850 -0.0903 0.0184
C15 C -0.8630(3) -0.2145(6) -0.03160(19)
C16 C -0.9940(4) -0.1712(6) -0.0152(2)
H16 H -1.0210 -0.1284 0.0374
C17 C -1.0836(4) -0.1951(7) -0.0818(2)
H17 H -1.1731 -0.1659 -0.0732
C18 C -1.0465(3) -0.2608(6) -0.1614(2)
C19 C -0.5753(3) -0.1931(7) -0.1279(2)
H18 H -0.5679 -0.2458 -0.1837
H19 H -0.4905 -0.2037 -0.0992
H20 H -0.6018 -0.0537 -0.1306
C20 C -0.6398(4) -0.5258(7) -0.0732(2)
C21 C -1.1499(3) -0.2755(7) -0.2326(2)
H21 H -1.1010 -0.2988 -0.2844
C22 C -1.2275(5) -0.0793(8) -0.2443(3)
H22 H -1.2771 -0.0516 -0.1946
H23 H -1.2881 -0.0921 -0.2914
H24 H -1.1664 0.0296 -0.2541
C23 C -1.2417(5) -0.4566(8) -0.2207(3)
H25 H -1.1891 -0.5776 -0.2161
H26 H -1.3020 -0.4676 -0.2680
H27 H -1.2917 -0.4387 -0.1706
loop_
_geom_bond_atom_site_label_1
_geom_bond_atom_site_label_2
_geom_bond_site_symmetry_1
_geom_bond_site_symmetry_2
O1 C1 1_555 1_555
O2 C5 1_555 1_555
O3 C10 1_555 1_555
O4 C10 1_555 1_555
N1 C20 1_555 1_555
C1 C2 1_555 1_555
C2 H1 1_555 1_555
H2 C2 1_555 1_555
C3 C2 1_555 1_555
H3 C3 1_555 1_555
H4 C3 1_555 1_555
C4 C3 1_555 1_555
C5 O1 1_555 1_555
C6 C1 1_555 1_555
C7 C4 1_555 1_555
H5 C7 1_555 1_555
H6 C7 1_555 1_555
H7 C7 1_555 1_555
C8 C6 1_555 1_555
H8 C8 1_555 1_555
H9 C8 1_555 1_555
H10 C8 1_555 1_555
C9 C6 1_555 1_555
H11 C9 1_555 1_555
H12 C9 1_555 1_555
H13 C9 1_555 1_555
C10 C1 1_555 1_555
C11 O4 1_555 1_555
C12 C11 1_555 1_555
C13 C12 1_555 1_555
C14 C13 1_555 1_555
H14 C14 1_555 1_555
H15 C14 1_555 1_555
C15 C12 1_555 1_555
C16 C15 1_555 1_555
H16 C16 1_555 1_555
C17 C16 1_555 1_555
H17 C17 1_555 1_555
C18 C11 1_555 1_555
C19 C13 1_555 1_555
H18 C19 1_555 1_555
H19 C19 1_555 1_555
H20 C19 1_555 1_555
C20 C13 1_555 1_555
C21 C18 1_555 1_555
H21 C21 1_555 1_555
C22 C21 1_555 1_555
H22 C22 1_555 1_555
H23 C22 1_555 1_555
H24 C22 1_555 1_555
C23 C21 1_555 1_555
H25 C23 1_555 1_555
H26 C23 1_555 1_555
H27 C23 1_555 1_555
C4 C5 1_555 1_555
C4 C6 1_555 1_555
C14 C15 1_555 1_555
C17 C18 1_555 1_555

#END
