
#######################################################################
#
#                 Cambridge Crystallographic Data Centre
#                                CCDC 
#
#######################################################################
#
# If this CIF has been generated from an entry in the Cambridge 
# Structural Database, then it will include bibliographic, chemical, 
# crystal, experimental, refinement or atomic coordinate data resulting 
# from the CCDC's data processing and validation procedures.
#
#######################################################################

data_CARYUR
_chemical_formula_moiety         'C18 H15 N5'
_chemical_name_systematic        
(Z)-4-(4-(Diethylamino)phenyl)buta-1,3-diene-1,1,2,4-tetracarbonitrile
_symmetry_cell_setting           monoclinic
_symmetry_space_group_name_H-M   'P 21/n'
_symmetry_Int_Tables_number      14
_space_group_name_Hall           '-P 2yn'
loop_
_symmetry_equiv_pos_site_id
_symmetry_equiv_pos_as_xyz
1 x,y,z
2 1/2-x,1/2+y,1/2-z
3 -x,-y,-z
4 1/2+x,1/2-y,1/2+z
_cell_length_a                   6.4500(6)
_cell_length_b                   9.0669(5)
_cell_length_c                   26.590(2)
_cell_angle_alpha                90
_cell_angle_beta                 93.796(3)
_cell_angle_gamma                90
_cell_volume                     1551.61
_exptl_crystal_colour            'dark brown'
_exptl_crystal_description       plate
_chemical_melting_point          '221.0-222.0 deg.C'
_cell_formula_units_Z            4
_exptl_crystal_recrystallization_method dichloromethane/pentane
loop_
_atom_site_label
_atom_site_type_symbol
_atom_site_fract_x
_atom_site_fract_y
_atom_site_fract_z
N1 N 1.1202(4) -0.1687(2) -0.19489(9)
N2 N 1.4931(3) -0.07894(19) -0.05363(9)
N3 N 0.6812(4) 0.0748(2) -0.15756(9)
N4 N 0.5203(3) 0.2855(2) -0.06691(8)
N5 N 1.0640(3) 0.5126(2) 0.16161(8)
C1 C 1.1545(4) -0.0356(2) -0.10919(9)
C2 C 1.0018(4) 0.0591(2) -0.09333(9)
C3 C 1.0267(4) 0.1400(2) -0.04799(9)
C4 C 0.8931(3) 0.2373(2) -0.02710(9)
C5 C 0.9402(3) 0.3170(2) 0.01947(9)
C6 C 1.1423(4) 0.3211(2) 0.04245(9)
C7 C 1.1861(4) 0.3872(2) 0.08823(10)
C8 C 1.0261(4) 0.4535(2) 0.11540(9)
C9 C 0.8234(4) 0.4542(2) 0.09057(9)
C10 C 0.7846(4) 0.3906(2) 0.04444(9)
C11 C 1.1345(4) -0.1101(2) -0.15682(10)
C12 C 1.3425(4) -0.0589(2) -0.07872(10)
C13 C 0.8189(4) 0.0704(2) -0.12790(10)
C14 C 0.6872(4) 0.2617(2) -0.05032(9)
C15 C 1.2751(4) 0.5243(3) 0.18555(10)
C16 C 1.3435(5) 0.3848(3) 0.21356(12)
C17 C 0.8931(4) 0.5505(2) 0.19334(10)
C18 C 0.8116(4) 0.7076(2) 0.18506(10)
H1 H 1.155(4) 0.124(2) -0.0308(10)
H2 H 1.252(4) 0.282(3) 0.0288(10)
H3 H 1.329(4) 0.388(2) 0.1018(9)
H4 H 0.714(4) 0.511(3) 0.1069(11)
H5 H 0.645(4) 0.393(3) 0.0324(10)
H6 H 1.378(4) 0.551(3) 0.1581(12)
H7 H 1.263(4) 0.611(3) 0.2100(12)
H8 H 1.480(5) 0.399(3) 0.2303(11)
H9 H 1.356(4) 0.303(3) 0.1884(12)
H10 H 1.251(6) 0.356(3) 0.2405(16)
H11 H 0.776(4) 0.475(2) 0.1861(9)
H12 H 0.948(4) 0.539(2) 0.2284(11)
H13 H 0.765(3) 0.725(2) 0.1499(10)
H14 H 0.933(4) 0.776(3) 0.1918(10)
H15 H 0.698(5) 0.731(3) 0.2093(14)
loop_
_geom_bond_atom_site_label_1
_geom_bond_atom_site_label_2
_geom_bond_site_symmetry_1
_geom_bond_site_symmetry_2
N1 C11 1_555 1_555
N2 C12 1_555 1_555
N3 C13 1_555 1_555
N4 C14 1_555 1_555
N5 C8 1_555 1_555
C1 C2 1_555 1_555
C2 C3 1_555 1_555
C3 C4 1_555 1_555
C4 C5 1_555 1_555
C5 C6 1_555 1_555
C6 C7 1_555 1_555
C7 C8 1_555 1_555
C8 C9 1_555 1_555
C9 C10 1_555 1_555
C10 C5 1_555 1_555
C11 C1 1_555 1_555
C12 C1 1_555 1_555
C13 C2 1_555 1_555
C14 C4 1_555 1_555
C15 N5 1_555 1_555
C16 C15 1_555 1_555
C17 N5 1_555 1_555
C18 C17 1_555 1_555
H1 C3 1_555 1_555
H2 C6 1_555 1_555
H3 C7 1_555 1_555
H4 C9 1_555 1_555
H5 C10 1_555 1_555
H6 C15 1_555 1_555
H7 C15 1_555 1_555
H8 C16 1_555 1_555
H9 C16 1_555 1_555
H10 C16 1_555 1_555
H11 C17 1_555 1_555
H12 C17 1_555 1_555
H13 C18 1_555 1_555
H14 C18 1_555 1_555
H15 C18 1_555 1_555

#END
