
#######################################################################
#
#                 Cambridge Crystallographic Data Centre
#                                CCDC 
#
#######################################################################
#
# If this CIF has been generated from an entry in the Cambridge 
# Structural Database, then it will include bibliographic, chemical, 
# crystal, experimental, refinement or atomic coordinate data resulting 
# from the CCDC's data processing and validation procedures.
#
#######################################################################

data_CARYEB
_chemical_formula_moiety         'C17 H16 N4'
_chemical_name_systematic        
(Z)-4-(4-(Diethylamino)phenyl)buta-1,3-diene-1,1,4-tricarbonitrile
_symmetry_cell_setting           monoclinic
_symmetry_space_group_name_H-M   'C 2/c'
_symmetry_Int_Tables_number      15
_space_group_name_Hall           '-C 2yn'
loop_
_symmetry_equiv_pos_site_id
_symmetry_equiv_pos_as_xyz
1 x,y,z
2 1/2+x,1/2+y,z
3 -x,y,1/2-z
4 1/2-x,1/2+y,1/2-z
5 -x,-y,-z
6 1/2-x,1/2-y,-z
7 x,-y,1/2+z
8 1/2+x,1/2-y,1/2+z
_cell_length_a                   31.0446(10)
_cell_length_b                   7.245(2)
_cell_length_c                   13.135(2)
_cell_angle_alpha                90
_cell_angle_beta                 91.329(7)
_cell_angle_gamma                90
_cell_volume                     2953.5
_exptl_crystal_colour            'dark red'
_exptl_crystal_description       needle
_chemical_melting_point          '204.1-205.0 deg.C'
_cell_formula_units_Z            8
_exptl_crystal_recrystallization_method dichloromethane/pentane
loop_
_atom_site_label
_atom_site_type_symbol
_atom_site_fract_x
_atom_site_fract_y
_atom_site_fract_z
N1 N 0.35501(11) -0.0445(5) 0.2875(3)
N2 N 0.43327(12) -0.2494(5) 0.5426(3)
N3 N 0.26061(11) -0.1779(6) 0.7536(3)
N4 N 0.08067(9) 0.2137(4) 0.4809(2)
C1 C 0.20681(11) 0.0277(5) 0.5490(3)
C2 C 0.17465(12) 0.0320(5) 0.6239(3)
C3 C 0.13374(13) 0.0933(5) 0.6013(3)
C4 C 0.12170(11) 0.1531(5) 0.5031(3)
C5 C 0.15401(12) 0.1508(5) 0.4278(3)
C6 C 0.19477(12) 0.0900(5) 0.4511(3)
C7 C 0.24968(12) -0.0378(5) 0.5731(3)
C8 C 0.28438(12) -0.0398(5) 0.5095(3)
C9 C 0.32529(12) -0.1086(5) 0.5408(3)
C10 C 0.35957(12) -0.1246(5) 0.4780(3)
C11 C 0.35688(12) -0.0805(6) 0.3730(4)
C12 C 0.40001(13) -0.1949(5) 0.5150(3)
C13 C 0.25655(12) -0.1163(6) 0.6753(4)
C14 C 0.04504(13) 0.1825(5) 0.5510(3)
C15 C 0.03886(14) 0.3414(6) 0.6250(3)
C16 C 0.06848(12) 0.2875(6) 0.3814(3)
C17 C 0.05623(14) 0.1383(6) 0.3041(3)
H1 H 0.1823 -0.0127 0.6981
H2 H 0.1109 0.0956 0.6590
H3 H 0.1464 0.1962 0.3536
H4 H 0.2178 0.0899 0.3939
H5 H 0.2803 0.0116 0.4352
H6 H 0.3295 -0.1499 0.6170
H7 H 0.0513 0.0576 0.5937
H8 H 0.0156 0.1624 0.5070
H9 H 0.0105 0.3167 0.6690
H10 H 0.0350 0.4686 0.5829
H11 H 0.0667 0.3517 0.6754
H12 H 0.0951 0.3666 0.3526
H13 H 0.0415 0.3800 0.3896
H14 H 0.0484 0.2017 0.2316
H15 H 0.0286 0.0628 0.3305
H16 H 0.0830 0.0448 0.2955
loop_
_geom_bond_atom_site_label_1
_geom_bond_atom_site_label_2
_geom_bond_site_symmetry_1
_geom_bond_site_symmetry_2
N1 C11 1_555 1_555
N2 C12 1_555 1_555
N3 C13 1_555 1_555
N4 C4 1_555 1_555
C1 C2 1_555 1_555
C2 C3 1_555 1_555
C3 C4 1_555 1_555
C4 C5 1_555 1_555
C5 C6 1_555 1_555
C6 C1 1_555 1_555
C7 C1 1_555 1_555
C8 C7 1_555 1_555
C9 C8 1_555 1_555
C10 C9 1_555 1_555
C11 C10 1_555 1_555
C12 C10 1_555 1_555
C13 C7 1_555 1_555
C14 N4 1_555 1_555
C15 C14 1_555 1_555
C16 N4 1_555 1_555
C17 C16 1_555 1_555
H1 C2 1_555 1_555
H2 C3 1_555 1_555
H3 C5 1_555 1_555
H4 C6 1_555 1_555
H5 C8 1_555 1_555
H6 C9 1_555 1_555
H7 C14 1_555 1_555
H8 C14 1_555 1_555
H9 C15 1_555 1_555
H10 C15 1_555 1_555
H11 C15 1_555 1_555
H12 C16 1_555 1_555
H13 C16 1_555 1_555
H14 C17 1_555 1_555
H15 C17 1_555 1_555
H16 C17 1_555 1_555

#END
