
#######################################################################
#
#                 Cambridge Crystallographic Data Centre
#                                CCDC 
#
#######################################################################
#
# If this CIF has been generated from an entry in the Cambridge 
# Structural Database, then it will include bibliographic, chemical, 
# crystal, experimental, refinement or atomic coordinate data resulting 
# from the CCDC's data processing and validation procedures.
#
#######################################################################

data_CARZEA
_chemical_formula_moiety         'C29 H20 As1 F5 O2'
_chemical_name_systematic        
(Benzoyl-pentafluoropropionoyl-methylene)-triphenylarsorane
_symmetry_cell_setting           triclinic
_symmetry_space_group_name_H-M   'P -1'
_symmetry_Int_Tables_number      2
_space_group_name_Hall           '-P 1'
loop_
_symmetry_equiv_pos_site_id
_symmetry_equiv_pos_as_xyz
1 x,y,z
2 -x,-y,-z
_cell_length_a                   12.292
_cell_length_b                   13.457
_cell_length_c                   15.318
_cell_angle_alpha                90.562
_cell_angle_beta                 90.516
_cell_angle_gamma                92.820
_cell_volume                     2530.5
_cell_formula_units_Z            4
loop_
_atom_site_label
_atom_site_type_symbol
_atom_site_fract_x
_atom_site_fract_y
_atom_site_fract_z
As1 As 0.44408 0.08330 0.20726
C1 C 0.38100 0.09720 0.32170
C2 C 0.33950 0.18820 0.34540
C3 C 0.28990 0.19600 0.42770
C4 C 0.28570 0.11540 0.48380
C5 C 0.33070 0.02560 0.45900
C6 C 0.37830 0.01610 0.37760
C7 C 0.32910 0.05060 0.12470
C8 C 0.22990 0.01090 0.15290
C9 C 0.15090 -0.02160 0.09160
C10 C 0.17290 -0.01260 0.00230
C11 C 0.27300 0.02740 -0.02610
C12 C 0.35120 0.05910 0.03600
C13 C 0.52410 -0.03670 0.21170
C14 C 0.48650 -0.11610 0.15810
C15 C 0.53850 -0.20730 0.16120
C16 C 0.62540 -0.21740 0.21800
C17 C 0.66210 -0.13810 0.27240
C18 C 0.61090 -0.04570 0.26980
C19 C 0.71310 0.23690 0.10070
C20 C 0.66810 0.24730 0.01830
C21 C 0.73530 0.28300 -0.05100
C22 C 0.84590 0.30630 -0.03510
C23 C 0.89160 0.29410 0.04890
C24 C 0.82420 0.25850 0.11800
C25 C 0.52600 0.19790 0.16990
C26 C 0.64520 0.19490 0.17480
C27 C 0.45880 0.27600 0.15240
C28 C 0.50620 0.38370 0.14120
C29 C 0.43590 0.46260 0.18690
O1 O 0.68970 0.15450 0.23540
O2 O 0.35660 0.26950 0.15120
F1 F 0.60730 0.39740 0.17490
F2 F 0.50920 0.40800 0.05600
F3 F 0.34460 0.47640 0.14490
F4 F 0.41640 0.43750 0.26770
F5 F 0.49440 0.55000 0.18900
As2 As 0.94282 0.59007 0.29809
C30 C 0.88020 0.61880 0.18630
C31 C 0.89600 0.71530 0.15260
C32 C 0.84730 0.73550 0.07350
C33 C 0.78360 0.66200 0.02800
C34 C 0.77110 0.56740 0.06200
C35 C 0.82090 0.54490 0.14120
C36 C 0.82890 0.56710 0.38270
C37 C 0.72320 0.54540 0.35500
C38 C 0.64440 0.52310 0.41960
C39 C 0.67430 0.52280 0.50730
C40 C 0.78020 0.54530 0.53320
C41 C 0.85960 0.56820 0.47010
C42 C 1.00340 0.46140 0.28490
C43 C 0.96450 0.38430 0.33970
C44 C 1.00500 0.28930 0.32930
C45 C 1.08250 0.27150 0.26480
C46 C 1.11900 0.34820 0.21080
C47 C 1.07960 0.44430 0.21970
C48 C 1.23880 0.71140 0.39610
C49 C 1.20720 0.72550 0.48320
C50 C 1.28680 0.74950 0.54780
C51 C 1.39830 0.76120 0.52230
C52 C 1.42840 0.74620 0.43500
C53 C 1.34980 0.72150 0.37200
C54 C 1.04050 0.69380 0.33950
C55 C 1.15800 0.67960 0.32790
C56 C 0.98330 0.77780 0.36060
C57 C 1.04140 0.87980 0.37760
C58 C 0.98160 0.96700 0.33780
O3 O 1.18800 0.63480 0.26220
O4 O 0.88150 0.77940 0.36080
F6 F 1.14310 0.88590 0.34300
F7 F 1.05090 0.89800 0.46370
F8 F 0.89020 0.98630 0.37690
F9 F 0.96050 0.95000 0.25360
F10 F 1.04720 1.04940 0.34430
loop_
_geom_bond_atom_site_label_1
_geom_bond_atom_site_label_2
_geom_bond_site_symmetry_1
_geom_bond_site_symmetry_2
As1 C1 1_555 1_555
C1 C2 1_555 1_555
C2 C3 1_555 1_555
C3 C4 1_555 1_555
C4 C5 1_555 1_555
C5 C6 1_555 1_555
C6 C1 1_555 1_555
C7 As1 1_555 1_555
C8 C7 1_555 1_555
C9 C8 1_555 1_555
C10 C9 1_555 1_555
C11 C10 1_555 1_555
C12 C7 1_555 1_555
C13 As1 1_555 1_555
C14 C13 1_555 1_555
C15 C14 1_555 1_555
C16 C15 1_555 1_555
C17 C16 1_555 1_555
C18 C13 1_555 1_555
C19 C20 1_555 1_555
C20 C21 1_555 1_555
C21 C22 1_555 1_555
C22 C23 1_555 1_555
C23 C24 1_555 1_555
C24 C19 1_555 1_555
C25 As1 1_555 1_555
C26 C19 1_555 1_555
C27 C25 1_555 1_555
C28 C27 1_555 1_555
C29 C28 1_555 1_555
O1 C26 1_555 1_555
O2 C27 1_555 1_555
F1 C28 1_555 1_555
F2 C28 1_555 1_555
F3 C29 1_555 1_555
F4 C29 1_555 1_555
F5 C29 1_555 1_555
As2 C30 1_555 1_555
C30 C31 1_555 1_555
C31 C32 1_555 1_555
C32 C33 1_555 1_555
C33 C34 1_555 1_555
C34 C35 1_555 1_555
C35 C30 1_555 1_555
C36 As2 1_555 1_555
C37 C36 1_555 1_555
C38 C37 1_555 1_555
C39 C38 1_555 1_555
C40 C39 1_555 1_555
C41 C36 1_555 1_555
C42 As2 1_555 1_555
C43 C42 1_555 1_555
C44 C43 1_555 1_555
C45 C44 1_555 1_555
C46 C45 1_555 1_555
C47 C42 1_555 1_555
C48 C49 1_555 1_555
C49 C50 1_555 1_555
C50 C51 1_555 1_555
C51 C52 1_555 1_555
C52 C53 1_555 1_555
C53 C48 1_555 1_555
C54 As2 1_555 1_555
C55 C48 1_555 1_555
C56 C54 1_555 1_555
C57 C56 1_555 1_555
C58 C57 1_555 1_555
O3 C55 1_555 1_555
O4 C56 1_555 1_555
F6 C57 1_555 1_555
F7 C57 1_555 1_555
F8 C58 1_555 1_555
F9 C58 1_555 1_555
F10 C58 1_555 1_555
C11 C12 1_555 1_555
C17 C18 1_555 1_555
C25 C26 1_555 1_555
C40 C41 1_555 1_555
C46 C47 1_555 1_555
C54 C55 1_555 1_555

#END
