
#######################################################################
#
#                 Cambridge Crystallographic Data Centre
#                                CCDC 
#
#######################################################################
#
# If this CIF has been generated from an entry in the Cambridge 
# Structural Database, then it will include bibliographic, chemical, 
# crystal, experimental, refinement or atomic coordinate data resulting 
# from the CCDC's data processing and validation procedures.
#
#######################################################################

data_CARZIG
_chemical_formula_moiety         'C17 H15 Cl1 N4'
_chemical_name_systematic        
(Z)-4-Chloro-4-(4-(diethylamino)phenyl)buta-1,3-diene-1,1,3-tricarbonitrile
_symmetry_cell_setting           orthorhombic
_symmetry_space_group_name_H-M   'P b c a'
_symmetry_Int_Tables_number      61
_space_group_name_Hall           '-P 2ac 2ab'
loop_
_symmetry_equiv_pos_site_id
_symmetry_equiv_pos_as_xyz
1 x,y,z
2 1/2-x,-y,1/2+z
3 1/2+x,1/2-y,-z
4 -x,1/2+y,1/2-z
5 -x,-y,-z
6 1/2+x,y,1/2-z
7 1/2-x,1/2+y,z
8 x,1/2-y,1/2+z
_cell_length_a                   7.6041(2)
_cell_length_b                   16.4422(5)
_cell_length_c                   26.0306(8)
_cell_angle_alpha                90
_cell_angle_beta                 90
_cell_angle_gamma                90
_cell_volume                     3254.56
_exptl_crystal_colour            'dark red'
_exptl_crystal_description       rod
_cell_formula_units_Z            8
_exptl_crystal_recrystallization_method dichloromethane/pentane
loop_
_atom_site_label
_atom_site_type_symbol
_atom_site_fract_x
_atom_site_fract_y
_atom_site_fract_z
Cl1 Cl 0.13670(8) 0.38455(3) 0.41828(2)
N1 N 0.1834(3) 0.02386(12) 0.34108(8)
N2 N -0.2004(3) -0.03185(11) 0.46130(8)
N3 N 0.1585(3) 0.22958(11) 0.32142(7)
N4 N 0.1098(2) 0.29237(11) 0.66519(7)
C1 C -0.0039(3) 0.07583(12) 0.41722(7)
C2 C -0.0019(3) 0.15234(12) 0.43727(8)
C3 C 0.0807(3) 0.22464(12) 0.41799(8)
C4 C 0.0979(3) 0.29300(12) 0.44897(8)
C5 C 0.0889(3) 0.29342(12) 0.50367(8)
C6 C 0.0326(3) 0.36155(13) 0.53283(8)
C7 C 0.0322(3) 0.36049(13) 0.58549(8)
C8 C 0.0941(3) 0.29165(12) 0.61340(8)
C9 C 0.1453(3) 0.22237(13) 0.58435(8)
C10 C 0.1430(3) 0.22380(12) 0.53160(8)
C11 C 0.0999(3) 0.04870(13) 0.37440(8)
C12 C -0.1118(3) 0.01519(13) 0.44145(8)
C13 C 0.1275(3) 0.22817(12) 0.36465(8)
C14 C 0.0526(3) 0.36154(14) 0.69686(8)
C15 C 0.1896(4) 0.42862(15) 0.70031(10)
C16 C 0.1897(3) 0.22418(14) 0.69334(8)
C17 C 0.0599(4) 0.15677(16) 0.70573(11)
H1 H -0.067(3) 0.1574(13) 0.4667(9)
H2 H -0.007(3) 0.4110(12) 0.5152(8)
H3 H -0.006(3) 0.4096(14) 0.6025(9)
H4 H 0.184(3) 0.1741(15) 0.6024(9)
H5 H 0.183(3) 0.1753(12) 0.5136(8)
H6 H -0.062(3) 0.3794(12) 0.6832(8)
H7 H 0.025(3) 0.3382(13) 0.7329(9)
H8 H 0.212(3) 0.4546(15) 0.6669(10)
H9 H 0.146(3) 0.4709(15) 0.7253(11)
H10 H 0.309(4) 0.4098(15) 0.7131(10)
H11 H 0.286(3) 0.2038(14) 0.6738(9)
H12 H 0.242(3) 0.2498(13) 0.7265(8)
H13 H 0.006(3) 0.1327(14) 0.6747(10)
H14 H 0.119(3) 0.1138(15) 0.7237(11)
H15 H -0.038(4) 0.1761(15) 0.7251(10)
loop_
_geom_bond_atom_site_label_1
_geom_bond_atom_site_label_2
_geom_bond_site_symmetry_1
_geom_bond_site_symmetry_2
Cl1 C4 1_555 1_555
N1 C11 1_555 1_555
N2 C12 1_555 1_555
N3 C13 1_555 1_555
N4 C8 1_555 1_555
C1 C2 1_555 1_555
C2 C3 1_555 1_555
C3 C4 1_555 1_555
C4 C5 1_555 1_555
C5 C6 1_555 1_555
C6 C7 1_555 1_555
C7 C8 1_555 1_555
C8 C9 1_555 1_555
C9 C10 1_555 1_555
C10 C5 1_555 1_555
C11 C1 1_555 1_555
C12 C1 1_555 1_555
C13 C3 1_555 1_555
C14 N4 1_555 1_555
C15 C14 1_555 1_555
C16 N4 1_555 1_555
C17 C16 1_555 1_555
H1 C2 1_555 1_555
H2 C6 1_555 1_555
H3 C7 1_555 1_555
H4 C9 1_555 1_555
H5 C10 1_555 1_555
H6 C14 1_555 1_555
H7 C14 1_555 1_555
H8 C15 1_555 1_555
H9 C15 1_555 1_555
H10 C15 1_555 1_555
H11 C16 1_555 1_555
H12 C16 1_555 1_555
H13 C17 1_555 1_555
H14 C17 1_555 1_555
H15 C17 1_555 1_555

#END
