
#######################################################################
#
#                 Cambridge Crystallographic Data Centre
#                                CCDC 
#
#######################################################################
#
# If this CIF has been generated from an entry in the Cambridge 
# Structural Database, then it will include bibliographic, chemical, 
# crystal, experimental, refinement or atomic coordinate data resulting 
# from the CCDC's data processing and validation procedures.
#
#######################################################################

data_CASBUU
_chemical_formula_moiety         'C13 H14 N2 O2'
_chemical_name_systematic        
3-(1H-Imidazol-1-yl)-1-(4-methoxyphenyl)propan-1-one
_symmetry_cell_setting           monoclinic
_symmetry_space_group_name_H-M   'C 2/c'
_symmetry_Int_Tables_number      15
_space_group_name_Hall           '-C 2yn'
loop_
_symmetry_equiv_pos_site_id
_symmetry_equiv_pos_as_xyz
1 x,y,z
2 1/2+x,1/2+y,z
3 -x,y,1/2-z
4 1/2-x,1/2+y,1/2-z
5 -x,-y,-z
6 1/2-x,1/2-y,-z
7 x,-y,1/2+z
8 1/2+x,1/2-y,1/2+z
_cell_length_a                   21.349(6)
_cell_length_b                   5.2657(14)
_cell_length_c                   21.303(6)
_cell_angle_alpha                90
_cell_angle_beta                 97.600(4)
_cell_angle_gamma                90
_cell_volume                     2373.79
_exptl_crystal_colour            colorless
_exptl_crystal_description       needle
_cell_formula_units_Z            8
_exptl_crystal_recrystallization_method 'ethyl acetate/petroleum ether'
loop_
_atom_site_label
_atom_site_type_symbol
_atom_site_fract_x
_atom_site_fract_y
_atom_site_fract_z
O1 O 0.16279(5) 0.9134(2) -0.01530(5)
O2 O 0.01460(5) 0.2066(3) 0.15539(6)
N1 N 0.12797(5) -0.2932(2) 0.27123(5)
C1 C 0.19137(7) -0.3000(3) 0.27607(8)
H1 H 0.2149 -0.1930 0.2535
C2 C 0.12163(10) 1.0850(3) -0.05234(9)
H2 H 0.1456 1.1873 -0.0779
H3 H 0.1012 1.1926 -0.0249
H4 H 0.0903 0.9908 -0.0793
C3 C 0.13773(7) 0.7512(3) 0.02413(7)
C4 C 0.18032(7) 0.5885(3) 0.05911(8)
H5 H 0.2230 0.5966 0.0547
C5 C 0.15962(7) 0.4162(3) 0.10015(7)
H6 H 0.1885 0.3080 0.1231
C6 C 0.09579(6) 0.4012(3) 0.10787(7)
C7 C 0.05413(7) 0.5658(3) 0.07254(7)
H7 H 0.0114 0.5591 0.0771
C8 C 0.07430(7) 0.7383(3) 0.03111(8)
H8 H 0.0454 0.8459 0.0079
C9 C 0.07109(6) 0.2184(3) 0.15130(7)
C10 C 0.11677(6) 0.0458(3) 0.19064(7)
H9 H 0.1485 0.1477 0.2160
H10 H 0.1382 -0.0599 0.1628
C11 C 0.08411(6) -0.1215(3) 0.23368(7)
H11 H 0.0634 -0.0156 0.2620
H12 H 0.0519 -0.2208 0.2083
C12 C 0.11198(7) -0.4789(3) 0.31090(7)
H13 H 0.0714 -0.5238 0.3180
C13 C 0.16649(8) -0.5842(3) 0.33765(8)
H14 H 0.1694 -0.7156 0.3671
N2 N 0.21664(6) -0.4722(3) 0.31580(7)
loop_
_geom_bond_atom_site_label_1
_geom_bond_atom_site_label_2
_geom_bond_site_symmetry_1
_geom_bond_site_symmetry_2
O1 C2 1_555 1_555
O2 C9 1_555 1_555
N1 C1 1_555 1_555
C1 H1 1_555 1_555
C2 H2 1_555 1_555
H3 C2 1_555 1_555
H4 C2 1_555 1_555
C3 O1 1_555 1_555
C4 C3 1_555 1_555
H5 C4 1_555 1_555
C5 C4 1_555 1_555
H6 C5 1_555 1_555
C6 C5 1_555 1_555
C7 C6 1_555 1_555
H7 C7 1_555 1_555
C8 C3 1_555 1_555
H8 C8 1_555 1_555
C9 C6 1_555 1_555
C10 C9 1_555 1_555
H9 C10 1_555 1_555
H10 C10 1_555 1_555
C11 N1 1_555 1_555
H11 C11 1_555 1_555
H12 C11 1_555 1_555
C12 N1 1_555 1_555
H13 C12 1_555 1_555
C13 C12 1_555 1_555
H14 C13 1_555 1_555
N2 C1 1_555 1_555
C7 C8 1_555 1_555
C10 C11 1_555 1_555
C13 N2 1_555 1_555

#END
