
#######################################################################
#
#                 Cambridge Crystallographic Data Centre
#                                CCDC 
#
#######################################################################
#
# If this CIF has been generated from an entry in the Cambridge 
# Structural Database, then it will include bibliographic, chemical, 
# crystal, experimental, refinement or atomic coordinate data resulting 
# from the CCDC's data processing and validation procedures.
#
#######################################################################

data_CASBOO
_chemical_formula_moiety         'C12 H8 Cl1 N3 O3,C3 H7 N1 O1'
_chemical_name_systematic        
'4-((2-Chloro-4-nitrophenyl)diazenyl)phenol dimethylformamide solvate'
_symmetry_cell_setting           triclinic
_symmetry_space_group_name_H-M   'P -1'
_symmetry_Int_Tables_number      2
_space_group_name_Hall           '-P 1'
loop_
_symmetry_equiv_pos_site_id
_symmetry_equiv_pos_as_xyz
1 x,y,z
2 -x,-y,-z
_cell_length_a                   6.041(2)
_cell_length_b                   10.875(4)
_cell_length_c                   12.819(5)
_cell_angle_alpha                73.78(2)
_cell_angle_beta                 81.29(3)
_cell_angle_gamma                82.77(3)
_cell_volume                     796.206
_exptl_crystal_colour            red
_chemical_melting_point          '495 K'
_cell_formula_units_Z            2
loop_
_atom_site_label
_atom_site_type_symbol
_atom_site_fract_x
_atom_site_fract_y
_atom_site_fract_z
Cl1 Cl 0.08753(14) 0.64751(9) 0.59226(7)
O1 O 0.6000(4) 1.1151(3) 0.8940(2)
H1 H 0.7235 1.1385 0.8948
O2 O 0.6584(5) 0.5673(3) 0.1673(2)
O3 O 0.3523(5) 0.4842(3) 0.2468(2)
N1 N 0.4678(4) 0.7978(2) 0.5776(2)
N2 N 0.6312(4) 0.8620(2) 0.5719(2)
N3 N 0.5034(5) 0.5507(3) 0.2413(2)
C1 C 0.6671(6) 0.7458(3) 0.4083(2)
H2 H 0.7847 0.7934 0.4084
C2 C 0.6750(6) 0.6855(3) 0.3262(3)
H3 H 0.7961 0.6916 0.2713
C3 C 0.4986(6) 0.6158(3) 0.3278(2)
C4 C 0.3159(5) 0.6036(3) 0.4087(2)
H4 H 0.1990 0.5558 0.4082
C5 C 0.3136(5) 0.6647(3) 0.4899(2)
C6 C 0.4872(5) 0.7372(3) 0.4909(2)
C7 C 0.4267(5) 0.9280(3) 0.7335(2)
H5 H 0.3008 0.8880 0.7313
C8 C 0.4259(5) 0.9913(3) 0.8124(3)
H6 H 0.2991 0.9947 0.8630
C9 C 0.6146(5) 1.0506(3) 0.8169(2)
C10 C 0.8037(5) 1.0463(3) 0.7405(2)
H7 H 0.9299 1.0858 0.7431
C11 C 0.8030(5) 0.9832(3) 0.6610(2)
H8 H 0.9292 0.9807 0.6099
C12 C 0.6157(5) 0.9233(3) 0.6564(2)
O4 O 0.9917(4) 1.1798(3) 0.9090(2)
N4 N 0.9579(4) 1.2807(3) 1.0433(2)
C13 C 1.0647(6) 1.3146(4) 1.1245(3)
H9 H 1.2152 1.2740 1.1257
H10 H 0.9805 1.2861 1.1953
H11 H 1.0688 1.4062 1.1060
C14 C 0.7269(6) 1.3327(3) 1.0294(3)
H12 H 0.6459 1.2692 1.0162
H13 H 0.7261 1.4077 0.9683
H14 H 0.6565 1.3556 1.0945
C15 C 1.0701(6) 1.2102(4) 0.9806(3)
H15 H 1.2187 1.1814 0.9913
loop_
_geom_bond_atom_site_label_1
_geom_bond_atom_site_label_2
_geom_bond_site_symmetry_1
_geom_bond_site_symmetry_2
Cl1 C5 1_555 1_555
O1 H1 1_555 1_555
O2 N3 1_555 1_555
O3 N3 1_555 1_555
O4 C15 1_555 1_555
N1 N2 1_555 1_555
N2 C12 1_555 1_555
N3 C3 1_555 1_555
N4 C13 1_555 1_555
C1 H2 1_555 1_555
C2 C1 1_555 1_555
H3 C2 1_555 1_555
C3 C2 1_555 1_555
C4 C3 1_555 1_555
H4 C4 1_555 1_555
C5 C4 1_555 1_555
C6 N1 1_555 1_555
C7 H5 1_555 1_555
C8 C7 1_555 1_555
H6 C8 1_555 1_555
C9 O1 1_555 1_555
C10 C9 1_555 1_555
H7 C10 1_555 1_555
C11 C10 1_555 1_555
H8 C11 1_555 1_555
C12 C7 1_555 1_555
C13 H9 1_555 1_555
H10 C13 1_555 1_555
H11 C13 1_555 1_555
C14 N4 1_555 1_555
H12 C14 1_555 1_555
H13 C14 1_555 1_555
H14 C14 1_555 1_555
C15 N4 1_555 1_555
H15 C15 1_555 1_555
C1 C6 1_555 1_555
C5 C6 1_555 1_555
C8 C9 1_555 1_555
C11 C12 1_555 1_555

#END
