
#######################################################################
#
#                 Cambridge Crystallographic Data Centre
#                                CCDC 
#
#######################################################################
#
# If this CIF has been generated from an entry in the Cambridge 
# Structural Database, then it will include bibliographic, chemical, 
# crystal, experimental, refinement or atomic coordinate data resulting 
# from the CCDC's data processing and validation procedures.
#
#######################################################################

data_CASBAC
_chemical_formula_moiety         'C21 H20 N2 O1 S3,0.5(C1 H4 O1)'
_chemical_name_systematic        
'2-(butylsulfinyl)-4-phenyl-6-(thiophen-2-yl)thieno[2,3-b]pyridin-3-amine methanol solvate'
_chemical_properties_biological  '15-prostaglandin dehydrogenase inhibitor'
_symmetry_cell_setting           orthorhombic
_symmetry_space_group_name_H-M   'C 2 2 21'
_symmetry_Int_Tables_number      20
_space_group_name_Hall           'C 2n 2'
loop_
_symmetry_equiv_pos_site_id
_symmetry_equiv_pos_as_xyz
1 x,y,z
2 -x,-y,1/2+z
3 -x,y,1/2-z
4 x,-y,-z
5 1/2+x,1/2+y,z
6 1/2-x,1/2-y,1/2+z
7 1/2-x,1/2+y,1/2-z
8 1/2+x,1/2-y,-z
_cell_length_a                   10.3294(4)
_cell_length_b                   25.7140(11)
_cell_length_c                   16.1185(6)
_cell_angle_alpha                90
_cell_angle_beta                 90
_cell_angle_gamma                90
_cell_volume                     4281.24
_exptl_crystal_colour            yellow
_exptl_crystal_description       plates
_cell_formula_units_Z            8
loop_
_atom_site_label
_atom_site_type_symbol
_atom_site_fract_x
_atom_site_fract_y
_atom_site_fract_z
S1 S 0.59995(9) 0.41686(3) 0.15766(5)
S2 S 0.72555(9) 0.52463(3) 0.15040(6)
S3 S 0.80206(11) 0.72972(4) 0.16711(8)
O1 O 0.6731(3) 0.40615(10) 0.23633(15)
N1 N 0.6749(3) 0.62672(11) 0.14931(19)
N2 N 0.3549(3) 0.48708(12) 0.1367(2)
C1 C 0.5893(4) 0.48397(12) 0.1444(2)
C2 C 0.4740(3) 0.51002(13) 0.1385(2)
C3 C 0.4950(4) 0.56589(13) 0.13466(19)
C4 C 0.4068(4) 0.60753(14) 0.12690(19)
C5 C 0.4560(4) 0.65691(14) 0.1349(2)
H1 H 0.3986 0.6858 0.1325
C6 C 0.5888(4) 0.66581(13) 0.1465(2)
C7 C 0.6254(3) 0.57936(13) 0.14457(19)
C8 C 0.6395(4) 0.71880(14) 0.1548(3)
C9 C 0.5717(4) 0.76496(15) 0.1554(3)
H2 H 0.4805 0.7674 0.1489
C10 C 0.6549(5) 0.80845(18) 0.1669(4)
H3 H 0.6248 0.8433 0.1692
C11 C 0.7795(5) 0.79537(16) 0.1743(3)
H4 H 0.8475 0.8197 0.1826
C12 C 0.7102(5) 0.40057(15) 0.0755(3)
H5 H 0.6694 0.4080 0.0212
H6 H 0.7894 0.4220 0.0803
C13 C 0.7459(4) 0.34306(15) 0.0804(3)
H7 H 0.8059 0.3348 0.0343
H8 H 0.7927 0.3368 0.1331
C14 C 0.6320(5) 0.30655(16) 0.0760(3)
H9 H 0.5816 0.3142 0.0252
H10 H 0.5749 0.3129 0.1243
C15 C 0.6714(5) 0.24964(17) 0.0753(3)
H11 H 0.7122 0.2407 0.1283
H12 H 0.7330 0.2436 0.0300
H13 H 0.5946 0.2279 0.0670
C16 C 0.2665(4) 0.60036(13) 0.1061(2)
C17 C 0.2328(4) 0.57795(17) 0.0313(2)
H14 H 0.2983 0.5657 -0.0052
C18 C 0.1036(5) 0.57330(19) 0.0094(3)
H15 H 0.0810 0.5579 -0.0421
C19 C 0.0078(4) 0.59080(16) 0.0617(2)
H16 H -0.0807 0.5879 0.0463
C20 C 0.0415(4) 0.61250(17) 0.1364(3)
H17 H -0.0243 0.6241 0.1733
C21 C 0.1709(3) 0.61776(15) 0.1588(3)
H18 H 0.1932 0.6333 0.2103
H19 H 0.351(4) 0.4618(12) 0.167(2)
H20 H 0.294(3) 0.5059(13) 0.145(2)
O2? O 0.9494(10) 0.4212(5) 0.1990(7)
C22? C 0.991(2) 0.4561(4) 0.2511(19)
H21? H 0.9686 0.4909 0.2305
H22? H 1.0848 0.4532 0.2569
H23? H 0.9496 0.4506 0.3052
H24? H 1.1235 0.4104 0.2858
loop_
_geom_bond_atom_site_label_1
_geom_bond_atom_site_label_2
_geom_bond_site_symmetry_1
_geom_bond_site_symmetry_2
S1 O1 1_555 1_555
S2 C1 1_555 1_555
S3 C8 1_555 1_555
N1 C6 1_555 1_555
N2 C2 1_555 1_555
C1 S1 1_555 1_555
C2 C1 1_555 1_555
C3 C2 1_555 1_555
C4 C3 1_555 1_555
C5 C4 1_555 1_555
H1 C5 1_555 1_555
C6 C5 1_555 1_555
C7 S2 1_555 1_555
C8 C6 1_555 1_555
C9 C8 1_555 1_555
H2 C9 1_555 1_555
C10 C9 1_555 1_555
H3 C10 1_555 1_555
C11 S3 1_555 1_555
H4 C11 1_555 1_555
C12 S1 1_555 1_555
H5 C12 1_555 1_555
H6 C12 1_555 1_555
C13 C12 1_555 1_555
H7 C13 1_555 1_555
H8 C13 1_555 1_555
C14 C13 1_555 1_555
H9 C14 1_555 1_555
H10 C14 1_555 1_555
C15 C14 1_555 1_555
H11 C15 1_555 1_555
H12 C15 1_555 1_555
H13 C15 1_555 1_555
C16 C4 1_555 1_555
C17 C16 1_555 1_555
H14 C17 1_555 1_555
C18 C17 1_555 1_555
H15 C18 1_555 1_555
C19 C18 1_555 1_555
H16 C19 1_555 1_555
C20 C19 1_555 1_555
H17 C20 1_555 1_555
C21 C16 1_555 1_555
H18 C21 1_555 1_555
H19 N2 1_555 1_555
H20 N2 1_555 1_555
N1 C7 1_555 1_555
C3 C7 1_555 1_555
C10 C11 1_555 1_555
C20 C21 1_555 1_555

#END
