
#######################################################################
#
#                 Cambridge Crystallographic Data Centre
#                                CCDC 
#
#######################################################################
#
# If this CIF has been generated from an entry in the Cambridge 
# Structural Database, then it will include bibliographic, chemical, 
# crystal, experimental, refinement or atomic coordinate data resulting 
# from the CCDC's data processing and validation procedures.
#
#######################################################################

data_CASDOS
_chemical_formula_moiety         'C42 H29 N1 O2'
_chemical_name_systematic        
7-(4-methoxyphenyl)-2-(4-(triphenylvinyl)phenyl)-1-benzofuran-3-carbonitrile
_symmetry_cell_setting           triclinic
_symmetry_space_group_name_H-M   'P -1'
_symmetry_Int_Tables_number      2
_space_group_name_Hall           '-P 1'
loop_
_symmetry_equiv_pos_site_id
_symmetry_equiv_pos_as_xyz
1 x,y,z
2 -x,-y,-z
_cell_length_a                   9.4088(7)
_cell_length_b                   11.4520(8)
_cell_length_c                   15.1598(9)
_cell_angle_alpha                90.309(5)
_cell_angle_beta                 105.929(6)
_cell_angle_gamma                93.468(6)
_cell_volume                     1567.45
_exptl_crystal_colour            colorless
_exptl_crystal_description       block
_cell_formula_units_Z            2
loop_
_atom_site_label
_atom_site_type_symbol
_atom_site_fract_x
_atom_site_fract_y
_atom_site_fract_z
O1 O 0.15917(14) 0.52846(10) 0.43439(8)
O2 O -0.2756(2) 0.94901(13) 0.39127(11)
N1 N 0.5225(2) 0.24827(17) 0.51495(13)
C1 C 0.1670(2) 0.64950(16) 0.57040(13)
C2 C 0.2442(2) 0.66104(18) 0.66360(14)
H1 H 0.2207 0.7205 0.6982
C3 C 0.3537(3) 0.5886(2) 0.70692(15)
H2 H 0.3995 0.6003 0.7693
C4 C 0.3968(2) 0.49965(18) 0.66039(14)
H3 H 0.4706 0.4514 0.6898
C5 C 0.3250(2) 0.48542(16) 0.56740(13)
C6 C 0.2136(2) 0.55862(15) 0.52653(12)
C7 C 0.2366(2) 0.43802(15) 0.41631(13)
C8 C 0.3383(2) 0.40891(15) 0.49519(13)
C9 C 0.0504(2) 0.72810(16) 0.52508(14)
C10 C -0.0098(2) 0.80357(17) 0.57440(15)
H4 H 0.0237 0.8039 0.6381
C11 C -0.1175(2) 0.87863(17) 0.53375(15)
H5 H -0.1544 0.9282 0.5698
C12 C -0.1693(3) 0.87943(17) 0.44008(16)
C13 C -0.1117(3) 0.8061(2) 0.38873(16)
H6 H -0.1457 0.8064 0.3251
C14 C -0.0042(3) 0.7321(2) 0.43014(16)
H7 H 0.0329 0.6835 0.3936
C15 C -0.3372(3) 1.02808(19) 0.44010(18)
H8 H -0.4049 1.0743 0.3975
H9 H -0.2594 1.0785 0.4787
H10 H -0.3890 0.9852 0.4773
C16 C 0.1920(2) 0.39496(14) 0.32168(12)
C17 C 0.0595(2) 0.42779(15) 0.26257(13)
H11 H 0.0022 0.4791 0.2834
C18 C 0.0132(2) 0.38485(16) 0.17380(13)
H12 H -0.0768 0.4060 0.1359
C19 C 0.0973(2) 0.31081(15) 0.13927(12)
C20 C 0.2317(2) 0.28225(16) 0.19742(13)
H13 H 0.2926 0.2359 0.1752
C21 C 0.2764(2) 0.32137(16) 0.28771(13)
H14 H 0.3647 0.2978 0.3262
C22 C 0.0475(2) 0.26845(15) 0.04159(13)
C23 C 0.1543(2) 0.29904(16) -0.01361(13)
C24 C 0.2199(2) 0.41196(18) -0.00771(15)
H15 H 0.1972 0.4680 0.0301
C25 C 0.3195(3) 0.4412(2) -0.05827(18)
H16 H 0.3619 0.5171 -0.0552
C26 C 0.3550(3) 0.3580(3) -0.11265(17)
H17 H 0.4216 0.3776 -0.1464
C27 C 0.2930(3) 0.2469(2) -0.11728(16)
H18 H 0.3181 0.1906 -0.1538
C28 C 0.1936(2) 0.21740(19) -0.06834(14)
H19 H 0.1521 0.1411 -0.0722
C29 C -0.0851(2) 0.21068(16) 0.00588(13)
C30 C -0.1477(2) 0.18760(16) -0.09488(12)
C31 C -0.1648(2) 0.27739(17) -0.15720(14)
H20 H -0.1326 0.3535 -0.1363
C32 C -0.2283(3) 0.2559(2) -0.24909(15)
H21 H -0.2392 0.3175 -0.2897
C33 C -0.2758(3) 0.1446(2) -0.28142(15)
H22 H -0.3183 0.1304 -0.3439
C34 C -0.2605(3) 0.0543(2) -0.22163(15)
H23 H -0.2915 -0.0216 -0.2435
C35 C -0.1989(2) 0.07563(17) -0.12851(14)
H24 H -0.1918 0.0141 -0.0881
C36 C -0.1811(2) 0.16708(16) 0.06401(13)
C37 C -0.3319(3) 0.1820(2) 0.03707(17)
H25 H -0.3725 0.2216 -0.0165
C38 C -0.4233(3) 0.1385(3) 0.0890(2)
H26 H -0.5241 0.1497 0.0706
C39 C -0.3649(4) 0.0792(2) 0.1672(2)
H27 H -0.4262 0.0503 0.2020
C40 C -0.2176(3) 0.06223(19) 0.19448(16)
H28 H -0.1785 0.0214 0.2476
C41 C -0.1260(2) 0.10546(16) 0.14359(13)
H29 H -0.0254 0.0932 0.1628
C42 C 0.4393(2) 0.31904(18) 0.50509(13)
loop_
_geom_bond_atom_site_label_1
_geom_bond_atom_site_label_2
_geom_bond_site_symmetry_1
_geom_bond_site_symmetry_2
O1 C6 1_555 1_555
O2 C12 1_555 1_555
N1 C42 1_555 1_555
C1 C2 1_555 1_555
C2 H1 1_555 1_555
C3 C2 1_555 1_555
H2 C3 1_555 1_555
C4 C3 1_555 1_555
H3 C4 1_555 1_555
C5 C4 1_555 1_555
C6 C1 1_555 1_555
C7 O1 1_555 1_555
C8 C5 1_555 1_555
C9 C1 1_555 1_555
C10 C9 1_555 1_555
H4 C10 1_555 1_555
C11 C10 1_555 1_555
H5 C11 1_555 1_555
C12 C11 1_555 1_555
C13 C12 1_555 1_555
H6 C13 1_555 1_555
C14 C9 1_555 1_555
H7 C14 1_555 1_555
C15 O2 1_555 1_555
H8 C15 1_555 1_555
H9 C15 1_555 1_555
H10 C15 1_555 1_555
C16 C7 1_555 1_555
C17 C16 1_555 1_555
H11 C17 1_555 1_555
C18 C17 1_555 1_555
H12 C18 1_555 1_555
C19 C18 1_555 1_555
C20 C19 1_555 1_555
H13 C20 1_555 1_555
C21 C16 1_555 1_555
H14 C21 1_555 1_555
C22 C19 1_555 1_555
C23 C22 1_555 1_555
C24 C23 1_555 1_555
H15 C24 1_555 1_555
C25 C24 1_555 1_555
H16 C25 1_555 1_555
C26 C25 1_555 1_555
H17 C26 1_555 1_555
C27 C26 1_555 1_555
H18 C27 1_555 1_555
C28 C23 1_555 1_555
H19 C28 1_555 1_555
C29 C22 1_555 1_555
C30 C29 1_555 1_555
C31 C30 1_555 1_555
H20 C31 1_555 1_555
C32 C31 1_555 1_555
H21 C32 1_555 1_555
C33 C32 1_555 1_555
H22 C33 1_555 1_555
C34 C33 1_555 1_555
H23 C34 1_555 1_555
C35 C30 1_555 1_555
H24 C35 1_555 1_555
C36 C29 1_555 1_555
C37 C36 1_555 1_555
H25 C37 1_555 1_555
C38 C37 1_555 1_555
H26 C38 1_555 1_555
C39 C38 1_555 1_555
H27 C39 1_555 1_555
C40 C39 1_555 1_555
H28 C40 1_555 1_555
C41 C36 1_555 1_555
H29 C41 1_555 1_555
C42 C8 1_555 1_555
C5 C6 1_555 1_555
C7 C8 1_555 1_555
C13 C14 1_555 1_555
C20 C21 1_555 1_555
C27 C28 1_555 1_555
C34 C35 1_555 1_555
C40 C41 1_555 1_555

#END
