
#######################################################################
#
#                 Cambridge Crystallographic Data Centre
#                                CCDC 
#
#######################################################################
#
# If this CIF has been generated from an entry in the Cambridge 
# Structural Database, then it will include bibliographic, chemical, 
# crystal, experimental, refinement or atomic coordinate data resulting 
# from the CCDC's data processing and validation procedures.
#
#######################################################################

data_CASHAH
_chemical_formula_moiety         'C15 H12 Cl1 N3 S1'
_chemical_name_systematic        
3-((Chloromethyl)sulfanyl)-1,5-diphenyl-1H-1,2,4-triazole
_symmetry_cell_setting           monoclinic
_symmetry_space_group_name_H-M   'P 21/c'
_symmetry_Int_Tables_number      14
_space_group_name_Hall           '-P 2ybc'
loop_
_symmetry_equiv_pos_site_id
_symmetry_equiv_pos_as_xyz
1 x,y,z
2 -x,1/2+y,1/2-z
3 -x,-y,-z
4 x,1/2-y,1/2+z
_cell_length_a                   9.5303(14)
_cell_length_b                   18.622(2)
_cell_length_c                   8.8307(13)
_cell_angle_alpha                90
_cell_angle_beta                 116.767(3)
_cell_angle_gamma                90
_cell_volume                     1399.28
_exptl_crystal_colour            colorless
_exptl_crystal_description       block
_cell_formula_units_Z            4
loop_
_atom_site_label
_atom_site_type_symbol
_atom_site_fract_x
_atom_site_fract_y
_atom_site_fract_z
Cl1 Cl 0.20233(8) 0.57064(4) 0.56889(8)
S1 S 0.10317(6) 0.46892(3) 0.27609(7)
N1 N 0.41774(18) 0.33880(8) 0.5665(2)
N2 N 0.37001(18) 0.40823(8) 0.5214(2)
N3 N 0.17743(18) 0.33056(9) 0.3586(2)
C1 C 0.2259(2) 0.39916(10) 0.3961(2)
C2 C 0.30212(19) 0.29299(10) 0.4687(2)
C3 C 0.5741(2) 0.32643(9) 0.7000(2)
C4 C 0.6757(2) 0.28094(10) 0.6739(2)
H1 H 0.6413 0.2551 0.5706
C5 C 0.8293(2) 0.27333(11) 0.8011(3)
H2 H 0.8998 0.2416 0.7855
C6 C 0.8789(2) 0.31201(11) 0.9500(2)
H3 H 0.9842 0.3076 1.0356
C7 C 0.7757(2) 0.35707(11) 0.9746(2)
H4 H 0.8104 0.3831 1.0777
C8 C 0.6218(2) 0.36458(10) 0.8499(2)
H5 H 0.5506 0.3953 0.8671
C9 C 0.2172(2) 0.54511(11) 0.3821(3)
H6 H 0.1841 0.5862 0.3024
H7 H 0.3288 0.5350 0.4130
C10 C 0.3034(2) 0.21444(10) 0.4699(2)
C11 C 0.2145(2) 0.17914(10) 0.3167(2)
H8 H 0.1571 0.2062 0.2163
C12 C 0.2095(2) 0.10490(11) 0.3104(3)
H9 H 0.1487 0.0811 0.2059
C13 C 0.2929(3) 0.06547(12) 0.4557(3)
H10 H 0.2903 0.0145 0.4509
C14 C 0.3806(3) 0.09994(11) 0.6088(3)
H11 H 0.4371 0.0725 0.7088
C15 C 0.3861(2) 0.17419(11) 0.6168(3)
H12 H 0.4461 0.1976 0.7220
loop_
_geom_bond_atom_site_label_1
_geom_bond_atom_site_label_2
_geom_bond_site_symmetry_1
_geom_bond_site_symmetry_2
Cl1 C9 1_555 1_555
S1 C1 1_555 1_555
N1 N2 1_555 1_555
N2 C1 1_555 1_555
N3 C1 1_555 1_555
C2 N1 1_555 1_555
C3 N1 1_555 1_555
C4 C3 1_555 1_555
H1 C4 1_555 1_555
C5 C4 1_555 1_555
H2 C5 1_555 1_555
C6 C5 1_555 1_555
H3 C6 1_555 1_555
C7 C6 1_555 1_555
H4 C7 1_555 1_555
C8 C3 1_555 1_555
H5 C8 1_555 1_555
C9 S1 1_555 1_555
H6 C9 1_555 1_555
H7 C9 1_555 1_555
C10 C2 1_555 1_555
C11 C10 1_555 1_555
H8 C11 1_555 1_555
C12 C11 1_555 1_555
H9 C12 1_555 1_555
C13 C12 1_555 1_555
H10 C13 1_555 1_555
C14 C13 1_555 1_555
H11 C14 1_555 1_555
C15 C10 1_555 1_555
H12 C15 1_555 1_555
N3 C2 1_555 1_555
C7 C8 1_555 1_555
C14 C15 1_555 1_555

#END
