
#######################################################################
#
#                 Cambridge Crystallographic Data Centre
#                                CCDC 
#
#######################################################################
#
# If this CIF has been generated from an entry in the Cambridge 
# Structural Database, then it will include bibliographic, chemical, 
# crystal, experimental, refinement or atomic coordinate data resulting 
# from the CCDC's data processing and validation procedures.
#
#######################################################################

data_CASLIS
_chemical_formula_moiety         'C28 H20 N2 O2'
_chemical_name_systematic        2,2'-(1,4-Phenylenedivinylene)diquinolin-8-ol
_symmetry_cell_setting           monoclinic
_symmetry_space_group_name_H-M   'P 21/c'
_symmetry_Int_Tables_number      14
_space_group_name_Hall           '-P 2ybc'
loop_
_symmetry_equiv_pos_site_id
_symmetry_equiv_pos_as_xyz
1 x,y,z
2 -x,1/2+y,1/2-z
3 -x,-y,-z
4 x,1/2-y,1/2+z
_cell_length_a                   11.648(6)
_cell_length_b                   5.777(3)
_cell_length_c                   15.852(8)
_cell_angle_alpha                90
_cell_angle_beta                 100.740(9)
_cell_angle_gamma                90
_cell_volume                     1048
_exptl_crystal_colour            yellow
_exptl_crystal_description       prism
_chemical_melting_point          '499 K'
_cell_formula_units_Z            2
_exptl_crystal_recrystallization_method DMF
loop_
_atom_site_label
_atom_site_type_symbol
_atom_site_fract_x
_atom_site_fract_y
_atom_site_fract_z
N1 N 0.53218(12) 0.1645(2) 0.09666(8)
O1 O 0.68802(13) 0.4740(2) 0.05877(9)
H1 H 0.606(2) 0.442(4) 0.0444(14)
C1 C 0.45483(14) 0.0080(3) 0.11203(10)
C2 C 0.48990(16) -0.1873(3) 0.16533(12)
H2 H 0.4352 -0.2986 0.1731
C3 C 0.60355(16) -0.2114(3) 0.20496(12)
H3 H 0.6256 -0.3378 0.2406
C4 C 0.68787(15) -0.0466(3) 0.19239(11)
C5 C 0.64663(14) 0.1374(3) 0.13568(10)
C6 C 0.72738(15) 0.3031(3) 0.11664(11)
C7 C 0.84278(16) 0.2892(4) 0.15467(13)
H4 H 0.8954 0.3997 0.1424
C8 C 0.88171(17) 0.1102(4) 0.21172(13)
H5 H 0.9603 0.1040 0.2373
C9 C 0.80795(16) -0.0557(4) 0.23097(12)
H6 H 0.8359 -0.1741 0.2691
C10 C 0.33295(15) 0.0498(3) 0.07132(11)
H7 H 0.3191 0.1751 0.0339
C11 C 0.23994(15) -0.0724(3) 0.08217(11)
H8 H 0.2535 -0.1971 0.1198
C12 C 0.11848(15) -0.0308(3) 0.04094(11)
C13 C 0.08218(16) 0.1650(3) -0.00807(12)
H9 H 0.1366 0.2788 -0.0140
C14 C 0.03270(16) -0.1941(3) 0.04796(12)
H10 H 0.0535 -0.3267 0.0805
N1B N -0.53218(12) -0.1645(2) -0.09666(8)
O1B O -0.68802(13) -0.4740(2) -0.05877(9)
H1B H -0.606(2) -0.442(4) -0.0444(14)
C1B C -0.45483(14) -0.0080(3) -0.11203(10)
C2B C -0.48990(16) 0.1873(3) -0.16533(12)
H2B H -0.4352 0.2986 -0.1731
C3B C -0.60355(16) 0.2114(3) -0.20496(12)
H3B H -0.6256 0.3378 -0.2406
C4B C -0.68787(15) 0.0466(3) -0.19239(11)
C5B C -0.64663(14) -0.1374(3) -0.13568(10)
C6B C -0.72738(15) -0.3031(3) -0.11664(11)
C7B C -0.84278(16) -0.2892(4) -0.15467(13)
H4B H -0.8954 -0.3997 -0.1424
C8B C -0.88171(17) -0.1102(4) -0.21172(13)
H5B H -0.9603 -0.1040 -0.2373
C9B C -0.80795(16) 0.0557(4) -0.23097(12)
H6B H -0.8359 0.1741 -0.2691
C10B C -0.33295(15) -0.0498(3) -0.07132(11)
H7B H -0.3191 -0.1751 -0.0339
C11B C -0.23994(15) 0.0724(3) -0.08217(11)
H8B H -0.2535 0.1971 -0.1198
C12B C -0.11848(15) 0.0308(3) -0.04094(11)
C13B C -0.08218(16) -0.1650(3) 0.00807(12)
H9B H -0.1366 -0.2788 0.0140
C14B C -0.03270(16) 0.1941(3) -0.04796(12)
H10B H -0.0535 0.3267 -0.0805
loop_
_geom_bond_atom_site_label_1
_geom_bond_atom_site_label_2
_geom_bond_site_symmetry_1
_geom_bond_site_symmetry_2
N1 C1 1_555 1_555
O1 H1 1_555 1_555
C1 C2 1_555 1_555
C2 H2 1_555 1_555
C3 C2 1_555 1_555
H3 C3 1_555 1_555
C4 C3 1_555 1_555
C5 N1 1_555 1_555
C6 O1 1_555 1_555
C7 C6 1_555 1_555
H4 C7 1_555 1_555
C8 C7 1_555 1_555
H5 C8 1_555 1_555
C9 C4 1_555 1_555
H6 C9 1_555 1_555
C10 C1 1_555 1_555
H7 C10 1_555 1_555
C11 C10 1_555 1_555
H8 C11 1_555 1_555
C12 C11 1_555 1_555
C13 C12 1_555 1_555
H9 C13 1_555 1_555
C14 C12 1_555 1_555
H10 C14 1_555 1_555
N1B C1B 1_555 1_555
O1B H1B 1_555 1_555
C1B C2B 1_555 1_555
C2B H2B 1_555 1_555
C3B C2B 1_555 1_555
H3B C3B 1_555 1_555
C4B C3B 1_555 1_555
C5B N1B 1_555 1_555
C6B O1B 1_555 1_555
C7B C6B 1_555 1_555
H4B C7B 1_555 1_555
C8B C7B 1_555 1_555
H5B C8B 1_555 1_555
C9B C4B 1_555 1_555
H6B C9B 1_555 1_555
C10B C1B 1_555 1_555
H7B C10B 1_555 1_555
C11B C10B 1_555 1_555
H8B C11B 1_555 1_555
C12B C11B 1_555 1_555
C13B C14 1_555 1_555
H9B C13B 1_555 1_555
C14B C13 1_555 1_555
H10B C14B 1_555 1_555
C4 C5 1_555 1_555
C5 C6 1_555 1_555
C8 C9 1_555 1_555
C4B C5B 1_555 1_555
C5B C6B 1_555 1_555
C8B C9B 1_555 1_555
C12B C13B 1_555 1_555
C12B C14B 1_555 1_555

#END
