
#######################################################################
#
#                 Cambridge Crystallographic Data Centre
#                                CCDC 
#
#######################################################################
#
# If this CIF has been generated from an entry in the Cambridge 
# Structural Database, then it will include bibliographic, chemical, 
# crystal, experimental, refinement or atomic coordinate data resulting 
# from the CCDC's data processing and validation procedures.
#
#######################################################################

data_CASNER
_chemical_formula_moiety         'C7 H11 N3 S2'
_chemical_name_systematic        
'3-(Dimethylamino)propane-1,2-diyl bis(thiocyanate)'
_symmetry_cell_setting           monoclinic
_symmetry_space_group_name_H-M   'P 21/c'
_symmetry_Int_Tables_number      14
_space_group_name_Hall           '-P 2ybc'
loop_
_symmetry_equiv_pos_site_id
_symmetry_equiv_pos_as_xyz
1 x,y,z
2 -x,1/2+y,1/2-z
3 -x,-y,-z
4 x,1/2-y,1/2+z
_cell_length_a                   6.023(3)
_cell_length_b                   7.368(4)
_cell_length_c                   21.882(11)
_cell_angle_alpha                90
_cell_angle_beta                 94.420(8)
_cell_angle_gamma                90
_cell_volume                     968.18
_exptl_crystal_colour            colorless
_exptl_crystal_description       prism
_cell_formula_units_Z            4
loop_
_atom_site_label
_atom_site_type_symbol
_atom_site_fract_x
_atom_site_fract_y
_atom_site_fract_z
S1 S 0.20166(9) 0.91965(7) 0.23723(2)
S2 S 0.00577(10) 0.88871(7) 0.42925(2)
N1 N -0.3307(3) 0.6479(2) 0.37996(9)
C1 C 0.1066(4) 0.9814(3) 0.35755(10)
H1 H -0.0053 1.0686 0.3383
N2 N 0.6743(4) 0.9414(3) 0.24837(9)
C2 C -0.1939(4) 0.7456(3) 0.39815(10)
C3 C 0.1477(4) 0.8291(3) 0.31246(9)
H2 H 0.0158 0.7486 0.3082
H3 H 0.2768 0.7558 0.3286
N3 N 0.2910(3) 1.1868(2) 0.43514(8)
C4 C 0.4831(4) 0.9325(3) 0.24517(9)
C5 C 0.5090(4) 1.2392(3) 0.46366(10)
H4 H 0.6005 1.1304 0.4715
H5 H 0.4901 1.3015 0.5025
H6 H 0.5826 1.3206 0.4361
C6 C 0.3174(4) 1.0829(3) 0.37967(10)
H7 H 0.4401 0.9946 0.3876
H8 H 0.3591 1.1662 0.3470
C7 C 0.1521(4) 1.3479(3) 0.42285(11)
H9 H 0.0065 1.3111 0.4038
H10 H 0.2247 1.4292 0.3951
H11 H 0.1323 1.4112 0.4614
loop_
_geom_bond_atom_site_label_1
_geom_bond_atom_site_label_2
_geom_bond_site_symmetry_1
_geom_bond_site_symmetry_2
S1 C3 1_555 1_555
S2 C1 1_555 1_555
N1 C2 1_555 1_555
C1 H1 1_555 1_555
N2 C4 1_555 1_555
C2 S2 1_555 1_555
C3 C1 1_555 1_555
H2 C3 1_555 1_555
H3 C3 1_555 1_555
N3 C5 1_555 1_555
C4 S1 1_555 1_555
C5 H4 1_555 1_555
H5 C5 1_555 1_555
H6 C5 1_555 1_555
C6 C1 1_555 1_555
H7 C6 1_555 1_555
H8 C6 1_555 1_555
C7 N3 1_555 1_555
H9 C7 1_555 1_555
H10 C7 1_555 1_555
H11 C7 1_555 1_555
N3 C6 1_555 1_555

#END
