
#######################################################################
#
#                 Cambridge Crystallographic Data Centre
#                                CCDC 
#
#######################################################################
#
# If this CIF has been generated from an entry in the Cambridge 
# Structural Database, then it will include bibliographic, chemical, 
# crystal, experimental, refinement or atomic coordinate data resulting 
# from the CCDC's data processing and validation procedures.
#
#######################################################################

data_CASQOD
_chemical_formula_moiety         'C18 H17 Br1 O8'
_chemical_name_systematic        
'3,4,5-Trimethoxyphenyl 4-bromo-7-methoxy-1,3-benzodioxole-5-carboxylate'
_symmetry_cell_setting           monoclinic
_symmetry_space_group_name_H-M   'P 21/n'
_symmetry_Int_Tables_number      14
_space_group_name_Hall           '-P 2yn'
loop_
_symmetry_equiv_pos_site_id
_symmetry_equiv_pos_as_xyz
1 x,y,z
2 1/2-x,1/2+y,1/2-z
3 -x,-y,-z
4 1/2+x,1/2-y,1/2+z
_cell_length_a                   8.6563(16)
_cell_length_b                   7.6330(12)
_cell_length_c                   26.927(4)
_cell_angle_alpha                90
_cell_angle_beta                 95.403(9)
_cell_angle_gamma                90
_cell_volume                     1771.26
_exptl_crystal_colour            colorless
_exptl_crystal_description       block
_chemical_melting_point          '461 K'
_cell_formula_units_Z            4
_exptl_crystal_recrystallization_method dichloromethane
loop_
_atom_site_label
_atom_site_type_symbol
_atom_site_fract_x
_atom_site_fract_y
_atom_site_fract_z
Br1 Br 0.75663(4) 0.46348(6) 0.219153(13)
O1 O 0.6634(3) 0.4546(3) 0.10474(8)
O2 O 0.4353(3) 0.3869(3) 0.05663(7)
O3 O 0.1593(3) 0.2773(3) 0.09433(8)
O4 O 0.4979(3) 0.4617(4) 0.28936(9)
O5 O 0.3255(3) 0.2428(3) 0.27989(7)
O6 O -0.0465(3) 0.4055(4) 0.39314(8)
O7 O 0.1511(2) 0.3226(3) 0.47050(7)
O8 O 0.4358(3) 0.2133(3) 0.45979(7)
C1 C 0.5848(4) 0.4675(5) 0.05571(11)
H1 H 0.6439 0.4082 0.0319
H2 H 0.5731 0.5894 0.0460
C2 C 0.4162(4) 0.3686(4) 0.10611(10)
C3 C 0.5502(4) 0.4102(4) 0.13474(11)
C4 C 0.5623(4) 0.4049(4) 0.18579(11)
C5 C 0.4302(4) 0.3489(4) 0.20796(10)
C6 C 0.2960(4) 0.3020(4) 0.17862(11)
H3 H 0.2109 0.2624 0.1941
C7 C 0.2850(4) 0.3125(4) 0.12666(11)
C8 C 0.0254(4) 0.2101(5) 0.11385(13)
H4 H 0.0514 0.1042 0.1320
H5 H -0.0525 0.1855 0.0870
H6 H -0.0137 0.2949 0.1358
C9 C 0.4267(4) 0.3600(5) 0.26302(11)
C10 C 0.2864(4) 0.2668(5) 0.32926(11)
C11 C 0.1395(4) 0.3255(5) 0.33438(11)
H7 H 0.0712 0.3503 0.3065
C12 C 0.0945(4) 0.3474(5) 0.38242(11)
C13 C 0.1980(4) 0.3074(4) 0.42341(10)
C14 C 0.3455(4) 0.2452(4) 0.41677(11)
C15 C 0.3913(4) 0.2234(5) 0.36882(11)
H8 H 0.4894 0.1810 0.3638
C16 C -0.1608(4) 0.4398(6) 0.35271(14)
H9 H -0.1254 0.5323 0.3325
H10 H -0.2560 0.4743 0.3655
H11 H -0.1780 0.3359 0.3329
C17 C 0.2037(5) 0.4782(5) 0.49610(13)
H12 H 0.3147 0.4850 0.4972
H13 H 0.1732 0.4758 0.5295
H14 H 0.1585 0.5785 0.4788
C18 C 0.5862(4) 0.1434(6) 0.45643(14)
H15 H 0.5777 0.0313 0.4402
H16 H 0.6380 0.1298 0.4893
H17 H 0.6447 0.2216 0.4375
loop_
_geom_bond_atom_site_label_1
_geom_bond_atom_site_label_2
_geom_bond_site_symmetry_1
_geom_bond_site_symmetry_2
Br1 C4 1_555 1_555
O1 C1 1_555 1_555
O2 C1 1_555 1_555
O3 C7 1_555 1_555
O4 C9 1_555 1_555
O5 C9 1_555 1_555
O6 C12 1_555 1_555
O7 C13 1_555 1_555
O8 C14 1_555 1_555
C1 H1 1_555 1_555
H2 C1 1_555 1_555
C2 O2 1_555 1_555
C3 O1 1_555 1_555
C4 C3 1_555 1_555
C5 C4 1_555 1_555
C6 C5 1_555 1_555
H3 C6 1_555 1_555
C7 C2 1_555 1_555
C8 O3 1_555 1_555
H4 C8 1_555 1_555
H5 C8 1_555 1_555
H6 C8 1_555 1_555
C9 C5 1_555 1_555
C10 O5 1_555 1_555
C11 C10 1_555 1_555
H7 C11 1_555 1_555
C12 C11 1_555 1_555
C13 C12 1_555 1_555
C14 C13 1_555 1_555
C15 C10 1_555 1_555
H8 C15 1_555 1_555
C16 O6 1_555 1_555
H9 C16 1_555 1_555
H10 C16 1_555 1_555
H11 C16 1_555 1_555
C17 O7 1_555 1_555
H12 C17 1_555 1_555
H13 C17 1_555 1_555
H14 C17 1_555 1_555
C18 O8 1_555 1_555
H15 C18 1_555 1_555
H16 C18 1_555 1_555
H17 C18 1_555 1_555
C2 C3 1_555 1_555
C6 C7 1_555 1_555
C14 C15 1_555 1_555

#END
