
#######################################################################
#
#                 Cambridge Crystallographic Data Centre
#                                CCDC 
#
#######################################################################
#
# If this CIF has been generated from an entry in the Cambridge 
# Structural Database, then it will include bibliographic, chemical, 
# crystal, experimental, refinement or atomic coordinate data resulting 
# from the CCDC's data processing and validation procedures.
#
#######################################################################

data_CASQAP
_chemical_formula_moiety         'C14 H14 S2'
_chemical_name_systematic        1,2-bis(Phenylsulfanyl)ethane
_symmetry_cell_setting           monoclinic
_symmetry_space_group_name_H-M   'P 21/c'
_symmetry_Int_Tables_number      14
_space_group_name_Hall           '-P 2ybc'
loop_
_symmetry_equiv_pos_site_id
_symmetry_equiv_pos_as_xyz
1 x,y,z
2 -x,1/2+y,1/2-z
3 -x,-y,-z
4 x,1/2-y,1/2+z
_cell_length_a                   5.8389(12)
_cell_length_b                   7.6865(15)
_cell_length_c                   14.124(3)
_cell_angle_alpha                90
_cell_angle_beta                 97.90(3)
_cell_angle_gamma                90
_cell_volume                     627.879
_exptl_crystal_colour            colorless
_exptl_crystal_description       needle
_cell_formula_units_Z            2
_exptl_crystal_recrystallization_method chloroform
loop_
_atom_site_label
_atom_site_type_symbol
_atom_site_fract_x
_atom_site_fract_y
_atom_site_fract_z
S1 S 0.82869(8) 0.07821(8) 0.08636(3)
C1 C 0.6091(3) -0.0518(3) 0.01381(14)
H1 H 0.6685 -0.0906 -0.0435
H2 H 0.5743 -0.1540 0.0495
C2 C 0.7676(3) 0.0563(2) 0.20445(12)
C3 C 0.5774(3) -0.0280(3) 0.23236(13)
H3 H 0.4668 -0.0775 0.1866
C4 C 0.5528(4) -0.0383(3) 0.32789(14)
H4 H 0.4259 -0.0961 0.3461
C5 C 0.7124(4) 0.0353(3) 0.39639(14)
H5 H 0.6942 0.0280 0.4606
C6 C 0.8993(4) 0.1200(3) 0.36909(15)
H6 H 1.0083 0.1702 0.4152
C7 C 0.9276(3) 0.1314(3) 0.27418(14)
H7 H 1.0548 0.1899 0.2567
S1B S 0.17131(8) -0.07821(8) -0.08636(3)
C1B C 0.3909(3) 0.0518(3) -0.01381(14)
H1B H 0.3315 0.0906 0.0435
H2B H 0.4257 0.1540 -0.0495
C2B C 0.2324(3) -0.0563(2) -0.20445(12)
C3B C 0.4226(3) 0.0280(3) -0.23236(13)
H3B H 0.5332 0.0775 -0.1866
C4B C 0.4472(4) 0.0383(3) -0.32789(14)
H4B H 0.5741 0.0961 -0.3461
C5B C 0.2876(4) -0.0353(3) -0.39639(14)
H5B H 0.3058 -0.0280 -0.4606
C6B C 0.1007(4) -0.1200(3) -0.36909(15)
H6B H -0.0083 -0.1702 -0.4152
C7B C 0.0724(3) -0.1314(3) -0.27418(14)
H7B H -0.0548 -0.1899 -0.2567
loop_
_geom_bond_atom_site_label_1
_geom_bond_atom_site_label_2
_geom_bond_site_symmetry_1
_geom_bond_site_symmetry_2
S1 C1 1_555 1_555
C1 H1 1_555 1_555
H2 C1 1_555 1_555
C2 S1 1_555 1_555
C3 C2 1_555 1_555
H3 C3 1_555 1_555
C4 C3 1_555 1_555
H4 C4 1_555 1_555
C5 C4 1_555 1_555
H5 C5 1_555 1_555
C6 C5 1_555 1_555
H6 C6 1_555 1_555
C7 C2 1_555 1_555
H7 C7 1_555 1_555
S1B C1B 1_555 1_555
C1B C1 1_555 1_555
H1B C1B 1_555 1_555
H2B C1B 1_555 1_555
C2B S1B 1_555 1_555
C3B C2B 1_555 1_555
H3B C3B 1_555 1_555
C4B C3B 1_555 1_555
H4B C4B 1_555 1_555
C5B C4B 1_555 1_555
H5B C5B 1_555 1_555
C6B C5B 1_555 1_555
H6B C6B 1_555 1_555
C7B C2B 1_555 1_555
H7B C7B 1_555 1_555
C6 C7 1_555 1_555
C6B C7B 1_555 1_555

#END
