
#######################################################################
#
#                 Cambridge Crystallographic Data Centre
#                                CCDC 
#
#######################################################################
#
# If this CIF has been generated from an entry in the Cambridge 
# Structural Database, then it will include bibliographic, chemical, 
# crystal, experimental, refinement or atomic coordinate data resulting 
# from the CCDC's data processing and validation procedures.
#
#######################################################################

data_CASREU
_chemical_formula_moiety         'C25 H29 Br1 O5'
_chemical_name_systematic        
2-(3-Bromo-4-butoxyphenyl)-3,4-dimethyl-5-(3,4,5-trimethoxyphenyl)furan
_symmetry_cell_setting           triclinic
_symmetry_space_group_name_H-M   'P -1'
_symmetry_Int_Tables_number      2
_space_group_name_Hall           '-P 1'
loop_
_symmetry_equiv_pos_site_id
_symmetry_equiv_pos_as_xyz
1 x,y,z
2 -x,-y,-z
_cell_length_a                   8.9854(17)
_cell_length_b                   11.955(2)
_cell_length_c                   12.210(2)
_cell_angle_alpha                71.179(3)
_cell_angle_beta                 70.188(3)
_cell_angle_gamma                84.085(3)
_cell_volume                     1167.96
_exptl_crystal_colour            colorless
_exptl_crystal_description       block
_chemical_melting_point          '375 K'
_cell_formula_units_Z            2
_exptl_crystal_recrystallization_method dichloromethane/methanol
loop_
_atom_site_label
_atom_site_type_symbol
_atom_site_fract_x
_atom_site_fract_y
_atom_site_fract_z
Br1 Br 0.62568(6) -0.07131(3) 0.70338(4)
O1 O 0.7679(3) 0.20539(18) 1.0363(2)
O2 O 0.9162(3) 0.3322(2) 1.4299(2)
O3 O 0.8383(3) 0.5490(2) 1.3130(2)
O4 O 0.7759(3) 0.5933(2) 1.1056(2)
O5 O 0.5301(3) 0.1781(2) 0.6137(2)
C1 C 0.8169(4) 0.1730(3) 1.1376(3)
C2 C 0.8346(4) 0.0533(3) 1.1747(3)
C3 C 0.7948(4) 0.0093(3) 1.0926(3)
C4 C 0.7531(4) 0.1036(3) 1.0109(3)
C5 C 0.8327(4) 0.2706(3) 1.1794(3)
C6 C 0.8743(4) 0.2514(3) 1.2837(3)
H1 H 0.8982 0.1754 1.3253
C7 C 0.8804(4) 0.3441(3) 1.3262(3)
C8 C 0.8462(4) 0.4583(3) 1.2653(3)
C9 C 0.8090(4) 0.4787(3) 1.1591(3)
C10 C 0.8023(4) 0.3858(3) 1.1162(3)
H2 H 0.7774 0.4003 1.0449
C11 C 0.8802(5) -0.0215(3) 1.2826(4)
H3 H 0.9795 0.0058 1.2781
H4 H 0.8901 -0.1022 1.2824
H5 H 0.8003 -0.0163 1.3565
C12 C 0.7996(5) -0.1183(3) 1.0983(3)
H6 H 0.7048 -0.1382 1.0889
H7 H 0.8072 -0.1670 1.1760
H8 H 0.8898 -0.1313 1.0339
C13 C 0.6967(4) 0.1230(3) 0.9079(3)
C14 C 0.6871(4) 0.0334(3) 0.8607(3)
H9 H 0.7189 -0.0424 0.8955
C15 C 0.6320(4) 0.0542(3) 0.7644(3)
C16 C 0.5821(4) 0.1651(3) 0.7097(3)
C17 C 0.5905(5) 0.2554(3) 0.7556(3)
H10 H 0.5588 0.3312 0.7203
C18 C 0.6451(4) 0.2340(3) 0.8526(3)
H11 H 0.6478 0.2958 0.8826
C19 C 0.9583(5) 0.2183(4) 1.4933(4)
H12 H 0.8726 0.1640 1.5186
H13 H 0.9801 0.2216 1.5639
H14 H 1.0508 0.1920 1.4403
C20 C 0.9839(6) 0.6034(4) 1.2832(5)
H15 H 1.0507 0.5485 1.3215
H16 H 0.9668 0.6713 1.3115
H17 H 1.0340 0.6276 1.1960
C21 C 0.7442(5) 0.6206(3) 0.9937(4)
H18 H 0.8324 0.5975 0.9345
H19 H 0.7275 0.7040 0.9641
H20 H 0.6510 0.5786 1.0067
C22 C 0.4859(5) 0.2944(3) 0.5531(3)
H21 H 0.5744 0.3487 0.5219
H22 H 0.3986 0.3231 0.6097
C23 C 0.4376(4) 0.2854(3) 0.4491(3)
H23 H 0.3461 0.2337 0.4819
H24 H 0.5231 0.2509 0.3968
C24 C 0.3983(5) 0.4053(3) 0.3745(3)
H25 H 0.4874 0.4583 0.3470
H26 H 0.3084 0.4372 0.4260
C25 C 0.3598(5) 0.4011(3) 0.2636(4)
H27 H 0.4473 0.3677 0.2132
H28 H 0.3409 0.4797 0.2172
H29 H 0.2671 0.3532 0.2903
loop_
_geom_bond_atom_site_label_1
_geom_bond_atom_site_label_2
_geom_bond_site_symmetry_1
_geom_bond_site_symmetry_2
Br1 C15 1_555 1_555
O1 C1 1_555 1_555
O2 C7 1_555 1_555
O3 C8 1_555 1_555
O4 C9 1_555 1_555
O5 C16 1_555 1_555
C1 C2 1_555 1_555
C2 C3 1_555 1_555
C3 C4 1_555 1_555
C4 O1 1_555 1_555
C5 C1 1_555 1_555
C6 C5 1_555 1_555
H1 C6 1_555 1_555
C7 C6 1_555 1_555
C8 C7 1_555 1_555
C9 C8 1_555 1_555
C10 C5 1_555 1_555
H2 C10 1_555 1_555
C11 C2 1_555 1_555
H3 C11 1_555 1_555
H4 C11 1_555 1_555
H5 C11 1_555 1_555
C12 C3 1_555 1_555
H6 C12 1_555 1_555
H7 C12 1_555 1_555
H8 C12 1_555 1_555
C13 C4 1_555 1_555
C14 C13 1_555 1_555
H9 C14 1_555 1_555
C15 C14 1_555 1_555
C16 C15 1_555 1_555
C17 C16 1_555 1_555
H10 C17 1_555 1_555
C18 C13 1_555 1_555
H11 C18 1_555 1_555
C19 O2 1_555 1_555
H12 C19 1_555 1_555
H13 C19 1_555 1_555
H14 C19 1_555 1_555
C20 O3 1_555 1_555
H15 C20 1_555 1_555
H16 C20 1_555 1_555
H17 C20 1_555 1_555
C21 O4 1_555 1_555
H18 C21 1_555 1_555
H19 C21 1_555 1_555
H20 C21 1_555 1_555
C22 O5 1_555 1_555
H21 C22 1_555 1_555
H22 C22 1_555 1_555
C23 C22 1_555 1_555
H23 C23 1_555 1_555
H24 C23 1_555 1_555
C24 C23 1_555 1_555
H25 C24 1_555 1_555
H26 C24 1_555 1_555
C25 C24 1_555 1_555
H27 C25 1_555 1_555
H28 C25 1_555 1_555
H29 C25 1_555 1_555
C9 C10 1_555 1_555
C17 C18 1_555 1_555

#END
