
#######################################################################
#
#                 Cambridge Crystallographic Data Centre
#                                CCDC 
#
#######################################################################
#
# If this CIF has been generated from an entry in the Cambridge 
# Structural Database, then it will include bibliographic, chemical, 
# crystal, experimental, refinement or atomic coordinate data resulting 
# from the CCDC's data processing and validation procedures.
#
#######################################################################

data_CASRUK
_chemical_formula_moiety         'C39 H38 N2 O4'
_chemical_name_systematic        
2,4-bis(2-(Benzylaminocarbonyl)phenoxymethyl)-1,3,5-trimethylbenzene
_symmetry_cell_setting           monoclinic
_symmetry_space_group_name_H-M   'C 2/c'
_symmetry_Int_Tables_number      15
_space_group_name_Hall           '-C 2yn'
loop_
_symmetry_equiv_pos_site_id
_symmetry_equiv_pos_as_xyz
1 x,y,z
2 1/2+x,1/2+y,z
3 -x,y,1/2-z
4 1/2-x,1/2+y,1/2-z
5 -x,-y,-z
6 1/2-x,1/2-y,-z
7 x,-y,1/2+z
8 1/2+x,1/2-y,1/2+z
_cell_length_a                   20.5494(10)
_cell_length_b                   12.1369(10)
_cell_length_c                   16.3862(14)
_cell_angle_alpha                90
_cell_angle_beta                 126.097(10)
_cell_angle_gamma                90
_cell_volume                     3302.23
_exptl_crystal_colour            colorless
_exptl_crystal_description       block
_chemical_melting_point          457-459K
_cell_formula_units_Z            4
_exptl_crystal_recrystallization_method ethanol
loop_
_atom_site_label
_atom_site_type_symbol
_atom_site_fract_x
_atom_site_fract_y
_atom_site_fract_z
O1 O 0.24428(12) 0.9937(2) 0.75463(12)
O2 O 0.17522(9) 0.98704(16) 0.46259(10)
N1 N 0.15951(15) 0.9207(2) 0.60286(17)
C1 C 0.0675(3) 0.6983(5) 0.5300(3)
C2 C 0.0069(5) 0.6294(5) 0.4544(5)
C3 C -0.0703(4) 0.6627(6) 0.4021(4)
C4 C -0.0890(3) 0.7611(6) 0.4207(3)
C5 C -0.0303(3) 0.8265(4) 0.4942(3)
C6 C 0.0478(3) 0.7973(4) 0.5497(2)
C7 C 0.1119(2) 0.8702(4) 0.6318(2)
H1 H 0.0871 0.9273 0.6464
H2 H 0.1468 0.8271 0.6928
C8 C 0.22227(15) 0.9830(2) 0.66751(17)
C9 C 0.26741(14) 1.0357(2) 0.63300(16)
C10 C 0.33870(18) 1.0874(2) 0.7070(2)
C11 C 0.3877(2) 1.1351(3) 0.6872(3)
C12 C 0.3659(2) 1.1339(3) 0.5908(3)
C13 C 0.29611(18) 1.0845(3) 0.5147(2)
C14 C 0.24615(14) 1.0359(2) 0.53503(16)
C15 C 0.1510(2) 0.9776(4) 0.36065(19)
C16 C 0.07260(15) 0.9175(3) 0.30263(15)
C17 C 0.07246(17) 0.8034(3) 0.30329(17)
C18 C 0.0000 0.7499(5) 0.2500
C19 C 0.1494(2) 0.7363(3) 0.3608(2)
H3 H 0.1364 0.6593 0.3508
H4 H 0.1799 0.7534 0.4315
H5 H 0.1808 0.7538 0.3365
C20 C 0.0000 1.1002(3) 0.2500
C21 C 0.0000 0.9755(3) 0.2500
H9 H 0.2812(12) 1.0846(18) 0.4500(17)
H10 H 0.3513(14) 1.086(2) 0.7727(19)
H11 H 0.1431(16) 0.915(2) 0.539(2)
H12 H 0.4033(18) 1.160(3) 0.574(2)
H13 H -0.041(2) 0.901(4) 0.514(3)
H14 H 0.440(2) 1.169(3) 0.743(2)
H15 H 0.0000 0.675(4) 0.2500
H16 H 0.124(2) 0.685(3) 0.572(3)
H17 H 0.027(2) 0.566(4) 0.445(3)
H18 H -0.148(3) 0.786(4) 0.382(3)
H19 H 0.1925(18) 0.940(3) 0.364(2)
H20 H 0.1472(18) 1.054(3) 0.336(2)
H21 H -0.115(3) 0.620(4) 0.348(4)
O1B O -0.24428(12) 0.9937(2) -0.25463(12)
O2B O -0.17522(9) 0.98704(16) 0.03741(10)
N1B N -0.15951(15) 0.9207(2) -0.10286(17)
C1B C -0.0675(3) 0.6983(5) -0.0300(3)
C2B C -0.0069(5) 0.6294(5) 0.0456(5)
C3B C 0.0703(4) 0.6627(6) 0.0979(4)
C4B C 0.0890(3) 0.7611(6) 0.0793(3)
C5B C 0.0303(3) 0.8265(4) 0.0058(3)
C6B C -0.0478(3) 0.7973(4) -0.0497(2)
C7B C -0.1119(2) 0.8702(4) -0.1318(2)
H1B H -0.0871 0.9273 -0.1464
H2B H -0.1468 0.8271 -0.1928
C8B C -0.22227(15) 0.9830(2) -0.16751(17)
C9B C -0.26741(14) 1.0357(2) -0.13300(16)
C10B C -0.33870(18) 1.0874(2) -0.2070(2)
C11B C -0.3877(2) 1.1351(3) -0.1872(3)
C12B C -0.3659(2) 1.1339(3) -0.0908(3)
C13B C -0.29611(18) 1.0845(3) -0.0147(2)
C14B C -0.24615(14) 1.0359(2) -0.03503(16)
C15B C -0.1510(2) 0.9776(4) 0.13935(19)
C16B C -0.07260(15) 0.9175(3) 0.19737(15)
C17B C -0.07246(17) 0.8034(3) 0.19671(17)
C19B C -0.1494(2) 0.7363(3) 0.1392(2)
H3B H -0.1364 0.6593 0.1492
H4B H -0.1799 0.7534 0.0685
H5B H -0.1808 0.7538 0.1635
H9B H -0.2812(12) 1.0846(18) 0.0500(17)
H10B H -0.3513(14) 1.086(2) -0.2727(19)
H11B H -0.1431(16) 0.915(2) -0.039(2)
H12B H -0.4033(18) 1.160(3) -0.074(2)
H13B H 0.041(2) 0.901(4) -0.014(3)
H14B H -0.440(2) 1.169(3) -0.243(2)
H16B H -0.124(2) 0.685(3) -0.072(3)
H17B H -0.027(2) 0.566(4) 0.055(3)
H18B H 0.148(3) 0.786(4) 0.118(3)
H19B H -0.1925(18) 0.940(3) 0.136(2)
H20B H -0.1472(18) 1.054(3) 0.164(2)
H21B H 0.115(3) 0.620(4) 0.152(4)
H6? H -0.0545 1.1266 0.2105
H7? H 0.0266 1.1266 0.2215
H8? H 0.0279 1.1266 0.3181
loop_
_geom_bond_atom_site_label_1
_geom_bond_atom_site_label_2
_geom_bond_site_symmetry_1
_geom_bond_site_symmetry_2
O1 C8 1_555 1_555
O2 C14 1_555 1_555
N1 C7 1_555 1_555
C1 C2 1_555 1_555
C2 C3 1_555 1_555
C3 C4 1_555 1_555
C4 C5 1_555 1_555
C5 C6 1_555 1_555
C6 C1 1_555 1_555
C7 C6 1_555 1_555
H1 C7 1_555 1_555
H2 C7 1_555 1_555
C8 N1 1_555 1_555
C9 C8 1_555 1_555
C10 C9 1_555 1_555
C11 C10 1_555 1_555
C12 C11 1_555 1_555
C13 C12 1_555 1_555
C14 C9 1_555 1_555
C15 O2 1_555 1_555
C16 C15 1_555 1_555
C17 C16 1_555 1_555
C18 C17 1_555 1_555
C19 C17 1_555 1_555
H3 C19 1_555 1_555
H4 C19 1_555 1_555
H5 C19 1_555 1_555
C20 C21 1_555 1_555
C21 C16 1_555 1_555
H9 C13 1_555 1_555
H10 C10 1_555 1_555
H11 N1 1_555 1_555
H12 C12 1_555 1_555
H13 C5 1_555 1_555
H14 C11 1_555 1_555
H15 C18 1_555 1_555
H16 C1 1_555 1_555
H17 C2 1_555 1_555
H18 C4 1_555 1_555
H19 C15 1_555 1_555
H20 C15 1_555 1_555
H21 C3 1_555 1_555
O1B C8B 1_555 1_555
O2B C14B 1_555 1_555
N1B C7B 1_555 1_555
C1B C2B 1_555 1_555
C2B C3B 1_555 1_555
C3B C4B 1_555 1_555
C4B C5B 1_555 1_555
C5B C6B 1_555 1_555
C6B C1B 1_555 1_555
C7B C6B 1_555 1_555
H1B C7B 1_555 1_555
H2B C7B 1_555 1_555
C8B N1B 1_555 1_555
C9B C8B 1_555 1_555
C10B C9B 1_555 1_555
C11B C10B 1_555 1_555
C12B C11B 1_555 1_555
C13B C12B 1_555 1_555
C14B C9B 1_555 1_555
C15B O2B 1_555 1_555
C16B C21 1_555 1_555
C17B C18 1_555 1_555
C19B C17B 1_555 1_555
H3B C19B 1_555 1_555
H4B C19B 1_555 1_555
H5B C19B 1_555 1_555
H9B C13B 1_555 1_555
H10B C10B 1_555 1_555
H11B N1B 1_555 1_555
H12B C12B 1_555 1_555
H13B C5B 1_555 1_555
H14B C11B 1_555 1_555
H16B C1B 1_555 1_555
H17B C2B 1_555 1_555
H18B C4B 1_555 1_555
H19B C15B 1_555 1_555
H20B C15B 1_555 1_555
H21B C3B 1_555 1_555
C13 C14 1_555 1_555
C13B C14B 1_555 1_555
C15B C16B 1_555 1_555
C16B C17B 1_555 1_555

#END
