
#######################################################################
#
#                 Cambridge Crystallographic Data Centre
#                                CCDC 
#
#######################################################################
#
# If this CIF has been generated from an entry in the Cambridge 
# Structural Database, then it will include bibliographic, chemical, 
# crystal, experimental, refinement or atomic coordinate data resulting 
# from the CCDC's data processing and validation procedures.
#
#######################################################################

data_CASSUL
_chemical_formula_moiety         'C22 H17 N3'
_chemical_name_systematic        
(S,S)-2,3-Dihydro-2,3-bis(4-pyridyl)benzo(e)indole
_symmetry_cell_setting           orthorhombic
_symmetry_space_group_name_H-M   'P 21 21 21'
_symmetry_Int_Tables_number      19
_space_group_name_Hall           'P 2ac 2ab'
loop_
_symmetry_equiv_pos_site_id
_symmetry_equiv_pos_as_xyz
1 x,y,z
2 1/2-x,-y,1/2+z
3 -x,1/2+y,1/2-z
4 1/2+x,1/2-y,-z
_cell_length_a                   9.2598(7)
_cell_length_b                   9.4617(8)
_cell_length_c                   19.1452(16)
_cell_angle_alpha                90
_cell_angle_beta                 90
_cell_angle_gamma                90
_cell_volume                     1677.38
_cell_formula_units_Z            4
_exptl_crystal_recrystallization_method ethanol
loop_
_atom_site_label
_atom_site_type_symbol
_atom_site_fract_x
_atom_site_fract_y
_atom_site_fract_z
C1 C 0.0423(2) 0.4969(2) 0.15826(13)
H1 H 0.0142 0.3979 0.1520
C2 C 0.1409(2) 0.5111(3) 0.26880(13)
C3 C -0.2199(2) 0.5112(2) 0.19916(11)
C4 C 0.0012(2) 0.5537(2) 0.27795(12)
C5 C -0.0699(2) 0.5710(2) 0.20751(12)
H2 H -0.0727 0.6719 0.1960
N1 N 0.17638(19) 0.5024(2) 0.19874(11)
H3 H 0.2624 0.5007 0.1819
C6 C -0.0516(2) 0.5904(2) 0.34474(12)
C7 C 0.0429(3) 0.5701(3) 0.40303(13)
C8 C -0.3263(2) 0.5839(3) 0.16355(12)
H4 H -0.3065 0.6721 0.1443
C9 C 0.0503(2) 0.5666(2) 0.08808(12)
C10 C 0.1828(3) 0.5170(3) 0.39109(15)
H5 H 0.2426 0.5003 0.4292
N2 N -0.4996(2) 0.4007(3) 0.18189(12)
C11 C -0.0289(3) 0.5143(3) 0.03289(14)
H6 H -0.0817 0.4313 0.0381
N3 N 0.0422(3) 0.7015(3) -0.04246(13)
C12 C -0.4612(3) 0.5257(3) 0.15664(14)
H7 H -0.5305 0.5775 0.1326
C13 C -0.1894(3) 0.6481(2) 0.35733(14)
H8 H -0.2532 0.6602 0.3203
C14 C 0.2336(3) 0.4894(3) 0.32580(16)
H9 H 0.3274 0.4569 0.3191
C15 C -0.0300(3) 0.5849(3) -0.02983(15)
H10 H -0.0856 0.5474 -0.0658
C16 C -0.1390(4) 0.6657(3) 0.48010(16)
H11 H -0.1683 0.6919 0.5247
C17 C -0.2581(3) 0.3804(3) 0.22491(15)
H12 H -0.1904 0.3256 0.2485
C18 C -0.0066(4) 0.6066(3) 0.46998(15)
H13 H 0.0526 0.5901 0.5084
C19 C -0.3965(3) 0.3312(3) 0.21561(17)
H14 H -0.4194 0.2433 0.2342
C20 C -0.2305(3) 0.6866(3) 0.42310(17)
H15 H -0.3208 0.7272 0.4300
C21 C 0.1279(3) 0.6879(3) 0.07518(16)
H16 H 0.1855 0.7272 0.1099
C22 C 0.1194(4) 0.7506(3) 0.01048(17)
H17 H 0.1715 0.8334 0.0034
loop_
_geom_bond_atom_site_label_1
_geom_bond_atom_site_label_2
_geom_bond_site_symmetry_1
_geom_bond_site_symmetry_2
C1 H1 1_555 1_555
C2 C4 1_555 1_555
C3 C5 1_555 1_555
C4 C5 1_555 1_555
C5 C1 1_555 1_555
H2 C5 1_555 1_555
N1 C1 1_555 1_555
H3 N1 1_555 1_555
C6 C4 1_555 1_555
C7 C6 1_555 1_555
C8 C3 1_555 1_555
H4 C8 1_555 1_555
C9 C1 1_555 1_555
C10 C7 1_555 1_555
H5 C10 1_555 1_555
N2 C12 1_555 1_555
C11 C9 1_555 1_555
H6 C11 1_555 1_555
N3 C15 1_555 1_555
C12 C8 1_555 1_555
H7 C12 1_555 1_555
C13 C6 1_555 1_555
H8 C13 1_555 1_555
C14 C2 1_555 1_555
H9 C14 1_555 1_555
C15 C11 1_555 1_555
H10 C15 1_555 1_555
C16 H11 1_555 1_555
C17 C3 1_555 1_555
H12 C17 1_555 1_555
C18 C7 1_555 1_555
H13 C18 1_555 1_555
C19 N2 1_555 1_555
H14 C19 1_555 1_555
C20 C13 1_555 1_555
H15 C20 1_555 1_555
C21 C9 1_555 1_555
H16 C21 1_555 1_555
C22 N3 1_555 1_555
H17 C22 1_555 1_555
C2 N1 1_555 1_555
C10 C14 1_555 1_555
C16 C18 1_555 1_555
C16 C20 1_555 1_555
C17 C19 1_555 1_555
C21 C22 1_555 1_555

#END
