
#######################################################################
#
#                 Cambridge Crystallographic Data Centre
#                                CCDC 
#
#######################################################################
#
# If this CIF has been generated from an entry in the Cambridge 
# Structural Database, then it will include bibliographic, chemical, 
# crystal, experimental, refinement or atomic coordinate data resulting 
# from the CCDC's data processing and validation procedures.
#
#######################################################################

data_CASSAR
_chemical_formula_moiety         'C22 H23 N3 O2'
_chemical_name_systematic        
2-(Di-isopropylamino)-3-phenylbenzo(4,5)furo(3,2-d)pyrimidin-4(3H)-one
_symmetry_cell_setting           monoclinic
_symmetry_space_group_name_H-M   'P 21/c'
_symmetry_Int_Tables_number      14
_space_group_name_Hall           '-P 2ybc'
loop_
_symmetry_equiv_pos_site_id
_symmetry_equiv_pos_as_xyz
1 x,y,z
2 -x,1/2+y,1/2-z
3 -x,-y,-z
4 x,1/2-y,1/2+z
_cell_length_a                   9.5089(10)
_cell_length_b                   7.7663(8)
_cell_length_c                   26.204(3)
_cell_angle_alpha                90
_cell_angle_beta                 91.825(2)
_cell_angle_gamma                90
_cell_volume                     1934.16
_exptl_crystal_colour            colorless
_exptl_crystal_description       block
_chemical_melting_point          '414 K'
_cell_formula_units_Z            4
_exptl_crystal_recrystallization_method ethanol/dichloromethane
loop_
_atom_site_label
_atom_site_type_symbol
_atom_site_fract_x
_atom_site_fract_y
_atom_site_fract_z
C1 C 0.3983(2) 0.2035(3) 0.48642(8)
C2 C 0.3058(3) 0.2502(3) 0.52366(9)
H1 H 0.2103 0.2245 0.5209
C3 C 0.3634(3) 0.3366(3) 0.56491(10)
H2 H 0.3047 0.3716 0.5907
C4 C 0.5058(3) 0.3735(3) 0.56963(9)
H3 H 0.5404 0.4310 0.5985
C5 C 0.5972(3) 0.3263(3) 0.53208(9)
H4 H 0.6928 0.3511 0.5352
C6 C 0.5410(2) 0.2405(3) 0.48961(8)
C7 C 0.5959(2) 0.1720(3) 0.44278(8)
C8 C 0.4856(2) 0.0992(3) 0.41693(8)
C9 C 0.4970(2) 0.0165(3) 0.36930(8)
C10 C 0.7491(2) 0.0983(3) 0.38268(8)
C11 C 0.65685(19) -0.0235(3) 0.30019(8)
C12 C 0.6664(2) 0.1018(3) 0.26320(9)
H5 H 0.6637 0.2177 0.2721
C13 C 0.6801(2) 0.0535(4) 0.21267(9)
H6 H 0.6873 0.1370 0.1875
C14 C 0.6829(2) -0.1183(4) 0.19993(10)
H7 H 0.6929 -0.1507 0.1661
C15 C 0.6710(2) -0.2422(4) 0.23692(10)
H8 H 0.6723 -0.3581 0.2280
C16 C 0.6571(2) -0.1952(3) 0.28707(9)
H9 H 0.6479 -0.2791 0.3121
C17 C 0.9733(2) 0.2457(3) 0.36699(11)
H10 H 1.0583 0.2182 0.3484
C18 C 0.9467(2) -0.0757(3) 0.35365(9)
H11 H 0.8703 -0.1605 0.3525
C19 C 1.0173(3) -0.0861(3) 0.30263(11)
H12 H 0.9526 -0.0486 0.2760
H13 H 1.0449 -0.2028 0.2963
H14 H 1.0989 -0.0133 0.3033
C20 C 1.0463(3) -0.1286(3) 0.39779(12)
H15 H 1.1292 -0.0582 0.3976
H16 H 1.0721 -0.2473 0.3939
H17 H 1.0001 -0.1136 0.4295
C21 C 1.0234(3) 0.2959(4) 0.42076(13)
H18 H 0.9481 0.3511 0.4380
H19 H 1.1015 0.3738 0.4189
H20 H 1.0522 0.1946 0.4393
C22 C 0.9055(3) 0.3971(4) 0.33945(13)
H21 H 0.8873 0.3676 0.3043
H22 H 0.9676 0.4944 0.3415
H23 H 0.8185 0.4253 0.3551
N1 N 0.73136(17) 0.1708(2) 0.42658(7)
N2 N 0.63829(16) 0.0274(2) 0.35292(6)
N3 N 0.88038(17) 0.0938(2) 0.36147(7)
O1 O 0.36091(14) 0.11592(19) 0.44219(6)
O2 O 0.40413(14) -0.0512(2) 0.34319(5)
loop_
_geom_bond_atom_site_label_1
_geom_bond_atom_site_label_2
_geom_bond_site_symmetry_1
_geom_bond_site_symmetry_2
C1 C2 1_555 1_555
C2 H1 1_555 1_555
C3 C2 1_555 1_555
H2 C3 1_555 1_555
C4 C3 1_555 1_555
H3 C4 1_555 1_555
C5 C4 1_555 1_555
H4 C5 1_555 1_555
C6 C1 1_555 1_555
C7 C6 1_555 1_555
C8 C7 1_555 1_555
C9 C8 1_555 1_555
C10 N1 1_555 1_555
C11 C12 1_555 1_555
C12 H5 1_555 1_555
C13 C12 1_555 1_555
H6 C13 1_555 1_555
C14 C13 1_555 1_555
H7 C14 1_555 1_555
C15 C14 1_555 1_555
H8 C15 1_555 1_555
C16 C11 1_555 1_555
H9 C16 1_555 1_555
C17 H10 1_555 1_555
C18 H11 1_555 1_555
C19 C18 1_555 1_555
H12 C19 1_555 1_555
H13 C19 1_555 1_555
H14 C19 1_555 1_555
C20 C18 1_555 1_555
H15 C20 1_555 1_555
H16 C20 1_555 1_555
H17 C20 1_555 1_555
C21 C17 1_555 1_555
H18 C21 1_555 1_555
H19 C21 1_555 1_555
H20 C21 1_555 1_555
C22 C17 1_555 1_555
H21 C22 1_555 1_555
H22 C22 1_555 1_555
H23 C22 1_555 1_555
N1 C7 1_555 1_555
N2 C9 1_555 1_555
N3 C10 1_555 1_555
O1 C1 1_555 1_555
O2 C9 1_555 1_555
C5 C6 1_555 1_555
C8 O1 1_555 1_555
C10 N2 1_555 1_555
C11 N2 1_555 1_555
C15 C16 1_555 1_555
C17 N3 1_555 1_555
C18 N3 1_555 1_555

#END
