
#######################################################################
#
#                 Cambridge Crystallographic Data Centre
#                                CCDC 
#
#######################################################################
#
# If this CIF has been generated from an entry in the Cambridge 
# Structural Database, then it will include bibliographic, chemical, 
# crystal, experimental, refinement or atomic coordinate data resulting 
# from the CCDC's data processing and validation procedures.
#
#######################################################################

data_CASXOL
_chemical_formula_moiety         'C38 H30 O2 Si1'
_chemical_name_systematic        
'4-(2-(1-Methyl-2,3,4,5-tetraphenyl-1H-silol-1-yl)vinyl)benzoic acid unknown solvate'
_symmetry_cell_setting           triclinic
_symmetry_space_group_name_H-M   'P -1'
_symmetry_Int_Tables_number      2
_space_group_name_Hall           '-P 1'
loop_
_symmetry_equiv_pos_site_id
_symmetry_equiv_pos_as_xyz
1 x,y,z
2 -x,-y,-z
_cell_length_a                   6.463(3)
_cell_length_b                   10.547(5)
_cell_length_c                   26.024(12)
_cell_angle_alpha                96.082(7)
_cell_angle_beta                 95.058(6)
_cell_angle_gamma                99.256(4)
_cell_volume                     1730.95
_exptl_crystal_colour            yellow
_exptl_crystal_description       platelet
_cell_formula_units_Z            2
loop_
_atom_site_label
_atom_site_type_symbol
_atom_site_fract_x
_atom_site_fract_y
_atom_site_fract_z
Si1 Si 0.8809(2) 0.35457(11) 0.24763(5)
O1 O 1.9604(5) 0.9116(4) 0.44089(13)
O2 O 1.7352(6) 0.9313(3) 0.50072(13)
H1 H 1.8168 1.0021 0.5099
C1 C 0.7716(7) 0.3947(4) 0.18336(18)
C2 C 0.7970(7) 0.2996(4) 0.14567(17)
C3 C 0.8990(7) 0.1926(4) 0.16520(17)
C4 C 0.9542(7) 0.2021(4) 0.21681(17)
C5 C 0.6492(7) 0.5000(4) 0.17920(17)
C6 C 0.7192(8) 0.6190(5) 0.20912(18)
H2 H 0.8531 0.6338 0.2290
C7 C 0.5990(9) 0.7163(5) 0.2106(2)
H3 H 0.6494 0.7958 0.2321
C8 C 0.4082(9) 0.6987(5) 0.1814(2)
H4 H 0.3265 0.7661 0.1822
C9 C 0.3346(8) 0.5819(5) 0.1506(2)
H5 H 0.2021 0.5691 0.1302
C10 C 0.4536(8) 0.4838(5) 0.1496(2)
H6 H 0.4015 0.4042 0.1283
C11 C 0.7294(7) 0.3002(4) 0.08985(17)
C12 C 0.5987(7) 0.1926(4) 0.05974(17)
H7 H 0.5575 0.1158 0.0750
C13 C 0.5305(8) 0.1982(5) 0.00821(19)
H8 H 0.4418 0.1255 -0.0115
C14 C 0.5904(8) 0.3089(5) -0.0149(2)
H9 H 0.5421 0.3120 -0.0502
C15 C 0.7204(8) 0.4147(6) 0.0134(2)
H10 H 0.7624 0.4905 -0.0025
C16 C 0.7898(8) 0.4100(5) 0.06545(19)
H11 H 0.8799 0.4829 0.0846
C17 C 0.9315(7) 0.0782(4) 0.12876(17)
C18 C 0.8376(8) -0.0455(5) 0.13780(19)
H12 H 0.7480 -0.0543 0.1647
C19 C 0.8734(9) -0.1555(5) 0.1080(2)
H13 H 0.8080 -0.2388 0.1143
C20 C 1.0039(8) -0.1430(5) 0.0693(2)
H14 H 1.0309 -0.2178 0.0490
C21 C 1.0958(8) -0.0212(6) 0.0599(2)
H15 H 1.1868 -0.0131 0.0332
C22 C 1.0575(8) 0.0889(5) 0.08856(19)
H16 H 1.1177 0.1720 0.0807
C23 C 1.0692(8) 0.1139(4) 0.24441(19)
C24 C 1.2540(9) 0.0783(5) 0.2271(2)
H17 H 1.3015 0.1071 0.1961
C25 C 1.3674(11) 0.0024(5) 0.2542(3)
H18 H 1.4938 -0.0187 0.2422
C26 C 1.2995(12) -0.0431(6) 0.2983(3)
H19 H 1.3769 -0.0971 0.3164
C27 C 1.1187(12) -0.0102(6) 0.3164(3)
H20 H 1.0708 -0.0418 0.3469
C28 C 1.0057(10) 0.0699(6) 0.2897(2)
H21 H 0.8836 0.0944 0.3029
C29 C 1.1148(7) 0.4715(4) 0.28055(17)
H22 H 1.2368 0.4880 0.2628
C30 C 1.1160(8) 0.5318(5) 0.32753(18)
H23 H 0.9903 0.5123 0.3436
C31 C 1.2883(7) 0.6262(5) 0.35858(17)
C32 C 1.4886(7) 0.6576(4) 0.34256(17)
H24 H 1.5159 0.6207 0.3095
C33 C 1.6471(8) 0.7407(5) 0.37360(18)
H25 H 1.7827 0.7599 0.3620
C34 C 1.6097(7) 0.7972(4) 0.42221(17)
C35 C 1.4100(8) 0.7687(5) 0.43833(19)
H26 H 1.3815 0.8079 0.4709
C36 C 1.2528(8) 0.6836(5) 0.40709(18)
H27 H 1.1177 0.6636 0.4189
C37 C 1.7805(8) 0.8857(4) 0.45567(18)
C38 C 0.6749(8) 0.3343(5) 0.2931(2)
H28 H 0.6348 0.4183 0.3035
H29 H 0.7304 0.2999 0.3240
H30 H 0.5509 0.2740 0.2759
loop_
_geom_bond_atom_site_label_1
_geom_bond_atom_site_label_2
_geom_bond_site_symmetry_1
_geom_bond_site_symmetry_2
Si1 C1 1_555 1_555
O1 C37 1_555 1_555
O2 H1 1_555 1_555
C1 C2 1_555 1_555
C2 C3 1_555 1_555
C3 C4 1_555 1_555
C4 Si1 1_555 1_555
C5 C1 1_555 1_555
C6 C5 1_555 1_555
H2 C6 1_555 1_555
C7 C6 1_555 1_555
H3 C7 1_555 1_555
C8 C7 1_555 1_555
H4 C8 1_555 1_555
C9 C8 1_555 1_555
H5 C9 1_555 1_555
C10 C5 1_555 1_555
H6 C10 1_555 1_555
C11 C2 1_555 1_555
C12 C11 1_555 1_555
H7 C12 1_555 1_555
C13 C12 1_555 1_555
H8 C13 1_555 1_555
C14 C13 1_555 1_555
H9 C14 1_555 1_555
C15 C14 1_555 1_555
H10 C15 1_555 1_555
C16 C11 1_555 1_555
H11 C16 1_555 1_555
C17 C3 1_555 1_555
C18 C17 1_555 1_555
H12 C18 1_555 1_555
C19 C18 1_555 1_555
H13 C19 1_555 1_555
C20 C19 1_555 1_555
H14 C20 1_555 1_555
C21 C20 1_555 1_555
H15 C21 1_555 1_555
C22 C17 1_555 1_555
H16 C22 1_555 1_555
C23 C4 1_555 1_555
C24 C23 1_555 1_555
H17 C24 1_555 1_555
C25 C24 1_555 1_555
H18 C25 1_555 1_555
C26 C25 1_555 1_555
H19 C26 1_555 1_555
C27 C26 1_555 1_555
H20 C27 1_555 1_555
C28 C23 1_555 1_555
H21 C28 1_555 1_555
C29 Si1 1_555 1_555
H22 C29 1_555 1_555
C30 C29 1_555 1_555
H23 C30 1_555 1_555
C31 C30 1_555 1_555
C32 C31 1_555 1_555
H24 C32 1_555 1_555
C33 C32 1_555 1_555
H25 C33 1_555 1_555
C34 C33 1_555 1_555
C35 C34 1_555 1_555
H26 C35 1_555 1_555
C36 C31 1_555 1_555
H27 C36 1_555 1_555
C37 O2 1_555 1_555
C38 Si1 1_555 1_555
H28 C38 1_555 1_555
H29 C38 1_555 1_555
H30 C38 1_555 1_555
C9 C10 1_555 1_555
C15 C16 1_555 1_555
C21 C22 1_555 1_555
C27 C28 1_555 1_555
C34 C37 1_555 1_555
C35 C36 1_555 1_555

#END
