
#######################################################################
#
#                 Cambridge Crystallographic Data Centre
#                                CCDC 
#
#######################################################################
#
# If this CIF has been generated from an entry in the Cambridge 
# Structural Database, then it will include bibliographic, chemical, 
# crystal, experimental, refinement or atomic coordinate data resulting 
# from the CCDC's data processing and validation procedures.
#
#######################################################################

data_CASYIG01
_chemical_formula_moiety         'C4 H6 N4 O6'
_chemical_name_systematic        2-(dinitromethylene)imidazolidine-4,5-diol
_symmetry_cell_setting           monoclinic
_symmetry_space_group_name_H-M   'P 21/c'
_symmetry_Int_Tables_number      14
_space_group_name_Hall           '-P 2ybc'
loop_
_symmetry_equiv_pos_site_id
_symmetry_equiv_pos_as_xyz
1 x,y,z
2 -x,1/2+y,1/2-z
3 -x,-y,-z
4 x,1/2-y,1/2+z
_cell_length_a                   11.531(2)
_cell_length_b                   7.5300(15)
_cell_length_c                   17.166(3)
_cell_angle_alpha                90
_cell_angle_beta                 98.46(3)
_cell_angle_gamma                90
_cell_volume                     1474.28
_exptl_crystal_colour            colorless
_exptl_crystal_description       block
_cell_formula_units_Z            8
loop_
_atom_site_label
_atom_site_type_symbol
_atom_site_fract_x
_atom_site_fract_y
_atom_site_fract_z
O1 O 0.1190(2) 0.1456(3) 0.68872(13)
H1 H 0.0504 0.1618 0.6695
N1 N 0.1112(2) 0.3085(4) 0.80464(14)
H2 H 0.0435 0.3532 0.8082
C1 C 0.1616(3) 0.2961(4) 0.73186(16)
H3 H 0.1489 0.4049 0.7004
N2 N 0.2859(2) 0.2047(4) 0.84262(14)
O2 O 0.35508(19) 0.4243(3) 0.76455(14)
H4 H 0.4059 0.4143 0.7361
C2 C 0.2904(2) 0.2665(4) 0.76269(17)
H5 H 0.3238 0.1754 0.7318
N3 N 0.0422(2) 0.2540(4) 0.95948(14)
C3 C 0.1841(2) 0.2410(4) 0.86527(16)
O3 O 0.0198(2) 0.2423(6) 1.02242(16)
N4 N 0.2351(2) 0.1363(3) 1.00247(14)
C4 C 0.1546(2) 0.2109(4) 0.94210(16)
O4 O -0.0305(2) 0.3138(5) 0.90732(15)
O5 O 0.33829(17) 0.1184(3) 0.98993(12)
O6 O 0.2068(2) 0.0856(4) 1.06446(12)
H6 H 0.343(4) 0.176(9) 0.876(3)
N5 N 0.4293(2) 0.6975(3) 0.98644(14)
H7 H 0.4935 0.6816 0.9673
C5 C 0.4215(2) 0.6999(4) 1.06974(16)
H8 H 0.4672 0.6009 1.0955
N6 N 0.24187(19) 0.7108(3) 0.98897(13)
H9 H 0.1685 0.7290 0.9733
C6 C 0.2904(2) 0.6631(4) 1.06929(16)
H10 H 0.2580 0.7373 1.1077
O7 O 0.46150(17) 0.8590(3) 1.10622(12)
H11 H 0.4876 0.9230 1.0743
N7 N 0.1920(2) 0.7705(4) 0.81785(14)
C7 C 0.3246(2) 0.7229(4) 0.94270(16)
N8 N 0.4003(2) 0.7868(3) 0.81838(14)
O8 O 0.27278(19) 0.4828(3) 1.08258(13)
H12 H 0.2265 0.4715 1.1142
C8 C 0.3062(2) 0.7581(4) 0.86000(15)
O9 O 0.1132(2) 0.7996(5) 0.85575(14)
O10 O 0.1724(2) 0.7548(4) 0.74668(12)
O11 O 0.50033(18) 0.7425(3) 0.85091(13)
O12 O 0.3855(2) 0.8577(3) 0.75359(13)
loop_
_geom_bond_atom_site_label_1
_geom_bond_atom_site_label_2
_geom_bond_site_symmetry_1
_geom_bond_site_symmetry_2
O1 H1 1_555 1_555
N1 H2 1_555 1_555
C1 O1 1_555 1_555
H3 C1 1_555 1_555
N2 C2 1_555 1_555
O2 H4 1_555 1_555
C2 C1 1_555 1_555
H5 C2 1_555 1_555
N3 O3 1_555 1_555
C3 N1 1_555 1_555
N4 C4 1_555 1_555
C4 N3 1_555 1_555
O4 N3 1_555 1_555
O5 N4 1_555 1_555
O6 N4 1_555 1_555
H6 N2 1_555 1_555
N5 H7 1_555 1_555
C5 N5 1_555 1_555
H8 C5 1_555 1_555
N6 H9 1_555 1_555
C6 C5 1_555 1_555
H10 C6 1_555 1_555
O7 C5 1_555 1_555
H11 O7 1_555 1_555
N7 C8 1_555 1_555
C7 N5 1_555 1_555
N8 C8 1_555 1_555
O8 C6 1_555 1_555
H12 O8 1_555 1_555
C8 C7 1_555 1_555
O9 N7 1_555 1_555
O10 N7 1_555 1_555
O11 N8 1_555 1_555
O12 N8 1_555 1_555
N1 C1 1_555 1_555
N2 C3 1_555 1_555
O2 C2 1_555 1_555
C3 C4 1_555 1_555
N6 C6 1_555 1_555
N6 C7 1_555 1_555

#END
