
#######################################################################
#
#                 Cambridge Crystallographic Data Centre
#                                CCDC 
#
#######################################################################
#
# If this CIF has been generated from an entry in the Cambridge 
# Structural Database, then it will include bibliographic, chemical, 
# crystal, experimental, refinement or atomic coordinate data resulting 
# from the CCDC's data processing and validation procedures.
#
#######################################################################

data_CATBAB
_chemical_formula_moiety         'C24 H29 N1 O2'
_chemical_name_systematic        
1-Benzyl-4-(5,6-dimethoxy-1H-2-indenylmethyl)piperidine
_symmetry_cell_setting           monoclinic
_symmetry_space_group_name_H-M   'P 21'
_symmetry_Int_Tables_number      4
_space_group_name_Hall           'P 2yb'
loop_
_symmetry_equiv_pos_site_id
_symmetry_equiv_pos_as_xyz
1 x,y,z
2 -x,1/2+y,-z
_cell_length_a                   10.245(8)
_cell_length_b                   5.523(4)
_cell_length_c                   18.67(2)
_cell_angle_alpha                90
_cell_angle_beta                 102.472(7)
_cell_angle_gamma                90
_cell_volume                     1031.48
_exptl_crystal_colour            colorless
_exptl_crystal_description       prism
_cell_formula_units_Z            2
loop_
_atom_site_label
_atom_site_type_symbol
_atom_site_fract_x
_atom_site_fract_y
_atom_site_fract_z
O1 O 0.8854(2) 0.2655(4) 0.55667(10)
O2 O 0.7181(2) -0.0834(4) 0.53528(11)
N1 N 0.8087(2) 0.2056(5) 1.10919(11)
C1 C 0.8646(3) 0.3903(6) 1.2959(2)
C2 C 0.8041(3) 0.4075(6) 1.3554(2)
C3 C 0.7077(3) 0.2425(7) 1.3633(2)
C4 C 0.6693(3) 0.0683(7) 1.3111(2)
C5 C 0.7300(3) 0.0512(6) 1.2519(2)
C6 C 0.8298(3) 0.2103(6) 1.24404(13)
C7 C 0.8990(3) 0.1797(7) 1.1810(1)
C8 C 0.8736(3) 0.1379(6) 1.0498(2)
C9 C 0.7762(3) 0.1435(6) 0.9765(2)
C10 C 0.7080(2) 0.3875(5) 0.95994(12)
C11 C 0.6550(3) 0.4685(6) 1.02624(13)
C12 C 0.7568(3) 0.4504(5) 1.0976(1)
C13 C 0.5976(3) 0.3868(7) 0.89053(13)
C14 C 0.6420(2) 0.3161(6) 0.82156(13)
C15 C 0.5953(3) 0.1294(6) 0.7757(1)
C16 C 0.6632(2) 0.1351(5) 0.71336(13)
C17 C 0.7524(2) 0.3282(5) 0.72396(12)
C18 C 0.7440(3) 0.4555(6) 0.79385(13)
C19 C 0.6490(3) -0.0106(5) 0.6517(1)
C20 C 0.7249(2) 0.0401(5) 0.60003(13)
C21 C 0.8169(2) 0.2334(5) 0.61098(12)
C22 C 0.8304(2) 0.3775(5) 0.67310(12)
C23 C 0.9799(3) 0.4571(6) 0.5660(1)
C24 C 0.6212(3) -0.2689(6) 0.5175(2)
H1 H 0.8921 0.5081 0.6808
H2 H 0.5901 -0.1454 0.6455
H3 H 0.9331 0.5015 1.2914
H4 H 0.8278 0.5336 1.3904
H5 H 0.6680 0.2516 1.4047
H6 H 0.6002 -0.0417 1.3155
H7 H 0.7046 -0.0730 1.2165
H8 H 0.9380 0.0230 1.1839
H9 H 0.9673 0.2988 1.1858
H10 H 0.5312 0.2751 0.8978
H11 H 0.5601 0.5446 0.8838
H12 H 0.9441 0.2486 1.0487
H13 H 0.9092 -0.0206 1.0591
H14 H 0.7096 0.0234 0.9761
H15 H 0.8237 0.1086 0.9393
H16 H 0.6248 0.6311 1.0193
H17 H 0.5820 0.3662 1.0295
H18 H 0.7164 0.4925 1.1371
H19 H 0.8277 0.5598 1.0959
H20 H 1.0457 0.4307 0.6097
H21 H 1.0216 0.4624 0.5253
H22 H 0.9357 0.6064 0.5696
H23 H 0.5343 -0.2034 0.5141
H24 H 0.6267 -0.3393 0.4718
H25 H 0.6379 -0.3892 0.5547
H26 H 0.5306 0.0133 0.7824
H27 H 0.8276 0.4507 0.8279
H28 H 0.7171 0.6191 0.7845
H29 H 0.7736 0.5014 0.9530
loop_
_geom_bond_atom_site_label_1
_geom_bond_atom_site_label_2
_geom_bond_site_symmetry_1
_geom_bond_site_symmetry_2
O1 C21 1_555 1_555
O2 C20 1_555 1_555
N1 C7 1_555 1_555
C1 C2 1_555 1_555
C2 C3 1_555 1_555
C3 C4 1_555 1_555
C4 C5 1_555 1_555
C5 C6 1_555 1_555
C6 C1 1_555 1_555
C7 C6 1_555 1_555
C8 N1 1_555 1_555
C9 C8 1_555 1_555
C10 C9 1_555 1_555
C11 C10 1_555 1_555
C12 N1 1_555 1_555
C13 C10 1_555 1_555
C14 C13 1_555 1_555
C15 C14 1_555 1_555
C16 C15 1_555 1_555
C17 C16 1_555 1_555
C18 C14 1_555 1_555
C19 C16 1_555 1_555
C20 C19 1_555 1_555
C21 C20 1_555 1_555
C22 C17 1_555 1_555
C23 O1 1_555 1_555
C24 O2 1_555 1_555
H1 C22 1_555 1_555
H2 C19 1_555 1_555
H3 C1 1_555 1_555
H4 C2 1_555 1_555
H5 C3 1_555 1_555
H6 C4 1_555 1_555
H7 C5 1_555 1_555
H8 C7 1_555 1_555
H9 C7 1_555 1_555
H10 C13 1_555 1_555
H11 C13 1_555 1_555
H12 C8 1_555 1_555
H13 C8 1_555 1_555
H14 C9 1_555 1_555
H15 C9 1_555 1_555
H16 C11 1_555 1_555
H17 C11 1_555 1_555
H18 C12 1_555 1_555
H19 C12 1_555 1_555
H20 C23 1_555 1_555
H21 C23 1_555 1_555
H22 C23 1_555 1_555
H23 C24 1_555 1_555
H24 C24 1_555 1_555
H25 C24 1_555 1_555
H26 C15 1_555 1_555
H27 C18 1_555 1_555
H28 C18 1_555 1_555
H29 C10 1_555 1_555
C11 C12 1_555 1_555
C17 C18 1_555 1_555
C21 C22 1_555 1_555

#END
