
#######################################################################
#
#                 Cambridge Crystallographic Data Centre
#                                CCDC 
#
#######################################################################
#
# If this CIF has been generated from an entry in the Cambridge 
# Structural Database, then it will include bibliographic, chemical, 
# crystal, experimental, refinement or atomic coordinate data resulting 
# from the CCDC's data processing and validation procedures.
#
#######################################################################

data_CATGOU
_chemical_formula_moiety         'C24 H21 N3 O1'
_chemical_name_systematic        
5-methyl-2-phenyl-4-[(Z)-3-tolylaminophenylmethylene]pyrazol-3(2H)-one
_symmetry_cell_setting           triclinic
_symmetry_space_group_name_H-M   'P -1'
_symmetry_Int_Tables_number      2
_space_group_name_Hall           '-P 1'
loop_
_symmetry_equiv_pos_site_id
_symmetry_equiv_pos_as_xyz
1 x,y,z
2 -x,-y,-z
_cell_length_a                   9.267(3)
_cell_length_b                   9.904(4)
_cell_length_c                   12.035(4)
_cell_angle_alpha                97.896(6)
_cell_angle_beta                 103.865(6)
_cell_angle_gamma                107.950(6)
_cell_volume                     993.157
_exptl_crystal_colour            yellow
_exptl_crystal_description       block
_cell_formula_units_Z            2
_exptl_crystal_recrystallization_method ethanol/dichloromethane
loop_
_atom_site_label
_atom_site_type_symbol
_atom_site_fract_x
_atom_site_fract_y
_atom_site_fract_z
C1 C 0.24701(17) 0.63827(16) 0.41761(13)
C2 C 0.22501(17) 0.49034(16) 0.43864(13)
C3 C 0.24553(18) 0.32349(17) 0.57267(13)
C4 C 0.31849(19) 0.24586(18) 0.76322(14)
C5 C 0.28293(18) 0.46738(16) 0.54930(13)
C6 C 0.38333(19) 0.56536(17) 0.65955(14)
C7 C -0.0579(2) 0.4344(2) 0.21793(16)
H1 H -0.0717 0.4872 0.2822
O1 O 0.16907(14) 0.20357(12) 0.50287(10)
N1 N 0.31411(15) 0.34807(14) 0.69239(11)
N2 N 0.40215(16) 0.49557(14) 0.74289(12)
N3 N 0.14716(17) 0.37503(15) 0.34865(11)
H2 H 0.1533 0.2934 0.3615
C8 C 0.1735(2) 0.72292(18) 0.46544(15)
H3 H 0.1088 0.6865 0.5108
C9 C 0.05496(19) 0.36992(17) 0.23386(14)
C10 C 0.2210(2) 0.1015(2) 0.72144(16)
H4 H 0.1488 0.0701 0.6464
C11 C 0.0724(2) 0.2893(2) 0.13875(15)
H5 H 0.1486 0.2455 0.1505
C12 C 0.1949(2) 0.86007(19) 0.44664(16)
H6 H 0.1427 0.9155 0.4774
C13 C 0.2928(2) 0.9151(2) 0.38270(18)
H7 H 0.3097 1.0093 0.3718
C14 C -0.0217(2) 0.2724(2) 0.02582(15)
C15 C 0.3423(2) 0.69351(19) 0.35002(15)
H8 H 0.3899 0.6367 0.3152
C16 C 0.4228(2) 0.2923(2) 0.87616(16)
H9 H 0.4880 0.3896 0.9056
C17 C -0.1504(2) 0.4198(2) 0.10567(17)
H10 H -0.2258 0.4645 0.0939
C18 C 0.2317(3) 0.0045(2) 0.7917(2)
H11 H 0.1676 -0.0932 0.7628
C19 C 0.4688(2) 0.7260(2) 0.68684(18)
H12 H 0.5266 0.7599 0.7690
H13 H 0.3933 0.7737 0.6678
H14 H 0.5416 0.7479 0.6413
C20 C 0.3664(2) 0.8329(2) 0.33448(18)
H15 H 0.4331 0.8714 0.2910
C21 C 0.3347(3) 0.0485(3) 0.9033(2)
H16 H 0.3404 -0.0181 0.9501
C22 C -0.1321(2) 0.3400(2) 0.01120(17)
H17 H -0.1953 0.3313 -0.0641
C23 C 0.4284(3) 0.1913(3) 0.9445(2)
H18 H 0.4980 0.2220 1.0205
C24 C -0.0035(3) 0.1824(3) -0.07792(19)
H19 H -0.0777 0.1828 -0.1488
H20 H -0.0241 0.0841 -0.0688
H21 H 0.1028 0.2230 -0.0823
loop_
_geom_bond_atom_site_label_1
_geom_bond_atom_site_label_2
_geom_bond_site_symmetry_1
_geom_bond_site_symmetry_2
C1 C2 1_555 1_555
C2 C5 1_555 1_555
C3 C5 1_555 1_555
C4 N1 1_555 1_555
C5 C6 1_555 1_555
C6 N2 1_555 1_555
C7 H1 1_555 1_555
O1 C3 1_555 1_555
N1 C3 1_555 1_555
N2 N1 1_555 1_555
N3 C2 1_555 1_555
H2 N3 1_555 1_555
C8 C1 1_555 1_555
H3 C8 1_555 1_555
C9 C7 1_555 1_555
C10 C4 1_555 1_555
H4 C10 1_555 1_555
C11 C9 1_555 1_555
H5 C11 1_555 1_555
C12 C8 1_555 1_555
H6 C12 1_555 1_555
C13 C12 1_555 1_555
H7 C13 1_555 1_555
C14 C11 1_555 1_555
C15 C1 1_555 1_555
H8 C15 1_555 1_555
C16 C4 1_555 1_555
H9 C16 1_555 1_555
C17 C7 1_555 1_555
H10 C17 1_555 1_555
C18 C10 1_555 1_555
H11 C18 1_555 1_555
C19 C6 1_555 1_555
H12 C19 1_555 1_555
H13 C19 1_555 1_555
H14 C19 1_555 1_555
C20 C13 1_555 1_555
H15 C20 1_555 1_555
C21 C18 1_555 1_555
H16 C21 1_555 1_555
C22 C14 1_555 1_555
H17 C22 1_555 1_555
C23 C16 1_555 1_555
H18 C23 1_555 1_555
C24 C14 1_555 1_555
H19 C24 1_555 1_555
H20 C24 1_555 1_555
H21 C24 1_555 1_555
N3 C9 1_555 1_555
C15 C20 1_555 1_555
C17 C22 1_555 1_555
C21 C23 1_555 1_555

#END
