
#######################################################################
#
#                 Cambridge Crystallographic Data Centre
#                                CCDC 
#
#######################################################################
#
# If this CIF has been generated from an entry in the Cambridge 
# Structural Database, then it will include bibliographic, chemical, 
# crystal, experimental, refinement or atomic coordinate data resulting 
# from the CCDC's data processing and validation procedures.
#
#######################################################################

data_CATKUF
_chemical_formula_moiety         'C20 H14 O2,2(C10 H11 N3)'
_chemical_name_systematic        
"1,1'-Binaphthalene-2,2'-diol 5,7-dimethyl-1,8-naphthyridin-2-amine"
_symmetry_cell_setting           monoclinic
_symmetry_space_group_name_H-M   'C 2/c'
_symmetry_Int_Tables_number      15
_space_group_name_Hall           '-C 2yn'
loop_
_symmetry_equiv_pos_site_id
_symmetry_equiv_pos_as_xyz
1 x,y,z
2 -x,y,1/2-z
3 1/2+x,1/2+y,z
4 1/2-x,1/2+y,1/2-z
5 -x,-y,-z
6 x,-y,1/2+z
7 1/2-x,1/2-y,-z
8 1/2+x,1/2-y,1/2+z
_cell_length_a                   20.062(2)
_cell_length_b                   15.8357(15)
_cell_length_c                   10.5822(9)
_cell_angle_alpha                90
_cell_angle_beta                 109.3160(10)
_cell_angle_gamma                90
_cell_volume                     3172.67
_exptl_crystal_colour            colorless
_exptl_crystal_description       block
_cell_formula_units_Z            4
loop_
_atom_site_label
_atom_site_type_symbol
_atom_site_fract_x
_atom_site_fract_y
_atom_site_fract_z
N1 N 0.43704(9) 0.05875(13) 0.33242(18)
N2 N 0.42050(10) 0.20124(13) 0.28858(19)
N3 N 0.45788(10) -0.08222(13) 0.3793(2)
H1 H 0.4824 -0.0695 0.4603
H2 H 0.4526 -0.1342 0.3546
C1 C 0.42783(12) -0.02084(16) 0.2911(2)
C2 C 0.38751(12) -0.04351(16) 0.1571(3)
H4 H 0.3816 -0.1000 0.1318
C3 C 0.35817(12) 0.01757(17) 0.0677(2)
H5 H 0.3316 0.0032 -0.0196
C4 C 0.36755(11) 0.10387(16) 0.1058(2)
C5 C 0.40780(11) 0.12044(15) 0.2408(2)
C6 C 0.39639(13) 0.26483(16) 0.2029(3)
C7 C 0.35729(13) 0.25179(17) 0.0676(3)
H6 H 0.3422 0.2981 0.0112
C8 C 0.34108(12) 0.17229(17) 0.0173(2)
C9 C 0.41133(16) 0.35289(17) 0.2581(3)
H7 H 0.3727 0.3721 0.2851
H8 H 0.4169 0.3899 0.1904
H9 H 0.4539 0.3529 0.3340
C10 C 0.29639(15) 0.1589(2) -0.1268(3)
H10 H 0.2771 0.2120 -0.1659
H11 H 0.2586 0.1207 -0.1312
H12 H 0.3250 0.1356 -0.1752
O1 O 0.01987(8) 0.25225(10) 0.45102(16)
H3 H 0.0419 0.2768 0.5206
C11 C 0.03923(10) 0.16494(13) 0.2865(2)
C12 C 0.06574(11) 0.20987(14) 0.4042(2)
C13 C 0.13929(12) 0.21238(15) 0.4736(2)
H13 H 0.1566 0.2429 0.5528
C14 C 0.18488(12) 0.17049(16) 0.4254(3)
H14 H 0.2330 0.1723 0.4732
C15 C 0.16116(11) 0.12448(14) 0.3051(2)
C16 C 0.08702(10) 0.12127(13) 0.2344(2)
C17 C 0.06459(12) 0.07398(14) 0.1145(2)
H15 H 0.0166 0.0707 0.0664
C18 C 0.11136(13) 0.03283(15) 0.0669(2)
H16 H 0.0947 0.0017 -0.0118
C19 C 0.18412(13) 0.03725(17) 0.1359(3)
H17 H 0.2158 0.0094 0.1031
C20 C 0.20784(13) 0.08230(16) 0.2506(3)
H18 H 0.2562 0.0858 0.2952
O1A O -0.01987(8) 0.25225(10) 0.04898(16)
H3A H -0.0419 0.2768 -0.0206
C11A C -0.03923(10) 0.16494(13) 0.2135(2)
C12A C -0.06574(11) 0.20987(14) 0.0958(2)
C13A C -0.13929(12) 0.21238(15) 0.0264(2)
H13A H -0.1566 0.2429 -0.0528
C14A C -0.18488(12) 0.17049(16) 0.0746(3)
H14A H -0.2330 0.1723 0.0268
C15A C -0.16116(11) 0.12448(14) 0.1949(2)
C16A C -0.08702(10) 0.12127(13) 0.2656(2)
C17A C -0.06459(12) 0.07398(14) 0.3855(2)
H15A H -0.0166 0.0707 0.4336
C18A C -0.11136(13) 0.03283(15) 0.4331(2)
H16A H -0.0947 0.0017 0.5118
C19A C -0.18412(13) 0.03725(17) 0.3641(3)
H17A H -0.2158 0.0094 0.3969
C20A C -0.20784(13) 0.08230(16) 0.2494(3)
H18A H -0.2562 0.0858 0.2048
loop_
_geom_bond_atom_site_label_1
_geom_bond_atom_site_label_2
_geom_bond_site_symmetry_1
_geom_bond_site_symmetry_2
N1 C1 1_555 1_555
N2 C5 1_555 1_555
N3 H1 1_555 1_555
H2 N3 1_555 1_555
O1 H3 1_555 1_555
C1 N3 1_555 1_555
C2 C1 1_555 1_555
H4 C2 1_555 1_555
C3 C2 1_555 1_555
H5 C3 1_555 1_555
C4 C3 1_555 1_555
C5 N1 1_555 1_555
C6 N2 1_555 1_555
C7 C6 1_555 1_555
H6 C7 1_555 1_555
C8 C4 1_555 1_555
C9 C6 1_555 1_555
H7 C9 1_555 1_555
H8 C9 1_555 1_555
H9 C9 1_555 1_555
C10 C8 1_555 1_555
H10 C10 1_555 1_555
H11 C10 1_555 1_555
H12 C10 1_555 1_555
C11 C12 1_555 1_555
C12 O1 1_555 1_555
C13 C12 1_555 1_555
H13 C13 1_555 1_555
C14 C13 1_555 1_555
H14 C14 1_555 1_555
C15 C14 1_555 1_555
C16 C11 1_555 1_555
C17 C16 1_555 1_555
H15 C17 1_555 1_555
C18 C17 1_555 1_555
H16 C18 1_555 1_555
C19 C18 1_555 1_555
H17 C19 1_555 1_555
C20 C15 1_555 1_555
H18 C20 1_555 1_555
O1A H3A 1_555 1_555
C11A C11 1_555 1_555
C12A O1A 1_555 1_555
C13A C12A 1_555 1_555
H13A C13A 1_555 1_555
C14A C13A 1_555 1_555
H14A C14A 1_555 1_555
C15A C14A 1_555 1_555
C16A C11A 1_555 1_555
C17A C16A 1_555 1_555
H15A C17A 1_555 1_555
C18A C17A 1_555 1_555
H16A C18A 1_555 1_555
C19A C18A 1_555 1_555
H17A C19A 1_555 1_555
C20A C15A 1_555 1_555
H18A C20A 1_555 1_555
C4 C5 1_555 1_555
C7 C8 1_555 1_555
C15 C16 1_555 1_555
C19 C20 1_555 1_555
C11A C12A 1_555 1_555
C15A C16A 1_555 1_555
C19A C20A 1_555 1_555

#END
