
#######################################################################
#
#                 Cambridge Crystallographic Data Centre
#                                CCDC 
#
#######################################################################
#
# If this CIF has been generated from an entry in the Cambridge 
# Structural Database, then it will include bibliographic, chemical, 
# crystal, experimental, refinement or atomic coordinate data resulting 
# from the CCDC's data processing and validation procedures.
#
#######################################################################

data_CATPIY
_chemical_formula_moiety         'C22 H32 O6,H2 O1'
_chemical_name_systematic        
'5-(2-(3-Furyl)ethyl)-5,8-dihydroxy-1,1,4a,6-tetramethyl-7-oxodecahydronaphthalen-2-yl acetate monohydrate'
_symmetry_cell_setting           orthorhombic
_symmetry_space_group_name_H-M   'P 21 21 21'
_symmetry_Int_Tables_number      19
_space_group_name_Hall           'P 2ac 2ab'
loop_
_symmetry_equiv_pos_site_id
_symmetry_equiv_pos_as_xyz
1 x,y,z
2 1/2-x,-y,1/2+z
3 -x,1/2+y,1/2-z
4 1/2+x,1/2-y,-z
_cell_length_a                   10.521(6)
_cell_length_b                   11.262(7)
_cell_length_c                   18.737(11)
_cell_angle_alpha                90
_cell_angle_beta                 90
_cell_angle_gamma                90
_cell_volume                     2220.1
_exptl_crystal_colour            colorless
_exptl_crystal_description       block
_cell_formula_units_Z            4
loop_
_atom_site_label
_atom_site_type_symbol
_atom_site_fract_x
_atom_site_fract_y
_atom_site_fract_z
C1 C 0.2499(5) 0.0306(5) 0.1459(3)
H1 H 0.2685 -0.0357 0.1146
H2 H 0.2739 0.0077 0.1940
C2 C 0.1078(5) 0.0549(5) 0.1442(3)
H3 H 0.0819 0.0678 0.0951
H4 H 0.0632 -0.0146 0.1617
C3 C 0.0695(5) 0.1608(5) 0.1882(3)
H5 H -0.0217 0.1752 0.1819
C4 C 0.1425(6) 0.2736(5) 0.1697(3)
C5 C 0.2884(5) 0.2444(5) 0.1703(2)
H6 H 0.3028 0.2151 0.2189
C6 C 0.3725(5) 0.3545(4) 0.1663(2)
H7 H 0.3501 0.4078 0.2057
C7 C 0.5110(5) 0.3205(5) 0.1734(3)
C8 C 0.5575(5) 0.2256(5) 0.1249(3)
H8 H 0.5409 0.2516 0.0759
C9 C 0.4756(5) 0.1129(5) 0.1385(3)
C10 C 0.3316(5) 0.1387(5) 0.1229(2)
C11 C 0.5230(5) 0.0071(5) 0.0921(3)
H9 H 0.4492 -0.0362 0.0753
H10 H 0.5657 0.0394 0.0506
C12 C 0.6118(6) -0.0805(5) 0.1275(3)
H11 H 0.6824 -0.0379 0.1488
H12 H 0.5669 -0.1217 0.1653
C13 C 0.6619(6) -0.1694(6) 0.0748(3)
C14 C 0.7478(6) -0.1481(6) 0.0190(3)
H13 H 0.7893 -0.0770 0.0095
C15 C 0.7586(7) -0.2464(8) -0.0170(3)
H14 H 0.8112 -0.2556 -0.0565
C16 C 0.6247(7) -0.2825(7) 0.0673(3)
H15 H 0.5669 -0.3220 0.0964
C17 C 0.6999(4) 0.2073(5) 0.1321(3)
H16 H 0.7424 0.2824 0.1277
H17 H 0.7289 0.1547 0.0953
H18 H 0.7183 0.1734 0.1780
C18 C 0.0885(5) 0.3204(5) 0.0991(3)
H19 H 0.0804 0.2560 0.0658
H20 H 0.1448 0.3793 0.0798
H21 H 0.0065 0.3551 0.1074
C19 C 0.1153(5) 0.3677(4) 0.2269(3)
H22 H 0.0251 0.3776 0.2319
H23 H 0.1529 0.4418 0.2129
H24 H 0.1508 0.3427 0.2716
C20 C 0.3150(5) 0.1613(4) 0.0416(2)
H25 H 0.2277 0.1492 0.0285
H26 H 0.3678 0.1073 0.0153
H27 H 0.3392 0.2415 0.0306
C21 C 0.0013(7) 0.1507(6) 0.3112(3)
C22 C 0.0499(6) 0.1259(6) 0.3852(3)
H28 H -0.0195 0.1280 0.4184
H29 H 0.1115 0.1850 0.3981
H30 H 0.0889 0.0488 0.3864
O1 O 0.4932(3) 0.0900(3) 0.21355(15)
H31 H 0.4627 0.0252 0.2236
O2 O 0.0943(3) 0.1286(3) 0.26283(19)
O3 O -0.1009(4) 0.1852(4) 0.2959(2)
O4 O 0.3604(4) 0.4179(3) 0.10056(17)
H32 H 0.3640 0.4895 0.1083
O5 O 0.6863(6) -0.3308(4) 0.0090(3)
O6 O 0.5785(3) 0.3714(3) 0.2158(2)
O7 O 0.6404(5) 0.1435(4) 0.3349(2)
H33 H 0.717(3) 0.169(5) 0.339(2)
H34 H 0.608(6) 0.142(8) 0.2921(19)
loop_
_geom_bond_atom_site_label_1
_geom_bond_atom_site_label_2
_geom_bond_site_symmetry_1
_geom_bond_site_symmetry_2
C1 H1 1_555 1_555
H2 C1 1_555 1_555
C2 C1 1_555 1_555
H3 C2 1_555 1_555
H4 C2 1_555 1_555
C3 C2 1_555 1_555
H5 C3 1_555 1_555
C4 C3 1_555 1_555
C5 C4 1_555 1_555
H6 C5 1_555 1_555
C6 C5 1_555 1_555
H7 C6 1_555 1_555
C7 C6 1_555 1_555
C8 C7 1_555 1_555
H8 C8 1_555 1_555
C9 C8 1_555 1_555
C10 C1 1_555 1_555
C11 C9 1_555 1_555
H9 C11 1_555 1_555
H10 C11 1_555 1_555
C12 C11 1_555 1_555
H11 C12 1_555 1_555
H12 C12 1_555 1_555
C13 C12 1_555 1_555
C14 C13 1_555 1_555
H13 C14 1_555 1_555
C15 C14 1_555 1_555
H14 C15 1_555 1_555
C16 C13 1_555 1_555
H15 C16 1_555 1_555
C17 C8 1_555 1_555
H16 C17 1_555 1_555
H17 C17 1_555 1_555
H18 C17 1_555 1_555
C18 C4 1_555 1_555
H19 C18 1_555 1_555
H20 C18 1_555 1_555
H21 C18 1_555 1_555
C19 C4 1_555 1_555
H22 C19 1_555 1_555
H23 C19 1_555 1_555
H24 C19 1_555 1_555
C20 C10 1_555 1_555
H25 C20 1_555 1_555
H26 C20 1_555 1_555
H27 C20 1_555 1_555
C21 C22 1_555 1_555
C22 H28 1_555 1_555
H29 C22 1_555 1_555
H30 C22 1_555 1_555
O1 C9 1_555 1_555
H31 O1 1_555 1_555
O2 C3 1_555 1_555
O3 C21 1_555 1_555
O4 C6 1_555 1_555
H32 O4 1_555 1_555
O5 C15 1_555 1_555
O6 C7 1_555 1_555
O7 H33 1_555 1_555
H34 O7 1_555 1_555
C5 C10 1_555 1_555
C9 C10 1_555 1_555
C16 O5 1_555 1_555
C21 O2 1_555 1_555

#END
