
#######################################################################
#
#                 Cambridge Crystallographic Data Centre
#                                CCDC 
#
#######################################################################
#
# If this CIF has been generated from an entry in the Cambridge 
# Structural Database, then it will include bibliographic, chemical, 
# crystal, experimental, refinement or atomic coordinate data resulting 
# from the CCDC's data processing and validation procedures.
#
#######################################################################

data_CATQAR
_chemical_formula_moiety         'C32 H40 K2 N20 O13 2+,2(I1 1-),5(H2 O1)'
_chemical_name_systematic        
'(\m~2~-dimethylcucurbit(5)uril)-triaqua-di-potassium diiodide pentahydrate'
_symmetry_cell_setting           monoclinic
_symmetry_space_group_name_H-M   'P 21/c'
_symmetry_Int_Tables_number      14
_space_group_name_Hall           '-P 2ybc'
loop_
_symmetry_equiv_pos_site_id
_symmetry_equiv_pos_as_xyz
1 x,y,z
2 -x,1/2+y,1/2-z
3 -x,-y,-z
4 x,1/2-y,1/2+z
_cell_length_a                   19.9106(11)
_cell_length_b                   11.9969(7)
_cell_length_c                   28.0120(12)
_cell_angle_alpha                90
_cell_angle_beta                 134.185(2)
_cell_angle_gamma                90
_cell_volume                     4798.14
_exptl_crystal_colour            colorless
_exptl_crystal_description       block
_cell_formula_units_Z            4
loop_
_atom_site_label
_atom_site_type_symbol
_atom_site_fract_x
_atom_site_fract_y
_atom_site_fract_z
K1 K 0.26921(8) 0.58703(10) 1.00466(6)
K2 K 0.20040(10) -0.05497(13) 0.94317(7)
O1 O 0.0872(3) 0.0462(3) 0.8196(2)
O2 O 0.3303(3) 0.7869(3) 1.0718(2)
H1 H 0.3796 0.8254 1.1028
H2 H 0.2920 0.7997 1.0759
O3 O 0.3061(3) 0.0249(3) 0.9180(2)
O4 O 0.3896(3) -0.0123(3) 1.0628(2)
O5 O 0.2275(3) -0.0035(3) 1.05798(19)
O6 O 0.0473(3) 0.0372(3) 0.9124(2)
O7 O 0.3532(3) 0.5130(3) 0.96426(19)
O8 O 0.4451(3) 0.4936(3) 1.10785(19)
O9 O 0.2254(6) -0.2458(6) 0.8991(3)
H3 H 0.2710 -0.2392 0.9024
H4 H 0.1759 -0.2634 0.8595
O10 O 0.2737(3) 0.4934(3) 1.0950(2)
O11 O 0.0815(8) -0.2429(7) 0.8911(4)
H5 H 0.0669 -0.3116 0.8761
H6 H 0.0757 -0.2401 0.9245
O12 O 0.0816(3) 0.5404(3) 0.9503(2)
O13 O 0.1371(3) 0.5495(3) 0.86802(19)
N1 N 0.4672(3) 0.3273(4) 1.1586(2)
N2 N 0.4990(3) 0.3355(4) 1.0971(2)
N3 N 0.4797(3) 0.1348(4) 1.0810(2)
N4 N 0.4466(3) 0.1245(4) 1.1415(2)
N5 N 0.4201(3) 0.1599(4) 0.9707(2)
N6 N 0.2893(3) 0.1854(4) 0.8645(2)
N7 N 0.4443(3) 0.3615(4) 0.9886(2)
N8 N 0.3071(3) 0.3852(4) 0.8845(2)
N9 N 0.1389(3) 0.4107(4) 0.8116(2)
N10 N 0.1231(3) 0.2089(4) 0.7963(2)
N11 N 0.0014(3) 0.2081(4) 0.7857(2)
N12 N 0.0279(3) 0.4077(4) 0.8117(2)
N13 N -0.0187(3) 0.4055(4) 0.8715(2)
N14 N -0.0255(3) 0.2037(4) 0.8579(2)
N15 N 0.0306(3) 0.1798(4) 0.9589(2)
N16 N 0.0405(3) 0.3835(4) 0.9734(2)
N17 N 0.1890(3) 0.3472(4) 1.0853(2)
N18 N 0.3430(3) 0.3307(4) 1.1548(2)
N19 N 0.3241(3) 0.1283(4) 1.1403(2)
N20 N 0.1710(3) 0.1450(4) 1.0746(2)
C1 C 0.4338(4) 0.0735(4) 1.0923(3)
C2 C 0.2392(4) 0.0818(5) 1.0876(3)
C3 C 0.0725(4) 0.1450(4) 0.8029(3)
C4 C 0.5333(4) 0.2257(4) 1.1276(3)
H7 H 0.6005 0.2175 1.1547
C5 C -0.0184(4) 0.2859(4) 0.9380(3)
H8 H -0.0680 0.2831 0.9375
C6 C 0.0398(4) 0.4523(5) 0.9335(3)
C7 C 0.2689(4) 0.4000(4) 1.1104(3)
C8 C 0.3664(4) 0.4277(4) 0.9478(3)
C9 C 0.0206(3) 0.1302(5) 0.9102(3)
C10 C 0.1957(4) 0.1627(5) 0.8019(3)
H9 H 0.1872 0.0826 0.7958
H10 H 0.1883 0.1927 0.7663
C11 C 0.5256(4) 0.2531(5) 0.9657(3)
H11 H 0.5360 0.3217 0.9540
H12 H 0.5163 0.1938 0.9386
H13 H 0.5791 0.2367 1.0118
C12 C 0.2082(4) 0.2408(4) 1.1182(3)
H14 H 0.1895 0.2414 1.1426
C13 C 0.3440(4) 0.2849(4) 0.8795(3)
C14 C 0.0996(4) 0.4043(5) 1.0431(3)
H15 H 0.0669 0.3813 1.0557
H16 H 0.1109 0.4839 1.0511
C15 C 0.3348(4) 0.1153(4) 0.9176(3)
C16 C 0.5103(4) 0.2188(4) 1.1704(3)
H17 H 0.5667 0.2070 1.2177
C17 C 0.4372(4) 0.3639(5) 1.1903(3)
H18 H 0.4793 0.3336 1.2351
H19 H 0.4415 0.4446 1.1940
C18 C 0.4387(4) 0.2645(4) 0.9543(3)
C19 C 0.0727(4) 0.1222(5) 1.0197(3)
H20 H 0.0399 0.1431 1.0323
H21 H 0.0645 0.0426 1.0111
C20 C 0.0002(4) 0.3201(4) 0.7651(2)
H22 H -0.0600 0.3368 0.7200
C21 C -0.0597(4) 0.3008(4) 0.8665(3)
H23 H -0.1283 0.3040 0.8330
C22 C 0.3518(5) 0.3005(5) 0.8298(3)
H24 H 0.2913 0.3176 0.7868
H25 H 0.3750 0.2331 0.8270
H26 H 0.3942 0.3606 0.8441
C23 C -0.0337(4) 0.4531(5) 0.8174(3)
H27 H -0.0242 0.5331 0.8239
H28 H -0.0981 0.4402 0.7760
C24 C 0.5168(4) 0.3846(4) 1.0593(3)
H29 H 0.5227 0.4647 1.0659
H30 H 0.5760 0.3566 1.0767
C25 C 0.4683(3) 0.3955(4) 1.1202(3)
C26 C 0.1042(4) 0.4645(4) 0.8337(2)
C27 C 0.3163(4) 0.2276(4) 1.1657(3)
H31 H 0.3482 0.2190 1.2123
C28 C 0.2232(4) 0.4457(4) 0.8290(3)
H32 H 0.2330 0.5244 0.8400
H33 H 0.2140 0.4368 0.7904
C29 C 0.0805(4) 0.3180(5) 0.7683(3)
H34 H 0.0572 0.3274 0.7241
C30 C -0.0582(4) 0.1701(5) 0.7945(3)
H35 H -0.0621 0.0894 0.7915
H36 H -0.1209 0.1993 0.7586
C31 C 0.4840(4) 0.1012(4) 1.0337(3)
H37 H 0.4707 0.0220 1.0251
H38 H 0.5474 0.1126 1.0536
C32 C 0.4112(4) 0.0789(4) 1.1684(3)
H39 H 0.4023 -0.0008 1.1602
H40 H 0.4576 0.0901 1.2162
O14 O 0.5097(3) 0.3214(4) 0.8125(2)
H41 H 0.5108 0.3804 0.8304
H42 H 0.5659 0.3139 0.8296
O15 O 0.2596(4) 0.8502(5) 0.8324(3)
H43 H 0.2729 0.8989 0.8599
H44 H 0.2655 0.8801 0.8080
O16 O 0.2384(4) 0.7823(4) 0.6116(3)
H45 H 0.2568 0.7461 0.6455
H46 H 0.2576 0.8496 0.6252
O17 O 0.0973(4) -0.1838(5) 0.9902(4)
H47 H 0.1321 -0.2278 1.0233
H48 H 0.1260 -0.1221 1.0015
I1 I 0.26965(3) 0.58976(4) 0.72152(2)
I2 I 0.28929(3) 0.99469(3) 0.74047(2)
O18 O 0.8885(3) 0.8698(5) 0.8341(2)
H49 H 0.9389 0.9075 0.8581
H50 H 0.8436 0.9145 0.8173
loop_
_geom_bond_atom_site_label_1
_geom_bond_atom_site_label_2
_geom_bond_site_symmetry_1
_geom_bond_site_symmetry_2
K1 O2 1_555 1_555
K2 O1 1_555 1_555
O1 C3 1_555 1_555
O2 H1 1_555 1_555
H2 O2 1_555 1_555
O3 K2 1_555 1_555
O4 K2 1_555 1_555
O5 K2 1_555 1_555
O6 K2 1_555 1_555
O7 K1 1_555 1_555
O8 K1 1_555 1_555
O9 K2 1_555 1_555
H3 O9 1_555 1_555
H4 O9 1_555 1_555
O10 K1 1_555 1_555
O11 K2 1_555 1_555
H5 O11 1_555 1_555
H6 O11 1_555 1_555
O12 K1 1_555 1_555
O13 K1 1_555 1_555
N1 C16 1_555 1_555
N2 C4 1_555 1_555
N3 C1 1_555 1_555
N4 C1 1_555 1_555
N5 C15 1_555 1_555
N6 C10 1_555 1_555
N7 C8 1_555 1_555
N8 C8 1_555 1_555
N9 C26 1_555 1_555
N10 C3 1_555 1_555
N11 C3 1_555 1_555
N12 C20 1_555 1_555
N13 C6 1_555 1_555
N14 C9 1_555 1_555
N15 C5 1_555 1_555
N16 C5 1_555 1_555
N17 C7 1_555 1_555
N18 C7 1_555 1_555
N19 C2 1_555 1_555
N20 C2 1_555 1_555
C1 O4 1_555 1_555
C2 O5 1_555 1_555
C4 N3 1_555 1_555
H7 C4 1_555 1_555
C5 H8 1_555 1_555
C6 O12 1_555 1_555
C7 O10 1_555 1_555
C8 O7 1_555 1_555
C9 O6 1_555 1_555
C10 N10 1_555 1_555
H9 C10 1_555 1_555
H10 C10 1_555 1_555
C11 H11 1_555 1_555
H12 C11 1_555 1_555
H13 C11 1_555 1_555
C12 N17 1_555 1_555
H14 C12 1_555 1_555
C13 N6 1_555 1_555
C14 N16 1_555 1_555
H15 C14 1_555 1_555
H16 C14 1_555 1_555
C15 O3 1_555 1_555
C16 N4 1_555 1_555
H17 C16 1_555 1_555
C17 N1 1_555 1_555
H18 C17 1_555 1_555
H19 C17 1_555 1_555
C18 N5 1_555 1_555
C19 N15 1_555 1_555
H20 C19 1_555 1_555
H21 C19 1_555 1_555
C20 N11 1_555 1_555
H22 C20 1_555 1_555
C21 N13 1_555 1_555
H23 C21 1_555 1_555
C22 C13 1_555 1_555
H24 C22 1_555 1_555
H25 C22 1_555 1_555
H26 C22 1_555 1_555
C23 N12 1_555 1_555
H27 C23 1_555 1_555
H28 C23 1_555 1_555
C24 N2 1_555 1_555
H29 C24 1_555 1_555
H30 C24 1_555 1_555
C25 O8 1_555 1_555
C26 O13 1_555 1_555
C27 N18 1_555 1_555
H31 C27 1_555 1_555
C28 N8 1_555 1_555
H32 C28 1_555 1_555
H33 C28 1_555 1_555
C29 N9 1_555 1_555
H34 C29 1_555 1_555
C30 N11 1_555 1_555
H35 C30 1_555 1_555
H36 C30 1_555 1_555
C31 N3 1_555 1_555
H37 C31 1_555 1_555
H38 C31 1_555 1_555
C32 N4 1_555 1_555
H39 C32 1_555 1_555
H40 C32 1_555 1_555
O14 H41 1_555 1_555
H42 O14 1_555 1_555
O15 H43 1_555 1_555
H44 O15 1_555 1_555
O16 H45 1_555 1_555
H46 O16 1_555 1_555
O17 H47 1_555 1_555
H48 O17 1_555 1_555
O18 H49 1_555 1_555
H50 O18 1_555 1_555
N1 C25 1_555 1_555
N2 C25 1_555 1_555
N5 C31 1_555 1_555
N6 C15 1_555 1_555
N7 C18 1_555 1_555
N7 C24 1_555 1_555
N8 C13 1_555 1_555
N9 C28 1_555 1_555
N10 C29 1_555 1_555
N12 C26 1_555 1_555
N13 C23 1_555 1_555
N14 C21 1_555 1_555
N14 C30 1_555 1_555
N15 C9 1_555 1_555
N16 C6 1_555 1_555
N17 C14 1_555 1_555
N18 C17 1_555 1_555
N19 C27 1_555 1_555
N19 C32 1_555 1_555
N20 C12 1_555 1_555
N20 C19 1_555 1_555
C4 C16 1_555 1_555
C5 C21 1_555 1_555
C11 C18 1_555 1_555
C12 C27 1_555 1_555
C13 C18 1_555 1_555
C20 C29 1_555 1_555

#END
