
#######################################################################
#
#                 Cambridge Crystallographic Data Centre
#                                CCDC 
#
#######################################################################
#
# If this CIF has been generated from an entry in the Cambridge 
# Structural Database, then it will include bibliographic, chemical, 
# crystal, experimental, refinement or atomic coordinate data resulting 
# from the CCDC's data processing and validation procedures.
#
#######################################################################

data_CATREV
_chemical_formula_moiety         'C40 H52 N4 O16 S4,3(C3 H7 N1 O1)'
_chemical_name_systematic        
'1^4^,1^6^,7^4^,7^6^-tetramethoxy-4^4^,4^6^,10^4^,10^6^-tetra-n-propyl-2,6,8,12-tetra-aza-3,5,9,11-tetrathiacyclododecaphane 3,3,5,5,9,9,11,11-octaoxide dimethylformamide solvate'
_symmetry_cell_setting           monoclinic
_symmetry_space_group_name_H-M   'C 2'
_symmetry_Int_Tables_number      5
_space_group_name_Hall           'C 2y'
loop_
_symmetry_equiv_pos_site_id
_symmetry_equiv_pos_as_xyz
1 x,y,z
2 -x,y,-z
3 1/2+x,1/2+y,z
4 1/2-x,1/2+y,-z
_cell_length_a                   32.684(3)
_cell_length_b                   20.741(2)
_cell_length_c                   8.9393(9)
_cell_angle_alpha                90
_cell_angle_beta                 95.263(2)
_cell_angle_gamma                90
_cell_volume                     6034.39
_exptl_crystal_colour            colorless
_exptl_crystal_description       column
_cell_formula_units_Z            4
loop_
_atom_site_label
_atom_site_type_symbol
_atom_site_fract_x
_atom_site_fract_y
_atom_site_fract_z
S1 S 0.85188(7) -0.01082(11) 0.1519(2)
S2 S 0.85144(7) 0.25157(10) 0.1553(3)
S3 S 0.66962(6) 0.25337(10) 0.2574(2)
S4 S 0.67275(7) -0.00916(10) 0.2583(2)
N1 N 0.8269(2) -0.0559(3) 0.0238(9)
H1 H 0.8400 -0.0853 -0.0197
N2 N 0.8254(2) 0.3012(4) 0.0372(8)
H2 H 0.8377 0.3350 0.0083
N3 N 0.6796(2) 0.3027(3) 0.1164(7)
H3 H 0.6654 0.3375 0.1023
N4 N 0.6795(2) -0.0536(3) 0.1165(8)
H4 H 0.6613 -0.0828 0.0934
C1 C 0.8612(2) 0.0618(4) 0.0702(8)
O1 O 0.89087(19) -0.0409(3) 0.1975(8)
C2 C 0.85109(15) 0.1161(5) 0.1230(6)
H5 H 0.8373 0.1175 0.2094
O2 O 0.8271(2) 0.0056(4) 0.2713(7)
C3 C 0.8612(3) 0.1769(5) 0.0479(11)
C4 C 0.88057(19) 0.1760(4) -0.0741(9)
C5 C 0.88861(18) 0.1193(5) -0.1412(6)
H6 H 0.8997 0.1196 -0.2334
C6 C 0.8803(3) 0.0604(4) -0.0733(11)
C7 C 0.7832(2) 0.2913(3) -0.0201(9)
C8 C 0.6481(2) 0.1794(3) 0.1855(8)
O3 O 0.8896(2) 0.2832(4) 0.1784(9)
O4 O 0.8248(2) 0.2382(3) 0.2694(7)
C9 C 0.7517(3) 0.2951(4) 0.0804(9)
H7 H 0.7581 0.3013 0.1830
C10 C 0.7111(3) 0.2891(4) 0.0182(12)
C11 C 0.6995(4) 0.2862(4) -0.1409(9)
C12 C 0.7302(2) 0.2868(3) -0.2318(10)
H8 H 0.7242 0.2851 -0.3355
C13 C 0.7702(2) 0.2899(3) -0.1718(10)
O5 O 0.63892(14) 0.2821(3) 0.3317(6)
C14 C 0.6676(2) 0.1250(5) 0.2311(5)
H9 H 0.6912 0.1277 0.2971
O6 O 0.70893(17) 0.2400(3) 0.3408(6)
C15 C 0.6534(2) 0.0644(5) 0.1823(8)
C16 C 0.6152(4) 0.0604(5) 0.0873(11)
C17 C 0.59756(17) 0.1252(5) 0.0338(6)
H10 H 0.5742 0.1270 -0.0341
C18 C 0.61489(14) 0.1770(3) 0.0824(7)
C19 C 0.7131(2) -0.0491(3) 0.0245(6)
O7 O 0.6402(2) -0.0443(3) 0.3298(7)
C20 C 0.7539(2) -0.0493(3) 0.0742(8)
H11 H 0.7611 -0.0503 0.1773
O8 O 0.71000(18) 0.0055(3) 0.3387(6)
C21 C 0.7845(3) -0.0481(5) -0.0176(10)
C22 C 0.7751(3) -0.0429(4) -0.1777(7)
C23 C 0.7339(3) -0.0416(5) -0.2298(8)
H12 H 0.7264 -0.0385 -0.3324
C24 C 0.70256(17) -0.0448(4) -0.1265(9)
O9 O 0.8889(3) 0.2396(4) -0.1276(8)
C25 C 0.9047(3) 0.2482(5) -0.2609(10)
H13 H 0.8849 0.2340 -0.3416
H14 H 0.9293 0.2223 -0.2637
C26 C 0.9148(4) 0.3167(5) -0.2835(12)
H15 H 0.9349 0.3304 -0.2031
H16 H 0.8902 0.3425 -0.2780
C27 C 0.9324(4) 0.3293(6) -0.4376(13)
H17 H 0.9381 0.3744 -0.4473
H18 H 0.9126 0.3161 -0.5177
H19 H 0.9573 0.3051 -0.4423
O10 O 0.89077(18) 0.0065(2) -0.1226(7)
C28 C 0.9062(3) 0.0025(5) -0.2761(12)
H20 H 0.9305 0.0288 -0.2815
H21 H 0.8853 0.0163 -0.3533
C29 C 0.9163(4) -0.0701(6) -0.2939(17)
H22 H 0.9348 -0.0836 -0.2086
H23 H 0.8912 -0.0948 -0.2924
C30 C 0.9343(6) -0.0842(9) -0.4257(19)
H24 H 0.9397 -0.1296 -0.4301
H25 H 0.9597 -0.0609 -0.4268
H26 H 0.9160 -0.0718 -0.5109
O11 O 0.65996(12) 0.2866(3) -0.1762(6)
C31 C 0.6496(4) 0.2907(6) -0.3316(9)
H27 H 0.6202 0.2902 -0.3518
H28 H 0.6611 0.2546 -0.3804
H29 H 0.6603 0.3300 -0.3690
O12 O 0.80419(19) 0.2846(4) -0.2595(7)
C32 C 0.7972(5) 0.3008(10) -0.4144(13)
H30 H 0.8227 0.2997 -0.4593
H31 H 0.7856 0.3433 -0.4243
H32 H 0.7785 0.2703 -0.4640
O13 O 0.5998(2) 0.0035(3) 0.0404(7)
C33 C 0.5649(3) -0.0006(4) -0.0686(10)
H33 H 0.5703 0.0229 -0.1585
H34 H 0.5411 0.0185 -0.0286
C34 C 0.5565(3) -0.0697(4) -0.1066(13)
H35 H 0.5822 -0.0901 -0.1252
H36 H 0.5467 -0.0906 -0.0195
C35 C 0.5273(6) -0.0818(8) -0.234(2)
H37 H 0.5232 -0.1274 -0.2450
H38 H 0.5376 -0.0646 -0.3226
H39 H 0.5017 -0.0615 -0.2179
O14 O 0.59800(15) 0.2362(3) 0.0526(6)
C36 C 0.5676(2) 0.2419(5) -0.0754(12)
H40 H 0.5427 0.2185 -0.0583
H41 H 0.5782 0.2257 -0.1660
C37 C 0.5595(3) 0.3152(6) -0.0863(11)
H42 H 0.5844 0.3378 -0.1066
H43 H 0.5506 0.3312 0.0075
C38 C 0.5244(4) 0.3266(5) -0.2197(14)
H44 H 0.5188 0.3719 -0.2295
H45 H 0.4999 0.3043 -0.1981
H46 H 0.5335 0.3106 -0.3118
O15 O 0.8055(2) -0.0464(4) -0.2641(7)
C39 C 0.7961(3) -0.0600(6) -0.4208(10)
H47 H 0.8207 -0.0566 -0.4714
H48 H 0.7762 -0.0296 -0.4634
H49 H 0.7853 -0.1029 -0.4327
O16 O 0.6610(2) -0.0421(4) -0.1743(6)
C40 C 0.6467(3) -0.0483(8) -0.3336(12)
H50 H 0.6172 -0.0485 -0.3453
H51 H 0.6569 -0.0878 -0.3721
H52 H 0.6567 -0.0125 -0.3880
C41 C 0.6900(5) 0.1187(11) -0.256(2)
H53 H 0.6760 0.1127 -0.1713
N5 N 0.7313(3) 0.1205(6) -0.2402(8)
O17 O 0.6712(3) 0.1241(10) -0.3698(13)
C42 C 0.7417(6) 0.1235(9) -0.0908(12)
H54 H 0.7172 0.1249 -0.0392
H55 H 0.7577 0.1616 -0.0676
H56 H 0.7575 0.0861 -0.0592
C43 C 0.7572(7) 0.1265(9) -0.3378(17)
H57 H 0.7845 0.1201 -0.2906
H58 H 0.7550 0.1689 -0.3808
H59 H 0.7516 0.0949 -0.4154
C44 C 0.5225(4) 0.1017(11) 0.2884(13)
H60 H 0.5244 0.0576 0.2722
N6 N 0.5487(2) 0.1274(6) 0.3920(7)
O18 O 0.4975(3) 0.1297(10) 0.2162(10)
C45 C 0.5681(7) 0.0800(12) 0.470(2)
H61 H 0.5546 0.0398 0.4452
H62 H 0.5676 0.0882 0.5757
H63 H 0.5960 0.0778 0.4459
C46 C 0.5595(8) 0.1847(10) 0.426(3)
H64 H 0.5862 0.1842 0.4802
H65 H 0.5401 0.2035 0.4874
H66 H 0.5604 0.2096 0.3358
C47 C 0.9429(4) 0.1501(9) -0.5890(14)
H67 H 0.9371 0.1940 -0.5921
N7 N 0.9607(2) 0.1246(9) -0.7047(9)
O19 O 0.9340(3) 0.1207(9) -0.4832(10)
C48 C 0.9778(7) 0.1789(10) -0.755(3)
H68 H 0.9737 0.2138 -0.6876
H69 H 0.9650 0.1892 -0.8533
H70 H 1.0067 0.1721 -0.7605
C49 C 0.9706(4) 0.0716(10) -0.768(3)
H71 H 0.9998 0.0654 -0.7515
H72 H 0.9626 0.0738 -0.8737
H73 H 0.9568 0.0361 -0.7250
loop_
_geom_bond_atom_site_label_1
_geom_bond_atom_site_label_2
_geom_bond_site_symmetry_1
_geom_bond_site_symmetry_2
S1 N1 1_555 1_555
S2 N2 1_555 1_555
S3 N3 1_555 1_555
S4 N4 1_555 1_555
N1 H1 1_555 1_555
N2 H2 1_555 1_555
N3 H3 1_555 1_555
N4 H4 1_555 1_555
C1 S1 1_555 1_555
O1 S1 1_555 1_555
C2 C1 1_555 1_555
H5 C2 1_555 1_555
O2 S1 1_555 1_555
C3 S2 1_555 1_555
C4 C3 1_555 1_555
C5 C4 1_555 1_555
H6 C5 1_555 1_555
C6 C1 1_555 1_555
C7 N2 1_555 1_555
C8 S3 1_555 1_555
O3 S2 1_555 1_555
O4 S2 1_555 1_555
C9 C7 1_555 1_555
H7 C9 1_555 1_555
C10 N3 1_555 1_555
C11 C10 1_555 1_555
C12 C11 1_555 1_555
H8 C12 1_555 1_555
C13 C7 1_555 1_555
O5 S3 1_555 1_555
C14 C8 1_555 1_555
H9 C14 1_555 1_555
O6 S3 1_555 1_555
C15 S4 1_555 1_555
C16 C15 1_555 1_555
C17 C16 1_555 1_555
H10 C17 1_555 1_555
C18 C8 1_555 1_555
C19 N4 1_555 1_555
O7 S4 1_555 1_555
C20 C19 1_555 1_555
H11 C20 1_555 1_555
O8 S4 1_555 1_555
C21 N1 1_555 1_555
C22 C21 1_555 1_555
C23 C22 1_555 1_555
H12 C23 1_555 1_555
C24 C19 1_555 1_555
O9 C4 1_555 1_555
C25 O9 1_555 1_555
H13 C25 1_555 1_555
H14 C25 1_555 1_555
C26 C25 1_555 1_555
H15 C26 1_555 1_555
H16 C26 1_555 1_555
C27 C26 1_555 1_555
H17 C27 1_555 1_555
H18 C27 1_555 1_555
H19 C27 1_555 1_555
O10 C6 1_555 1_555
C28 O10 1_555 1_555
H20 C28 1_555 1_555
H21 C28 1_555 1_555
C29 C28 1_555 1_555
H22 C29 1_555 1_555
H23 C29 1_555 1_555
C30 C29 1_555 1_555
H24 C30 1_555 1_555
H25 C30 1_555 1_555
H26 C30 1_555 1_555
O11 C11 1_555 1_555
C31 O11 1_555 1_555
H27 C31 1_555 1_555
H28 C31 1_555 1_555
H29 C31 1_555 1_555
O12 C13 1_555 1_555
C32 O12 1_555 1_555
H30 C32 1_555 1_555
H31 C32 1_555 1_555
H32 C32 1_555 1_555
O13 C16 1_555 1_555
C33 O13 1_555 1_555
H33 C33 1_555 1_555
H34 C33 1_555 1_555
C34 C33 1_555 1_555
H35 C34 1_555 1_555
H36 C34 1_555 1_555
C35 C34 1_555 1_555
H37 C35 1_555 1_555
H38 C35 1_555 1_555
H39 C35 1_555 1_555
O14 C18 1_555 1_555
C36 O14 1_555 1_555
H40 C36 1_555 1_555
H41 C36 1_555 1_555
C37 C36 1_555 1_555
H42 C37 1_555 1_555
H43 C37 1_555 1_555
C38 C37 1_555 1_555
H44 C38 1_555 1_555
H45 C38 1_555 1_555
H46 C38 1_555 1_555
O15 C22 1_555 1_555
C39 O15 1_555 1_555
H47 C39 1_555 1_555
H48 C39 1_555 1_555
H49 C39 1_555 1_555
O16 C24 1_555 1_555
C40 O16 1_555 1_555
H50 C40 1_555 1_555
H51 C40 1_555 1_555
H52 C40 1_555 1_555
C41 H53 1_555 1_555
N5 C41 1_555 1_555
O17 C41 1_555 1_555
C42 N5 1_555 1_555
H54 C42 1_555 1_555
H55 C42 1_555 1_555
H56 C42 1_555 1_555
C43 N5 1_555 1_555
H57 C43 1_555 1_555
H58 C43 1_555 1_555
H59 C43 1_555 1_555
C44 H60 1_555 1_555
N6 C44 1_555 1_555
O18 C44 1_555 1_555
C45 N6 1_555 1_555
H61 C45 1_555 1_555
H62 C45 1_555 1_555
H63 C45 1_555 1_555
C46 N6 1_555 1_555
H64 C46 1_555 1_555
H65 C46 1_555 1_555
H66 C46 1_555 1_555
C47 H67 1_555 1_555
N7 C47 1_555 1_555
O19 C47 1_555 1_555
C48 N7 1_555 1_555
H68 C48 1_555 1_555
H69 C48 1_555 1_555
H70 C48 1_555 1_555
C49 N7 1_555 1_555
H71 C49 1_555 1_555
H72 C49 1_555 1_555
H73 C49 1_555 1_555
C2 C3 1_555 1_555
C5 C6 1_555 1_555
C9 C10 1_555 1_555
C12 C13 1_555 1_555
C14 C15 1_555 1_555
C17 C18 1_555 1_555
C20 C21 1_555 1_555
C23 C24 1_555 1_555

#END
