
#######################################################################
#
#                 Cambridge Crystallographic Data Centre
#                                CCDC 
#
#######################################################################
#
# If this CIF has been generated from an entry in the Cambridge 
# Structural Database, then it will include bibliographic, chemical, 
# crystal, experimental, refinement or atomic coordinate data resulting 
# from the CCDC's data processing and validation procedures.
#
#######################################################################

data_CATTID
_chemical_formula_moiety         'C16 H13 Br3 O1'
_chemical_name_systematic        2,3,4-tribromo-1,4-diphenylbutan-1-one
_symmetry_cell_setting           monoclinic
_symmetry_space_group_name_H-M   'P 21'
_symmetry_Int_Tables_number      4
_space_group_name_Hall           'P 2yb'
loop_
_symmetry_equiv_pos_site_id
_symmetry_equiv_pos_as_xyz
1 x,y,z
2 -x,1/2+y,-z
_cell_length_a                   6.7844(4)
_cell_length_b                   7.0774(6)
_cell_length_c                   17.2752(10)
_cell_angle_alpha                90
_cell_angle_beta                 100.264(5)
_cell_angle_gamma                90
_cell_volume                     816.21
_exptl_crystal_colour            colorless
_exptl_crystal_description       block
_cell_formula_units_Z            2
loop_
_atom_site_label
_atom_site_type_symbol
_atom_site_fract_x
_atom_site_fract_y
_atom_site_fract_z
Br1 Br 0.37002(17) 0.6791(2) 0.20352(8)
Br2 Br 0.95891(18) 0.3483(3) 0.28217(8)
Br3 Br 0.4826(2) 0.1486(2) 0.27539(7)
O1 O 0.8745(13) 0.794(2) 0.2246(5)
C1 C 0.7623(16) 0.700(2) 0.1776(7)
C2 C 0.6663(16) 0.332(3) 0.4183(6)
C3 C 0.7521(16) 0.7215(18) 0.0920(6)
C4 C 0.6275(15) 0.554(2) 0.2080(7)
H1 H 0.6110 0.4442 0.1731
C5 C 0.6334(18) 0.612(2) 0.0369(6)
H2 H 0.5465 0.5255 0.0534
C6 C 0.7131(16) 0.492(2) 0.2914(7)
H3 H 0.7544 0.6053 0.3225
C7 C 0.890(2) 0.865(3) -0.0144(8)
H4 H 0.9759 0.9519 -0.0309
C8 C 0.8828(18) 0.844(2) 0.0662(7)
H5 H 0.9688 0.9160 0.1027
C9 C 0.639(2) 0.627(2) -0.0447(7)
H6 H 0.5571 0.5520 -0.0815
C10 C 0.7728(17) 0.171(3) 0.4422(7)
H7 H 0.7918 0.0817 0.4047
C11 C 0.770(2) 0.757(2) -0.0673(8)
H8 H 0.7763 0.7699 -0.1204
C12 C 0.5774(16) 0.378(2) 0.3354(7)
H9 H 0.4590 0.4557 0.3371
C13 C 0.647(2) 0.470(3) 0.4729(8)
H10 H 0.5795 0.5809 0.4568
C14 C 0.854(2) 0.136(3) 0.5224(7)
H11 H 0.9193 0.0228 0.5384
C15 C 0.833(2) 0.280(4) 0.5770(8)
H12 H 0.8900 0.2628 0.6296
C16 C 0.732(2) 0.443(4) 0.5550(9)
H13 H 0.7168 0.5347 0.5920
loop_
_geom_bond_atom_site_label_1
_geom_bond_atom_site_label_2
_geom_bond_site_symmetry_1
_geom_bond_site_symmetry_2
Br1 C4 1_555 1_555
Br2 C6 1_555 1_555
Br3 C12 1_555 1_555
O1 C1 1_555 1_555
C1 C3 1_555 1_555
C2 C10 1_555 1_555
C3 C5 1_555 1_555
C4 C1 1_555 1_555
H1 C4 1_555 1_555
C5 H2 1_555 1_555
C6 C4 1_555 1_555
H3 C6 1_555 1_555
C7 H4 1_555 1_555
C8 C3 1_555 1_555
H5 C8 1_555 1_555
C9 C5 1_555 1_555
H6 C9 1_555 1_555
C10 H7 1_555 1_555
C11 C7 1_555 1_555
H8 C11 1_555 1_555
C12 C2 1_555 1_555
H9 C12 1_555 1_555
C13 C2 1_555 1_555
H10 C13 1_555 1_555
C14 C10 1_555 1_555
H11 C14 1_555 1_555
C15 C14 1_555 1_555
H12 C15 1_555 1_555
C16 C13 1_555 1_555
H13 C16 1_555 1_555
C6 C12 1_555 1_555
C7 C8 1_555 1_555
C9 C11 1_555 1_555
C15 C16 1_555 1_555

#END
