
#######################################################################
#
#                 Cambridge Crystallographic Data Centre
#                                CCDC 
#
#######################################################################
#
# If this CIF has been generated from an entry in the Cambridge 
# Structural Database, then it will include bibliographic, chemical, 
# crystal, experimental, refinement or atomic coordinate data resulting 
# from the CCDC's data processing and validation procedures.
#
#######################################################################

data_CATTEZ
_chemical_formula_moiety         'C12 H12 Br4 O1'
_chemical_name_systematic        2,3,4,5-tetrabromo-1-phenylhexan-1-one
_symmetry_cell_setting           triclinic
_symmetry_space_group_name_H-M   'P 1'
_symmetry_Int_Tables_number      1
_space_group_name_Hall           'P 1'
loop_
_symmetry_equiv_pos_site_id
_symmetry_equiv_pos_as_xyz
1 x,y,z
_cell_length_a                   7.9449(4)
_cell_length_b                   8.9886(5)
_cell_length_c                   11.8159(7)
_cell_angle_alpha                107.740(5)
_cell_angle_beta                 101.952(5)
_cell_angle_gamma                103.735(5)
_cell_volume                     744.25
_exptl_crystal_colour            colorless
_exptl_crystal_description       Block
_cell_formula_units_Z            2
loop_
_atom_site_label
_atom_site_type_symbol
_atom_site_fract_x
_atom_site_fract_y
_atom_site_fract_z
Br1 Br 0.21912(15) 0.09710(12) 0.42446(9)
Br2 Br 0.34548(14) 0.06457(12) 0.05469(9)
Br3 Br 0.71585(14) -0.07463(14) 0.26028(11)
Br4 Br 0.08795(14) -0.27585(13) 0.10629(10)
O1 O 0.4503(9) 0.3838(8) 0.3286(7)
C1 C 0.1532(12) 0.3938(11) 0.3113(8)
C2 C 0.3363(12) -0.1340(10) 0.2075(8)
H1 H 0.3531 -0.1351 0.2918
C3 C 0.3612(13) 0.0434(12) 0.2172(8)
H2 H 0.4835 0.1112 0.2732
C4 C 0.2917(13) 0.3093(12) 0.3026(8)
C5 C 0.2285(13) 0.1218(11) 0.2652(8)
H3 H 0.1075 0.0717 0.2038
C6 C 0.4672(13) -0.2126(12) 0.1530(9)
H4 H 0.4530 -0.2133 0.0685
C7 C -0.1502(15) 0.4069(15) 0.2533(11)
H5 H -0.2710 0.3574 0.2042
C8 C 0.0852(18) 0.6380(14) 0.4107(11)
H6 H 0.1231 0.7448 0.4695
C9 C 0.2093(15) 0.5568(12) 0.3963(10)
H7 H 0.3309 0.6098 0.4429
C10 C -0.0289(14) 0.3216(13) 0.2391(10)
H8 H -0.0686 0.2145 0.1805
C11 C -0.0944(17) 0.5652(15) 0.3399(11)
H9 H -0.1771 0.6223 0.3504
C12 C 0.4407(19) -0.3863(14) 0.1499(13)
H10 H 0.5394 -0.4212 0.1293
H11 H 0.3281 -0.4594 0.0883
H12 H 0.4377 -0.3885 0.2302
Br5 Br 0.74234(15) 0.86375(13) 0.94480(9)
Br6 Br 0.67100(17) 0.94136(13) 0.57114(9)
Br7 Br 0.28971(19) 1.07583(19) 0.72708(13)
Br8 Br 0.91968(18) 1.25673(15) 0.86612(13)
O2 O 0.5422(10) 0.5994(9) 0.6490(7)
C13 C 0.7600(12) 0.8616(11) 0.7800(8)
H13 H 0.8856 0.9177 0.7866
C14 C 0.6358(14) 0.9469(11) 0.7325(8)
H14 H 0.5103 0.8800 0.7166
C15 C 0.7042(12) 0.6785(12) 0.6996(8)
C16 C 0.8486(13) 0.6005(11) 0.6841(8)
C17 C 0.6636(14) 1.1208(12) 0.8175(9)
H15 H 0.6380 1.1140 0.8937
C18 C 1.0251(13) 0.6739(13) 0.7591(9)
H16 H 1.0574 0.7760 0.8230
C19 C 0.8016(15) 0.4481(13) 0.5900(9)
H17 H 0.6822 0.3961 0.5386
C20 C 0.5448(17) 1.2109(13) 0.7686(10)
H18 H 0.5686 1.2217 0.6929
C21 C 1.1087(16) 0.4483(13) 0.6473(10)
H19 H 1.1959 0.3973 0.6345
C22 C 0.9311(17) 0.3735(14) 0.5721(10)
H20 H 0.8985 0.2710 0.5084
C23 C 1.1554(16) 0.6001(15) 0.7419(11)
H21 H 1.2745 0.6521 0.7938
C24 C 0.571(2) 1.3798(15) 0.8609(13)
H22 H 0.4745 1.4186 0.8316
H23 H 0.6855 1.4549 0.8695
H24 H 0.5699 1.3730 0.9403
loop_
_geom_bond_atom_site_label_1
_geom_bond_atom_site_label_2
_geom_bond_site_symmetry_1
_geom_bond_site_symmetry_2
Br1 C5 1_555 1_555
Br2 C3 1_555 1_555
Br3 C6 1_555 1_555
Br4 C2 1_555 1_555
O1 C4 1_555 1_555
C1 C4 1_555 1_555
C2 H1 1_555 1_555
C3 C2 1_555 1_555
H2 C3 1_555 1_555
C4 C5 1_555 1_555
C5 C3 1_555 1_555
H3 C5 1_555 1_555
C6 C2 1_555 1_555
H4 C6 1_555 1_555
C7 H5 1_555 1_555
C8 H6 1_555 1_555
C9 C1 1_555 1_555
H7 C9 1_555 1_555
C10 C1 1_555 1_555
H8 C10 1_555 1_555
C11 C7 1_555 1_555
H9 C11 1_555 1_555
C12 C6 1_555 1_555
H10 C12 1_555 1_555
H11 C12 1_555 1_555
H12 C12 1_555 1_555
Br5 C13 1_555 1_555
Br6 C14 1_555 1_555
Br7 C20 1_555 1_555
Br8 C17 1_555 1_555
O2 C15 1_555 1_555
C13 H13 1_555 1_555
C14 C13 1_555 1_555
H14 C14 1_555 1_555
C15 C13 1_555 1_555
C16 C15 1_555 1_555
C17 C14 1_555 1_555
H15 C17 1_555 1_555
C18 C16 1_555 1_555
H16 C18 1_555 1_555
C19 C16 1_555 1_555
H17 C19 1_555 1_555
C20 C17 1_555 1_555
H18 C20 1_555 1_555
C21 H19 1_555 1_555
C22 C19 1_555 1_555
H20 C22 1_555 1_555
C23 C18 1_555 1_555
H21 C23 1_555 1_555
C24 C20 1_555 1_555
H22 C24 1_555 1_555
H23 C24 1_555 1_555
H24 C24 1_555 1_555
C7 C10 1_555 1_555
C8 C9 1_555 1_555
C8 C11 1_555 1_555
C21 C22 1_555 1_555
C21 C23 1_555 1_555

#END
