
#######################################################################
#
#                 Cambridge Crystallographic Data Centre
#                                CCDC 
#
#######################################################################
#
# If this CIF has been generated from an entry in the Cambridge 
# Structural Database, then it will include bibliographic, chemical, 
# crystal, experimental, refinement or atomic coordinate data resulting 
# from the CCDC's data processing and validation procedures.
#
#######################################################################

data_CATWEC
_chemical_formula_moiety         'C19 H18 Br1 Cl3 O2'
_chemical_name_systematic        '2,3,4-trichloro-1-phenylhexyl 4-bromobenzoate'
_symmetry_cell_setting           monoclinic
_symmetry_space_group_name_H-M   'P 21/n'
_symmetry_Int_Tables_number      14
_space_group_name_Hall           '-P 2yn'
loop_
_symmetry_equiv_pos_site_id
_symmetry_equiv_pos_as_xyz
1 x,y,z
2 1/2-x,1/2+y,1/2-z
3 -x,-y,-z
4 1/2+x,1/2-y,1/2+z
_cell_length_a                   5.6770(3)
_cell_length_b                   12.7750(5)
_cell_length_c                   27.3695(16)
_cell_angle_alpha                90
_cell_angle_beta                 94.076(5)
_cell_angle_gamma                90
_cell_volume                     1979.92
_exptl_crystal_colour            colorless
_exptl_crystal_description       Block
_cell_formula_units_Z            4
loop_
_atom_site_label
_atom_site_type_symbol
_atom_site_fract_x
_atom_site_fract_y
_atom_site_fract_z
Br1 Br 0.89059(12) 0.32322(5) 0.27483(3)
Cl1 Cl 0.6832(2) 0.89851(12) 0.46258(6)
Cl2 Cl 0.1296(3) 0.66670(11) 0.45609(7)
Cl3 Cl 0.2014(5) 0.80598(19) 0.55555(8)
O1 O 0.4604(6) 0.7627(3) 0.37405(13)
O2 O 0.1724(6) 0.7431(3) 0.31403(15)
C1 C 0.4960(8) 0.6224(4) 0.31994(19)
C2 C 0.3545(8) 0.9492(4) 0.37142(18)
C3 C 0.5139(9) 0.4681(4) 0.2693(2)
H1 H 0.4474 0.4246 0.2448
C4 C 0.3555(9) 0.7146(4) 0.3341(2)
C5 C 0.7292(9) 0.4456(4) 0.2926(2)
C6 C 0.3976(9) 0.5577(4) 0.2833(2)
H2 H 0.2514 0.5745 0.2678
C7 C 0.3923(9) 0.8442(4) 0.4503(2)
H3 H 0.2797 0.8883 0.4665
C8 C 0.5434(9) 0.9717(4) 0.3440(2)
H4 H 0.6573 0.9208 0.3398
C9 C 0.3245(9) 0.8446(4) 0.3957(2)
H5 H 0.1573 0.8254 0.3910
C10 C 0.7124(9) 0.5980(4) 0.3421(2)
H6 H 0.7812 0.6415 0.3664
C11 C 0.1892(9) 1.0255(4) 0.3772(2)
H7 H 0.0603 1.0116 0.3954
C12 C 0.3997(11) 1.1440(5) 0.3289(2)
H8 H 0.4137 1.2093 0.3144
C13 C 0.8294(9) 0.5087(4) 0.3285(2)
H9 H 0.9760 0.4917 0.3438
C14 C 0.2132(10) 1.1233(4) 0.3562(2)
H10 H 0.1016 1.1751 0.3606
C15 C 0.5649(10) 1.0692(5) 0.3229(2)
H11 H 0.6927 1.0835 0.3045
C16 C 0.3985(10) 0.7365(4) 0.4749(2)
H12 H 0.5294 0.6975 0.4621
C17 C 0.4378(13) 0.7367(5) 0.5286(3)
H13 H 0.5845 0.7752 0.5370
C18 C 0.473(2) 0.6246(7) 0.5477(4)
H14 H 0.5385 0.5832 0.5223
H15 H 0.3187 0.5957 0.5531
C19 C 0.632(2) 0.6115(8) 0.5950(4)
H16 H 0.6411 0.5387 0.6036
H17 H 0.7867 0.6375 0.5900
H18 H 0.5662 0.6501 0.6209
loop_
_geom_bond_atom_site_label_1
_geom_bond_atom_site_label_2
_geom_bond_site_symmetry_1
_geom_bond_site_symmetry_2
Br1 C5 1_555 1_555
Cl1 C7 1_555 1_555
Cl2 C16 1_555 1_555
Cl3 C17 1_555 1_555
O1 C4 1_555 1_555
O2 C4 1_555 1_555
C1 C4 1_555 1_555
C2 C8 1_555 1_555
C3 H1 1_555 1_555
C5 C3 1_555 1_555
C6 C1 1_555 1_555
H2 C6 1_555 1_555
C7 H3 1_555 1_555
C8 H4 1_555 1_555
C9 O1 1_555 1_555
H5 C9 1_555 1_555
C10 C1 1_555 1_555
H6 C10 1_555 1_555
C11 C2 1_555 1_555
H7 C11 1_555 1_555
C12 H8 1_555 1_555
C13 C5 1_555 1_555
H9 C13 1_555 1_555
C14 C11 1_555 1_555
H10 C14 1_555 1_555
C15 C8 1_555 1_555
H11 C15 1_555 1_555
C16 C7 1_555 1_555
H12 C16 1_555 1_555
C17 C16 1_555 1_555
H13 C17 1_555 1_555
C18 C17 1_555 1_555
H14 C18 1_555 1_555
H15 C18 1_555 1_555
C19 C18 1_555 1_555
H16 C19 1_555 1_555
H17 C19 1_555 1_555
H18 C19 1_555 1_555
C2 C9 1_555 1_555
C3 C6 1_555 1_555
C7 C9 1_555 1_555
C10 C13 1_555 1_555
C12 C14 1_555 1_555
C12 C15 1_555 1_555

#END
