
#######################################################################
#
#                 Cambridge Crystallographic Data Centre
#                                CCDC 
#
#######################################################################
#
# If this CIF has been generated from an entry in the Cambridge 
# Structural Database, then it will include bibliographic, chemical, 
# crystal, experimental, refinement or atomic coordinate data resulting 
# from the CCDC's data processing and validation procedures.
#
#######################################################################

data_CATXUT
_chemical_formula_moiety         'C26 H14 N8 O10'
_chemical_name_systematic        
N,N'-bis(5,7-dinitroquinolin-8-yl)terephthalamide
_symmetry_cell_setting           monoclinic
_symmetry_space_group_name_H-M   'P 21/c'
_symmetry_Int_Tables_number      14
_space_group_name_Hall           '-P 2ybc'
loop_
_symmetry_equiv_pos_site_id
_symmetry_equiv_pos_as_xyz
1 x,y,z
2 -x,1/2+y,1/2-z
3 -x,-y,-z
4 x,1/2-y,1/2+z
_cell_length_a                   10.9855(8)
_cell_length_b                   9.2181(6)
_cell_length_c                   12.8539(9)
_cell_angle_alpha                90
_cell_angle_beta                 111.377(3)
_cell_angle_gamma                90
_cell_volume                     1212.1
_exptl_crystal_colour            yellow
_exptl_crystal_description       block
_cell_formula_units_Z            2
loop_
_atom_site_label
_atom_site_type_symbol
_atom_site_fract_x
_atom_site_fract_y
_atom_site_fract_z
O1 O 0.5744(2) 0.2981(2) 0.20733(18)
H1 H 0.888(4) 0.251(5) 0.761(3)
O2 O 0.7970(2) -0.0433(2) 0.70589(18)
O3 O 0.7860(2) -0.0858(2) 0.45551(18)
N1 N 0.5718(2) 0.3738(3) 0.28435(19)
N2 N 0.8732(2) 0.1864(3) 0.72194(19)
N3 N 0.7896(2) 0.4558(3) 0.69292(19)
C1 C 0.6521(2) 0.3318(3) 0.3991(2)
C2 C 0.6789(2) 0.4305(3) 0.4906(2)
O4 O 0.4982(3) 0.4762(3) 0.2697(2)
C3 C 0.7551(2) 0.3752(3) 0.5977(2)
O5 O 0.9580(2) -0.0068(3) 0.59044(19)
N4 N 0.8459(2) 0.0074(3) 0.52276(19)
C4 C 0.8043(2) 0.2296(3) 0.6130(2)
C5 C 0.8642(3) 0.0514(3) 0.7647(2)
C6 C 0.9367(2) 0.0292(3) 0.8865(2)
C7 C 0.9837(3) -0.1334(3) 1.0436(2)
H2 H 0.9716 -0.2245 1.0730
C8 C 0.9220(3) -0.1045(3) 0.9312(2)
H3 H 0.8686 -0.1769 0.8835
C9 C 0.7807(3) 0.1456(3) 0.5186(2)
C10 C 0.7019(2) 0.1952(3) 0.4123(2)
H4 H 0.6833 0.1332 0.3493
C11 C 0.6400(3) 0.5780(3) 0.4863(2)
H5 H 0.5886 0.6209 0.4170
C12 C 0.6766(3) 0.6574(3) 0.5819(2)
H6 H 0.6516 0.7563 0.5798
C13 C 0.7518(3) 0.5920(3) 0.6840(2)
H7 H 0.7765 0.6492 0.7500
O1B O 1.4256(2) -0.2981(2) 1.79267(18)
H1B H 1.112(4) -0.251(5) 1.239(3)
O2B O 1.2030(2) 0.0433(2) 1.29411(18)
O3B O 1.2140(2) 0.0858(2) 1.54449(18)
N1B N 1.4282(2) -0.3738(3) 1.71565(19)
N2B N 1.1268(2) -0.1864(3) 1.27806(19)
N3B N 1.2104(2) -0.4558(3) 1.30708(19)
C1B C 1.3479(2) -0.3318(3) 1.6009(2)
C2B C 1.3211(2) -0.4305(3) 1.5094(2)
O4B O 1.5018(3) -0.4762(3) 1.7303(2)
C3B C 1.2449(2) -0.3752(3) 1.4023(2)
O5B O 1.0420(2) 0.0068(3) 1.40956(19)
N4B N 1.1541(2) -0.0074(3) 1.47724(19)
C4B C 1.1957(2) -0.2296(3) 1.3870(2)
C5B C 1.1358(3) -0.0514(3) 1.2353(2)
C6B C 1.0633(2) -0.0292(3) 1.1135(2)
C7B C 1.0163(3) 0.1334(3) 0.9564(2)
H2B H 1.0284 0.2245 0.9270
C8B C 1.0780(3) 0.1045(3) 1.0688(2)
H3B H 1.1314 0.1769 1.1165
C9B C 1.2193(3) -0.1456(3) 1.4814(2)
C10B C 1.2981(2) -0.1952(3) 1.5877(2)
H4B H 1.3167 -0.1332 1.6507
C11B C 1.3600(3) -0.5780(3) 1.5137(2)
H5B H 1.4114 -0.6209 1.5830
C12B C 1.3234(3) -0.6574(3) 1.4181(2)
H6B H 1.3484 -0.7563 1.4202
C13B C 1.2482(3) -0.5920(3) 1.3160(2)
H7B H 1.2235 -0.6492 1.2500
loop_
_geom_bond_atom_site_label_1
_geom_bond_atom_site_label_2
_geom_bond_site_symmetry_1
_geom_bond_site_symmetry_2
O1 N1 1_555 1_555
H1 N2 1_555 1_555
O2 C5 1_555 1_555
O3 N4 1_555 1_555
N1 C1 1_555 1_555
N2 C4 1_555 1_555
N3 C3 1_555 1_555
C1 C2 1_555 1_555
C2 C3 1_555 1_555
O4 N1 1_555 1_555
C3 C4 1_555 1_555
O5 N4 1_555 1_555
N4 C9 1_555 1_555
C4 C9 1_555 1_555
C5 N2 1_555 1_555
C6 C5 1_555 1_555
C7 H2 1_555 1_555
C8 C6 1_555 1_555
H3 C8 1_555 1_555
C9 C10 1_555 1_555
C10 C1 1_555 1_555
H4 C10 1_555 1_555
C11 C2 1_555 1_555
H5 C11 1_555 1_555
C12 C11 1_555 1_555
H6 C12 1_555 1_555
C13 N3 1_555 1_555
H7 C13 1_555 1_555
O1B N1B 1_555 1_555
H1B N2B 1_555 1_555
O2B C5B 1_555 1_555
O3B N4B 1_555 1_555
N1B C1B 1_555 1_555
N2B C4B 1_555 1_555
N3B C3B 1_555 1_555
C1B C2B 1_555 1_555
C2B C3B 1_555 1_555
O4B N1B 1_555 1_555
C3B C4B 1_555 1_555
O5B N4B 1_555 1_555
N4B C9B 1_555 1_555
C4B C9B 1_555 1_555
C5B N2B 1_555 1_555
C6B C7 1_555 1_555
C7B C6 1_555 1_555
H2B C7B 1_555 1_555
C8B C6B 1_555 1_555
H3B C8B 1_555 1_555
C9B C10B 1_555 1_555
C10B C1B 1_555 1_555
H4B C10B 1_555 1_555
C11B C2B 1_555 1_555
H5B C11B 1_555 1_555
C12B C11B 1_555 1_555
H6B C12B 1_555 1_555
C13B N3B 1_555 1_555
H7B C13B 1_555 1_555
C7 C8 1_555 1_555
C12 C13 1_555 1_555
C5B C6B 1_555 1_555
C7B C8B 1_555 1_555
C12B C13B 1_555 1_555

#END
