
#######################################################################
#
#                 Cambridge Crystallographic Data Centre
#                                CCDC 
#
#######################################################################
#
# If this CIF has been generated from an entry in the Cambridge 
# Structural Database, then it will include bibliographic, chemical, 
# crystal, experimental, refinement or atomic coordinate data resulting 
# from the CCDC's data processing and validation procedures.
#
#######################################################################

data_CATYIH
_chemical_compound_source        
'prepared from the corresponding methyl d-glycopyranosides'
_chemical_formula_moiety         'C17 H27 N1 O10,C1 H4 O1'
_chemical_name_systematic        
'((5S)-3-(2,3-O-Isopropylidene-5-deoxy-D-lyxofuranos-4-yl)isoxazoline-5-yl) methyl \a-C-D-galactopyranoside methanol solvate'
_chemical_properties_biological  
'Exhibited very good HIV-RT inhibitory activity with IC50 value 4.31  M, and antitumor activity has been preliminarily evaluated'
_symmetry_cell_setting           orthorhombic
_symmetry_space_group_name_H-M   'P 21 21 21'
_symmetry_Int_Tables_number      19
_space_group_name_Hall           'P 2ac 2ab'
loop_
_symmetry_equiv_pos_site_id
_symmetry_equiv_pos_as_xyz
1 x,y,z
2 1/2+x,1/2-y,-z
3 -x,1/2+y,1/2-z
4 1/2-x,-y,1/2+z
_cell_length_a                   5.6153(3)
_cell_length_b                   14.9789(7)
_cell_length_c                   25.5449(12)
_cell_angle_alpha                90
_cell_angle_beta                 90
_cell_angle_gamma                90
_cell_volume                     2148.61
_cell_formula_units_Z            4
loop_
_atom_site_label
_atom_site_type_symbol
_atom_site_fract_x
_atom_site_fract_y
_atom_site_fract_z
N1 N 1.2910(3) 0.16777(10) 0.39646(5)
O1 O 1.0731(2) -0.13245(9) 0.26430(5)
H1 H 0.9929 -0.1482 0.2895
O2 O 0.96691(17) 0.05002(6) 0.24084(3)
O3 O 0.7042(2) 0.01557(8) 0.14856(4)
H2 H 0.6087 0.0385 0.1283
O4 O 0.32303(19) 0.12557(8) 0.17768(4)
H3 H 0.1963 0.0991 0.1812
O5 O 0.5646(2) 0.24426(7) 0.24357(5)
H4 H 0.6628 0.2846 0.2457
O6 O 1.2108(2) 0.14454(11) 0.34631(4)
O7 O 0.9948(2) 0.14919(7) 0.51630(4)
O8 O 1.1607(3) 0.20532(8) 0.59333(5)
H5 H 1.0597 0.2440 0.5981
O9 O 1.1252(3) -0.02483(8) 0.56165(5)
O10 O 1.3265(2) -0.01137(7) 0.48666(4)
C1 C 0.9201(3) -0.10458(10) 0.22307(7)
H6 H 0.8040 -0.1510 0.2160
H7 H 1.0130 -0.0954 0.1915
C2 C 0.7925(3) -0.01915(9) 0.23717(5)
H8 H 0.7197 -0.0269 0.2717
C3 C 0.5991(3) 0.00788(10) 0.19900(6)
H9 H 0.4762 -0.0386 0.1981
C4 C 0.4878(3) 0.09544(9) 0.21653(5)
H10 H 0.4034 0.0862 0.2497
C5 C 0.6762(3) 0.16641(9) 0.22388(5)
H11 H 0.7464 0.1803 0.1897
C6 C 0.8748(2) 0.13317(9) 0.26060(5)
H12 H 1.0047 0.1767 0.2583
C7 C 0.8050(3) 0.12742(10) 0.31814(5)
H13 H 0.7685 0.1868 0.3310
H14 H 0.6626 0.0912 0.3215
C8 C 1.0005(3) 0.08746(12) 0.35105(6)
H15 H 1.0381 0.0274 0.3382
C9 C 0.9493(3) 0.08373(13) 0.40976(6)
H16 H 0.8002 0.1130 0.4183
H17 H 0.9459 0.0227 0.4225
C10 C 1.1576(3) 0.13383(10) 0.43094(5)
C11 C 1.2146(3) 0.14692(10) 0.48764(5)
H18 H 1.2983 0.2038 0.4922
C12 C 1.3613(3) 0.07177(10) 0.51262(5)
H19 H 1.5303 0.0873 0.5157
C13 C 1.2422(3) 0.05914(11) 0.56640(5)
H20 H 1.3558 0.0610 0.5955
C14 C 1.0564(3) 0.13188(10) 0.56940(5)
H21 H 0.9171 0.1116 0.5892
C15 C 1.2552(3) -0.07573(11) 0.52440(7)
C16 C 1.0889(4) -0.14006(14) 0.49846(10)
H22 H 0.9551 -0.1081 0.4844
H23 H 1.0341 -0.1829 0.5237
H24 H 1.1707 -0.1704 0.4707
C17 C 1.4676(5) -0.12021(14) 0.54910(9)
H25 H 1.5502 -0.1549 0.5232
H26 H 1.4153 -0.1586 0.5769
H27 H 1.5728 -0.0755 0.5629
O11 O 0.2191(4) 0.30895(12) 0.15501(8)
H28 H 0.2663 0.2621 0.1680
C18 C 0.4068(7) 0.3508(2) 0.12886(12)
H29 H 0.5237 0.3701 0.1538
H30 H 0.3474 0.4015 0.1099
H31 H 0.4785 0.3095 0.1048
loop_
_geom_bond_atom_site_label_1
_geom_bond_atom_site_label_2
_geom_bond_site_symmetry_1
_geom_bond_site_symmetry_2
N1 O6 1_555 1_555
O1 H1 1_555 1_555
O2 C2 1_555 1_555
O3 H2 1_555 1_555
O4 H3 1_555 1_555
O5 H4 1_555 1_555
O6 C8 1_555 1_555
O7 C11 1_555 1_555
O8 H5 1_555 1_555
O9 C13 1_555 1_555
O10 C12 1_555 1_555
C1 O1 1_555 1_555
H6 C1 1_555 1_555
H7 C1 1_555 1_555
C2 C1 1_555 1_555
H8 C2 1_555 1_555
C3 O3 1_555 1_555
H9 C3 1_555 1_555
C4 O4 1_555 1_555
H10 C4 1_555 1_555
C5 O5 1_555 1_555
H11 C5 1_555 1_555
C6 O2 1_555 1_555
H12 C6 1_555 1_555
C7 C6 1_555 1_555
H13 C7 1_555 1_555
H14 C7 1_555 1_555
C8 C7 1_555 1_555
H15 C8 1_555 1_555
C9 C8 1_555 1_555
H16 C9 1_555 1_555
H17 C9 1_555 1_555
C10 N1 1_555 1_555
C11 C10 1_555 1_555
H18 C11 1_555 1_555
C12 C11 1_555 1_555
H19 C12 1_555 1_555
C13 C12 1_555 1_555
H20 C13 1_555 1_555
C14 O7 1_555 1_555
H21 C14 1_555 1_555
C15 O9 1_555 1_555
C16 C15 1_555 1_555
H22 C16 1_555 1_555
H23 C16 1_555 1_555
H24 C16 1_555 1_555
C17 C15 1_555 1_555
H25 C17 1_555 1_555
H26 C17 1_555 1_555
H27 C17 1_555 1_555
O11 H28 1_555 1_555
C18 O11 1_555 1_555
H29 C18 1_555 1_555
H30 C18 1_555 1_555
H31 C18 1_555 1_555
O8 C14 1_555 1_555
O10 C15 1_555 1_555
C2 C3 1_555 1_555
C3 C4 1_555 1_555
C4 C5 1_555 1_555
C5 C6 1_555 1_555
C9 C10 1_555 1_555
C13 C14 1_555 1_555

#END
