
#######################################################################
#
#                 Cambridge Crystallographic Data Centre
#                                CCDC 
#
#######################################################################
#
# If this CIF has been generated from an entry in the Cambridge 
# Structural Database, then it will include bibliographic, chemical, 
# crystal, experimental, refinement or atomic coordinate data resulting 
# from the CCDC's data processing and validation procedures.
#
#######################################################################

data_CAVCIN
_chemical_formula_moiety         'C30 H44 N2 O2'
_chemical_name_systematic        
2,2'-(Hydrazine-1,2-diylidenedimethylylidene)bis(4,6-di-t-butylphenol)
_symmetry_cell_setting           triclinic
_symmetry_space_group_name_H-M   'P -1'
_symmetry_Int_Tables_number      2
_space_group_name_Hall           '-P 1'
loop_
_symmetry_equiv_pos_site_id
_symmetry_equiv_pos_as_xyz
1 x,y,z
2 -x,-y,-z
_cell_length_a                   6.4048(8)
_cell_length_b                   10.3535(12)
_cell_length_c                   11.3096(14)
_cell_angle_alpha                81.512(3)
_cell_angle_beta                 86.313(2)
_cell_angle_gamma                72.688(2)
_cell_volume                     707.981
_exptl_crystal_colour            yellow
_exptl_crystal_description       block
_cell_formula_units_Z            1
loop_
_atom_site_label
_atom_site_type_symbol
_atom_site_fract_x
_atom_site_fract_y
_atom_site_fract_z
O1 O 0.2619(3) 0.65300(16) 0.15206(18)
H1 H 0.1671 0.6388 0.1147
N1 N 0.0751(3) 0.5146(2) 0.0350(2)
C1 C 0.4240(4) 0.5345(2) 0.1788(2)
C2 C 0.4204(4) 0.4169(2) 0.1317(2)
C3 C 0.5889(4) 0.2962(2) 0.1592(2)
H2 H 0.5856 0.2187 0.1279
C4 C 0.7596(4) 0.2876(2) 0.2306(2)
C5 C 0.7571(4) 0.4070(2) 0.2754(2)
H3 H 0.8711 0.4032 0.3241
C6 C 0.5946(4) 0.5318(2) 0.2519(2)
C7 C 0.2448(4) 0.4138(3) 0.0591(2)
H4 H 0.2563 0.3336 0.0281
C8 C 0.9345(4) 0.1507(2) 0.2631(2)
C9 C 0.8255(5) 0.0538(3) 0.3425(3)
H5 H 0.7748 0.0896 0.4161
H6 H 0.9299 -0.0346 0.3591
H7 H 0.7039 0.0460 0.3016
C10 C 1.0264(5) 0.0880(3) 0.1491(3)
H8 H 0.9096 0.0761 0.1069
H9 H 1.1323 0.0010 0.1701
H10 H 1.0950 0.1477 0.0990
C11 C 1.1223(4) 0.1636(3) 0.3317(3)
H11 H 1.1875 0.2278 0.2857
H12 H 1.2302 0.0762 0.3462
H13 H 1.0679 0.1950 0.4067
C12 C 0.6007(4) 0.6586(3) 0.3060(2)
C13 C 0.3949(5) 0.7062(3) 0.3846(3)
H14 H 0.2672 0.7290 0.3367
H15 H 0.3993 0.7852 0.4183
H16 H 0.3895 0.6343 0.4477
C14 C 0.6128(5) 0.7740(3) 0.2054(3)
H17 H 0.7511 0.7485 0.1636
H18 H 0.5982 0.8561 0.2393
H19 H 0.4967 0.7895 0.1506
C15 C 0.8004(5) 0.6291(3) 0.3842(3)
H20 H 0.7961 0.5586 0.4489
H21 H 0.7987 0.7105 0.4158
H22 H 0.9315 0.5998 0.3369
O1A O -0.2619(3) 0.34700(16) -0.15206(18)
H1A H -0.1671 0.3612 -0.1147
N1A N -0.0751(3) 0.4854(2) -0.0350(2)
C1A C -0.4240(4) 0.4655(2) -0.1788(2)
C2A C -0.4204(4) 0.5831(2) -0.1317(2)
C3A C -0.5889(4) 0.7038(2) -0.1592(2)
H2A H -0.5856 0.7813 -0.1279
C4A C -0.7596(4) 0.7124(2) -0.2306(2)
C5A C -0.7571(4) 0.5930(2) -0.2754(2)
H3A H -0.8711 0.5968 -0.3241
C6A C -0.5946(4) 0.4682(2) -0.2519(2)
C7A C -0.2448(4) 0.5862(3) -0.0591(2)
H4A H -0.2563 0.6664 -0.0281
C8A C -0.9345(4) 0.8493(2) -0.2631(2)
C9A C -0.8255(5) 0.9462(3) -0.3425(3)
H5A H -0.7748 0.9104 -0.4161
H6A H -0.9299 1.0346 -0.3591
H7A H -0.7039 0.9540 -0.3016
C10A C -1.0264(5) 0.9120(3) -0.1491(3)
H8A H -0.9096 0.9239 -0.1069
H9A H -1.1323 0.9990 -0.1701
H10A H -1.0950 0.8523 -0.0990
C11A C -1.1223(4) 0.8364(3) -0.3317(3)
H11A H -1.1875 0.7722 -0.2857
H12A H -1.2302 0.9238 -0.3462
H13A H -1.0679 0.8050 -0.4067
C12A C -0.6007(4) 0.3414(3) -0.3060(2)
C13A C -0.3949(5) 0.2938(3) -0.3846(3)
H14A H -0.2672 0.2710 -0.3367
H15A H -0.3993 0.2148 -0.4183
H16A H -0.3895 0.3657 -0.4477
C14A C -0.6128(5) 0.2260(3) -0.2054(3)
H17A H -0.7511 0.2515 -0.1636
H18A H -0.5982 0.1439 -0.2393
H19A H -0.4967 0.2105 -0.1506
C15A C -0.8004(5) 0.3709(3) -0.3842(3)
H20A H -0.7961 0.4414 -0.4489
H21A H -0.7987 0.2895 -0.4158
H22A H -0.9315 0.4002 -0.3369
loop_
_geom_bond_atom_site_label_1
_geom_bond_atom_site_label_2
_geom_bond_site_symmetry_1
_geom_bond_site_symmetry_2
O1 H1 1_555 1_555
N1 C7 1_555 1_555
C1 O1 1_555 1_555
C2 C1 1_555 1_555
C3 C2 1_555 1_555
H2 C3 1_555 1_555
C4 C3 1_555 1_555
C5 C4 1_555 1_555
H3 C5 1_555 1_555
C6 C1 1_555 1_555
C7 C2 1_555 1_555
H4 C7 1_555 1_555
C8 C4 1_555 1_555
C9 C8 1_555 1_555
H5 C9 1_555 1_555
H6 C9 1_555 1_555
H7 C9 1_555 1_555
C10 C8 1_555 1_555
H8 C10 1_555 1_555
H9 C10 1_555 1_555
H10 C10 1_555 1_555
C11 C8 1_555 1_555
H11 C11 1_555 1_555
H12 C11 1_555 1_555
H13 C11 1_555 1_555
C12 C6 1_555 1_555
C13 C12 1_555 1_555
H14 C13 1_555 1_555
H15 C13 1_555 1_555
H16 C13 1_555 1_555
C14 C12 1_555 1_555
H17 C14 1_555 1_555
H18 C14 1_555 1_555
H19 C14 1_555 1_555
C15 C12 1_555 1_555
H20 C15 1_555 1_555
H21 C15 1_555 1_555
H22 C15 1_555 1_555
O1A H1A 1_555 1_555
N1A N1 1_555 1_555
C1A O1A 1_555 1_555
C2A C1A 1_555 1_555
C3A C2A 1_555 1_555
H2A C3A 1_555 1_555
C4A C3A 1_555 1_555
C5A C4A 1_555 1_555
H3A C5A 1_555 1_555
C6A C1A 1_555 1_555
C7A N1A 1_555 1_555
H4A C7A 1_555 1_555
C8A C4A 1_555 1_555
C9A C8A 1_555 1_555
H5A C9A 1_555 1_555
H6A C9A 1_555 1_555
H7A C9A 1_555 1_555
C10A C8A 1_555 1_555
H8A C10A 1_555 1_555
H9A C10A 1_555 1_555
H10A C10A 1_555 1_555
C11A C8A 1_555 1_555
H11A C11A 1_555 1_555
H12A C11A 1_555 1_555
H13A C11A 1_555 1_555
C12A C6A 1_555 1_555
C13A C12A 1_555 1_555
H14A C13A 1_555 1_555
H15A C13A 1_555 1_555
H16A C13A 1_555 1_555
C14A C12A 1_555 1_555
H17A C14A 1_555 1_555
H18A C14A 1_555 1_555
H19A C14A 1_555 1_555
C15A C12A 1_555 1_555
H20A C15A 1_555 1_555
H21A C15A 1_555 1_555
H22A C15A 1_555 1_555
C5 C6 1_555 1_555
C2A C7A 1_555 1_555
C5A C6A 1_555 1_555

#END
