
#######################################################################
#
#                 Cambridge Crystallographic Data Centre
#                                CCDC 
#
#######################################################################
#
# If this CIF has been generated from an entry in the Cambridge 
# Structural Database, then it will include bibliographic, chemical, 
# crystal, experimental, refinement or atomic coordinate data resulting 
# from the CCDC's data processing and validation procedures.
#
#######################################################################

data_CAVDEK
_chemical_formula_moiety         'C115 H190 O10,C4 H8 Cl2'
_chemical_name_systematic        
'4,9,14,19,24,26,28,30,32,34-Decaoctoxyhexacyclo[21.2.2.2^3,6^.2^8,11^.2^13,16^.2^18,21^]pentatriaconta-1(25),3,5,8,10,13,15,18,20,23,26,28,30,32,34-pentadecaene 1,4-dichlorobutane solvate'
_symmetry_cell_setting           monoclinic
_symmetry_space_group_name_H-M   'P 21/c'
_symmetry_Int_Tables_number      14
_space_group_name_Hall           '-P 2ybc'
loop_
_symmetry_equiv_pos_site_id
_symmetry_equiv_pos_as_xyz
1 x,y,z
2 -x,1/2+y,1/2-z
3 -x,-y,-z
4 x,1/2-y,1/2+z
_cell_length_a                   21.897(4)
_cell_length_b                   21.540(4)
_cell_length_c                   25.200(5)
_cell_angle_alpha                90
_cell_angle_beta                 98.280(4)
_cell_angle_gamma                90
_cell_volume                     11762
_exptl_crystal_colour            colorless
_exptl_crystal_description       block
_cell_formula_units_Z            4
loop_
_atom_site_label
_atom_site_type_symbol
_atom_site_fract_x
_atom_site_fract_y
_atom_site_fract_z
O1 O -0.11086(18) 0.48905(18) 0.64211(16)
O2 O 0.02794(17) 0.39623(17) 0.49267(14)
O3 O 0.02805(18) 0.45190(17) 0.82652(15)
O4 O 0.13303(18) 0.51956(19) 0.64823(15)
O5 O 0.02581(18) 0.22792(18) 0.82585(17)
O6 O 0.23684(19) 0.34831(19) 0.78310(18)
O7 O -0.08564(17) 0.11736(18) 0.65800(16)
O8 O 0.16851(18) 0.14429(19) 0.68749(16)
O9 O -0.17155(17) 0.28367(17) 0.53861(16)
O10 O 0.04506(18) 0.16833(17) 0.50310(17)
C1 C -0.0791(2) 0.4662(2) 0.6030(2)
C2 C -0.0191(2) 0.4899(2) 0.6030(2)
C3 C 0.0164(3) 0.4667(2) 0.5661(2)
H1 H 0.0570 0.4823 0.5662
C4 C -0.0057(2) 0.4218(2) 0.5294(2)
C5 C -0.0668(3) 0.3999(2) 0.5273(2)
C6 C -0.1020(3) 0.4230(2) 0.5647(2)
H2 H -0.1432 0.4086 0.5639
C7 C 0.0067(3) 0.5391(2) 0.6429(2)
H3 H -0.0278 0.5629 0.6544
H4 H 0.0323 0.5683 0.6253
C8 C 0.0454(2) 0.5113(2) 0.6917(2)
C9 C 0.1083(2) 0.4991(2) 0.6927(2)
C10 C 0.1416(3) 0.4708(2) 0.7370(2)
H5 H 0.1843 0.4625 0.7371
C11 C 0.1145(3) 0.4542(2) 0.7811(2)
C12 C 0.0518(2) 0.4671(2) 0.7808(2)
C13 C 0.0187(3) 0.4945(2) 0.7361(2)
H6 H -0.0241 0.5022 0.7358
C14 C 0.1513(3) 0.4191(3) 0.8280(2)
H7 H 0.1956 0.4299 0.8308
H8 H 0.1366 0.4310 0.8620
C15 C 0.1428(3) 0.3502(2) 0.8189(2)
C16 C 0.1851(3) 0.3163(2) 0.7939(2)
C17 C 0.1756(3) 0.2539(3) 0.7823(2)
H9 H 0.2060 0.2311 0.7672
C18 C 0.1219(2) 0.2241(2) 0.7926(2)
C19 C 0.0788(2) 0.2586(2) 0.8166(2)
C20 C 0.0903(3) 0.3197(3) 0.8301(2)
H10 H 0.0615 0.3418 0.8477
C21 C 0.1104(3) 0.1558(3) 0.7787(2)
H11 H 0.1507 0.1343 0.7815
H12 H 0.0873 0.1371 0.8058
C22 C 0.0755(2) 0.1439(2) 0.7243(2)
C23 C 0.1043(2) 0.1373(2) 0.6789(2)
C24 C 0.0713(3) 0.1235(2) 0.6285(2)
H13 H 0.0927 0.1184 0.5986
C25 C 0.0072(3) 0.1172(2) 0.6219(2)
C26 C -0.0221(2) 0.1242(2) 0.6663(2)
C27 C 0.0111(3) 0.1380(2) 0.7170(2)
H14 H -0.0105 0.1435 0.7468
C28 C -0.0282(3) 0.1047(3) 0.5667(2)
H15 H -0.0650 0.0790 0.5698
H16 H -0.0018 0.0820 0.5446
C29 C -0.0480(3) 0.1670(2) 0.5404(2)
C30 C -0.0077(2) 0.1991(2) 0.5116(2)
C31 C -0.0235(3) 0.2584(2) 0.4925(2)
H17 H 0.0035 0.2801 0.4727
C32 C -0.0781(2) 0.2867(2) 0.5022(2)
C33 C -0.1174(2) 0.2537(2) 0.5301(2)
C34 C -0.1027(3) 0.1941(2) 0.5485(2)
H18 H -0.1306 0.1719 0.5670
C35 C -0.0924(3) 0.3532(2) 0.4848(2)
H19 H -0.1377 0.3585 0.4766
H20 H -0.0746 0.3616 0.4515
C36 C -0.1677(3) 0.4601(3) 0.6489(2)
H21 H -0.1625 0.4145 0.6504
H22 H -0.1997 0.4703 0.6183
C37 C -0.1870(3) 0.4830(3) 0.6999(3)
H23 H -0.1929 0.5286 0.6975
H24 H -0.1535 0.4747 0.7298
C38 C -0.2452(3) 0.4538(3) 0.7125(3)
H25 H -0.2387 0.4084 0.7155
H26 H -0.2782 0.4612 0.6819
C39 C -0.2674(3) 0.4765(4) 0.7628(3)
H27 H -0.2336 0.4705 0.7930
H28 H -0.2748 0.5217 0.7591
C40 C -0.3237(4) 0.4474(4) 0.7777(4)
H29 H -0.3569 0.4514 0.7468
H30 H -0.3155 0.4025 0.7834
C41 C -0.3473(4) 0.4721(5) 0.8257(4)
H31 H -0.3144 0.4672 0.8567
H32 H -0.3544 0.5172 0.8203
C42 C -0.4038(7) 0.4449(7) 0.8400(6)
H33 H -0.3985 0.3993 0.8428
H34 H -0.4381 0.4533 0.8108
C43 C -0.4215(9) 0.4689(9) 0.8920(8)
H35 H -0.3869 0.4921 0.9116
H36 H -0.4318 0.4339 0.9139
H37 H -0.4574 0.4964 0.8843
C44 C 0.0914(2) 0.4149(3) 0.4962(2)
H38 H 0.1138 0.4045 0.5320
H39 H 0.0939 0.4604 0.4910
C45 C 0.1202(3) 0.3817(3) 0.4535(2)
H40 H 0.0968 0.3918 0.4180
H41 H 0.1170 0.3363 0.4590
C46 C 0.1871(3) 0.3983(3) 0.4534(2)
H42 H 0.2115 0.3829 0.4870
H43 H 0.1911 0.4441 0.4530
C47 C 0.2137(3) 0.3718(3) 0.4063(3)
H44 H 0.2108 0.3260 0.4080
H45 H 0.1873 0.3853 0.3731
C48 C 0.2794(3) 0.3885(4) 0.4015(3)
H46 H 0.3062 0.3738 0.4340
H47 H 0.2827 0.4343 0.4006
C49 C 0.3038(3) 0.3626(4) 0.3530(3)
H48 H 0.3005 0.3168 0.3540
H49 H 0.2767 0.3771 0.3205
C50 C 0.3689(3) 0.3790(5) 0.3474(4)
H50 H 0.3961 0.3650 0.3800
H51 H 0.3723 0.4248 0.3457
C51 C 0.3922(4) 0.3515(5) 0.2989(4)
H52 H 0.3868 0.3063 0.2990
H53 H 0.4361 0.3613 0.3002
H54 H 0.3689 0.3689 0.2662
C52 C -0.0369(3) 0.4606(3) 0.8270(2)
H55 H -0.0606 0.4321 0.8009
H56 H -0.0486 0.5038 0.8167
C53 C -0.0512(3) 0.4473(3) 0.8824(2)
H57 H -0.0388 0.4042 0.8923
H58 H -0.0265 0.4755 0.9082
C54 C -0.1181(3) 0.4555(3) 0.8871(3)
H59 H -0.1421 0.4231 0.8653
H60 H -0.1319 0.4963 0.8718
C55 C -0.1328(3) 0.4518(3) 0.9440(3)
H61 H -0.1198 0.4106 0.9591
H62 H -0.1082 0.4836 0.9660
C56 C -0.1996(3) 0.4611(3) 0.9489(3)
H63 H -0.2240 0.4285 0.9277
H64 H -0.2129 0.5017 0.9327
C57 C -0.2148(4) 0.4595(4) 1.0061(3)
H65 H -0.2022 0.4187 1.0222
H66 H -0.1903 0.4918 1.0274
C58 C -0.2824(4) 0.4697(5) 1.0099(4)
H67 H -0.2951 0.5108 0.9944
H68 H -0.3071 0.4377 0.9884
C59 C -0.2962(5) 0.4671(6) 1.0659(5)
H69 H -0.2847 0.4262 1.0812
H70 H -0.3404 0.4741 1.0660
H71 H -0.2725 0.4993 1.0873
C60 C 0.1931(3) 0.4996(3) 0.6409(2)
H72 H 0.1939 0.4539 0.6371
H73 H 0.2233 0.5116 0.6723
C61 C 0.2092(3) 0.5303(3) 0.5906(2)
H74 H 0.1767 0.5206 0.5603
H75 H 0.2099 0.5759 0.5958
C62 C 0.2697(3) 0.5102(3) 0.5767(3)
H76 H 0.2685 0.4649 0.5701
H77 H 0.3020 0.5183 0.6077
C63 C 0.2874(3) 0.5430(3) 0.5274(3)
H78 H 0.2543 0.5360 0.4968
H79 H 0.2897 0.5882 0.5345
C64 C 0.3477(3) 0.5219(3) 0.5118(3)
H80 H 0.3465 0.4762 0.5079
H81 H 0.3810 0.5320 0.5415
C65 C 0.3641(3) 0.5499(3) 0.4607(3)
H82 H 0.3672 0.5955 0.4651
H83 H 0.3303 0.5412 0.4311
C66 C 0.4239(4) 0.5259(4) 0.4448(4)
H84 H 0.4582 0.5368 0.4733
H85 H 0.4218 0.4801 0.4424
C67 C 0.4381(5) 0.5514(5) 0.3921(4)
H86 H 0.4095 0.5334 0.3626
H87 H 0.4806 0.5405 0.3876
H88 H 0.4336 0.5966 0.3918
C68 C -0.0219(3) 0.2654(3) 0.8429(2)
H89 H -0.0318 0.3004 0.8177
H90 H -0.0074 0.2829 0.8789
C69 C -0.0788(3) 0.2268(3) 0.8450(3)
H91 H -0.0688 0.1918 0.8702
H92 H -0.0934 0.2095 0.8090
C70 C -0.1292(3) 0.2668(3) 0.8634(3)
H93 H -0.1128 0.2859 0.8982
H94 H -0.1395 0.3008 0.8371
C71 C -0.1880(3) 0.2317(3) 0.8695(3)
H95 H -0.2069 0.2162 0.8338
H96 H -0.1773 0.1951 0.8928
C72 C -0.2350(4) 0.2710(4) 0.8931(3)
H97 H -0.2150 0.2892 0.9274
H98 H -0.2481 0.3057 0.8683
C73 C -0.2914(4) 0.2349(5) 0.9033(4)
H99 H -0.2780 0.1998 0.9276
H100 H -0.3115 0.2172 0.8689
C74 C -0.3387(5) 0.2734(6) 0.9278(5)
H101 H -0.3527 0.3081 0.9033
H102 H -0.3186 0.2915 0.9621
C75 C -0.3954(5) 0.2356(8) 0.9385(6)
H103 H -0.4171 0.2197 0.9045
H104 H -0.4233 0.2623 0.9555
H105 H -0.3820 0.2008 0.9624
C76 C 0.2757(3) 0.3211(3) 0.7494(3)
H106 H 0.2513 0.3073 0.7153
H107 H 0.2975 0.2847 0.7672
C77 C 0.3212(4) 0.3705(4) 0.7392(4)
H108 H 0.2979 0.4063 0.7220
H109 H 0.3429 0.3848 0.7742
C78 C 0.3676(5) 0.3523(6) 0.7058(5)
H110 H 0.3875 0.3133 0.7200
H111 H 0.3998 0.3848 0.7081
C79 C 0.3416(5) 0.3431(5) 0.6490(5)
H112 H 0.3117 0.3768 0.6376
H113 H 0.3189 0.3032 0.6452
C80 C 0.3925(6) 0.3428(6) 0.6115(6)
H114 H 0.4125 0.3841 0.6139
H115 H 0.4243 0.3121 0.6260
C81 C 0.3739(6) 0.3290(7) 0.5559(5)
H116 H 0.3361 0.3533 0.5438
H117 H 0.3622 0.2846 0.5533
C82 C 0.4188(7) 0.3406(9) 0.5156(7)
H118 H 0.3953 0.3359 0.4792
H119 H 0.4321 0.3844 0.5194
C83 C 0.4665(7) 0.3078(8) 0.5178(7)
H120 H 0.4914 0.3223 0.4910
H121 H 0.4547 0.2644 0.5105
H122 H 0.4905 0.3110 0.5536
C84 C -0.1188(3) 0.1257(3) 0.7024(2)
H123 H -0.1157 0.1695 0.7144
H124 H -0.1009 0.0990 0.7326
C85 C -0.1856(3) 0.1087(3) 0.6850(3)
H125 H -0.2026 0.1346 0.6539
H126 H -0.1882 0.0647 0.6734
C86 C -0.2237(3) 0.1178(4) 0.7294(3)
H127 H -0.2277 0.1628 0.7361
H128 H -0.2021 0.0987 0.7626
C87 C -0.2885(4) 0.0891(5) 0.7163(4)
H129 H -0.3103 0.1091 0.6835
H130 H -0.2842 0.0444 0.7083
C88 C -0.3272(4) 0.0956(6) 0.7604(5)
H131 H -0.3358 0.1402 0.7655
H132 H -0.3036 0.0799 0.7942
C89 C -0.3904(5) 0.0594(7) 0.7489(7)
H133 H -0.4150 0.0766 0.7161
H134 H -0.3819 0.0152 0.7419
C90 C -0.4270(7) 0.0635(11) 0.7940(9)
H135 H -0.4028 0.0468 0.8271
H136 H -0.4373 0.1073 0.8004
C91 C -0.4829(10) 0.0279(11) 0.7804(14)
H137 H -0.5074 0.0299 0.8100
H138 H -0.4724 -0.0155 0.7740
H139 H -0.5069 0.0450 0.7479
C92 C 0.2005(3) 0.1407(3) 0.6422(3)
H140 H 0.1845 0.1726 0.6155
H141 H 0.1939 0.0994 0.6251
C93 C 0.2681(3) 0.1509(3) 0.6598(3)
H142 H 0.2834 0.1199 0.6875
H143 H 0.2745 0.1926 0.6760
C94 C 0.3045(3) 0.1455(4) 0.6135(3)
H144 H 0.2908 0.1784 0.5871
H145 H 0.2952 0.1050 0.5956
C95 C 0.3738(3) 0.1508(4) 0.6299(3)
H146 H 0.3873 0.1199 0.6582
H147 H 0.3836 0.1926 0.6452
C96 C 0.4097(4) 0.1404(5) 0.5828(4)
H148 H 0.3987 0.0992 0.5666
H149 H 0.3974 0.1723 0.5550
C97 C 0.4785(4) 0.1435(5) 0.5997(5)
H150 H 0.4906 0.1213 0.6340
H151 H 0.4927 0.1871 0.6039
C98 C 0.5121(6) 0.1039(15) 0.5429(8)
H152 H 0.5212 0.0592 0.5487
H153 H 0.4891 0.1118 0.5068
C99 C 0.5617(10) 0.1421(9) 0.5567(9)
H154 H 0.5921 0.1350 0.5325
H155 H 0.5804 0.1332 0.5937
H156 H 0.5480 0.1855 0.5540
C100 C -0.2098(3) 0.2528(3) 0.5713(3)
H157 H -0.1849 0.2408 0.6058
H158 H -0.2267 0.2144 0.5532
C101 C -0.2612(4) 0.2939(3) 0.5818(4)
H159 H -0.2899 0.3004 0.5481
H160 H -0.2447 0.3348 0.5948
C102 C -0.2963(6) 0.2635(5) 0.6247(6)
H161 H -0.3133 0.2234 0.6100
H162 H -0.2656 0.2539 0.6564
C103 C -0.3425(5) 0.2949(5) 0.6418(4)
H163 H -0.3743 0.3026 0.6104
H164 H -0.3261 0.3359 0.6547
C104 C -0.3751(5) 0.2664(6) 0.6863(5)
H165 H -0.3876 0.2237 0.6751
H166 H -0.3442 0.2629 0.7190
C105 C -0.4298(7) 0.2984(8) 0.7014(6)
H167 H -0.4575 0.3082 0.6678
H168 H -0.4156 0.3384 0.7181
C106 C -0.4692(7) 0.2660(11) 0.7395(6)
H169 H -0.5040 0.2932 0.7456
H170 H -0.4865 0.2268 0.7231
C107 C 0.0931(3) 0.2033(3) 0.4843(2)
H171 H 0.1066 0.2373 0.5098
H172 H 0.0777 0.2220 0.4490
C108 C 0.1462(3) 0.1613(3) 0.4794(2)
H173 H 0.1323 0.1273 0.4541
H174 H 0.1611 0.1427 0.5148
C109 C 0.1986(3) 0.1958(3) 0.4595(3)
H175 H 0.2142 0.2277 0.4863
H176 H 0.1824 0.2175 0.4258
C110 C 0.2519(3) 0.1546(4) 0.4494(3)
H177 H 0.2696 0.1346 0.4836
H178 H 0.2360 0.1214 0.4240
C111 C 0.3027(3) 0.1893(4) 0.4270(3)
H179 H 0.2847 0.2111 0.3939
H180 H 0.3200 0.2211 0.4533
C112 C 0.3543(4) 0.1477(5) 0.4145(4)
H181 H 0.3368 0.1150 0.3892
H182 H 0.3734 0.1270 0.4479
C113 C 0.4047(5) 0.1828(6) 0.3899(5)
H183 H 0.3857 0.2033 0.3564
H184 H 0.4221 0.2156 0.4152
C114 C 0.4562(5) 0.1414(8) 0.3776(6)
H185 H 0.4761 0.1219 0.4108
H186 H 0.4866 0.1661 0.3619
H187 H 0.4394 0.1091 0.3522
C117 C -0.4351(12) 0.2545(15) 0.7845(8)
H192 H -0.4603 0.2357 0.8093
H193 H -0.4170 0.2932 0.7998
H194 H -0.4021 0.2257 0.7785
C115 C -0.0065(4) 0.3188(5) 0.6801(5)
H188 H 0.0090 0.3027 0.7163
H189 H -0.0103 0.3644 0.6835
C116 C 0.0420(6) 0.3070(5) 0.6459(4)
H190 H 0.0466 0.2613 0.6442
H191 H 0.0248 0.3207 0.6093
Cl1 Cl -0.11549(16) 0.30982(11) 0.71122(10)
Cl2 Cl 0.15863(15) 0.31047(10) 0.61278(10)
C118 C -0.0661(5) 0.2952(6) 0.6656(5)
H195 H -0.0633 0.2497 0.6608
H196 H -0.0838 0.3132 0.6306
C119 C 0.0979(6) 0.3298(8) 0.6556(7)
H197 H 0.1147 0.3179 0.6928
H198 H 0.0937 0.3756 0.6553
loop_
_geom_bond_atom_site_label_1
_geom_bond_atom_site_label_2
_geom_bond_site_symmetry_1
_geom_bond_site_symmetry_2
O1 C1 1_555 1_555
O2 C4 1_555 1_555
O3 C12 1_555 1_555
O4 C9 1_555 1_555
O5 C19 1_555 1_555
O6 C16 1_555 1_555
O7 C26 1_555 1_555
O8 C23 1_555 1_555
O9 C33 1_555 1_555
O10 C30 1_555 1_555
C1 C2 1_555 1_555
C2 C3 1_555 1_555
C3 H1 1_555 1_555
C4 C3 1_555 1_555
C5 C4 1_555 1_555
C6 C1 1_555 1_555
H2 C6 1_555 1_555
C7 C2 1_555 1_555
H3 C7 1_555 1_555
H4 C7 1_555 1_555
C8 C7 1_555 1_555
C9 C8 1_555 1_555
C10 C9 1_555 1_555
H5 C10 1_555 1_555
C11 C10 1_555 1_555
C12 C11 1_555 1_555
C13 C8 1_555 1_555
H6 C13 1_555 1_555
C14 C11 1_555 1_555
H7 C14 1_555 1_555
H8 C14 1_555 1_555
C15 C14 1_555 1_555
C16 C15 1_555 1_555
C17 C16 1_555 1_555
H9 C17 1_555 1_555
C18 C17 1_555 1_555
C19 C18 1_555 1_555
C20 C15 1_555 1_555
H10 C20 1_555 1_555
C21 C18 1_555 1_555
H11 C21 1_555 1_555
H12 C21 1_555 1_555
C22 C21 1_555 1_555
C23 C22 1_555 1_555
C24 C23 1_555 1_555
H13 C24 1_555 1_555
C25 C24 1_555 1_555
C26 C25 1_555 1_555
C27 C22 1_555 1_555
H14 C27 1_555 1_555
C28 C25 1_555 1_555
H15 C28 1_555 1_555
H16 C28 1_555 1_555
C29 C28 1_555 1_555
C30 C29 1_555 1_555
C31 C30 1_555 1_555
H17 C31 1_555 1_555
C32 C31 1_555 1_555
C33 C32 1_555 1_555
C34 C29 1_555 1_555
H18 C34 1_555 1_555
C35 C5 1_555 1_555
H19 C35 1_555 1_555
H20 C35 1_555 1_555
C36 O1 1_555 1_555
H21 C36 1_555 1_555
H22 C36 1_555 1_555
C37 C36 1_555 1_555
H23 C37 1_555 1_555
H24 C37 1_555 1_555
C38 C37 1_555 1_555
H25 C38 1_555 1_555
H26 C38 1_555 1_555
C39 C38 1_555 1_555
H27 C39 1_555 1_555
H28 C39 1_555 1_555
C40 C39 1_555 1_555
H29 C40 1_555 1_555
H30 C40 1_555 1_555
C41 C40 1_555 1_555
H31 C41 1_555 1_555
H32 C41 1_555 1_555
C42 C41 1_555 1_555
H33 C42 1_555 1_555
H34 C42 1_555 1_555
C43 C42 1_555 1_555
H35 C43 1_555 1_555
H36 C43 1_555 1_555
H37 C43 1_555 1_555
C44 O2 1_555 1_555
H38 C44 1_555 1_555
H39 C44 1_555 1_555
C45 C44 1_555 1_555
H40 C45 1_555 1_555
H41 C45 1_555 1_555
C46 C45 1_555 1_555
H42 C46 1_555 1_555
H43 C46 1_555 1_555
C47 C46 1_555 1_555
H44 C47 1_555 1_555
H45 C47 1_555 1_555
C48 C47 1_555 1_555
H46 C48 1_555 1_555
H47 C48 1_555 1_555
C49 C48 1_555 1_555
H48 C49 1_555 1_555
H49 C49 1_555 1_555
C50 C49 1_555 1_555
H50 C50 1_555 1_555
H51 C50 1_555 1_555
C51 C50 1_555 1_555
H52 C51 1_555 1_555
H53 C51 1_555 1_555
H54 C51 1_555 1_555
C52 O3 1_555 1_555
H55 C52 1_555 1_555
H56 C52 1_555 1_555
C53 C52 1_555 1_555
H57 C53 1_555 1_555
H58 C53 1_555 1_555
C54 C53 1_555 1_555
H59 C54 1_555 1_555
H60 C54 1_555 1_555
C55 C54 1_555 1_555
H61 C55 1_555 1_555
H62 C55 1_555 1_555
C56 C55 1_555 1_555
H63 C56 1_555 1_555
H64 C56 1_555 1_555
C57 C56 1_555 1_555
H65 C57 1_555 1_555
H66 C57 1_555 1_555
C58 C57 1_555 1_555
H67 C58 1_555 1_555
H68 C58 1_555 1_555
C59 C58 1_555 1_555
H69 C59 1_555 1_555
H70 C59 1_555 1_555
H71 C59 1_555 1_555
C60 O4 1_555 1_555
H72 C60 1_555 1_555
H73 C60 1_555 1_555
C61 C60 1_555 1_555
H74 C61 1_555 1_555
H75 C61 1_555 1_555
C62 C61 1_555 1_555
H76 C62 1_555 1_555
H77 C62 1_555 1_555
C63 C62 1_555 1_555
H78 C63 1_555 1_555
H79 C63 1_555 1_555
C64 C63 1_555 1_555
H80 C64 1_555 1_555
H81 C64 1_555 1_555
C65 C64 1_555 1_555
H82 C65 1_555 1_555
H83 C65 1_555 1_555
C66 C65 1_555 1_555
H84 C66 1_555 1_555
H85 C66 1_555 1_555
C67 C66 1_555 1_555
H86 C67 1_555 1_555
H87 C67 1_555 1_555
H88 C67 1_555 1_555
C68 O5 1_555 1_555
H89 C68 1_555 1_555
H90 C68 1_555 1_555
C69 C68 1_555 1_555
H91 C69 1_555 1_555
H92 C69 1_555 1_555
C70 C69 1_555 1_555
H93 C70 1_555 1_555
H94 C70 1_555 1_555
C71 C70 1_555 1_555
H95 C71 1_555 1_555
H96 C71 1_555 1_555
C72 C71 1_555 1_555
H97 C72 1_555 1_555
H98 C72 1_555 1_555
C73 C72 1_555 1_555
H99 C73 1_555 1_555
H100 C73 1_555 1_555
C74 C73 1_555 1_555
H101 C74 1_555 1_555
H102 C74 1_555 1_555
C75 C74 1_555 1_555
H103 C75 1_555 1_555
H104 C75 1_555 1_555
H105 C75 1_555 1_555
C76 O6 1_555 1_555
H106 C76 1_555 1_555
H107 C76 1_555 1_555
C77 C76 1_555 1_555
H108 C77 1_555 1_555
H109 C77 1_555 1_555
C78 C77 1_555 1_555
H110 C78 1_555 1_555
H111 C78 1_555 1_555
C79 C78 1_555 1_555
H112 C79 1_555 1_555
H113 C79 1_555 1_555
C80 C79 1_555 1_555
H114 C80 1_555 1_555
H115 C80 1_555 1_555
C81 C80 1_555 1_555
H116 C81 1_555 1_555
H117 C81 1_555 1_555
C82 C81 1_555 1_555
H118 C82 1_555 1_555
H119 C82 1_555 1_555
C83 C82 1_555 1_555
H120 C83 1_555 1_555
H121 C83 1_555 1_555
H122 C83 1_555 1_555
C84 O7 1_555 1_555
H123 C84 1_555 1_555
H124 C84 1_555 1_555
C85 C84 1_555 1_555
H125 C85 1_555 1_555
H126 C85 1_555 1_555
C86 C85 1_555 1_555
H127 C86 1_555 1_555
H128 C86 1_555 1_555
C87 C86 1_555 1_555
H129 C87 1_555 1_555
H130 C87 1_555 1_555
C88 C87 1_555 1_555
H131 C88 1_555 1_555
H132 C88 1_555 1_555
C89 C88 1_555 1_555
H133 C89 1_555 1_555
H134 C89 1_555 1_555
C90 C89 1_555 1_555
H135 C90 1_555 1_555
H136 C90 1_555 1_555
C91 C90 1_555 1_555
H137 C91 1_555 1_555
H138 C91 1_555 1_555
H139 C91 1_555 1_555
C92 O8 1_555 1_555
H140 C92 1_555 1_555
H141 C92 1_555 1_555
C93 C92 1_555 1_555
H142 C93 1_555 1_555
H143 C93 1_555 1_555
C94 C93 1_555 1_555
H144 C94 1_555 1_555
H145 C94 1_555 1_555
C95 C94 1_555 1_555
H146 C95 1_555 1_555
H147 C95 1_555 1_555
C96 C95 1_555 1_555
H148 C96 1_555 1_555
H149 C96 1_555 1_555
C97 C96 1_555 1_555
H150 C97 1_555 1_555
H151 C97 1_555 1_555
C98 C97 1_555 1_555
H152 C98 1_555 1_555
H153 C98 1_555 1_555
C99 C98 1_555 1_555
H154 C99 1_555 1_555
H155 C99 1_555 1_555
H156 C99 1_555 1_555
C100 O9 1_555 1_555
H157 C100 1_555 1_555
H158 C100 1_555 1_555
C101 C100 1_555 1_555
H159 C101 1_555 1_555
H160 C101 1_555 1_555
C102 C101 1_555 1_555
H161 C102 1_555 1_555
H162 C102 1_555 1_555
C103 C102 1_555 1_555
H163 C103 1_555 1_555
H164 C103 1_555 1_555
C104 C103 1_555 1_555
H165 C104 1_555 1_555
H166 C104 1_555 1_555
C105 C104 1_555 1_555
H167 C105 1_555 1_555
H168 C105 1_555 1_555
C106 C105 1_555 1_555
H169 C106 1_555 1_555
H170 C106 1_555 1_555
C107 O10 1_555 1_555
H171 C107 1_555 1_555
H172 C107 1_555 1_555
C108 C107 1_555 1_555
H173 C108 1_555 1_555
H174 C108 1_555 1_555
C109 C108 1_555 1_555
H175 C109 1_555 1_555
H176 C109 1_555 1_555
C110 C109 1_555 1_555
H177 C110 1_555 1_555
H178 C110 1_555 1_555
C111 C110 1_555 1_555
H179 C111 1_555 1_555
H180 C111 1_555 1_555
C112 C111 1_555 1_555
H181 C112 1_555 1_555
H182 C112 1_555 1_555
C113 C112 1_555 1_555
H183 C113 1_555 1_555
H184 C113 1_555 1_555
C114 C113 1_555 1_555
H185 C114 1_555 1_555
H186 C114 1_555 1_555
H187 C114 1_555 1_555
C115 H188 1_555 1_555
H189 C115 1_555 1_555
C116 C115 1_555 1_555
H190 C116 1_555 1_555
H191 C116 1_555 1_555
Cl1 C118 1_555 1_555
Cl2 C119 1_555 1_555
C117 C106 1_555 1_555
H192 C117 1_555 1_555
H193 C117 1_555 1_555
H194 C117 1_555 1_555
C118 C115 1_555 1_555
H195 C118 1_555 1_555
H196 C118 1_555 1_555
C119 C116 1_555 1_555
H197 C119 1_555 1_555
H198 C119 1_555 1_555
C5 C6 1_555 1_555
C12 C13 1_555 1_555
C19 C20 1_555 1_555
C26 C27 1_555 1_555
C32 C35 1_555 1_555
C33 C34 1_555 1_555

#END
