
#######################################################################
#
#                 Cambridge Crystallographic Data Centre
#                                CCDC 
#
#######################################################################
#
# If this CIF has been generated from an entry in the Cambridge 
# Structural Database, then it will include bibliographic, chemical, 
# crystal, experimental, refinement or atomic coordinate data resulting 
# from the CCDC's data processing and validation procedures.
#
#######################################################################

data_CAVDIO
_chemical_formula_moiety         'C75 H110 O10,C4 H8 F2'
_chemical_name_systematic        
'4,9,14,19,24,26,28,30,32,34-Decabutoxyhexacyclo[21.2.2.2^3,6^.2^8,11^.2^13,16^.2^18,21^]pentatriaconta-1(25),3,5,8,10,13,15,18,20,23,26,28,30,32,34-pentadecaene 1,4-difluorobutane solvate'
_symmetry_cell_setting           triclinic
_symmetry_space_group_name_H-M   'P -1'
_symmetry_Int_Tables_number      2
_space_group_name_Hall           '-P 1'
loop_
_symmetry_equiv_pos_site_id
_symmetry_equiv_pos_as_xyz
1 x,y,z
2 -x,-y,-z
_cell_length_a                   12.2219(11)
_cell_length_b                   14.4860(13)
_cell_length_c                   21.9366(19)
_cell_angle_alpha                89.672(2)
_cell_angle_beta                 89.514(2)
_cell_angle_gamma                76.1320(10)
_cell_volume                     3770.42
_exptl_crystal_colour            colorless
_exptl_crystal_description       block
_cell_formula_units_Z            2
loop_
_atom_site_label
_atom_site_type_symbol
_atom_site_fract_x
_atom_site_fract_y
_atom_site_fract_z
O1 O -0.0093(3) 0.7711(2) 0.31658(13)
O2 O 0.0225(3) 0.3991(2) 0.38721(14)
O3 O 0.3035(2) 0.6098(2) 0.46109(13)
O4 O 0.4417(2) 0.2422(2) 0.37268(14)
O5 O 0.6631(3) 0.5168(2) 0.34633(12)
O6 O 0.5878(3) 0.2926(2) 0.15515(13)
O7 O 0.5605(2) 0.6580(2) 0.13429(14)
O8 O 0.2821(2) 0.4667(2) 0.01674(13)
O9 O 0.1419(3) 0.8157(2) 0.11268(15)
O10 O -0.0461(3) 0.5107(2) 0.15929(15)
C1 C 0.0057(3) 0.6781(3) 0.33424(18)
C2 C -0.0442(3) 0.6216(3) 0.29684(17)
C3 C -0.0382(3) 0.5285(3) 0.31414(19)
H1 H -0.0709 0.4905 0.2897
C4 C 0.0162(3) 0.4907(3) 0.36766(18)
C5 C 0.0699(3) 0.5455(3) 0.40354(17)
C6 C 0.0626(3) 0.6389(3) 0.38662(18)
H2 H 0.0965 0.6765 0.4108
C7 C 0.1389(3) 0.5030(3) 0.45832(18)
H3 H 0.1083 0.4527 0.4758
H4 H 0.1349 0.5515 0.4891
C8 C 0.2621(3) 0.4626(3) 0.43944(17)
C9 C 0.2956(3) 0.3701(3) 0.41697(17)
H5 H 0.2434 0.3328 0.4156
C10 C 0.4047(3) 0.3327(3) 0.39675(17)
C11 C 0.4843(3) 0.3864(3) 0.39990(17)
C12 C 0.4511(3) 0.4794(3) 0.42216(17)
H6 H 0.5036 0.5163 0.4244
C13 C 0.3407(3) 0.5171(3) 0.44096(17)
C14 C 0.6052(3) 0.3487(3) 0.37709(17)
H7 H 0.6561 0.3735 0.4025
H8 H 0.6256 0.2800 0.3805
C15 C 0.6184(3) 0.3771(3) 0.31172(17)
C16 C 0.6006(3) 0.3188(3) 0.26435(18)
H9 H 0.5846 0.2605 0.2733
C17 C 0.6064(3) 0.3467(3) 0.20373(17)
C18 C 0.6327(3) 0.4323(3) 0.18946(17)
C19 C 0.6501(3) 0.4903(3) 0.23661(17)
H10 H 0.6664 0.5484 0.2275
C20 C 0.6437(3) 0.4634(3) 0.29701(18)
C21 C 0.6404(3) 0.4630(3) 0.12288(17)
H11 H 0.6923 0.5041 0.1199
H12 H 0.6704 0.4072 0.0982
C22 C 0.5270(3) 0.5150(3) 0.09779(17)
C23 C 0.4580(3) 0.4661(3) 0.06862(17)
H13 H 0.4824 0.4006 0.0641
C24 C 0.3533(3) 0.5127(3) 0.04589(17)
C25 C 0.3158(3) 0.6107(3) 0.05152(17)
C26 C 0.3856(3) 0.6606(3) 0.08051(17)
H14 H 0.3622 0.7263 0.0842
C27 C 0.4896(3) 0.6130(3) 0.10398(18)
C28 C 0.1987(3) 0.6624(3) 0.03140(18)
H15 H 0.1989 0.7266 0.0186
H16 H 0.1759 0.6297 -0.0030
C29 C 0.1164(3) 0.6656(3) 0.08384(17)
C30 C 0.0686(3) 0.5891(3) 0.09456(18)
H17 H 0.0830 0.5386 0.0674
C31 C 0.0000(3) 0.5864(3) 0.14483(18)
C32 C -0.0263(3) 0.6637(3) 0.18459(18)
C33 C 0.0203(3) 0.7397(3) 0.17333(18)
H18 H 0.0030 0.7918 0.1993
C34 C 0.0921(3) 0.7410(3) 0.12432(18)
C35 C -0.1039(3) 0.6629(3) 0.23854(18)
H19 H -0.1579 0.6263 0.2279
H20 H -0.1458 0.7276 0.2465
C36 C 0.0420(4) 0.8323(3) 0.3515(2)
H21 H 0.1234 0.8133 0.3471
H22 H 0.0229 0.8288 0.3944
C37 C -0.0019(5) 0.9320(3) 0.3279(2)
H23 H 0.0097 0.9325 0.2841
H24 H 0.0409 0.9732 0.3459
C38 C -0.1264(5) 0.9714(3) 0.3419(2)
H25 H -0.1364 0.9763 0.3858
H26 H -0.1679 0.9266 0.3275
C39 C -0.1769(7) 1.0684(4) 0.3136(3)
H27 H -0.2553 1.0882 0.3244
H28 H -0.1692 1.0642 0.2701
H29 H -0.1380 1.1139 0.3285
C40 C -0.0623(5) 0.3543(4) 0.3653(3)
H30 H -0.0434 0.3301 0.3244
H31 H -0.1349 0.3996 0.3642
C41 C -0.0664(5) 0.2719(4) 0.4094(3)
H32 H -0.0823 0.2973 0.4502
H33 H -0.1278 0.2441 0.3978
C42 C 0.0366(5) 0.1986(4) 0.4104(3)
H34 H 0.0985 0.2256 0.4222
H35 H 0.0526 0.1719 0.3699
C43 C 0.0259(6) 0.1183(4) 0.4565(3)
H36 H 0.0943 0.0691 0.4560
H37 H -0.0360 0.0921 0.4449
H38 H 0.0127 0.1444 0.4967
C44 C 0.3787(3) 0.6702(3) 0.45595(18)
H39 H 0.4029 0.6728 0.4139
H40 H 0.4448 0.6456 0.4807
C45 C 0.3191(4) 0.7687(3) 0.47736(19)
H41 H 0.2609 0.7968 0.4484
H42 H 0.2830 0.7638 0.5164
C46 C 0.3998(4) 0.8326(3) 0.4838(2)
H43 H 0.4295 0.8429 0.4439
H44 H 0.4626 0.8008 0.5090
C47 C 0.3448(5) 0.9286(4) 0.5120(3)
H45 H 0.3997 0.9658 0.5155
H46 H 0.3157 0.9190 0.5517
H47 H 0.2843 0.9616 0.4865
C48 C 0.3624(4) 0.1851(3) 0.3687(2)
H48 H 0.2994 0.2167 0.3436
H49 H 0.3339 0.1753 0.4090
C49 C 0.4204(5) 0.0906(4) 0.3408(3)
H50 H 0.4437 0.1008 0.2995
H51 H 0.4874 0.0624 0.3640
C50 C 0.3440(6) 0.0231(4) 0.3401(3)
H52 H 0.3197 0.0148 0.3815
H53 H 0.2775 0.0518 0.3167
C51 C 0.3965(8) -0.0732(5) 0.3138(4)
H54 H 0.3424 -0.1116 0.3146
H55 H 0.4609 -0.1034 0.3375
H56 H 0.4196 -0.0660 0.2724
C52 C 0.6635(3) 0.6141(3) 0.33679(19)
H57 H 0.5891 0.6501 0.3251
H58 H 0.7162 0.6196 0.3044
C53 C 0.6981(4) 0.6521(3) 0.39541(19)
H59 H 0.7714 0.6139 0.4073
H60 H 0.6445 0.6464 0.4272
C54 C 0.7038(4) 0.7551(3) 0.3898(2)
H61 H 0.6291 0.7937 0.3810
H62 H 0.7527 0.7614 0.3558
C55 C 0.7470(5) 0.7923(4) 0.4469(2)
H63 H 0.7490 0.8576 0.4408
H64 H 0.8216 0.7552 0.4555
H65 H 0.6979 0.7878 0.4805
C56 C 0.5595(4) 0.2042(3) 0.1684(2)
H66 H 0.4920 0.2150 0.1936
H67 H 0.6205 0.1623 0.1903
C57 C 0.5400(5) 0.1601(3) 0.1089(2)
H68 H 0.4785 0.2031 0.0880
H69 H 0.5168 0.1018 0.1173
C58 C 0.6412(6) 0.1378(5) 0.0669(3)
H70 H 0.7057 0.1008 0.0888
H71 H 0.6590 0.1966 0.0537
C59 C 0.6193(8) 0.0821(6) 0.0110(3)
H72 H 0.6847 0.0693 -0.0151
H73 H 0.5560 0.1190 -0.0110
H74 H 0.6036 0.0232 0.0239
C60 C 0.5290(4) 0.7584(3) 0.1388(2)
H75 H 0.4580 0.7783 0.1606
H76 H 0.5202 0.7868 0.0984
C61 C 0.6211(4) 0.7894(3) 0.1726(2)
H77 H 0.6204 0.7694 0.2149
H78 H 0.6935 0.7582 0.1551
C62 C 0.6072(5) 0.8958(3) 0.1700(3)
H79 H 0.5321 0.9272 0.1840
H80 H 0.6151 0.9151 0.1281
C63 C 0.6935(7) 0.9273(4) 0.2090(4)
H81 H 0.6813 0.9952 0.2069
H82 H 0.7680 0.8983 0.1943
H83 H 0.6860 0.9084 0.2506
C64 C 0.3111(4) 0.3655(3) 0.0189(2)
H84 H 0.3188 0.3440 0.0609
H85 H 0.3826 0.3413 -0.0018
C65 C 0.2195(4) 0.3287(3) -0.0118(2)
H86 H 0.1475 0.3570 0.0072
H87 H 0.2153 0.3475 -0.0544
C66 C 0.2422(5) 0.2210(4) -0.0073(3)
H88 H 0.3144 0.1936 -0.0264
H89 H 0.2482 0.2030 0.0355
C67 C 0.1551(6) 0.1788(5) -0.0358(4)
H90 H 0.1767 0.1109 -0.0316
H91 H 0.1488 0.1956 -0.0782
H92 H 0.0839 0.2029 -0.0158
C68 C 0.1273(5) 0.8891(4) 0.1561(3)
H93 H 0.1484 0.8619 0.1960
H94 H 0.0485 0.9228 0.1578
C69 C 0.1979(7) 0.9576(5) 0.1400(4)
H95 H 0.2753 0.9224 0.1339
H96 H 0.1714 0.9891 0.1019
C70 C 0.1949(7) 1.0314(5) 0.1880(4)
H97 H 0.1183 1.0696 0.1920
H98 H 0.2161 0.9999 0.2267
C71 C 0.2711(7) 1.0955(6) 0.1744(5)
H99 H 0.2639 1.1421 0.2061
H100 H 0.2508 1.1270 0.1361
H101 H 0.3476 1.0588 0.1723
C72 C -0.0162(4) 0.4281(3) 0.1221(3)
H102 H 0.0649 0.4087 0.1166
H103 H -0.0509 0.4407 0.0823
C73 C -0.0591(5) 0.3506(4) 0.1551(4)
H104 H -0.0244 0.3418 0.1950
H105 H -0.1395 0.3742 0.1616
C74 C -0.0413(8) 0.2604(6) 0.1275(4)
H106 H 0.0382 0.2345 0.1195
H107 H -0.0818 0.2649 0.0894
C75 C -0.0878(9) 0.1951(8) 0.1749(9)
H108 H -0.0795 0.1328 0.1580
H109 H -0.1661 0.2227 0.1832
H110 H -0.0460 0.1905 0.2121
C76 C 0.2620(8) 0.4040(7) 0.2335(5)
H111 H 0.3030 0.3755 0.2693
H112 H 0.1840 0.4248 0.2465
C77 C 0.2947(7) 0.4843(6) 0.2252(5)
H113 H 0.2516 0.5134 0.1902
H114 H 0.3718 0.4632 0.2106
C78 C 0.2972(8) 0.5617(7) 0.2630(5)
H115 H 0.2205 0.5819 0.2783
H116 H 0.3416 0.5326 0.2976
C79 C 0.3281(8) 0.6418(6) 0.2546(5)
H117 H 0.4057 0.6219 0.2407
H118 H 0.2854 0.6704 0.2194
F1 F 0.2631(5) 0.3346(4) 0.1992(3)
F2 F 0.3273(5) 0.7108(4) 0.2891(3)
loop_
_geom_bond_atom_site_label_1
_geom_bond_atom_site_label_2
_geom_bond_site_symmetry_1
_geom_bond_site_symmetry_2
O1 C1 1_555 1_555
O2 C4 1_555 1_555
O3 C13 1_555 1_555
O4 C10 1_555 1_555
O5 C20 1_555 1_555
O6 C17 1_555 1_555
O7 C27 1_555 1_555
O8 C24 1_555 1_555
O9 C34 1_555 1_555
O10 C31 1_555 1_555
C1 C2 1_555 1_555
C2 C3 1_555 1_555
C3 H1 1_555 1_555
C4 C3 1_555 1_555
C5 C4 1_555 1_555
C6 C1 1_555 1_555
H2 C6 1_555 1_555
C7 C5 1_555 1_555
H3 C7 1_555 1_555
H4 C7 1_555 1_555
C8 C7 1_555 1_555
C9 C8 1_555 1_555
H5 C9 1_555 1_555
C10 C9 1_555 1_555
C11 C10 1_555 1_555
C12 C11 1_555 1_555
H6 C12 1_555 1_555
C13 C8 1_555 1_555
C14 C11 1_555 1_555
H7 C14 1_555 1_555
H8 C14 1_555 1_555
C15 C14 1_555 1_555
C16 C15 1_555 1_555
H9 C16 1_555 1_555
C17 C16 1_555 1_555
C18 C17 1_555 1_555
C19 C18 1_555 1_555
H10 C19 1_555 1_555
C20 C15 1_555 1_555
C21 C18 1_555 1_555
H11 C21 1_555 1_555
H12 C21 1_555 1_555
C22 C21 1_555 1_555
C23 C22 1_555 1_555
H13 C23 1_555 1_555
C24 C23 1_555 1_555
C25 C24 1_555 1_555
C26 C25 1_555 1_555
H14 C26 1_555 1_555
C27 C22 1_555 1_555
C28 C25 1_555 1_555
H15 C28 1_555 1_555
H16 C28 1_555 1_555
C29 C28 1_555 1_555
C30 C29 1_555 1_555
H17 C30 1_555 1_555
C31 C30 1_555 1_555
C32 C31 1_555 1_555
C33 C32 1_555 1_555
H18 C33 1_555 1_555
C34 C29 1_555 1_555
C35 C2 1_555 1_555
H19 C35 1_555 1_555
H20 C35 1_555 1_555
C36 O1 1_555 1_555
H21 C36 1_555 1_555
H22 C36 1_555 1_555
C37 C36 1_555 1_555
H23 C37 1_555 1_555
H24 C37 1_555 1_555
C38 C37 1_555 1_555
H25 C38 1_555 1_555
H26 C38 1_555 1_555
C39 C38 1_555 1_555
H27 C39 1_555 1_555
H28 C39 1_555 1_555
H29 C39 1_555 1_555
C40 O2 1_555 1_555
H30 C40 1_555 1_555
H31 C40 1_555 1_555
C41 C40 1_555 1_555
H32 C41 1_555 1_555
H33 C41 1_555 1_555
C42 C41 1_555 1_555
H34 C42 1_555 1_555
H35 C42 1_555 1_555
C43 C42 1_555 1_555
H36 C43 1_555 1_555
H37 C43 1_555 1_555
H38 C43 1_555 1_555
C44 O3 1_555 1_555
H39 C44 1_555 1_555
H40 C44 1_555 1_555
C45 C44 1_555 1_555
H41 C45 1_555 1_555
H42 C45 1_555 1_555
C46 C45 1_555 1_555
H43 C46 1_555 1_555
H44 C46 1_555 1_555
C47 C46 1_555 1_555
H45 C47 1_555 1_555
H46 C47 1_555 1_555
H47 C47 1_555 1_555
C48 O4 1_555 1_555
H48 C48 1_555 1_555
H49 C48 1_555 1_555
C49 C48 1_555 1_555
H50 C49 1_555 1_555
H51 C49 1_555 1_555
C50 C49 1_555 1_555
H52 C50 1_555 1_555
H53 C50 1_555 1_555
C51 C50 1_555 1_555
H54 C51 1_555 1_555
H55 C51 1_555 1_555
H56 C51 1_555 1_555
C52 O5 1_555 1_555
H57 C52 1_555 1_555
H58 C52 1_555 1_555
C53 C52 1_555 1_555
H59 C53 1_555 1_555
H60 C53 1_555 1_555
C54 C53 1_555 1_555
H61 C54 1_555 1_555
H62 C54 1_555 1_555
C55 C54 1_555 1_555
H63 C55 1_555 1_555
H64 C55 1_555 1_555
H65 C55 1_555 1_555
C56 O6 1_555 1_555
H66 C56 1_555 1_555
H67 C56 1_555 1_555
C57 C56 1_555 1_555
H68 C57 1_555 1_555
H69 C57 1_555 1_555
C58 C57 1_555 1_555
H70 C58 1_555 1_555
H71 C58 1_555 1_555
C59 C58 1_555 1_555
H72 C59 1_555 1_555
H73 C59 1_555 1_555
H74 C59 1_555 1_555
C60 O7 1_555 1_555
H75 C60 1_555 1_555
H76 C60 1_555 1_555
C61 C60 1_555 1_555
H77 C61 1_555 1_555
H78 C61 1_555 1_555
C62 C61 1_555 1_555
H79 C62 1_555 1_555
H80 C62 1_555 1_555
C63 C62 1_555 1_555
H81 C63 1_555 1_555
H82 C63 1_555 1_555
H83 C63 1_555 1_555
C64 O8 1_555 1_555
H84 C64 1_555 1_555
H85 C64 1_555 1_555
C65 C64 1_555 1_555
H86 C65 1_555 1_555
H87 C65 1_555 1_555
C66 C65 1_555 1_555
H88 C66 1_555 1_555
H89 C66 1_555 1_555
C67 C66 1_555 1_555
H90 C67 1_555 1_555
H91 C67 1_555 1_555
H92 C67 1_555 1_555
C68 O9 1_555 1_555
H93 C68 1_555 1_555
H94 C68 1_555 1_555
C69 C68 1_555 1_555
H95 C69 1_555 1_555
H96 C69 1_555 1_555
C70 C69 1_555 1_555
H97 C70 1_555 1_555
H98 C70 1_555 1_555
C71 C70 1_555 1_555
H99 C71 1_555 1_555
H100 C71 1_555 1_555
H101 C71 1_555 1_555
C72 O10 1_555 1_555
H102 C72 1_555 1_555
H103 C72 1_555 1_555
C73 C72 1_555 1_555
H104 C73 1_555 1_555
H105 C73 1_555 1_555
C74 C73 1_555 1_555
H106 C74 1_555 1_555
H107 C74 1_555 1_555
C75 C74 1_555 1_555
H108 C75 1_555 1_555
H109 C75 1_555 1_555
H110 C75 1_555 1_555
C76 H111 1_555 1_555
H112 C76 1_555 1_555
C77 C76 1_555 1_555
H113 C77 1_555 1_555
H114 C77 1_555 1_555
C78 C77 1_555 1_555
H115 C78 1_555 1_555
H116 C78 1_555 1_555
C79 C78 1_555 1_555
H117 C79 1_555 1_555
H118 C79 1_555 1_555
F1 C76 1_555 1_555
F2 C79 1_555 1_555
C5 C6 1_555 1_555
C12 C13 1_555 1_555
C19 C20 1_555 1_555
C26 C27 1_555 1_555
C32 C35 1_555 1_555
C33 C34 1_555 1_555

#END
