
#######################################################################
#
#                 Cambridge Crystallographic Data Centre
#                                CCDC 
#
#######################################################################
#
# If this CIF has been generated from an entry in the Cambridge 
# Structural Database, then it will include bibliographic, chemical, 
# crystal, experimental, refinement or atomic coordinate data resulting 
# from the CCDC's data processing and validation procedures.
#
#######################################################################

data_CAVHEN
_chemical_compound_source        'leaves and stems of Kadsura philippinensis'
_chemical_formula_moiety         'C32 H46 O8,C1 H4 O1'
_chemical_name_systematic        'Kadsuphilactone A methanol solvate'
_chemical_properties_biological  
'antihepatitis activity and inhibits cholesterol biosynthesis'
_symmetry_cell_setting           trigonal
_symmetry_space_group_name_H-M   'P 31'
_symmetry_Int_Tables_number      144
_space_group_name_Hall           'P 31'
loop_
_symmetry_equiv_pos_site_id
_symmetry_equiv_pos_as_xyz
1 x,y,z
2 -y,x-y,1/3+z
3 -x+y,-x,2/3+z
_cell_length_a                   10.4666(14)
_cell_length_b                   10.4666(14)
_cell_length_c                   25.264(6)
_cell_angle_alpha                90
_cell_angle_beta                 90
_cell_angle_gamma                120
_cell_volume                     2396.87
_exptl_crystal_colour            colorless
_exptl_crystal_description       prism
_chemical_melting_point          '193 deg.C'
_cell_formula_units_Z            3
loop_
_atom_site_label
_atom_site_type_symbol
_atom_site_fract_x
_atom_site_fract_y
_atom_site_fract_z
C1 C 0.6622(5) 0.3513(5) 0.89669(16)
H1 H 0.5773 0.2531 0.8901
C2 C 0.6642(6) 0.4002(6) 0.95270(17)
H2 H 0.5672 0.3444 0.9687
H3 H 0.7342 0.3871 0.9739
C3 C 0.7098(5) 0.5602(6) 0.94860(17)
C4 C 0.8176(5) 0.3846(5) 0.82713(15)
C5 C 0.7764(4) 0.5062(4) 0.81949(15)
H4 H 0.8629 0.5992 0.8304
C6 C 0.7444(4) 0.5273(4) 0.76191(14)
H5 H 0.8151 0.5198 0.7391
H6 H 0.6469 0.4478 0.7525
C7 C 0.7515(4) 0.6736(5) 0.75122(16)
H7 H 0.8505 0.7533 0.7586
H8 H 0.6847 0.6837 0.7752
C8 C 0.7107(5) 0.6885(5) 0.69389(16)
H9 H 0.6517 0.5898 0.6796
H10 H 0.8013 0.7370 0.6735
C9 C 0.4609(4) 0.5334(4) 0.82498(15)
C10 C 0.6563(4) 0.4700(4) 0.86186(14)
C11 C 0.4071(4) 0.5119(4) 0.76738(14)
H11 H 0.4732 0.4934 0.7452
C12 C 0.3934(4) 0.6383(4) 0.74353(14)
H12 H 0.4467 0.7245 0.7659
H13 H 0.2903 0.6114 0.7440
C13 C 0.4517(4) 0.6802(4) 0.68647(14)
C14 C 0.6256(4) 0.7730(4) 0.68396(16)
C15 C 0.6506(5) 0.8304(6) 0.62686(19)
H14 H 0.7451 0.9205 0.6236
H15 H 0.6487 0.7575 0.6027
C16 C 0.5251(5) 0.8596(6) 0.61477(18)
H16 H 0.4794 0.8149 0.5813
H17 H 0.5620 0.9649 0.6125
C17 C 0.4109(4) 0.7911(4) 0.66044(14)
H18 H 0.4333 0.8694 0.6862
C18 C 0.6899(5) 0.9081(5) 0.7206(2)
H19 H 0.7953 0.9629 0.7168
H20 H 0.6651 0.8761 0.7566
H21 H 0.6496 0.9697 0.7113
C19 C 0.4970(4) 0.4187(4) 0.84623(14)
H22 H 0.4681 0.3424 0.8196
H23 H 0.4355 0.3730 0.8770
C20 C 0.2519(4) 0.7348(4) 0.64007(15)
H24 H 0.2317 0.6599 0.6130
C21 C 0.1302(4) 0.6631(5) 0.68199(19)
H25 H 0.1610 0.7214 0.7137
H26 H 0.1122 0.5656 0.6896
H27 H 0.0414 0.6574 0.6689
C22 C 0.2461(4) 0.8627(4) 0.61268(15)
H28 H 0.3181 0.8984 0.5838
C23 C 0.2758(6) 0.9920(5) 0.64683(18)
H29 H 0.2142 0.9580 0.6782
H30 H 0.3782 1.0431 0.6580
C24 C 0.2436(6) 1.0947(5) 0.61622(18)
H31 H 0.2951 1.1946 0.6245
C25 C 0.1452(5) 1.0491(5) 0.57797(17)
C26 C 0.0577(5) 0.8905(5) 0.56688(18)
C27 C 0.1079(8) 1.1473(7) 0.5460(2)
H32 H 0.1694 1.2479 0.5570
H33 H 0.0062 1.1184 0.5515
H34 H 0.1244 1.1384 0.5092
C28 C 0.7186(7) 0.2432(5) 0.7972(2)
H35 H 0.7252 0.1632 0.8129
H36 H 0.7495 0.2543 0.7609
H37 H 0.6184 0.2226 0.7989
C29 C 0.9779(5) 0.4375(7) 0.81510(19)
H38 H 1.0393 0.5250 0.8352
H39 H 0.9959 0.4590 0.7780
H40 H 1.0004 0.3620 0.8244
C30 C 0.3871(5) 0.5408(5) 0.65179(16)
H41 H 0.4281 0.4807 0.6624
H42 H 0.4111 0.5686 0.6154
H43 H 0.2818 0.4860 0.6559
C31 C 0.2463(4) 0.2559(4) 0.74667(17)
C32 C 0.0880(5) 0.1408(5) 0.7416(2)
H44 H 0.0482 0.1576 0.7098
H45 H 0.0344 0.1453 0.7717
H46 H 0.0794 0.0451 0.7400
O1 O 0.7975(3) 0.3575(3) 0.88371(11)
O2 O 0.7437(5) 0.6478(5) 0.98335(15)
O3 O 0.7078(3) 0.5971(3) 0.89718(11)
O4 O 0.4678(4) 0.6304(4) 0.85225(11)
O5 O 0.0992(3) 0.8002(3) 0.58964(12)
O6 O -0.0534(4) 0.8342(4) 0.54025(18)
O7 O 0.2608(3) 0.3796(3) 0.76793(11)
O8 O 0.3488(3) 0.2417(3) 0.73276(13)
C33 C 0.2946(11) 0.9152(10) 0.8144(3)
O10 O 0.1402(7) 0.8644(6) 0.8170(3)
O9? O 0.359(3) 1.032(3) 0.8479(13)
loop_
_geom_bond_atom_site_label_1
_geom_bond_atom_site_label_2
_geom_bond_site_symmetry_1
_geom_bond_site_symmetry_2
C1 H1 1_555 1_555
C2 C1 1_555 1_555
H2 C2 1_555 1_555
H3 C2 1_555 1_555
C3 C2 1_555 1_555
C4 C5 1_555 1_555
C5 H4 1_555 1_555
C6 C5 1_555 1_555
H5 C6 1_555 1_555
H6 C6 1_555 1_555
C7 C6 1_555 1_555
H7 C7 1_555 1_555
H8 C7 1_555 1_555
C8 C7 1_555 1_555
H9 C8 1_555 1_555
H10 C8 1_555 1_555
C9 C11 1_555 1_555
C10 C1 1_555 1_555
C11 H11 1_555 1_555
C12 C11 1_555 1_555
H12 C12 1_555 1_555
H13 C12 1_555 1_555
C13 C12 1_555 1_555
C14 C8 1_555 1_555
C15 C14 1_555 1_555
H14 C15 1_555 1_555
H15 C15 1_555 1_555
C16 C15 1_555 1_555
H16 C16 1_555 1_555
H17 C16 1_555 1_555
C17 C13 1_555 1_555
H18 C17 1_555 1_555
C18 C14 1_555 1_555
H19 C18 1_555 1_555
H20 C18 1_555 1_555
H21 C18 1_555 1_555
C19 C9 1_555 1_555
H22 C19 1_555 1_555
H23 C19 1_555 1_555
C20 C17 1_555 1_555
H24 C20 1_555 1_555
C21 C20 1_555 1_555
H25 C21 1_555 1_555
H26 C21 1_555 1_555
H27 C21 1_555 1_555
C22 C20 1_555 1_555
H28 C22 1_555 1_555
C23 C22 1_555 1_555
H29 C23 1_555 1_555
H30 C23 1_555 1_555
C24 C23 1_555 1_555
H31 C24 1_555 1_555
C25 C24 1_555 1_555
C26 C25 1_555 1_555
C27 C25 1_555 1_555
H32 C27 1_555 1_555
H33 C27 1_555 1_555
H34 C27 1_555 1_555
C28 C4 1_555 1_555
H35 C28 1_555 1_555
H36 C28 1_555 1_555
H37 C28 1_555 1_555
C29 C4 1_555 1_555
H38 C29 1_555 1_555
H39 C29 1_555 1_555
H40 C29 1_555 1_555
C30 C13 1_555 1_555
H41 C30 1_555 1_555
H42 C30 1_555 1_555
H43 C30 1_555 1_555
C31 C32 1_555 1_555
C32 H44 1_555 1_555
H45 C32 1_555 1_555
H46 C32 1_555 1_555
C33 O10 1_555 1_555
O1 C1 1_555 1_555
O2 C3 1_555 1_555
O3 C3 1_555 1_555
O4 C9 1_555 1_555
O5 C22 1_555 1_555
O6 C26 1_555 1_555
O7 C11 1_555 1_555
O8 C31 1_555 1_555
C4 O1 1_555 1_555
C5 C10 1_555 1_555
C10 C19 1_555 1_555
C10 O3 1_555 1_555
C13 C14 1_555 1_555
C16 C17 1_555 1_555
C26 O5 1_555 1_555
C31 O7 1_555 1_555

#END
