
#######################################################################
#
#                 Cambridge Crystallographic Data Centre
#                                CCDC 
#
#######################################################################
#
# If this CIF has been generated from an entry in the Cambridge 
# Structural Database, then it will include bibliographic, chemical, 
# crystal, experimental, refinement or atomic coordinate data resulting 
# from the CCDC's data processing and validation procedures.
#
#######################################################################

data_CAVHUD
_chemical_formula_moiety         'C7 H12 N2 O3'
_chemical_name_systematic        
3-hydroxy-2-oxo-8-oxa-1,5-diazaspiro[4.5]decan-5-ium-1-ide
_symmetry_cell_setting           monoclinic
_symmetry_space_group_name_H-M   'P 21/c'
_symmetry_Int_Tables_number      14
_space_group_name_Hall           '-P 2ybc'
loop_
_symmetry_equiv_pos_site_id
_symmetry_equiv_pos_as_xyz
1 x,y,z
2 -x,1/2+y,1/2-z
3 -x,-y,-z
4 x,1/2-y,1/2+z
_cell_length_a                   5.520(3)
_cell_length_b                   8.698(4)
_cell_length_c                   16.224(7)
_cell_angle_alpha                90
_cell_angle_beta                 98.120(7)
_cell_angle_gamma                90
_cell_volume                     771.153
_cell_formula_units_Z            4
loop_
_atom_site_label
_atom_site_type_symbol
_atom_site_fract_x
_atom_site_fract_y
_atom_site_fract_z
O1 O 0.3447(3) 0.1495(2) 0.35759(12)
O2 O 0.8683(3) 0.0732(2) 0.34116(12)
H1 H 1.0161 0.0895 0.3472
N1 N 0.5844(4) 0.1863(2) 0.17155(13)
N2 N 0.3799(4) 0.1609(3) 0.21926(14)
O3 O 0.7517(4) 0.1424(2) 0.01243(12)
C1 C 0.4678(5) 0.1710(3) 0.29918(17)
C2 C 0.6618(5) 0.0318(3) 0.14248(17)
H2 H 0.5190 -0.0234 0.1160
H3 H 0.7352 -0.0277 0.1901
C3 C 0.7834(5) 0.2661(3) 0.23026(16)
H4 H 0.9446 0.2369 0.2185
H5 H 0.7670 0.3770 0.2263
C4 C 0.4947(5) 0.2800(3) 0.09614(17)
H6 H 0.4522 0.3824 0.1130
H7 H 0.3488 0.2330 0.0663
C5 C 0.8435(6) 0.0488(4) 0.08156(18)
H8 H 0.9932 0.0937 0.1099
H9 H 0.8827 -0.0522 0.0617
C6 C 0.7410(5) 0.2098(3) 0.31462(17)
H10 H 0.7745 0.2911 0.3565
C7 C 0.6894(6) 0.2910(4) 0.03952(19)
H11 H 0.6300 0.3540 -0.0085
H12 H 0.8341 0.3400 0.0691
loop_
_geom_bond_atom_site_label_1
_geom_bond_atom_site_label_2
_geom_bond_site_symmetry_1
_geom_bond_site_symmetry_2
O1 C1 1_555 1_555
O2 H1 1_555 1_555
N1 N2 1_555 1_555
N2 C1 1_555 1_555
O3 C5 1_555 1_555
C1 C6 1_555 1_555
C2 N1 1_555 1_555
H2 C2 1_555 1_555
H3 C2 1_555 1_555
C3 N1 1_555 1_555
H4 C3 1_555 1_555
H5 C3 1_555 1_555
C4 N1 1_555 1_555
H6 C4 1_555 1_555
H7 C4 1_555 1_555
C5 C2 1_555 1_555
H8 C5 1_555 1_555
H9 C5 1_555 1_555
C6 O2 1_555 1_555
H10 C6 1_555 1_555
C7 O3 1_555 1_555
H11 C7 1_555 1_555
H12 C7 1_555 1_555
C3 C6 1_555 1_555
C4 C7 1_555 1_555

#END
