
#######################################################################
#
#                 Cambridge Crystallographic Data Centre
#                                CCDC 
#
#######################################################################
#
# If this CIF has been generated from an entry in the Cambridge 
# Structural Database, then it will include bibliographic, chemical, 
# crystal, experimental, refinement or atomic coordinate data resulting 
# from the CCDC's data processing and validation procedures.
#
#######################################################################

data_CAVLET
_chemical_formula_moiety         'C16 H24 B1 P2 1+,As1 F6 1-'
_chemical_name_systematic        
'bis[dimethyl(phenyl)phosphanyl]boronium hexafluoroarsenate'
_symmetry_cell_setting           monoclinic
_symmetry_space_group_name_H-M   'P 21/n'
_symmetry_Int_Tables_number      14
_space_group_name_Hall           '-P 2yn'
loop_
_symmetry_equiv_pos_site_id
_symmetry_equiv_pos_as_xyz
1 x,y,z
2 1/2-x,1/2+y,1/2-z
3 -x,-y,-z
4 1/2+x,1/2-y,1/2+z
_cell_length_a                   11.03020(10)
_cell_length_b                   16.4541(2)
_cell_length_c                   35.0725(5)
_cell_angle_alpha                90
_cell_angle_beta                 93.3927(5)
_cell_angle_gamma                90
_cell_volume                     6354.22
_exptl_crystal_colour            colorless
_exptl_crystal_description       lath
_cell_formula_units_Z            12
_exptl_crystal_recrystallization_method 
'chloroform/petroleum spirits (60-80 deg.C)'
loop_
_atom_site_label
_atom_site_type_symbol
_atom_site_fract_x
_atom_site_fract_y
_atom_site_fract_z
As1 As 0.16715(5) 0.84448(3) 0.559354(15)
F1 F 0.2652(4) 0.8672(2) 0.59731(11)
F2 F 0.2878(3) 0.8437(3) 0.53096(11)
F3 F 0.1899(3) 0.7431(2) 0.56855(11)
F4 F 0.1440(4) 0.9458(2) 0.55058(12)
F5 F 0.0478(4) 0.8440(3) 0.58796(14)
F6 F 0.0721(4) 0.8201(3) 0.52087(13)
As2 As 0.34634(5) 0.34492(3) 0.565764(15)
F7 F 0.3631(4) 0.4457(2) 0.55625(14)
F8 F 0.2141(3) 0.3429(3) 0.53784(12)
F9 F 0.3288(4) 0.2452(2) 0.57609(16)
F10 F 0.2624(5) 0.3694(3) 0.60327(12)
F11 F 0.4761(4) 0.3472(3) 0.59462(15)
F12 F 0.4260(4) 0.3205(3) 0.52765(15)
As3 As 0.78972(5) 0.28853(4) 0.749662(18)
F13 F 0.6926(5) 0.3653(4) 0.7397(2)
F14 F 0.8851(5) 0.2112(3) 0.7608(2)
F15 F 0.6947(5) 0.2566(5) 0.7817(2)
F16 F 0.8638(6) 0.3423(5) 0.7840(2)
F17 F 0.7131(6) 0.2353(5) 0.7169(2)
F18 F 0.8861(6) 0.3262(6) 0.7195(2)
B1 B 0.9291(5) 0.5457(4) 0.62832(18)
P1 P 0.94041(12) 0.55890(8) 0.57419(4)
P2 P 0.76803(11) 0.52646(8) 0.64457(4)
C1 C 0.8860(6) 0.6555(3) 0.55650(17)
C2 C 1.0983(5) 0.5521(4) 0.56322(19)
C3 C 0.7170(5) 0.4238(3) 0.63529(17)
C4 C 0.7718(6) 0.5391(4) 0.69573(15)
C5 C 0.8588(4) 0.4801(3) 0.54763(14)
C6 C 0.7424(5) 0.4943(3) 0.53114(15)
C7 C 0.6755(5) 0.4304(4) 0.51490(16)
C8 C 0.7243(6) 0.3533(4) 0.51423(16)
C9 C 0.8404(6) 0.3390(3) 0.52942(17)
C10 C 0.9074(5) 0.4021(3) 0.54648(16)
C11 C 0.6540(4) 0.5957(3) 0.62514(13)
C12 C 0.6633(5) 0.6776(4) 0.63515(17)
C13 C 0.5777(6) 0.7327(4) 0.6209(2)
C14 C 0.4828(6) 0.7068(4) 0.59617(19)
C15 C 0.4725(5) 0.6262(4) 0.58666(17)
C16 C 0.5578(5) 0.5699(3) 0.60078(15)
H1 H 0.9641 0.6014 0.6425
H2 H 0.9865 0.4938 0.6376
H3 H 0.8029 0.6616 0.5617
H4 H 0.9321 0.6979 0.5688
H5 H 0.8941 0.6582 0.5297
H6 H 1.1308 0.5017 0.5722
H7 H 1.1425 0.5954 0.5754
H8 H 1.1045 0.5558 0.5364
H9 H 0.7134 0.4140 0.6085
H10 H 0.6386 0.4168 0.6446
H11 H 0.7722 0.3868 0.6477
H12 H 0.7983 0.5925 0.7022
H13 H 0.6927 0.5307 0.7044
H14 H 0.8263 0.5007 0.7075
H15 H 0.7091 0.5475 0.5310
H16 H 0.5957 0.4398 0.5042
H17 H 0.6777 0.3098 0.5033
H18 H 0.8748 0.2863 0.5282
H19 H 0.9868 0.3919 0.5575
H20 H 0.7288 0.6956 0.6518
H21 H 0.5840 0.7883 0.6280
H22 H 0.4249 0.7449 0.5858
H23 H 0.4063 0.6086 0.5702
H24 H 0.5501 0.5142 0.5939
B2 B 0.6166(5) 0.0413(4) 0.63018(16)
P3 P 0.78370(11) 0.01980(8) 0.64493(4)
P4 P 0.57869(11) 0.05490(8) 0.57600(4)
C17 C 0.8062(5) 0.0320(4) 0.69625(16)
C18 C 0.8294(5) -0.0826(4) 0.63495(18)
C19 C 0.6249(6) 0.1516(3) 0.55759(16)
C20 C 0.4164(5) 0.0496(4) 0.56733(17)
C21 C 0.8857(4) 0.0896(3) 0.62375(15)
C22 C 0.9769(5) 0.0634(3) 0.60091(15)
C23 C 1.0513(5) 0.1201(4) 0.58421(17)
C24 C 1.0346(5) 0.2014(4) 0.59082(19)
C25 C 0.9462(6) 0.2279(4) 0.6137(2)
C26 C 0.8706(5) 0.1721(3) 0.63025(17)
C27 C 0.6464(4) -0.0238(3) 0.54861(13)
C28 C 0.5944(5) -0.1009(3) 0.54656(15)
C29 C 0.6527(6) -0.1640(3) 0.52893(18)
C30 C 0.7645(6) -0.1514(4) 0.51421(17)
C31 C 0.8170(5) -0.0751(4) 0.51613(15)
C32 C 0.7579(5) -0.0117(3) 0.53297(14)
H25 H 0.5900 0.0973 0.6446
H26 H 0.5623 -0.0099 0.6400
H27 H 0.7832 0.0854 0.7032
H28 H 0.8893 0.0234 0.7038
H29 H 0.7577 -0.0064 0.7087
H30 H 0.8195 -0.0923 0.6083
H31 H 0.9123 -0.0897 0.6432
H32 H 0.7807 -0.1196 0.6481
H33 H 0.7102 0.1573 0.5616
H34 H 0.5856 0.1940 0.5705
H35 H 0.6025 0.1545 0.5311
H36 H 0.3877 -0.0006 0.5766
H37 H 0.3795 0.0932 0.5801
H38 H 0.3965 0.0536 0.5407
H39 H 0.9886 0.0071 0.5967
H40 H 1.1132 0.1026 0.5684
H41 H 1.0851 0.2400 0.5793
H42 H 0.9365 0.2843 0.6184
H43 H 0.8087 0.1903 0.6459
H44 H 0.5186 -0.1104 0.5573
H45 H 0.6155 -0.2161 0.5269
H46 H 0.8055 -0.1952 0.5028
H47 H 0.8937 -0.0663 0.5059
H48 H 0.7940 0.0408 0.5339
B3 B 0.2455(6) 0.1045(4) 0.68330(17)
P5 P 0.28473(12) 0.21225(8) 0.70173(4)
P6 P 0.32239(13) 0.01987(8) 0.71368(4)
C33 C 0.4292(6) 0.2452(4) 0.68563(19)
C34 C 0.1740(6) 0.2843(4) 0.68349(18)
C35 C 0.4796(5) 0.0354(4) 0.72684(16)
C36 C 0.3150(7) -0.0732(4) 0.68691(19)
C37 C 0.2873(5) 0.2203(3) 0.75306(14)
C38 C 0.3913(6) 0.2392(4) 0.77558(18)
C39 C 0.3876(9) 0.2413(4) 0.8150(2)
C40 C 0.2804(10) 0.2244(4) 0.8319(2)
C41 C 0.1778(8) 0.2065(4) 0.8101(2)
C42 C 0.1804(6) 0.2042(4) 0.77022(17)
C43 C 0.2472(5) 0.0012(3) 0.75721(15)
C44 C 0.3025(5) 0.0157(3) 0.79297(15)
C45 C 0.2390(6) 0.0036(4) 0.82575(17)
C46 C 0.1215(6) -0.0230(4) 0.82254(19)
C47 C 0.0652(5) -0.0377(4) 0.7874(2)
C48 C 0.1278(5) -0.0263(4) 0.75448(18)
H49 H 0.1466 0.0963 0.6833
H50 H 0.2746 0.0991 0.6540
H51 H 0.4908 0.2086 0.6947
H52 H 0.4470 0.2981 0.6952
H53 H 0.4254 0.2464 0.6585
H54 H 0.0961 0.2693 0.6913
H55 H 0.1944 0.3369 0.6932
H56 H 0.1729 0.2851 0.6564
H57 H 0.4891 0.0841 0.7411
H58 H 0.5094 -0.0092 0.7418
H59 H 0.5236 0.0393 0.7044
H60 H 0.2330 -0.0848 0.6791
H61 H 0.3472 -0.1163 0.7025
H62 H 0.3614 -0.0679 0.6651
H63 H 0.4652 0.2508 0.7639
H64 H 0.4587 0.2542 0.8304
H65 H 0.2785 0.2252 0.8589
H66 H 0.1042 0.1958 0.8218
H67 H 0.1088 0.1917 0.7551
H68 H 0.3843 0.0340 0.7953
H69 H 0.2774 0.0139 0.8502
H70 H 0.0786 -0.0313 0.8449
H71 H -0.0168 -0.0558 0.7854
H72 H 0.0889 -0.0372 0.7301
loop_
_geom_bond_atom_site_label_1
_geom_bond_atom_site_label_2
_geom_bond_site_symmetry_1
_geom_bond_site_symmetry_2
As1 F1 1_555 1_555
F2 As1 1_555 1_555
F3 As1 1_555 1_555
F4 As1 1_555 1_555
F5 As1 1_555 1_555
F6 As1 1_555 1_555
As2 F7 1_555 1_555
F8 As2 1_555 1_555
F9 As2 1_555 1_555
F10 As2 1_555 1_555
F11 As2 1_555 1_555
F12 As2 1_555 1_555
As3 F13 1_555 1_555
F14 As3 1_555 1_555
F15 As3 1_555 1_555
F16 As3 1_555 1_555
F17 As3 1_555 1_555
F18 As3 1_555 1_555
B1 P1 1_555 1_555
P1 C1 1_555 1_555
P2 B1 1_555 1_555
C1 H3 1_555 1_555
C2 P1 1_555 1_555
C3 P2 1_555 1_555
C4 P2 1_555 1_555
C5 P1 1_555 1_555
C6 C5 1_555 1_555
C7 C6 1_555 1_555
C8 C7 1_555 1_555
C9 C8 1_555 1_555
C10 C5 1_555 1_555
C11 P2 1_555 1_555
C12 C11 1_555 1_555
C13 C12 1_555 1_555
C14 C13 1_555 1_555
C15 C14 1_555 1_555
C16 C11 1_555 1_555
H1 B1 1_555 1_555
H2 B1 1_555 1_555
H4 C1 1_555 1_555
H5 C1 1_555 1_555
H6 C2 1_555 1_555
H7 C2 1_555 1_555
H8 C2 1_555 1_555
H9 C3 1_555 1_555
H10 C3 1_555 1_555
H11 C3 1_555 1_555
H12 C4 1_555 1_555
H13 C4 1_555 1_555
H14 C4 1_555 1_555
H15 C6 1_555 1_555
H16 C7 1_555 1_555
H17 C8 1_555 1_555
H18 C9 1_555 1_555
H19 C10 1_555 1_555
H20 C12 1_555 1_555
H21 C13 1_555 1_555
H22 C14 1_555 1_555
H23 C15 1_555 1_555
H24 C16 1_555 1_555
B2 P3 1_555 1_555
P3 C17 1_555 1_555
P4 B2 1_555 1_555
C17 H27 1_555 1_555
C18 P3 1_555 1_555
C19 P4 1_555 1_555
C20 P4 1_555 1_555
C21 P3 1_555 1_555
C22 C21 1_555 1_555
C23 C22 1_555 1_555
C24 C23 1_555 1_555
C25 C24 1_555 1_555
C26 C21 1_555 1_555
C27 P4 1_555 1_555
C28 C27 1_555 1_555
C29 C28 1_555 1_555
C30 C29 1_555 1_555
C31 C30 1_555 1_555
C32 C27 1_555 1_555
H25 B2 1_555 1_555
H26 B2 1_555 1_555
H28 C17 1_555 1_555
H29 C17 1_555 1_555
H30 C18 1_555 1_555
H31 C18 1_555 1_555
H32 C18 1_555 1_555
H33 C19 1_555 1_555
H34 C19 1_555 1_555
H35 C19 1_555 1_555
H36 C20 1_555 1_555
H37 C20 1_555 1_555
H38 C20 1_555 1_555
H39 C22 1_555 1_555
H40 C23 1_555 1_555
H41 C24 1_555 1_555
H42 C25 1_555 1_555
H43 C26 1_555 1_555
H44 C28 1_555 1_555
H45 C29 1_555 1_555
H46 C30 1_555 1_555
H47 C31 1_555 1_555
H48 C32 1_555 1_555
B3 P5 1_555 1_555
P5 C33 1_555 1_555
P6 B3 1_555 1_555
C33 H51 1_555 1_555
C34 P5 1_555 1_555
C35 P6 1_555 1_555
C36 P6 1_555 1_555
C37 P5 1_555 1_555
C38 C37 1_555 1_555
C39 C38 1_555 1_555
C40 C39 1_555 1_555
C41 C40 1_555 1_555
C42 C37 1_555 1_555
C43 P6 1_555 1_555
C44 C43 1_555 1_555
C45 C44 1_555 1_555
C46 C45 1_555 1_555
C47 C46 1_555 1_555
C48 C43 1_555 1_555
H49 B3 1_555 1_555
H50 B3 1_555 1_555
H52 C33 1_555 1_555
H53 C33 1_555 1_555
H54 C34 1_555 1_555
H55 C34 1_555 1_555
H56 C34 1_555 1_555
H57 C35 1_555 1_555
H58 C35 1_555 1_555
H59 C35 1_555 1_555
H60 C36 1_555 1_555
H61 C36 1_555 1_555
H62 C36 1_555 1_555
H63 C38 1_555 1_555
H64 C39 1_555 1_555
H65 C40 1_555 1_555
H66 C41 1_555 1_555
H67 C42 1_555 1_555
H68 C44 1_555 1_555
H69 C45 1_555 1_555
H70 C46 1_555 1_555
H71 C47 1_555 1_555
H72 C48 1_555 1_555
C9 C10 1_555 1_555
C15 C16 1_555 1_555
C25 C26 1_555 1_555
C31 C32 1_555 1_555
C41 C42 1_555 1_555
C47 C48 1_555 1_555

#END
