
#######################################################################
#
#                 Cambridge Crystallographic Data Centre
#                                CCDC 
#
#######################################################################
#
# If this CIF has been generated from an entry in the Cambridge 
# Structural Database, then it will include bibliographic, chemical, 
# crystal, experimental, refinement or atomic coordinate data resulting 
# from the CCDC's data processing and validation procedures.
#
#######################################################################

data_CAVNAR
_chemical_formula_moiety         'C21 H23 N1 O2'
_chemical_name_systematic        
(Z)-1-(4-(azepan-1-yl)phenyl)-3-hydroxy-3-phenylprop-2-en-1-one
_symmetry_cell_setting           monoclinic
_symmetry_space_group_name_H-M   'P 21/c'
_symmetry_Int_Tables_number      14
_space_group_name_Hall           '-P 2ybc'
loop_
_symmetry_equiv_pos_site_id
_symmetry_equiv_pos_as_xyz
1 x,y,z
2 -x,1/2+y,1/2-z
3 -x,-y,-z
4 x,1/2-y,1/2+z
_cell_length_a                   15.43(2)
_cell_length_b                   10.791(17)
_cell_length_c                   10.129(15)
_cell_angle_alpha                90
_cell_angle_beta                 101.94(3)
_cell_angle_gamma                90
_cell_volume                     1650.04
_exptl_crystal_colour            yellow
_exptl_crystal_description       plate
_cell_formula_units_Z            4
_exptl_crystal_recrystallization_method acetone/hexane
_exptl_crystal_preparation       ', Luminescent'
loop_
_atom_site_label
_atom_site_type_symbol
_atom_site_fract_x
_atom_site_fract_y
_atom_site_fract_z
O1 O 0.64933(9) 0.94322(11) 0.15374(18)
O2 O 0.78730(9) 0.86719(11) 0.10682(19)
N1 N 0.35610(8) 0.85850(12) 0.49553(19)
C1 C 0.64897(10) 0.85520(13) 0.2400(2)
C2 C 0.71977(10) 0.76946(14) 0.2641(2)
C3 C 0.78798(10) 0.78046(13) 0.1936(2)
C4 C 0.86501(10) 0.69457(13) 0.2135(2)
C5 C 0.92594(11) 0.70773(15) 0.1307(3)
C6 C 0.99800(11) 0.62788(17) 0.1440(3)
C7 C 1.01015(11) 0.53571(16) 0.2387(3)
C8 C 0.94989(11) 0.52172(16) 0.3215(3)
C9 C 0.87760(11) 0.60134(15) 0.3093(2)
C10 C 0.57452(10) 0.85202(13) 0.3070(2)
C11 C 0.55957(10) 0.75555(14) 0.3911(2)
C12 C 0.48804(10) 0.75587(14) 0.4525(2)
C13 C 0.42709(9) 0.85599(13) 0.4347(2)
C14 C 0.44303(10) 0.95425(13) 0.3513(2)
C15 C 0.51426(10) 0.95142(13) 0.2888(2)
C16 C 0.34947(11) 0.77090(15) 0.6018(2)
C17 C 0.29587(11) 0.65592(15) 0.5489(3)
C18 C 0.19579(12) 0.67600(15) 0.5156(3)
C19 C 0.16522(11) 0.78563(16) 0.4246(3)
C20 C 0.19743(10) 0.91114(15) 0.4851(3)
C21 C 0.28624(10) 0.95111(14) 0.4563(2)
H1 H 0.716(3) 0.930(4) 0.118(5)
H2 H 0.7216(13) 0.705(2) 0.329(3)
H3 H 0.9165(16) 0.767(2) 0.059(3)
H4 H 1.0393(17) 0.641(2) 0.084(3)
H5 H 1.060(2) 0.480(3) 0.236(4)
H6 H 0.9570(17) 0.458(3) 0.393(3)
H7 H 0.8375(15) 0.585(2) 0.375(3)
H8 H 0.5987(14) 0.683(2) 0.406(3)
H9 H 0.4802(15) 0.689(2) 0.514(3)
H10 H 0.4052(15) 1.028(2) 0.346(3)
H11 H 0.5242(14) 1.018(2) 0.233(3)
H12 H 0.3230(15) 0.811(2) 0.671(3)
H13 H 0.4101(15) 0.748(2) 0.640(3)
H14 H 0.3103(15) 0.595(2) 0.617(3)
H15 H 0.3201(15) 0.623(2) 0.467(3)
H16 H 0.1755(14) 0.686(2) 0.605(3)
H17 H 0.1653(14) 0.601(2) 0.471(3)
H18 H 0.1000(17) 0.788(2) 0.399(3)
H19 H 0.1831(15) 0.775(2) 0.338(3)
H20 H 0.2009(15) 0.909(2) 0.581(3)
H21 H 0.1543(14) 0.976(2) 0.447(3)
H22 H 0.3066(14) 1.031(2) 0.509(3)
H23 H 0.2787(15) 0.962(2) 0.349(3)
loop_
_geom_bond_atom_site_label_1
_geom_bond_atom_site_label_2
_geom_bond_site_symmetry_1
_geom_bond_site_symmetry_2
O1 C1 1_555 1_555
O2 C3 1_555 1_555
N1 C13 1_555 1_555
C1 C2 1_555 1_555
C2 C3 1_555 1_555
C3 C4 1_555 1_555
C4 C5 1_555 1_555
C5 C6 1_555 1_555
C6 C7 1_555 1_555
C7 C8 1_555 1_555
C8 C9 1_555 1_555
C9 C4 1_555 1_555
C10 C1 1_555 1_555
C11 C10 1_555 1_555
C12 C11 1_555 1_555
C13 C12 1_555 1_555
C14 C13 1_555 1_555
C15 C10 1_555 1_555
C16 N1 1_555 1_555
C17 C16 1_555 1_555
C18 C17 1_555 1_555
C19 C18 1_555 1_555
C20 C19 1_555 1_555
C21 N1 1_555 1_555
H1 O1 1_555 1_555
H2 C2 1_555 1_555
H3 C5 1_555 1_555
H4 C6 1_555 1_555
H5 C7 1_555 1_555
H6 C8 1_555 1_555
H7 C9 1_555 1_555
H8 C11 1_555 1_555
H9 C12 1_555 1_555
H10 C14 1_555 1_555
H11 C15 1_555 1_555
H12 C16 1_555 1_555
H13 C16 1_555 1_555
H14 C17 1_555 1_555
H15 C17 1_555 1_555
H16 C18 1_555 1_555
H17 C18 1_555 1_555
H18 C19 1_555 1_555
H19 C19 1_555 1_555
H20 C20 1_555 1_555
H21 C20 1_555 1_555
H22 C21 1_555 1_555
H23 C21 1_555 1_555
C14 C15 1_555 1_555
C20 C21 1_555 1_555

#END
