
#######################################################################
#
#                 Cambridge Crystallographic Data Centre
#                                CCDC 
#
#######################################################################
#
# If this CIF has been generated from an entry in the Cambridge 
# Structural Database, then it will include bibliographic, chemical, 
# crystal, experimental, refinement or atomic coordinate data resulting 
# from the CCDC's data processing and validation procedures.
#
#######################################################################

data_CAVRUN
_chemical_formula_moiety         'C21 H12 I3 N3 O3'
_chemical_name_systematic        2,4,6-tris(3-Iodophenoxy)-1,3,5-triazine
_symmetry_cell_setting           rhombohedral
_symmetry_space_group_name_H-M   'R -3'
_symmetry_Int_Tables_number      148
_space_group_name_Hall           '-R 3'
loop_
_symmetry_equiv_pos_site_id
_symmetry_equiv_pos_as_xyz
1 x,y,z
2 -y,x-y,z
3 -x+y,-x,z
4 2/3+x,1/3+y,1/3+z
5 2/3-y,1/3+x-y,1/3+z
6 2/3-x+y,1/3-x,1/3+z
7 1/3+x,2/3+y,2/3+z
8 1/3-y,2/3+x-y,2/3+z
9 1/3-x+y,2/3-x,2/3+z
10 -x,-y,-z
11 y,-x+y,-z
12 x-y,x,-z
13 1/3-x,2/3-y,2/3-z
14 1/3+y,2/3-x+y,2/3-z
15 1/3+x-y,2/3+x,2/3-z
16 2/3-x,1/3-y,1/3-z
17 2/3+y,1/3-x+y,1/3-z
18 2/3+x-y,1/3+x,1/3-z
_cell_length_a                   23.421(3)
_cell_length_b                   23.421(3)
_cell_length_c                   7.3005(16)
_cell_angle_alpha                90
_cell_angle_beta                 90
_cell_angle_gamma                120
_cell_volume                     3468.12
_exptl_crystal_colour            colorless
_exptl_crystal_description       rod
_chemical_melting_point          '175 deg.C'
_cell_formula_units_Z            6
_exptl_crystal_recrystallization_method tetrahydrofuran/mesitylene
loop_
_atom_site_label
_atom_site_type_symbol
_atom_site_fract_x
_atom_site_fract_y
_atom_site_fract_z
I1 I 0.02965(2) 0.61251(2) 0.12726(5)
N1 N 0.3245(2) 0.6037(2) 0.4012(5)
O1 O 0.21603(17) 0.56217(18) 0.4027(5)
C1 C 0.2748(2) 0.6165(2) 0.4013(5)
C2 C 0.1605(2) 0.5696(2) 0.4369(6)
C3 C 0.1309(2) 0.5840(2) 0.2956(6)
H1 H 0.1473 0.5898 0.1754
C4 C 0.0763(2) 0.5896(3) 0.3362(6)
C5 C 0.0524(3) 0.5810(3) 0.5141(7)
H2 H 0.0155 0.5854 0.5405
C6 C 0.0830(3) 0.5657(3) 0.6521(7)
H3 H 0.0663 0.5592 0.7721
C7 C 0.1376(3) 0.5600(3) 0.6156(7)
H4 H 0.1587 0.5498 0.7091
I1B I 0.58286(3) 0.97035(2) 0.12726(5)
I1A I 0.38749(2) 0.41714(3) 0.12726(5)
N1A N 0.3963(2) 0.7208(3) 0.4012(5)
N1B N 0.2792(3) 0.6755(2) 0.4012(5)
O1B O 0.34614(25) 0.78397(17) 0.4027(5)
O1A O 0.43783(18) 0.65386(25) 0.4027(5)
C1A C 0.3835(2) 0.6583(3) 0.4013(5)
C1B C 0.3417(3) 0.7252(2) 0.4013(5)
C2B C 0.4091(3) 0.8395(2) 0.4369(6)
C2A C 0.4304(2) 0.5909(3) 0.4369(6)
C3B C 0.4531(3) 0.8691(2) 0.2956(6)
C3A C 0.4160(2) 0.5469(3) 0.2956(6)
H1B H 0.4425 0.8527 0.1754
H1A H 0.4102 0.5575 0.1754
C4B C 0.5133(4) 0.9237(2) 0.3362(6)
C4A C 0.4104(3) 0.4867(4) 0.3362(6)
C5B C 0.5286(4) 0.9476(3) 0.5141(7)
C5A C 0.4190(3) 0.4714(4) 0.5141(7)
H2B H 0.5699 0.9845 0.5405
H2A H 0.4146 0.4301 0.5405
C6B C 0.4827(4) 0.9170(3) 0.6521(7)
C6A C 0.4343(3) 0.5173(4) 0.6521(7)
H3B H 0.4929 0.9337 0.7721
H3A H 0.4408 0.5071 0.7721
C7B C 0.4224(4) 0.8624(3) 0.6156(7)
C7A C 0.4400(3) 0.5776(4) 0.6156(7)
H4B H 0.3911 0.8413 0.7091
H4A H 0.4502 0.6089 0.7091
loop_
_geom_bond_atom_site_label_1
_geom_bond_atom_site_label_2
_geom_bond_site_symmetry_1
_geom_bond_site_symmetry_2
I1 C4 1_555 1_555
N1 C1 1_555 1_555
O1 C1 1_555 1_555
C1 N1B 1_555 1_555
C2 O1 1_555 1_555
C3 C2 1_555 1_555
H1 C3 1_555 1_555
C4 C3 1_555 1_555
C5 C4 1_555 1_555
H2 C5 1_555 1_555
C6 C5 1_555 1_555
H3 C6 1_555 1_555
C7 C2 1_555 1_555
H4 C7 1_555 1_555
I1B C4B 1_555 1_555
I1A C4A 1_555 1_555
N1A C1A 1_555 1_555
N1B C1B 1_555 1_555
O1B C1B 1_555 1_555
O1A C1A 1_555 1_555
C1A N1 1_555 1_555
C1B N1A 1_555 1_555
C2B O1B 1_555 1_555
C2A O1A 1_555 1_555
C3B C2B 1_555 1_555
C3A C2A 1_555 1_555
H1B C3B 1_555 1_555
H1A C3A 1_555 1_555
C4B C3B 1_555 1_555
C4A C3A 1_555 1_555
C5B C4B 1_555 1_555
C5A C4A 1_555 1_555
H2B C5B 1_555 1_555
H2A C5A 1_555 1_555
C6B C5B 1_555 1_555
C6A C5A 1_555 1_555
H3B C6B 1_555 1_555
H3A C6A 1_555 1_555
C7B C2B 1_555 1_555
C7A C2A 1_555 1_555
H4B C7B 1_555 1_555
H4A C7A 1_555 1_555
C6 C7 1_555 1_555
C6B C7B 1_555 1_555
C6A C7A 1_555 1_555

#END
