
#######################################################################
#
#                 Cambridge Crystallographic Data Centre
#                                CCDC 
#
#######################################################################
#
# If this CIF has been generated from an entry in the Cambridge 
# Structural Database, then it will include bibliographic, chemical, 
# crystal, experimental, refinement or atomic coordinate data resulting 
# from the CCDC's data processing and validation procedures.
#
#######################################################################

data_CAVRAT
_chemical_formula_moiety         'C14 H12 N2 O1'
_chemical_name_systematic        
6-Oxo-4-cyano-3,4,4a,5,6,10b-hexahydrophenanthridine
_symmetry_cell_setting           orthorhombic
_symmetry_space_group_name_H-M   'P n a 21'
_symmetry_Int_Tables_number      33
_space_group_name_Hall           'P 2c -2n'
loop_
_symmetry_equiv_pos_site_id
_symmetry_equiv_pos_as_xyz
1 x,y,z
2 -x,-y,1/2+z
3 1/2+x,1/2-y,z
4 1/2-x,1/2+y,1/2+z
_cell_length_a                   13.328(3)
_cell_length_b                   9.314(2)
_cell_length_c                   18.207(4)
_cell_angle_alpha                90
_cell_angle_beta                 90
_cell_angle_gamma                90
_cell_volume                     2260.16
_exptl_crystal_colour            colorless
_exptl_crystal_description       prism
_chemical_melting_point          '210 deg.C'
_cell_formula_units_Z            8
loop_
_atom_site_label
_atom_site_type_symbol
_atom_site_fract_x
_atom_site_fract_y
_atom_site_fract_z
C1 C 0.7601(2) 1.0594(3) 0.8828(2)
C2 C 0.8603(2) 1.0864(3) 0.8508(2)
C3 C 0.8766(3) 1.0506(4) 0.7777(2)
H1 H 0.8243(3) 1.0078(4) 0.7499(2)
C4 C 0.9683(3) 1.0769(4) 0.7455(2)
H2 H 0.9798(3) 1.0521(4) 0.6956(2)
C5 C 1.0437(3) 1.1403(4) 0.7871(2)
H3 H 1.1065(3) 1.1615(4) 0.7649(2)
C6 C 1.0284(3) 1.1729(4) 0.8606(2)
H4 H 1.0810(3) 1.2147(4) 0.8886(2)
C7 C 0.9369(2) 1.1449(3) 0.8935(2)
C8 C 0.9197(2) 1.1623(3) 0.9755(2)
H5 H 0.9653(2) 1.2396(3) 0.9939(2)
C9 C 0.9468(3) 1.0241(4) 1.0141(2)
H6 H 1.0064(3) 0.9759(4) 0.9997(2)
C10 C 0.8907(3) 0.9657(4) 1.0678(2)
H7 H 0.9103(3) 0.8751(4) 1.0870(2)
C11 C 0.8002(3) 1.0349(4) 1.0985(2)
H8 H 0.8033(3) 1.0316(4) 1.1528(2)
H9 H 0.7399(3) 0.9809(4) 1.0827(2)
C12 C 0.7911(3) 1.1895(4) 1.0737(2)
H10 H 0.8441(3) 1.2448(4) 1.1004(2)
C13 C 0.6944(4) 1.2524(4) 1.0948(2)
C14 C 0.8126(2) 1.2069(4) 0.9908(2)
H11 H 0.8031(2) 1.3096(4) 0.9763(2)
N1 N 0.7419(2) 1.1160(3) 0.94974(14)
H12 H 0.6818(23) 1.0947(30) 0.9691(16)
N2 N 0.6213(4) 1.2997(4) 1.1136(2)
O1 O 0.6954(2) 0.9915(3) 0.84906(11)
C15 C 0.8917(2) 0.5945(3) 1.0048(2)
C16 C 0.8136(2) 0.6482(4) 0.9622(2)
C17 C 0.8284(2) 0.6590(3) 0.8794(2)
H13 H 0.7862(2) 0.7399(3) 0.8608(2)
C18 C 0.9375(2) 0.6925(4) 0.8618(2)
H14 H 0.9519(2) 0.7944(4) 0.8753(2)
C19 C 0.9546(3) 0.6728(4) 0.7783(2)
H15 H 0.9043(3) 0.7346(4) 0.7526(2)
C20 C 1.0534(4) 0.7212(4) 0.7549(2)
C21 C 0.9891(2) 0.5553(3) 0.9719(2)
C22 C 0.7936(3) 0.5227(4) 0.8428(2)
H16 H 0.7338(3) 0.4791(4) 0.8604(2)
C23 C 0.8411(3) 0.4603(4) 0.7879(2)
H17 H 0.8142(3) 0.3737(4) 0.7686(2)
C24 C 0.9343(3) 0.5182(4) 0.7547(2)
H18 H 0.9286(3) 0.5144(4) 0.7005(2)
H19 H 0.9917(3) 0.4572(4) 0.7693(2)
C25 C 0.8784(3) 0.5745(4) 1.0803(2)
H20 H 0.9311(3) 0.5353(4) 1.1091(2)
C26 C 0.7891(3) 0.6117(4) 1.1127(2)
H21 H 0.7806(3) 0.6003(4) 1.1642(2)
C27 C 0.7115(3) 0.6657(5) 1.0705(2)
H22 H 0.6494(3) 0.6902(5) 1.0928(2)
C28 C 0.7246(3) 0.6841(4) 0.9959(2)
H23 H 0.6712(3) 0.7221(4) 0.9673(2)
N3 N 1.0047(2) 0.5986(3) 0.90226(14)
H24 H 1.0669(24) 0.5832(32) 0.8864(17)
N4 N 1.1339(3) 0.7561(4) 0.7390(2)
O2 O 1.0524(2) 0.4843(2) 1.00644(10)
loop_
_geom_bond_atom_site_label_1
_geom_bond_atom_site_label_2
_geom_bond_site_symmetry_1
_geom_bond_site_symmetry_2
C1 C2 1_555 1_555
C2 C3 1_555 1_555
C3 H1 1_555 1_555
C4 C3 1_555 1_555
H2 C4 1_555 1_555
C5 C4 1_555 1_555
H3 C5 1_555 1_555
C6 C5 1_555 1_555
H4 C6 1_555 1_555
C7 C2 1_555 1_555
C8 C7 1_555 1_555
H5 C8 1_555 1_555
C9 C8 1_555 1_555
H6 C9 1_555 1_555
C10 C9 1_555 1_555
H7 C10 1_555 1_555
C11 C10 1_555 1_555
H8 C11 1_555 1_555
H9 C11 1_555 1_555
C12 C11 1_555 1_555
H10 C12 1_555 1_555
C13 C12 1_555 1_555
C14 C8 1_555 1_555
H11 C14 1_555 1_555
N1 C1 1_555 1_555
H12 N1 1_555 1_555
N2 C13 1_555 1_555
O1 C1 1_555 1_555
C15 C16 1_555 1_555
C16 C17 1_555 1_555
C17 H13 1_555 1_555
C18 C17 1_555 1_555
H14 C18 1_555 1_555
C19 C18 1_555 1_555
H15 C19 1_555 1_555
C20 C19 1_555 1_555
C21 C15 1_555 1_555
C22 C17 1_555 1_555
H16 C22 1_555 1_555
C23 C22 1_555 1_555
H17 C23 1_555 1_555
C24 C19 1_555 1_555
H18 C24 1_555 1_555
H19 C24 1_555 1_555
C25 C15 1_555 1_555
H20 C25 1_555 1_555
C26 C25 1_555 1_555
H21 C26 1_555 1_555
C27 C26 1_555 1_555
H22 C27 1_555 1_555
C28 C16 1_555 1_555
H23 C28 1_555 1_555
N3 C18 1_555 1_555
H24 N3 1_555 1_555
N4 C20 1_555 1_555
O2 C21 1_555 1_555
C6 C7 1_555 1_555
C12 C14 1_555 1_555
C14 N1 1_555 1_555
C21 N3 1_555 1_555
C23 C24 1_555 1_555
C27 C28 1_555 1_555

#END
