
#######################################################################
#
#                 Cambridge Crystallographic Data Centre
#                                CCDC 
#
#######################################################################
#
# If this CIF has been generated from an entry in the Cambridge 
# Structural Database, then it will include bibliographic, chemical, 
# crystal, experimental, refinement or atomic coordinate data resulting 
# from the CCDC's data processing and validation procedures.
#
#######################################################################

data_CAVRIB
_chemical_formula_moiety         'C18 H9 I3 N6 O3,0.5(C8 H11 N1)'
_chemical_name_systematic        
'2,4,6-tris(2-Iodo-3-pyridyloxy)-1,3,5-triazine collidine clathrate'
_symmetry_cell_setting           rhombohedral
_symmetry_space_group_name_H-M   'R -3'
_symmetry_Int_Tables_number      148
_space_group_name_Hall           '-R 3'
loop_
_symmetry_equiv_pos_site_id
_symmetry_equiv_pos_as_xyz
1 x,y,z
2 -y,x-y,z
3 -x+y,-x,z
4 2/3+x,1/3+y,1/3+z
5 2/3-y,1/3+x-y,1/3+z
6 2/3-x+y,1/3-x,1/3+z
7 1/3+x,2/3+y,2/3+z
8 1/3-y,2/3+x-y,2/3+z
9 1/3-x+y,2/3-x,2/3+z
10 -x,-y,-z
11 y,-x+y,-z
12 x-y,x,-z
13 1/3-x,2/3-y,2/3-z
14 1/3+y,2/3-x+y,2/3-z
15 1/3+x-y,2/3+x,2/3-z
16 2/3-x,1/3-y,1/3-z
17 2/3+y,1/3-x+y,1/3-z
18 2/3+x-y,1/3+x,1/3-z
_cell_length_a                   16.655(2)
_cell_length_b                   16.655(2)
_cell_length_c                   16.601(3)
_cell_angle_alpha                90
_cell_angle_beta                 90
_cell_angle_gamma                120
_cell_volume                     3987.99
_exptl_crystal_colour            colorless
_exptl_crystal_description       block
_chemical_melting_point          '212 deg.C'
_cell_formula_units_Z            6
loop_
_atom_site_label
_atom_site_type_symbol
_atom_site_fract_x
_atom_site_fract_y
_atom_site_fract_z
I1 I 0.68300(4) 0.17723(3) 0.11989(2)
C3 C 0.6107(5) -0.0166(4) -0.1141(3)
H1 H 0.5963 -0.0563 -0.1579
O1 O 0.7412(2) 0.2281(2) -0.0660(2)
N1 N 0.7618(3) 0.3712(3) -0.0681(2)
C4 C 0.7005(3) 0.2798(3) -0.0673(3)
C5 C 0.6829(4) 0.1314(4) -0.0583(3)
C6 C 0.6623(4) 0.0764(4) -0.1247(4)
H2 H 0.6830 0.1018 -0.1756
N2 N 0.6006(4) 0.0025(3) 0.0276(3)
C7 C 0.6518(4) 0.0928(4) 0.0165(3)
C8 C 0.5794(5) -0.0523(4) -0.0376(4)
H3 H 0.5426 -0.1162 -0.0314
I1A I 0.82277(3) 0.50577(5) 0.11989(2)
I1B I 0.49423(5) 0.31700(4) 0.11989(2)
C3A C 1.0166(4) 0.6273(6) -0.1141(3)
C3B C 0.3727(6) 0.3893(5) -0.1141(3)
H1A H 1.0563 0.6526 -0.1579
H1B H 0.3474 0.4037 -0.1579
O1A O 0.7719(2) 0.5131(3) -0.0660(2)
O1B O 0.4869(3) 0.2588(2) -0.0660(2)
N1A N 0.6288(3) 0.3906(4) -0.0681(2)
N1B N 0.6094(4) 0.2382(3) -0.0681(2)
C4A C 0.7202(3) 0.4207(4) -0.0673(3)
C4B C 0.5793(4) 0.2995(3) -0.0673(3)
C5A C 0.8686(4) 0.5515(6) -0.0583(3)
C5B C 0.4485(6) 0.3171(4) -0.0583(3)
C6A C 0.9236(4) 0.5859(6) -0.1247(4)
C6B C 0.4141(6) 0.3377(4) -0.1247(4)
H2A H 0.8982 0.5812 -0.1756
H2B H 0.4188 0.3170 -0.1756
N2A N 0.9975(3) 0.5981(5) 0.0276(3)
N2B N 0.4019(5) 0.3994(4) 0.0276(3)
C7A C 0.9072(4) 0.5590(6) 0.0165(3)
C7B C 0.4410(6) 0.3482(4) 0.0165(3)
C8A C 1.0523(4) 0.6317(6) -0.0376(4)
C8B C 0.3683(6) 0.4206(5) -0.0376(4)
H3A H 1.1162 0.6588 -0.0314
H3B H 0.3412 0.4574 -0.0314
C1 C 0.7069(19) 0.2811(18) 0.3334(13)
C2 C 0.783(3) 0.250(3) 0.332(3)
C1M C 0.6144(18) 0.2409(26) 0.3333(13)
C1B C 0.5742(26) 0.2931(19) 0.3334(13)
C1L C 0.6264(19) 0.3856(18) 0.3333(13)
C1A C 0.7189(18) 0.4258(26) 0.3334(13)
C1N C 0.7591(26) 0.3736(19) 0.3333(13)
C2N C 0.866(4) 0.450(3) 0.335(3)
C2A C 0.750(3) 0.533(4) 0.332(3)
C2L C 0.550(3) 0.417(3) 0.335(3)
C2B C 0.467(4) 0.217(3) 0.332(3)
C2M C 0.583(3) 0.134(4) 0.335(3)
loop_
_geom_bond_atom_site_label_1
_geom_bond_atom_site_label_2
_geom_bond_site_symmetry_1
_geom_bond_site_symmetry_2
C1 C2 1_555 1_555
I1 C7 1_555 1_555
C3 H1 1_555 1_555
O1 C4 1_555 1_555
N1 C4 1_555 1_555
C4 N1B 1_555 1_555
C5 O1 1_555 1_555
C6 C3 1_555 1_555
H2 C6 1_555 1_555
N2 C7 1_555 1_555
C7 C5 1_555 1_555
C8 C3 1_555 1_555
H3 C8 1_555 1_555
C1M C1 1_555 1_555
C1B C1M 1_555 1_555
C1L C1B 1_555 1_555
C1A C1L 1_555 1_555
C1N C1 1_555 1_555
C2N C1N 1_555 1_555
C2A C1A 1_555 1_555
C2L C1L 1_555 1_555
C2B C1B 1_555 1_555
C2M C1M 1_555 1_555
I1A C7A 1_555 1_555
I1B C7B 1_555 1_555
C3A H1A 1_555 1_555
C3B H1B 1_555 1_555
O1A C4A 1_555 1_555
O1B C4B 1_555 1_555
N1A C4A 1_555 1_555
N1B C4B 1_555 1_555
C4A N1 1_555 1_555
C4B N1A 1_555 1_555
C5A O1A 1_555 1_555
C5B O1B 1_555 1_555
C6A C3A 1_555 1_555
C6B C3B 1_555 1_555
H2A C6A 1_555 1_555
H2B C6B 1_555 1_555
N2A C7A 1_555 1_555
N2B C7B 1_555 1_555
C7A C5A 1_555 1_555
C7B C5B 1_555 1_555
C8A C3A 1_555 1_555
C8B C3B 1_555 1_555
H3A C8A 1_555 1_555
H3B C8B 1_555 1_555
C5 C6 1_555 1_555
N2 C8 1_555 1_555
C1A C1N 1_555 1_555
C5A C6A 1_555 1_555
C5B C6B 1_555 1_555
N2A C8A 1_555 1_555
N2B C8B 1_555 1_555

#END
