
#######################################################################
#
#                 Cambridge Crystallographic Data Centre
#                                CCDC 
#
#######################################################################
#
# If this CIF has been generated from an entry in the Cambridge 
# Structural Database, then it will include bibliographic, chemical, 
# crystal, experimental, refinement or atomic coordinate data resulting 
# from the CCDC's data processing and validation procedures.
#
#######################################################################

data_CAVREX
_chemical_formula_moiety         'C21 H26 O4,H2 O1'
_chemical_name_systematic        
'16\a,17-Epoxypregn-4-ene-3,11,20-trione monohydrate'
_symmetry_cell_setting           orthorhombic
_symmetry_space_group_name_H-M   'P 21 21 21'
_symmetry_Int_Tables_number      19
_space_group_name_Hall           'P 2ac 2ab'
loop_
_symmetry_equiv_pos_site_id
_symmetry_equiv_pos_as_xyz
1 x,y,z
2 1/2-x,-y,1/2+z
3 -x,1/2+y,1/2-z
4 1/2+x,1/2-y,-z
_cell_length_a                   7.5302(15)
_cell_length_b                   9.853(2)
_cell_length_c                   25.276(5)
_cell_angle_alpha                90
_cell_angle_beta                 90
_cell_angle_gamma                90
_cell_volume                     1875.35
_exptl_crystal_colour            colorless
_exptl_crystal_description       block
_cell_formula_units_Z            4
_exptl_crystal_recrystallization_method acetone/water
loop_
_atom_site_label
_atom_site_type_symbol
_atom_site_fract_x
_atom_site_fract_y
_atom_site_fract_z
C1 C 0.0182(2) -0.04400(17) -0.09705(7)
H1 H 0.1200 0.0124 -0.0888
H2 H 0.0432 -0.1348 -0.0842
C2 C -0.0042(2) -0.0494(2) -0.15692(7)
H3 H -0.0107 0.0423 -0.1707
H4 H 0.0987 -0.0932 -0.1725
C3 C -0.1665(3) -0.1248(2) -0.17230(7)
C4 C -0.3159(2) -0.1181(2) -0.13611(7)
H5 H -0.4205 -0.1617 -0.1458
C5 C -0.3127(2) -0.05358(16) -0.08987(6)
C6 C -0.4797(2) -0.0377(2) -0.05840(7)
H6 H -0.5722 -0.0932 -0.0740
H7 H -0.5181 0.0562 -0.0600
C7 C -0.4552(2) -0.0785(2) -0.00065(7)
H8 H -0.5636 -0.0594 0.0187
H9 H -0.4334 -0.1754 0.0013
C8 C -0.3016(2) -0.00331(15) 0.02518(6)
H10 H -0.3277 0.0941 0.0263
C9 C -0.13113(18) -0.02827(14) -0.00802(6)
H11 H -0.1169 -0.1271 -0.0083
C10 C -0.14500(19) 0.01182(14) -0.06754(6)
C11 C 0.0349(2) 0.02462(17) 0.02035(7)
C12 C 0.0582(2) -0.02043(19) 0.07701(7)
H12 H 0.1591 0.0260 0.0926
H13 H 0.0811 -0.1173 0.0781
C13 C -0.1100(2) 0.01208(16) 0.10853(6)
C14 C -0.2682(2) -0.05533(16) 0.08078(6)
H14 H -0.2356 -0.1511 0.0767
C15 C -0.4155(2) -0.05263(19) 0.12278(7)
H15 H -0.4733 0.0353 0.1242
H16 H -0.5039 -0.1222 0.1162
C16 C -0.3128(3) -0.08099(19) 0.17283(7)
H17 H -0.3679 -0.0659 0.2075
C17 C -0.1233(2) -0.04675(18) 0.16422(7)
C18 C 0.0047(3) -0.0131(2) 0.20740(8)
C19 C -0.0044(4) -0.0913(3) 0.25764(9)
H18 H 0.0851 -0.0589 0.2816
H19 H 0.0154 -0.1858 0.2504
H20 H -0.1194 -0.0797 0.2734
C20 C -0.1604(3) 0.16674(16) -0.07546(8)
H21 H -0.1686 0.1866 -0.1126
H22 H -0.0574 0.2104 -0.0610
H23 H -0.2648 0.1995 -0.0578
C21 C -0.1340(3) 0.16754(17) 0.11294(8)
H24 H -0.0327 0.2062 0.1305
H25 H -0.2393 0.1871 0.1329
H26 H -0.1447 0.2059 0.0782
O1 O -0.1807(3) -0.1837(2) -0.21459(7)
O2 O 0.14358(17) 0.09637(14) -0.00074(5)
O3 O -0.18307(19) -0.18678(12) 0.16604(5)
O4 O 0.1170(3) 0.0718(2) 0.19900(8)
O5 O 0.0640(4) -0.2293(3) -0.29449(9)
H27 H -0.011(5) -0.210(3) -0.2703(13)
H28 H 0.122(5) -0.177(4) -0.2913(13)
loop_
_geom_bond_atom_site_label_1
_geom_bond_atom_site_label_2
_geom_bond_site_symmetry_1
_geom_bond_site_symmetry_2
C1 H1 1_555 1_555
H2 C1 1_555 1_555
C2 C1 1_555 1_555
H3 C2 1_555 1_555
H4 C2 1_555 1_555
C3 C2 1_555 1_555
C4 C3 1_555 1_555
H5 C4 1_555 1_555
C5 C4 1_555 1_555
C6 C5 1_555 1_555
H6 C6 1_555 1_555
H7 C6 1_555 1_555
C7 C6 1_555 1_555
H8 C7 1_555 1_555
H9 C7 1_555 1_555
C8 C7 1_555 1_555
H10 C8 1_555 1_555
C9 C8 1_555 1_555
H11 C9 1_555 1_555
C10 C1 1_555 1_555
C11 C9 1_555 1_555
C12 C11 1_555 1_555
H12 C12 1_555 1_555
H13 C12 1_555 1_555
C13 C12 1_555 1_555
C14 C8 1_555 1_555
H14 C14 1_555 1_555
C15 C14 1_555 1_555
H15 C15 1_555 1_555
H16 C15 1_555 1_555
C16 C15 1_555 1_555
H17 C16 1_555 1_555
C17 C13 1_555 1_555
C18 C17 1_555 1_555
C19 C18 1_555 1_555
H18 C19 1_555 1_555
H19 C19 1_555 1_555
H20 C19 1_555 1_555
C20 C10 1_555 1_555
H21 C20 1_555 1_555
H22 C20 1_555 1_555
H23 C20 1_555 1_555
C21 C13 1_555 1_555
H24 C21 1_555 1_555
H25 C21 1_555 1_555
H26 C21 1_555 1_555
O1 C3 1_555 1_555
O2 C11 1_555 1_555
O3 C16 1_555 1_555
O4 C18 1_555 1_555
O5 H27 1_555 1_555
H28 O5 1_555 1_555
C5 C10 1_555 1_555
C9 C10 1_555 1_555
C13 C14 1_555 1_555
C16 C17 1_555 1_555
C17 O3 1_555 1_555

#END
