
#######################################################################
#
#                 Cambridge Crystallographic Data Centre
#                                CCDC 
#
#######################################################################
#
# If this CIF has been generated from an entry in the Cambridge 
# Structural Database, then it will include bibliographic, chemical, 
# crystal, experimental, refinement or atomic coordinate data resulting 
# from the CCDC's data processing and validation procedures.
#
#######################################################################

data_CAVSEA
_chemical_formula_moiety         'C16 H24 B1 P2 1+,Br1 1-'
_chemical_name_systematic        
'bis(dimethyl(phenyl)phosphoranyl)boronium bromide'
_symmetry_cell_setting           monoclinic
_symmetry_space_group_name_H-M   'C c'
_symmetry_Int_Tables_number      9
_space_group_name_Hall           'C -2yc'
loop_
_symmetry_equiv_pos_site_id
_symmetry_equiv_pos_as_xyz
1 x,y,z
2 1/2+x,1/2+y,z
3 x,-y,1/2+z
4 1/2+x,1/2-y,1/2+z
_cell_length_a                   12.5325(4)
_cell_length_b                   13.6104(5)
_cell_length_c                   12.3150(3)
_cell_angle_alpha                90
_cell_angle_beta                 119.5074(16)
_cell_angle_gamma                90
_cell_volume                     1828.13
_exptl_crystal_colour            colorless
_exptl_crystal_description       prism
_cell_formula_units_Z            4
_exptl_crystal_recrystallization_method dichloromethane/pentane
loop_
_atom_site_label
_atom_site_type_symbol
_atom_site_fract_x
_atom_site_fract_y
_atom_site_fract_z
B1 B 0.6203(3) 0.6129(2) 0.8589(3)
P1 P 0.62349(10) 0.52781(5) 0.73568(10)
P2 P 0.54589(10) 0.73876(5) 0.79810(9)
C1 C 0.7047(3) 0.5754(3) 0.6609(3)
C2 C 0.7033(3) 0.4169(2) 0.8165(3)
C3 C 0.3900(3) 0.7327(3) 0.6730(3)
C4 C 0.6284(3) 0.8100(2) 0.7410(3)
C5 C 0.4751(3) 0.4861(2) 0.6161(2)
C6 C 0.4103(3) 0.4208(2) 0.6497(3)
C7 C 0.3009(3) 0.3814(2) 0.5590(3)
C8 C 0.2548(3) 0.4056(2) 0.4355(3)
C9 C 0.3174(3) 0.4717(2) 0.4015(3)
C10 C 0.4260(3) 0.5127(2) 0.4908(3)
C11 C 0.5412(3) 0.8078(2) 0.9219(3)
C12 C 0.5199(3) 0.7606(2) 1.0093(3)
C13 C 0.5084(3) 0.8132(2) 1.0984(3)
C14 C 0.5191(3) 0.9139(2) 1.1026(3)
C15 C 0.5407(3) 0.9628(2) 1.0172(3)
C16 C 0.5520(3) 0.9098(2) 0.9276(3)
H1 H 0.7288 0.6190 0.9427
H2 H 0.5711 0.5719 0.8961
H3 H 0.6574 0.6259 0.6052
H4 H 0.7810 0.6002 0.7229
H5 H 0.7168 0.5235 0.6152
H6 H 0.6630 0.3880 0.8584
H7 H 0.7866 0.4325 0.8791
H8 H 0.7042 0.3708 0.7589
H9 H 0.3431 0.6941 0.7004
H10 H 0.3581 0.7980 0.6534
H11 H 0.3875 0.7031 0.6024
H12 H 0.7142 0.8103 0.8005
H13 H 0.5985 0.8761 0.7256
H14 H 0.6152 0.7813 0.6643
H15 H 0.4414 0.4013 0.7334
H16 H 0.2582 0.3363 0.5822
H17 H 0.1824 0.3769 0.3753
H18 H 0.2857 0.4872 0.3164
H19 H 0.4661 0.5586 0.4687
H20 H 0.5127 0.6933 1.0069
H21 H 0.4946 0.7812 1.1579
H22 H 0.5100 0.9504 1.1626
H23 H 0.5464 1.0311 1.0189
H24 H 0.5652 0.9442 0.8696
Br1 Br 0.47906(8) 0.763699(19) 0.39780(8)
loop_
_geom_bond_atom_site_label_1
_geom_bond_atom_site_label_2
_geom_bond_site_symmetry_1
_geom_bond_site_symmetry_2
B1 P1 1_555 1_555
P1 C1 1_555 1_555
P2 B1 1_555 1_555
C1 H3 1_555 1_555
C2 P1 1_555 1_555
C3 P2 1_555 1_555
C4 P2 1_555 1_555
C5 P1 1_555 1_555
C6 C5 1_555 1_555
C7 C6 1_555 1_555
C8 C7 1_555 1_555
C9 C8 1_555 1_555
C10 C5 1_555 1_555
C11 P2 1_555 1_555
C12 C11 1_555 1_555
C13 C12 1_555 1_555
C14 C13 1_555 1_555
C15 C14 1_555 1_555
C16 C11 1_555 1_555
H1 B1 1_555 1_555
H2 B1 1_555 1_555
H4 C1 1_555 1_555
H5 C1 1_555 1_555
H6 C2 1_555 1_555
H7 C2 1_555 1_555
H8 C2 1_555 1_555
H9 C3 1_555 1_555
H10 C3 1_555 1_555
H11 C3 1_555 1_555
H12 C4 1_555 1_555
H13 C4 1_555 1_555
H14 C4 1_555 1_555
H15 C6 1_555 1_555
H16 C7 1_555 1_555
H17 C8 1_555 1_555
H18 C9 1_555 1_555
H19 C10 1_555 1_555
H20 C12 1_555 1_555
H21 C13 1_555 1_555
H22 C14 1_555 1_555
H23 C15 1_555 1_555
H24 C16 1_555 1_555
C9 C10 1_555 1_555
C15 C16 1_555 1_555

#END
