
#######################################################################
#
#                 Cambridge Crystallographic Data Centre
#                                CCDC 
#
#######################################################################
#
# If this CIF has been generated from an entry in the Cambridge 
# Structural Database, then it will include bibliographic, chemical, 
# crystal, experimental, refinement or atomic coordinate data resulting 
# from the CCDC's data processing and validation procedures.
#
#######################################################################

data_CAVTIF
_chemical_formula_moiety         'C42 H44 As2 B1 P2 1+,Br1 1-'
_chemical_name_systematic        
'1,3-bis(2-(diphenylarsino)ethyl)-1,3-diphenyl-1,3,2-diphosphaborolan-2-ium bromide'
_symmetry_cell_setting           monoclinic
_symmetry_space_group_name_H-M   'C 2/c'
_symmetry_Int_Tables_number      15
_space_group_name_Hall           '-C 2yn'
loop_
_symmetry_equiv_pos_site_id
_symmetry_equiv_pos_as_xyz
1 x,y,z
2 1/2+x,1/2+y,z
3 -x,y,1/2-z
4 1/2-x,1/2+y,1/2-z
5 -x,-y,-z
6 1/2-x,1/2-y,-z
7 x,-y,1/2+z
8 1/2+x,1/2-y,1/2+z
_cell_length_a                   27.9522(14)
_cell_length_b                   13.3162(8)
_cell_length_c                   10.5732(5)
_cell_angle_alpha                90
_cell_angle_beta                 91.950(3)
_cell_angle_gamma                90
_cell_volume                     3933.25
_exptl_crystal_colour            colorless
_exptl_crystal_description       block
_cell_formula_units_Z            4
_exptl_crystal_recrystallization_method 'dichloromethane/n-pentane at -15deg.C'
loop_
_atom_site_label
_atom_site_type_symbol
_atom_site_fract_x
_atom_site_fract_y
_atom_site_fract_z
Br1 Br 0.5000 0.36793(8) 0.7500
As1 As 0.65596(2) 0.48017(6) 0.58117(6)
B1 B 0.4657(7) 0.336(2) 0.323(2)
P1 P 0.53569(6) 0.32500(15) 0.35286(15)
C1 C 0.5543(7) 0.3665(14) 0.1915(15)
C2 C 0.5259(6) 0.3258(15) 0.0946(16)
C3 C 0.5669(2) 0.4139(5) 0.4534(6)
C4 C 0.6199(2) 0.4096(5) 0.4420(6)
C5 C 0.5536(2) 0.2000(5) 0.4009(6)
C6 C 0.5787(3) 0.1367(7) 0.3231(8)
C7 C 0.5893(4) 0.0404(9) 0.3610(11)
C8 C 0.5752(4) 0.0088(8) 0.4749(12)
C9 C 0.5511(3) 0.0685(8) 0.5545(10)
C10 C 0.5397(3) 0.1675(6) 0.5173(8)
C11 C 0.7189(2) 0.4369(5) 0.5310(6)
C12 C 0.7385(2) 0.4628(5) 0.4162(6)
C13 C 0.7827(3) 0.4292(6) 0.3823(8)
C14 C 0.8087(3) 0.3663(7) 0.4656(8)
C15 C 0.7912(3) 0.3416(6) 0.5789(8)
C16 C 0.7459(3) 0.3743(6) 0.6114(6)
C17 C 0.6589(2) 0.6173(5) 0.5177(6)
C18 C 0.6322(3) 0.6530(5) 0.4138(6)
C19 C 0.6378(3) 0.7544(7) 0.3781(7)
C20 C 0.6671(3) 0.8158(6) 0.4464(8)
C21 C 0.6928(3) 0.7820(7) 0.5508(8)
C22 C 0.6882(3) 0.6830(6) 0.5863(7)
H1 H 0.4517 0.4091 0.3549
H2 H 0.4460 0.2752 0.3686
H3 H 0.5865 0.3461 0.1804
H4 H 0.5524 0.4376 0.1870
H5 H 0.5280 0.3656 0.0205
H6 H 0.5359 0.2592 0.0770
H7 H 0.5594 0.4003 0.5388
H8 H 0.5562 0.4795 0.4313
H9 H 0.6278 0.4397 0.3640
H10 H 0.6294 0.3412 0.4423
H11 H 0.5887 0.1600 0.2432
H12 H 0.6064 -0.0033 0.3077
H13 H 0.5824 -0.0580 0.5004
H14 H 0.5420 0.0440 0.6346
H15 H 0.5227 0.2107 0.5714
H16 H 0.7207 0.5050 0.3595
H17 H 0.7955 0.4483 0.3037
H18 H 0.8389 0.3408 0.4422
H19 H 0.8098 0.3018 0.6366
H20 H 0.7332 0.3537 0.6895
H21 H 0.6108 0.6102 0.3678
H22 H 0.6209 0.7795 0.3054
H23 H 0.6700 0.8840 0.4217
H24 H 0.7134 0.8260 0.5977
H25 H 0.7054 0.6593 0.6593
As1B As 0.34404(2) 0.48017(6) -0.08117(6)
B1B B 0.5343(7) 0.336(2) 0.177(2)
P1B P 0.46431(6) 0.32500(15) 0.14714(15)
C1B C 0.4457(7) 0.3665(14) 0.3085(15)
C2B C 0.4741(6) 0.3258(15) 0.4054(16)
C3B C 0.4331(2) 0.4139(5) 0.0466(6)
C4B C 0.3801(2) 0.4096(5) 0.0580(6)
C5B C 0.4464(2) 0.2000(5) 0.0991(6)
C6B C 0.4213(3) 0.1367(7) 0.1769(8)
C7B C 0.4107(4) 0.0404(9) 0.1390(11)
C8B C 0.4248(4) 0.0088(8) 0.0251(12)
C9B C 0.4489(3) 0.0685(8) -0.0545(10)
C10B C 0.4603(3) 0.1675(6) -0.0173(8)
C11B C 0.2811(2) 0.4369(5) -0.0310(6)
C12B C 0.2615(2) 0.4628(5) 0.0838(6)
C13B C 0.2173(3) 0.4292(6) 0.1177(8)
C14B C 0.1913(3) 0.3663(7) 0.0344(8)
C15B C 0.2088(3) 0.3416(6) -0.0789(8)
C16B C 0.2541(3) 0.3743(6) -0.1114(6)
C17B C 0.3411(2) 0.6173(5) -0.0177(6)
C18B C 0.3678(3) 0.6530(5) 0.0862(6)
C19B C 0.3622(3) 0.7544(7) 0.1219(7)
C20B C 0.3329(3) 0.8158(6) 0.0536(8)
C21B C 0.3072(3) 0.7820(7) -0.0508(8)
C22B C 0.3118(3) 0.6830(6) -0.0863(7)
H1B H 0.5483 0.4091 0.1451
H2B H 0.5540 0.2752 0.1314
H3B H 0.4135 0.3461 0.3196
H4B H 0.4476 0.4376 0.3130
H5B H 0.4720 0.3656 0.4795
H6B H 0.4641 0.2592 0.4230
H7B H 0.4406 0.4003 -0.0388
H8B H 0.4438 0.4795 0.0687
H9B H 0.3722 0.4397 0.1360
H10B H 0.3706 0.3412 0.0577
H11B H 0.4113 0.1600 0.2568
H12B H 0.3936 -0.0033 0.1923
H13B H 0.4176 -0.0580 -0.0004
H14B H 0.4580 0.0440 -0.1346
H15B H 0.4773 0.2107 -0.0714
H16B H 0.2793 0.5050 0.1405
H17B H 0.2045 0.4483 0.1963
H18B H 0.1611 0.3408 0.0578
H19B H 0.1902 0.3018 -0.1366
H20B H 0.2668 0.3537 -0.1895
H21B H 0.3892 0.6102 0.1322
H22B H 0.3791 0.7795 0.1946
H23B H 0.3300 0.8840 0.0783
H24B H 0.2866 0.8260 -0.0977
H25B H 0.2946 0.6593 -0.1593
loop_
_geom_bond_atom_site_label_1
_geom_bond_atom_site_label_2
_geom_bond_site_symmetry_1
_geom_bond_site_symmetry_2
As1 C4 1_555 1_555
B1 P1 1_555 1_555
P1 C1 1_555 1_555
C1 C2 1_555 1_555
C2 H5 1_555 1_555
C3 P1 1_555 1_555
C4 C3 1_555 1_555
C5 P1 1_555 1_555
C6 C5 1_555 1_555
C7 C6 1_555 1_555
C8 C7 1_555 1_555
C9 C8 1_555 1_555
C10 C5 1_555 1_555
C11 As1 1_555 1_555
C12 C11 1_555 1_555
C13 C12 1_555 1_555
C14 C13 1_555 1_555
C15 C14 1_555 1_555
C16 C11 1_555 1_555
C17 As1 1_555 1_555
C18 C17 1_555 1_555
C19 C18 1_555 1_555
C20 C19 1_555 1_555
C21 C20 1_555 1_555
C22 C17 1_555 1_555
H1 B1 1_555 1_555
H2 B1 1_555 1_555
H3 C1 1_555 1_555
H4 C1 1_555 1_555
H6 C2 1_555 1_555
H7 C3 1_555 1_555
H8 C3 1_555 1_555
H9 C4 1_555 1_555
H10 C4 1_555 1_555
H11 C6 1_555 1_555
H12 C7 1_555 1_555
H13 C8 1_555 1_555
H14 C9 1_555 1_555
H15 C10 1_555 1_555
H16 C12 1_555 1_555
H17 C13 1_555 1_555
H18 C14 1_555 1_555
H19 C15 1_555 1_555
H20 C16 1_555 1_555
H21 C18 1_555 1_555
H22 C19 1_555 1_555
H23 C20 1_555 1_555
H24 C21 1_555 1_555
H25 C22 1_555 1_555
As1B C4B 1_555 1_555
B1B P1 1_555 1_555
P1B B1 1_555 1_555
C1B P1B 1_555 1_555
C2B P1 1_555 1_555
C3B P1B 1_555 1_555
C4B C3B 1_555 1_555
C5B P1B 1_555 1_555
C6B C5B 1_555 1_555
C7B C6B 1_555 1_555
C8B C7B 1_555 1_555
C9B C8B 1_555 1_555
C10B C5B 1_555 1_555
C11B As1B 1_555 1_555
C12B C11B 1_555 1_555
C13B C12B 1_555 1_555
C14B C13B 1_555 1_555
C15B C14B 1_555 1_555
C16B C11B 1_555 1_555
C17B As1B 1_555 1_555
C18B C17B 1_555 1_555
C19B C18B 1_555 1_555
C20B C19B 1_555 1_555
C21B C20B 1_555 1_555
C22B C17B 1_555 1_555
H1B B1B 1_555 1_555
H2B B1B 1_555 1_555
H3B C1B 1_555 1_555
H4B C1B 1_555 1_555
H5B C2B 1_555 1_555
H6B C2B 1_555 1_555
H7B C3B 1_555 1_555
H8B C3B 1_555 1_555
H9B C4B 1_555 1_555
H10B C4B 1_555 1_555
H11B C6B 1_555 1_555
H12B C7B 1_555 1_555
H13B C8B 1_555 1_555
H14B C9B 1_555 1_555
H15B C10B 1_555 1_555
H16B C12B 1_555 1_555
H17B C13B 1_555 1_555
H18B C14B 1_555 1_555
H19B C15B 1_555 1_555
H20B C16B 1_555 1_555
H21B C18B 1_555 1_555
H22B C19B 1_555 1_555
H23B C20B 1_555 1_555
H24B C21B 1_555 1_555
H25B C22B 1_555 1_555
C2 P1B 1_555 1_555
C9 C10 1_555 1_555
C15 C16 1_555 1_555
C21 C22 1_555 1_555
B1B P1B 1_555 1_555
C1B C2B 1_555 1_555
C9B C10B 1_555 1_555
C15B C16B 1_555 1_555
C21B C22B 1_555 1_555

#END
