
#######################################################################
#
#                 Cambridge Crystallographic Data Centre
#                                CCDC 
#
#######################################################################
#
# If this CIF has been generated from an entry in the Cambridge 
# Structural Database, then it will include bibliographic, chemical, 
# crystal, experimental, refinement or atomic coordinate data resulting 
# from the CCDC's data processing and validation procedures.
#
#######################################################################

data_CAVTUP
_chemical_formula_moiety         'C38 H26 O8,C1 H2 Cl2'
_chemical_name_systematic        
"6,13-Diethynyl-5,7,12,14-tetrahydro-5,7:12,14-bis(1',2'-bis(methoxycarbonyl)etheno)pentacene dichloromethane solvate"
_symmetry_cell_setting           monoclinic
_symmetry_space_group_name_H-M   'C 2/c'
_symmetry_Int_Tables_number      15
_space_group_name_Hall           '-C 2yn'
loop_
_symmetry_equiv_pos_site_id
_symmetry_equiv_pos_as_xyz
1 x,y,z
2 1/2+x,1/2+y,z
3 -x,y,1/2-z
4 1/2-x,1/2+y,1/2-z
5 -x,-y,-z
6 1/2-x,1/2-y,-z
7 x,-y,1/2+z
8 1/2+x,1/2-y,1/2+z
_cell_length_a                   23.75(2)
_cell_length_b                   8.456(9)
_cell_length_c                   18.780(20)
_cell_angle_alpha                90
_cell_angle_beta                 118.39
_cell_angle_gamma                90
_cell_volume                     3317.98
_exptl_crystal_colour            colorless
_exptl_crystal_description       block
_chemical_melting_point          'above 300 deg.C'
_cell_formula_units_Z            4
_exptl_crystal_recrystallization_method dichloromethane/hexane
loop_
_atom_site_label
_atom_site_type_symbol
_atom_site_fract_x
_atom_site_fract_y
_atom_site_fract_z
O1 O -0.00087(8) 0.1262(2) 0.11522(10)
O2 O -0.01775(8) 0.2820(2) 0.01007(10)
O3 O -0.14520(9) 0.3680(2) -0.16467(11)
O4 O -0.08937(9) 0.1480(2) -0.15456(11)
C1 C -0.10411(11) 0.1374(3) 0.00187(14)
C2 C -0.14173(11) 0.1621(3) -0.07694(14)
C3 C -0.21021(11) 0.1031(3) -0.10809(14)
H1 H -0.2380 0.1220 -0.1673
C4 C -0.23426(11) 0.1854(3) -0.05569(14)
C5 C -0.19530(10) 0.1602(3) 0.02636(14)
C6 C -0.13779(11) 0.0567(3) 0.04398(14)
H2 H -0.1091 0.0394 0.1031
C7 C -0.20423(11) -0.0715(3) -0.08508(14)
C8 C -0.16586(11) -0.0962(3) -0.00252(15)
C9 C -0.15740(11) -0.2470(3) 0.02914(15)
H3 H -0.1323 -0.2637 0.0857
C10 C -0.18586(12) -0.3738(3) -0.02249(16)
H4 H -0.1801 -0.4780 -0.0012
C11 C -0.22262(12) -0.3490(3) -0.10496(16)
H5 H -0.2413 -0.4368 -0.1399
C12 C -0.23253(11) -0.1972(3) -0.13729(15)
H6 H -0.2581 -0.1802 -0.1938
C13 C -0.28962(11) 0.2763(3) -0.08403(14)
C14 C -0.32883(11) 0.3068(3) -0.16912(15)
C15 C -0.35992(12) 0.3359(3) -0.23861(15)
H7 H -0.3849 0.3594 -0.2945
C16 C -0.03581(11) 0.1792(3) 0.04893(14)
C17 C 0.04891(12) 0.3261(3) 0.05080(17)
H8 H 0.0592 0.3769 0.1025
H9 H 0.0574 0.4000 0.0168
H10 H 0.0754 0.2314 0.0608
C18 C -0.12542(11) 0.2407(3) -0.13565(14)
C19 C -0.07165(16) 0.2129(4) -0.21234(19)
H11 H -0.1104 0.2406 -0.2623
H12 H -0.0470 0.1343 -0.2243
H13 H -0.0455 0.3079 -0.1896
O1E O -0.49913(8) 0.3738(2) -0.11522(10)
O2E O -0.48225(8) 0.2180(2) -0.01007(10)
O3E O -0.35480(9) 0.1320(2) 0.16467(11)
O4E O -0.41063(9) 0.3520(2) 0.15456(11)
C1E C -0.39589(11) 0.3626(3) -0.00187(14)
C2E C -0.35827(11) 0.3379(3) 0.07694(14)
C3E C -0.28979(11) 0.3969(3) 0.10809(14)
H1E H -0.2620 0.3780 0.1673
C4E C -0.26574(11) 0.3146(3) 0.05569(14)
C5E C -0.30470(10) 0.3398(3) -0.02636(14)
C6E C -0.36221(11) 0.4433(3) -0.04398(14)
H2E H -0.3909 0.4606 -0.1031
C7E C -0.29577(11) 0.5715(3) 0.08508(14)
C8E C -0.33414(11) 0.5962(3) 0.00252(15)
C9E C -0.34260(11) 0.7470(3) -0.02914(15)
H3E H -0.3677 0.7637 -0.0857
C10E C -0.31414(12) 0.8738(3) 0.02249(16)
H4E H -0.3199 0.9780 0.0012
C11E C -0.27738(12) 0.8490(3) 0.10496(16)
H5E H -0.2587 0.9368 0.1399
C12E C -0.26747(11) 0.6972(3) 0.13729(15)
H6E H -0.2419 0.6802 0.1938
C13E C -0.21038(11) 0.2237(3) 0.08403(14)
C14E C -0.17117(11) 0.1932(3) 0.16912(15)
C15E C -0.14008(12) 0.1641(3) 0.23861(15)
H7E H -0.1151 0.1406 0.2945
C16E C -0.46419(11) 0.3208(3) -0.04893(14)
C17E C -0.54891(12) 0.1739(3) -0.05080(17)
H8E H -0.5592 0.1231 -0.1025
H9E H -0.5574 0.1000 -0.0168
H10E H -0.5754 0.2686 -0.0608
C18E C -0.37458(11) 0.2593(3) 0.13565(14)
C19E C -0.42835(16) 0.2871(4) 0.21234(19)
H11E H -0.3896 0.2594 0.2623
H12E H -0.4530 0.3657 0.2243
H13E H -0.4545 0.1921 0.1896
C20 C 0.0000 0.3458(4) 0.2500
H14 H -0.0261 0.2769 0.2655
H15 H 0.0261 0.2769 0.2345
Cl1 Cl 0.05143(3) 0.46231(8) 0.33409(4)
Cl1B Cl -0.05143(3) 0.46231(8) 0.16591(4)
loop_
_geom_bond_atom_site_label_1
_geom_bond_atom_site_label_2
_geom_bond_site_symmetry_1
_geom_bond_site_symmetry_2
O1 C16 1_555 1_555
O2 C16 1_555 1_555
O3 C18 1_555 1_555
O4 C18 1_555 1_555
C1 C2 1_555 1_555
C2 C3 1_555 1_555
C3 H1 1_555 1_555
C4 C3 1_555 1_555
C5 C4 1_555 1_555
C6 C1 1_555 1_555
H2 C6 1_555 1_555
C7 C3 1_555 1_555
C8 C6 1_555 1_555
C9 C8 1_555 1_555
H3 C9 1_555 1_555
C10 C9 1_555 1_555
H4 C10 1_555 1_555
C11 C10 1_555 1_555
H5 C11 1_555 1_555
C12 C7 1_555 1_555
H6 C12 1_555 1_555
C13 C4 1_555 1_555
C14 C13 1_555 1_555
C15 C14 1_555 1_555
H7 C15 1_555 1_555
C16 C1 1_555 1_555
C17 O2 1_555 1_555
H8 C17 1_555 1_555
H9 C17 1_555 1_555
H10 C17 1_555 1_555
C18 C2 1_555 1_555
C19 O4 1_555 1_555
H11 C19 1_555 1_555
H12 C19 1_555 1_555
H13 C19 1_555 1_555
C20 H14 1_555 1_555
H15 C20 1_555 1_555
Cl1 C20 1_555 1_555
O1E C16E 1_555 1_555
O2E C16E 1_555 1_555
O3E C18E 1_555 1_555
O4E C18E 1_555 1_555
C1E C2E 1_555 1_555
C2E C3E 1_555 1_555
C3E H1E 1_555 1_555
C4E C3E 1_555 1_555
C5E C13 1_555 1_555
C6E C1E 1_555 1_555
H2E C6E 1_555 1_555
C7E C3E 1_555 1_555
C8E C6E 1_555 1_555
C9E C8E 1_555 1_555
H3E C9E 1_555 1_555
C10E C9E 1_555 1_555
H4E C10E 1_555 1_555
C11E C10E 1_555 1_555
H5E C11E 1_555 1_555
C12E C7E 1_555 1_555
H6E C12E 1_555 1_555
C13E C5 1_555 1_555
C14E C13E 1_555 1_555
C15E C14E 1_555 1_555
H7E C15E 1_555 1_555
C16E C1E 1_555 1_555
C17E O2E 1_555 1_555
H8E C17E 1_555 1_555
H9E C17E 1_555 1_555
H10E C17E 1_555 1_555
C18E C2E 1_555 1_555
C19E O4E 1_555 1_555
H11E C19E 1_555 1_555
H12E C19E 1_555 1_555
H13E C19E 1_555 1_555
Cl1B C20 1_555 1_555
C5 C6 1_555 1_555
C7 C8 1_555 1_555
C11 C12 1_555 1_555
C4E C5E 1_555 1_555
C4E C13E 1_555 1_555
C5E C6E 1_555 1_555
C7E C8E 1_555 1_555
C11E C12E 1_555 1_555

#END
