
#######################################################################
#
#                 Cambridge Crystallographic Data Centre
#                                CCDC 
#
#######################################################################
#
# If this CIF has been generated from an entry in the Cambridge 
# Structural Database, then it will include bibliographic, chemical, 
# crystal, experimental, refinement or atomic coordinate data resulting 
# from the CCDC's data processing and validation procedures.
#
#######################################################################

data_CAVTAX
_chemical_formula_moiety         'C26 H49 B1 Br1 P2 1+,0.5(C1 H2 Cl2),Br1 1-'
_chemical_name_systematic        
'2-bromo-1,1,3,3-tetracyclohexyl-1,3,2-diphosphaborolan-2-ium bromide dichloromethane unknown solvate'
_symmetry_cell_setting           triclinic
_symmetry_space_group_name_H-M   'P -1'
_symmetry_Int_Tables_number      2
_space_group_name_Hall           '-P 1'
loop_
_symmetry_equiv_pos_site_id
_symmetry_equiv_pos_as_xyz
1 x,y,z
2 -x,-y,-z
_cell_length_a                   11.8318(3)
_cell_length_b                   13.6868(3)
_cell_length_c                   20.5375(4)
_cell_angle_alpha                102.0817(13)
_cell_angle_beta                 99.8011(10)
_cell_angle_gamma                92.5268(11)
_cell_volume                     3193.71
_exptl_crystal_colour            colorless
_exptl_crystal_description       block
_cell_formula_units_Z            4
_exptl_crystal_recrystallization_method dichloromethane/n-pentane
loop_
_atom_site_label
_atom_site_type_symbol
_atom_site_fract_x
_atom_site_fract_y
_atom_site_fract_z
B1 B 0.8676(3) 0.6405(3) 0.78805(18)
Br1 Br 0.94353(3) 0.72142(3) 0.733658(19)
P1 P 0.92015(7) 0.65669(6) 0.88553(4)
P2 P 0.86627(7) 0.49482(6) 0.75711(4)
C1 C 0.8589(3) 0.5359(2) 0.89379(17)
C2 C 0.8865(3) 0.4530(2) 0.83677(16)
C3 C 1.0755(3) 0.6599(3) 0.91655(17)
C4 C 1.1484(3) 0.7355(4) 0.8930(2)
C5 C 1.2760(4) 0.7232(4) 0.9136(2)
C6 C 1.3087(4) 0.7345(4) 0.9902(2)
C7 C 1.2353(3) 0.6605(3) 1.0141(2)
C8 C 1.1071(3) 0.6724(3) 0.99353(18)
C9 C 0.8538(3) 0.7572(3) 0.93584(17)
C10 C 0.7236(4) 0.7363(3) 0.9253(2)
C11 C 0.6688(4) 0.8220(4) 0.9664(3)
C12 C 0.7016(6) 0.9226(4) 0.9525(3)
C13 C 0.8317(6) 0.9428(3) 0.9641(3)
C14 C 0.8851(5) 0.8591(3) 0.9204(2)
C15 C 0.9796(3) 0.4484(3) 0.71113(17)
C16 C 1.0992(3) 0.4953(3) 0.7488(2)
C17 C 1.1914(3) 0.4594(3) 0.7086(2)
C18 C 1.1909(3) 0.3465(3) 0.6942(2)
C19 C 1.0728(4) 0.2971(4) 0.6584(2)
C20 C 0.9777(3) 0.3334(3) 0.6968(2)
C21 C 0.7265(3) 0.4433(2) 0.70561(16)
C22 C 0.6304(3) 0.4485(3) 0.74740(17)
C23 C 0.5162(3) 0.4038(3) 0.70288(19)
C24 C 0.4841(3) 0.4575(3) 0.64564(19)
C25 C 0.5775(3) 0.4556(3) 0.60351(18)
C26 C 0.6954(3) 0.4979(3) 0.64732(17)
H1 H 0.7761 0.6576 0.7814
H2 H 0.8915 0.5233 0.9365
H3 H 0.7779 0.5369 0.8902
H4 H 0.9641 0.4380 0.8480
H5 H 0.8366 0.3945 0.8318
H6 H 1.0976 0.5958 0.8975
H7 H 1.1328 0.8014 0.9131
H8 H 1.1293 0.7252 0.8451
H9 H 1.3199 0.7728 0.9002
H10 H 1.2923 0.6585 0.8915
H11 H 1.3873 0.7227 1.0014
H12 H 1.2973 0.8007 1.0121
H13 H 1.2543 0.6716 1.0620
H14 H 1.2507 0.5943 0.9945
H15 H 1.0904 0.7372 1.0151
H16 H 1.0633 0.6229 1.0071
H17 H 0.8840 0.7606 0.9823
H18 H 0.7066 0.6762 0.9391
H19 H 0.6922 0.7287 0.8786
H20 H 0.6935 0.8243 1.0132
H21 H 0.5874 0.8093 0.9551
H22 H 0.6711 0.9736 0.9819
H23 H 0.6703 0.9230 0.9068
H24 H 0.8626 0.9467 1.0105
H25 H 0.8498 1.0048 0.9527
H26 H 0.9664 0.8724 0.9297
H27 H 0.8568 0.8572 0.8740
H28 H 0.9659 0.4675 0.6688
H29 H 1.1149 0.4770 0.7914
H30 H 1.1002 0.5662 0.7558
H31 H 1.2645 0.4881 0.7337
H32 H 1.1775 0.4802 0.6668
H33 H 1.2110 0.3259 0.7359
H34 H 1.2458 0.3261 0.6664
H35 H 1.0736 0.2267 0.6538
H36 H 1.0568 0.3120 0.6147
H37 H 0.9887 0.3125 0.7385
H38 H 0.9052 0.3052 0.6704
H39 H 0.7324 0.3747 0.6862
H40 H 0.6493 0.4120 0.7818
H41 H 0.6238 0.5165 0.7676
H42 H 0.4579 0.4098 0.7297
H43 H 0.5220 0.3350 0.6842
H44 H 0.4730 0.5253 0.6643
H45 H 0.4146 0.4256 0.6174
H46 H 0.5576 0.4949 0.5708
H47 H 0.5829 0.3883 0.5811
H48 H 0.6927 0.5672 0.6658
H49 H 0.7526 0.4893 0.6198
B2 B 0.4763(3) 0.8812(3) 0.71464(19)
Br2 Br 0.51707(4) 0.75872(3) 0.74894(2)
P3 P 0.31947(7) 0.87570(6) 0.66470(4)
P4 P 0.56380(7) 0.93497(6) 0.65655(4)
C27 C 0.3386(3) 0.9410(2) 0.59785(16)
C28 C 0.4530(3) 1.0057(2) 0.61873(18)
C29 C 0.2477(3) 0.7509(2) 0.62562(16)
C30 C 0.1269(3) 0.7562(3) 0.5857(2)
C31 C 0.0700(3) 0.6513(3) 0.5522(2)
C32 C 0.1433(3) 0.5921(3) 0.5073(2)
C33 C 0.2615(3) 0.5844(2) 0.54731(18)
C34 C 0.3209(3) 0.6881(2) 0.58040(17)
C35 C 0.2292(3) 0.9461(2) 0.71878(17)
C36 C 0.2348(4) 0.9070(3) 0.78441(19)
C37 C 0.1601(4) 0.9647(3) 0.8298(2)
C38 C 0.1896(4) 1.0770(3) 0.8443(2)
C39 C 0.1855(4) 1.1153(3) 0.7805(2)
C40 C 0.2626(3) 1.0598(2) 0.73535(18)
C41 C 0.6049(3) 0.8459(2) 0.58647(17)
C42 C 0.6818(5) 0.7684(3) 0.6083(2)
C43 C 0.7057(5) 0.6925(3) 0.5474(2)
C44 C 0.7578(3) 0.7423(3) 0.5000(2)
C45 C 0.6804(5) 0.8193(3) 0.4776(2)
C46 C 0.6574(5) 0.8964(3) 0.5382(2)
C47 C 0.6849(3) 1.0220(2) 0.70504(17)
C48 C 0.7595(3) 0.9729(3) 0.7568(2)
C49 C 0.8617(4) 1.0462(3) 0.7973(2)
C50 C 0.8229(4) 1.1441(3) 0.8326(2)
C51 C 0.7457(4) 1.1912(3) 0.7828(2)
C52 C 0.6450(3) 1.1198(3) 0.7420(2)
H50 H 0.4818 0.9420 0.7605
H51 H 0.2772 0.9824 0.5911
H52 H 0.3391 0.8933 0.5570
H53 H 0.4448 1.0647 0.6508
H54 H 0.4745 1.0236 0.5800
H55 H 0.2393 0.7179 0.6611
H56 H 0.0809 0.7894 0.6158
H57 H 0.1327 0.7928 0.5518
H58 H 0.0586 0.6167 0.5864
H59 H -0.0023 0.6571 0.5255
H60 H 0.1516 0.6248 0.4717
H61 H 0.1067 0.5266 0.4888
H62 H 0.2535 0.5487 0.5815
H63 H 0.3070 0.5493 0.5176
H64 H 0.3926 0.6811 0.6072
H65 H 0.3338 0.7218 0.5460
H66 H 0.1519 0.9347 0.6950
H67 H 0.3122 0.9151 0.8079
H68 H 0.2083 0.8379 0.7731
H69 H 0.1709 0.9435 0.8714
H70 H 0.0818 0.9504 0.8080
H71 H 0.1361 1.1097 0.8692
H72 H 0.2650 1.0921 0.8705
H73 H 0.2105 1.1847 0.7922
H74 H 0.1085 1.1061 0.7563
H75 H 0.3404 1.0727 0.7581
H76 H 0.2543 1.0829 0.6944
H77 H 0.5355 0.8097 0.5609
H78 H 0.7528 0.8015 0.6337
H79 H 0.6451 0.7340 0.6357
H80 H 0.7572 0.6476 0.5630
H81 H 0.6352 0.6562 0.5237
H82 H 0.8309 0.7748 0.5225
H83 H 0.7668 0.6932 0.4615
H84 H 0.7165 0.8529 0.4495
H85 H 0.6091 0.7859 0.4527
H86 H 0.7280 0.9327 0.5616
H87 H 0.6058 0.9413 0.5226
H88 H 0.7311 1.0376 0.6745
H89 H 0.7138 0.9552 0.7870
H90 H 0.7878 0.9144 0.7333
H91 H 0.9036 1.0160 0.8305
H92 H 0.9101 1.0598 0.7673
H93 H 0.8886 1.1892 0.8534
H94 H 0.7815 1.1318 0.8662
H95 H 0.7169 1.2487 0.8072
H96 H 0.7900 1.2109 0.7525
H97 H 0.5968 1.1047 0.7718
H98 H 0.6028 1.1511 0.7096
Br3 Br 0.31874(4) 0.81520(3) 0.422581(19)
Br4 Br 0.85472(3) 0.63165(3) 1.08431(2)
Cl1 Cl 0.49443(19) 0.50440(13) 0.89742(10)
Cl2 Cl 0.47422(12) 0.28773(11) 0.85046(7)
C53 C 0.4411(5) 0.3898(5) 0.9085(3)
H99 H 0.4729 0.3830 0.9529
H100 H 0.3598 0.3892 0.9037
loop_
_geom_bond_atom_site_label_1
_geom_bond_atom_site_label_2
_geom_bond_site_symmetry_1
_geom_bond_site_symmetry_2
B1 Br1 1_555 1_555
P1 B1 1_555 1_555
P2 B1 1_555 1_555
C1 P1 1_555 1_555
C2 P2 1_555 1_555
C3 P1 1_555 1_555
C4 C3 1_555 1_555
C5 C4 1_555 1_555
C6 C5 1_555 1_555
C7 C6 1_555 1_555
C8 C3 1_555 1_555
C9 P1 1_555 1_555
C10 C9 1_555 1_555
C11 C10 1_555 1_555
C12 C11 1_555 1_555
C13 C12 1_555 1_555
C14 C9 1_555 1_555
C15 P2 1_555 1_555
C16 C15 1_555 1_555
C17 C16 1_555 1_555
C18 C17 1_555 1_555
C19 C18 1_555 1_555
C20 C15 1_555 1_555
C21 P2 1_555 1_555
C22 C21 1_555 1_555
C23 C22 1_555 1_555
C24 C23 1_555 1_555
C25 C24 1_555 1_555
C26 C21 1_555 1_555
H1 B1 1_555 1_555
H2 C1 1_555 1_555
H3 C1 1_555 1_555
H4 C2 1_555 1_555
H5 C2 1_555 1_555
H6 C3 1_555 1_555
H7 C4 1_555 1_555
H8 C4 1_555 1_555
H9 C5 1_555 1_555
H10 C5 1_555 1_555
H11 C6 1_555 1_555
H12 C6 1_555 1_555
H13 C7 1_555 1_555
H14 C7 1_555 1_555
H15 C8 1_555 1_555
H16 C8 1_555 1_555
H17 C9 1_555 1_555
H18 C10 1_555 1_555
H19 C10 1_555 1_555
H20 C11 1_555 1_555
H21 C11 1_555 1_555
H22 C12 1_555 1_555
H23 C12 1_555 1_555
H24 C13 1_555 1_555
H25 C13 1_555 1_555
H26 C14 1_555 1_555
H27 C14 1_555 1_555
H28 C15 1_555 1_555
H29 C16 1_555 1_555
H30 C16 1_555 1_555
H31 C17 1_555 1_555
H32 C17 1_555 1_555
H33 C18 1_555 1_555
H34 C18 1_555 1_555
H35 C19 1_555 1_555
H36 C19 1_555 1_555
H37 C20 1_555 1_555
H38 C20 1_555 1_555
H39 C21 1_555 1_555
H40 C22 1_555 1_555
H41 C22 1_555 1_555
H42 C23 1_555 1_555
H43 C23 1_555 1_555
H44 C24 1_555 1_555
H45 C24 1_555 1_555
H46 C25 1_555 1_555
H47 C25 1_555 1_555
H48 C26 1_555 1_555
H49 C26 1_555 1_555
B2 Br2 1_555 1_555
P3 B2 1_555 1_555
P4 B2 1_555 1_555
C27 P3 1_555 1_555
C28 P4 1_555 1_555
C29 P3 1_555 1_555
C30 C29 1_555 1_555
C31 C30 1_555 1_555
C32 C31 1_555 1_555
C33 C32 1_555 1_555
C34 C29 1_555 1_555
C35 P3 1_555 1_555
C36 C35 1_555 1_555
C37 C36 1_555 1_555
C38 C37 1_555 1_555
C39 C38 1_555 1_555
C40 C35 1_555 1_555
C41 P4 1_555 1_555
C42 C41 1_555 1_555
C43 C42 1_555 1_555
C44 C43 1_555 1_555
C45 C44 1_555 1_555
C46 C41 1_555 1_555
C47 P4 1_555 1_555
C48 C47 1_555 1_555
C49 C48 1_555 1_555
C50 C49 1_555 1_555
C51 C50 1_555 1_555
C52 C47 1_555 1_555
H50 B2 1_555 1_555
H51 C27 1_555 1_555
H52 C27 1_555 1_555
H53 C28 1_555 1_555
H54 C28 1_555 1_555
H55 C29 1_555 1_555
H56 C30 1_555 1_555
H57 C30 1_555 1_555
H58 C31 1_555 1_555
H59 C31 1_555 1_555
H60 C32 1_555 1_555
H61 C32 1_555 1_555
H62 C33 1_555 1_555
H63 C33 1_555 1_555
H64 C34 1_555 1_555
H65 C34 1_555 1_555
H66 C35 1_555 1_555
H67 C36 1_555 1_555
H68 C36 1_555 1_555
H69 C37 1_555 1_555
H70 C37 1_555 1_555
H71 C38 1_555 1_555
H72 C38 1_555 1_555
H73 C39 1_555 1_555
H74 C39 1_555 1_555
H75 C40 1_555 1_555
H76 C40 1_555 1_555
H77 C41 1_555 1_555
H78 C42 1_555 1_555
H79 C42 1_555 1_555
H80 C43 1_555 1_555
H81 C43 1_555 1_555
H82 C44 1_555 1_555
H83 C44 1_555 1_555
H84 C45 1_555 1_555
H85 C45 1_555 1_555
H86 C46 1_555 1_555
H87 C46 1_555 1_555
H88 C47 1_555 1_555
H89 C48 1_555 1_555
H90 C48 1_555 1_555
H91 C49 1_555 1_555
H92 C49 1_555 1_555
H93 C50 1_555 1_555
H94 C50 1_555 1_555
H95 C51 1_555 1_555
H96 C51 1_555 1_555
H97 C52 1_555 1_555
H98 C52 1_555 1_555
Cl1 C53 1_555 1_555
Cl2 C53 1_555 1_555
C53 H99 1_555 1_555
H100 C53 1_555 1_555
C1 C2 1_555 1_555
C7 C8 1_555 1_555
C13 C14 1_555 1_555
C19 C20 1_555 1_555
C25 C26 1_555 1_555
C27 C28 1_555 1_555
C33 C34 1_555 1_555
C39 C40 1_555 1_555
C45 C46 1_555 1_555
C51 C52 1_555 1_555

#END
