
#######################################################################
#
#                 Cambridge Crystallographic Data Centre
#                                CCDC 
#
#######################################################################
#
# If this CIF has been generated from an entry in the Cambridge 
# Structural Database, then it will include bibliographic, chemical, 
# crystal, experimental, refinement or atomic coordinate data resulting 
# from the CCDC's data processing and validation procedures.
#
#######################################################################

data_CAVVIH
_chemical_formula_moiety         'C20 H21 B1 Br1 N1 P1 1+,Br1 1-,2(C1 H1 Cl3)'
_chemical_name_systematic        
'bromo(2-(diphenylphosphino)-N,N-dimethylaniline)hydridoborinium bromide chloroform solvate'
_symmetry_cell_setting           monoclinic
_symmetry_space_group_name_H-M   'P 21/a'
_symmetry_Int_Tables_number      14
_space_group_name_Hall           '-P 2yab'
loop_
_symmetry_equiv_pos_site_id
_symmetry_equiv_pos_as_xyz
1 x,y,z
2 1/2-x,1/2+y,-z
3 -x,-y,-z
4 1/2+x,1/2-y,z
_cell_length_a                   14.6204(2)
_cell_length_b                   14.0880(3)
_cell_length_c                   14.7554(3)
_cell_angle_alpha                90
_cell_angle_beta                 109.0115(15)
_cell_angle_gamma                90
_cell_volume                     2873.42
_exptl_crystal_colour            colorless
_exptl_crystal_description       block
_cell_formula_units_Z            4
_chemical_properties_physical    'air- and moisture-sensitive'
_exptl_crystal_recrystallization_method chloroform/pentane
loop_
_atom_site_label
_atom_site_type_symbol
_atom_site_fract_x
_atom_site_fract_y
_atom_site_fract_z
B1 B 0.1596(3) 0.1257(3) 0.1612(3)
Br1 Br 0.17617(3) 0.06539(3) 0.04635(3)
N1 N 0.1024(2) 0.0595(2) 0.2148(2)
P1 P 0.08022(6) 0.23970(6) 0.13974(6)
C1 C 0.0517(2) 0.2178(2) 0.2472(2)
C2 C 0.0687(2) 0.1241(2) 0.2779(2)
C3 C 0.0528(3) 0.0931(3) 0.3601(3)
C4 C 0.0224(3) 0.1594(3) 0.4139(3)
C5 C 0.0080(3) 0.2534(3) 0.3861(3)
C6 C 0.0212(3) 0.2832(3) 0.3027(3)
C7 C -0.0287(2) 0.2410(2) 0.0375(2)
C8 C -0.0214(3) 0.2416(2) -0.0547(3)
C9 C -0.1041(3) 0.2397(3) -0.1338(3)
C10 C -0.1939(3) 0.2352(3) -0.1222(3)
C11 C -0.2016(3) 0.2330(3) -0.0313(3)
C12 C -0.1192(2) 0.2371(3) 0.0491(3)
C13 C 0.1455(2) 0.3496(2) 0.1459(3)
C14 C 0.1119(3) 0.4207(3) 0.0789(3)
C15 C 0.1650(3) 0.5036(3) 0.0870(3)
C16 C 0.2506(3) 0.5160(3) 0.1614(3)
C17 C 0.2837(3) 0.4453(3) 0.2286(3)
C18 C 0.2322(3) 0.3614(3) 0.2216(3)
C19 C 0.0158(3) 0.0096(3) 0.1469(3)
C20 C 0.1705(3) -0.0153(3) 0.2722(3)
H1 H 0.2315 0.1425 0.2121
H2 H 0.0617 0.0299 0.3791
H3 H 0.0110 0.1397 0.4696
H4 H -0.0106 0.2970 0.4238
H5 H 0.0099 0.3462 0.2832
H6 H 0.0389 0.2431 -0.0630
H7 H -0.0990 0.2408 -0.1945
H8 H -0.2492 0.2333 -0.1761
H9 H -0.2624 0.2293 -0.0236
H10 H -0.1249 0.2370 0.1099
H11 H 0.0541 0.4133 0.0284
H12 H 0.1432 0.5515 0.0421
H13 H 0.2859 0.5716 0.1660
H14 H 0.3408 0.4535 0.2793
H15 H 0.2549 0.3136 0.2662
H16 H -0.0160 -0.0264 0.1837
H17 H -0.0283 0.0551 0.1079
H18 H 0.0369 -0.0324 0.1063
H19 H 0.1355 -0.0599 0.2982
H20 H 0.2205 0.0140 0.3238
H21 H 0.2000 -0.0480 0.2309
Br2 Br 0.46137(3) 0.67026(3) 0.30967(3)
Cl1 Cl 0.09884(8) 0.55588(9) 0.30192(10)
Cl2 Cl -0.09936(10) 0.54430(12) 0.18027(10)
Cl3 Cl -0.05249(10) 0.52764(11) 0.38406(10)
C21 C -0.0209(3) 0.5820(3) 0.2915(3)
H22 H -0.0273 0.6507 0.2962
Cl4 Cl 0.27954(8) 0.75420(10) 0.39606(8)
Cl5 Cl 0.20470(9) 0.69288(10) 0.54529(9)
Cl6 Cl 0.23648(12) 0.89212(11) 0.52139(9)
C22 C 0.2018(3) 0.7829(4) 0.4608(3)
H23 H 0.1358 0.7888 0.4164
loop_
_geom_bond_atom_site_label_1
_geom_bond_atom_site_label_2
_geom_bond_site_symmetry_1
_geom_bond_site_symmetry_2
B1 Br1 1_555 1_555
N1 B1 1_555 1_555
P1 B1 1_555 1_555
C1 P1 1_555 1_555
C2 N1 1_555 1_555
C3 C2 1_555 1_555
C4 C3 1_555 1_555
C5 C4 1_555 1_555
C6 C1 1_555 1_555
C7 P1 1_555 1_555
C8 C7 1_555 1_555
C9 C8 1_555 1_555
C10 C9 1_555 1_555
C11 C10 1_555 1_555
C12 C7 1_555 1_555
C13 P1 1_555 1_555
C14 C13 1_555 1_555
C15 C14 1_555 1_555
C16 C15 1_555 1_555
C17 C16 1_555 1_555
C18 C13 1_555 1_555
C19 N1 1_555 1_555
C20 N1 1_555 1_555
H1 B1 1_555 1_555
H2 C3 1_555 1_555
H3 C4 1_555 1_555
H4 C5 1_555 1_555
H5 C6 1_555 1_555
H6 C8 1_555 1_555
H7 C9 1_555 1_555
H8 C10 1_555 1_555
H9 C11 1_555 1_555
H10 C12 1_555 1_555
H11 C14 1_555 1_555
H12 C15 1_555 1_555
H13 C16 1_555 1_555
H14 C17 1_555 1_555
H15 C18 1_555 1_555
H16 C19 1_555 1_555
H17 C19 1_555 1_555
H18 C19 1_555 1_555
H19 C20 1_555 1_555
H20 C20 1_555 1_555
H21 C20 1_555 1_555
Cl1 C21 1_555 1_555
Cl2 C21 1_555 1_555
Cl3 C21 1_555 1_555
C21 H22 1_555 1_555
Cl4 C22 1_555 1_555
Cl5 C22 1_555 1_555
Cl6 C22 1_555 1_555
C22 H23 1_555 1_555
C1 C2 1_555 1_555
C5 C6 1_555 1_555
C11 C12 1_555 1_555
C17 C18 1_555 1_555

#END
