
#######################################################################
#
#                 Cambridge Crystallographic Data Centre
#                                CCDC 
#
#######################################################################
#
# If this CIF has been generated from an entry in the Cambridge 
# Structural Database, then it will include bibliographic, chemical, 
# crystal, experimental, refinement or atomic coordinate data resulting 
# from the CCDC's data processing and validation procedures.
#
#######################################################################

data_CAVXIJ
_chemical_formula_moiety         'C8 H8 N4,4(C9 H6 N4),4(H2 O1)'
_chemical_name_systematic        
'quinoxaline-2,3-diamine tetrakis(1H-imidazo[4,5-b]quinoxaline) tetrahydrate'
_symmetry_cell_setting           triclinic
_symmetry_space_group_name_H-M   'P -1'
_symmetry_Int_Tables_number      2
_space_group_name_Hall           '-P 1'
loop_
_symmetry_equiv_pos_site_id
_symmetry_equiv_pos_as_xyz
1 x,y,z
2 -x,-y,-z
_cell_length_a                   9.825(2)
_cell_length_b                   14.144(3)
_cell_length_c                   16.054(3)
_cell_angle_alpha                101.06(3)
_cell_angle_beta                 102.55(3)
_cell_angle_gamma                92.46(3)
_cell_volume                     2128.84
_exptl_crystal_colour            colorless
_exptl_crystal_description       Prism
_cell_formula_units_Z            2
loop_
_atom_site_label
_atom_site_type_symbol
_atom_site_fract_x
_atom_site_fract_y
_atom_site_fract_z
C1 C 0.8101(2) 0.09821(15) 0.31974(13)
C2 C 0.8872(2) 0.05902(16) 0.39256(14)
C3 C 0.9214(2) 0.21204(16) 0.47929(14)
C4 C 0.9836(2) 0.27538(17) 0.55895(14)
H1 H 1.0376 0.2515 0.6042
C5 C 0.9647(2) 0.37250(17) 0.57005(15)
H2 H 1.0068 0.4141 0.6225
C6 C 0.8827(2) 0.40866(17) 0.50284(16)
H3 H 0.8690 0.4742 0.5113
C7 C 0.8216(2) 0.34844(16) 0.42416(15)
H4 H 0.7673 0.3734 0.3798
C8 C 0.8414(2) 0.24921(16) 0.41085(14)
N1 N 0.76084(19) 0.03939(14) 0.24055(12)
H5 H 0.7151 0.0623 0.1979
H6 H 0.7753 -0.0209 0.2329
N2 N 0.9002(2) -0.03701(13) 0.38168(12)
H7 H 0.9432 -0.0607 0.4246
H8 H 0.8654 -0.0744 0.3319
N3 N 0.78675(17) 0.19019(13) 0.33006(11)
N4 N 0.94099(18) 0.11492(13) 0.46902(11)
C9 C 0.3122(2) 0.13005(15) -0.01900(14)
H9 H 0.3133 0.1416 -0.0739
C10 C 0.3891(2) 0.10401(14) 0.11224(13)
C11 C 0.2402(2) 0.10710(14) 0.09245(13)
C12 C 0.2371(2) 0.08337(14) 0.22640(14)
C13 C 0.1642(2) 0.07335(15) 0.29151(15)
H10 H 0.0676 0.0756 0.2798
C14 C 0.2338(2) 0.06046(16) 0.37118(15)
H11 H 0.1846 0.0549 0.4136
C15 C 0.3800(2) 0.05553(15) 0.38952(14)
H12 H 0.4264 0.0464 0.4440
C16 C 0.4539(2) 0.06401(14) 0.32851(14)
H13 H 0.5501 0.0600 0.3415
C17 C 0.3858(2) 0.07888(14) 0.24521(14)
N5 N 0.43013(18) 0.11884(12) 0.03925(11)
H14 H 0.5142 0.1207 0.0317
N6 N 0.19545(18) 0.12317(13) 0.00871(11)
N7 N 0.46446(18) 0.08975(12) 0.18595(11)
N8 N 0.16232(18) 0.09694(12) 0.14752(12)
C18 C 0.2064(3) 0.37295(16) -0.00722(15)
H15 H 0.1947 0.3825 -0.0640
C19 C 0.1551(2) 0.35587(14) 0.11473(14)
C20 C 0.3006(2) 0.34886(14) 0.11861(14)
C21 C 0.3299(2) 0.32566(14) 0.25617(14)
C22 C 0.4156(2) 0.30871(15) 0.33376(15)
H16 H 0.5099 0.3006 0.3367
C23 C 0.3613(3) 0.30411(16) 0.40438(16)
H17 H 0.4190 0.2936 0.4553
C24 C 0.2187(3) 0.31521(17) 0.40064(16)
H18 H 0.1830 0.3120 0.4492
C25 C 0.1323(3) 0.33061(17) 0.32687(17)
H19 H 0.0383 0.3379 0.3255
C26 C 0.1842(2) 0.33565(15) 0.25210(15)
N9 N 0.0987(2) 0.37041(13) 0.03274(12)
H20 H 0.0123 0.3767 0.0111
N10 N 0.32951(19) 0.36080(13) 0.04074(12)
N11 N 0.38867(18) 0.33289(12) 0.18739(11)
N12 N 0.09416(19) 0.35074(13) 0.17866(13)
C27 C 0.2846(2) 0.62948(16) -0.02016(14)
H21 H 0.2569 0.6416 -0.0760
C28 C 0.4205(2) 0.60350(14) 0.09811(14)
C29 C 0.2785(2) 0.60408(14) 0.10585(14)
C30 C 0.3480(2) 0.57865(14) 0.24201(14)
C31 C 0.3188(3) 0.56720(15) 0.32199(15)
H22 H 0.2274 0.5681 0.3291
C32 C 0.4247(3) 0.55470(17) 0.38928(16)
H23 H 0.4049 0.5480 0.4420
C33 C 0.5632(3) 0.55194(17) 0.37904(16)
H24 H 0.6338 0.5428 0.4250
C34 C 0.5948(3) 0.56230(16) 0.30354(16)
H25 H 0.6868 0.5595 0.2978
C35 C 0.4892(2) 0.57740(15) 0.23271(14)
N13 N 0.4189(2) 0.61970(13) 0.01651(12)
H26 H 0.4896 0.6230 -0.0067
N14 N 0.19497(19) 0.62058(13) 0.02929(12)
N15 N 0.52737(19) 0.58994(13) 0.15815(12)
N16 N 0.23976(18) 0.59242(12) 0.17662(11)
C36 C 0.1726(2) 0.87367(16) -0.02320(15)
H27 H 0.1341 0.8819 -0.0794
C37 C 0.1853(2) 0.85302(14) 0.10963(14)
C38 C 0.3206(2) 0.85635(14) 0.09052(14)
C39 C 0.4141(2) 0.83417(14) 0.22525(14)
C40 C 0.5310(2) 0.82330(15) 0.29121(15)
H28 H 0.6199 0.8239 0.2799
C41 C 0.5146(3) 0.81194(16) 0.37107(15)
H29 H 0.5925 0.8060 0.4139
C42 C 0.3807(3) 0.80917(16) 0.38913(16)
H30 H 0.3708 0.8007 0.4436
C43 C 0.2649(3) 0.81889(15) 0.32716(15)
H31 H 0.1770 0.8172 0.3399
C44 C 0.2779(2) 0.83151(14) 0.24412(14)
N17 N 0.09395(18) 0.86406(13) 0.03490(12)
H32 H 0.0046 0.8648 0.0266
N18 N 0.30840(19) 0.87043(13) 0.00645(12)
N19 N 0.15952(18) 0.84130(12) 0.18369(12)
N20 N 0.43603(18) 0.84670(12) 0.14676(12)
O1 O -0.0529(2) 0.63536(16) 0.20245(14)
H33 H -0.068(3) 0.5665(13) 0.194(2)
H34 H -0.1736(14) 0.6535(11) 0.2141(11)
O2 O -0.1254(2) 0.45809(13) 0.23365(13)
H35 H -0.199(4) 0.411(3) 0.217(4)
H36 H -0.054(3) 0.431(3) 0.211(3)
O3 O -0.12516(18) 0.83235(14) 0.21178(12)
H37 H -0.049(2) 0.844(2) 0.197(2)
H38 H -0.140(6) 0.772(2) 0.217(5)
O4 O 0.68100(17) 0.30125(13) 0.19716(11)
H39 H 0.5931(19) 0.310(2) 0.1929(18)
H40 H 0.708(3) 0.2633(18) 0.2338(16)
loop_
_geom_bond_atom_site_label_1
_geom_bond_atom_site_label_2
_geom_bond_site_symmetry_1
_geom_bond_site_symmetry_2
C1 C2 1_555 1_555
C2 N2 1_555 1_555
C3 C4 1_555 1_555
C4 H1 1_555 1_555
C5 C4 1_555 1_555
H2 C5 1_555 1_555
C6 C5 1_555 1_555
H3 C6 1_555 1_555
C7 C6 1_555 1_555
H4 C7 1_555 1_555
C8 C3 1_555 1_555
N1 C1 1_555 1_555
H5 N1 1_555 1_555
H6 N1 1_555 1_555
N2 H7 1_555 1_555
H8 N2 1_555 1_555
N3 C1 1_555 1_555
N4 C2 1_555 1_555
C9 H9 1_555 1_555
C10 C11 1_555 1_555
C11 N6 1_555 1_555
C12 C13 1_555 1_555
C13 H10 1_555 1_555
C14 C13 1_555 1_555
H11 C14 1_555 1_555
C15 C14 1_555 1_555
H12 C15 1_555 1_555
C16 C15 1_555 1_555
H13 C16 1_555 1_555
C17 C12 1_555 1_555
N5 C9 1_555 1_555
H14 N5 1_555 1_555
N6 C9 1_555 1_555
N7 C10 1_555 1_555
N8 C11 1_555 1_555
C18 H15 1_555 1_555
C19 C20 1_555 1_555
C20 N10 1_555 1_555
C21 C22 1_555 1_555
C22 H16 1_555 1_555
C23 C22 1_555 1_555
H17 C23 1_555 1_555
C24 C23 1_555 1_555
H18 C24 1_555 1_555
C25 C24 1_555 1_555
H19 C25 1_555 1_555
C26 C21 1_555 1_555
N9 C18 1_555 1_555
H20 N9 1_555 1_555
N10 C18 1_555 1_555
N11 C20 1_555 1_555
N12 C19 1_555 1_555
C27 H21 1_555 1_555
C28 C29 1_555 1_555
C29 N14 1_555 1_555
C30 C31 1_555 1_555
C31 H22 1_555 1_555
C32 C31 1_555 1_555
H23 C32 1_555 1_555
C33 C32 1_555 1_555
H24 C33 1_555 1_555
C34 C33 1_555 1_555
H25 C34 1_555 1_555
C35 C30 1_555 1_555
N13 C27 1_555 1_555
H26 N13 1_555 1_555
N14 C27 1_555 1_555
N15 C28 1_555 1_555
N16 C29 1_555 1_555
C36 H27 1_555 1_555
C37 C38 1_555 1_555
C38 N18 1_555 1_555
C39 C40 1_555 1_555
C40 H28 1_555 1_555
C41 C40 1_555 1_555
H29 C41 1_555 1_555
C42 C41 1_555 1_555
H30 C42 1_555 1_555
C43 C42 1_555 1_555
H31 C43 1_555 1_555
C44 C39 1_555 1_555
N17 C36 1_555 1_555
H32 N17 1_555 1_555
N18 C36 1_555 1_555
N19 C37 1_555 1_555
N20 C38 1_555 1_555
O1 H33 1_555 1_555
H34 O1 1_555 1_555
O2 H35 1_555 1_555
H36 O2 1_555 1_555
O3 H37 1_555 1_555
H38 O3 1_555 1_555
O4 H39 1_555 1_555
H40 O4 1_555 1_555
C3 N4 1_555 1_555
C7 C8 1_555 1_555
C8 N3 1_555 1_555
C10 N5 1_555 1_555
C12 N8 1_555 1_555
C16 C17 1_555 1_555
C17 N7 1_555 1_555
C19 N9 1_555 1_555
C21 N11 1_555 1_555
C25 C26 1_555 1_555
C26 N12 1_555 1_555
C28 N13 1_555 1_555
C30 N16 1_555 1_555
C34 C35 1_555 1_555
C35 N15 1_555 1_555
C37 N17 1_555 1_555
C39 N20 1_555 1_555
C43 C44 1_555 1_555
C44 N19 1_555 1_555

#END
