
#######################################################################
#
#                 Cambridge Crystallographic Data Centre
#                                CCDC 
#
#######################################################################
#
# If this CIF has been generated from an entry in the Cambridge 
# Structural Database, then it will include bibliographic, chemical, 
# crystal, experimental, refinement or atomic coordinate data resulting 
# from the CCDC's data processing and validation procedures.
#
#######################################################################

data_CAVZIJ
_chemical_formula_moiety         'C40 H65 N2 O3 P1'
_chemical_name_systematic        
'1,2-bis(N,N-diisobutylcarbamoyl)ethylbis(4-t-butylphenyl)phosphine oxide'
_symmetry_cell_setting           triclinic
_symmetry_space_group_name_H-M   'P -1'
_symmetry_Int_Tables_number      2
_space_group_name_Hall           '-P 1'
loop_
_symmetry_equiv_pos_site_id
_symmetry_equiv_pos_as_xyz
1 x,y,z
2 -x,-y,-z
_cell_length_a                   13.251(2)
_cell_length_b                   13.426(2)
_cell_length_c                   13.845(2)
_cell_angle_alpha                104.155(3)
_cell_angle_beta                 112.198(3)
_cell_angle_gamma                107.304(3)
_cell_volume                     1991.98
_exptl_crystal_colour            colorless
_exptl_crystal_description       'prism block'
_cell_formula_units_Z            2
_exptl_crystal_recrystallization_method hexane
loop_
_atom_site_label
_atom_site_type_symbol
_atom_site_fract_x
_atom_site_fract_y
_atom_site_fract_z
P1 P 0.89748(5) 0.77152(4) 0.99398(4)
O1 O 0.84494(13) 0.85325(12) 1.01235(13)
O2 O 0.99414(13) 0.63398(13) 0.86170(13)
O3 O 0.76477(15) 0.69667(14) 0.61597(13)
N1 N 0.80018(16) 0.50902(14) 0.73396(15)
N2 N 0.93723(16) 0.83692(15) 0.65423(15)
C1 C 0.85232(18) 0.71135(16) 0.84135(17)
H1 H 0.7627 0.6823 0.7954
C2 C 0.88630(19) 0.61405(17) 0.81178(17)
C3 C 0.8415(2) 0.42035(18) 0.7114(2)
H2 H 0.7702 0.3451 0.6683
H3 H 0.8944 0.4215 0.7852
C4 C 0.9103(2) 0.4320(2) 0.6448(2)
H4 H 0.9834 0.5071 0.6903
C5 C 0.9537(3) 0.3385(3) 0.6332(3)
H5 H 1.0027 0.3428 0.7091
H6 H 1.0026 0.3488 0.5951
H7 H 0.8836 0.2637 0.5881
C6 C 0.8348(3) 0.4310(3) 0.5302(2)
H8 H 0.7609 0.3592 0.4849
H9 H 0.8815 0.4381 0.4896
H10 H 0.8133 0.4951 0.5419
C7 C 0.67165(19) 0.48226(18) 0.66686(18)
H11 H 0.6352 0.4156 0.5943
H12 H 0.6666 0.5476 0.6477
C8 C 0.5968(2) 0.45646(19) 0.7259(2)
H13 H 0.6403 0.5193 0.8036
C9 C 0.4748(2) 0.4560(2) 0.6592(3)
H14 H 0.4875 0.5320 0.6601
H15 H 0.4245 0.4354 0.6943
H16 H 0.4342 0.4003 0.5802
C10 C 0.5807(2) 0.3446(2) 0.7398(2)
H17 H 0.5347 0.3329 0.7806
H18 H 0.6603 0.3475 0.7834
H19 H 0.5368 0.2815 0.6645
C11 C 0.9146(2) 0.80636(17) 0.81209(18)
H20 H 0.9047 0.8748 0.8450
H21 H 1.0023 0.8267 0.8481
C12 C 0.8657(2) 0.77415(18) 0.68588(18)
C13 C 0.8893(2) 0.8101(2) 0.53176(19)
H22 H 0.8504 0.7263 0.4895
H23 H 0.9576 0.8421 0.5180
C14 C 0.7976(2) 0.8560(2) 0.4841(2)
H24 H 0.7249 0.8164 0.4904
C15 C 0.7584(2) 0.8251(3) 0.3579(2)
H25 H 0.6945 0.8484 0.3245
H26 H 0.7276 0.7425 0.3185
H27 H 0.8278 0.8645 0.3495
C16 C 0.8455(3) 0.9835(2) 0.5487(3)
H28 H 0.9183 1.0241 0.5456
H29 H 0.8654 1.0001 0.6284
H30 H 0.7836 1.0084 0.5139
C17 C 1.05720(19) 0.93198(18) 0.73519(19)
H31 H 1.0538 0.9750 0.8022
H32 H 1.0762 0.9842 0.6985
C18 C 1.1603(2) 0.8965(2) 0.7770(2)
H33 H 1.1453 0.8512 0.8217
C19 C 1.2789(2) 1.0040(2) 0.8568(2)
H34 H 1.2959 1.0493 0.8144
H35 H 1.3449 0.9825 0.8881
H36 H 1.2720 1.0491 0.9193
C20 C 1.1670(3) 0.8228(3) 0.6790(2)
H37 H 1.1778 0.8644 0.6318
H38 H 1.0918 0.7522 0.6325
H39 H 1.2355 0.8044 0.7095
C21 C 1.06049(18) 0.84129(16) 1.07854(17)
C22 C 1.12166(19) 0.94193(17) 1.07209(18)
H40 H 1.0775 0.9665 1.0189
C23 C 1.24448(19) 1.00619(17) 1.14110(18)
H41 H 1.2833 1.0736 1.1336
C24 C 1.31317(19) 0.97514(18) 1.22137(18)
C25 C 1.2516(2) 0.87462(19) 1.2276(2)
H42 H 1.2958 0.8507 1.2815
C26 C 1.1285(2) 0.80892(18) 1.15801(18)
H43 H 1.0899 0.7408 1.1645
C27 C 0.84094(18) 0.65285(17) 1.02842(17)
C28 C 0.7562(2) 0.65105(18) 1.06489(18)
H44 H 0.7352 0.7131 1.0757
C29 C 0.7024(2) 0.55952(19) 1.0854(2)
H45 H 0.6446 0.5600 1.1101
C30 C 0.72995(19) 0.46639(18) 1.07112(18)
C31 C 0.81746(19) 0.47026(18) 1.03721(18)
H46 H 0.8400 0.4091 1.0286
C32 C 0.87187(19) 0.56153(17) 1.01599(17)
H47 H 0.9308 0.5620 0.9927
C33 C 1.4485(2) 1.0501(2) 1.3026(2)
C34 C 1.5186(2) 0.9778(3) 1.3100(3)
H48 H 1.4901 0.9222 1.3392
H49 H 1.6051 1.0272 1.3615
H50 H 1.5058 0.9376 1.2340
C35 C 1.5012(2) 1.1411(3) 1.2653(3)
H51 H 1.4895 1.1045 1.1889
H52 H 1.5878 1.1865 1.3192
H53 H 1.4601 1.1910 1.2638
C36 C 1.4646(3) 1.1095(3) 1.4205(3)
H54 H 1.4221 1.1582 1.4162
H55 H 1.5509 1.1564 1.4749
H56 H 1.4310 1.0521 1.4458
C37 C 0.6679(2) 0.3659(2) 1.0945(2)
C38 C 0.5310(2) 0.3286(2) 1.0369(3)
H57 H 0.5144 0.3912 1.0700
H58 H 0.4918 0.2620 1.0489
H59 H 0.4992 0.3089 0.9549
C39 C 0.6916(3) 0.2634(2) 1.0507(3)
H60 H 0.6481 0.2001 1.0644
H61 H 0.7785 0.2848 1.0911
H62 H 0.6633 0.2399 0.9688
C40 C 0.7182(3) 0.4052(2) 1.2234(2)
H63 H 0.7078 0.4734 1.2530
H64 H 0.8044 0.4230 1.2601
H65 H 0.6746 0.3443 1.2397
loop_
_geom_bond_atom_site_label_1
_geom_bond_atom_site_label_2
_geom_bond_site_symmetry_1
_geom_bond_site_symmetry_2
P1 O1 1_555 1_555
O2 C2 1_555 1_555
O3 C12 1_555 1_555
N1 C2 1_555 1_555
N2 C12 1_555 1_555
C1 P1 1_555 1_555
H1 C1 1_555 1_555
C2 C1 1_555 1_555
C3 N1 1_555 1_555
H2 C3 1_555 1_555
H3 C3 1_555 1_555
C4 C3 1_555 1_555
H4 C4 1_555 1_555
C5 C4 1_555 1_555
H5 C5 1_555 1_555
H6 C5 1_555 1_555
H7 C5 1_555 1_555
C6 C4 1_555 1_555
H8 C6 1_555 1_555
H9 C6 1_555 1_555
H10 C6 1_555 1_555
C7 N1 1_555 1_555
H11 C7 1_555 1_555
H12 C7 1_555 1_555
C8 C7 1_555 1_555
H13 C8 1_555 1_555
C9 C8 1_555 1_555
H14 C9 1_555 1_555
H15 C9 1_555 1_555
H16 C9 1_555 1_555
C10 C8 1_555 1_555
H17 C10 1_555 1_555
H18 C10 1_555 1_555
H19 C10 1_555 1_555
C11 C1 1_555 1_555
H20 C11 1_555 1_555
H21 C11 1_555 1_555
C12 C11 1_555 1_555
C13 N2 1_555 1_555
H22 C13 1_555 1_555
H23 C13 1_555 1_555
C14 C13 1_555 1_555
H24 C14 1_555 1_555
C15 C14 1_555 1_555
H25 C15 1_555 1_555
H26 C15 1_555 1_555
H27 C15 1_555 1_555
C16 C14 1_555 1_555
H28 C16 1_555 1_555
H29 C16 1_555 1_555
H30 C16 1_555 1_555
C17 N2 1_555 1_555
H31 C17 1_555 1_555
H32 C17 1_555 1_555
C18 C17 1_555 1_555
H33 C18 1_555 1_555
C19 C18 1_555 1_555
H34 C19 1_555 1_555
H35 C19 1_555 1_555
H36 C19 1_555 1_555
C20 C18 1_555 1_555
H37 C20 1_555 1_555
H38 C20 1_555 1_555
H39 C20 1_555 1_555
C21 P1 1_555 1_555
C22 C21 1_555 1_555
H40 C22 1_555 1_555
C23 C22 1_555 1_555
H41 C23 1_555 1_555
C24 C23 1_555 1_555
C25 C24 1_555 1_555
H42 C25 1_555 1_555
C26 C21 1_555 1_555
H43 C26 1_555 1_555
C27 P1 1_555 1_555
C28 C27 1_555 1_555
H44 C28 1_555 1_555
C29 C28 1_555 1_555
H45 C29 1_555 1_555
C30 C29 1_555 1_555
C31 C30 1_555 1_555
H46 C31 1_555 1_555
C32 C27 1_555 1_555
H47 C32 1_555 1_555
C33 C24 1_555 1_555
C34 C33 1_555 1_555
H48 C34 1_555 1_555
H49 C34 1_555 1_555
H50 C34 1_555 1_555
C35 C33 1_555 1_555
H51 C35 1_555 1_555
H52 C35 1_555 1_555
H53 C35 1_555 1_555
C36 C33 1_555 1_555
H54 C36 1_555 1_555
H55 C36 1_555 1_555
H56 C36 1_555 1_555
C37 C30 1_555 1_555
C38 C37 1_555 1_555
H57 C38 1_555 1_555
H58 C38 1_555 1_555
H59 C38 1_555 1_555
C39 C37 1_555 1_555
H60 C39 1_555 1_555
H61 C39 1_555 1_555
H62 C39 1_555 1_555
C40 C37 1_555 1_555
H63 C40 1_555 1_555
H64 C40 1_555 1_555
H65 C40 1_555 1_555
C25 C26 1_555 1_555
C31 C32 1_555 1_555

#END
