
#######################################################################
#
#                 Cambridge Crystallographic Data Centre
#                                CCDC 
#
#######################################################################
#
# If this CIF has been generated from an entry in the Cambridge 
# Structural Database, then it will include bibliographic, chemical, 
# crystal, experimental, refinement or atomic coordinate data resulting 
# from the CCDC's data processing and validation procedures.
#
#######################################################################

data_CAVZAD
_chemical_formula_moiety         'C24 H48 B1 P2 1+,Br1 1-'
_chemical_name_systematic        'bis(dicyclohexylphosphane)boronium bromide'
_symmetry_cell_setting           triclinic
_symmetry_space_group_name_H-M   'P -1'
_symmetry_Int_Tables_number      2
_space_group_name_Hall           '-P 1'
loop_
_symmetry_equiv_pos_site_id
_symmetry_equiv_pos_as_xyz
1 x,y,z
2 -x,-y,-z
_cell_length_a                   11.1026(3)
_cell_length_b                   12.0068(3)
_cell_length_c                   12.5924(3)
_cell_angle_alpha                117.0693(11)
_cell_angle_beta                 109.9315(14)
_cell_angle_gamma                96.4193(13)
_cell_volume                     1331.87
_exptl_crystal_colour            colorless
_exptl_crystal_description       block
_cell_formula_units_Z            2
loop_
_atom_site_label
_atom_site_type_symbol
_atom_site_fract_x
_atom_site_fract_y
_atom_site_fract_z
B1 B 0.4771(2) 0.0649(2) 0.2341(2)
P1 P 0.53944(5) 0.24170(4) 0.38606(4)
P2 P 0.28893(4) 0.01182(4) 0.11281(4)
C1 C 0.72079(17) 0.29750(17) 0.48956(17)
C2 C 0.7995(2) 0.2990(2) 0.4107(2)
C3 C 0.9518(2) 0.3494(3) 0.5001(2)
C4 C 0.9919(2) 0.2708(3) 0.5640(2)
C5 C 0.9122(2) 0.2685(3) 0.6404(2)
C6 C 0.7602(2) 0.2154(2) 0.5511(2)
C7 C 0.44504(18) 0.26796(18) 0.48411(18)
C8 C 0.5135(2) 0.40219(19) 0.6147(2)
C9 C 0.4216(2) 0.4282(2) 0.6838(2)
C10 C 0.3857(2) 0.3197(2) 0.7084(2)
C11 C 0.3189(2) 0.1857(2) 0.5789(3)
C12 C 0.4087(2) 0.1570(2) 0.5067(2)
C13 C 0.26443(18) 0.05492(17) -0.01281(17)
C14 C 0.34584(19) 0.19867(19) 0.04834(19)
C15 C 0.3251(2) 0.2305(2) -0.0598(2)
C16 C 0.1757(2) 0.2012(2) -0.1430(2)
C17 C 0.0961(2) 0.0584(2) -0.2030(2)
C18 C 0.11426(19) 0.0262(2) -0.0957(2)
C19 C 0.20998(17) -0.16613(17) 0.02644(17)
C20 C 0.2853(2) -0.24078(19) -0.0485(2)
C21 C 0.2167(3) -0.3896(2) -0.1232(2)
C22 C 0.2070(2) -0.4318(2) -0.0287(2)
C23 C 0.1327(3) -0.3573(2) 0.0461(2)
C24 C 0.2001(2) -0.2081(2) 0.1215(2)
H1 H 0.5334 0.0519 0.1727
H2 H 0.4862 0.0009 0.2779
H3 H 0.5200 0.3242 0.3450
H4 H 0.2131 0.0690 0.1763
H5 H 0.7443 0.3894 0.5625
H6 H 0.7757 0.2090 0.3355
H7 H 0.7746 0.3570 0.3766
H8 H 0.9748 0.4422 0.5712
H9 H 1.0011 0.3462 0.4485
H10 H 1.0900 0.3102 0.6250
H11 H 0.9734 0.1784 0.4949
H12 H 0.9383 0.2142 0.6785
H13 H 0.9358 0.3613 0.7124
H14 H 0.7097 0.2175 0.6034
H15 H 0.7370 0.1232 0.4782
H16 H 0.3592 0.2739 0.4314
H17 H 0.5320 0.4721 0.5952
H18 H 0.5973 0.3995 0.6738
H19 H 0.3363 0.4287 0.6223
H20 H 0.4653 0.5133 0.7675
H21 H 0.4685 0.3175 0.7673
H22 H 0.3254 0.3359 0.7514
H23 H 0.3004 0.1157 0.5974
H24 H 0.2333 0.1856 0.5197
H25 H 0.4921 0.1513 0.5620
H26 H 0.3601 0.0720 0.4193
H27 H 0.2987 -0.0037 -0.0726
H28 H 0.3160 0.2566 0.1116
H29 H 0.4419 0.2123 0.0965
H30 H 0.3601 0.1745 -0.1199
H31 H 0.3736 0.3248 -0.0196
H32 H 0.1643 0.2187 -0.2147
H33 H 0.1384 0.2586 -0.0858
H34 H 0.1287 0.0006 -0.2640
H35 H -0.0005 0.0422 -0.2537
H36 H 0.0682 -0.0658 -0.1353
H37 H 0.0796 0.0827 -0.0360
H38 H 0.1190 -0.1869 -0.0392
H39 H 0.2856 -0.2153 -0.1134
H40 H 0.3776 -0.2178 0.0177
H41 H 0.1233 -0.4126 -0.1908
H42 H 0.2694 -0.4363 -0.1662
H43 H 0.1600 -0.5268 -0.0780
H44 H 0.2983 -0.4131 0.0359
H45 H 0.1314 -0.3842 0.1082
H46 H 0.0395 -0.3807 -0.0192
H47 H 0.2922 -0.1860 0.1885
H48 H 0.1466 -0.1628 0.1640
Br1 Br 0.15743(2) 0.32247(2) 0.27157(2)
loop_
_geom_bond_atom_site_label_1
_geom_bond_atom_site_label_2
_geom_bond_site_symmetry_1
_geom_bond_site_symmetry_2
B1 P1 1_555 1_555
P1 C1 1_555 1_555
P2 B1 1_555 1_555
C1 C2 1_555 1_555
C2 C3 1_555 1_555
C3 C4 1_555 1_555
C4 C5 1_555 1_555
C5 C6 1_555 1_555
C6 C1 1_555 1_555
C7 P1 1_555 1_555
C8 C7 1_555 1_555
C9 C8 1_555 1_555
C10 C9 1_555 1_555
C11 C10 1_555 1_555
C12 C7 1_555 1_555
C13 P2 1_555 1_555
C14 C13 1_555 1_555
C15 C14 1_555 1_555
C16 C15 1_555 1_555
C17 C16 1_555 1_555
C18 C13 1_555 1_555
C19 P2 1_555 1_555
C20 C19 1_555 1_555
C21 C20 1_555 1_555
C22 C21 1_555 1_555
C23 C22 1_555 1_555
C24 C19 1_555 1_555
H1 B1 1_555 1_555
H2 B1 1_555 1_555
H3 P1 1_555 1_555
H4 P2 1_555 1_555
H5 C1 1_555 1_555
H6 C2 1_555 1_555
H7 C2 1_555 1_555
H8 C3 1_555 1_555
H9 C3 1_555 1_555
H10 C4 1_555 1_555
H11 C4 1_555 1_555
H12 C5 1_555 1_555
H13 C5 1_555 1_555
H14 C6 1_555 1_555
H15 C6 1_555 1_555
H16 C7 1_555 1_555
H17 C8 1_555 1_555
H18 C8 1_555 1_555
H19 C9 1_555 1_555
H20 C9 1_555 1_555
H21 C10 1_555 1_555
H22 C10 1_555 1_555
H23 C11 1_555 1_555
H24 C11 1_555 1_555
H25 C12 1_555 1_555
H26 C12 1_555 1_555
H27 C13 1_555 1_555
H28 C14 1_555 1_555
H29 C14 1_555 1_555
H30 C15 1_555 1_555
H31 C15 1_555 1_555
H32 C16 1_555 1_555
H33 C16 1_555 1_555
H34 C17 1_555 1_555
H35 C17 1_555 1_555
H36 C18 1_555 1_555
H37 C18 1_555 1_555
H38 C19 1_555 1_555
H39 C20 1_555 1_555
H40 C20 1_555 1_555
H41 C21 1_555 1_555
H42 C21 1_555 1_555
H43 C22 1_555 1_555
H44 C22 1_555 1_555
H45 C23 1_555 1_555
H46 C23 1_555 1_555
H47 C24 1_555 1_555
H48 C24 1_555 1_555
C11 C12 1_555 1_555
C17 C18 1_555 1_555
C23 C24 1_555 1_555

#END
