
#######################################################################
#
#                 Cambridge Crystallographic Data Centre
#                                CCDC 
#
#######################################################################
#
# If this CIF has been generated from an entry in the Cambridge 
# Structural Database, then it will include bibliographic, chemical, 
# crystal, experimental, refinement or atomic coordinate data resulting 
# from the CCDC's data processing and validation procedures.
#
#######################################################################

data_CAWDUB
_chemical_formula_moiety         'C29 H23 N1 O5'
_chemical_name_systematic        
'Methyl 3-methyl-6-(4-methylphenyl)-1-(4-nitrophenyl)-4-phenyl-4H-cyclopenta[c]furan-5-carboxylate'
_symmetry_cell_setting           triclinic
_symmetry_space_group_name_H-M   'P -1'
_symmetry_Int_Tables_number      2
_space_group_name_Hall           '-P 1'
loop_
_symmetry_equiv_pos_site_id
_symmetry_equiv_pos_as_xyz
1 x,y,z
2 -x,-y,-z
_cell_length_a                   10.4828(4)
_cell_length_b                   10.5406(4)
_cell_length_c                   12.2608(4)
_cell_angle_alpha                70.7790(10)
_cell_angle_beta                 77.3210(10)
_cell_angle_gamma                74.3810(10)
_cell_volume                     1219.18
_exptl_crystal_colour            yellow
_exptl_crystal_description       block
_cell_formula_units_Z            2
loop_
_atom_site_label
_atom_site_type_symbol
_atom_site_fract_x
_atom_site_fract_y
_atom_site_fract_z
O1 O 0.80844(11) 0.54969(11) 0.43053(10)
O2 O 0.70448(14) 0.00477(12) 0.81998(11)
O3 O 0.62529(15) 0.13827(14) 0.93952(12)
O4 O 0.20115(16) 1.06621(15) 0.43886(15)
O5 O 0.35653(16) 1.16612(14) 0.32386(14)
N1 N 0.31828(19) 1.06584(16) 0.39375(15)
C1 C 0.9840(2) 0.2059(2) 0.78464(17)
H1 H 0.9355 0.2931 0.7872
C2 C 1.0860(2) 0.1415(3) 0.85093(19)
H2 H 1.1051 0.1846 0.8987
C3 C 1.1600(2) 0.0132(3) 0.84667(19)
H3 H 1.2280 -0.0313 0.8925
C4 C 1.1330(2) -0.0474(2) 0.7753(2)
H4 H 1.1847 -0.1326 0.7701
C5 C 1.02872(19) 0.01624(19) 0.70963(17)
H5 H 1.0102 -0.0273 0.6619
C6 C 0.95268(16) 0.14337(17) 0.71482(14)
C7 C 0.83039(16) 0.20763(16) 0.65279(14)
H6 H 0.8197 0.1446 0.6135
C8 C 0.70388(17) 0.23529(17) 0.73840(14)
C9 C 0.63457(16) 0.36739(16) 0.71048(14)
C10 C 0.70400(16) 0.44049(16) 0.59988(14)
C11 C 0.82265(16) 0.34935(16) 0.56690(14)
C12 C 0.88407(17) 0.41740(17) 0.46444(15)
C13 C 0.69592(16) 0.56235(16) 0.51326(14)
C14 C 0.60014(16) 0.69213(16) 0.48487(14)
C15 C 0.46779(17) 0.70391(17) 0.53973(14)
H7 H 0.4409 0.6283 0.5961
C16 C 0.37657(18) 0.82683(18) 0.51097(15)
H8 H 0.2889 0.8353 0.5489
C17 C 0.41661(18) 0.93661(16) 0.42575(15)
C18 C 0.54538(19) 0.92877(17) 0.36939(16)
H9 H 0.5703 1.0045 0.3118
C19 C 0.63757(18) 0.80634(17) 0.39965(15)
H10 H 0.7256 0.8001 0.3627
C20 C 0.51374(17) 0.42934(16) 0.77907(14)
C21 C 0.39665(19) 0.38237(19) 0.80614(17)
H11 H 0.3919 0.3107 0.7798
C22 C 0.2868(2) 0.4409(2) 0.8719(2)
H12 H 0.2083 0.4088 0.8882
C23 C 0.2898(2) 0.5457(2) 0.91428(18)
C24 C 0.4057(3) 0.5939(2) 0.88509(18)
H13 H 0.4098 0.6659 0.9112
C25 C 0.5158(2) 0.53800(19) 0.81802(16)
H14 H 0.5926 0.5736 0.7986
C26 C 0.1717(3) 0.6035(3) 0.9929(3)
H15 H 0.1928 0.6750 1.0136
H16 H 0.1525 0.5316 1.0623
H17 H 0.0950 0.6406 0.9526
C27 C 0.67152(18) 0.12500(18) 0.84444(16)
C28 C 0.6854(3) -0.1156(2) 0.91539(19)
H18 H 0.7123 -0.1951 0.8872
H19 H 0.5926 -0.1050 0.9487
H20 H 0.7385 -0.1270 0.9739
C29 C 1.0063(2) 0.3840(2) 0.38374(18)
H21 H 1.0513 0.2904 0.4148
H22 H 1.0646 0.4443 0.3747
H23 H 0.9826 0.3957 0.3092
loop_
_geom_bond_atom_site_label_1
_geom_bond_atom_site_label_2
_geom_bond_site_symmetry_1
_geom_bond_site_symmetry_2
O1 C12 1_555 1_555
O2 C27 1_555 1_555
O3 C27 1_555 1_555
O4 N1 1_555 1_555
O5 N1 1_555 1_555
N1 C17 1_555 1_555
C1 H1 1_555 1_555
C2 C1 1_555 1_555
H2 C2 1_555 1_555
C3 C2 1_555 1_555
H3 C3 1_555 1_555
C4 C3 1_555 1_555
H4 C4 1_555 1_555
C5 C4 1_555 1_555
H5 C5 1_555 1_555
C6 C1 1_555 1_555
C7 C6 1_555 1_555
H6 C7 1_555 1_555
C8 C7 1_555 1_555
C9 C8 1_555 1_555
C10 C9 1_555 1_555
C11 C7 1_555 1_555
C12 C11 1_555 1_555
C13 O1 1_555 1_555
C14 C13 1_555 1_555
C15 C14 1_555 1_555
H7 C15 1_555 1_555
C16 C15 1_555 1_555
H8 C16 1_555 1_555
C17 C16 1_555 1_555
C18 C17 1_555 1_555
H9 C18 1_555 1_555
C19 C14 1_555 1_555
H10 C19 1_555 1_555
C20 C9 1_555 1_555
C21 C20 1_555 1_555
H11 C21 1_555 1_555
C22 C21 1_555 1_555
H12 C22 1_555 1_555
C23 C22 1_555 1_555
C24 C23 1_555 1_555
H13 C24 1_555 1_555
C25 C20 1_555 1_555
H14 C25 1_555 1_555
C26 C23 1_555 1_555
H15 C26 1_555 1_555
H16 C26 1_555 1_555
H17 C26 1_555 1_555
C27 C8 1_555 1_555
C28 O2 1_555 1_555
H18 C28 1_555 1_555
H19 C28 1_555 1_555
H20 C28 1_555 1_555
C29 C12 1_555 1_555
H21 C29 1_555 1_555
H22 C29 1_555 1_555
H23 C29 1_555 1_555
C5 C6 1_555 1_555
C10 C11 1_555 1_555
C10 C13 1_555 1_555
C18 C19 1_555 1_555
C24 C25 1_555 1_555

#END
