
#######################################################################
#
#                 Cambridge Crystallographic Data Centre
#                                CCDC 
#
#######################################################################
#
# If this CIF has been generated from an entry in the Cambridge 
# Structural Database, then it will include bibliographic, chemical, 
# crystal, experimental, refinement or atomic coordinate data resulting 
# from the CCDC's data processing and validation procedures.
#
#######################################################################

data_CAWDUC
_chemical_formula_moiety         'C54 H56 B2 N2 S2,C6 H6'
_chemical_name_systematic        
'({2-[5-(2-methanidylphenyl)[1,3]thiazolo[5,4-d][1,3]thiazol-2-yl]phenyl}methanide)(tetramesityl)diboron benzene solvate'
_symmetry_cell_setting           triclinic
_symmetry_space_group_name_H-M   'P -1'
_symmetry_Int_Tables_number      2
_space_group_name_Hall           '-P 1'
loop_
_symmetry_equiv_pos_site_id
_symmetry_equiv_pos_as_xyz
1 x,y,z
2 -x,-y,-z
_cell_length_a                   10.1617(4)
_cell_length_b                   11.1052(4)
_cell_length_c                   12.7938(5)
_cell_angle_alpha                111.0170(10)
_cell_angle_beta                 109.2660(10)
_cell_angle_gamma                95.9310(10)
_cell_volume                     1231.32
_exptl_crystal_colour            yellow
_exptl_crystal_description       plate
_cell_formula_units_Z            1
loop_
_atom_site_label
_atom_site_type_symbol
_atom_site_fract_x
_atom_site_fract_y
_atom_site_fract_z
S1 S -0.01483(4) 0.47485(3) 0.32806(3)
N1 N 0.11632(12) 0.66247(11) 0.57640(10)
B1 B 0.20957(16) 0.78646(14) 0.56703(14)
C1 C 0.18531(16) 0.91252(13) 0.66942(13)
H1 H 0.2412 0.9969 0.6788
H2 H 0.0822 0.9127 0.6405
C2 C 0.23124(14) 0.90593(13) 0.79124(13)
C3 C 0.30409(16) 1.01706(15) 0.90200(14)
H3 H 0.3316 1.1013 0.9018
C4 C 0.33723(18) 1.00767(16) 1.01213(15)
H4 H 0.3879 1.0850 1.0861
C5 C 0.29722(18) 0.88645(17) 1.01564(14)
H5 H 0.3186 0.8808 1.0916
C6 C 0.22589(16) 0.77391(15) 0.90764(13)
H6 H 0.1986 0.6902 0.9090
C7 C 0.19405(14) 0.78338(13) 0.79639(12)
C8 C 0.11572(14) 0.66764(13) 0.68181(12)
C9 C 0.03096(14) 0.54316(13) 0.48297(12)
C10 C 0.38290(14) 0.79147(13) 0.61841(12)
C11 C 0.44810(15) 0.69179(14) 0.64207(13)
C12 C 0.59809(16) 0.71266(16) 0.68955(14)
H7 H 0.6380 0.6450 0.7070
C13 C 0.69055(16) 0.82841(17) 0.71209(15)
C14 C 0.62849(16) 0.92305(16) 0.68410(14)
H8 H 0.6892 1.0013 0.6947
C15 C 0.47966(16) 0.90893(14) 0.64064(13)
C16 C 0.36572(17) 0.55275(15) 0.61001(16)
H9 H 0.2902 0.5169 0.5276
H10 H 0.3218 0.5569 0.6685
H11 H 0.4320 0.4948 0.6133
C17 C 0.85243(19) 0.8490(2) 0.7657(2)
H12 H 0.8765 0.7634 0.7352
H13 H 0.8878 0.8859 0.8548
H14 H 0.8977 0.9111 0.7417
C18 C 0.43121(18) 1.02289(15) 0.61338(16)
H15 H 0.5000 1.0639 0.5898
H16 H 0.4265 1.0896 0.6862
H17 H 0.3357 0.9888 0.5465
C19 C 0.13204(15) 0.76201(13) 0.42261(13)
C20 C 0.19730(16) 0.71684(13) 0.33716(13)
C21 C 0.13187(18) 0.70528(16) 0.21809(15)
H18 H 0.1806 0.6786 0.1650
C22 C -0.0010(2) 0.73110(19) 0.17422(16)
C23 C -0.07006(19) 0.76579(17) 0.25331(15)
H19 H -0.1633 0.7803 0.2247
C24 C -0.00830(16) 0.78041(14) 0.37345(14)
C25 C 0.33275(17) 0.66680(16) 0.36130(14)
H20 H 0.3444 0.6233 0.2845
H21 H 0.3250 0.6027 0.3967
H22 H 0.4164 0.7421 0.4183
C26 C -0.0696(3) 0.7177(3) 0.04439(19)
H23 H -0.0526 0.6391 -0.0108
H24 H -0.0271 0.7975 0.0391
H25 H -0.1735 0.7079 0.0210
C27 C -0.10804(16) 0.80735(17) 0.44114(15)
H26 H -0.2083 0.7769 0.3821
H27 H -0.0855 0.9032 0.4915
H28 H -0.0945 0.7593 0.4934
S1A S 0.01483(4) 0.52515(3) 0.67194(3)
N1A N -0.11632(12) 0.33753(11) 0.42360(10)
B1A B -0.20957(16) 0.21354(14) 0.43297(14)
C1A C -0.18531(16) 0.08748(13) 0.33058(13)
H1A H -0.2412 0.0031 0.3212
H2A H -0.0822 0.0873 0.3595
C2A C -0.23124(14) 0.09407(13) 0.20876(13)
C3A C -0.30409(16) -0.01706(15) 0.09800(14)
H3A H -0.3316 -0.1013 0.0982
C4A C -0.33723(18) -0.00767(16) -0.01213(15)
H4A H -0.3879 -0.0850 -0.0861
C5A C -0.29722(18) 0.11355(17) -0.01564(14)
H5A H -0.3186 0.1192 -0.0916
C6A C -0.22589(16) 0.22609(15) 0.09236(13)
H6A H -0.1986 0.3098 0.0910
C7A C -0.19405(14) 0.21662(13) 0.20361(12)
C8A C -0.11572(14) 0.33236(13) 0.31819(12)
C9A C -0.03096(14) 0.45684(13) 0.51703(12)
C10A C -0.38290(14) 0.20853(13) 0.38159(12)
C11A C -0.44810(15) 0.30821(14) 0.35793(13)
C12A C -0.59809(16) 0.28734(16) 0.31045(14)
H7A H -0.6380 0.3550 0.2930
C13A C -0.69055(16) 0.17159(17) 0.28791(15)
C14A C -0.62849(16) 0.07695(16) 0.31590(14)
H8A H -0.6892 -0.0013 0.3053
C15A C -0.47966(16) 0.09107(14) 0.35936(13)
C16A C -0.36572(17) 0.44725(15) 0.38999(16)
H9A H -0.2902 0.4831 0.4724
H10A H -0.3218 0.4431 0.3315
H11A H -0.4320 0.5052 0.3867
C17A C -0.85243(19) 0.1510(2) 0.2343(2)
H12A H -0.8765 0.2366 0.2648
H13A H -0.8878 0.1141 0.1452
H14A H -0.8977 0.0889 0.2583
C18A C -0.43121(18) -0.02289(15) 0.38662(16)
H15A H -0.5000 -0.0639 0.4102
H16A H -0.4265 -0.0896 0.3138
H17A H -0.3357 0.0112 0.4535
C19A C -0.13204(15) 0.23799(13) 0.57739(13)
C20A C -0.19730(16) 0.28316(13) 0.66284(13)
C21A C -0.13187(18) 0.29472(16) 0.78191(15)
H18A H -0.1806 0.3214 0.8350
C22A C 0.0010(2) 0.26890(19) 0.82578(16)
C23A C 0.07006(19) 0.23421(17) 0.74669(15)
H19A H 0.1633 0.2197 0.7753
C24A C 0.00830(16) 0.21959(14) 0.62655(14)
C25A C -0.33275(17) 0.33320(16) 0.63870(14)
H20A H -0.3444 0.3767 0.7155
H21A H -0.3250 0.3973 0.6033
H22A H -0.4164 0.2579 0.5817
C26A C 0.0696(3) 0.2823(3) 0.95561(19)
H23A H 0.0526 0.3609 1.0108
H24A H 0.0271 0.2025 0.9609
H25A H 0.1735 0.2921 0.9790
C27A C 0.10804(16) 0.19265(17) 0.55886(15)
H26A H 0.2083 0.2231 0.6179
H27A H 0.0855 0.0968 0.5085
H28A H 0.0945 0.2407 0.5066
C28 C 0.5100(3) 0.5401(3) 1.1175(2)
H29 H 0.5181 0.5683 1.1992
C29 C 0.4920(3) 0.6262(2) 1.0624(2)
H30 H 0.4853 0.7134 1.1057
C30 C 0.4836(3) 0.5878(2) 0.9461(2)
H31 H 0.4734 0.6485 0.9090
C28A C 0.4900(3) 0.4599(3) 0.8825(2)
H29A H 0.4819 0.4317 0.8008
C29A C 0.5080(3) 0.3738(2) 0.9376(2)
H30A H 0.5147 0.2866 0.8943
C30A C 0.5164(3) 0.4122(2) 1.0539(2)
H31A H 0.5266 0.3515 1.0910
loop_
_geom_bond_atom_site_label_1
_geom_bond_atom_site_label_2
_geom_bond_site_symmetry_1
_geom_bond_site_symmetry_2
S1 C9 1_555 1_555
N1 B1 1_555 1_555
B1 C1 1_555 1_555
C1 H1 1_555 1_555
H2 C1 1_555 1_555
C2 C1 1_555 1_555
C3 C2 1_555 1_555
H3 C3 1_555 1_555
C4 C3 1_555 1_555
H4 C4 1_555 1_555
C5 C4 1_555 1_555
H5 C5 1_555 1_555
C6 C5 1_555 1_555
H6 C6 1_555 1_555
C7 C2 1_555 1_555
C8 N1 1_555 1_555
C9 N1 1_555 1_555
C10 B1 1_555 1_555
C11 C10 1_555 1_555
C12 C11 1_555 1_555
H7 C12 1_555 1_555
C13 C12 1_555 1_555
C14 C13 1_555 1_555
H8 C14 1_555 1_555
C15 C10 1_555 1_555
C16 C11 1_555 1_555
H9 C16 1_555 1_555
H10 C16 1_555 1_555
H11 C16 1_555 1_555
C17 C13 1_555 1_555
H12 C17 1_555 1_555
H13 C17 1_555 1_555
H14 C17 1_555 1_555
C18 C15 1_555 1_555
H15 C18 1_555 1_555
H16 C18 1_555 1_555
H17 C18 1_555 1_555
C19 B1 1_555 1_555
C20 C19 1_555 1_555
C21 C20 1_555 1_555
H18 C21 1_555 1_555
C22 C21 1_555 1_555
C23 C22 1_555 1_555
H19 C23 1_555 1_555
C24 C19 1_555 1_555
C25 C20 1_555 1_555
H20 C25 1_555 1_555
H21 C25 1_555 1_555
H22 C25 1_555 1_555
C26 C22 1_555 1_555
H23 C26 1_555 1_555
H24 C26 1_555 1_555
H25 C26 1_555 1_555
C27 C24 1_555 1_555
H26 C27 1_555 1_555
H27 C27 1_555 1_555
H28 C27 1_555 1_555
C28 H29 1_555 1_555
C29 C28 1_555 1_555
H30 C29 1_555 1_555
C30 C29 1_555 1_555
H31 C30 1_555 1_555
S1A C8 1_555 1_555
N1A B1A 1_555 1_555
B1A C1A 1_555 1_555
C1A H1A 1_555 1_555
H2A C1A 1_555 1_555
C2A C1A 1_555 1_555
C3A C2A 1_555 1_555
H3A C3A 1_555 1_555
C4A C3A 1_555 1_555
H4A C4A 1_555 1_555
C5A C4A 1_555 1_555
H5A C5A 1_555 1_555
C6A C5A 1_555 1_555
H6A C6A 1_555 1_555
C7A C2A 1_555 1_555
C8A S1 1_555 1_555
C9A C9 1_555 1_555
C10A B1A 1_555 1_555
C11A C10A 1_555 1_555
C12A C11A 1_555 1_555
H7A C12A 1_555 1_555
C13A C12A 1_555 1_555
C14A C13A 1_555 1_555
H8A C14A 1_555 1_555
C15A C10A 1_555 1_555
C16A C11A 1_555 1_555
H9A C16A 1_555 1_555
H10A C16A 1_555 1_555
H11A C16A 1_555 1_555
C17A C13A 1_555 1_555
H12A C17A 1_555 1_555
H13A C17A 1_555 1_555
H14A C17A 1_555 1_555
C18A C15A 1_555 1_555
H15A C18A 1_555 1_555
H16A C18A 1_555 1_555
H17A C18A 1_555 1_555
C19A B1A 1_555 1_555
C20A C19A 1_555 1_555
C21A C20A 1_555 1_555
H18A C21A 1_555 1_555
C22A C21A 1_555 1_555
C23A C22A 1_555 1_555
H19A C23A 1_555 1_555
C24A C19A 1_555 1_555
C25A C20A 1_555 1_555
H20A C25A 1_555 1_555
H21A C25A 1_555 1_555
H22A C25A 1_555 1_555
C26A C22A 1_555 1_555
H23A C26A 1_555 1_555
H24A C26A 1_555 1_555
H25A C26A 1_555 1_555
C27A C24A 1_555 1_555
H26A C27A 1_555 1_555
H27A C27A 1_555 1_555
H28A C27A 1_555 1_555
C28A C30 1_555 1_555
H29A C28A 1_555 1_555
C29A C28A 1_555 1_555
H30A C29A 1_555 1_555
C30A C28 1_555 1_555
H31A C30A 1_555 1_555
C6 C7 1_555 1_555
C7 C8 1_555 1_555
C14 C15 1_555 1_555
C23 C24 1_555 1_555
S1A C9A 1_555 1_555
N1A C8A 1_555 1_555
N1A C9A 1_555 1_555
C6A C7A 1_555 1_555
C7A C8A 1_555 1_555
C14A C15A 1_555 1_555
C23A C24A 1_555 1_555
C29A C30A 1_555 1_555

#END
