
#######################################################################
#
#                 Cambridge Crystallographic Data Centre
#                                CCDC 
#
#######################################################################
#
# If this CIF has been generated from an entry in the Cambridge 
# Structural Database, then it will include bibliographic, chemical, 
# crystal, experimental, refinement or atomic coordinate data resulting 
# from the CCDC's data processing and validation procedures.
#
#######################################################################

data_CAWFIS
_chemical_formula_moiety         'C50 H44 B1 N3 S4,C1 H2 Cl2'
_chemical_name_systematic        
"([5-([2,2'-bithiophen]-5-yl)-2-{5-[3-([2,2'-bithiophen]-5-yl)phenyl]-4-methyl-4H-1,2,4-triazol-3-yl}phenyl]methanide)(dimesityl)boron dichloromethane solvate"
_symmetry_cell_setting           monoclinic
_symmetry_space_group_name_H-M   'P 21/c'
_symmetry_Int_Tables_number      14
_space_group_name_Hall           '-P 2ybc'
loop_
_symmetry_equiv_pos_site_id
_symmetry_equiv_pos_as_xyz
1 x,y,z
2 -x,1/2+y,1/2-z
3 -x,-y,-z
4 x,1/2-y,1/2+z
_cell_length_a                   12.5552(8)
_cell_length_b                   36.735(2)
_cell_length_c                   10.2607(6)
_cell_angle_alpha                90
_cell_angle_beta                 107.811(2)
_cell_angle_gamma                90
_cell_volume                     4505.57
_exptl_crystal_colour            yellow
_exptl_crystal_description       plate
_cell_formula_units_Z            4
loop_
_atom_site_label
_atom_site_type_symbol
_atom_site_fract_x
_atom_site_fract_y
_atom_site_fract_z
B1 B 0.3877(3) 0.07553(9) 0.7894(3)
S1 S 0.33010(8) -0.09321(2) 0.33314(10)
S2 S 0.20936(9) -0.20443(3) 0.31881(12)
S3 S 0.18660(8) 0.27528(2) 0.10717(8)
S4 S -0.04965(11) 0.28317(3) -0.30103(11)
N1 N 0.3888(2) 0.09790(6) 0.6536(2)
N2 N 0.3922(2) 0.13520(6) 0.6428(3)
N3 N 0.3947(2) 0.10950(7) 0.4488(2)
C1 C 0.4555(3) 0.03824(8) 0.7670(3)
H1 H 0.5338 0.0446 0.7748
H2 H 0.4568 0.0204 0.8399
C2 C 0.4009(3) 0.02130(8) 0.6299(3)
C3 C 0.3766(3) 0.04357(8) 0.5127(3)
C4 C 0.3311(3) 0.02889(9) 0.3824(3)
H3 H 0.3147 0.0443 0.3043
C5 C 0.3099(3) -0.00804(9) 0.3666(3)
H4 H 0.2820 -0.0182 0.2775
C6 C 0.3293(3) -0.03032(8) 0.4810(3)
C7 C 0.3749(3) -0.01546(8) 0.6115(3)
H5 H 0.3884 -0.0308 0.6893
C8 C 0.3899(3) 0.08269(8) 0.5370(3)
C9 C 0.3954(3) 0.14144(8) 0.5179(3)
C10 C 0.4248(3) 0.10594(9) 0.3214(3)
H6 H 0.4687 0.0837 0.3251
H7 H 0.4692 0.1271 0.3112
H8 H 0.3565 0.1047 0.2431
C11 C 0.4490(3) 0.10286(8) 0.9185(3)
C12 C 0.5588(3) 0.09918(9) 1.0099(3)
C13 C 0.6057(3) 0.12579(9) 1.1081(3)
H9 H 0.6799 0.1225 1.1667
C14 C 0.5481(3) 0.15680(9) 1.1232(3)
C15 C 0.4391(3) 0.16030(8) 1.0383(3)
H10 H 0.3966 0.1809 1.0483
C16 C 0.3898(3) 0.13429(8) 0.9384(3)
C17 C 0.2698(3) 0.14173(9) 0.8569(3)
H11 H 0.2509 0.1669 0.8719
H12 H 0.2206 0.1251 0.8865
H13 H 0.2599 0.1379 0.7594
C18 C 0.6000(4) 0.18486(10) 1.2315(4)
H14 H 0.5427 0.2024 1.2373
H15 H 0.6598 0.1977 1.2074
H16 H 0.6312 0.1728 1.3202
C19 C 0.6344(3) 0.06676(10) 1.0149(3)
H17 H 0.6983 0.0679 1.0984
H18 H 0.6612 0.0671 0.9347
H19 H 0.5925 0.0442 1.0147
C20 C 0.2629(3) 0.05988(8) 0.7815(3)
C21 C 0.1644(3) 0.06081(9) 0.6683(4)
C22 C 0.0744(3) 0.03792(11) 0.6623(4)
H20 H 0.0099 0.0392 0.5842
C23 C 0.0749(4) 0.01374(12) 0.7638(5)
C24 C 0.1664(3) 0.01469(11) 0.8802(4)
H21 H 0.1671 -0.0007 0.9550
C25 C 0.2567(3) 0.03721(8) 0.8916(3)
C26 C 0.3484(3) 0.03659(9) 1.0267(3)
H22 H 0.3298 0.0188 1.0876
H23 H 0.3557 0.0608 1.0687
H24 H 0.4192 0.0298 1.0118
C27 C 0.1447(3) 0.08648(10) 0.5464(4)
H25 H 0.0644 0.0913 0.5077
H26 H 0.1726 0.0752 0.4766
H27 H 0.1844 0.1094 0.5766
C28 C -0.0211(5) -0.01284(17) 0.7512(7)
H28 H -0.0770 -0.0101 0.6611
H29 H -0.0557 -0.0077 0.8228
H30 H 0.0078 -0.0378 0.7617
C29 C 0.3015(3) -0.06933(8) 0.4630(3)
C30 C 0.2495(4) -0.09103(10) 0.5314(4)
H31 H 0.2272 -0.0830 0.6072
C31 C 0.2316(4) -0.12703(11) 0.4779(4)
H32 H 0.1948 -0.1454 0.5132
C32 C 0.2727(3) -0.13257(9) 0.3708(4)
C33 C 0.2709(3) -0.16474(9) 0.2882(4)
C34 C 0.3154(3) -0.16939(10) 0.1834(4)
H33 H 0.3531 -0.1507 0.1509
C35 C 0.2993(3) -0.20504(10) 0.1284(4)
H34 H 0.3253 -0.2129 0.0553
C36 C 0.2439(4) -0.22637(11) 0.1899(5)
H35 H 0.2254 -0.2510 0.1651
C37 C 0.3924(3) 0.17819(8) 0.4586(3)
C38 C 0.4634(3) 0.20502(9) 0.5346(3)
H36 H 0.5154 0.1995 0.6213
C39 C 0.4561(3) 0.23983(9) 0.4807(4)
H37 H 0.5048 0.2583 0.5305
C40 C 0.3801(3) 0.24820(8) 0.3570(3)
H38 H 0.3770 0.2723 0.3225
C41 C 0.3073(3) 0.22199(8) 0.2809(3)
C42 C 0.3154(3) 0.18649(8) 0.3341(3)
H39 H 0.2673 0.1680 0.2838
C43 C 0.2243(3) 0.23061(8) 0.1505(3)
C44 C 0.1637(3) 0.20815(9) 0.0496(3)
H40 H 0.1713 0.1824 0.0545
C45 C 0.0890(3) 0.22600(9) -0.0622(3)
H41 H 0.0422 0.2137 -0.1402
C46 C 0.0909(3) 0.26293(9) -0.0470(3)
C47 C 0.0269(3) 0.29133(9) -0.1366(3)
C48 C -0.0524(5) 0.34689(13) -0.2228(5)
H42 H -0.0658 0.3724 -0.2258
C49 C -0.0909(4) 0.32598(12) -0.3307(5)
H43 H -0.1375 0.3345 -0.4167
C50 C 0.0130(3) 0.32809(8) -0.0965(4)
H44 H 0.0403 0.3382 -0.0072
loop_
_geom_bond_atom_site_label_1
_geom_bond_atom_site_label_2
_geom_bond_site_symmetry_1
_geom_bond_site_symmetry_2
B1 N1 1_555 1_555
S1 C29 1_555 1_555
S2 C33 1_555 1_555
S3 C43 1_555 1_555
S4 C47 1_555 1_555
N1 N2 1_555 1_555
N2 C9 1_555 1_555
N3 C8 1_555 1_555
C1 B1 1_555 1_555
H1 C1 1_555 1_555
H2 C1 1_555 1_555
C2 C1 1_555 1_555
C3 C2 1_555 1_555
C4 C3 1_555 1_555
H3 C4 1_555 1_555
C5 C4 1_555 1_555
H4 C5 1_555 1_555
C6 C5 1_555 1_555
C7 C2 1_555 1_555
H5 C7 1_555 1_555
C8 N1 1_555 1_555
C9 N3 1_555 1_555
C10 N3 1_555 1_555
H6 C10 1_555 1_555
H7 C10 1_555 1_555
H8 C10 1_555 1_555
C11 B1 1_555 1_555
C12 C11 1_555 1_555
C13 C12 1_555 1_555
H9 C13 1_555 1_555
C14 C13 1_555 1_555
C15 C14 1_555 1_555
H10 C15 1_555 1_555
C16 C11 1_555 1_555
C17 C16 1_555 1_555
H11 C17 1_555 1_555
H12 C17 1_555 1_555
H13 C17 1_555 1_555
C18 C14 1_555 1_555
H14 C18 1_555 1_555
H15 C18 1_555 1_555
H16 C18 1_555 1_555
C19 C12 1_555 1_555
H17 C19 1_555 1_555
H18 C19 1_555 1_555
H19 C19 1_555 1_555
C20 B1 1_555 1_555
C21 C20 1_555 1_555
C22 C21 1_555 1_555
H20 C22 1_555 1_555
C23 C22 1_555 1_555
C24 C23 1_555 1_555
H21 C24 1_555 1_555
C25 C20 1_555 1_555
C26 C25 1_555 1_555
H22 C26 1_555 1_555
H23 C26 1_555 1_555
H24 C26 1_555 1_555
C27 C21 1_555 1_555
H25 C27 1_555 1_555
H26 C27 1_555 1_555
H27 C27 1_555 1_555
C28 C23 1_555 1_555
H28 C28 1_555 1_555
H29 C28 1_555 1_555
H30 C28 1_555 1_555
C29 C6 1_555 1_555
C30 C29 1_555 1_555
H31 C30 1_555 1_555
C31 C30 1_555 1_555
H32 C31 1_555 1_555
C32 S1 1_555 1_555
C33 C32 1_555 1_555
C34 C33 1_555 1_555
H33 C34 1_555 1_555
C35 C34 1_555 1_555
H34 C35 1_555 1_555
C36 S2 1_555 1_555
H35 C36 1_555 1_555
C37 C9 1_555 1_555
C38 C37 1_555 1_555
H36 C38 1_555 1_555
C39 C38 1_555 1_555
H37 C39 1_555 1_555
C40 C39 1_555 1_555
H38 C40 1_555 1_555
C41 C40 1_555 1_555
C42 C37 1_555 1_555
H39 C42 1_555 1_555
C43 C41 1_555 1_555
C44 C43 1_555 1_555
H40 C44 1_555 1_555
C45 C44 1_555 1_555
H41 C45 1_555 1_555
C46 S3 1_555 1_555
C47 C46 1_555 1_555
C48 H42 1_555 1_555
C49 S4 1_555 1_555
H43 C49 1_555 1_555
C50 C47 1_555 1_555
H44 C50 1_555 1_555
C3 C8 1_555 1_555
C6 C7 1_555 1_555
C15 C16 1_555 1_555
C24 C25 1_555 1_555
C31 C32 1_555 1_555
C35 C36 1_555 1_555
C41 C42 1_555 1_555
C45 C46 1_555 1_555
C48 C49 1_555 1_555
C48 C50 1_555 1_555

#END
