
#######################################################################
#
#                 Cambridge Crystallographic Data Centre
#                                CCDC 
#
#######################################################################
#
# If this CIF has been generated from an entry in the Cambridge 
# Structural Database, then it will include bibliographic, chemical, 
# crystal, experimental, refinement or atomic coordinate data resulting 
# from the CCDC's data processing and validation procedures.
#
#######################################################################

data_CAWFAK
_chemical_formula_moiety         'C80 H94 B2 N2'
_chemical_name_systematic        
([2-(4-heptyl-5-{4-[4-heptyl-6-(2-methanidylphenyl)pyridin-3-yl]phenyl}pyridin-2-yl)phenyl]methanide)(tetramesityl)diboron
_symmetry_cell_setting           triclinic
_symmetry_space_group_name_H-M   'P -1'
_symmetry_Int_Tables_number      2
_space_group_name_Hall           '-P 1'
loop_
_symmetry_equiv_pos_site_id
_symmetry_equiv_pos_as_xyz
1 x,y,z
2 -x,-y,-z
_cell_length_a                   11.1376(9)
_cell_length_b                   11.7751(10)
_cell_length_c                   14.8065(12)
_cell_angle_alpha                92.197(6)
_cell_angle_beta                 109.379(5)
_cell_angle_gamma                115.199(5)
_cell_volume                     1620.37
_exptl_crystal_colour            colorless
_exptl_crystal_description       block
_cell_formula_units_Z            1
loop_
_atom_site_label
_atom_site_type_symbol
_atom_site_fract_x
_atom_site_fract_y
_atom_site_fract_z
B1 B 0.1050(3) 0.7231(2) 0.27147(16)
N1 N 0.16549(17) 0.69275(15) 0.38327(12)
C1 C -0.0671(2) 0.6491(2) 0.25099(15)
H1 H -0.1241 0.6511 0.1842
H2 H -0.0969 0.5583 0.2561
C2 C -0.0927(2) 0.71552(19) 0.32527(16)
C3 C -0.1980(2) 0.7562(2) 0.30114(18)
H3 H -0.2606 0.7378 0.2346
C4 C -0.2132(2) 0.8228(2) 0.37222(19)
H4 H -0.2845 0.8509 0.3540
C5 C -0.1252(2) 0.8483(2) 0.46926(18)
H5 H -0.1359 0.8938 0.5180
C6 C -0.0218(2) 0.8076(2) 0.49533(17)
H6 H 0.0379 0.8242 0.5624
C7 C -0.0035(2) 0.74231(19) 0.42449(15)
C8 C 0.1104(2) 0.70278(18) 0.45091(15)
C9 C 0.1653(2) 0.67782(19) 0.54233(15)
H7 H 0.1274 0.6866 0.5894
C10 C 0.2732(2) 0.64050(19) 0.56853(15)
C11 C 0.3171(2) 0.61811(18) 0.49431(15)
C12 C 0.2625(2) 0.64787(18) 0.40550(15)
H8 H 0.2958 0.6358 0.3564
C13 C 0.4147(2) 0.56031(18) 0.50082(14)
C14 C 0.5172(2) 0.60590(18) 0.45931(14)
H9 H 0.5294 0.6789 0.4308
C15 C 0.3987(2) 0.45235(18) 0.54137(14)
H10 H 0.3291 0.4186 0.5698
C16 C 0.1463(2) 0.87597(18) 0.27283(14)
C17 C 0.0851(2) 0.90338(19) 0.18078(15)
C18 C 0.1028(2) 1.0260(2) 0.17168(16)
H11 H 0.0592 1.0394 0.1089
C19 C 0.1811(2) 1.1289(2) 0.25029(17)
C20 C 0.2447(2) 1.1046(2) 0.33919(16)
H12 H 0.3015 1.1739 0.3945
C21 C 0.2298(2) 0.98323(19) 0.35201(14)
C22 C 0.3135(2) 0.9808(2) 0.45560(15)
H13 H 0.3964 1.0656 0.4874
H14 H 0.3471 0.9165 0.4537
H15 H 0.2512 0.9589 0.4927
C23 C 0.2005(3) 1.2623(2) 0.2400(2)
H16 H 0.2698 1.3232 0.3020
H17 H 0.1080 1.2628 0.2234
H18 H 0.2364 1.2872 0.1880
C24 C 0.0032(3) 0.8045(2) 0.08576(15)
H19 H 0.0365 0.8419 0.0353
H20 H -0.0998 0.7779 0.0650
H21 H 0.0197 0.7297 0.0954
C25 C 0.1727(2) 0.66791(18) 0.20742(14)
C26 C 0.1013(2) 0.54143(19) 0.14943(14)
C27 C 0.1680(3) 0.5000(2) 0.10088(15)
H22 H 0.1162 0.4153 0.0623
C28 C 0.3051(3) 0.5758(2) 0.10611(15)
C29 C 0.3768(2) 0.6981(2) 0.16273(15)
H23 H 0.4720 0.7526 0.1681
C30 C 0.3153(2) 0.74490(19) 0.21234(15)
C31 C 0.4132(2) 0.8779(2) 0.27627(16)
H24 H 0.5105 0.9068 0.2777
H25 H 0.4154 0.8757 0.3429
H26 H 0.3772 0.9372 0.2496
C32 C 0.3776(3) 0.5277(3) 0.05536(19)
H27 H 0.4778 0.5571 0.0992
H28 H 0.3747 0.5612 -0.0045
H29 H 0.3270 0.4337 0.0385
C33 C -0.0469(3) 0.4417(2) 0.13826(17)
H30 H -0.0761 0.3638 0.0924
H31 H -0.1155 0.4753 0.1131
H32 H -0.0451 0.4213 0.2021
C34 C 0.3399(3) 0.6349(2) 0.67412(15)
H33 H 0.4006 0.5918 0.6793
H34 H 0.2630 0.5835 0.6969
C35 C 0.4315(3) 0.7691(2) 0.73961(15)
H35 H 0.5126 0.8175 0.7196
H36 H 0.3725 0.8145 0.7290
C36 C 0.4915(3) 0.7698(2) 0.84816(15)
H37 H 0.4106 0.7254 0.8692
H38 H 0.5472 0.7212 0.8587
C37 C 0.5878(3) 0.9043(2) 0.91113(16)
H39 H 0.6713 0.9462 0.8922
H40 H 0.5337 0.9542 0.8964
C38 C 0.6432(3) 0.9114(2) 1.02078(16)
H41 H 0.6974 0.8616 1.0359
H42 H 0.5600 0.8705 1.0402
C39 C 0.7397(3) 1.0473(2) 1.08134(16)
H43 H 0.8255 1.0865 1.0645
H44 H 0.6873 1.0984 1.0634
C40 C 0.7886(3) 1.0554(3) 1.19081(18)
H45 H 0.8491 1.1455 1.2250
H46 H 0.8440 1.0080 1.2098
H47 H 0.7045 1.0178 1.2085
B1A B 0.8950(3) 0.2769(2) 0.72853(16)
N1A N 0.83451(17) 0.30725(15) 0.61673(12)
C1A C 1.0671(2) 0.3509(2) 0.74901(15)
H1A H 1.1241 0.3489 0.8158
H2A H 1.0969 0.4417 0.7439
C2A C 1.0927(2) 0.28448(19) 0.67473(16)
C3A C 1.1980(2) 0.2438(2) 0.69886(18)
H3A H 1.2606 0.2622 0.7654
C4A C 1.2132(2) 0.1772(2) 0.62778(19)
H4A H 1.2845 0.1491 0.6460
C5A C 1.1252(2) 0.1517(2) 0.53074(18)
H5A H 1.1359 0.1062 0.4820
C6A C 1.0218(2) 0.1924(2) 0.50467(17)
H6A H 0.9621 0.1758 0.4376
C7A C 1.0035(2) 0.25769(19) 0.57551(15)
C8A C 0.8896(2) 0.29722(18) 0.54909(15)
C9A C 0.8347(2) 0.32218(19) 0.45767(15)
H7A H 0.8726 0.3134 0.4106
C10A C 0.7268(2) 0.35950(19) 0.43147(15)
C11A C 0.6829(2) 0.38189(18) 0.50569(15)
C12A C 0.7375(2) 0.35213(18) 0.59450(15)
H8A H 0.7042 0.3642 0.6436
C13A C 0.5853(2) 0.43969(18) 0.49918(14)
C14A C 0.4828(2) 0.39410(18) 0.54069(14)
H9A H 0.4706 0.3211 0.5692
C15A C 0.6013(2) 0.54765(18) 0.45863(14)
H10A H 0.6709 0.5814 0.4302
C16A C 0.8537(2) 0.12403(18) 0.72717(14)
C17A C 0.9149(2) 0.09662(19) 0.81922(15)
C18A C 0.8972(2) -0.0260(2) 0.82832(16)
H11A H 0.9408 -0.0394 0.8911
C19A C 0.8189(2) -0.1289(2) 0.74971(17)
C20A C 0.7553(2) -0.1046(2) 0.66081(16)
H12A H 0.6985 -0.1739 0.6055
C21A C 0.7702(2) 0.01677(19) 0.64799(14)
C22A C 0.6865(2) 0.0192(2) 0.54440(15)
H13A H 0.6036 -0.0656 0.5126
H14A H 0.6529 0.0835 0.5463
H15A H 0.7488 0.0411 0.5073
C23A C 0.7995(3) -0.2623(2) 0.7600(2)
H16A H 0.7302 -0.3232 0.6980
H17A H 0.8920 -0.2628 0.7766
H18A H 0.7636 -0.2872 0.8120
C24A C 0.9968(3) 0.1955(2) 0.91424(15)
H19A H 0.9635 0.1581 0.9647
H20A H 1.0998 0.2221 0.9350
H21A H 0.9803 0.2703 0.9046
C25A C 0.8273(2) 0.33209(18) 0.79258(14)
C26A C 0.8987(2) 0.45857(19) 0.85057(14)
C27A C 0.8320(3) 0.5000(2) 0.89912(15)
H22A H 0.8838 0.5847 0.9377
C28A C 0.6949(3) 0.4242(2) 0.89389(15)
C29A C 0.6232(2) 0.3019(2) 0.83727(15)
H23A H 0.5280 0.2474 0.8319
C30A C 0.6847(2) 0.25510(19) 0.78766(15)
C31A C 0.5868(2) 0.1221(2) 0.72373(16)
H24A H 0.4895 0.0932 0.7223
H25A H 0.5846 0.1243 0.6571
H26A H 0.6228 0.0628 0.7504
C32A C 0.6224(3) 0.4723(3) 0.94464(19)
H27A H 0.5222 0.4429 0.9008
H28A H 0.6253 0.4388 1.0045
H29A H 0.6730 0.5663 0.9615
C33A C 1.0469(3) 0.5583(2) 0.86174(17)
H30A H 1.0761 0.6362 0.9076
H31A H 1.1155 0.5247 0.8869
H32A H 1.0451 0.5787 0.7979
C34A C 0.6601(3) 0.3651(2) 0.32588(15)
H33A H 0.5994 0.4082 0.3207
H34A H 0.7370 0.4165 0.3031
C35A C 0.5685(3) 0.2309(2) 0.26039(15)
H35A H 0.4874 0.1825 0.2804
H36A H 0.6275 0.1855 0.2710
C36A C 0.5085(3) 0.2302(2) 0.15184(15)
H37A H 0.5894 0.2746 0.1308
H38A H 0.4528 0.2788 0.1413
C37A C 0.4122(3) 0.0957(2) 0.08887(16)
H39A H 0.3287 0.0538 0.1078
H40A H 0.4663 0.0458 0.1036
C38A C 0.3568(3) 0.0886(2) -0.02078(16)
H41A H 0.3026 0.1384 -0.0359
H42A H 0.4400 0.1295 -0.0402
C39A C 0.2603(3) -0.0473(2) -0.08134(16)
H43A H 0.1745 -0.0865 -0.0645
H44A H 0.3127 -0.0984 -0.0634
C40A C 0.2114(3) -0.0554(3) -0.19081(18)
H45A H 0.1509 -0.1455 -0.2250
H46A H 0.1560 -0.0080 -0.2098
H47A H 0.2955 -0.0178 -0.2085
loop_
_geom_bond_atom_site_label_1
_geom_bond_atom_site_label_2
_geom_bond_site_symmetry_1
_geom_bond_site_symmetry_2
B1 N1 1_555 1_555
N1 C8 1_555 1_555
C1 B1 1_555 1_555
H1 C1 1_555 1_555
H2 C1 1_555 1_555
C2 C1 1_555 1_555
C3 C2 1_555 1_555
H3 C3 1_555 1_555
C4 C3 1_555 1_555
H4 C4 1_555 1_555
C5 C4 1_555 1_555
H5 C5 1_555 1_555
C6 C5 1_555 1_555
H6 C6 1_555 1_555
C7 C2 1_555 1_555
C8 C7 1_555 1_555
C9 C8 1_555 1_555
H7 C9 1_555 1_555
C10 C9 1_555 1_555
C11 C10 1_555 1_555
C12 N1 1_555 1_555
H8 C12 1_555 1_555
C13 C11 1_555 1_555
C14 C13 1_555 1_555
H9 C14 1_555 1_555
C15 C13 1_555 1_555
H10 C15 1_555 1_555
C16 B1 1_555 1_555
C17 C16 1_555 1_555
C18 C17 1_555 1_555
H11 C18 1_555 1_555
C19 C18 1_555 1_555
C20 C19 1_555 1_555
H12 C20 1_555 1_555
C21 C16 1_555 1_555
C22 C21 1_555 1_555
H13 C22 1_555 1_555
H14 C22 1_555 1_555
H15 C22 1_555 1_555
C23 C19 1_555 1_555
H16 C23 1_555 1_555
H17 C23 1_555 1_555
H18 C23 1_555 1_555
C24 C17 1_555 1_555
H19 C24 1_555 1_555
H20 C24 1_555 1_555
H21 C24 1_555 1_555
C25 B1 1_555 1_555
C26 C25 1_555 1_555
C27 C26 1_555 1_555
H22 C27 1_555 1_555
C28 C27 1_555 1_555
C29 C28 1_555 1_555
H23 C29 1_555 1_555
C30 C25 1_555 1_555
C31 C30 1_555 1_555
H24 C31 1_555 1_555
H25 C31 1_555 1_555
H26 C31 1_555 1_555
C32 C28 1_555 1_555
H27 C32 1_555 1_555
H28 C32 1_555 1_555
H29 C32 1_555 1_555
C33 C26 1_555 1_555
H30 C33 1_555 1_555
H31 C33 1_555 1_555
H32 C33 1_555 1_555
C34 C10 1_555 1_555
H33 C34 1_555 1_555
H34 C34 1_555 1_555
C35 C34 1_555 1_555
H35 C35 1_555 1_555
H36 C35 1_555 1_555
C36 C35 1_555 1_555
H37 C36 1_555 1_555
H38 C36 1_555 1_555
C37 C36 1_555 1_555
H39 C37 1_555 1_555
H40 C37 1_555 1_555
C38 C37 1_555 1_555
H41 C38 1_555 1_555
H42 C38 1_555 1_555
C39 C38 1_555 1_555
H43 C39 1_555 1_555
H44 C39 1_555 1_555
C40 C39 1_555 1_555
H45 C40 1_555 1_555
H46 C40 1_555 1_555
H47 C40 1_555 1_555
B1A N1A 1_555 1_555
N1A C8A 1_555 1_555
C1A B1A 1_555 1_555
H1A C1A 1_555 1_555
H2A C1A 1_555 1_555
C2A C1A 1_555 1_555
C3A C2A 1_555 1_555
H3A C3A 1_555 1_555
C4A C3A 1_555 1_555
H4A C4A 1_555 1_555
C5A C4A 1_555 1_555
H5A C5A 1_555 1_555
C6A C5A 1_555 1_555
H6A C6A 1_555 1_555
C7A C2A 1_555 1_555
C8A C7A 1_555 1_555
C9A C8A 1_555 1_555
H7A C9A 1_555 1_555
C10A C9A 1_555 1_555
C11A C10A 1_555 1_555
C12A N1A 1_555 1_555
H8A C12A 1_555 1_555
C13A C11A 1_555 1_555
C14A C15 1_555 1_555
H9A C14A 1_555 1_555
C15A C14 1_555 1_555
H10A C15A 1_555 1_555
C16A B1A 1_555 1_555
C17A C16A 1_555 1_555
C18A C17A 1_555 1_555
H11A C18A 1_555 1_555
C19A C18A 1_555 1_555
C20A C19A 1_555 1_555
H12A C20A 1_555 1_555
C21A C16A 1_555 1_555
C22A C21A 1_555 1_555
H13A C22A 1_555 1_555
H14A C22A 1_555 1_555
H15A C22A 1_555 1_555
C23A C19A 1_555 1_555
H16A C23A 1_555 1_555
H17A C23A 1_555 1_555
H18A C23A 1_555 1_555
C24A C17A 1_555 1_555
H19A C24A 1_555 1_555
H20A C24A 1_555 1_555
H21A C24A 1_555 1_555
C25A B1A 1_555 1_555
C26A C25A 1_555 1_555
C27A C26A 1_555 1_555
H22A C27A 1_555 1_555
C28A C27A 1_555 1_555
C29A C28A 1_555 1_555
H23A C29A 1_555 1_555
C30A C25A 1_555 1_555
C31A C30A 1_555 1_555
H24A C31A 1_555 1_555
H25A C31A 1_555 1_555
H26A C31A 1_555 1_555
C32A C28A 1_555 1_555
H27A C32A 1_555 1_555
H28A C32A 1_555 1_555
H29A C32A 1_555 1_555
C33A C26A 1_555 1_555
H30A C33A 1_555 1_555
H31A C33A 1_555 1_555
H32A C33A 1_555 1_555
C34A C10A 1_555 1_555
H33A C34A 1_555 1_555
H34A C34A 1_555 1_555
C35A C34A 1_555 1_555
H35A C35A 1_555 1_555
H36A C35A 1_555 1_555
C36A C35A 1_555 1_555
H37A C36A 1_555 1_555
H38A C36A 1_555 1_555
C37A C36A 1_555 1_555
H39A C37A 1_555 1_555
H40A C37A 1_555 1_555
C38A C37A 1_555 1_555
H41A C38A 1_555 1_555
H42A C38A 1_555 1_555
C39A C38A 1_555 1_555
H43A C39A 1_555 1_555
H44A C39A 1_555 1_555
C40A C39A 1_555 1_555
H45A C40A 1_555 1_555
H46A C40A 1_555 1_555
H47A C40A 1_555 1_555
C6 C7 1_555 1_555
C11 C12 1_555 1_555
C20 C21 1_555 1_555
C29 C30 1_555 1_555
C6A C7A 1_555 1_555
C11A C12A 1_555 1_555
C13A C14A 1_555 1_555
C13A C15A 1_555 1_555
C20A C21A 1_555 1_555
C29A C30A 1_555 1_555

#END
