
#######################################################################
#
#                 Cambridge Crystallographic Data Centre
#                                CCDC 
#
#######################################################################
#
# If this CIF has been generated from an entry in the Cambridge 
# Structural Database, then it will include bibliographic, chemical, 
# crystal, experimental, refinement or atomic coordinate data resulting 
# from the CCDC's data processing and validation procedures.
#
#######################################################################

data_CAWHAL
_chemical_formula_moiety         'C31 H31 N3 O5'
_chemical_name_systematic        
N,N-bis(2-(1,3-dioxo-1,3-dihydro-2H-isoindol-2-yl)ethyl)adamantane-1-carboxamide
_symmetry_cell_setting           triclinic
_symmetry_space_group_name_H-M   'P -1'
_symmetry_Int_Tables_number      2
_space_group_name_Hall           '-P 1'
loop_
_symmetry_equiv_pos_site_id
_symmetry_equiv_pos_as_xyz
1 x,y,z
2 -x,-y,-z
_cell_length_a                   7.3158(10)
_cell_length_b                   13.2405(18)
_cell_length_c                   14.378(2)
_cell_angle_alpha                72.419(2)
_cell_angle_beta                 84.496(2)
_cell_angle_gamma                81.799(2)
_cell_volume                     1312.03
_exptl_crystal_colour            colorless
_exptl_crystal_description       block
_cell_formula_units_Z            2
loop_
_atom_site_label
_atom_site_type_symbol
_atom_site_fract_x
_atom_site_fract_y
_atom_site_fract_z
C1 C 0.2447(3) 0.8172(2) 1.1271(2)
C2 C 0.2793(3) 0.7751(2) 1.23230(18)
C3 C 0.3211(4) 0.8259(2) 1.2962(2)
H1 H 0.3380 0.8978 1.2751
C4 C 0.3371(4) 0.7669(3) 1.3927(2)
H2 H 0.3646 0.7998 1.4375
C5 C 0.3132(4) 0.6604(3) 1.4240(2)
H3 H 0.3251 0.6224 1.4895
C6 C 0.2718(4) 0.6090(2) 1.3590(2)
H4 H 0.2551 0.5371 1.3796
C7 C 0.2565(3) 0.6687(2) 1.26298(19)
C8 C 0.2050(4) 0.6387(2) 1.1784(2)
C9 C 0.1290(3) 0.7397(2) 1.00665(17)
H5 H 0.0755 0.8129 0.9786
H6 H 0.0303 0.6949 1.0185
C10 C 0.2695(3) 0.70881(19) 0.93286(17)
H7 H 0.3527 0.7629 0.9076
H8 H 0.3420 0.6415 0.9633
C11 C 0.1466(3) 0.59020(17) 0.85648(17)
H9 H 0.0400 0.5909 0.8209
H10 H 0.1251 0.5482 0.9238
C12 C 0.3183(3) 0.53945(18) 0.81181(18)
H11 H 0.3433 0.5839 0.7458
H12 H 0.4234 0.5357 0.8495
C13 C 0.3138(3) 0.3427(2) 0.8896(2)
C14 C 0.2790(3) 0.25285(19) 0.85522(18)
C15 C 0.2811(3) 0.1461(2) 0.90376(19)
H13 H 0.3094 0.1189 0.9690
C16 C 0.2393(4) 0.0805(2) 0.8514(2)
H14 H 0.2394 0.0078 0.8823
C17 C 0.1977(4) 0.1207(2) 0.7548(2)
H15 H 0.1705 0.0749 0.7214
C18 C 0.1958(3) 0.2289(2) 0.70640(19)
H16 H 0.1673 0.2565 0.6412
C19 C 0.2375(3) 0.29377(19) 0.75814(18)
C20 C 0.2492(4) 0.4098(2) 0.7267(2)
C21 C 0.0968(3) 0.7912(2) 0.78916(18)
C22 C -0.0481(3) 0.79525(18) 0.71639(17)
C23 C -0.0868(4) 0.91229(18) 0.65401(18)
H17 H -0.1243 0.9571 0.6965
H18 H 0.0255 0.9352 0.6169
C24 C -0.2390(4) 0.9257(2) 0.5838(2)
H19 H -0.2609 1.0008 0.5451
C25 C -0.1806(4) 0.8572(2) 0.51557(18)
H20 H -0.0697 0.8798 0.4767
H21 H -0.2777 0.8651 0.4716
C26 C -0.1435(4) 0.7410(2) 0.57665(18)
H22 H -0.1059 0.6965 0.5330
C27 C 0.0123(3) 0.72839(18) 0.64506(16)
H23 H 0.1233 0.7521 0.6070
H24 H 0.0401 0.6538 0.6815
C28 C -0.2294(3) 0.76255(19) 0.77369(17)
H25 H -0.2096 0.6889 0.8138
H26 H -0.2681 0.8068 0.8166
C29 C -0.3806(4) 0.7752(2) 0.70330(19)
H27 H -0.4946 0.7528 0.7406
C30 C -0.3170(4) 0.7052(2) 0.63643(19)
H28 H -0.2925 0.6314 0.6754
H29 H -0.4140 0.7102 0.5932
C31 C -0.4165(4) 0.8918(2) 0.6418(2)
H30 H -0.5132 0.8998 0.5975
H31 H -0.4570 0.9366 0.6840
N1 N 0.2020(3) 0.73068(18) 1.10013(15)
N2 N 0.1681(3) 0.69891(15) 0.85316(14)
N3 N 0.2969(3) 0.43318(15) 0.80949(15)
O1 O 0.2476(3) 0.90650(15) 1.07339(14)
O2 O 0.1690(3) 0.55379(15) 1.17464(14)
O3 O 0.3491(2) 0.34305(14) 0.96981(13)
O4 O 0.2248(3) 0.47427(14) 0.64801(13)
O5 O 0.1435(3) 0.87564(13) 0.79338(12)
loop_
_geom_bond_atom_site_label_1
_geom_bond_atom_site_label_2
_geom_bond_site_symmetry_1
_geom_bond_site_symmetry_2
C1 C2 1_555 1_555
C2 C3 1_555 1_555
C3 H1 1_555 1_555
C4 C3 1_555 1_555
H2 C4 1_555 1_555
C5 C4 1_555 1_555
H3 C5 1_555 1_555
C6 C5 1_555 1_555
H4 C6 1_555 1_555
C7 C2 1_555 1_555
C8 C7 1_555 1_555
C9 H5 1_555 1_555
H6 C9 1_555 1_555
C10 C9 1_555 1_555
H7 C10 1_555 1_555
H8 C10 1_555 1_555
C11 H9 1_555 1_555
H10 C11 1_555 1_555
C12 C11 1_555 1_555
H11 C12 1_555 1_555
H12 C12 1_555 1_555
C13 C14 1_555 1_555
C14 C15 1_555 1_555
C15 H13 1_555 1_555
C16 C15 1_555 1_555
H14 C16 1_555 1_555
C17 C16 1_555 1_555
H15 C17 1_555 1_555
C18 C17 1_555 1_555
H16 C18 1_555 1_555
C19 C14 1_555 1_555
C20 C19 1_555 1_555
C21 C22 1_555 1_555
C22 C23 1_555 1_555
C23 H17 1_555 1_555
H18 C23 1_555 1_555
C24 C23 1_555 1_555
H19 C24 1_555 1_555
C25 C24 1_555 1_555
H20 C25 1_555 1_555
H21 C25 1_555 1_555
C26 C25 1_555 1_555
H22 C26 1_555 1_555
C27 C22 1_555 1_555
H23 C27 1_555 1_555
H24 C27 1_555 1_555
C28 C22 1_555 1_555
H25 C28 1_555 1_555
H26 C28 1_555 1_555
C29 C28 1_555 1_555
H27 C29 1_555 1_555
C30 C26 1_555 1_555
H28 C30 1_555 1_555
H29 C30 1_555 1_555
C31 C24 1_555 1_555
H30 C31 1_555 1_555
H31 C31 1_555 1_555
N1 C1 1_555 1_555
N2 C10 1_555 1_555
N3 C12 1_555 1_555
O1 C1 1_555 1_555
O2 C8 1_555 1_555
O3 C13 1_555 1_555
O4 C20 1_555 1_555
O5 C21 1_555 1_555
C6 C7 1_555 1_555
C8 N1 1_555 1_555
C9 N1 1_555 1_555
C11 N2 1_555 1_555
C13 N3 1_555 1_555
C18 C19 1_555 1_555
C20 N3 1_555 1_555
C21 N2 1_555 1_555
C26 C27 1_555 1_555
C29 C30 1_555 1_555
C29 C31 1_555 1_555

#END
