
#######################################################################
#
#                 Cambridge Crystallographic Data Centre
#                                CCDC 
#
#######################################################################
#
# If this CIF has been generated from an entry in the Cambridge 
# Structural Database, then it will include bibliographic, chemical, 
# crystal, experimental, refinement or atomic coordinate data resulting 
# from the CCDC's data processing and validation procedures.
#
#######################################################################

data_CAWLOE
_chemical_formula_moiety         'C22 H13 N3 O3 S1'
_chemical_name_systematic        
"2'-sulfanylidene-2',3'-dihydro-1'H-spiro[naphtho[2,1-b]furan-1,5'-pyrimido[4,5-b]quinoline]-2,4'(10'H)-dione unknown solvate"
_chemical_properties_biological  
'possesses antimicrobial activities against Micrococcus tetragenus, Bacillus cereus, Bacillus subtilis, Staphylococcus aureus, S albus and Escherichia coli'
_symmetry_cell_setting           triclinic
_symmetry_space_group_name_H-M   'P -1'
_symmetry_Int_Tables_number      2
_space_group_name_Hall           '-P 1'
loop_
_symmetry_equiv_pos_site_id
_symmetry_equiv_pos_as_xyz
1 x,y,z
2 -x,-y,-z
_cell_length_a                   9.5187(18)
_cell_length_b                   11.7706(19)
_cell_length_c                   12.0450(19)
_cell_angle_alpha                89.201(5)
_cell_angle_beta                 81.550(6)
_cell_angle_gamma                70.024(5)
_cell_volume                     1253.62
_exptl_crystal_colour            colorless
_exptl_crystal_description       block
_cell_formula_units_Z            2
loop_
_atom_site_label
_atom_site_type_symbol
_atom_site_fract_x
_atom_site_fract_y
_atom_site_fract_z
C1 C 0.7004(4) 0.0158(3) 0.8317(3)
H1 H 0.7966 -0.0277 0.8473
C2 C 0.5814(5) -0.0220(3) 0.8622(3)
H2 H 0.5969 -0.0936 0.9001
C3 C 0.4353(4) 0.0426(3) 0.8388(2)
C4 C 0.3109(5) 0.0033(3) 0.8728(3)
H3 H 0.3260 -0.0681 0.9110
C5 C 0.1711(5) 0.0673(4) 0.8508(3)
H4 H 0.0912 0.0400 0.8749
C6 C 0.1448(4) 0.1746(3) 0.7917(3)
H5 H 0.0482 0.2168 0.7758
C7 C 0.2599(4) 0.2172(3) 0.7576(3)
H6 H 0.2409 0.2885 0.7188
C8 C 0.4091(3) 0.1539(3) 0.7807(2)
C9 C 0.5343(3) 0.1916(3) 0.7490(2)
C10 C 0.6700(4) 0.1249(3) 0.7749(3)
C11 C 0.5482(3) 0.2996(3) 0.6840(3)
C12 C 0.7164(4) 0.2816(3) 0.6895(3)
C13 C 0.5290(3) 0.2893(3) 0.5627(3)
C14 C 0.6215(4) 0.1879(3) 0.4959(3)
H7 H 0.6966 0.1282 0.5262
C15 C 0.6040(5) 0.1744(4) 0.3863(3)
H8 H 0.6679 0.1065 0.3433
C16 C 0.4933(5) 0.2602(4) 0.3398(3)
H9 H 0.4815 0.2506 0.2656
C17 C 0.3993(4) 0.3610(3) 0.4043(3)
H10 H 0.3239 0.4198 0.3734
C18 C 0.4170(4) 0.3749(3) 0.5150(3)
C19 C 0.3382(3) 0.4997(3) 0.6839(3)
C20 C 0.4480(3) 0.4212(3) 0.7359(3)
C21 C 0.4673(4) 0.4566(3) 0.8429(3)
C22 C 0.2496(4) 0.6404(3) 0.8425(3)
O1 O 0.7827(2) 0.1755(2) 0.73829(19)
N1 N 0.3674(3) 0.5653(2) 0.8896(2)
H11 H 0.3803 0.5877 0.9539
N2 N 0.2410(3) 0.6040(2) 0.7382(2)
H12 H 0.1700 0.6495 0.7041
N3 N 0.3184(3) 0.4780(2) 0.5793(2)
H13 H 0.2443 0.5278 0.5510
O2 O 0.7842(3) 0.3465(2) 0.6533(2)
O3 O 0.5699(3) 0.3933(2) 0.89447(19)
S1 S 0.12365(11) 0.76442(8) 0.90874(9)
loop_
_geom_bond_atom_site_label_1
_geom_bond_atom_site_label_2
_geom_bond_site_symmetry_1
_geom_bond_site_symmetry_2
C1 H1 1_555 1_555
C2 C1 1_555 1_555
H2 C2 1_555 1_555
C3 C2 1_555 1_555
C4 C3 1_555 1_555
H3 C4 1_555 1_555
C5 C4 1_555 1_555
H4 C5 1_555 1_555
C6 C5 1_555 1_555
H5 C6 1_555 1_555
C7 C6 1_555 1_555
H6 C7 1_555 1_555
C8 C3 1_555 1_555
C9 C8 1_555 1_555
C10 C1 1_555 1_555
C11 C9 1_555 1_555
C12 C11 1_555 1_555
C13 C11 1_555 1_555
C14 C13 1_555 1_555
H7 C14 1_555 1_555
C15 C14 1_555 1_555
H8 C15 1_555 1_555
C16 C15 1_555 1_555
H9 C16 1_555 1_555
C17 C16 1_555 1_555
H10 C17 1_555 1_555
C18 C13 1_555 1_555
C19 C20 1_555 1_555
C20 C11 1_555 1_555
C21 C20 1_555 1_555
C22 N1 1_555 1_555
O1 C10 1_555 1_555
N1 C21 1_555 1_555
H11 N1 1_555 1_555
N2 C19 1_555 1_555
H12 N2 1_555 1_555
N3 C18 1_555 1_555
H13 N3 1_555 1_555
O2 C12 1_555 1_555
O3 C21 1_555 1_555
S1 C22 1_555 1_555
C7 C8 1_555 1_555
C9 C10 1_555 1_555
C12 O1 1_555 1_555
C17 C18 1_555 1_555
C19 N3 1_555 1_555
C22 N2 1_555 1_555

#END
