
#######################################################################
#
#                 Cambridge Crystallographic Data Centre
#                                CCDC 
#
#######################################################################
#
# If this CIF has been generated from an entry in the Cambridge 
# Structural Database, then it will include bibliographic, chemical, 
# crystal, experimental, refinement or atomic coordinate data resulting 
# from the CCDC's data processing and validation procedures.
#
#######################################################################

data_CAWXUW
_chemical_formula_moiety         'C16 H24 N2 O2,C1 H2 Cl2'
_chemical_name_systematic        
"N,N'-1,2-phenylenebis(2,2-dimethylpropanamide) dichloromethane solvate"
_symmetry_cell_setting           monoclinic
_symmetry_space_group_name_H-M   'P 21/n'
_symmetry_Int_Tables_number      14
_space_group_name_Hall           '-P 2yn'
loop_
_symmetry_equiv_pos_site_id
_symmetry_equiv_pos_as_xyz
1 x,y,z
2 1/2-x,1/2+y,1/2-z
3 -x,-y,-z
4 1/2+x,1/2-y,1/2+z
_cell_length_a                   9.8122(4)
_cell_length_b                   9.0990(4)
_cell_length_c                   21.6891(9)
_cell_angle_alpha                90
_cell_angle_beta                 97.987(2)
_cell_angle_gamma                90
_cell_volume                     1917.64
_exptl_crystal_colour            colorless
_exptl_crystal_description       Block
_cell_formula_units_Z            4
loop_
_atom_site_label
_atom_site_type_symbol
_atom_site_fract_x
_atom_site_fract_y
_atom_site_fract_z
C1 C 0.56437(15) 0.65871(17) 0.22161(7)
C2 C 0.61267(15) 0.78069(18) 0.25728(7)
C3 C 0.64275(17) 0.91020(18) 0.22776(8)
H1 H 0.6724 0.9942 0.2520
C4 C 0.62999(18) 0.9181(2) 0.16357(8)
H2 H 0.6519 1.0066 0.1439
C5 C 0.58506(19) 0.7963(2) 0.12792(8)
H3 H 0.5770 0.8010 0.0838
C6 C 0.55194(17) 0.66792(19) 0.15680(8)
H4 H 0.5204 0.5851 0.1322
C7 C 0.44999(16) 0.50482(18) 0.29271(7)
C8 C 0.42319(18) 0.34856(19) 0.31455(8)
C9 C 0.2674(2) 0.3251(3) 0.30362(14)
H5 H 0.2339 0.3330 0.2590
H6 H 0.2226 0.4001 0.3263
H7 H 0.2457 0.2273 0.3185
C10 C 0.4939(2) 0.2282(2) 0.28186(9)
H8 H 0.4714 0.1321 0.2982
H9 H 0.5937 0.2431 0.2894
H10 H 0.4620 0.2321 0.2370
C11 C 0.4767(3) 0.3426(2) 0.38419(9)
H11 H 0.4553 0.2465 0.4008
H12 H 0.4325 0.4200 0.4058
H13 H 0.5766 0.3576 0.3905
C12 C 0.74315(17) 0.81093(17) 0.36142(7)
C13 C 0.72813(19) 0.8214(2) 0.43077(8)
C14 C 0.6358(3) 0.6999(3) 0.45068(11)
H14 H 0.6734 0.6038 0.4415
H15 H 0.5429 0.7102 0.4278
H16 H 0.6320 0.7077 0.4955
C15 C 0.8682(2) 0.8183(4) 0.46899(10)
H17 H 0.9125 0.7238 0.4631
H18 H 0.8588 0.8309 0.5131
H19 H 0.9245 0.8981 0.4557
C16 C 0.6580(3) 0.9705(3) 0.43887(11)
H20 H 0.6471 0.9843 0.4827
H21 H 0.5674 0.9721 0.4134
H22 H 0.7150 1.0499 0.4256
N1 N 0.53305(14) 0.52211(15) 0.24835(6)
H23 H 0.5707 0.4425 0.2350
N2 N 0.62672(14) 0.77564(16) 0.32324(6)
H24 H 0.5549 0.7477 0.3405
O1 O 0.39750(13) 0.61078(14) 0.31603(6)
O2 O 0.85262(12) 0.83617(14) 0.34203(6)
C17 C 0.1781(2) 0.7330(3) 0.39127(9)
H25 H 0.0764 0.7373 0.3831
H26 H 0.2101 0.6668 0.3600
Cl1 Cl 0.22937(8) 0.66175(11) 0.46623(3)
Cl2 Cl 0.24628(7) 0.91067(8) 0.38354(3)
loop_
_geom_bond_atom_site_label_1
_geom_bond_atom_site_label_2
_geom_bond_site_symmetry_1
_geom_bond_site_symmetry_2
C1 C2 1_555 1_555
C2 C3 1_555 1_555
C3 H1 1_555 1_555
C4 C3 1_555 1_555
H2 C4 1_555 1_555
C5 C4 1_555 1_555
H3 C5 1_555 1_555
C6 C1 1_555 1_555
H4 C6 1_555 1_555
C7 C8 1_555 1_555
C8 C9 1_555 1_555
C9 H5 1_555 1_555
H6 C9 1_555 1_555
H7 C9 1_555 1_555
C10 C8 1_555 1_555
H8 C10 1_555 1_555
H9 C10 1_555 1_555
H10 C10 1_555 1_555
C11 C8 1_555 1_555
H11 C11 1_555 1_555
H12 C11 1_555 1_555
H13 C11 1_555 1_555
C12 C13 1_555 1_555
C13 C14 1_555 1_555
C14 H14 1_555 1_555
H15 C14 1_555 1_555
H16 C14 1_555 1_555
C15 C13 1_555 1_555
H17 C15 1_555 1_555
H18 C15 1_555 1_555
H19 C15 1_555 1_555
C16 C13 1_555 1_555
H20 C16 1_555 1_555
H21 C16 1_555 1_555
H22 C16 1_555 1_555
N1 C1 1_555 1_555
H23 N1 1_555 1_555
N2 C2 1_555 1_555
H24 N2 1_555 1_555
O1 C7 1_555 1_555
O2 C12 1_555 1_555
C17 H25 1_555 1_555
H26 C17 1_555 1_555
Cl1 C17 1_555 1_555
Cl2 C17 1_555 1_555
C5 C6 1_555 1_555
C7 N1 1_555 1_555
C12 N2 1_555 1_555

#END
