
#######################################################################
#
#                 Cambridge Crystallographic Data Centre
#                                CCDC 
#
#######################################################################
#
# If this CIF has been generated from an entry in the Cambridge 
# Structural Database, then it will include bibliographic, chemical, 
# crystal, experimental, refinement or atomic coordinate data resulting 
# from the CCDC's data processing and validation procedures.
#
#######################################################################

data_CAWYEF
_chemical_formula_moiety         'C50 H66 O6,C15 H16 O2,3(C1 H1 Cl3)'
_chemical_name_systematic        
'25,27-(3,6-Dioxaoctan-1,8-dioxy)-5,11,17,23-tetra-t-butylcalix(4)arene bisphenol A chloroform solvate'
_symmetry_cell_setting           monoclinic
_symmetry_space_group_name_H-M   'P 21/c'
_symmetry_Int_Tables_number      14
_space_group_name_Hall           '-P 2ybc'
loop_
_symmetry_equiv_pos_site_id
_symmetry_equiv_pos_as_xyz
1 x,y,z
2 -x,1/2+y,1/2-z
3 -x,-y,-z
4 x,1/2-y,1/2+z
_cell_length_a                   17.4063(8)
_cell_length_b                   13.0233(6)
_cell_length_c                   30.268(1)
_cell_angle_alpha                90
_cell_angle_beta                 93.173(3)
_cell_angle_gamma                90
_cell_volume                     6850.86
_exptl_crystal_colour            colorless
_exptl_crystal_description       plate
_cell_formula_units_Z            4
loop_
_atom_site_label
_atom_site_type_symbol
_atom_site_fract_x
_atom_site_fract_y
_atom_site_fract_z
Cl1 Cl 0.11066(6) 0.79322(7) 0.06395(3)
Cl2 Cl 0.13983(5) 0.58407(7) 0.03825(3)
Cl3 Cl 0.26068(6) 0.70284(8) 0.08222(4)
C66 C 0.1789(2) 0.7068(3) 0.0449(1)
H78 H 0.1945 0.7303 0.0170
Cl4 Cl 0.3800(1) 0.3897(2) 0.03373(6)
Cl5 Cl 0.33920(8) 0.4449(1) 0.12035(4)
Cl6 Cl 0.23178(8) 0.3387(1) 0.06277(6)
C65 C 0.3052(3) 0.4262(3) 0.0662(1)
H77 H 0.2859 0.4900 0.0552
Cl7 Cl 0.51425(6) 0.3337(1) 0.17811(5)
Cl8 Cl 0.60677(7) 0.4212(1) 0.24781(4)
Cl9 Cl 0.67168(8) 0.3780(1) 0.16583(4)
C67 C 0.6071(3) 0.3632(6) 0.2004(1)
H79 H 0.6220 0.2968 0.2106
O1 O 0.8859(1) 0.5578(1) 0.14940(6)
O2 O 1.0437(1) 0.5395(2) 0.1790(1)
O3 O 1.0739(1) 0.3401(2) 0.21342(8)
O4 O 0.9203(1) 0.2620(1) 0.21155(6)
O5 O 0.8918(1) 0.3601(1) 0.12208(6)
O6 O 0.8726(1) 0.4520(2) 0.22645(6)
C1 C 0.7747(2) 0.6369(2) 0.18117(9)
C2 C 0.8157(2) 0.6491(2) 0.22691(9)
C3 C 0.7937(2) 0.5698(2) 0.26113(9)
C4 C 0.7450(2) 0.5940(2) 0.29453(9)
C5 C 0.7289(2) 0.5237(2) 0.32785(9)
C6 C 0.7644(2) 0.4289(2) 0.32620(9)
C7 C 0.8125(2) 0.3996(2) 0.29326(9)
C8 C 0.8490(2) 0.2940(2) 0.29355(9)
C9 C 0.8161(2) 0.2242(2) 0.25717(9)
C10 C 0.7476(2) 0.1718(2) 0.26322(9)
C11 C 0.7133(2) 0.1076(2) 0.2312(1)
C12 C 0.7493(2) 0.1020(2) 0.1905(1)
C13 C 0.8161(2) 0.1557(2) 0.18295(9)
C14 C 0.8463(2) 0.1554(2) 0.13652(9)
C15 C 0.8011(2) 0.2275(2) 0.10621(9)
C16 C 0.7337(2) 0.1946(2) 0.0836(1)
C17 C 0.6868(2) 0.2585(2) 0.05670(9)
C18 C 0.7117(2) 0.3595(2) 0.05244(9)
C19 C 0.7791(2) 0.3963(2) 0.07374(9)
C20 C 0.8010(2) 0.5088(2) 0.06930(9)
C21 C 0.7683(2) 0.5735(2) 0.10563(9)
C22 C 0.6934(2) 0.6095(2) 0.10074(9)
C23 C 0.6571(2) 0.6611(2) 0.1347(1)
C24 C 0.7002(2) 0.6708(2) 0.1749(1)
C25 C 0.8102(2) 0.5920(2) 0.14588(9)
C26 C 0.8236(2) 0.3296(2) 0.10086(9)
C27 C 0.8510(2) 0.2120(2) 0.21758(9)
C28 C 0.8263(2) 0.4731(2) 0.26042(9)
C29 C 0.5757(2) 0.7017(2) 0.1265(1)
C30 C 0.5212(2) 0.6190(3) 0.1078(1)
C31 C 0.5784(2) 0.7926(3) 0.0935(1)
C32 C 0.5430(2) 0.7441(3) 0.1694(1)
C33 C 0.6761(2) 0.5495(3) 0.3651(1)
C34 C 0.6344(2) 0.6520(3) 0.3579(1)
C35 C 0.7255(2) 0.5506(3) 0.4092(1)
C36 C 0.6147(2) 0.4657(3) 0.3686(1)
C37 C 0.6419(2) 0.0433(2) 0.2388(1)
C38 C 0.5968(2) 0.0870(3) 0.2763(1)
C39 C 0.6674(2) -0.0653(3) 0.2514(1)
C40 C 0.5878(2) 0.0391(3) 0.1973(1)
C41 C 0.6125(2) 0.2179(3) 0.0343(1)
C42 C 0.5589(2) 0.1799(4) 0.0698(1)
C43 C 0.6286(2) 0.1287(3) 0.0034(1)
C44 C 0.5701(2) 0.2990(3) 0.0072(1)
C45 C 0.9444(2) 0.6355(2) 0.1451(1)
C46 C 1.0194(2) 0.5877(3) 0.1410(1)
C47 C 1.1233(3) 0.4003(4) 0.1871(2)
C48 C 1.0502(2) 0.2470(3) 0.1926(1)
C49 C 0.9879(2) 0.1979(2) 0.2173(1)
C68 C 1.1191(4) 0.5003(6) 0.1917(3)
H1 H 0.8694 0.6446 0.2233
H2 H 0.8037 0.7150 0.2381
H3 H 0.7218 0.6601 0.2944
H4 H 0.7558 0.3807 0.3489
H5 H 0.8414 0.2632 0.3214
H6 H 0.9026 0.3014 0.2899
H7 H 0.7235 0.1797 0.2904
H8 H 0.7264 0.0611 0.1674
H9 H 0.8428 0.0878 0.1248
H10 H 0.8986 0.1766 0.1383
H11 H 0.7187 0.1251 0.0871
H12 H 0.6810 0.4052 0.0346
H13 H 0.8555 0.5149 0.0712
H14 H 0.7814 0.5330 0.0413
H15 H 0.6653 0.5986 0.0733
H16 H 0.6766 0.7020 0.1991
H17 H 0.5385 0.5541 0.1186
H18 H 0.5207 0.6195 0.0764
H19 H 0.4706 0.6313 0.1170
H20 H 0.6190 0.7826 0.0743
H21 H 0.5308 0.7961 0.0767
H22 H 0.5866 0.8548 0.1095
H23 H 0.5077 0.7974 0.1615
H24 H 0.5837 0.7708 0.1882
H25 H 0.5173 0.6913 0.1844
H26 H 0.6271 0.6647 0.3270
H27 H 0.6648 0.7053 0.3713
H28 H 0.5858 0.6499 0.3707
H29 H 0.7766 0.5704 0.4037
H30 H 0.7046 0.5977 0.4293
H31 H 0.7259 0.4837 0.4217
H32 H 0.6002 0.4605 0.3983
H33 H 0.6350 0.4018 0.3595
H34 H 0.5709 0.4828 0.3499
H35 H 0.6037 0.1593 0.2773
H36 H 0.6152 0.0579 0.3037
H37 H 0.5436 0.0717 0.2714
H38 H 0.7165 -0.0615 0.2667
H39 H 0.6316 -0.0954 0.2701
H40 H 0.6710 -0.1061 0.2255
H41 H 0.5613 -0.0247 0.1965
H42 H 0.6167 0.0453 0.1717
H43 H 0.5516 0.0937 0.1979
H44 H 0.5692 0.2188 0.0960
H45 H 0.5691 0.1094 0.0756
H46 H 0.5065 0.1882 0.0600
H47 H 0.6732 0.0933 0.0147
H48 H 0.5860 0.0829 0.0018
H49 H 0.6371 0.1541 -0.0253
H50 H 0.5358 0.3353 0.0250
H51 H 0.6065 0.3455 -0.0037
H52 H 0.5418 0.2676 -0.0169
H53 H 0.9317 0.6760 0.1196
H54 H 0.9471 0.6782 0.1706
H55 H 1.0142 0.5390 0.1177
H56 H 1.0564 0.6379 0.1341
H57 H 1.1362 0.3545 0.1642
H58 H 1.1680 0.4144 0.2056
H59 H 1.0318 0.2608 0.1631
H60 H 1.0930 0.2017 0.1924
H61 H 0.9762 0.1316 0.2057
H62 H 1.0035 0.1924 0.2478
O7 O 0.0142(1) 0.5984(1) -0.05550(7)
O8 O -0.0146(1) 0.9271(2) 0.21310(7)
C50 C -0.1530(2) 0.8993(2) 0.03781(9)
C51 C -0.2375(2) 0.8640(3) 0.0357(1)
C52 C -0.1513(2) 1.0066(2) 0.0179(1)
C53 C -0.1072(2) 0.8232(2) 0.01123(9)
C54 C -0.1004(2) 0.7214(2) 0.02578(9)
C55 C -0.0593(2) 0.6479(2) 0.00400(9)
C56 C -0.0236(2) 0.6749(2) -0.03427(9)
C57 C -0.0294(2) 0.7738(2) -0.0497(1)
C58 C -0.0707(2) 0.8477(2) -0.0269(1)
C59 C -0.1198(2) 0.9010(2) 0.08546(9)
C60 C -0.0431(2) 0.9321(2) 0.0940(1)
C61 C -0.0097(2) 0.9406(2) 0.1357(1)
C62 C -0.0519(2) 0.9168(2) 0.1720(1)
C63 C -0.1263(2) 0.8855(2) 0.1655(1)
C64 C -0.1602(2) 0.8771(2) 0.12249(9)
H63 H -0.2390 0.7914 0.0329
H64 H -0.2614 0.8838 0.0619
H65 H -0.1973 1.0416 0.0242
H66 H -0.2641 0.8944 0.0108
H67 H -0.1083 1.0433 0.0305
H68 H -0.1475 1.0021 -0.0132
H69 H -0.0729 0.9164 -0.0374
H70 H -0.0056 0.7924 -0.0760
H71 H -0.0559 0.5797 0.0151
H72 H -0.1243 0.7025 0.0521
H73 H -0.0131 0.9477 0.0696
H74 H 0.0419 0.9637 0.1400
H75 H -0.1551 0.8690 0.1903
H76 H -0.2122 0.8551 0.1185
C69? C 1.1054(4) 0.4655(6) 0.1586(3)
loop_
_geom_bond_atom_site_label_1
_geom_bond_atom_site_label_2
_geom_bond_site_symmetry_1
_geom_bond_site_symmetry_2
Cl1 C66 1_555 1_555
Cl2 C66 1_555 1_555
Cl3 C66 1_555 1_555
Cl4 C65 1_555 1_555
Cl5 C65 1_555 1_555
Cl6 C65 1_555 1_555
Cl7 C67 1_555 1_555
Cl8 C67 1_555 1_555
Cl9 C67 1_555 1_555
O1 C25 1_555 1_555
O2 C46 1_555 1_555
O3 C47 1_555 1_555
O4 C27 1_555 1_555
O5 C26 1_555 1_555
O6 C28 1_555 1_555
O7 C56 1_555 1_555
O8 C62 1_555 1_555
C1 C2 1_555 1_555
C2 C3 1_555 1_555
C3 C4 1_555 1_555
C4 C5 1_555 1_555
C5 C6 1_555 1_555
C6 C7 1_555 1_555
C7 C8 1_555 1_555
C8 C9 1_555 1_555
C9 C10 1_555 1_555
C10 C11 1_555 1_555
C11 C12 1_555 1_555
C12 C13 1_555 1_555
C13 C14 1_555 1_555
C14 C15 1_555 1_555
C15 C16 1_555 1_555
C16 C17 1_555 1_555
C17 C18 1_555 1_555
C18 C19 1_555 1_555
C19 C20 1_555 1_555
C20 C21 1_555 1_555
C21 C22 1_555 1_555
C22 C23 1_555 1_555
C23 C24 1_555 1_555
C24 C1 1_555 1_555
C25 C1 1_555 1_555
C26 C15 1_555 1_555
C27 C9 1_555 1_555
C28 C3 1_555 1_555
C29 C23 1_555 1_555
C30 C29 1_555 1_555
C31 C29 1_555 1_555
C32 C29 1_555 1_555
C33 C5 1_555 1_555
C34 C33 1_555 1_555
C35 C33 1_555 1_555
C36 C33 1_555 1_555
C37 C11 1_555 1_555
C38 C37 1_555 1_555
C39 C37 1_555 1_555
C40 C37 1_555 1_555
C41 C17 1_555 1_555
C42 C41 1_555 1_555
C43 C41 1_555 1_555
C44 C41 1_555 1_555
C45 O1 1_555 1_555
C46 C45 1_555 1_555
C47 C68 1_555 1_555
C48 O3 1_555 1_555
C49 O4 1_555 1_555
C50 C51 1_555 1_555
C51 H63 1_555 1_555
C52 C50 1_555 1_555
C53 C50 1_555 1_555
C54 C53 1_555 1_555
C55 C54 1_555 1_555
C56 C55 1_555 1_555
C57 C56 1_555 1_555
C58 C53 1_555 1_555
C59 C50 1_555 1_555
C60 C59 1_555 1_555
C61 C60 1_555 1_555
C62 C61 1_555 1_555
C63 C62 1_555 1_555
C64 C59 1_555 1_555
C65 H77 1_555 1_555
C66 H78 1_555 1_555
C67 H79 1_555 1_555
C68 O2 1_555 1_555
H1 C2 1_555 1_555
H2 C2 1_555 1_555
H3 C4 1_555 1_555
H4 C6 1_555 1_555
H5 C8 1_555 1_555
H6 C8 1_555 1_555
H7 C10 1_555 1_555
H8 C12 1_555 1_555
H9 C14 1_555 1_555
H10 C14 1_555 1_555
H11 C16 1_555 1_555
H12 C18 1_555 1_555
H13 C20 1_555 1_555
H14 C20 1_555 1_555
H15 C22 1_555 1_555
H16 C24 1_555 1_555
H17 C30 1_555 1_555
H18 C30 1_555 1_555
H19 C30 1_555 1_555
H20 C31 1_555 1_555
H21 C31 1_555 1_555
H22 C31 1_555 1_555
H23 C32 1_555 1_555
H24 C32 1_555 1_555
H25 C32 1_555 1_555
H26 C34 1_555 1_555
H27 C34 1_555 1_555
H28 C34 1_555 1_555
H29 C35 1_555 1_555
H30 C35 1_555 1_555
H31 C35 1_555 1_555
H32 C36 1_555 1_555
H33 C36 1_555 1_555
H34 C36 1_555 1_555
H35 C38 1_555 1_555
H36 C38 1_555 1_555
H37 C38 1_555 1_555
H38 C39 1_555 1_555
H39 C39 1_555 1_555
H40 C39 1_555 1_555
H41 C40 1_555 1_555
H42 C40 1_555 1_555
H43 C40 1_555 1_555
H44 C42 1_555 1_555
H45 C42 1_555 1_555
H46 C42 1_555 1_555
H47 C43 1_555 1_555
H48 C43 1_555 1_555
H49 C43 1_555 1_555
H50 C44 1_555 1_555
H51 C44 1_555 1_555
H52 C44 1_555 1_555
H53 C45 1_555 1_555
H54 C45 1_555 1_555
H55 C46 1_555 1_555
H56 C46 1_555 1_555
H57 C47 1_555 1_555
H58 C47 1_555 1_555
H59 C48 1_555 1_555
H60 C48 1_555 1_555
H61 C49 1_555 1_555
H62 C49 1_555 1_555
H64 C51 1_555 1_555
H65 C52 1_555 1_555
H66 C51 1_555 1_555
H67 C52 1_555 1_555
H68 C52 1_555 1_555
H69 C58 1_555 1_555
H70 C57 1_555 1_555
H71 C55 1_555 1_555
H72 C54 1_555 1_555
H73 C60 1_555 1_555
H74 C61 1_555 1_555
H75 C63 1_555 1_555
H76 C64 1_555 1_555
C7 C28 1_555 1_555
C13 C27 1_555 1_555
C19 C26 1_555 1_555
C21 C25 1_555 1_555
C48 C49 1_555 1_555
C57 C58 1_555 1_555
C63 C64 1_555 1_555

#END
