
#######################################################################
#
#                 Cambridge Crystallographic Data Centre
#                                CCDC 
#
#######################################################################
#
# If this CIF has been generated from an entry in the Cambridge 
# Structural Database, then it will include bibliographic, chemical, 
# crystal, experimental, refinement or atomic coordinate data resulting 
# from the CCDC's data processing and validation procedures.
#
#######################################################################

data_CAWYAD
_chemical_formula_moiety         'C21 H33 N3 O3'
_chemical_name_systematic        
N,N',N''-benzene-1,2,3-triyltris(2,2-dimethylpropanamide)
_symmetry_cell_setting           monoclinic
_symmetry_space_group_name_H-M   'C 2/c'
_symmetry_Int_Tables_number      15
_space_group_name_Hall           '-C 2yn'
loop_
_symmetry_equiv_pos_site_id
_symmetry_equiv_pos_as_xyz
1 x,y,z
2 -x,y,1/2-z
3 1/2+x,1/2+y,z
4 1/2-x,1/2+y,1/2-z
5 -x,-y,-z
6 x,-y,1/2+z
7 1/2-x,1/2-y,-z
8 1/2+x,1/2-y,1/2+z
_cell_length_a                   27.6485(13)
_cell_length_b                   14.6252(5)
_cell_length_c                   11.1206(4)
_cell_angle_alpha                90
_cell_angle_beta                 101.669(3)
_cell_angle_gamma                90
_cell_volume                     4403.84
_exptl_crystal_colour            colorless
_exptl_crystal_description       Block
_cell_formula_units_Z            8
loop_
_atom_site_label
_atom_site_type_symbol
_atom_site_fract_x
_atom_site_fract_y
_atom_site_fract_z
C1 C 0.43308(6) 0.11453(11) 0.78238(15)
C2 C 0.40116(5) 0.08916(10) 0.67332(14)
C3 C 0.39313(6) -0.00379(11) 0.64728(14)
C4 C 0.41879(8) -0.06906(12) 0.72603(17)
H1 H 0.4136 -0.1322 0.7077
C5 C 0.45166(10) -0.04286(14) 0.8305(2)
H2 H 0.4695 -0.0879 0.8831
C6 C 0.45881(9) 0.04895(14) 0.85898(19)
H3 H 0.4814 0.0668 0.9313
C7 C 0.42943(6) 0.24139(12) 0.92188(16)
C8 C 0.43319(7) 0.34459(13) 0.9439(2)
C9 C 0.45715(8) 0.39611(13) 0.8528(2)
H4 H 0.4365 0.3908 0.7704
H5 H 0.4898 0.3701 0.8528
H6 H 0.4607 0.4607 0.8763
C10 C 0.38061(10) 0.37823(19) 0.9373(4)
H7 H 0.3813 0.4422 0.9637
H8 H 0.3647 0.3408 0.9913
H9 H 0.3620 0.3733 0.8526
C11 C 0.46443(13) 0.3588(2) 1.0731(3)
H10 H 0.4981 0.3369 1.0755
H11 H 0.4499 0.3244 1.1326
H12 H 0.4653 0.4240 1.0938
C12 C 0.39452(6) 0.22678(11) 0.54276(15)
C13 C 0.35760(7) 0.28429(13) 0.45123(18)
C14 C 0.32195(11) 0.22340(19) 0.3609(3)
H13 H 0.2995 0.1919 0.4049
H14 H 0.3409 0.1781 0.3247
H15 H 0.3028 0.2614 0.2957
C15 C 0.38675(11) 0.34111(19) 0.3728(3)
H16 H 0.3637 0.3781 0.3137
H17 H 0.4050 0.2999 0.3285
H18 H 0.4100 0.3814 0.4263
C16 C 0.33043(12) 0.3451(2) 0.5220(3)
H19 H 0.3061 0.3812 0.4650
H20 H 0.3538 0.3864 0.5736
H21 H 0.3135 0.3079 0.5741
C17 C 0.31150(6) -0.01386(11) 0.50981(14)
C18 C 0.27788(6) -0.07008(13) 0.41072(15)
C19 C 0.23928(8) -0.11345(19) 0.4748(2)
H22 H 0.2559 -0.1534 0.5413
H23 H 0.2159 -0.1494 0.4153
H24 H 0.2214 -0.0652 0.5089
C20 C 0.30432(7) -0.14459(14) 0.35302(18)
H25 H 0.3304 -0.1170 0.3169
H26 H 0.2806 -0.1759 0.2888
H27 H 0.3190 -0.1887 0.4162
C21 C 0.25257(9) -0.00365(17) 0.31161(19)
H28 H 0.2349 0.0432 0.3489
H29 H 0.2291 -0.0372 0.2493
H30 H 0.2775 0.0256 0.2731
N1 N 0.43807(5) 0.20870(9) 0.81488(13)
H31 H 0.4472 0.2472 0.7629
N2 N 0.37476(5) 0.15485(9) 0.59204(12)
H32 H 0.3425 0.1482 0.5717
N3 N 0.35975(5) -0.03682(9) 0.54137(12)
H33 H 0.3714 -0.0749 0.4930
O1 O 0.41698(6) 0.19185(10) 0.99905(13)
O2 O 0.43846(4) 0.24705(9) 0.57151(12)
O3 O 0.29370(4) 0.05009(8) 0.55915(11)
loop_
_geom_bond_atom_site_label_1
_geom_bond_atom_site_label_2
_geom_bond_site_symmetry_1
_geom_bond_site_symmetry_2
C1 C2 1_555 1_555
C2 C3 1_555 1_555
C3 C4 1_555 1_555
C4 H1 1_555 1_555
C5 C4 1_555 1_555
H2 C5 1_555 1_555
C6 C1 1_555 1_555
H3 C6 1_555 1_555
C7 C8 1_555 1_555
C8 C9 1_555 1_555
C9 H4 1_555 1_555
H5 C9 1_555 1_555
H6 C9 1_555 1_555
C10 C8 1_555 1_555
H7 C10 1_555 1_555
H8 C10 1_555 1_555
H9 C10 1_555 1_555
C11 C8 1_555 1_555
H10 C11 1_555 1_555
H11 C11 1_555 1_555
H12 C11 1_555 1_555
C12 C13 1_555 1_555
C13 C14 1_555 1_555
C14 H13 1_555 1_555
H14 C14 1_555 1_555
H15 C14 1_555 1_555
C15 C13 1_555 1_555
H16 C15 1_555 1_555
H17 C15 1_555 1_555
H18 C15 1_555 1_555
C16 C13 1_555 1_555
H19 C16 1_555 1_555
H20 C16 1_555 1_555
H21 C16 1_555 1_555
C17 C18 1_555 1_555
C18 C19 1_555 1_555
C19 H22 1_555 1_555
H23 C19 1_555 1_555
H24 C19 1_555 1_555
C20 C18 1_555 1_555
H25 C20 1_555 1_555
H26 C20 1_555 1_555
H27 C20 1_555 1_555
C21 C18 1_555 1_555
H28 C21 1_555 1_555
H29 C21 1_555 1_555
H30 C21 1_555 1_555
N1 C1 1_555 1_555
H31 N1 1_555 1_555
N2 C2 1_555 1_555
H32 N2 1_555 1_555
N3 C3 1_555 1_555
H33 N3 1_555 1_555
O1 C7 1_555 1_555
O2 C12 1_555 1_555
O3 C17 1_555 1_555
C5 C6 1_555 1_555
C7 N1 1_555 1_555
C12 N2 1_555 1_555
C17 N3 1_555 1_555

#END
