
#######################################################################
#
#                 Cambridge Crystallographic Data Centre
#                                CCDC 
#
#######################################################################
#
# If this CIF has been generated from an entry in the Cambridge 
# Structural Database, then it will include bibliographic, chemical, 
# crystal, experimental, refinement or atomic coordinate data resulting 
# from the CCDC's data processing and validation procedures.
#
#######################################################################

data_CAWZEG
_chemical_formula_moiety         'C43 H36 Si1'
_chemical_name_systematic        
2,3-Benzo-1,4,5,6-tetraphenyl-7-mesityl-7-silanorbornadiene
_symmetry_cell_setting           monoclinic
_symmetry_space_group_name_H-M   'P 21/n'
_symmetry_Int_Tables_number      14
_space_group_name_Hall           '-P 2yn'
loop_
_symmetry_equiv_pos_site_id
_symmetry_equiv_pos_as_xyz
1 x,y,z
2 1/2-x,1/2+y,1/2-z
3 -x,-y,-z
4 1/2+x,1/2-y,1/2+z
_cell_length_a                   13.0750(3)
_cell_length_b                   18.4870(5)
_cell_length_c                   14.0560(3)
_cell_angle_alpha                90
_cell_angle_beta                 108.623(10)
_cell_angle_gamma                90
_cell_volume                     3219.69
_exptl_crystal_colour            colorless
_exptl_crystal_description       cuboid
_chemical_melting_point          223-224deg.C.(dec.)
_cell_formula_units_Z            4
_exptl_crystal_recrystallization_method deuterochloroform/hexane
loop_
_atom_site_label
_atom_site_type_symbol
_atom_site_fract_x
_atom_site_fract_y
_atom_site_fract_z
Si1 Si 0.52183(4) 0.17264(2) 0.25059(3)
C1 C 0.40525(13) 0.19987(8) 0.29963(11)
C2 C 0.37512(14) 0.26986(8) 0.23731(12)
C3 C 0.37450(14) 0.25984(8) 0.13781(12)
C4 C 0.41012(14) 0.18299(8) 0.12222(11)
C5 C 0.32443(14) 0.13421(8) 0.14491(11)
C6 C 0.32020(13) 0.14432(8) 0.23936(11)
C7 C 0.34756(16) 0.33698(9) 0.26731(14)
H1 H 0.3510 0.3447 0.3336
C8 C 0.31470(18) 0.39245(9) 0.19659(15)
H2 H 0.2967 0.4375 0.2162
C9 C 0.30865(18) 0.38118(10) 0.09817(15)
H3 H 0.2839 0.4181 0.0514
C10 C 0.33918(16) 0.31500(9) 0.06772(13)
H4 H 0.3359 0.3079 0.0013
C11 C 0.60172(14) 0.08560(8) 0.27565(12)
C12 C 0.58141(14) 0.02388(8) 0.32656(11)
C13 C 0.64913(16) -0.03600(9) 0.34237(13)
H5 H 0.6346 -0.0755 0.3771
C14 C 0.73774(17) -0.03896(10) 0.30817(14)
C15 C 0.75736(17) 0.02113(10) 0.25723(15)
H6 H 0.8158 0.0202 0.2331
C16 C 0.69265(15) 0.08275(9) 0.24092(13)
C17 C 0.48481(16) 0.01881(9) 0.36293(13)
H7 H 0.4881 -0.0256 0.3992
H8 H 0.4199 0.0198 0.3064
H9 H 0.4851 0.0590 0.4063
C18 C 0.8064(2) -0.10584(13) 0.3215(2)
H10 H 0.8032 -0.1320 0.3794
H11 H 0.8798 -0.0923 0.3304
H12 H 0.7802 -0.1359 0.2631
C19 C 0.72333(18) 0.14426(12) 0.18432(18)
H13 H 0.7602 0.1810 0.2309
H14 H 0.6593 0.1643 0.1373
H15 H 0.7699 0.1264 0.1488
C20 C 0.42228(14) 0.20868(8) 0.41052(11)
C21 C 0.51992(16) 0.19229(9) 0.48204(12)
H16 H 0.5773 0.1770 0.4614
C22 C 0.53427(19) 0.19814(10) 0.58457(13)
H17 H 0.6006 0.1869 0.6315
C23 C 0.4493(2) 0.22079(10) 0.61587(14)
H18 H 0.4578 0.2237 0.6840
C24 C 0.35162(19) 0.23910(10) 0.54545(14)
H19 H 0.2951 0.2554 0.5666
C25 C 0.33737(16) 0.23324(9) 0.44346(13)
H20 H 0.2714 0.2456 0.3968
C26 C 0.44634(14) 0.16819(8) 0.03195(12)
C27 C 0.49872(16) 0.22219(9) -0.00541(14)
H21 H 0.5053 0.2684 0.0219
C28 C 0.54093(18) 0.20767(11) -0.08264(15)
H22 H 0.5747 0.2443 -0.1067
C29 C 0.53304(19) 0.13926(11) -0.12373(14)
H23 H 0.5613 0.1297 -0.1754
C30 C 0.48277(18) 0.08517(10) -0.08732(14)
H24 H 0.4776 0.0389 -0.1144
C31 C 0.43986(15) 0.09938(9) -0.01046(13)
H25 H 0.4062 0.0623 0.0131
C32 C 0.24347(14) 0.09416(8) 0.06499(12)
C33 C 0.18449(16) 0.13109(10) -0.02272(13)
H26 H 0.2003 0.1792 -0.0312
C34 C 0.10296(17) 0.09649(13) -0.09668(15)
H27 H 0.0634 0.1218 -0.1538
C35 C 0.08030(19) 0.02482(14) -0.08601(16)
H28 H 0.0251 0.0019 -0.1356
C36 C 0.1395(2) -0.01296(12) -0.00164(17)
H29 H 0.1251 -0.0617 0.0047
C37 C 0.22081(17) 0.02148(9) 0.07422(14)
H30 H 0.2599 -0.0042 0.1311
C38 C 0.22934(13) 0.12024(8) 0.27512(11)
C39 C 0.12430(15) 0.13731(9) 0.21772(13)
H31 H 0.1119 0.1597 0.1558
C40 C 0.03701(16) 0.12153(10) 0.25109(15)
H32 H -0.0327 0.1333 0.2114
C41 C 0.05428(17) 0.08825(10) 0.34358(15)
H33 H -0.0035 0.0779 0.3663
C42 C 0.15789(16) 0.07084(9) 0.40111(14)
H34 H 0.1698 0.0482 0.4628
C43 C 0.24523(15) 0.08662(8) 0.36816(12)
H35 H 0.3147 0.0747 0.4083
H36 H 0.6014(18) 0.2336(10) 0.2694(14)
loop_
_geom_bond_atom_site_label_1
_geom_bond_atom_site_label_2
_geom_bond_site_symmetry_1
_geom_bond_site_symmetry_2
Si1 C1 1_555 1_555
C1 C2 1_555 1_555
C2 C3 1_555 1_555
C3 C4 1_555 1_555
C4 Si1 1_555 1_555
C5 C4 1_555 1_555
C6 C1 1_555 1_555
C7 C2 1_555 1_555
H1 C7 1_555 1_555
C8 C7 1_555 1_555
H2 C8 1_555 1_555
C9 C8 1_555 1_555
H3 C9 1_555 1_555
C10 C3 1_555 1_555
H4 C10 1_555 1_555
C11 Si1 1_555 1_555
C12 C11 1_555 1_555
C13 C12 1_555 1_555
H5 C13 1_555 1_555
C14 C13 1_555 1_555
C15 C14 1_555 1_555
H6 C15 1_555 1_555
C16 C11 1_555 1_555
C17 C12 1_555 1_555
H7 C17 1_555 1_555
H8 C17 1_555 1_555
H9 C17 1_555 1_555
C18 C14 1_555 1_555
H10 C18 1_555 1_555
H11 C18 1_555 1_555
H12 C18 1_555 1_555
C19 C16 1_555 1_555
H13 C19 1_555 1_555
H14 C19 1_555 1_555
H15 C19 1_555 1_555
C20 C1 1_555 1_555
C21 C20 1_555 1_555
H16 C21 1_555 1_555
C22 C21 1_555 1_555
H17 C22 1_555 1_555
C23 C22 1_555 1_555
H18 C23 1_555 1_555
C24 C23 1_555 1_555
H19 C24 1_555 1_555
C25 C20 1_555 1_555
H20 C25 1_555 1_555
C26 C4 1_555 1_555
C27 C26 1_555 1_555
H21 C27 1_555 1_555
C28 C27 1_555 1_555
H22 C28 1_555 1_555
C29 C28 1_555 1_555
H23 C29 1_555 1_555
C30 C29 1_555 1_555
H24 C30 1_555 1_555
C31 C26 1_555 1_555
H25 C31 1_555 1_555
C32 C5 1_555 1_555
C33 C32 1_555 1_555
H26 C33 1_555 1_555
C34 C33 1_555 1_555
H27 C34 1_555 1_555
C35 C34 1_555 1_555
H28 C35 1_555 1_555
C36 C35 1_555 1_555
H29 C36 1_555 1_555
C37 C32 1_555 1_555
H30 C37 1_555 1_555
C38 C6 1_555 1_555
C39 C38 1_555 1_555
H31 C39 1_555 1_555
C40 C39 1_555 1_555
H32 C40 1_555 1_555
C41 C40 1_555 1_555
H33 C41 1_555 1_555
C42 C41 1_555 1_555
H34 C42 1_555 1_555
C43 C38 1_555 1_555
H35 C43 1_555 1_555
H36 Si1 1_555 1_555
C5 C6 1_555 1_555
C9 C10 1_555 1_555
C15 C16 1_555 1_555
C24 C25 1_555 1_555
C30 C31 1_555 1_555
C36 C37 1_555 1_555
C42 C43 1_555 1_555

#END
