
#######################################################################
#
#                 Cambridge Crystallographic Data Centre
#                                CCDC 
#
#######################################################################
#
# If this CIF has been generated from an entry in the Cambridge 
# Structural Database, then it will include bibliographic, chemical, 
# crystal, experimental, refinement or atomic coordinate data resulting 
# from the CCDC's data processing and validation procedures.
#
#######################################################################

data_CAXFIT
_chemical_formula_moiety         'C78 H108 N12,C48 H48 N12'
_chemical_name_systematic        
'5,8,16,19,27,30,38,41,46,49,54,57-dodecaazaheptacyclo[21.21.6.6^12,34^.1^3,43^.1^10,14^.1^21,25^.1^32,36^]hexaconta-1,3(51),4,8,10(60),11,13,15,19,21(59),22,24,26,30,32(52),33,35,37,41,43,45,49,53,57-tetracosaene 4,11,17,24,30,37,43,50,55,62,69,76-dodecaaza-1,14,27,40(1,3,5)-tetrabenzenapentadecacyclo[25.25.12.1214,40.14,11.117,24.130,37.143,50.155,62.169,76.05,10.018,23.031,36.044,49.056,61.070,75]dooctacontane (non-preferred name)'
_symmetry_cell_setting           cubic
_symmetry_space_group_name_H-M   'F 2 3'
_symmetry_Int_Tables_number      196
_space_group_name_Hall           'F 2 2 3'
loop_
_symmetry_equiv_pos_site_id
_symmetry_equiv_pos_as_xyz
1 x,y,z
2 z,x,y
3 y,z,x
4 -y,-z,x
5 z,-x,-y
6 -y,z,-x
7 -z,-x,y
8 -z,x,-y
9 y,-z,-x
10 -x,-y,z
11 x,-y,-z
12 -x,y,-z
13 x,1/2+y,1/2+z
14 z,1/2+x,1/2+y
15 y,1/2+z,1/2+x
16 -y,1/2-z,1/2+x
17 z,1/2-x,1/2-y
18 -y,1/2+z,1/2-x
19 -z,1/2-x,1/2+y
20 -z,1/2+x,1/2-y
21 y,1/2-z,1/2-x
22 -x,1/2-y,1/2+z
23 x,1/2-y,1/2-z
24 -x,1/2+y,1/2-z
25 1/2+x,y,1/2+z
26 1/2+z,x,1/2+y
27 1/2+y,z,1/2+x
28 1/2-y,-z,1/2+x
29 1/2+z,-x,1/2-y
30 1/2-y,z,1/2-x
31 1/2-z,-x,1/2+y
32 1/2-z,x,1/2-y
33 1/2+y,-z,1/2-x
34 1/2-x,-y,1/2+z
35 1/2+x,-y,1/2-z
36 1/2-x,y,1/2-z
37 1/2+x,1/2+y,z
38 1/2+z,1/2+x,y
39 1/2+y,1/2+z,x
40 1/2-y,1/2-z,x
41 1/2+z,1/2-x,-y
42 1/2-y,1/2+z,-x
43 1/2-z,1/2-x,y
44 1/2-z,1/2+x,-y
45 1/2+y,1/2-z,-x
46 1/2-x,1/2-y,z
47 1/2+x,1/2-y,-z
48 1/2-x,1/2+y,-z
_cell_length_a                   24.586(3)
_cell_length_b                   24.586(3)
_cell_length_c                   24.586(3)
_cell_angle_alpha                90
_cell_angle_beta                 90
_cell_angle_gamma                90
_cell_volume                     14861.5
_exptl_crystal_colour            colorless
_exptl_crystal_description       prism
_cell_formula_units_Z            4
loop_
_atom_site_label
_atom_site_type_symbol
_atom_site_fract_x
_atom_site_fract_y
_atom_site_fract_z
N1 N 0.4638(3) 0.2821(2) 0.5322(3)
C1 C 0.4371(4) 0.3598(4) 0.6138(5)
H1 H 0.4667 0.3368 0.6190
C2 C 0.4026(5) 0.3505(4) 0.5712(5)
C3 C 0.4085(4) 0.3027(4) 0.5329(5)
H2 H 0.3840 0.2738 0.5441
H3 H 0.3983 0.3138 0.4965
C4 C 0.5000 0.3173(5) 0.5000
H4 H 0.5213 0.3403 0.5239
C5 C 0.4704(2) 0.2293(2) 0.5070(4)
H5 H 0.4492 0.2285 0.4733
C6 C 0.4546(5) 0.1807(3) 0.5417(4)
H6 H 0.4159 0.1810 0.5494
H7 H 0.4744 0.1808 0.5758
C7 C 0.4701(4) 0.1306(3) 0.5070(8)
H8 H 0.4614 0.0977 0.5269
H9 H 0.4489 0.1307 0.4737
N1G N 0.4678(3) 0.4638(3) 0.7179(2)
C1G C 0.3862(5) 0.4371(4) 0.6402(4)
H1G H 0.3810 0.4667 0.6632
C2G C 0.4288(5) 0.4026(5) 0.6495(4)
C3G C 0.4671(5) 0.4085(4) 0.6973(4)
H2G H 0.4559 0.3840 0.7262
H3G H 0.5035 0.3983 0.6862
C4D C 0.5000 0.5000 0.6827(5)
H4G H 0.4761 0.5213 0.6597
C5G C 0.4930(4) 0.4704(2) 0.7707(2)
H5G H 0.5267 0.4492 0.7715
C6G C 0.4583(4) 0.4546(5) 0.8193(3)
H6G H 0.4506 0.4159 0.8190
H7G H 0.4242 0.4744 0.8192
C7G C 0.4930(8) 0.4701(4) 0.8694(3)
H8G H 0.4731 0.4614 0.9023
H9G H 0.5263 0.4489 0.8693
N1H N 0.2821(2) 0.4678(3) 0.5362(3)
C1H C 0.3598(4) 0.3862(5) 0.5629(4)
H1H H 0.3368 0.3810 0.5333
C2H C 0.3505(4) 0.4288(5) 0.5974(5)
C3H C 0.3027(4) 0.4671(5) 0.5915(4)
H2H H 0.2738 0.4559 0.6160
H3H H 0.3138 0.5035 0.6017
C4B C 0.3173(5) 0.5000 0.5000
H4H H 0.3403 0.4761 0.4787
C5H C 0.2293(2) 0.4930(4) 0.5296(2)
H5H H 0.2285 0.5267 0.5508
C6H C 0.1807(3) 0.4583(4) 0.5454(5)
H6H H 0.1810 0.4506 0.5841
H7H H 0.1808 0.4242 0.5256
C7H C 0.1306(3) 0.4930(8) 0.5299(4)
H8H H 0.0977 0.4731 0.5386
H9H H 0.1307 0.5263 0.5511
N1K N 0.5362(3) 0.2821(2) 0.4678(3)
C1K C 0.5629(4) 0.3598(4) 0.3862(5)
H1K H 0.5333 0.3368 0.3810
C2K C 0.5974(5) 0.3505(4) 0.4288(5)
C3K C 0.5915(4) 0.3027(4) 0.4671(5)
H2K H 0.6160 0.2738 0.4559
H3K H 0.6017 0.3138 0.5035
H4K H 0.4787 0.3403 0.4761
C5K C 0.5296(2) 0.2293(2) 0.4930(4)
H5K H 0.5508 0.2285 0.5267
C6K C 0.5454(5) 0.1807(3) 0.4583(4)
H6K H 0.5841 0.1810 0.4506
H7K H 0.5256 0.1808 0.4242
C7K C 0.5299(4) 0.1306(3) 0.4930(8)
H8K H 0.5386 0.0977 0.4731
H9K H 0.5511 0.1307 0.5263
N1A N 0.5322(3) 0.4638(3) 0.2821(2)
C1A C 0.6138(5) 0.4371(4) 0.3598(4)
H1A H 0.6190 0.4667 0.3368
C2A C 0.5712(5) 0.4026(5) 0.3505(4)
C3A C 0.5329(5) 0.4085(4) 0.3027(4)
H2A H 0.5441 0.3840 0.2738
H3A H 0.4965 0.3983 0.3138
C4A C 0.5000 0.5000 0.3173(5)
H4A H 0.5239 0.5213 0.3403
C5A C 0.5070(4) 0.4704(2) 0.2293(2)
H5A H 0.4733 0.4492 0.2285
C6A C 0.5417(4) 0.4546(5) 0.1807(3)
H6A H 0.5494 0.4159 0.1810
H7A H 0.5758 0.4744 0.1808
C7A C 0.5070(8) 0.4701(4) 0.1306(3)
H8A H 0.5269 0.4614 0.0977
H9A H 0.4737 0.4489 0.1307
N1B N 0.2821(2) 0.5322(3) 0.4638(3)
C1B C 0.3598(4) 0.6138(5) 0.4371(4)
H1B H 0.3368 0.6190 0.4667
C2B C 0.3505(4) 0.5712(5) 0.4026(5)
C3B C 0.3027(4) 0.5329(5) 0.4085(4)
H2B H 0.2738 0.5441 0.3840
H3B H 0.3138 0.4965 0.3983
H4B H 0.3403 0.5239 0.5213
C5B C 0.2293(2) 0.5070(4) 0.4704(2)
H5B H 0.2285 0.4733 0.4492
C6B C 0.1807(3) 0.5417(4) 0.4546(5)
H6B H 0.1810 0.5494 0.4159
H7B H 0.1808 0.5758 0.4744
C7B C 0.1306(3) 0.5070(8) 0.4701(4)
H8B H 0.0977 0.5269 0.4614
H9B H 0.1307 0.4737 0.4489
N1C N 0.7179(2) 0.4678(3) 0.4638(3)
C1C C 0.6402(4) 0.3862(5) 0.4371(4)
H1C H 0.6632 0.3810 0.4667
C2C C 0.6495(4) 0.4288(5) 0.4026(5)
C3C C 0.6973(4) 0.4671(5) 0.4085(4)
H2C H 0.7262 0.4559 0.3840
H3C H 0.6862 0.5035 0.3983
C4C C 0.6827(5) 0.5000 0.5000
H4C H 0.6597 0.4761 0.5213
C5C C 0.7707(2) 0.4930(4) 0.4704(2)
H5C H 0.7715 0.5267 0.4492
C6C C 0.8193(3) 0.4583(4) 0.4546(5)
H6C H 0.8190 0.4506 0.4159
H7C H 0.8192 0.4242 0.4744
C7C C 0.8694(3) 0.4930(8) 0.4701(4)
H8C H 0.9023 0.4731 0.4614
H9C H 0.8693 0.5263 0.4489
N1D N 0.5322(3) 0.5362(3) 0.7179(2)
C1D C 0.6138(5) 0.5629(4) 0.6402(4)
H1D H 0.6190 0.5333 0.6632
C2D C 0.5712(5) 0.5974(5) 0.6495(4)
C3D C 0.5329(5) 0.5915(4) 0.6973(4)
H2D H 0.5441 0.6160 0.7262
H3D H 0.4965 0.6017 0.6862
H4D H 0.5239 0.4787 0.6597
C5D C 0.5070(4) 0.5296(2) 0.7707(2)
H5D H 0.4733 0.5508 0.7715
C6D C 0.5417(4) 0.5454(5) 0.8193(3)
H6D H 0.5494 0.5841 0.8190
H7D H 0.5758 0.5256 0.8192
C7D C 0.5070(8) 0.5299(4) 0.8694(3)
H8D H 0.5269 0.5386 0.9023
H9D H 0.4737 0.5511 0.8693
N1E N 0.7179(2) 0.5322(3) 0.5362(3)
C1E C 0.6402(4) 0.6138(5) 0.5629(4)
H1E H 0.6632 0.6190 0.5333
C2E C 0.6495(4) 0.5712(5) 0.5974(5)
C3E C 0.6973(4) 0.5329(5) 0.5915(4)
H2E H 0.7262 0.5441 0.6160
H3E H 0.6862 0.4965 0.6017
H4E H 0.6597 0.5239 0.4787
C5E C 0.7707(2) 0.5070(4) 0.5296(2)
H5E H 0.7715 0.4733 0.5508
C6E C 0.8193(3) 0.5417(4) 0.5454(5)
H6E H 0.8190 0.5494 0.5841
H7E H 0.8192 0.5758 0.5256
C7E C 0.8694(3) 0.5070(8) 0.5299(4)
H8E H 0.9023 0.5269 0.5386
H9E H 0.8693 0.4737 0.5511
N1F N 0.4678(3) 0.5362(3) 0.2821(2)
C1F C 0.3862(5) 0.5629(4) 0.3598(4)
H1F H 0.3810 0.5333 0.3368
C2F C 0.4288(5) 0.5974(5) 0.3505(4)
C3F C 0.4671(5) 0.5915(4) 0.3027(4)
H2F H 0.4559 0.6160 0.2738
H3F H 0.5035 0.6017 0.3138
H4F H 0.4761 0.4787 0.3403
C5F C 0.4930(4) 0.5296(2) 0.2293(2)
H5F H 0.5267 0.5508 0.2285
C6F C 0.4583(4) 0.5454(5) 0.1807(3)
H6F H 0.4506 0.5841 0.1810
H7F H 0.4242 0.5256 0.1808
C7F C 0.4930(8) 0.5299(4) 0.1306(3)
H8F H 0.4731 0.5386 0.0977
H9F H 0.5263 0.5511 0.1307
N1I N 0.5362(3) 0.7179(2) 0.5322(3)
C1I C 0.5629(4) 0.6402(4) 0.6138(5)
H1I H 0.5333 0.6632 0.6190
C2I C 0.5974(5) 0.6495(4) 0.5712(5)
C3I C 0.5915(4) 0.6973(4) 0.5329(5)
H2I H 0.6160 0.7262 0.5441
H3I H 0.6017 0.6862 0.4965
C4I C 0.5000 0.6827(5) 0.5000
H4I H 0.4787 0.6597 0.5239
C5I C 0.5296(2) 0.7707(2) 0.5070(4)
H5I H 0.5508 0.7715 0.4733
C6I C 0.5454(5) 0.8193(3) 0.5417(4)
H6I H 0.5841 0.8190 0.5494
H7I H 0.5256 0.8192 0.5758
C7I C 0.5299(4) 0.8694(3) 0.5070(8)
H8I H 0.5386 0.9023 0.5269
H9I H 0.5511 0.8693 0.4737
N1J N 0.4638(3) 0.7179(2) 0.4678(3)
C1J C 0.4371(4) 0.6402(4) 0.3862(5)
H1J H 0.4667 0.6632 0.3810
C2J C 0.4026(5) 0.6495(4) 0.4288(5)
C3J C 0.4085(4) 0.6973(4) 0.4671(5)
H2J H 0.3840 0.7262 0.4559
H3J H 0.3983 0.6862 0.5035
H4J H 0.5213 0.6597 0.4761
C5J C 0.4704(2) 0.7707(2) 0.4930(4)
H5J H 0.4492 0.7715 0.5267
C6J C 0.4546(5) 0.8193(3) 0.4583(4)
H6J H 0.4159 0.8190 0.4506
H7J H 0.4744 0.8192 0.4242
C7J C 0.4701(4) 0.8694(3) 0.4930(8)
H8J H 0.4614 0.9023 0.4731
H9J H 0.4489 0.8693 0.5263
N2 N 0.2969(2) 0.2133(2) 0.4755(2)
C8 C 0.2612(3) 0.2218(2) 0.5217(2)
H10 H 0.2813 0.2156 0.5551
H11 H 0.2315 0.1958 0.5203
C9 C 0.2853(3) 0.1760(3) 0.4430(3)
H12 H 0.2545 0.1552 0.4498
C10 C 0.3179(3) 0.1633(3) 0.3944(3)
C11 C 0.3631(3) 0.1947(3) 0.3812(3)
H13 H 0.3723 0.2244 0.4028
N2P N 0.4755(2) 0.2031(2) 0.2867(2)
C8P C 0.5217(2) 0.2388(3) 0.2782(2)
H10P H 0.5551 0.2187 0.2844
H11P H 0.5203 0.2685 0.3042
C9P C 0.4430(3) 0.2147(3) 0.3240(3)
H12P H 0.4498 0.2455 0.3448
C10P C 0.3944(3) 0.1821(3) 0.3367(3)
C11P C 0.3812(3) 0.1369(3) 0.3053(3)
H13P H 0.4028 0.1277 0.2756
N2MA N 0.2867(2) 0.0245(2) 0.2969(2)
C8MA C 0.2782(2) -0.0217(2) 0.2612(3)
H10MA H 0.2844 -0.0551 0.2813
H11MA H 0.3042 -0.0203 0.2315
C9MA C 0.3240(3) 0.0570(3) 0.2853(3)
H12MA H 0.3448 0.0502 0.2545
C10MA C 0.3367(3) 0.1056(3) 0.3179(3)
C11MA C 0.3053(3) 0.1188(3) 0.3631(3)
H13MA H 0.2756 0.0972 0.3723
N2SA N 0.2031(2) 0.2867(2) 0.4755(2)
C8SA C 0.2388(3) 0.2782(2) 0.5217(2)
H10SA H 0.2187 0.2844 0.5551
H11SA H 0.2685 0.3042 0.5203
C9SA C 0.2147(3) 0.3240(3) 0.4430(3)
H12SA H 0.2455 0.3448 0.4498
C10SA C 0.1821(3) 0.3367(3) 0.3944(3)
C11SA C 0.1369(3) 0.3053(3) 0.3812(3)
H13SA H 0.1277 0.2756 0.4028
N2A N 0.4755(2) 0.2969(2) 0.2133(2)
C8A C 0.5217(2) 0.2612(3) 0.2218(2)
H10A H 0.5551 0.2813 0.2156
H11A H 0.5203 0.2315 0.1958
C9A C 0.4430(3) 0.2853(3) 0.1760(3)
H12A H 0.4498 0.2545 0.1552
C10A C 0.3944(3) 0.3179(3) 0.1633(3)
C11A C 0.3812(3) 0.3631(3) 0.1947(3)
H13A H 0.4028 0.3723 0.2244
N2B N 0.2133(2) 0.4755(2) 0.2969(2)
C8B C 0.2218(2) 0.5217(2) 0.2612(3)
H10B H 0.2156 0.5551 0.2813
H11B H 0.1958 0.5203 0.2315
C9B C 0.1760(3) 0.4430(3) 0.2853(3)
H12B H 0.1552 0.4498 0.2545
C10B C 0.1633(3) 0.3944(3) 0.3179(3)
C11B C 0.1947(3) 0.3812(3) 0.3631(3)
H13B H 0.2244 0.4028 0.3723
N2T N 0.2133(2) 0.0245(2) 0.2031(2)
C8T C 0.2218(2) -0.0217(2) 0.2388(3)
H10T H 0.2156 -0.0551 0.2187
H11T H 0.1958 -0.0203 0.2685
C9T C 0.1760(3) 0.0570(3) 0.2147(3)
H12T H 0.1552 0.0502 0.2455
C10T C 0.1633(3) 0.1056(3) 0.1821(3)
C11T C 0.1947(3) 0.1188(3) 0.1369(3)
H13T H 0.2244 0.0972 0.1277
N2CA N 0.2867(2) 0.4755(2) 0.2031(2)
C8CA C 0.2782(2) 0.5217(2) 0.2388(3)
H10CA H 0.2844 0.5551 0.2187
H11CA H 0.3042 0.5203 0.2685
C9CA C 0.3240(3) 0.4430(3) 0.2147(3)
H12CA H 0.3448 0.4498 0.2455
C10CA C 0.3367(3) 0.3944(3) 0.1821(3)
C11CA C 0.3053(3) 0.3812(3) 0.1369(3)
H13CA H 0.2756 0.4028 0.1277
N2EA N 0.0245(2) 0.2969(2) 0.2867(2)
C8EA C -0.0217(2) 0.2612(3) 0.2782(2)
H10EA H -0.0551 0.2813 0.2844
H11EA H -0.0203 0.2315 0.3042
C9EA C 0.0570(3) 0.2853(3) 0.3240(3)
H12EA H 0.0502 0.2545 0.3448
C10EA C 0.1056(3) 0.3179(3) 0.3367(3)
C11EA C 0.1188(3) 0.3631(3) 0.3053(3)
H13EA H 0.0972 0.3723 0.2756
N2PA N 0.0245(2) 0.2031(2) 0.2133(2)
C8PA C -0.0217(2) 0.2388(3) 0.2218(2)
H10PA H -0.0551 0.2187 0.2156
H11PA H -0.0203 0.2685 0.1958
C9PA C 0.0570(3) 0.2147(3) 0.1760(3)
H12PA H 0.0502 0.2455 0.1552
C10PA C 0.1056(3) 0.1821(3) 0.1633(3)
C11PA C 0.1188(3) 0.1369(3) 0.1947(3)
H13PA H 0.0972 0.1277 0.2244
N2V N 0.2969(2) 0.2867(2) 0.0245(2)
C8V C 0.2612(3) 0.2782(2) -0.0217(2)
H10V H 0.2813 0.2844 -0.0551
H11V H 0.2315 0.3042 -0.0203
C9V C 0.2853(3) 0.3240(3) 0.0570(3)
H12V H 0.2545 0.3448 0.0502
C10V C 0.3179(3) 0.3367(3) 0.1056(3)
C11V C 0.3631(3) 0.3053(3) 0.1188(3)
H13V H 0.3723 0.2756 0.0972
N2IA N 0.2031(2) 0.2133(2) 0.0245(2)
C8IA C 0.2388(3) 0.2218(2) -0.0217(2)
H10IA H 0.2187 0.2156 -0.0551
H11IA H 0.2685 0.1958 -0.0203
C9IA C 0.2147(3) 0.1760(3) 0.0570(3)
H12IA H 0.2455 0.1552 0.0502
C10IA C 0.1821(3) 0.1633(3) 0.1056(3)
C11IA C 0.1369(3) 0.1947(3) 0.1188(3)
H13IA H 0.1277 0.2244 0.0972
H14? H 0.5213 0.3403 0.5239
loop_
_geom_bond_atom_site_label_1
_geom_bond_atom_site_label_2
_geom_bond_site_symmetry_1
_geom_bond_site_symmetry_2
N1 C3 1_555 1_555
C1 H1 1_555 1_555
C2 C1 1_555 1_555
C3 C2 1_555 1_555
H2 C3 1_555 1_555
H3 C3 1_555 1_555
C4 N1 1_555 1_555
H4 C4 1_555 1_555
C5 N1 1_555 1_555
H5 C5 1_555 1_555
C6 C5 1_555 1_555
H6 C6 1_555 1_555
H7 C6 1_555 1_555
C7 C6 1_555 1_555
H8 C7 1_555 1_555
H9 C7 1_555 1_555
N2 C8 1_555 1_555
C8 H10 1_555 1_555
H11 C8 1_555 1_555
C9 N2 1_555 1_555
H12 C9 1_555 1_555
C10 C9 1_555 1_555
C11 C10 1_555 1_555
H13 C11 1_555 1_555
N1G C3G 1_555 1_555
C1G H1G 1_555 1_555
C2G C1 1_555 1_555
C3G C2G 1_555 1_555
H2G C3G 1_555 1_555
H3G C3G 1_555 1_555
C4D N1G 1_555 1_555
H4G C4D 1_555 1_555
C5G N1G 1_555 1_555
H5G C5G 1_555 1_555
C6G C5G 1_555 1_555
H6G C6G 1_555 1_555
H7G C6G 1_555 1_555
C7G C6G 1_555 1_555
H8G C7G 1_555 1_555
H9G C7G 1_555 1_555
N1H C3H 1_555 1_555
C1H C2 1_555 1_555
H1H C1H 1_555 1_555
C2H C1G 1_555 1_555
C3H C2H 1_555 1_555
H2H C3H 1_555 1_555
H3H C3H 1_555 1_555
C4B N1H 1_555 1_555
H4H C4B 1_555 1_555
C5H N1H 1_555 1_555
H5H C5H 1_555 1_555
C6H C5H 1_555 1_555
H6H C6H 1_555 1_555
H7H C6H 1_555 1_555
C7H C6H 1_555 1_555
H8H C7H 1_555 1_555
H9H C7H 1_555 1_555
N1K C4 1_555 1_555
C1K H1K 1_555 1_555
C2K C1K 1_555 1_555
C3K N1K 1_555 1_555
H2K C3K 1_555 1_555
H3K C3K 1_555 1_555
H4K C4 1_555 1_555
C5K C5 1_555 1_555
H5K C5K 1_555 1_555
C6K C5K 1_555 1_555
H6K C6K 1_555 1_555
H7K C6K 1_555 1_555
C7K C7 1_555 1_555
H8K C7K 1_555 1_555
H9K C7K 1_555 1_555
N1A C3A 1_555 1_555
C1A H1A 1_555 1_555
C2A C1K 1_555 1_555
C3A C2A 1_555 1_555
H2A C3A 1_555 1_555
H3A C3A 1_555 1_555
C4A N1A 1_555 1_555
H4A C4A 1_555 1_555
C5A N1A 1_555 1_555
H5A C5A 1_555 1_555
C6A C5A 1_555 1_555
H6A C6A 1_555 1_555
H7A C6A 1_555 1_555
C7A C6A 1_555 1_555
H8A C7A 1_555 1_555
H9A C7A 1_555 1_555
N1B C4B 1_555 1_555
C1B H1B 1_555 1_555
C2B C1B 1_555 1_555
C3B N1B 1_555 1_555
H2B C3B 1_555 1_555
H3B C3B 1_555 1_555
H4B C4B 1_555 1_555
C5B C5H 1_555 1_555
H5B C5B 1_555 1_555
C6B C5B 1_555 1_555
H6B C6B 1_555 1_555
H7B C6B 1_555 1_555
C7B C7H 1_555 1_555
H8B C7B 1_555 1_555
H9B C7B 1_555 1_555
N1C C3C 1_555 1_555
C1C C2K 1_555 1_555
H1C C1C 1_555 1_555
C2C C1A 1_555 1_555
C3C C2C 1_555 1_555
H2C C3C 1_555 1_555
H3C C3C 1_555 1_555
C4C N1C 1_555 1_555
H4C C4C 1_555 1_555
C5C N1C 1_555 1_555
H5C C5C 1_555 1_555
C6C C5C 1_555 1_555
H6C C6C 1_555 1_555
H7C C6C 1_555 1_555
C7C C6C 1_555 1_555
H8C C7C 1_555 1_555
H9C C7C 1_555 1_555
N1D C4D 1_555 1_555
C1D H1D 1_555 1_555
C2D C1D 1_555 1_555
C3D N1D 1_555 1_555
H2D C3D 1_555 1_555
H3D C3D 1_555 1_555
H4D C4D 1_555 1_555
C5D C5G 1_555 1_555
H5D C5D 1_555 1_555
C6D C5D 1_555 1_555
H6D C6D 1_555 1_555
H7D C6D 1_555 1_555
C7D C7G 1_555 1_555
H8D C7D 1_555 1_555
H9D C7D 1_555 1_555
N1E C4C 1_555 1_555
C1E H1E 1_555 1_555
C2E C1D 1_555 1_555
C3E N1E 1_555 1_555
H2E C3E 1_555 1_555
H3E C3E 1_555 1_555
H4E C4C 1_555 1_555
C5E C5C 1_555 1_555
H5E C5E 1_555 1_555
C6E C5E 1_555 1_555
H6E C6E 1_555 1_555
H7E C6E 1_555 1_555
C7E C7C 1_555 1_555
H8E C7E 1_555 1_555
H9E C7E 1_555 1_555
N1F C4A 1_555 1_555
C1F C2B 1_555 1_555
H1F C1F 1_555 1_555
C2F C1F 1_555 1_555
C3F N1F 1_555 1_555
H2F C3F 1_555 1_555
H3F C3F 1_555 1_555
H4F C4A 1_555 1_555
C5F C5A 1_555 1_555
H5F C5F 1_555 1_555
C6F C5F 1_555 1_555
H6F C6F 1_555 1_555
H7F C6F 1_555 1_555
C7F C7A 1_555 1_555
H8F C7F 1_555 1_555
H9F C7F 1_555 1_555
N1I C3I 1_555 1_555
C1I C2D 1_555 1_555
H1I C1I 1_555 1_555
C2I C1E 1_555 1_555
C3I C2I 1_555 1_555
H2I C3I 1_555 1_555
H3I C3I 1_555 1_555
C4I N1I 1_555 1_555
H4I C4I 1_555 1_555
C5I N1I 1_555 1_555
H5I C5I 1_555 1_555
C6I C5I 1_555 1_555
H6I C6I 1_555 1_555
H7I C6I 1_555 1_555
C7I C6I 1_555 1_555
H8I C7I 1_555 1_555
H9I C7I 1_555 1_555
N1J C4I 1_555 1_555
C1J C2F 1_555 1_555
H1J C1J 1_555 1_555
C2J C1B 1_555 1_555
C3J N1J 1_555 1_555
H2J C3J 1_555 1_555
H3J C3J 1_555 1_555
H4J C4I 1_555 1_555
C5J C5I 1_555 1_555
H5J C5J 1_555 1_555
C6J C5J 1_555 1_555
H6J C6J 1_555 1_555
H7J C6J 1_555 1_555
C7J C7I 1_555 1_555
H8J C7J 1_555 1_555
H9J C7J 1_555 1_555
N2P C8P 1_555 1_555
C8P H10P 1_555 1_555
H11P C8P 1_555 1_555
C9P N2P 1_555 1_555
H12P C9P 1_555 1_555
C10P C11 1_555 1_555
C11P C10P 1_555 1_555
H13P C11P 1_555 1_555
N2MA C8MA 1_555 1_555
C8MA H10MA 1_555 1_555
H11MA C8MA 1_555 1_555
C9MA N2MA 1_555 1_555
H12MA C9MA 1_555 1_555
C10MA C11P 1_555 1_555
C11MA C10 1_555 1_555
H13MA C11MA 1_555 1_555
N2SA C8SA 1_555 1_555
C8SA C8 1_555 1_555
H10SA C8SA 1_555 1_555
H11SA C8SA 1_555 1_555
C9SA N2SA 1_555 1_555
H12SA C9SA 1_555 1_555
C10SA C9SA 1_555 1_555
C11SA C10SA 1_555 1_555
H13SA C11SA 1_555 1_555
N2A C8A 1_555 1_555
C8A C8P 1_555 1_555
H10A C8A 1_555 1_555
H11A C8A 1_555 1_555
C9A N2A 1_555 1_555
H12A C9A 1_555 1_555
C10A C9A 1_555 1_555
C11A C10A 1_555 1_555
H13A C11A 1_555 1_555
N2B C8B 1_555 1_555
C8B H10B 1_555 1_555
H11B C8B 1_555 1_555
C9B N2B 1_555 1_555
H12B C9B 1_555 1_555
C10B C9B 1_555 1_555
C11B C10SA 1_555 1_555
H13B C11B 1_555 1_555
N2T C8T 1_555 1_555
C8T C8MA 1_555 1_555
H10T C8T 1_555 1_555
H11T C8T 1_555 1_555
C9T N2T 1_555 1_555
H12T C9T 1_555 1_555
C10T C9T 1_555 1_555
C11T C10T 1_555 1_555
H13T C11T 1_555 1_555
N2CA C8CA 1_555 1_555
C8CA C8B 1_555 1_555
H10CA C8CA 1_555 1_555
H11CA C8CA 1_555 1_555
C9CA N2CA 1_555 1_555
H12CA C9CA 1_555 1_555
C10CA C11A 1_555 1_555
C11CA C10CA 1_555 1_555
H13CA C11CA 1_555 1_555
N2EA C8EA 1_555 1_555
C8EA H10EA 1_555 1_555
H11EA C8EA 1_555 1_555
C9EA N2EA 1_555 1_555
H12EA C9EA 1_555 1_555
C10EA C11SA 1_555 1_555
C11EA C10B 1_555 1_555
H13EA C11EA 1_555 1_555
N2PA C8PA 1_555 1_555
C8PA C8EA 1_555 1_555
H10PA C8PA 1_555 1_555
H11PA C8PA 1_555 1_555
C9PA N2PA 1_555 1_555
H12PA C9PA 1_555 1_555
C10PA C9PA 1_555 1_555
C11PA C10T 1_555 1_555
H13PA C11PA 1_555 1_555
N2V C8V 1_555 1_555
C8V H10V 1_555 1_555
H11V C8V 1_555 1_555
C9V N2V 1_555 1_555
H12V C9V 1_555 1_555
C10V C11CA 1_555 1_555
C11V C10A 1_555 1_555
H13V C11V 1_555 1_555
N2IA C8IA 1_555 1_555
C8IA C8V 1_555 1_555
H10IA C8IA 1_555 1_555
H11IA C8IA 1_555 1_555
C9IA N2IA 1_555 1_555
H12IA C9IA 1_555 1_555
C10IA C11T 1_555 1_555
C11IA C10PA 1_555 1_555
H13IA C11IA 1_555 1_555
C1G C2G 1_555 1_555
C1H C2H 1_555 1_555
N1K C5K 1_555 1_555
C2K C3K 1_555 1_555
C6K C7K 1_555 1_555
C1A C2A 1_555 1_555
N1B C5B 1_555 1_555
C2B C3B 1_555 1_555
C6B C7B 1_555 1_555
C1C C2C 1_555 1_555
N1D C5D 1_555 1_555
C2D C3D 1_555 1_555
C6D C7D 1_555 1_555
N1E C5E 1_555 1_555
C1E C2E 1_555 1_555
C2E C3E 1_555 1_555
C6E C7E 1_555 1_555
N1F C5F 1_555 1_555
C2F C3F 1_555 1_555
C6F C7F 1_555 1_555
C1I C2I 1_555 1_555
N1J C5J 1_555 1_555
C1J C2J 1_555 1_555
C2J C3J 1_555 1_555
C6J C7J 1_555 1_555
C9P C10P 1_555 1_555
C9MA C10MA 1_555 1_555
C10MA C11MA 1_555 1_555
C10B C11B 1_555 1_555
C9CA C10CA 1_555 1_555
C9EA C10EA 1_555 1_555
C10EA C11EA 1_555 1_555
C10PA C11PA 1_555 1_555
C9V C10V 1_555 1_555
C10V C11V 1_555 1_555
C9IA C10IA 1_555 1_555
C10IA C11IA 1_555 1_555

#END
