
#######################################################################
#
#                 Cambridge Crystallographic Data Centre
#                                CCDC 
#
#######################################################################
#
# If this CIF has been generated from an entry in the Cambridge 
# Structural Database, then it will include bibliographic, chemical, 
# crystal, experimental, refinement or atomic coordinate data resulting 
# from the CCDC's data processing and validation procedures.
#
#######################################################################

data_CAXLIX
_chemical_compound_source        'Ligularia virgaurea ssp. oligocephala'
_chemical_formula_moiety         'C15 H18 O5'
_chemical_name_systematic        
6\b,10\a-dihydroxy-1-oxoermophila-7(11),8(9)-dien-12,8-olide
_chemical_properties_biological  
'whole plant used as traditional folk medicine for stomach ache and nausea, but compound showed no inhibitory activity in vitro against cancer cell lines'
_symmetry_cell_setting           monoclinic
_symmetry_space_group_name_H-M   'P 21'
_symmetry_Int_Tables_number      4
_space_group_name_Hall           'P 2yb'
loop_
_symmetry_equiv_pos_site_id
_symmetry_equiv_pos_as_xyz
1 x,y,z
2 -x,1/2+y,-z
_cell_length_a                   6.7970(10)
_cell_length_b                   14.127(3)
_cell_length_c                   7.2610(10)
_cell_angle_alpha                90
_cell_angle_beta                 101.58(3)
_cell_angle_gamma                90
_cell_volume                     683.019
_exptl_crystal_colour            colorless
_exptl_crystal_description       block
_chemical_melting_point          183deg.C
_cell_formula_units_Z            2
_exptl_crystal_recrystallization_method chloroform/methanol
loop_
_atom_site_label
_atom_site_type_symbol
_atom_site_fract_x
_atom_site_fract_y
_atom_site_fract_z
O1 O 0.5963(5) 0.7474(2) 0.5069(4)
O2 O 0.1934(4) 0.67696(19) 0.1901(4)
H1 H 0.2299 0.7289 0.1483
O3 O 0.1128(4) 0.39857(19) 0.3553(5)
H2 H 0.2118 0.3614 0.3893
O4 O 0.6324(4) 0.4824(2) 0.0649(4)
O5 O 0.6376(6) 0.3441(3) -0.0887(5)
C1 C 0.4229(6) 0.7222(3) 0.4707(6)
C2 C 0.2611(7) 0.7651(3) 0.5538(7)
H3 H 0.1649 0.7958 0.4574
H4 H 0.3166 0.8117 0.6460
C3 C 0.1564(7) 0.6874(4) 0.6452(7)
H5 H 0.0431 0.7140 0.6872
H6 H 0.2486 0.6645 0.7539
C4 C 0.0852(6) 0.6030(3) 0.5162(6)
H7 H -0.0125 0.6270 0.4125
C5 C 0.2600(5) 0.5591(2) 0.4329(5)
C6 C 0.1803(5) 0.4829(2) 0.2794(5)
H8 H 0.0671 0.5096 0.1948
C7 C 0.3356(6) 0.4594(2) 0.1666(5)
C8 C 0.5015(5) 0.5227(3) 0.1650(5)
C9 C 0.5226(6) 0.6077(3) 0.2446(5)
H9 H 0.6404 0.6455 0.2468
C10 C 0.3541(5) 0.6414(2) 0.3336(5)
C11 C 0.3594(7) 0.3827(3) 0.0619(6)
C12 C 0.5499(6) 0.3957(3) 0.0008(6)
C13 C 0.2322(9) 0.2984(4) 0.0042(8)
H10 H 0.1127 0.3016 0.0554
H11 H 0.1962 0.2959 -0.1305
H12 H 0.3067 0.2425 0.0501
C14 C 0.4194(6) 0.5155(3) 0.5871(5)
H13 H 0.3603 0.4654 0.6470
H14 H 0.5262 0.4905 0.5329
H15 H 0.4721 0.5630 0.6785
C15 C -0.0243(7) 0.5334(4) 0.6198(8)
H16 H -0.1290 0.5654 0.6664
H17 H -0.0815 0.4837 0.5360
H18 H 0.0701 0.5070 0.7233
loop_
_geom_bond_atom_site_label_1
_geom_bond_atom_site_label_2
_geom_bond_site_symmetry_1
_geom_bond_site_symmetry_2
O1 C1 1_555 1_555
O2 H1 1_555 1_555
O3 H2 1_555 1_555
O4 C8 1_555 1_555
O5 C12 1_555 1_555
C1 C2 1_555 1_555
C2 H3 1_555 1_555
H4 C2 1_555 1_555
C3 C2 1_555 1_555
H5 C3 1_555 1_555
H6 C3 1_555 1_555
C4 C3 1_555 1_555
H7 C4 1_555 1_555
C5 C4 1_555 1_555
C6 O3 1_555 1_555
H8 C6 1_555 1_555
C7 C6 1_555 1_555
C8 C7 1_555 1_555
C9 C8 1_555 1_555
H9 C9 1_555 1_555
C10 O2 1_555 1_555
C11 C7 1_555 1_555
C12 O4 1_555 1_555
C13 C11 1_555 1_555
H10 C13 1_555 1_555
H11 C13 1_555 1_555
H12 C13 1_555 1_555
C14 C5 1_555 1_555
H13 C14 1_555 1_555
H14 C14 1_555 1_555
H15 C14 1_555 1_555
C15 C4 1_555 1_555
H16 C15 1_555 1_555
H17 C15 1_555 1_555
H18 C15 1_555 1_555
C1 C10 1_555 1_555
C5 C6 1_555 1_555
C5 C10 1_555 1_555
C9 C10 1_555 1_555
C11 C12 1_555 1_555

#END
