
#######################################################################
#
#                 Cambridge Crystallographic Data Centre
#                                CCDC 
#
#######################################################################
#
# If this CIF has been generated from an entry in the Cambridge 
# Structural Database, then it will include bibliographic, chemical, 
# crystal, experimental, refinement or atomic coordinate data resulting 
# from the CCDC's data processing and validation procedures.
#
#######################################################################

data_CAXMOD
_chemical_formula_moiety         'C3 H8 N2 O2'
_chemical_name_systematic        N-(2-Ammonioethyl)carbamate
_symmetry_cell_setting           orthorhombic
_symmetry_space_group_name_H-M   'P n a 21'
_symmetry_Int_Tables_number      33
_space_group_name_Hall           'P 2c -2n'
loop_
_symmetry_equiv_pos_site_id
_symmetry_equiv_pos_as_xyz
1 x,y,z
2 1/2-x,1/2+y,1/2+z
3 1/2+x,1/2-y,z
4 -x,-y,1/2+z
_cell_length_a                   12.799(9)
_cell_length_b                   4.846(2)
_cell_length_c                   8.285(5)
_cell_angle_alpha                90
_cell_angle_beta                 90
_cell_angle_gamma                90
_cell_volume                     513.868
_cell_formula_units_Z            4
loop_
_atom_site_label
_atom_site_type_symbol
_atom_site_fract_x
_atom_site_fract_y
_atom_site_fract_z
O1 O 0.13340 0.31360 0.31900
O2 O 0.05460 0.00150 0.16150
N1 N 0.19000 -0.12530 0.31790
N2 N 0.45860 0.01110 0.48310
C1 C 0.12280 0.07030 0.26520
C2 C 0.26870 -0.07660 0.43840
C3 C 0.37430 -0.01880 0.36090
H1 H 0.52460 0.05880 0.42740
H2 H 0.17210 -0.30760 0.27910
H3 H 0.46030 -0.16040 0.54680
H4 H 0.44360 0.16590 0.55710
H5 H 0.24860 0.08080 0.50150
H6 H 0.27480 -0.23500 0.50740
H7 H 0.36940 0.14850 0.29940
H8 H 0.39090 -0.16940 0.29020
loop_
_geom_bond_atom_site_label_1
_geom_bond_atom_site_label_2
_geom_bond_site_symmetry_1
_geom_bond_site_symmetry_2
O1 C1 1_555 1_555
O2 C1 1_555 1_555
N1 C1 1_555 1_555
N2 C3 1_555 1_555
C2 N1 1_555 1_555
C3 C2 1_555 1_555
H1 N2 1_555 1_555
H2 N1 1_555 1_555
H3 N2 1_555 1_555
H4 N2 1_555 1_555
H5 C2 1_555 1_555
H6 C2 1_555 1_555
H7 C3 1_555 1_555
H8 C3 1_555 1_555

#END
