
#######################################################################
#
#                 Cambridge Crystallographic Data Centre
#                                CCDC 
#
#######################################################################
#
# If this CIF has been generated from an entry in the Cambridge 
# Structural Database, then it will include bibliographic, chemical, 
# crystal, experimental, refinement or atomic coordinate data resulting 
# from the CCDC's data processing and validation procedures.
#
#######################################################################

data_CAXMOD01
_chemical_formula_moiety         'C3 H8 N2 O2'
_chemical_name_systematic        N-(2-Ammonioethyl)carbamate
_symmetry_cell_setting           monoclinic
_symmetry_space_group_name_H-M   'P 21/a'
_symmetry_Int_Tables_number      14
_space_group_name_Hall           '-P 2yab'
loop_
_symmetry_equiv_pos_site_id
_symmetry_equiv_pos_as_xyz
1 x,y,z
2 1/2-x,1/2+y,-z
3 -x,-y,-z
4 1/2+x,1/2-y,z
_cell_length_a                   7.589(4)
_cell_length_b                   8.130(7)
_cell_length_c                   7.812(6)
_cell_angle_alpha                90
_cell_angle_beta                 95.76(5)
_cell_angle_gamma                90
_cell_volume                     479.556
_cell_formula_units_Z            4
loop_
_atom_site_label
_atom_site_type_symbol
_atom_site_fract_x
_atom_site_fract_y
_atom_site_fract_z
O1 O -0.23480 0.69600 0.11240
O2 O -0.25420 0.45080 0.24420
N1 N 0.01290 0.57420 0.23940
N2 N 0.38650 0.48390 0.18100
C1 C -0.16700 0.56990 0.19780
C2 C 0.10610 0.42780 0.30740
C3 C 0.30280 0.45300 0.34340
H1 H 0.35610 0.40200 0.08570
H2 H 0.07180 0.67310 0.19220
H3 H 0.35570 0.59560 0.13200
H4 H 0.51940 0.47170 0.19990
H5 H 0.05910 0.39560 0.41200
H6 H 0.08660 0.34130 0.22390
H7 H 0.35690 0.35920 0.40170
H8 H 0.32160 0.54850 0.41520
loop_
_geom_bond_atom_site_label_1
_geom_bond_atom_site_label_2
_geom_bond_site_symmetry_1
_geom_bond_site_symmetry_2
O1 C1 1_555 1_555
O2 C1 1_555 1_555
N1 C1 1_555 1_555
N2 C3 1_555 1_555
C2 N1 1_555 1_555
C3 C2 1_555 1_555
H1 N2 1_555 1_555
H2 N1 1_555 1_555
H3 N2 1_555 1_555
H4 N2 1_555 1_555
H5 C2 1_555 1_555
H6 C2 1_555 1_555
H7 C3 1_555 1_555
H8 C3 1_555 1_555

#END
