
#######################################################################
#
#                 Cambridge Crystallographic Data Centre
#                                CCDC 
#
#######################################################################
#
# If this CIF has been generated from an entry in the Cambridge 
# Structural Database, then it will include bibliographic, chemical, 
# crystal, experimental, refinement or atomic coordinate data resulting 
# from the CCDC's data processing and validation procedures.
#
#######################################################################

data_CAXREZ
_chemical_formula_moiety         'C17 H24 F1 N2 O4 P1'
_chemical_name_systematic        
1-[(5-methylisoxazol-3-yl)amino]-1-(2-fluorophenyl)-O,O'-dipropylmethanephosphonate
_chemical_properties_biological  
'moderate activity in anticancer in vitro assays'
_symmetry_cell_setting           monoclinic
_symmetry_space_group_name_H-M   'P 21/n'
_symmetry_Int_Tables_number      14
_space_group_name_Hall           '-P 2yn'
loop_
_symmetry_equiv_pos_site_id
_symmetry_equiv_pos_as_xyz
1 x,y,z
2 1/2-x,1/2+y,1/2-z
3 -x,-y,-z
4 1/2+x,1/2-y,1/2+z
_cell_length_a                   9.335(3)
_cell_length_b                   13.067(4)
_cell_length_c                   16.552(6)
_cell_angle_alpha                90
_cell_angle_beta                 104.801(6)
_cell_angle_gamma                90
_cell_volume                     1952.03
_chemical_melting_point          116-117deg.C
_cell_formula_units_Z            4
loop_
_atom_site_label
_atom_site_type_symbol
_atom_site_fract_x
_atom_site_fract_y
_atom_site_fract_z
P1 P 0.47758(13) 0.79483(8) 0.01581(7)
O1 O 0.5105(3) 0.8677(2) -0.04295(16)
O2 O 0.3137(4) 0.7565(3) -0.0020(2)
O3 O 0.5643(4) 0.6937(2) 0.0268(2)
F1 F 0.6573(3) 0.6883(2) 0.22887(18)
N1 N 0.3905(4) 0.9029(3) 0.2492(2)
N2 N 0.4353(3) 0.9378(2) 0.11981(19)
H1 H 0.4196 0.9765 0.0764
O4 O 0.3276(4) 0.9603(3) 0.30515(19)
C1 C 0.5126(4) 0.8418(3) 0.1217(2)
H2 H 0.4671 0.7932 0.1528
C2 C 0.6752(4) 0.8453(3) 0.1645(2)
C3 C 0.7428(5) 0.7676(3) 0.2166(3)
C4 C 0.8892(6) 0.7662(5) 0.2555(3)
H3 H 0.9297 0.7121 0.2903
C5 C 0.9757(6) 0.8444(6) 0.2429(4)
H4 H 1.0767 0.8441 0.2685
C6 C 0.9140(7) 0.9235(5) 0.1926(4)
H5 H 0.9730 0.9779 0.1845
C7 C 0.7656(6) 0.9236(4) 0.1538(3)
H6 H 0.7254 0.9783 0.1195
C8 C 0.3872(4) 0.9666(3) 0.1876(2)
C9 C 0.3270(4) 1.0621(3) 0.1997(3)
H7 H 0.3146 1.1187 0.1645
C10 C 0.2919(5) 1.0544(4) 0.2715(3)
C11 C 0.2257(7) 1.1253(4) 0.3230(4)
H8 H 0.2037 1.1898 0.2947
H9 H 0.2947 1.1357 0.3763
H10 H 0.1361 1.0959 0.3311
C12 C 0.1997(6) 0.7736(5) -0.0744(4)
H11 H 0.2068 0.7230 -0.1160
H12 H 0.2136 0.8405 -0.0967
C13 C 0.0463(7) 0.7688(7) -0.0600(6)
H13 H -0.0267 0.7692 -0.1135
H14 H 0.0356 0.7051 -0.0320
C14 C 0.0178(11) 0.8557(8) -0.0091(7)
H15 H 0.0714 0.8456 0.0481
H16 H -0.0863 0.8597 -0.0127
H17 H 0.0498 0.9181 -0.0296
C15 C 0.6752(14) 0.6670(10) -0.0117(8)
H18 H 0.7284 0.7292 -0.0175
H19 H 0.6267 0.6441 -0.0677
C16 C 0.7856(14) 0.5899(10) 0.0253(9)
H20 H 0.8786 0.6254 0.0477
H21 H 0.7992 0.5466 -0.0197
C17 C 0.7605(15) 0.5220(8) 0.0919(7)
H22 H 0.8194 0.5450 0.1451
H23 H 0.7882 0.4533 0.0820
H24 H 0.6577 0.5237 0.0918
C18? C 0.193(2) 0.823(3) 0.006(3)
H25? H 0.2335 0.8878 0.0303
H26? H 0.1422 0.7916 0.0444
C19? C 0.083(3) 0.842(5) -0.078(3)
H27? H 0.1059 0.7973 -0.1200
H28? H 0.0905 0.9120 -0.0952
C20? C -0.076(3) 0.820(5) -0.071(4)
H29? H -0.0890 0.8490 -0.0204
H30? H -0.0922 0.7478 -0.0717
H31? H -0.1455 0.8509 -0.1181
C21? C 0.621(2) 0.6292(13) -0.0247(8)
H32? H 0.6894 0.6676 -0.0481
H33? H 0.5397 0.6070 -0.0707
C22? C 0.6989(18) 0.5360(9) 0.0191(12)
H34? H 0.6392 0.5066 0.0534
H35? H 0.7060 0.4855 -0.0226
C23? C 0.852(2) 0.556(2) 0.0735(19)
H36? H 0.8610 0.6276 0.0884
H37? H 0.9241 0.5390 0.0436
H38? H 0.8682 0.5157 0.1233
loop_
_geom_bond_atom_site_label_1
_geom_bond_atom_site_label_2
_geom_bond_site_symmetry_1
_geom_bond_site_symmetry_2
P1 O1 1_555 1_555
O2 P1 1_555 1_555
O3 P1 1_555 1_555
F1 C3 1_555 1_555
N1 O4 1_555 1_555
N2 H1 1_555 1_555
O4 C10 1_555 1_555
C1 P1 1_555 1_555
H2 C1 1_555 1_555
C2 C1 1_555 1_555
C3 C2 1_555 1_555
C4 C3 1_555 1_555
H3 C4 1_555 1_555
C5 C4 1_555 1_555
H4 C5 1_555 1_555
C6 C5 1_555 1_555
H5 C6 1_555 1_555
C7 C2 1_555 1_555
H6 C7 1_555 1_555
C8 N1 1_555 1_555
C9 C8 1_555 1_555
H7 C9 1_555 1_555
C10 C9 1_555 1_555
C11 C10 1_555 1_555
H8 C11 1_555 1_555
H9 C11 1_555 1_555
H10 C11 1_555 1_555
C12 O2 1_555 1_555
H11 C12 1_555 1_555
H12 C12 1_555 1_555
C13 C12 1_555 1_555
H13 C13 1_555 1_555
H14 C13 1_555 1_555
C14 C13 1_555 1_555
H15 C14 1_555 1_555
H16 C14 1_555 1_555
H17 C14 1_555 1_555
C15 O3 1_555 1_555
H18 C15 1_555 1_555
H19 C15 1_555 1_555
C16 C15 1_555 1_555
H20 C16 1_555 1_555
H21 C16 1_555 1_555
C17 C16 1_555 1_555
H22 C17 1_555 1_555
H23 C17 1_555 1_555
H24 C17 1_555 1_555
N2 C1 1_555 1_555
N2 C8 1_555 1_555
C6 C7 1_555 1_555

#END
