
#######################################################################
#
#                 Cambridge Crystallographic Data Centre
#                                CCDC 
#
#######################################################################
#
# If this CIF has been generated from an entry in the Cambridge 
# Structural Database, then it will include bibliographic, chemical, 
# crystal, experimental, refinement or atomic coordinate data resulting 
# from the CCDC's data processing and validation procedures.
#
#######################################################################

data_CAXRUR
_chemical_compound_source        
'isolated from a Chinese soft coral Scleronephthya sp.'
_chemical_name_common            scleronine
_chemical_formula_moiety         'C27 H35 N3 O2'
_chemical_name_systematic        
2-(3,5,6,7-tetrahydro-4H-imidazo[4,5-c]pyridin-4-ylidene)pregn-20-ene-1,3-dione
_chemical_properties_biological  'inhibits the migration of tumor cells'
_symmetry_cell_setting           tetragonal
_symmetry_space_group_name_H-M   'P 43 21 2'
_symmetry_Int_Tables_number      96
_space_group_name_Hall           'P 4nw 2abw'
loop_
_symmetry_equiv_pos_site_id
_symmetry_equiv_pos_as_xyz
1 x,y,z
2 1/2-y,1/2+x,3/4+z
3 -x,-y,1/2+z
4 1/2+y,1/2-x,1/4+z
5 1/2+x,1/2-y,1/4-z
6 1/2-x,1/2+y,3/4-z
7 y,x,-z
8 -y,-x,1/2-z
_cell_length_a                   9.0788(3)
_cell_length_b                   9.0788(3)
_cell_length_c                   54.799(2)
_cell_angle_alpha                90
_cell_angle_beta                 90
_cell_angle_gamma                90
_cell_volume                     4516.79
_cell_formula_units_Z            8
loop_
_atom_site_label
_atom_site_type_symbol
_atom_site_fract_x
_atom_site_fract_y
_atom_site_fract_z
O1 O 0.6300(4) 0.5992(5) 0.09148(7)
O2 O 1.1073(5) 0.7978(5) 0.09234(8)
N1 N 0.9062(5) 0.9442(5) 0.11420(9)
N2 N 0.5210(5) 0.8544(5) 0.10167(8)
N3 N 0.4787(5) 1.0797(5) 0.11548(9)
C1 C 0.7519(6) 0.6182(6) 0.08160(10)
C2 C 0.8523(7) 0.7337(6) 0.08953(10)
C3 C 1.0080(7) 0.7118(7) 0.08527(11)
C4 C 1.0618(6) 0.5739(7) 0.07220(11)
C5 C 0.9495(7) 0.4500(7) 0.07054(10)
C6 C 1.0074(7) 0.3222(7) 0.05576(11)
C7 C 0.8967(7) 0.1952(8) 0.05553(11)
C8 C 0.7482(7) 0.2446(7) 0.04523(11)
C9 C 0.6858(7) 0.3836(7) 0.05874(10)
C10 C 0.7999(7) 0.5092(6) 0.06134(10)
C11 C 0.5376(6) 0.4278(7) 0.04714(11)
C12 C 0.4260(7) 0.3022(7) 0.04716(11)
C13 C 0.4853(7) 0.1649(7) 0.03451(11)
C14 C 0.6327(7) 0.1226(6) 0.04660(10)
C15 C 0.6697(9) -0.0297(8) 0.03692(12)
C16 C 0.5151(10) -0.1040(8) 0.03482(12)
C17 C 0.3985(8) 0.0206(7) 0.03910(11)
C18 C 0.5000(8) 0.1906(7) 0.00680(10)
C19 C 0.8148(7) 0.5953(7) 0.03693(10)
C20 C 0.275(2) -0.018(2) 0.0228(4)
C21 C 0.1496(17) -0.0646(17) 0.0310(3)
C22 C 0.8054(7) 0.8573(6) 0.10410(10)
C23 C 0.6569(6) 0.9114(6) 0.10787(10)
C24 C 0.6257(6) 1.0516(6) 0.11644(10)
C25 C 0.7416(7) 1.1543(6) 0.12440(11)
C26 C 0.8755(6) 1.0637(7) 0.13148(11)
C27 C 0.4168(6) 0.9563(7) 0.10691(10)
H1 H 0.9988 0.9289 0.1102
H2 H 0.5048 0.7667 0.0954
H3 H 1.0922 0.6015 0.0555
H4 H 1.1502 0.5366 0.0808
H5 H 0.9333 0.4129 0.0875
H6 H 1.0266 0.3549 0.0388
H7 H 1.1017 0.2878 0.0628
H8 H 0.9360 0.1136 0.0455
H9 H 0.8829 0.1581 0.0724
H10 H 0.7626 0.2708 0.0277
H11 H 0.6624 0.3508 0.0757
H12 H 0.5549 0.4600 0.0301
H13 H 0.4961 0.5124 0.0562
H14 H 0.3351 0.3350 0.0388
H15 H 0.3999 0.2775 0.0642
H16 H 0.6106 0.1092 0.0643
H17 H 0.7188 -0.0238 0.0208
H18 H 0.7341 -0.0840 0.0484
H19 H 0.5022 -0.1483 0.0185
H20 H 0.5043 -0.1823 0.0473
H21 H 0.3642 0.0178 0.0564
H22 H 0.4038 0.2178 0.0000
H23 H 0.5705 0.2703 0.0038
H24 H 0.5349 0.1001 -0.0011
H25 H 0.7205 0.6418 0.0329
H26 H 0.8908 0.6712 0.0386
H27 H 0.8425 0.5270 0.0239
H28 H 0.2886 -0.0089 0.0057
H29 H 0.0728 -0.0885 0.0199
H30 H 0.1342 -0.0746 0.0480
H31 H 0.7668 1.2229 0.1110
H32 H 0.7069 1.2127 0.1385
H33 H 0.9625 1.1292 0.1324
H34 H 0.8595 1.0211 0.1479
H35 H 0.3139 0.9421 0.1048
C28? C 0.241(3) 0.016(3) 0.0272(4)
C29? C 0.178(2) -0.106(2) 0.0189(3)
H36? H 0.3799 0.0195 0.0571
H37? H 0.1880 0.1062 0.0260
H38? H 0.0825 -0.1015 0.0119
H39? H 0.2287 -0.1970 0.0199
loop_
_geom_bond_atom_site_label_1
_geom_bond_atom_site_label_2
_geom_bond_site_symmetry_1
_geom_bond_site_symmetry_2
O1 C1 1_555 1_555
O2 C3 1_555 1_555
N1 C22 1_555 1_555
N2 C23 1_555 1_555
N3 C24 1_555 1_555
C1 C2 1_555 1_555
C2 C3 1_555 1_555
C3 C4 1_555 1_555
C4 C5 1_555 1_555
C5 C6 1_555 1_555
C6 C7 1_555 1_555
C7 C8 1_555 1_555
C8 C9 1_555 1_555
C9 C10 1_555 1_555
C10 C1 1_555 1_555
C11 C9 1_555 1_555
C12 C11 1_555 1_555
C13 C12 1_555 1_555
C14 C8 1_555 1_555
C15 C14 1_555 1_555
C16 C15 1_555 1_555
C17 C13 1_555 1_555
C18 C13 1_555 1_555
C19 C10 1_555 1_555
C20 C17 1_555 1_555
C21 C20 1_555 1_555
C22 C2 1_555 1_555
C23 C22 1_555 1_555
C24 C23 1_555 1_555
C25 C24 1_555 1_555
C26 N1 1_555 1_555
C27 N2 1_555 1_555
H1 N1 1_555 1_555
H2 N2 1_555 1_555
H3 C4 1_555 1_555
H4 C4 1_555 1_555
H5 C5 1_555 1_555
H6 C6 1_555 1_555
H7 C6 1_555 1_555
H8 C7 1_555 1_555
H9 C7 1_555 1_555
H10 C8 1_555 1_555
H11 C9 1_555 1_555
H12 C11 1_555 1_555
H13 C11 1_555 1_555
H14 C12 1_555 1_555
H15 C12 1_555 1_555
H16 C14 1_555 1_555
H17 C15 1_555 1_555
H18 C15 1_555 1_555
H19 C16 1_555 1_555
H20 C16 1_555 1_555
H21 C17 1_555 1_555
H22 C18 1_555 1_555
H23 C18 1_555 1_555
H24 C18 1_555 1_555
H25 C19 1_555 1_555
H26 C19 1_555 1_555
H27 C19 1_555 1_555
H28 C20 1_555 1_555
H29 C21 1_555 1_555
H30 C21 1_555 1_555
H31 C25 1_555 1_555
H32 C25 1_555 1_555
H33 C26 1_555 1_555
H34 C26 1_555 1_555
H35 C27 1_555 1_555
N3 C27 1_555 1_555
C5 C10 1_555 1_555
C13 C14 1_555 1_555
C16 C17 1_555 1_555
C25 C26 1_555 1_555

#END
