
#######################################################################
#
#                 Cambridge Crystallographic Data Centre
#                                CCDC 
#
#######################################################################
#
# If this CIF has been generated from an entry in the Cambridge 
# Structural Database, then it will include bibliographic, chemical, 
# crystal, experimental, refinement or atomic coordinate data resulting 
# from the CCDC's data processing and validation procedures.
#
#######################################################################

data_CAXROJ01
_chemical_formula_moiety         'C36 H54 N8,15(H2 O1)'
_chemical_name_systematic        
'1,4,11,14,17,24,29,36-Octaazapentacyclo[12.12.12.2^6,9^.2^19,22^.2^31,34^]tetratetraconta-6,8,19,21,31,33,39,41,43-nonaene pentadecahydrate'
_symmetry_cell_setting           trigonal
_symmetry_space_group_name_H-M   'P 3 c 1'
_symmetry_Int_Tables_number      158
_space_group_name_Hall           'P 3 -2"c'
loop_
_symmetry_equiv_pos_site_id
_symmetry_equiv_pos_as_xyz
1 x,y,z
2 -y,x-y,z
3 -x+y,-x,z
4 -y,-x,1/2+z
5 -x+y,y,1/2+z
6 x,x-y,1/2+z
_cell_length_a                   15.8532(7)
_cell_length_b                   15.8532(7)
_cell_length_c                   33.088(2)
_cell_angle_alpha                90
_cell_angle_beta                 90
_cell_angle_gamma                120
_cell_volume                     7201.7
_exptl_crystal_colour            colorless
_exptl_crystal_description       block
_cell_formula_units_Z            6
loop_
_atom_site_label
_atom_site_type_symbol
_atom_site_fract_x
_atom_site_fract_y
_atom_site_fract_z
O1 O -0.0746(3) 0.3405(3) 0.71844(17)
O2 O -0.0398(3) 0.5299(2) 0.71513(16)
O3 O -0.1705(3) 0.5896(4) 0.7410(2)
O4 O 0.0541(5) 0.7906(5) 0.6964(2)
O5 O 0.0494(5) 0.6415(4) 0.6490(2)
O6 O -0.0788(4) 0.6022(4) 0.5964(2)
O7 O -0.1981(3) 0.6986(3) 0.31669(18)
O8 O -0.0137(3) 0.7300(3) 0.33579(17)
O9 O 0.1620(3) 0.9060(3) 0.33482(17)
O10 O 0.0713(3) 0.6694(3) 0.27611(16)
O11 O 0.0732(2) 0.4951(2) 0.28367(16)
O12 O 0.1417(3) 0.3676(3) 0.26400(17)
O13 O -0.0368(3) 0.3845(3) 0.34794(16)
O14 O 0.2813(3) 0.9082(3) 0.39840(18)
O15 O 0.2307(5) 0.9533(5) 0.4694(2)
N1 N 0.2531(4) 0.7529(3) 0.63386(18)
H1 H 0.2815 0.7176 0.6254
N2 N 0.2236(3) 0.7091(3) 0.41096(18)
H2 H 0.2678 0.6903 0.4181
N3 N 0.3333 0.6667 0.6884(3)
N4 N 0.3333 0.6667 0.3533(2)
C1 C 0.2764(5) 0.7114(5) 0.7026(2)
H3 H 0.2970 0.7369 0.7304
H4 H 0.2064 0.6614 0.7035
C2 C 0.2913(5) 0.7948(4) 0.6744(2)
H5 H 0.2561 0.8270 0.6851
H6 H 0.3614 0.8439 0.6726
C3 C 0.2737(5) 0.8308(4) 0.6040(2)
H7 H 0.3443 0.8787 0.6040
H8 H 0.2386 0.8653 0.6120
C4 C 0.2425(4) 0.7897(4) 0.56205(19)
C5 C 0.3109(4) 0.8077(5) 0.5328(2)
H9 H 0.3782 0.8461 0.5392
C6 C 0.2819(4) 0.7694(5) 0.49279(19)
H10 H 0.3298 0.7810 0.4729
C7 C 0.1832(4) 0.7149(4) 0.48320(19)
C8 C 0.1151(4) 0.6960(4) 0.5134(2)
H11 H 0.0477 0.6571 0.5075
C9 C 0.1441(4) 0.7332(4) 0.55209(19)
H12 H 0.0962 0.7199 0.5721
C10 C 0.1474(4) 0.6759(4) 0.44169(19)
H13 H 0.1132 0.6039 0.4428
H14 H 0.0994 0.6951 0.4333
C11 C 0.1837(3) 0.6695(4) 0.3710(2)
H15 H 0.1396 0.6934 0.3622
H16 H 0.1457 0.5975 0.3723
C12 C 0.2671(3) 0.7018(3) 0.34122(18)
H17 H 0.2405 0.6763 0.3140
H18 H 0.3038 0.7738 0.3397
N1A N 0.2471(3) 0.5002(5) 0.63386(18)
H1A H 0.2824 0.5639 0.6254
N2A N 0.2909(3) 0.5145(4) 0.41096(18)
H2A H 0.3097 0.5775 0.4181
C1A C 0.2886(5) 0.5650(7) 0.7026(2)
H3A H 0.2631 0.5601 0.7304
H4A H 0.3386 0.5450 0.7035
C2A C 0.2052(4) 0.4965(6) 0.6744(2)
H5A H 0.1730 0.4291 0.6851
H6A H 0.1561 0.5175 0.6726
C3A C 0.1692(4) 0.4429(6) 0.6040(2)
H7A H 0.1213 0.4656 0.6040
H8A H 0.1347 0.3733 0.6120
C4A C 0.2103(4) 0.4528(6) 0.56205(19)
C5A C 0.1923(5) 0.5032(6) 0.5328(2)
H9A H 0.1539 0.5321 0.5392
C6A C 0.2306(5) 0.5125(6) 0.49279(19)
H10A H 0.2190 0.5488 0.4729
C7A C 0.2851(4) 0.4683(6) 0.48320(19)
C8A C 0.3040(4) 0.4191(6) 0.5134(2)
H11A H 0.3429 0.3906 0.5075
C9A C 0.2668(4) 0.4109(6) 0.55209(19)
H12A H 0.2801 0.3763 0.5721
C10A C 0.3241(4) 0.4715(6) 0.44169(19)
H13A H 0.3961 0.5093 0.4428
H14A H 0.3049 0.4043 0.4333
C11A C 0.3305(4) 0.5142(5) 0.3710(2)
H15A H 0.3066 0.4462 0.3622
H16A H 0.4025 0.5482 0.3723
C12A C 0.2982(3) 0.5653(4) 0.34122(18)
H17A H 0.3237 0.5642 0.3140
H18A H 0.2262 0.5300 0.3397
N1B N 0.4998(5) 0.7469(4) 0.63386(18)
H1B H 0.4361 0.7185 0.6254
N2B N 0.4855(4) 0.7764(3) 0.41096(18)
H2B H 0.4225 0.7322 0.4181
C1B C 0.4350(7) 0.7236(5) 0.7026(2)
H3B H 0.4399 0.7030 0.7304
H4B H 0.4550 0.7936 0.7035
C2B C 0.5035(6) 0.7087(5) 0.6744(2)
H5B H 0.5709 0.7439 0.6851
H6B H 0.4825 0.6386 0.6726
C3B C 0.5571(6) 0.7263(5) 0.6040(2)
H7B H 0.5344 0.6557 0.6040
H8B H 0.6267 0.7614 0.6120
C4B C 0.5472(6) 0.7575(4) 0.56205(19)
C5B C 0.4968(6) 0.6891(4) 0.5328(2)
H9B H 0.4679 0.6218 0.5392
C6B C 0.4875(6) 0.7181(4) 0.49279(19)
H10B H 0.4512 0.6702 0.4729
C7B C 0.5317(6) 0.8168(4) 0.48320(19)
C8B C 0.5809(6) 0.8849(4) 0.5134(2)
H11B H 0.6094 0.9523 0.5075
C9B C 0.5891(6) 0.8559(4) 0.55209(19)
H12B H 0.6237 0.9038 0.5721
C10B C 0.5285(6) 0.8526(4) 0.44169(19)
H13B H 0.4907 0.8868 0.4428
H14B H 0.5957 0.9006 0.4333
C11B C 0.4858(5) 0.8163(3) 0.3710(2)
H15B H 0.5538 0.8604 0.3622
H16B H 0.4518 0.8543 0.3723
C12B C 0.4347(4) 0.7329(3) 0.34122(18)
H17B H 0.4358 0.7595 0.3140
H18B H 0.4700 0.6962 0.3397
N5 N -0.1735(3) 0.4091(4) 0.58954(17)
H21 H -0.2379 0.3775 0.5819
N6 N -0.1672(3) 0.4455(3) 0.36625(17)
H22 H -0.2272 0.3946 0.3736
N7 N -0.3333 0.3333 0.6459(2)
N8 N -0.3333 0.3333 0.3116(2)
C13 C -0.2312(3) 0.3904(4) 0.65875(18)
H23 H -0.2242 0.3699 0.6862
H24 H -0.2114 0.4603 0.6598
C14 C -0.1658(4) 0.3761(4) 0.6299(2)
H25 H -0.0975 0.4135 0.6394
H26 H -0.1850 0.3064 0.6290
C15 C -0.1171(4) 0.3915(5) 0.55927(19)
H27 H -0.1402 0.3208 0.5583
H28 H -0.0479 0.4253 0.5676
C16 C -0.1247(4) 0.4256(4) 0.51757(19)
C17 C -0.0694(4) 0.4156(4) 0.48570(19)
H29 H -0.0301 0.3872 0.4909
C18 C -0.0735(4) 0.4474(4) 0.44741(19)
H30 H -0.0348 0.4428 0.4266
C19 C -0.1331(4) 0.4859(4) 0.43853(19)
C20 C -0.1895(4) 0.4923(5) 0.4684(2)
H31 H -0.2314 0.5174 0.4625
C21 C -0.1853(4) 0.4617(5) 0.5076(2)
H32 H -0.2253 0.4658 0.5280
C22 C -0.1346(5) 0.5230(4) 0.3964(2)
H33 H -0.1788 0.5503 0.3961
H34 H -0.0684 0.5760 0.3893
C23 C -0.1740(4) 0.4812(4) 0.32564(19)
H35 H -0.1078 0.5238 0.3146
H36 H -0.2072 0.5199 0.3277
C24 C -0.2304(4) 0.3956(4) 0.2978(2)
H37 H -0.2301 0.4196 0.2702
H38 H -0.1982 0.3559 0.2968
N5A N -0.4091(4) 0.4174(5) 0.58954(17)
H21A H -0.3775 0.3846 0.5819
N6A N -0.4455(3) 0.3873(4) 0.36625(17)
H22A H -0.3946 0.3782 0.3736
C13A C -0.3904(4) 0.3784(5) 0.65875(18)
H23A H -0.3699 0.4059 0.6862
H24A H -0.4603 0.3283 0.6598
C14A C -0.3761(4) 0.4581(6) 0.6299(2)
H25A H -0.4135 0.4890 0.6394
H26A H -0.3064 0.5086 0.6290
C15A C -0.3915(5) 0.4914(6) 0.55927(19)
H27A H -0.3208 0.5390 0.5583
H28A H -0.4253 0.5268 0.5676
C16A C -0.4256(4) 0.4497(6) 0.51757(19)
C17A C -0.4156(4) 0.5150(6) 0.48570(19)
H29A H -0.3872 0.5827 0.4909
C18A C -0.4474(4) 0.4791(6) 0.44741(19)
H30A H -0.4428 0.5224 0.4266
C19A C -0.4859(4) 0.3810(6) 0.43853(19)
C20A C -0.4923(5) 0.3182(6) 0.4684(2)
H31A H -0.5174 0.2512 0.4625
C21A C -0.4617(5) 0.3530(6) 0.5076(2)
H32A H -0.4658 0.3089 0.5280
C22A C -0.5230(4) 0.3424(6) 0.3964(2)
H33A H -0.5503 0.2709 0.3961
H34A H -0.5760 0.3556 0.3893
C23A C -0.4812(4) 0.3448(6) 0.32564(19)
H35A H -0.5238 0.3684 0.3146
H36A H -0.5199 0.2729 0.3277
C24A C -0.3956(4) 0.3740(6) 0.2978(2)
H37A H -0.4196 0.3503 0.2702
H38A H -0.3559 0.4459 0.2968
N5B N -0.4174(5) 0.1735(3) 0.58954(17)
H21B H -0.3846 0.2379 0.5819
N6B N -0.3873(4) 0.1672(3) 0.36625(17)
H22B H -0.3782 0.2272 0.3736
C13B C -0.3784(5) 0.2312(3) 0.65875(18)
H23B H -0.4059 0.2242 0.6862
H24B H -0.3283 0.2114 0.6598
C14B C -0.4581(6) 0.1658(4) 0.6299(2)
H25B H -0.4890 0.0975 0.6394
H26B H -0.5086 0.1850 0.6290
C15B C -0.4914(6) 0.1171(4) 0.55927(19)
H27B H -0.5390 0.1402 0.5583
H28B H -0.5268 0.0479 0.5676
C16B C -0.4497(6) 0.1247(4) 0.51757(19)
C17B C -0.5150(6) 0.0694(4) 0.48570(19)
H29B H -0.5827 0.0301 0.4909
C18B C -0.4791(6) 0.0735(4) 0.44741(19)
H30B H -0.5224 0.0348 0.4266
C19B C -0.3810(6) 0.1331(4) 0.43853(19)
C20B C -0.3182(6) 0.1895(4) 0.4684(2)
H31B H -0.2512 0.2314 0.4625
C21B C -0.3530(6) 0.1853(4) 0.5076(2)
H32B H -0.3089 0.2253 0.5280
C22B C -0.3424(6) 0.1346(5) 0.3964(2)
H33B H -0.2709 0.1788 0.3961
H34B H -0.3556 0.0684 0.3893
C23B C -0.3448(6) 0.1740(4) 0.32564(19)
H35B H -0.3684 0.1078 0.3146
H36B H -0.2729 0.2072 0.3277
C24B C -0.3740(6) 0.2304(4) 0.2978(2)
H37B H -0.3503 0.2301 0.2702
H38B H -0.4459 0.1982 0.2968
N9 N -0.0970(4) 0.8389(3) 0.69195(18)
H41 H -0.0660 0.9030 0.6839
N10 N -0.0726(4) 0.8413(4) 0.46892(19)
H42 H -0.1385 0.8191 0.4698
N11 N 0.0000 1.0000 0.7485(2)
N12 N 0.0000 1.0000 0.4124(3)
C25 C -0.0476(4) 0.8989(3) 0.7612(2)
H43 H -0.0715 0.8939 0.7892
H44 H 0.0007 0.8767 0.7612
C26 C -0.1327(4) 0.8319(4) 0.73415(19)
H45 H -0.1621 0.7639 0.7439
H46 H -0.1832 0.8512 0.7350
C27 C -0.1749(5) 0.7811(5) 0.6637(2)
H47 H -0.2223 0.8045 0.6639
H48 H -0.2094 0.7124 0.6728
C28 C -0.1383(4) 0.7861(3) 0.62099(18)
C29 C -0.0406(4) 0.8475(4) 0.6097(2)
H49 H 0.0057 0.8878 0.6293
C30 C -0.0110(6) 0.8496(5) 0.56959(18)
H50 H 0.0550 0.8911 0.5620
C31 C -0.1755(5) 0.7296(5) 0.5514(2)
H51 H -0.2223 0.6890 0.5319
C32 C -0.2017(6) 0.7295(5) 0.5911(2)
H52 H -0.2679 0.6877 0.5984
C33 C -0.0799(4) 0.7899(3) 0.54077(16)
C34 C -0.0484(7) 0.7868(5) 0.4982(2)
H53 H 0.0230 0.8136 0.4979
H54 H -0.0795 0.7180 0.4894
C35 C -0.0453(5) 0.8295(4) 0.4281(2)
H55 H -0.0864 0.7612 0.4191
H56 H 0.0237 0.8456 0.4276
C36 C -0.0597(5) 0.8983(4) 0.4001(2)
H57 H -0.0425 0.8907 0.3721
H58 H -0.1292 0.8803 0.4004
N9A N 0.1611(3) 1.0641(5) 0.69195(18)
H41A H 0.0970 1.0310 0.6839
N10A N 0.1587(4) 1.0861(6) 0.46892(19)
H42A H 0.1809 1.0424 0.4698
C25A C 0.1011(3) 1.0535(5) 0.7612(2)
H43A H 0.1061 1.0346 0.7892
H44A H 0.1233 1.1240 0.7612
C26A C 0.1681(4) 1.0354(6) 0.73415(19)
H45A H 0.2361 1.0740 0.7439
H46A H 0.1488 0.9656 0.7350
C27A C 0.2189(5) 1.0440(7) 0.6637(2)
H47A H 0.1955 0.9732 0.6639
H48A H 0.2876 1.0782 0.6728
C28A C 0.2139(3) 1.0756(5) 0.62099(18)
C29A C 0.1525(4) 1.1119(6) 0.6097(2)
H49A H 0.1122 1.1179 0.6293
C30A C 0.1504(5) 1.1394(8) 0.56959(18)
H50A H 0.1089 1.1639 0.5620
C31A C 0.2704(5) 1.0949(7) 0.5514(2)
H51A H 0.3110 1.0887 0.5319
C32A C 0.2705(5) 1.0688(8) 0.5911(2)
H52A H 0.3123 1.0444 0.5984
C33A C 0.2101(3) 1.1302(5) 0.54077(16)
C34A C 0.2132(5) 1.1648(9) 0.4982(2)
H53A H 0.1864 1.2094 0.4979
H54A H 0.2820 1.2025 0.4894
C35A C 0.1705(4) 1.1252(6) 0.4281(2)
H55A H 0.2388 1.1524 0.4191
H56A H 0.1544 1.1781 0.4276
C36A C 0.1017(4) 1.0420(6) 0.4001(2)
H57A H 0.1093 1.0668 0.3721
H58A H 0.1197 0.9905 0.4004
N9B N -0.0641(5) 1.0970(4) 0.69195(18)
H41B H -0.0310 1.0660 0.6839
N10B N -0.0861(6) 1.0726(4) 0.46892(19)
H42B H -0.0424 1.1385 0.4698
C25B C -0.0535(5) 1.0476(4) 0.7612(2)
H43B H -0.0346 1.0715 0.7892
H44B H -0.1240 0.9993 0.7612
C26B C -0.0354(6) 1.1327(4) 0.73415(19)
H45B H -0.0740 1.1621 0.7439
H46B H 0.0344 1.1832 0.7350
C27B C -0.0440(7) 1.1749(5) 0.6637(2)
H47B H 0.0268 1.2223 0.6639
H48B H -0.0782 1.2094 0.6728
C28B C -0.0756(5) 1.1383(4) 0.62099(18)
C29B C -0.1119(6) 1.0406(4) 0.6097(2)
H49B H -0.1179 0.9943 0.6293
C30B C -0.1394(8) 1.0110(6) 0.56959(18)
H50B H -0.1639 0.9450 0.5620
C31B C -0.0949(7) 1.1755(5) 0.5514(2)
H51B H -0.0887 1.2223 0.5319
C32B C -0.0688(8) 1.2017(6) 0.5911(2)
H52B H -0.0444 1.2679 0.5984
C33B C -0.1302(5) 1.0799(4) 0.54077(16)
C34B C -0.1648(9) 1.0484(7) 0.4982(2)
H53B H -0.2094 0.9770 0.4979
H54B H -0.2025 1.0795 0.4894
C35B C -0.1252(6) 1.0453(5) 0.4281(2)
H55B H -0.1524 1.0864 0.4191
H56B H -0.1781 0.9763 0.4276
C36B C -0.0420(6) 1.0597(5) 0.4001(2)
H57B H -0.0668 1.0425 0.3721
H58B H 0.0095 1.1292 0.4004
H19? H 0.1869 0.7112 0.6354
H20? H 0.2561 0.7761 0.4098
H39? H -0.1522 0.4748 0.5905
H40? H -0.1241 0.4226 0.3654
H59? H -0.0521 0.8183 0.6913
H60? H -0.0403 0.9063 0.4757
C37? C -0.1416(5) 0.8531(6) 0.59439(19)
H61? H -0.1629 0.8966 0.6028
C38? C -0.1119(5) 0.8521(6) 0.5550(2)
H62? H -0.1135 0.8970 0.5364
C39? C -0.0803(7) 0.7275(7) 0.5702(4)
H63? H -0.0591 0.6837 0.5619
C40? C -0.1081(7) 0.7212(7) 0.6104(4)
H64? H -0.1065 0.6763 0.6289
loop_
_geom_bond_atom_site_label_1
_geom_bond_atom_site_label_2
_geom_bond_site_symmetry_1
_geom_bond_site_symmetry_2
N1 H1 1_555 1_555
N2 H2 1_555 1_555
N3 C1 1_555 1_555
N4 C12 1_555 1_555
C1 H3 1_555 1_555
H4 C1 1_555 1_555
C2 N1 1_555 1_555
H5 C2 1_555 1_555
H6 C2 1_555 1_555
C3 N1 1_555 1_555
H7 C3 1_555 1_555
H8 C3 1_555 1_555
C4 C3 1_555 1_555
C5 C4 1_555 1_555
H9 C5 1_555 1_555
C6 C5 1_555 1_555
H10 C6 1_555 1_555
C7 C6 1_555 1_555
C8 C7 1_555 1_555
H11 C8 1_555 1_555
C9 C4 1_555 1_555
H12 C9 1_555 1_555
C10 N2 1_555 1_555
H13 C10 1_555 1_555
H14 C10 1_555 1_555
C11 N2 1_555 1_555
H15 C11 1_555 1_555
H16 C11 1_555 1_555
C12 C11 1_555 1_555
H17 C12 1_555 1_555
H18 C12 1_555 1_555
N5 H21 1_555 1_555
N6 H22 1_555 1_555
N7 C13 1_555 1_555
N8 C24 1_555 1_555
C13 H23 1_555 1_555
H24 C13 1_555 1_555
C14 N5 1_555 1_555
H25 C14 1_555 1_555
H26 C14 1_555 1_555
C15 N5 1_555 1_555
H27 C15 1_555 1_555
H28 C15 1_555 1_555
C16 C15 1_555 1_555
C17 C16 1_555 1_555
H29 C17 1_555 1_555
C18 C17 1_555 1_555
H30 C18 1_555 1_555
C19 C18 1_555 1_555
C20 C19 1_555 1_555
H31 C20 1_555 1_555
C21 C16 1_555 1_555
H32 C21 1_555 1_555
C22 N6 1_555 1_555
H33 C22 1_555 1_555
H34 C22 1_555 1_555
C23 N6 1_555 1_555
H35 C23 1_555 1_555
H36 C23 1_555 1_555
C24 C23 1_555 1_555
H37 C24 1_555 1_555
H38 C24 1_555 1_555
N9 H41 1_555 1_555
N10 H42 1_555 1_555
N11 C25 1_555 1_555
N12 C36 1_555 1_555
C25 H43 1_555 1_555
H44 C25 1_555 1_555
C26 N9 1_555 1_555
H45 C26 1_555 1_555
H46 C26 1_555 1_555
C27 N9 1_555 1_555
H47 C27 1_555 1_555
H48 C27 1_555 1_555
C28 C27 1_555 1_555
C29 C28 1_555 1_555
H49 C29 1_555 1_555
C30 C29 1_555 1_555
H50 C30 1_555 1_555
C31 H51 1_555 1_555
C32 C28 1_555 1_555
H52 C32 1_555 1_555
C33 C30 1_555 1_555
C34 N10 1_555 1_555
H53 C34 1_555 1_555
H54 C34 1_555 1_555
C35 N10 1_555 1_555
H55 C35 1_555 1_555
H56 C35 1_555 1_555
C36 C35 1_555 1_555
H57 C36 1_555 1_555
H58 C36 1_555 1_555
N1A H1A 1_555 1_555
N2A H2A 1_555 1_555
C1A N3 1_555 1_555
H3A C1A 1_555 1_555
H4A C1A 1_555 1_555
C2A N1A 1_555 1_555
H5A C2A 1_555 1_555
H6A C2A 1_555 1_555
C3A N1A 1_555 1_555
H7A C3A 1_555 1_555
H8A C3A 1_555 1_555
C4A C3A 1_555 1_555
C5A C4A 1_555 1_555
H9A C5A 1_555 1_555
C6A C5A 1_555 1_555
H10A C6A 1_555 1_555
C7A C6A 1_555 1_555
C8A C7A 1_555 1_555
H11A C8A 1_555 1_555
C9A C4A 1_555 1_555
H12A C9A 1_555 1_555
C10A N2A 1_555 1_555
H13A C10A 1_555 1_555
H14A C10A 1_555 1_555
C11A N2A 1_555 1_555
H15A C11A 1_555 1_555
H16A C11A 1_555 1_555
C12A N4 1_555 1_555
H17A C12A 1_555 1_555
H18A C12A 1_555 1_555
N1B H1B 1_555 1_555
N2B H2B 1_555 1_555
C1B N3 1_555 1_555
H3B C1B 1_555 1_555
H4B C1B 1_555 1_555
C2B N1B 1_555 1_555
H5B C2B 1_555 1_555
H6B C2B 1_555 1_555
C3B N1B 1_555 1_555
H7B C3B 1_555 1_555
H8B C3B 1_555 1_555
C4B C3B 1_555 1_555
C5B C4B 1_555 1_555
H9B C5B 1_555 1_555
C6B C5B 1_555 1_555
H10B C6B 1_555 1_555
C7B C6B 1_555 1_555
C8B C7B 1_555 1_555
H11B C8B 1_555 1_555
C9B C4B 1_555 1_555
H12B C9B 1_555 1_555
C10B N2B 1_555 1_555
H13B C10B 1_555 1_555
H14B C10B 1_555 1_555
C11B N2B 1_555 1_555
H15B C11B 1_555 1_555
H16B C11B 1_555 1_555
C12B N4 1_555 1_555
H17B C12B 1_555 1_555
H18B C12B 1_555 1_555
N5A H21A 1_555 1_555
N6A H22A 1_555 1_555
C13A N7 1_555 1_555
H23A C13A 1_555 1_555
H24A C13A 1_555 1_555
C14A N5A 1_555 1_555
H25A C14A 1_555 1_555
H26A C14A 1_555 1_555
C15A N5A 1_555 1_555
H27A C15A 1_555 1_555
H28A C15A 1_555 1_555
C16A C15A 1_555 1_555
C17A C16A 1_555 1_555
H29A C17A 1_555 1_555
C18A C17A 1_555 1_555
H30A C18A 1_555 1_555
C19A C18A 1_555 1_555
C20A C19A 1_555 1_555
H31A C20A 1_555 1_555
C21A C16A 1_555 1_555
H32A C21A 1_555 1_555
C22A N6A 1_555 1_555
H33A C22A 1_555 1_555
H34A C22A 1_555 1_555
C23A N6A 1_555 1_555
H35A C23A 1_555 1_555
H36A C23A 1_555 1_555
C24A N8 1_555 1_555
H37A C24A 1_555 1_555
H38A C24A 1_555 1_555
N5B H21B 1_555 1_555
N6B H22B 1_555 1_555
C13B N7 1_555 1_555
H23B C13B 1_555 1_555
H24B C13B 1_555 1_555
C14B N5B 1_555 1_555
H25B C14B 1_555 1_555
H26B C14B 1_555 1_555
C15B N5B 1_555 1_555
H27B C15B 1_555 1_555
H28B C15B 1_555 1_555
C16B C15B 1_555 1_555
C17B C16B 1_555 1_555
H29B C17B 1_555 1_555
C18B C17B 1_555 1_555
H30B C18B 1_555 1_555
C19B C18B 1_555 1_555
C20B C19B 1_555 1_555
H31B C20B 1_555 1_555
C21B C16B 1_555 1_555
H32B C21B 1_555 1_555
C22B N6B 1_555 1_555
H33B C22B 1_555 1_555
H34B C22B 1_555 1_555
C23B N6B 1_555 1_555
H35B C23B 1_555 1_555
H36B C23B 1_555 1_555
C24B N8 1_555 1_555
H37B C24B 1_555 1_555
H38B C24B 1_555 1_555
N9A H41A 1_555 1_555
N10A H42A 1_555 1_555
C25A N11 1_555 1_555
H43A C25A 1_555 1_555
H44A C25A 1_555 1_555
C26A N9A 1_555 1_555
H45A C26A 1_555 1_555
H46A C26A 1_555 1_555
C27A N9A 1_555 1_555
H47A C27A 1_555 1_555
H48A C27A 1_555 1_555
C28A C27A 1_555 1_555
C29A C28A 1_555 1_555
H49A C29A 1_555 1_555
C30A C29A 1_555 1_555
H50A C30A 1_555 1_555
C31A H51A 1_555 1_555
C32A C28A 1_555 1_555
H52A C32A 1_555 1_555
C33A C30A 1_555 1_555
C34A N10A 1_555 1_555
H53A C34A 1_555 1_555
H54A C34A 1_555 1_555
C35A N10A 1_555 1_555
H55A C35A 1_555 1_555
H56A C35A 1_555 1_555
C36A N12 1_555 1_555
H57A C36A 1_555 1_555
H58A C36A 1_555 1_555
N9B H41B 1_555 1_555
N10B H42B 1_555 1_555
C25B N11 1_555 1_555
H43B C25B 1_555 1_555
H44B C25B 1_555 1_555
C26B N9B 1_555 1_555
H45B C26B 1_555 1_555
H46B C26B 1_555 1_555
C27B N9B 1_555 1_555
H47B C27B 1_555 1_555
H48B C27B 1_555 1_555
C28B C27B 1_555 1_555
C29B C28B 1_555 1_555
H49B C29B 1_555 1_555
C30B C29B 1_555 1_555
H50B C30B 1_555 1_555
C31B H51B 1_555 1_555
C32B C28B 1_555 1_555
H52B C32B 1_555 1_555
C33B C30B 1_555 1_555
C34B N10B 1_555 1_555
H53B C34B 1_555 1_555
H54B C34B 1_555 1_555
C35B N10B 1_555 1_555
H55B C35B 1_555 1_555
H56B C35B 1_555 1_555
C36B N12 1_555 1_555
H57B C36B 1_555 1_555
H58B C36B 1_555 1_555
C1 C2 1_555 1_555
C7 C10 1_555 1_555
C8 C9 1_555 1_555
C13 C14 1_555 1_555
C19 C22 1_555 1_555
C20 C21 1_555 1_555
C25 C26 1_555 1_555
C31 C32 1_555 1_555
C31 C33 1_555 1_555
C33 C34 1_555 1_555
C1A C2A 1_555 1_555
C7A C10A 1_555 1_555
C8A C9A 1_555 1_555
C11A C12A 1_555 1_555
C1B C2B 1_555 1_555
C7B C10B 1_555 1_555
C8B C9B 1_555 1_555
C11B C12B 1_555 1_555
C13A C14A 1_555 1_555
C19A C22A 1_555 1_555
C20A C21A 1_555 1_555
C23A C24A 1_555 1_555
C13B C14B 1_555 1_555
C19B C22B 1_555 1_555
C20B C21B 1_555 1_555
C23B C24B 1_555 1_555
C25A C26A 1_555 1_555
C31A C32A 1_555 1_555
C31A C33A 1_555 1_555
C33A C34A 1_555 1_555
C35A C36A 1_555 1_555
C25B C26B 1_555 1_555
C31B C32B 1_555 1_555
C31B C33B 1_555 1_555
C33B C34B 1_555 1_555
C35B C36B 1_555 1_555

#END
