
#######################################################################
#
#                 Cambridge Crystallographic Data Centre
#                                CCDC 
#
#######################################################################
#
# If this CIF has been generated from an entry in the Cambridge 
# Structural Database, then it will include bibliographic, chemical, 
# crystal, experimental, refinement or atomic coordinate data resulting 
# from the CCDC's data processing and validation procedures.
#
#######################################################################

data_CAXWUT
_chemical_formula_moiety         'C48 H48 O6,Li1 1+,Cl1 1-'
_chemical_name_systematic        
'Lithium 31,32,33,34,35,36-hexamethoxy-4,9,14,19,24,29-hexamethylheptacyclo(25.3.1.1^2,6^.1^7,11^.1^12,16^.1^17,21^.1^22,26^) hexatriaconta-1(31),2,4,6(32),7,9,11(33),12,14,16(34),17,19,21(35),22,24,26(36),27,29-octadecaene chloride'
_symmetry_cell_setting           rhombohedral
_symmetry_space_group_name_H-M   'R -3'
_symmetry_Int_Tables_number      148
_space_group_name_Hall           '-P 3*'
loop_
_symmetry_equiv_pos_site_id
_symmetry_equiv_pos_as_xyz
1 x,y,z
2 z,x,y
3 y,z,x
4 -x,-y,-z
5 -z,-x,-y
6 -y,-z,-x
_cell_length_a                   11.152(1)
_cell_length_b                   11.152(1)
_cell_length_c                   11.152(1)
_cell_angle_alpha                110.60(1)
_cell_angle_beta                 110.60(1)
_cell_angle_gamma                110.60(1)
_cell_volume                     1020.62
_cell_formula_units_Z            1
loop_
_atom_site_label
_atom_site_type_symbol
_atom_site_fract_x
_atom_site_fract_y
_atom_site_fract_z
Cl1 Cl 0.00000 0.00000 0.00000
Li1 Li 0.50000 0.50000 0.50000
C1 C 0.71507 0.41491 0.32236
C2 C 0.71750 0.29996 0.22263
C3 C 0.71163 0.17979 0.23901
C4 C 0.71008 0.05480 0.12534
C5 C 0.70127 0.17680 0.35893
C6 C 0.70983 0.53808 0.30102
C7 C 0.71089 0.41109 0.44476
O1 O 0.71534 0.52889 0.54991
C8 C 0.86905 0.65471 0.66821
H1 H 0.71720 0.29550 0.13220
H2 H 0.68940 0.08810 0.37170
H3 H 0.67010 0.04140 0.02290
H4 H 0.79280 0.04920 0.17110
H5 H 0.64460 -0.04550 0.10650
H6 H 0.87090 0.73340 0.74370
H7 H 0.93220 0.69240 0.61680
H8 H 0.92540 0.61950 0.69840
C6D C 0.69898 0.29017 0.46192
C5E C 0.82320 0.64107 0.29873
C7E C 0.58891 0.55524 0.28911
C1D C 0.67764 0.28493 0.58509
C3E C 0.82021 0.76099 0.28837
H2E H 0.91190 0.62830 0.31060
C1E C 0.58509 0.67764 0.28493
O1E O 0.47111 0.45009 0.28466
C2D C 0.77737 0.28250 0.70004
C7D C 0.55524 0.28911 0.58891
C2E C 0.70004 0.77737 0.28250
C4E C 0.94520 0.87466 0.28992
C6E C 0.46192 0.69898 0.29017
C8E C 0.34529 0.33179 0.13095
C3D C 0.76099 0.28837 0.82021
H1D H 0.86780 0.28280 0.70450
C6B C 0.53808 0.30102 0.70983
O1D O 0.45009 0.28466 0.47111
H1E H 0.70450 0.86780 0.28280
H3E H 0.95860 0.97710 0.32990
H4E H 0.95080 0.82890 0.20720
H5E H 1.04550 0.89350 0.35540
C5A C 0.35893 0.70127 0.17680
C7A C 0.44476 0.71089 0.41109
H6E H 0.26660 0.25630 0.12910
H7E H 0.30760 0.38320 0.06780
H8E H 0.38050 0.30160 0.07460
C4D C 0.87466 0.28992 0.94520
C5D C 0.64107 0.29873 0.82320
C1B C 0.41491 0.32236 0.71507
C8D C 0.33179 0.13095 0.34529
C3A C 0.23901 0.71163 0.17979
H2A H 0.37170 0.68940 0.08810
C1A C 0.32236 0.71507 0.41491
O1A O 0.54991 0.71534 0.52889
H3D H 0.97710 0.32990 0.95860
H4D H 0.82890 0.20720 0.95080
H5D H 0.89350 0.35540 1.04550
H2D H 0.62830 0.31060 0.91190
C2B C 0.29996 0.22263 0.71750
C7B C 0.41109 0.44476 0.71089
H6D H 0.25630 0.12910 0.26660
H7D H 0.38320 0.06780 0.30760
H8D H 0.30160 0.07460 0.38050
C2A C 0.22263 0.71750 0.29996
C4A C 0.12534 0.71008 0.05480
C6A C 0.30102 0.70983 0.53808
C8A C 0.66821 0.86905 0.65471
C3B C 0.17979 0.23901 0.71163
H1B H 0.29550 0.13220 0.71720
C6C C 0.29017 0.46192 0.69898
O1B O 0.52889 0.54991 0.71534
H1A H 0.13220 0.71720 0.29550
H3A H 0.02290 0.67010 0.04140
H4A H 0.17110 0.79280 0.04920
H5A H 0.10650 0.64460 -0.04550
C5C C 0.29873 0.82320 0.64107
C7C C 0.28911 0.58891 0.55524
H6A H 0.74370 0.87090 0.73340
H7A H 0.61680 0.93220 0.69240
H8A H 0.69840 0.92540 0.61950
C4B C 0.05480 0.12534 0.71008
C5B C 0.17680 0.35893 0.70127
C1C C 0.28493 0.58509 0.67764
C8B C 0.65471 0.66821 0.86905
C3C C 0.28837 0.82021 0.76099
H2C H 0.31060 0.91190 0.62830
O1C O 0.28466 0.47111 0.45009
H3B H 0.04140 0.02290 0.67010
H4B H 0.04920 0.17110 0.79280
H5B H -0.04550 0.10650 0.64460
H2B H 0.08810 0.37170 0.68940
C2C C 0.28250 0.70004 0.77737
H6B H 0.73340 0.74370 0.87090
H7B H 0.69240 0.61680 0.93220
H8B H 0.61950 0.69840 0.92540
C4C C 0.28992 0.94520 0.87466
C8C C 0.13095 0.34529 0.33179
H1C H 0.28280 0.70450 0.86780
H3C H 0.32990 0.95860 0.97710
H4C H 0.20720 0.95080 0.82890
H5C H 0.35540 1.04550 0.89350
H6C H 0.12910 0.26660 0.25630
H7C H 0.06780 0.30760 0.38320
H8C H 0.07460 0.38050 0.30160
loop_
_geom_bond_atom_site_label_1
_geom_bond_atom_site_label_2
_geom_bond_site_symmetry_1
_geom_bond_site_symmetry_2
C1 C2 1_555 1_555
C2 C3 1_555 1_555
C3 C4 1_555 1_555
C4 H3 1_555 1_555
C5 C3 1_555 1_555
C6 C1 1_555 1_555
C7 C1 1_555 1_555
O1 C7 1_555 1_555
C8 O1 1_555 1_555
H1 C2 1_555 1_555
H2 C5 1_555 1_555
H4 C4 1_555 1_555
H5 C4 1_555 1_555
H6 C8 1_555 1_555
H7 C8 1_555 1_555
H8 C8 1_555 1_555
C6D C5 1_555 1_555
C5E C6 1_555 1_555
C7E C6 1_555 1_555
C1D C6D 1_555 1_555
C3E C5E 1_555 1_555
H2E C5E 1_555 1_555
C1E C7E 1_555 1_555
O1E C7E 1_555 1_555
C2D C1D 1_555 1_555
C7D C1D 1_555 1_555
C2E C3E 1_555 1_555
C4E C3E 1_555 1_555
C6E C1E 1_555 1_555
C8E O1E 1_555 1_555
C3D C2D 1_555 1_555
H1D C2D 1_555 1_555
C6B C7D 1_555 1_555
O1D C7D 1_555 1_555
H1E C2E 1_555 1_555
H3E C4E 1_555 1_555
H4E C4E 1_555 1_555
H5E C4E 1_555 1_555
C5A C6E 1_555 1_555
C7A C6E 1_555 1_555
H6E C8E 1_555 1_555
H7E C8E 1_555 1_555
H8E C8E 1_555 1_555
C4D C3D 1_555 1_555
C5D C3D 1_555 1_555
C1B C6B 1_555 1_555
C8D O1D 1_555 1_555
C3A C5A 1_555 1_555
H2A C5A 1_555 1_555
C1A C7A 1_555 1_555
O1A C7A 1_555 1_555
H3D C4D 1_555 1_555
H4D C4D 1_555 1_555
H5D C4D 1_555 1_555
H2D C5D 1_555 1_555
C2B C1B 1_555 1_555
C7B C1B 1_555 1_555
H6D C8D 1_555 1_555
H7D C8D 1_555 1_555
H8D C8D 1_555 1_555
C2A C3A 1_555 1_555
C4A C3A 1_555 1_555
C6A C1A 1_555 1_555
C8A O1A 1_555 1_555
C3B C2B 1_555 1_555
H1B C2B 1_555 1_555
C6C C7B 1_555 1_555
O1B C7B 1_555 1_555
H1A C2A 1_555 1_555
H3A C4A 1_555 1_555
H4A C4A 1_555 1_555
H5A C4A 1_555 1_555
C5C C6A 1_555 1_555
C7C C6A 1_555 1_555
H6A C8A 1_555 1_555
H7A C8A 1_555 1_555
H8A C8A 1_555 1_555
C4B C3B 1_555 1_555
C5B C3B 1_555 1_555
C1C C6C 1_555 1_555
C8B O1B 1_555 1_555
C3C C5C 1_555 1_555
H2C C5C 1_555 1_555
O1C C7C 1_555 1_555
H3B C4B 1_555 1_555
H4B C4B 1_555 1_555
H5B C4B 1_555 1_555
H2B C5B 1_555 1_555
C2C C1C 1_555 1_555
H6B C8B 1_555 1_555
H7B C8B 1_555 1_555
H8B C8B 1_555 1_555
C4C C3C 1_555 1_555
C8C O1C 1_555 1_555
H1C C2C 1_555 1_555
H3C C4C 1_555 1_555
H4C C4C 1_555 1_555
H5C C4C 1_555 1_555
H6C C8C 1_555 1_555
H7C C8C 1_555 1_555
H8C C8C 1_555 1_555
C7 C6D 1_555 1_555
C1E C2E 1_555 1_555
C6B C5D 1_555 1_555
C1A C2A 1_555 1_555
C6C C5B 1_555 1_555
C7C C1C 1_555 1_555
C3C C2C 1_555 1_555

#END
