
#######################################################################
#
#                 Cambridge Crystallographic Data Centre
#                                CCDC 
#
#######################################################################
#
# If this CIF has been generated from an entry in the Cambridge 
# Structural Database, then it will include bibliographic, chemical, 
# crystal, experimental, refinement or atomic coordinate data resulting 
# from the CCDC's data processing and validation procedures.
#
#######################################################################

data_CAYLOE
_chemical_formula_moiety         'C18 H24 O3'
_chemical_name_systematic        
trans-4a-Hydroxy-1,1-dimethyl-7-methoxy-1,2,3,4,4a,5,11,11a-octahydrodibenzo(a,d)cyclohepten-10-one
_symmetry_cell_setting           monoclinic
_symmetry_space_group_name_H-M   'P 21/c'
_symmetry_Int_Tables_number      14
_space_group_name_Hall           '-P 2ybc'
loop_
_symmetry_equiv_pos_site_id
_symmetry_equiv_pos_as_xyz
1 x,y,z
2 -x,1/2+y,1/2-z
3 -x,-y,-z
4 x,1/2-y,1/2+z
_cell_length_a                   14.229(17)
_cell_length_b                   10.299(12)
_cell_length_c                   22.84(2)
_cell_angle_alpha                90
_cell_angle_beta                 103.564(10)
_cell_angle_gamma                90
_cell_volume                     3253.72
_exptl_crystal_colour            white
_exptl_crystal_description       parallelepiped
_cell_formula_units_Z            8
loop_
_atom_site_label
_atom_site_type_symbol
_atom_site_fract_x
_atom_site_fract_y
_atom_site_fract_z
C1 C 0.6672(2) 0.2186(3) 0.31368(15)
H1 H 0.7295 0.2232 0.3077
C2 C 0.6540(2) 0.1659(3) 0.36661(15)
H2 H 0.7063 0.1349 0.3957
C3 C 0.5605(2) 0.1598(3) 0.37583(14)
O1 O 0.53725(17) 0.1118(2) 0.42658(10)
C4 C 0.6149(3) 0.0706(4) 0.47483(16)
H3 H 0.5892 0.0379 0.5072
H4 H 0.6567 0.1428 0.4888
H5 H 0.6508 0.0033 0.4608
C5 C 0.4830(2) 0.2060(3) 0.33152(13)
H6 H 0.4210 0.2008 0.3381
C6 C 0.4948(2) 0.2594(3) 0.27798(13)
C7 C 0.4097(2) 0.3175(3) 0.23349(13)
H7 H 0.4264 0.4058 0.2251
H8 H 0.3558 0.3223 0.2527
C8 C 0.3749(2) 0.2453(3) 0.17217(12)
O2 O 0.32625(15) 0.3380(2) 0.12855(9)
H9 H 0.2805 0.3694 0.1398
C9 C 0.3061(2) 0.1341(3) 0.17694(14)
H10 H 0.2489 0.1686 0.1876
H11 H 0.3375 0.0751 0.2086
C10 C 0.2762(3) 0.0597(4) 0.11754(16)
H12 H 0.2350 -0.0126 0.1223
H13 H 0.2397 0.1165 0.0866
C11 C 0.3647(3) 0.0089(3) 0.09814(16)
H14 H 0.3433 -0.0352 0.0598
H15 H 0.3967 -0.0547 0.1274
C12 C 0.4389(2) 0.1140(3) 0.09167(13)
C13 C 0.4010(3) 0.1964(4) 0.03467(14)
H16 H 0.3879 0.1410 -0.0001
H17 H 0.4489 0.2596 0.0309
H18 H 0.3427 0.2399 0.0377
C14 C 0.5315(3) 0.0425(4) 0.08526(16)
H19 H 0.5752 0.1036 0.0741
H20 H 0.5148 -0.0231 0.0547
H21 H 0.5619 0.0027 0.1230
C15 C 0.46355(19) 0.1941(3) 0.15099(12)
H22 H 0.4949 0.1324 0.1822
C16 C 0.5379(2) 0.3029(3) 0.15292(14)
H23 H 0.5713 0.2880 0.1211
H24 H 0.5037 0.3848 0.1445
C17 C 0.6121(2) 0.3151(3) 0.21176(15)
O3 O 0.69255(18) 0.3588(3) 0.21274(12)
C18 C 0.5904(2) 0.2653(3) 0.26858(14)
C19 C 0.8055(2) 0.6602(3) 0.17920(14)
H25 H 0.8447 0.7191 0.2080
H26 H 0.7526 0.6302 0.1959
C20 C 0.8666(2) 0.5447(3) 0.16951(13)
O4 O 0.80573(16) 0.4527(2) 0.12991(10)
H27 H 0.7715 0.4142 0.1485
C21 C 0.9106(2) 0.4726(3) 0.22930(14)
H28 H 0.8626 0.4717 0.2532
H29 H 0.9218 0.3831 0.2195
C22 C 1.0034(2) 0.5247(3) 0.26822(14)
C23 C 1.0048(2) 0.5741(3) 0.32504(14)
H30 H 0.9469 0.5811 0.3371
C24 C 1.0903(2) 0.6137(3) 0.36463(15)
C25 C 0.7643(2) 0.7330(4) 0.12030(16)
H31 H 0.7203 0.6769 0.0926
H32 H 0.7284 0.8084 0.1283
O5 O 1.08096(18) 0.6558(3) 0.41965(11)
C26 C 1.1674(3) 0.6845(5) 0.46344(19)
H33 H 1.1519 0.7058 0.5010
H34 H 1.1994 0.7569 0.4500
H35 H 1.2093 0.6102 0.4688
C27 C 1.1771(2) 0.5567(3) 0.29080(16)
H36 H 1.2355 0.5507 0.2793
C28 C 1.1771(2) 0.6059(3) 0.34714(16)
H37 H 1.2344 0.6334 0.3729
C29 C 0.8463(2) 0.7764(3) 0.09158(16)
H38 H 0.8855 0.8398 0.1178
H39 H 0.8181 0.8195 0.0538
C30 C 0.9126(2) 0.6666(3) 0.07938(15)
C31 C 0.8614(3) 0.5821(4) 0.02580(16)
H40 H 0.9027 0.5111 0.0210
H41 H 0.8474 0.6337 -0.0102
H42 H 0.8022 0.5488 0.0332
C32 C 1.0008(3) 0.7311(4) 0.06335(19)
H43 H 1.0428 0.6652 0.0541
H44 H 1.0351 0.7815 0.0970
H45 H 0.9796 0.7866 0.0290
C33 C 0.9472(2) 0.5890(3) 0.13908(13)
H46 H 0.9856 0.6512 0.1674
C34 C 1.0173(2) 0.4757(3) 0.13646(15)
H47 H 0.9814 0.3949 0.1327
H48 H 1.0422 0.4855 0.1006
O6 O 1.17956(19) 0.4269(3) 0.18476(14)
C35 C 1.1012(2) 0.4670(3) 0.19041(16)
C36 C 1.0928(2) 0.5156(3) 0.25052(14)
loop_
_geom_bond_atom_site_label_1
_geom_bond_atom_site_label_2
_geom_bond_site_symmetry_1
_geom_bond_site_symmetry_2
C1 H1 1_555 1_555
C2 C1 1_555 1_555
H2 C2 1_555 1_555
C3 C2 1_555 1_555
O1 C3 1_555 1_555
C4 O1 1_555 1_555
H3 C4 1_555 1_555
H4 C4 1_555 1_555
H5 C4 1_555 1_555
C5 C3 1_555 1_555
H6 C5 1_555 1_555
C6 C5 1_555 1_555
C7 C6 1_555 1_555
H7 C7 1_555 1_555
H8 C7 1_555 1_555
C8 C7 1_555 1_555
O2 C8 1_555 1_555
H9 O2 1_555 1_555
C9 C8 1_555 1_555
H10 C9 1_555 1_555
H11 C9 1_555 1_555
C10 C9 1_555 1_555
H12 C10 1_555 1_555
H13 C10 1_555 1_555
C11 C10 1_555 1_555
H14 C11 1_555 1_555
H15 C11 1_555 1_555
C12 C11 1_555 1_555
C13 C12 1_555 1_555
H16 C13 1_555 1_555
H17 C13 1_555 1_555
H18 C13 1_555 1_555
C14 C12 1_555 1_555
H19 C14 1_555 1_555
H20 C14 1_555 1_555
H21 C14 1_555 1_555
C15 C8 1_555 1_555
H22 C15 1_555 1_555
C16 C15 1_555 1_555
H23 C16 1_555 1_555
H24 C16 1_555 1_555
C17 C16 1_555 1_555
O3 C17 1_555 1_555
C18 C1 1_555 1_555
C19 H25 1_555 1_555
H26 C19 1_555 1_555
C20 C19 1_555 1_555
O4 C20 1_555 1_555
H27 O4 1_555 1_555
C21 C20 1_555 1_555
H28 C21 1_555 1_555
H29 C21 1_555 1_555
C22 C21 1_555 1_555
C23 C22 1_555 1_555
H30 C23 1_555 1_555
C24 C23 1_555 1_555
C25 C19 1_555 1_555
H31 C25 1_555 1_555
H32 C25 1_555 1_555
O5 C24 1_555 1_555
C26 O5 1_555 1_555
H33 C26 1_555 1_555
H34 C26 1_555 1_555
H35 C26 1_555 1_555
C27 H36 1_555 1_555
C28 C24 1_555 1_555
H37 C28 1_555 1_555
C29 C25 1_555 1_555
H38 C29 1_555 1_555
H39 C29 1_555 1_555
C30 C29 1_555 1_555
C31 C30 1_555 1_555
H40 C31 1_555 1_555
H41 C31 1_555 1_555
H42 C31 1_555 1_555
C32 C30 1_555 1_555
H43 C32 1_555 1_555
H44 C32 1_555 1_555
H45 C32 1_555 1_555
C33 C20 1_555 1_555
H46 C33 1_555 1_555
C34 C33 1_555 1_555
H47 C34 1_555 1_555
H48 C34 1_555 1_555
O6 C35 1_555 1_555
C35 C34 1_555 1_555
C36 C22 1_555 1_555
C6 C18 1_555 1_555
C12 C15 1_555 1_555
C17 C18 1_555 1_555
C27 C28 1_555 1_555
C27 C36 1_555 1_555
C30 C33 1_555 1_555
C35 C36 1_555 1_555

#END
