
#######################################################################
#
#                 Cambridge Crystallographic Data Centre
#                                CCDC 
#
#######################################################################
#
# If this CIF has been generated from an entry in the Cambridge 
# Structural Database, then it will include bibliographic, chemical, 
# crystal, experimental, refinement or atomic coordinate data resulting 
# from the CCDC's data processing and validation procedures.
#
#######################################################################

data_CAYLIY
_chemical_formula_moiety         'C20 H28 Br2 O2'
_chemical_name_systematic        
(2S*,3aS*,7aS*)-7a-(2-bromo-5-methoxy-4-methylbenzyl)-2-bromomethyl-4,4-dimethyloctahydrobenzofuran
_symmetry_cell_setting           monoclinic
_symmetry_space_group_name_H-M   'P 21/n'
_symmetry_Int_Tables_number      14
_space_group_name_Hall           '-P 2yn'
loop_
_symmetry_equiv_pos_site_id
_symmetry_equiv_pos_as_xyz
1 x,y,z
2 1/2-x,1/2+y,1/2-z
3 -x,-y,-z
4 1/2+x,1/2-y,1/2+z
_cell_length_a                   7.501(9)
_cell_length_b                   18.09(2)
_cell_length_c                   14.922(16)
_cell_angle_alpha                90
_cell_angle_beta                 101.720(10)
_cell_angle_gamma                90
_cell_volume                     1982.6
_exptl_crystal_colour            white
_exptl_crystal_description       needle
_chemical_melting_point          '124-126 deg.C'
_cell_formula_units_Z            4
loop_
_atom_site_label
_atom_site_type_symbol
_atom_site_fract_x
_atom_site_fract_y
_atom_site_fract_z
Br1 Br 0.81784(11) 0.14913(4) 0.63011(5)
Br2 Br -0.22905(12) 0.37115(5) 0.28403(6)
C1 C 0.7787(10) 0.2538(4) 0.6160(4)
C2 C 0.9337(9) 0.2976(4) 0.6347(4)
H1 H 1.0474 0.2754 0.6513
C3 C 0.9219(9) 0.3744(4) 0.6288(4)
C4 C 1.0906(11) 0.4215(5) 0.6482(6)
H2 H 1.0996 0.4491 0.5943
H3 H 1.1958 0.3905 0.6653
H4 H 1.0840 0.4551 0.6972
O1 O 0.7386(7) 0.4812(3) 0.6041(4)
C5 C 0.5816(12) 0.5156(4) 0.6239(6)
H5 H 0.4787 0.5051 0.5758
H6 H 0.6004 0.5681 0.6285
H7 H 0.5591 0.4970 0.6808
C6 C 0.7471(10) 0.4041(4) 0.6060(4)
C7 C 0.5929(10) 0.3605(4) 0.5866(4)
H8 H 0.4789 0.3827 0.5717
C8 C 0.6062(9) 0.2837(4) 0.5892(4)
C9 C 0.4345(9) 0.2374(4) 0.5643(4)
H9 H 0.3484 0.2545 0.6002
H10 H 0.4649 0.1866 0.5819
C10 C 0.3397(9) 0.2385(4) 0.4624(4)
O2 O 0.2641(7) 0.3115(3) 0.4448(3)
C11 C 0.1126(10) 0.3086(4) 0.3688(5)
H11 H 0.1519 0.3254 0.3134
C12 C 0.0530(11) 0.2275(4) 0.3569(5)
H12 H 0.0746 0.2079 0.2996
H13 H -0.0753 0.2225 0.3580
C13 C 0.1718(9) 0.1870(4) 0.4394(4)
H14 H 0.1080 0.1900 0.4905
C14 C 0.2038(9) 0.1040(4) 0.4222(4)
C15 C 0.0233(11) 0.0683(4) 0.3776(5)
H15 H -0.0650 0.0770 0.4148
H16 H 0.0404 0.0160 0.3719
H17 H -0.0191 0.0893 0.3180
C16 C 0.2787(12) 0.0631(4) 0.5121(5)
H18 H 0.3997 0.0802 0.5371
H19 H 0.2814 0.0109 0.5004
H20 H 0.2017 0.0725 0.5549
C17 C 0.3402(10) 0.0962(4) 0.3577(5)
H21 H 0.3729 0.0445 0.3545
H22 H 0.2814 0.1117 0.2966
C18 C 0.5134(11) 0.1416(5) 0.3888(5)
H23 H 0.5781 0.1234 0.4476
H24 H 0.5920 0.1355 0.3451
C19 C 0.4708(10) 0.2237(5) 0.3971(4)
H25 H 0.4172 0.2428 0.3370
H26 H 0.5836 0.2502 0.4191
C20 C -0.0270(12) 0.3601(5) 0.3899(5)
H27 H 0.0280 0.4080 0.4065
H28 H -0.0734 0.3414 0.4417
loop_
_geom_bond_atom_site_label_1
_geom_bond_atom_site_label_2
_geom_bond_site_symmetry_1
_geom_bond_site_symmetry_2
Br1 C1 1_555 1_555
Br2 C20 1_555 1_555
C1 C2 1_555 1_555
C2 H1 1_555 1_555
C3 C2 1_555 1_555
C4 C3 1_555 1_555
H2 C4 1_555 1_555
H3 C4 1_555 1_555
H4 C4 1_555 1_555
O1 C5 1_555 1_555
C5 H5 1_555 1_555
H6 C5 1_555 1_555
H7 C5 1_555 1_555
C6 C3 1_555 1_555
C7 C6 1_555 1_555
H8 C7 1_555 1_555
C8 C1 1_555 1_555
C9 C8 1_555 1_555
H9 C9 1_555 1_555
H10 C9 1_555 1_555
C10 C9 1_555 1_555
O2 C10 1_555 1_555
C11 O2 1_555 1_555
H11 C11 1_555 1_555
C12 C11 1_555 1_555
H12 C12 1_555 1_555
H13 C12 1_555 1_555
C13 C10 1_555 1_555
H14 C13 1_555 1_555
C14 C13 1_555 1_555
C15 C14 1_555 1_555
H15 C15 1_555 1_555
H16 C15 1_555 1_555
H17 C15 1_555 1_555
C16 C14 1_555 1_555
H18 C16 1_555 1_555
H19 C16 1_555 1_555
H20 C16 1_555 1_555
C17 C14 1_555 1_555
H21 C17 1_555 1_555
H22 C17 1_555 1_555
C18 C17 1_555 1_555
H23 C18 1_555 1_555
H24 C18 1_555 1_555
C19 C10 1_555 1_555
H25 C19 1_555 1_555
H26 C19 1_555 1_555
C20 C11 1_555 1_555
H27 C20 1_555 1_555
H28 C20 1_555 1_555
O1 C6 1_555 1_555
C7 C8 1_555 1_555
C12 C13 1_555 1_555
C18 C19 1_555 1_555

#END
