
#######################################################################
#
#                 Cambridge Crystallographic Data Centre
#                                CCDC 
#
#######################################################################
#
# If this CIF has been generated from an entry in the Cambridge 
# Structural Database, then it will include bibliographic, chemical, 
# crystal, experimental, refinement or atomic coordinate data resulting 
# from the CCDC's data processing and validation procedures.
#
#######################################################################

data_CAYMOH
_chemical_formula_moiety         'C25 H37 O3,0.2(C6 H6),0.4(C6 H14)'
_chemical_name_systematic        
'(-)-2-(2-hydroxy-2,5,5,8a-tetramethyl-1,2,4a,5,6,7,8,8a-octahydronaphthalen-1-yl)-7-methyl-4-methylidene-3,4,4a,5,6,8a-hexahydro-2H-1-benzopyran-6-ol benzene n-hexane solvate'
_symmetry_cell_setting           tetragonal
_symmetry_space_group_name_H-M   'P 41 21 2'
_symmetry_Int_Tables_number      92
_space_group_name_Hall           'P 4abw 2nw'
loop_
_symmetry_equiv_pos_site_id
_symmetry_equiv_pos_as_xyz
1 x,y,z
2 1/2-y,1/2+x,1/4+z
3 -x,-y,1/2+z
4 1/2+y,1/2-x,3/4+z
5 1/2+x,1/2-y,3/4-z
6 1/2-x,1/2+y,1/4-z
7 y,x,-z
8 -y,-x,1/2-z
_cell_length_a                   12.0794(2)
_cell_length_b                   12.0794(2)
_cell_length_c                   43.2315(16)
_cell_angle_alpha                90
_cell_angle_beta                 90
_cell_angle_gamma                90
_cell_volume                     6307.99
_exptl_crystal_colour            colorless
_exptl_crystal_description       block
_cell_formula_units_Z            8
_chemical_properties_physical    air-sensitive
_exptl_crystal_recrystallization_method benzene/hexane
loop_
_atom_site_label
_atom_site_type_symbol
_atom_site_fract_x
_atom_site_fract_y
_atom_site_fract_z
C26 C 0.057(2) 0.751(2) 0.6372(6)
C27 C 0.1365(19) 0.7696(19) 0.6154(5)
C28 C 0.216(3) 0.693(2) 0.6079(8)
C29 C 0.136(3) 0.577(3) 0.6462(8)
C30 C 0.215(3) 0.595(2) 0.6244(8)
C31 C 0.059(3) 0.656(2) 0.6548(7)
O1 O 0.6859(2) 0.8409(2) 0.50588(6)
H1 H 0.7266 0.8962 0.5027
O2 O 0.38218(17) 0.82728(19) 0.53473(5)
O3 O -0.00237(19) 0.8413(2) 0.50370(6)
C1 C 0.6443(3) 0.8442(3) 0.53732(8)
C2 C 0.7412(3) 0.8327(3) 0.55910(9)
H2 H 0.7979 0.8870 0.5580
C3 C 0.7526(3) 0.7521(4) 0.57964(9)
H3 H 0.8165 0.7521 0.5925
C4 C 0.6686(3) 0.6600(3) 0.58366(9)
H4 H 0.6883 0.6043 0.5675
C5 C 0.6797(4) 0.5962(4) 0.61487(10)
C6 C 0.5928(5) 0.5034(4) 0.61499(11)
H5 H 0.6145 0.4467 0.5996
H6 H 0.5929 0.4676 0.6356
C7 C 0.4759(5) 0.5424(4) 0.60773(10)
H7 H 0.4503 0.5933 0.6242
H8 H 0.4253 0.4779 0.6073
C8 C 0.4725(4) 0.6025(3) 0.57610(8)
H9 H 0.4922 0.5491 0.5596
H10 H 0.3961 0.6284 0.5722
C9 C 0.5512(3) 0.7013(3) 0.57443(7)
C10 C 0.5654(3) 0.7431(3) 0.54033(7)
H11 H 0.6069 0.6818 0.5300
C11 C 0.4633(3) 0.7601(3) 0.51945(7)
H12 H 0.4893 0.8037 0.5012
C12 C 0.4067(3) 0.6572(3) 0.50645(8)
H13 H 0.4614 0.6120 0.4950
H14 H 0.3773 0.6118 0.5236
C13 C 0.3136(3) 0.6899(3) 0.48515(7)
C14 C 0.2376(3) 0.7788(3) 0.49747(8)
H15 H 0.1955 0.8110 0.4797
C15 C 0.3049(3) 0.8720(3) 0.51275(8)
H16 H 0.3471 0.9124 0.4963
C16 C 0.2328(3) 0.9528(3) 0.52951(10)
H17 H 0.2649 1.0213 0.5355
C17 C 0.1274(3) 0.9358(3) 0.53668(9)
C18 C 0.0721(3) 0.8271(3) 0.52916(8)
H18 H 0.0283 0.8031 0.5476
C19 C 0.1544(3) 0.7359(3) 0.52124(8)
H19 H 0.1145 0.6711 0.5127
H20 H 0.1938 0.7121 0.5402
C20 C 0.5922(3) 0.9578(3) 0.54088(9)
H21 H 0.6492 1.0149 0.5384
H22 H 0.5587 0.9641 0.5614
H23 H 0.5350 0.9679 0.5250
C21 C 0.7936(5) 0.5424(5) 0.61615(15)
H24 H 0.8118 0.5114 0.5958
H25 H 0.7932 0.4831 0.6316
H26 H 0.8490 0.5981 0.6218
C22 C 0.6675(5) 0.6693(4) 0.64381(10)
H27 H 0.7166 0.7336 0.6420
H28 H 0.6875 0.6264 0.6622
H29 H 0.5906 0.6944 0.6456
C23 C 0.5070(3) 0.7943(4) 0.59554(8)
H30 H 0.5672 0.8456 0.6005
H31 H 0.4779 0.7619 0.6147
H32 H 0.4477 0.8343 0.5848
C24 C 0.2987(4) 0.6434(4) 0.45785(9)
H33 H 0.3477 0.5870 0.4510
H34 H 0.2389 0.6663 0.4451
C25 C 0.0566(4) 1.0209(4) 0.55235(13)
H35 H -0.0016 1.0455 0.5381
H36 H 0.1025 1.0844 0.5583
H37 H 0.0228 0.9885 0.5709
H38? H 0.7285 0.7864 0.5038
H39? H -0.0293 0.7797 0.4988
C32? C 0.144(4) 0.733(4) 0.6749(7)
C33? C 0.138(3) 0.719(2) 0.6402(6)
C34? C 0.173(12) 0.696(6) 0.6112(15)
C35? C 0.135(3) 0.598(2) 0.6304(9)
C36? C 0.114(2) 0.590(3) 0.6011(7)
C37? C 0.115(3) 0.471(3) 0.5887(8)
C38? C 0.051(4) 0.424(4) 0.5608(10)
C39? C 0.104(2) 0.533(3) 0.5988(7)
H40? H -0.0432 0.8963 0.5070
C40? C 0.3294(16) 0.3294(16) 0.5000
C41? C 0.362(3) 0.327(4) 0.5157(10)
C42? C -0.024(3) 0.512(3) 0.5543(7)
C43? C 0.049(5) 0.452(3) 0.5772(11)
C44? C 0.092(4) 0.357(4) 0.5581(10)
C45? C 0.172(2) 0.372(2) 0.5327(6)
C46? C 0.248(4) 0.283(5) 0.5232(13)
loop_
_geom_bond_atom_site_label_1
_geom_bond_atom_site_label_2
_geom_bond_site_symmetry_1
_geom_bond_site_symmetry_2
O1 H1 1_555 1_555
O2 C11 1_555 1_555
O3 C18 1_555 1_555
C1 O1 1_555 1_555
C2 C1 1_555 1_555
H2 C2 1_555 1_555
C3 C2 1_555 1_555
H3 C3 1_555 1_555
C4 C3 1_555 1_555
H4 C4 1_555 1_555
C5 C4 1_555 1_555
C6 C5 1_555 1_555
H5 C6 1_555 1_555
H6 C6 1_555 1_555
C7 C6 1_555 1_555
H7 C7 1_555 1_555
H8 C7 1_555 1_555
C8 C7 1_555 1_555
H9 C8 1_555 1_555
H10 C8 1_555 1_555
C9 C4 1_555 1_555
C10 C1 1_555 1_555
H11 C10 1_555 1_555
C11 C10 1_555 1_555
H12 C11 1_555 1_555
C12 C11 1_555 1_555
H13 C12 1_555 1_555
H14 C12 1_555 1_555
C13 C12 1_555 1_555
C14 C13 1_555 1_555
H15 C14 1_555 1_555
C15 O2 1_555 1_555
H16 C15 1_555 1_555
C16 C15 1_555 1_555
H17 C16 1_555 1_555
C17 C16 1_555 1_555
C18 C17 1_555 1_555
H18 C18 1_555 1_555
C19 C14 1_555 1_555
H19 C19 1_555 1_555
H20 C19 1_555 1_555
C20 C1 1_555 1_555
H21 C20 1_555 1_555
H22 C20 1_555 1_555
H23 C20 1_555 1_555
C21 C5 1_555 1_555
H24 C21 1_555 1_555
H25 C21 1_555 1_555
H26 C21 1_555 1_555
C22 C5 1_555 1_555
H27 C22 1_555 1_555
H28 C22 1_555 1_555
H29 C22 1_555 1_555
C23 C9 1_555 1_555
H30 C23 1_555 1_555
H31 C23 1_555 1_555
H32 C23 1_555 1_555
C24 C13 1_555 1_555
H33 C24 1_555 1_555
H34 C24 1_555 1_555
C25 C17 1_555 1_555
H35 C25 1_555 1_555
H36 C25 1_555 1_555
H37 C25 1_555 1_555
C26 C27 1_555 1_555
C27 C28 1_555 1_555
C28 C30 1_555 1_555
C29 C30 1_555 1_555
C31 C26 1_555 1_555
C8 C9 1_555 1_555
C9 C10 1_555 1_555
C14 C15 1_555 1_555
C18 C19 1_555 1_555
C29 C31 1_555 1_555

#END
