
#######################################################################
#
#                 Cambridge Crystallographic Data Centre
#                                CCDC 
#
#######################################################################
#
# If this CIF has been generated from an entry in the Cambridge 
# Structural Database, then it will include bibliographic, chemical, 
# crystal, experimental, refinement or atomic coordinate data resulting 
# from the CCDC's data processing and validation procedures.
#
#######################################################################

data_CAYNUO
_chemical_name_common            
3-((R)-hex-1-en-3-yl)-3-(((R)-1-hydroxy-3-phenylpropan-2-yl)amino)indolin-2-one
_chemical_formula_moiety         'C23 H28 N2 O2'
_chemical_name_systematic        
3-(hex-1-en-3-yl)-3-((1-hydroxy-3-phenylpropan-2-yl)amino)-1,3-dihydro-2H-indol-2-one
_symmetry_cell_setting           rhombohedral
_symmetry_space_group_name_H-M   'R 3'
_symmetry_Int_Tables_number      146
_space_group_name_Hall           'R 3'
loop_
_symmetry_equiv_pos_site_id
_symmetry_equiv_pos_as_xyz
1 x,y,z
2 -y,x-y,z
3 -x+y,-x,z
4 2/3+x,1/3+y,1/3+z
5 2/3-y,1/3+x-y,1/3+z
6 2/3-x+y,1/3-x,1/3+z
7 1/3+x,2/3+y,2/3+z
8 1/3-y,2/3+x-y,2/3+z
9 1/3-x+y,2/3-x,2/3+z
_cell_length_a                   23.1512(7)
_cell_length_b                   23.1512(7)
_cell_length_c                   10.3277(3)
_cell_angle_alpha                90
_cell_angle_beta                 90
_cell_angle_gamma                120
_cell_volume                     4793.81
_exptl_crystal_colour            colorless
_exptl_crystal_description       Block
_chemical_melting_point          '435-437 K'
_cell_formula_units_Z            9
_exptl_crystal_recrystallization_method toluene
loop_
_atom_site_label
_atom_site_type_symbol
_atom_site_fract_x
_atom_site_fract_y
_atom_site_fract_z
O1 O 0.62268(18) 0.96521(15) 0.6448(5)
N1 N 0.61000(18) 0.86527(18) 0.4503(5)
N2 N 0.6444(2) 0.89794(18) 0.7722(5)
H1 H 0.6660 0.9260 0.8329
O2 O 0.7455(2) 0.9842(2) 0.3798(7)
H2 H 0.7122 0.9880 0.3752
C1 C 0.5962(2) 0.8006(2) 0.6588(5)
C2 C 0.5783(2) 0.7349(2) 0.6373(6)
H3 H 0.5554 0.7132 0.5624
C3 C 0.6310(2) 0.8321(2) 0.7705(6)
C4 C 0.6194(2) 0.9121(2) 0.6672(5)
C5 C 0.58383(19) 0.84920(19) 0.5824(5)
C6 C 0.4779(2) 0.8151(3) 0.7147(6)
H4 H 0.4739 0.7736 0.7453
H5 H 0.5077 0.8502 0.7732
C7 C 0.5093(2) 0.8300(2) 0.5797(5)
H6 H 0.5075 0.8687 0.5464
C8 C 0.6731(2) 0.8663(2) 0.4223(6)
H7 H 0.6739 0.8308 0.4724
C9 C 0.7332(2) 0.9325(3) 0.4605(4)
C10 C 0.6470(3) 0.7997(3) 0.8641(6)
H8 H 0.6693 0.8212 0.9397
C11 C 0.6756(3) 0.8524(3) 0.2787(6)
H9 H 0.6736 0.8868 0.2284
H10 H 0.7177 0.8548 0.2599
C12 C 0.5949(3) 0.7017(3) 0.7297(8)
H11 H 0.5833 0.6575 0.7160
C13 C 0.6202(3) 0.7862(3) 0.2384(6)
C14 C 0.4686(2) 0.7731(3) 0.4907(6)
H12 H 0.4639 0.7320 0.5127
C15 C 0.6282(4) 0.7336(3) 0.8399(8)
H13 H 0.6386 0.7104 0.9003
C16 C 0.4100(3) 0.8095(4) 0.7203(7)
H14 H 0.4141 0.8515 0.6933
H15 H 0.3805 0.7754 0.6597
C17 C 0.5152(4) 0.7186(4) 0.1324(9)
H16 H 0.4795 0.7150 0.0846
C18 C 0.5684(4) 0.7806(3) 0.1636(7)
H17 H 0.5692 0.8189 0.1337
C19 C 0.5158(6) 0.6639(4) 0.1717(10)
H18 H 0.4816 0.6227 0.1438
C20 C 0.4393(4) 0.7754(5) 0.3861(7)
C21 C 0.6168(4) 0.7266(4) 0.2790(7)
H19 H 0.6517 0.7286 0.3271
C22 C 0.3796(3) 0.7923(4) 0.8525(7)
H20 H 0.4085 0.8259 0.9128
H21 H 0.3738 0.7499 0.8784
H22 H 0.3371 0.7901 0.8510
C23 C 0.5627(7) 0.6651(4) 0.2488(10)
H23 H 0.5591 0.6259 0.2811
H24 H 0.576(2) 0.835(2) 0.403(4)
H25 H 0.433(2) 0.8122(15) 0.358(8)
H26 H 0.415(4) 0.7373(17) 0.328(4)
H27 H 0.7383(18) 0.9428(17) 0.5534(8)
H28 H 0.7750(9) 0.9320(17) 0.452(5)
loop_
_geom_bond_atom_site_label_1
_geom_bond_atom_site_label_2
_geom_bond_site_symmetry_1
_geom_bond_site_symmetry_2
O1 C4 1_555 1_555
N1 C5 1_555 1_555
N2 H1 1_555 1_555
O2 H2 1_555 1_555
C1 C2 1_555 1_555
C2 H3 1_555 1_555
C3 N2 1_555 1_555
C4 N2 1_555 1_555
C5 C1 1_555 1_555
C6 H4 1_555 1_555
H5 C6 1_555 1_555
C7 C5 1_555 1_555
H6 C7 1_555 1_555
C8 N1 1_555 1_555
H7 C8 1_555 1_555
C9 O2 1_555 1_555
C10 C3 1_555 1_555
H8 C10 1_555 1_555
C11 C8 1_555 1_555
H9 C11 1_555 1_555
H10 C11 1_555 1_555
C12 C2 1_555 1_555
H11 C12 1_555 1_555
C13 C11 1_555 1_555
C14 C7 1_555 1_555
H12 C14 1_555 1_555
C15 C10 1_555 1_555
H13 C15 1_555 1_555
C16 C6 1_555 1_555
H14 C16 1_555 1_555
H15 C16 1_555 1_555
C17 H16 1_555 1_555
C18 C13 1_555 1_555
H17 C18 1_555 1_555
C19 C17 1_555 1_555
H18 C19 1_555 1_555
C20 C14 1_555 1_555
C21 C13 1_555 1_555
H19 C21 1_555 1_555
C22 C16 1_555 1_555
H20 C22 1_555 1_555
H21 C22 1_555 1_555
H22 C22 1_555 1_555
C23 C19 1_555 1_555
H23 C23 1_555 1_555
H24 N1 1_555 1_555
H25 C20 1_555 1_555
H26 C20 1_555 1_555
H27 C9 1_555 1_555
H28 C9 1_555 1_555
C1 C3 1_555 1_555
C4 C5 1_555 1_555
C6 C7 1_555 1_555
C8 C9 1_555 1_555
C12 C15 1_555 1_555
C17 C18 1_555 1_555
C21 C23 1_555 1_555

#END
