
#######################################################################
#
#                 Cambridge Crystallographic Data Centre
#                                CCDC 
#
#######################################################################
#
# If this CIF has been generated from an entry in the Cambridge 
# Structural Database, then it will include bibliographic, chemical, 
# crystal, experimental, refinement or atomic coordinate data resulting 
# from the CCDC's data processing and validation procedures.
#
#######################################################################

data_CAYQUP
_chemical_formula_moiety         'C19 H17 N3 O3 S1'
_chemical_name_systematic        
2-(4,6-Dimethoxypyrimidin-2-ylsulfanyl)-N-phenylbenzamide
_chemical_properties_biological  'potential herbicidal activity'
_symmetry_cell_setting           orthorhombic
_symmetry_space_group_name_H-M   'P b c a'
_symmetry_Int_Tables_number      61
_space_group_name_Hall           '-P 2ac 2ab'
loop_
_symmetry_equiv_pos_site_id
_symmetry_equiv_pos_as_xyz
1 x,y,z
2 1/2+x,1/2-y,-z
3 -x,1/2+y,1/2-z
4 1/2-x,-y,1/2+z
5 -x,-y,-z
6 1/2-x,1/2+y,z
7 x,1/2-y,1/2+z
8 1/2+x,y,1/2-z
_cell_length_a                   9.37500(10)
_cell_length_b                   14.4845(2)
_cell_length_c                   26.4390(3)
_cell_angle_alpha                90
_cell_angle_beta                 90
_cell_angle_gamma                90
_cell_volume                     3590.21
_exptl_crystal_colour            colorless
_exptl_crystal_description       block
_cell_formula_units_Z            8
_exptl_crystal_recrystallization_method ethanol
loop_
_atom_site_label
_atom_site_type_symbol
_atom_site_fract_x
_atom_site_fract_y
_atom_site_fract_z
S1 S 0.15284(4) 0.48983(3) 0.38708(2)
O1 O 0.65970(10) 0.46705(8) 0.44548(5)
O2 O 0.31710(10) 0.24544(8) 0.49418(5)
O3 O 0.02700(10) 0.49120(8) 0.28236(4)
N1 N 0.42580(10) 0.47995(8) 0.41966(5)
N2 N 0.25730(10) 0.36644(9) 0.44649(5)
N3 N 0.22020(10) 0.47049(9) 0.23179(5)
C1 C 0.29680(10) 0.44200(10) 0.42180(6)
C2 C 0.5251(2) 0.43480(10) 0.44528(6)
C3 C 0.5006(2) 0.35430(10) 0.47204(6)
C4 C 0.3628(2) 0.32300(10) 0.47114(6)
C5 C 0.6909(2) 0.54620(10) 0.41473(8)
C6 C 0.4226(2) 0.18670(10) 0.51640(8)
C7 C 0.23590(10) 0.58000(10) 0.35246(6)
C8 C 0.3041(2) 0.65170(10) 0.37777(7)
C9 C 0.3732(2) 0.72040(10) 0.35164(8)
C10 C 0.3758(2) 0.71880(10) 0.29992(8)
C11 C 0.3061(2) 0.64920(10) 0.27401(7)
C12 C 0.23430(10) 0.58020(10) 0.29959(6)
C13 C 0.15030(10) 0.50970(10) 0.27057(6)
C14 C 0.17330(10) 0.39730(10) 0.20043(6)
C15 C 0.2759(2) 0.34530(10) 0.17632(7)
C16 C 0.2375(2) 0.27100(10) 0.14685(8)
C17 C 0.0974(2) 0.24760(10) 0.14104(7)
C18 C -0.0046(2) 0.29980(10) 0.16386(7)
C19 C 0.0313(2) 0.37550(10) 0.19305(7)
H1 H 0.3032 0.4926 0.2251
H2 H 0.5766 0.3220 0.4904
H3 H 0.6391 0.5420 0.3835
H4 H 0.7914 0.5484 0.4077
H5 H 0.3115 0.2344 0.1300
H6 H 0.4853 0.2225 0.5374
H7 H 0.4768 0.1577 0.4900
H8 H 0.3023 0.6531 0.4148
H9 H 0.4208 0.7703 0.3701
H10 H 0.4275 0.7666 0.2812
H11 H 0.3066 0.6491 0.2369
H12 H 0.3768 0.3618 0.1801
H13 H 0.0702 0.1941 0.1206
H14 H -0.1054 0.2837 0.1595
H15 H -0.0435 0.4134 0.2086
H16 H 0.3765 0.1404 0.5366
H17 H 0.6630 0.6012 0.4324
loop_
_geom_bond_atom_site_label_1
_geom_bond_atom_site_label_2
_geom_bond_site_symmetry_1
_geom_bond_site_symmetry_2
S1 C1 1_555 1_555
O1 C2 1_555 1_555
O2 C4 1_555 1_555
O3 C13 1_555 1_555
N1 C1 1_555 1_555
N2 C1 1_555 1_555
N3 C13 1_555 1_555
C2 N1 1_555 1_555
C3 C2 1_555 1_555
C4 N2 1_555 1_555
C5 O1 1_555 1_555
C6 O2 1_555 1_555
C7 S1 1_555 1_555
C8 C7 1_555 1_555
C9 C8 1_555 1_555
C10 C9 1_555 1_555
C11 C10 1_555 1_555
C12 C7 1_555 1_555
C13 C12 1_555 1_555
C14 N3 1_555 1_555
C15 C14 1_555 1_555
C16 C15 1_555 1_555
C17 C16 1_555 1_555
C18 C17 1_555 1_555
C19 C14 1_555 1_555
H1 N3 1_555 1_555
H2 C3 1_555 1_555
H3 C5 1_555 1_555
H4 C5 1_555 1_555
H5 C16 1_555 1_555
H6 C6 1_555 1_555
H7 C6 1_555 1_555
H8 C8 1_555 1_555
H9 C9 1_555 1_555
H10 C10 1_555 1_555
H11 C11 1_555 1_555
H12 C15 1_555 1_555
H13 C17 1_555 1_555
H14 C18 1_555 1_555
H15 C19 1_555 1_555
H16 C6 1_555 1_555
H17 C5 1_555 1_555
C3 C4 1_555 1_555
C11 C12 1_555 1_555
C18 C19 1_555 1_555

#END
