
#######################################################################
#
#                 Cambridge Crystallographic Data Centre
#                                CCDC 
#
#######################################################################
#
# If this CIF has been generated from an entry in the Cambridge 
# Structural Database, then it will include bibliographic, chemical, 
# crystal, experimental, refinement or atomic coordinate data resulting 
# from the CCDC's data processing and validation procedures.
#
#######################################################################

data_CAYREA
_chemical_formula_moiety         'C7 H7 N1 O3,H2 O1'
_chemical_name_systematic        '3-Hydroxypyridinium-1-acetate monohydrate'
_symmetry_cell_setting           orthorhombic
_symmetry_space_group_name_H-M   'P b c a'
_symmetry_Int_Tables_number      61
_space_group_name_Hall           '-P 2ac 2ab'
loop_
_symmetry_equiv_pos_site_id
_symmetry_equiv_pos_as_xyz
1 x,y,z
2 1/2-x,-y,1/2+z
3 -x,1/2+y,1/2-z
4 1/2+x,1/2-y,-z
5 -x,-y,-z
6 1/2+x,y,1/2-z
7 x,1/2-y,1/2+z
8 1/2-x,1/2+y,z
_cell_length_a                   8.8417(18)
_cell_length_b                   12.081(2)
_cell_length_c                   14.262(3)
_cell_angle_alpha                90
_cell_angle_beta                 90
_cell_angle_gamma                90
_cell_volume                     1523.42
_exptl_crystal_colour            colorless
_exptl_crystal_description       sheet
_cell_formula_units_Z            8
loop_
_atom_site_label
_atom_site_type_symbol
_atom_site_fract_x
_atom_site_fract_y
_atom_site_fract_z
N1 N 0.31758(11) 0.51318(9) 0.57668(7)
O1 O 0.07838(11) 0.72021(8) 0.47208(7)
O2 O 0.03068(11) 0.59901(9) 0.58574(7)
O3 O 0.21185(12) 0.26155(8) 0.68717(8)
C1 C 0.24669(14) 0.41753(10) 0.59572(9)
C2 C 0.28868(14) 0.35515(10) 0.67290(9)
C3 C 0.40521(15) 0.39337(11) 0.72963(9)
C4 C 0.47644(15) 0.49159(12) 0.70689(11)
C5 C 0.43166(14) 0.55080(11) 0.62998(10)
C6 C 0.26069(15) 0.58282(11) 0.49949(9)
C7 C 0.10961(14) 0.63974(11) 0.52294(9)
H1 H 0.1691 0.3931 0.5569
H2 H 0.4349 0.3534 0.7822
H3 H 0.5552 0.5176 0.7441
H4 H 0.4800 0.6167 0.6147
H5 H 0.230(2) 0.2352(15) 0.7428(8)
H8 H 0.2474 0.5373 0.4441
H9 H 0.3355 0.6390 0.4850
O4 O 0.23655(12) 0.17515(9) 0.85056(7)
H6 H 0.1468(12) 0.1630(15) 0.8708(12)
H7 H 0.2851(17) 0.2113(15) 0.8923(11)
loop_
_geom_bond_atom_site_label_1
_geom_bond_atom_site_label_2
_geom_bond_site_symmetry_1
_geom_bond_site_symmetry_2
N1 C1 1_555 1_555
O1 C7 1_555 1_555
O2 C7 1_555 1_555
O3 C2 1_555 1_555
O4 H6 1_555 1_555
C1 C2 1_555 1_555
C2 C3 1_555 1_555
C3 C4 1_555 1_555
C4 C5 1_555 1_555
C5 N1 1_555 1_555
C6 N1 1_555 1_555
C7 C6 1_555 1_555
H1 C1 1_555 1_555
H2 C3 1_555 1_555
H3 C4 1_555 1_555
H4 C5 1_555 1_555
H5 O3 1_555 1_555
H7 O4 1_555 1_555
H8 C6 1_555 1_555
H9 C6 1_555 1_555

#END
