
#######################################################################
#
#                 Cambridge Crystallographic Data Centre
#                                CCDC 
#
#######################################################################
#
# If this CIF has been generated from an entry in the Cambridge 
# Structural Database, then it will include bibliographic, chemical, 
# crystal, experimental, refinement or atomic coordinate data resulting 
# from the CCDC's data processing and validation procedures.
#
#######################################################################

data_CAYRUS
_chemical_formula_moiety         'C17 H20 N4 O2 S1'
_chemical_name_systematic        
1-{2-[(4-nitrophenyl)sulfanyl]ethyl}-4-(pyridin-2-yl)piperazine
_symmetry_cell_setting           monoclinic
_symmetry_space_group_name_H-M   'P 21/c'
_symmetry_Int_Tables_number      14
_space_group_name_Hall           '-P 2ybc'
loop_
_symmetry_equiv_pos_site_id
_symmetry_equiv_pos_as_xyz
1 x,y,z
2 -x,1/2+y,1/2-z
3 -x,-y,-z
4 x,1/2-y,1/2+z
_cell_length_a                   13.490(4)
_cell_length_b                   6.104(2)
_cell_length_c                   21.355(7)
_cell_angle_alpha                90
_cell_angle_beta                 100.768(6)
_cell_angle_gamma                90
_cell_volume                     1727.47
_exptl_crystal_colour            yelllow
_exptl_crystal_description       block
_cell_formula_units_Z            4
loop_
_atom_site_label
_atom_site_type_symbol
_atom_site_fract_x
_atom_site_fract_y
_atom_site_fract_z
S1 S 0.10247(6) 0.23768(14) 0.18198(3)
O1 O -0.21873(19) 1.0406(4) 0.09844(11)
O2 O -0.13369(17) 1.0795(4) 0.02437(12)
N1 N 0.57652(17) 0.1157(4) 0.40681(11)
N2 N 0.44729(14) -0.0511(3) 0.33737(10)
N3 N 0.28950(14) -0.0075(3) 0.22827(10)
N4 N -0.14993(19) 0.9870(5) 0.07156(13)
C1 C 0.51928(19) -0.0610(4) 0.39250(12)
C2 C 0.5344(2) -0.2489(5) 0.43018(15)
H1 H 0.4946 -0.3726 0.4196
C3 C 0.6093(3) -0.2467(6) 0.48303(17)
H2 H 0.6200 -0.3699 0.5090
C4 C 0.6681(2) -0.0670(7) 0.49804(14)
H3 H 0.7192 -0.0638 0.5339
C5 C 0.6491(2) 0.1074(6) 0.45842(14)
H4 H 0.6898 0.2305 0.4680
C6 C 0.36422(19) -0.2058(4) 0.32536(14)
H5 H 0.3116 -0.1592 0.3478
H6 H 0.3876 -0.3490 0.3413
C7 C 0.3222(2) -0.2206(4) 0.25535(14)
H7 H 0.3733 -0.2795 0.2336
H8 H 0.2653 -0.3206 0.2485
C8 C 0.37484(17) 0.1431(4) 0.24070(12)
H9 H 0.3536 0.2864 0.2236
H10 H 0.4276 0.0911 0.2192
C9 C 0.41570(18) 0.1626(4) 0.31057(12)
H11 H 0.4728 0.2621 0.3175
H12 H 0.3642 0.2224 0.3319
C10 C 0.2490(2) -0.0263(5) 0.16033(13)
H13 H 0.2034 -0.1505 0.1532
H14 H 0.3040 -0.0543 0.1379
C11 C 0.19303(19) 0.1775(5) 0.13293(12)
H15 H 0.1594 0.1518 0.0893
H16 H 0.2396 0.2989 0.1334
C12 C 0.03014(17) 0.4497(4) 0.14396(10)
C13 C -0.0492(2) 0.5198(5) 0.17270(12)
H17 H -0.0622 0.4467 0.2085
C14 C -0.1078(2) 0.6932(5) 0.14917(12)
H18 H -0.1600 0.7393 0.1689
C15 C -0.08914(18) 0.7988(5) 0.09632(12)
C16 C -0.01364(18) 0.7335(5) 0.06591(11)
H19 H -0.0025 0.8065 0.0296
C17 C 0.04555(17) 0.5584(5) 0.08974(11)
H20 H 0.0968 0.5121 0.0691
loop_
_geom_bond_atom_site_label_1
_geom_bond_atom_site_label_2
_geom_bond_site_symmetry_1
_geom_bond_site_symmetry_2
S1 C11 1_555 1_555
O1 N4 1_555 1_555
O2 N4 1_555 1_555
N1 C1 1_555 1_555
N2 C1 1_555 1_555
N3 C7 1_555 1_555
N4 C15 1_555 1_555
C1 C2 1_555 1_555
C2 H1 1_555 1_555
C3 C2 1_555 1_555
H2 C3 1_555 1_555
C4 C3 1_555 1_555
H3 C4 1_555 1_555
C5 N1 1_555 1_555
H4 C5 1_555 1_555
C6 N2 1_555 1_555
H5 C6 1_555 1_555
H6 C6 1_555 1_555
C7 C6 1_555 1_555
H7 C7 1_555 1_555
H8 C7 1_555 1_555
C8 N3 1_555 1_555
H9 C8 1_555 1_555
H10 C8 1_555 1_555
C9 N2 1_555 1_555
H11 C9 1_555 1_555
H12 C9 1_555 1_555
C10 N3 1_555 1_555
H13 C10 1_555 1_555
H14 C10 1_555 1_555
C11 C10 1_555 1_555
H15 C11 1_555 1_555
H16 C11 1_555 1_555
C12 S1 1_555 1_555
C13 C12 1_555 1_555
H17 C13 1_555 1_555
C14 C13 1_555 1_555
H18 C14 1_555 1_555
C15 C14 1_555 1_555
C16 C15 1_555 1_555
H19 C16 1_555 1_555
C17 C12 1_555 1_555
H20 C17 1_555 1_555
C4 C5 1_555 1_555
C8 C9 1_555 1_555
C16 C17 1_555 1_555

#END
