
#######################################################################
#
#                 Cambridge Crystallographic Data Centre
#                                CCDC 
#
#######################################################################
#
# If this CIF has been generated from an entry in the Cambridge 
# Structural Database, then it will include bibliographic, chemical, 
# crystal, experimental, refinement or atomic coordinate data resulting 
# from the CCDC's data processing and validation procedures.
#
#######################################################################

data_CAYTOO
_chemical_formula_moiety         'C17 H20 N4 O3'
_chemical_name_systematic        
1-[2-(4-nitrophenoxy)ethyl]-4-(pyridin-2-yl)piperazine
_symmetry_cell_setting           monoclinic
_symmetry_space_group_name_H-M   'P 21/c'
_symmetry_Int_Tables_number      14
_space_group_name_Hall           '-P 2ybc'
loop_
_symmetry_equiv_pos_site_id
_symmetry_equiv_pos_as_xyz
1 x,y,z
2 -x,1/2+y,1/2-z
3 -x,-y,-z
4 x,1/2-y,1/2+z
_cell_length_a                   13.236(2)
_cell_length_b                   6.1337(10)
_cell_length_c                   20.371(3)
_cell_angle_alpha                90
_cell_angle_beta                 98.818(2)
_cell_angle_gamma                90
_cell_volume                     1634.29
_exptl_crystal_colour            yellow
_exptl_crystal_description       block
_cell_formula_units_Z            4
loop_
_atom_site_label
_atom_site_type_symbol
_atom_site_fract_x
_atom_site_fract_y
_atom_site_fract_z
O1 O 0.69954(12) 0.9990(3) 0.37581(8)
O2 O 0.61899(11) 1.0539(3) 0.45757(8)
O3 O 0.39560(9) 0.2243(2) 0.32988(6)
N1 N 0.63314(11) 0.9515(3) 0.40839(8)
N2 N 0.21446(9) -0.0025(2) 0.25928(6)
N3 N 0.04639(10) -0.0410(2) 0.15289(6)
N4 N -0.08871(10) 0.1287(2) 0.08663(7)
C1 C 0.57023(11) 0.7606(3) 0.38858(7)
C2 C 0.58805(12) 0.6395(3) 0.33446(8)
H1 H 0.6397 0.6789 0.3106
C3 C 0.52842(12) 0.4602(3) 0.31638(8)
H2 H 0.5396 0.3771 0.2800
C4 C 0.45092(11) 0.4020(3) 0.35235(7)
C5 C 0.43517(11) 0.5242(3) 0.40719(7)
H3 H 0.3841 0.4849 0.4316
C6 C 0.49544(11) 0.7042(3) 0.42537(7)
H4 H 0.4856 0.7866 0.4622
C7 C 0.31069(13) 0.1653(3) 0.36254(8)
H5 H 0.2620 0.2845 0.3598
H6 H 0.3344 0.1345 0.4091
C8 C 0.26079(13) -0.0331(3) 0.32883(8)
H7 H 0.3116 -0.1479 0.3308
H8 H 0.2082 -0.0827 0.3537
C9 C 0.12702(12) 0.1456(3) 0.25290(8)
H9 H 0.1492 0.2872 0.2708
H10 H 0.0766 0.0895 0.2784
C10 C 0.07906(12) 0.1701(3) 0.18117(8)
H11 H 0.0206 0.2670 0.1782
H12 H 0.1282 0.2343 0.1561
C11 C 0.13042(12) -0.1965(3) 0.15978(8)
H13 H 0.1808 -0.1501 0.1327
H14 H 0.1049 -0.3384 0.1441
C12 C 0.18003(12) -0.2137(3) 0.23136(8)
H15 H 0.1315 -0.2756 0.2573
H16 H 0.2381 -0.3117 0.2344
C13 C -0.03143(11) -0.0508(3) 0.09898(7)
C14 C -0.05264(14) -0.2402(3) 0.06073(8)
H17 H -0.0126 -0.3644 0.0698
C15 C -0.13302(15) -0.2391(4) 0.00996(9)
H18 H -0.1474 -0.3631 -0.0161
C16 C -0.19278(14) -0.0562(4) -0.00291(9)
H19 H -0.2481 -0.0532 -0.0371
C17 C -0.16736(13) 0.1204(4) 0.03668(8)
H20 H -0.2076 0.2446 0.0285
loop_
_geom_bond_atom_site_label_1
_geom_bond_atom_site_label_2
_geom_bond_site_symmetry_1
_geom_bond_site_symmetry_2
O1 N1 1_555 1_555
O2 N1 1_555 1_555
O3 C4 1_555 1_555
N1 C1 1_555 1_555
N2 C8 1_555 1_555
N3 C10 1_555 1_555
N4 C13 1_555 1_555
C1 C2 1_555 1_555
C2 H1 1_555 1_555
C3 C2 1_555 1_555
H2 C3 1_555 1_555
C4 C3 1_555 1_555
C5 C4 1_555 1_555
H3 C5 1_555 1_555
C6 C1 1_555 1_555
H4 C6 1_555 1_555
C7 O3 1_555 1_555
H5 C7 1_555 1_555
H6 C7 1_555 1_555
C8 C7 1_555 1_555
H7 C8 1_555 1_555
H8 C8 1_555 1_555
C9 N2 1_555 1_555
H9 C9 1_555 1_555
H10 C9 1_555 1_555
C10 C9 1_555 1_555
H11 C10 1_555 1_555
H12 C10 1_555 1_555
C11 N3 1_555 1_555
H13 C11 1_555 1_555
H14 C11 1_555 1_555
C12 N2 1_555 1_555
H15 C12 1_555 1_555
H16 C12 1_555 1_555
C13 N3 1_555 1_555
C14 C13 1_555 1_555
H17 C14 1_555 1_555
C15 C14 1_555 1_555
H18 C15 1_555 1_555
C16 C15 1_555 1_555
H19 C16 1_555 1_555
C17 N4 1_555 1_555
H20 C17 1_555 1_555
C5 C6 1_555 1_555
C11 C12 1_555 1_555
C16 C17 1_555 1_555

#END
