
#######################################################################
#
#                 Cambridge Crystallographic Data Centre
#                                CCDC 
#
#######################################################################
#
# If this CIF has been generated from an entry in the Cambridge 
# Structural Database, then it will include bibliographic, chemical, 
# crystal, experimental, refinement or atomic coordinate data resulting 
# from the CCDC's data processing and validation procedures.
#
#######################################################################

data_CAYVUW
_chemical_formula_moiety         'C28 H41 N1 O1 P1 1+,B1 F4 1-'
_chemical_name_systematic        
'tributyl((2-hydroxyphenyl)(1-methyl-1H-indol-3-yl)methyl)phosphonium tetrafluoroborate'
_symmetry_cell_setting           monoclinic
_symmetry_space_group_name_H-M   'P 21/c'
_symmetry_Int_Tables_number      14
_space_group_name_Hall           '-P 2ybc'
loop_
_symmetry_equiv_pos_site_id
_symmetry_equiv_pos_as_xyz
1 x,y,z
2 -x,1/2+y,1/2-z
3 -x,-y,-z
4 x,1/2-y,1/2+z
_cell_length_a                   16.003(4)
_cell_length_b                   9.889(3)
_cell_length_c                   19.189(5)
_cell_angle_alpha                90
_cell_angle_beta                 112.970(7)
_cell_angle_gamma                90
_cell_volume                     2795.95
_exptl_crystal_colour            colorless
_exptl_crystal_description       prism
_cell_formula_units_Z            4
loop_
_atom_site_label
_atom_site_type_symbol
_atom_site_fract_x
_atom_site_fract_y
_atom_site_fract_z
C1 C 0.3252(4) 0.4262(5) 0.6660(3)
H1 H 0.3528 0.4771 0.7147
C2 C 0.2493(4) 0.3433(6) 0.6742(3)
C3 C 0.2227(4) 0.3707(6) 0.7338(3)
C4 C 0.1534(5) 0.2983(7) 0.7417(4)
H2 H 0.1368 0.3165 0.7832
C5 C 0.1084(5) 0.2011(7) 0.6908(4)
H3 H 0.0597 0.1538 0.6963
C6 C 0.1330(5) 0.1702(7) 0.6306(4)
H4 H 0.1022 0.1015 0.5954
C7 C 0.2040(4) 0.2423(6) 0.6230(3)
H5 H 0.2216 0.2220 0.5822
C8 C 0.4030(4) 0.3510(5) 0.6590(3)
C9 C 0.4022(4) 0.2523(6) 0.6070(3)
H6 H 0.3493 0.2135 0.5698
C10 C 0.5161(5) 0.1170(6) 0.5760(3)
H7 H 0.4617 0.0770 0.5374
H8 H 0.5513 0.0464 0.6109
H9 H 0.5532 0.1587 0.5515
C11 C 0.5493(4) 0.2969(5) 0.6758(3)
C12 C 0.6420(4) 0.3029(6) 0.7035(3)
H10 H 0.6758 0.2456 0.6844
C13 C 0.6844(4) 0.3946(6) 0.7599(3)
H11 H 0.7487 0.4020 0.7796
C14 C 0.6344(4) 0.4778(6) 0.7890(3)
H12 H 0.6654 0.5399 0.8285
C15 C 0.5423(4) 0.4704(6) 0.7614(3)
H13 H 0.5092 0.5268 0.7816
C16 C 0.4967(4) 0.3798(5) 0.7032(3)
C17 C 0.1910(4) 0.6462(6) 0.6090(3)
H14 H 0.2090 0.6567 0.6643
H15 H 0.1869 0.7380 0.5873
C18 C 0.0967(4) 0.5833(7) 0.5765(4)
H16 H 0.0736 0.5845 0.5205
H17 H 0.1006 0.4878 0.5929
C19 C 0.0311(5) 0.6588(10) 0.6019(5)
H18 H -0.0287 0.6135 0.5795
H19 H 0.0525 0.6495 0.6576
C20 C 0.0177(7) 0.8045(11) 0.5831(6)
H20 H -0.0261 0.8419 0.6021
H21 H -0.0055 0.8159 0.5280
H22 H 0.0757 0.8520 0.6066
C21 C 0.3689(4) 0.6752(5) 0.6056(3)
H23 H 0.3407 0.7602 0.5798
H24 H 0.3994 0.6957 0.6603
C22 C 0.4424(4) 0.6339(6) 0.5766(3)
H25 H 0.4577 0.5374 0.5887
H26 H 0.4178 0.6439 0.5209
C23 C 0.5276(4) 0.7176(6) 0.6109(3)
H27 H 0.5490 0.7147 0.6668
H28 H 0.5136 0.8128 0.5947
C24 C 0.6026(4) 0.6674(7) 0.5878(4)
H29 H 0.6565 0.7244 0.6111
H30 H 0.5821 0.6716 0.5326
H31 H 0.6177 0.5737 0.6047
C25 C 0.2395(4) 0.4883(6) 0.4998(3)
H32 H 0.2900 0.4416 0.4922
H33 H 0.1920 0.4203 0.4944
C26 C 0.2002(5) 0.5958(6) 0.4384(3)
H34 H 0.1498 0.6428 0.4460
H35 H 0.2478 0.6636 0.4435
C27 C 0.1653(5) 0.5369(7) 0.3589(3)
H36 H 0.2173 0.5016 0.3487
H37 H 0.1244 0.4601 0.3560
C28 C 0.1155(5) 0.6380(8) 0.2996(4)
H38 H 0.0954 0.5955 0.2496
H39 H 0.1557 0.7141 0.3020
H40 H 0.0626 0.6708 0.3083
N1 N 0.4894(3) 0.2200(5) 0.6180(3)
O1 O 0.2680(3) 0.4719(4) 0.7824(2)
H41 H 0.2467 0.4810 0.8158
P1 P 0.28027(11) 0.55655(15) 0.59361(8)
B1 B 0.2280(6) 0.5050(8) 0.9572(5)
F1 F 0.1912(11) 0.5675(11) 0.9995(6)
F2 F 0.3171(11) 0.5497(19) 0.9765(10)
F3 F 0.1803(6) 0.5348(8) 0.8773(3)
F4 F 0.2162(11) 0.3671(15) 0.9594(9)
F5? F 0.164(2) 0.560(4) 0.9769(16)
F6? F 0.3110(19) 0.546(3) 0.9976(14)
F7? F 0.2244(12) 0.558(2) 0.8943(11)
F8? F 0.243(2) 0.368(4) 0.964(2)
loop_
_geom_bond_atom_site_label_1
_geom_bond_atom_site_label_2
_geom_bond_site_symmetry_1
_geom_bond_site_symmetry_2
C1 H1 1_555 1_555
C2 C1 1_555 1_555
C3 C2 1_555 1_555
C4 C3 1_555 1_555
H2 C4 1_555 1_555
C5 C4 1_555 1_555
H3 C5 1_555 1_555
C6 C5 1_555 1_555
H4 C6 1_555 1_555
C7 C2 1_555 1_555
H5 C7 1_555 1_555
C8 C1 1_555 1_555
C9 C8 1_555 1_555
H6 C9 1_555 1_555
C10 H7 1_555 1_555
H8 C10 1_555 1_555
H9 C10 1_555 1_555
C11 C12 1_555 1_555
C12 H10 1_555 1_555
C13 C12 1_555 1_555
H11 C13 1_555 1_555
C14 C13 1_555 1_555
H12 C14 1_555 1_555
C15 C14 1_555 1_555
H13 C15 1_555 1_555
C16 C8 1_555 1_555
C17 H14 1_555 1_555
H15 C17 1_555 1_555
C18 C17 1_555 1_555
H16 C18 1_555 1_555
H17 C18 1_555 1_555
C19 C18 1_555 1_555
H18 C19 1_555 1_555
H19 C19 1_555 1_555
C20 C19 1_555 1_555
H20 C20 1_555 1_555
H21 C20 1_555 1_555
H22 C20 1_555 1_555
C21 H23 1_555 1_555
H24 C21 1_555 1_555
C22 C21 1_555 1_555
H25 C22 1_555 1_555
H26 C22 1_555 1_555
C23 C22 1_555 1_555
H27 C23 1_555 1_555
H28 C23 1_555 1_555
C24 C23 1_555 1_555
H29 C24 1_555 1_555
H30 C24 1_555 1_555
H31 C24 1_555 1_555
C25 H32 1_555 1_555
H33 C25 1_555 1_555
C26 C25 1_555 1_555
H34 C26 1_555 1_555
H35 C26 1_555 1_555
C27 C26 1_555 1_555
H36 C27 1_555 1_555
H37 C27 1_555 1_555
C28 C27 1_555 1_555
H38 C28 1_555 1_555
H39 C28 1_555 1_555
H40 C28 1_555 1_555
N1 C9 1_555 1_555
O1 C3 1_555 1_555
H41 O1 1_555 1_555
P1 C1 1_555 1_555
B1 F1 1_555 1_555
F2 B1 1_555 1_555
F3 B1 1_555 1_555
F4 B1 1_555 1_555
C6 C7 1_555 1_555
C10 N1 1_555 1_555
C11 C16 1_555 1_555
C11 N1 1_555 1_555
C15 C16 1_555 1_555
C17 P1 1_555 1_555
C21 P1 1_555 1_555
C25 P1 1_555 1_555

#END
