
#######################################################################
#
#                 Cambridge Crystallographic Data Centre
#                                CCDC 
#
#######################################################################
#
# If this CIF has been generated from an entry in the Cambridge 
# Structural Database, then it will include bibliographic, chemical, 
# crystal, experimental, refinement or atomic coordinate data resulting 
# from the CCDC's data processing and validation procedures.
#
#######################################################################

data_CAYWUX
_chemical_formula_moiety         'C30 H23 N1 O3'
_chemical_name_systematic        
'2-[1-(1-methyl-1H-indol-3-yl)-2-oxo-2-phenylethyl]phenyl benzoate'
_symmetry_cell_setting           monoclinic
_symmetry_space_group_name_H-M   'P 21'
_symmetry_Int_Tables_number      4
_space_group_name_Hall           'P 2yb'
loop_
_symmetry_equiv_pos_site_id
_symmetry_equiv_pos_as_xyz
1 x,y,z
2 -x,1/2+y,-z
_cell_length_a                   8.9279(3)
_cell_length_b                   22.4318(5)
_cell_length_c                   11.8270(3)
_cell_angle_alpha                90
_cell_angle_beta                 96.959(2)
_cell_angle_gamma                90
_cell_volume                     2351.13
_exptl_crystal_colour            colorless
_exptl_crystal_description       prism
_cell_formula_units_Z            4
loop_
_atom_site_label
_atom_site_type_symbol
_atom_site_fract_x
_atom_site_fract_y
_atom_site_fract_z
C1 C 0.6594(7) 0.6811(2) 0.1874(5)
C2 C 0.6995(7) 0.6690(2) 0.0727(5)
C3 C 0.7951(8) 0.7083(3) 0.0271(6)
H1 H 0.8276 0.7433 0.0645
C4 C 0.8403(9) 0.6929(5) -0.0773(7)
H2 H 0.9097 0.7176 -0.1068
C5 C 0.7916(12) 0.6452(5) -0.1383(7)
H3 H 0.8257 0.6372 -0.2080
C6 C 0.6913(12) 0.6089(4) -0.0962(6)
H4 H 0.6522 0.5763 -0.1384
C7 C 0.6454(9) 0.6204(3) 0.0122(6)
H5 H 0.5784 0.5947 0.0420
C8 C 0.5541(6) 0.6404(2) 0.3454(5)
C9 C 0.4180(7) 0.6659(2) 0.3624(6)
H6 H 0.3557 0.6820 0.3014
C10 C 0.3756(8) 0.6674(2) 0.4687(7)
H7 H 0.2850 0.6853 0.4809
C11 C 0.4680(8) 0.6420(3) 0.5595(6)
H8 H 0.4377 0.6422 0.6320
C12 C 0.6059(7) 0.6164(2) 0.5420(5)
H9 H 0.6674 0.5999 0.6031
C13 C 0.6513(6) 0.61534(18) 0.4354(4)
C14 C 0.8043(6) 0.5910(2) 0.4150(4)
H10 H 0.8613 0.6247 0.3890
C15 C 0.8997(6) 0.56454(19) 0.5138(4)
C16 C 0.9994(6) 0.59576(19) 0.5951(4)
C17 C 1.0348(6) 0.6562(2) 0.6131(5)
H11 H 0.9920 0.6852 0.5629
C18 C 1.1343(7) 0.6718(3) 0.7065(6)
H12 H 1.1545 0.7120 0.7212
C19 C 1.2059(7) 0.6287(3) 0.7801(5)
H13 H 1.2755 0.6404 0.8410
C20 C 1.1740(7) 0.5691(3) 0.7629(5)
H14 H 1.2219 0.5402 0.8109
C21 C 1.0692(6) 0.5535(2) 0.6729(4)
C22 C 1.0539(8) 0.4422(2) 0.6931(6)
H15 H 1.1271 0.4487 0.7583
H16 H 1.0955 0.4163 0.6404
H17 H 0.9653 0.4242 0.7170
C23 C 0.9127(7) 0.5059(2) 0.5439(5)
H18 H 0.8595 0.4751 0.5049
C24 C 0.7908(7) 0.5451(2) 0.3194(5)
C25 C 0.9001(7) 0.5462(2) 0.2325(4)
C26 C 1.0144(8) 0.5869(3) 0.2329(5)
H19 H 1.0279 0.6149 0.2912
C27 C 1.1110(10) 0.5877(4) 0.1492(7)
H20 H 1.1861 0.6164 0.1485
C28 C 1.0904(14) 0.5447(6) 0.0688(8)
H21 H 1.1557 0.5433 0.0132
C29 C 0.9789(14) 0.5033(5) 0.0653(7)
H22 H 0.9668 0.4753 0.0069
C30 C 0.8826(10) 0.5030(3) 0.1496(6)
H23 H 0.8079 0.4741 0.1498
N1 N 1.0141(5) 0.49857(18) 0.6386(4)
O1 O 0.6854(7) 0.72709(19) 0.2393(4)
O2 O 0.5929(4) 0.63521(14) 0.2340(3)
O3 O 0.6933(5) 0.50730(18) 0.3158(4)
C31 C 0.8127(8) 0.3136(2) 0.9278(8)
C32 C 0.7343(7) 0.3060(3) 1.0389(4)
C33 C 0.7875(8) 0.3410(3) 1.1288(6)
H24 H 0.8732 0.3643 1.1258
C34 C 0.7126(11) 0.3418(4) 1.2252(6)
H25 H 0.7482 0.3662 1.2861
C35 C 0.5912(9) 0.3084(4) 1.2323(6)
H26 H 0.5414 0.3096 1.2969
C36 C 0.5411(9) 0.2722(4) 1.1432(8)
H27 H 0.4592 0.2471 1.1478
C37 C 0.6130(9) 0.2731(4) 1.0451(6)
H28 H 0.5749 0.2501 0.9828
C38 C 0.7982(6) 0.3003(2) 0.7385(4)
C39 C 0.9325(7) 0.2746(3) 0.7159(5)
H29 H 0.9910 0.2530 0.7721
C40 C 0.9776(7) 0.2809(3) 0.6130(5)
H30 H 1.0689 0.2645 0.5982
C41 C 0.8915(7) 0.3111(3) 0.5304(5)
H31 H 0.9222 0.3145 0.4582
C42 C 0.7589(6) 0.3366(2) 0.5528(4)
H32 H 0.7011 0.3577 0.4953
C43 C 0.7082(5) 0.33199(19) 0.6590(4)
C44 C 0.5625(6) 0.3595(2) 0.6881(4)
H33 H 0.5053 0.3279 0.7206
C45 C 0.4619(6) 0.38524(19) 0.5879(4)
C46 C 0.3685(5) 0.35336(19) 0.5030(4)
C47 C 0.3426(6) 0.2926(2) 0.4780(4)
H34 H 0.3904 0.2634 0.5251
C48 C 0.2474(7) 0.2770(2) 0.3847(5)
H35 H 0.2316 0.2369 0.3680
C49 C 0.1733(7) 0.3193(3) 0.3138(5)
H36 H 0.1089 0.3068 0.2506
C50 C 0.1921(6) 0.3789(3) 0.3340(5)
H37 H 0.1401 0.4071 0.2866
C51 C 0.2920(6) 0.3960(2) 0.4281(4)
C52 C 0.2919(8) 0.5074(3) 0.4092(6)
H38 H 0.3392 0.5401 0.4520
H39 H 0.1843 0.5114 0.4044
H40 H 0.3218 0.5075 0.3339
C53 C 0.4422(6) 0.4442(2) 0.5618(5)
H41 H 0.4918 0.4753 0.6026
C54 C 0.5949(7) 0.4075(2) 0.7793(4)
C55 C 0.4995(6) 0.4128(2) 0.8715(4)
C56 C 0.5414(9) 0.4522(3) 0.9588(5)
H42 H 0.6256 0.4761 0.9538
C57 C 0.4678(13) 0.4584(4) 1.0505(7)
H43 H 0.5015 0.4853 1.1078
C58 C 0.3454(12) 0.4252(4) 1.0580(6)
H44 H 0.2952 0.4284 1.1222
C59 C 0.2914(9) 0.3857(3) 0.9713(7)
H45 H 0.2037 0.3638 0.9754
C60 C 0.3719(8) 0.3799(3) 0.8792(5)
H46 H 0.3389 0.3531 0.8215
N2 N 0.3384(5) 0.45111(16) 0.4662(4)
O4 O 0.9365(7) 0.3368(3) 0.9343(4)
O5 O 0.7416(4) 0.29043(19) 0.8446(3)
O6 O 0.6984(5) 0.4423(2) 0.7724(4)
loop_
_geom_bond_atom_site_label_1
_geom_bond_atom_site_label_2
_geom_bond_site_symmetry_1
_geom_bond_site_symmetry_2
C1 C2 1_555 1_555
C2 C3 1_555 1_555
C3 H1 1_555 1_555
C4 C3 1_555 1_555
H2 C4 1_555 1_555
C5 C4 1_555 1_555
H3 C5 1_555 1_555
C6 C5 1_555 1_555
H4 C6 1_555 1_555
C7 C2 1_555 1_555
H5 C7 1_555 1_555
C8 C9 1_555 1_555
C9 H6 1_555 1_555
C10 C9 1_555 1_555
H7 C10 1_555 1_555
C11 C10 1_555 1_555
H8 C11 1_555 1_555
C12 C11 1_555 1_555
H9 C12 1_555 1_555
C13 C8 1_555 1_555
C14 C13 1_555 1_555
H10 C14 1_555 1_555
C15 C14 1_555 1_555
C16 C15 1_555 1_555
C17 C16 1_555 1_555
H11 C17 1_555 1_555
C18 C17 1_555 1_555
H12 C18 1_555 1_555
C19 C18 1_555 1_555
H13 C19 1_555 1_555
C20 C19 1_555 1_555
H14 C20 1_555 1_555
C21 C16 1_555 1_555
C22 H15 1_555 1_555
H16 C22 1_555 1_555
H17 C22 1_555 1_555
C23 C15 1_555 1_555
H18 C23 1_555 1_555
C24 C14 1_555 1_555
C25 C24 1_555 1_555
C26 C25 1_555 1_555
H19 C26 1_555 1_555
C27 C26 1_555 1_555
H20 C27 1_555 1_555
C28 C27 1_555 1_555
H21 C28 1_555 1_555
C29 C28 1_555 1_555
H22 C29 1_555 1_555
C30 C25 1_555 1_555
H23 C30 1_555 1_555
N1 C21 1_555 1_555
O1 C1 1_555 1_555
O2 C1 1_555 1_555
O3 C24 1_555 1_555
C31 C32 1_555 1_555
C32 C33 1_555 1_555
C33 H24 1_555 1_555
C34 C33 1_555 1_555
H25 C34 1_555 1_555
C35 C34 1_555 1_555
H26 C35 1_555 1_555
C36 C35 1_555 1_555
H27 C36 1_555 1_555
C37 C32 1_555 1_555
H28 C37 1_555 1_555
C38 C39 1_555 1_555
C39 H29 1_555 1_555
C40 C39 1_555 1_555
H30 C40 1_555 1_555
C41 C40 1_555 1_555
H31 C41 1_555 1_555
C42 C41 1_555 1_555
H32 C42 1_555 1_555
C43 C38 1_555 1_555
C44 C43 1_555 1_555
H33 C44 1_555 1_555
C45 C44 1_555 1_555
C46 C45 1_555 1_555
C47 C46 1_555 1_555
H34 C47 1_555 1_555
C48 C47 1_555 1_555
H35 C48 1_555 1_555
C49 C48 1_555 1_555
H36 C49 1_555 1_555
C50 C49 1_555 1_555
H37 C50 1_555 1_555
C51 C46 1_555 1_555
C52 H38 1_555 1_555
H39 C52 1_555 1_555
H40 C52 1_555 1_555
C53 C45 1_555 1_555
H41 C53 1_555 1_555
C54 C44 1_555 1_555
C55 C54 1_555 1_555
C56 C55 1_555 1_555
H42 C56 1_555 1_555
C57 C56 1_555 1_555
H43 C57 1_555 1_555
C58 C57 1_555 1_555
H44 C58 1_555 1_555
C59 C58 1_555 1_555
H45 C59 1_555 1_555
C60 C55 1_555 1_555
H46 C60 1_555 1_555
N2 C51 1_555 1_555
O4 C31 1_555 1_555
O5 C31 1_555 1_555
O6 C54 1_555 1_555
C6 C7 1_555 1_555
C8 O2 1_555 1_555
C12 C13 1_555 1_555
C20 C21 1_555 1_555
C22 N1 1_555 1_555
C23 N1 1_555 1_555
C29 C30 1_555 1_555
C36 C37 1_555 1_555
C38 O5 1_555 1_555
C42 C43 1_555 1_555
C50 C51 1_555 1_555
C52 N2 1_555 1_555
C53 N2 1_555 1_555
C59 C60 1_555 1_555

#END
