
#######################################################################
#
#                 Cambridge Crystallographic Data Centre
#                                CCDC 
#
#######################################################################
#
# If this CIF has been generated from an entry in the Cambridge 
# Structural Database, then it will include bibliographic, chemical, 
# crystal, experimental, refinement or atomic coordinate data resulting 
# from the CCDC's data processing and validation procedures.
#
#######################################################################

data_CAYWAD
_chemical_formula_moiety         'C29 H27 N1 O1 P1 1+,C1 F3 O3 S1 1-'
_chemical_name_systematic        
'((2-hydroxyphenyl)(1-methyl-1H-indol-3-yl)methyl)(methyl)diphenylphosphonium trifluoromethanesulfonate'
_symmetry_cell_setting           monoclinic
_symmetry_space_group_name_H-M   'P 21/n'
_symmetry_Int_Tables_number      14
_space_group_name_Hall           '-P 2yn'
loop_
_symmetry_equiv_pos_site_id
_symmetry_equiv_pos_as_xyz
1 x,y,z
2 1/2-x,1/2+y,1/2-z
3 -x,-y,-z
4 1/2+x,1/2-y,1/2+z
_cell_length_a                   11.2916(4)
_cell_length_b                   13.0706(4)
_cell_length_c                   19.3327(7)
_cell_angle_alpha                90
_cell_angle_beta                 94.9060(10)
_cell_angle_gamma                90
_cell_volume                     2842.82
_exptl_crystal_colour            colorless
_exptl_crystal_description       prism
_cell_formula_units_Z            4
loop_
_atom_site_label
_atom_site_type_symbol
_atom_site_fract_x
_atom_site_fract_y
_atom_site_fract_z
C1 C 0.6832(3) 0.6907(3) 0.36070(18)
C2 C 0.6225(4) 0.7803(3) 0.37404(19)
H1 H 0.6542 0.8261 0.4090
C3 C 0.5158(4) 0.8024(3) 0.3363(2)
H2 H 0.4739 0.8631 0.3458
C4 C 0.4700(3) 0.7365(3) 0.2849(2)
H3 H 0.3961 0.7512 0.2596
C5 C 0.5322(3) 0.6489(3) 0.27036(18)
H4 H 0.5015 0.6050 0.2340
C6 C 0.6390(3) 0.6237(3) 0.30804(17)
C7 C 0.7136(3) 0.5328(3) 0.28980(17)
H5 H 0.7874 0.5369 0.3222
C8 C 0.7561(3) 0.5366(3) 0.21761(19)
C9 C 0.8777(4) 0.5537(3) 0.2037(2)
C10 C 0.9831(4) 0.5699(3) 0.2454(3)
H6 H 0.9839 0.5684 0.2946
C11 C 1.0866(5) 0.5882(4) 0.2138(4)
H7 H 1.1586 0.6008 0.2416
C12 C 1.0865(6) 0.5884(4) 0.1416(4)
H8 H 1.1593 0.5987 0.1214
C13 C 0.9852(6) 0.5744(4) 0.0993(3)
H9 H 0.9859 0.5756 0.0502
C14 C 0.8787(4) 0.5580(3) 0.1313(2)
C15 C 0.7270(6) 0.5487(5) 0.0278(2)
H10 H 0.7964 0.5583 0.0013
H11 H 0.6716 0.6058 0.0185
H12 H 0.6873 0.4844 0.0139
C16 C 0.6916(4) 0.5326(3) 0.1546(2)
H13 H 0.6080 0.5225 0.1478
C17 C 0.7600(3) 0.3145(3) 0.2973(2)
H14 H 0.8296 0.3296 0.3294
H15 H 0.7827 0.3159 0.2495
H16 H 0.7293 0.2465 0.3075
C18 C 0.5206(3) 0.3799(3) 0.24849(19)
C19 C 0.5343(4) 0.3241(4) 0.1884(2)
H17 H 0.6108 0.3001 0.1793
C20 C 0.4384(5) 0.3033(4) 0.1422(2)
H18 H 0.4490 0.2654 0.1013
C21 C 0.3266(4) 0.3370(4) 0.1548(3)
H19 H 0.2604 0.3223 0.1227
C22 C 0.3113(4) 0.3920(4) 0.2142(3)
H20 H 0.2341 0.4149 0.2230
C23 C 0.4067(4) 0.4142(3) 0.2609(2)
H21 H 0.3954 0.4526 0.3016
C24 C 0.6105(3) 0.4008(3) 0.39526(19)
C25 C 0.5169(4) 0.3386(3) 0.4122(2)
H22 H 0.4677 0.3054 0.3767
C26 C 0.4964(5) 0.3256(4) 0.4810(2)
H23 H 0.4321 0.2839 0.4927
C27 C 0.5675(5) 0.3719(4) 0.5324(2)
H24 H 0.5526 0.3622 0.5796
C28 C 0.6610(5) 0.4327(4) 0.5161(2)
H25 H 0.7108 0.4645 0.5519
C29 C 0.6820(4) 0.4473(4) 0.4471(2)
H26 H 0.7460 0.4895 0.4357
N1 N 0.7656(4) 0.5453(3) 0.10257(18)
O1 O 0.7896(2) 0.6662(2) 0.39525(14)
H27 H 0.8081 0.7110 0.4254
P1 P 0.64778(8) 0.40798(7) 0.30705(5)
C30 C 0.8876(6) 0.6589(6) 0.5932(4)
F1 F 0.9263(11) 0.5885(9) 0.5312(6)
F2 F 0.9497(6) 0.6344(5) 0.6504(4)
F3 F 0.7671(19) 0.6888(17) 0.5969(11)
O2 O 1.0531(9) 0.7490(8) 0.5461(5)
O3 O 0.9264(10) 0.8547(8) 0.6090(5)
O4 O 0.8636(7) 0.7980(6) 0.4929(4)
S1 S 0.91436(16) 0.78176(12) 0.56130(7)
F4? F 0.7832(7) 0.6470(7) 0.6188(5)
F5? F 0.8820(7) 0.5855(5) 0.5462(4)
F6? F 0.9880(9) 0.6207(8) 0.6325(5)
O5? O 0.8142(7) 0.7892(6) 0.5084(4)
O6? O 1.0301(12) 0.7923(10) 0.5454(7)
O7? O 0.8834(8) 0.8462(7) 0.6192(4)
loop_
_geom_bond_atom_site_label_1
_geom_bond_atom_site_label_2
_geom_bond_site_symmetry_1
_geom_bond_site_symmetry_2
C1 C2 1_555 1_555
C2 H1 1_555 1_555
C3 C2 1_555 1_555
H2 C3 1_555 1_555
C4 C3 1_555 1_555
H3 C4 1_555 1_555
C5 C4 1_555 1_555
H4 C5 1_555 1_555
C6 C1 1_555 1_555
C7 C6 1_555 1_555
H5 C7 1_555 1_555
C8 C7 1_555 1_555
C9 C8 1_555 1_555
C10 C9 1_555 1_555
H6 C10 1_555 1_555
C11 C10 1_555 1_555
H7 C11 1_555 1_555
C12 C11 1_555 1_555
H8 C12 1_555 1_555
C13 C12 1_555 1_555
H9 C13 1_555 1_555
C14 C9 1_555 1_555
C15 H10 1_555 1_555
H11 C15 1_555 1_555
H12 C15 1_555 1_555
C16 C8 1_555 1_555
H13 C16 1_555 1_555
C17 H14 1_555 1_555
H15 C17 1_555 1_555
H16 C17 1_555 1_555
C18 C19 1_555 1_555
C19 H17 1_555 1_555
C20 C19 1_555 1_555
H18 C20 1_555 1_555
C21 C20 1_555 1_555
H19 C21 1_555 1_555
C22 C21 1_555 1_555
H20 C22 1_555 1_555
C23 C18 1_555 1_555
H21 C23 1_555 1_555
C24 C25 1_555 1_555
C25 H22 1_555 1_555
C26 C25 1_555 1_555
H23 C26 1_555 1_555
C27 C26 1_555 1_555
H24 C27 1_555 1_555
C28 C27 1_555 1_555
H25 C28 1_555 1_555
C29 C24 1_555 1_555
H26 C29 1_555 1_555
N1 C14 1_555 1_555
O1 C1 1_555 1_555
H27 O1 1_555 1_555
P1 C7 1_555 1_555
C30 F1 1_555 1_555
F2 C30 1_555 1_555
F3 C30 1_555 1_555
O2 S1 1_555 1_555
O3 S1 1_555 1_555
O4 S1 1_555 1_555
S1 C30 1_555 1_555
C5 C6 1_555 1_555
C13 C14 1_555 1_555
C15 N1 1_555 1_555
C16 N1 1_555 1_555
C17 P1 1_555 1_555
C18 P1 1_555 1_555
C22 C23 1_555 1_555
C24 P1 1_555 1_555
C28 C29 1_555 1_555

#END
