
#######################################################################
#
#                 Cambridge Crystallographic Data Centre
#                                CCDC 
#
#######################################################################
#
# If this CIF has been generated from an entry in the Cambridge 
# Structural Database, then it will include bibliographic, chemical, 
# crystal, experimental, refinement or atomic coordinate data resulting 
# from the CCDC's data processing and validation procedures.
#
#######################################################################

data_CAYWEH
_chemical_formula_moiety         'C28 H41 N1 O1 P1 1+,C1 F3 O3 S1 1-'
_chemical_name_systematic        
'tributyl[(2-hydroxyphenyl)(1-methyl-1H-indol-3-yl)methyl]phosphanium trifluoromethanesulfonate'
_symmetry_cell_setting           triclinic
_symmetry_space_group_name_H-M   'P -1'
_symmetry_Int_Tables_number      2
_space_group_name_Hall           '-P 1'
loop_
_symmetry_equiv_pos_site_id
_symmetry_equiv_pos_as_xyz
1 x,y,z
2 -x,-y,-z
_cell_length_a                   10.213(7)
_cell_length_b                   16.497(12)
_cell_length_c                   19.361(14)
_cell_angle_alpha                113.406(10)
_cell_angle_beta                 90.186(12)
_cell_angle_gamma                91.407(13)
_cell_volume                     2992.39
_exptl_crystal_colour            grey
_exptl_crystal_description       prism
_cell_formula_units_Z            4
loop_
_atom_site_label
_atom_site_type_symbol
_atom_site_fract_x
_atom_site_fract_y
_atom_site_fract_z
C1 C 0.3374(8) 0.3729(6) 0.1092(5)
H1 H 0.2530 0.3446 0.0853
H2 H 0.3219 0.4044 0.1638
C2 C 0.3768(9) 0.4410(6) 0.0779(5)
H3 H 0.4699 0.4589 0.0908
H4 H 0.3679 0.4140 0.0224
C3 C 0.2947(10) 0.5212(6) 0.1083(6)
H5 H 0.2966 0.5449 0.1640
H6 H 0.2028 0.5042 0.0912
C4 C 0.3416(10) 0.5925(7) 0.0832(6)
H7 H 0.2848 0.6434 0.1040
H8 H 0.3389 0.5697 0.0281
H9 H 0.4318 0.6108 0.1013
C5 C 0.5156(9) 0.2478(6) 0.0030(5)
H10 H 0.5581 0.2980 -0.0048
H11 H 0.5835 0.2040 -0.0021
C6 C 0.4123(9) 0.2058(7) -0.0573(5)
H12 H 0.3422 0.2487 -0.0502
H13 H 0.3728 0.1541 -0.0505
C7 C 0.4607(10) 0.1759(7) -0.1372(6)
H14 H 0.4879 0.2287 -0.1464
H15 H 0.5392 0.1401 -0.1422
C8 C 0.3618(12) 0.1223(7) -0.1972(6)
H16 H 0.4016 0.1043 -0.2469
H17 H 0.2855 0.1582 -0.1948
H18 H 0.3340 0.0696 -0.1889
C9 C 0.3659(9) 0.1996(6) 0.1119(5)
H19 H 0.3572 0.2178 0.1669
H20 H 0.2763 0.1949 0.0907
C10 C 0.4214(11) 0.1079(6) 0.0804(6)
H21 H 0.5114 0.1113 0.1008
H22 H 0.4276 0.0876 0.0251
C11 C 0.3402(13) 0.0385(9) 0.0984(8)
H23 H 0.2466 0.0426 0.0870
H24 H 0.3688 -0.0214 0.0657
C12 C 0.3543(18) 0.0509(11) 0.1747(11)
H25 H 0.3013 0.0059 0.1839
H26 H 0.3248 0.1098 0.2072
H27 H 0.4465 0.0455 0.1858
C13 C 0.5806(8) 0.3323(5) 0.1686(5)
H28 H 0.5325 0.3617 0.2167
C14 C 0.6569(8) 0.2600(5) 0.1802(5)
C15 C 0.7463(9) 0.2093(6) 0.1307(5)
H29 H 0.7668 0.2204 0.0874
C16 C 0.8075(9) 0.1422(6) 0.1423(6)
H30 H 0.8698 0.1079 0.1072
C17 C 0.7784(10) 0.1241(6) 0.2059(6)
H31 H 0.8206 0.0781 0.2145
C18 C 0.6877(10) 0.1747(6) 0.2551(6)
H32 H 0.6675 0.1632 0.2983
C19 C 0.6243(8) 0.2420(6) 0.2442(5)
C20 C 0.6593(8) 0.4057(5) 0.1602(5)
C21 C 0.6386(8) 0.4966(6) 0.2016(5)
C22 C 0.5518(8) 0.5455(6) 0.2570(5)
H33 H 0.4918 0.5158 0.2769
C23 C 0.5515(9) 0.6345(6) 0.2827(5)
H34 H 0.4947 0.6668 0.3224
C24 C 0.6346(9) 0.6801(6) 0.2514(5)
H35 H 0.6301 0.7425 0.2687
C25 C 0.7223(9) 0.6356(6) 0.1963(5)
H36 H 0.7797 0.6661 0.1758
C26 C 0.7235(8) 0.5447(6) 0.1719(5)
C27 C 0.8987(8) 0.5039(6) 0.0737(5)
H37 H 0.9351 0.4490 0.0378
H38 H 0.9682 0.5396 0.1082
H39 H 0.8620 0.5371 0.0464
C28 C 0.7568(8) 0.3999(5) 0.1087(5)
H40 H 0.7913 0.3466 0.0734
N1 N 0.7947(7) 0.4829(5) 0.1170(4)
O1 O 0.5327(6) 0.2913(4) 0.2908(3)
H41 H 0.5214 0.2745 0.3261
P1 P 0.4515(2) 0.28700(16) 0.09700(13)
C29 C -0.1490(8) 0.6253(5) 0.3869(5)
H42 H -0.2295 0.6553 0.4113
H43 H -0.1694 0.5930 0.3326
C30 C -0.1147(8) 0.5578(6) 0.4199(5)
H44 H -0.0241 0.5382 0.4060
H45 H -0.1183 0.5863 0.4755
C31 C -0.2087(9) 0.4775(6) 0.3914(6)
H46 H -0.2982 0.4967 0.4087
H47 H -0.2103 0.4520 0.3356
C32 C -0.1705(10) 0.4076(6) 0.4183(7)
H48 H -0.2331 0.3574 0.3984
H49 H -0.1712 0.4320 0.4735
H50 H -0.0824 0.3877 0.4007
C33 C 0.0476(8) 0.7505(6) 0.4902(5)
H51 H 0.0887 0.7015 0.4988
H52 H 0.1172 0.7949 0.4939
C34 C -0.0536(9) 0.7931(6) 0.5516(5)
H53 H -0.0912 0.8441 0.5447
H54 H -0.1258 0.7497 0.5462
C35 C 0.0051(9) 0.8242(6) 0.6305(5)
H55 H 0.0324 0.7724 0.6400
H56 H 0.0839 0.8620 0.6343
C36 C -0.0919(11) 0.8754(7) 0.6889(6)
H57 H -0.0516 0.8945 0.7391
H58 H -0.1694 0.8378 0.6856
H59 H -0.1177 0.9274 0.6801
C37 C -0.1030(8) 0.7955(6) 0.3818(5)
H60 H -0.1205 0.7752 0.3270
H61 H -0.1890 0.8041 0.4068
C38 C -0.0321(9) 0.8853(5) 0.4082(6)
H62 H -0.0291 0.9121 0.4639
H63 H 0.0592 0.8769 0.3903
C39 C -0.0973(11) 0.9482(7) 0.3802(7)
H64 H -0.0399 1.0014 0.3925
H65 H -0.1062 0.9193 0.3247
C40 C -0.2263(13) 0.9756(8) 0.4118(9)
H66 H -0.2625 1.0158 0.3912
H67 H -0.2183 1.0058 0.4667
H68 H -0.2846 0.9234 0.3989
C41 C 0.0984(7) 0.6600(5) 0.3250(5)
H69 H 0.0467 0.6302 0.2772
C42 C 0.1796(8) 0.7323(5) 0.3131(5)
C43 C 0.2803(8) 0.7813(5) 0.3631(5)
H70 H 0.3034 0.7673 0.4046
C44 C 0.3461(9) 0.8497(6) 0.3525(6)
H71 H 0.4139 0.8828 0.3865
C45 C 0.3115(10) 0.8695(6) 0.2911(6)
H72 H 0.3552 0.9167 0.2835
C46 C 0.2148(9) 0.8209(6) 0.2419(5)
H73 H 0.1936 0.8340 0.1997
C47 C 0.1477(8) 0.7533(6) 0.2523(5)
C48 C 0.1694(7) 0.5864(5) 0.3357(4)
C49 C 0.1369(8) 0.4954(5) 0.2955(4)
C50 C 0.0454(8) 0.4482(6) 0.2400(5)
H74 H -0.0097 0.4782 0.2188
C51 C 0.0350(8) 0.3586(6) 0.2160(5)
H75 H -0.0275 0.3265 0.1778
C52 C 0.1145(9) 0.3133(6) 0.2464(5)
H76 H 0.1039 0.2510 0.2296
C53 C 0.2082(8) 0.3573(6) 0.3007(5)
H77 H 0.2637 0.3262 0.3206
C54 C 0.2191(8) 0.4476(5) 0.3251(5)
C55 C 0.3968(8) 0.4879(7) 0.4243(6)
H78 H 0.3997 0.4237 0.4084
H79 H 0.3748 0.5153 0.4777
H80 H 0.4826 0.5107 0.4165
C56 C 0.2664(8) 0.5915(5) 0.3867(5)
H81 H 0.3064 0.6446 0.4217
N2 N 0.2960(6) 0.5091(4) 0.3792(4)
O2 O 0.0501(6) 0.7048(4) 0.2052(3)
H82 H 0.0393 0.7228 0.1707
P2 P -0.0239(2) 0.70844(15) 0.39726(13)
C57 C 0.0166(10) 0.1080(8) 0.9253(7)
O3 O -0.1461(7) 0.2299(5) 0.9547(4)
O4 O 0.0558(7) 0.2610(5) 1.0275(4)
O5 O 0.0597(7) 0.2420(5) 0.8964(4)
F1 F -0.0277(8) 0.0608(5) 0.8584(5)
F2 F 0.1414(7) 0.0874(4) 0.9276(5)
F3 F -0.0460(8) 0.0752(5) 0.9702(5)
S1 S -0.0059(2) 0.22357(17) 0.95498(14)
C58 C 0.4477(10) 0.1125(8) 0.4282(7)
O6 O 0.4169(8) 0.2671(5) 0.5272(4)
O7 O 0.6199(7) 0.2365(5) 0.4582(4)
O8 O 0.4198(7) 0.2460(5) 0.3966(4)
F4 F 0.4972(7) 0.0665(4) 0.3606(4)
F5 F 0.3218(6) 0.0922(4) 0.4255(4)
F6 F 0.5047(7) 0.0811(5) 0.4740(5)
S2 S 0.4799(2) 0.22920(17) 0.45615(14)
loop_
_geom_bond_atom_site_label_1
_geom_bond_atom_site_label_2
_geom_bond_site_symmetry_1
_geom_bond_site_symmetry_2
C1 H1 1_555 1_555
H2 C1 1_555 1_555
C2 C1 1_555 1_555
H3 C2 1_555 1_555
H4 C2 1_555 1_555
C3 C2 1_555 1_555
H5 C3 1_555 1_555
H6 C3 1_555 1_555
C4 C3 1_555 1_555
H7 C4 1_555 1_555
H8 C4 1_555 1_555
H9 C4 1_555 1_555
C5 H10 1_555 1_555
H11 C5 1_555 1_555
C6 C5 1_555 1_555
H12 C6 1_555 1_555
H13 C6 1_555 1_555
C7 C6 1_555 1_555
H14 C7 1_555 1_555
H15 C7 1_555 1_555
C8 C7 1_555 1_555
H16 C8 1_555 1_555
H17 C8 1_555 1_555
H18 C8 1_555 1_555
C9 H19 1_555 1_555
H20 C9 1_555 1_555
C10 C9 1_555 1_555
H21 C10 1_555 1_555
H22 C10 1_555 1_555
C11 C10 1_555 1_555
H23 C11 1_555 1_555
H24 C11 1_555 1_555
C12 C11 1_555 1_555
H25 C12 1_555 1_555
H26 C12 1_555 1_555
H27 C12 1_555 1_555
C13 H28 1_555 1_555
C14 C13 1_555 1_555
C15 C14 1_555 1_555
H29 C15 1_555 1_555
C16 C15 1_555 1_555
H30 C16 1_555 1_555
C17 C16 1_555 1_555
H31 C17 1_555 1_555
C18 C17 1_555 1_555
H32 C18 1_555 1_555
C19 C14 1_555 1_555
C20 C13 1_555 1_555
C21 C20 1_555 1_555
C22 C21 1_555 1_555
H33 C22 1_555 1_555
C23 C22 1_555 1_555
H34 C23 1_555 1_555
C24 C23 1_555 1_555
H35 C24 1_555 1_555
C25 C24 1_555 1_555
H36 C25 1_555 1_555
C26 C21 1_555 1_555
C27 H37 1_555 1_555
H38 C27 1_555 1_555
H39 C27 1_555 1_555
C28 C20 1_555 1_555
H40 C28 1_555 1_555
N1 C26 1_555 1_555
O1 C19 1_555 1_555
H41 O1 1_555 1_555
P1 C1 1_555 1_555
C29 H42 1_555 1_555
H43 C29 1_555 1_555
C30 C29 1_555 1_555
H44 C30 1_555 1_555
H45 C30 1_555 1_555
C31 C30 1_555 1_555
H46 C31 1_555 1_555
H47 C31 1_555 1_555
C32 C31 1_555 1_555
H48 C32 1_555 1_555
H49 C32 1_555 1_555
H50 C32 1_555 1_555
C33 H51 1_555 1_555
H52 C33 1_555 1_555
C34 C33 1_555 1_555
H53 C34 1_555 1_555
H54 C34 1_555 1_555
C35 C34 1_555 1_555
H55 C35 1_555 1_555
H56 C35 1_555 1_555
C36 C35 1_555 1_555
H57 C36 1_555 1_555
H58 C36 1_555 1_555
H59 C36 1_555 1_555
C37 H60 1_555 1_555
H61 C37 1_555 1_555
C38 C37 1_555 1_555
H62 C38 1_555 1_555
H63 C38 1_555 1_555
C39 C38 1_555 1_555
H64 C39 1_555 1_555
H65 C39 1_555 1_555
C40 C39 1_555 1_555
H66 C40 1_555 1_555
H67 C40 1_555 1_555
H68 C40 1_555 1_555
C41 H69 1_555 1_555
C42 C41 1_555 1_555
C43 C42 1_555 1_555
H70 C43 1_555 1_555
C44 C43 1_555 1_555
H71 C44 1_555 1_555
C45 C44 1_555 1_555
H72 C45 1_555 1_555
C46 C45 1_555 1_555
H73 C46 1_555 1_555
C47 C42 1_555 1_555
C48 C41 1_555 1_555
C49 C48 1_555 1_555
C50 C49 1_555 1_555
H74 C50 1_555 1_555
C51 C50 1_555 1_555
H75 C51 1_555 1_555
C52 C51 1_555 1_555
H76 C52 1_555 1_555
C53 C52 1_555 1_555
H77 C53 1_555 1_555
C54 C49 1_555 1_555
C55 H78 1_555 1_555
H79 C55 1_555 1_555
H80 C55 1_555 1_555
C56 C48 1_555 1_555
H81 C56 1_555 1_555
N2 C54 1_555 1_555
O2 C47 1_555 1_555
H82 O2 1_555 1_555
P2 C29 1_555 1_555
C57 F1 1_555 1_555
O3 S1 1_555 1_555
O4 S1 1_555 1_555
O5 S1 1_555 1_555
F2 C57 1_555 1_555
F3 C57 1_555 1_555
S1 C57 1_555 1_555
C58 F4 1_555 1_555
O6 S2 1_555 1_555
O7 S2 1_555 1_555
O8 S2 1_555 1_555
F5 C58 1_555 1_555
F6 C58 1_555 1_555
S2 C58 1_555 1_555
C5 P1 1_555 1_555
C9 P1 1_555 1_555
C13 P1 1_555 1_555
C18 C19 1_555 1_555
C25 C26 1_555 1_555
C27 N1 1_555 1_555
C28 N1 1_555 1_555
C33 P2 1_555 1_555
C37 P2 1_555 1_555
C41 P2 1_555 1_555
C46 C47 1_555 1_555
C53 C54 1_555 1_555
C55 N2 1_555 1_555
C56 N2 1_555 1_555

#END
