
#######################################################################
#
#                 Cambridge Crystallographic Data Centre
#                                CCDC 
#
#######################################################################
#
# If this CIF has been generated from an entry in the Cambridge 
# Structural Database, then it will include bibliographic, chemical, 
# crystal, experimental, refinement or atomic coordinate data resulting 
# from the CCDC's data processing and validation procedures.
#
#######################################################################

data_CAYXOP
_chemical_formula_moiety         'C16 H30 N4 O5 Rb1 1+,I1 1-'
_chemical_name_systematic        
"Aqua-(N,N'-bis(cyanomethyl)-1,10-diaza-4,7,13,16-tetraoxacyclo-octadecane)-rubidium iodide"
_symmetry_cell_setting           orthorhombic
_symmetry_space_group_name_H-M   'P n a 21'
_symmetry_Int_Tables_number      33
_space_group_name_Hall           'P 2c -2n'
loop_
_symmetry_equiv_pos_site_id
_symmetry_equiv_pos_as_xyz
1 x,y,z
2 1/2-x,1/2+y,1/2+z
3 1/2+x,1/2-y,z
4 -x,-y,1/2+z
_cell_length_a                   13.222(4)
_cell_length_b                   12.752(4)
_cell_length_c                   13.517(4)
_cell_angle_alpha                90
_cell_angle_beta                 90
_cell_angle_gamma                90
_cell_volume                     2279.06
_exptl_crystal_colour            colorless
_chemical_melting_point          157-8deg.C
_cell_formula_units_Z            4
loop_
_atom_site_label
_atom_site_type_symbol
_atom_site_fract_x
_atom_site_fract_y
_atom_site_fract_z
Rb1 Rb 0.67430 -0.11120 0.75000
O1 O 0.70880 -0.35530 0.75280
N1 N 0.74650 0.04290 0.91940
C1 C 0.65420 0.06130 0.97570
C2 C 0.56830 0.10560 0.91860
O2 O 0.53380 0.02620 0.85450
C3 C 0.44510 0.03870 0.78980
C4 C 0.46910 0.10260 0.70020
O3 O 0.54100 0.03870 0.64900
C5 C 0.57620 0.10970 0.57540
C6 C 0.65950 0.06410 0.51600
N2 N 0.75010 0.04440 0.57510
C7 C 0.82110 -0.02090 0.51830
C8 C 0.90290 -0.07250 0.57660
O4 O 0.85920 -0.13970 0.64780
C9 C 0.92030 -0.21260 0.70200
C10 C 0.95410 -0.15670 0.79170
O5 O 0.86540 -0.13500 0.85230
C11 C 0.90020 -0.06640 0.92690
C12 C 0.80940 -0.02550 0.98050
C13 C 0.80470 0.13600 0.88870
C14 C 0.82890 0.20910 0.97080
N3 N 0.85530 0.24870 1.04170
C15 C 0.79150 0.14620 0.60850
C16 C 0.83610 0.20700 0.52580
N4 N 0.85810 0.26370 0.46450
H1 H 0.63230 -0.00440 1.00340
H2 H 0.67000 0.10930 1.02820
H3 H 0.59060 0.16520 0.88100
H4 H 0.51500 0.12650 0.96250
H5 H 0.42240 -0.02940 0.76920
H6 H 0.39220 0.07290 0.82630
H7 H 0.49800 0.16890 0.71820
H8 H 0.40980 0.11390 0.66060
H9 H 0.52110 0.12670 0.53190
H10 H 0.60000 0.17230 0.60710
H11 H 0.67630 0.11180 0.46360
H12 H 0.63700 -0.00120 0.48820
H13 H 0.78280 -0.07480 0.48590
H14 H 0.85270 0.02300 0.46960
H15 H 0.94270 -0.02010 0.60940
H16 H 0.94530 -0.11260 0.53310
H17 H 0.88130 -0.27320 0.71970
H18 H 0.97750 -0.23380 0.66300
H19 H 0.98640 -0.09200 0.77350
H20 H 1.00090 -0.19960 0.82790
H21 H 0.94330 -0.10350 0.97210
H22 H 0.93690 -0.00920 0.89780
H23 H 0.83180 0.01330 1.03730
H24 H 0.76930 -0.08410 1.00170
H25 H 0.86700 0.11250 0.85980
H26 H 0.76600 0.17330 0.84010
H27 H 0.73780 0.18640 0.63760
H28 H 0.84290 0.13360 0.65720
I1 I 0.62390 -0.62530 0.75030
loop_
_geom_bond_atom_site_label_1
_geom_bond_atom_site_label_2
_geom_bond_site_symmetry_1
_geom_bond_site_symmetry_2
Rb1 O1 1_555 1_555
N1 Rb1 1_555 1_555
C1 N1 1_555 1_555
C2 C1 1_555 1_555
O2 Rb1 1_555 1_555
C3 O2 1_555 1_555
C4 C3 1_555 1_555
O3 Rb1 1_555 1_555
C5 O3 1_555 1_555
C6 C5 1_555 1_555
N2 Rb1 1_555 1_555
C7 N2 1_555 1_555
C8 C7 1_555 1_555
O4 Rb1 1_555 1_555
C9 O4 1_555 1_555
C10 C9 1_555 1_555
O5 Rb1 1_555 1_555
C11 O5 1_555 1_555
C12 N1 1_555 1_555
C13 N1 1_555 1_555
C14 C13 1_555 1_555
N3 C14 1_555 1_555
C15 N2 1_555 1_555
C16 C15 1_555 1_555
N4 C16 1_555 1_555
H1 C1 1_555 1_555
H2 C1 1_555 1_555
H3 C2 1_555 1_555
H4 C2 1_555 1_555
H5 C3 1_555 1_555
H6 C3 1_555 1_555
H7 C4 1_555 1_555
H8 C4 1_555 1_555
H9 C5 1_555 1_555
H10 C5 1_555 1_555
H11 C6 1_555 1_555
H12 C6 1_555 1_555
H13 C7 1_555 1_555
H14 C7 1_555 1_555
H15 C8 1_555 1_555
H16 C8 1_555 1_555
H17 C9 1_555 1_555
H18 C9 1_555 1_555
H19 C10 1_555 1_555
H20 C10 1_555 1_555
H21 C11 1_555 1_555
H22 C11 1_555 1_555
H23 C12 1_555 1_555
H24 C12 1_555 1_555
H25 C13 1_555 1_555
H26 C13 1_555 1_555
H27 C15 1_555 1_555
H28 C15 1_555 1_555
C2 O2 1_555 1_555
C4 O3 1_555 1_555
C6 N2 1_555 1_555
C8 O4 1_555 1_555
C10 O5 1_555 1_555
C11 C12 1_555 1_555

#END
