
#######################################################################
#
#                 Cambridge Crystallographic Data Centre
#                                CCDC 
#
#######################################################################
#
# If this CIF has been generated from an entry in the Cambridge 
# Structural Database, then it will include bibliographic, chemical, 
# crystal, experimental, refinement or atomic coordinate data resulting 
# from the CCDC's data processing and validation procedures.
#
#######################################################################

data_CAYXAE
_chemical_formula_moiety         'C26 H19 N1 O3 S2'
_chemical_name_systematic        
'2-[1-(1-methyl-1H-indol-3-yl)-2-oxo-2-(thiophen-2-yl)ethyl]phenyl thiophene-2-carboxylate'
_symmetry_cell_setting           monoclinic
_symmetry_space_group_name_H-M   'P 21'
_symmetry_Int_Tables_number      4
_space_group_name_Hall           'P 2yb'
loop_
_symmetry_equiv_pos_site_id
_symmetry_equiv_pos_as_xyz
1 x,y,z
2 -x,1/2+y,-z
_cell_length_a                   8.8169(3)
_cell_length_b                   22.4696(7)
_cell_length_c                   11.3220(4)
_cell_angle_alpha                90
_cell_angle_beta                 98.183(2)
_cell_angle_gamma                90
_cell_volume                     2220.19
_exptl_crystal_colour            colorless
_exptl_crystal_description       prism
_cell_formula_units_Z            4
loop_
_atom_site_label
_atom_site_type_symbol
_atom_site_fract_x
_atom_site_fract_y
_atom_site_fract_z
C1 C 1.1435(7) 0.4745(4) 0.4379(5)
H1 H 1.1709 0.4886 0.3647
C2 C 1.2116(6) 0.4294(4) 0.4974(5)
H2 H 1.2927 0.4082 0.4693
C3 C 1.1568(4) 0.4136(4) 0.6076(4)
H3 H 1.1951 0.3831 0.6619
C4 C 1.0314(4) 0.4538(4) 0.6181(4)
C5 C 0.9265(4) 0.4549(4) 0.7080(3)
C6 C 0.9464(4) 0.4076(4) 0.8053(3)
H4 H 1.0034 0.3736 0.7752
C7 C 1.0466(4) 0.4332(4) 0.9122(3)
C8 C 1.0678(5) 0.4914(4) 0.9421(4)
H5 H 1.0177 0.5236 0.8983
C9 C 1.2172(6) 0.5537(4) 1.1023(5)
H6 H 1.2923 0.5459 1.1731
H7 H 1.1273 0.5735 1.1262
H8 H 1.2632 0.5793 1.0471
C10 C 1.2174(4) 0.4415(4) 1.0826(3)
C11 C 1.3190(5) 0.4232(4) 1.1823(4)
H9 H 1.3723 0.4514 1.2353
C12 C 1.3391(5) 0.3631(4) 1.2013(4)
H10 H 1.4050 0.3495 1.2698
C13 C 1.2641(5) 0.3219(4) 1.1214(4)
H11 H 1.2823 0.2807 1.1359
C14 C 1.1649(4) 0.3388(4) 1.0223(4)
H12 H 1.1141 0.3099 0.9695
C15 C 1.1405(4) 0.3999(4) 1.0010(3)
C16 C 0.7913(4) 0.3838(4) 0.8286(3)
C17 C 0.7374(5) 0.3907(4) 0.9367(4)
H13 H 0.7975 0.4120 0.9991
C18 C 0.5976(5) 0.3673(4) 0.9558(4)
H14 H 0.5632 0.3721 1.0311
C19 C 0.5082(5) 0.3368(4) 0.8650(4)
H15 H 0.4125 0.3205 0.8778
C20 C 0.5587(4) 0.3301(4) 0.7559(4)
H16 H 0.4974 0.3098 0.6927
C21 C 0.6989(4) 0.3533(4) 0.7396(3)
C22 C 0.6999(5) 0.3672(4) 0.5312(4)
C23 C 0.7916(4) 0.3519(4) 0.4351(3)
C24 C 0.9232 0.3207 0.4323
H17 H 0.9781 0.3049 0.5037
C25 C 0.9735(5) 0.3128(4) 0.3297(4)
H18 H 1.0451 0.2838 0.3113
C26 C 0.9027(6) 0.3539(4) 0.2571(5)
H19 H 0.9328 0.3613 0.1811
N1 N 1.1707(4) 0.4976(4) 1.0436(3)
O1 O 0.8286(3) 0.4937(4) 0.7059(3)
O2 O 0.7612(3) 0.3421(4) 0.6339(2)
O3 O 0.5885(4) 0.3985(4) 0.5201(3)
S1 S 1.00349(16) 0.5046(4) 0.50409(13)
S2 S 0.7642(3) 0.3908(4) 0.3020(2)
C28 C 0.5875(7) 0.1103(5) 0.5956(6)
H21 H 0.6697 0.1319 0.5704
C29 C 0.5282(7) 0.0594(5) 0.5494(5)
H22 H 0.5651 0.0409 0.4836
C30 C 0.5038(7) 0.1261(5) 0.6907(6)
H23 H 0.5236 0.1616 0.7357
C31 C 0.3957(5) 0.0872(4) 0.7113(4)
C32 C 0.2833(5) 0.0882(4) 0.7962(4)
C33 C 0.3000(4) 0.1374(4) 0.8909(3)
H24 H 0.3614 0.1700 0.8606
C34 C 0.3947(4) 0.1126(4) 1.0009(4)
C35 C 0.4030(5) 0.0548(4) 1.0409(4)
H25 H 0.3438 0.0228 1.0038
C36 C 0.5499(6) -0.0046(4) 1.2076(5)
H26 H 0.4896 -0.0379 1.1696
H27 H 0.5289 -0.0001 1.2898
H28 H 0.6592 -0.0127 1.2080
C37 C 0.5681(4) 0.1047(4) 1.1705(4)
C38 C 0.6789(4) 0.1222(4) 1.2659(4)
H29 H 0.7259 0.0943 1.3226
C39 C 0.7159(5) 0.1812(4) 1.2732(4)
H30 H 0.7899 0.1945 1.3370
C40 C 0.6486(5) 0.2229(4) 1.1899(4)
H31 H 0.6773 0.2636 1.1987
C41 C 0.5410(5) 0.2057(4) 1.0950(4)
H32 H 0.4961 0.2341 1.0383
C42 C 0.4998(4) 0.1457(4) 1.0846(3)
C43 C 0.1452(4) 0.1642(4) 0.9080(3)
C44 C 0.0960(5) 0.1685(4) 1.0185(4)
H33 H 0.1573 0.1524 1.0868
C45 C -0.0421(5) 0.1960(4) 1.0305(4)
H34 H -0.0744 0.1985 1.1069
C46 C -0.1316(5) 0.2196(4) 0.9338(4)
H35 H -0.2247 0.2390 0.9433
C47 C -0.0877(5) 0.2153(4) 0.8224(4)
H36 H -0.1507 0.2308 0.7544
C48 C 0.0491(4) 0.1881(4) 0.8114(3)
C49 C 0.1749(4) 0.2230(4) 0.6529(4)
C50 C 0.2121(4) 0.2043(4) 0.5350(3)
C51 C 0.1655(5) 0.1540(4) 0.4693(3)
H37 H 0.0959 0.1252 0.4912
C52 C 0.2359(8) 0.1517(4) 0.3654(5)
H38 H 0.2178 0.1207 0.3081
C53 C 0.3299(6) 0.1970(5) 0.3552(4)
H39 H 0.3861 0.2014 0.2901
N2 N 0.5082(4) 0.0496(4) 1.1415(3)
O4 O 0.1835(4) 0.0502(4) 0.7936(3)
O5 O 0.0890(3) 0.1801(4) 0.6959(2)
O6 O 0.2159(4) 0.2671(4) 0.7070(3)
S4 S 0.3842(3) 0.0294(4) 0.6136(2)
S5 S 0.33988(15) 0.2458(4) 0.46884(11)
C27? C 0.7781 0.3722 0.3140
H20? H 0.6948 0.3953 0.2764
S3? S 0.9229(3) 0.2995(4) 0.4581(2)
C54? C 0.4236(10) 0.0468(6) 0.6108(8)
H40? H 0.3630 0.0121 0.5936
S6? S 0.5304(5) 0.1431(4) 0.7069(4)
loop_
_geom_bond_atom_site_label_1
_geom_bond_atom_site_label_2
_geom_bond_site_symmetry_1
_geom_bond_site_symmetry_2
C1 H1 1_555 1_555
C2 C1 1_555 1_555
H2 C2 1_555 1_555
C3 C2 1_555 1_555
H3 C3 1_555 1_555
C4 C3 1_555 1_555
C5 C4 1_555 1_555
C6 C5 1_555 1_555
H4 C6 1_555 1_555
C7 C6 1_555 1_555
C8 C7 1_555 1_555
H5 C8 1_555 1_555
C9 H6 1_555 1_555
H7 C9 1_555 1_555
H8 C9 1_555 1_555
C10 C11 1_555 1_555
C11 H9 1_555 1_555
C12 C11 1_555 1_555
H10 C12 1_555 1_555
C13 C12 1_555 1_555
H11 C13 1_555 1_555
C14 C13 1_555 1_555
H12 C14 1_555 1_555
C15 C7 1_555 1_555
C16 C6 1_555 1_555
C17 C16 1_555 1_555
H13 C17 1_555 1_555
C18 C17 1_555 1_555
H14 C18 1_555 1_555
C19 C18 1_555 1_555
H15 C19 1_555 1_555
C20 C19 1_555 1_555
H16 C20 1_555 1_555
C21 C16 1_555 1_555
C22 C23 1_555 1_555
C23 C24 1_555 1_555
C24 H17 1_555 1_555
C25 C24 1_555 1_555
H18 C25 1_555 1_555
C26 C25 1_555 1_555
H19 C26 1_555 1_555
N1 C8 1_555 1_555
O1 C5 1_555 1_555
O2 C21 1_555 1_555
O3 C22 1_555 1_555
S1 C1 1_555 1_555
S2 C23 1_555 1_555
C28 H21 1_555 1_555
C29 C28 1_555 1_555
H22 C29 1_555 1_555
C30 C28 1_555 1_555
H23 C30 1_555 1_555
C31 C30 1_555 1_555
C32 C31 1_555 1_555
C33 C32 1_555 1_555
H24 C33 1_555 1_555
C34 C33 1_555 1_555
C35 C34 1_555 1_555
H25 C35 1_555 1_555
C36 H26 1_555 1_555
H27 C36 1_555 1_555
H28 C36 1_555 1_555
C37 C38 1_555 1_555
C38 H29 1_555 1_555
C39 C38 1_555 1_555
H30 C39 1_555 1_555
C40 C39 1_555 1_555
H31 C40 1_555 1_555
C41 C40 1_555 1_555
H32 C41 1_555 1_555
C42 C34 1_555 1_555
C43 C33 1_555 1_555
C44 C43 1_555 1_555
H33 C44 1_555 1_555
C45 C44 1_555 1_555
H34 C45 1_555 1_555
C46 C45 1_555 1_555
H35 C46 1_555 1_555
C47 C46 1_555 1_555
H36 C47 1_555 1_555
C48 C43 1_555 1_555
C49 C50 1_555 1_555
C50 C51 1_555 1_555
C51 H37 1_555 1_555
C52 C51 1_555 1_555
H38 C52 1_555 1_555
C53 C52 1_555 1_555
H39 C53 1_555 1_555
N2 C35 1_555 1_555
O4 C32 1_555 1_555
O5 C48 1_555 1_555
O6 C49 1_555 1_555
S4 C29 1_555 1_555
S5 C50 1_555 1_555
C4 S1 1_555 1_555
C9 N1 1_555 1_555
C10 C15 1_555 1_555
C10 N1 1_555 1_555
C14 C15 1_555 1_555
C20 C21 1_555 1_555
C22 O2 1_555 1_555
C26 S2 1_555 1_555
C31 S4 1_555 1_555
C36 N2 1_555 1_555
C37 C42 1_555 1_555
C37 N2 1_555 1_555
C41 C42 1_555 1_555
C47 C48 1_555 1_555
C49 O5 1_555 1_555
C53 S5 1_555 1_555

#END
