
#######################################################################
#
#                 Cambridge Crystallographic Data Centre
#                                CCDC 
#
#######################################################################
#
# If this CIF has been generated from an entry in the Cambridge 
# Structural Database, then it will include bibliographic, chemical, 
# crystal, experimental, refinement or atomic coordinate data resulting 
# from the CCDC's data processing and validation procedures.
#
#######################################################################

data_CAYYEJ
_chemical_formula_moiety         'C42 H54 O10,C4 H8 O2'
_chemical_name_systematic        
"11a,11a'-diethyl-3a,3a',8,8,8',8'-hexamethyl-3a,3a',3b,3b',4,4',8,8',8a,8a',9,9',10,10',10a,10a',10b,10b',11a,11a'-icosahydro-6H,6'H-[4a,4a'-bifuro[3',4':5,6]azuleno[1,2-b]furo[3,2-d]furan]-2,2',6,6'(3H,3'H)-tetrone ethyl acetate solvate"
_symmetry_cell_setting           monoclinic
_symmetry_space_group_name_H-M   'P 21'
_symmetry_Int_Tables_number      4
_space_group_name_Hall           'P 2yb'
loop_
_symmetry_equiv_pos_site_id
_symmetry_equiv_pos_as_xyz
1 x,y,z
2 -x,1/2+y,-z
_cell_length_a                   13.189(3)
_cell_length_b                   8.7929(18)
_cell_length_c                   19.177(4)
_cell_angle_alpha                90
_cell_angle_beta                 104.29(3)
_cell_angle_gamma                90
_cell_volume                     2155.14
_exptl_crystal_colour            colorless
_exptl_crystal_description       Prism
_cell_formula_units_Z            2
loop_
_atom_site_label
_atom_site_type_symbol
_atom_site_fract_x
_atom_site_fract_y
_atom_site_fract_z
O1 O 0.84065(16) 0.3380(2) 0.16808(11)
O2 O 0.92907(14) 0.1236(3) 0.20465(12)
O3 O 0.43601(13) -0.16640(19) 0.09336(9)
O4 O 0.40130(14) -0.1138(2) -0.02842(9)
O5 O 0.40665(18) 0.0410(2) -0.11960(10)
O6 O 0.83801(16) -0.0237(3) 0.44232(11)
O7 O 0.92164(14) 0.1982(3) 0.43939(11)
O8 O 0.42701(13) 0.4601(2) 0.37807(9)
O9 O 0.41093(14) 0.4122(2) 0.49375(9)
O10 O 0.43269(17) 0.2697(2) 0.59247(10)
C1 C 0.8412(2) 0.2090(3) 0.18964(15)
C2 C 0.75431(19) 0.1211(3) 0.20665(12)
C3 C 0.79715(19) -0.0306(3) 0.23661(14)
H1 H 0.8085 -0.0257 0.2901
C4 C 0.9069(2) -0.0356(4) 0.21997(15)
C5 C 0.9919(2) -0.0864(5) 0.28413(18)
H2 H 1.0592 -0.0881 0.2711
H3 H 0.9758 -0.1886 0.2987
H4 H 0.9958 -0.0154 0.3241
C6 C 0.9102(2) -0.1247(4) 0.15278(17)
H5 H 0.8541 -0.0894 0.1124
H6 H 0.9005 -0.2332 0.1610
H7 H 0.9780 -0.1091 0.1415
C7 C 0.66127(18) 0.1885(3) 0.19901(12)
H8 H 0.6566 0.2883 0.1795
C8 C 0.56199(18) 0.1308(3) 0.21663(12)
C9 C 0.54322(18) -0.0414(3) 0.19995(12)
H9 H 0.4787 -0.0675 0.2159
C10 C 0.6236(2) -0.1640(3) 0.23302(13)
H10 H 0.6402 -0.1525 0.2860
H11 H 0.5897 -0.2645 0.2214
C11 C 0.7269(2) -0.1665(3) 0.21028(14)
H12 H 0.7653 -0.2607 0.2289
H13 H 0.7114 -0.1701 0.1571
C12 C 0.46776(18) 0.2021(3) 0.16091(12)
H14 H 0.4036 0.1983 0.1789
H15 H 0.4824 0.3094 0.1512
C13 C 0.45465(18) 0.1054(3) 0.09264(12)
H16 H 0.4914 0.1570 0.0594
C14 C 0.51060(18) -0.0458(3) 0.11791(13)
H17 H 0.5731 -0.0585 0.0977
C15 C 0.35897(19) -0.1138(3) 0.03621(13)
C16 C 0.34204(19) 0.0577(3) 0.04871(13)
C17 C 0.3184(2) 0.1223(3) -0.02755(13)
H18 H 0.2426 0.1180 -0.0507
H19 H 0.3426 0.2289 -0.0274
C18 C 0.3793(2) 0.0193(3) -0.06525(14)
C19 C 0.2556(2) 0.0883(4) 0.08718(16)
H20 H 0.2513 0.1977 0.0956
H21 H 0.2715 0.0344 0.1334
H22 H 0.1886 0.0522 0.0573
C20 C 0.2667(2) -0.2211(3) 0.02264(14)
H23 H 0.2128 -0.1848 -0.0196
H24 H 0.2358 -0.2192 0.0647
C21 C 0.2960(2) -0.3846(3) 0.00916(16)
H25 H 0.3182 -0.3894 -0.0359
H26 H 0.2351 -0.4507 0.0057
H27 H 0.3533 -0.4186 0.0490
C22 C 0.8366(2) 0.1078(3) 0.42227(14)
C23 C 0.74878(19) 0.1926(3) 0.37521(13)
C24 C 0.78943(19) 0.3460(3) 0.36079(13)
H28 H 0.8057 0.3410 0.3126
C25 C 0.8954(2) 0.3568(4) 0.41829(16)
C26 C 0.8896(2) 0.4379(4) 0.48702(15)
H29 H 0.8305 0.3979 0.5039
H30 H 0.8798 0.5471 0.4776
H31 H 0.9547 0.4210 0.5239
C27 C 0.9827(2) 0.4184(5) 0.38839(19)
H32 H 1.0481 0.4181 0.4262
H33 H 0.9660 0.5226 0.3713
H34 H 0.9907 0.3544 0.3483
C28 C 0.65768(18) 0.1208(3) 0.34993(12)
H35 H 0.6540 0.0209 0.3681
C29 C 0.55988(17) 0.1749(3) 0.29682(12)
C30 C 0.53739(18) 0.3465(3) 0.30711(12)
H36 H 0.4717 0.3701 0.2698
C31 C 0.61463(19) 0.4725(3) 0.30068(13)
H37 H 0.5784 0.5713 0.2996
H38 H 0.6326 0.4605 0.2538
C32 C 0.71687(19) 0.4803(3) 0.35950(14)
H39 H 0.7544 0.5745 0.3528
H40 H 0.6998 0.4873 0.4068
C33 C 0.46494(18) 0.1025(3) 0.31958(13)
H41 H 0.3998 0.1145 0.2811
H42 H 0.4770 -0.0071 0.3303
C34 C 0.45841(18) 0.1910(3) 0.38731(13)
H43 H 0.5030 0.1388 0.4304
C35 C 0.50690(18) 0.3478(3) 0.37885(13)
H44 H 0.5695 0.3670 0.4195
C36 C 0.35915(19) 0.4011(3) 0.41585(13)
C37 C 0.34963(19) 0.2268(3) 0.40209(14)
C38 C 0.3430(2) 0.1661(3) 0.47540(14)
H45 H 0.2692 0.1568 0.4780
H46 H 0.3770 0.0653 0.4848
C39 C 0.3999(2) 0.2820(3) 0.52842(14)
C40 C 0.2560(2) 0.1825(4) 0.34104(16)
H47 H 0.2575 0.0727 0.3326
H48 H 0.2595 0.2371 0.2971
H49 H 0.1911 0.2092 0.3542
C41 C 0.2611(2) 0.4975(4) 0.40202(16)
H50 H 0.2140 0.4567 0.4305
H51 H 0.2242 0.4899 0.3505
C42 C 0.2837(3) 0.6646(4) 0.42140(17)
H52 H 0.3110 0.6744 0.4736
H53 H 0.2191 0.7237 0.4060
H54 H 0.3357 0.7030 0.3971
O11 O 0.2723(2) 0.4267(3) 0.18971(15)
O12 O 0.15484(18) 0.6023(3) 0.20035(14)
C43 C 0.3307(3) 0.6755(4) 0.22689(18)
H55 H 0.3800 0.6434 0.2715
H56 H 0.2968 0.7705 0.2353
H57 H 0.3686 0.6916 0.1895
C44 C 0.2506(3) 0.5563(4) 0.20328(18)
C45 C 0.0727(3) 0.4859(5) 0.1769(2)
H58 H 0.0122 0.5104 0.1968
H59 H 0.1002 0.3854 0.1958
C46 C 0.0374(3) 0.4789(6) 0.0959(2)
H60 H 0.0228 0.5820 0.0765
H61 H -0.0263 0.4173 0.0817
H62 H 0.0926 0.4330 0.0767
loop_
_geom_bond_atom_site_label_1
_geom_bond_atom_site_label_2
_geom_bond_site_symmetry_1
_geom_bond_site_symmetry_2
O1 C1 1_555 1_555
O2 C1 1_555 1_555
O3 C14 1_555 1_555
O4 C15 1_555 1_555
O5 C18 1_555 1_555
O6 C22 1_555 1_555
O7 C22 1_555 1_555
O8 C35 1_555 1_555
O9 C36 1_555 1_555
O10 C39 1_555 1_555
C1 C2 1_555 1_555
C2 C3 1_555 1_555
C3 H1 1_555 1_555
C4 O2 1_555 1_555
C5 C4 1_555 1_555
H2 C5 1_555 1_555
H3 C5 1_555 1_555
H4 C5 1_555 1_555
C6 C4 1_555 1_555
H5 C6 1_555 1_555
H6 C6 1_555 1_555
H7 C6 1_555 1_555
C7 C2 1_555 1_555
H8 C7 1_555 1_555
C8 C7 1_555 1_555
C9 C8 1_555 1_555
H9 C9 1_555 1_555
C10 C9 1_555 1_555
H10 C10 1_555 1_555
H11 C10 1_555 1_555
C11 C3 1_555 1_555
H12 C11 1_555 1_555
H13 C11 1_555 1_555
C12 C8 1_555 1_555
H14 C12 1_555 1_555
H15 C12 1_555 1_555
C13 C12 1_555 1_555
H16 C13 1_555 1_555
C14 C9 1_555 1_555
H17 C14 1_555 1_555
C15 O3 1_555 1_555
C16 C13 1_555 1_555
C17 C16 1_555 1_555
H18 C17 1_555 1_555
H19 C17 1_555 1_555
C18 O4 1_555 1_555
C19 C16 1_555 1_555
H20 C19 1_555 1_555
H21 C19 1_555 1_555
H22 C19 1_555 1_555
C20 C15 1_555 1_555
H23 C20 1_555 1_555
H24 C20 1_555 1_555
C21 C20 1_555 1_555
H25 C21 1_555 1_555
H26 C21 1_555 1_555
H27 C21 1_555 1_555
C22 C23 1_555 1_555
C23 C24 1_555 1_555
C24 H28 1_555 1_555
C25 O7 1_555 1_555
C26 C25 1_555 1_555
H29 C26 1_555 1_555
H30 C26 1_555 1_555
H31 C26 1_555 1_555
C27 C25 1_555 1_555
H32 C27 1_555 1_555
H33 C27 1_555 1_555
H34 C27 1_555 1_555
C28 C23 1_555 1_555
H35 C28 1_555 1_555
C29 C8 1_555 1_555
C30 C29 1_555 1_555
H36 C30 1_555 1_555
C31 C30 1_555 1_555
H37 C31 1_555 1_555
H38 C31 1_555 1_555
C32 C24 1_555 1_555
H39 C32 1_555 1_555
H40 C32 1_555 1_555
C33 C29 1_555 1_555
H41 C33 1_555 1_555
H42 C33 1_555 1_555
C34 C33 1_555 1_555
H43 C34 1_555 1_555
C35 C30 1_555 1_555
H44 C35 1_555 1_555
C36 O8 1_555 1_555
C37 C34 1_555 1_555
C38 C37 1_555 1_555
H45 C38 1_555 1_555
H46 C38 1_555 1_555
C39 O9 1_555 1_555
C40 C37 1_555 1_555
H47 C40 1_555 1_555
H48 C40 1_555 1_555
H49 C40 1_555 1_555
C41 C36 1_555 1_555
H50 C41 1_555 1_555
H51 C41 1_555 1_555
C42 C41 1_555 1_555
H52 C42 1_555 1_555
H53 C42 1_555 1_555
H54 C42 1_555 1_555
O11 C44 1_555 1_555
O12 C44 1_555 1_555
C43 H55 1_555 1_555
H56 C43 1_555 1_555
H57 C43 1_555 1_555
C44 C43 1_555 1_555
C45 O12 1_555 1_555
H58 C45 1_555 1_555
H59 C45 1_555 1_555
C46 C45 1_555 1_555
H60 C46 1_555 1_555
H61 C46 1_555 1_555
H62 C46 1_555 1_555
C3 C4 1_555 1_555
C10 C11 1_555 1_555
C13 C14 1_555 1_555
C15 C16 1_555 1_555
C17 C18 1_555 1_555
C24 C25 1_555 1_555
C28 C29 1_555 1_555
C31 C32 1_555 1_555
C34 C35 1_555 1_555
C36 C37 1_555 1_555
C38 C39 1_555 1_555

#END
