
#######################################################################
#
#                 Cambridge Crystallographic Data Centre
#                                CCDC 
#
#######################################################################
#
# If this CIF has been generated from an entry in the Cambridge 
# Structural Database, then it will include bibliographic, chemical, 
# crystal, experimental, refinement or atomic coordinate data resulting 
# from the CCDC's data processing and validation procedures.
#
#######################################################################

data_CAYYIN
_chemical_formula_moiety         'C21 H28 O6,H2 O1'
_chemical_name_systematic        
"11a-ethyl-4a-hydroxy-3a,8,8-trimethyl-3a,4,4a,8,8a,9,10,10a,10b,11a-decahydrofuro[3',4':5,6]azuleno[1,2-b]furo[3,2-d]furan-2,6(3H,3bH)-dione monohydrate"
_symmetry_cell_setting           monoclinic
_symmetry_space_group_name_H-M   'P 21'
_symmetry_Int_Tables_number      4
_space_group_name_Hall           'P 2yb'
loop_
_symmetry_equiv_pos_site_id
_symmetry_equiv_pos_as_xyz
1 x,y,z
2 -x,1/2+y,-z
_cell_length_a                   9.6045(19)
_cell_length_b                   7.3603(15)
_cell_length_c                   14.688(3)
_cell_angle_alpha                90
_cell_angle_beta                 103.51(3)
_cell_angle_gamma                90
_cell_volume                     1009.59
_exptl_crystal_description       block
_cell_formula_units_Z            2
loop_
_atom_site_label
_atom_site_type_symbol
_atom_site_fract_x
_atom_site_fract_y
_atom_site_fract_z
O1 O 0.1076(2) -0.8420(3) -0.16387(15)
O2 O 0.0634(2) -0.5518(3) -0.13809(17)
O3 O -0.4419(2) -0.7587(4) -0.09974(15)
H1 H -0.4871 -0.6695 -0.0855
O4 O -0.6085(2) -0.8586(3) -0.40285(14)
O5 O -0.8561(2) -0.8452(3) -0.43756(14)
O6 O -1.0582(2) -0.7973(4) -0.39137(16)
C1 C 0.0186(3) -0.7054(5) -0.1556(2)
C2 C -0.1304(3) -0.7731(5) -0.1727(2)
C3 C -0.2393(3) -0.6656(5) -0.1609(2)
H2 H -0.2155 -0.5476 -0.1358
C4 C -0.3952(3) -0.7179(4) -0.1843(2)
C5 C -0.4875(3) -0.5633(4) -0.2361(2)
H3 H -0.4431 -0.5098 -0.2844
H4 H -0.5007 -0.4666 -0.1921
C6 C -0.6318(3) -0.6547(4) -0.2816(2)
H5 H -0.6934 -0.6588 -0.2353
C7 C -0.7205(3) -0.5790(5) -0.3767(2)
C8 C -0.8792(3) -0.5563(5) -0.3762(2)
H6 H -0.8899 -0.5173 -0.3137
H7 H -0.9254 -0.4651 -0.4232
C9 C -0.9438(3) -0.7406(5) -0.4004(2)
C10 C -0.7229(3) -0.7457(5) -0.4429(2)
C11 C -0.5885(3) -0.8507(5) -0.3021(2)
H8 H -0.6492 -0.9428 -0.2796
C12 C -0.4298(3) -0.8759(5) -0.2549(2)
H9 H -0.3748 -0.8534 -0.3038
C13 C -0.3908(3) -1.0669(5) -0.2166(2)
H10 H -0.4117 -1.1539 -0.2695
H11 H -0.4527 -1.0988 -0.1738
C14 C -0.2330(3) -1.0896(5) -0.1638(2)
H12 H -0.2242 -1.0609 -0.0968
H13 H -0.2049 -1.2182 -0.1679
C15 C -0.1288(3) -0.9686(4) -0.2014(2)
H14 H -0.1547 -0.9748 -0.2713
C16 C 0.0326(3) -1.0195(4) -0.1664(2)
C17 C 0.0733(4) -1.0936(5) -0.0673(2)
H15 H 0.1778 -1.0982 -0.0460
H16 H 0.0339 -1.2163 -0.0662
H17 H 0.0343 -1.0143 -0.0257
C18 C 0.0873(4) -1.1408(5) -0.2339(2)
H18 H 0.0695 -1.0825 -0.2955
H19 H 0.0374 -1.2579 -0.2393
H20 H 0.1904 -1.1604 -0.2104
C19 C -0.6605(3) -0.4064(5) -0.4108(2)
H21 H -0.7259 -0.3640 -0.4685
H22 H -0.5666 -0.4323 -0.4232
H23 H -0.6506 -0.3120 -0.3627
C20 C -0.7278(4) -0.7142(5) -0.5455(2)
H24 H -0.6375 -0.6553 -0.5510
H25 H -0.8074 -0.6298 -0.5717
C21 C -0.7484(4) -0.8892(6) -0.6032(2)
H26 H -0.6706 -0.9741 -0.5773
H27 H -0.7474 -0.8611 -0.6683
H28 H -0.8403 -0.9447 -0.6011
O7 O -0.6318(3) -0.5106(5) -0.0466(2)
H29 H -0.719(2) -0.530(8) -0.074(3)
H30 H -0.616(5) -0.446(7) 0.002(3)
loop_
_geom_bond_atom_site_label_1
_geom_bond_atom_site_label_2
_geom_bond_site_symmetry_1
_geom_bond_site_symmetry_2
O1 C1 1_555 1_555
O2 C1 1_555 1_555
O3 H1 1_555 1_555
O4 C10 1_555 1_555
O5 C9 1_555 1_555
O6 C9 1_555 1_555
C1 C2 1_555 1_555
C2 C3 1_555 1_555
C3 H2 1_555 1_555
C4 O3 1_555 1_555
C5 C4 1_555 1_555
H3 C5 1_555 1_555
H4 C5 1_555 1_555
C6 C5 1_555 1_555
H5 C6 1_555 1_555
C7 C6 1_555 1_555
C8 C7 1_555 1_555
H6 C8 1_555 1_555
H7 C8 1_555 1_555
C9 C8 1_555 1_555
C10 O5 1_555 1_555
C11 O4 1_555 1_555
H8 C11 1_555 1_555
C12 C4 1_555 1_555
H9 C12 1_555 1_555
C13 C12 1_555 1_555
H10 C13 1_555 1_555
H11 C13 1_555 1_555
C14 C13 1_555 1_555
H12 C14 1_555 1_555
H13 C14 1_555 1_555
C15 C2 1_555 1_555
H14 C15 1_555 1_555
C16 O1 1_555 1_555
C17 C16 1_555 1_555
H15 C17 1_555 1_555
H16 C17 1_555 1_555
H17 C17 1_555 1_555
C18 C16 1_555 1_555
H18 C18 1_555 1_555
H19 C18 1_555 1_555
H20 C18 1_555 1_555
C19 C7 1_555 1_555
H21 C19 1_555 1_555
H22 C19 1_555 1_555
H23 C19 1_555 1_555
C20 C10 1_555 1_555
H24 C20 1_555 1_555
H25 C20 1_555 1_555
C21 C20 1_555 1_555
H26 C21 1_555 1_555
H27 C21 1_555 1_555
H28 C21 1_555 1_555
O7 H29 1_555 1_555
H30 O7 1_555 1_555
C3 C4 1_555 1_555
C6 C11 1_555 1_555
C7 C10 1_555 1_555
C11 C12 1_555 1_555
C14 C15 1_555 1_555
C15 C16 1_555 1_555

#END
