
#######################################################################
#
#                 Cambridge Crystallographic Data Centre
#                                CCDC 
#
#######################################################################
#
# If this CIF has been generated from an entry in the Cambridge 
# Structural Database, then it will include bibliographic, chemical, 
# crystal, experimental, refinement or atomic coordinate data resulting 
# from the CCDC's data processing and validation procedures.
#
#######################################################################

data_CAYYUZ
_chemical_formula_moiety         'C7 H11 N1 O5 S1'
_chemical_name_systematic        
'6-methoxy-4-methyl-3a,4,6,7-tetrahydropyrano[4,3-d][1,2,3]oxathiazole 2,2-dioxide'
_symmetry_cell_setting           orthorhombic
_symmetry_space_group_name_H-M   'P 21 21 21'
_symmetry_Int_Tables_number      19
_space_group_name_Hall           'P 2ac 2ab'
loop_
_symmetry_equiv_pos_site_id
_symmetry_equiv_pos_as_xyz
1 x,y,z
2 1/2-x,-y,1/2+z
3 1/2+x,1/2-y,-z
4 -x,1/2+y,1/2-z
_cell_length_a                   7.875(5)
_cell_length_b                   8.128(5)
_cell_length_c                   15.548(5)
_cell_angle_alpha                90
_cell_angle_beta                 90
_cell_angle_gamma                90
_cell_volume                     995.196
_exptl_crystal_colour            colorless
_exptl_crystal_description       block
_chemical_melting_point          '349-351 K'
_cell_formula_units_Z            4
_exptl_crystal_recrystallization_method 'ethyl acetate/hexane'
loop_
_atom_site_label
_atom_site_type_symbol
_atom_site_fract_x
_atom_site_fract_y
_atom_site_fract_z
C1 C 0.7026(4) 0.0562(4) 0.79905(18)
H1 H 0.7378 -0.0181 0.8436
H2 H 0.5931 0.1007 0.8130
H3 H 0.7835 0.1441 0.7942
N1 N 0.5280(2) -0.0279(2) 0.51207(12)
O1 O 0.2485(3) -0.0306(3) 0.58945(14)
S1 S 0.37601(7) 0.07836(7) 0.56102(4)
C2 C 0.6923(3) -0.0350(3) 0.71466(14)
H4 H 0.6063 -0.1218 0.7184
O2 O 0.3288(3) 0.2171(3) 0.51150(15)
C3 C 0.6528(3) 0.0785(2) 0.63877(14)
H5 H 0.7339 0.1699 0.6372
O3 O 0.8551(2) -0.1060(2) 0.69771(10)
C4 C 0.6625(3) -0.0183(2) 0.55718(14)
O4 O 0.7436(2) -0.33517(18) 0.62728(12)
C5 C 0.8224(3) -0.1092(3) 0.54159(15)
H6 H 0.9141 -0.0330 0.5293
H7 H 0.8095 -0.1828 0.4929
O5 O 0.4820(2) 0.1408(2) 0.64232(12)
C6 C 0.8610(3) -0.2072(3) 0.62322(15)
H8 H 0.9752 -0.2543 0.6182
C7 C 0.7926(4) -0.4610(3) 0.6861(2)
H9 H 0.7022 -0.5396 0.6916
H10 H 0.8159 -0.4130 0.7413
H11 H 0.8927 -0.5152 0.6651
loop_
_geom_bond_atom_site_label_1
_geom_bond_atom_site_label_2
_geom_bond_site_symmetry_1
_geom_bond_site_symmetry_2
C1 H1 1_555 1_555
H2 C1 1_555 1_555
H3 C1 1_555 1_555
N1 S1 1_555 1_555
O1 S1 1_555 1_555
S1 O2 1_555 1_555
C2 C1 1_555 1_555
H4 C2 1_555 1_555
C3 C2 1_555 1_555
H5 C3 1_555 1_555
O3 C2 1_555 1_555
C4 N1 1_555 1_555
O4 C6 1_555 1_555
C5 C4 1_555 1_555
H6 C5 1_555 1_555
H7 C5 1_555 1_555
O5 S1 1_555 1_555
C6 O3 1_555 1_555
H8 C6 1_555 1_555
C7 O4 1_555 1_555
H9 C7 1_555 1_555
H10 C7 1_555 1_555
H11 C7 1_555 1_555
C3 C4 1_555 1_555
C3 O5 1_555 1_555
C5 C6 1_555 1_555

#END
