
#######################################################################
#
#                 Cambridge Crystallographic Data Centre
#                                CCDC 
#
#######################################################################
#
# If this CIF has been generated from an entry in the Cambridge 
# Structural Database, then it will include bibliographic, chemical, 
# crystal, experimental, refinement or atomic coordinate data resulting 
# from the CCDC's data processing and validation procedures.
#
#######################################################################

data_CAYZEK
_chemical_formula_moiety         'C29 H39 N3 O12 S2'
_chemical_name_systematic        
'(2R,3S,4S,6R)-6-(((2S,3R,4R,6R)-6-methoxy-2,4-dimethyl-4-((4-methylphenyl)sulfonamido)tetrahydro-2H-pyran-3-yl)oxy)-2-methyl-4-((4-nitrophenyl)sulfonamido)tetrahydro-2H-pyran-3-yl acetate'
_symmetry_cell_setting           orthorhombic
_symmetry_space_group_name_H-M   'P 21 21 21'
_symmetry_Int_Tables_number      19
_space_group_name_Hall           'P 2ac 2ab'
loop_
_symmetry_equiv_pos_site_id
_symmetry_equiv_pos_as_xyz
1 x,y,z
2 1/2-x,-y,1/2+z
3 1/2+x,1/2-y,-z
4 -x,1/2+y,1/2-z
_cell_length_a                   8.1411(6)
_cell_length_b                   13.4380(10)
_cell_length_c                   29.592(2)
_cell_angle_alpha                90
_cell_angle_beta                 90
_cell_angle_gamma                90
_cell_volume                     3237.37
_exptl_crystal_colour            colorless
_exptl_crystal_description       block
_cell_formula_units_Z            4
loop_
_atom_site_label
_atom_site_type_symbol
_atom_site_fract_x
_atom_site_fract_y
_atom_site_fract_z
S1 S 0.28754(6) -0.18474(4) 0.06143(2)
S2 S 0.18242(6) 0.11581(4) 0.14044(2)
O1 O 0.5462(4) 0.0156(3) -0.13145(7)
N1 N 0.5176(3) 0.0569(2) -0.09563(8)
N2 N 0.4109(2) -0.14739(13) 0.10043(6)
H1 H 0.3744 -0.1103 0.1219
O2 O 0.5462(3) 0.14547(18) -0.08760(9)
N3 N 0.3261(2) 0.19481(13) 0.12903(6)
C1 C -0.1215(4) 0.2674(3) 0.31443(10)
H2 H -0.2363 0.2817 0.3110
H3 H -0.0636 0.3275 0.3218
H4 H -0.1068 0.2197 0.3383
O3 O 0.3225(2) -0.28717(12) 0.05208(6)
O4 O 0.58408(17) 0.05509(10) 0.10533(5)
O5 O 0.1259(2) -0.15468(13) 0.07473(6)
O6 O 0.0660(2) 0.12695(13) 0.10437(5)
O7 O 0.4076(2) 0.39035(12) 0.09036(6)
O8 O 0.2530(2) 0.01991(11) 0.14941(6)
O9 O 0.6654(2) 0.31753(11) 0.07917(6)
O10 O 0.76012(19) -0.03152(11) 0.15391(5)
O11 O 0.6740(3) -0.39001(13) 0.13884(7)
O12 O 0.5391(2) -0.26354(11) 0.17146(5)
C2 C 0.5858(2) -0.17592(14) 0.09982(7)
H5 H 0.5968 -0.2381 0.0828
C3 C 0.4951(3) 0.20179(15) 0.14811(7)
C4 C 0.7006(3) -0.09862(15) 0.07894(7)
H6 H 0.8065 -0.1294 0.0734
H7 H 0.6561 -0.0780 0.0500
C5 C 0.3415(3) -0.11565(17) 0.01258(7)
C6 C 0.0064(3) 0.24660(18) 0.19140(8)
H8 H 0.0005 0.2848 0.1653
C7 C 0.0858(3) 0.15546(16) 0.19100(7)
C8 C 0.4083(3) -0.16365(19) -0.02445(8)
H9 H 0.4172 -0.2326 -0.0249
C9 C 0.6438(3) -0.09711(16) 0.17484(7)
H10 H 0.5341 -0.0673 0.1735
C10 C 0.6185(3) 0.15810(15) 0.11408(7)
H11 H 0.7290 0.1632 0.1270
C11 C 0.5103(3) 0.15360(17) 0.19462(7)
H12 H 0.4758 0.0854 0.1929
H13 H 0.4421 0.1886 0.2158
H14 H 0.6226 0.1565 0.2044
C12 C 0.7323(3) 0.17867(18) 0.03401(8)
H15 H 0.7082 0.1102 0.0276
H16 H 0.8431 0.1843 0.0448
H17 H 0.7199 0.2174 0.0070
C13 C -0.0551(3) 0.2254(2) 0.27091(9)
C14 C 0.5626(3) 0.36975(16) 0.10945(8)
H18 H 0.6156 0.4333 0.1167
C15 C 0.6149(3) 0.21682(15) 0.06984(7)
H19 H 0.5028 0.2171 0.0577
C16 C 0.0236(4) 0.1339(2) 0.26956(9)
H20 H 0.0299 0.0957 0.2957
C17 C 0.7258(2) -0.00674(15) 0.10830(7)
H21 H 0.8196 0.0305 0.0963
C18 C 0.5371(3) 0.31298(16) 0.15330(7)
H22 H 0.4492 0.3448 0.1700
H23 H 0.6363 0.3186 0.1713
C19 C 0.4511(3) -0.0047(2) -0.05828(8)
C20 C 0.4454(5) -0.42534(19) 0.18690(10)
H24 H 0.3718 -0.4547 0.1653
H25 H 0.3840 -0.3859 0.2080
H26 H 0.5029 -0.4770 0.2028
C21 C 0.3258(3) -0.01214(18) 0.01413(8)
H27 H 0.2764 0.0185 0.0388
C22 C 0.0934(4) 0.0981(2) 0.22974(9)
H28 H 0.1445 0.0362 0.2292
C23 C 0.4188(4) 0.4605(2) 0.05415(9)
H29 H 0.4759 0.4308 0.0292
H30 H 0.4777 0.5184 0.0642
H31 H 0.3104 0.4795 0.0448
C24 C -0.0642(3) 0.2803(2) 0.23126(9)
H32 H -0.1190 0.3410 0.2314
C25 C 0.6952(4) -0.10842(19) 0.22352(8)
H33 H 0.7987 -0.1425 0.2249
H34 H 0.6137 -0.1461 0.2395
H35 H 0.7058 -0.0438 0.2371
C26 C 0.6447(3) -0.19402(15) 0.14825(7)
H36 H 0.7567 -0.2207 0.1475
C27 C 0.3847(3) 0.0445(2) -0.02165(9)
H37 H 0.3795 0.1136 -0.0209
C28 C 0.4624(3) -0.1066(2) -0.06125(8)
H38 H 0.5047 -0.1369 -0.0870
C29 C 0.5665(3) -0.36062(16) 0.16279(8)
loop_
_geom_bond_atom_site_label_1
_geom_bond_atom_site_label_2
_geom_bond_site_symmetry_1
_geom_bond_site_symmetry_2
S1 N2 1_555 1_555
S2 N3 1_555 1_555
O1 N1 1_555 1_555
N1 O2 1_555 1_555
N2 H1 1_555 1_555
N3 C3 1_555 1_555
C1 H2 1_555 1_555
H3 C1 1_555 1_555
H4 C1 1_555 1_555
O3 S1 1_555 1_555
O4 C10 1_555 1_555
O5 S1 1_555 1_555
O6 S2 1_555 1_555
O7 C14 1_555 1_555
O8 S2 1_555 1_555
O9 C14 1_555 1_555
O10 C9 1_555 1_555
O11 C29 1_555 1_555
O12 C26 1_555 1_555
C2 N2 1_555 1_555
H5 C2 1_555 1_555
C3 C10 1_555 1_555
C4 C2 1_555 1_555
H6 C4 1_555 1_555
H7 C4 1_555 1_555
C5 S1 1_555 1_555
C6 H8 1_555 1_555
C7 S2 1_555 1_555
C8 C5 1_555 1_555
H9 C8 1_555 1_555
C9 H10 1_555 1_555
C10 H11 1_555 1_555
C11 C3 1_555 1_555
H12 C11 1_555 1_555
H13 C11 1_555 1_555
H14 C11 1_555 1_555
C12 H15 1_555 1_555
H16 C12 1_555 1_555
H17 C12 1_555 1_555
C13 C1 1_555 1_555
C14 H18 1_555 1_555
C15 O9 1_555 1_555
H19 C15 1_555 1_555
C16 C13 1_555 1_555
H20 C16 1_555 1_555
C17 O4 1_555 1_555
H21 C17 1_555 1_555
C18 C3 1_555 1_555
H22 C18 1_555 1_555
H23 C18 1_555 1_555
C19 N1 1_555 1_555
C20 H24 1_555 1_555
H25 C20 1_555 1_555
H26 C20 1_555 1_555
C21 C5 1_555 1_555
H27 C21 1_555 1_555
C22 C7 1_555 1_555
H28 C22 1_555 1_555
C23 O7 1_555 1_555
H29 C23 1_555 1_555
H30 C23 1_555 1_555
H31 C23 1_555 1_555
C24 C6 1_555 1_555
H32 C24 1_555 1_555
C25 C9 1_555 1_555
H33 C25 1_555 1_555
H34 C25 1_555 1_555
H35 C25 1_555 1_555
C26 C2 1_555 1_555
H36 C26 1_555 1_555
C27 C19 1_555 1_555
H37 C27 1_555 1_555
C28 C8 1_555 1_555
H38 C28 1_555 1_555
C29 O12 1_555 1_555
O10 C17 1_555 1_555
C4 C17 1_555 1_555
C6 C7 1_555 1_555
C9 C26 1_555 1_555
C10 C15 1_555 1_555
C12 C15 1_555 1_555
C13 C24 1_555 1_555
C14 C18 1_555 1_555
C16 C22 1_555 1_555
C19 C28 1_555 1_555
C20 C29 1_555 1_555
C21 C27 1_555 1_555

#END
