
#######################################################################
#
#                 Cambridge Crystallographic Data Centre
#                                CCDC 
#
#######################################################################
#
# If this CIF has been generated from an entry in the Cambridge 
# Structural Database, then it will include bibliographic, chemical, 
# crystal, experimental, refinement or atomic coordinate data resulting 
# from the CCDC's data processing and validation procedures.
#
#######################################################################

data_CAZBUB
_chemical_formula_moiety         'C41 H54 F3 N5 O5,H2 O1'
_chemical_name_systematic        
'Methyl 3\a-trifluoroacetamido-7\a,12\a-bis((phenylaminocarbonyl)amino)-5\b-cholan-24-oate unknown solvate monohydrate'
_symmetry_cell_setting           hexagonal
_symmetry_space_group_name_H-M   'P 61'
_symmetry_Int_Tables_number      169
_space_group_name_Hall           'P 61'
loop_
_symmetry_equiv_pos_site_id
_symmetry_equiv_pos_as_xyz
1 x,y,z
2 -y,x-y,1/3+z
3 -x+y,-x,2/3+z
4 -x,-y,1/2+z
5 y,-x+y,5/6+z
6 x-y,x,1/6+z
_cell_length_a                   28.692(4)
_cell_length_b                   28.692(4)
_cell_length_c                   11.500(2)
_cell_angle_alpha                90
_cell_angle_beta                 90
_cell_angle_gamma                120
_cell_volume                     8198.8
_exptl_crystal_colour            colorless
_exptl_crystal_description       block
_cell_formula_units_Z            6
_exptl_crystal_recrystallization_method 'methyl acetate'
loop_
_atom_site_label
_atom_site_type_symbol
_atom_site_fract_x
_atom_site_fract_y
_atom_site_fract_z
C1 C 0.2628(2) 0.6821(2) 0.3936(5)
H1 H 0.2705 0.7150 0.4298
C2 C 0.2926(2) 0.6828(2) 0.2994(6)
H2 H 0.3207 0.7161 0.2708
C3 C 0.2822(2) 0.6356(3) 0.2465(5)
H3 H 0.3032 0.6362 0.1821
C4 C 0.2416(2) 0.5882(2) 0.2869(5)
H4 H 0.2337 0.5555 0.2496
C5 C 0.2115(2) 0.5871(2) 0.3823(5)
H5 H 0.1836 0.5536 0.4111
C6 C 0.22206(19) 0.6346(2) 0.4356(4)
C7 C 0.1963(2) 0.6665(2) 0.6126(5)
C8 C 0.1634(2) 0.6836(2) 0.7957(5)
H6 H 0.1730 0.7201 0.7661
C9 C 0.2096(2) 0.6901(2) 0.8743(5)
H7 H 0.2409 0.6980 0.8246
H8 H 0.2204 0.7216 0.9256
C10 C 0.1964(2) 0.6412(3) 0.9501(5)
H9 H 0.2261 0.6533 1.0083
C11 C 0.1967(2) 0.5969(3) 0.8806(6)
H10 H 0.2326 0.6105 0.8445
H11 H 0.1697 0.5856 0.8175
C12 C 0.1840(3) 0.5486(3) 0.9575(7)
H12 H 0.2126 0.5619 1.0186
C13 C 0.1550(3) 0.4770(3) 0.8138(9)
C14 C 0.1641(3) 0.4355(4) 0.7605(12)
C15 C 0.1300(3) 0.5283(4) 1.0221(8)
H13 H 0.1001 0.5151 0.9653
H14 H 0.1233 0.4982 1.0743
C16 C 0.1325(3) 0.5745(4) 1.0928(7)
H15 H 0.1609 0.5855 1.1527
H16 H 0.0978 0.5615 1.1336
C17 C 0.1441(2) 0.6240(3) 1.0200(5)
C18 C 0.1525(3) 0.6688(4) 1.1050(6)
H17 H 0.1192 0.6577 1.1485
H18 H 0.1621 0.7018 1.0615
H19 H 0.1815 0.6756 1.1594
C19 C 0.0976(2) 0.6112(2) 0.9337(5)
H20 H 0.0959 0.5835 0.8781
C20 C 0.1099(2) 0.6610(2) 0.8616(5)
H21 H 0.1137 0.6894 0.9175
C21 C 0.06266(19) 0.6490(2) 0.7818(5)
H22 H 0.0591 0.6205 0.7264
C22 C 0.0679(2) 0.6956(2) 0.7081(5)
H23 H 0.0922 0.7026 0.6410
H24 H 0.0815 0.7289 0.7548
C23 C 0.0092(2) 0.6749(2) 0.6674(6)
H25 H 0.0060 0.6675 0.5828
H26 H -0.0014 0.7022 0.6833
C24 C -0.0277(2) 0.6224(2) 0.7358(5)
H27 H -0.0318 0.5916 0.6873
C25 C -0.0839(2) 0.6137(2) 0.7572(5)
H28 H -0.0804 0.6436 0.8078
C26 C -0.1207(2) 0.5604(2) 0.8193(6)
H29 H -0.1214 0.5307 0.7757
H30 H -0.1572 0.5550 0.8241
H31 H -0.1070 0.5615 0.8979
C27 C -0.1090(2) 0.6167(3) 0.6390(6)
H32 H -0.0855 0.6526 0.6042
H33 H -0.1092 0.5896 0.5856
C28 C -0.1654(3) 0.6076(4) 0.6462(8)
H34 H -0.1775 0.6111 0.5676
H35 H -0.1900 0.5707 0.6744
C29 C -0.1683(4) 0.6460(6) 0.7239(12)
C30 C -0.2065(7) 0.6566(8) 0.9054(17)
H36 H -0.2097 0.6857 0.8689
H37 H -0.1739 0.6719 0.9532
H38 H -0.2380 0.6350 0.9546
C31 C 0.0077(2) 0.6267(2) 0.8431(5)
C32 C -0.0040(2) 0.5759(2) 0.9079(5)
H39 H -0.0377 0.5635 0.9543
C33 C 0.0418(2) 0.5870(2) 0.9916(5)
H40 H 0.0336 0.5529 1.0302
H41 H 0.0434 0.6121 1.0527
C34 C -0.0378(2) 0.4803(2) 0.8647(5)
C35 C -0.0421(2) 0.3920(2) 0.8277(5)
C36 C -0.0095(2) 0.3729(2) 0.7877(6)
H42 H 0.0236 0.3966 0.7503
C37 C -0.0251(3) 0.3194(3) 0.8021(7)
H43 H -0.0026 0.3062 0.7749
C38 C -0.0731(4) 0.2850(3) 0.8558(7)
H44 H -0.0841 0.2480 0.8650
C39 C -0.1043(3) 0.3042(3) 0.8951(6)
H45 H -0.1371 0.2805 0.9333
C40 C -0.0899(3) 0.3576(3) 0.8814(5)
H46 H -0.1127 0.3703 0.9089
C41 C 0.0074(2) 0.6670(2) 0.9309(5)
H47 H 0.0098 0.6979 0.8891
H48 H 0.0382 0.6793 0.9835
H49 H -0.0261 0.6494 0.9760
F1 F 0.1860(4) 0.4498(3) 0.6575(7)
F2 F 0.12092(19) 0.3888(2) 0.7471(10)
F3 F 0.1979(2) 0.4247(2) 0.8167(6)
N1 N 0.15761(16) 0.64935(16) 0.6933(4)
H50 H 0.1285 0.6176 0.6858
N2 N 0.18836(16) 0.62917(16) 0.5302(4)
H51 H 0.1586 0.5979 0.5367
N3 N 0.1866(2) 0.5063(3) 0.8970(6)
H52 H 0.2121 0.4996 0.9184
N4 N -0.01206(16) 0.53213(17) 0.8279(4)
H53 H -0.0001 0.5398 0.7560
N5 N -0.02473(16) 0.44708(17) 0.8068(4)
H54 H -0.0023 0.4618 0.7483
O1 O -0.2032(3) 0.6209(3) 0.8116(8)
O2 O -0.1432(4) 0.6933(4) 0.7114(16)
O3 O 0.23573(14) 0.71224(14) 0.6125(3)
O4 O 0.11596(17) 0.47983(19) 0.7698(6)
O5 O -0.07200(14) 0.46371(15) 0.9441(3)
O6 O 0.07145(13) 0.53232(14) 0.6715(3)
loop_
_geom_bond_atom_site_label_1
_geom_bond_atom_site_label_2
_geom_bond_site_symmetry_1
_geom_bond_site_symmetry_2
C1 H1 1_555 1_555
C2 C1 1_555 1_555
H2 C2 1_555 1_555
C3 C2 1_555 1_555
H3 C3 1_555 1_555
C4 C3 1_555 1_555
H4 C4 1_555 1_555
C5 C4 1_555 1_555
H5 C5 1_555 1_555
C6 C1 1_555 1_555
C7 N1 1_555 1_555
C8 H6 1_555 1_555
C9 C8 1_555 1_555
H7 C9 1_555 1_555
H8 C9 1_555 1_555
C10 C9 1_555 1_555
H9 C10 1_555 1_555
C11 C10 1_555 1_555
H10 C11 1_555 1_555
H11 C11 1_555 1_555
C12 C11 1_555 1_555
H12 C12 1_555 1_555
C13 C14 1_555 1_555
C14 F1 1_555 1_555
C15 C12 1_555 1_555
H13 C15 1_555 1_555
H14 C15 1_555 1_555
C16 C15 1_555 1_555
H15 C16 1_555 1_555
H16 C16 1_555 1_555
C17 C10 1_555 1_555
C18 C17 1_555 1_555
H17 C18 1_555 1_555
H18 C18 1_555 1_555
H19 C18 1_555 1_555
C19 C17 1_555 1_555
H20 C19 1_555 1_555
C20 C8 1_555 1_555
H21 C20 1_555 1_555
C21 C20 1_555 1_555
H22 C21 1_555 1_555
C22 C21 1_555 1_555
H23 C22 1_555 1_555
H24 C22 1_555 1_555
C23 C22 1_555 1_555
H25 C23 1_555 1_555
H26 C23 1_555 1_555
C24 C23 1_555 1_555
H27 C24 1_555 1_555
C25 C24 1_555 1_555
H28 C25 1_555 1_555
C26 C25 1_555 1_555
H29 C26 1_555 1_555
H30 C26 1_555 1_555
H31 C26 1_555 1_555
C27 C25 1_555 1_555
H32 C27 1_555 1_555
H33 C27 1_555 1_555
C28 C27 1_555 1_555
H34 C28 1_555 1_555
H35 C28 1_555 1_555
C29 C28 1_555 1_555
C30 H36 1_555 1_555
H37 C30 1_555 1_555
H38 C30 1_555 1_555
C31 C21 1_555 1_555
C32 C31 1_555 1_555
H39 C32 1_555 1_555
C33 C19 1_555 1_555
H40 C33 1_555 1_555
H41 C33 1_555 1_555
C34 N4 1_555 1_555
C35 C36 1_555 1_555
C36 H42 1_555 1_555
C37 C36 1_555 1_555
H43 C37 1_555 1_555
C38 C37 1_555 1_555
H44 C38 1_555 1_555
C39 C38 1_555 1_555
H45 C39 1_555 1_555
C40 C35 1_555 1_555
H46 C40 1_555 1_555
C41 C31 1_555 1_555
H47 C41 1_555 1_555
H48 C41 1_555 1_555
H49 C41 1_555 1_555
F2 C14 1_555 1_555
F3 C14 1_555 1_555
N1 C8 1_555 1_555
H50 N1 1_555 1_555
N2 C6 1_555 1_555
H51 N2 1_555 1_555
N3 C12 1_555 1_555
H52 N3 1_555 1_555
N4 C32 1_555 1_555
H53 N4 1_555 1_555
N5 C34 1_555 1_555
H54 N5 1_555 1_555
O1 C29 1_555 1_555
O2 C29 1_555 1_555
O3 C7 1_555 1_555
O4 C13 1_555 1_555
O5 C34 1_555 1_555
C5 C6 1_555 1_555
C7 N2 1_555 1_555
C13 N3 1_555 1_555
C16 C17 1_555 1_555
C19 C20 1_555 1_555
C24 C31 1_555 1_555
C30 O1 1_555 1_555
C32 C33 1_555 1_555
C35 N5 1_555 1_555
C39 C40 1_555 1_555

#END
