
#######################################################################
#
#                 Cambridge Crystallographic Data Centre
#                                CCDC 
#
#######################################################################
#
# If this CIF has been generated from an entry in the Cambridge 
# Structural Database, then it will include bibliographic, chemical, 
# crystal, experimental, refinement or atomic coordinate data resulting 
# from the CCDC's data processing and validation procedures.
#
#######################################################################

data_CAZCEM
_chemical_formula_moiety         'C44 H63 N5 O6,H2 O1'
_chemical_name_systematic        
'Methyl 3\a-(N-(t-butyloxycarbonyl)amino)-7\a,12\a-bis((phenylaminocarbonyl)amino)-5\b-cholan-24-oate unknown solvate monohydrate'
_symmetry_cell_setting           hexagonal
_symmetry_space_group_name_H-M   'P 61'
_symmetry_Int_Tables_number      169
_space_group_name_Hall           'P 61'
loop_
_symmetry_equiv_pos_site_id
_symmetry_equiv_pos_as_xyz
1 x,y,z
2 -y,x-y,1/3+z
3 -x+y,-x,2/3+z
4 -x,-y,1/2+z
5 y,-x+y,5/6+z
6 x-y,x,1/6+z
_cell_length_a                   28.834(4)
_cell_length_b                   28.834(4)
_cell_length_c                   11.609(2)
_cell_angle_alpha                90
_cell_angle_beta                 90
_cell_angle_gamma                120
_cell_volume                     8358.63
_exptl_crystal_colour            colorless
_exptl_crystal_description       needle
_cell_formula_units_Z            6
loop_
_atom_site_label
_atom_site_type_symbol
_atom_site_fract_x
_atom_site_fract_y
_atom_site_fract_z
C1 C 0.3458(3) -0.0197(2) 0.7273(7)
H1 H 0.3746 -0.0213 0.6826
C2 C 0.3315(3) 0.0176(3) 0.6611(8)
H2 H 0.3368 0.0155 0.5774
H3 H 0.2936 0.0070 0.6747
C3 C 0.3685(3) 0.0746(3) 0.7049(7)
H4 H 0.3882 0.0991 0.6404
H5 H 0.3479 0.0885 0.7463
C4 C 0.4068(2) 0.0688(2) 0.7860(6)
H6 H 0.4330 0.0656 0.7352
C5 C 0.4400(3) 0.1139(2) 0.8688(6)
H7 H 0.4147 0.1185 0.9198
C6 C 0.4749(3) 0.1673(3) 0.8076(6)
H8 H 0.4501 0.1782 0.7728
C7 C 0.5121(3) 0.2125(2) 0.8892(7)
H9 H 0.4905 0.2232 0.9367
H10 H 0.5374 0.2440 0.8431
C8 C 0.5443(3) 0.1961(2) 0.9695(7)
H11 H 0.5614 0.2252 1.0284
C9 C 0.5904(2) 0.1948(2) 0.9066(7)
H12 H 0.6144 0.2304 0.8724
H13 H 0.5757 0.1683 0.8432
C10 C 0.6225(3) 0.1799(3) 0.9896(7)
H14 H 0.6365 0.2073 1.0525
C11 C 0.5873(3) 0.1276(3) 1.0436(8)
H15 H 0.6084 0.1182 1.0961
H16 H 0.5711 0.0995 0.9836
C12 C 0.5434(3) 0.1303(3) 1.1109(7)
H17 H 0.5602 0.1577 1.1722
H18 H 0.5206 0.0953 1.1489
C13 C 0.5079(3) 0.1439(2) 1.0376(7)
C14 C 0.4745(3) 0.0989(3) 0.9474(6)
H19 H 0.5007 0.0960 0.8961
C15 C 0.4387(3) 0.0429(2) 1.0005(6)
H20 H 0.4615 0.0331 1.0459
H21 H 0.4131 0.0449 1.0543
C16 C 0.4074(3) -0.0009(3) 0.9131(6)
H22 H 0.3838 -0.0350 0.9551
C17 C 0.3726(3) 0.0135(3) 0.8401(7)
C18 C 0.2979(3) -0.0788(3) 0.7386(9)
H23 H 0.2680 -0.0779 0.7803
C19 C 0.3130(3) -0.1142(3) 0.8053(9)
H24 H 0.3448 -0.1124 0.7705
H25 H 0.2833 -0.1512 0.8034
H26 H 0.3208 -0.1018 0.8853
C20 C 0.2789(4) -0.0997(3) 0.6173(10)
H27 H 0.3088 -0.0992 0.5745
H28 H 0.2696 -0.0751 0.5776
C21 C 0.2303(4) -0.1567(3) 0.6125(12)
H29 H 0.2188 -0.1661 0.5314
H30 H 0.2408 -0.1823 0.6419
C22 C 0.1857(5) -0.1614(4) 0.6803(15)
C24 C 0.1403(9) -0.1905(10) 0.869(2)
H34 H 0.1384 -0.2167 0.9260
H35 H 0.1042 -0.2012 0.8422
H36 H 0.1562 -0.1551 0.9056
C25 C 0.5299(2) 0.2006(2) 0.6346(6)
C26 C 0.5920(3) 0.2238(2) 0.4638(6)
C27 C 0.6209(2) 0.2068(3) 0.4013(8)
H37 H 0.6213 0.1755 0.4252
C28 C 0.6493(3) 0.2336(3) 0.3053(8)
H38 H 0.6690 0.2209 0.2634
C29 C 0.6490(3) 0.2792(3) 0.2699(7)
H39 H 0.6688 0.2982 0.2038
C30 C 0.6203(3) 0.2968(3) 0.3296(6)
H40 H 0.6196 0.3277 0.3035
C31 C 0.5917(3) 0.2704(3) 0.4286(6)
H41 H 0.5726 0.2836 0.4712
C32 C 0.6678(3) 0.1534(3) 0.8380(8)
C33 C 0.7290(3) 0.1592(3) 0.6852(12)
C34 C 0.7128(6) 0.1904(4) 0.6026(14)
H42 H 0.7326 0.1970 0.5301
H43 H 0.7214 0.2247 0.6377
H44 H 0.6743 0.1694 0.5872
C35 C 0.7894(4) 0.1828(5) 0.6898(19)
H45 H 0.8002 0.1804 0.7686
H46 H 0.8072 0.2205 0.6661
H47 H 0.7998 0.1629 0.6377
C36 C 0.7025(3) 0.1015(3) 0.6554(9)
H48 H 0.7065 0.0816 0.7194
H49 H 0.7191 0.0968 0.5861
H50 H 0.6644 0.0880 0.6409
C37 C 0.4707(3) 0.1517(3) 1.1205(7)
H51 H 0.4923 0.1805 1.1751
H52 H 0.4483 0.1184 1.1627
H53 H 0.4477 0.1613 1.0763
C38 C 0.4686(3) -0.0348(2) 0.8833(6)
C39 C 0.5491(3) -0.0444(2) 0.8539(7)
C40 C 0.5313(3) -0.0939(3) 0.9008(7)
H54 H 0.4946 -0.1155 0.9213
C41 C 0.5662(3) -0.1126(3) 0.9186(7)
H55 H 0.5539 -0.1466 0.9533
C42 C 0.6189(3) -0.0823(3) 0.8865(9)
H56 H 0.6425 -0.0959 0.8980
C43 C 0.6380(3) -0.0325(3) 0.8378(9)
H57 H 0.6745 -0.0116 0.8155
C44 C 0.6024(3) -0.0133(3) 0.8219(9)
H58 H 0.6148 0.0211 0.7893
C45 C 0.3284(3) 0.0122(3) 0.9192(8)
H59 H 0.3439 0.0448 0.9663
H60 H 0.3142 -0.0193 0.9695
H61 H 0.2995 0.0103 0.8716
N1 N 0.5048(2) 0.16120(18) 0.7122(5)
H62 H 0.5063 0.1316 0.7058
N2 N 0.5648(2) 0.1938(2) 0.5622(5)
H63 H 0.5705 0.1674 0.5803
N3 N 0.6698(2) 0.1836(2) 0.9283(6)
H64 H 0.7017 0.2076 0.9534
N4 N 0.4451(2) -0.00835(19) 0.8421(6)
H65 H 0.4524 0.0047 0.7717
N5 N 0.5153(2) -0.02232(19) 0.8314(5)
H66 H 0.5262 0.0023 0.7774
O1 O 0.1600(3) -0.1397(3) 0.6434(14)
O2 O 0.1742(3) -0.1884(3) 0.7697(12)
O3 O 0.52417(18) 0.24014(17) 0.6292(5)
O4 O 0.62795(18) 0.11782(18) 0.7931(5)
O5 O 0.7183(2) 0.1672(2) 0.8039(7)
O6 O 0.44902(17) -0.06826(17) 0.9633(5)
O7 O 0.53346(16) 0.07496(16) 0.6864(4)
C23? C 0.1163(9) -0.1436(7) 0.701(2)
H31? H 0.1014 -0.1251 0.6566
H32? H 0.1274 -0.1272 0.7770
H33? H 0.0890 -0.1815 0.7093
loop_
_geom_bond_atom_site_label_1
_geom_bond_atom_site_label_2
_geom_bond_site_symmetry_1
_geom_bond_site_symmetry_2
C1 H1 1_555 1_555
C2 C1 1_555 1_555
H2 C2 1_555 1_555
H3 C2 1_555 1_555
C3 C2 1_555 1_555
H4 C3 1_555 1_555
H5 C3 1_555 1_555
C4 C3 1_555 1_555
H6 C4 1_555 1_555
C5 C4 1_555 1_555
H7 C5 1_555 1_555
C6 C5 1_555 1_555
H8 C6 1_555 1_555
C7 C6 1_555 1_555
H9 C7 1_555 1_555
H10 C7 1_555 1_555
C8 C7 1_555 1_555
H11 C8 1_555 1_555
C9 C8 1_555 1_555
H12 C9 1_555 1_555
H13 C9 1_555 1_555
C10 C9 1_555 1_555
H14 C10 1_555 1_555
C11 C10 1_555 1_555
H15 C11 1_555 1_555
H16 C11 1_555 1_555
C12 C11 1_555 1_555
H17 C12 1_555 1_555
H18 C12 1_555 1_555
C13 C8 1_555 1_555
C14 C5 1_555 1_555
H19 C14 1_555 1_555
C15 C14 1_555 1_555
H20 C15 1_555 1_555
H21 C15 1_555 1_555
C16 C15 1_555 1_555
H22 C16 1_555 1_555
C17 C1 1_555 1_555
C18 C1 1_555 1_555
H23 C18 1_555 1_555
C19 C18 1_555 1_555
H24 C19 1_555 1_555
H25 C19 1_555 1_555
H26 C19 1_555 1_555
C20 C18 1_555 1_555
H27 C20 1_555 1_555
H28 C20 1_555 1_555
C21 C20 1_555 1_555
H29 C21 1_555 1_555
H30 C21 1_555 1_555
C22 C21 1_555 1_555
C24 H34 1_555 1_555
H35 C24 1_555 1_555
H36 C24 1_555 1_555
C25 N1 1_555 1_555
C26 C27 1_555 1_555
C27 H37 1_555 1_555
C28 C27 1_555 1_555
H38 C28 1_555 1_555
C29 C28 1_555 1_555
H39 C29 1_555 1_555
C30 C29 1_555 1_555
H40 C30 1_555 1_555
C31 C26 1_555 1_555
H41 C31 1_555 1_555
C32 N3 1_555 1_555
C33 C34 1_555 1_555
C34 H42 1_555 1_555
H43 C34 1_555 1_555
H44 C34 1_555 1_555
C35 C33 1_555 1_555
H45 C35 1_555 1_555
H46 C35 1_555 1_555
H47 C35 1_555 1_555
C36 C33 1_555 1_555
H48 C36 1_555 1_555
H49 C36 1_555 1_555
H50 C36 1_555 1_555
C37 C13 1_555 1_555
H51 C37 1_555 1_555
H52 C37 1_555 1_555
H53 C37 1_555 1_555
C38 N4 1_555 1_555
C39 C40 1_555 1_555
C40 H54 1_555 1_555
C41 C40 1_555 1_555
H55 C41 1_555 1_555
C42 C41 1_555 1_555
H56 C42 1_555 1_555
C43 C42 1_555 1_555
H57 C43 1_555 1_555
C44 C39 1_555 1_555
H58 C44 1_555 1_555
C45 C17 1_555 1_555
H59 C45 1_555 1_555
H60 C45 1_555 1_555
H61 C45 1_555 1_555
N1 C6 1_555 1_555
H62 N1 1_555 1_555
N2 C25 1_555 1_555
H63 N2 1_555 1_555
N3 C10 1_555 1_555
H64 N3 1_555 1_555
N4 C16 1_555 1_555
H65 N4 1_555 1_555
N5 C38 1_555 1_555
H66 N5 1_555 1_555
O1 C22 1_555 1_555
O2 C22 1_555 1_555
O3 C25 1_555 1_555
O4 C32 1_555 1_555
O5 C32 1_555 1_555
O6 C38 1_555 1_555
C4 C17 1_555 1_555
C12 C13 1_555 1_555
C13 C14 1_555 1_555
C16 C17 1_555 1_555
C24 O2 1_555 1_555
C26 N2 1_555 1_555
C30 C31 1_555 1_555
C33 O5 1_555 1_555
C39 N5 1_555 1_555
C43 C44 1_555 1_555

#END
