
#######################################################################
#
#                 Cambridge Crystallographic Data Centre
#                                CCDC 
#
#######################################################################
#
# If this CIF has been generated from an entry in the Cambridge 
# Structural Database, then it will include bibliographic, chemical, 
# crystal, experimental, refinement or atomic coordinate data resulting 
# from the CCDC's data processing and validation procedures.
#
#######################################################################

data_CAZFAM
_chemical_formula_moiety         'C26 H30 N4'
_chemical_name_systematic        
N,N'-(Pyrazine-2,5-diyldieth-1-yl-1-ylidene)bis(2,4,6-trimethylaniline)
_symmetry_cell_setting           triclinic
_symmetry_space_group_name_H-M   'P -1'
_symmetry_Int_Tables_number      2
_space_group_name_Hall           '-P 1'
loop_
_symmetry_equiv_pos_site_id
_symmetry_equiv_pos_as_xyz
1 x,y,z
2 -x,-y,-z
_cell_length_a                   7.3370(15)
_cell_length_b                   8.4680(17)
_cell_length_c                   10.308(2)
_cell_angle_alpha                68.68(3)
_cell_angle_beta                 76.51(3)
_cell_angle_gamma                82.40(3)
_cell_volume                     579.349
_exptl_crystal_colour            yellow
_exptl_crystal_description       cube
_cell_formula_units_Z            1
loop_
_atom_site_label
_atom_site_type_symbol
_atom_site_fract_x
_atom_site_fract_y
_atom_site_fract_z
N1 N 0.22129(17) 0.64314(16) 0.21653(13)
C1 C 0.0873(2) 0.51523(18) 0.27112(15)
C2 C 0.22736(19) 0.75274(18) 0.09242(15)
C3 C -0.0902(2) 0.54685(18) 0.34680(15)
C4 C 0.1402(2) 0.35623(19) 0.25686(16)
C5 C -0.2148(2) 0.4168(2) 0.40497(17)
H1 H -0.335(3) 0.437(2) 0.459(2)
C6 C 0.0103(2) 0.23042(19) 0.31714(16)
H2 H 0.047(3) 0.116(2) 0.305(2)
C7 C -0.1680(2) 0.25826(19) 0.39110(17)
C8 C -0.1433(2) 0.7164(2) 0.36556(18)
H3 H -0.264(3) 0.715(3) 0.438(2)
H4 H -0.154(3) 0.808(3) 0.274(2)
H5 H -0.047(3) 0.754(3) 0.398(2)
C9 C -0.3063(3) 0.1199(3) 0.4546(3)
H6 H -0.245(4) 0.006(3) 0.477(3)
H7 H -0.408(4) 0.149(3) 0.412(3)
H8 H -0.386(4) 0.129(3) 0.539(3)
C10 C 0.3328(3) 0.3233(3) 0.1773(2)
H9 H 0.361(4) 0.197(3) 0.191(3)
H10 H 0.435(4) 0.369(3) 0.206(3)
H11 H 0.342(3) 0.382(3) 0.080(3)
N2 N 0.35925(18) 1.01606(17) -0.07550(14)
C11 C 0.5113(2) 0.8688(2) 0.11817(17)
H12 H 0.519(3) 0.770(2) 0.205(2)
C12 C 0.36993(19) 0.88385(18) 0.04371(15)
C13 C 0.1060(3) 0.7616(3) -0.0094(2)
H13 H 0.020(4) 0.674(3) 0.026(3)
H14 H 0.172(4) 0.756(4) -0.096(3)
H15 H 0.041(4) 0.867(4) -0.042(3)
N1A N 0.77871(17) 1.35686(16) -0.21653(13)
C1A C 0.9127(2) 1.48477(18) -0.27112(15)
C2A C 0.77264(19) 1.24726(18) -0.09242(15)
C3A C 1.0902(2) 1.45315(18) -0.34680(15)
C4A C 0.8598(2) 1.64377(19) -0.25686(16)
C5A C 1.2148(2) 1.5832(2) -0.40497(17)
H1A H 1.335(3) 1.563(2) -0.459(2)
C6A C 0.9897(2) 1.76958(19) -0.31714(16)
H2A H 0.953(3) 1.884(2) -0.305(2)
C7A C 1.1680(2) 1.74174(19) -0.39110(17)
C8A C 1.1433(2) 1.2836(2) -0.36556(18)
H3A H 1.264(3) 1.285(3) -0.438(2)
H4A H 1.154(3) 1.192(3) -0.274(2)
H5A H 1.047(3) 1.246(3) -0.398(2)
C9A C 1.3063(3) 1.8801(3) -0.4546(3)
H6A H 1.245(4) 1.994(3) -0.477(3)
H7A H 1.408(4) 1.851(3) -0.412(3)
H8A H 1.386(4) 1.871(3) -0.539(3)
C10A C 0.6672(3) 1.6767(3) -0.1773(2)
H9A H 0.639(4) 1.803(3) -0.191(3)
H10A H 0.565(4) 1.631(3) -0.206(3)
H11A H 0.658(3) 1.618(3) -0.080(3)
N2A N 0.64075(18) 0.98394(17) 0.07550(14)
C11A C 0.4887(2) 1.1312(2) -0.11817(17)
H12A H 0.481(3) 1.230(2) -0.205(2)
C12A C 0.63007(19) 1.11615(18) -0.04371(15)
C13A C 0.8940(3) 1.2384(3) 0.0094(2)
H13A H 0.980(4) 1.326(3) -0.026(3)
H14A H 0.828(4) 1.244(4) 0.096(3)
H15A H 0.959(4) 1.133(4) 0.042(3)
loop_
_geom_bond_atom_site_label_1
_geom_bond_atom_site_label_2
_geom_bond_site_symmetry_1
_geom_bond_site_symmetry_2
N1 C1 1_555 1_555
C1 C3 1_555 1_555
C2 N1 1_555 1_555
C3 C5 1_555 1_555
C4 C1 1_555 1_555
C5 H1 1_555 1_555
C6 C4 1_555 1_555
H2 C6 1_555 1_555
C7 C5 1_555 1_555
C8 C3 1_555 1_555
H3 C8 1_555 1_555
H4 C8 1_555 1_555
H5 C8 1_555 1_555
C9 C7 1_555 1_555
H6 C9 1_555 1_555
H7 C9 1_555 1_555
H8 C9 1_555 1_555
C10 C4 1_555 1_555
H9 C10 1_555 1_555
H10 C10 1_555 1_555
H11 C10 1_555 1_555
N2 C12 1_555 1_555
C11 H12 1_555 1_555
C12 C2 1_555 1_555
C13 C2 1_555 1_555
H13 C13 1_555 1_555
H14 C13 1_555 1_555
H15 C13 1_555 1_555
N1A C1A 1_555 1_555
C1A C3A 1_555 1_555
C2A N1A 1_555 1_555
C3A C5A 1_555 1_555
C4A C1A 1_555 1_555
C5A H1A 1_555 1_555
C6A C4A 1_555 1_555
H2A C6A 1_555 1_555
C7A C5A 1_555 1_555
C8A C3A 1_555 1_555
H3A C8A 1_555 1_555
H4A C8A 1_555 1_555
H5A C8A 1_555 1_555
C9A C7A 1_555 1_555
H6A C9A 1_555 1_555
H7A C9A 1_555 1_555
H8A C9A 1_555 1_555
C10A C4A 1_555 1_555
H9A C10A 1_555 1_555
H10A C10A 1_555 1_555
H11A C10A 1_555 1_555
N2A C11 1_555 1_555
C11A N2 1_555 1_555
H12A C11A 1_555 1_555
C12A C2A 1_555 1_555
C13A C2A 1_555 1_555
H13A C13A 1_555 1_555
H14A C13A 1_555 1_555
H15A C13A 1_555 1_555
C6 C7 1_555 1_555
C11 C12 1_555 1_555
C6A C7A 1_555 1_555
N2A C12A 1_555 1_555
C11A C12A 1_555 1_555

#END
