
#######################################################################
#
#                 Cambridge Crystallographic Data Centre
#                                CCDC 
#
#######################################################################
#
# If this CIF has been generated from an entry in the Cambridge 
# Structural Database, then it will include bibliographic, chemical, 
# crystal, experimental, refinement or atomic coordinate data resulting 
# from the CCDC's data processing and validation procedures.
#
#######################################################################

data_CAZHER
_chemical_formula_moiety         'C24 H20 P1 1+,Br1 1-,1.84(H2 O2),0.16(H2 O1)'
_chemical_name_systematic        
'Tetraphenylphosphonium bromide hydrogen peroxide solvate hydrate'
_symmetry_cell_setting           triclinic
_symmetry_space_group_name_H-M   'P -1'
_symmetry_Int_Tables_number      2
_space_group_name_Hall           '-P 1'
loop_
_symmetry_equiv_pos_site_id
_symmetry_equiv_pos_as_xyz
1 x,y,z
2 -x,-y,-z
_cell_length_a                   9.5924(5)
_cell_length_b                   11.1652(6)
_cell_length_c                   11.9082(6)
_cell_angle_alpha                75.233(1)
_cell_angle_beta                 71.189(1)
_cell_angle_gamma                70.977(1)
_cell_volume                     1125.23
_exptl_crystal_colour            colorless
_exptl_crystal_description       plate
_cell_formula_units_Z            2
_chemical_properties_physical    Air-sensitive
loop_
_atom_site_label
_atom_site_type_symbol
_atom_site_fract_x
_atom_site_fract_y
_atom_site_fract_z
P1 P 0.00421(6) 0.69944(5) 0.14623(4)
C1 C -0.0155(2) 0.55446(18) 0.25013(17)
C2 C -0.1503(2) 0.75800(19) 0.07514(18)
C3 C 0.1799(2) 0.66584(19) 0.03159(17)
C4 C 0.2547(2) 0.5403(2) 0.01130(19)
C5 C 0.0847(3) 0.5003(2) 0.32420(19)
C6 C 0.2340(2) 0.7689(2) -0.04466(19)
C7 C -0.1245(3) 0.4936(2) 0.2562(2)
C8 C 0.1485(3) 0.8084(2) 0.24393(19)
C9 C 0.4353(2) 0.6197(2) -0.1610(2)
C10 C -0.1198(3) 0.7710(2) -0.04940(19)
C11 C 0.0102(2) 0.81839(19) 0.22159(17)
C12 C 0.3830(2) 0.5183(2) -0.0851(2)
C13 C 0.3613(3) 0.7447(2) -0.14121(19)
C14 C 0.0742(3) 0.3868(2) 0.4031(2)
C15 C -0.2399(3) 0.8147(2) -0.1041(2)
C16 C -0.3014(2) 0.7866(2) 0.1455(2)
C17 C -0.3883(3) 0.8453(2) -0.0344(2)
C18 C -0.1190(3) 0.9154(2) 0.2615(2)
C19 C -0.0360(3) 0.3280(2) 0.4105(2)
C20 C -0.4204(3) 0.8315(2) 0.0898(2)
C21 C 0.1562(3) 0.8959(2) 0.3047(2)
C22 C -0.1345(3) 0.3806(2) 0.3376(2)
C23 C 0.0279(3) 0.9921(2) 0.3435(2)
C24 C -0.1095(3) 1.0021(2) 0.3228(2)
H7 H -0.020(3) 0.751(2) -0.097(2)
H8 H -0.322(2) 0.772(2) 0.232(2)
H9 H 0.393(3) 0.811(2) -0.192(2)
H10 H 0.163(3) 0.540(2) 0.318(2)
H11 H -0.045(3) 0.252(3) 0.466(3)
H12 H -0.190(3) 0.531(2) 0.208(2)
H13 H 0.234(3) 0.744(2) 0.220(2)
H14 H -0.214(3) 0.922(2) 0.249(2)
H15 H 0.432(3) 0.435(3) -0.099(2)
H16 H 0.522(3) 0.604(2) -0.229(2)
H17 H 0.181(2) 0.857(2) -0.030(2)
H18 H 0.249(3) 0.889(2) 0.320(2)
H19 H 0.220(3) 0.476(2) 0.061(2)
H20 H -0.470(3) 0.876(2) -0.070(2)
H21 H 0.135(3) 0.352(3) 0.451(3)
H22 H -0.212(3) 0.345(3) 0.347(2)
H23 H 0.032(3) 1.056(3) 0.380(3)
H24 H -0.224(3) 0.823(2) -0.187(2)
H25 H -0.519(3) 0.850(2) 0.138(2)
H26 H -0.198(3) 1.063(3) 0.353(2)
Br1 Br 0.52230(3) 0.75507(2) -0.49566(2)
O1 O 0.5334(2) 0.98395(17) -0.31008(16)
O2 O 0.6717(2) 0.89689(18) -0.36860(17)
H1 H 0.524(3) 1.045(3) -0.368(3)
H2 H 0.633(4) 0.865(3) -0.399(3)
O3 O 0.3502(3) 0.5560(3) -0.6023(3)
H3 H 0.396(4) 0.481(4) -0.575(4)
H5 H 0.4397 0.6188 -0.6098
O4? O 0.4781(3) 0.6060(3) -0.6766(2)
H4? H 0.489(4) 0.638(4) -0.628(4)
O5? O 0.414(2) 0.5758(14) -0.6456(16)
H6? H 0.4289 0.4974 -0.6122
loop_
_geom_bond_atom_site_label_1
_geom_bond_atom_site_label_2
_geom_bond_site_symmetry_1
_geom_bond_site_symmetry_2
P1 C1 1_555 1_555
C1 C5 1_555 1_555
C2 P1 1_555 1_555
C3 P1 1_555 1_555
C4 C3 1_555 1_555
C5 C14 1_555 1_555
C6 C3 1_555 1_555
C7 C1 1_555 1_555
C8 C11 1_555 1_555
C9 C12 1_555 1_555
C10 C2 1_555 1_555
C11 P1 1_555 1_555
C12 C4 1_555 1_555
C13 C6 1_555 1_555
C14 C19 1_555 1_555
C15 C10 1_555 1_555
C16 C2 1_555 1_555
C17 C15 1_555 1_555
C18 C11 1_555 1_555
C19 C22 1_555 1_555
C20 C16 1_555 1_555
C21 C8 1_555 1_555
C22 C7 1_555 1_555
C23 C21 1_555 1_555
C24 C18 1_555 1_555
O1 O2 1_555 1_555
O2 H2 1_555 1_555
H1 O1 1_555 1_555
O3 H3 1_555 1_555
H5 O3 1_555 1_555
H7 C10 1_555 1_555
H8 C16 1_555 1_555
H9 C13 1_555 1_555
H10 C5 1_555 1_555
H11 C19 1_555 1_555
H12 C7 1_555 1_555
H13 C8 1_555 1_555
H14 C18 1_555 1_555
H15 C12 1_555 1_555
H16 C9 1_555 1_555
H17 C6 1_555 1_555
H18 C21 1_555 1_555
H19 C4 1_555 1_555
H20 C17 1_555 1_555
H21 C14 1_555 1_555
H22 C22 1_555 1_555
H23 C23 1_555 1_555
H24 C15 1_555 1_555
H25 C20 1_555 1_555
H26 C24 1_555 1_555
C9 C13 1_555 1_555
C17 C20 1_555 1_555
C23 C24 1_555 1_555

#END
