
#######################################################################
#
#                 Cambridge Crystallographic Data Centre
#                                CCDC 
#
#######################################################################
#
# If this CIF has been generated from an entry in the Cambridge 
# Structural Database, then it will include bibliographic, chemical, 
# crystal, experimental, refinement or atomic coordinate data resulting 
# from the CCDC's data processing and validation procedures.
#
#######################################################################

data_CAZJAP
_chemical_formula_moiety         'C24 H20 As1 1+,Cl1 1-,0.98(H2 O2),0.02(H2 O1)'
_chemical_name_systematic        
'Tetraphenylarsonium chloride hydrogen peroxide solvate hydrate'
_symmetry_cell_setting           triclinic
_symmetry_space_group_name_H-M   'P -1'
_symmetry_Int_Tables_number      2
_space_group_name_Hall           '-P 1'
loop_
_symmetry_equiv_pos_site_id
_symmetry_equiv_pos_as_xyz
1 x,y,z
2 -x,-y,-z
_cell_length_a                   10.8149(2)
_cell_length_b                   12.7601(3)
_cell_length_c                   15.4838(4)
_cell_angle_alpha                82.691(1)
_cell_angle_beta                 80.994(1)
_cell_angle_gamma                86.723(1)
_cell_volume                     2091.75
_exptl_crystal_colour            colorless
_exptl_crystal_description       plate
_cell_formula_units_Z            4
_chemical_properties_physical    Air-sensitive
loop_
_atom_site_label
_atom_site_type_symbol
_atom_site_fract_x
_atom_site_fract_y
_atom_site_fract_z
As1 As 0.726032(19) 0.789788(16) 0.339744(13)
C1 C 0.7153(2) 0.64036(16) 0.34523(13)
C2 C 0.6012(2) 0.59171(18) 0.36881(15)
C3 C 0.5963(3) 0.48369(19) 0.36538(17)
C4 C 0.7034(3) 0.42597(19) 0.33777(16)
C5 C 0.8181(3) 0.47365(19) 0.31470(16)
C6 C 0.8244(2) 0.58159(18) 0.31897(15)
C7 C 0.85939(19) 0.81577(16) 0.40125(14)
C8 C 0.9508(2) 0.88851(19) 0.36674(15)
C9 C 1.0397(2) 0.9070(2) 0.41803(16)
C10 C 1.0380(2) 0.8546(2) 0.50195(15)
C11 C 0.9469(2) 0.7827(2) 0.53611(16)
C12 C 0.8577(2) 0.7630(2) 0.48521(16)
C13 C 0.76151(19) 0.84815(16) 0.21905(13)
C14 C 0.7911(2) 0.95407(17) 0.19961(15)
C15 C 0.8242(2) 0.99576(19) 0.11253(16)
C16 C 0.8238(2) 0.9334(2) 0.04617(16)
C17 C 0.7905(2) 0.82900(19) 0.06529(15)
C18 C 0.7599(2) 0.78521(17) 0.15223(14)
C19 C 0.57256(19) 0.85033(16) 0.39536(13)
C20 C 0.5278(2) 0.81431(18) 0.48273(15)
C21 C 0.4201(2) 0.86137(19) 0.52402(16)
C22 C 0.3577(2) 0.94426(19) 0.47857(17)
C23 C 0.4033(2) 0.97956(19) 0.39207(17)
C24 C 0.5115(2) 0.93309(18) 0.34922(15)
H9 H 0.7404(19) 0.7130(18) 0.1645(14)
H10 H 0.574(2) 0.760(2) 0.5118(15)
H12 H 0.288(2) 0.9755(17) 0.5093(14)
H13 H 1.096(2) 0.958(2) 0.3951(16)
H14 H 0.368(2) 1.037(2) 0.3642(16)
H17 H 1.104(2) 0.8694(18) 0.5364(15)
H19 H 0.541(2) 0.955(2) 0.2921(17)
H20 H 0.789(2) 0.791(2) 0.0206(17)
H26 H 0.791(2) 0.9977(19) 0.2438(16)
H27 H 0.521(2) 0.446(2) 0.3848(16)
H28 H 0.527(2) 0.633(2) 0.3825(17)
H30 H 0.952(2) 0.7459(18) 0.5939(15)
H31 H 0.841(3) 0.963(2) -0.0081(19)
H34 H 0.897(2) 0.617(2) 0.3059(16)
H36 H 0.792(2) 0.716(2) 0.5093(17)
H37 H 0.948(2) 0.9224(18) 0.3115(16)
H39 H 0.848(2) 1.065(2) 0.0963(18)
H40 H 0.705(2) 0.353(2) 0.3348(17)
H42 H 0.391(2) 0.841(2) 0.5829(18)
H46 H 0.891(3) 0.431(3) 0.297(2)
As2 As 1.314760(19) 0.709237(16) 0.150384(13)
C25 C 1.32914(19) 0.85781(16) 0.14679(13)
C26 C 1.2225(2) 0.91710(18) 0.17675(15)
C27 C 1.2314(2) 1.02432(19) 0.18215(16)
C28 C 1.3462(3) 1.07190(19) 0.15640(16)
C29 C 1.4507(2) 1.01335(18) 0.12520(15)
C30 C 1.4437(2) 0.90550(17) 0.12024(14)
C31 C 1.27783(18) 0.64846(16) 0.27000(13)
C32 C 1.2779(2) 0.70974(18) 0.33866(14)
C33 C 1.2484(2) 0.66314(19) 0.42498(15)
C34 C 1.2170(2) 0.5584(2) 0.44264(16)
C35 C 1.2172(2) 0.49791(19) 0.37405(16)
C36 C 1.2490(2) 0.54256(17) 0.28741(15)
C37 C 1.18120(18) 0.68452(16) 0.08915(13)
C38 C 1.1888(2) 0.72737(18) 0.00125(15)
C39 C 1.0984(2) 0.70545(18) -0.04757(15)
C40 C 1.0001(2) 0.64137(18) -0.00847(15)
C41 C 0.9924(2) 0.59980(18) 0.07893(15)
C42 C 1.08231(19) 0.62067(17) 0.12878(14)
C43 C 1.46663(18) 0.64523(16) 0.09624(13)
C44 C 1.5251(2) 0.56218(17) 0.14397(15)
C45 C 1.6321(2) 0.51186(18) 0.10368(16)
C46 C 1.6793(2) 0.54512(18) 0.01695(16)
C47 C 1.6208(2) 0.62743(19) -0.03100(16)
C48 C 1.5137(2) 0.67810(18) 0.00842(15)
H7 H 1.2973(19) 0.7790(18) 0.3258(14)
H8 H 0.9324(19) 0.6313(16) -0.0425(13)
H11 H 1.515(2) 0.8623(18) 0.1010(14)
H15 H 1.749(2) 0.5133(19) -0.0122(15)
H16 H 1.263(2) 0.7700(18) -0.0279(14)
H18 H 1.494(2) 0.540(2) 0.2028(17)
H21 H 1.248(2) 0.500(2) 0.2417(17)
H22 H 1.670(2) 0.4512(19) 0.1358(15)
H23 H 1.144(2) 0.886(2) 0.1940(16)
H24 H 0.927(2) 0.5521(19) 0.1070(16)
H25 H 1.473(2) 0.7360(19) -0.0237(15)
H29 H 1.078(2) 0.5941(18) 0.1877(15)
H32 H 1.198(2) 0.430(2) 0.3884(17)
H33 H 1.250(2) 0.699(2) 0.4701(17)
H35 H 1.103(2) 0.7315(18) -0.1059(16)
H38 H 1.160(3) 1.066(2) 0.2016(19)
H41 H 1.658(2) 0.649(2) -0.0899(18)
H43 H 1.353(2) 1.142(2) 0.1592(17)
H44 H 1.530(2) 1.046(2) 0.1059(17)
H45 H 1.196(3) 0.527(2) 0.497(2)
Cl1 Cl 0.88437(5) 0.67303(4) 0.78337(4)
Cl2 Cl 1.37290(5) 0.79495(5) 0.79818(4)
O1 O 1.16658(15) 0.83613(15) 0.68334(11)
O2 O 1.05325(15) 0.86326(13) 0.74171(12)
H5 H 1.222(3) 0.824(2) 0.722(2)
H6 H 1.007(3) 0.806(3) 0.7494(19)
H2 H 1.731(3) 0.733(2) 0.7037(18)
O5 O 1.638(4) 0.703(3) 0.678(2)
H3 H 1.5719 0.7258 0.7075
O3? O 1.5842(2) 0.68227(17) 0.69008(16)
O4? O 1.68297(18) 0.75857(17) 0.66886(13)
H1? H 1.525(3) 0.710(3) 0.720(2)
H4? H 1.7014 0.6952 0.7048
loop_
_geom_bond_atom_site_label_1
_geom_bond_atom_site_label_2
_geom_bond_site_symmetry_1
_geom_bond_site_symmetry_2
As1 C1 1_555 1_555
As2 C25 1_555 1_555
C1 C2 1_555 1_555
C2 C3 1_555 1_555
C3 C4 1_555 1_555
C4 C5 1_555 1_555
C5 C6 1_555 1_555
C6 C1 1_555 1_555
C7 As1 1_555 1_555
C8 C7 1_555 1_555
C9 C8 1_555 1_555
C10 C9 1_555 1_555
C11 C10 1_555 1_555
C12 C7 1_555 1_555
C13 As1 1_555 1_555
C14 C13 1_555 1_555
C15 C14 1_555 1_555
C16 C15 1_555 1_555
C17 C16 1_555 1_555
C18 C13 1_555 1_555
C19 As1 1_555 1_555
C20 C19 1_555 1_555
C21 C20 1_555 1_555
C22 C21 1_555 1_555
C23 C22 1_555 1_555
C24 C19 1_555 1_555
C25 C26 1_555 1_555
C26 C27 1_555 1_555
C27 C28 1_555 1_555
C28 C29 1_555 1_555
C29 C30 1_555 1_555
C30 C25 1_555 1_555
C31 As2 1_555 1_555
C32 C31 1_555 1_555
C33 C32 1_555 1_555
C34 C33 1_555 1_555
C35 C34 1_555 1_555
C36 C31 1_555 1_555
C37 As2 1_555 1_555
C38 C37 1_555 1_555
C39 C38 1_555 1_555
C40 C39 1_555 1_555
C41 C40 1_555 1_555
C42 C37 1_555 1_555
C43 As2 1_555 1_555
C44 C43 1_555 1_555
C45 C44 1_555 1_555
C46 C45 1_555 1_555
C47 C46 1_555 1_555
C48 C43 1_555 1_555
O1 O2 1_555 1_555
O2 H6 1_555 1_555
H2 O5 1_555 1_555
O5 H3 1_555 1_555
H5 O1 1_555 1_555
H7 C32 1_555 1_555
H8 C40 1_555 1_555
H9 C18 1_555 1_555
H10 C20 1_555 1_555
H11 C30 1_555 1_555
H12 C22 1_555 1_555
H13 C9 1_555 1_555
H14 C23 1_555 1_555
H15 C46 1_555 1_555
H16 C38 1_555 1_555
H17 C10 1_555 1_555
H18 C44 1_555 1_555
H19 C24 1_555 1_555
H20 C17 1_555 1_555
H21 C36 1_555 1_555
H22 C45 1_555 1_555
H23 C26 1_555 1_555
H24 C41 1_555 1_555
H25 C48 1_555 1_555
H26 C14 1_555 1_555
H27 C3 1_555 1_555
H28 C2 1_555 1_555
H29 C42 1_555 1_555
H30 C11 1_555 1_555
H31 C16 1_555 1_555
H32 C35 1_555 1_555
H33 C33 1_555 1_555
H34 C6 1_555 1_555
H35 C39 1_555 1_555
H36 C12 1_555 1_555
H37 C8 1_555 1_555
H38 C27 1_555 1_555
H39 C15 1_555 1_555
H40 C4 1_555 1_555
H41 C47 1_555 1_555
H42 C21 1_555 1_555
H43 C28 1_555 1_555
H44 C29 1_555 1_555
H45 C34 1_555 1_555
H46 C5 1_555 1_555
C11 C12 1_555 1_555
C17 C18 1_555 1_555
C23 C24 1_555 1_555
C35 C36 1_555 1_555
C41 C42 1_555 1_555
C47 C48 1_555 1_555

#END
