
#######################################################################
#
#                 Cambridge Crystallographic Data Centre
#                                CCDC 
#
#######################################################################
#
# If this CIF has been generated from an entry in the Cambridge 
# Structural Database, then it will include bibliographic, chemical, 
# crystal, experimental, refinement or atomic coordinate data resulting 
# from the CCDC's data processing and validation procedures.
#
#######################################################################

data_CAZJUI
_chemical_compound_source        'Artemisia cana Pursh ssp. cana'
_chemical_formula_moiety         'C15 H18 O5'
_chemical_name_systematic        Canin
_symmetry_cell_setting           orthorhombic
_symmetry_space_group_name_H-M   'P 21 21 21'
_symmetry_Int_Tables_number      19
_space_group_name_Hall           'P 2ac 2ab'
loop_
_symmetry_equiv_pos_site_id
_symmetry_equiv_pos_as_xyz
1 x,y,z
2 1/2+x,1/2-y,-z
3 -x,1/2+y,1/2-z
4 1/2-x,-y,1/2+z
_cell_length_a                   6.438(2)
_cell_length_b                   13.274(3)
_cell_length_c                   15.646(3)
_cell_angle_alpha                90
_cell_angle_beta                 90
_cell_angle_gamma                90
_cell_volume                     1337.08
_cell_formula_units_Z            4
loop_
_atom_site_label
_atom_site_type_symbol
_atom_site_fract_x
_atom_site_fract_y
_atom_site_fract_z
O1 O 0.70460 0.09780 -0.03250
C1 C 0.54780 0.15400 0.00000
O2 O 0.45580 0.21330 -0.04340
C2 C 0.51900 0.12710 0.09040
C3 C 0.39280 0.17560 0.14160
C4 C 0.65920 0.03920 0.10800
C5 C 0.75400 0.03620 0.19600
C6 C 0.93670 -0.03490 0.20730
C7 C 0.92790 -0.13620 0.16000
C8 C 1.05850 -0.21250 0.20690
O3 O 0.71240 -0.16760 0.16200
C9 C 0.99850 -0.12440 0.06800
C10 C 1.21220 -0.14800 0.03950
O4 O 1.04970 -0.21990 0.02790
C11 C 1.25960 -0.09030 -0.03920
O5 O 1.13420 -0.12220 -0.11230
C12 C 1.07570 -0.03270 -0.06530
C13 C 1.09010 0.06230 -0.11610
C14 C 0.90160 -0.05180 0.00060
C15 C 0.81720 0.04650 0.03550
H1 H 0.31400 0.23170 0.12050
H2 H 0.37920 0.15500 0.20010
H3 H 0.58460 -0.02340 0.10870
H4 H 0.80050 0.10300 0.20970
H5 H 0.74760 0.01620 0.23550
H6 H 1.05880 -0.00020 0.18810
H7 H 0.94900 -0.04930 0.26720
H8 H 1.01640 -0.21500 0.26570
H9 H 1.20220 -0.19350 0.20350
H10 H 1.03990 -0.27760 0.18120
H11 H 0.71010 -0.22460 0.14040
H12 H 1.32930 -0.16720 0.07750
H13 H 1.41430 -0.06880 -0.06010
H14 H 1.00080 0.05770 -0.16500
H15 H 1.23080 0.07210 -0.13460
H16 H 1.04790 0.11820 -0.08120
H17 H 0.78040 -0.08300 -0.02330
H18 H 0.93850 0.07990 0.05720
loop_
_geom_bond_atom_site_label_1
_geom_bond_atom_site_label_2
_geom_bond_site_symmetry_1
_geom_bond_site_symmetry_2
O1 C1 1_555 1_555
C1 O2 1_555 1_555
C2 C1 1_555 1_555
C3 C2 1_555 1_555
C4 C2 1_555 1_555
C5 C4 1_555 1_555
C6 C5 1_555 1_555
C7 C6 1_555 1_555
C8 C7 1_555 1_555
O3 C7 1_555 1_555
C9 C7 1_555 1_555
C10 C9 1_555 1_555
O4 C9 1_555 1_555
C11 C10 1_555 1_555
O5 C11 1_555 1_555
C12 C11 1_555 1_555
C13 C12 1_555 1_555
C14 C9 1_555 1_555
C15 O1 1_555 1_555
H1 C3 1_555 1_555
H2 C3 1_555 1_555
H3 C4 1_555 1_555
H4 C5 1_555 1_555
H5 C5 1_555 1_555
H6 C6 1_555 1_555
H7 C6 1_555 1_555
H8 C8 1_555 1_555
H9 C8 1_555 1_555
H10 C8 1_555 1_555
H11 O3 1_555 1_555
H12 C10 1_555 1_555
H13 C11 1_555 1_555
H14 C13 1_555 1_555
H15 C13 1_555 1_555
H16 C13 1_555 1_555
H17 C14 1_555 1_555
H18 C15 1_555 1_555
C4 C15 1_555 1_555
C10 O4 1_555 1_555
O5 C12 1_555 1_555
C12 C14 1_555 1_555
C14 C15 1_555 1_555

#END
