
#######################################################################
#
#                 Cambridge Crystallographic Data Centre
#                                CCDC 
#
#######################################################################
#
# If this CIF has been generated from an entry in the Cambridge 
# Structural Database, then it will include bibliographic, chemical, 
# crystal, experimental, refinement or atomic coordinate data resulting 
# from the CCDC's data processing and validation procedures.
#
#######################################################################

data_CAZMIC
_chemical_formula_moiety         'C23 H17 N3 O5'
_chemical_name_systematic        
'5-(4-hydroxy-2-oxo-2H-chromen-3-yl)-1,3-dimethyl-6-phenyl-1H-pyrrolo[2,3-d]pyrimidine-2,4(3H,7H)-dione unknown solvate'
_symmetry_cell_setting           triclinic
_symmetry_space_group_name_H-M   'P -1'
_symmetry_Int_Tables_number      2
_space_group_name_Hall           '-P 1'
loop_
_symmetry_equiv_pos_site_id
_symmetry_equiv_pos_as_xyz
1 x,y,z
2 -x,-y,-z
_cell_length_a                   8.973(2)
_cell_length_b                   9.994(2)
_cell_length_c                   15.370(4)
_cell_angle_alpha                103.432(6)
_cell_angle_beta                 102.623(6)
_cell_angle_gamma                96.632(6)
_cell_volume                     1287.99
_exptl_crystal_colour            colorless
_exptl_crystal_description       rod
_chemical_melting_point          '663-665 K'
_cell_formula_units_Z            2
_exptl_crystal_recrystallization_method 'methanol/dimethyl sulfoxide'
loop_
_atom_site_label
_atom_site_type_symbol
_atom_site_fract_x
_atom_site_fract_y
_atom_site_fract_z
O1 O 0.99269(15) 0.86461(14) 0.39492(9)
O2 O 0.69517(17) 0.83030(14) 0.14950(10)
O3 O 0.21337(17) 0.62554(15) -0.03227(10)
N1 N 0.49100(17) 0.39908(15) 0.16766(10)
H1 H 0.42878 0.321613 0.157111
O4 O 0.74860(17) 0.79469(18) 0.38640(12)
N2 N 0.33411(17) 0.50398(15) 0.06084(10)
N3 N 0.45348(18) 0.72583(16) 0.05936(10)
O5 O 0.99645(18) 0.5343(2) 0.18102(12)
H2 H 0.91052 0.486551 0.15534
C1 C 1.3886(3) 0.9373(3) 0.38445(17)
H3 H 1.476209 1.00578 0.413083
C2 C 1.3958(3) 0.8244(4) 0.3161(2)
H4 H 1.488371 0.816321 0.299133
C3 C 1.2683(3) 0.7242(3) 0.27291(18)
H5 H 1.274276 0.64832 0.226286
C4 C 1.1290(2) 0.7336(2) 0.29757(14)
C5 C 0.9853(2) 0.6369(2) 0.25125(13)
C6 C 0.8537(2) 0.65532(19) 0.27733(12)
C7 C 0.7004(2) 0.56845(19) 0.22652(12)
C8 C 0.6371(2) 0.43892(19) 0.23075(12)
C9 C 0.6980(2) 0.3466(2) 0.28570(13)
C10 C 0.8083(3) 0.4010(3) 0.36922(18)
H6 H 0.84078 0.497194 0.391192
C11 C 0.8705(4) 0.3154(3) 0.4201(2)
H7 H 0.944835 0.354511 0.47582
C12 C 0.8249(3) 0.1741(3) 0.39021(17)
H8 H 0.868732 0.116392 0.424274
C13 C 1.1257(2) 0.8479(2) 0.36709(13)
C14 C 0.8563(2) 0.7716(2) 0.35367(14)
C15 C 0.5896(2) 0.60817(18) 0.15954(12)
C16 C 0.4639(2) 0.50171(18) 0.12626(12)
C17 C 0.3268(2) 0.6188(2) 0.02593(13)
C18 C 0.4445(3) 0.8487(2) 0.02242(17)
H9 H 0.379455 0.820733 -0.039536
H10 H 0.546656 0.889309 0.022083
H11 H 0.401699 0.916153 0.060593
C19 C 0.5909(2) 0.72945(19) 0.12639(13)
C20 C 0.1993(2) 0.3911(2) 0.02961(15)
H12 H 0.23326 0.30389 0.031235
H13 H 0.145146 0.386657 -0.03249
H14 H 0.131204 0.408866 0.069604
C21 C 0.7144(3) 0.1195(2) 0.30992(17)
H15 H 0.68086 0.023321 0.289357
C22 C 0.6508(3) 0.2040(2) 0.25813(15)
H16 H 0.5745 0.163891 0.203442
C23 C 1.2543(2) 0.9505(3) 0.41104(15)
H17 H 1.249682 1.026898 0.457698
loop_
_geom_bond_atom_site_label_1
_geom_bond_atom_site_label_2
_geom_bond_site_symmetry_1
_geom_bond_site_symmetry_2
O1 C13 1_555 1_555
O2 C19 1_555 1_555
O3 C17 1_555 1_555
N1 H1 1_555 1_555
O4 C14 1_555 1_555
N2 C16 1_555 1_555
N3 C17 1_555 1_555
O5 H2 1_555 1_555
C1 H3 1_555 1_555
C2 C1 1_555 1_555
H4 C2 1_555 1_555
C3 C2 1_555 1_555
H5 C3 1_555 1_555
C4 C3 1_555 1_555
C5 O5 1_555 1_555
C6 C5 1_555 1_555
C7 C6 1_555 1_555
C8 N1 1_555 1_555
C9 C8 1_555 1_555
C10 C9 1_555 1_555
H6 C10 1_555 1_555
C11 C10 1_555 1_555
H7 C11 1_555 1_555
C12 C11 1_555 1_555
H8 C12 1_555 1_555
C13 C4 1_555 1_555
C14 O1 1_555 1_555
C15 C7 1_555 1_555
C16 N1 1_555 1_555
C17 N2 1_555 1_555
C18 N3 1_555 1_555
H9 C18 1_555 1_555
H10 C18 1_555 1_555
H11 C18 1_555 1_555
C19 N3 1_555 1_555
C20 N2 1_555 1_555
H12 C20 1_555 1_555
H13 C20 1_555 1_555
H14 C20 1_555 1_555
C21 C12 1_555 1_555
H15 C21 1_555 1_555
C22 C9 1_555 1_555
H16 C22 1_555 1_555
C23 C1 1_555 1_555
H17 C23 1_555 1_555
C4 C5 1_555 1_555
C6 C14 1_555 1_555
C7 C8 1_555 1_555
C13 C23 1_555 1_555
C15 C16 1_555 1_555
C15 C19 1_555 1_555
C21 C22 1_555 1_555

#END
