
#######################################################################
#
#                 Cambridge Crystallographic Data Centre
#                                CCDC 
#
#######################################################################
#
# If this CIF has been generated from an entry in the Cambridge 
# Structural Database, then it will include bibliographic, chemical, 
# crystal, experimental, refinement or atomic coordinate data resulting 
# from the CCDC's data processing and validation procedures.
#
#######################################################################

data_CAZMUN
_chemical_formula_moiety         '2(C22 H18 Br2 O2),C1 H1 Cl3'
_chemical_name_systematic        
'7-(3,5-Dibromophenyl)-6,6a,7,7a,10,10a-hexahydrophenanthro[2,3-c]furan-8(5H)-one chloroform solvate'
_symmetry_cell_setting           triclinic
_symmetry_space_group_name_H-M   'P -1'
_symmetry_Int_Tables_number      2
_space_group_name_Hall           '-P 1'
loop_
_symmetry_equiv_pos_site_id
_symmetry_equiv_pos_as_xyz
1 x,y,z
2 -x,-y,-z
_cell_length_a                   9.0997(12)
_cell_length_b                   13.8505(18)
_cell_length_c                   16.388(2)
_cell_angle_alpha                90.673(2)
_cell_angle_beta                 96.255(2)
_cell_angle_gamma                96.812(2)
_cell_volume                     2038.04
_exptl_crystal_colour            colorless
_exptl_crystal_description       prism
_cell_formula_units_Z            2
loop_
_atom_site_label
_atom_site_type_symbol
_atom_site_fract_x
_atom_site_fract_y
_atom_site_fract_z
Br1 Br 0.10010(3) 0.513602(16) 0.283602(16)
Br2 Br -0.11923(2) 0.120731(15) 0.207167(12)
O1 O 0.50867(18) 0.23318(12) 0.19432(10)
O2 O 0.5901(2) 0.36613(12) 0.27066(11)
C1 C 0.1846(3) -0.20896(17) 0.44722(15)
H1 H 0.1717 -0.2722 0.4225
C2 C 0.2585(2) -0.13212(16) 0.40956(14)
H2 H 0.2946 -0.1434 0.3585
C3 C 0.2820(2) -0.03794(15) 0.44436(12)
C4 C 0.3657(2) 0.04417(15) 0.40412(12)
C5 C 0.4237(2) 0.03215(15) 0.33367(13)
H3 H 0.4032 -0.0298 0.3067
C6 C 0.5185(2) 0.11006(16) 0.29478(14)
H4 H 0.6197 0.0888 0.2945
C7 C 0.4609(3) 0.13060(16) 0.20582(14)
H5 H 0.5037 0.0896 0.1669
H6 H 0.3510 0.1171 0.1970
C8 C 0.5506(2) 0.28031(17) 0.26715(14)
C9 C 0.5377(2) 0.21050(16) 0.33698(13)
H7 H 0.6341 0.2185 0.3735
C10 C 0.4106(2) 0.22845(15) 0.38919(13)
H8 H 0.4496 0.2868 0.4250
C11 C 0.3890(2) 0.14310(15) 0.44760(12)
H9 H 0.4837 0.1453 0.4852
C12 C 0.2663(3) 0.15658(17) 0.50176(13)
H10 H 0.2898 0.2198 0.5320
H11 H 0.1705 0.1574 0.4669
C13 C 0.2513(3) 0.07491(17) 0.56265(14)
H12 H 0.3428 0.0793 0.6018
H13 H 0.1665 0.0825 0.5943
C14 C 0.2267(2) -0.02328(16) 0.51988(13)
C15 C 0.1497(3) -0.10163(18) 0.55615(14)
H14 H 0.1103 -0.0910 0.6064
C16 C 0.1291(3) -0.19355(18) 0.52142(15)
H15 H 0.0777 -0.2459 0.5477
C17 C 0.2685(2) 0.25394(15) 0.33998(12)
C18 C 0.2482(2) 0.35217(15) 0.33469(13)
H16 H 0.3228 0.4004 0.3599
C19 C 0.1203(2) 0.37942(15) 0.29295(13)
C20 C 0.0074(2) 0.31238(15) 0.25585(12)
H17 H -0.0813 0.3321 0.2285
C21 C 0.0293(2) 0.21521(15) 0.26038(12)
C22 C 0.1571(2) 0.18473(15) 0.30147(12)
H18 H 0.1687 0.1175 0.3034
Br3 Br 0.16529(3) 0.085916(14) 0.042074(14)
Br4 Br 0.00426(2) -0.236170(15) 0.234690(12)
O3 O 0.60058(19) -0.14088(11) 0.23612(10)
O4 O 0.65343(18) -0.04534(11) 0.13271(11)
C23 C 0.2091(2) -0.66148(15) 0.09109(14)
H19 H 0.2049 -0.7120 0.1298
C24 C 0.2992(2) -0.57526(15) 0.11028(13)
H20 H 0.3555 -0.5670 0.1627
C25 C 0.3101(2) -0.49932(14) 0.05444(12)
C26 C 0.4062(2) -0.40587(14) 0.07653(12)
C27 C 0.4842(2) -0.38877(15) 0.15040(13)
H21 H 0.4716 -0.4367 0.1909
C28 C 0.5902(2) -0.29877(15) 0.17333(13)
H22 H 0.6921 -0.3192 0.1844
C29 C 0.5597(3) -0.24309(16) 0.25055(14)
H23 H 0.4531 -0.2556 0.2591
H24 H 0.6201 -0.2637 0.2998
C30 C 0.6221(2) -0.12580(16) 0.15671(14)
C31 C 0.5971(2) -0.22133(14) 0.10830(13)
H25 H 0.6858 -0.2271 0.0783
C32 C 0.4571(2) -0.22530(14) 0.04479(12)
H26 H 0.4878 -0.1851 -0.0022
C33 C 0.4151(2) -0.33007(14) 0.01021(12)
H27 H 0.4970 -0.3445 -0.0224
C34 C 0.2736(2) -0.33724(15) -0.04959(12)
H28 H 0.1893 -0.3224 -0.0202
H29 H 0.2864 -0.2890 -0.0931
C35 C 0.2397(3) -0.43872(15) -0.08813(13)
H30 H 0.1445 -0.4436 -0.1243
H31 H 0.3193 -0.4508 -0.1223
C36 C 0.2289(2) -0.51436(14) -0.02343(13)
C37 C 0.1359(2) -0.60102(15) -0.04130(14)
H32 H 0.0788 -0.6101 -0.0935
C38 C 0.1248(2) -0.67433(15) 0.01542(15)
H33 H 0.0600 -0.7327 0.0024
C39 C 0.3300(2) -0.17884(14) 0.07676(12)
C40 C 0.3062(2) -0.08626(14) 0.05006(13)
H34 H 0.3659 -0.0551 0.0117
C41 C 0.1951(2) -0.03953(14) 0.07955(13)
C42 C 0.1046(2) -0.08199(14) 0.13507(12)
H35 H 0.0294 -0.0492 0.1552
C43 C 0.1286(2) -0.17439(14) 0.15982(12)
C44 C 0.2377(2) -0.22392(14) 0.13188(12)
H36 H 0.2498 -0.2877 0.1499
Cl1 Cl 0.22476(11) 0.54944(7) 0.52687(6)
Cl2 Cl 0.14316(7) 0.36629(5) 0.60056(5)
Cl3 Cl 0.45194(7) 0.43635(5) 0.59578(5)
C45 C 0.2737(3) 0.47061(17) 0.60490(16)
H37 H 0.2756 0.5048 0.6592
loop_
_geom_bond_atom_site_label_1
_geom_bond_atom_site_label_2
_geom_bond_site_symmetry_1
_geom_bond_site_symmetry_2
Br1 C19 1_555 1_555
Br2 C21 1_555 1_555
O1 C7 1_555 1_555
O2 C8 1_555 1_555
C1 H1 1_555 1_555
C2 C1 1_555 1_555
H2 C2 1_555 1_555
C3 C2 1_555 1_555
C4 C3 1_555 1_555
C5 C4 1_555 1_555
H3 C5 1_555 1_555
C6 C5 1_555 1_555
H4 C6 1_555 1_555
C7 C6 1_555 1_555
H5 C7 1_555 1_555
H6 C7 1_555 1_555
C8 O1 1_555 1_555
C9 C6 1_555 1_555
H7 C9 1_555 1_555
C10 C9 1_555 1_555
H8 C10 1_555 1_555
C11 C4 1_555 1_555
H9 C11 1_555 1_555
C12 C11 1_555 1_555
H10 C12 1_555 1_555
H11 C12 1_555 1_555
C13 C12 1_555 1_555
H12 C13 1_555 1_555
H13 C13 1_555 1_555
C14 C3 1_555 1_555
C15 C14 1_555 1_555
H14 C15 1_555 1_555
C16 C1 1_555 1_555
H15 C16 1_555 1_555
C17 C10 1_555 1_555
C18 C17 1_555 1_555
H16 C18 1_555 1_555
C19 C18 1_555 1_555
C20 C19 1_555 1_555
H17 C20 1_555 1_555
C21 C20 1_555 1_555
C22 C17 1_555 1_555
H18 C22 1_555 1_555
Br3 C41 1_555 1_555
Br4 C43 1_555 1_555
O3 C29 1_555 1_555
O4 C30 1_555 1_555
C23 H19 1_555 1_555
C24 C23 1_555 1_555
H20 C24 1_555 1_555
C25 C24 1_555 1_555
C26 C25 1_555 1_555
C27 C26 1_555 1_555
H21 C27 1_555 1_555
C28 C27 1_555 1_555
H22 C28 1_555 1_555
C29 C28 1_555 1_555
H23 C29 1_555 1_555
H24 C29 1_555 1_555
C30 O3 1_555 1_555
C31 C28 1_555 1_555
H25 C31 1_555 1_555
C32 C31 1_555 1_555
H26 C32 1_555 1_555
C33 C26 1_555 1_555
H27 C33 1_555 1_555
C34 C33 1_555 1_555
H28 C34 1_555 1_555
H29 C34 1_555 1_555
C35 C34 1_555 1_555
H30 C35 1_555 1_555
H31 C35 1_555 1_555
C36 C25 1_555 1_555
C37 C36 1_555 1_555
H32 C37 1_555 1_555
C38 C23 1_555 1_555
H33 C38 1_555 1_555
C39 C32 1_555 1_555
C40 C39 1_555 1_555
H34 C40 1_555 1_555
C41 C40 1_555 1_555
C42 C41 1_555 1_555
H35 C42 1_555 1_555
C43 C42 1_555 1_555
C44 C39 1_555 1_555
H36 C44 1_555 1_555
Cl1 C45 1_555 1_555
Cl2 C45 1_555 1_555
Cl3 C45 1_555 1_555
C45 H37 1_555 1_555
C8 C9 1_555 1_555
C10 C11 1_555 1_555
C13 C14 1_555 1_555
C15 C16 1_555 1_555
C21 C22 1_555 1_555
C30 C31 1_555 1_555
C32 C33 1_555 1_555
C35 C36 1_555 1_555
C37 C38 1_555 1_555
C43 C44 1_555 1_555

#END
