
#######################################################################
#
#                 Cambridge Crystallographic Data Centre
#                                CCDC 
#
#######################################################################
#
# If this CIF has been generated from an entry in the Cambridge 
# Structural Database, then it will include bibliographic, chemical, 
# crystal, experimental, refinement or atomic coordinate data resulting 
# from the CCDC's data processing and validation procedures.
#
#######################################################################

data_CAZMOI
_chemical_formula_moiety         'C21 H15 N3 O3,1.5(C2 H6 O1 S1)'
_chemical_name_systematic        
'7-benzoyl-8-methyl-9,11-dihydrochromeno[4,3-b]pyrazolo[4,3-e]pyridin-6(7H)-one dimethyl sulfoxide unknown solvate'
_symmetry_cell_setting           triclinic
_symmetry_space_group_name_H-M   'P -1'
_symmetry_Int_Tables_number      2
_space_group_name_Hall           '-P 1'
loop_
_symmetry_equiv_pos_site_id
_symmetry_equiv_pos_as_xyz
1 x,y,z
2 -x,-y,-z
_cell_length_a                   9.4642(8)
_cell_length_b                   12.2923(11)
_cell_length_c                   22.0367(19)
_cell_angle_alpha                100.487(2)
_cell_angle_beta                 100.083(2)
_cell_angle_gamma                96.444(2)
_cell_volume                     2454.27
_exptl_crystal_colour            colorless
_exptl_crystal_description       rod
_chemical_melting_point          '325-327 K'
_cell_formula_units_Z            4
_exptl_crystal_recrystallization_method 'dimethyl sulfoxide/methanol'
loop_
_atom_site_label
_atom_site_type_symbol
_atom_site_fract_x
_atom_site_fract_y
_atom_site_fract_z
S1 S 0.84466(9) 0.97881(7) 0.54651(4)
O1 O 0.9199(3) 0.8940(2) 0.57486(12)
C1 C 0.7101(5) 1.0104(4) 0.5901(2)
H1 H 0.645879 0.943061 0.588255
H2 H 0.655886 1.062779 0.572636
H3 H 0.755099 1.042432 0.633138
C2 C 0.7306(7) 0.9070(5) 0.4747(2)
H4 H 0.789008 0.878855 0.445596
H5 H 0.672652 0.957375 0.45725
H6 H 0.668401 0.845738 0.482215
S2 S 0.55047(11) 0.94787(7) 0.79523(4)
O2 O 0.4710(3) 0.8302(2) 0.77142(15)
C3 C 0.6141(4) 0.9894(3) 0.73092(17)
H7 H 0.665368 0.933354 0.712251
H8 H 0.678244 1.059206 0.745439
H9 H 0.533249 0.99833 0.700135
C4 C 0.7190(6) 0.9376(4) 0.8399(2)
H10 H 0.705011 0.914028 0.877906
H11 H 0.779255 1.009271 0.850328
H12 H 0.764984 0.883959 0.81595
S3 S 0.11673(12) 0.07479(8) 0.75299(4)
O3 O -0.0140(3) 0.1239(2) 0.73301(16)
C5 C 0.2077(5) 0.0633(4) 0.6892(2)
H13 H 0.138867 0.033874 0.650563
H14 H 0.278692 0.014038 0.694493
H15 H 0.255124 0.135892 0.687884
C6 C 0.0618(6) -0.0703(4) 0.7461(2)
H16 H 0.004085 -0.081205 0.776849
H17 H 0.146014 -0.106701 0.753092
H18 H 0.005547 -0.101528 0.704652
O4 O 0.4480(2) 0.30213(15) 0.74150(9)
O5 O 0.5450(3) 0.23102(16) 0.66212(10)
O6 O 0.4347(2) 0.3829(2) 0.56112(9)
N1 N 0.5872(2) 0.62484(18) 0.72165(10)
H19 H 0.564392 0.681115 0.745354
N2 N 0.7991(2) 0.71618(19) 0.62338(11)
H20 H 0.845648 0.766447 0.608819
N3 N 0.7247(3) 0.74077(19) 0.67061(11)
C7 C 0.6586(3) 0.4317(2) 0.63692(11)
H21 H 0.743217 0.39338 0.644819
C8 C 0.5735(3) 0.4267(2) 0.68875(11)
C9 C 0.5409(3) 0.5187(2) 0.72653(11)
C10 C 0.6317(3) 0.3165(2) 0.52220(11)
C11 C 0.5633(3) 0.3749(2) 0.57236(11)
C12 C 0.4564(3) 0.5021(2) 0.77384(11)
C13 C 0.7088(3) 0.5520(2) 0.63669(11)
C14 C 0.6721(3) 0.6408(2) 0.67765(11)
C15 C 0.7925(3) 0.6052(2) 0.60164(12)
C16 C 0.4134(3) 0.3932(2) 0.77960(11)
C17 C 0.4123(3) 0.5876(2) 0.81418(12)
H22 H 0.43946 0.661596 0.811878
C18 C 0.5253(3) 0.3160(2) 0.69526(12)
C19 C 0.3298(3) 0.5647(3) 0.85720(12)
H23 H 0.301439 0.623038 0.883359
C20 C 0.7627(3) 0.2771(2) 0.53506(14)
H24 H 0.810096 0.284731 0.576626
C21 C 0.5616(3) 0.3030(3) 0.45977(13)
H25 H 0.473158 0.32858 0.450183
C22 C 0.2889(3) 0.4553(2) 0.86164(12)
H26 H 0.233321 0.439949 0.890769
C23 C 0.3310(3) 0.3691(2) 0.82272(12)
H27 H 0.304033 0.295273 0.825462
C24 C 0.8638(3) 0.5644(3) 0.54828(13)
H28 H 0.791462 0.539115 0.51033
H29 H 0.913844 0.503653 0.557222
H30 H 0.931855 0.624271 0.542968
C25 C 0.8237(4) 0.2267(3) 0.48676(15)
H31 H 0.912037 0.20085 0.495996
C26 C 0.7549(4) 0.2145(3) 0.42547(15)
H32 H 0.797013 0.181158 0.393103
C27 C 0.6239(4) 0.2513(3) 0.41169(14)
H33 H 0.576522 0.241691 0.369962
O7 O 1.04571(19) 0.57442(17) 0.93813(9)
O8 O 1.0475(2) 0.65666(16) 0.75847(9)
O9 O 0.9474(2) 0.73299(16) 0.83539(10)
N4 N 0.8915(2) 0.33792(18) 0.77987(10)
H34 H 0.911191 0.279907 0.756443
N5 N 0.7609(3) 0.22865(19) 0.83659(11)
N6 N 0.6887(3) 0.25877(19) 0.88400(11)
H35 H 0.643502 0.210897 0.900585
C28 C 0.8630(3) 0.6693(2) 0.97312(11)
C29 C 0.9219(3) 0.5947(2) 0.92593(11)
C30 C 0.8248(3) 0.5364(2) 0.86215(11)
H36 H 0.741116 0.575605 0.853726
C31 C 0.7732(3) 0.4180(2) 0.86448(11)
C32 C 0.8100(3) 0.3265(2) 0.82553(11)
C33 C 0.9397(3) 0.4428(2) 0.77280(11)
C34 C 0.9099(3) 0.5368(2) 0.80991(11)
C35 C 1.0255(3) 0.4560(2) 0.72534(11)
C36 C 0.6945(3) 0.3700(2) 0.90253(12)
C37 C 0.9650(3) 0.6464(2) 0.80298(12)
C38 C 0.9390(3) 0.6955(2) 1.03522(12)
H37 H 1.024208 0.666224 1.04594
C39 C 1.0768(3) 0.5639(2) 0.72047(12)
C40 C 0.7368(3) 0.7150(2) 0.95868(14)
H38 H 0.685079 0.699418 0.917357
C41 C 1.0632(3) 0.3676(3) 0.68415(12)
H39 H 1.030161 0.294044 0.685513
C42 C 0.7628(4) 0.8071(3) 1.06571(14)
H40 H 0.728482 0.852437 1.096803
C43 C 0.6285(3) 0.4176(3) 0.95578(13)
H41 H 0.545857 0.366423 0.957777
H42 H 0.598383 0.487499 0.949597
H43 H 0.698559 0.429777 0.994455
C44 C 1.1642(3) 0.5842(3) 0.67828(13)
H44 H 1.199223 0.657291 0.676794
C45 C 0.8893(4) 0.7644(3) 1.08098(13)
H45 H 0.94138 0.781869 1.122255
C46 C 1.1987(3) 0.4964(3) 0.63890(14)
H46 H 1.256317 0.509347 0.610069
C47 C 0.6872(3) 0.7831(3) 1.00466(15)
H47 H 0.602199 0.812859 0.99431
C48 C 1.1481(3) 0.3886(3) 0.64196(13)
H48 H 1.171877 0.3291 0.614992
loop_
_geom_bond_atom_site_label_1
_geom_bond_atom_site_label_2
_geom_bond_site_symmetry_1
_geom_bond_site_symmetry_2
S1 O1 1_555 1_555
C1 S1 1_555 1_555
H1 C1 1_555 1_555
H2 C1 1_555 1_555
H3 C1 1_555 1_555
C2 S1 1_555 1_555
H4 C2 1_555 1_555
H5 C2 1_555 1_555
H6 C2 1_555 1_555
S2 O2 1_555 1_555
C3 S2 1_555 1_555
H7 C3 1_555 1_555
H8 C3 1_555 1_555
H9 C3 1_555 1_555
C4 S2 1_555 1_555
H10 C4 1_555 1_555
H11 C4 1_555 1_555
H12 C4 1_555 1_555
S3 O3 1_555 1_555
C5 S3 1_555 1_555
H13 C5 1_555 1_555
H14 C5 1_555 1_555
H15 C5 1_555 1_555
C6 S3 1_555 1_555
H16 C6 1_555 1_555
H17 C6 1_555 1_555
H18 C6 1_555 1_555
O4 C16 1_555 1_555
O5 C18 1_555 1_555
O6 C11 1_555 1_555
N1 H19 1_555 1_555
N2 H20 1_555 1_555
N3 N2 1_555 1_555
C7 H21 1_555 1_555
C8 C7 1_555 1_555
C9 N1 1_555 1_555
C10 C11 1_555 1_555
C11 C7 1_555 1_555
C12 C9 1_555 1_555
C13 C7 1_555 1_555
C14 N1 1_555 1_555
C15 N2 1_555 1_555
C16 C12 1_555 1_555
C17 C12 1_555 1_555
H22 C17 1_555 1_555
C18 O4 1_555 1_555
C19 C17 1_555 1_555
H23 C19 1_555 1_555
C20 C10 1_555 1_555
H24 C20 1_555 1_555
C21 C10 1_555 1_555
H25 C21 1_555 1_555
C22 C19 1_555 1_555
H26 C22 1_555 1_555
C23 C16 1_555 1_555
H27 C23 1_555 1_555
C24 C15 1_555 1_555
H28 C24 1_555 1_555
H29 C24 1_555 1_555
H30 C24 1_555 1_555
C25 C20 1_555 1_555
H31 C25 1_555 1_555
C26 C25 1_555 1_555
H32 C26 1_555 1_555
C27 C21 1_555 1_555
H33 C27 1_555 1_555
O7 C29 1_555 1_555
O8 C37 1_555 1_555
O9 C37 1_555 1_555
N4 H34 1_555 1_555
N5 N6 1_555 1_555
N6 H35 1_555 1_555
C28 C29 1_555 1_555
C29 C30 1_555 1_555
C30 H36 1_555 1_555
C31 C30 1_555 1_555
C32 N4 1_555 1_555
C33 N4 1_555 1_555
C34 C30 1_555 1_555
C35 C33 1_555 1_555
C36 N6 1_555 1_555
C37 C34 1_555 1_555
C38 C28 1_555 1_555
H37 C38 1_555 1_555
C39 O8 1_555 1_555
C40 C28 1_555 1_555
H38 C40 1_555 1_555
C41 C35 1_555 1_555
H39 C41 1_555 1_555
C42 H40 1_555 1_555
C43 C36 1_555 1_555
H41 C43 1_555 1_555
H42 C43 1_555 1_555
H43 C43 1_555 1_555
C44 C39 1_555 1_555
H44 C44 1_555 1_555
C45 C38 1_555 1_555
H45 C45 1_555 1_555
C46 C44 1_555 1_555
H46 C46 1_555 1_555
C47 C40 1_555 1_555
H47 C47 1_555 1_555
C48 C41 1_555 1_555
H48 C48 1_555 1_555
N3 C14 1_555 1_555
C8 C9 1_555 1_555
C8 C18 1_555 1_555
C13 C14 1_555 1_555
C13 C15 1_555 1_555
C22 C23 1_555 1_555
C26 C27 1_555 1_555
N5 C32 1_555 1_555
C31 C32 1_555 1_555
C31 C36 1_555 1_555
C33 C34 1_555 1_555
C35 C39 1_555 1_555
C42 C45 1_555 1_555
C42 C47 1_555 1_555
C46 C48 1_555 1_555

#END
