
#######################################################################
#
#                 Cambridge Crystallographic Data Centre
#                                CCDC 
#
#######################################################################
#
# If this CIF has been generated from an entry in the Cambridge 
# Structural Database, then it will include bibliographic, chemical, 
# crystal, experimental, refinement or atomic coordinate data resulting 
# from the CCDC's data processing and validation procedures.
#
#######################################################################

data_CAZPEA
_chemical_formula_moiety         'C18 H14 N2 O2,H2 O1'
_chemical_name_systematic        
'4-((4-(Pyridin-4-yl)pyridinium-1-yl)methyl)benzoate monohydrate'
_symmetry_cell_setting           monoclinic
_symmetry_space_group_name_H-M   'P 21/c'
_symmetry_Int_Tables_number      14
_space_group_name_Hall           '-P 2ybc'
loop_
_symmetry_equiv_pos_site_id
_symmetry_equiv_pos_as_xyz
1 x,y,z
2 -x,1/2+y,1/2-z
3 -x,-y,-z
4 x,1/2-y,1/2+z
_cell_length_a                   7.338(7)
_cell_length_b                   23.989(19)
_cell_length_c                   9.246(8)
_cell_angle_alpha                90
_cell_angle_beta                 110.977(16)
_cell_angle_gamma                90
_cell_volume                     1519.72
_exptl_crystal_colour            colorless
_exptl_crystal_description       block
_cell_formula_units_Z            4
loop_
_atom_site_label
_atom_site_type_symbol
_atom_site_fract_x
_atom_site_fract_y
_atom_site_fract_z
O1 O -0.21992(17) 0.14439(5) 0.08472(14)
O3 O 0.0021(2) 0.08030(5) 0.09332(15)
N1 N 0.1230(2) 0.62786(7) -0.09469(19)
N2 N 0.45571(19) 0.35883(5) 0.18416(16)
C1 C -0.0515(3) 0.12953(7) 0.10145(16)
C2 C 0.1032(2) 0.17430(6) 0.13717(16)
C3 C 0.2828(2) 0.16463(7) 0.12537(18)
H3 H 0.3114 0.1288 0.0955
C4 C 0.4225(3) 0.20654(7) 0.15650(19)
H4 H 0.5443 0.1993 0.1457
C5 C 0.3853(2) 0.25848(7) 0.20287(19)
C6 C 0.2067(3) 0.26788(8) 0.2179(3)
H5 H 0.1803 0.3032 0.2525
C7 C 0.0673(3) 0.22678(7) 0.1834(2)
H6 H -0.0557 0.2345 0.1913
C8 C 0.5399(3) 0.30323(7) 0.2403(2)
H7 H 0.6094 0.3048 0.3538
H8 H 0.6363 0.2935 0.1920
C9 C 0.3744(3) 0.36815(7) 0.0307(2)
H9 H 0.3688 0.3388 -0.0396
C10 C 0.3002(3) 0.41889(7) -0.02502(19)
H10 H 0.2433 0.4245 -0.1337
C11 C 0.3063(2) 0.46286(6) 0.07508(16)
C12 C 0.3873(2) 0.45123(8) 0.23228(18)
H11 H 0.3908 0.4795 0.3051
C13 C 0.4621(3) 0.39994(7) 0.28386(19)
H12 H 0.5195 0.3932 0.3921
C14 C 0.2371(2) 0.51928(6) 0.01733(17)
C15 C 0.1673(3) 0.53158(7) -0.13952(19)
H13 H 0.1571 0.5030 -0.2131
C16 C 0.1131(3) 0.58501(8) -0.1884(2)
H14 H 0.0650 0.5919 -0.2968
C17 C 0.1845(3) 0.61562(8) 0.0554(2)
H15 H 0.1890 0.6449 0.1257
C18 C 0.2419(3) 0.56345(7) 0.11584(19)
H16 H 0.2846 0.5576 0.2245
O2 O 0.2559(2) 0.49008(7) 0.51171(16)
H1 H 0.1895 0.4647 0.5395
H2 H 0.1813 0.5197 0.4857
loop_
_geom_bond_atom_site_label_1
_geom_bond_atom_site_label_2
_geom_bond_site_symmetry_1
_geom_bond_site_symmetry_2
O1 C1 1_555 1_555
O2 H1 1_555 1_555
H2 O2 1_555 1_555
O3 C1 1_555 1_555
N1 C16 1_555 1_555
N2 C8 1_555 1_555
C1 C2 1_555 1_555
C2 C3 1_555 1_555
C3 H3 1_555 1_555
C4 C3 1_555 1_555
H4 C4 1_555 1_555
C5 C4 1_555 1_555
C6 C5 1_555 1_555
H5 C6 1_555 1_555
C7 C2 1_555 1_555
H6 C7 1_555 1_555
C8 C5 1_555 1_555
H7 C8 1_555 1_555
H8 C8 1_555 1_555
C9 N2 1_555 1_555
H9 C9 1_555 1_555
C10 C9 1_555 1_555
H10 C10 1_555 1_555
C11 C10 1_555 1_555
C12 C11 1_555 1_555
H11 C12 1_555 1_555
C13 N2 1_555 1_555
H12 C13 1_555 1_555
C14 C11 1_555 1_555
C15 C14 1_555 1_555
H13 C15 1_555 1_555
C16 C15 1_555 1_555
H14 C16 1_555 1_555
C17 N1 1_555 1_555
H15 C17 1_555 1_555
C18 C14 1_555 1_555
H16 C18 1_555 1_555
C6 C7 1_555 1_555
C12 C13 1_555 1_555
C17 C18 1_555 1_555

#END
