
#######################################################################
#
#                 Cambridge Crystallographic Data Centre
#                                CCDC 
#
#######################################################################
#
# If this CIF has been generated from an entry in the Cambridge 
# Structural Database, then it will include bibliographic, chemical, 
# crystal, experimental, refinement or atomic coordinate data resulting 
# from the CCDC's data processing and validation procedures.
#
#######################################################################

data_CAZPUQ
_chemical_formula_moiety         'C5 H8 N2 O2'
_chemical_name_systematic        1,4-Diazepane-2,5-dione
_symmetry_cell_setting           monoclinic
_symmetry_space_group_name_H-M   'P 21/c'
_symmetry_Int_Tables_number      14
_space_group_name_Hall           '-P 2ybc'
loop_
_symmetry_equiv_pos_site_id
_symmetry_equiv_pos_as_xyz
1 x,y,z
2 -x,1/2+y,1/2-z
3 -x,-y,-z
4 x,1/2-y,1/2+z
_cell_length_a                   9.243(3)
_cell_length_b                   7.153(2)
_cell_length_c                   8.902(3)
_cell_angle_alpha                90
_cell_angle_beta                 91.489(4)
_cell_angle_gamma                90
_cell_volume                     588.359
_exptl_crystal_colour            colorless
_exptl_crystal_description       block
_cell_formula_units_Z            4
loop_
_atom_site_label
_atom_site_type_symbol
_atom_site_fract_x
_atom_site_fract_y
_atom_site_fract_z
C1 C 0.07488(8) 0.59207(10) 0.64259(8)
C2 C 0.13001(8) 0.75826(10) 0.55510(8)
H1 H 0.1313(13) 0.8620(16) 0.6278(12)
H2 H 0.0552(12) 0.7878(16) 0.4815(12)
C3 C 0.27495(8) 0.74406(11) 0.47806(8)
H3 H 0.2696(12) 0.6497(17) 0.3960(12)
H4 H 0.2962(13) 0.8657(16) 0.4312(13)
C4 C 0.40859(8) 0.53868(10) 0.65324(8)
C5 C 0.29750(8) 0.39067(11) 0.60837(9)
H5 H 0.2936(12) 0.3756(17) 0.4994(11)
H6 H 0.3276(13) 0.2753(15) 0.6563(13)
N1 N 0.15559(7) 0.43823(9) 0.66784(7)
H7 H 0.1142(12) 0.3510(16) 0.7213(12)
N2 N 0.39474(7) 0.70300(9) 0.58270(7)
H8 H 0.4430(13) 0.7963(15) 0.6249(13)
O1 O -0.04836(6) 0.60298(8) 0.69575(7)
O2 O 0.50337(6) 0.51117(8) 0.75193(7)
loop_
_geom_bond_atom_site_label_1
_geom_bond_atom_site_label_2
_geom_bond_site_symmetry_1
_geom_bond_site_symmetry_2
C1 C2 1_555 1_555
C2 H1 1_555 1_555
H2 C2 1_555 1_555
C3 C2 1_555 1_555
H3 C3 1_555 1_555
H4 C3 1_555 1_555
C4 C5 1_555 1_555
C5 H5 1_555 1_555
H6 C5 1_555 1_555
N1 C1 1_555 1_555
H7 N1 1_555 1_555
N2 C3 1_555 1_555
H8 N2 1_555 1_555
O1 C1 1_555 1_555
O2 C4 1_555 1_555
C4 N2 1_555 1_555
C5 N1 1_555 1_555

#END
