
#######################################################################
#
#                 Cambridge Crystallographic Data Centre
#                                CCDC 
#
#######################################################################
#
# If this CIF has been generated from an entry in the Cambridge 
# Structural Database, then it will include bibliographic, chemical, 
# crystal, experimental, refinement or atomic coordinate data resulting 
# from the CCDC's data processing and validation procedures.
#
#######################################################################

data_CAZQAX
_chemical_formula_moiety         'C7 H12 N2 O2'
_chemical_name_systematic        3,3-Dimethyl-1,4-diazepane-2,5-dione
_symmetry_cell_setting           triclinic
_symmetry_space_group_name_H-M   'P -1'
_symmetry_Int_Tables_number      2
_space_group_name_Hall           '-P 1'
loop_
_symmetry_equiv_pos_site_id
_symmetry_equiv_pos_as_xyz
1 x,y,z
2 -x,-y,-z
_cell_length_a                   5.6500(16)
_cell_length_b                   7.884(2)
_cell_length_c                   9.777(3)
_cell_angle_alpha                110.051(3)
_cell_angle_beta                 90.330(4)
_cell_angle_gamma                109.728(3)
_cell_volume                     381.45
_exptl_crystal_colour            colorless
_exptl_crystal_description       block
_cell_formula_units_Z            2
loop_
_atom_site_label
_atom_site_type_symbol
_atom_site_fract_x
_atom_site_fract_y
_atom_site_fract_z
C1 C 0.00741(14) 0.72290(11) 0.89308(8)
C2 C -0.00396(15) 0.51971(11) 0.80982(8)
H1 H -0.0957 0.4725 0.7097
H2 H -0.0995 0.4335 0.8602
C3 C 0.26142(16) 0.51107(11) 0.79911(9)
H3 H 0.3709 0.5975 0.8938
H4 H 0.2510 0.3774 0.7822
C4 C 0.35796(13) 0.70209(10) 0.63192(8)
C5 C 0.26631(14) 0.86643(10) 0.71897(8)
C6 C 0.50031(15) 1.05406(11) 0.75810(9)
H5 H 0.5595 1.0697 0.6676
H6 H 0.6358 1.0471 0.8166
H7 H 0.4547 1.1649 0.8151
C7 C 0.05919(16) 0.86890(13) 0.61810(9)
H8 H 0.1246 0.8793 0.5275
H9 H 0.0096 0.9801 0.6685
H10 H -0.0889 0.7490 0.5939
N1 N 0.37813(13) 0.56825(10) 0.68126(7)
H11 H 0.445(2) 0.4926(17) 0.6213(13)
N2 N 0.17224(13) 0.86774(9) 0.85955(7)
H12 H 0.164(2) 0.9803(16) 0.9110(13)
O1 O -0.11514(12) 0.75749(9) 0.99748(7)
O2 O 0.42723(11) 0.70533(8) 0.51167(6)
loop_
_geom_bond_atom_site_label_1
_geom_bond_atom_site_label_2
_geom_bond_site_symmetry_1
_geom_bond_site_symmetry_2
C1 C2 1_555 1_555
C2 H1 1_555 1_555
H2 C2 1_555 1_555
C3 C2 1_555 1_555
H3 C3 1_555 1_555
H4 C3 1_555 1_555
C4 C5 1_555 1_555
C5 C6 1_555 1_555
C6 H5 1_555 1_555
H6 C6 1_555 1_555
H7 C6 1_555 1_555
C7 C5 1_555 1_555
H8 C7 1_555 1_555
H9 C7 1_555 1_555
H10 C7 1_555 1_555
N1 C3 1_555 1_555
H11 N1 1_555 1_555
N2 C1 1_555 1_555
H12 N2 1_555 1_555
O1 C1 1_555 1_555
O2 C4 1_555 1_555
C4 N1 1_555 1_555
C5 N2 1_555 1_555

#END
