
#######################################################################
#
#                 Cambridge Crystallographic Data Centre
#                                CCDC 
#
#######################################################################
#
# If this CIF has been generated from an entry in the Cambridge 
# Structural Database, then it will include bibliographic, chemical, 
# crystal, experimental, refinement or atomic coordinate data resulting 
# from the CCDC's data processing and validation procedures.
#
#######################################################################

data_CAZRED
_chemical_name_common            
4-[2-(p-n-butylphenyl)-1-o-carboran-1-yl]-biphenyl
_chemical_formula_moiety         'C24 H32 B10'
_chemical_name_systematic        
1-([1,1'-biphenyl]-4-yl)-2-(4-butylphenyl)-1,2-dicarba-closo-dodecaborane(10)
_symmetry_cell_setting           monoclinic
_symmetry_space_group_name_H-M   'P 21/n'
_symmetry_Int_Tables_number      14
_space_group_name_Hall           '-P 2yn'
loop_
_symmetry_equiv_pos_site_id
_symmetry_equiv_pos_as_xyz
1 x,y,z
2 1/2-x,1/2+y,1/2-z
3 -x,-y,-z
4 1/2+x,1/2-y,1/2+z
_cell_length_a                   10.5625(5)
_cell_length_b                   14.5655(6)
_cell_length_c                   17.1091(8)
_cell_angle_alpha                90
_cell_angle_beta                 98.936(3)
_cell_angle_gamma                90
_cell_volume                     2600.25
_exptl_crystal_colour            colorless
_exptl_crystal_description       Cubic
_cell_formula_units_Z            4
loop_
_atom_site_label
_atom_site_type_symbol
_atom_site_fract_x
_atom_site_fract_y
_atom_site_fract_z
C1 C 0.03150(16) 0.58732(12) 0.26684(11)
C2 C 0.13245(17) 0.57444(12) 0.35603(11)
C3 C 0.17348(18) 0.65785(13) 0.40459(11)
C4 C 0.2741(2) 0.71262(16) 0.38928(14)
H1 H 0.3184 0.6972 0.3482
C5 C 0.3091(3) 0.78941(17) 0.43409(16)
H2 H 0.3767 0.8251 0.4223
C6 C 0.2480(3) 0.81533(15) 0.49558(14)
C7 C 0.1515(3) 0.75838(17) 0.51302(15)
H3 H 0.1106 0.7723 0.5559
C8 C 0.1144(2) 0.68119(15) 0.46824(13)
H4 H 0.0486 0.6445 0.4812
C9 C -0.00645(17) 0.68362(12) 0.24042(11)
C10 C 0.0347(2) 0.72023(13) 0.17380(12)
H5 H 0.0837 0.6844 0.1448
C11 C 0.0039(2) 0.80930(13) 0.14985(12)
H6 H 0.0308 0.8317 0.1042
C12 C -0.06607(17) 0.86585(13) 0.19229(12)
C13 C -0.1093(2) 0.82778(14) 0.25787(14)
H7 H -0.1585 0.8635 0.2867
C14 C -0.0812(2) 0.73849(14) 0.28140(13)
H8 H -0.1127 0.7149 0.3251
C15 C -0.08721(18) 0.96429(13) 0.17109(13)
C16 C -0.1200(2) 0.99285(14) 0.09308(14)
H9 H -0.1330 0.9494 0.0528
C17 C -0.1336(2) 1.08538(15) 0.07475(15)
H10 H -0.1559 1.1035 0.0223
C18 C -0.1144(2) 1.15043(16) 0.13356(17)
H11 H -0.1229 1.2124 0.1208
C19 C -0.0830(3) 1.12402(16) 0.21082(18)
H12 H -0.0708 1.1680 0.2507
C20 C -0.0692(2) 1.03145(15) 0.22974(15)
H13 H -0.0475 1.0140 0.2824
C21 C 0.2808(4) 0.90326(18) 0.53992(18)
H14 H 0.3731 0.9113 0.5488
H15 H 0.2526 0.8995 0.5911
C22 C 0.2183(4) 0.9864(2) 0.4951(2)
H16 H 0.2385 0.9845 0.4417
H17 H 0.1261 0.9799 0.4911
C23 C 0.2535(6) 1.0773(3) 0.5280(3)
H18 H 0.2281 1.0815 0.5800
H19 H 0.3460 1.0834 0.5347
C24 C 0.1971(6) 1.1525(3) 0.4808(4)
H20 H 0.1332 1.1295 0.4393
H21 H 0.2624 1.1840 0.4580
H22 H 0.1581 1.1941 0.5134
B1 B 0.2343(2) 0.48421(16) 0.35009(15)
H23 H 0.3327 0.4813 0.3825
B2 B 0.0982(2) 0.47327(16) 0.39904(15)
H24 H 0.1083 0.4631 0.4634
B3 B 0.1345(3) 0.38549(17) 0.33448(16)
H25 H 0.1680 0.3174 0.3566
B4 B 0.1940(3) 0.43837(16) 0.25338(15)
H26 H 0.2663 0.4054 0.2229
B5 B 0.1915(2) 0.55833(15) 0.26789(13)
H27 H 0.2613 0.6047 0.2470
B6 B 0.0663(2) 0.50541(15) 0.20175(14)
H28 H 0.0555 0.5163 0.1374
B7 B 0.0322(3) 0.39848(16) 0.24321(16)
H29 H -0.0004 0.3388 0.2060
B8 B -0.0272(2) 0.42102(17) 0.33320(16)
H30 H -0.0988 0.3766 0.3546
B9 B -0.0270(2) 0.54109(15) 0.34717(14)
H31 H -0.0975 0.5764 0.3776
B10 B -0.0689(2) 0.49486(15) 0.25060(15)
H32 H -0.1672 0.4988 0.2182
loop_
_geom_bond_atom_site_label_1
_geom_bond_atom_site_label_2
_geom_bond_site_symmetry_1
_geom_bond_site_symmetry_2
C1 C2 1_555 1_555
C2 C3 1_555 1_555
C3 C4 1_555 1_555
C4 H1 1_555 1_555
C5 C4 1_555 1_555
H2 C5 1_555 1_555
C6 C5 1_555 1_555
C7 C6 1_555 1_555
H3 C7 1_555 1_555
C8 C3 1_555 1_555
H4 C8 1_555 1_555
C9 C1 1_555 1_555
C10 C9 1_555 1_555
H5 C10 1_555 1_555
C11 C10 1_555 1_555
H6 C11 1_555 1_555
C12 C11 1_555 1_555
C13 C12 1_555 1_555
H7 C13 1_555 1_555
C14 C9 1_555 1_555
H8 C14 1_555 1_555
C15 C12 1_555 1_555
C16 C15 1_555 1_555
H9 C16 1_555 1_555
C17 C16 1_555 1_555
H10 C17 1_555 1_555
C18 C17 1_555 1_555
H11 C18 1_555 1_555
C19 C18 1_555 1_555
H12 C19 1_555 1_555
C20 C15 1_555 1_555
H13 C20 1_555 1_555
C21 C6 1_555 1_555
H14 C21 1_555 1_555
H15 C21 1_555 1_555
C22 C21 1_555 1_555
H16 C22 1_555 1_555
H17 C22 1_555 1_555
C23 C22 1_555 1_555
H18 C23 1_555 1_555
H19 C23 1_555 1_555
C24 C23 1_555 1_555
H20 C24 1_555 1_555
H21 C24 1_555 1_555
H22 C24 1_555 1_555
B1 C2 1_555 1_555
H23 B1 1_555 1_555
B2 C2 1_555 1_555
H24 B2 1_555 1_555
B3 B1 1_555 1_555
H25 B3 1_555 1_555
B4 B1 1_555 1_555
H26 B4 1_555 1_555
B5 C1 1_555 1_555
H27 B5 1_555 1_555
B6 C1 1_555 1_555
H28 B6 1_555 1_555
B7 B3 1_555 1_555
H29 B7 1_555 1_555
B8 B2 1_555 1_555
H30 B8 1_555 1_555
B9 C1 1_555 1_555
H31 B9 1_555 1_555
B10 C1 1_555 1_555
H32 B10 1_555 1_555
C2 B5 1_555 1_555
C2 B9 1_555 1_555
C7 C8 1_555 1_555
C13 C14 1_555 1_555
C19 C20 1_555 1_555
B1 B2 1_555 1_555
B1 B5 1_555 1_555
B2 B3 1_555 1_555
B2 B9 1_555 1_555
B3 B4 1_555 1_555
B3 B8 1_555 1_555
B4 B5 1_555 1_555
B4 B6 1_555 1_555
B4 B7 1_555 1_555
B5 B6 1_555 1_555
B6 B7 1_555 1_555
B6 B10 1_555 1_555
B7 B8 1_555 1_555
B7 B10 1_555 1_555
B8 B9 1_555 1_555
B8 B10 1_555 1_555
B9 B10 1_555 1_555

#END
