
#######################################################################
#
#                 Cambridge Crystallographic Data Centre
#                                CCDC 
#
#######################################################################
#
# If this CIF has been generated from an entry in the Cambridge 
# Structural Database, then it will include bibliographic, chemical, 
# crystal, experimental, refinement or atomic coordinate data resulting 
# from the CCDC's data processing and validation procedures.
#
#######################################################################

data_CAZSEC
_chemical_formula_moiety         'C52 H64 O12,2(C2 H6 O1)'
_chemical_name_systematic        
'5,11,17,23-Tetra-t-butyl-calix(4)arene-25,26,27,28-tetrakis(oxyacetic acid) ethanol solvate'
_symmetry_cell_setting           monoclinic
_symmetry_space_group_name_H-M   'P 21/n'
_symmetry_Int_Tables_number      14
_space_group_name_Hall           '-P 2yn'
loop_
_symmetry_equiv_pos_site_id
_symmetry_equiv_pos_as_xyz
1 x,y,z
2 1/2-x,1/2+y,1/2-z
3 -x,-y,-z
4 1/2+x,1/2-y,1/2+z
_cell_length_a                   14.5678(19)
_cell_length_b                   12.3123(16)
_cell_length_c                   16.266(2)
_cell_angle_alpha                90
_cell_angle_beta                 110.806(2)
_cell_angle_gamma                90
_cell_volume                     2727.26
_exptl_crystal_colour            colorless
_exptl_crystal_description       plane
_cell_formula_units_Z            2
loop_
_atom_site_label
_atom_site_type_symbol
_atom_site_fract_x
_atom_site_fract_y
_atom_site_fract_z
O1 O 0.79217(19) 0.0757(3) -0.0995(2)
O2 O 0.92281(15) -0.06298(19) 0.18745(17)
H1 H 0.9676 -0.0267 0.1821
O3 O 0.66568(10) -0.02372(12) 0.12166(9)
O4 O 0.58596(10) 0.12090(12) -0.04313(10)
O5 O 0.83500(14) 0.08462(18) 0.13244(19)
O6 O 0.70599(16) -0.03002(18) -0.04444(15)
H2 H 0.6596 -0.0231 -0.0275
C1 C 0.52441(14) 0.20160(16) -0.03263(14)
C2 C 0.44342(15) 0.23431(17) -0.10442(14)
C3 C 0.54371(14) 0.24517(17) 0.05095(14)
C4 C 0.39864(16) 0.35961(17) -0.00860(15)
C5 C 0.38217(16) 0.31282(17) -0.09044(15)
H3 H 0.3277 0.3351 -0.1379
C6 C 0.56581(15) -0.07092(18) 0.20742(13)
C7 C 0.62744(15) 0.20413(17) 0.13035(14)
H4 H 0.6785 0.1743 0.1116
H5 H 0.6554 0.2641 0.1700
C8 C 0.59211(15) 0.11782(18) 0.17797(13)
C9 C 0.48072(16) 0.32442(18) 0.06065(15)
H6 H 0.4940 0.3553 0.1158
C10 C 0.32561(17) 0.4390(2) 0.00694(18)
C11 C 0.60907(14) 0.00799(18) 0.17073(13)
C12 C 0.42221(17) 0.19059(19) -0.19663(14)
H7 H 0.3551 0.2098 -0.2318
H8 H 0.4647 0.2285 -0.2215
C13 C 0.53539(17) 0.14867(19) 0.22729(15)
H9 H 0.5263 0.2223 0.2345
C14 C 0.50882(17) -0.0344(2) 0.25500(15)
H10 H 0.4806 -0.0857 0.2807
C15 C 0.49225(18) 0.0749(2) 0.26586(15)
C16 C 0.84125(18) -0.0063(2) 0.16022(17)
C17 C 0.75865(17) -0.0704(2) 0.16909(17)
H11 H 0.7608 -0.1435 0.1478
H12 H 0.7667 -0.0751 0.2308
C18 C 0.4272(2) 0.1124(3) 0.31679(19)
C19 C 0.66429(18) 0.1595(2) -0.06705(18)
H13 H 0.7033 0.2111 -0.0237
H14 H 0.6388 0.1958 -0.1236
C20 C 0.3754(2) 0.5177(2) 0.0803(2)
H15 H 0.4271 0.5547 0.0680
H16 H 0.4025 0.4787 0.1347
H17 H 0.3284 0.5697 0.0848
C21 C 0.2517(3) 0.3704(3) 0.0305(4)
H18 H 0.2006 0.4163 0.0354
H19 H 0.2841 0.3343 0.0855
H20 H 0.2236 0.3173 -0.0147
C22 C 0.7263(2) 0.0648(3) -0.0722(2)
C23 C 0.27275(15) 0.5067(2) -0.07522(18)
H21 H 0.2367 0.4595 -0.1227
H22 H 0.3202 0.5470 -0.0914
H23 H 0.2282 0.5562 -0.0631
C26 C 0.3745(8) 0.0332(7) 0.3403(7)
H30 H 0.3461 0.0632 0.3802
H31 H 0.4175 -0.0256 0.3684
H32 H 0.3234 0.0068 0.2887
C27 C 0.3496(6) 0.1983(9) 0.2508(6)
H33 H 0.3145 0.1631 0.1959
H34 H 0.3849 0.2595 0.2405
H35 H 0.3039 0.2225 0.2773
C28 C 0.4891(6) 0.1809(8) 0.3953(5)
H36 H 0.4491 0.2044 0.4278
H37 H 0.5142 0.2431 0.3746
H38 H 0.5428 0.1381 0.4327
O1B O 0.20783(19) -0.0757(3) 0.0995(2)
O2B O 0.07719(15) 0.06298(19) -0.18745(17)
H1B H 0.0324 0.0267 -0.1821
O3B O 0.33432(10) 0.02372(12) -0.12166(9)
O4B O 0.41404(10) -0.12090(12) 0.04313(10)
O5B O 0.16500(14) -0.08462(18) -0.13244(19)
O6B O 0.29401(16) 0.03002(18) 0.04444(15)
H2B H 0.3404 0.0231 0.0275
C1B C 0.47559(14) -0.20160(16) 0.03263(14)
C2B C 0.55658(15) -0.23431(17) 0.10442(14)
C3B C 0.45629(14) -0.24517(17) -0.05095(14)
C4B C 0.60136(16) -0.35961(17) 0.00860(15)
C5B C 0.61783(16) -0.31282(17) 0.09044(15)
H3B H 0.6723 -0.3351 0.1379
C6B C 0.43419(15) 0.07092(18) -0.20742(13)
C7B C 0.37256(15) -0.20413(17) -0.13035(14)
H4B H 0.3215 -0.1743 -0.1116
H5B H 0.3446 -0.2641 -0.1700
C8B C 0.40789(15) -0.11782(18) -0.17797(13)
C9B C 0.51928(16) -0.32442(18) -0.06065(15)
H6B H 0.5060 -0.3553 -0.1158
C10B C 0.67439(17) -0.4390(2) -0.00694(18)
C11B C 0.39093(14) -0.00799(18) -0.17073(13)
C12B C 0.57779(17) -0.19059(19) 0.19663(14)
H7B H 0.6449 -0.2098 0.2318
H8B H 0.5353 -0.2285 0.2215
C13B C 0.46461(17) -0.14867(19) -0.22729(15)
H9B H 0.4737 -0.2223 -0.2345
C14B C 0.49118(17) 0.0344(2) -0.25500(15)
H10B H 0.5194 0.0857 -0.2807
C15B C 0.50775(18) -0.0749(2) -0.26586(15)
C16B C 0.15875(18) 0.0063(2) -0.16022(17)
C17B C 0.24135(17) 0.0704(2) -0.16909(17)
H11B H 0.2392 0.1435 -0.1478
H12B H 0.2333 0.0751 -0.2308
C18B C 0.5728(2) -0.1124(3) -0.31679(19)
C19B C 0.33571(18) -0.1595(2) 0.06705(18)
H13B H 0.2967 -0.2111 0.0237
H14B H 0.3612 -0.1958 0.1236
C20B C 0.6246(2) -0.5177(2) -0.0803(2)
H15B H 0.5729 -0.5547 -0.0680
H16B H 0.5975 -0.4787 -0.1347
H17B H 0.6716 -0.5697 -0.0848
C21B C 0.7483(3) -0.3704(3) -0.0305(4)
H18B H 0.7994 -0.4163 -0.0354
H19B H 0.7159 -0.3343 -0.0855
H20B H 0.7764 -0.3173 0.0147
C22B C 0.2737(2) -0.0648(3) 0.0722(2)
C23B C 0.72725(15) -0.5067(2) 0.07522(18)
H21B H 0.7633 -0.4595 0.1227
H22B H 0.6798 -0.5470 0.0914
H23B H 0.7718 -0.5562 0.0631
C26B C 0.6255(8) -0.0332(7) -0.3403(7)
H30B H 0.6539 -0.0632 -0.3802
H31B H 0.5825 0.0256 -0.3684
H32B H 0.6766 -0.0068 -0.2887
C27B C 0.6504(6) -0.1983(9) -0.2508(6)
H33B H 0.6855 -0.1631 -0.1959
H34B H 0.6151 -0.2595 -0.2405
H35B H 0.6961 -0.2225 -0.2773
C28B C 0.5109(6) -0.1809(8) -0.3953(5)
H36B H 0.5509 -0.2044 -0.4278
H37B H 0.4858 -0.2431 -0.3746
H38B H 0.4572 -0.1381 -0.4327
O7 O 0.06768(14) 0.0249(2) 0.15312(17)
H24 H 0.1018 0.0126 0.1235
C24 C 0.05961(15) 0.2163(2) 0.11562(17)
H25 H 0.0042 0.1954 0.0651
H26 H 0.1154 0.2285 0.0984
H27 H 0.0444 0.2819 0.1401
C25 C 0.0828(7) 0.1274(4) 0.1833(4)
H28 H 0.1512 0.1343 0.2208
H29 H 0.0437 0.1394 0.2199
O8? O 0.05961(15) 0.2163(2) 0.11562(17)
H39? H 0.0458 0.2608 0.0755
C29? C 0.06768(14) 0.0249(2) 0.15312(17)
H40? H 0.0858 0.0578 0.2102
H41? H 0.1211 -0.0188 0.1503
H42? H 0.0108 -0.0200 0.1430
C30? C 0.0439(5) 0.1151(4) 0.0816(4)
H43? H 0.0842 0.1040 0.0460
H44? H -0.0243 0.1085 0.0435
C31? C 0.4665(6) 0.0507(8) 0.4108(5)
H45? H 0.4291 0.0740 0.4457
H46? H 0.5346 0.0678 0.4409
H47? H 0.4592 -0.0263 0.4016
C32? C 0.3275(7) 0.0522(12) 0.2779(9)
H48? H 0.3390 -0.0233 0.2706
H49? H 0.2899 0.0832 0.2219
H50? H 0.2918 0.0596 0.3172
C33? C 0.4187(17) 0.2238(7) 0.3254(15)
H51? H 0.3934 0.2566 0.2682
H52? H 0.4820 0.2539 0.3579
H53? H 0.3746 0.2381 0.3562
loop_
_geom_bond_atom_site_label_1
_geom_bond_atom_site_label_2
_geom_bond_site_symmetry_1
_geom_bond_site_symmetry_2
O1 C22 1_555 1_555
O2 H1 1_555 1_555
O3 C11 1_555 1_555
O4 C1 1_555 1_555
O5 C16 1_555 1_555
O6 H2 1_555 1_555
C1 C2 1_555 1_555
C2 C5 1_555 1_555
C3 C1 1_555 1_555
C4 C5 1_555 1_555
C5 H3 1_555 1_555
C6 C11 1_555 1_555
C7 C3 1_555 1_555
H4 C7 1_555 1_555
H5 C7 1_555 1_555
C8 C7 1_555 1_555
C9 C3 1_555 1_555
H6 C9 1_555 1_555
C10 C4 1_555 1_555
C11 C8 1_555 1_555
C12 C2 1_555 1_555
H7 C12 1_555 1_555
H8 C12 1_555 1_555
C13 C8 1_555 1_555
H9 C13 1_555 1_555
C14 C6 1_555 1_555
H10 C14 1_555 1_555
C15 C13 1_555 1_555
C16 O2 1_555 1_555
C17 O3 1_555 1_555
H11 C17 1_555 1_555
H12 C17 1_555 1_555
C18 C15 1_555 1_555
C19 O4 1_555 1_555
H13 C19 1_555 1_555
H14 C19 1_555 1_555
C20 C10 1_555 1_555
H15 C20 1_555 1_555
H16 C20 1_555 1_555
H17 C20 1_555 1_555
C21 C10 1_555 1_555
H18 C21 1_555 1_555
H19 C21 1_555 1_555
H20 C21 1_555 1_555
C22 O6 1_555 1_555
C23 C10 1_555 1_555
H21 C23 1_555 1_555
H22 C23 1_555 1_555
H23 C23 1_555 1_555
O7 H24 1_555 1_555
C24 H25 1_555 1_555
H26 C24 1_555 1_555
H27 C24 1_555 1_555
C25 O7 1_555 1_555
H28 C25 1_555 1_555
H29 C25 1_555 1_555
C26 C18 1_555 1_555
H30 C26 1_555 1_555
H31 C26 1_555 1_555
H32 C26 1_555 1_555
C27 C18 1_555 1_555
H33 C27 1_555 1_555
H34 C27 1_555 1_555
H35 C27 1_555 1_555
C28 C18 1_555 1_555
H36 C28 1_555 1_555
H37 C28 1_555 1_555
H38 C28 1_555 1_555
O1B C22B 1_555 1_555
O2B H1B 1_555 1_555
O3B C11B 1_555 1_555
O4B C1B 1_555 1_555
O5B C16B 1_555 1_555
O6B H2B 1_555 1_555
C1B C2B 1_555 1_555
C2B C5B 1_555 1_555
C3B C1B 1_555 1_555
C4B C5B 1_555 1_555
C5B H3B 1_555 1_555
C6B C12 1_555 1_555
C7B C3B 1_555 1_555
H4B C7B 1_555 1_555
H5B C7B 1_555 1_555
C8B C7B 1_555 1_555
C9B C3B 1_555 1_555
H6B C9B 1_555 1_555
C10B C4B 1_555 1_555
C11B C6B 1_555 1_555
C12B C6 1_555 1_555
H7B C12B 1_555 1_555
H8B C12B 1_555 1_555
C13B C8B 1_555 1_555
H9B C13B 1_555 1_555
C14B C6B 1_555 1_555
H10B C14B 1_555 1_555
C15B C13B 1_555 1_555
C16B O2B 1_555 1_555
C17B O3B 1_555 1_555
H11B C17B 1_555 1_555
H12B C17B 1_555 1_555
C18B C15B 1_555 1_555
C19B O4B 1_555 1_555
H13B C19B 1_555 1_555
H14B C19B 1_555 1_555
C20B C10B 1_555 1_555
H15B C20B 1_555 1_555
H16B C20B 1_555 1_555
H17B C20B 1_555 1_555
C21B C10B 1_555 1_555
H18B C21B 1_555 1_555
H19B C21B 1_555 1_555
H20B C21B 1_555 1_555
C22B O6B 1_555 1_555
C23B C10B 1_555 1_555
H21B C23B 1_555 1_555
H22B C23B 1_555 1_555
H23B C23B 1_555 1_555
C26B C18B 1_555 1_555
H30B C26B 1_555 1_555
H31B C26B 1_555 1_555
H32B C26B 1_555 1_555
C27B C18B 1_555 1_555
H33B C27B 1_555 1_555
H34B C27B 1_555 1_555
H35B C27B 1_555 1_555
C28B C18B 1_555 1_555
H36B C28B 1_555 1_555
H37B C28B 1_555 1_555
H38B C28B 1_555 1_555
C4 C9 1_555 1_555
C14 C15 1_555 1_555
C16 C17 1_555 1_555
C19 C22 1_555 1_555
C24 C25 1_555 1_555
C2B C12B 1_555 1_555
C4B C9B 1_555 1_555
C8B C11B 1_555 1_555
C14B C15B 1_555 1_555
C16B C17B 1_555 1_555
C19B C22B 1_555 1_555

#END
