
#######################################################################
#
#                 Cambridge Crystallographic Data Centre
#                                CCDC 
#
#######################################################################
#
# If this CIF has been generated from an entry in the Cambridge 
# Structural Database, then it will include bibliographic, chemical, 
# crystal, experimental, refinement or atomic coordinate data resulting 
# from the CCDC's data processing and validation procedures.
#
#######################################################################

data_CBITAZ
_chemical_formula_moiety         'C7 H4 Cl1 N1 S1'
_chemical_name_systematic        5-Chloro-2,1-benzisothiazole
_symmetry_cell_setting           orthorhombic
_symmetry_space_group_name_H-M   'P 21 21 21'
_symmetry_Int_Tables_number      19
_space_group_name_Hall           'P 2ac 2ab'
loop_
_symmetry_equiv_pos_site_id
_symmetry_equiv_pos_as_xyz
1 x,y,z
2 1/2+x,1/2-y,-z
3 -x,1/2+y,1/2-z
4 1/2-x,-y,1/2+z
_cell_length_a                   3.926(2)
_cell_length_b                   9.928(2)
_cell_length_c                   18.204(4)
_cell_angle_alpha                90
_cell_angle_beta                 90
_cell_angle_gamma                90
_cell_volume                     709.543
_chemical_melting_point          72deg.C
_cell_formula_units_Z            4
loop_
_atom_site_label
_atom_site_type_symbol
_atom_site_fract_x
_atom_site_fract_y
_atom_site_fract_z
Cl1 Cl -0.09400 0.03170 -0.57950
C1 C -0.00740 0.19740 -0.30880
C2 C 0.03280 0.10930 -0.36660
C3 C -0.05650 0.12360 -0.44190
C4 C 0.01720 0.02000 -0.48700
C5 C 0.17750 -0.09890 -0.46250
C6 C 0.25140 -0.11530 -0.39170
C7 C 0.19020 -0.01070 -0.34130
H1 H -0.11080 0.26690 -0.31320
H2 H -0.17060 0.20550 -0.45590
H3 H 0.20610 -0.17580 -0.49730
H4 H 0.38670 -0.18760 -0.37580
N1 N 0.27250 -0.01460 -0.26880
S1 S 0.14410 0.12720 -0.23250
loop_
_geom_bond_atom_site_label_1
_geom_bond_atom_site_label_2
_geom_bond_site_symmetry_1
_geom_bond_site_symmetry_2
Cl1 C4 1_555 1_555
C1 C2 1_555 1_555
C2 C3 1_555 1_555
C3 C4 1_555 1_555
C4 C5 1_555 1_555
C5 C6 1_555 1_555
C6 C7 1_555 1_555
C7 C2 1_555 1_555
H1 C1 1_555 1_555
H2 C3 1_555 1_555
H3 C5 1_555 1_555
H4 C6 1_555 1_555
N1 C7 1_555 1_555
S1 C1 1_555 1_555
N1 S1 1_555 1_555

#END
