
#######################################################################
#
#                 Cambridge Crystallographic Data Centre
#                                CCDC 
#
#######################################################################
#
# If this CIF has been generated from an entry in the Cambridge 
# Structural Database, then it will include bibliographic, chemical, 
# crystal, experimental, refinement or atomic coordinate data resulting 
# from the CCDC's data processing and validation procedures.
#
#######################################################################

data_CBMZPN30
_chemical_name_common            carbamazepine
_chemical_formula_moiety         'C15 H12 N2 O1'
_chemical_name_systematic        5H-dibenzo[b,f]azepine-5-carboxamide
_chemical_properties_biological  
'analgesic, antiepileptic, anticonvulsant, bipolar disorder treatment, trigeminal neuralgia treatment, known auditory pitch lowering effect'
_symmetry_cell_setting           monoclinic
_symmetry_space_group_name_H-M   'P 21/n'
_symmetry_Int_Tables_number      14
_space_group_name_Hall           '-P 2yn'
loop_
_symmetry_equiv_pos_site_id
_symmetry_equiv_pos_as_xyz
1 x,y,z
2 1/2-x,1/2+y,1/2-z
3 -x,-y,-z
4 1/2+x,1/2-y,1/2+z
_cell_length_a                   7.680
_cell_length_b                   11.440
_cell_length_c                   13.920
_cell_angle_alpha                90
_cell_angle_beta                 91.220
_cell_angle_gamma                90
_cell_volume                     1222.72
_exptl_crystal_description       nanocrystal
_cell_formula_units_Z            4
loop_
_atom_site_label
_atom_site_type_symbol
_atom_site_fract_x
_atom_site_fract_y
_atom_site_fract_z
C1 C 0.829(3) 0.330(1) 0.147(1)
C2 C 0.641(3) 0.308(1) 0.001(1)
N1 N 0.774(3) 0.265(1) 0.059(1)
N2 N 0.817(3) 0.100(1) -0.041(1)
H1 H 0.7259 0.1341 -0.0710
H2 H 0.8614 0.0332 -0.0638
O1 O 1.011(3) 0.123(1) 0.088(1)
C3 C 0.695(3) 0.322(1) 0.219(1)
C4 C 1.025(3) 0.448(1) 0.254(1)
H3 H 1.1200 0.4977 0.2595
C5 C 1.006(3) 0.383(1) 0.169(1)
H4 H 1.0982 0.3728 0.1274
C6 C 0.889(4) 0.152(1) 0.040(1)
C7 C 0.478(3) 0.299(1) 0.026(1)
C8 C 0.730(4) 0.392(1) 0.307(1)
H5 H 0.6411 0.4039 0.3505
C9 C 0.527(3) 0.270(1) 0.201(1)
H6 H 0.4760 0.2395 0.2553
C10 C 0.439(3) 0.260(1) 0.124(1)
H7 H 0.3327 0.2208 0.1284
C11 C 0.550(4) 0.402(1) -0.147(2)
H8 H 0.5839 0.4426 -0.2016
C12 C 0.345(4) 0.336(1) -0.040(2)
H9 H 0.2322 0.3294 -0.0176
C13 C 0.917(4) 0.447(1) 0.331(2)
H10 H 0.9466 0.4758 0.3918
C14 C 0.722(4) 0.366(1) -0.086(2)
H11 H 0.8379 0.3791 -0.1007
C15 C 0.364(6) 0.395(2) -0.149(2)
H12 H 0.2823 0.4141 -0.1975
loop_
_geom_bond_atom_site_label_1
_geom_bond_atom_site_label_2
_geom_bond_site_symmetry_1
_geom_bond_site_symmetry_2
C1 N1 1_555 1_555
C2 N1 1_555 1_555
N1 C6 1_555 1_555
N2 H1 1_555 1_555
H2 N2 1_555 1_555
O1 C6 1_555 1_555
C3 C1 1_555 1_555
C4 H3 1_555 1_555
C5 C1 1_555 1_555
H4 C5 1_555 1_555
C6 N2 1_555 1_555
C7 C2 1_555 1_555
C8 C3 1_555 1_555
H5 C8 1_555 1_555
C9 C3 1_555 1_555
H6 C9 1_555 1_555
C10 C7 1_555 1_555
H7 C10 1_555 1_555
C11 H8 1_555 1_555
C12 C7 1_555 1_555
H9 C12 1_555 1_555
C13 C4 1_555 1_555
H10 C13 1_555 1_555
C14 C2 1_555 1_555
H11 C14 1_555 1_555
C15 C11 1_555 1_555
H12 C15 1_555 1_555
C4 C5 1_555 1_555
C8 C13 1_555 1_555
C9 C10 1_555 1_555
C11 C14 1_555 1_555
C12 C15 1_555 1_555

#END
