
#######################################################################
#
#                 Cambridge Crystallographic Data Centre
#                                CCDC 
#
#######################################################################
#
# If this CIF has been generated from an entry in the Cambridge 
# Structural Database, then it will include bibliographic, chemical, 
# crystal, experimental, refinement or atomic coordinate data resulting 
# from the CCDC's data processing and validation procedures.
#
#######################################################################

data_CBMZPN20
_chemical_name_common            carbamazepine
_chemical_formula_moiety         'C15 H12 N2 O1'
_chemical_name_systematic        5H-dibenzo[b,f]azepine-5-carboxamide
_chemical_properties_biological  
'Used for the treatment of epilepsy, seizure disorders and neuropathic pain.'
_symmetry_cell_setting           monoclinic
_symmetry_space_group_name_H-M   'P 21'
_symmetry_Int_Tables_number      4
_space_group_name_Hall           'P 2yn'
loop_
_symmetry_equiv_pos_site_id
_symmetry_equiv_pos_as_xyz
1 x,y,z
2 1/2-x,1/2+y,1/2-z
_cell_length_a                   7.5420(10)
_cell_length_b                   11.1550(10)
_cell_length_c                   13.9190(10)
_cell_angle_alpha                90
_cell_angle_beta                 92.885(3)
_cell_angle_gamma                90
_cell_volume                     1169.54
_cell_formula_units_Z            4
loop_
_atom_site_label
_atom_site_type_symbol
_atom_site_fract_x
_atom_site_fract_y
_atom_site_fract_z
O1 O 0.0061(3) 0.3210(3) 0.0934(2)
H1 H 0.128(5) -0.036(4) 0.282(3)
N1 N -0.2046(3) 0.1779(3) 0.0607(2)
H2 H -0.352(5) 0.046(4) 0.354(3)
N2 N -0.1797(4) 0.3439(3) -0.0384(3)
H3 H -0.518(5) 0.221(5) 0.259(4)
H4 H -0.705(6) 0.212(5) 0.119(4)
H5 H -0.787(4) 0.127(4) -0.020(3)
H6 H -0.699(5) 0.030(4) -0.182(3)
C1 C -0.1039(6) -0.0014(4) 0.3243(3)
C2 C 0.0228(6) -0.0010(5) 0.2552(3)
H7 H -0.117(5) 0.408(5) -0.059(3)
C3 C -0.0096(4) 0.0567(4) 0.1678(3)
C4 C -0.2610(5) 0.0562(4) 0.3047(3)
H8 H -0.178(6) 0.066(6) -0.099(4)
C5 C -0.3001(4) 0.1167(3) 0.2176(3)
H9 H -0.249(3) 0.304(3) -0.078(2)
C6 C -0.1706(4) 0.1176(3) 0.1501(3)
H10 H 0.080(4) 0.047(3) 0.116(2)
C7 C -0.4731(5) 0.1741(4) 0.2023(4)
H11 H -0.405(4) -0.001(4) -0.211(3)
C8 C -0.5689(5) 0.1854(4) 0.1197(4)
H12 H -0.074(5) -0.052(5) 0.384(4)
C9 C -0.5224(4) 0.1429(4) 0.0264(3)
C10 C -0.3468(4) 0.1329(4) -0.0012(3)
C11 C -0.3069(5) 0.0820(4) -0.0887(3)
C12 C -0.4445(7) 0.0462(4) -0.1540(3)
C13 C -0.6177(6) 0.0574(4) -0.1291(3)
C14 C -0.6558(5) 0.1047(4) -0.0414(4)
C15 C -0.1187(3) 0.2841(3) 0.0407(3)
N3 N 0.2053(3) 0.7084(3) -0.0611(2)
C16 C 0.2619(5) 0.8302(4) -0.3067(3)
O2 O -0.0054(3) 0.5656(3) -0.0934(2)
C17 C 0.1011(6) 0.8900(4) -0.3224(3)
C18 C -0.0243(6) 0.8889(5) -0.2547(3)
N4 N 0.1794(5) 0.5447(4) 0.0385(3)
C19 C 0.0108(4) 0.8288(4) -0.1686(3)
C20 C 0.1693(4) 0.7704(3) -0.1503(3)
C21 C 0.3004(4) 0.7704(4) -0.2191(3)
C22 C 0.4740(5) 0.7123(4) -0.2035(3)
H13 H -0.151(4) 0.930(4) -0.259(3)
C23 C 0.5693(5) 0.6986(4) -0.1191(3)
H14 H 0.351(5) 0.822(4) -0.353(3)
C24 C 0.5217(4) 0.7453(3) -0.0254(3)
H15 H 0.533(4) 0.698(3) -0.263(2)
C25 C 0.3456(4) 0.7553(4) 0.0018(3)
H16 H 0.680(4) 0.662(3) -0.121(3)
C26 C 0.3075(5) 0.8045(5) 0.0900(4)
H17 H 0.781(5) 0.786(5) 0.030(4)
C27 C 0.4425(7) 0.8414(5) 0.1529(4)
H18 H 0.728(5) 0.850(4) 0.171(3)
C28 C 0.6184(6) 0.8297(5) 0.1285(3)
H19 H 0.186(4) 0.807(4) 0.109(3)
C29 C 0.6568(5) 0.7829(4) 0.0405(3)
H20 H 0.293(4) 0.558(2) 0.067(2)
H21 H 0.138(5) 0.476(5) 0.051(3)
H22 H -0.080(4) 0.814(3) -0.123(3)
H23 H 0.084(6) 0.923(5) -0.391(4)
H24 H 0.428(5) 0.855(4) 0.218(3)
C30 C 0.1185(4) 0.6031(3) -0.0414(3)
loop_
_geom_bond_atom_site_label_1
_geom_bond_atom_site_label_2
_geom_bond_site_symmetry_1
_geom_bond_site_symmetry_2
O1 C15 1_555 1_555
H1 C2 1_555 1_555
N1 C6 1_555 1_555
H2 C4 1_555 1_555
N2 H7 1_555 1_555
H3 C7 1_555 1_555
H4 C8 1_555 1_555
H5 C14 1_555 1_555
H6 C13 1_555 1_555
C1 C2 1_555 1_555
C2 C3 1_555 1_555
C3 C6 1_555 1_555
C4 C1 1_555 1_555
H8 C11 1_555 1_555
C5 C4 1_555 1_555
H9 N2 1_555 1_555
C6 C5 1_555 1_555
H10 C3 1_555 1_555
C7 C5 1_555 1_555
H11 C12 1_555 1_555
C8 C7 1_555 1_555
H12 C1 1_555 1_555
C9 C8 1_555 1_555
C10 N1 1_555 1_555
C11 C10 1_555 1_555
C12 C11 1_555 1_555
C13 C12 1_555 1_555
C14 C9 1_555 1_555
C15 N1 1_555 1_555
N3 C20 1_555 1_555
C16 C17 1_555 1_555
O2 C30 1_555 1_555
C17 C18 1_555 1_555
C18 C19 1_555 1_555
N4 H20 1_555 1_555
C19 C20 1_555 1_555
C20 C21 1_555 1_555
C21 C16 1_555 1_555
C22 C21 1_555 1_555
H13 C18 1_555 1_555
C23 C22 1_555 1_555
H14 C16 1_555 1_555
C24 C23 1_555 1_555
H15 C22 1_555 1_555
C25 N3 1_555 1_555
H16 C23 1_555 1_555
C26 C25 1_555 1_555
H17 C29 1_555 1_555
C27 C26 1_555 1_555
H18 C28 1_555 1_555
C28 C27 1_555 1_555
H19 C26 1_555 1_555
C29 C24 1_555 1_555
H21 N4 1_555 1_555
H22 C19 1_555 1_555
H23 C17 1_555 1_555
H24 C27 1_555 1_555
C30 N3 1_555 1_555
N2 C15 1_555 1_555
C9 C10 1_555 1_555
C13 C14 1_555 1_555
N4 C30 1_555 1_555
C24 C25 1_555 1_555
C28 C29 1_555 1_555

#END
