
#######################################################################
#
#                 Cambridge Crystallographic Data Centre
#                                CCDC 
#
#######################################################################
#
# If this CIF has been generated from an entry in the Cambridge 
# Structural Database, then it will include bibliographic, chemical, 
# crystal, experimental, refinement or atomic coordinate data resulting 
# from the CCDC's data processing and validation procedures.
#
#######################################################################

data_CDACNA
_chemical_formula_moiety         'C13 H12 O2'
_chemical_name_systematic        'cis-2a,5-Dihydro-5-acenaphthoic acid'
_symmetry_cell_setting           triclinic
_symmetry_space_group_name_H-M   'P -1'
_symmetry_Int_Tables_number      2
_space_group_name_Hall           '-P 1'
loop_
_symmetry_equiv_pos_site_id
_symmetry_equiv_pos_as_xyz
1 x,y,z
2 -x,-y,-z
_cell_length_a                   8.446(4)
_cell_length_b                   8.534(4)
_cell_length_c                   8.940(3)
_cell_angle_alpha                122.95(4)
_cell_angle_beta                 107.48(3)
_cell_angle_gamma                70.32(3)
_cell_volume                     503.51
_cell_formula_units_Z            2
loop_
_atom_site_label
_atom_site_type_symbol
_atom_site_fract_x
_atom_site_fract_y
_atom_site_fract_z
C1 C -0.03020 -0.40350 0.35820
C2 C -0.21060 -0.42430 0.33090
C3 C -0.26610 -0.56130 0.13500
C4 C -0.15990 -0.70910 0.02950
C5 C 0.02650 -0.74700 0.09700
C6 C 0.15720 -0.83020 -0.03060
C7 C 0.31620 -0.75330 0.09390
C8 C 0.24140 -0.56420 0.24540
C9 C 0.30810 -0.40450 0.37310
C10 C 0.20420 -0.24440 0.49170
C11 C 0.03630 -0.24160 0.48420
C12 C 0.07640 -0.56230 0.24370
C13 C -0.33490 -0.23410 0.40150
O1 O -0.32950 -0.13860 0.57440
O2 O -0.43540 -0.17660 0.29990
H1 H -0.20900 -0.47900 0.40400
H2 H -0.39100 -0.53600 0.09000
H3 H -0.20400 -0.79300 -0.09500
H4 H 0.05200 -0.83600 0.14700
H5 H 0.10800 -0.77200 -0.11100
H6 H 0.19000 -0.98100 -0.09700
H7 H 0.39200 -0.84200 0.14000
H8 H 0.37300 -0.73200 0.02900
H9 H 0.42600 -0.40400 0.38100
H10 H 0.24800 -0.12800 0.58000
H11 H -0.03200 -0.12500 0.57300
H12 H -0.43100 -0.01300 0.61900
loop_
_geom_bond_atom_site_label_1
_geom_bond_atom_site_label_2
_geom_bond_site_symmetry_1
_geom_bond_site_symmetry_2
C1 C2 1_555 1_555
C2 C3 1_555 1_555
C3 C4 1_555 1_555
C4 C5 1_555 1_555
C5 C6 1_555 1_555
C6 C7 1_555 1_555
C7 C8 1_555 1_555
C8 C9 1_555 1_555
C9 C10 1_555 1_555
C10 C11 1_555 1_555
C11 C1 1_555 1_555
C12 C1 1_555 1_555
C13 C2 1_555 1_555
O1 C13 1_555 1_555
O2 C13 1_555 1_555
H1 C2 1_555 1_555
H2 C3 1_555 1_555
H3 C4 1_555 1_555
H4 C5 1_555 1_555
H5 C6 1_555 1_555
H6 C6 1_555 1_555
H7 C7 1_555 1_555
H8 C7 1_555 1_555
H9 C9 1_555 1_555
H10 C10 1_555 1_555
H11 C11 1_555 1_555
H12 O1 1_555 1_555
C5 C12 1_555 1_555
C8 C12 1_555 1_555

#END
