
#######################################################################
#
#                 Cambridge Crystallographic Data Centre
#                                CCDC 
#
#######################################################################
#
# If this CIF has been generated from an entry in the Cambridge 
# Structural Database, then it will include bibliographic, chemical, 
# crystal, experimental, refinement or atomic coordinate data resulting 
# from the CCDC's data processing and validation procedures.
#
#######################################################################

data_CDPAZP
_chemical_formula_moiety         'C21 H18 N2'
_chemical_name_systematic        cis-1,3-Diphenyl-2-phenylazo-propene
_symmetry_cell_setting           monoclinic
_symmetry_space_group_name_H-M   'P 21'
_symmetry_Int_Tables_number      4
_space_group_name_Hall           'P 2yb'
loop_
_symmetry_equiv_pos_site_id
_symmetry_equiv_pos_as_xyz
1 x,y,z
2 -x,1/2+y,-z
_cell_length_a                   12.33
_cell_length_b                   8.03
_cell_length_c                   8.45
_cell_angle_alpha                90
_cell_angle_beta                 92.10
_cell_angle_gamma                90
_cell_volume                     836.072
_chemical_melting_point          96-7deg.C
_cell_formula_units_Z            2
loop_
_atom_site_label
_atom_site_type_symbol
_atom_site_fract_x
_atom_site_fract_y
_atom_site_fract_z
C1 C -0.12190 -0.17740 -0.13180
C2 C -0.11690 -0.03240 -0.04690
C3 C -0.40020 0.66980 0.27740
C4 C -0.33110 0.74910 0.39530
C5 C -0.35680 0.91030 0.45200
C6 C -0.45940 0.99060 0.40260
C7 C -0.52640 0.90670 0.28810
C8 C -0.49890 0.74970 0.23240
C9 C -0.13580 0.43030 0.42130
C10 C -0.20690 0.33630 0.50980
C11 C -0.17430 0.29230 0.66810
C12 C -0.07430 0.34680 0.73260
C13 C -0.00810 0.44080 0.64260
C14 C -0.03550 0.48600 0.48720
C15 C -0.27930 0.42490 0.18950
C16 C -0.37500 0.50370 0.20520
C17 C -0.16580 0.48670 0.24780
C18 C -0.21360 0.02970 0.01670
C19 C -0.31430 -0.04840 -0.00930
C20 C -0.31780 -0.20310 -0.09620
C21 C -0.22180 -0.26110 -0.16050
N1 N -0.20210 0.19300 0.09560
N2 N -0.28990 0.26910 0.11360
loop_
_geom_bond_atom_site_label_1
_geom_bond_atom_site_label_2
_geom_bond_site_symmetry_1
_geom_bond_site_symmetry_2
C1 C2 1_555 1_555
C2 C18 1_555 1_555
C3 C4 1_555 1_555
C4 C5 1_555 1_555
C5 C6 1_555 1_555
C6 C7 1_555 1_555
C7 C8 1_555 1_555
C8 C3 1_555 1_555
C9 C10 1_555 1_555
C10 C11 1_555 1_555
C11 C12 1_555 1_555
C12 C13 1_555 1_555
C13 C14 1_555 1_555
C14 C9 1_555 1_555
C15 C16 1_555 1_555
C16 C3 1_555 1_555
C17 C9 1_555 1_555
C18 C19 1_555 1_555
C19 C20 1_555 1_555
C20 C21 1_555 1_555
C21 C1 1_555 1_555
N1 C18 1_555 1_555
N2 C15 1_555 1_555
C15 C17 1_555 1_555
N1 N2 1_555 1_555

#END
