
#######################################################################
#
#                 Cambridge Crystallographic Data Centre
#                                CCDC 
#
#######################################################################
#
# If this CIF has been generated from an entry in the Cambridge 
# Structural Database, then it will include bibliographic, chemical, 
# crystal, experimental, refinement or atomic coordinate data resulting 
# from the CCDC's data processing and validation procedures.
#
#######################################################################

data_CEBKOL
_chemical_formula_moiety         'C21 H16'
_chemical_name_systematic        1-(4-Methylphenyl)phenanthrene
_symmetry_cell_setting           orthorhombic
_symmetry_space_group_name_H-M   'P b c a'
_symmetry_Int_Tables_number      61
_space_group_name_Hall           '-P 2ac 2ab'
loop_
_symmetry_equiv_pos_site_id
_symmetry_equiv_pos_as_xyz
1 x,y,z
2 1/2-x,-y,1/2+z
3 -x,1/2+y,1/2-z
4 1/2+x,1/2-y,-z
5 -x,-y,-z
6 1/2+x,y,1/2-z
7 x,1/2-y,1/2+z
8 1/2-x,1/2+y,z
_cell_length_a                   8.4461(17)
_cell_length_b                   14.328(3)
_cell_length_c                   24.929(5)
_cell_angle_alpha                90
_cell_angle_beta                 90
_cell_angle_gamma                90
_cell_volume                     3016.8
_exptl_crystal_colour            colorless
_exptl_crystal_description       needle
_chemical_melting_point          83.5-84.3deg.C
_cell_formula_units_Z            8
loop_
_atom_site_label
_atom_site_type_symbol
_atom_site_fract_x
_atom_site_fract_y
_atom_site_fract_z
C1 C -0.1869(2) 0.35322(14) 0.35109(8)
C2 C -0.3004(3) 0.28227(19) 0.34797(10)
H1 H -0.3946 0.2884 0.3670
C3 C -0.2762(4) 0.20481(19) 0.31785(11)
H2 H -0.3528 0.1582 0.3167
C4 C -0.1382(3) 0.19507(16) 0.28885(11)
H3 H -0.1225 0.1423 0.2678
C5 C -0.0235(3) 0.26323(14) 0.29094(8)
H4 H 0.0689 0.2559 0.2711
C6 C -0.0437(2) 0.34375(13) 0.32254(7)
C7 C 0.0775(2) 0.41528(12) 0.32792(7)
C8 C 0.2211(2) 0.41080(14) 0.29938(8)
H5 H 0.2375 0.3629 0.2748
C9 C 0.3360(2) 0.47587(16) 0.30741(9)
H6 H 0.4300 0.4722 0.2881
C10 C 0.3149(2) 0.54752(14) 0.34401(8)
H7 H 0.3959 0.5905 0.3493
C11 C 0.1762(2) 0.55631(12) 0.37274(7)
C12 C 0.0532(2) 0.49052(12) 0.36377(7)
C13 C -0.0992(2) 0.49924(14) 0.38897(8)
H8 H -0.1201 0.5511 0.4102
C14 C -0.2116(2) 0.43447(15) 0.38258(9)
H9 H -0.3090 0.4429 0.3993
C15 C 0.1591(2) 0.63449(13) 0.41173(8)
C16 C 0.1926(2) 0.72511(13) 0.39645(8)
H10 H 0.2268 0.7368 0.3616
C17 C 0.1761(2) 0.79862(14) 0.43193(10)
H11 H 0.1998 0.8588 0.4205
C18 C 0.1253(2) 0.78501(16) 0.48388(9)
C19 C 0.0951(3) 0.69487(17) 0.49962(9)
H12 H 0.0621 0.6836 0.5346
C20 C 0.1124(3) 0.62089(15) 0.46495(8)
H13 H 0.0925 0.5607 0.4771
C21 C 0.0999(3) 0.86599(18) 0.52204(11)
H14 H -0.0111 0.8799 0.5242
H15 H 0.1559 0.9198 0.5091
H16 H 0.1388 0.8496 0.5570
loop_
_geom_bond_atom_site_label_1
_geom_bond_atom_site_label_2
_geom_bond_site_symmetry_1
_geom_bond_site_symmetry_2
C1 C2 1_555 1_555
C2 H1 1_555 1_555
C3 C2 1_555 1_555
H2 C3 1_555 1_555
C4 C3 1_555 1_555
H3 C4 1_555 1_555
C5 C4 1_555 1_555
H4 C5 1_555 1_555
C6 C1 1_555 1_555
C7 C6 1_555 1_555
C8 C7 1_555 1_555
H5 C8 1_555 1_555
C9 C8 1_555 1_555
H6 C9 1_555 1_555
C10 C9 1_555 1_555
H7 C10 1_555 1_555
C11 C10 1_555 1_555
C12 C7 1_555 1_555
C13 C12 1_555 1_555
H8 C13 1_555 1_555
C14 C1 1_555 1_555
H9 C14 1_555 1_555
C15 C11 1_555 1_555
C16 C15 1_555 1_555
H10 C16 1_555 1_555
C17 C16 1_555 1_555
H11 C17 1_555 1_555
C18 C17 1_555 1_555
C19 C18 1_555 1_555
H12 C19 1_555 1_555
C20 C15 1_555 1_555
H13 C20 1_555 1_555
C21 C18 1_555 1_555
H14 C21 1_555 1_555
H15 C21 1_555 1_555
H16 C21 1_555 1_555
C5 C6 1_555 1_555
C11 C12 1_555 1_555
C13 C14 1_555 1_555
C19 C20 1_555 1_555

#END
