
#######################################################################
#
#                 Cambridge Crystallographic Data Centre
#                                CCDC 
#
#######################################################################
#
# If this CIF has been generated from an entry in the Cambridge 
# Structural Database, then it will include bibliographic, chemical, 
# crystal, experimental, refinement or atomic coordinate data resulting 
# from the CCDC's data processing and validation procedures.
#
#######################################################################

data_CEBKAX
_chemical_formula_moiety         'C28 H26 N2 O5'
_chemical_name_systematic        
6,7-Dimethoxy-1-phenyl-3-(3,4,5-trimethoxyphenyl)-1H-benzo[g]indazole
_symmetry_cell_setting           triclinic
_symmetry_space_group_name_H-M   'P -1'
_symmetry_Int_Tables_number      2
_space_group_name_Hall           '-P 1'
loop_
_symmetry_equiv_pos_site_id
_symmetry_equiv_pos_as_xyz
1 x,y,z
2 -x,-y,-z
_cell_length_a                   9.7753(5)
_cell_length_b                   11.3174(6)
_cell_length_c                   11.6471(6)
_cell_angle_alpha                75.4360(10)
_cell_angle_beta                 72.8660(10)
_cell_angle_gamma                85.9010(10)
_cell_volume                     1191.77
_exptl_crystal_colour            colorless
_cell_formula_units_Z            2
loop_
_atom_site_label
_atom_site_type_symbol
_atom_site_fract_x
_atom_site_fract_y
_atom_site_fract_z
O1 O -0.17053(15) 0.45010(10) 0.79025(12)
O2 O 0.44899(15) 1.14903(12) 1.20157(12)
O3 O -0.24227(15) 0.51334(12) 1.00988(12)
O4 O 0.27015(13) 0.95659(11) 1.28701(10)
O5 O 0.00377(16) 0.58763(12) 0.58839(12)
N1 N 0.15889(15) 0.94183(12) 0.72428(12)
N2 N 0.22758(14) 1.02105(12) 0.75991(11)
C1 C -0.3130(2) 0.4583(2) 0.7850(2)
H1 H -0.3757 0.4669 0.8632
H2 H -0.3377 0.3856 0.7672
H3 H -0.3228 0.5280 0.7210
C2 C -0.11517(19) 0.55439(14) 0.79983(16)
C3 C -0.14430(18) 0.58606(15) 0.91270(16)
C4 C -0.07776(18) 0.68650(15) 0.92152(15)
H4 H -0.0996 0.7083 0.9967
C5 C 0.02164(17) 0.75477(14) 0.81794(14)
C6 C 0.09775(17) 0.85811(14) 0.82675(14)
C7 C 0.12722(16) 0.88268(14) 0.93136(14)
C8 C 0.21227(16) 0.98794(13) 0.88429(13)
C9 C 0.27389(15) 1.03896(13) 0.95865(13)
C10 C 0.36926(17) 1.13805(14) 0.91526(14)
H5 H 0.3939 1.1784 0.8319
C11 C 0.42650(18) 1.17618(15) 0.99348(15)
H6 H 0.4895 1.2421 0.9627
C12 C 0.39172(17) 1.11772(15) 1.11876(15)
C13 C 0.5366(2) 1.25405(18) 1.1598(2)
H7 H 0.6180 1.2437 1.0929
H8 H 0.5686 1.2659 1.2265
H9 H 0.4829 1.3240 1.1317
C14 C -0.2534(2) 0.52513(19) 1.13038(17)
H10 H -0.1602 0.5173 1.1431
H11 H -0.3153 0.4624 1.1904
H12 H -0.2922 0.6037 1.1393
C15 C 0.09878(17) 0.82285(15) 1.05877(14)
H13 H 0.0443 0.7517 1.0910
C16 C 0.15146(18) 0.87007(15) 1.13306(14)
H14 H 0.1301 0.8315 1.2168
C17 C 0.23869(16) 0.97715(14) 1.08681(13)
C18 C 0.29827(17) 1.02031(14) 1.16516(13)
C19 C 0.1823(2) 1.0185(2) 1.37474(17)
H15 H 0.2195 1.0992 1.3586
H16 H 0.1817 0.9742 1.4568
H17 H 0.0864 1.0240 1.3679
C20 C 0.30178(18) 1.12339(15) 0.66776(13)
C21 C 0.2338(2) 1.23439(19) 0.6500(2)
H18 H 0.1394 1.2425 0.6956
C22 C 0.3069(3) 1.3336(2) 0.5637(2)
H19 H 0.2619 1.4091 0.5510
C23 C 0.4455(3) 1.3208(2) 0.4970(2)
H20 H 0.4946 1.3877 0.4388
C24 C 0.5116(2) 1.2109(2) 0.5154(2)
H21 H 0.6060 1.2029 0.4697
C25 C 0.4399(2) 1.1110(2) 0.60151(17)
H22 H 0.4855 1.0359 0.6141
C26 C 0.05048(18) 0.72343(15) 0.70480(15)
H23 H 0.1164 0.7687 0.6352
C27 C -0.01857(19) 0.62521(14) 0.69570(15)
C28 C 0.0854(3) 0.6637(2) 0.47810(18)
H24 H 0.0453 0.7442 0.4683
H25 H 0.0848 0.6317 0.4093
H26 H 0.1821 0.6671 0.4811
loop_
_geom_bond_atom_site_label_1
_geom_bond_atom_site_label_2
_geom_bond_site_symmetry_1
_geom_bond_site_symmetry_2
O1 C1 1_555 1_555
O2 C12 1_555 1_555
O3 C3 1_555 1_555
O4 C18 1_555 1_555
O5 C27 1_555 1_555
N1 N2 1_555 1_555
N2 C8 1_555 1_555
C1 H1 1_555 1_555
H2 C1 1_555 1_555
H3 C1 1_555 1_555
C2 O1 1_555 1_555
C3 C2 1_555 1_555
C4 C3 1_555 1_555
H4 C4 1_555 1_555
C5 C4 1_555 1_555
C6 N1 1_555 1_555
C7 C6 1_555 1_555
C8 C7 1_555 1_555
C9 C8 1_555 1_555
C10 C9 1_555 1_555
H5 C10 1_555 1_555
C11 C10 1_555 1_555
H6 C11 1_555 1_555
C12 C11 1_555 1_555
C13 O2 1_555 1_555
H7 C13 1_555 1_555
H8 C13 1_555 1_555
H9 C13 1_555 1_555
C14 O3 1_555 1_555
H10 C14 1_555 1_555
H11 C14 1_555 1_555
H12 C14 1_555 1_555
C15 C7 1_555 1_555
H13 C15 1_555 1_555
C16 C15 1_555 1_555
H14 C16 1_555 1_555
C17 C9 1_555 1_555
C18 C12 1_555 1_555
C19 O4 1_555 1_555
H15 C19 1_555 1_555
H16 C19 1_555 1_555
H17 C19 1_555 1_555
C20 N2 1_555 1_555
C21 C20 1_555 1_555
H18 C21 1_555 1_555
C22 C21 1_555 1_555
H19 C22 1_555 1_555
C23 C22 1_555 1_555
H20 C23 1_555 1_555
C24 C23 1_555 1_555
H21 C24 1_555 1_555
C25 C20 1_555 1_555
H22 C25 1_555 1_555
C26 C5 1_555 1_555
H23 C26 1_555 1_555
C27 C2 1_555 1_555
C28 O5 1_555 1_555
H24 C28 1_555 1_555
H25 C28 1_555 1_555
H26 C28 1_555 1_555
C5 C6 1_555 1_555
C16 C17 1_555 1_555
C17 C18 1_555 1_555
C24 C25 1_555 1_555
C26 C27 1_555 1_555

#END
