
#######################################################################
#
#                 Cambridge Crystallographic Data Centre
#                                CCDC 
#
#######################################################################
#
# If this CIF has been generated from an entry in the Cambridge 
# Structural Database, then it will include bibliographic, chemical, 
# crystal, experimental, refinement or atomic coordinate data resulting 
# from the CCDC's data processing and validation procedures.
#
#######################################################################

data_CEBKEZ06
_chemical_formula_moiety         'C15 H16 N2 O1'
_chemical_name_systematic        
2-(((4-(dimethylamino)phenyl)imino)methyl)phenol
_symmetry_cell_setting           orthorhombic
_symmetry_space_group_name_H-M   'P b c a'
_symmetry_Int_Tables_number      61
_space_group_name_Hall           '-P 2ac 2ab'
loop_
_symmetry_equiv_pos_site_id
_symmetry_equiv_pos_as_xyz
1 x,y,z
2 1/2-x,-y,1/2+z
3 1/2+x,1/2-y,-z
4 -x,1/2+y,1/2-z
5 -x,-y,-z
6 1/2+x,y,1/2-z
7 1/2-x,1/2+y,z
8 x,1/2-y,1/2+z
_cell_length_a                   11.354(17)
_cell_length_b                   8.155(14)
_cell_length_c                   27.28(4)
_cell_angle_alpha                90
_cell_angle_beta                 90
_cell_angle_gamma                90
_cell_volume                     2525.91
_exptl_crystal_colour            yellow
_exptl_crystal_description       block
_cell_formula_units_Z            8
loop_
_atom_site_label
_atom_site_type_symbol
_atom_site_fract_x
_atom_site_fract_y
_atom_site_fract_z
O1 O 0.47710(10) 0.59325(17) 0.15339(4)
H1 H 0.5022 0.6095 0.1196
N1 N 0.60693(13) 0.8257(2) -0.11734(5)
N2 N 0.59862(11) 0.58595(15) 0.07414(4)
C1 C 0.69357(17) 0.7727(3) -0.15276(6)
H2 H 0.6852 0.6570 -0.1584
H3 H 0.7711 0.7950 -0.1404
H4 H 0.6819 0.8307 -0.1830
C2 C 0.51902(18) 0.9416(2) -0.13274(7)
H5 H 0.4421 0.8961 -0.1274
H6 H 0.5290 0.9651 -0.1670
H7 H 0.5272 1.0409 -0.1142
C3 C 0.60617(13) 0.7628(2) -0.07099(5)
C4 C 0.52152(14) 0.8114(2) -0.03664(6)
H8 H 0.4638 0.8865 -0.0456
C5 C 0.52281(14) 0.7498(2) 0.00988(5)
H9 H 0.4653 0.7837 0.0319
C6 C 0.60680(13) 0.63851(19) 0.02530(5)
C7 C 0.68997(14) 0.5864(2) -0.00877(6)
H10 H 0.7465 0.5097 0.0004
C8 C 0.68945(14) 0.6468(2) -0.05559(6)
H11 H 0.7458 0.6099 -0.0778
C9 C 0.67027(14) 0.48541(19) 0.09427(5)
H12 H 0.7329 0.4436 0.0762
C10 C 0.65507(13) 0.43622(18) 0.14453(5)
C11 C 0.55781(13) 0.4901(2) 0.17226(6)
C12 C 0.54347(15) 0.4362(2) 0.21988(6)
H13 H 0.4784 0.4697 0.2380
C13 C 0.62543(17) 0.3330(2) 0.24044(6)
H14 H 0.6152 0.2971 0.2725
C14 C 0.72269(17) 0.2818(2) 0.21422(6)
H15 H 0.7781 0.2131 0.2286
C15 C 0.73675(15) 0.3331(2) 0.16688(6)
H16 H 0.8022 0.2984 0.1492
loop_
_geom_bond_atom_site_label_1
_geom_bond_atom_site_label_2
_geom_bond_site_symmetry_1
_geom_bond_site_symmetry_2
O1 H1 1_555 1_555
N1 C1 1_555 1_555
N2 C6 1_555 1_555
C1 H2 1_555 1_555
H3 C1 1_555 1_555
H4 C1 1_555 1_555
C2 N1 1_555 1_555
H5 C2 1_555 1_555
H6 C2 1_555 1_555
H7 C2 1_555 1_555
C3 N1 1_555 1_555
C4 C3 1_555 1_555
H8 C4 1_555 1_555
C5 C4 1_555 1_555
H9 C5 1_555 1_555
C6 C5 1_555 1_555
C7 C6 1_555 1_555
H10 C7 1_555 1_555
C8 C3 1_555 1_555
H11 C8 1_555 1_555
C9 N2 1_555 1_555
H12 C9 1_555 1_555
C10 C9 1_555 1_555
C11 O1 1_555 1_555
C12 C11 1_555 1_555
H13 C12 1_555 1_555
C13 C12 1_555 1_555
H14 C13 1_555 1_555
C14 C13 1_555 1_555
H15 C14 1_555 1_555
C15 C10 1_555 1_555
H16 C15 1_555 1_555
C7 C8 1_555 1_555
C10 C11 1_555 1_555
C14 C15 1_555 1_555

#END
