
#######################################################################
#
#                 Cambridge Crystallographic Data Centre
#                                CCDC 
#
#######################################################################
#
# If this CIF has been generated from an entry in the Cambridge 
# Structural Database, then it will include bibliographic, chemical, 
# crystal, experimental, refinement or atomic coordinate data resulting 
# from the CCDC's data processing and validation procedures.
#
#######################################################################

data_CEBKEZ04
_chemical_formula_moiety         'C15 H16 N2 O1'
_chemical_name_systematic        
2-(((4-(dimethylamino)phenyl)imino)methyl)phenol
_symmetry_cell_setting           orthorhombic
_symmetry_space_group_name_H-M   'P 21 21 21'
_symmetry_Int_Tables_number      19
_space_group_name_Hall           'P 2ac 2ab'
loop_
_symmetry_equiv_pos_site_id
_symmetry_equiv_pos_as_xyz
1 x,y,z
2 1/2-x,-y,1/2+z
3 -x,1/2+y,1/2-z
4 1/2+x,1/2-y,-z
_cell_length_a                   6.0658(5)
_cell_length_b                   8.4627(8)
_cell_length_c                   24.972(2)
_cell_angle_alpha                90
_cell_angle_beta                 90
_cell_angle_gamma                90
_cell_volume                     1281.89
_cell_formula_units_Z            4
loop_
_atom_site_label
_atom_site_type_symbol
_atom_site_fract_x
_atom_site_fract_y
_atom_site_fract_z
N1 N 0.5703(4) 0.8657(2) 0.92535(9)
N2 N 0.4761(4) 1.2269(3) 1.11249(9)
O1 O 0.8287(4) 0.8112(2) 0.84578(8)
H1 H 0.7889 0.8500 0.8743
C1 C 0.4235(5) 0.7765(3) 0.90361(10)
H2 H 0.2884 0.7618 0.9205
C2 C 0.4671(5) 0.6988(3) 0.85292(10)
C3 C 0.6680(6) 0.7184(3) 0.82638(11)
C4 C 0.7032(6) 0.6403(3) 0.77774(11)
H3 H 0.8364 0.6529 0.7598
C5 C 0.5427(7) 0.5455(4) 0.75634(13)
H4 H 0.5689 0.4925 0.7244
C6 C 0.3430(6) 0.5282(4) 0.78182(12)
H5 H 0.2332 0.4659 0.7667
C7 C 0.3068(5) 0.6034(3) 0.82977(12)
H6 H 0.1723 0.5903 0.8471
C8 C 0.5377(5) 0.9462(3) 0.97444(10)
C9 C 0.7047(5) 1.0455(3) 0.99129(10)
H7 H 0.8331 1.0514 0.9710
C10 C 0.6883(5) 1.1353(3) 1.03667(10)
H8 H 0.8055 1.1996 1.0467
C11 C 0.4985(5) 1.1318(3) 1.06814(10)
C12 C 0.3334(5) 1.0277(3) 1.05187(11)
H9 H 0.2063 1.0190 1.0725
C13 C 0.3524(5) 0.9375(3) 1.00621(11)
H10 H 0.2384 0.8697 0.9967
C14 C 0.6436(5) 1.3393(4) 1.12642(12)
H11 H 0.7710 1.2845 1.1397
H12 H 0.5885 1.4091 1.1536
H13 H 0.6833 1.3995 1.0953
C15 C 0.2745(6) 1.2302(4) 1.14229(13)
H14 H 0.1601 1.2757 1.1207
H15 H 0.2942 1.2928 1.1740
H16 H 0.2341 1.1245 1.1522
loop_
_geom_bond_atom_site_label_1
_geom_bond_atom_site_label_2
_geom_bond_site_symmetry_1
_geom_bond_site_symmetry_2
N1 C1 1_555 1_555
N2 C11 1_555 1_555
O1 H1 1_555 1_555
C1 H2 1_555 1_555
C2 C1 1_555 1_555
C3 O1 1_555 1_555
C4 C3 1_555 1_555
H3 C4 1_555 1_555
C5 C4 1_555 1_555
H4 C5 1_555 1_555
C6 C5 1_555 1_555
H5 C6 1_555 1_555
C7 C2 1_555 1_555
H6 C7 1_555 1_555
C8 N1 1_555 1_555
C9 C8 1_555 1_555
H7 C9 1_555 1_555
C10 C9 1_555 1_555
H8 C10 1_555 1_555
C11 C10 1_555 1_555
C12 C11 1_555 1_555
H9 C12 1_555 1_555
C13 C8 1_555 1_555
H10 C13 1_555 1_555
C14 N2 1_555 1_555
H11 C14 1_555 1_555
H12 C14 1_555 1_555
H13 C14 1_555 1_555
C15 N2 1_555 1_555
H14 C15 1_555 1_555
H15 C15 1_555 1_555
H16 C15 1_555 1_555
C2 C3 1_555 1_555
C6 C7 1_555 1_555
C12 C13 1_555 1_555

#END
