
#######################################################################
#
#                 Cambridge Crystallographic Data Centre
#                                CCDC 
#
#######################################################################
#
# If this CIF has been generated from an entry in the Cambridge 
# Structural Database, then it will include bibliographic, chemical, 
# crystal, experimental, refinement or atomic coordinate data resulting 
# from the CCDC's data processing and validation procedures.
#
#######################################################################

data_CEBLAY
_chemical_formula_moiety         'C20 H13 Cl1'
_chemical_name_systematic        1-(4-Chlorophenyl)phenanthrene
_symmetry_cell_setting           monoclinic
_symmetry_space_group_name_H-M   'P 21/c'
_symmetry_Int_Tables_number      14
_space_group_name_Hall           '-P 2ybc'
loop_
_symmetry_equiv_pos_site_id
_symmetry_equiv_pos_as_xyz
1 x,y,z
2 -x,1/2+y,1/2-z
3 -x,-y,-z
4 x,1/2-y,1/2+z
_cell_length_a                   13.727(3)
_cell_length_b                   12.566(2)
_cell_length_c                   8.3918(15)
_cell_angle_alpha                90
_cell_angle_beta                 91.190(2)
_cell_angle_gamma                90
_cell_volume                     1447.22
_exptl_crystal_colour            colorless
_exptl_crystal_description       block
_chemical_melting_point          95.7-98.7deg.C
_cell_formula_units_Z            4
loop_
_atom_site_label
_atom_site_type_symbol
_atom_site_fract_x
_atom_site_fract_y
_atom_site_fract_z
C1 C 0.5461(2) 0.33879(19) 0.0572(3)
C2 C 0.6442(2) 0.3180(2) 0.0224(3)
H1 H 0.6589 0.2657 -0.0516
C3 C 0.7181(2) 0.3731(2) 0.0950(4)
H2 H 0.7825 0.3585 0.0708
C4 C 0.6962(2) 0.4516(3) 0.2056(4)
H3 H 0.7466 0.4885 0.2567
C5 C 0.6022(2) 0.4749(2) 0.2402(3)
H4 H 0.5896 0.5289 0.3128
C6 C 0.52354(18) 0.41944(19) 0.1687(3)
C7 C 0.42255(19) 0.44051(19) 0.2040(3)
C8 C 0.3943(2) 0.5213(2) 0.3101(3)
H5 H 0.4419 0.5627 0.3604
C9 C 0.2990(2) 0.5400(2) 0.3403(3)
H6 H 0.2825 0.5943 0.4100
C10 C 0.2262(2) 0.4795(2) 0.2692(3)
H7 H 0.1614 0.4939 0.2915
C11 C 0.2483(2) 0.3979(2) 0.1652(3)
C12 C 0.3475(2) 0.37854(19) 0.1299(3)
C13 C 0.3749(2) 0.2982(2) 0.0162(3)
H8 H 0.3268 0.2577 -0.0345
C14 C 0.4689(2) 0.2811(2) -0.0173(3)
H9 H 0.4839 0.2294 -0.0922
C15 C 0.1675(2) 0.3350(2) 0.0932(3)
C16 C 0.0929(2) 0.3848(2) 0.0084(4)
H10 H 0.0956 0.4580 -0.0075
C17 C 0.0143(2) 0.3278(3) -0.0531(4)
H11 H -0.0352 0.3624 -0.1102
C18 C 0.0100(2) 0.2201(3) -0.0292(4)
C19 C 0.0827(3) 0.1684(3) 0.0542(4)
H12 H 0.0795 0.0952 0.0697
C20 C 0.1608(2) 0.2262(2) 0.1152(4)
H13 H 0.2099 0.1911 0.1722
Cl1 Cl -0.08891(8) 0.14915(9) -0.10617(14)
loop_
_geom_bond_atom_site_label_1
_geom_bond_atom_site_label_2
_geom_bond_site_symmetry_1
_geom_bond_site_symmetry_2
C1 C2 1_555 1_555
C2 H1 1_555 1_555
C3 C2 1_555 1_555
H2 C3 1_555 1_555
C4 C3 1_555 1_555
H3 C4 1_555 1_555
C5 C4 1_555 1_555
H4 C5 1_555 1_555
C6 C1 1_555 1_555
C7 C6 1_555 1_555
C8 C7 1_555 1_555
H5 C8 1_555 1_555
C9 C8 1_555 1_555
H6 C9 1_555 1_555
C10 C9 1_555 1_555
H7 C10 1_555 1_555
C11 C10 1_555 1_555
C12 C7 1_555 1_555
C13 C12 1_555 1_555
H8 C13 1_555 1_555
C14 C1 1_555 1_555
H9 C14 1_555 1_555
C15 C11 1_555 1_555
C16 C15 1_555 1_555
H10 C16 1_555 1_555
C17 C16 1_555 1_555
H11 C17 1_555 1_555
C18 C17 1_555 1_555
C19 C18 1_555 1_555
H12 C19 1_555 1_555
C20 C15 1_555 1_555
H13 C20 1_555 1_555
Cl1 C18 1_555 1_555
C5 C6 1_555 1_555
C11 C12 1_555 1_555
C13 C14 1_555 1_555
C19 C20 1_555 1_555

#END
