
#######################################################################
#
#                 Cambridge Crystallographic Data Centre
#                                CCDC 
#
#######################################################################
#
# If this CIF has been generated from an entry in the Cambridge 
# Structural Database, then it will include bibliographic, chemical, 
# crystal, experimental, refinement or atomic coordinate data resulting 
# from the CCDC's data processing and validation procedures.
#
#######################################################################

data_CEBPOP
_chemical_formula_moiety         'C7 H12 N8 S2'
_chemical_name_systematic        1,3-bis(1-Methyl-1H-tetrazol-5-ylthio)propane
_symmetry_cell_setting           orthorhombic
_symmetry_space_group_name_H-M   'P c a b'
_symmetry_Int_Tables_number      61
_space_group_name_Hall           '-P 2bc 2ac'
loop_
_symmetry_equiv_pos_site_id
_symmetry_equiv_pos_as_xyz
1 x,y,z
2 -x,1/2-y,1/2+z
3 1/2-x,1/2+y,-z
4 1/2+x,-y,1/2-z
5 -x,-y,-z
6 x,1/2+y,1/2-z
7 1/2+x,1/2-y,z
8 1/2-x,y,1/2+z
_cell_length_a                   9.1455(18)
_cell_length_b                   14.113(3)
_cell_length_c                   18.998(4)
_cell_angle_alpha                90
_cell_angle_beta                 90
_cell_angle_gamma                90
_cell_volume                     2452.08
_exptl_crystal_colour            colorless
_exptl_crystal_description       block
_chemical_melting_point          '412-414 K'
_cell_formula_units_Z            8
_exptl_crystal_recrystallization_method acetone
loop_
_atom_site_label
_atom_site_type_symbol
_atom_site_fract_x
_atom_site_fract_y
_atom_site_fract_z
S1 S 0.67780(6) 0.29112(3) -0.22876(2)
S2 S 0.71960(7) 0.28767(3) -0.51998(2)
N1 N 0.57067(18) 0.45357(10) -0.17319(7)
N2 N 0.5905(2) 0.54857(11) -0.17673(9)
N3 N 0.6911(2) 0.56265(12) -0.22251(9)
N4 N 0.7405(2) 0.48023(11) -0.25047(9)
N5 N 0.7585(2) 0.47878(11) -0.49687(9)
N6 N 0.7002(2) 0.55891(12) -0.52411(9)
N7 N 0.6042(2) 0.54078(11) -0.57122(8)
N8 N 0.59692(18) 0.44522(11) -0.57622(7)
C1 C 0.4607(3) 0.41122(16) -0.12809(10)
H1 H 0.5059 0.3654 -0.0978
H2 H 0.3880 0.3806 -0.1565
H3 H 0.4154 0.4596 -0.1001
C2 C 0.6633(2) 0.41314(12) -0.21840(9)
C3 C 0.7953(2) 0.28567(11) -0.30576(8)
H4 H 0.8687 0.3351 -0.3024
H5 H 0.8457 0.2252 -0.3062
C4 C 0.7123(2) 0.29730(13) -0.37415(8)
H6 H 0.6367 0.2492 -0.3773
H7 H 0.6653 0.3589 -0.3751
C5 C 0.8147(2) 0.28841(11) -0.43623(9)
H8 H 0.8705 0.2303 -0.4316
H9 H 0.8832 0.3409 -0.4355
C6 C 0.6913(2) 0.40803(12) -0.53054(8)
C7 C 0.4944(2) 0.39853(16) -0.62317(9)
H10 H 0.5472 0.3670 -0.6600
H11 H 0.4299 0.4448 -0.6433
H12 H 0.4383 0.3529 -0.5972
loop_
_geom_bond_atom_site_label_1
_geom_bond_atom_site_label_2
_geom_bond_site_symmetry_1
_geom_bond_site_symmetry_2
S1 C2 1_555 1_555
S2 C5 1_555 1_555
N1 N2 1_555 1_555
N2 N3 1_555 1_555
N3 N4 1_555 1_555
N4 C2 1_555 1_555
N5 N6 1_555 1_555
N6 N7 1_555 1_555
N7 N8 1_555 1_555
N8 C6 1_555 1_555
C1 N1 1_555 1_555
H1 C1 1_555 1_555
H2 C1 1_555 1_555
H3 C1 1_555 1_555
C2 N1 1_555 1_555
C3 S1 1_555 1_555
H4 C3 1_555 1_555
H5 C3 1_555 1_555
C4 C3 1_555 1_555
H6 C4 1_555 1_555
H7 C4 1_555 1_555
C5 C4 1_555 1_555
H8 C5 1_555 1_555
H9 C5 1_555 1_555
C6 S2 1_555 1_555
C7 N8 1_555 1_555
H10 C7 1_555 1_555
H11 C7 1_555 1_555
H12 C7 1_555 1_555
N5 C6 1_555 1_555

#END
