
#######################################################################
#
#                 Cambridge Crystallographic Data Centre
#                                CCDC 
#
#######################################################################
#
# If this CIF has been generated from an entry in the Cambridge 
# Structural Database, then it will include bibliographic, chemical, 
# crystal, experimental, refinement or atomic coordinate data resulting 
# from the CCDC's data processing and validation procedures.
#
#######################################################################

data_CEBPAD
_chemical_formula_moiety         'C2 H5 N4 1+,C3 H3 O4 1-'
_chemical_name_systematic        '5-amino-4H-1,2,4-triazol-1-ium carboxyacetate'
_symmetry_cell_setting           orthorhombic
_symmetry_space_group_name_H-M   'P b c a'
_symmetry_Int_Tables_number      61
_space_group_name_Hall           '-P 2ac 2ab'
loop_
_symmetry_equiv_pos_site_id
_symmetry_equiv_pos_as_xyz
1 x,y,z
2 1/2-x,-y,1/2+z
3 1/2+x,1/2-y,-z
4 -x,1/2+y,1/2-z
5 -x,-y,-z
6 1/2+x,y,1/2-z
7 1/2-x,1/2+y,z
8 x,1/2-y,1/2+z
_cell_length_a                   11.441(2)
_cell_length_b                   6.5852(13)
_cell_length_c                   21.429(4)
_cell_angle_alpha                90
_cell_angle_beta                 90
_cell_angle_gamma                90
_cell_volume                     1614.49
_exptl_crystal_colour            colorless
_exptl_crystal_description       Block
_cell_formula_units_Z            8
loop_
_atom_site_label
_atom_site_type_symbol
_atom_site_fract_x
_atom_site_fract_y
_atom_site_fract_z
N1 N 0.7790(4) 0.1868(8) 0.9598(2)
N2 N 0.5881(4) 0.2095(8) 0.9514(2)
H1 H 0.5198 0.2044 0.9347
N3 N 0.7278(4) 0.2422(8) 1.0159(2)
H2 H 0.7660 0.2632 1.0498
N4 N 0.5403(4) 0.3160(9) 1.0558(2)
H3 H 0.5673 0.3459 1.0921
H4 H 0.4664 0.3230 1.0488
C1 C 0.6910(5) 0.1691(10) 0.9226(3)
H5 H 0.6974 0.1327 0.8808
C2 C 0.6126(5) 0.2588(10) 1.0107(3)
O1 O 0.7346(4) 0.0414(9) 0.7756(2)
H6 H 0.7087 0.0632 0.7405
O2 O 0.9071(5) 0.0319(11) 0.8207(2)
O3 O 0.7176(3) 0.1383(7) 0.66328(19)
O4 O 0.8765(3) 0.1735(8) 0.60533(19)
C3 C 0.8264(5) 0.1380(10) 0.6562(3)
C4 C 0.9051(6) 0.0949(12) 0.7111(3)
H7 H 0.9574 0.2098 0.7158
H8 H 0.9529 -0.0217 0.7005
C5 C 0.8498(6) 0.0539(12) 0.7744(3)
loop_
_geom_bond_atom_site_label_1
_geom_bond_atom_site_label_2
_geom_bond_site_symmetry_1
_geom_bond_site_symmetry_2
N1 N3 1_555 1_555
N2 H1 1_555 1_555
N3 H2 1_555 1_555
N4 H3 1_555 1_555
H4 N4 1_555 1_555
C1 N1 1_555 1_555
H5 C1 1_555 1_555
C2 N2 1_555 1_555
O1 H6 1_555 1_555
O2 C5 1_555 1_555
O3 C3 1_555 1_555
O4 C3 1_555 1_555
C3 C4 1_555 1_555
C4 H7 1_555 1_555
H8 C4 1_555 1_555
C5 O1 1_555 1_555
N2 C1 1_555 1_555
N3 C2 1_555 1_555
N4 C2 1_555 1_555
C4 C5 1_555 1_555

#END
