
#######################################################################
#
#                 Cambridge Crystallographic Data Centre
#                                CCDC 
#
#######################################################################
#
# If this CIF has been generated from an entry in the Cambridge 
# Structural Database, then it will include bibliographic, chemical, 
# crystal, experimental, refinement or atomic coordinate data resulting 
# from the CCDC's data processing and validation procedures.
#
#######################################################################

data_CEBPEE10
_chemical_formula_moiety         'C20 H9 Cl3 O3'
_chemical_name_systematic        
2',5,7'-Trichloro-spiro(benzofuran-3(2H),9'-(9H)-xanthen)-2-one
_symmetry_cell_setting           monoclinic
_symmetry_space_group_name_H-M   'C 2/c'
_symmetry_Int_Tables_number      15
_space_group_name_Hall           '-C 2yn'
loop_
_symmetry_equiv_pos_site_id
_symmetry_equiv_pos_as_xyz
1 x,y,z
2 1/2+x,1/2+y,z
3 -x,y,1/2-z
4 1/2-x,1/2+y,1/2-z
5 -x,-y,-z
6 1/2-x,1/2-y,-z
7 x,-y,1/2+z
8 1/2+x,1/2-y,1/2+z
_cell_length_a                   21.316(9)
_cell_length_b                   17.267(4)
_cell_length_c                   9.158(6)
_cell_angle_alpha                90
_cell_angle_beta                 85.95(5)
_cell_angle_gamma                90
_cell_volume                     3362.31
_chemical_melting_point          237deg.C
_cell_formula_units_Z            8
loop_
_atom_site_label
_atom_site_type_symbol
_atom_site_fract_x
_atom_site_fract_y
_atom_site_fract_z
Cl1 Cl 0.2463(2) 0.1307(2) 0.5068(2)
Cl2 Cl -0.0900(2) 0.3244(2) -0.1451(2)
Cl3 Cl 0.0673(2) 0.4861(2) 0.3778(2)
C1 C 0.1177(5) 0.2286(6) 0.0752(5)
C2 C 0.0523(5) 0.2116(6) 0.0188(5)
C3 C 0.0153(5) 0.2706(6) -0.0324(6)
C4 C -0.0434(5) 0.2502(6) -0.0856(6)
C5 C -0.0636(5) 0.1754(7) -0.0918(6)
C6 C -0.0269(6) 0.1157(7) -0.0407(6)
C7 C 0.0301(6) 0.1367(6) 0.0158(6)
O1 O 0.0655(4) 0.0745(4) 0.0669(5)
C8 C 0.1091(5) 0.0921(6) 0.1676(6)
C9 C 0.1272(6) 0.0291(6) 0.2525(7)
C10 C 0.1712(6) 0.0416(6) 0.3558(6)
C11 C 0.1951(5) 0.1143(6) 0.3699(6)
C12 C 0.1775(5) 0.1778(6) 0.2858(6)
C13 C 0.1338(5) 0.1646(6) 0.1795(5)
O2 O 0.1786(4) 0.1718(5) -0.1354(4)
C14 C 0.1653(5) 0.2248(6) -0.0557(6)
O3 O 0.1961(4) 0.2946(5) -0.0682(4)
C15 C 0.1715(5) 0.3459(6) 0.0393(6)
C16 C 0.1880(5) 0.4197(7) 0.0552(7)
C17 C 0.1592(6) 0.4626(6) 0.1583(7)
C18 C 0.1085(7) 0.4297(6) 0.2500(7)
C19 C 0.0919(6) 0.3526(6) 0.2376(6)
C20 C 0.1269(5) 0.3095(6) 0.1232(5)
H1 H 0.031(5) 0.330(6) -0.032(5)
H2 H -0.108(8) 0.162(10) -0.136(9)
H3 H -0.052(5) 0.058(6) -0.009(6)
H4 H 0.110(5) -0.026(6) 0.245(6)
H5 H 0.186(7) -0.005(8) 0.423(8)
H6 H 0.209(5) 0.232(6) 0.265(6)
H7 H 0.225(6) 0.444(7) -0.017(7)
H8 H 0.057(5) 0.328(6) 0.326(6)
loop_
_geom_bond_atom_site_label_1
_geom_bond_atom_site_label_2
_geom_bond_site_symmetry_1
_geom_bond_site_symmetry_2
Cl1 C11 1_555 1_555
Cl2 C4 1_555 1_555
Cl3 C18 1_555 1_555
C1 C2 1_555 1_555
C2 C3 1_555 1_555
C3 C4 1_555 1_555
C4 C5 1_555 1_555
C5 C6 1_555 1_555
C6 C7 1_555 1_555
C7 C2 1_555 1_555
O1 C7 1_555 1_555
C8 O1 1_555 1_555
C9 C8 1_555 1_555
C10 C9 1_555 1_555
C11 C10 1_555 1_555
C12 C11 1_555 1_555
C13 C1 1_555 1_555
O2 C14 1_555 1_555
C14 C1 1_555 1_555
O3 C14 1_555 1_555
C15 O3 1_555 1_555
C16 C15 1_555 1_555
C17 C16 1_555 1_555
C18 C17 1_555 1_555
C19 C18 1_555 1_555
C20 C1 1_555 1_555
H1 C3 1_555 1_555
H2 C5 1_555 1_555
H3 C6 1_555 1_555
H4 C9 1_555 1_555
H5 C10 1_555 1_555
H6 C12 1_555 1_555
H7 C16 1_555 1_555
H8 C19 1_555 1_555
C8 C13 1_555 1_555
C12 C13 1_555 1_555
C15 C20 1_555 1_555
C19 C20 1_555 1_555

#END
