
#######################################################################
#
#                 Cambridge Crystallographic Data Centre
#                                CCDC 
#
#######################################################################
#
# If this CIF has been generated from an entry in the Cambridge 
# Structural Database, then it will include bibliographic, chemical, 
# crystal, experimental, refinement or atomic coordinate data resulting 
# from the CCDC's data processing and validation procedures.
#
#######################################################################

data_CEBQEG
_chemical_formula_moiety         'C37 H30 Br2 O5,2(H2 O1)'
_chemical_name_systematic        
'5,17-Dibromo-25,27-dimethoxy-26-benzoyloxy-28-hydroxycalix(4)arene dihydrate'
_symmetry_cell_setting           triclinic
_symmetry_space_group_name_H-M   'P -1'
_symmetry_Int_Tables_number      2
_space_group_name_Hall           '-P 1'
loop_
_symmetry_equiv_pos_site_id
_symmetry_equiv_pos_as_xyz
1 x,y,z
2 -x,-y,-z
_cell_length_a                   9.7444(13)
_cell_length_b                   10.0592(14)
_cell_length_c                   18.012(2)
_cell_angle_alpha                91.663(10)
_cell_angle_beta                 99.064(10)
_cell_angle_gamma                104.536(9)
_cell_volume                     1683.35
_exptl_crystal_colour            colorless
_exptl_crystal_description       prism
_cell_formula_units_Z            2
_exptl_crystal_recrystallization_method chloroform/methanol
loop_
_atom_site_label
_atom_site_type_symbol
_atom_site_fract_x
_atom_site_fract_y
_atom_site_fract_z
Br1 Br -0.02107(10) 0.31001(12) -0.05516(5)
Br2 Br 0.86301(13) 0.33066(14) 0.57427(6)
O1 O 0.5354(5) 0.3115(5) 0.1461(3)
O2 O 0.3712(5) 0.5405(6) 0.2382(3)
O3 O 0.3613(6) 0.3159(7) 0.3310(3)
H1 H 0.3858 0.3655 0.2975
O4 O 0.2514(7) 0.0866(6) 0.2217(3)
O5 O 0.6432(6) 0.2693(7) 0.0504(3)
C1 C 0.3122(8) 0.1828(8) 0.0703(4)
C2 C 0.4076(7) 0.3094(8) 0.0967(4)
C3 C 0.3797(8) 0.4351(8) 0.0812(4)
C4 C 0.2515(8) 0.4338(9) 0.0363(4)
H2 H 0.2299 0.5163 0.0242
C5 C 0.1534(8) 0.3082(10) 0.0087(4)
C6 C 0.1819(8) 0.1849(9) 0.0252(4)
H3 H 0.1149 0.1028 0.0066
C7 C 0.4888(8) 0.5728(8) 0.1016(4)
H4 H 0.4376 0.6438 0.0946
H5 H 0.5541 0.5843 0.0654
C8 C 0.5794(8) 0.6005(7) 0.1797(4)
C9 C 0.5194(8) 0.5865(8) 0.2444(4)
C10 C 0.6029(9) 0.6070(8) 0.3160(4)
C11 C 0.7515(9) 0.6522(9) 0.3208(5)
H6 H 0.8099 0.6706 0.3680
C12 C 0.8129(8) 0.6700(9) 0.2573(5)
H7 H 0.9123 0.6993 0.2613
C13 C 0.7272(9) 0.6445(8) 0.1880(5)
H8 H 0.7698 0.6573 0.1451
C14 C 0.5406(10) 0.5794(9) 0.3875(4)
H9 H 0.5861 0.6548 0.4253
H10 H 0.4383 0.5729 0.3774
C15 C 0.5653(9) 0.4470(9) 0.4165(4)
C16 C 0.4777(9) 0.3212(10) 0.3846(4)
C17 C 0.5037(9) 0.1959(10) 0.4072(5)
C18 C 0.6191(10) 0.2005(11) 0.4642(5)
H11 H 0.6384 0.1193 0.4808
C19 C 0.7048(9) 0.3257(11) 0.4959(4)
C20 C 0.6782(9) 0.4477(10) 0.4729(4)
H12 H 0.7371 0.5310 0.4958
C21 C 0.4109(11) 0.0600(9) 0.3688(5)
H13 H 0.4192 -0.0129 0.4020
H14 H 0.3111 0.0635 0.3600
C22 C 0.4532(11) 0.0267(9) 0.2946(5)
C23 C 0.3759(10) 0.0416(8) 0.2252(5)
C24 C 0.4232(10) 0.0203(9) 0.1579(5)
C25 C 0.5494(11) -0.0255(9) 0.1621(6)
H15 H 0.5827 -0.0426 0.1181
C26 C 0.6235(11) -0.0452(10) 0.2302(7)
H16 H 0.7057 -0.0770 0.2324
C27 C 0.5760(12) -0.0179(11) 0.2955(7)
H17 H 0.6282 -0.0299 0.3415
C28 C 0.3424(10) 0.0433(9) 0.0825(5)
H18 H 0.2507 -0.0255 0.0734
H19 H 0.3961 0.0251 0.0441
C29 C 0.6498(9) 0.2930(9) 0.1172(5)
C30 C 0.7743(8) 0.3017(8) 0.1771(5)
C31 C 0.7681(9) 0.3181(9) 0.2518(5)
H20 H 0.6821 0.3236 0.2663
C32 C 0.8865(10) 0.3264(10) 0.3059(5)
H21 H 0.8805 0.3353 0.3568
C33 C 1.0141(11) 0.3215(11) 0.2840(7)
H22 H 1.0951 0.3282 0.3204
C34 C 1.0233(11) 0.3066(12) 0.2087(7)
H23 H 1.1100 0.3028 0.1944
C35 C 0.9029(10) 0.2975(11) 0.1546(6)
H24 H 0.9082 0.2887 0.1036
C36 C 0.2965(9) 0.6468(10) 0.2317(6)
H25 H 0.1950 0.6064 0.2276
H26 H 0.3148 0.6949 0.1876
H27 H 0.3295 0.7102 0.2755
C37 C 0.1231(10) -0.0208(11) 0.2200(7)
H28 H 0.0423 0.0183 0.2173
H29 H 0.1312 -0.0694 0.2649
H30 H 0.1096 -0.0834 0.1766
O6 O 0.9424(10) 0.0176(11) 0.4172(5)
H31 H 1.0199 0.0661 0.4436
H32 H 0.8844 -0.0447 0.4361
O7 O 0.1575(12) 0.1033(10) 0.4972(6)
H33 H 0.1955 0.1896 0.5026
H34 H 0.2156 0.0633 0.4814
loop_
_geom_bond_atom_site_label_1
_geom_bond_atom_site_label_2
_geom_bond_site_symmetry_1
_geom_bond_site_symmetry_2
Br1 C5 1_555 1_555
Br2 C19 1_555 1_555
O1 C2 1_555 1_555
O2 C9 1_555 1_555
O3 H1 1_555 1_555
O4 C23 1_555 1_555
O5 C29 1_555 1_555
C1 C2 1_555 1_555
C2 C3 1_555 1_555
C3 C4 1_555 1_555
C4 H2 1_555 1_555
C5 C4 1_555 1_555
C6 C1 1_555 1_555
H3 C6 1_555 1_555
C7 C3 1_555 1_555
H4 C7 1_555 1_555
H5 C7 1_555 1_555
C8 C7 1_555 1_555
C9 C8 1_555 1_555
C10 C9 1_555 1_555
C11 C10 1_555 1_555
H6 C11 1_555 1_555
C12 C11 1_555 1_555
H7 C12 1_555 1_555
C13 C8 1_555 1_555
H8 C13 1_555 1_555
C14 C10 1_555 1_555
H9 C14 1_555 1_555
H10 C14 1_555 1_555
C15 C14 1_555 1_555
C16 O3 1_555 1_555
C17 C16 1_555 1_555
C18 C17 1_555 1_555
H11 C18 1_555 1_555
C19 C18 1_555 1_555
C20 C15 1_555 1_555
H12 C20 1_555 1_555
C21 C17 1_555 1_555
H13 C21 1_555 1_555
H14 C21 1_555 1_555
C22 C21 1_555 1_555
C23 C22 1_555 1_555
C24 C23 1_555 1_555
C25 C24 1_555 1_555
H15 C25 1_555 1_555
C26 C25 1_555 1_555
H16 C26 1_555 1_555
C27 C22 1_555 1_555
H17 C27 1_555 1_555
C28 C1 1_555 1_555
H18 C28 1_555 1_555
H19 C28 1_555 1_555
C29 O1 1_555 1_555
C30 C29 1_555 1_555
C31 C30 1_555 1_555
H20 C31 1_555 1_555
C32 C31 1_555 1_555
H21 C32 1_555 1_555
C33 C32 1_555 1_555
H22 C33 1_555 1_555
C34 C33 1_555 1_555
H23 C34 1_555 1_555
C35 C30 1_555 1_555
H24 C35 1_555 1_555
C36 O2 1_555 1_555
H25 C36 1_555 1_555
H26 C36 1_555 1_555
H27 C36 1_555 1_555
C37 O4 1_555 1_555
H28 C37 1_555 1_555
H29 C37 1_555 1_555
H30 C37 1_555 1_555
O6 H31 1_555 1_555
H32 O6 1_555 1_555
O7 H33 1_555 1_555
H34 O7 1_555 1_555
C5 C6 1_555 1_555
C12 C13 1_555 1_555
C15 C16 1_555 1_555
C19 C20 1_555 1_555
C24 C28 1_555 1_555
C26 C27 1_555 1_555
C34 C35 1_555 1_555

#END
