
#######################################################################
#
#                 Cambridge Crystallographic Data Centre
#                                CCDC 
#
#######################################################################
#
# If this CIF has been generated from an entry in the Cambridge 
# Structural Database, then it will include bibliographic, chemical, 
# crystal, experimental, refinement or atomic coordinate data resulting 
# from the CCDC's data processing and validation procedures.
#
#######################################################################

data_CEBRAD
_chemical_formula_moiety         'C16 H36 N1 1+,C15 H18 N4,H2 O4 P1 1-'
_chemical_name_systematic        
'Tetra-n-butylammonium tris(2-pyrrolylmethyl)amine dihydrogen phosphate'
_symmetry_cell_setting           tetragonal
_symmetry_space_group_name_H-M   'I -4'
_symmetry_Int_Tables_number      82
_space_group_name_Hall           'I -4'
loop_
_symmetry_equiv_pos_site_id
_symmetry_equiv_pos_as_xyz
1 x,y,z
2 -x,-y,z
3 y,-x,-z
4 -y,x,-z
5 1/2+x,1/2+y,1/2+z
6 1/2-x,1/2-y,1/2+z
7 1/2+y,1/2-x,1/2-z
8 1/2-y,1/2+x,1/2-z
_cell_length_a                   18.0091(16)
_cell_length_b                   18.0091(16)
_cell_length_c                   22.173(4)
_cell_angle_alpha                90
_cell_angle_beta                 90
_cell_angle_gamma                90
_cell_volume                     7191.32
_exptl_crystal_colour            colorless
_exptl_crystal_description       block
_cell_formula_units_Z            8
loop_
_atom_site_label
_atom_site_type_symbol
_atom_site_fract_x
_atom_site_fract_y
_atom_site_fract_z
P1 P 0.40085(3) 0.61337(3) 0.95900(3)
O1 O 0.41958(8) 0.60215(8) 1.02439(6)
O2 O 0.36094(10) 0.68320(8) 0.94323(9)
O3 O 0.35128(10) 0.54801(9) 0.93664(8)
H1 H 0.3674 0.5087 0.9500
O4 O 0.47346(10) 0.61011(13) 0.92058(8)
H2 H 0.5091 0.6031 0.9428
N1 N 0.40141(11) 0.81716(11) 1.00263(9)
H3 H 0.3879 0.7770 0.9847
N2 N 0.21358(12) 0.73076(13) 0.91507(11)
H4 H 0.2587 0.7158 0.9185
N3 N 0.40969(12) 0.75367(11) 0.83195(10)
H5 H 0.3947 0.7351 0.8655
N4 N 0.31574(11) 0.85400(11) 0.89622(9)
C1 C 0.45737(15) 0.82261(15) 1.04398(13)
H6 H 0.4872 0.7839 1.0576
C2 C 0.46157(19) 0.89403(17) 1.06141(14)
H7 H 0.4949 0.9133 1.0894
C3 C 0.40758(18) 0.93426(15) 1.03050(13)
H8 H 0.3986 0.9849 1.0339
C4 C 0.37019(14) 0.88561(14) 0.99418(12)
C5 C 0.30689(14) 0.89597(14) 0.95249(13)
H9 H 0.2616 0.8802 0.9724
H10 H 0.3020 0.9483 0.9430
C6 C 0.15257(19) 0.6923(2) 0.93316(16)
H11 H 0.1525 0.6455 0.9509
C7 C 0.0923(2) 0.7339(2) 0.9209(2)
H12 H 0.0432 0.7212 0.9291
C8 C 0.11676(17) 0.7999(2) 0.89342(19)
H13 H 0.0869 0.8385 0.8797
C9 C 0.19182(15) 0.79706(18) 0.89062(14)
C10 C 0.24664(15) 0.84835(17) 0.86223(14)
H14 H 0.2577 0.8310 0.8218
H15 H 0.2246 0.8973 0.8588
C11 C 0.44317(16) 0.71490(18) 0.78675(15)
H16 H 0.4540 0.6644 0.7871
C12 C 0.45793(17) 0.7628(2) 0.74134(15)
H17 H 0.4803 0.7511 0.7047
C13 C 0.43328(16) 0.83349(18) 0.75956(13)
H18 H 0.4367 0.8771 0.7372
C14 C 0.40359(13) 0.82668(14) 0.81570(11)
C15 C 0.37560(14) 0.88320(14) 0.85882(12)
H19 H 0.4161 0.8995 0.8845
H20 H 0.3577 0.9260 0.8366
N5 N 0.27151(13) 0.73663(13) 0.15276(10)
C16 C 0.35081(19) 0.7123(2) 0.14443(17)
H21 H 0.3821 0.7560 0.1416
H22 H 0.3549 0.6854 0.1066
C17 C 0.3799(2) 0.6622(3) 0.1962(3)
H23 H 0.3704 0.6874 0.2340
H24 H 0.3507 0.6169 0.1963
C18 C 0.4557(3) 0.6421(5) 0.1949(3)
H25 H 0.4842 0.6872 0.1887
H26 H 0.4633 0.6112 0.1596
C19 C 0.4874(4) 0.6042(4) 0.2451(3)
H27 H 0.4967 0.6390 0.2770
H28 H 0.5332 0.5814 0.2331
H29 H 0.4535 0.5668 0.2590
C20 C 0.2491(2) 0.7882(2) 0.10006(15)
H30 H 0.2563 0.7618 0.0624
H31 H 0.2818 0.8310 0.0998
C21 C 0.1678(3) 0.8156(3) 0.1033(3)
H32 H 0.1361 0.7746 0.0913
H33 H 0.1568 0.8264 0.1452
C22 C 0.1465(4) 0.8781(3) 0.0690(3)
H34 H 0.1587 0.8682 0.0272
H35 H 0.1768 0.9198 0.0819
C23 C 0.0690(4) 0.9010(4) 0.0717(3)
H36 H 0.0407 0.8697 0.0453
H37 H 0.0643 0.9517 0.0591
H38 H 0.0507 0.8959 0.1122
C24 C 0.22076(16) 0.66995(16) 0.15419(13)
H39 H 0.2334 0.6401 0.1891
H40 H 0.1702 0.6873 0.1596
C25 C 0.22307(18) 0.62097(19) 0.09917(16)
H41 H 0.2181 0.6513 0.0632
H42 H 0.2706 0.5957 0.0973
C26 C 0.1616(2) 0.56453(19) 0.10092(18)
H43 H 0.1720 0.5267 0.0709
H44 H 0.1622 0.5406 0.1401
C27 C 0.0863(2) 0.5940(2) 0.09006(18)
H45 H 0.0765 0.6337 0.1178
H46 H 0.0505 0.5551 0.0959
H47 H 0.0830 0.6122 0.0495
C28 C 0.2628(2) 0.77733(18) 0.21138(14)
H48 H 0.2778 0.7445 0.2439
H49 H 0.2106 0.7885 0.2171
C29 C 0.3065(3) 0.8490(2) 0.21667(18)
H50 H 0.3581 0.8391 0.2070
H51 H 0.2878 0.8843 0.1873
C30 C 0.3024(5) 0.8820(3) 0.2764(3)
H52 H 0.3202 0.8463 0.3058
H53 H 0.2509 0.8926 0.2857
C31 C 0.3472(5) 0.9530(4) 0.2825(4)
H54 H 0.3992 0.9414 0.2815
H55 H 0.3353 0.9767 0.3200
H56 H 0.3354 0.9857 0.2497
loop_
_geom_bond_atom_site_label_1
_geom_bond_atom_site_label_2
_geom_bond_site_symmetry_1
_geom_bond_site_symmetry_2
P1 O1 1_555 1_555
O2 P1 1_555 1_555
O3 P1 1_555 1_555
H1 O3 1_555 1_555
O4 P1 1_555 1_555
H2 O4 1_555 1_555
N1 H3 1_555 1_555
N2 H4 1_555 1_555
N3 H5 1_555 1_555
N4 C5 1_555 1_555
N5 C16 1_555 1_555
C1 N1 1_555 1_555
H6 C1 1_555 1_555
C2 C1 1_555 1_555
H7 C2 1_555 1_555
C3 C2 1_555 1_555
H8 C3 1_555 1_555
C4 N1 1_555 1_555
C5 C4 1_555 1_555
H9 C5 1_555 1_555
H10 C5 1_555 1_555
C6 N2 1_555 1_555
H11 C6 1_555 1_555
C7 C6 1_555 1_555
H12 C7 1_555 1_555
C8 C7 1_555 1_555
H13 C8 1_555 1_555
C9 N2 1_555 1_555
C10 N4 1_555 1_555
H14 C10 1_555 1_555
H15 C10 1_555 1_555
C11 N3 1_555 1_555
H16 C11 1_555 1_555
C12 C11 1_555 1_555
H17 C12 1_555 1_555
C13 C12 1_555 1_555
H18 C13 1_555 1_555
C14 N3 1_555 1_555
C15 N4 1_555 1_555
H19 C15 1_555 1_555
H20 C15 1_555 1_555
C16 H21 1_555 1_555
H22 C16 1_555 1_555
C17 C16 1_555 1_555
H23 C17 1_555 1_555
H24 C17 1_555 1_555
C18 C17 1_555 1_555
H25 C18 1_555 1_555
H26 C18 1_555 1_555
C19 C18 1_555 1_555
H27 C19 1_555 1_555
H28 C19 1_555 1_555
H29 C19 1_555 1_555
C20 N5 1_555 1_555
H30 C20 1_555 1_555
H31 C20 1_555 1_555
C21 C20 1_555 1_555
H32 C21 1_555 1_555
H33 C21 1_555 1_555
C22 C21 1_555 1_555
H34 C22 1_555 1_555
H35 C22 1_555 1_555
C23 C22 1_555 1_555
H36 C23 1_555 1_555
H37 C23 1_555 1_555
H38 C23 1_555 1_555
C24 N5 1_555 1_555
H39 C24 1_555 1_555
H40 C24 1_555 1_555
C25 C24 1_555 1_555
H41 C25 1_555 1_555
H42 C25 1_555 1_555
C26 C25 1_555 1_555
H43 C26 1_555 1_555
H44 C26 1_555 1_555
C27 C26 1_555 1_555
H45 C27 1_555 1_555
H46 C27 1_555 1_555
H47 C27 1_555 1_555
C28 N5 1_555 1_555
H48 C28 1_555 1_555
H49 C28 1_555 1_555
C29 C28 1_555 1_555
H50 C29 1_555 1_555
H51 C29 1_555 1_555
C30 C29 1_555 1_555
H52 C30 1_555 1_555
H53 C30 1_555 1_555
C31 C30 1_555 1_555
H54 C31 1_555 1_555
H55 C31 1_555 1_555
H56 C31 1_555 1_555
C3 C4 1_555 1_555
C8 C9 1_555 1_555
C9 C10 1_555 1_555
C13 C14 1_555 1_555
C14 C15 1_555 1_555

#END
