
#######################################################################
#
#                 Cambridge Crystallographic Data Centre
#                                CCDC 
#
#######################################################################
#
# If this CIF has been generated from an entry in the Cambridge 
# Structural Database, then it will include bibliographic, chemical, 
# crystal, experimental, refinement or atomic coordinate data resulting 
# from the CCDC's data processing and validation procedures.
#
#######################################################################

data_CEBTUA
_chemical_name_common            
2,6-bis[1-(2-methyl-5-phenyl-3-thienyl)-2-perfluorocyclopentenyl]-3,5-dimethyldithieno[3,2-b:2'3'-d]thiophene
_chemical_formula_moiety         'C42 H24 F12 S5'
_chemical_name_systematic        
2,6-bis(3,3,4,4,5,5-hexafluoro-2-(2-methyl-5-phenyl-3-thienyl)cyclopent-1-en-1-yl)-3,5-dimethylbisthieno[3,2-b:2',3'-d]thiophene
_symmetry_cell_setting           orthorhombic
_symmetry_space_group_name_H-M   'F d d 2'
_symmetry_Int_Tables_number      43
_space_group_name_Hall           'F 2 -2d'
loop_
_symmetry_equiv_pos_site_id
_symmetry_equiv_pos_as_xyz
1 x,y,z
2 -x,-y,z
3 1/4+x,1/4-y,1/4+z
4 1/4-x,1/4+y,1/4+z
5 x,1/2+y,1/2+z
6 -x,1/2-y,1/2+z
7 1/4+x,3/4-y,3/4+z
8 1/4-x,3/4+y,3/4+z
9 1/2+x,y,1/2+z
10 1/2-x,-y,1/2+z
11 3/4+x,1/4-y,3/4+z
12 3/4-x,1/4+y,3/4+z
13 1/2+x,1/2+y,z
14 1/2-x,1/2-y,z
15 3/4+x,3/4-y,1/4+z
16 3/4-x,3/4+y,1/4+z
_cell_length_a                   26.482(5)
_cell_length_b                   38.224(7)
_cell_length_c                   7.5935(13)
_cell_angle_alpha                90
_cell_angle_beta                 90
_cell_angle_gamma                90
_cell_volume                     7686.5
_exptl_crystal_colour            yellow
_exptl_crystal_description       rod
_cell_formula_units_Z            8
loop_
_atom_site_label
_atom_site_type_symbol
_atom_site_fract_x
_atom_site_fract_y
_atom_site_fract_z
S1 S 0.13098(5) 0.10171(3) 0.4795(2)
S2 S 0.17978(4) 0.23229(3) 0.90793(16)
S3 S 0.2500 0.2500 0.4239(2)
F1 F -0.01462(11) 0.15226(8) 0.8030(5)
F2 F -0.02185(12) 0.19707(9) 0.6314(5)
F3 F 0.00885(15) 0.18896(11) 1.0736(5)
F4 F -0.03629(12) 0.22742(11) 0.9321(6)
F5 F 0.07556(13) 0.23662(10) 1.0605(5)
F6 F 0.04296(15) 0.26124(8) 0.8289(5)
C1 C 0.0998(2) 0.07732(16) 0.1017(10)
H1 H 0.1326 0.0742 0.1497
C2 C 0.0886(3) 0.06319(16) -0.0626(10)
H2 H 0.1137 0.0511 -0.1280
C3 C 0.0409(3) 0.06713(15) -0.1281(9)
H3 H 0.0329 0.0575 -0.2401
C4 C 0.0041(2) 0.08472(14) -0.0356(9)
H4 H -0.0288 0.0874 -0.0836
C5 C 0.0156(2) 0.09835(14) 0.1272(8)
H5 H -0.0101 0.1097 0.1933
C6 C 0.06399(19) 0.09592(13) 0.1972(7)
C7 C 0.07673(19) 0.11321(14) 0.3663(8)
C8 C 0.05318(18) 0.14023(13) 0.4496(8)
H6 H 0.0222 0.1500 0.4099
C9 C 0.07919(17) 0.15237(12) 0.6014(7)
C10 C 0.12223(19) 0.13361(13) 0.6368(8)
C11 C 0.1595(2) 0.13730(16) 0.7841(11)
H7 H 0.1421 0.1458 0.8896
H8 H 0.1859 0.1540 0.7500
H9 H 0.1748 0.1145 0.8089
C12 C 0.06142(17) 0.18099(12) 0.7130(7)
C13 C 0.00638(17) 0.18328(13) 0.7627(8)
C14 C 0.00620(18) 0.20781(14) 0.9236(8)
C15 C 0.05415(19) 0.23005(13) 0.9015(8)
C16 C 0.08665(18) 0.20809(13) 0.7845(7)
C17 C 0.13778(17) 0.21983(12) 0.7395(7)
C18 C 0.15731(17) 0.22419(12) 0.5741(6)
C19 C 0.20761(18) 0.23767(12) 0.5867(6)
C20 C 0.22510(18) 0.24295(13) 0.7526(7)
C21 C 0.13204(19) 0.21730(15) 0.4042(7)
H10 H 0.1416 0.1940 0.3616
H11 H 0.1424 0.2350 0.3180
H12 H 0.0954 0.2183 0.4202
S1M S 0.36902(5) 0.39829(3) 0.4795(2)
S2M S 0.32022(4) 0.26771(3) 0.90793(16)
F1M F 0.51462(11) 0.34774(8) 0.8030(5)
F2M F 0.52185(12) 0.30293(9) 0.6314(5)
F3M F 0.49115(15) 0.31104(11) 1.0736(5)
F4M F 0.53629(12) 0.27258(11) 0.9321(6)
F5M F 0.42444(13) 0.26338(10) 1.0605(5)
F6M F 0.45704(15) 0.23876(8) 0.8289(5)
C1M C 0.4002(2) 0.42268(16) 0.1017(10)
H1M H 0.3674 0.4258 0.1497
C2M C 0.4114(3) 0.43681(16) -0.0626(10)
H2M H 0.3863 0.4489 -0.1280
C3M C 0.4591(3) 0.43287(15) -0.1281(9)
H3M H 0.4671 0.4425 -0.2401
C4M C 0.4959(2) 0.41528(14) -0.0356(9)
H4M H 0.5288 0.4126 -0.0836
C5M C 0.4844(2) 0.40165(14) 0.1272(8)
H5M H 0.5101 0.3903 0.1933
C6M C 0.43601(19) 0.40408(13) 0.1972(7)
C7M C 0.42327(19) 0.38679(14) 0.3663(8)
C8M C 0.44682(18) 0.35977(13) 0.4496(8)
H6M H 0.4778 0.3500 0.4099
C9M C 0.42081(17) 0.34763(12) 0.6014(7)
C10M C 0.37777(19) 0.36639(13) 0.6368(8)
C11M C 0.3405(2) 0.36270(16) 0.7841(11)
H7M H 0.3579 0.3542 0.8896
H8M H 0.3141 0.3460 0.7500
H9M H 0.3252 0.3855 0.8089
C12M C 0.43858(17) 0.31901(12) 0.7130(7)
C13M C 0.49362(17) 0.31672(13) 0.7627(8)
C14M C 0.49380(18) 0.29219(14) 0.9236(8)
C15M C 0.44585(19) 0.26995(13) 0.9015(8)
C16M C 0.41335(18) 0.29191(13) 0.7845(7)
C17M C 0.36222(17) 0.28017(12) 0.7395(7)
C18M C 0.34269(17) 0.27581(12) 0.5741(6)
C19M C 0.29239(18) 0.26233(12) 0.5867(6)
C20M C 0.27490(18) 0.25705(13) 0.7526(7)
C21M C 0.36796(19) 0.28270(15) 0.4042(7)
H10M H 0.3584 0.3060 0.3616
H11M H 0.3576 0.2650 0.3180
H12M H 0.4046 0.2817 0.4202
loop_
_geom_bond_atom_site_label_1
_geom_bond_atom_site_label_2
_geom_bond_site_symmetry_1
_geom_bond_site_symmetry_2
S1 C7 1_555 1_555
S2 C17 1_555 1_555
S3 C19 1_555 1_555
F1 C13 1_555 1_555
F2 C13 1_555 1_555
F3 C14 1_555 1_555
F4 C14 1_555 1_555
F5 C15 1_555 1_555
F6 C15 1_555 1_555
C1 H1 1_555 1_555
C2 C1 1_555 1_555
H2 C2 1_555 1_555
C3 C2 1_555 1_555
H3 C3 1_555 1_555
C4 C3 1_555 1_555
H4 C4 1_555 1_555
C5 C4 1_555 1_555
H5 C5 1_555 1_555
C6 C1 1_555 1_555
C7 C6 1_555 1_555
C8 C7 1_555 1_555
H6 C8 1_555 1_555
C9 C8 1_555 1_555
C10 S1 1_555 1_555
C11 C10 1_555 1_555
H7 C11 1_555 1_555
H8 C11 1_555 1_555
H9 C11 1_555 1_555
C12 C9 1_555 1_555
C13 C12 1_555 1_555
C14 C13 1_555 1_555
C15 C14 1_555 1_555
C16 C12 1_555 1_555
C17 C16 1_555 1_555
C18 C17 1_555 1_555
C19 C18 1_555 1_555
C20 S2 1_555 1_555
C21 C18 1_555 1_555
H10 C21 1_555 1_555
H11 C21 1_555 1_555
H12 C21 1_555 1_555
S1M C7M 1_555 1_555
S2M C17M 1_555 1_555
F1M C13M 1_555 1_555
F2M C13M 1_555 1_555
F3M C14M 1_555 1_555
F4M C14M 1_555 1_555
F5M C15M 1_555 1_555
F6M C15M 1_555 1_555
C1M H1M 1_555 1_555
C2M C1M 1_555 1_555
H2M C2M 1_555 1_555
C3M C2M 1_555 1_555
H3M C3M 1_555 1_555
C4M C3M 1_555 1_555
H4M C4M 1_555 1_555
C5M C4M 1_555 1_555
H5M C5M 1_555 1_555
C6M C1M 1_555 1_555
C7M C6M 1_555 1_555
C8M C7M 1_555 1_555
H6M C8M 1_555 1_555
C9M C8M 1_555 1_555
C10M S1M 1_555 1_555
C11M C10M 1_555 1_555
H7M C11M 1_555 1_555
H8M C11M 1_555 1_555
H9M C11M 1_555 1_555
C12M C9M 1_555 1_555
C13M C12M 1_555 1_555
C14M C13M 1_555 1_555
C15M C14M 1_555 1_555
C16M C12M 1_555 1_555
C17M C16M 1_555 1_555
C18M C17M 1_555 1_555
C19M S3 1_555 1_555
C20M C20 1_555 1_555
C21M C18M 1_555 1_555
H10M C21M 1_555 1_555
H11M C21M 1_555 1_555
H12M C21M 1_555 1_555
C5 C6 1_555 1_555
C9 C10 1_555 1_555
C15 C16 1_555 1_555
C19 C20 1_555 1_555
S2M C20M 1_555 1_555
C5M C6M 1_555 1_555
C9M C10M 1_555 1_555
C15M C16M 1_555 1_555
C18M C19M 1_555 1_555
C19M C20M 1_555 1_555

#END
