
#######################################################################
#
#                 Cambridge Crystallographic Data Centre
#                                CCDC 
#
#######################################################################
#
# If this CIF has been generated from an entry in the Cambridge 
# Structural Database, then it will include bibliographic, chemical, 
# crystal, experimental, refinement or atomic coordinate data resulting 
# from the CCDC's data processing and validation procedures.
#
#######################################################################

data_CEBTOU
_chemical_formula_moiety         'C32 H20 F12 S5,0.25(C6 H14)'
_chemical_name_systematic        
"2,6-bis(2-(2,5-dimethyl-3-thienyl)-3,3,4,4,5,5-hexafluorocyclopent-1-en-1-yl)-3,5-dimethylbisthieno[3,2-b:2',3'-d]thiophene hexane solvate"
_symmetry_cell_setting           triclinic
_symmetry_space_group_name_H-M   'P -1'
_symmetry_Int_Tables_number      2
_space_group_name_Hall           '-P 1'
loop_
_symmetry_equiv_pos_site_id
_symmetry_equiv_pos_as_xyz
1 x,y,z
2 -x,-y,-z
_cell_length_a                   10.997(2)
_cell_length_b                   16.284(3)
_cell_length_c                   20.170(4)
_cell_angle_alpha                82.65(3)
_cell_angle_beta                 89.32(3)
_cell_angle_gamma                78.98(3)
_cell_volume                     3515.92
_exptl_crystal_colour            yellow
_exptl_crystal_description       block
_chemical_melting_point          111-113deg.C
_cell_formula_units_Z            4
_exptl_crystal_recrystallization_method ethanol
loop_
_atom_site_label
_atom_site_type_symbol
_atom_site_fract_x
_atom_site_fract_y
_atom_site_fract_z
S1 S 0.63157(16) 0.92417(11) 0.04102(7)
S2 S 0.62676(12) 0.57443(9) -0.05540(7)
S3 S 0.93328(11) 0.55580(8) 0.07039(6)
S4 S 0.73346(12) 0.36267(8) 0.06423(7)
S5 S 0.93265(13) 0.34111(10) 0.36439(7)
F1 F 0.6625(3) 0.8914(2) -0.22570(15)
F2 F 0.4748(3) 0.9315(2) -0.19215(16)
F3 F 0.4031(3) 0.8055(2) -0.2289(2)
F4 F 0.5606(4) 0.8013(2) -0.29389(16)
F5 F 0.6855(3) 0.6746(2) -0.22202(17)
F6 F 0.5066(3) 0.6581(2) -0.18251(17)
F7 F 0.7251(3) 0.1794(2) 0.10228(18)
F8 F 0.9010(4) 0.1759(2) 0.05329(16)
F9 F 0.9965(6) 0.0472(4) 0.1275(2)
F10 F 0.8171(5) 0.0375(3) 0.1625(3)
F11 F 0.8606(7) 0.0815(3) 0.2703(2)
F12 F 1.0506(5) 0.0719(3) 0.2395(3)
C1 C 0.7746(7) 1.0402(4) -0.0156(4)
H1 H 0.8089 1.0602 -0.0584
H2 H 0.8423 1.0177 0.0168
H3 H 0.7187 1.0873 0.0011
C2 C 0.7044(6) 0.9723(4) -0.0253(3)
C3 C 0.6899(5) 0.9380(3) -0.0817(3)
H4 H 0.7206 0.9569 -0.1240
C4 C 0.6228(5) 0.8697(3) -0.0707(3)
C5 C 0.5858(5) 0.8557(4) -0.0069(3)
C6 C 0.5138(6) 0.7919(4) 0.0241(3)
H5 H 0.4950 0.7578 -0.0097
H6 H 0.4363 0.8208 0.0419
H7 H 0.5629 0.7552 0.0605
C7 C 0.6052(5) 0.8205(3) -0.1244(2)
C8 C 0.5670(5) 0.8640(3) -0.1928(2)
C9 C 0.5273(5) 0.7966(4) -0.2298(3)
C10 C 0.5861(5) 0.7129(3) -0.1891(3)
C11 C 0.6239(4) 0.7355(3) -0.1232(2)
C12 C 0.6824(5) 0.6700(3) -0.0708(2)
C13 C 0.7838(4) 0.6696(3) -0.0315(3)
C14 C 0.8603(5) 0.7370(3) -0.0327(3)
H8 H 0.8249 0.7851 -0.0655
H9 H 0.9454 0.7144 -0.0450
H10 H 0.8604 0.7554 0.0117
C15 C 0.8143(4) 0.5929(3) 0.0118(2)
C16 C 0.7400(4) 0.5351(3) 0.0049(3)
C17 C 0.7786(4) 0.4585(3) 0.0480(2)
C18 C 0.8818(5) 0.4606(3) 0.0861(2)
C19 C 0.9269(4) 0.3859(3) 0.1293(2)
C20 C 1.0412(5) 0.3766(3) 0.1715(3)
H11 H 1.0572 0.3207 0.1979
H12 H 1.0291 0.4201 0.2015
H13 H 1.1119 0.3828 0.1425
C21 C 0.8556(4) 0.3262(3) 0.1231(2)
C22 C 0.8746(5) 0.2383(3) 0.1539(3)
C23 C 0.8481(5) 0.1713(3) 0.1147(3)
C24 C 0.8992(6) 0.0871(3) 0.1565(3)
C25 C 0.9360(6) 0.1093(4) 0.2227(3)
C26 C 0.9167(5) 0.2044(3) 0.2159(2)
C27 C 0.8639(5) 0.3078(3) 0.2984(3)
C28 C 0.7326(5) 0.3471(4) 0.2786(3)
H14 H 0.7075 0.3214 0.2409
H15 H 0.7264 0.4078 0.2654
H16 H 0.6782 0.3379 0.3165
C29 C 0.9448(4) 0.2450(3) 0.2734(2)
C30 C 1.0611(5) 0.2234(3) 0.3081(2)
H17 H 1.1263 0.1799 0.2975
C31 C 1.0692(5) 0.2709(4) 0.3578(3)
C32 C 1.1798(5) 0.2696(4) 0.4014(3)
H18 H 1.2484 0.2257 0.3903
H19 H 1.1582 0.2577 0.4484
H20 H 1.2050 0.3246 0.3938
S6 S 0.71941(15) 0.68663(12) 0.18058(8)
S7 S 0.35701(13) 0.46498(9) 0.32249(7)
S8 S 0.64720(12) 0.46938(8) 0.45312(7)
S9 S 0.47823(13) 0.26116(8) 0.44817(7)
S10 S 1.04148(14) 0.11259(10) 0.50167(9)
F13 F 0.2672(4) 0.7408(4) 0.1120(2)
F14 F 0.2524(9) 0.8293(4) 0.1737(8)
F15 F 0.0912(6) 0.7690(4) 0.2495(4)
F16 F 0.0446(5) 0.7240(5) 0.1671(4)
F17 F 0.1722(5) 0.5670(3) 0.2139(3)
F18 F 0.1247(4) 0.6260(4) 0.3019(2)
F19 F 0.4250(3) 0.1736(2) 0.61877(18)
F20 F 0.4134(3) 0.1151(2) 0.52960(17)
F21 F 0.5292(4) -0.0268(2) 0.5822(2)
F22 F 0.4781(3) 0.0218(3) 0.6745(2)
F23 F 0.7480(3) -0.0425(2) 0.6293(2)
F24 F 0.6931(3) 0.0557(3) 0.69290(16)
C33 C 0.7237(7) 0.8489(5) 0.2114(3)
H21 H 0.6687 0.8994 0.2236
H22 H 0.7653 0.8634 0.1695
H23 H 0.7858 0.8271 0.2469
C34 C 0.6491(6) 0.7829(4) 0.2025(3)
C35 C 0.5268(5) 0.7849(4) 0.2126(3)
H24 H 0.4713 0.8332 0.2238
C36 C 0.4887(5) 0.7067(3) 0.2046(3)
C37 C 0.5839(6) 0.6479(4) 0.1868(3)
C38 C 0.5805(7) 0.5597(4) 0.1719(4)
H25 H 0.4961 0.5490 0.1777
H26 H 0.6371 0.5187 0.2025
H27 H 0.6062 0.5543 0.1257
C39 C 0.3624(5) 0.6917(3) 0.2167(3)
C40 C 0.2560(6) 0.7465(4) 0.1778(3)
C41 C 0.1458(6) 0.7112(6) 0.2014(4)
C42 C 0.1889(6) 0.6315(4) 0.2463(3)
C43 C 0.3245(5) 0.6292(3) 0.2581(3)
C44 C 0.3948(5) 0.5663(3) 0.3081(2)
C45 C 0.4904(5) 0.5740(3) 0.3491(2)
C46 C 0.5420(5) 0.6519(3) 0.3544(3)
H28 H 0.5014 0.6977 0.3210
H29 H 0.6313 0.6403 0.3463
H30 H 0.5269 0.6684 0.3992
C47 C 0.5327(4) 0.4978(3) 0.3912(2)
C48 C 0.4696(5) 0.4336(3) 0.3835(2)
C49 C 0.5149(5) 0.3595(3) 0.4288(2)
C50 C 0.6101(4) 0.3695(3) 0.4686(2)
C51 C 0.6569(4) 0.2986(3) 0.5157(2)
C52 C 0.7579(5) 0.2982(3) 0.5655(3)
H31 H 0.7762 0.2431 0.5931
H32 H 0.7307 0.3424 0.5941
H33 H 0.8327 0.3089 0.5417
C53 C 0.5933(5) 0.2343(3) 0.5106(2)
C54 C 0.6059(5) 0.1534(3) 0.5528(2)
C55 C 0.4933(5) 0.1209(3) 0.5783(3)
C56 C 0.5405(6) 0.0355(4) 0.6193(3)
C57 C 0.6776(5) 0.0341(4) 0.6301(3)
C58 C 0.7100(5) 0.1002(3) 0.5776(3)
C59 C 0.8834(5) 0.1171(3) 0.4983(3)
C60 C 0.8179(6) 0.1317(4) 0.4327(3)
H34 H 0.7294 0.1321 0.4398
H35 H 0.8523 0.0865 0.4062
H36 H 0.8286 0.1861 0.4088
C61 C 0.8396(5) 0.1024(3) 0.5622(3)
C62 C 0.9347(5) 0.0871(3) 0.6123(3)
H37 H 0.9197 0.0747 0.6587
C63 C 1.0482(5) 0.0919(4) 0.5873(3)
C64 C 1.1671(6) 0.0836(5) 0.6252(4)
H38 H 1.1522 0.0722 0.6732
H39 H 1.1988 0.1361 0.6160
H40 H 1.2280 0.0369 0.6113
C65 C 0.9685(8) 0.5457(5) 0.4915(4)
H41 H 0.8914 0.5552 0.5175
H42 H 1.0234 0.5815 0.5065
C66 C 0.9366(8) 0.5749(5) 0.4203(4)
H43 H 0.8780 0.5415 0.4055
H44 H 1.0128 0.5633 0.3937
C67 C 0.8791(8) 0.6682(6) 0.4049(5)
H45 H 0.8612 0.6822 0.3569
H46 H 0.9372 0.7021 0.4181
H47 H 0.8021 0.6802 0.4298
C65A C 1.0315(8) 0.4543(5) 0.5085(4)
H41A H 1.1086 0.4448 0.4825
H42A H 0.9766 0.4185 0.4935
C66A C 1.0634(8) 0.4251(5) 0.5797(4)
H43A H 1.1220 0.4585 0.5945
H44A H 0.9872 0.4367 0.6063
C67A C 1.1209(8) 0.3318(6) 0.5951(5)
H45A H 1.1388 0.3178 0.6431
H46A H 1.0628 0.2979 0.5819
H47A H 1.1979 0.3198 0.5702
F25? F 0.221(2) 0.8176(13) 0.2064(15)
F26? F 0.124(2) 0.6785(13) 0.1450(7)
loop_
_geom_bond_atom_site_label_1
_geom_bond_atom_site_label_2
_geom_bond_site_symmetry_1
_geom_bond_site_symmetry_2
S1 C2 1_555 1_555
S2 C12 1_555 1_555
S3 C15 1_555 1_555
S4 C17 1_555 1_555
S5 C27 1_555 1_555
S6 C34 1_555 1_555
S7 C44 1_555 1_555
S8 C47 1_555 1_555
S9 C49 1_555 1_555
S10 C59 1_555 1_555
F1 C8 1_555 1_555
F2 C8 1_555 1_555
F3 C9 1_555 1_555
F4 C9 1_555 1_555
F5 C10 1_555 1_555
F6 C10 1_555 1_555
F7 C23 1_555 1_555
F8 C23 1_555 1_555
F9 C24 1_555 1_555
F10 C24 1_555 1_555
F11 C25 1_555 1_555
F12 C25 1_555 1_555
F13 C40 1_555 1_555
F14 C40 1_555 1_555
F15 C41 1_555 1_555
F16 C41 1_555 1_555
F17 C42 1_555 1_555
F18 C42 1_555 1_555
F19 C55 1_555 1_555
F20 C55 1_555 1_555
F21 C56 1_555 1_555
F22 C56 1_555 1_555
F23 C57 1_555 1_555
F24 C57 1_555 1_555
C1 H1 1_555 1_555
H2 C1 1_555 1_555
H3 C1 1_555 1_555
C2 C1 1_555 1_555
C3 C2 1_555 1_555
H4 C3 1_555 1_555
C4 C3 1_555 1_555
C5 S1 1_555 1_555
C6 C5 1_555 1_555
H5 C6 1_555 1_555
H6 C6 1_555 1_555
H7 C6 1_555 1_555
C7 C4 1_555 1_555
C8 C7 1_555 1_555
C9 C8 1_555 1_555
C10 C9 1_555 1_555
C11 C7 1_555 1_555
C12 C11 1_555 1_555
C13 C12 1_555 1_555
C14 C13 1_555 1_555
H8 C14 1_555 1_555
H9 C14 1_555 1_555
H10 C14 1_555 1_555
C15 C13 1_555 1_555
C16 S2 1_555 1_555
C17 C16 1_555 1_555
C18 S3 1_555 1_555
C19 C18 1_555 1_555
C20 C19 1_555 1_555
H11 C20 1_555 1_555
H12 C20 1_555 1_555
H13 C20 1_555 1_555
C21 S4 1_555 1_555
C22 C21 1_555 1_555
C23 C22 1_555 1_555
C24 C23 1_555 1_555
C25 C24 1_555 1_555
C26 C22 1_555 1_555
C27 C28 1_555 1_555
C28 H14 1_555 1_555
H15 C28 1_555 1_555
H16 C28 1_555 1_555
C29 C26 1_555 1_555
C30 C29 1_555 1_555
H17 C30 1_555 1_555
C31 S5 1_555 1_555
C32 C31 1_555 1_555
H18 C32 1_555 1_555
H19 C32 1_555 1_555
H20 C32 1_555 1_555
C33 H21 1_555 1_555
H22 C33 1_555 1_555
H23 C33 1_555 1_555
C34 C33 1_555 1_555
C35 C34 1_555 1_555
H24 C35 1_555 1_555
C36 C35 1_555 1_555
C37 S6 1_555 1_555
C38 C37 1_555 1_555
H25 C38 1_555 1_555
H26 C38 1_555 1_555
H27 C38 1_555 1_555
C39 C36 1_555 1_555
C40 C39 1_555 1_555
C41 C40 1_555 1_555
C42 C41 1_555 1_555
C43 C39 1_555 1_555
C44 C43 1_555 1_555
C45 C44 1_555 1_555
C46 C45 1_555 1_555
H28 C46 1_555 1_555
H29 C46 1_555 1_555
H30 C46 1_555 1_555
C47 C45 1_555 1_555
C48 S7 1_555 1_555
C49 C48 1_555 1_555
C50 S8 1_555 1_555
C51 C50 1_555 1_555
C52 C51 1_555 1_555
H31 C52 1_555 1_555
H32 C52 1_555 1_555
H33 C52 1_555 1_555
C53 S9 1_555 1_555
C54 C53 1_555 1_555
C55 C54 1_555 1_555
C56 C55 1_555 1_555
C57 C56 1_555 1_555
C58 C54 1_555 1_555
C59 C60 1_555 1_555
C60 H34 1_555 1_555
H35 C60 1_555 1_555
H36 C60 1_555 1_555
C61 C58 1_555 1_555
C62 C61 1_555 1_555
H37 C62 1_555 1_555
C63 S10 1_555 1_555
C64 C63 1_555 1_555
H38 C64 1_555 1_555
H39 C64 1_555 1_555
H40 C64 1_555 1_555
C65 H41 1_555 1_555
H42 C65 1_555 1_555
C66 C65 1_555 1_555
H43 C66 1_555 1_555
H44 C66 1_555 1_555
C67 C66 1_555 1_555
H45 C67 1_555 1_555
H46 C67 1_555 1_555
H47 C67 1_555 1_555
C65A C65 1_555 1_555
H41A C65A 1_555 1_555
H42A C65A 1_555 1_555
C66A C65A 1_555 1_555
H43A C66A 1_555 1_555
H44A C66A 1_555 1_555
C67A C66A 1_555 1_555
H45A C67A 1_555 1_555
H46A C67A 1_555 1_555
H47A C67A 1_555 1_555
C4 C5 1_555 1_555
C10 C11 1_555 1_555
C15 C16 1_555 1_555
C17 C18 1_555 1_555
C19 C21 1_555 1_555
C25 C26 1_555 1_555
C27 C29 1_555 1_555
C30 C31 1_555 1_555
C36 C37 1_555 1_555
C42 C43 1_555 1_555
C47 C48 1_555 1_555
C49 C50 1_555 1_555
C51 C53 1_555 1_555
C57 C58 1_555 1_555
C59 C61 1_555 1_555
C62 C63 1_555 1_555

#END
