
#######################################################################
#
#                 Cambridge Crystallographic Data Centre
#                                CCDC 
#
#######################################################################
#
# If this CIF has been generated from an entry in the Cambridge 
# Structural Database, then it will include bibliographic, chemical, 
# crystal, experimental, refinement or atomic coordinate data resulting 
# from the CCDC's data processing and validation procedures.
#
#######################################################################

data_CECREJ
_chemical_formula_moiety         'C14 H9 F2 N3'
_chemical_name_systematic        
4-(2-Fluorophenyl)-1-(4-fluorophenyl)-1H-1,2,3-triazole
_symmetry_cell_setting           triclinic
_symmetry_space_group_name_H-M   'P -1'
_symmetry_Int_Tables_number      2
_space_group_name_Hall           '-P 1'
loop_
_symmetry_equiv_pos_site_id
_symmetry_equiv_pos_as_xyz
1 x,y,z
2 -x,-y,-z
_cell_length_a                   5.8208(10)
_cell_length_b                   7.3728(12)
_cell_length_c                   13.821(2)
_cell_angle_alpha                104.788(3)
_cell_angle_beta                 96.202(3)
_cell_angle_gamma                90.379(3)
_cell_volume                     569.773
_exptl_crystal_colour            colorless
_exptl_crystal_description       prismatic
_cell_formula_units_Z            2
loop_
_atom_site_label
_atom_site_type_symbol
_atom_site_fract_x
_atom_site_fract_y
_atom_site_fract_z
F1 F 0.46644(15) -0.03649(14) 0.84789(7)
F2 F 0.5663(2) 0.69562(18) 1.46200(8)
N1 N 0.1812(2) 0.32742(17) 1.08129(9)
N2 N -0.0518(2) 0.3273(2) 1.05903(10)
N3 N -0.1004(2) 0.2382(2) 0.96495(10)
C1 C 0.2799(2) 0.2362(2) 0.99926(10)
H1 H 0.4363 0.2163 0.9942
C2 C 0.0998(2) 0.17975(19) 0.92538(11)
C3 C 0.0974(2) 0.07899(19) 0.81901(11)
C4 C -0.0914(3) 0.0857(2) 0.74881(12)
H2 H -0.2200 0.1517 0.7703
C5 C -0.0910(3) -0.0038(2) 0.64819(12)
H3 H -0.2184 0.0030 0.6027
C6 C 0.0969(3) -0.1029(2) 0.61480(12)
H4 H 0.0966 -0.1625 0.5468
C7 C 0.2868(3) -0.1141(2) 0.68267(12)
H5 H 0.4148 -0.1810 0.6611
C8 C 0.2811(3) -0.0243(2) 0.78186(12)
C9 C 0.2847(2) 0.41996(19) 1.17935(11)
C10 C 0.4993(3) 0.5100(2) 1.19266(12)
H6 H 0.5783 0.5084 1.1375
C11 C 0.5953(3) 0.6024(2) 1.28849(13)
H7 H 0.7398 0.6631 1.2988
C12 C 0.4739(3) 0.6029(2) 1.36802(12)
C13 C 0.2616(3) 0.5133(2) 1.35649(12)
H8 H 0.1837 0.5154 1.4121
C14 C 0.1662(3) 0.4202(2) 1.26115(11)
H9 H 0.0230 0.3577 1.2516
loop_
_geom_bond_atom_site_label_1
_geom_bond_atom_site_label_2
_geom_bond_site_symmetry_1
_geom_bond_site_symmetry_2
F1 C8 1_555 1_555
F2 C12 1_555 1_555
N1 N2 1_555 1_555
N2 N3 1_555 1_555
N3 C2 1_555 1_555
C1 N1 1_555 1_555
H1 C1 1_555 1_555
C2 C1 1_555 1_555
C3 C2 1_555 1_555
C4 C3 1_555 1_555
H2 C4 1_555 1_555
C5 C4 1_555 1_555
H3 C5 1_555 1_555
C6 C5 1_555 1_555
H4 C6 1_555 1_555
C7 C6 1_555 1_555
H5 C7 1_555 1_555
C8 C3 1_555 1_555
C9 N1 1_555 1_555
C10 C9 1_555 1_555
H6 C10 1_555 1_555
C11 C10 1_555 1_555
H7 C11 1_555 1_555
C12 C11 1_555 1_555
C13 C12 1_555 1_555
H8 C13 1_555 1_555
C14 C9 1_555 1_555
H9 C14 1_555 1_555
C7 C8 1_555 1_555
C13 C14 1_555 1_555

#END
