
#######################################################################
#
#                 Cambridge Crystallographic Data Centre
#                                CCDC 
#
#######################################################################
#
# If this CIF has been generated from an entry in the Cambridge 
# Structural Database, then it will include bibliographic, chemical, 
# crystal, experimental, refinement or atomic coordinate data resulting 
# from the CCDC's data processing and validation procedures.
#
#######################################################################

data_CECSOU
_chemical_formula_moiety         'C14 H9 Br2 N3'
_chemical_name_systematic        1,4-Bis(4-bromophenyl)-1H-1,2,3-triazole
_symmetry_cell_setting           monoclinic
_symmetry_space_group_name_H-M   'C 2/c'
_symmetry_Int_Tables_number      15
_space_group_name_Hall           '-C 2yn'
loop_
_symmetry_equiv_pos_site_id
_symmetry_equiv_pos_as_xyz
1 x,y,z
2 -x,y,1/2-z
3 1/2+x,1/2+y,z
4 1/2-x,1/2+y,1/2-z
5 -x,-y,-z
6 x,-y,1/2+z
7 1/2-x,1/2-y,-z
8 1/2+x,1/2-y,1/2+z
_cell_length_a                   32.028(6)
_cell_length_b                   5.6282(10)
_cell_length_c                   7.4518(13)
_cell_angle_alpha                90
_cell_angle_beta                 98.685(3)
_cell_angle_gamma                90
_cell_volume                     1327.86
_exptl_crystal_colour            colorless
_exptl_crystal_description       prismatic
_cell_formula_units_Z            4
loop_
_atom_site_label
_atom_site_type_symbol
_atom_site_fract_x
_atom_site_fract_y
_atom_site_fract_z
Br1 Br 0.289791(18) 0.12766(12) -0.18126(8)
N1 N 0.48042(16) 0.5923(7) 0.2110(7)
C1 C 0.5000 0.2170(12) 0.2500
H1 H 0.5000 0.0517 0.2500
C2 C 0.42553(15) 0.3072(8) 0.0989(6)
C3 C 0.39257(15) 0.4661(9) 0.1087(6)
H2 H 0.3979 0.6094 0.1700
C4 C 0.35222(18) 0.4125(10) 0.0284(7)
H3 H 0.3302 0.5178 0.0355
C5 C 0.34498(16) 0.2008(10) -0.0626(6)
C6 C 0.37667(16) 0.0382(10) -0.0725(6)
H4 H 0.3709 -0.1060 -0.1320
C7 C 0.41697(17) 0.0933(8) 0.0075(7)
H5 H 0.4388 -0.0137 0.0003
C8 C 0.46781(15) 0.3636(6) 0.1839(6)
Br1A Br 0.710209(18) 0.12766(12) 0.68126(8)
N1A N 0.51958(16) 0.5923(7) 0.2890(7)
C2A C 0.57447(15) 0.3072(8) 0.4011(6)
C3A C 0.60743(15) 0.4661(9) 0.3913(6)
H2A H 0.6021 0.6094 0.3300
C4A C 0.64778(18) 0.4125(10) 0.4716(7)
H3A H 0.6698 0.5178 0.4645
C5A C 0.65502(16) 0.2008(10) 0.5626(6)
C6A C 0.62333(16) 0.0382(10) 0.5725(6)
H4A H 0.6291 -0.1060 0.6320
C7A C 0.58303(17) 0.0933(8) 0.4925(7)
H5A H 0.5612 -0.0137 0.4997
C8A C 0.53219(15) 0.3636(6) 0.3161(6)
N2? N 0.46781(15) 0.3636(6) 0.1839(6)
loop_
_geom_bond_atom_site_label_1
_geom_bond_atom_site_label_2
_geom_bond_site_symmetry_1
_geom_bond_site_symmetry_2
Br1 C5 1_555 1_555
N1 C8 1_555 1_555
C1 H1 1_555 1_555
C2 C3 1_555 1_555
C3 H2 1_555 1_555
C4 C3 1_555 1_555
H3 C4 1_555 1_555
C5 C4 1_555 1_555
C6 C5 1_555 1_555
H4 C6 1_555 1_555
C7 C2 1_555 1_555
H5 C7 1_555 1_555
C8 C1 1_555 1_555
Br1A C5A 1_555 1_555
N1A N1 1_555 1_555
C2A C3A 1_555 1_555
C3A H2A 1_555 1_555
C4A C3A 1_555 1_555
H3A C4A 1_555 1_555
C5A C4A 1_555 1_555
C6A C5A 1_555 1_555
H4A C6A 1_555 1_555
C7A C2A 1_555 1_555
H5A C7A 1_555 1_555
C8A C1 1_555 1_555
C2 C8 1_555 1_555
C6 C7 1_555 1_555
N1A C8A 1_555 1_555
C2A C8A 1_555 1_555
C6A C7A 1_555 1_555

#END
