
#######################################################################
#
#                 Cambridge Crystallographic Data Centre
#                                CCDC 
#
#######################################################################
#
# If this CIF has been generated from an entry in the Cambridge 
# Structural Database, then it will include bibliographic, chemical, 
# crystal, experimental, refinement or atomic coordinate data resulting 
# from the CCDC's data processing and validation procedures.
#
#######################################################################

data_CECXEN
_chemical_formula_moiety         'C7 H12 Cl1 N1 O4 Si1'
_chemical_name_systematic        
1-Chloromethyl-2,8,9-trioxa-5-aza-1-silatricyclo(3.3.3.0^1,5^)undecan-3-one
_symmetry_cell_setting           monoclinic
_symmetry_space_group_name_H-M   'P 21/c'
_symmetry_Int_Tables_number      14
_space_group_name_Hall           '-P 2ybc'
loop_
_symmetry_equiv_pos_site_id
_symmetry_equiv_pos_as_xyz
1 x,y,z
2 -x,1/2+y,1/2-z
3 -x,-y,-z
4 x,1/2-y,1/2+z
_cell_length_a                   6.751(1)
_cell_length_b                   11.274(3)
_cell_length_c                   13.134(4)
_cell_angle_alpha                90
_cell_angle_beta                 100.390(3)
_cell_angle_gamma                90
_cell_volume                     983.248
_cell_formula_units_Z            4
loop_
_atom_site_label
_atom_site_type_symbol
_atom_site_fract_x
_atom_site_fract_y
_atom_site_fract_z
Si1 Si 0.96380 0.10330 0.18890
Cl1 Cl 0.57540 0.18550 0.04670
O1 O 0.81230 0.12500 0.27270
O2 O 1.05350 0.22820 0.13940
O3 O 1.08170 -0.02330 0.17970
O4 O 1.28060 0.37090 0.14810
N1 N 1.19550 0.13630 0.31370
C1 C 0.88920 0.13880 0.37970
C2 C 1.09450 0.19310 0.39190
C3 C 1.22250 0.28160 0.18370
C4 C 1.33580 0.21800 0.27630
C5 C 1.26910 -0.04960 0.24380
C6 C 1.28260 0.01820 0.34330
C7 C 0.76570 0.07180 0.07170
H1 H 0.88100 0.06600 0.41300
H2 H 0.79200 0.17000 0.41500
H3 H 1.16000 0.18700 0.45400
H4 H 1.08100 0.28900 0.37300
H5 H 1.39500 0.26900 0.32500
H6 H 1.44200 0.17600 0.24900
H7 H 1.28200 -0.12700 0.26000
H8 H 1.37800 -0.02900 0.21000
H9 H 1.42500 0.03000 0.37800
H10 H 1.19100 -0.01800 0.39300
H11 H 0.81000 0.06400 0.00200
H12 H 0.69100 0.00200 0.07900
loop_
_geom_bond_atom_site_label_1
_geom_bond_atom_site_label_2
_geom_bond_site_symmetry_1
_geom_bond_site_symmetry_2
Si1 O1 1_555 1_555
Cl1 C7 1_555 1_555
O1 C1 1_555 1_555
O2 Si1 1_555 1_555
O3 Si1 1_555 1_555
O4 C3 1_555 1_555
N1 Si1 1_555 1_555
C1 C2 1_555 1_555
C2 N1 1_555 1_555
C3 O2 1_555 1_555
C4 N1 1_555 1_555
C5 O3 1_555 1_555
C6 N1 1_555 1_555
C7 Si1 1_555 1_555
H1 C1 1_555 1_555
H2 C1 1_555 1_555
H3 C2 1_555 1_555
H4 C2 1_555 1_555
H5 C4 1_555 1_555
H6 C4 1_555 1_555
H7 C5 1_555 1_555
H8 C5 1_555 1_555
H9 C6 1_555 1_555
H10 C6 1_555 1_555
H11 C7 1_555 1_555
H12 C7 1_555 1_555
C3 C4 1_555 1_555
C5 C6 1_555 1_555

#END
