
#######################################################################
#
#                 Cambridge Crystallographic Data Centre
#                                CCDC 
#
#######################################################################
#
# If this CIF has been generated from an entry in the Cambridge 
# Structural Database, then it will include bibliographic, chemical, 
# crystal, experimental, refinement or atomic coordinate data resulting 
# from the CCDC's data processing and validation procedures.
#
#######################################################################

data_CEDKAZ
_chemical_name_common            'rotenone O-ethyl oxime'
_chemical_formula_moiety         'C25 H27 N1 O6'
_chemical_name_systematic        
N-Ethoxy-8,9-dimethoxy-2-(prop-1-en-2-yl)-1,2,12,12a-tetrahydrochromeno[3,4-b]furo[2,3-h]chromen-6(6aH)-imine
_symmetry_cell_setting           tetragonal
_symmetry_space_group_name_H-M   'P 43 21 2'
_symmetry_Int_Tables_number      96
_space_group_name_Hall           'P 4nw 2abw'
loop_
_symmetry_equiv_pos_site_id
_symmetry_equiv_pos_as_xyz
1 x,y,z
2 -x,-y,1/2+z
3 1/2-y,1/2+x,3/4+z
4 1/2+y,1/2-x,1/4+z
5 1/2-x,1/2+y,3/4-z
6 1/2+x,1/2-y,1/4-z
7 y,x,-z
8 -y,-x,1/2-z
_cell_length_a                   10.4829(3)
_cell_length_b                   10.4829(3)
_cell_length_c                   39.5758(18)
_cell_angle_alpha                90
_cell_angle_beta                 90
_cell_angle_gamma                90
_cell_volume                     4349.03
_exptl_crystal_colour            colorless
_exptl_crystal_description       block
_cell_formula_units_Z            8
loop_
_atom_site_label
_atom_site_type_symbol
_atom_site_fract_x
_atom_site_fract_y
_atom_site_fract_z
C1 C 0.9959(2) 0.9999(2) 0.13188(5)
H1 H 1.0042 1.0397 0.1104
C2 C 0.9174(2) 1.0547(2) 0.15580(5)
C3 C 0.9021(2) 0.9945(2) 0.18744(5)
C4 C 0.9674(2) 0.8827(2) 0.19397(5)
H2 H 0.9567 0.8410 0.2151
C5 C 1.0487(2) 0.8309(2) 0.16979(5)
C6 C 1.2034(2) 0.6705(2) 0.15714(5)
H3 H 1.2154 0.5786 0.1620
H4 H 1.2855 0.7142 0.1614
C7 C 1.1683(2) 0.68638(19) 0.12045(5)
H5 H 1.2372 0.6495 0.1059
C8 C 0.99629(19) 0.63190(19) 0.08425(5)
C9 C 0.8537(2) 0.5504(2) 0.04252(5)
C10 C 0.8771(2) 0.6518(2) 0.02079(5)
H6 H 0.8378 0.6569 -0.0008
C11 C 0.9599(2) 0.7447(2) 0.03201(5)
H7 H 0.9764 0.8160 0.0179
C12 C 1.10457(19) 0.8398(2) 0.07620(5)
C13 C 1.15155(19) 0.82721(19) 0.11218(5)
H8 H 1.2368 0.8696 0.1138
C14 C 1.06365(19) 0.88752(19) 0.13821(5)
C15 C 1.02125(19) 0.73784(19) 0.06368(5)
C16 C 0.9101(2) 0.5396(2) 0.07396(5)
C17 C 0.8635(2) 0.4195(2) 0.09079(5)
H9 H 0.8213 0.4383 0.1126
H10 H 0.9342 0.3586 0.0946
C18 C 0.7673(2) 0.3674(2) 0.06462(5)
H11 H 0.6795 0.3719 0.0744
C19 C 0.7913(3) 0.2348(2) 0.05234(6)
C20 C 0.6960(5) 0.1526(3) 0.05201(8)
H12 H 0.6138 0.1780 0.0595
H13 H 0.7097 0.0679 0.0443
C21 C 0.9237(4) 0.2052(4) 0.04011(8)
H14 H 0.9807 0.1949 0.0595
H15 H 0.9544 0.2752 0.0259
H16 H 0.9223 0.1260 0.0269
C22 C 0.7234(2) 1.1646(2) 0.14539(6)
H17 H 0.7015 1.1104 0.1261
H18 H 0.6897 1.2507 0.1417
H19 H 0.6859 1.1287 0.1660
C23 C 0.7878(3) 0.9812(3) 0.23917(6)
H20 H 0.7485 0.9006 0.2322
H21 H 0.7269 1.0305 0.2527
H22 H 0.8641 0.9635 0.2527
C24 C 1.2940(2) 1.0774(2) 0.04720(6)
H23 H 1.3324 1.1572 0.0559
H24 H 1.2457 1.0983 0.0264
C25 C 1.3978(3) 0.9834(3) 0.03895(8)
H25 H 1.4453 0.9626 0.0595
H26 H 1.4560 1.0209 0.0223
H27 H 1.3599 0.9056 0.0296
N1 N 1.13420(18) 0.93019(17) 0.05592(4)
O1 O 1.10879(15) 0.72065(15) 0.17944(4)
O2 O 1.05170(14) 0.61576(14) 0.11544(3)
O3 O 0.77427(15) 0.45209(15) 0.03490(4)
O4 O 0.85929(15) 1.17037(14) 0.14894(4)
O5 O 0.82286(17) 1.05307(18) 0.20979(4)
O6 O 1.20832(16) 1.02501(14) 0.07221(4)
loop_
_geom_bond_atom_site_label_1
_geom_bond_atom_site_label_2
_geom_bond_site_symmetry_1
_geom_bond_site_symmetry_2
C1 H1 1_555 1_555
C2 C1 1_555 1_555
C3 C2 1_555 1_555
C4 C3 1_555 1_555
H2 C4 1_555 1_555
C5 C4 1_555 1_555
C6 H3 1_555 1_555
H4 C6 1_555 1_555
C7 C6 1_555 1_555
H5 C7 1_555 1_555
C8 C15 1_555 1_555
C9 C10 1_555 1_555
C10 H6 1_555 1_555
C11 C10 1_555 1_555
H7 C11 1_555 1_555
C12 C13 1_555 1_555
C13 C7 1_555 1_555
H8 C13 1_555 1_555
C14 C1 1_555 1_555
C15 C11 1_555 1_555
C16 C8 1_555 1_555
C17 C16 1_555 1_555
H9 C17 1_555 1_555
H10 C17 1_555 1_555
C18 C17 1_555 1_555
H11 C18 1_555 1_555
C19 C18 1_555 1_555
C20 C19 1_555 1_555
H12 C20 1_555 1_555
H13 C20 1_555 1_555
C21 C19 1_555 1_555
H14 C21 1_555 1_555
H15 C21 1_555 1_555
H16 C21 1_555 1_555
C22 H17 1_555 1_555
H18 C22 1_555 1_555
H19 C22 1_555 1_555
C23 H20 1_555 1_555
H21 C23 1_555 1_555
H22 C23 1_555 1_555
C24 H23 1_555 1_555
H24 C24 1_555 1_555
C25 C24 1_555 1_555
H25 C25 1_555 1_555
H26 C25 1_555 1_555
H27 C25 1_555 1_555
N1 C12 1_555 1_555
O1 C5 1_555 1_555
O2 C7 1_555 1_555
O3 C9 1_555 1_555
O4 C2 1_555 1_555
O5 C3 1_555 1_555
O6 C24 1_555 1_555
C5 C14 1_555 1_555
C6 O1 1_555 1_555
C8 O2 1_555 1_555
C9 C16 1_555 1_555
C12 C15 1_555 1_555
C13 C14 1_555 1_555
C18 O3 1_555 1_555
C22 O4 1_555 1_555
C23 O5 1_555 1_555
N1 O6 1_555 1_555

#END
