
#######################################################################
#
#                 Cambridge Crystallographic Data Centre
#                                CCDC 
#
#######################################################################
#
# If this CIF has been generated from an entry in the Cambridge 
# Structural Database, then it will include bibliographic, chemical, 
# crystal, experimental, refinement or atomic coordinate data resulting 
# from the CCDC's data processing and validation procedures.
#
#######################################################################

data_CEDPEI
_chemical_formula_moiety         'C16 H18 O2'
_chemical_name_systematic        1,2-bis(4-methylphenoxy)ethane
_symmetry_cell_setting           monoclinic
_symmetry_space_group_name_H-M   'C 2/c'
_symmetry_Int_Tables_number      15
_space_group_name_Hall           '-C 2yn'
loop_
_symmetry_equiv_pos_site_id
_symmetry_equiv_pos_as_xyz
1 x,y,z
2 -x,y,1/2-z
3 1/2+x,1/2+y,z
4 1/2-x,1/2+y,1/2-z
5 -x,-y,-z
6 x,-y,1/2+z
7 1/2-x,1/2-y,-z
8 1/2+x,1/2-y,1/2+z
_cell_length_a                   27.173(5)
_cell_length_b                   5.5510(11)
_cell_length_c                   9.2780(19)
_cell_angle_alpha                90
_cell_angle_beta                 93.55(3)
_cell_angle_gamma                90
_cell_volume                     1396.78
_exptl_crystal_colour            colorless
_exptl_crystal_description       prism
_cell_formula_units_Z            4
_exptl_crystal_recrystallization_method ethanol
loop_
_atom_site_label
_atom_site_type_symbol
_atom_site_fract_x
_atom_site_fract_y
_atom_site_fract_z
O1 O 0.52863(6) 0.2044(3) 0.12559(15)
C1 C 0.65274(9) 0.1203(6) -0.0026(3)
H1 H 0.6793 0.0147 0.0075
C2 C 0.61155(9) 0.0757(5) 0.0739(2)
H2 H 0.6105 -0.0578 0.1342
C3 C 0.57211(9) 0.2313(5) 0.0597(2)
C4 C 0.57452(9) 0.4268(5) -0.0305(2)
H3 H 0.5479 0.5321 -0.0411
C5 C 0.61569(10) 0.4681(5) -0.1049(3)
H4 H 0.6166 0.6022 -0.1647
C6 C 0.65576(10) 0.3158(6) -0.0932(3)
C7 C 0.70126(10) 0.3646(6) -0.1759(3)
H5 H 0.7254 0.2418 -0.1539
H6 H 0.7147 0.5190 -0.1485
H7 H 0.6924 0.3637 -0.2777
C8 C 0.52487(8) 0.0048(5) 0.2210(2)
H8 H 0.5499 0.0169 0.2998
H9 H 0.5300 -0.1444 0.1696
O1A O 0.47137(6) 0.2044(3) 0.37441(15)
C1A C 0.34726(9) 0.1203(6) 0.5026(3)
H1A H 0.3207 0.0147 0.4925
C2A C 0.38845(9) 0.0757(5) 0.4261(2)
H2A H 0.3895 -0.0578 0.3658
C3A C 0.42789(9) 0.2313(5) 0.4403(2)
C4A C 0.42548(9) 0.4268(5) 0.5305(2)
H3A H 0.4521 0.5321 0.5411
C5A C 0.38431(10) 0.4681(5) 0.6049(3)
H4A H 0.3834 0.6022 0.6647
C6A C 0.34424(10) 0.3158(6) 0.5932(3)
C7A C 0.29874(10) 0.3646(6) 0.6759(3)
H5A H 0.2746 0.2418 0.6539
H6A H 0.2853 0.5190 0.6485
H7A H 0.3076 0.3637 0.7777
C8A C 0.47513(8) 0.0048(5) 0.2790(2)
H8A H 0.4501 0.0169 0.2002
H9A H 0.4700 -0.1444 0.3304
loop_
_geom_bond_atom_site_label_1
_geom_bond_atom_site_label_2
_geom_bond_site_symmetry_1
_geom_bond_site_symmetry_2
O1 C3 1_555 1_555
C1 H1 1_555 1_555
C2 C1 1_555 1_555
H2 C2 1_555 1_555
C3 C2 1_555 1_555
C4 C3 1_555 1_555
H3 C4 1_555 1_555
C5 C4 1_555 1_555
H4 C5 1_555 1_555
C6 C1 1_555 1_555
C7 C6 1_555 1_555
H5 C7 1_555 1_555
H6 C7 1_555 1_555
H7 C7 1_555 1_555
C8 O1 1_555 1_555
H8 C8 1_555 1_555
H9 C8 1_555 1_555
O1A C3A 1_555 1_555
C1A H1A 1_555 1_555
C2A C1A 1_555 1_555
H2A C2A 1_555 1_555
C3A C2A 1_555 1_555
C4A C3A 1_555 1_555
H3A C4A 1_555 1_555
C5A C4A 1_555 1_555
H4A C5A 1_555 1_555
C6A C1A 1_555 1_555
C7A C6A 1_555 1_555
H5A C7A 1_555 1_555
H6A C7A 1_555 1_555
H7A C7A 1_555 1_555
C8A C8 1_555 1_555
H8A C8A 1_555 1_555
H9A C8A 1_555 1_555
C5 C6 1_555 1_555
O1A C8A 1_555 1_555
C5A C6A 1_555 1_555

#END
