
#######################################################################
#
#                 Cambridge Crystallographic Data Centre
#                                CCDC 
#
#######################################################################
#
# If this CIF has been generated from an entry in the Cambridge 
# Structural Database, then it will include bibliographic, chemical, 
# crystal, experimental, refinement or atomic coordinate data resulting 
# from the CCDC's data processing and validation procedures.
#
#######################################################################

data_CEDQIN01
_chemical_formula_moiety         'C14 H8 F5 N1 O1'
_chemical_name_systematic        N-Benzyl-2,3,4,5,6-pentafluorobenzamide
_symmetry_cell_setting           monoclinic
_symmetry_space_group_name_H-M   'P 21/c'
_symmetry_Int_Tables_number      14
_space_group_name_Hall           '-P 2ybc'
loop_
_symmetry_equiv_pos_site_id
_symmetry_equiv_pos_as_xyz
1 x,y,z
2 -x,1/2+y,1/2-z
3 -x,-y,-z
4 x,1/2-y,1/2+z
_cell_length_a                   7.2085(3)
_cell_length_b                   22.9398(18)
_cell_length_c                   9.5452(5)
_cell_angle_alpha                90
_cell_angle_beta                 128.730(3)
_cell_angle_gamma                90
_cell_volume                     1231.32
_exptl_crystal_colour            colorless
_exptl_crystal_description       block
_chemical_melting_point          '145 deg.C'
_cell_formula_units_Z            4
_exptl_crystal_recrystallization_method 'diethyl ether/methanol'
loop_
_atom_site_label
_atom_site_type_symbol
_atom_site_fract_x
_atom_site_fract_y
_atom_site_fract_z
F1 F 0.6668(3) 0.69103(7) 1.0496(2)
F2 F 0.7177(3) 0.57466(7) 1.0486(2)
F3 F 0.3971(3) 0.51181(7) 0.7490(3)
F4 F 0.0198(3) 0.56581(7) 0.4501(2)
F5 F -0.0438(3) 0.68104(7) 0.45240(19)
O1 O 0.2694(3) 0.77270(7) 0.8757(2)
N1 N 0.2627(4) 0.78717(9) 0.6381(3)
H1 H 0.280(5) 0.7724(12) 0.567(4)
C1 C 0.3122(4) 0.68945(11) 0.7512(3)
C2 C 0.5030(4) 0.66072(11) 0.9006(3)
C3 C 0.5315(5) 0.60138(12) 0.9011(4)
C4 C 0.3697(5) 0.56964(11) 0.7489(4)
C5 C 0.1785(5) 0.59689(12) 0.5974(4)
C6 C 0.1504(5) 0.65627(11) 0.5993(3)
C7 C 0.2787(4) 0.75378(11) 0.7592(3)
C8 C 0.2358(5) 0.85013(11) 0.6330(3)
H2 H 0.3913 0.8686 0.6865
H3 H 0.1897 0.8609 0.7079
C9 C 0.0532(4) 0.87424(11) 0.4464(3)
C10 C -0.1263(5) 0.84050(11) 0.3027(3)
H4 H -0.1339 0.8000 0.3190
C11 C -0.2941(5) 0.86559(12) 0.1361(3)
H5 H -0.4149 0.8421 0.0386
C12 C -0.2872(5) 0.92459(13) 0.1107(4)
H6 H -0.4033 0.9417 -0.0037
C13 C -0.1105(5) 0.95853(12) 0.2526(4)
H7 H -0.1053 0.9991 0.2359
C14 C 0.0596(5) 0.93357(11) 0.4195(3)
H8 H 0.1813 0.9572 0.5163
loop_
_geom_bond_atom_site_label_1
_geom_bond_atom_site_label_2
_geom_bond_site_symmetry_1
_geom_bond_site_symmetry_2
F1 C2 1_555 1_555
F2 C3 1_555 1_555
F3 C4 1_555 1_555
F4 C5 1_555 1_555
F5 C6 1_555 1_555
O1 C7 1_555 1_555
N1 H1 1_555 1_555
C1 C2 1_555 1_555
C2 C3 1_555 1_555
C3 C4 1_555 1_555
C4 C5 1_555 1_555
C5 C6 1_555 1_555
C6 C1 1_555 1_555
C7 N1 1_555 1_555
C8 N1 1_555 1_555
H2 C8 1_555 1_555
H3 C8 1_555 1_555
C9 C8 1_555 1_555
C10 C9 1_555 1_555
H4 C10 1_555 1_555
C11 C10 1_555 1_555
H5 C11 1_555 1_555
C12 C11 1_555 1_555
H6 C12 1_555 1_555
C13 C12 1_555 1_555
H7 C13 1_555 1_555
C14 C9 1_555 1_555
H8 C14 1_555 1_555
C1 C7 1_555 1_555
C13 C14 1_555 1_555

#END
