
#######################################################################
#
#                 Cambridge Crystallographic Data Centre
#                                CCDC 
#
#######################################################################
#
# If this CIF has been generated from an entry in the Cambridge 
# Structural Database, then it will include bibliographic, chemical, 
# crystal, experimental, refinement or atomic coordinate data resulting 
# from the CCDC's data processing and validation procedures.
#
#######################################################################

data_CEDTAI
_chemical_formula_moiety         'C8 H8 Cl1 N1 O2'
_chemical_name_systematic        'Methyl 2-amino-5-chlorobenzoate'
_symmetry_cell_setting           monoclinic
_symmetry_space_group_name_H-M   'P 21'
_symmetry_Int_Tables_number      4
_space_group_name_Hall           'P 2yb'
loop_
_symmetry_equiv_pos_site_id
_symmetry_equiv_pos_as_xyz
1 x,y,z
2 -x,1/2+y,-z
_cell_length_a                   3.9480(8)
_cell_length_b                   9.0230(18)
_cell_length_c                   12.018(2)
_cell_angle_alpha                90
_cell_angle_beta                 94.10(3)
_cell_angle_gamma                90
_cell_volume                     427.019
_exptl_crystal_colour            colorless
_exptl_crystal_description       block
_chemical_melting_point          '343 K'
_cell_formula_units_Z            2
_exptl_crystal_recrystallization_method methanol
loop_
_atom_site_label
_atom_site_type_symbol
_atom_site_fract_x
_atom_site_fract_y
_atom_site_fract_z
Cl1 Cl 0.5983(3) 0.76879(13) 0.57288(9)
N1 N 0.1559(10) 0.5027(4) 0.9873(3)
H1 H 0.1791 0.5545 1.0474
H2 H 0.0700 0.4152 0.9888
O1 O 0.1109(8) 0.2663(4) 0.6830(2)
C1 C 0.2559(10) 0.5595(4) 0.8894(3)
O2 O -0.0279(9) 0.2648(4) 0.8588(2)
C2 C 0.3960(10) 0.7029(4) 0.8887(4)
H3 H 0.4190 0.7567 0.9548
C3 C 0.4982(9) 0.7643(5) 0.7937(3)
H4 H 0.5884 0.8595 0.7954
C4 C 0.4699(10) 0.6870(4) 0.6945(3)
C5 C 0.3416(10) 0.5457(4) 0.6914(3)
H5 H 0.3266 0.4932 0.6246
C6 C 0.2327(9) 0.4797(4) 0.7884(3)
C7 C 0.0929(10) 0.3288(4) 0.7827(3)
C8 C -0.0251(14) 0.1186(5) 0.6689(4)
H6 H 0.0020 0.0853 0.5941
H7 H -0.2619 0.1192 0.6822
H8 H 0.0942 0.0528 0.7208
loop_
_geom_bond_atom_site_label_1
_geom_bond_atom_site_label_2
_geom_bond_site_symmetry_1
_geom_bond_site_symmetry_2
Cl1 C4 1_555 1_555
N1 H1 1_555 1_555
H2 N1 1_555 1_555
O1 C7 1_555 1_555
C1 N1 1_555 1_555
O2 C7 1_555 1_555
C2 C1 1_555 1_555
H3 C2 1_555 1_555
C3 C2 1_555 1_555
H4 C3 1_555 1_555
C4 C3 1_555 1_555
C5 C4 1_555 1_555
H5 C5 1_555 1_555
C6 C1 1_555 1_555
C7 C6 1_555 1_555
C8 O1 1_555 1_555
H6 C8 1_555 1_555
H7 C8 1_555 1_555
H8 C8 1_555 1_555
C5 C6 1_555 1_555

#END
