
#######################################################################
#
#                 Cambridge Crystallographic Data Centre
#                                CCDC 
#
#######################################################################
#
# If this CIF has been generated from an entry in the Cambridge 
# Structural Database, then it will include bibliographic, chemical, 
# crystal, experimental, refinement or atomic coordinate data resulting 
# from the CCDC's data processing and validation procedures.
#
#######################################################################

data_CEDWOA
_chemical_formula_moiety         'C17 H13 N1 O2'
_chemical_name_systematic        3-acetyl-4-phenylquinolin-2(1H)-one
_symmetry_cell_setting           monoclinic
_symmetry_space_group_name_H-M   'P 21/c'
_symmetry_Int_Tables_number      14
_space_group_name_Hall           '-P 2ybc'
loop_
_symmetry_equiv_pos_site_id
_symmetry_equiv_pos_as_xyz
1 x,y,z
2 -x,1/2+y,1/2-z
3 -x,-y,-z
4 x,1/2-y,1/2+z
_cell_length_a                   12.6491(18)
_cell_length_b                   7.0985(10)
_cell_length_c                   15.060(2)
_cell_angle_alpha                90
_cell_angle_beta                 97.097(2)
_cell_angle_gamma                90
_cell_volume                     1341.87
_exptl_crystal_colour            colorless
_exptl_crystal_description       block
_cell_formula_units_Z            4
loop_
_atom_site_label
_atom_site_type_symbol
_atom_site_fract_x
_atom_site_fract_y
_atom_site_fract_z
O1 O 0.13294(9) 0.65268(18) 0.58948(8)
O2 O 0.36063(9) 0.50178(19) 0.49095(7)
N1 N 0.47795(10) 0.47998(18) 0.61754(9)
H1 H 0.5299 0.4803 0.5857
C1 C 0.13969(12) 0.3350(2) 0.75839(10)
H2 H 0.1454 0.2433 0.7151
C2 C 0.05184(13) 0.3355(2) 0.80479(11)
H3 H -0.0011 0.2449 0.7925
C3 C 0.21975(12) 0.4696(2) 0.77541(10)
C4 C 0.37742(12) 0.4867(2) 0.57407(10)
C5 C 0.44892(13) 0.4439(2) 0.85677(11)
H4 H 0.3960 0.4327 0.8942
C6 C 0.12183(14) 0.6043(2) 0.88779(11)
H5 H 0.1157 0.6950 0.9314
C7 C 0.42014(12) 0.4634(2) 0.76384(10)
C8 C 0.29178(11) 0.4833(2) 0.63021(10)
C9 C 0.04285(13) 0.4707(2) 0.86930(11)
H6 H -0.0164 0.4717 0.9003
C10 C 0.50258(12) 0.4726(2) 0.70911(11)
C11 C 0.60929(13) 0.4732(2) 0.74680(12)
H7 H 0.6631 0.4838 0.7103
C12 C 0.21025(13) 0.6041(2) 0.84175(10)
H8 H 0.2634 0.6937 0.8551
C13 C 0.18237(12) 0.5104(2) 0.57936(10)
C14 C 0.31065(12) 0.4725(2) 0.72093(10)
C15 C 0.63442(13) 0.4580(2) 0.83751(12)
H9 H 0.7054 0.4589 0.8625
C16 C 0.55386(14) 0.4411(3) 0.89291(12)
H10 H 0.5716 0.4280 0.9544
C17 C 0.14037(13) 0.3583(3) 0.51568(12)
H11 H 0.0654 0.3768 0.4986
H12 H 0.1520 0.2379 0.5442
H13 H 0.1767 0.3628 0.4634
loop_
_geom_bond_atom_site_label_1
_geom_bond_atom_site_label_2
_geom_bond_site_symmetry_1
_geom_bond_site_symmetry_2
O1 C13 1_555 1_555
O2 C4 1_555 1_555
N1 H1 1_555 1_555
C1 H2 1_555 1_555
C2 C1 1_555 1_555
H3 C2 1_555 1_555
C3 C1 1_555 1_555
C4 N1 1_555 1_555
C5 H4 1_555 1_555
C6 H5 1_555 1_555
C7 C5 1_555 1_555
C8 C4 1_555 1_555
C9 C2 1_555 1_555
H6 C9 1_555 1_555
C10 N1 1_555 1_555
C11 C10 1_555 1_555
H7 C11 1_555 1_555
C12 C3 1_555 1_555
H8 C12 1_555 1_555
C13 C8 1_555 1_555
C14 C3 1_555 1_555
C15 C11 1_555 1_555
H9 C15 1_555 1_555
C16 C5 1_555 1_555
H10 C16 1_555 1_555
C17 C13 1_555 1_555
H11 C17 1_555 1_555
H12 C17 1_555 1_555
H13 C17 1_555 1_555
C6 C9 1_555 1_555
C6 C12 1_555 1_555
C7 C10 1_555 1_555
C7 C14 1_555 1_555
C8 C14 1_555 1_555
C15 C16 1_555 1_555

#END
