
#######################################################################
#
#                 Cambridge Crystallographic Data Centre
#                                CCDC 
#
#######################################################################
#
# If this CIF has been generated from an entry in the Cambridge 
# Structural Database, then it will include bibliographic, chemical, 
# crystal, experimental, refinement or atomic coordinate data resulting 
# from the CCDC's data processing and validation procedures.
#
#######################################################################

data_CEDXAK
_chemical_formula_moiety         'C23 H18 N2 O1 S1'
_chemical_name_systematic        
1,2-Dihydro-5-methyl-2-phenyl-4-(9H-thioxanthen-9-yl)-3H-pyrazol-3-one
_symmetry_cell_setting           monoclinic
_symmetry_space_group_name_H-M   'C c'
_symmetry_Int_Tables_number      9
_space_group_name_Hall           'C -2yc'
loop_
_symmetry_equiv_pos_site_id
_symmetry_equiv_pos_as_xyz
1 x,y,z
2 1/2+x,1/2+y,z
3 x,-y,1/2+z
4 1/2+x,1/2-y,1/2+z
_cell_length_a                   17.675(8)
_cell_length_b                   12.421(3)
_cell_length_c                   11.374(7)
_cell_angle_alpha                90
_cell_angle_beta                 132.57(3)
_cell_angle_gamma                90
_cell_volume                     1838.96
_cell_formula_units_Z            4
loop_
_atom_site_label
_atom_site_type_symbol
_atom_site_fract_x
_atom_site_fract_y
_atom_site_fract_z
N1 N 0.79740 0.48090 0.87020
N2 N 0.84550 0.51280 1.02590
C1 C 0.84580 0.42820 1.10310
O1 O 0.87130 0.43450 1.23600
C2 C 0.80910 0.33530 0.99980
C3 C 0.77930 0.37330 0.85930
C4 C 0.73420 0.32090 0.70380
C5 C 0.79620 0.22510 1.04610
C6 C 0.74150 0.14540 0.90730
C7 C 0.63590 0.13290 0.80490
C8 C 0.58290 0.06850 0.66790
C9 C 0.63590 0.01610 0.63700
C10 C 0.74060 0.02410 0.73770
C11 C 0.79380 0.08920 0.87380
S1 S 0.92850 0.10330 0.99990
C12 C 0.96320 0.12580 1.18480
C13 C 1.06180 0.08780 1.32490
C14 C 1.09160 0.10730 1.46870
C15 C 1.02830 0.16210 1.48320
C16 C 0.93390 0.19750 1.34620
C17 C 0.90100 0.18200 1.19540
C18 C 0.86070 0.62490 1.06590
C19 C 0.95030 0.65730 1.21270
C20 C 0.96330 0.76590 1.24890
C21 C 0.89140 0.83620 1.14270
C22 C 0.79890 0.80640 0.99570
C23 C 0.78380 0.69760 0.95370
H1 H 0.78000 0.28000 0.72000
H2 H 0.71500 0.37200 0.61300
H3 H 0.67100 0.27800 0.64400
H4 H 0.75300 0.22500 1.08700
H5 H 0.59000 0.15600 0.83400
H6 H 0.51600 0.04200 0.59800
H7 H 0.60000 -0.02200 0.53200
H8 H 0.78400 -0.01600 0.72100
H9 H 1.09900 0.03900 1.30600
H10 H 1.14600 0.07700 1.55200
H11 H 1.05800 0.17800 1.61000
H12 H 0.88100 0.23500 1.36300
H13 H 1.01400 0.61200 1.28100
H14 H 1.03700 0.78400 1.35400
H15 H 0.90100 0.89700 1.16800
H16 H 0.73500 0.84900 0.90800
H17 H 0.70900 0.67400 0.83800
loop_
_geom_bond_atom_site_label_1
_geom_bond_atom_site_label_2
_geom_bond_site_symmetry_1
_geom_bond_site_symmetry_2
N1 N2 1_555 1_555
N2 C1 1_555 1_555
C1 O1 1_555 1_555
C2 C1 1_555 1_555
C3 N1 1_555 1_555
C4 C3 1_555 1_555
C5 C2 1_555 1_555
C6 C5 1_555 1_555
C7 C6 1_555 1_555
C8 C7 1_555 1_555
C9 C8 1_555 1_555
C10 C9 1_555 1_555
C11 C6 1_555 1_555
S1 C11 1_555 1_555
C12 S1 1_555 1_555
C13 C12 1_555 1_555
C14 C13 1_555 1_555
C15 C14 1_555 1_555
C16 C15 1_555 1_555
C17 C5 1_555 1_555
C18 N2 1_555 1_555
C19 C18 1_555 1_555
C20 C19 1_555 1_555
C21 C20 1_555 1_555
C22 C21 1_555 1_555
C23 C18 1_555 1_555
H1 C4 1_555 1_555
H2 C4 1_555 1_555
H3 C4 1_555 1_555
H4 C5 1_555 1_555
H5 C7 1_555 1_555
H6 C8 1_555 1_555
H7 C9 1_555 1_555
H8 C10 1_555 1_555
H9 C13 1_555 1_555
H10 C14 1_555 1_555
H11 C15 1_555 1_555
H12 C16 1_555 1_555
H13 C19 1_555 1_555
H14 C20 1_555 1_555
H15 C21 1_555 1_555
H16 C22 1_555 1_555
H17 C23 1_555 1_555
C2 C3 1_555 1_555
C10 C11 1_555 1_555
C12 C17 1_555 1_555
C16 C17 1_555 1_555
C22 C23 1_555 1_555

#END
