
#######################################################################
#
#                 Cambridge Crystallographic Data Centre
#                                CCDC 
#
#######################################################################
#
# If this CIF has been generated from an entry in the Cambridge 
# Structural Database, then it will include bibliographic, chemical, 
# crystal, experimental, refinement or atomic coordinate data resulting 
# from the CCDC's data processing and validation procedures.
#
#######################################################################

data_CEDYIW
_chemical_formula_moiety         'C23 H15 Cl1 N2 O2'
_chemical_name_systematic        
(4-(benzenecarbonyl)-3-phenyl-1H-pyrazol-1-yl)(4-chlorophenyl)methanone
_symmetry_cell_setting           triclinic
_symmetry_space_group_name_H-M   'P -1'
_symmetry_Int_Tables_number      2
_space_group_name_Hall           '-P 1'
loop_
_symmetry_equiv_pos_site_id
_symmetry_equiv_pos_as_xyz
1 x,y,z
2 -x,-y,-z
_cell_length_a                   8.1098(6)
_cell_length_b                   10.3956(10)
_cell_length_c                   11.5000(16)
_cell_angle_alpha                88.824(10)
_cell_angle_beta                 77.369(10)
_cell_angle_gamma                87.304(7)
_cell_volume                     944.959
_exptl_crystal_colour            colorless
_exptl_crystal_description       block
_cell_formula_units_Z            2
loop_
_atom_site_label
_atom_site_type_symbol
_atom_site_fract_x
_atom_site_fract_y
_atom_site_fract_z
C1 C 0.1897(11) 0.4388(8) -0.1460(7)
H1 H 0.1224 0.3694 -0.1199
C2 C 0.2187(13) 0.4798(11) -0.2638(8)
H2 H 0.1713 0.4363 -0.3175
C3 C 0.3136(13) 0.5812(12) -0.3025(8)
H3 H 0.3327 0.6052 -0.3825
C4 C 0.3844(11) 0.6512(10) -0.2240(8)
H4 H 0.4476 0.7226 -0.2503
C5 C 0.3572(10) 0.6107(9) -0.1057(8)
H5 H 0.4023 0.6558 -0.0518
C6 C 0.2647(9) 0.5048(7) -0.0675(7)
C7 C 0.2423(9) 0.4608(7) 0.0589(6)
C8 C 0.2178(9) 0.3333(7) 0.1067(6)
C9 C 0.2037(9) 0.3491(7) 0.2259(7)
H6 H 0.1872 0.2842 0.2836
C10 C 0.2390(10) 0.2064(7) 0.0479(7)
C11 C 0.1337(10) 0.1004(7) 0.1060(7)
C12 C -0.0251(11) 0.1269(9) 0.1771(7)
H7 H -0.0660 0.2116 0.1904
C13 C -0.1225(13) 0.0260(10) 0.2282(9)
H8 H -0.2294 0.0434 0.2757
C14 C -0.0638(14) -0.0975(9) 0.2097(8)
H9 H -0.1296 -0.1643 0.2458
C15 C 0.0927(15) -0.1248(8) 0.1379(9)
H10 H 0.1322 -0.2099 0.1250
C16 C 0.1913(12) -0.0255(8) 0.0846(8)
H11 H 0.2961 -0.0438 0.0346
C17 C 0.3816(10) 0.7257(8) 0.2888(7)
H12 H 0.4508 0.6794 0.2271
C18 C 0.4133(11) 0.8533(8) 0.3060(7)
H13 H 0.5048 0.8924 0.2575
C19 C 0.3072(11) 0.9204(7) 0.3959(8)
C20 C 0.1719(11) 0.8640(8) 0.4697(7)
H14 H 0.0996 0.9121 0.5286
C21 C 0.1445(11) 0.7366(8) 0.4558(7)
H15 H 0.0574 0.6962 0.5078
C22 C 0.2494(10) 0.6680(7) 0.3622(6)
C23 C 0.2166(10) 0.5293(8) 0.3577(6)
Cl1 Cl 0.3427(4) 1.0811(2) 0.4177(2)
N1 N 0.2180(8) 0.4750(6) 0.2457(5)
N2 N 0.2393(8) 0.5461(5) 0.1424(5)
O1 O 0.3458(9) 0.1901(6) -0.0432(6)
O2 O 0.1864(9) 0.4589(6) 0.4432(5)
loop_
_geom_bond_atom_site_label_1
_geom_bond_atom_site_label_2
_geom_bond_site_symmetry_1
_geom_bond_site_symmetry_2
C1 H1 1_555 1_555
C2 C1 1_555 1_555
H2 C2 1_555 1_555
C3 C2 1_555 1_555
H3 C3 1_555 1_555
C4 C3 1_555 1_555
H4 C4 1_555 1_555
C5 C4 1_555 1_555
H5 C5 1_555 1_555
C6 C1 1_555 1_555
C7 C6 1_555 1_555
C8 C7 1_555 1_555
C9 C8 1_555 1_555
H6 C9 1_555 1_555
C10 C8 1_555 1_555
C11 C10 1_555 1_555
C12 C11 1_555 1_555
H7 C12 1_555 1_555
C13 C12 1_555 1_555
H8 C13 1_555 1_555
C14 C13 1_555 1_555
H9 C14 1_555 1_555
C15 C14 1_555 1_555
H10 C15 1_555 1_555
C16 C11 1_555 1_555
H11 C16 1_555 1_555
C17 H12 1_555 1_555
C18 C17 1_555 1_555
H13 C18 1_555 1_555
C19 C18 1_555 1_555
C20 C19 1_555 1_555
H14 C20 1_555 1_555
C21 C20 1_555 1_555
H15 C21 1_555 1_555
C22 C17 1_555 1_555
C23 C22 1_555 1_555
Cl1 C19 1_555 1_555
N1 C9 1_555 1_555
N2 C7 1_555 1_555
O1 C10 1_555 1_555
O2 C23 1_555 1_555
C5 C6 1_555 1_555
C15 C16 1_555 1_555
C21 C22 1_555 1_555
C23 N1 1_555 1_555
N1 N2 1_555 1_555

#END
