
#######################################################################
#
#                 Cambridge Crystallographic Data Centre
#                                CCDC 
#
#######################################################################
#
# If this CIF has been generated from an entry in the Cambridge 
# Structural Database, then it will include bibliographic, chemical, 
# crystal, experimental, refinement or atomic coordinate data resulting 
# from the CCDC's data processing and validation procedures.
#
#######################################################################

data_CEFBOH
_chemical_compound_source        
'marine fungus Pseudallescheria boydii associated with the soft coral Lobophytum crassum'
_chemical_name_common            'pseuboydone A'
_chemical_formula_moiety         'C15 H22 O2'
_chemical_name_systematic        
(1R,1aS,4S,7R,7aS,7bS)-1-(hydroxymethyl)-1,4,7-trimethyl-1,1a,2,3,4,7,7a,7b-octahydro-6H-cyclopropa[e]azulen-6-one
_chemical_properties_biological  'cytotoxic activity'
_symmetry_cell_setting           orthorhombic
_symmetry_space_group_name_H-M   'P 21 21 21'
_symmetry_Int_Tables_number      19
_space_group_name_Hall           'P 2ac 2ab'
loop_
_symmetry_equiv_pos_site_id
_symmetry_equiv_pos_as_xyz
1 x,y,z
2 1/2-x,-y,1/2+z
3 1/2+x,1/2-y,-z
4 -x,1/2+y,1/2-z
_cell_length_a                   8.6810(2)
_cell_length_b                   8.7004(3)
_cell_length_c                   17.2976(5)
_cell_angle_alpha                90
_cell_angle_beta                 90
_cell_angle_gamma                90
_cell_volume                     1306.46
_exptl_crystal_colour            colorless
_cell_formula_units_Z            4
loop_
_atom_site_label
_atom_site_type_symbol
_atom_site_fract_x
_atom_site_fract_y
_atom_site_fract_z
O1 O 0.37929(16) -0.03905(15) 0.53974(8)
O2 O 0.30426(17) 0.78681(16) 0.67682(8)
H1 H 0.3258 0.8399 0.6377
C1 C 0.4441(2) 0.0797(2) 0.51979(10)
C2 C 0.5358(2) 0.1865(2) 0.57109(10)
H2 H 0.6449 0.1497 0.5694
C3 C 0.40087(19) 0.4432(2) 0.55156(9)
H3 H 0.3034 0.3879 0.5648
C4 C 0.3774(2) 0.5983(2) 0.51348(10)
H4 H 0.2667 0.6271 0.5066
C5 C 0.4789(2) 0.6455(2) 0.44692(10)
H5 H 0.5881 0.6379 0.4629
H6 H 0.4576 0.7541 0.4336
C6 C 0.4532(2) 0.5456(2) 0.37542(10)
H7 H 0.4858 0.6046 0.3293
H8 H 0.3415 0.5252 0.3703
C7 C 0.5392(2) 0.3902(2) 0.37547(10)
H9 H 0.6512 0.4157 0.3798
C8 C 0.50314(19) 0.2878(2) 0.44297(10)
C9 C 0.5314(2) 0.3396(2) 0.52596(9)
H10 H 0.6323 0.3943 0.5302
C10 C 0.4281(2) 0.5896(2) 0.59760(10)
C11 C 0.3055(2) 0.6274(2) 0.65647(10)
H11 H 0.2034 0.5988 0.6353
H12 H 0.3232 0.5653 0.7036
C12 C 0.5890(2) 0.6341(2) 0.62245(11)
H13 H 0.5851 0.7309 0.6514
H14 H 0.6542 0.6472 0.5767
H15 H 0.6320 0.5532 0.6554
C13 C 0.5201(3) 0.3086(2) 0.29815(11)
H16 H 0.5749 0.2102 0.2995
H17 H 0.5626 0.3729 0.2568
H18 H 0.4104 0.2902 0.2884
C14 C 0.4886(3) 0.1876(2) 0.65614(10)
H19 H 0.4962 0.0833 0.6772
H20 H 0.3821 0.2241 0.6607
H21 H 0.5570 0.2562 0.6851
C15 C 0.4477(2) 0.1438(2) 0.44151(10)
H22 H 0.4156 0.0910 0.3962
loop_
_geom_bond_atom_site_label_1
_geom_bond_atom_site_label_2
_geom_bond_site_symmetry_1
_geom_bond_site_symmetry_2
O1 C1 1_555 1_555
O2 H1 1_555 1_555
C1 C2 1_555 1_555
C2 H2 1_555 1_555
C3 H3 1_555 1_555
C4 C3 1_555 1_555
H4 C4 1_555 1_555
C5 C4 1_555 1_555
H5 C5 1_555 1_555
H6 C5 1_555 1_555
C6 C5 1_555 1_555
H7 C6 1_555 1_555
H8 C6 1_555 1_555
C7 C6 1_555 1_555
H9 C7 1_555 1_555
C8 C7 1_555 1_555
C9 C2 1_555 1_555
H10 C9 1_555 1_555
C10 C3 1_555 1_555
C11 O2 1_555 1_555
H11 C11 1_555 1_555
H12 C11 1_555 1_555
C12 C10 1_555 1_555
H13 C12 1_555 1_555
H14 C12 1_555 1_555
H15 C12 1_555 1_555
C13 C7 1_555 1_555
H16 C13 1_555 1_555
H17 C13 1_555 1_555
H18 C13 1_555 1_555
C14 C2 1_555 1_555
H19 C14 1_555 1_555
H20 C14 1_555 1_555
H21 C14 1_555 1_555
C15 C1 1_555 1_555
H22 C15 1_555 1_555
C3 C9 1_555 1_555
C4 C10 1_555 1_555
C8 C9 1_555 1_555
C8 C15 1_555 1_555
C10 C11 1_555 1_555

#END
