
#######################################################################
#
#                 Cambridge Crystallographic Data Centre
#                                CCDC 
#
#######################################################################
#
# If this CIF has been generated from an entry in the Cambridge 
# Structural Database, then it will include bibliographic, chemical, 
# crystal, experimental, refinement or atomic coordinate data resulting 
# from the CCDC's data processing and validation procedures.
#
#######################################################################

data_CEFDEZ
_chemical_formula_moiety         'C17 H10 O1 S2'
_chemical_name_systematic        
5-(dibenzo[b,d]thiophen-4-yl)thiophene-2-carbaldehyde
_symmetry_cell_setting           orthorhombic
_symmetry_space_group_name_H-M   'P 21 21 21'
_symmetry_Int_Tables_number      19
_space_group_name_Hall           'P 2ac 2ab'
loop_
_symmetry_equiv_pos_site_id
_symmetry_equiv_pos_as_xyz
1 x,y,z
2 1/2-x,-y,1/2+z
3 -x,1/2+y,1/2-z
4 1/2+x,1/2-y,-z
_cell_length_a                   6.3866(19)
_cell_length_b                   10.934(3)
_cell_length_c                   19.628(6)
_cell_angle_alpha                90
_cell_angle_beta                 90
_cell_angle_gamma                90
_cell_volume                     1370.64
_exptl_crystal_colour            yellow
_exptl_crystal_description       block
_cell_formula_units_Z            4
loop_
_atom_site_label
_atom_site_type_symbol
_atom_site_fract_x
_atom_site_fract_y
_atom_site_fract_z
C1 C 0.0837(4) 0.6386(2) 0.83955(12)
C2 C 0.1127(3) 0.7513(2) 0.87184(13)
C3 C 0.2891(3) 0.7753(2) 0.91222(12)
C4 C 0.4405(4) 0.6842(3) 0.92125(14)
H1 H 0.5593 0.6992 0.9474
C5 C 0.4107(4) 0.5728(3) 0.89103(15)
H2 H 0.5091 0.5113 0.8978
C6 C 0.2382(4) 0.5496(2) 0.85082(13)
H3 H 0.2238 0.4731 0.8307
C7 C 0.2861(4) 0.8970(2) 0.94154(12)
C8 C 0.1046(3) 0.9615(2) 0.92326(12)
C9 C 0.0681(5) 1.0799(2) 0.94634(13)
H4 H -0.0507 1.1230 0.9331
C10 C 0.2136(5) 1.1311(3) 0.98939(14)
H5 H 0.1914 1.2099 1.0057
C11 C 0.3914(5) 1.0690(3) 1.00904(15)
H6 H 0.4860 1.1057 1.0387
C12 C 0.4298(4) 0.9527(3) 0.98506(13)
H7 H 0.5511 0.9116 0.9978
C13 C -0.0948(4) 0.6073(2) 0.79622(12)
C14 C -0.1791(4) 0.4933(2) 0.78484(15)
H8 H -0.1299 0.4227 0.8059
C15 C -0.3452(4) 0.4936(3) 0.73888(15)
H9 H -0.4169 0.4232 0.7261
C16 C -0.3924(4) 0.6064(3) 0.71452(13)
C17 C -0.5588(5) 0.6406(3) 0.66840(15)
H10 H -0.6396 0.5771 0.6510
O1 O -0.6042(4) 0.7417(2) 0.65010(12)
S1 S -0.06101(9) 0.87569(6) 0.87114(3)
S2 S -0.22920(10) 0.71530(6) 0.74847(4)
loop_
_geom_bond_atom_site_label_1
_geom_bond_atom_site_label_2
_geom_bond_site_symmetry_1
_geom_bond_site_symmetry_2
C1 C2 1_555 1_555
C2 C3 1_555 1_555
C3 C4 1_555 1_555
C4 H1 1_555 1_555
C5 C4 1_555 1_555
H2 C5 1_555 1_555
C6 C1 1_555 1_555
H3 C6 1_555 1_555
C7 C3 1_555 1_555
C8 C7 1_555 1_555
C9 C8 1_555 1_555
H4 C9 1_555 1_555
C10 C9 1_555 1_555
H5 C10 1_555 1_555
C11 C10 1_555 1_555
H6 C11 1_555 1_555
C12 C7 1_555 1_555
H7 C12 1_555 1_555
C13 C1 1_555 1_555
C14 C13 1_555 1_555
H8 C14 1_555 1_555
C15 C14 1_555 1_555
H9 C15 1_555 1_555
C16 C15 1_555 1_555
C17 C16 1_555 1_555
H10 C17 1_555 1_555
O1 C17 1_555 1_555
S1 C2 1_555 1_555
S2 C13 1_555 1_555
C5 C6 1_555 1_555
C8 S1 1_555 1_555
C11 C12 1_555 1_555
C16 S2 1_555 1_555

#END
