
#######################################################################
#
#                 Cambridge Crystallographic Data Centre
#                                CCDC 
#
#######################################################################
#
# If this CIF has been generated from an entry in the Cambridge 
# Structural Database, then it will include bibliographic, chemical, 
# crystal, experimental, refinement or atomic coordinate data resulting 
# from the CCDC's data processing and validation procedures.
#
#######################################################################

data_CEFDID
_chemical_formula_moiety         'C31 H19 N3 S2,0.5(H2 O1)'
_chemical_name_systematic        
"4'-(5-(dibenzo[b,d]thiophen-4-yl)-2-thienyl)-2,2':6',2''-terpyridine hemihydrate"
_symmetry_cell_setting           tetragonal
_symmetry_space_group_name_H-M   'I -4'
_symmetry_Int_Tables_number      82
_space_group_name_Hall           'I -4'
loop_
_symmetry_equiv_pos_site_id
_symmetry_equiv_pos_as_xyz
1 x,y,z
2 -x,-y,z
3 y,-x,-z
4 -y,x,-z
5 1/2+x,1/2+y,1/2+z
6 1/2-x,1/2-y,1/2+z
7 1/2+y,1/2-x,1/2-z
8 1/2-y,1/2+x,1/2-z
_cell_length_a                   31.951(4)
_cell_length_b                   31.951(4)
_cell_length_c                   4.8301(8)
_cell_angle_alpha                90
_cell_angle_beta                 90
_cell_angle_gamma                90
_cell_volume                     4930.89
_exptl_crystal_colour            yellow
_exptl_crystal_description       block
_cell_formula_units_Z            8
loop_
_atom_site_label
_atom_site_type_symbol
_atom_site_fract_x
_atom_site_fract_y
_atom_site_fract_z
S1 S -0.00127(4) 0.28274(4) 0.1934(3)
S2 S -0.04674(4) 0.14749(4) -0.2309(3)
N1 N 0.12010(10) 0.33901(11) 0.8579(7)
C1 C 0.11948(13) 0.29722(13) 0.8937(9)
C2 C 0.09315(12) 0.27087(12) 0.7478(10)
H1 H 0.0935 0.2422 0.7812
C3 C 0.15034(13) 0.28013(14) 1.0987(9)
C4 C 0.09390(13) 0.35515(12) 0.6687(10)
C5 C 0.03744(12) 0.26110(14) 0.3899(9)
C6 C 0.17419(12) 0.30592(13) 1.2654(10)
H2 H 0.1715 0.3349 1.2543
C7 C 0.06710(13) 0.33072(14) 0.5112(9)
H3 H 0.0498 0.3431 0.3797
N2 N 0.15259(12) 0.23813(11) 1.1123(8)
C8 C 0.06608(13) 0.28763(14) 0.5500(9)
C9 C -0.06861(12) 0.19738(13) -0.2551(10)
C10 C -0.05544(13) 0.23358(14) -0.1101(10)
N3 N 0.07026(14) 0.41714(12) 0.4346(11)
C11 C 0.03683(14) 0.21830(14) 0.3672(10)
H4 H 0.0557 0.2007 0.4563
C12 C 0.09513(14) 0.40166(14) 0.6334(10)
C13 C 0.12014(15) 0.42663(15) 0.7927(13)
H5 H 0.1368 0.4150 0.9308
C14 C 0.18000(16) 0.22217(14) 1.2916(11)
H6 H 0.1820 0.1932 1.3034
C15 C -0.01938(13) 0.23477(14) 0.0812(10)
C16 C 0.20202(15) 0.28804(16) 1.4484(11)
H7 H 0.2183 0.3048 1.5632
C17 C -0.10169(14) 0.19880(16) -0.4397(10)
C18 C 0.07115(18) 0.45893(16) 0.3974(14)
H8 H 0.0539 0.4703 0.2616
C19 C -0.08267(15) 0.12744(16) -0.4710(11)
C20 C 0.00454(14) 0.20390(14) 0.1945(11)
H9 H -0.0001 0.1756 0.1603
C21 C -0.11130(15) 0.27059(16) -0.3450(11)
H10 H -0.1256 0.2956 -0.3744
C22 C -0.12335(15) 0.23588(16) -0.4872(11)
H11 H -0.1454 0.2369 -0.6125
C23 C -0.14010(15) 0.14708(18) -0.7618(12)
H12 H -0.1586 0.1671 -0.8295
C24 C -0.10946(15) 0.15826(16) -0.5678(10)
C25 C -0.07832(14) 0.26999(16) -0.1569(11)
H13 H -0.0715 0.2943 -0.0610
C26 C 0.20534(16) 0.24546(16) 1.4592(11)
H14 H 0.2244 0.2327 1.5777
C27 C 0.09579(17) 0.48576(17) 0.5467(14)
H15 H 0.0956 0.5144 0.5118
C28 C 0.12040(17) 0.46929(16) 0.7464(15)
H16 H 0.1375 0.4866 0.8522
C29 C -0.14265(18) 0.1068(2) -0.8503(13)
H17 H -0.1632 0.0994 -0.9775
C30 C -0.08507(19) 0.08635(18) -0.5630(14)
H18 H -0.0669 0.0659 -0.4977
C31 C -0.1156(2) 0.0772(2) -0.7556(17)
H19 H -0.1177 0.0500 -0.8226
O1 O 0.0000 0.0000 0.0000
O2 O 1.0000 0.0000 0.5000
H20? H -0.0031 0.0233 0.0828
H21? H 0.0256 -0.0052 -0.0345
H22? H 0.9989 0.0266 0.5014
H23? H 0.9951 -0.0093 0.6617
loop_
_geom_bond_atom_site_label_1
_geom_bond_atom_site_label_2
_geom_bond_site_symmetry_1
_geom_bond_site_symmetry_2
S1 C5 1_555 1_555
S2 C9 1_555 1_555
N1 C1 1_555 1_555
C1 C2 1_555 1_555
C2 H1 1_555 1_555
C3 C1 1_555 1_555
C4 N1 1_555 1_555
C5 C8 1_555 1_555
C6 C3 1_555 1_555
H2 C6 1_555 1_555
C7 C4 1_555 1_555
H3 C7 1_555 1_555
N2 C3 1_555 1_555
C8 C2 1_555 1_555
C9 C10 1_555 1_555
C10 C15 1_555 1_555
N3 C12 1_555 1_555
C11 C5 1_555 1_555
H4 C11 1_555 1_555
C12 C4 1_555 1_555
C13 C12 1_555 1_555
H5 C13 1_555 1_555
C14 N2 1_555 1_555
H6 C14 1_555 1_555
C15 S1 1_555 1_555
C16 C6 1_555 1_555
H7 C16 1_555 1_555
C17 C9 1_555 1_555
C18 N3 1_555 1_555
H8 C18 1_555 1_555
C19 S2 1_555 1_555
C20 C11 1_555 1_555
H9 C20 1_555 1_555
C21 H10 1_555 1_555
C22 C17 1_555 1_555
H11 C22 1_555 1_555
C23 H12 1_555 1_555
C24 C17 1_555 1_555
C25 C10 1_555 1_555
H13 C25 1_555 1_555
C26 C14 1_555 1_555
H14 C26 1_555 1_555
C27 C18 1_555 1_555
H15 C27 1_555 1_555
C28 C13 1_555 1_555
H16 C28 1_555 1_555
C29 C23 1_555 1_555
H17 C29 1_555 1_555
C30 C19 1_555 1_555
H18 C30 1_555 1_555
C31 C29 1_555 1_555
H19 C31 1_555 1_555
C7 C8 1_555 1_555
C15 C20 1_555 1_555
C16 C26 1_555 1_555
C19 C24 1_555 1_555
C21 C22 1_555 1_555
C21 C25 1_555 1_555
C23 C24 1_555 1_555
C27 C28 1_555 1_555
C30 C31 1_555 1_555

#END
