
#######################################################################
#
#                 Cambridge Crystallographic Data Centre
#                                CCDC 
#
#######################################################################
#
# If this CIF has been generated from an entry in the Cambridge 
# Structural Database, then it will include bibliographic, chemical, 
# crystal, experimental, refinement or atomic coordinate data resulting 
# from the CCDC's data processing and validation procedures.
#
#######################################################################

data_CEFGAW
_chemical_formula_moiety         
'C111 H113 N21 O6 2+,O4 S1 2-,2(C2 H3 N1),C5 H12'
_chemical_name_systematic        
'1^4^,2^3^,14^4^,15^3^,27^4^,28^3^-Hexamethyl-1^3^,2^4^,14^3^,15^4^,27^3^,28^4^-hexa-n-propyl-5,11,18,24,31,37(1,2)-hexabenzena-8,21,34(2,6)-tripyridina-1,2,14,15,27,28(2,5)-hexapyrrola-6,10,17,19,23,25,30,32,36,38-deca-aza-4,12-diazoniacyclononatriacontaphane-3,12,16,25,29,38-hexaene-7,9,20,22,33,35-hexaone sulfate acetonitrile n-pentane solvate'
_symmetry_cell_setting           triclinic
_symmetry_space_group_name_H-M   'P -1'
_symmetry_Int_Tables_number      2
_space_group_name_Hall           '-P 1'
loop_
_symmetry_equiv_pos_site_id
_symmetry_equiv_pos_as_xyz
1 x,y,z
2 -x,-y,-z
_cell_length_a                   18.8891(2)
_cell_length_b                   23.7914(3)
_cell_length_c                   25.5253(4)
_cell_angle_alpha                77.983(1)
_cell_angle_beta                 84.781(1)
_cell_angle_gamma                84.019(1)
_cell_volume                     11130.2
_exptl_crystal_colour            orange
_exptl_crystal_description       prisms
_cell_formula_units_Z            4
loop_
_atom_site_label
_atom_site_type_symbol
_atom_site_fract_x
_atom_site_fract_y
_atom_site_fract_z
O5 O 0.01307(14) 0.56165(11) 0.32493(11)
O6 O 0.18186(15) 0.80741(12) 0.32135(11)
O7 O -0.41421(11) 0.63220(9) 0.19325(10)
O8 O -0.41490(12) 0.84993(10) 0.33972(11)
O9 O 0.04112(12) 0.71808(9) -0.05307(10)
O10 O -0.15820(11) 0.95291(9) 0.02944(9)
N1 N 0.22436(14) 0.83279(11) 0.08543(11)
H1 H 0.1898 0.8160 0.1081
N2 N 0.26275(14) 0.70788(11) 0.11996(10)
H2 H 0.2150 0.7150 0.1208
N3 N 0.19890(15) 0.60169(11) 0.17477(11)
N4 N 0.09583(16) 0.59283(13) 0.25761(13)
H3 H 0.1118 0.6257 0.2380
N5 N 0.10154(15) 0.68931(13) 0.29600(11)
N6 N 0.19797(14) 0.76598(11) 0.24804(12)
H4 H 0.1870 0.7377 0.2324
N7 N 0.15497(13) 0.87781(10) 0.20189(10)
N8 N 0.00736(12) 0.90987(10) 0.20182(10)
H5 H 0.0198 0.8796 0.1858
N9 N -0.10917(13) 0.85815(10) 0.17738(10)
H6 H -0.0693 0.8343 0.1837
N10 N -0.22939(13) 0.76785(10) 0.13918(10)
N11 N -0.33605(13) 0.70146(11) 0.17444(11)
H7 H -0.3313 0.7370 0.1799
N12 N -0.39628(13) 0.74591(10) 0.25816(11)
N13 N -0.31617(13) 0.80206(11) 0.30579(11)
H8 H -0.3043 0.7714 0.2902
N14 N -0.19045(13) 0.74755(10) 0.29108(10)
N15 N -0.07697(13) 0.65165(10) 0.22178(10)
H9 H -0.0379 0.6710 0.2119
N16 N 0.00628(12) 0.61117(10) 0.13727(10)
H10 H 0.0057 0.6494 0.1357
N17 N 0.11341(13) 0.65990(10) 0.05744(10)
H11 H 0.0829 0.6838 0.0736
N18 N 0.08761(13) 0.77045(10) -0.00208(11)
H12 H 0.0793 0.7989 0.0166
N19 N -0.04033(13) 0.83427(10) 0.00474(10)
N20 N -0.04225(13) 0.92667(10) 0.04990(10)
H13 H -0.0083 0.8971 0.0504
N21 N 0.09751(12) 0.92578(10) 0.07982(10)
H14 H 0.0842 0.8901 0.0934
C1 C 0.22006(17) 0.88984(13) 0.05728(14)
C2 C 0.28478(18) 0.89683(15) 0.02538(14)
C3 C 0.32656(17) 0.84522(15) 0.03410(14)
C4 C 0.28919(18) 0.80602(15) 0.07299(13)
C5 C 0.31209(18) 0.74751(14) 0.09875(13)
C6 C 0.37992(17) 0.72103(14) 0.10692(14)
C7 C 0.37270(18) 0.66255(14) 0.13222(14)
C8 C 0.29936(19) 0.65597(15) 0.13959(14)
C9 C 0.2653(2) 0.60413(14) 0.16419(14)
H15 H 0.2946 0.5701 0.1725
C10 C 0.17613(19) 0.54613(16) 0.19782(16)
C11 C 0.20488(19) 0.49711(16) 0.18023(16)
H16 H 0.2397 0.5001 0.1518
C12 C 0.1811(2) 0.44303(16) 0.20354(18)
H17 H 0.2015 0.4099 0.1922
C13 C 0.1273(2) 0.44045(18) 0.24461(19)
H18 H 0.1112 0.4049 0.2608
C14 C 0.0969(2) 0.48845(17) 0.26213(16)
H19 H 0.0603 0.4857 0.2892
C15 C 0.1212(2) 0.54205(17) 0.23897(16)
C16 C 0.0505(2) 0.59898(18) 0.30037(17)
C17 C 0.0500(2) 0.65523(17) 0.31755(16)
C18 C -0.0003(2) 0.66739(18) 0.35786(17)
H20 H -0.0368 0.6436 0.3707
C19 C 0.0041(2) 0.71632(19) 0.37756(17)
H21 H -0.0284 0.7255 0.4048
C20 C 0.0576(2) 0.75099(17) 0.35737(16)
H22 H 0.0622 0.7838 0.3708
C21 C 0.1053(2) 0.73589(17) 0.31638(16)
C22 C 0.1649(2) 0.77349(17) 0.29572(17)
C23 C 0.25170(19) 0.80412(14) 0.22218(13)
C24 C 0.32190(19) 0.78416(15) 0.22017(14)
H23 H 0.3353 0.7453 0.2329
C25 C 0.37312(18) 0.82165(16) 0.19831(14)
H24 H 0.4211 0.8081 0.1969
C26 C 0.35110(19) 0.87970(16) 0.17903(14)
H25 H 0.3849 0.9054 0.1644
C27 C 0.28002(18) 0.89967(15) 0.18084(13)
H26 H 0.2661 0.9385 0.1683
C28 C 0.22933(17) 0.86141(13) 0.20201(13)
C29 C 0.12796(18) 0.91809(13) 0.22626(13)
H27 H 0.1572 0.9360 0.2440
C30 C 0.05357(19) 0.93561(14) 0.22660(13)
C31 C 0.0133(2) 0.97920(14) 0.24770(14)
C32 C -0.05767(18) 0.98057(14) 0.23421(14)
C33 C -0.06014(16) 0.93695(14) 0.20577(13)
C34 C -0.11771(18) 0.91399(13) 0.18452(13)
C35 C -0.18591(18) 0.93629(13) 0.16872(13)
C36 C -0.21810(17) 0.89273(14) 0.15289(13)
C37 C -0.16964(16) 0.84415(14) 0.15882(13)
C38 C -0.17144(17) 0.78814(14) 0.14736(12)
H28 H -0.1286 0.7654 0.1449
C39 C -0.22382(19) 0.71349(14) 0.12407(14)
C40 C -0.1668(2) 0.69329(16) 0.09246(14)
H29 H -0.1279 0.7150 0.0818
C41 C -0.1668(2) 0.64114(17) 0.07694(15)
H30 H -0.1283 0.6274 0.0563
C42 C -0.2253(2) 0.60894(17) 0.09228(16)
H31 H -0.2256 0.5739 0.0817
C43 C -0.2823(2) 0.62808(16) 0.12367(15)
H32 H -0.3210 0.6060 0.1336
C44 C -0.28193(18) 0.68019(14) 0.13983(14)
C45 C -0.39390(17) 0.67694(14) 0.20059(14)
C46 C -0.43231(18) 0.70847(13) 0.24118(14)
C47 C -0.50030(19) 0.69644(15) 0.26108(15)
H33 H -0.5236 0.6696 0.2489
C48 C -0.53288(19) 0.72491(17) 0.30060(16)
H34 H -0.5789 0.7177 0.3148
C49 C -0.4967(2) 0.76381(16) 0.31838(14)
H35 H -0.5180 0.7837 0.3443
C50 C -0.42923(19) 0.77247(14) 0.29667(14)
C51 C -0.38658(18) 0.81282(14) 0.31645(14)
C52 C -0.25639(19) 0.83023(15) 0.31457(14)
C53 C -0.2626(2) 0.88280(15) 0.33087(14)
H36 H -0.3072 0.9018 0.3370
C54 C -0.2007(2) 0.90649(15) 0.33760(14)
H37 H -0.2046 0.9412 0.3493
C55 C -0.1345(2) 0.87969(15) 0.32834(14)
H38 H -0.0938 0.8965 0.3330
C56 C -0.12871(19) 0.82791(15) 0.31161(13)
H39 H -0.0839 0.8099 0.3044
C57 C -0.18929(19) 0.80199(14) 0.30499(13)
C58 C -0.13558(16) 0.72431(13) 0.26789(12)
H40 H -0.0946 0.7440 0.2607
C59 C -0.13466(16) 0.66959(14) 0.25224(13)
C60 C -0.18412(17) 0.62863(14) 0.25873(14)
C61 C -0.15431(17) 0.58505(14) 0.23152(14)
C62 C -0.08721(17) 0.59975(13) 0.20897(14)
C63 C -0.03698(17) 0.57542(14) 0.17167(14)
C64 C -0.01957(18) 0.51921(14) 0.16207(14)
C65 C 0.03376(18) 0.52222(13) 0.12079(14)
C66 C 0.05010(16) 0.57990(14) 0.10547(13)
C67 C 0.10151(17) 0.60441(13) 0.06840(13)
H41 H 0.1307 0.5802 0.0497
C68 C 0.16930(17) 0.68445(14) 0.02279(13)
C69 C 0.23546(18) 0.65421(14) 0.01764(13)
H42 H 0.2436 0.6165 0.0365
C70 C 0.28990(19) 0.68028(15) -0.01536(14)
H43 H 0.3341 0.6599 -0.0195
C71 C 0.27867(19) 0.73706(16) -0.04271(14)
H44 H 0.3154 0.7551 -0.0644
C72 C 0.21196(19) 0.76696(15) -0.03756(14)
H45 H 0.2041 0.8049 -0.0559
C73 C 0.15748(16) 0.74079(14) -0.00509(14)
C74 C 0.03328(18) 0.75543(13) -0.02666(13)
C75 C -0.03776(18) 0.78919(13) -0.01920(13)
C76 C -0.0969(2) 0.77304(15) -0.03857(14)
H46 H -0.0932 0.7420 -0.0559
C77 C -0.1613(2) 0.80371(17) -0.03179(15)
H47 H -0.2020 0.7930 -0.0437
C78 C -0.16483(19) 0.85119(16) -0.00728(15)
H48 H -0.2079 0.8728 -0.0024
C79 C -0.10283(17) 0.86477(14) 0.00974(13)
C80 C -0.10436(16) 0.91935(14) 0.03135(13)
C81 C -0.02326(17) 0.97412(13) 0.06787(13)
C82 C -0.07065(18) 1.02250(14) 0.07183(13)
H49 H -0.1171 1.0240 0.0619
C83 C -0.0492(2) 1.06829(15) 0.09058(14)
H50 H -0.0810 1.1004 0.0929
C84 C 0.0193(2) 1.06738(15) 0.10521(14)
H51 H 0.0329 1.0982 0.1180
C85 C 0.06745(19) 1.02044(15) 0.10155(13)
H52 H 0.1138 1.0196 0.1115
C86 C 0.04648(17) 0.97425(13) 0.08263(13)
C87 C 0.16313(16) 0.93144(13) 0.05803(13)
H53 H 0.1718 0.9688 0.0409
C88 C 0.3048(2) 0.95277(15) -0.01041(16)
H54 H 0.2629 0.9743 -0.0251
H55 H 0.3375 0.9447 -0.0395
C89 C 0.3440(3) 0.9895(2) 0.0226(3)
H58 H 0.3728 0.9625 0.0471
H59 H 0.3056 1.0052 0.0441
C90 C 0.3853(5) 1.0356(4) 0.0022(4)
H60 H 0.4022 1.0529 0.0289
H61 H 0.4253 1.0220 -0.0193
H62 H 0.3552 1.0637 -0.0204
C92 C 0.39505(17) 0.83211(15) 0.00082(15)
H66 H 0.4037 0.7910 0.0048
H67 H 0.4347 0.8466 0.0132
H68 H 0.3913 0.8490 -0.0365
C93 C 0.44973(16) 0.74795(15) 0.09954(14)
H69 H 0.4428 0.7876 0.0817
H70 H 0.4672 0.7458 0.1341
H71 H 0.4838 0.7275 0.0784
C94 C 0.43214(17) 0.61704(15) 0.14777(16)
H72 H 0.4150 0.5892 0.1779
H73 H 0.4704 0.6344 0.1588
C95 C 0.4580(3) 0.5854(2) 0.1031(2)
H76 H 0.4716 0.6136 0.0720
H77 H 0.4185 0.5674 0.0947
C96 C 0.5167(3) 0.5436(3) 0.1202(3)
H78 H 0.5344 0.5244 0.0915
H79 H 0.5546 0.5620 0.1306
H80 H 0.4992 0.5160 0.1503
C98 C 0.06744(17) 0.47351(13) 0.09589(14)
H84 H 0.0879 0.4437 0.1231
H85 H 0.1049 0.4871 0.0699
C99 C 0.0133(2) 0.44851(16) 0.06812(16)
H86 H -0.0116 0.4794 0.0444
H87 H -0.0208 0.4303 0.0948
C100 C 0.0480(2) 0.40425(18) 0.03668(18)
H88 H 0.0124 0.3896 0.0200
H89 H 0.0820 0.4220 0.0096
H90 H 0.0721 0.3731 0.0607
C101 C -0.04643(17) 0.46481(12) 0.19525(14)
H91 H -0.0263 0.4329 0.1795
H92 H -0.0327 0.4591 0.2314
H93 H -0.0975 0.4673 0.1955
C102 C -0.19207(17) 0.53508(13) 0.22448(14)
H94 H -0.1609 0.5113 0.2046
H95 H -0.2056 0.5128 0.2592
H96 H -0.2340 0.5490 0.2054
C103 C -0.25743(16) 0.63193(14) 0.28731(13)
H97 H -0.2883 0.6134 0.2696
H98 H -0.2758 0.6716 0.2842
C104 C -0.26124(18) 0.60374(15) 0.34611(14)
H99 H -0.2277 0.6199 0.3636
H100 H -0.2476 0.5632 0.3496
C105 C -0.33548(18) 0.61248(17) 0.37387(15)
H101 H -0.3350 0.5942 0.4111
H102 H -0.3497 0.6529 0.3708
H103 H -0.3686 0.5953 0.3569
C106 C -0.29023(16) 0.89797(14) 0.13306(14)
H104 H -0.2906 0.8720 0.1089
H105 H -0.3011 0.9366 0.1136
C107 C -0.34890(17) 0.88322(15) 0.17737(15)
H106 H -0.3481 0.9091 0.2016
H107 H -0.3378 0.8446 0.1967
C108 C -0.42327(18) 0.88768(18) 0.15756(17)
H108 H -0.4579 0.8784 0.1873
H109 H -0.4345 0.9264 0.1386
H110 H -0.4241 0.8615 0.1337
C109 C -0.21839(17) 0.99817(13) 0.16342(14)
H111 H -0.1872 1.0205 0.1768
H112 H -0.2249 1.0142 0.1263
H113 H -0.2638 0.9988 0.1837
C110 C -0.11822(17) 1.02118(14) 0.25111(15)
H114 H -0.1616 1.0145 0.2374
H115 H -0.1239 1.0146 0.2896
H116 H -0.1075 1.0603 0.2371
C111 C 0.03989(19) 1.01460(14) 0.28362(15)
H117 H 0.0183 1.0534 0.2745
H118 H 0.0907 1.0156 0.2772
C112 C 0.0214(2) 0.98956(16) 0.34497(15)
H119 H -0.0292 0.9871 0.3510
H120 H 0.0348 1.0149 0.3665
C113 C 0.0590(2) 0.92983(17) 0.36312(16)
H121 H 0.0466 0.9151 0.4004
H122 H 0.0450 0.9044 0.3420
H123 H 0.1096 0.9324 0.3576
S2 S 0.40619(5) 0.24833(4) 0.37356(4)
O11 O 0.44403(11) 0.28544(8) 0.39988(8)
O12 O 0.43744(11) 0.25175(9) 0.31822(9)
O13 O 0.32934(11) 0.26650(9) 0.37514(9)
O14 O 0.41722(11) 0.18812(8) 0.40384(9)
O15 O 0.38554(13) 0.49119(10) 0.22363(10)
O16 O 0.28210(16) 0.22683(11) 0.20182(11)
O17 O 0.87710(12) 0.38823(9) 0.31271(10)
O18 O 0.86679(12) 0.17511(9) 0.16016(10)
O19 O 0.44022(12) 0.28915(9) 0.56139(10)
O20 O 0.64355(11) 0.06072(9) 0.47120(9)
N22 N 0.24916(14) 0.16115(11) 0.43733(11)
H124 H 0.2789 0.1829 0.4140
N23 N 0.18581(15) 0.28518(12) 0.41738(11)
H125 H 0.2337 0.2850 0.4134
N24 N 0.22216(17) 0.40413(12) 0.37500(12)
N25 N 0.31349(16) 0.44015(12) 0.28949(13)
H126 H 0.3050 0.4037 0.3051
N26 N 0.33232(15) 0.34974(13) 0.24025(12)
N27 N 0.25499(15) 0.25817(11) 0.27996(13)
H127 H 0.2630 0.2839 0.2996
N28 N 0.30081(13) 0.14339(11) 0.31363(11)
N29 N 0.44925(12) 0.11615(10) 0.30302(10)
H128 H 0.4372 0.1443 0.3218
N30 N 0.56488(13) 0.17053(10) 0.32372(10)
H129 H 0.5242 0.1937 0.3190
N31 N 0.68423(13) 0.26214(10) 0.36131(10)
N32 N 0.78770(13) 0.32790(11) 0.32281(11)
H130 H 0.7776 0.2955 0.3132
N33 N 0.85056(13) 0.28085(11) 0.24113(11)
N34 N 0.76782(13) 0.22688(11) 0.19232(11)
H131 H 0.7565 0.2572 0.2085
N35 N 0.64186(13) 0.28277(10) 0.20634(10)
N36 N 0.52513(13) 0.36588(10) 0.28782(10)
H132 H 0.4904 0.3424 0.3005
N37 N 0.44717(12) 0.40132(10) 0.37914(10)
H133 H 0.4527 0.3627 0.3827
N38 N 0.35489(13) 0.34728(10) 0.46741(10)
H134 H 0.3891 0.3255 0.4521
N39 N 0.39088(13) 0.23319(10) 0.51533(10)
H135 H 0.3986 0.2047 0.4966
N40 N 0.52106(13) 0.17454(10) 0.50087(10)
N41 N 0.52669(13) 0.08447(10) 0.45204(10)
H136 H 0.4917 0.1132 0.4518
N42 N 0.38564(12) 0.07912(10) 0.42656(10)
H137 H 0.3933 0.1161 0.4124
C114 C 0.26481(17) 0.10286(14) 0.46100(14)
C115 C 0.20558(19) 0.08668(15) 0.49713(14)
C116 C 0.15594(17) 0.13413(16) 0.49513(14)
C117 C 0.18329(19) 0.17979(15) 0.45594(14)
C118 C 0.14880(19) 0.23768(15) 0.43654(14)
C119 C 0.07616(19) 0.25564(17) 0.43410(15)
C120 C 0.07085(19) 0.31525(16) 0.41503(15)
C121 C 0.1387(2) 0.33246(16) 0.40510(14)
C122 C 0.1583(2) 0.38920(16) 0.38588(14)
H138 H 0.1218 0.4186 0.3795
C123 C 0.2286(2) 0.46437(17) 0.35872(16)
C124 C 0.1903(2) 0.50553(17) 0.38414(16)
H139 H 0.1586 0.4932 0.4133
C125 C 0.1975(2) 0.56373(18) 0.36641(18)
H140 H 0.1710 0.5905 0.3838
C126 C 0.2450(2) 0.58155(17) 0.32326(18)
H141 H 0.2496 0.6207 0.3107
C127 C 0.2860(2) 0.54163(16) 0.29774(16)
H142 H 0.3188 0.5541 0.2694
C128 C 0.2777(2) 0.48319(16) 0.31542(16)
C129 C 0.3587(2) 0.44604(17) 0.24497(16)
C130 C 0.3744(2) 0.39276(16) 0.22218(16)
C131 C 0.4281(2) 0.39142(18) 0.18149(17)
H143 H 0.4563 0.4221 0.1705
C132 C 0.4388(2) 0.34431(19) 0.15769(17)
H144 H 0.4757 0.3418 0.1313
C133 C 0.3949(2) 0.30000(17) 0.17485(16)
H145 H 0.3998 0.2680 0.1588
C134 C 0.3426(2) 0.30508(16) 0.21595(16)
C135 C 0.2913(2) 0.25924(16) 0.23252(18)
C136 C 0.20336(19) 0.21686(14) 0.30059(14)
C137 C 0.1323(2) 0.23496(16) 0.30381(15)
H146 H 0.1176 0.2740 0.2936
C138 C 0.08165(19) 0.19557(15) 0.32155(15)
H147 H 0.0333 0.2078 0.3232
C139 C 0.1040(2) 0.13781(16) 0.33650(15)
H148 H 0.0707 0.1111 0.3491
C140 C 0.1764(2) 0.11977(15) 0.33284(14)
H149 H 0.1916 0.0808 0.3427
C141 C 0.22651(17) 0.15885(13) 0.31495(14)
C142 C 0.32683(18) 0.10603(13) 0.28612(13)
H150 H 0.2964 0.0882 0.2693
C143 C 0.40173(19) 0.09021(14) 0.28055(14)
C144 C 0.4412(2) 0.04934(14) 0.25499(14)
C145 C 0.51438(19) 0.05024(14) 0.26374(14)
C146 C 0.51742(17) 0.09296(14) 0.29350(14)
C147 C 0.57574(18) 0.11628(13) 0.31313(13)
C148 C 0.64529(18) 0.09506(13) 0.32671(13)
C149 C 0.67600(17) 0.13765(14) 0.34480(13)
C150 C 0.62519(17) 0.18481(14) 0.34288(13)
C151 C 0.62663(17) 0.24041(13) 0.35548(12)
H151 H 0.5834 0.2620 0.3602
C152 C 0.67816(19) 0.31618(14) 0.37596(14)
C153 C 0.62305(19) 0.33771(15) 0.40734(14)
H152 H 0.5848 0.3157 0.4196
C154 C 0.6228(2) 0.39116(16) 0.42112(14)
H153 H 0.5843 0.4050 0.4416
C155 C 0.6792(2) 0.42343(16) 0.40422(15)
H154 H 0.6795 0.4589 0.4140
C156 C 0.7357(2) 0.40401(16) 0.37231(15)
H155 H 0.7741 0.4262 0.3612
C157 C 0.73482(18) 0.35030(15) 0.35815(14)
C158 C 0.85043(18) 0.34725(14) 0.30160(14)
C159 C 0.88918(19) 0.31404(14) 0.26214(14)
C160 C 0.9613(2) 0.31823(15) 0.24733(16)
H156 H 0.9867 0.3416 0.2624
C161 C 0.9950(2) 0.28761(17) 0.20955(16)
H157 H 1.0432 0.2900 0.1992
C162 C 0.95604(19) 0.25274(15) 0.18846(15)
H158 H 0.9771 0.2318 0.1633
C163 C 0.88398(19) 0.25072(14) 0.20584(14)
C164 C 0.83906(18) 0.21298(14) 0.18321(14)
C165 C 0.70908(19) 0.20100(15) 0.18050(14)
C166 C 0.7150(2) 0.14929(15) 0.16205(14)
H159 H 0.7594 0.1292 0.1579
C167 C 0.6539(2) 0.12733(15) 0.15100(15)
H160 H 0.6577 0.0936 0.1375
C168 C 0.5882(2) 0.15625(16) 0.15828(15)
H161 H 0.5475 0.1410 0.1514
C169 C 0.58149(19) 0.20700(15) 0.17716(14)
H162 H 0.5368 0.2264 0.1819
C170 C 0.64192(19) 0.22966(13) 0.18884(13)
C171 C 0.58769(17) 0.30061(13) 0.23437(13)
H163 H 0.5499 0.2775 0.2434
C172 C 0.58228(16) 0.35356(14) 0.25249(13)
C173 C 0.62377(17) 0.39953(14) 0.24364(14)
C174 C 0.59116(18) 0.44003(14) 0.27312(14)
C175 C 0.52937(17) 0.41856(13) 0.30051(13)
C176 C 0.48027(16) 0.43919(13) 0.33982(13)
C177 C 0.45639(17) 0.49568(13) 0.34730(14)
C178 C 0.41031(17) 0.49006(13) 0.39330(14)
C179 C 0.40353(16) 0.43089(13) 0.41271(13)
C180 C 0.35821(16) 0.40434(13) 0.45373(13)
H164 H 0.3283 0.4271 0.4735
C181 C 0.30284(17) 0.31718(14) 0.50309(13)
C182 C 0.23652(18) 0.34362(15) 0.51541(13)
H165 H 0.2262 0.3831 0.5036
C183 C 0.18580(18) 0.31111(16) 0.54667(14)
H166 H 0.1415 0.3285 0.5562
C184 C 0.2008(2) 0.25224(17) 0.56358(14)
H167 H 0.1657 0.2298 0.5825
C185 C 0.2681(2) 0.22635(15) 0.55226(14)
H168 H 0.2779 0.1869 0.5642
C186 C 0.32012(17) 0.25850(14) 0.52305(13)
C187 C 0.44673(18) 0.25088(13) 0.53541(13)
C188 C 0.51793(18) 0.22057(13) 0.52348(13)
C189 C 0.5778(2) 0.24057(15) 0.53829(14)
H169 H 0.5737 0.2726 0.5543
C190 C 0.6439(2) 0.21168(17) 0.52895(15)
H170 H 0.6850 0.2246 0.5380
C191 C 0.64794(19) 0.16339(15) 0.50558(15)
H171 H 0.6916 0.1432 0.4989
C192 C 0.58507(17) 0.14692(13) 0.49288(13)
C193 C 0.58779(16) 0.09343(14) 0.47074(13)
C194 C 0.51000(17) 0.03666(13) 0.43297(13)
C195 C 0.55955(17) -0.00991(13) 0.42761(13)
H172 H 0.6057 -0.0100 0.4377
C196 C 0.54103(19) -0.05623(14) 0.40870(14)
H173 H 0.5751 -0.0866 0.4051
C197 C 0.4724(2) -0.05703(15) 0.39369(14)
H174 H 0.4605 -0.0882 0.3806
C198 C 0.42197(19) -0.01125(14) 0.39890(13)
H175 H 0.3761 -0.0117 0.3885
C199 C 0.44035(16) 0.03454(13) 0.41893(13)
C200 C 0.32507(16) 0.06682(13) 0.45338(13)
H176 H 0.3224 0.0281 0.4693
C201 C 0.19849(19) 0.02729(14) 0.53085(15)
H177 H 0.1661 0.0306 0.5615
H178 H 0.2442 0.0116 0.5435
C202 C 0.1698(3) -0.01277(19) 0.5021(2)
H179 H 0.1720 -0.0511 0.5236
H180 H 0.2006 -0.0136 0.4702
C203 C 0.1010(3) 0.0006(3) 0.4869(2)
H181 H 0.0868 -0.0263 0.4674
H182 H 0.0697 0.0006 0.5187
H183 H 0.0985 0.0385 0.4647
C204 C 0.37203(17) 0.53756(13) 0.41854(14)
H184 H 0.3263 0.5256 0.4337
H185 H 0.3640 0.5712 0.3909
C205 C 0.4104(2) 0.55372(16) 0.46110(15)
H186 H 0.4177 0.5201 0.4890
H187 H 0.3812 0.5824 0.4766
C206 C 0.4825(2) 0.57642(16) 0.44317(16)
H188 H 0.5047 0.5854 0.4724
H189 H 0.5125 0.5476 0.4284
H190 H 0.4756 0.6106 0.4159
C207 C 0.47017(17) 0.55185(12) 0.30963(13)
H191 H 0.4918 0.5440 0.2761
H192 H 0.5014 0.5722 0.3251
H193 H 0.4263 0.5757 0.3037
C208 C 0.62313(17) 0.49351(13) 0.27864(14)
H194 H 0.6735 0.4859 0.2823
H195 H 0.6001 0.5066 0.3096
H196 H 0.6140 0.5232 0.2476
C209 C 0.69214(17) 0.40672(14) 0.20887(14)
H197 H 0.7103 0.3702 0.2005
H198 H 0.7269 0.4191 0.2283
C210 C 0.6823(2) 0.44933(17) 0.15606(16)
H199 H 0.7275 0.4595 0.1382
H200 H 0.6563 0.4837 0.1642
C211 C 0.6399(2) 0.4262(2) 0.11924(17)
H201 H 0.6326 0.4541 0.0867
H202 H 0.6664 0.3921 0.1108
H203 H 0.5946 0.4165 0.1371
C212 C 0.74902(16) 0.13261(14) 0.36533(13)
H204 H 0.7601 0.0940 0.3848
H205 H 0.7492 0.1586 0.3895
C213 C 0.80652(17) 0.14725(14) 0.32085(14)
H206 H 0.7953 0.1857 0.3013
H207 H 0.8066 0.1212 0.2968
C214 C 0.88116(18) 0.14249(17) 0.34090(17)
H208 H 0.9163 0.1517 0.3116
H209 H 0.8810 0.1689 0.3647
H210 H 0.8924 0.1038 0.3601
C215 C 0.68188(17) 0.03625(13) 0.32554(14)
H211 H 0.7293 0.0344 0.3370
H212 H 0.6556 0.0077 0.3494
H213 H 0.6844 0.0290 0.2898
C216 C 0.57445(18) 0.01323(14) 0.24251(15)
H214 H 0.5668 0.0129 0.2059
H215 H 0.5764 -0.0258 0.2623
H216 H 0.6195 0.0284 0.2430
C217 C 0.4124(2) 0.01315(15) 0.22108(15)
H217 H 0.3621 0.0112 0.2302
H218 H 0.4353 -0.0253 0.2291
C218 C 0.4237(2) 0.03875(18) 0.16039(16)
H219 H 0.4060 0.0143 0.1400
H220 H 0.4742 0.0396 0.1514
C219 C 0.3893(2) 0.09965(18) 0.14298(17)
H221 H 0.3988 0.1139 0.1052
H222 H 0.3388 0.0989 0.1512
H223 H 0.4077 0.1245 0.1628
C220 C 0.0026(2) 0.35326(18) 0.40866(18)
H224 H -0.0302 0.3346 0.3929
H225 H 0.0114 0.3891 0.3847
C221 C -0.0325(3) 0.3674(2) 0.4627(2)
H226 H -0.0358 0.3314 0.4878
H227 H -0.0801 0.3853 0.4581
C222 C 0.0078(3) 0.4055(3) 0.4854(2)
H228 H -0.0155 0.4115 0.5191
H229 H 0.0552 0.3875 0.4910
H230 H 0.0103 0.4420 0.4610
C223 C 0.01450(18) 0.21816(16) 0.44238(16)
H231 H 0.0308 0.1786 0.4558
H232 H -0.0210 0.2311 0.4676
H233 H -0.0058 0.2214 0.4086
C224 C 0.09090(17) 0.13788(15) 0.53354(14)
H234 H 0.0739 0.1777 0.5317
H235 H 0.1024 0.1210 0.5696
H236 H 0.0538 0.1178 0.5243
N43 N 0.17803(18) 0.53623(15) -0.03417(14)
C225 C 0.1706(2) 0.57814(19) -0.06467(17)
C226 C 0.16049(19) 0.63291(15) -0.10347(15)
H237 H 0.1222 0.6572 -0.0902
H238 H 0.1495 0.6255 -0.1373
H239 H 0.2036 0.6521 -0.1091
N44 N 0.2059(2) 1.05334(18) 0.1706(2)
C227 C 0.1802(3) 1.0960(2) 0.1774(2)
C228 C 0.1475(2) 1.15131(18) 0.18669(18)
H240 H 0.1237 1.1708 0.1555
H241 H 0.1828 1.1750 0.1930
H242 H 0.1131 1.1463 0.2170
N45 N 0.2002(3) 0.49322(18) 0.52850(17)
C229 C 0.1600(3) 0.4950(2) 0.5645(2)
C230 C 0.1109(2) 0.49786(17) 0.61181(19)
H243 H 0.0706 0.5248 0.6019
H244 H 0.0949 0.4605 0.6269
H245 H 0.1356 0.5106 0.6379
N46 N 0.2510(3) 0.9672(2) 0.3475(3)
C231 C 0.2813(3) 0.9266(3) 0.3390(2)
C232 C 0.3214(2) 0.87583(19) 0.32668(18)
H246 H 0.3553 0.8595 0.3528
H247 H 0.3444 0.8868 0.2914
H248 H 0.2878 0.8490 0.3243
S1 S 0.05282(5) 0.76690(4) 0.14518(4)
O1 O 0.12876(11) 0.74927(9) 0.15261(9)
O2 O 0.02200(11) 0.72612(9) 0.11919(9)
O3 O 0.01196(12) 0.77014(12) 0.19592(10)
O4 O 0.04736(13) 0.82354(9) 0.10959(11)
H56? H 0.3185 0.9872 0.0572
H57? H 0.3419 1.0293 0.0046
C91? C 0.4107(5) 0.9697(4) 0.0282(4)
H63? H 0.4325 0.9921 0.0485
H64? H 0.4117 0.9304 0.0472
H65? H 0.4365 0.9715 -0.0062
H74? H 0.5006 0.5625 0.1152
H75? H 0.4747 0.6165 0.0759
C97? C 0.4242(6) 0.5525(5) 0.0724(5)
H81? H 0.4550 0.5377 0.0454
H82? H 0.4049 0.5210 0.0976
H83? H 0.3860 0.5778 0.0558
loop_
_geom_bond_atom_site_label_1
_geom_bond_atom_site_label_2
_geom_bond_site_symmetry_1
_geom_bond_site_symmetry_2
S1 O1 1_555 1_555
O2 S1 1_555 1_555
O3 S1 1_555 1_555
O4 S1 1_555 1_555
O5 C16 1_555 1_555
O6 C22 1_555 1_555
O7 C45 1_555 1_555
O8 C51 1_555 1_555
O9 C74 1_555 1_555
O10 C80 1_555 1_555
N1 H1 1_555 1_555
N2 H2 1_555 1_555
N3 C9 1_555 1_555
N4 H3 1_555 1_555
N5 C17 1_555 1_555
N6 H4 1_555 1_555
N7 C28 1_555 1_555
N8 H5 1_555 1_555
N9 H6 1_555 1_555
N10 C38 1_555 1_555
N11 H7 1_555 1_555
N12 C46 1_555 1_555
N13 H8 1_555 1_555
N14 C57 1_555 1_555
N15 H9 1_555 1_555
N16 H10 1_555 1_555
N17 H11 1_555 1_555
N18 H12 1_555 1_555
N19 C75 1_555 1_555
N20 H13 1_555 1_555
N21 H14 1_555 1_555
C1 N1 1_555 1_555
C2 C1 1_555 1_555
C3 C2 1_555 1_555
C4 N1 1_555 1_555
C5 N2 1_555 1_555
C6 C5 1_555 1_555
C7 C6 1_555 1_555
C8 N2 1_555 1_555
C9 C8 1_555 1_555
H15 C9 1_555 1_555
C10 N3 1_555 1_555
C11 C10 1_555 1_555
H16 C11 1_555 1_555
C12 C11 1_555 1_555
H17 C12 1_555 1_555
C13 C12 1_555 1_555
H18 C13 1_555 1_555
C14 C13 1_555 1_555
H19 C14 1_555 1_555
C15 N4 1_555 1_555
C16 N4 1_555 1_555
C17 C16 1_555 1_555
C18 C17 1_555 1_555
H20 C18 1_555 1_555
C19 C18 1_555 1_555
H21 C19 1_555 1_555
C20 C19 1_555 1_555
H22 C20 1_555 1_555
C21 N5 1_555 1_555
C22 N6 1_555 1_555
C23 N6 1_555 1_555
C24 C23 1_555 1_555
H23 C24 1_555 1_555
C25 C24 1_555 1_555
H24 C25 1_555 1_555
C26 C25 1_555 1_555
H25 C26 1_555 1_555
C27 C26 1_555 1_555
H26 C27 1_555 1_555
C28 C23 1_555 1_555
C29 N7 1_555 1_555
H27 C29 1_555 1_555
C30 N8 1_555 1_555
C31 C30 1_555 1_555
C32 C31 1_555 1_555
C33 N8 1_555 1_555
C34 N9 1_555 1_555
C35 C34 1_555 1_555
C36 C35 1_555 1_555
C37 N9 1_555 1_555
C38 C37 1_555 1_555
H28 C38 1_555 1_555
C39 N10 1_555 1_555
C40 C39 1_555 1_555
H29 C40 1_555 1_555
C41 C40 1_555 1_555
H30 C41 1_555 1_555
C42 C41 1_555 1_555
H31 C42 1_555 1_555
C43 C42 1_555 1_555
H32 C43 1_555 1_555
C44 N11 1_555 1_555
C45 N11 1_555 1_555
C46 C45 1_555 1_555
C47 C46 1_555 1_555
H33 C47 1_555 1_555
C48 C47 1_555 1_555
H34 C48 1_555 1_555
C49 C48 1_555 1_555
H35 C49 1_555 1_555
C50 N12 1_555 1_555
C51 N13 1_555 1_555
C52 N13 1_555 1_555
C53 C52 1_555 1_555
H36 C53 1_555 1_555
C54 C53 1_555 1_555
H37 C54 1_555 1_555
C55 C54 1_555 1_555
H38 C55 1_555 1_555
C56 C55 1_555 1_555
H39 C56 1_555 1_555
C57 C52 1_555 1_555
C58 N14 1_555 1_555
H40 C58 1_555 1_555
C59 N15 1_555 1_555
C60 C59 1_555 1_555
C61 C60 1_555 1_555
C62 N15 1_555 1_555
C63 N16 1_555 1_555
C64 C63 1_555 1_555
C65 C64 1_555 1_555
C66 N16 1_555 1_555
C67 N17 1_555 1_555
H41 C67 1_555 1_555
C68 N17 1_555 1_555
C69 C68 1_555 1_555
H42 C69 1_555 1_555
C70 C69 1_555 1_555
H43 C70 1_555 1_555
C71 C70 1_555 1_555
H44 C71 1_555 1_555
C72 C71 1_555 1_555
H45 C72 1_555 1_555
C73 N18 1_555 1_555
C74 N18 1_555 1_555
C75 C74 1_555 1_555
C76 C75 1_555 1_555
H46 C76 1_555 1_555
C77 C76 1_555 1_555
H47 C77 1_555 1_555
C78 C77 1_555 1_555
H48 C78 1_555 1_555
C79 N19 1_555 1_555
C80 N20 1_555 1_555
C81 N20 1_555 1_555
C82 C81 1_555 1_555
H49 C82 1_555 1_555
C83 C82 1_555 1_555
H50 C83 1_555 1_555
C84 C83 1_555 1_555
H51 C84 1_555 1_555
C85 C84 1_555 1_555
H52 C85 1_555 1_555
C86 N21 1_555 1_555
C87 N21 1_555 1_555
H53 C87 1_555 1_555
C88 C2 1_555 1_555
H54 C88 1_555 1_555
H55 C88 1_555 1_555
C89 C88 1_555 1_555
H58 C89 1_555 1_555
H59 C89 1_555 1_555
C90 C89 1_555 1_555
H60 C90 1_555 1_555
H61 C90 1_555 1_555
H62 C90 1_555 1_555
C92 C3 1_555 1_555
H66 C92 1_555 1_555
H67 C92 1_555 1_555
H68 C92 1_555 1_555
C93 C6 1_555 1_555
H69 C93 1_555 1_555
H70 C93 1_555 1_555
H71 C93 1_555 1_555
C94 C7 1_555 1_555
H72 C94 1_555 1_555
H73 C94 1_555 1_555
C95 C94 1_555 1_555
H76 C95 1_555 1_555
H77 C95 1_555 1_555
C96 C95 1_555 1_555
H78 C96 1_555 1_555
H79 C96 1_555 1_555
H80 C96 1_555 1_555
C98 C65 1_555 1_555
H84 C98 1_555 1_555
H85 C98 1_555 1_555
C99 C98 1_555 1_555
H86 C99 1_555 1_555
H87 C99 1_555 1_555
C100 C99 1_555 1_555
H88 C100 1_555 1_555
H89 C100 1_555 1_555
H90 C100 1_555 1_555
C101 C64 1_555 1_555
H91 C101 1_555 1_555
H92 C101 1_555 1_555
H93 C101 1_555 1_555
C102 C61 1_555 1_555
H94 C102 1_555 1_555
H95 C102 1_555 1_555
H96 C102 1_555 1_555
C103 C60 1_555 1_555
H97 C103 1_555 1_555
H98 C103 1_555 1_555
C104 C103 1_555 1_555
H99 C104 1_555 1_555
H100 C104 1_555 1_555
C105 C104 1_555 1_555
H101 C105 1_555 1_555
H102 C105 1_555 1_555
H103 C105 1_555 1_555
C106 C36 1_555 1_555
H104 C106 1_555 1_555
H105 C106 1_555 1_555
C107 C106 1_555 1_555
H106 C107 1_555 1_555
H107 C107 1_555 1_555
C108 C107 1_555 1_555
H108 C108 1_555 1_555
H109 C108 1_555 1_555
H110 C108 1_555 1_555
C109 C35 1_555 1_555
H111 C109 1_555 1_555
H112 C109 1_555 1_555
H113 C109 1_555 1_555
C110 C32 1_555 1_555
H114 C110 1_555 1_555
H115 C110 1_555 1_555
H116 C110 1_555 1_555
C111 C31 1_555 1_555
H117 C111 1_555 1_555
H118 C111 1_555 1_555
C112 C111 1_555 1_555
H119 C112 1_555 1_555
H120 C112 1_555 1_555
C113 C112 1_555 1_555
H121 C113 1_555 1_555
H122 C113 1_555 1_555
H123 C113 1_555 1_555
S2 O11 1_555 1_555
O12 S2 1_555 1_555
O13 S2 1_555 1_555
O14 S2 1_555 1_555
O15 C129 1_555 1_555
O16 C135 1_555 1_555
O17 C158 1_555 1_555
O18 C164 1_555 1_555
O19 C187 1_555 1_555
O20 C193 1_555 1_555
N22 H124 1_555 1_555
N23 H125 1_555 1_555
N24 C122 1_555 1_555
N25 H126 1_555 1_555
N26 C130 1_555 1_555
N27 H127 1_555 1_555
N28 C141 1_555 1_555
N29 H128 1_555 1_555
N30 H129 1_555 1_555
N31 C151 1_555 1_555
N32 H130 1_555 1_555
N33 C159 1_555 1_555
N34 H131 1_555 1_555
N35 C170 1_555 1_555
N36 H132 1_555 1_555
N37 H133 1_555 1_555
N38 H134 1_555 1_555
N39 H135 1_555 1_555
N40 C188 1_555 1_555
N41 H136 1_555 1_555
N42 H137 1_555 1_555
C114 N22 1_555 1_555
C115 C114 1_555 1_555
C116 C115 1_555 1_555
C117 N22 1_555 1_555
C118 N23 1_555 1_555
C119 C118 1_555 1_555
C120 C119 1_555 1_555
C121 N23 1_555 1_555
C122 C121 1_555 1_555
H138 C122 1_555 1_555
C123 N24 1_555 1_555
C124 C123 1_555 1_555
H139 C124 1_555 1_555
C125 C124 1_555 1_555
H140 C125 1_555 1_555
C126 C125 1_555 1_555
H141 C126 1_555 1_555
C127 C126 1_555 1_555
H142 C127 1_555 1_555
C128 N25 1_555 1_555
C129 N25 1_555 1_555
C130 C129 1_555 1_555
C131 C130 1_555 1_555
H143 C131 1_555 1_555
C132 C131 1_555 1_555
H144 C132 1_555 1_555
C133 C132 1_555 1_555
H145 C133 1_555 1_555
C134 N26 1_555 1_555
C135 N27 1_555 1_555
C136 N27 1_555 1_555
C137 C136 1_555 1_555
H146 C137 1_555 1_555
C138 C137 1_555 1_555
H147 C138 1_555 1_555
C139 C138 1_555 1_555
H148 C139 1_555 1_555
C140 C139 1_555 1_555
H149 C140 1_555 1_555
C141 C136 1_555 1_555
C142 N28 1_555 1_555
H150 C142 1_555 1_555
C143 N29 1_555 1_555
C144 C143 1_555 1_555
C145 C144 1_555 1_555
C146 N29 1_555 1_555
C147 N30 1_555 1_555
C148 C147 1_555 1_555
C149 C148 1_555 1_555
C150 N30 1_555 1_555
C151 C150 1_555 1_555
H151 C151 1_555 1_555
C152 N31 1_555 1_555
C153 C152 1_555 1_555
H152 C153 1_555 1_555
C154 C153 1_555 1_555
H153 C154 1_555 1_555
C155 C154 1_555 1_555
H154 C155 1_555 1_555
C156 C155 1_555 1_555
H155 C156 1_555 1_555
C157 N32 1_555 1_555
C158 N32 1_555 1_555
C159 C158 1_555 1_555
C160 C159 1_555 1_555
H156 C160 1_555 1_555
C161 C160 1_555 1_555
H157 C161 1_555 1_555
C162 C161 1_555 1_555
H158 C162 1_555 1_555
C163 N33 1_555 1_555
C164 N34 1_555 1_555
C165 N34 1_555 1_555
C166 C165 1_555 1_555
H159 C166 1_555 1_555
C167 C166 1_555 1_555
H160 C167 1_555 1_555
C168 C167 1_555 1_555
H161 C168 1_555 1_555
C169 C168 1_555 1_555
H162 C169 1_555 1_555
C170 C165 1_555 1_555
C171 N35 1_555 1_555
H163 C171 1_555 1_555
C172 N36 1_555 1_555
C173 C172 1_555 1_555
C174 C173 1_555 1_555
C175 N36 1_555 1_555
C176 N37 1_555 1_555
C177 C176 1_555 1_555
C178 C177 1_555 1_555
C179 N37 1_555 1_555
C180 N38 1_555 1_555
H164 C180 1_555 1_555
C181 N38 1_555 1_555
C182 C181 1_555 1_555
H165 C182 1_555 1_555
C183 C182 1_555 1_555
H166 C183 1_555 1_555
C184 C183 1_555 1_555
H167 C184 1_555 1_555
C185 C184 1_555 1_555
H168 C185 1_555 1_555
C186 N39 1_555 1_555
C187 N39 1_555 1_555
C188 C187 1_555 1_555
C189 C188 1_555 1_555
H169 C189 1_555 1_555
C190 C189 1_555 1_555
H170 C190 1_555 1_555
C191 C190 1_555 1_555
H171 C191 1_555 1_555
C192 N40 1_555 1_555
C193 N41 1_555 1_555
C194 N41 1_555 1_555
C195 C194 1_555 1_555
H172 C195 1_555 1_555
C196 C195 1_555 1_555
H173 C196 1_555 1_555
C197 C196 1_555 1_555
H174 C197 1_555 1_555
C198 C197 1_555 1_555
H175 C198 1_555 1_555
C199 N42 1_555 1_555
C200 N42 1_555 1_555
H176 C200 1_555 1_555
C201 C115 1_555 1_555
H177 C201 1_555 1_555
H178 C201 1_555 1_555
C202 C201 1_555 1_555
H179 C202 1_555 1_555
H180 C202 1_555 1_555
C203 C202 1_555 1_555
H181 C203 1_555 1_555
H182 C203 1_555 1_555
H183 C203 1_555 1_555
C204 C178 1_555 1_555
H184 C204 1_555 1_555
H185 C204 1_555 1_555
C205 C204 1_555 1_555
H186 C205 1_555 1_555
H187 C205 1_555 1_555
C206 C205 1_555 1_555
H188 C206 1_555 1_555
H189 C206 1_555 1_555
H190 C206 1_555 1_555
C207 C177 1_555 1_555
H191 C207 1_555 1_555
H192 C207 1_555 1_555
H193 C207 1_555 1_555
C208 C174 1_555 1_555
H194 C208 1_555 1_555
H195 C208 1_555 1_555
H196 C208 1_555 1_555
C209 C173 1_555 1_555
H197 C209 1_555 1_555
H198 C209 1_555 1_555
C210 C209 1_555 1_555
H199 C210 1_555 1_555
H200 C210 1_555 1_555
C211 C210 1_555 1_555
H201 C211 1_555 1_555
H202 C211 1_555 1_555
H203 C211 1_555 1_555
C212 C149 1_555 1_555
H204 C212 1_555 1_555
H205 C212 1_555 1_555
C213 C212 1_555 1_555
H206 C213 1_555 1_555
H207 C213 1_555 1_555
C214 C213 1_555 1_555
H208 C214 1_555 1_555
H209 C214 1_555 1_555
H210 C214 1_555 1_555
C215 C148 1_555 1_555
H211 C215 1_555 1_555
H212 C215 1_555 1_555
H213 C215 1_555 1_555
C216 C145 1_555 1_555
H214 C216 1_555 1_555
H215 C216 1_555 1_555
H216 C216 1_555 1_555
C217 C144 1_555 1_555
H217 C217 1_555 1_555
H218 C217 1_555 1_555
C218 C217 1_555 1_555
H219 C218 1_555 1_555
H220 C218 1_555 1_555
C219 C218 1_555 1_555
H221 C219 1_555 1_555
H222 C219 1_555 1_555
H223 C219 1_555 1_555
C220 C120 1_555 1_555
H224 C220 1_555 1_555
H225 C220 1_555 1_555
C221 C220 1_555 1_555
H226 C221 1_555 1_555
H227 C221 1_555 1_555
C222 C221 1_555 1_555
H228 C222 1_555 1_555
H229 C222 1_555 1_555
H230 C222 1_555 1_555
C223 C119 1_555 1_555
H231 C223 1_555 1_555
H232 C223 1_555 1_555
H233 C223 1_555 1_555
C224 C116 1_555 1_555
H234 C224 1_555 1_555
H235 C224 1_555 1_555
H236 C224 1_555 1_555
N43 C225 1_555 1_555
C225 C226 1_555 1_555
C226 H237 1_555 1_555
H238 C226 1_555 1_555
H239 C226 1_555 1_555
N44 C227 1_555 1_555
C227 C228 1_555 1_555
C228 H240 1_555 1_555
H241 C228 1_555 1_555
H242 C228 1_555 1_555
N45 C229 1_555 1_555
C229 C230 1_555 1_555
C230 H243 1_555 1_555
H244 C230 1_555 1_555
H245 C230 1_555 1_555
N46 C231 1_555 1_555
C231 C232 1_555 1_555
C232 H246 1_555 1_555
H247 C232 1_555 1_555
H248 C232 1_555 1_555
C1 C87 1_555 1_555
C3 C4 1_555 1_555
C4 C5 1_555 1_555
C7 C8 1_555 1_555
C10 C15 1_555 1_555
C14 C15 1_555 1_555
C20 C21 1_555 1_555
C21 C22 1_555 1_555
C27 C28 1_555 1_555
C29 C30 1_555 1_555
C32 C33 1_555 1_555
C33 C34 1_555 1_555
C36 C37 1_555 1_555
C39 C44 1_555 1_555
C43 C44 1_555 1_555
C49 C50 1_555 1_555
C50 C51 1_555 1_555
C56 C57 1_555 1_555
C58 C59 1_555 1_555
C61 C62 1_555 1_555
C62 C63 1_555 1_555
C65 C66 1_555 1_555
C66 C67 1_555 1_555
C68 C73 1_555 1_555
C72 C73 1_555 1_555
C78 C79 1_555 1_555
C79 C80 1_555 1_555
C81 C86 1_555 1_555
C85 C86 1_555 1_555
C114 C200 1_555 1_555
C116 C117 1_555 1_555
C117 C118 1_555 1_555
C120 C121 1_555 1_555
C123 C128 1_555 1_555
C127 C128 1_555 1_555
C133 C134 1_555 1_555
C134 C135 1_555 1_555
C140 C141 1_555 1_555
C142 C143 1_555 1_555
C145 C146 1_555 1_555
C146 C147 1_555 1_555
C149 C150 1_555 1_555
C152 C157 1_555 1_555
C156 C157 1_555 1_555
C162 C163 1_555 1_555
C163 C164 1_555 1_555
C169 C170 1_555 1_555
C171 C172 1_555 1_555
C174 C175 1_555 1_555
C175 C176 1_555 1_555
C178 C179 1_555 1_555
C179 C180 1_555 1_555
C181 C186 1_555 1_555
C185 C186 1_555 1_555
C191 C192 1_555 1_555
C192 C193 1_555 1_555
C194 C199 1_555 1_555
C198 C199 1_555 1_555

#END
