
#######################################################################
#
#                 Cambridge Crystallographic Data Centre
#                                CCDC 
#
#######################################################################
#
# If this CIF has been generated from an entry in the Cambridge 
# Structural Database, then it will include bibliographic, chemical, 
# crystal, experimental, refinement or atomic coordinate data resulting 
# from the CCDC's data processing and validation procedures.
#
#######################################################################

data_CEFGOJ
_chemical_formula_moiety         'C14 H18 N2 O6,H2 O1'
_chemical_name_systematic        'L-Tyrosyl-L-glutamic acid monohydrate'
_symmetry_cell_setting           triclinic
_symmetry_space_group_name_H-M   'P 1'
_symmetry_Int_Tables_number      1
_space_group_name_Hall           'P 1'
loop_
_symmetry_equiv_pos_site_id
_symmetry_equiv_pos_as_xyz
1 x,y,z
_cell_length_a                   5.801(1)
_cell_length_b                   7.977(1)
_cell_length_c                   9.110(2)
_cell_angle_alpha                102.33(1)
_cell_angle_beta                 97.92(1)
_cell_angle_gamma                109.82(1)
_cell_volume                     377.172
_cell_formula_units_Z            1
loop_
_atom_site_label
_atom_site_type_symbol
_atom_site_fract_x
_atom_site_fract_y
_atom_site_fract_z
N1 N 0.98770 0.75040 1.20900
C1 C 1.13960 0.95130 1.27480
C2 C 1.23290 1.03900 1.14720
C3 C 1.03050 1.00330 1.00600
C4 C 1.01320 0.87940 0.86980
C5 C 0.86130 1.09300 1.00740
C6 C 0.83960 0.84580 0.73770
C7 C 0.68610 1.05850 0.87560
C8 C 0.67140 0.93350 0.73910
O1 O 0.49350 0.90730 0.61230
C9 C 0.97430 1.03800 1.35410
O2 O 0.74500 0.95830 1.31970
N2 N 1.09880 1.20050 1.45890
C10 C 0.96810 1.29800 1.54570
C11 C 1.14680 1.45230 1.68560
C12 C 1.28200 1.38210 1.79950
C13 C 1.30360 1.48420 1.96360
O3 O 1.17090 1.56600 1.99720
O4 O 1.46630 1.46700 2.06820
C14 C 0.82950 1.38870 1.45160
O5 O 0.93390 1.46670 1.35940
O6 O 0.62770 1.39020 1.48460
H1 H 0.84700 0.72300 1.15400
H2 H 1.04400 0.66300 1.13600
H3 H 0.95000 0.66400 1.28900
H4 H 1.29500 0.96500 1.34500
H5 H 1.31700 1.19100 1.20700
H6 H 1.36600 0.98100 1.11100
H7 H 1.12800 0.81800 0.86500
H8 H 0.83700 0.76800 0.64800
H9 H 0.57500 1.13300 0.88800
H10 H 0.86400 1.17400 1.10800
H11 H 0.47000 0.83100 0.57000
H12 H 1.26000 1.23900 1.48100
H13 H 0.84000 1.20000 1.57400
H14 H 1.28900 1.54900 1.66300
H15 H 1.03000 1.48900 1.73700
H16 H 1.14900 1.24900 1.81000
H17 H 1.45000 1.42200 1.79300
O7 O 1.41750 1.57780 2.34640
H18 H 1.46400 1.49100 2.36900
H19 H 1.24200 1.51900 2.35700
loop_
_geom_bond_atom_site_label_1
_geom_bond_atom_site_label_2
_geom_bond_site_symmetry_1
_geom_bond_site_symmetry_2
N1 C1 1_555 1_555
C1 C2 1_555 1_555
C2 C3 1_555 1_555
C3 C4 1_555 1_555
C4 C6 1_555 1_555
C5 C3 1_555 1_555
C6 C8 1_555 1_555
C7 C5 1_555 1_555
C8 C7 1_555 1_555
O1 C8 1_555 1_555
C9 C1 1_555 1_555
O2 C9 1_555 1_555
N2 C9 1_555 1_555
C10 N2 1_555 1_555
C11 C10 1_555 1_555
C12 C11 1_555 1_555
C13 C12 1_555 1_555
O3 C13 1_555 1_555
O4 C13 1_555 1_555
C14 C10 1_555 1_555
O5 C14 1_555 1_555
O6 C14 1_555 1_555
H1 N1 1_555 1_555
H2 N1 1_555 1_555
H3 N1 1_555 1_555
H4 C1 1_555 1_555
H5 C2 1_555 1_555
H6 C2 1_555 1_555
H7 C4 1_555 1_555
H8 C6 1_555 1_555
H9 C7 1_555 1_555
H10 C5 1_555 1_555
H11 O1 1_555 1_555
H12 N2 1_555 1_555
H13 C10 1_555 1_555
H14 C11 1_555 1_555
H15 C11 1_555 1_555
H16 C12 1_555 1_555
H17 C12 1_555 1_555
O7 H18 1_555 1_555
H19 O7 1_555 1_555

#END
