
#######################################################################
#
#                 Cambridge Crystallographic Data Centre
#                                CCDC 
#
#######################################################################
#
# If this CIF has been generated from an entry in the Cambridge 
# Structural Database, then it will include bibliographic, chemical, 
# crystal, experimental, refinement or atomic coordinate data resulting 
# from the CCDC's data processing and validation procedures.
#
#######################################################################

data_CEFMIL
_chemical_formula_moiety         '0.5(C20 H23 N3 O1),0.5(C20 H23 N3 O1)'
_chemical_name_systematic        
'7-Methyl-N-(2-phenylethyl)-2-propyl-1H-benzimidazole-5-carboxamide 4-methyl-N-(2-phenylethyl)-2-propyl-1H-benzimidazole-6-carboxamide'
_symmetry_cell_setting           triclinic
_symmetry_space_group_name_H-M   'P -1'
_symmetry_Int_Tables_number      2
_space_group_name_Hall           '-P 1'
loop_
_symmetry_equiv_pos_site_id
_symmetry_equiv_pos_as_xyz
1 x,y,z
2 -x,-y,-z
_cell_length_a                   10.2028(7)
_cell_length_b                   11.9126(9)
_cell_length_c                   17.0553(17)
_cell_angle_alpha                101.563(4)
_cell_angle_beta                 99.110(4)
_cell_angle_gamma                113.808(2)
_cell_volume                     1790.63
_exptl_crystal_colour            colorless
_exptl_crystal_description       block
_chemical_melting_point          '425-427 K'
_cell_formula_units_Z            4
loop_
_atom_site_label
_atom_site_type_symbol
_atom_site_fract_x
_atom_site_fract_y
_atom_site_fract_z
H1 H 0.7674(19) 1.1106(15) 0.1249(14)
H4 H 0.7939(19) 0.598(2) 0.2321(15)
C1 C 0.3195(3) 1.2092(3) 0.08894(19)
H5 H 0.2239 1.1948 0.0974
H6 H 0.3159 1.2026 0.0315
H7 H 0.3927 1.2932 0.1227
C2 C 0.3606(3) 1.1097(3) 0.1127(2)
H8 H 0.3619 1.1157 0.1704
H9 H 0.2848 1.0250 0.0793
C3 C 0.5086(3) 1.1247(2) 0.10119(15)
H10 H 0.5067 1.1194 0.0435
H11 H 0.5836 1.2098 0.1345
C4 C 0.5540(2) 1.02936(19) 0.12349(13)
C5 C 0.7011(2) 0.93810(19) 0.14869(13)
C6 C 0.8141(2) 0.9008(2) 0.15921(14)
C7 C 0.7821(2) 0.7941(2) 0.18722(14)
H12 H 0.8550 0.7666 0.1963
C8 C 0.6452(2) 0.72490(19) 0.20267(13)
C9 C 0.5340(2) 0.76211(19) 0.18845(13)
H13 H 0.4420 0.7163 0.1972
C10 C 0.5623(2) 0.86912(19) 0.16083(13)
C11 C 0.9585(3) 0.9701(3) 0.1396(2)
H14 H 1.0215 0.9301 0.1511
H15 H 1.0068 1.0580 0.1731
H16 H 0.9398 0.9664 0.0819
C12 C 0.6116(2) 0.6129(2) 0.23587(13)
C13 C 0.6911(3) 0.4712(2) 0.29015(16)
H17 H 0.6338 0.3898 0.2472
H18 H 0.6322 0.4768 0.3288
C14 C 0.8298(3) 0.4735(3) 0.33495(18)
H19 H 0.8900 0.5560 0.3765
H20 H 0.8866 0.4625 0.2961
C15 C 0.7950(3) 0.3686(3) 0.37630(15)
C16 C 0.7603(3) 0.2458(3) 0.33270(16)
H21 H 0.7644 0.2289 0.2777
C17 C 0.7198(4) 0.1472(3) 0.3681(2)
H22 H 0.6971 0.0649 0.3371
C18 C 0.7128(4) 0.1698(4) 0.4486(2)
H23 H 0.6830 0.1031 0.4725
C19 C 0.7503(5) 0.2916(4) 0.4931(2)
H24 H 0.7494 0.3084 0.5486
C20 C 0.7896(4) 0.3905(3) 0.45784(18)
H25 H 0.8127 0.4727 0.4892
N1 N 0.6923(2) 1.03909(17) 0.12434(11)
N2 N 0.47131(19) 0.92760(16) 0.14350(11)
N6 N 0.7166(2) 0.57415(18) 0.25232(12)
O1 O 0.49045(17) 0.55903(16) 0.25059(10)
H2 H -0.2645(15) 0.1827(16) -0.1485(14)
H3 H 0.2616(18) 0.460(2) 0.2126(15)
C21 C -0.2363(7) 0.0418(5) -0.3386(3)
H26 H -0.3117 -0.0448 -0.3650
H27 H -0.1802 0.0466 -0.2861
H28 H -0.1711 0.0675 -0.3734
C22 C -0.3053(4) 0.1261(3) -0.32530(19)
H29 H -0.3727 0.0981 -0.2912
H30 H -0.3637 0.1189 -0.3784
C23 C -0.1962(3) 0.2635(2) -0.28424(14)
H31 H -0.1253 0.2884 -0.3168
H32 H -0.2494 0.3149 -0.2863
C24 C -0.1116(2) 0.2973(2) -0.19662(13)
C25 C 0.0603(2) 0.38852(19) -0.08105(12)
C26 C -0.0660(2) 0.30365(19) -0.06467(12)
C27 C -0.0696(2) 0.28931(19) 0.01351(13)
H33 H -0.1556 0.2326 0.0231
C28 C 0.0598(2) 0.36249(18) 0.07695(12)
C29 C 0.1881(2) 0.44721(19) 0.06003(13)
H34 H 0.2743 0.4948 0.1034
C30 C 0.1921(2) 0.46316(19) -0.01772(13)
C31 C 0.3295(3) 0.5560(2) -0.03364(15)
H35 H 0.4081 0.5978 0.0169
H36 H 0.3093 0.6190 -0.0532
H37 H 0.3589 0.5105 -0.0748
C32 C 0.0549(2) 0.34704(19) 0.16112(13)
C33 C 0.1868(3) 0.3983(2) 0.30617(14)
H38 H 0.0883 0.3677 0.3150
H39 H 0.2496 0.4812 0.3469
C34 C 0.2479(4) 0.3063(3) 0.31926(17)
H40 H 0.3500 0.3417 0.3158
H41 H 0.1915 0.2267 0.2746
C35 C 0.2442(3) 0.2766(3) 0.40085(16)
C36 C 0.1137(4) 0.2081(4) 0.4166(2)
H42 H 0.0252 0.1813 0.3768
C37 C 0.1083(6) 0.1767(4) 0.4904(3)
H43 H 0.0175 0.1301 0.5001
C38 C 0.2369(7) 0.2147(4) 0.5481(2)
H44 H 0.2346 0.1926 0.5974
C39 C 0.3665(6) 0.2835(4) 0.5348(2)
H45 H 0.4544 0.3102 0.5751
C40 C 0.3712(4) 0.3158(3) 0.4614(2)
H46 H 0.4626 0.3650 0.4532
N3 N 0.02963(19) 0.38310(16) -0.16468(10)
N4 N -0.1741(2) 0.24659(17) -0.13948(11)
N5 N 0.1783(2) 0.41362(19) 0.22348(11)
O2 O -0.06237(17) 0.27366(15) 0.17288(9)
loop_
_geom_bond_atom_site_label_1
_geom_bond_atom_site_label_2
_geom_bond_site_symmetry_1
_geom_bond_site_symmetry_2
H1 N1 1_555 1_555
H2 N4 1_555 1_555
H3 N5 1_555 1_555
H4 N6 1_555 1_555
C1 H5 1_555 1_555
H6 C1 1_555 1_555
H7 C1 1_555 1_555
C2 C1 1_555 1_555
H8 C2 1_555 1_555
H9 C2 1_555 1_555
C3 C2 1_555 1_555
H10 C3 1_555 1_555
H11 C3 1_555 1_555
C4 C3 1_555 1_555
C5 C6 1_555 1_555
C6 C7 1_555 1_555
C7 H12 1_555 1_555
C8 C7 1_555 1_555
C9 C8 1_555 1_555
H13 C9 1_555 1_555
C10 C5 1_555 1_555
C11 C6 1_555 1_555
H14 C11 1_555 1_555
H15 C11 1_555 1_555
H16 C11 1_555 1_555
C12 C8 1_555 1_555
C13 H17 1_555 1_555
H18 C13 1_555 1_555
C14 C13 1_555 1_555
H19 C14 1_555 1_555
H20 C14 1_555 1_555
C15 C14 1_555 1_555
C16 C15 1_555 1_555
H21 C16 1_555 1_555
C17 C16 1_555 1_555
H22 C17 1_555 1_555
C18 C17 1_555 1_555
H23 C18 1_555 1_555
C19 C18 1_555 1_555
H24 C19 1_555 1_555
C20 C15 1_555 1_555
H25 C20 1_555 1_555
C21 H26 1_555 1_555
H27 C21 1_555 1_555
H28 C21 1_555 1_555
C22 C21 1_555 1_555
H29 C22 1_555 1_555
H30 C22 1_555 1_555
C23 C22 1_555 1_555
H31 C23 1_555 1_555
H32 C23 1_555 1_555
C24 C23 1_555 1_555
C25 C26 1_555 1_555
C26 C27 1_555 1_555
C27 H33 1_555 1_555
C28 C27 1_555 1_555
C29 C28 1_555 1_555
H34 C29 1_555 1_555
C30 C25 1_555 1_555
C31 C30 1_555 1_555
H35 C31 1_555 1_555
H36 C31 1_555 1_555
H37 C31 1_555 1_555
C32 C28 1_555 1_555
C33 H38 1_555 1_555
H39 C33 1_555 1_555
C34 C33 1_555 1_555
H40 C34 1_555 1_555
H41 C34 1_555 1_555
C35 C34 1_555 1_555
C36 C35 1_555 1_555
H42 C36 1_555 1_555
C37 C36 1_555 1_555
H43 C37 1_555 1_555
C38 C37 1_555 1_555
H44 C38 1_555 1_555
C39 C38 1_555 1_555
H45 C39 1_555 1_555
C40 C35 1_555 1_555
H46 C40 1_555 1_555
N1 C4 1_555 1_555
N2 C4 1_555 1_555
N3 C24 1_555 1_555
N4 C24 1_555 1_555
N5 C32 1_555 1_555
N6 C12 1_555 1_555
O1 C12 1_555 1_555
O2 C32 1_555 1_555
C5 N1 1_555 1_555
C9 C10 1_555 1_555
C10 N2 1_555 1_555
C13 N6 1_555 1_555
C19 C20 1_555 1_555
C25 N3 1_555 1_555
C26 N4 1_555 1_555
C29 C30 1_555 1_555
C33 N5 1_555 1_555
C39 C40 1_555 1_555

#END
