
#######################################################################
#
#                 Cambridge Crystallographic Data Centre
#                                CCDC 
#
#######################################################################
#
# If this CIF has been generated from an entry in the Cambridge 
# Structural Database, then it will include bibliographic, chemical, 
# crystal, experimental, refinement or atomic coordinate data resulting 
# from the CCDC's data processing and validation procedures.
#
#######################################################################

data_CEFNAE
_chemical_formula_moiety         'C16 H16 N4 O3,C1 H4 O1'
_chemical_name_systematic        
"4-Dimethylamino-N'-(4-nitrobenzylidene)benzohydrazide methanol solvate"
_symmetry_cell_setting           triclinic
_symmetry_space_group_name_H-M   'P -1'
_symmetry_Int_Tables_number      2
_space_group_name_Hall           '-P 1'
loop_
_symmetry_equiv_pos_site_id
_symmetry_equiv_pos_as_xyz
1 x,y,z
2 -x,-y,-z
_cell_length_a                   6.6621(12)
_cell_length_b                   10.6685(17)
_cell_length_c                   13.3437(13)
_cell_angle_alpha                72.279(2)
_cell_angle_beta                 83.444(2)
_cell_angle_gamma                73.984(2)
_cell_volume                     867.859
_exptl_crystal_colour            yellow
_exptl_crystal_description       block
_cell_formula_units_Z            2
loop_
_atom_site_label
_atom_site_type_symbol
_atom_site_fract_x
_atom_site_fract_y
_atom_site_fract_z
N1 N 0.0844(3) 0.62271(17) 0.39221(13)
N2 N 0.0240(3) 0.56468(18) 0.32624(14)
N3 N 0.1415(4) 0.9440(2) 0.71802(16)
N4 N -0.0400(4) 0.2426(2) -0.00213(16)
O1 O 0.3228(3) 0.9304(2) 0.7318(2)
O2 O -0.0001(4) 1.0126(2) 0.75895(17)
O3 O 0.3593(2) 0.47225(17) 0.29021(14)
C1 C -0.0040(3) 0.7521(2) 0.51346(15)
C2 C 0.2010(3) 0.7245(2) 0.54349(16)
H2 H 0.3067 0.6636 0.5177
C3 C 0.2480(3) 0.7863(2) 0.61062(17)
H3 H 0.3848 0.7679 0.6307
C4 C 0.0892(3) 0.8763(2) 0.64797(16)
C5 C -0.1143(3) 0.9036(2) 0.62214(17)
H4 H -0.2194 0.9628 0.6498
C6 C -0.1598(3) 0.8413(2) 0.55424(17)
H5 H -0.2973 0.8594 0.5354
C7 C -0.0577(3) 0.6877(2) 0.44223(17)
H6 H -0.1971 0.6943 0.4334
C8 C 0.1735(3) 0.4890(2) 0.27631(17)
C9 C 0.1067(3) 0.4274(2) 0.20565(16)
C10 C 0.2582(3) 0.3367(2) 0.16454(18)
H7 H 0.3963 0.3175 0.1828
C11 C 0.2113(4) 0.2743(3) 0.09784(19)
H8 H 0.3172 0.2125 0.0730
C12 C 0.0067(4) 0.3021(2) 0.06654(17)
C13 C -0.1459(3) 0.3920(2) 0.10855(17)
H9 H -0.2842 0.4112 0.0904
C14 C -0.0978(3) 0.4533(2) 0.17627(17)
H10 H -0.2038 0.5131 0.2029
C15 C -0.2519(5) 0.2624(4) -0.0273(2)
H11 H -0.3265 0.2215 0.0343
H12 H -0.2541 0.2210 -0.0816
H13 H -0.3171 0.3581 -0.0515
C16 C 0.1216(6) 0.1550(4) -0.0473(3)
H14 H 0.2272 0.2015 -0.0802
H15 H 0.0640 0.1302 -0.0991
H16 H 0.1825 0.0745 0.0068
H20 H -0.1140(17) 0.579(3) 0.324(2)
O4 O 0.5727(2) 0.63544(19) 0.33104(18)
H1 H 0.4999 0.5874 0.3254
C17 C 0.4766(4) 0.7717(3) 0.2827(2)
H17 H 0.3486 0.7993 0.3205
H18 H 0.4468 0.7823 0.2114
H19 H 0.5681 0.8271 0.2830
loop_
_geom_bond_atom_site_label_1
_geom_bond_atom_site_label_2
_geom_bond_site_symmetry_1
_geom_bond_site_symmetry_2
N1 N2 1_555 1_555
N2 C8 1_555 1_555
N3 O1 1_555 1_555
N4 C12 1_555 1_555
O2 N3 1_555 1_555
O3 C8 1_555 1_555
O4 H1 1_555 1_555
C1 C2 1_555 1_555
C2 H2 1_555 1_555
C3 C2 1_555 1_555
H3 C3 1_555 1_555
C4 N3 1_555 1_555
C5 C4 1_555 1_555
H4 C5 1_555 1_555
C6 C1 1_555 1_555
H5 C6 1_555 1_555
C7 N1 1_555 1_555
H6 C7 1_555 1_555
C8 C9 1_555 1_555
C9 C10 1_555 1_555
C10 H7 1_555 1_555
C11 C10 1_555 1_555
H8 C11 1_555 1_555
C12 C11 1_555 1_555
C13 C12 1_555 1_555
H9 C13 1_555 1_555
C14 C9 1_555 1_555
H10 C14 1_555 1_555
C15 N4 1_555 1_555
H11 C15 1_555 1_555
H12 C15 1_555 1_555
H13 C15 1_555 1_555
C16 N4 1_555 1_555
H14 C16 1_555 1_555
H15 C16 1_555 1_555
H16 C16 1_555 1_555
C17 O4 1_555 1_555
H17 C17 1_555 1_555
H18 C17 1_555 1_555
H19 C17 1_555 1_555
H20 N2 1_555 1_555
C1 C7 1_555 1_555
C3 C4 1_555 1_555
C5 C6 1_555 1_555
C13 C14 1_555 1_555

#END
