
#######################################################################
#
#                 Cambridge Crystallographic Data Centre
#                                CCDC 
#
#######################################################################
#
# If this CIF has been generated from an entry in the Cambridge 
# Structural Database, then it will include bibliographic, chemical, 
# crystal, experimental, refinement or atomic coordinate data resulting 
# from the CCDC's data processing and validation procedures.
#
#######################################################################

data_CEFSAJ
_chemical_formula_moiety         'C26 H31 N1 O3'
_chemical_name_systematic        
'Benzyl 2-benzyl-4-[(3aS,7aR)-2,3,3a,4,5,6,7,7a-octahydro-1H-isoindol-2-yl]-4-oxobutanoate'
_symmetry_cell_setting           triclinic
_symmetry_space_group_name_H-M   'P 1'
_symmetry_Int_Tables_number      1
_space_group_name_Hall           'P 1'
loop_
_symmetry_equiv_pos_site_id
_symmetry_equiv_pos_as_xyz
1 x,y,z
_cell_length_a                   5.8542(12)
_cell_length_b                   9.0365(18)
_cell_length_c                   11.352(2)
_cell_angle_alpha                108.59(3)
_cell_angle_beta                 93.94(3)
_cell_angle_gamma                101.23(3)
_cell_volume                     552.753
_exptl_crystal_colour            colorless
_exptl_crystal_description       plate
_cell_formula_units_Z            1
loop_
_atom_site_label
_atom_site_type_symbol
_atom_site_fract_x
_atom_site_fract_y
_atom_site_fract_z
O1 O -0.1006(3) 0.2391(3) 0.4493(2)
O2 O 0.2379(5) 0.2088(3) 0.7354(3)
O3 O 0.0275(4) 0.3929(3) 0.7968(2)
N1 N 0.1082(4) 0.0726(3) 0.3389(2)
C1 C 0.3247(5) 0.0184(4) 0.3070(3)
H1 H 0.3538 -0.0562 0.3485
H2 H 0.4599 0.1083 0.3300
C2 C 0.2709(5) -0.0637(4) 0.1651(3)
H3 H 0.3633 -0.1449 0.1378
C3 C 0.3173(6) 0.0541(4) 0.0949(3)
H4 H 0.2529 0.1458 0.1348
H5 H 0.4858 0.0921 0.1003
C4 C 0.2112(7) -0.0190(5) -0.0407(4)
H6 H 0.2796 -0.1082 -0.0821
H7 H 0.2458 0.0602 -0.0819
C5 C -0.0515(7) -0.0771(5) -0.0518(4)
H8 H -0.1179 -0.1232 -0.1398
H9 H -0.1199 0.0131 -0.0131
C6 C -0.1126(6) -0.2014(4) 0.0109(3)
H10 H -0.0674 -0.2984 -0.0369
H11 H -0.2816 -0.2274 0.0102
C7 C 0.0077(5) -0.1453(4) 0.1451(3)
H12 H -0.0069 -0.2393 0.1719
C8 C -0.0910(5) -0.0199(4) 0.2404(3)
H13 H -0.1499 0.0490 0.2014
H14 H -0.2179 -0.0713 0.2748
C9 C 0.0902(5) 0.2018(4) 0.4337(3)
C10 C 0.3132(5) 0.3000(4) 0.5201(3)
H15 H 0.4084 0.3610 0.4772
H16 H 0.4018 0.2282 0.5389
C11 C 0.2690(5) 0.4157(4) 0.6433(3)
H17 H 0.1502 0.4708 0.6243
C12 C 0.4942(6) 0.5424(4) 0.7134(3)
H18 H 0.4676 0.5993 0.7976
H19 H 0.6203 0.4888 0.7205
C13 C 0.5688(5) 0.6615(4) 0.6478(3)
C14 C 0.4546(6) 0.7839(4) 0.6598(3)
H20 H 0.3265 0.7878 0.7040
C15 C 0.5261(7) 0.9007(4) 0.6076(3)
H21 H 0.4469 0.9826 0.6171
C16 C 0.7108(7) 0.8964(5) 0.5428(4)
H22 H 0.7600 0.9756 0.5082
C17 C 0.8251(7) 0.7751(6) 0.5284(4)
H23 H 0.9516 0.7715 0.4831
C18 C 0.7548(6) 0.6577(5) 0.5804(4)
H24 H 0.8339 0.5756 0.5697
C19 C 0.1781(6) 0.3255(4) 0.7267(3)
C20 C -0.0779(7) 0.3150(5) 0.8789(3)
H25 H -0.0677 0.2035 0.8495
H26 H -0.2432 0.3172 0.8749
C21 C 0.0366(6) 0.3918(4) 1.0121(3)
C22 C 0.2699(6) 0.4696(5) 1.0456(4)
H27 H 0.3625 0.4787 0.9838
C23 C 0.3670(8) 0.5339(5) 1.1696(4)
H28 H 0.5252 0.5862 1.1909
C24 C 0.2340(9) 0.5220(5) 1.2627(4)
H29 H 0.3005 0.5667 1.3467
C25 C 0.0015(9) 0.4432(5) 1.2297(4)
H30 H -0.0898 0.4315 1.2915
C26 C -0.0973(7) 0.3812(4) 1.1053(4)
H31 H -0.2565 0.3316 1.0840
loop_
_geom_bond_atom_site_label_1
_geom_bond_atom_site_label_2
_geom_bond_site_symmetry_1
_geom_bond_site_symmetry_2
O1 C9 1_555 1_555
O2 C19 1_555 1_555
O3 C19 1_555 1_555
N1 C1 1_555 1_555
C1 H1 1_555 1_555
H2 C1 1_555 1_555
C2 C1 1_555 1_555
H3 C2 1_555 1_555
C3 C2 1_555 1_555
H4 C3 1_555 1_555
H5 C3 1_555 1_555
C4 C3 1_555 1_555
H6 C4 1_555 1_555
H7 C4 1_555 1_555
C5 C4 1_555 1_555
H8 C5 1_555 1_555
H9 C5 1_555 1_555
C6 C5 1_555 1_555
H10 C6 1_555 1_555
H11 C6 1_555 1_555
C7 C2 1_555 1_555
H12 C7 1_555 1_555
C8 N1 1_555 1_555
H13 C8 1_555 1_555
H14 C8 1_555 1_555
C9 N1 1_555 1_555
C10 C9 1_555 1_555
H15 C10 1_555 1_555
H16 C10 1_555 1_555
C11 C10 1_555 1_555
H17 C11 1_555 1_555
C12 C11 1_555 1_555
H18 C12 1_555 1_555
H19 C12 1_555 1_555
C13 C12 1_555 1_555
C14 C13 1_555 1_555
H20 C14 1_555 1_555
C15 C14 1_555 1_555
H21 C15 1_555 1_555
C16 C15 1_555 1_555
H22 C16 1_555 1_555
C17 C16 1_555 1_555
H23 C17 1_555 1_555
C18 C13 1_555 1_555
H24 C18 1_555 1_555
C19 C11 1_555 1_555
C20 O3 1_555 1_555
H25 C20 1_555 1_555
H26 C20 1_555 1_555
C21 C20 1_555 1_555
C22 C21 1_555 1_555
H27 C22 1_555 1_555
C23 C22 1_555 1_555
H28 C23 1_555 1_555
C24 C23 1_555 1_555
H29 C24 1_555 1_555
C25 C24 1_555 1_555
H30 C25 1_555 1_555
C26 C21 1_555 1_555
H31 C26 1_555 1_555
C6 C7 1_555 1_555
C7 C8 1_555 1_555
C17 C18 1_555 1_555
C25 C26 1_555 1_555

#END
