
#######################################################################
#
#                 Cambridge Crystallographic Data Centre
#                                CCDC 
#
#######################################################################
#
# If this CIF has been generated from an entry in the Cambridge 
# Structural Database, then it will include bibliographic, chemical, 
# crystal, experimental, refinement or atomic coordinate data resulting 
# from the CCDC's data processing and validation procedures.
#
#######################################################################

data_CEFSOY
_chemical_formula_moiety         'C34 H28 N4 O3'
_chemical_name_systematic        
3,3'-[1,3,4-oxadiazole-2,5-diylbis(methylene)]bis(1-methyl-3-phenyl-1,3-dihydro-2H-indol-2-one)
_symmetry_cell_setting           tetragonal
_symmetry_space_group_name_H-M   'P 43 21 2'
_symmetry_Int_Tables_number      96
_space_group_name_Hall           'P 4nw 2abw'
loop_
_symmetry_equiv_pos_site_id
_symmetry_equiv_pos_as_xyz
1 x,y,z
2 1/2-y,1/2+x,3/4+z
3 -x,-y,1/2+z
4 1/2+y,1/2-x,1/4+z
5 1/2+x,1/2-y,1/4-z
6 1/2-x,1/2+y,3/4-z
7 y,x,-z
8 -y,-x,1/2-z
_cell_length_a                   8.85740(10)
_cell_length_b                   8.85740(10)
_cell_length_c                   35.6660(7)
_cell_angle_alpha                90
_cell_angle_beta                 90
_cell_angle_gamma                90
_cell_volume                     2798.12
_exptl_crystal_colour            colorless
_exptl_crystal_description       prism
_cell_formula_units_Z            4
loop_
_atom_site_label
_atom_site_type_symbol
_atom_site_fract_x
_atom_site_fract_y
_atom_site_fract_z
O1 O 1.20469(13) 0.18263(16) 0.45244(3)
O2 O 0.97749(12) -0.02251(12) 0.500000
N1 N 0.97632(15) 0.30217(15) 0.45906(4)
N2 N 0.8212(2) -0.1976(2) 0.48041(5)
C1 C 0.97925(17) 0.08846(18) 0.41950(4)
C2 C 1.07182(17) 0.19370(18) 0.44568(4)
C3 C 0.82775(18) 0.27651(19) 0.44719(4)
C4 C 0.6996(2) 0.3588(2) 0.45620(5)
H1 H 0.704933 0.444425 0.471233
C5 C 0.5636(2) 0.3083(3) 0.44192(7)
H2 H 0.475470 0.360366 0.447774
C6 C 0.5555(2) 0.1842(3) 0.41947(7)
H3 H 0.462246 0.152953 0.410347
C7 C 0.6851(2) 0.1032(2) 0.40994(6)
H4 H 0.679359 0.019063 0.394415
C8 C 0.82196(18) 0.15091(19) 0.42406(4)
C9 C 1.0207(2) 0.4132(2) 0.48676(5)
H5 H 0.989277 0.511694 0.478679
H6 H 1.128460 0.411680 0.489648
H7 H 0.973812 0.389842 0.510325
C10 C 0.9913(2) -0.07743(19) 0.43299(5)
H8 H 0.941473 -0.142115 0.414864
H9 H 1.096983 -0.105957 0.433734
C11 C 0.9238(2) -0.10448(17) 0.47051(5)
C12 C 1.04610(18) 0.10618(19) 0.38013(4)
C13 C 1.1872(2) 0.0455(2) 0.37182(5)
H10 H 1.237746 -0.011634 0.389735
C14 C 1.2527(2) 0.0695(3) 0.33720(5)
H11 H 1.347188 0.028706 0.332026
C15 C 1.1794(3) 0.1533(3) 0.31030(5)
H12 H 1.224646 0.170362 0.287157
C16 C 1.0394(3) 0.2112(3) 0.31780(6)
H13 H 0.988719 0.266229 0.299505
C17 C 0.9726(2) 0.1885(2) 0.35261(5)
H14 H 0.877687 0.228830 0.357460
O1F O 1.18263(16) 0.20469(13) 0.54756(3)
N1F N 1.30217(15) -0.02368(15) 0.54094(4)
N2F N 0.8024(2) -0.1788(2) 0.51959(5)
C1F C 1.08846(18) -0.02075(17) 0.58050(4)
C2F C 1.19370(18) 0.07182(17) 0.55432(4)
C3F C 1.27651(19) -0.17225(18) 0.55281(4)
C4F C 1.3588(2) -0.3004(2) 0.54380(5)
H1F H 1.444425 -0.295067 0.528767
C5F C 1.3083(3) -0.4364(2) 0.55808(7)
H2F H 1.360366 -0.524530 0.552226
C6F C 1.1842(3) -0.4445(2) 0.58053(7)
H3F H 1.152953 -0.537754 0.589653
C7F C 1.1032(2) -0.3149(2) 0.59006(6)
H4F H 1.019063 -0.320641 0.605585
C8F C 1.15091(19) -0.17804(18) 0.57594(4)
C9F C 1.4132(2) 0.0207(2) 0.51324(5)
H5F H 1.511694 -0.010723 0.521321
H6F H 1.411680 0.128460 0.510352
H7F H 1.389842 -0.026188 0.489675
C10F C 0.92257(19) -0.0087(2) 0.56701(5)
H8F H 0.857885 -0.058527 0.585136
H9F H 0.894043 0.096983 0.566266
C11F C 0.89552(17) -0.0762(2) 0.52949(5)
C12F C 1.10618(19) 0.04610(18) 0.61987(4)
C13F C 1.0455(2) 0.1872(2) 0.62818(5)
H10F H 0.988366 0.237746 0.610265
C14F C 1.0695(3) 0.2527(2) 0.66280(5)
H11F H 1.028706 0.347188 0.667974
C15F C 1.1533(3) 0.1794(3) 0.68970(5)
H12F H 1.170362 0.224646 0.712843
C16F C 1.2112(3) 0.0394(3) 0.68220(6)
H13F H 1.266229 -0.011281 0.700495
C17F C 1.1885(2) -0.0274(2) 0.64739(5)
H14F H 1.228830 -0.122313 0.642540
loop_
_geom_bond_atom_site_label_1
_geom_bond_atom_site_label_2
_geom_bond_site_symmetry_1
_geom_bond_site_symmetry_2
O1 C2 1_555 1_555
O2 C11 1_555 1_555
N1 C2 1_555 1_555
N2 C11 1_555 1_555
C1 C2 1_555 1_555
C3 N1 1_555 1_555
C4 C3 1_555 1_555
H1 C4 1_555 1_555
C5 C4 1_555 1_555
H2 C5 1_555 1_555
C6 C5 1_555 1_555
H3 C6 1_555 1_555
C7 C6 1_555 1_555
H4 C7 1_555 1_555
C8 C1 1_555 1_555
C9 N1 1_555 1_555
H5 C9 1_555 1_555
H6 C9 1_555 1_555
H7 C9 1_555 1_555
C10 C1 1_555 1_555
H8 C10 1_555 1_555
H9 C10 1_555 1_555
C11 C10 1_555 1_555
C12 C1 1_555 1_555
C13 C12 1_555 1_555
H10 C13 1_555 1_555
C14 C13 1_555 1_555
H11 C14 1_555 1_555
C15 C14 1_555 1_555
H12 C15 1_555 1_555
C16 C15 1_555 1_555
H13 C16 1_555 1_555
C17 C12 1_555 1_555
H14 C17 1_555 1_555
O1F C2F 1_555 1_555
N1F C2F 1_555 1_555
N2F N2 1_555 1_555
C1F C2F 1_555 1_555
C3F N1F 1_555 1_555
C4F C3F 1_555 1_555
H1F C4F 1_555 1_555
C5F C4F 1_555 1_555
H2F C5F 1_555 1_555
C6F C5F 1_555 1_555
H3F C6F 1_555 1_555
C7F C6F 1_555 1_555
H4F C7F 1_555 1_555
C8F C1F 1_555 1_555
C9F N1F 1_555 1_555
H5F C9F 1_555 1_555
H6F C9F 1_555 1_555
H7F C9F 1_555 1_555
C10F C1F 1_555 1_555
H8F C10F 1_555 1_555
H9F C10F 1_555 1_555
C11F O2 1_555 1_555
C12F C1F 1_555 1_555
C13F C12F 1_555 1_555
H10F C13F 1_555 1_555
C14F C13F 1_555 1_555
H11F C14F 1_555 1_555
C15F C14F 1_555 1_555
H12F C15F 1_555 1_555
C16F C15F 1_555 1_555
H13F C16F 1_555 1_555
C17F C12F 1_555 1_555
H14F C17F 1_555 1_555
C3 C8 1_555 1_555
C7 C8 1_555 1_555
C16 C17 1_555 1_555
N2F C11F 1_555 1_555
C3F C8F 1_555 1_555
C7F C8F 1_555 1_555
C10F C11F 1_555 1_555
C16F C17F 1_555 1_555

#END
