
#######################################################################
#
#                 Cambridge Crystallographic Data Centre
#                                CCDC 
#
#######################################################################
#
# If this CIF has been generated from an entry in the Cambridge 
# Structural Database, then it will include bibliographic, chemical, 
# crystal, experimental, refinement or atomic coordinate data resulting 
# from the CCDC's data processing and validation procedures.
#
#######################################################################

data_CEFTAL
_chemical_formula_moiety         'C24 H25 N1 O2'
_chemical_name_systematic        
2-methyl-5'-(morpholin-4-yl)-1',4',4a',9a'-tetrahydro-4H-spiro[cyclohexa-2,5-diene-1,9'-[1,4]methanofluoren]-4-one
_symmetry_cell_setting           monoclinic
_symmetry_space_group_name_H-M   'C 2/c'
_symmetry_Int_Tables_number      15
_space_group_name_Hall           '-C 2yn'
loop_
_symmetry_equiv_pos_site_id
_symmetry_equiv_pos_as_xyz
1 x,y,z
2 -x,y,1/2-z
3 1/2+x,1/2+y,z
4 1/2-x,1/2+y,1/2-z
5 -x,-y,-z
6 x,-y,1/2+z
7 1/2-x,1/2-y,-z
8 1/2+x,1/2-y,1/2+z
_cell_length_a                   22.825(5)
_cell_length_b                   8.864(2)
_cell_length_c                   20.097(5)
_cell_angle_alpha                90
_cell_angle_beta                 113.810(4)
_cell_angle_gamma                90
_cell_volume                     3719.98
_exptl_crystal_colour            colorless
_exptl_crystal_description       block
_cell_formula_units_Z            8
loop_
_atom_site_label
_atom_site_type_symbol
_atom_site_fract_x
_atom_site_fract_y
_atom_site_fract_z
N1 N 0.38303(7) -0.00897(16) 0.15779(7)
O1 O 0.38530(9) 0.6099(2) 0.50720(8)
O2 O 0.41421(9) -0.13700(19) 0.04558(8)
C1 C 0.47707(9) 0.4843(2) 0.33614(12)
H1 H 0.5127 0.5382 0.3710
H2 H 0.4633 0.5331 0.2897
H3 H 0.4897 0.3826 0.3321
C2 C 0.42311(9) 0.48267(19) 0.36046(9)
C3 C 0.42763(10) 0.5525(2) 0.42129(10)
H4 H 0.4646 0.6073 0.4471
C4 C 0.37854(11) 0.5481(2) 0.44960(10)
C5 C 0.32030(10) 0.4656(2) 0.40614(10)
H5 H 0.2874 0.4598 0.4221
C6 C 0.31335(9) 0.39904(19) 0.34461(9)
H6 H 0.2745 0.3518 0.3181
C7 C 0.36349(8) 0.39401(18) 0.31436(8)
C8 C 0.38145(7) 0.22815(18) 0.31020(8)
C9 C 0.39817(8) 0.1263(2) 0.36735(9)
H7 H 0.4019 0.1565 0.4132
C10 C 0.40899(8) -0.0209(2) 0.35373(10)
H8 H 0.4197 -0.0919 0.3909
C11 C 0.40414(8) -0.06491(19) 0.28582(9)
H9 H 0.4112 -0.1656 0.2782
C12 C 0.38893(7) 0.03705(18) 0.22791(9)
C13 C 0.37695(7) 0.18837(18) 0.24141(8)
C14 C 0.35339(7) 0.31847(18) 0.18856(8)
H10 H 0.3857 0.3506 0.1710
C15 C 0.28747(8) 0.2890(2) 0.12455(9)
H11 H 0.2839 0.1950 0.0975
C16 C 0.27042(9) 0.4318(2) 0.07980(10)
H12 H 0.2701 0.4442 0.0337
C17 C 0.25608(9) 0.5357(2) 0.11771(10)
H13 H 0.2434 0.6342 0.1030
C18 C 0.26390(8) 0.46585(19) 0.18955(9)
H14 H 0.2411 0.5160 0.2156
C19 C 0.33759(8) 0.44699(18) 0.23245(8)
H15 H 0.3594 0.5402 0.2291
C20 C 0.24269(8) 0.3041(2) 0.16393(9)
H16 H 0.2526 0.2334 0.2038
H17 H 0.1978 0.2973 0.1313
C21 C 0.42597(9) 0.0681(2) 0.13057(10)
H18 H 0.4700 0.0428 0.1612
H19 H 0.4210 0.1764 0.1330
C22 C 0.41156(11) 0.0230(3) 0.05339(11)
H20 H 0.3692 0.0589 0.0220
H21 H 0.4422 0.0707 0.0379
C23 C 0.36989(13) -0.2068(3) 0.06922(12)
H22 H 0.3709 -0.3152 0.0630
H23 H 0.3270 -0.1716 0.0395
C24 C 0.38532(11) -0.1720(2) 0.14753(10)
H24 H 0.3547 -0.2219 0.1624
H25 H 0.4277 -0.2097 0.1776
loop_
_geom_bond_atom_site_label_1
_geom_bond_atom_site_label_2
_geom_bond_site_symmetry_1
_geom_bond_site_symmetry_2
N1 C12 1_555 1_555
O1 C4 1_555 1_555
O2 C22 1_555 1_555
C1 H1 1_555 1_555
H2 C1 1_555 1_555
H3 C1 1_555 1_555
C2 C1 1_555 1_555
C3 C2 1_555 1_555
H4 C3 1_555 1_555
C4 C3 1_555 1_555
C5 C4 1_555 1_555
H5 C5 1_555 1_555
C6 C5 1_555 1_555
H6 C6 1_555 1_555
C7 C2 1_555 1_555
C8 C7 1_555 1_555
C9 C8 1_555 1_555
H7 C9 1_555 1_555
C10 C9 1_555 1_555
H8 C10 1_555 1_555
C11 C10 1_555 1_555
H9 C11 1_555 1_555
C12 C11 1_555 1_555
C13 C8 1_555 1_555
C14 C13 1_555 1_555
H10 C14 1_555 1_555
C15 C14 1_555 1_555
H11 C15 1_555 1_555
C16 C15 1_555 1_555
H12 C16 1_555 1_555
C17 C16 1_555 1_555
H13 C17 1_555 1_555
C18 C17 1_555 1_555
H14 C18 1_555 1_555
C19 C7 1_555 1_555
H15 C19 1_555 1_555
C20 C15 1_555 1_555
H16 C20 1_555 1_555
H17 C20 1_555 1_555
C21 N1 1_555 1_555
H18 C21 1_555 1_555
H19 C21 1_555 1_555
C22 C21 1_555 1_555
H20 C22 1_555 1_555
H21 C22 1_555 1_555
C23 O2 1_555 1_555
H22 C23 1_555 1_555
H23 C23 1_555 1_555
C24 N1 1_555 1_555
H24 C24 1_555 1_555
H25 C24 1_555 1_555
C6 C7 1_555 1_555
C12 C13 1_555 1_555
C14 C19 1_555 1_555
C18 C19 1_555 1_555
C18 C20 1_555 1_555
C23 C24 1_555 1_555

#END
