
#######################################################################
#
#                 Cambridge Crystallographic Data Centre
#                                CCDC 
#
#######################################################################
#
# If this CIF has been generated from an entry in the Cambridge 
# Structural Database, then it will include bibliographic, chemical, 
# crystal, experimental, refinement or atomic coordinate data resulting 
# from the CCDC's data processing and validation procedures.
#
#######################################################################

data_CEFTUE
_chemical_formula_moiety         'C8 H3 F4 N1 O3'
_chemical_name_systematic        '2-Carbamoyl-3,4,5,6-tetrafluorobenzoic acid'
_symmetry_cell_setting           monoclinic
_symmetry_space_group_name_H-M   'P 21/c'
_symmetry_Int_Tables_number      14
_space_group_name_Hall           '-P 2ybc'
loop_
_symmetry_equiv_pos_site_id
_symmetry_equiv_pos_as_xyz
1 x,y,z
2 -x,1/2+y,1/2-z
3 -x,-y,-z
4 x,1/2-y,1/2+z
_cell_length_a                   14.5872(6)
_cell_length_b                   6.9193(3)
_cell_length_c                   8.6129(4)
_cell_angle_alpha                90
_cell_angle_beta                 100.086(4)
_cell_angle_gamma                90
_cell_volume                     855.893
_exptl_crystal_colour            colorless
_exptl_crystal_description       block
_cell_formula_units_Z            4
loop_
_atom_site_label
_atom_site_type_symbol
_atom_site_fract_x
_atom_site_fract_y
_atom_site_fract_z
F1 F 0.27285(8) 0.04074(16) 0.69216(13)
F2 F 0.11543(8) 0.66145(18) 0.36824(14)
F3 F 0.09507(9) 0.02888(19) 0.54379(17)
O1 O 0.39455(9) 0.41810(19) 0.84775(14)
F4 F 0.01714(8) 0.3444(2) 0.38240(16)
O2 O 0.27710(9) 0.8186(2) 0.40108(15)
H1 H 0.3157 0.9023 0.3929
O3 O 0.39129(9) 0.7021(2) 0.58320(16)
N1 N 0.45248(11) 0.2650(2) 0.65574(18)
H2 H 0.5059 0.2493 0.7150
H3 H 0.4431 0.2227 0.5604
C1 C 0.25134(12) 0.5238(3) 0.5229(2)
C2 C 0.23637(13) 0.1978(3) 0.6119(2)
C3 C 0.29012(12) 0.3598(3) 0.6086(2)
C4 C 0.14478(14) 0.1886(3) 0.5367(2)
C5 C 0.10574(13) 0.3486(3) 0.4559(2)
C6 C 0.31341(12) 0.6916(3) 0.5074(2)
C7 C 0.15862(13) 0.5134(3) 0.4498(2)
C8 C 0.38555(12) 0.3533(3) 0.7106(2)
loop_
_geom_bond_atom_site_label_1
_geom_bond_atom_site_label_2
_geom_bond_site_symmetry_1
_geom_bond_site_symmetry_2
F1 C2 1_555 1_555
F2 C7 1_555 1_555
F3 C4 1_555 1_555
O1 C8 1_555 1_555
F4 C5 1_555 1_555
O2 H1 1_555 1_555
O3 C6 1_555 1_555
N1 H2 1_555 1_555
H3 N1 1_555 1_555
C1 C3 1_555 1_555
C2 C3 1_555 1_555
C3 C8 1_555 1_555
C4 C2 1_555 1_555
C5 C4 1_555 1_555
C6 O2 1_555 1_555
C7 C1 1_555 1_555
C8 N1 1_555 1_555
C1 C6 1_555 1_555
C5 C7 1_555 1_555

#END
