
#######################################################################
#
#                 Cambridge Crystallographic Data Centre
#                                CCDC 
#
#######################################################################
#
# If this CIF has been generated from an entry in the Cambridge 
# Structural Database, then it will include bibliographic, chemical, 
# crystal, experimental, refinement or atomic coordinate data resulting 
# from the CCDC's data processing and validation procedures.
#
#######################################################################

data_CEFTOZ
_chemical_formula_moiety         'C18 H16 N2 O3 S1'
_chemical_name_systematic        
N-[3-(benzyloxy)-5-methyl-4-oxo-1,3-thiazolidin-2-ylidene]benzamide
_symmetry_cell_setting           orthorhombic
_symmetry_space_group_name_H-M   'P b c a'
_symmetry_Int_Tables_number      61
_space_group_name_Hall           '-P 2ac 2ab'
loop_
_symmetry_equiv_pos_site_id
_symmetry_equiv_pos_as_xyz
1 x,y,z
2 1/2-x,-y,1/2+z
3 -x,1/2+y,1/2-z
4 1/2+x,1/2-y,-z
5 -x,-y,-z
6 1/2+x,y,1/2-z
7 x,1/2-y,1/2+z
8 1/2-x,1/2+y,z
_cell_length_a                   7.2996(7)
_cell_length_b                   20.6060(19)
_cell_length_c                   21.350(2)
_cell_angle_alpha                90
_cell_angle_beta                 90
_cell_angle_gamma                90
_cell_volume                     3211.37
_exptl_crystal_colour            colorless
_exptl_crystal_description       block
_cell_formula_units_Z            8
loop_
_atom_site_label
_atom_site_type_symbol
_atom_site_fract_x
_atom_site_fract_y
_atom_site_fract_z
C1 C 0.5907(4) 0.10305(12) 0.40684(12)
H1 H 0.6864 0.1355 0.3995
H2 H 0.4840 0.1130 0.3807
H3 H 0.6376 0.0599 0.3961
C2 C 0.5353(4) 0.10417(11) 0.47509(11)
H4 H 0.4299 0.0738 0.4812
C3 C 0.6910(4) 0.08335(11) 0.51765(11)
C4 C 0.6277(3) 0.18816(10) 0.55986(9)
C5 C 1.0339(3) 0.14923(12) 0.58057(10)
H5 H 1.0213 0.1966 0.5739
H6 H 1.0633 0.1286 0.5399
C6 C 1.1822(3) 0.13583(10) 0.62691(10)
C7 C 1.2406(3) 0.18333(11) 0.66887(11)
H7 H 1.1828 0.2246 0.6691
C8 C 1.3827(3) 0.17069(11) 0.71024(11)
H8 H 1.4213 0.2033 0.7388
C9 C 1.4685(3) 0.11070(11) 0.71023(10)
H9 H 1.5657 0.1021 0.7386
C10 C 1.4115(3) 0.06355(11) 0.66861(10)
H10 H 1.4703 0.0224 0.6683
C11 C 1.2691(3) 0.07580(10) 0.62730(10)
H11 H 1.2305 0.0429 0.5990
C12 C 0.5646(3) 0.29085(10) 0.59288(9)
C13 C 0.6218(3) 0.34287(9) 0.63768(9)
C14 C 0.5834(3) 0.40759(10) 0.62375(10)
H12 H 0.5201 0.4185 0.5863
C15 C 0.6384(3) 0.45614(11) 0.66496(11)
H13 H 0.6148 0.5003 0.6552
C16 C 0.7271(3) 0.44024(11) 0.71996(10)
H14 H 0.7630 0.4736 0.7481
C17 C 0.7642(3) 0.37590(12) 0.73432(10)
H15 H 0.8238 0.3652 0.7725
C18 C 0.7140(3) 0.32732(11) 0.69282(10)
H16 H 0.7425 0.2834 0.7020
N1 N 0.6647(2) 0.23385(8) 0.59906(8)
N2 N 0.7256(2) 0.13089(8) 0.56194(8)
O1 O 0.7738(3) 0.03275(9) 0.51462(9)
O2 O 0.4417(2) 0.29976(7) 0.55450(7)
O3 O 0.8630(2) 0.12234(7) 0.60589(7)
S1 S 0.46575(7) 0.18543(2) 0.49976(2)
loop_
_geom_bond_atom_site_label_1
_geom_bond_atom_site_label_2
_geom_bond_site_symmetry_1
_geom_bond_site_symmetry_2
C1 H1 1_555 1_555
H2 C1 1_555 1_555
H3 C1 1_555 1_555
C2 C1 1_555 1_555
H4 C2 1_555 1_555
C3 C2 1_555 1_555
C4 N1 1_555 1_555
C5 H5 1_555 1_555
H6 C5 1_555 1_555
C6 C5 1_555 1_555
C7 C6 1_555 1_555
H7 C7 1_555 1_555
C8 C7 1_555 1_555
H8 C8 1_555 1_555
C9 C8 1_555 1_555
H9 C9 1_555 1_555
C10 C9 1_555 1_555
H10 C10 1_555 1_555
C11 C6 1_555 1_555
H11 C11 1_555 1_555
C12 C13 1_555 1_555
C13 C14 1_555 1_555
C14 H12 1_555 1_555
C15 C14 1_555 1_555
H13 C15 1_555 1_555
C16 C15 1_555 1_555
H14 C16 1_555 1_555
C17 C16 1_555 1_555
H15 C17 1_555 1_555
C18 C13 1_555 1_555
H16 C18 1_555 1_555
N1 C12 1_555 1_555
N2 C3 1_555 1_555
O1 C3 1_555 1_555
O2 C12 1_555 1_555
O3 C5 1_555 1_555
S1 C2 1_555 1_555
C4 N2 1_555 1_555
C4 S1 1_555 1_555
C10 C11 1_555 1_555
C17 C18 1_555 1_555
N2 O3 1_555 1_555

#END
