
#######################################################################
#
#                 Cambridge Crystallographic Data Centre
#                                CCDC 
#
#######################################################################
#
# If this CIF has been generated from an entry in the Cambridge 
# Structural Database, then it will include bibliographic, chemical, 
# crystal, experimental, refinement or atomic coordinate data resulting 
# from the CCDC's data processing and validation procedures.
#
#######################################################################

data_CEFYOC
_chemical_compound_source        'stems and leaves of Daphniphyllum yunnanense'
_chemical_formula_moiety         'C23 H31 N1 O3'
_chemical_name_systematic        'Daphniyunnine A'
_chemical_properties_biological  'no cytotoxic activity'
_symmetry_cell_setting           orthorhombic
_symmetry_space_group_name_H-M   'P 21 21 21'
_symmetry_Int_Tables_number      19
_space_group_name_Hall           'P 2ac 2ab'
loop_
_symmetry_equiv_pos_site_id
_symmetry_equiv_pos_as_xyz
1 x,y,z
2 1/2-x,-y,1/2+z
3 -x,1/2+y,1/2-z
4 1/2+x,1/2-y,-z
_cell_length_a                   6.8007(7)
_cell_length_b                   11.2573(11)
_cell_length_c                   24.747(2)
_cell_angle_alpha                90
_cell_angle_beta                 90
_cell_angle_gamma                90
_cell_volume                     1894.57
_exptl_crystal_colour            colorless
_exptl_crystal_description       rhomboid
_chemical_melting_point          '171-172 deg.C'
_cell_formula_units_Z            4
loop_
_atom_site_label
_atom_site_type_symbol
_atom_site_fract_x
_atom_site_fract_y
_atom_site_fract_z
O1 O 0.4892(2) 0.36625(15) 0.79583(6)
O2 O -0.0650(3) 0.56019(18) 0.94305(8)
O3 O 0.1815(3) 0.68789(15) 0.93470(7)
N1 N 0.1917(3) 0.11380(16) 0.74966(7)
C1 C 0.3167(3) 0.34347(16) 0.79037(8)
C2 C 0.2251(3) 0.34852(19) 0.73432(8)
C3 C 0.0163(3) 0.3012(2) 0.73466(9)
C4 C 0.0232(3) 0.1853(2) 0.76654(8)
C5 C 0.0522(3) 0.2030(2) 0.82844(8)
C6 C 0.1533(3) 0.08315(18) 0.84053(8)
C7 C 0.3051(4) 0.07211(19) 0.79632(8)
C8 C 0.1847(3) 0.31543(17) 0.83932(7)
C9 C 0.3090(3) 0.31637(18) 0.88961(7)
C10 C 0.3800(3) 0.23967(18) 0.92538(8)
C11 C 0.3837(4) 0.1079(2) 0.92458(10)
C12 C 0.2083(4) 0.0492(2) 0.89823(9)
C13 C 0.0637(4) 0.4329(2) 0.84840(10)
C14 C 0.1963(4) 0.5205(2) 0.87946(9)
C15 C 0.3600(4) 0.44222(19) 0.90495(8)
C16 C 0.3960(4) 0.4325(2) 0.96568(10)
C17 C 0.4832(4) 0.3087(2) 0.97031(9)
C18 C 0.3533(4) 0.2749(2) 0.69549(9)
C19 C 0.2911(5) 0.1452(2) 0.69975(10)
C20 C 0.3393(6) 0.3166(3) 0.63712(10)
C21 C -0.1450(3) 0.2087(3) 0.85726(11)
C22 C 0.0847(4) 0.5889(2) 0.92198(9)
C23 C 0.0952(6) 0.7600(3) 0.97678(14)
H1 H 0.234(3) 0.4341(19) 0.7239(8)
H2 H -0.022(3) 0.284(2) 0.6982(10)
H3 H -0.092(3) 0.356(2) 0.7520(10)
H4 H -0.125(2) 0.1424(13) 0.7612(6)
H5 H 0.040(3) 0.029(2) 0.8325(9)
H6 H 0.366(3) -0.011(2) 0.7897(10)
H7 H 0.431(3) 0.120(2) 0.8027(8)
H8 H 0.388(3) 0.079(2) 0.9610(11)
H9 H 0.511(3) 0.089(2) 0.9075(10)
H10 H 0.093(3) 0.060(2) 0.9203(10)
H11 H 0.236(3) -0.038(2) 0.8988(9)
H12 H 0.014(4) 0.468(2) 0.8133(11)
H13 H -0.051(4) 0.417(2) 0.8710(12)
H14 H 0.253(3) 0.585(2) 0.8575(10)
H15 H 0.478(3) 0.470(2) 0.8891(9)
H16 H 0.481(4) 0.495(2) 0.9786(11)
H17 H 0.270(3) 0.429(2) 0.9861(11)
H18 H 0.624(3) 0.3133(18) 0.9656(8)
H19 H 0.458(3) 0.275(2) 1.0050(12)
H20 H 0.493(3) 0.2782(18) 0.7058(8)
H21 H 0.207(4) 0.132(2) 0.6720(12)
H22 H 0.418(4) 0.092(3) 0.6961(12)
H23 H 0.199(4) 0.323(3) 0.6279(12)
H24 H 0.428(5) 0.265(4) 0.6149(18)
H25 H 0.406(4) 0.396(3) 0.6366(12)
H26 H -0.234(3) 0.273(2) 0.8434(9)
H27 H -0.120(3) 0.226(2) 0.8960(11)
H28 H -0.227(4) 0.130(3) 0.8525(10)
H29 H -0.023(4) 0.798(3) 0.9663(11)
H30 H 0.199(4) 0.825(3) 0.9863(11)
H31 H 0.078(4) 0.717(3) 1.0075(15)
loop_
_geom_bond_atom_site_label_1
_geom_bond_atom_site_label_2
_geom_bond_site_symmetry_1
_geom_bond_site_symmetry_2
O1 C1 1_555 1_555
O2 C22 1_555 1_555
O3 C22 1_555 1_555
N1 C4 1_555 1_555
C1 C2 1_555 1_555
C2 C3 1_555 1_555
C3 C4 1_555 1_555
C4 C5 1_555 1_555
C5 C6 1_555 1_555
C6 C7 1_555 1_555
C7 N1 1_555 1_555
C8 C1 1_555 1_555
C9 C8 1_555 1_555
C10 C9 1_555 1_555
C11 C10 1_555 1_555
C12 C6 1_555 1_555
C13 C8 1_555 1_555
C14 C13 1_555 1_555
C15 C9 1_555 1_555
C16 C15 1_555 1_555
C17 C10 1_555 1_555
C18 C2 1_555 1_555
C19 N1 1_555 1_555
C20 C18 1_555 1_555
C21 C5 1_555 1_555
C22 C14 1_555 1_555
C23 O3 1_555 1_555
H1 C2 1_555 1_555
H2 C3 1_555 1_555
H3 C3 1_555 1_555
H4 C4 1_555 1_555
H5 C6 1_555 1_555
H6 C7 1_555 1_555
H7 C7 1_555 1_555
H8 C11 1_555 1_555
H9 C11 1_555 1_555
H10 C12 1_555 1_555
H11 C12 1_555 1_555
H12 C13 1_555 1_555
H13 C13 1_555 1_555
H14 C14 1_555 1_555
H15 C15 1_555 1_555
H16 C16 1_555 1_555
H17 C16 1_555 1_555
H18 C17 1_555 1_555
H19 C17 1_555 1_555
H20 C18 1_555 1_555
H21 C19 1_555 1_555
H22 C19 1_555 1_555
H23 C20 1_555 1_555
H24 C20 1_555 1_555
H25 C20 1_555 1_555
H26 C21 1_555 1_555
H27 C21 1_555 1_555
H28 C21 1_555 1_555
H29 C23 1_555 1_555
H30 C23 1_555 1_555
H31 C23 1_555 1_555
C5 C8 1_555 1_555
C11 C12 1_555 1_555
C14 C15 1_555 1_555
C16 C17 1_555 1_555
C18 C19 1_555 1_555

#END
