
#######################################################################
#
#                 Cambridge Crystallographic Data Centre
#                                CCDC 
#
#######################################################################
#
# If this CIF has been generated from an entry in the Cambridge 
# Structural Database, then it will include bibliographic, chemical, 
# crystal, experimental, refinement or atomic coordinate data resulting 
# from the CCDC's data processing and validation procedures.
#
#######################################################################

data_CEGCOJ
_chemical_formula_moiety         'C33 H27 N1 O5,C7 H8'
_chemical_name_systematic        
'5-(2,5-dihydroxy-4-(2-hydroxynaphthalen-1-yl)phenyl)-1-(4-methoxyphenyl)-4-phenylpyrrolidin-2-one toluene solvate'
_symmetry_cell_setting           monoclinic
_symmetry_space_group_name_H-M   'P 21/c'
_symmetry_Int_Tables_number      14
_space_group_name_Hall           '-P 2ybc'
loop_
_symmetry_equiv_pos_site_id
_symmetry_equiv_pos_as_xyz
1 x,y,z
2 -x,1/2+y,1/2-z
3 -x,-y,-z
4 x,1/2-y,1/2+z
_cell_length_a                   14.1532(5)
_cell_length_b                   16.0447(5)
_cell_length_c                   12.6867(4)
_cell_angle_alpha                90
_cell_angle_beta                 93.778(2)
_cell_angle_gamma                90
_cell_volume                     2874.68
_exptl_crystal_colour            colorless
_exptl_crystal_description       prism
_chemical_melting_point          '250-250.5 deg.C'
_cell_formula_units_Z            4
loop_
_atom_site_label
_atom_site_type_symbol
_atom_site_fract_x
_atom_site_fract_y
_atom_site_fract_z
N1 N 0.40459(14) 0.59189(12) 0.33477(15)
O1 O 0.52109(14) 0.80041(11) 0.19755(14)
H1 H 0.548(2) 0.847(2) 0.177(3)
O2 O 0.71336(17) 0.66188(13) 0.54778(17)
H2 H 0.679(3) 0.615(3) 0.566(3)
O3 O 0.40596(13) 0.45023(10) 0.36353(13)
O4 O 0.19029(18) 0.69903(16) 0.66131(18)
C1 C 0.6993(2) 0.77064(16) 0.4211(2)
C2 C 0.8586(5) 0.8042(5) 0.3094(7)
H3 H 0.8076 0.7723 0.2781
C3 C 0.9335(4) 0.8241(4) 0.2514(5)
H4 H 0.9326 0.8075 0.1794
C4 C 1.0112(4) 0.8683(5) 0.2958(6)
H5 H 1.0626 0.8817 0.2543
C5 C 1.0128(4) 0.8923(4) 0.3999(5)
H6 H 1.0663 0.9212 0.4308
C6 C 0.9369(4) 0.8746(3) 0.4604(6)
C7 C 0.8560(5) 0.8309(4) 0.4167(6)
C8 C 0.7793(5) 0.8136(6) 0.4784(6)
C9 C 0.7851(6) 0.8370(5) 0.5830(5)
O5 O 0.7155(4) 0.8195(3) 0.6508(3)
H7 H 0.6907 0.7733 0.6349
C10 C 0.8647(5) 0.8792(4) 0.6287(5)
H8 H 0.868 0.8944 0.7013
C11 C 0.9373(5) 0.8982(4) 0.5666(6)
H9 H 0.9901 0.9285 0.5968
C12 C 0.6492(2) 0.80604(16) 0.3332(2)
H10 H 0.6711 0.8568 0.3051
C13 C 0.56907(19) 0.76924(15) 0.28658(19)
C14 C 0.53430(18) 0.69532(15) 0.32745(19)
C15 C 0.58225(19) 0.66089(15) 0.4159(2)
H11 H 0.5586 0.6114 0.4457
C16 C 0.6641(2) 0.69707(16) 0.4618(2)
C17 C 0.45087(18) 0.65298(14) 0.26840(18)
H12 H 0.4039 0.6957 0.2413
C18 C 0.48278(19) 0.59868(15) 0.17523(19)
H13 H 0.5443 0.6202 0.1516
C19 C 0.49853(19) 0.51350(15) 0.22873(19)
H14 H 0.4837 0.4676 0.1781
H15 H 0.5649 0.5075 0.2577
C20 C 0.43165(17) 0.51309(14) 0.31559(18)
C21 C 0.41056(18) 0.59599(15) 0.08255(19)
C22 C 0.42776(19) 0.63867(16) -0.0091(2)
H16 H 0.4842 0.6704 -0.0121
C23 C 0.3635(2) 0.63576(18) -0.0966(2)
H17 H 0.3765 0.6652 -0.159
C24 C 0.2811(2) 0.59040(17) -0.0935(2)
H18 H 0.2374 0.5882 -0.1535
C25 C 0.2624(2) 0.54794(18) -0.0020(2)
H19 H 0.2054 0.517 0.001
C26 C 0.3266(2) 0.55067(17) 0.0848(2)
H20 H 0.3133 0.5212 0.1471
C27 C 0.34577(18) 0.61700(14) 0.41664(19)
C28 C 0.3625(2) 0.58770(18) 0.5191(2)
H21 H 0.4118 0.5486 0.5349
C29 C 0.3079(2) 0.6150(2) 0.5979(2)
H22 H 0.3186 0.5936 0.6675
C30 C 0.2377(2) 0.67334(19) 0.5761(2)
C31 C 0.2192(2) 0.70201(19) 0.4744(2)
H23 H 0.1696 0.7408 0.4587
C32 C 0.2741(2) 0.67354(17) 0.3951(2)
H24 H 0.262 0.6934 0.325
C33 C 0.1188(3) 0.7617(3) 0.6413(3)
H25 H 0.1474 0.8114 0.6119
H26 H 0.0909 0.7761 0.7076
H27 H 0.0694 0.7401 0.5908
C34? C 0.7407(7) 0.8462(5) 0.6209(6)
H28? H 0.6815 0.8212 0.6004
C35? C 0.7517(4) 0.8857(4) 0.7180(5)
H29? H 0.7005 0.8868 0.7628
C36? C 0.8371(5) 0.9237(4) 0.7506(5)
H30? H 0.8444 0.9503 0.8175
C37? C 0.9110(5) 0.9224(4) 0.6851(5)
H31? H 0.9692 0.9487 0.7069
C38? C 0.9008(6) 0.8829(5) 0.5868(7)
C39? C 0.8147(6) 0.8420(6) 0.5506(7)
C40? C 0.8010(6) 0.8056(7) 0.4489(7)
C41? C 0.8767(6) 0.8106(6) 0.3843(8)
O6? O 0.8768(5) 0.7748(5) 0.2861(6)
H32? H 0.8234 0.7538 0.2701
C42? C 0.9635(6) 0.8497(5) 0.4159(7)
H33? H 1.0141 0.8504 0.3703
C43? C 0.9732(5) 0.8864(5) 0.5138(7)
H34? H 1.0302 0.9153 0.5336
loop_
_geom_bond_atom_site_label_1
_geom_bond_atom_site_label_2
_geom_bond_site_symmetry_1
_geom_bond_site_symmetry_2
N1 C17 1_555 1_555
O1 H1 1_555 1_555
O2 H2 1_555 1_555
O3 C20 1_555 1_555
O4 C30 1_555 1_555
C1 C8 1_555 1_555
C2 H3 1_555 1_555
C3 C2 1_555 1_555
H4 C3 1_555 1_555
C4 C3 1_555 1_555
H5 C4 1_555 1_555
C5 C4 1_555 1_555
H6 C5 1_555 1_555
C6 C5 1_555 1_555
C7 C2 1_555 1_555
C8 C7 1_555 1_555
C9 C8 1_555 1_555
O5 C9 1_555 1_555
H7 O5 1_555 1_555
C10 C9 1_555 1_555
H8 C10 1_555 1_555
C11 C6 1_555 1_555
H9 C11 1_555 1_555
C12 C1 1_555 1_555
H10 C12 1_555 1_555
C13 O1 1_555 1_555
C14 C13 1_555 1_555
C15 C14 1_555 1_555
H11 C15 1_555 1_555
C16 O2 1_555 1_555
C17 C14 1_555 1_555
H12 C17 1_555 1_555
C18 C17 1_555 1_555
H13 C18 1_555 1_555
C19 C18 1_555 1_555
H14 C19 1_555 1_555
H15 C19 1_555 1_555
C20 N1 1_555 1_555
C21 C18 1_555 1_555
C22 C21 1_555 1_555
H16 C22 1_555 1_555
C23 C22 1_555 1_555
H17 C23 1_555 1_555
C24 C23 1_555 1_555
H18 C24 1_555 1_555
C25 C24 1_555 1_555
H19 C25 1_555 1_555
C26 C21 1_555 1_555
H20 C26 1_555 1_555
C27 N1 1_555 1_555
C28 C27 1_555 1_555
H21 C28 1_555 1_555
C29 C28 1_555 1_555
H22 C29 1_555 1_555
C30 C29 1_555 1_555
C31 C30 1_555 1_555
H23 C31 1_555 1_555
C32 C27 1_555 1_555
H24 C32 1_555 1_555
C33 O4 1_555 1_555
H25 C33 1_555 1_555
H26 C33 1_555 1_555
H27 C33 1_555 1_555
C1 C16 1_555 1_555
C6 C7 1_555 1_555
C10 C11 1_555 1_555
C12 C13 1_555 1_555
C15 C16 1_555 1_555
C19 C20 1_555 1_555
C25 C26 1_555 1_555
C31 C32 1_555 1_555

#END
