
#######################################################################
#
#                 Cambridge Crystallographic Data Centre
#                                CCDC 
#
#######################################################################
#
# If this CIF has been generated from an entry in the Cambridge 
# Structural Database, then it will include bibliographic, chemical, 
# crystal, experimental, refinement or atomic coordinate data resulting 
# from the CCDC's data processing and validation procedures.
#
#######################################################################

data_CEGHUU
_chemical_formula_moiety         'C26 H24 B1 N1'
_chemical_name_systematic        
6-mesityl-6-phenyl-6H-5\l^5^,6\l^5^-pyrido[1,2-b][2,1]benzazaborole
_symmetry_cell_setting           monoclinic
_symmetry_space_group_name_H-M   'P 21/n'
_symmetry_Int_Tables_number      14
_space_group_name_Hall           '-P 2yn'
loop_
_symmetry_equiv_pos_site_id
_symmetry_equiv_pos_as_xyz
1 x,y,z
2 1/2-x,1/2+y,1/2-z
3 -x,-y,-z
4 1/2+x,1/2-y,1/2+z
_cell_length_a                   8.2669(2)
_cell_length_b                   20.5260(5)
_cell_length_c                   11.8534(3)
_cell_angle_alpha                90
_cell_angle_beta                 93.4290(10)
_cell_angle_gamma                90
_cell_volume                     2007.76
_exptl_crystal_description       block
_cell_formula_units_Z            4
loop_
_atom_site_label
_atom_site_type_symbol
_atom_site_fract_x
_atom_site_fract_y
_atom_site_fract_z
B1 B 0.15515(14) 0.16626(6) 0.92835(10)
N1 N -0.02677(11) 0.18185(4) 0.87393(7)
C1 C 0.21234(13) 0.24126(5) 0.94191(9)
C2 C 0.35365(15) 0.26945(6) 0.98977(10)
H1 H 0.4388 0.2424 1.0202
C3 C 0.37098(17) 0.33687(6) 0.99330(10)
H2 H 0.4678 0.3555 1.0264
C4 C 0.24843(17) 0.37723(6) 0.94903(10)
H3 H 0.2622 0.4232 0.9519
C5 C 0.10679(16) 0.35121(5) 0.90085(10)
H4 H 0.0228 0.3786 0.8700
C6 C 0.09007(14) 0.28340(5) 0.89857(9)
C7 C -0.05139(14) 0.24648(5) 0.85534(9)
C8 C -0.19684(15) 0.26815(6) 0.80316(11)
H5 H -0.2149 0.3133 0.7896
C9 C -0.31385(16) 0.22302(7) 0.77166(12)
H6 H -0.4145 0.2371 0.7371
C10 C -0.28602(15) 0.15698(7) 0.79006(11)
H7 H -0.3664 0.1257 0.7680
C11 C -0.13968(14) 0.13792(6) 0.84081(10)
H8 H -0.1183 0.0929 0.8526
C12 C 0.15544(12) 0.12675(5) 1.04781(9)
C13 C 0.02483(13) 0.12723(5) 1.12045(9)
C14 C 0.02931(14) 0.08848(5) 1.21712(9)
H9 H -0.0605 0.0894 1.2635
C15 C 0.15984(16) 0.04859(6) 1.24825(9)
C16 C 0.29304(14) 0.05194(5) 1.18314(10)
H10 H 0.3864 0.0268 1.2046
C17 C 0.29444(13) 0.09118(5) 1.08673(9)
C18 C -0.12114(14) 0.17162(6) 1.10391(10)
H11 H -0.1725 0.1766 1.1758
H12 H -0.1990 0.1526 1.0476
H13 H -0.0864 0.2144 1.0776
C19 C 0.15816(19) 0.00574(7) 1.35143(11)
H14 H 0.2635 -0.0158 1.3638
H15 H 0.0731 -0.0273 1.3401
H16 H 0.1368 0.0324 1.4175
C20 C 0.45626(14) 0.09593(6) 1.03317(12)
H17 H 0.5427 0.1027 1.0922
H18 H 0.4539 0.1326 0.9802
H19 H 0.4766 0.0555 0.9925
C21 C 0.23075(12) 0.12740(5) 0.82343(9)
C22 C 0.23949(14) 0.05946(6) 0.81782(10)
H20 H 0.2043 0.0343 0.8790
C23 C 0.29829(15) 0.02770(6) 0.72522(11)
H21 H 0.3048 -0.0185 0.7246
C24 C 0.34748(15) 0.06292(7) 0.63392(11)
H22 H 0.3896 0.0413 0.5712
C25 C 0.33459(16) 0.13016(7) 0.63507(10)
H23 H 0.3648 0.1549 0.5719
C26 C 0.27749(14) 0.16138(6) 0.72869(9)
H24 H 0.2699 0.2076 0.7283
loop_
_geom_bond_atom_site_label_1
_geom_bond_atom_site_label_2
_geom_bond_site_symmetry_1
_geom_bond_site_symmetry_2
B1 N1 1_555 1_555
N1 C7 1_555 1_555
C1 B1 1_555 1_555
C2 C1 1_555 1_555
H1 C2 1_555 1_555
C3 C2 1_555 1_555
H2 C3 1_555 1_555
C4 C3 1_555 1_555
H3 C4 1_555 1_555
C5 C4 1_555 1_555
H4 C5 1_555 1_555
C6 C1 1_555 1_555
C7 C6 1_555 1_555
C8 C7 1_555 1_555
H5 C8 1_555 1_555
C9 C8 1_555 1_555
H6 C9 1_555 1_555
C10 C9 1_555 1_555
H7 C10 1_555 1_555
C11 N1 1_555 1_555
H8 C11 1_555 1_555
C12 B1 1_555 1_555
C13 C12 1_555 1_555
C14 C13 1_555 1_555
H9 C14 1_555 1_555
C15 C14 1_555 1_555
C16 C15 1_555 1_555
H10 C16 1_555 1_555
C17 C12 1_555 1_555
C18 C13 1_555 1_555
H11 C18 1_555 1_555
H12 C18 1_555 1_555
H13 C18 1_555 1_555
C19 C15 1_555 1_555
H14 C19 1_555 1_555
H15 C19 1_555 1_555
H16 C19 1_555 1_555
C20 C17 1_555 1_555
H17 C20 1_555 1_555
H18 C20 1_555 1_555
H19 C20 1_555 1_555
C21 B1 1_555 1_555
C22 C21 1_555 1_555
H20 C22 1_555 1_555
C23 C22 1_555 1_555
H21 C23 1_555 1_555
C24 C23 1_555 1_555
H22 C24 1_555 1_555
C25 C24 1_555 1_555
H23 C25 1_555 1_555
C26 C21 1_555 1_555
H24 C26 1_555 1_555
C5 C6 1_555 1_555
C10 C11 1_555 1_555
C16 C17 1_555 1_555
C25 C26 1_555 1_555

#END
