
#######################################################################
#
#                 Cambridge Crystallographic Data Centre
#                                CCDC 
#
#######################################################################
#
# If this CIF has been generated from an entry in the Cambridge 
# Structural Database, then it will include bibliographic, chemical, 
# crystal, experimental, refinement or atomic coordinate data resulting 
# from the CCDC's data processing and validation procedures.
#
#######################################################################

data_CEGJIK
_chemical_formula_moiety         'C27 H26 B1 N1'
_chemical_name_systematic        
10-mesityl-12-methyl-4b,10-dihydrodibenzo[c,e]pyrido[2,1-g][1,2]azaborepine
_symmetry_cell_setting           monoclinic
_symmetry_space_group_name_H-M   'P 21/c'
_symmetry_Int_Tables_number      14
_space_group_name_Hall           '-P 2ybc'
loop_
_symmetry_equiv_pos_site_id
_symmetry_equiv_pos_as_xyz
1 x,y,z
2 -x,1/2+y,1/2-z
3 -x,-y,-z
4 x,1/2-y,1/2+z
_cell_length_a                   11.095(4)
_cell_length_b                   22.430(9)
_cell_length_c                   8.604(3)
_cell_angle_alpha                90
_cell_angle_beta                 96.142(12)
_cell_angle_gamma                90
_cell_volume                     2128.91
_exptl_crystal_colour            white
_exptl_crystal_description       block
_cell_formula_units_Z            4
loop_
_atom_site_label
_atom_site_type_symbol
_atom_site_fract_x
_atom_site_fract_y
_atom_site_fract_z
B1 B 0.2829(4) 0.09642(19) 0.6675(4)
N1 N 0.4092(3) 0.10309(13) 0.7133(3)
C1 C 0.2111(3) 0.14956(16) 0.5832(4)
C2 C 0.0920(3) 0.15821(17) 0.6174(4)
H1 H 0.0597 0.1306 0.6858
C3 C 0.0181(3) 0.20438(17) 0.5583(4)
C4 C 0.0675(3) 0.24375(17) 0.4576(4)
H2 H 0.0211 0.2771 0.4180
C5 C 0.1815(3) 0.23560(17) 0.4141(4)
H3 H 0.2113 0.2625 0.3419
C6 C 0.2547(3) 0.18847(16) 0.4740(4)
C7 C 0.3706(3) 0.17813(16) 0.4083(4)
C8 C 0.3762(4) 0.18143(17) 0.2479(4)
H4 H 0.3059 0.1932 0.1823
C9 C 0.4807(4) 0.1682(2) 0.1811(5)
H5 H 0.4821 0.1707 0.0711
C10 C 0.5824(4) 0.1512(2) 0.2757(5)
H6 H 0.6543 0.1414 0.2307
C11 C 0.5810(3) 0.14847(19) 0.4349(4)
H7 H 0.6523 0.1370 0.4990
C12 C 0.4780(3) 0.16206(16) 0.5026(4)
C13 C 0.4716(3) 0.15934(17) 0.6775(4)
H8 H 0.4188 0.1930 0.7049
C14 C 0.5922(3) 0.16690(19) 0.7734(4)
H9 H 0.6295 0.2051 0.7780
C15 C 0.6483(4) 0.1222(2) 0.8518(5)
H10 H 0.7255 0.1285 0.9087
C16 C 0.5925(4) 0.0644(2) 0.8509(5)
H11 H 0.6364 0.0315 0.8982
C17 C 0.4796(4) 0.05653(18) 0.7841(4)
H12 H 0.4452 0.0177 0.7844
C18 C 0.2172(3) 0.03818(16) 0.7097(4)
C19 C 0.1799(3) -0.00395(17) 0.5940(4)
C20 C 0.1214(3) -0.05528(17) 0.6343(5)
H13 H 0.0972 -0.0838 0.5554
C21 C 0.0973(3) -0.06642(17) 0.7862(5)
C22 C 0.1304(3) -0.02403(18) 0.8978(4)
H14 H 0.1118 -0.0303 1.0018
C23 C 0.1904(3) 0.02769(16) 0.8629(4)
C24 C 0.2290(4) 0.07222(18) 0.9904(4)
H15 H 0.1964 0.0602 1.0871
H16 H 0.1979 0.1118 0.9588
H17 H 0.3177 0.0735 1.0079
C25 C 0.0366(4) -0.12342(19) 0.8257(6)
H18 H 0.0193 -0.1223 0.9349
H19 H 0.0903 -0.1571 0.8104
H20 H -0.0393 -0.1281 0.7574
C26 C 0.2054(4) 0.00523(19) 0.4282(4)
H21 H 0.1587 -0.0236 0.3605
H22 H 0.2921 -0.0005 0.4204
H23 H 0.1820 0.0458 0.3951
C27 C -0.1104(3) 0.21024(19) 0.5958(5)
H24 H -0.1334 0.1743 0.6504
H25 H -0.1643 0.2150 0.4986
H26 H -0.1175 0.2451 0.6627
loop_
_geom_bond_atom_site_label_1
_geom_bond_atom_site_label_2
_geom_bond_site_symmetry_1
_geom_bond_site_symmetry_2
B1 N1 1_555 1_555
N1 C13 1_555 1_555
C1 B1 1_555 1_555
C2 C1 1_555 1_555
H1 C2 1_555 1_555
C3 C2 1_555 1_555
C4 C3 1_555 1_555
H2 C4 1_555 1_555
C5 C4 1_555 1_555
H3 C5 1_555 1_555
C6 C1 1_555 1_555
C7 C6 1_555 1_555
C8 C7 1_555 1_555
H4 C8 1_555 1_555
C9 C8 1_555 1_555
H5 C9 1_555 1_555
C10 C9 1_555 1_555
H6 C10 1_555 1_555
C11 C10 1_555 1_555
H7 C11 1_555 1_555
C12 C7 1_555 1_555
C13 C12 1_555 1_555
H8 C13 1_555 1_555
C14 C13 1_555 1_555
H9 C14 1_555 1_555
C15 C14 1_555 1_555
H10 C15 1_555 1_555
C16 C15 1_555 1_555
H11 C16 1_555 1_555
C17 N1 1_555 1_555
H12 C17 1_555 1_555
C18 B1 1_555 1_555
C19 C18 1_555 1_555
C20 C19 1_555 1_555
H13 C20 1_555 1_555
C21 C20 1_555 1_555
C22 C21 1_555 1_555
H14 C22 1_555 1_555
C23 C18 1_555 1_555
C24 C23 1_555 1_555
H15 C24 1_555 1_555
H16 C24 1_555 1_555
H17 C24 1_555 1_555
C25 C21 1_555 1_555
H18 C25 1_555 1_555
H19 C25 1_555 1_555
H20 C25 1_555 1_555
C26 C19 1_555 1_555
H21 C26 1_555 1_555
H22 C26 1_555 1_555
H23 C26 1_555 1_555
C27 C3 1_555 1_555
H24 C27 1_555 1_555
H25 C27 1_555 1_555
H26 C27 1_555 1_555
C5 C6 1_555 1_555
C11 C12 1_555 1_555
C16 C17 1_555 1_555
C22 C23 1_555 1_555

#END
