
#######################################################################
#
#                 Cambridge Crystallographic Data Centre
#                                CCDC 
#
#######################################################################
#
# If this CIF has been generated from an entry in the Cambridge 
# Structural Database, then it will include bibliographic, chemical, 
# crystal, experimental, refinement or atomic coordinate data resulting 
# from the CCDC's data processing and validation procedures.
#
#######################################################################

data_CEGKUX
_chemical_formula_moiety         'C26 H29 N1 O6'
_chemical_name_systematic        
'diethyl 4-(4-methoxyphenyl)-2-oxo-6-phenyl-3-azabicyclo[3.2.1]octane-1,5-dicarboxylate'
_symmetry_cell_setting           triclinic
_symmetry_space_group_name_H-M   'P -1'
_symmetry_Int_Tables_number      2
_space_group_name_Hall           '-P 1'
loop_
_symmetry_equiv_pos_site_id
_symmetry_equiv_pos_as_xyz
1 x,y,z
2 -x,-y,-z
_cell_length_a                   10.351(5)
_cell_length_b                   11.288(5)
_cell_length_c                   11.854(5)
_cell_angle_alpha                98.145(5)
_cell_angle_beta                 113.631(5)
_cell_angle_gamma                104.546(5)
_cell_volume                     1181.47
_exptl_crystal_colour            colorless
_exptl_crystal_description       block
_cell_formula_units_Z            2
loop_
_atom_site_label
_atom_site_type_symbol
_atom_site_fract_x
_atom_site_fract_y
_atom_site_fract_z
O1 O 1.23040(14) 0.63274(10) 0.20689(11)
O2 O 1.14585(14) 1.15855(11) 0.14112(12)
O3 O 1.43520(15) 1.22033(12) 0.11154(12)
O4 O 1.04706(16) 0.67561(13) 0.58610(12)
O5 O 1.25639(15) 1.09247(13) -0.07878(12)
N1 N 1.08069(15) 0.96250(13) 0.16646(13)
H1 H 1.0169 0.9815 0.1881
C1 C 1.22485(16) 0.82456(14) 0.14900(13)
O6 O 1.1886(2) 0.63140(13) 0.00833(13)
C2 C 1.28560(17) 1.02584(14) 0.11124(14)
C3 C 1.49215(16) 0.85752(14) 0.33185(14)
C4 C 1.08227(16) 0.83247(14) 0.16215(14)
H2 H 0.9941 0.7755 0.0842
C5 C 1.37076(15) 0.91381(13) 0.27359(14)
H3 H 1.3391 0.9370 0.3387
C6 C 1.12455(18) 0.88374(15) 0.39241(16)
H4 H 1.1675 0.9692 0.4001
C7 C 1.42140(17) 1.03520(15) 0.23499(15)
H5 H 1.4477 1.1106 0.3015
H6 H 1.5075 1.0386 0.2199
C8 C 1.12013(19) 0.84854(16) 0.49856(16)
H7 H 1.1598 0.9096 0.5761
C9 C 1.21282(17) 0.68611(15) 0.11261(15)
C10 C 1.05637(18) 0.72206(16) 0.48792(16)
C11 C 1.06693(16) 0.79555(14) 0.27525(14)
C12 C 1.22829(17) 0.88516(14) 0.04208(14)
H8 H 1.2961 0.8637 0.0120
H9 H 1.1292 0.8599 -0.0296
C13 C 1.50692(19) 0.81730(16) 0.43986(15)
H10 H 1.4441 0.8275 0.4759
C14 C 1.16487(17) 1.05594(15) 0.14130(14)
C15 C 1.58838(19) 0.84239(17) 0.28095(17)
H11 H 1.5817 0.8698 0.2091
C16 C 0.99595(17) 0.66946(14) 0.26555(15)
H12 H 0.9505 0.6089 0.1869
C17 C 1.32249(19) 1.11452(16) 0.03583(16)
C18 C 1.2184(3) 0.49981(18) 0.1825(2)
H13 H 1.2842 0.4862 0.1462
H14 H 1.1163 0.4469 0.1221
C19 C 0.99188(19) 0.63286(15) 0.37046(16)
H15 H 0.9456 0.5479 0.3624
C20 C 1.6944(2) 0.78662(19) 0.3365(2)
H16 H 1.7581 0.7766 0.3014
C21 C 1.6132(2) 0.76224(19) 0.49530(19)
H17 H 1.6218 0.7361 0.5682
C22 C 1.7061(2) 0.7461(2) 0.4426(2)
H18 H 1.7767 0.7079 0.4788
C23 C 1.1097(3) 0.7630(2) 0.7079(2)
H19 H 1.0957 0.7185 0.7676
H20 H 1.2150 0.8044 0.7368
H21 H 1.0611 0.8256 0.7020
C24 C 1.4723(3) 1.3196(2) 0.0533(2)
H22 H 1.3844 1.3412 0.0065
H23 H 1.5085 1.2913 -0.0058
C25 C 1.2615(4) 0.4661(2) 0.3048(3)
H24 H 1.2542 0.3783 0.2906
H25 H 1.3627 0.5185 0.3638
H26 H 1.1955 0.4794 0.3398
C26 C 1.5895(3) 1.4309(2) 0.1573(3)
H27 H 1.6168 1.4988 0.1219
H28 H 1.5523 1.4580 0.2150
H29 H 1.6759 1.4084 0.2028
loop_
_geom_bond_atom_site_label_1
_geom_bond_atom_site_label_2
_geom_bond_site_symmetry_1
_geom_bond_site_symmetry_2
O1 C9 1_555 1_555
O2 C14 1_555 1_555
O3 C17 1_555 1_555
O4 C10 1_555 1_555
O5 C17 1_555 1_555
N1 H1 1_555 1_555
C1 C4 1_555 1_555
O6 C9 1_555 1_555
C2 C7 1_555 1_555
C3 C5 1_555 1_555
C4 N1 1_555 1_555
H2 C4 1_555 1_555
C5 C1 1_555 1_555
H3 C5 1_555 1_555
C6 H4 1_555 1_555
C7 C5 1_555 1_555
H5 C7 1_555 1_555
H6 C7 1_555 1_555
C8 C6 1_555 1_555
H7 C8 1_555 1_555
C9 C1 1_555 1_555
C10 C8 1_555 1_555
C11 C4 1_555 1_555
C12 C1 1_555 1_555
H8 C12 1_555 1_555
H9 C12 1_555 1_555
C13 C3 1_555 1_555
H10 C13 1_555 1_555
C14 N1 1_555 1_555
C15 C3 1_555 1_555
H11 C15 1_555 1_555
C16 C11 1_555 1_555
H12 C16 1_555 1_555
C17 C2 1_555 1_555
C18 O1 1_555 1_555
H13 C18 1_555 1_555
H14 C18 1_555 1_555
C19 C10 1_555 1_555
H15 C19 1_555 1_555
C20 C15 1_555 1_555
H16 C20 1_555 1_555
C21 C13 1_555 1_555
H17 C21 1_555 1_555
C22 C20 1_555 1_555
H18 C22 1_555 1_555
C23 O4 1_555 1_555
H19 C23 1_555 1_555
H20 C23 1_555 1_555
H21 C23 1_555 1_555
C24 O3 1_555 1_555
H22 C24 1_555 1_555
H23 C24 1_555 1_555
C25 C18 1_555 1_555
H24 C25 1_555 1_555
H25 C25 1_555 1_555
H26 C25 1_555 1_555
C26 C24 1_555 1_555
H27 C26 1_555 1_555
H28 C26 1_555 1_555
H29 C26 1_555 1_555
C2 C12 1_555 1_555
C2 C14 1_555 1_555
C6 C11 1_555 1_555
C16 C19 1_555 1_555
C21 C22 1_555 1_555

#END
