
#######################################################################
#
#                 Cambridge Crystallographic Data Centre
#                                CCDC 
#
#######################################################################
#
# If this CIF has been generated from an entry in the Cambridge 
# Structural Database, then it will include bibliographic, chemical, 
# crystal, experimental, refinement or atomic coordinate data resulting 
# from the CCDC's data processing and validation procedures.
#
#######################################################################

data_CEGLIM
_chemical_formula_moiety         'C37 H45 N1 O12 S1'
_chemical_name_systematic        
'1,1-diethyl 3-methyl 3-[(4-methoxyphenyl){[(4-methylphenyl)sulfonyl]amino}methyl]-4-(3,4,5-trimethoxyphenyl)cyclopentane-1,1,3-tricarboxylate'
_symmetry_cell_setting           triclinic
_symmetry_space_group_name_H-M   'P -1'
_symmetry_Int_Tables_number      2
_space_group_name_Hall           '-P 1'
loop_
_symmetry_equiv_pos_site_id
_symmetry_equiv_pos_as_xyz
1 x,y,z
2 -x,-y,-z
_cell_length_a                   12.114(5)
_cell_length_b                   13.062(5)
_cell_length_c                   13.596(5)
_cell_angle_alpha                62.258(5)
_cell_angle_beta                 87.987(5)
_cell_angle_gamma                78.997(5)
_cell_volume                     1865.47
_exptl_crystal_colour            colorless
_exptl_crystal_description       block
_cell_formula_units_Z            2
loop_
_atom_site_label
_atom_site_type_symbol
_atom_site_fract_x
_atom_site_fract_y
_atom_site_fract_z
S1 S 0.51960(7) 0.51899(7) 0.16301(6)
O1 O 0.7492(2) 0.6260(2) -0.09022(17)
O2 O 0.5114(2) 0.5785(2) 0.22940(19)
O3 O 1.0837(2) 0.7726(2) 0.1281(2)
O4 O 1.1181(2) 0.5885(2) 0.2695(2)
O5 O 0.3776(2) 0.9540(2) -0.0909(2)
O6 O 0.4643(2) 1.0839(2) -0.28564(19)
O7 O 0.9387(2) 0.0353(2) 0.2655(2)
N1 N 0.6284(2) 0.5472(2) 0.0898(2)
O8 O 0.9136(2) 0.6930(2) 0.3477(2)
O9 O 0.6849(2) 1.0550(2) -0.30686(19)
C1 C 0.7556(3) 0.7275(3) 0.0808(2)
H1 H 0.7094 0.7063 0.1455
O10 O 0.9204(2) 0.6566(3) -0.0810(2)
O11 O 0.8439(3) 0.5445(3) 0.3551(2)
C2 C 0.7423(3) 0.5121(2) 0.1446(2)
H2 H 0.7310 0.5102 0.2171
C3 C 0.7224(3) 0.8926(3) -0.1187(3)
H3 H 0.7997 0.8810 -0.1264
C4 C 0.8934(3) 0.1526(3) 0.2284(3)
C5 C 0.8143(3) 0.6076(3) 0.0822(2)
C6 C 0.9330(3) 0.6635(3) 0.1902(2)
C7 C 0.7993(3) 0.3870(3) 0.1704(3)
C8 C 0.8524(3) 0.7740(3) 0.1052(3)
H4 H 0.8249 0.8271 0.1360
H5 H 0.8898 0.8156 0.0379
C9 C 0.5447(3) 0.3663(3) 0.2545(2)
C10 C 0.5355(3) 0.9996(3) -0.1956(3)
C11 C 1.0523(3) 0.6842(3) 0.1906(3)
C12 C 0.8070(3) 0.3469(3) 0.0921(3)
H6 H 0.7801 0.3990 0.0190
C13 C 0.5639(3) 0.2880(3) 0.2106(3)
H7 H 0.5561 0.3157 0.1342
C14 C 0.6052(3) 0.1261(3) 0.3954(3)
C15 C 0.8910(3) 0.6243(3) 0.3069(3)
C16 C 0.8537(3) 0.2309(3) 0.1201(3)
H8 H 0.8584 0.2057 0.0662
C17 C 0.8368(3) 0.6304(3) -0.0369(3)
C18 C 0.9290(3) 0.5722(3) 0.1484(3)
H9 H 0.9363 0.4938 0.2111
H10 H 0.9905 0.5717 0.1009
C19 C 0.6791(3) 0.8217(3) -0.0192(2)
C20 C 0.5640(3) 0.8404(3) -0.0085(3)
H11 H 0.5347 0.7928 0.0578
C21 C 0.8412(3) 0.3071(3) 0.2782(3)
H12 H 0.8374 0.3321 0.3322
C22 C 0.4918(3) 0.9296(3) -0.0959(3)
C23 C 0.5532(3) 0.3250(3) 0.3679(3)
H13 H 0.5401 0.3774 0.3973
C24 C 0.8882(3) 0.1914(3) 0.3072(3)
H14 H 0.9164 0.1395 0.3799
C25 C 0.5945(3) 0.1691(3) 0.2811(3)
H15 H 0.6082 0.1166 0.2517
C26 C 0.5810(4) 0.2056(3) 0.4372(3)
H16 H 0.5837 0.1778 0.5139
C27 C 0.6503(3) 0.9807(3) -0.2064(3)
C28 C 0.7590(4) 0.6607(4) -0.2070(3)
H17 H 0.6916 0.6543 -0.2371
H18 H 0.7694 0.7409 -0.2455
H19 H 0.8225 0.6101 -0.2163
C29 C 0.3323(3) 0.8860(4) 0.0114(3)
H20 H 0.2518 0.9110 0.0048
H21 H 0.3511 0.8041 0.0296
H22 H 0.3632 0.8968 0.0692
C30 C 0.9308(5) -0.0106(4) 0.1906(4)
H23 H 0.9651 -0.0929 0.2255
H24 H 0.8529 -0.0011 0.1705
H25 H 0.9689 0.0311 0.1249
C31 C 0.6459(4) -0.0041(4) 0.4704(4)
H26 H 0.6581 -0.0446 0.4262
H27 H 0.7153 -0.0163 0.5099
H28 H 0.5903 -0.0343 0.5226
C32 C 0.8017(4) 1.0394(4) -0.3231(4)
H29 H 0.8146 1.0969 -0.3965
H30 H 0.8411 1.0492 -0.2689
H31 H 0.8285 0.9616 -0.3148
C33 C 0.8817(5) 0.6644(5) 0.4607(4)
H32 H 0.9084 0.5811 0.5101
H33 H 0.8003 0.6818 0.4621
C34 C 0.4385(5) 1.1963(4) -0.2921(4)
H34 H 0.3889 1.2490 -0.3567
H35 H 0.4023 1.1914 -0.2265
H36 H 0.5066 1.2255 -0.2975
C35 C 1.2356(3) 0.5947(5) 0.2804(4)
H37 H 1.2818 0.5164 0.3069
H38 H 1.2595 0.6452 0.2078
C36 C 1.2528(5) 0.6392(7) 0.3554(6)
H39 H 1.3311 0.6418 0.3600
H40 H 1.2084 0.7173 0.3287
H41 H 1.2307 0.5886 0.4278
C37 C 0.9321(7) 0.7351(6) 0.4972(5)
H42 H 0.9119 0.7174 0.5715
H43 H 1.0126 0.7170 0.4960
H44 H 0.9048 0.8174 0.4481
O12 O 0.42775(19) 0.5479(2) 0.08460(18)
H45 H 0.624(3) 0.536(3) 0.033(3)
loop_
_geom_bond_atom_site_label_1
_geom_bond_atom_site_label_2
_geom_bond_site_symmetry_1
_geom_bond_site_symmetry_2
S1 O2 1_555 1_555
O1 C17 1_555 1_555
O3 C11 1_555 1_555
O4 C11 1_555 1_555
O5 C22 1_555 1_555
O6 C10 1_555 1_555
O7 C4 1_555 1_555
N1 S1 1_555 1_555
O8 C15 1_555 1_555
O9 C27 1_555 1_555
C1 H1 1_555 1_555
O10 C17 1_555 1_555
O11 C15 1_555 1_555
C2 N1 1_555 1_555
H2 C2 1_555 1_555
C3 H3 1_555 1_555
C4 C16 1_555 1_555
C5 C1 1_555 1_555
C6 C8 1_555 1_555
C7 C2 1_555 1_555
C8 C1 1_555 1_555
H4 C8 1_555 1_555
H5 C8 1_555 1_555
C9 S1 1_555 1_555
C10 C22 1_555 1_555
C11 C6 1_555 1_555
C12 C7 1_555 1_555
H6 C12 1_555 1_555
C13 C9 1_555 1_555
H7 C13 1_555 1_555
C14 C25 1_555 1_555
C15 C6 1_555 1_555
C16 C12 1_555 1_555
H8 C16 1_555 1_555
C17 C5 1_555 1_555
C18 C5 1_555 1_555
H9 C18 1_555 1_555
H10 C18 1_555 1_555
C19 C1 1_555 1_555
C20 C19 1_555 1_555
H11 C20 1_555 1_555
C21 C7 1_555 1_555
H12 C21 1_555 1_555
C22 C20 1_555 1_555
C23 C9 1_555 1_555
H13 C23 1_555 1_555
C24 C4 1_555 1_555
H14 C24 1_555 1_555
C25 C13 1_555 1_555
H15 C25 1_555 1_555
C26 C14 1_555 1_555
H16 C26 1_555 1_555
C27 C3 1_555 1_555
C28 O1 1_555 1_555
H17 C28 1_555 1_555
H18 C28 1_555 1_555
H19 C28 1_555 1_555
C29 O5 1_555 1_555
H20 C29 1_555 1_555
H21 C29 1_555 1_555
H22 C29 1_555 1_555
C30 O7 1_555 1_555
H23 C30 1_555 1_555
H24 C30 1_555 1_555
H25 C30 1_555 1_555
C31 C14 1_555 1_555
H26 C31 1_555 1_555
H27 C31 1_555 1_555
H28 C31 1_555 1_555
C32 O9 1_555 1_555
H29 C32 1_555 1_555
H30 C32 1_555 1_555
H31 C32 1_555 1_555
C33 O8 1_555 1_555
H32 C33 1_555 1_555
H33 C33 1_555 1_555
C34 O6 1_555 1_555
H34 C34 1_555 1_555
H35 C34 1_555 1_555
H36 C34 1_555 1_555
C35 O4 1_555 1_555
H37 C35 1_555 1_555
H38 C35 1_555 1_555
C36 C35 1_555 1_555
H39 C36 1_555 1_555
H40 C36 1_555 1_555
H41 C36 1_555 1_555
C37 C33 1_555 1_555
H42 C37 1_555 1_555
H43 C37 1_555 1_555
H44 C37 1_555 1_555
O12 S1 1_555 1_555
H45 N1 1_555 1_555
C2 C5 1_555 1_555
C3 C19 1_555 1_555
C6 C18 1_555 1_555
C10 C27 1_555 1_555
C21 C24 1_555 1_555
C23 C26 1_555 1_555

#END
