
#######################################################################
#
#                 Cambridge Crystallographic Data Centre
#                                CCDC 
#
#######################################################################
#
# If this CIF has been generated from an entry in the Cambridge 
# Structural Database, then it will include bibliographic, chemical, 
# crystal, experimental, refinement or atomic coordinate data resulting 
# from the CCDC's data processing and validation procedures.
#
#######################################################################

data_CEGLOS
_chemical_formula_moiety         'C33 H37 N1 O8 S1'
_chemical_name_systematic        
'diethyl 5-(3,4-dimethoxyphenyl)-1-[(4-methylphenyl)sulfonyl]-2-(2-phenylethenyl)pyrrolidine-3,3-dicarboxylate'
_symmetry_cell_setting           monoclinic
_symmetry_space_group_name_H-M   'P 21'
_symmetry_Int_Tables_number      4
_space_group_name_Hall           'P 2yb'
loop_
_symmetry_equiv_pos_site_id
_symmetry_equiv_pos_as_xyz
1 x,y,z
2 -x,1/2+y,-z
_cell_length_a                   11.869(5)
_cell_length_b                   10.467(5)
_cell_length_c                   13.409(5)
_cell_angle_alpha                90
_cell_angle_beta                 105.094(5)
_cell_angle_gamma                90
_cell_volume                     1608.37
_exptl_crystal_colour            colorless
_exptl_crystal_description       block
_cell_formula_units_Z            2
loop_
_atom_site_label
_atom_site_type_symbol
_atom_site_fract_x
_atom_site_fract_y
_atom_site_fract_z
S1 S 0.83358(9) 0.13618(10) 0.27830(8)
O1 O 0.7399(2) -0.2165(3) -0.04739(19)
O2 O 0.6995(2) -0.2604(3) 0.5277(2)
O3 O 0.5593(2) -0.1288(3) 0.6040(2)
N1 N 0.7514(2) 0.0200(3) 0.2162(2)
O4 O 0.6579(2) -0.3523(3) 0.1236(2)
O5 O 0.9378(2) 0.1346(3) 0.2428(2)
O6 O 0.8296(3) -0.2654(3) 0.2059(2)
O7 O 0.7669(3) 0.2514(3) 0.2715(2)
C1 C 0.6638(3) -0.1265(3) 0.3746(3)
H1 H 0.7133 -0.1754 0.3465
C2 C 0.5712(3) -0.0878(4) 0.5102(3)
O8 O 0.5562(3) -0.1497(4) -0.0813(2)
C3 C 0.6812(3) -0.1356(4) 0.0926(3)
C4 C 0.6471(3) -0.1604(4) 0.4680(3)
C5 C 0.7697(3) -0.0243(3) 0.1167(3)
H2 H 0.8492 -0.0574 0.1274
C6 C 0.6084(3) -0.0205(3) 0.3201(3)
C7 C 0.8013(3) 0.1968(4) -0.1061(3)
C8 C 0.7340(4) -0.2558(4) 0.1491(3)
C9 C 0.8710(3) 0.0885(4) 0.4077(3)
C10 C 0.5356(3) 0.0504(4) 0.3630(3)
H3 H 0.4988 0.1220 0.3282
C11 C 0.8217(3) 0.1079(4) -0.0187(3)
H4 H 0.8956 0.0718 0.0025
C12 C 0.6261(3) 0.0137(4) 0.2159(3)
H5 H 0.5898 0.0968 0.1945
C13 C 0.6913(4) 0.2160(4) -0.1713(3)
H6 H 0.6284 0.1700 -0.1605
C14 C 0.6491(4) -0.1665(4) -0.0219(3)
C15 C 0.8209(3) 0.1476(4) 0.4781(3)
H7 H 0.7677 0.2137 0.4569
C16 C 0.5158(3) 0.0175(4) 0.4574(3)
H8 H 0.4656 0.0661 0.4848
C17 C 0.5768(3) -0.0855(4) 0.1299(3)
H9 H 0.5395 -0.1552 0.1568
H10 H 0.5197 -0.0459 0.0732
C18 C 0.9515(3) -0.0085(4) 0.4402(3)
H11 H 0.9855 -0.0489 0.3935
C19 C 0.6730(4) 0.3017(4) -0.2519(3)
H12 H 0.5984 0.3138 -0.2946
C20 C 0.7459(3) 0.0740(4) 0.0328(3)
H13 H 0.6732 0.1135 0.0160
C21 C 0.8931(4) 0.2637(5) -0.1271(3)
H14 H 0.9686 0.2508 -0.0864
C22 C 0.7557(5) -0.5356(4) 0.0741(4)
H15 H 0.7841 -0.6201 0.0941
H16 H 0.6983 -0.5392 0.0087
H17 H 0.8193 -0.4822 0.0681
C23 C 0.8733(4) 0.3498(5) -0.2083(4)
H18 H 0.9358 0.3948 -0.2208
C24 C 0.9308(4) 0.0125(4) 0.6132(3)
C25 C 0.8501(4) 0.1080(4) 0.5794(3)
H19 H 0.8146 0.1465 0.6259
C26 C 0.4752(5) -0.0655(6) 0.6457(4)
H20 H 0.4754 -0.1029 0.7111
H21 H 0.4945 0.0235 0.6550
H22 H 0.3991 -0.0746 0.5990
C27 C 0.9624(5) -0.0286(6) 0.7255(4)
H23 H 0.9192 0.0217 0.7627
H24 H 0.9434 -0.1172 0.7299
H25 H 1.0444 -0.0162 0.7551
C28 C 0.7845(4) -0.3309(4) 0.4937(4)
H26 H 0.8145 -0.3981 0.5420
H27 H 0.7496 -0.3671 0.4270
H28 H 0.8471 -0.2751 0.4889
C29 C 0.7659(4) 0.3693(4) -0.2688(3)
H29 H 0.7538 0.4284 -0.3223
C30 C 0.9806(3) -0.0446(4) 0.5427(4)
H30 H 1.0352 -0.1092 0.5647
C31 C 0.7271(4) -0.2479(7) -0.1558(3)
H31 H 0.6627 -0.3069 -0.1798
H32 H 0.7111 -0.1712 -0.1976
C32 C 0.7017(4) -0.4817(4) 0.1537(4)
H33 H 0.6379 -0.5360 0.1605
H34 H 0.7592 -0.4789 0.2200
C33 C 0.8346(5) -0.3057(6) -0.1648(4)
H35 H 0.8279 -0.3271 -0.2357
H36 H 0.8978 -0.2466 -0.1412
H37 H 0.8496 -0.3818 -0.1234
loop_
_geom_bond_atom_site_label_1
_geom_bond_atom_site_label_2
_geom_bond_site_symmetry_1
_geom_bond_site_symmetry_2
S1 N1 1_555 1_555
O1 C14 1_555 1_555
O2 C4 1_555 1_555
O3 C2 1_555 1_555
N1 C5 1_555 1_555
O4 C8 1_555 1_555
O5 S1 1_555 1_555
O6 C8 1_555 1_555
O7 S1 1_555 1_555
C1 H1 1_555 1_555
C2 C4 1_555 1_555
O8 C14 1_555 1_555
C3 C5 1_555 1_555
C4 C1 1_555 1_555
C5 H2 1_555 1_555
C6 C1 1_555 1_555
C7 C11 1_555 1_555
C8 C3 1_555 1_555
C9 S1 1_555 1_555
C10 C6 1_555 1_555
H3 C10 1_555 1_555
C11 H4 1_555 1_555
C12 N1 1_555 1_555
H5 C12 1_555 1_555
C13 C7 1_555 1_555
H6 C13 1_555 1_555
C14 C3 1_555 1_555
C15 C9 1_555 1_555
H7 C15 1_555 1_555
C16 C2 1_555 1_555
H8 C16 1_555 1_555
C17 C3 1_555 1_555
H9 C17 1_555 1_555
H10 C17 1_555 1_555
C18 C9 1_555 1_555
H11 C18 1_555 1_555
C19 C13 1_555 1_555
H12 C19 1_555 1_555
C20 C5 1_555 1_555
H13 C20 1_555 1_555
C21 C7 1_555 1_555
H14 C21 1_555 1_555
C22 H15 1_555 1_555
H16 C22 1_555 1_555
H17 C22 1_555 1_555
C23 C21 1_555 1_555
H18 C23 1_555 1_555
C24 C25 1_555 1_555
C25 C15 1_555 1_555
H19 C25 1_555 1_555
C26 O3 1_555 1_555
H20 C26 1_555 1_555
H21 C26 1_555 1_555
H22 C26 1_555 1_555
C27 C24 1_555 1_555
H23 C27 1_555 1_555
H24 C27 1_555 1_555
H25 C27 1_555 1_555
C28 O2 1_555 1_555
H26 C28 1_555 1_555
H27 C28 1_555 1_555
H28 C28 1_555 1_555
C29 C19 1_555 1_555
H29 C29 1_555 1_555
C30 C18 1_555 1_555
H30 C30 1_555 1_555
C31 O1 1_555 1_555
H31 C31 1_555 1_555
H32 C31 1_555 1_555
C32 O4 1_555 1_555
H33 C32 1_555 1_555
H34 C32 1_555 1_555
C33 C31 1_555 1_555
H35 C33 1_555 1_555
H36 C33 1_555 1_555
H37 C33 1_555 1_555
C6 C12 1_555 1_555
C10 C16 1_555 1_555
C11 C20 1_555 1_555
C12 C17 1_555 1_555
C22 C32 1_555 1_555
C23 C29 1_555 1_555
C24 C30 1_555 1_555

#END
