
#######################################################################
#
#                 Cambridge Crystallographic Data Centre
#                                CCDC 
#
#######################################################################
#
# If this CIF has been generated from an entry in the Cambridge 
# Structural Database, then it will include bibliographic, chemical, 
# crystal, experimental, refinement or atomic coordinate data resulting 
# from the CCDC's data processing and validation procedures.
#
#######################################################################

data_CEGTOZ
_chemical_formula_moiety         'C24 H23 F1 N2 O3'
_chemical_name_systematic        
'Propan-2-yl r-4-(4-fluorophenyl)-3-hydroxy-c-6-methyl-2-phenyl-4,5-dihydro-2H-indazole-t-5-carboxylate'
_symmetry_cell_setting           monoclinic
_symmetry_space_group_name_H-M   'P 21/c'
_symmetry_Int_Tables_number      14
_space_group_name_Hall           '-P 2ybc'
loop_
_symmetry_equiv_pos_site_id
_symmetry_equiv_pos_as_xyz
1 x,y,z
2 -x,1/2+y,1/2-z
3 -x,-y,-z
4 x,1/2-y,1/2+z
_cell_length_a                   17.6400(10)
_cell_length_b                   11.0295(6)
_cell_length_c                   11.3791(6)
_cell_angle_alpha                90
_cell_angle_beta                 99.1330(10)
_cell_angle_gamma                90
_cell_volume                     2185.86
_exptl_crystal_colour            colorless
_exptl_crystal_description       block
_chemical_melting_point          '493 K'
_cell_formula_units_Z            4
_exptl_crystal_recrystallization_method ethanol
loop_
_atom_site_label
_atom_site_type_symbol
_atom_site_fract_x
_atom_site_fract_y
_atom_site_fract_z
F1 F 0.55203(11) 0.4061(2) 0.2222(2)
O1 O 0.14456(9) 0.32293(13) 0.05959(11)
H1 H 0.1609 0.2941 0.1252
O2 O 0.26507(13) -0.19468(16) -0.01810(17)
O3 O 0.2223(4) -0.1001(5) 0.1280(9)
N1 N 0.14598(9) 0.28868(14) -0.13981(12)
N2 N 0.18599(9) 0.22532(14) -0.21440(12)
C1 C 0.17400(10) 0.26286(16) -0.02333(14)
C2 C 0.28913(11) 0.12354(17) 0.07402(16)
H2 H 0.2638 0.1076 0.1431
C3 C 0.31565(12) 0.00027(17) 0.02803(17)
H3 H 0.3642 -0.0202 0.0788
C4 C 0.33235(12) 0.00401(18) -0.09910(18)
C5 C 0.29229(12) 0.07767(18) -0.17831(17)
H4 H 0.3004 0.0767 -0.2571
C6 C 0.23623(10) 0.15914(16) -0.14217(15)
C7 C 0.23134(10) 0.17912(16) -0.02211(15)
C8 C 0.08425(11) 0.36638(17) -0.18736(16)
C9 C 0.09024(13) 0.4340(2) -0.28730(18)
H5 H 0.1342 0.4292 -0.3226
C10 C 0.03079(16) 0.5085(2) -0.3344(2)
H6 H 0.0347 0.5539 -0.4021
C11 C -0.03366(17) 0.5169(3) -0.2835(3)
H7 H -0.0738 0.5671 -0.3165
C12 C -0.03905(15) 0.4505(3) -0.1829(3)
H8 H -0.0828 0.4571 -0.1472
C13 C 0.01950(13) 0.3744(2) -0.1345(2)
H9 H 0.0154 0.3289 -0.0669
C14 C 0.35810(11) 0.20446(17) 0.11368(17)
C15 C 0.40331(13) 0.1842(2) 0.2224(2)
H10 H 0.3898 0.1232 0.2715
C16 C 0.46809(15) 0.2525(3) 0.2599(3)
H11 H 0.4980 0.2382 0.3335
C17 C 0.48710(16) 0.3400(3) 0.1879(3)
C18 C 0.44411(19) 0.3651(3) 0.0811(3)
H12 H 0.4582 0.4270 0.0335
C19 C 0.37878(15) 0.2966(2) 0.0444(2)
H13 H 0.3485 0.3134 -0.0284
C20 C 0.25938(15) -0.0996(2) 0.0456(2)
C21 C 0.2159(2) -0.3005(3) -0.0069(3)
H14 H 0.2039 -0.3045 0.0742
C22 C 0.1431(3) -0.2891(4) -0.0942(4)
H15 H 0.1171 -0.2157 -0.0786
H16 H 0.1105 -0.3574 -0.0861
H17 H 0.1550 -0.2868 -0.1736
C23 C 0.2622(3) -0.4083(3) -0.0300(5)
H18 H 0.2719 -0.4060 -0.1106
H19 H 0.2344 -0.4809 -0.0177
H20 H 0.3101 -0.4076 0.0235
C24 C 0.39422(15) -0.0780(2) -0.1293(2)
H21 H 0.3978 -0.0699 -0.2122
H22 H 0.3821 -0.1605 -0.1127
H23 H 0.4424 -0.0562 -0.0823
O4? O 0.1999(12) -0.0778(13) 0.0673(18)
loop_
_geom_bond_atom_site_label_1
_geom_bond_atom_site_label_2
_geom_bond_site_symmetry_1
_geom_bond_site_symmetry_2
F1 C17 1_555 1_555
O1 H1 1_555 1_555
O2 C20 1_555 1_555
O3 C20 1_555 1_555
N1 N2 1_555 1_555
N2 C6 1_555 1_555
C1 O1 1_555 1_555
C2 H2 1_555 1_555
C3 C2 1_555 1_555
H3 C3 1_555 1_555
C4 C3 1_555 1_555
C5 C4 1_555 1_555
H4 C5 1_555 1_555
C6 C5 1_555 1_555
C7 C1 1_555 1_555
C8 N1 1_555 1_555
C9 C8 1_555 1_555
H5 C9 1_555 1_555
C10 C9 1_555 1_555
H6 C10 1_555 1_555
C11 C10 1_555 1_555
H7 C11 1_555 1_555
C12 C11 1_555 1_555
H8 C12 1_555 1_555
C13 C8 1_555 1_555
H9 C13 1_555 1_555
C14 C2 1_555 1_555
C15 C14 1_555 1_555
H10 C15 1_555 1_555
C16 C15 1_555 1_555
H11 C16 1_555 1_555
C17 C16 1_555 1_555
C18 C17 1_555 1_555
H12 C18 1_555 1_555
C19 C14 1_555 1_555
H13 C19 1_555 1_555
C20 C3 1_555 1_555
C21 O2 1_555 1_555
H14 C21 1_555 1_555
C22 C21 1_555 1_555
H15 C22 1_555 1_555
H16 C22 1_555 1_555
H17 C22 1_555 1_555
C23 C21 1_555 1_555
H18 C23 1_555 1_555
H19 C23 1_555 1_555
H20 C23 1_555 1_555
C24 C4 1_555 1_555
H21 C24 1_555 1_555
H22 C24 1_555 1_555
H23 C24 1_555 1_555
N1 C1 1_555 1_555
C2 C7 1_555 1_555
C6 C7 1_555 1_555
C12 C13 1_555 1_555
C18 C19 1_555 1_555

#END
