
#######################################################################
#
#                 Cambridge Crystallographic Data Centre
#                                CCDC 
#
#######################################################################
#
# If this CIF has been generated from an entry in the Cambridge 
# Structural Database, then it will include bibliographic, chemical, 
# crystal, experimental, refinement or atomic coordinate data resulting 
# from the CCDC's data processing and validation procedures.
#
#######################################################################

data_CEGVAO
_chemical_formula_moiety         'C19 H16 F3 N3 O1'
_chemical_name_systematic        
6-phenyl-4-(3-phenylpropyl)-3-(trifluoromethyl)-1,2,4-triazin-5(4H)-one
_symmetry_cell_setting           monoclinic
_symmetry_space_group_name_H-M   'P 21/c'
_symmetry_Int_Tables_number      14
_space_group_name_Hall           '-P 2ybc'
loop_
_symmetry_equiv_pos_site_id
_symmetry_equiv_pos_as_xyz
1 x,y,z
2 -x,1/2+y,1/2-z
3 -x,-y,-z
4 x,1/2-y,1/2+z
_cell_length_a                   16.644(4)
_cell_length_b                   12.420(3)
_cell_length_c                   8.4836(19)
_cell_angle_alpha                90
_cell_angle_beta                 94.862(4)
_cell_angle_gamma                90
_cell_volume                     1747.41
_exptl_crystal_colour            colorless
_exptl_crystal_description       Block
_cell_formula_units_Z            4
loop_
_atom_site_label
_atom_site_type_symbol
_atom_site_fract_x
_atom_site_fract_y
_atom_site_fract_z
N1 N 0.26442(12) 0.26356(14) 0.2262(2)
N2 N 0.22218(11) 0.42566(14) 0.4233(2)
N3 N 0.18502(12) 0.27884(15) 0.2560(3)
C1 C 0.31986(14) 0.32893(17) 0.2855(3)
F1 F 0.05341(9) 0.46852(14) 0.3423(2)
C2 C 0.30281(14) 0.41866(18) 0.3904(3)
C3 C 0.40305(14) 0.3085(2) 0.2444(3)
C4 C 0.20362(16) 0.50575(18) 0.5450(3)
H1 H 0.2447 0.5016 0.6330
H2 H 0.1523 0.4874 0.5846
C5 C 0.19198(15) 0.81517(18) 0.5656(2)
C6 C 0.16789(14) 0.35587(18) 0.3486(3)
F2 F 0.06034(11) 0.34463(18) 0.5146(2)
C7 C 0.19951(16) 0.62075(17) 0.4830(3)
H3 H 0.2480 0.6369 0.4316
H4 H 0.1536 0.6283 0.4053
C8 C 0.12135(16) 0.8682(2) 0.5206(3)
H5 H 0.0726 0.8321 0.5250
C9 C 0.07854(17) 0.3683(2) 0.3700(4)
F3 F 0.03434(10) 0.30547(19) 0.2714(3)
C10 C 0.26316(17) 0.8705(2) 0.5590(3)
H6 H 0.3119 0.8367 0.5895
C11 C 0.1915(2) 0.6995(2) 0.6178(3)
H7 H 0.1415 0.6850 0.6651
H8 H 0.2356 0.6880 0.6983
C12 C 0.2626(2) 0.9765(3) 0.5069(4)
H9 H 0.3107 1.0138 0.5017
C13 C 0.1904(3) 1.0259(2) 0.4633(4)
H10 H 0.1897 1.0970 0.4289
C14 C 0.1206(2) 0.9721(3) 0.4697(4)
H11 H 0.0719 1.0060 0.4395
C15 C 0.5015(3) 0.1854(4) 0.1577(5)
H12 H 0.5146 0.1159 0.1280
C16 C 0.42574(18) 0.2064(2) 0.2059(4)
H13 H 0.3894 0.1500 0.2123
C17 C 0.4588(2) 0.3893(3) 0.2298(6)
H14 H 0.4451 0.4601 0.2510
C18 C 0.5565(2) 0.2648(5) 0.1535(5)
H15 H 0.6088 0.2495 0.1297
C19 C 0.5348(3) 0.3664(5) 0.1842(7)
H16 H 0.5714 0.4221 0.1746
O1 O 0.35255(11) 0.48160(15) 0.4510(2)
loop_
_geom_bond_atom_site_label_1
_geom_bond_atom_site_label_2
_geom_bond_site_symmetry_1
_geom_bond_site_symmetry_2
N1 N3 1_555 1_555
N2 C2 1_555 1_555
N3 C6 1_555 1_555
C1 N1 1_555 1_555
F1 C9 1_555 1_555
C2 C1 1_555 1_555
C3 C1 1_555 1_555
C4 N2 1_555 1_555
H1 C4 1_555 1_555
H2 C4 1_555 1_555
C5 C8 1_555 1_555
C6 N2 1_555 1_555
F2 C9 1_555 1_555
C7 C4 1_555 1_555
H3 C7 1_555 1_555
H4 C7 1_555 1_555
C8 H5 1_555 1_555
C9 C6 1_555 1_555
F3 C9 1_555 1_555
C10 C5 1_555 1_555
H6 C10 1_555 1_555
C11 C5 1_555 1_555
H7 C11 1_555 1_555
H8 C11 1_555 1_555
C12 C10 1_555 1_555
H9 C12 1_555 1_555
C13 C12 1_555 1_555
H10 C13 1_555 1_555
C14 C8 1_555 1_555
H11 C14 1_555 1_555
C15 H12 1_555 1_555
C16 C3 1_555 1_555
H13 C16 1_555 1_555
C17 C3 1_555 1_555
H14 C17 1_555 1_555
C18 C15 1_555 1_555
H15 C18 1_555 1_555
C19 C17 1_555 1_555
H16 C19 1_555 1_555
O1 C2 1_555 1_555
C7 C11 1_555 1_555
C13 C14 1_555 1_555
C15 C16 1_555 1_555
C18 C19 1_555 1_555

#END
