
#######################################################################
#
#                 Cambridge Crystallographic Data Centre
#                                CCDC 
#
#######################################################################
#
# If this CIF has been generated from an entry in the Cambridge 
# Structural Database, then it will include bibliographic, chemical, 
# crystal, experimental, refinement or atomic coordinate data resulting 
# from the CCDC's data processing and validation procedures.
#
#######################################################################

data_CEHCAV
_chemical_formula_moiety         'C10 H8 N2,C2 H4 N4 S1'
_chemical_name_systematic        
"5-Amino-2,4-dihydro-3H-1,2,4-triazole-3-thione 4,4'-bipyridine"
_symmetry_cell_setting           monoclinic
_symmetry_space_group_name_H-M   'P 21/c'
_symmetry_Int_Tables_number      14
_space_group_name_Hall           '-P 2ybc'
loop_
_symmetry_equiv_pos_site_id
_symmetry_equiv_pos_as_xyz
1 x,y,z
2 -x,1/2+y,1/2-z
3 -x,-y,-z
4 x,1/2-y,1/2+z
_cell_length_a                   13.5151(12)
_cell_length_b                   6.9680(5)
_cell_length_c                   16.5529(14)
_cell_angle_alpha                90
_cell_angle_beta                 122.385(2)
_cell_angle_gamma                90
_cell_volume                     1316.39
_exptl_crystal_colour            yellow
_exptl_crystal_description       block
_cell_formula_units_Z            4
loop_
_atom_site_label
_atom_site_type_symbol
_atom_site_fract_x
_atom_site_fract_y
_atom_site_fract_z
N1 N 0.54234(15) 0.3890(3) 0.81338(12)
H1 H 0.4953 0.3948 0.7523
N2 N 0.69266(15) 0.3516(3) 0.95219(12)
H2 H 0.7632 0.3273 0.9982
N3 N 0.60324(16) 0.3979(3) 0.96667(13)
N4 N 0.40154(16) 0.4607(3) 0.85462(14)
H3 H 0.3859 0.4756 0.8982
H4 H 0.3469 0.4722 0.7953
S1 S 0.74194(6) 0.31020(11) 0.81472(5)
C1 C 0.65892(18) 0.3483(3) 0.86103(15)
C2 C 0.51320(19) 0.4188(3) 0.87965(15)
N5 N 1.08698(16) 0.6753(3) 0.87403(13)
N6 N 0.62173(17) 0.6303(3) 0.38615(13)
C3 C 0.9754(2) 0.6751(4) 0.84854(17)
H5 H 0.9595 0.6770 0.8967
C4 C 0.8821(2) 0.6721(4) 0.75504(16)
H6 H 0.8058 0.6755 0.7414
C5 C 0.90223(18) 0.6640(3) 0.68118(15)
C6 C 1.01851(19) 0.6645(4) 0.70791(16)
H7 H 1.0375 0.6606 0.6616
C7 C 1.1056(2) 0.6709(4) 0.80326(17)
H8 H 1.1828 0.6721 0.8191
C8 C 0.7294(2) 0.6805(4) 0.41216(18)
H9 H 0.7437 0.7076 0.3643
C9 C 0.8213(2) 0.6949(4) 0.50561(17)
H10 H 0.8948 0.7324 0.5193
C10 C 0.80481(18) 0.6537(3) 0.57918(15)
C11 C 0.6921(2) 0.6022(4) 0.55197(16)
H11 H 0.6752 0.5737 0.5982
C12 C 0.6055(2) 0.5932(4) 0.45693(17)
H12 H 0.5306 0.5589 0.4410
loop_
_geom_bond_atom_site_label_1
_geom_bond_atom_site_label_2
_geom_bond_site_symmetry_1
_geom_bond_site_symmetry_2
N1 H1 1_555 1_555
N2 H2 1_555 1_555
N3 N2 1_555 1_555
N4 H3 1_555 1_555
H4 N4 1_555 1_555
N5 C3 1_555 1_555
N6 C8 1_555 1_555
S1 C1 1_555 1_555
C1 N1 1_555 1_555
C2 N1 1_555 1_555
C3 H5 1_555 1_555
C4 C3 1_555 1_555
H6 C4 1_555 1_555
C5 C4 1_555 1_555
C6 C5 1_555 1_555
H7 C6 1_555 1_555
C7 N5 1_555 1_555
H8 C7 1_555 1_555
C8 H9 1_555 1_555
C9 C8 1_555 1_555
H10 C9 1_555 1_555
C10 C5 1_555 1_555
C11 C10 1_555 1_555
H11 C11 1_555 1_555
C12 N6 1_555 1_555
H12 C12 1_555 1_555
N2 C1 1_555 1_555
N3 C2 1_555 1_555
N4 C2 1_555 1_555
C6 C7 1_555 1_555
C9 C10 1_555 1_555
C11 C12 1_555 1_555

#END
