
#######################################################################
#
#                 Cambridge Crystallographic Data Centre
#                                CCDC 
#
#######################################################################
#
# If this CIF has been generated from an entry in the Cambridge 
# Structural Database, then it will include bibliographic, chemical, 
# crystal, experimental, refinement or atomic coordinate data resulting 
# from the CCDC's data processing and validation procedures.
#
#######################################################################

data_CEHCEZ
_chemical_formula_moiety         'C12 H12 N2'
_chemical_name_systematic        N-(1-(1H-Pyrrol-2-yl)ethylidene)aniline
_symmetry_cell_setting           triclinic
_symmetry_space_group_name_H-M   'P -1'
_symmetry_Int_Tables_number      2
_space_group_name_Hall           '-P 1'
loop_
_symmetry_equiv_pos_site_id
_symmetry_equiv_pos_as_xyz
1 x,y,z
2 -x,-y,-z
_cell_length_a                   8.2236(14)
_cell_length_b                   11.3306(19)
_cell_length_c                   11.913(2)
_cell_angle_alpha                95.984(3)
_cell_angle_beta                 93.202(3)
_cell_angle_gamma                109.274(3)
_cell_volume                     1037.28
_exptl_crystal_colour            colorless
_exptl_crystal_description       block
_cell_formula_units_Z            4
_exptl_crystal_recrystallization_method ethanol
loop_
_atom_site_label
_atom_site_type_symbol
_atom_site_fract_x
_atom_site_fract_y
_atom_site_fract_z
N1 N 0.1204(2) 1.17200(13) 0.61426(13)
H1 H 0.0627 1.1263 0.5534
N2 N 0.19520(19) 0.94813(13) 0.57233(12)
C1 C 0.1184(3) 1.28776(18) 0.6531(2)
H3 H 0.0539 1.3305 0.6192
C2 C 0.2261(3) 1.3311(2) 0.7498(2)
H4 H 0.2502 1.4089 0.7935
C3 C 0.2940(3) 1.23792(19) 0.77152(17)
H5 H 0.3710 1.2419 0.8332
C4 C 0.2279(2) 1.13853(16) 0.68614(15)
C5 C 0.2640(2) 1.02211(16) 0.66444(14)
C6 C 0.3844(3) 0.9990(2) 0.75197(17)
H6 H 0.3216 0.9665 0.8140
H7 H 0.4757 1.0767 0.7793
H8 H 0.4331 0.9389 0.7187
C7 C 0.2301(2) 0.83354(16) 0.54888(15)
C8 C 0.1630(3) 0.73360(18) 0.60871(18)
H9 H 0.0976 0.7418 0.6684
C9 C 0.1917(3) 0.62193(19) 0.5811(2)
H10 H 0.1457 0.5553 0.6224
C10 C 0.2873(3) 0.6075(2) 0.4936(2)
H11 H 0.3072 0.5319 0.4756
C11 C 0.3536(3) 0.7066(2) 0.43257(19)
H12 H 0.4184 0.6980 0.3727
C12 C 0.3241(3) 0.81884(18) 0.46002(17)
H13 H 0.3683 0.8850 0.4179
N3 N 0.38995(19) 0.64751(14) -0.01282(12)
H2 H 0.4486 0.6007 -0.0354
N4 N 0.31361(19) 0.43111(14) 0.10218(13)
C13 C 0.4041(3) 0.76033(19) -0.04693(17)
H14 H 0.4783 0.8000 -0.0982
C14 C 0.2908(3) 0.8061(2) 0.00674(18)
H15 H 0.2736 0.8820 -0.0013
C15 C 0.2060(3) 0.71803(18) 0.07579(17)
H16 H 0.1218 0.7249 0.1225
C16 C 0.2679(2) 0.61897(16) 0.06320(14)
C17 C 0.2239(2) 0.50444(16) 0.11674(14)
C18 C 0.0726(3) 0.47986(18) 0.18618(16)
H17 H -0.0259 0.4157 0.1446
H18 H 0.0462 0.5560 0.2025
H19 H 0.1006 0.4522 0.2559
C19 C 0.2680(2) 0.31984(17) 0.15675(16)
C20 C 0.3454(3) 0.3213(2) 0.26340(17)
H20 H 0.4238 0.3961 0.3014
C21 C 0.3063(3) 0.2120(3) 0.3132(2)
H21 H 0.3581 0.2136 0.3851
C22 C 0.1926(3) 0.1014(2) 0.2583(2)
H22 H 0.1663 0.0283 0.2927
C23 C 0.1175(3) 0.0987(2) 0.1524(2)
H23 H 0.0404 0.0233 0.1147
C24 C 0.1551(3) 0.2071(2) 0.10094(19)
H24 H 0.1042 0.2042 0.0285
loop_
_geom_bond_atom_site_label_1
_geom_bond_atom_site_label_2
_geom_bond_site_symmetry_1
_geom_bond_site_symmetry_2
N1 H1 1_555 1_555
N2 C5 1_555 1_555
N3 H2 1_555 1_555
N4 C17 1_555 1_555
C1 N1 1_555 1_555
H3 C1 1_555 1_555
C2 C1 1_555 1_555
H4 C2 1_555 1_555
C3 C2 1_555 1_555
H5 C3 1_555 1_555
C4 N1 1_555 1_555
C5 C4 1_555 1_555
C6 C5 1_555 1_555
H6 C6 1_555 1_555
H7 C6 1_555 1_555
H8 C6 1_555 1_555
C7 N2 1_555 1_555
C8 C7 1_555 1_555
H9 C8 1_555 1_555
C9 C8 1_555 1_555
H10 C9 1_555 1_555
C10 C9 1_555 1_555
H11 C10 1_555 1_555
C11 C10 1_555 1_555
H12 C11 1_555 1_555
C12 C7 1_555 1_555
H13 C12 1_555 1_555
C13 N3 1_555 1_555
H14 C13 1_555 1_555
C14 C13 1_555 1_555
H15 C14 1_555 1_555
C15 C14 1_555 1_555
H16 C15 1_555 1_555
C16 N3 1_555 1_555
C17 C16 1_555 1_555
C18 C17 1_555 1_555
H17 C18 1_555 1_555
H18 C18 1_555 1_555
H19 C18 1_555 1_555
C19 N4 1_555 1_555
C20 C19 1_555 1_555
H20 C20 1_555 1_555
C21 C20 1_555 1_555
H21 C21 1_555 1_555
C22 C21 1_555 1_555
H22 C22 1_555 1_555
C23 C22 1_555 1_555
H23 C23 1_555 1_555
C24 C19 1_555 1_555
H24 C24 1_555 1_555
C3 C4 1_555 1_555
C11 C12 1_555 1_555
C15 C16 1_555 1_555
C23 C24 1_555 1_555

#END
