
#######################################################################
#
#                 Cambridge Crystallographic Data Centre
#                                CCDC 
#
#######################################################################
#
# If this CIF has been generated from an entry in the Cambridge 
# Structural Database, then it will include bibliographic, chemical, 
# crystal, experimental, refinement or atomic coordinate data resulting 
# from the CCDC's data processing and validation procedures.
#
#######################################################################

data_CEHDAW
_chemical_formula_moiety         'C22 H17 Cl1 N2 O5'
_chemical_name_systematic        
'N-(2-Chlorophenyl)-1-phenylformamido 3-(2-nitrophenyl)propanoate'
_symmetry_cell_setting           monoclinic
_symmetry_space_group_name_H-M   'P 21/n'
_symmetry_Int_Tables_number      14
_space_group_name_Hall           '-P 2yn'
loop_
_symmetry_equiv_pos_site_id
_symmetry_equiv_pos_as_xyz
1 x,y,z
2 1/2-x,1/2+y,1/2-z
3 -x,-y,-z
4 1/2+x,1/2-y,1/2+z
_cell_length_a                   14.698(9)
_cell_length_b                   8.030(5)
_cell_length_c                   17.495(11)
_cell_angle_alpha                90
_cell_angle_beta                 103.059(7)
_cell_angle_gamma                90
_cell_volume                     2011.45
_exptl_crystal_colour            colorless
_exptl_crystal_description       block
_cell_formula_units_Z            4
loop_
_atom_site_label
_atom_site_type_symbol
_atom_site_fract_x
_atom_site_fract_y
_atom_site_fract_z
C1 C 0.54356(14) 0.7597(3) -0.08505(13)
C2 C 0.47799(16) 0.8218(3) -0.14815(14)
H1 H 0.4370 0.7502 -0.1809
C3 C 0.47420(19) 0.9893(4) -0.16184(17)
H2 H 0.4314 1.0326 -0.2047
C4 C 0.53416(19) 1.0939(4) -0.11187(18)
H3 H 0.5323 1.2081 -0.1210
C5 C 0.59688(16) 1.0288(3) -0.04832(16)
H4 H 0.6359 1.1014 -0.0145
C6 C 0.60438(14) 0.8602(3) -0.03261(13)
C7 C 0.67502(14) 0.8013(3) 0.03913(13)
H5 H 0.6520 0.7007 0.0590
H6 H 0.6820 0.8856 0.0797
C8 C 0.77017(14) 0.7660(3) 0.02151(13)
H7 H 0.7677 0.6601 -0.0056
H8 H 0.7841 0.8517 -0.0132
C9 C 0.84611(15) 0.7607(3) 0.09349(15)
C10 C 1.07421(15) 0.7137(3) 0.15039(14)
C11 C 1.05317(18) 0.5495(4) 0.15897(17)
H9 H 0.9922 0.5189 0.1592
C12 C 1.1218(2) 0.4293(4) 0.16719(17)
H10 H 1.1067 0.3178 0.1718
C13 C 1.21242(19) 0.4745(4) 0.16857(16)
H11 H 1.2590 0.3938 0.1756
C14 C 1.23411(17) 0.6372(4) 0.15972(14)
H12 H 1.2954 0.6674 0.1606
C15 C 1.16538(16) 0.7572(3) 0.14945(13)
C16 C 0.99784(16) 0.9673(3) 0.18933(15)
C17 C 0.92056(15) 1.0900(3) 0.16295(14)
C18 C 0.86650(17) 1.1325(3) 0.21517(15)
H13 H 0.8794 1.0861 0.2652
C19 C 0.79360(18) 1.2432(4) 0.19365(18)
H14 H 0.7567 1.2696 0.2287
C20 C 0.7755(2) 1.3147(4) 0.12042(19)
H15 H 0.7261 1.3891 0.1059
C21 C 0.8295(2) 1.2771(4) 0.06901(18)
H16 H 0.8176 1.3274 0.0199
C22 C 0.90226(18) 1.1643(3) 0.08966(16)
H17 H 0.9388 1.1385 0.0543
Cl1 Cl 1.19330(5) 0.96079(10) 0.13393(4)
N1 N 0.54447(14) 0.5788(3) -0.07543(11)
N2 N 1.00361(12) 0.8386(3) 0.13960(12)
O1 O 0.46940(12) 0.5048(2) -0.09402(10)
O2 O 0.61882(12) 0.5081(2) -0.05065(10)
O3 O 0.84162(11) 0.7242(2) 0.15847(10)
O4 O 0.92840(9) 0.8124(2) 0.07409(9)
O5 O 1.05461(11) 0.9793(2) 0.25171(10)
loop_
_geom_bond_atom_site_label_1
_geom_bond_atom_site_label_2
_geom_bond_site_symmetry_1
_geom_bond_site_symmetry_2
C1 C2 1_555 1_555
C2 H1 1_555 1_555
C3 C2 1_555 1_555
H2 C3 1_555 1_555
C4 C3 1_555 1_555
H3 C4 1_555 1_555
C5 C4 1_555 1_555
H4 C5 1_555 1_555
C6 C1 1_555 1_555
C7 C6 1_555 1_555
H5 C7 1_555 1_555
H6 C7 1_555 1_555
C8 C7 1_555 1_555
H7 C8 1_555 1_555
H8 C8 1_555 1_555
C9 C8 1_555 1_555
C10 C11 1_555 1_555
C11 H9 1_555 1_555
C12 C11 1_555 1_555
H10 C12 1_555 1_555
C13 C12 1_555 1_555
H11 C13 1_555 1_555
C14 C13 1_555 1_555
H12 C14 1_555 1_555
C15 C10 1_555 1_555
C16 C17 1_555 1_555
C17 C18 1_555 1_555
C18 H13 1_555 1_555
C19 C18 1_555 1_555
H14 C19 1_555 1_555
C20 C19 1_555 1_555
H15 C20 1_555 1_555
C21 C20 1_555 1_555
H16 C21 1_555 1_555
C22 C17 1_555 1_555
H17 C22 1_555 1_555
Cl1 C15 1_555 1_555
N1 C1 1_555 1_555
N2 C10 1_555 1_555
O1 N1 1_555 1_555
O2 N1 1_555 1_555
O3 C9 1_555 1_555
O4 C9 1_555 1_555
O5 C16 1_555 1_555
C5 C6 1_555 1_555
C14 C15 1_555 1_555
C16 N2 1_555 1_555
C21 C22 1_555 1_555
N2 O4 1_555 1_555

#END
