
#######################################################################
#
#                 Cambridge Crystallographic Data Centre
#                                CCDC 
#
#######################################################################
#
# If this CIF has been generated from an entry in the Cambridge 
# Structural Database, then it will include bibliographic, chemical, 
# crystal, experimental, refinement or atomic coordinate data resulting 
# from the CCDC's data processing and validation procedures.
#
#######################################################################

data_CEHFUS
_chemical_formula_moiety         'C22 H18 N2 O5'
_chemical_name_systematic        
N-(4-Methylphenyl)-N-(((2-nitrophenyl)acetyl)oxy)benzamide
_symmetry_cell_setting           orthorhombic
_symmetry_space_group_name_H-M   'P 21 21 21'
_symmetry_Int_Tables_number      19
_space_group_name_Hall           'P 2ac 2ab'
loop_
_symmetry_equiv_pos_site_id
_symmetry_equiv_pos_as_xyz
1 x,y,z
2 1/2-x,-y,1/2+z
3 -x,1/2+y,1/2-z
4 1/2+x,1/2-y,-z
_cell_length_a                   9.246(3)
_cell_length_b                   11.911(4)
_cell_length_c                   17.923(6)
_cell_angle_alpha                90
_cell_angle_beta                 90
_cell_angle_gamma                90
_cell_volume                     1973.84
_exptl_crystal_colour            yellow
_exptl_crystal_description       block
_cell_formula_units_Z            4
loop_
_atom_site_label
_atom_site_type_symbol
_atom_site_fract_x
_atom_site_fract_y
_atom_site_fract_z
C1 C 0.3532(3) 0.1353(2) -0.07101(14)
C2 C 0.2883(3) 0.1027(3) -0.13739(17)
H1 H 0.2795 0.0271 -0.1496
C3 C 0.2368(3) 0.1853(4) -0.18535(16)
H2 H 0.1933 0.1658 -0.2303
C4 C 0.2508(4) 0.2945(3) -0.16565(19)
H3 H 0.2173 0.3502 -0.1977
C5 C 0.3124(3) 0.3237(3) -0.10045(17)
H4 H 0.3186 0.3995 -0.0886
C6 C 0.3665(3) 0.2469(2) -0.05063(13)
C7 C 0.4263(3) 0.2894(2) 0.02163(14)
H5 H 0.5196 0.2548 0.0306
H6 H 0.4409 0.3698 0.0181
C8 C 0.3285(3) 0.2649(2) 0.08568(14)
C9 C 0.1744(3) 0.3805(2) 0.21269(15)
C10 C 0.0711(3) 0.3651(2) 0.27535(14)
C11 C -0.0023(3) 0.4586(2) 0.30155(17)
H7 H 0.0173 0.5291 0.2817
C12 C -0.1047(4) 0.4469(3) 0.35739(19)
H8 H -0.1526 0.5098 0.3757
C13 C -0.1356(4) 0.3429(3) 0.38569(17)
H9 H -0.2047 0.3353 0.4230
C14 C -0.0659(3) 0.2509(3) 0.35956(16)
H10 H -0.0882 0.1804 0.3786
C15 C 0.0376(3) 0.2615(2) 0.30509(15)
H11 H 0.0858 0.1980 0.2880
C16 C 0.3668(3) 0.2615(2) 0.27241(13)
C17 C 0.4158(3) 0.1531(2) 0.26885(16)
H12 H 0.3964 0.1095 0.2270
C18 C 0.4936(3) 0.1090(2) 0.32708(16)
H13 H 0.5281 0.0358 0.3236
C19 C 0.5220(3) 0.1707(2) 0.39074(14)
C20 C 0.4722(3) 0.2792(2) 0.39293(15)
H14 H 0.4898 0.3226 0.4351
C21 C 0.3968(3) 0.3255(2) 0.33402(15)
H15 H 0.3663 0.3998 0.3361
C22 C 0.6051(4) 0.1213(3) 0.45524(15)
H16 H 0.5407 0.0785 0.4862
H17 H 0.6475 0.1808 0.4841
H18 H 0.6802 0.0733 0.4365
N1 N 0.4064(4) 0.0451(2) -0.02206(17)
N2 N 0.2881(2) 0.3064(2) 0.21067(12)
O1 O 0.2230(3) 0.20874(17) 0.08620(10)
O2 O 0.37898(19) 0.32093(15) 0.14693(9)
O3 O 0.1555(2) 0.44895(17) 0.16349(12)
O4 O 0.3608(4) -0.0472(2) -0.03322(16)
O5 O 0.4911(4) 0.0655(2) 0.02581(17)
loop_
_geom_bond_atom_site_label_1
_geom_bond_atom_site_label_2
_geom_bond_site_symmetry_1
_geom_bond_site_symmetry_2
C1 C2 1_555 1_555
C2 H1 1_555 1_555
C3 C2 1_555 1_555
H2 C3 1_555 1_555
C4 C3 1_555 1_555
H3 C4 1_555 1_555
C5 C4 1_555 1_555
H4 C5 1_555 1_555
C6 C1 1_555 1_555
C7 C6 1_555 1_555
H5 C7 1_555 1_555
H6 C7 1_555 1_555
C8 C7 1_555 1_555
C9 C10 1_555 1_555
C10 C11 1_555 1_555
C11 H7 1_555 1_555
C12 C11 1_555 1_555
H8 C12 1_555 1_555
C13 C12 1_555 1_555
H9 C13 1_555 1_555
C14 C13 1_555 1_555
H10 C14 1_555 1_555
C15 C10 1_555 1_555
H11 C15 1_555 1_555
C16 C17 1_555 1_555
C17 H12 1_555 1_555
C18 C17 1_555 1_555
H13 C18 1_555 1_555
C19 C18 1_555 1_555
C20 C19 1_555 1_555
H14 C20 1_555 1_555
C21 C16 1_555 1_555
H15 C21 1_555 1_555
C22 C19 1_555 1_555
H16 C22 1_555 1_555
H17 C22 1_555 1_555
H18 C22 1_555 1_555
N1 C1 1_555 1_555
N2 C9 1_555 1_555
O1 C8 1_555 1_555
O2 C8 1_555 1_555
O3 C9 1_555 1_555
O4 N1 1_555 1_555
O5 N1 1_555 1_555
C5 C6 1_555 1_555
C14 C15 1_555 1_555
C16 N2 1_555 1_555
C20 C21 1_555 1_555
N2 O2 1_555 1_555

#END
