
#######################################################################
#
#                 Cambridge Crystallographic Data Centre
#                                CCDC 
#
#######################################################################
#
# If this CIF has been generated from an entry in the Cambridge 
# Structural Database, then it will include bibliographic, chemical, 
# crystal, experimental, refinement or atomic coordinate data resulting 
# from the CCDC's data processing and validation procedures.
#
#######################################################################

data_CEHGOL
_chemical_formula_moiety         'C12 H24 O6,2(C2 H4 N2 S2)'
_chemical_name_systematic        '18-Crown-6 bis(dithio-oxamide)'
_symmetry_cell_setting           monoclinic
_symmetry_space_group_name_H-M   'P 21/c'
_symmetry_Int_Tables_number      14
_space_group_name_Hall           '-P 2ybc'
loop_
_symmetry_equiv_pos_site_id
_symmetry_equiv_pos_as_xyz
1 x,y,z
2 -x,1/2+y,1/2-z
3 -x,-y,-z
4 x,1/2-y,1/2+z
_cell_length_a                   8.620(2)
_cell_length_b                   14.908(5)
_cell_length_c                   11.366(6)
_cell_angle_alpha                90
_cell_angle_beta                 121.02(3)
_cell_angle_gamma                90
_cell_volume                     1251.72
_cell_formula_units_Z            2
loop_
_atom_site_label
_atom_site_type_symbol
_atom_site_fract_x
_atom_site_fract_y
_atom_site_fract_z
O1 O 0.40470 0.44980 0.22260
C1 C 0.26770 0.50810 0.21510
C2 C 0.25190 0.59350 0.14850
O2 O 0.21090 0.57990 0.01130
C3 C 0.20730 0.66330 -0.04790
C4 C 0.16730 0.64910 -0.19010
O3 O 0.31220 0.60130 -0.18630
C5 C 0.29060 0.59470 -0.31940
C6 C 0.58420 0.47480 0.31670
H1 H 0.14550 0.46610 0.15430
H2 H 0.29610 0.53580 0.31570
H3 H 0.15530 0.62720 0.15550
H4 H 0.37330 0.63620 0.21310
H5 H 0.11560 0.70080 -0.03920
H6 H 0.33270 0.70210 0.01800
H7 H 0.04480 0.60870 -0.26320
H8 H 0.17060 0.70980 -0.21120
H9 H 0.16110 0.56990 -0.40190
H10 H 0.33280 0.65620 -0.32190
H11 H 0.62500 0.53000 0.29910
H12 H 0.60290 0.49500 0.41490
C6B C 0.41580 0.52520 -0.31670
C5B C 0.70940 0.40530 0.31940
O1B O 0.59530 0.55020 -0.22260
H11B H 0.37500 0.47000 -0.29910
H12B H 0.39710 0.50500 -0.41490
O3B O 0.68780 0.39870 0.18630
H9B H 0.83890 0.43010 0.40190
H10B H 0.66720 0.34380 0.32190
C1B C 0.73230 0.49190 -0.21510
C4B C 0.83270 0.35090 0.19010
C2B C 0.74810 0.40650 -0.14850
H1B H 0.85450 0.53390 -0.15430
H2B H 0.70390 0.46420 -0.31570
C3B C 0.79270 0.33670 0.04790
H7B H 0.95520 0.39130 0.26320
H8B H 0.82940 0.29020 0.21120
O2B O 0.78910 0.42010 -0.01130
H3B H 0.84470 0.37280 -0.15550
H4B H 0.62670 0.36380 -0.21310
H5B H 0.88440 0.29920 0.03920
H6B H 0.66730 0.29790 -0.01800
N1 N 0.28860 0.27220 0.23350
C7 C 0.28870 0.24250 0.34200
S1 S 0.36093 0.30236 0.48303
C8 C 0.21870 0.14820 0.32880
N2 N 0.30710 0.09860 0.43920
S2 S 0.04223 0.11401 0.18216
H13 H 0.24290 0.23300 0.14940
H14 H 0.33280 0.33490 0.23380
H15 H 0.26920 0.03440 0.43870
H16 H 0.41350 0.12470 0.52490
loop_
_geom_bond_atom_site_label_1
_geom_bond_atom_site_label_2
_geom_bond_site_symmetry_1
_geom_bond_site_symmetry_2
O1 C1 1_555 1_555
C1 C2 1_555 1_555
C2 O2 1_555 1_555
O2 C3 1_555 1_555
C3 C4 1_555 1_555
C4 O3 1_555 1_555
O3 C5 1_555 1_555
C5 H9 1_555 1_555
C6 O1 1_555 1_555
N1 C7 1_555 1_555
C7 S1 1_555 1_555
C8 C7 1_555 1_555
N2 C8 1_555 1_555
S2 C8 1_555 1_555
H1 C1 1_555 1_555
H2 C1 1_555 1_555
H3 C2 1_555 1_555
H4 C2 1_555 1_555
H5 C3 1_555 1_555
H6 C3 1_555 1_555
H7 C4 1_555 1_555
H8 C4 1_555 1_555
H10 C5 1_555 1_555
H11 C6 1_555 1_555
H12 C6 1_555 1_555
H13 N1 1_555 1_555
H14 N1 1_555 1_555
H15 N2 1_555 1_555
H16 N2 1_555 1_555
C6B C5 1_555 1_555
C5B C6 1_555 1_555
O1B C6B 1_555 1_555
H11B C6B 1_555 1_555
H12B C6B 1_555 1_555
O3B C5B 1_555 1_555
H9B C5B 1_555 1_555
H10B C5B 1_555 1_555
C1B O1B 1_555 1_555
C4B O3B 1_555 1_555
C2B C1B 1_555 1_555
H1B C1B 1_555 1_555
H2B C1B 1_555 1_555
C3B C4B 1_555 1_555
H7B C4B 1_555 1_555
H8B C4B 1_555 1_555
O2B C2B 1_555 1_555
H3B C2B 1_555 1_555
H4B C2B 1_555 1_555
H5B C3B 1_555 1_555
H6B C3B 1_555 1_555
C3B O2B 1_555 1_555

#END
