
#######################################################################
#
#                 Cambridge Crystallographic Data Centre
#                                CCDC 
#
#######################################################################
#
# If this CIF has been generated from an entry in the Cambridge 
# Structural Database, then it will include bibliographic, chemical, 
# crystal, experimental, refinement or atomic coordinate data resulting 
# from the CCDC's data processing and validation procedures.
#
#######################################################################

data_CEHGIF
_chemical_formula_moiety         'C12 H24 O6,C2 H6 N2 S1'
_chemical_name_systematic        '18-Crown-6 N-methylthiourea'
_symmetry_cell_setting           triclinic
_symmetry_space_group_name_H-M   'P -1'
_symmetry_Int_Tables_number      2
_space_group_name_Hall           '-P 1'
loop_
_symmetry_equiv_pos_site_id
_symmetry_equiv_pos_as_xyz
1 x,y,z
2 -x,-y,-z
_cell_length_a                   8.903(2)
_cell_length_b                   9.311(2)
_cell_length_c                   15.772(3)
_cell_angle_alpha                120.69(1)
_cell_angle_beta                 94.62(1)
_cell_angle_gamma                114.29(1)
_cell_volume                     951.804
_chemical_melting_point          85-95deg.C
_cell_formula_units_Z            2
loop_
_atom_site_label
_atom_site_type_symbol
_atom_site_fract_x
_atom_site_fract_y
_atom_site_fract_z
S1 S -0.15460 -0.15150 0.21029
N1 N -0.02000 0.09060 0.15930
N2 N 0.13250 0.20110 0.32350
C1 C -0.00470 0.05860 0.23110
C2 C 0.27020 0.38610 0.35230
H1 H 0.03700 0.22700 0.18000
H2 H -0.12800 -0.01900 0.09000
H3 H 0.14100 0.17500 0.37900
H4 H 0.22700 0.46300 0.34600
H5 H 0.35800 0.48100 0.42300
H6 H 0.34000 0.37400 0.30800
O1 O -0.20970 0.17400 0.03210
C3 C -0.12360 0.35850 0.05260
C4 C 0.02840 0.50420 0.15480
O2 O 0.16340 0.46140 0.16340
C5 C 0.25600 0.46870 0.09520
C6 C 0.38900 0.41700 0.10830
O3 O 0.30110 0.22340 0.07760
C7 C 0.41690 0.16370 0.09220
C8 C -0.32010 0.02610 -0.07550
H7 H -0.07600 0.35400 -0.00400
H8 H -0.21100 0.40100 0.05300
H9 H 0.08200 0.63300 0.16800
H10 H -0.02100 0.51000 0.21200
H11 H 0.17300 0.37400 0.02200
H12 H 0.31600 0.60000 0.11100
H13 H 0.46400 0.43000 0.06600
H14 H 0.46800 0.50500 0.18400
H15 H 0.48400 0.15700 0.04600
H16 H 0.50300 0.26000 0.16700
H17 H -0.40900 0.05500 -0.09700
H18 H -0.24800 0.02100 -0.12100
C8A C 0.32010 -0.02610 0.07550
C7A C -0.41690 -0.16370 -0.09220
O1A O 0.20970 -0.17400 -0.03210
H17A H 0.40900 -0.05500 0.09700
H18A H 0.24800 -0.02100 0.12100
O3A O -0.30110 -0.22340 -0.07760
H15A H -0.48400 -0.15700 -0.04600
H16A H -0.50300 -0.26000 -0.16700
C3A C 0.12360 -0.35850 -0.05260
C6A C -0.38900 -0.41700 -0.10830
C4A C -0.02840 -0.50420 -0.15480
H7A H 0.07600 -0.35400 0.00400
H8A H 0.21100 -0.40100 -0.05300
C5A C -0.25600 -0.46870 -0.09520
H13A H -0.46400 -0.43000 -0.06600
H14A H -0.46800 -0.50500 -0.18400
O2A O -0.16340 -0.46140 -0.16340
H9A H -0.08200 -0.63300 -0.16800
H10A H 0.02100 -0.51000 -0.21200
H11A H -0.17300 -0.37400 -0.02200
H12A H -0.31600 -0.60000 -0.11100
O4 O 0.34080 0.65470 0.63560
C9 C 0.17750 0.51040 0.61550
C10 C 0.19410 0.36000 0.61720
O5 O 0.22600 0.24350 0.52730
C11 C 0.27030 0.12240 0.53520
C12 C 0.30120 0.00520 0.43890
O6 O 0.46260 0.13340 0.44090
C13 C 0.48870 0.04740 0.34460
C14 C 0.33590 0.81090 0.64440
H19 H 0.12800 0.56500 0.66900
H20 H 0.09600 0.44900 0.54500
H21 H 0.29700 0.42200 0.68100
H22 H 0.08500 0.27500 0.62200
H23 H 0.38000 0.20100 0.59600
H24 H 0.17300 0.03400 0.54400
H25 H 0.30800 -0.10100 0.43500
H26 H 0.20300 -0.05100 0.37400
H27 H 0.48200 -0.07400 0.32700
H28 H 0.39300 0.01700 0.29000
H29 H 0.24600 0.76600 0.57900
H30 H 0.30600 0.87800 0.70500
C14A C 0.66410 0.18910 0.35560
C13A C 0.51130 0.95260 0.65540
O4A O 0.65920 0.34530 0.36440
H29A H 0.75400 0.23400 0.42100
H30A H 0.69400 0.12200 0.29500
O6A O 0.53740 0.86660 0.55910
H27A H 0.51800 1.07400 0.67300
H28A H 0.60700 0.98300 0.71000
C9A C 0.82250 0.48960 0.38450
C12A C 0.69880 0.99480 0.56110
C10A C 0.80590 0.64000 0.38280
H19A H 0.87200 0.43500 0.33100
H20A H 0.90400 0.55100 0.45500
C11A C 0.72970 0.87760 0.46480
H25A H 0.69200 1.10100 0.56500
H26A H 0.79700 1.05100 0.62600
O5A O 0.77400 0.75650 0.47270
H21A H 0.70300 0.57800 0.31900
H22A H 0.91500 0.72500 0.37800
H23A H 0.62000 0.79900 0.40400
H24A H 0.82700 0.96600 0.45600
loop_
_geom_bond_atom_site_label_1
_geom_bond_atom_site_label_2
_geom_bond_site_symmetry_1
_geom_bond_site_symmetry_2
S1 C1 1_555 1_555
N1 C1 1_555 1_555
N2 C1 1_555 1_555
C2 N2 1_555 1_555
O1 C3 1_555 1_555
C3 C4 1_555 1_555
C4 O2 1_555 1_555
O2 C5 1_555 1_555
C5 C6 1_555 1_555
C6 O3 1_555 1_555
O3 C7 1_555 1_555
C7 H15 1_555 1_555
C8 O1 1_555 1_555
O4 C9 1_555 1_555
C9 C10 1_555 1_555
C10 O5 1_555 1_555
O5 C11 1_555 1_555
C11 C12 1_555 1_555
C12 O6 1_555 1_555
O6 C13 1_555 1_555
C13 H27 1_555 1_555
C14 O4 1_555 1_555
H1 N1 1_555 1_555
H2 N1 1_555 1_555
H3 N2 1_555 1_555
H4 C2 1_555 1_555
H5 C2 1_555 1_555
H6 C2 1_555 1_555
H7 C3 1_555 1_555
H8 C3 1_555 1_555
H9 C4 1_555 1_555
H10 C4 1_555 1_555
H11 C5 1_555 1_555
H12 C5 1_555 1_555
H13 C6 1_555 1_555
H14 C6 1_555 1_555
H16 C7 1_555 1_555
H17 C8 1_555 1_555
H18 C8 1_555 1_555
H19 C9 1_555 1_555
H20 C9 1_555 1_555
H21 C10 1_555 1_555
H22 C10 1_555 1_555
H23 C11 1_555 1_555
H24 C11 1_555 1_555
H25 C12 1_555 1_555
H26 C12 1_555 1_555
H28 C13 1_555 1_555
H29 C14 1_555 1_555
H30 C14 1_555 1_555
C8A C7 1_555 1_555
C7A C8 1_555 1_555
O1A C8A 1_555 1_555
H17A C8A 1_555 1_555
H18A C8A 1_555 1_555
O3A C7A 1_555 1_555
H15A C7A 1_555 1_555
H16A C7A 1_555 1_555
C3A O1A 1_555 1_555
C6A O3A 1_555 1_555
C4A C3A 1_555 1_555
H7A C3A 1_555 1_555
H8A C3A 1_555 1_555
C5A C6A 1_555 1_555
H13A C6A 1_555 1_555
H14A C6A 1_555 1_555
O2A C4A 1_555 1_555
H9A C4A 1_555 1_555
H10A C4A 1_555 1_555
H11A C5A 1_555 1_555
H12A C5A 1_555 1_555
C14A C13 1_555 1_555
C13A C14 1_555 1_555
O4A C14A 1_555 1_555
H29A C14A 1_555 1_555
H30A C14A 1_555 1_555
O6A C13A 1_555 1_555
H27A C13A 1_555 1_555
H28A C13A 1_555 1_555
C9A O4A 1_555 1_555
C12A O6A 1_555 1_555
C10A C9A 1_555 1_555
H19A C9A 1_555 1_555
H20A C9A 1_555 1_555
C11A C12A 1_555 1_555
H25A C12A 1_555 1_555
H26A C12A 1_555 1_555
O5A C10A 1_555 1_555
H21A C10A 1_555 1_555
H22A C10A 1_555 1_555
H23A C11A 1_555 1_555
H24A C11A 1_555 1_555
C5A O2A 1_555 1_555
C11A O5A 1_555 1_555

#END
