
#######################################################################
#
#                 Cambridge Crystallographic Data Centre
#                                CCDC 
#
#######################################################################
#
# If this CIF has been generated from an entry in the Cambridge 
# Structural Database, then it will include bibliographic, chemical, 
# crystal, experimental, refinement or atomic coordinate data resulting 
# from the CCDC's data processing and validation procedures.
#
#######################################################################

data_CEHGII
_chemical_formula_moiety         'C18 H30 O6'
_chemical_name_systematic        
'dimethyl 2,3-dicyclohexyl-2,3-dihydroxybutanedioate'
_symmetry_cell_setting           monoclinic
_symmetry_space_group_name_H-M   'P 21/c'
_symmetry_Int_Tables_number      14
_space_group_name_Hall           '-P 2ybc'
loop_
_symmetry_equiv_pos_site_id
_symmetry_equiv_pos_as_xyz
1 x,y,z
2 -x,1/2+y,1/2-z
3 -x,-y,-z
4 x,1/2-y,1/2+z
_cell_length_a                   10.370(2)
_cell_length_b                   16.668(4)
_cell_length_c                   13.0761(18)
_cell_angle_alpha                90
_cell_angle_beta                 124.978(10)
_cell_angle_gamma                90
_cell_volume                     1851.92
_exptl_crystal_description       block
_cell_formula_units_Z            4
loop_
_atom_site_label
_atom_site_type_symbol
_atom_site_fract_x
_atom_site_fract_y
_atom_site_fract_z
O1 O 0.5331(2) 0.70575(12) 0.70619(18)
H1 H 0.5793 0.7071 0.7822
O2 O 0.8620(2) 0.76162(12) 0.68374(18)
H2 H 0.7970 0.7726 0.6100
O3 O 0.8330(3) 0.72640(17) 0.9367(2)
O4 O 1.0048(2) 0.79004(14) 0.91319(18)
O5 O 0.5689(2) 0.77976(13) 0.47063(19)
O6 O 0.3748(2) 0.72426(12) 0.47347(18)
C1 C 0.6106(3) 0.75701(17) 0.6706(3)
C2 C 0.7848(3) 0.72460(16) 0.7333(3)
C3 C 0.6020(3) 0.84578(17) 0.7064(3)
H3 H 0.6415 0.8439 0.7948
C4 C 0.4325(4) 0.8744(2) 0.6378(3)
H4 H 0.3882 0.8795 0.5496
H5 H 0.3714 0.8346 0.6469
C5 C 0.7008(4) 0.90865(18) 0.6979(3)
H6 H 0.8096 0.8912 0.7453
H7 H 0.6644 0.9150 0.6115
C6 C 0.4196(5) 0.9542(2) 0.6866(4)
H8 H 0.3109 0.9719 0.6358
H9 H 0.4499 0.9473 0.7713
C7 C 0.6900(5) 0.9885(2) 0.7483(4)
H10 H 0.7484 1.0285 0.7365
H11 H 0.7391 0.9834 0.8373
C8 C 0.5210(5) 1.0174(2) 0.6854(4)
H12 H 0.5205 1.0648 0.7283
H13 H 0.4779 1.0323 0.5998
C9 C 0.7930(3) 0.63128(17) 0.7267(3)
H14 H 0.7418 0.6087 0.7640
C10 C 0.7075(4) 0.59785(19) 0.5951(3)
H15 H 0.7476 0.6239 0.5523
H16 H 0.5965 0.6107 0.5502
C11 C 0.9642(4) 0.6024(2) 0.8058(3)
H17 H 1.0211 0.6279 0.7761
H18 H 1.0131 0.6188 0.8917
C12 C 0.7254(4) 0.50751(19) 0.5914(4)
H19 H 0.6693 0.4809 0.6210
H20 H 0.6779 0.4909 0.5058
C13 C 0.8943(4) 0.4815(2) 0.6698(4)
H21 H 0.8995 0.4234 0.6711
H22 H 0.9471 0.5014 0.6332
C14 C 0.9773(4) 0.5123(2) 0.8011(4)
H23 H 1.0876 0.4975 0.8477
H24 H 0.9326 0.4870 0.8409
C15 C 0.8755(3) 0.74698(19) 0.8719(3)
C16 C 0.2766(4) 0.7290(2) 0.3394(3)
H25 H 0.2779 0.7829 0.3139
H26 H 0.1708 0.7144 0.3089
H27 H 0.3157 0.6930 0.3058
C17 C 0.5191(3) 0.75346(17) 0.5284(3)
C18 C 1.0979(4) 0.8105(3) 1.0442(3)
H28 H 1.0441 0.8507 1.0589
H29 H 1.1982 0.8309 1.0681
H30 H 1.1133 0.7636 1.0925
loop_
_geom_bond_atom_site_label_1
_geom_bond_atom_site_label_2
_geom_bond_site_symmetry_1
_geom_bond_site_symmetry_2
O1 H1 1_555 1_555
O2 H2 1_555 1_555
O3 C15 1_555 1_555
O4 C15 1_555 1_555
O5 C17 1_555 1_555
O6 C16 1_555 1_555
C1 O1 1_555 1_555
C2 O2 1_555 1_555
C3 C1 1_555 1_555
H3 C3 1_555 1_555
C4 C3 1_555 1_555
H4 C4 1_555 1_555
H5 C4 1_555 1_555
C5 C3 1_555 1_555
H6 C5 1_555 1_555
H7 C5 1_555 1_555
C6 C4 1_555 1_555
H8 C6 1_555 1_555
H9 C6 1_555 1_555
C7 C5 1_555 1_555
H10 C7 1_555 1_555
H11 C7 1_555 1_555
C8 C6 1_555 1_555
H12 C8 1_555 1_555
H13 C8 1_555 1_555
C9 C2 1_555 1_555
H14 C9 1_555 1_555
C10 C9 1_555 1_555
H15 C10 1_555 1_555
H16 C10 1_555 1_555
C11 C9 1_555 1_555
H17 C11 1_555 1_555
H18 C11 1_555 1_555
C12 C10 1_555 1_555
H19 C12 1_555 1_555
H20 C12 1_555 1_555
C13 C12 1_555 1_555
H21 C13 1_555 1_555
H22 C13 1_555 1_555
C14 C11 1_555 1_555
H23 C14 1_555 1_555
H24 C14 1_555 1_555
C15 C2 1_555 1_555
C16 H25 1_555 1_555
H26 C16 1_555 1_555
H27 C16 1_555 1_555
C17 O6 1_555 1_555
C18 O4 1_555 1_555
H28 C18 1_555 1_555
H29 C18 1_555 1_555
H30 C18 1_555 1_555
C1 C2 1_555 1_555
C1 C17 1_555 1_555
C7 C8 1_555 1_555
C13 C14 1_555 1_555

#END
