
#######################################################################
#
#                 Cambridge Crystallographic Data Centre
#                                CCDC 
#
#######################################################################
#
# If this CIF has been generated from an entry in the Cambridge 
# Structural Database, then it will include bibliographic, chemical, 
# crystal, experimental, refinement or atomic coordinate data resulting 
# from the CCDC's data processing and validation procedures.
#
#######################################################################

data_CEHGEB
_chemical_formula_moiety         'C12 H24 O6,2(C1 H3 N1 O1)'
_chemical_name_systematic        '18-Crown-6 bis(formamide)'
_symmetry_cell_setting           triclinic
_symmetry_space_group_name_H-M   'P -1'
_symmetry_Int_Tables_number      2
_space_group_name_Hall           '-P 1'
loop_
_symmetry_equiv_pos_site_id
_symmetry_equiv_pos_as_xyz
1 x,y,z
2 -x,-y,-z
_cell_length_a                   8.115(5)
_cell_length_b                   8.194(2)
_cell_length_c                   7.700(6)
_cell_angle_alpha                90.89(7)
_cell_angle_beta                 111.22(6)
_cell_angle_gamma                98.34(6)
_cell_volume                     470.957
_cell_formula_units_Z            1
loop_
_atom_site_label
_atom_site_type_symbol
_atom_site_fract_x
_atom_site_fract_y
_atom_site_fract_z
O1 O 0.03780 -0.18580 0.31160
C1 C 0.21800 -0.14670 0.44640
C2 C 0.26410 0.03580 0.49470
O2 O 0.29030 0.11260 0.34170
C3 C 0.32910 0.28850 0.36860
C4 C 0.35430 0.35980 0.20590
O3 O 0.18710 0.33020 0.05250
C5 C 0.19880 0.38570 -0.11540
C6 C -0.01760 -0.35800 0.25970
H1 H 0.22890 -0.19900 0.56120
H2 H 0.29860 -0.18850 0.38790
H3 H 0.16600 0.07760 0.52430
H4 H 0.37900 0.06640 0.60830
H5 H 0.22600 0.33020 0.38710
H6 H 0.44100 0.32950 0.48410
H7 H 0.40760 0.48170 0.24130
H8 H 0.43570 0.29930 0.16480
H9 H 0.25670 0.50650 -0.08750
H10 H 0.27240 0.31830 -0.16140
H11 H 0.06330 -0.40220 0.20310
H12 H -0.01430 -0.41380 0.37060
C6A C 0.01760 0.35800 -0.25970
C5A C -0.19880 -0.38570 0.11540
O1A O -0.03780 0.18580 -0.31160
H11A H -0.06330 0.40220 -0.20310
H12A H 0.01430 0.41380 -0.37060
O3A O -0.18710 -0.33020 -0.05250
H9A H -0.25670 -0.50650 0.08750
H10A H -0.27240 -0.31830 0.16140
C1A C -0.21800 0.14670 -0.44640
C4A C -0.35430 -0.35980 -0.20590
C2A C -0.26410 -0.03580 -0.49470
H1A H -0.22890 0.19900 -0.56120
H2A H -0.29860 0.18850 -0.38790
C3A C -0.32910 -0.28850 -0.36860
H7A H -0.40760 -0.48170 -0.24130
H8A H -0.43570 -0.29930 -0.16480
O2A O -0.29030 -0.11260 -0.34170
H3A H -0.16600 -0.07760 -0.52430
H4A H -0.37900 -0.06640 -0.60830
H5A H -0.22600 -0.33020 -0.38710
H6A H -0.44100 -0.32950 -0.48410
N1 N -0.11530 0.09860 0.09470
C7 C -0.28390 0.09600 0.02120
O4 O -0.37120 0.20270 -0.06380
H13 H -0.03150 0.19300 0.07920
H14 H -0.07770 0.01100 0.17500
H15 H -0.36010 -0.00660 0.03260
loop_
_geom_bond_atom_site_label_1
_geom_bond_atom_site_label_2
_geom_bond_site_symmetry_1
_geom_bond_site_symmetry_2
O1 C1 1_555 1_555
C1 C2 1_555 1_555
C2 O2 1_555 1_555
O2 C3 1_555 1_555
C3 C4 1_555 1_555
C4 O3 1_555 1_555
O3 C5 1_555 1_555
C5 H9 1_555 1_555
C6 O1 1_555 1_555
H1 C1 1_555 1_555
H2 C1 1_555 1_555
H3 C2 1_555 1_555
H4 C2 1_555 1_555
H5 C3 1_555 1_555
H6 C3 1_555 1_555
H7 C4 1_555 1_555
H8 C4 1_555 1_555
H10 C5 1_555 1_555
H11 C6 1_555 1_555
H12 C6 1_555 1_555
N1 C7 1_555 1_555
C7 O4 1_555 1_555
H13 N1 1_555 1_555
H14 N1 1_555 1_555
H15 C7 1_555 1_555
C6A C5 1_555 1_555
C5A C6 1_555 1_555
O1A C6A 1_555 1_555
H11A C6A 1_555 1_555
H12A C6A 1_555 1_555
O3A C5A 1_555 1_555
H9A C5A 1_555 1_555
H10A C5A 1_555 1_555
C1A O1A 1_555 1_555
C4A O3A 1_555 1_555
C2A C1A 1_555 1_555
H1A C1A 1_555 1_555
H2A C1A 1_555 1_555
C3A C4A 1_555 1_555
H7A C4A 1_555 1_555
H8A C4A 1_555 1_555
O2A C2A 1_555 1_555
H3A C2A 1_555 1_555
H4A C2A 1_555 1_555
H5A C3A 1_555 1_555
H6A C3A 1_555 1_555
C3A O2A 1_555 1_555

#END
