
#######################################################################
#
#                 Cambridge Crystallographic Data Centre
#                                CCDC 
#
#######################################################################
#
# If this CIF has been generated from an entry in the Cambridge 
# Structural Database, then it will include bibliographic, chemical, 
# crystal, experimental, refinement or atomic coordinate data resulting 
# from the CCDC's data processing and validation procedures.
#
#######################################################################

data_CEHJEG
_chemical_formula_moiety         'C21 H20 O6'
_chemical_name_systematic        
5-(2-Hydroxyethoxy)-7-(4-hydroxyphenyl)-1-methyl-7-phenyl-2,8-dioxabicyclo[4.2.0]oct-4-en-3-one
_symmetry_cell_setting           monoclinic
_symmetry_space_group_name_H-M   'P n'
_symmetry_Int_Tables_number      7
_space_group_name_Hall           'P -2yac'
loop_
_symmetry_equiv_pos_site_id
_symmetry_equiv_pos_as_xyz
1 x,y,z
2 1/2+x,-y,1/2+z
_cell_length_a                   13.125(4)
_cell_length_b                   10.342(3)
_cell_length_c                   13.398(4)
_cell_angle_alpha                90
_cell_angle_beta                 101.748(4)
_cell_angle_gamma                90
_cell_volume                     1780.53
_exptl_crystal_colour            colorless
_exptl_crystal_description       prism
_cell_formula_units_Z            4
loop_
_atom_site_label
_atom_site_type_symbol
_atom_site_fract_x
_atom_site_fract_y
_atom_site_fract_z
O1 O 0.6405(2) 0.5555(2) 0.0913(2)
O2 O 0.5667(2) 0.3759(3) 0.0286(2)
O3 O 0.4947(2) 0.5272(2) 0.3393(2)
O4 O 0.4747(2) 0.4002(3) 0.5250(2)
O5 O 0.5582(2) 0.7522(2) 0.1100(2)
O6 O 0.0861(2) 0.7754(3) 0.1501(2)
C1 C 0.5980(3) 0.6538(3) 0.2530(3)
C2 C 0.6409(3) 0.6660(4) 0.1548(3)
C3 C 0.5742(3) 0.4564(3) 0.0949(3)
C4 C 0.5216(3) 0.4476(4) 0.1797(3)
C5 C 0.5364(3) 0.5334(3) 0.2548(3)
C6 C 0.4254(3) 0.4209(4) 0.3438(3)
C7 C 0.3896(3) 0.4274(4) 0.4430(3)
C8 C 0.5274(3) 0.7726(4) 0.2087(3)
C9 C 0.4097(3) 0.7634(4) 0.1952(3)
C10 C 0.3587(3) 0.8148(4) 0.2691(3)
C11 C 0.2505(3) 0.8151(4) 0.2524(3)
C12 C 0.1923(3) 0.7650(4) 0.1629(3)
C13 C 0.2418(3) 0.7069(4) 0.0925(3)
C14 C 0.3504(3) 0.7086(4) 0.1090(3)
C15 C 0.5689(3) 0.9011(4) 0.2543(3)
C16 C 0.5927(3) 0.9211(4) 0.3592(3)
C17 C 0.6215(3) 1.0423(4) 0.3978(3)
C18 C 0.6286(3) 1.1453(4) 0.3334(3)
C19 C 0.6085(3) 1.1254(4) 0.2298(3)
C20 C 0.5785(3) 1.0037(4) 0.1897(3)
C21 C 0.7470(3) 0.7281(4) 0.1637(3)
H1 H 0.6471 0.6711 0.3140
H2 H 0.4749 0.3779 0.1816
H3 H 0.3671 0.4264 0.2887
H4 H 0.4609 0.3416 0.3396
H5 H 0.3359 0.3657 0.4426
H6 H 0.3638 0.5116 0.4515
H7 H 0.3983 0.8494 0.3307
H8 H 0.2165 0.8498 0.3026
H9 H 0.2022 0.6662 0.0337
H10 H 0.3841 0.6713 0.0594
H11 H 0.5891 0.8513 0.4043
H12 H 0.6367 1.0553 0.4695
H13 H 0.6473 1.2287 0.3608
H14 H 0.6150 1.1952 0.1854
H15 H 0.5646 0.9908 0.1180
H16 H 0.7935 0.6926 0.2207
H17 H 0.7415 0.8188 0.1727
H18 H 0.7725 0.7117 0.1034
H37 H 0.4948 0.4971 0.5558
H38 H 0.0599 0.7167 0.0954
O7 O 0.9478(2) 0.4909(2) 0.3113(2)
O8 O 0.7923(2) 0.4752(3) 0.3468(2)
O9 O 0.9871(2) 0.0917(2) 0.3413(2)
O10 O 1.0346(2) -0.1370(3) 0.4395(2)
O11 O 1.0162(2) 0.4182(2) 0.1725(2)
O12 O 0.7135(2) -0.0241(3) -0.0418(2)
C22 C 1.0532(3) 0.2876(4) 0.2993(3)
C23 C 1.0367(3) 0.4323(4) 0.2832(3)
C24 C 0.8691(3) 0.4170(4) 0.3351(3)
C25 C 0.8823(3) 0.2779(4) 0.3472(3)
C26 C 0.9676(3) 0.2181(4) 0.3332(3)
C27 C 0.9040(3) 0.0075(4) 0.3587(3)
C28 C 0.9445(3) -0.1270(4) 0.3575(3)
C29 C 1.0454(3) 0.2794(4) 0.1800(3)
C30 C 0.9588(3) 0.1984(4) 0.1184(3)
C31 C 0.8596(3) 0.2529(4) 0.0877(3)
C32 C 0.7775(3) 0.1800(4) 0.0327(3)
C33 C 0.7922(3) 0.0520(4) 0.0108(3)
C34 C 0.8905(3) -0.0051(4) 0.0423(3)
C35 C 0.9717(3) 0.0704(4) 0.0943(3)
C36 C 1.1496(3) 0.2579(4) 0.1494(3)
C37 C 1.1771(3) 0.3309(4) 0.0722(3)
C38 C 1.2698(3) 0.3061(4) 0.0403(3)
C39 C 1.3340(3) 0.2081(4) 0.0848(3)
C40 C 1.3082(3) 0.1346(4) 0.1628(3)
C41 C 1.2165(3) 0.1606(4) 0.1957(3)
C42 C 1.1265(3) 0.5213(4) 0.3190(3)
H19 H 1.1201 0.2658 0.3377
H20 H 0.8282 0.2283 0.3658
H21 H 0.8869 0.0262 0.4228
H22 H 0.8440 0.0185 0.3062
H23 H 0.9637 -0.1439 0.2941
H24 H 0.8925 -0.1869 0.3674
H25 H 0.8480 0.3401 0.1047
H26 H 0.7114 0.2190 0.0101
H27 H 0.9010 -0.0937 0.0287
H28 H 1.0388 0.0326 0.1137
H29 H 1.1323 0.3979 0.0408
H30 H 1.2887 0.3571 -0.0121
H31 H 1.3966 0.1903 0.0621
H32 H 1.3530 0.0673 0.1936
H33 H 1.1992 0.1116 0.2499
H34 H 1.1311 0.5812 0.2664
H35 H 1.1890 0.4726 0.3353
H36 H 1.1163 0.5668 0.3778
H39 H 0.6664 0.0418 -0.0593
H40 H 1.042(4) -0.206(5) 0.455(4)
loop_
_geom_bond_atom_site_label_1
_geom_bond_atom_site_label_2
_geom_bond_site_symmetry_1
_geom_bond_site_symmetry_2
O1 C2 1_555 1_555
O2 C3 1_555 1_555
O3 C5 1_555 1_555
O4 C7 1_555 1_555
O5 C2 1_555 1_555
O6 C12 1_555 1_555
O7 C23 1_555 1_555
O8 C24 1_555 1_555
O9 C26 1_555 1_555
O10 C28 1_555 1_555
O11 C23 1_555 1_555
O12 C33 1_555 1_555
C1 C2 1_555 1_555
C2 C21 1_555 1_555
C3 O1 1_555 1_555
C4 C3 1_555 1_555
C5 C1 1_555 1_555
C6 O3 1_555 1_555
C7 C6 1_555 1_555
C8 O5 1_555 1_555
C9 C8 1_555 1_555
C10 C9 1_555 1_555
C11 C10 1_555 1_555
C12 C11 1_555 1_555
C13 C12 1_555 1_555
C14 C9 1_555 1_555
C15 C8 1_555 1_555
C16 C15 1_555 1_555
C17 C16 1_555 1_555
C18 C17 1_555 1_555
C19 C18 1_555 1_555
C20 C15 1_555 1_555
C21 H16 1_555 1_555
C22 C23 1_555 1_555
C23 C42 1_555 1_555
C24 O7 1_555 1_555
C25 C24 1_555 1_555
C26 C22 1_555 1_555
C27 O9 1_555 1_555
C28 C27 1_555 1_555
C29 O11 1_555 1_555
C30 C29 1_555 1_555
C31 C30 1_555 1_555
C32 C31 1_555 1_555
C33 C32 1_555 1_555
C34 C33 1_555 1_555
C35 C30 1_555 1_555
C36 C29 1_555 1_555
C37 C36 1_555 1_555
C38 C37 1_555 1_555
C39 C38 1_555 1_555
C40 C39 1_555 1_555
C41 C36 1_555 1_555
C42 H34 1_555 1_555
H1 C1 1_555 1_555
H2 C4 1_555 1_555
H3 C6 1_555 1_555
H4 C6 1_555 1_555
H5 C7 1_555 1_555
H6 C7 1_555 1_555
H7 C10 1_555 1_555
H8 C11 1_555 1_555
H9 C13 1_555 1_555
H10 C14 1_555 1_555
H11 C16 1_555 1_555
H12 C17 1_555 1_555
H13 C18 1_555 1_555
H14 C19 1_555 1_555
H15 C20 1_555 1_555
H17 C21 1_555 1_555
H18 C21 1_555 1_555
H19 C22 1_555 1_555
H20 C25 1_555 1_555
H21 C27 1_555 1_555
H22 C27 1_555 1_555
H23 C28 1_555 1_555
H24 C28 1_555 1_555
H25 C31 1_555 1_555
H26 C32 1_555 1_555
H27 C34 1_555 1_555
H28 C35 1_555 1_555
H29 C37 1_555 1_555
H30 C38 1_555 1_555
H31 C39 1_555 1_555
H32 C40 1_555 1_555
H33 C41 1_555 1_555
H35 C42 1_555 1_555
H36 C42 1_555 1_555
H37 O4 1_555 1_555
H38 O6 1_555 1_555
H39 O12 1_555 1_555
H40 O10 1_555 1_555
C1 C8 1_555 1_555
C4 C5 1_555 1_555
C13 C14 1_555 1_555
C19 C20 1_555 1_555
C22 C29 1_555 1_555
C25 C26 1_555 1_555
C34 C35 1_555 1_555
C40 C41 1_555 1_555

#END
