
#######################################################################
#
#                 Cambridge Crystallographic Data Centre
#                                CCDC 
#
#######################################################################
#
# If this CIF has been generated from an entry in the Cambridge 
# Structural Database, then it will include bibliographic, chemical, 
# crystal, experimental, refinement or atomic coordinate data resulting 
# from the CCDC's data processing and validation procedures.
#
#######################################################################

data_CEHKOS
_chemical_formula_moiety         'C72 H48,x(I2)'
_chemical_name_systematic        '[12]cycloparaphenylene iodine solvate'
_symmetry_cell_setting           monoclinic
_symmetry_space_group_name_H-M   'P 21/c'
_symmetry_Int_Tables_number      14
_space_group_name_Hall           '-P 2ybc'
loop_
_symmetry_equiv_pos_site_id
_symmetry_equiv_pos_as_xyz
1 x,y,z
2 -x,1/2+y,1/2-z
3 -x,-y,-z
4 x,1/2-y,1/2+z
_cell_length_a                   19.222(7)
_cell_length_b                   8.379(3)
_cell_length_c                   20.941(7)
_cell_angle_alpha                90
_cell_angle_beta                 104.072(8)
_cell_angle_gamma                90
_cell_volume                     3271.57
_exptl_crystal_colour            red
_cell_formula_units_Z            2
_exptl_crystal_recrystallization_method chloroform
_exptl_crystal_preparation       ', conductivity'
loop_
_atom_site_label
_atom_site_type_symbol
_atom_site_fract_x
_atom_site_fract_y
_atom_site_fract_z
C1 C 0.4566(4) 0.5616(9) 0.0877(3)
C2 C 0.3454(5) 0.0832(10) 0.2896(4)
H1 H 0.3635 0.1616 0.3222
C3 C 0.4073(5) 0.3512(10) 0.2289(4)
H2 H 0.3870 0.3778 0.2646
C4 C 0.4582(4) 0.8377(10) 0.0549(4)
H3 H 0.4761 0.9427 0.0651
C5 C 0.4571(4) 0.4387(9) 0.1383(4)
C6 C 0.4779(4) 0.2842(9) 0.1327(4)
H4 H 0.5038 0.2585 0.1008
C7 C 0.2888(4) 1.0062(9) -0.1497(4)
H5 H 0.2684 0.9853 -0.1950
C8 C 0.3739(5) 0.9318(9) -0.0505(4)
C9 C 0.3448(5) 0.9130(9) -0.1163(4)
H6 H 0.3636 0.8334 -0.1396
C10 C 0.4151(4) 0.8085(9) -0.0068(4)
C11 C 0.4620(4) 0.1651(10) 0.1721(4)
H7 H 0.4810 0.0613 0.1697
C12 C 0.4212(5) 0.5290(10) 0.0236(4)
H8 H 0.4101 0.4211 0.0112
C13 C 0.4760(5) 0.7230(10) 0.1018(4)
H9 H 0.5021 0.7516 0.1449
C14 C 0.4017(5) 0.6444(9) -0.0226(4)
H10 H 0.3785 0.6152 -0.0664
C15 C 0.3764(5) 0.0678(10) 0.2382(4)
C16 C 0.4258(5) 0.4746(9) 0.1906(4)
H11 H 0.4170 0.5826 0.2000
C17 C 0.2606(5) 1.1322(10) -0.1187(4)
C18 C 0.4179(5) 0.1938(10) 0.2164(4)
C19 C 0.2889(5) -0.0103(10) 0.2964(4)
H12 H 0.2684 0.0101 0.3326
C20 C 0.1871(5) -0.1991(10) 0.2454(5)
C21 C 0.3518(5) 1.0683(10) -0.0197(5)
H13 H 0.3733 1.0922 0.0251
C22 C 0.1883(5) 1.1969(10) -0.1485(5)
C23 C 0.2975(5) 1.1667(9) -0.0568(5)
H14 H 0.2861 1.2624 -0.0372
C24 C 0.0410(6) 1.2610(11) -0.1972(6)
C25 C 0.0401(6) -0.2648(11) 0.2168(5)
C26 C 0.2981(6) -0.1649(11) 0.2051(5)
H15 H 0.2848 -0.2551 0.1773
C27 C 0.2605(5) -0.1307(9) 0.2541(4)
C28 C 0.3552(5) -0.0662(10) 0.1970(5)
H16 H 0.3794 -0.0902 0.1637
C29 C 0.0834(7) 1.2205(15) -0.2377(7)
H17 H 0.0633 1.2167 -0.2839
C30 C 0.1559(6) 1.1841(17) -0.2132(7)
H18 H 0.1832 1.1493 -0.2428
C31 C 0.0742(7) 1.2890(15) -0.1319(7)
H19 H 0.0470 1.3202 -0.1016
C32 C 0.0788(7) -0.3138(18) 0.1817(7)
H20 H 0.0568 -0.3786 0.1451
C33 C 0.1510(7) -0.1635(19) 0.2887(6)
H21 H 0.1750 -0.1192 0.3298
C34 C 0.0735(7) -0.1914(18) 0.2742(5)
H22 H 0.0467 -0.1586 0.3045
C35 C 0.1513(6) 1.2698(14) -0.1105(7)
H23 H 0.1760 1.3097 -0.0687
C36 C 0.1544(7) -0.2813(17) 0.1913(7)
H24 H 0.1801 -0.3166 0.1605
C1B C -0.4566(4) 0.4384(9) -0.0877(3)
C2B C -0.3454(5) 0.9168(10) -0.2896(4)
H1B H -0.3635 0.8384 -0.3222
C3B C -0.4073(5) 0.6488(10) -0.2289(4)
H2B H -0.3870 0.6222 -0.2646
C4B C -0.4582(4) 0.1623(10) -0.0549(4)
H3B H -0.4761 0.0573 -0.0651
C5B C -0.4571(4) 0.5613(9) -0.1383(4)
C6B C -0.4779(4) 0.7158(9) -0.1327(4)
H4B H -0.5038 0.7415 -0.1008
C7B C -0.2888(4) -0.0062(9) 0.1497(4)
H5B H -0.2684 0.0147 0.1950
C8B C -0.3739(5) 0.0682(9) 0.0505(4)
C9B C -0.3448(5) 0.0870(9) 0.1163(4)
H6B H -0.3636 0.1666 0.1396
C10B C -0.4151(4) 0.1915(9) 0.0068(4)
C11B C -0.4620(4) 0.8349(10) -0.1721(4)
H7B H -0.4810 0.9387 -0.1697
C12B C -0.4212(5) 0.4710(10) -0.0236(4)
H8B H -0.4101 0.5789 -0.0112
C13B C -0.4760(5) 0.2770(10) -0.1018(4)
H9B H -0.5021 0.2484 -0.1449
C14B C -0.4017(5) 0.3556(9) 0.0226(4)
H10B H -0.3785 0.3848 0.0664
C15B C -0.3764(5) 0.9322(10) -0.2382(4)
C16B C -0.4258(5) 0.5254(9) -0.1906(4)
H11B H -0.4170 0.4174 -0.2000
C17B C -0.2606(5) -0.1322(10) 0.1187(4)
C18B C -0.4179(5) 0.8062(10) -0.2164(4)
C19B C -0.2889(5) 1.0103(10) -0.2964(4)
H12B H -0.2684 0.9899 -0.3326
C20B C -0.1871(5) 1.1991(10) -0.2454(5)
C21B C -0.3518(5) -0.0683(10) 0.0197(5)
H13B H -0.3733 -0.0922 -0.0251
C22B C -0.1883(5) -0.1969(10) 0.1485(5)
C23B C -0.2975(5) -0.1667(9) 0.0568(5)
H14B H -0.2861 -0.2624 0.0372
C24B C -0.0410(6) -0.2610(11) 0.1972(6)
C25B C -0.0401(6) 1.2648(11) -0.2168(5)
C26B C -0.2981(6) 1.1649(11) -0.2051(5)
H15B H -0.2848 1.2551 -0.1773
C27B C -0.2605(5) 1.1307(9) -0.2541(4)
C28B C -0.3552(5) 1.0662(10) -0.1970(5)
H16B H -0.3794 1.0902 -0.1637
C29B C -0.0834(7) -0.2205(15) 0.2377(7)
H17B H -0.0633 -0.2167 0.2839
C30B C -0.1559(6) -0.1841(17) 0.2132(7)
H18B H -0.1832 -0.1493 0.2428
C31B C -0.0742(7) -0.2890(15) 0.1319(7)
H19B H -0.0470 -0.3202 0.1016
C32B C -0.0788(7) 1.3138(18) -0.1817(7)
H20B H -0.0568 1.3786 -0.1451
C33B C -0.1510(7) 1.1635(19) -0.2887(6)
H21B H -0.1750 1.1192 -0.3298
C34B C -0.0735(7) 1.1914(18) -0.2742(5)
H22B H -0.0467 1.1586 -0.3045
C35B C -0.1513(6) -0.2698(14) 0.1105(7)
H23B H -0.1760 -0.3097 0.0687
C36B C -0.1544(7) 1.2813(17) -0.1913(7)
H24B H -0.1801 1.3166 -0.1605
loop_
_geom_bond_atom_site_label_1
_geom_bond_atom_site_label_2
_geom_bond_site_symmetry_1
_geom_bond_site_symmetry_2
C1 C5 1_555 1_555
C2 H1 1_555 1_555
C3 H2 1_555 1_555
C4 H3 1_555 1_555
C5 C6 1_555 1_555
C6 H4 1_555 1_555
C7 H5 1_555 1_555
C8 C9 1_555 1_555
C9 C7 1_555 1_555
H6 C9 1_555 1_555
C10 C4 1_555 1_555
C11 C6 1_555 1_555
H7 C11 1_555 1_555
C12 C1 1_555 1_555
H8 C12 1_555 1_555
C13 C1 1_555 1_555
H9 C13 1_555 1_555
C14 C10 1_555 1_555
H10 C14 1_555 1_555
C15 C2 1_555 1_555
C16 C3 1_555 1_555
H11 C16 1_555 1_555
C17 C7 1_555 1_555
C18 C3 1_555 1_555
C19 C2 1_555 1_555
H12 C19 1_555 1_555
C20 C27 1_555 1_555
C21 C8 1_555 1_555
H13 C21 1_555 1_555
C22 C17 1_555 1_555
C23 C17 1_555 1_555
H14 C23 1_555 1_555
C24 C29 1_555 1_555
C25 C32 1_555 1_555
C26 H15 1_555 1_555
C27 C19 1_555 1_555
C28 C15 1_555 1_555
H16 C28 1_555 1_555
C29 H17 1_555 1_555
C30 C22 1_555 1_555
H18 C30 1_555 1_555
C31 C24 1_555 1_555
H19 C31 1_555 1_555
C32 H20 1_555 1_555
C33 C20 1_555 1_555
H21 C33 1_555 1_555
C34 C25 1_555 1_555
H22 C34 1_555 1_555
C35 C22 1_555 1_555
H23 C35 1_555 1_555
C36 C20 1_555 1_555
H24 C36 1_555 1_555
C1B C5B 1_555 1_555
C2B H1B 1_555 1_555
C3B H2B 1_555 1_555
C4B H3B 1_555 1_555
C5B C6B 1_555 1_555
C6B H4B 1_555 1_555
C7B H5B 1_555 1_555
C8B C9B 1_555 1_555
C9B C7B 1_555 1_555
H6B C9B 1_555 1_555
C10B C4B 1_555 1_555
C11B C6B 1_555 1_555
H7B C11B 1_555 1_555
C12B C1B 1_555 1_555
H8B C12B 1_555 1_555
C13B C1B 1_555 1_555
H9B C13B 1_555 1_555
C14B C10B 1_555 1_555
H10B C14B 1_555 1_555
C15B C2B 1_555 1_555
C16B C3B 1_555 1_555
H11B C16B 1_555 1_555
C17B C7B 1_555 1_555
C18B C3B 1_555 1_555
C19B C2B 1_555 1_555
H12B C19B 1_555 1_555
C20B C27B 1_555 1_555
C21B C8B 1_555 1_555
H13B C21B 1_555 1_555
C22B C17B 1_555 1_555
C23B C17B 1_555 1_555
H14B C23B 1_555 1_555
C24B C25 1_555 1_555
C25B C24 1_555 1_555
C26B H15B 1_555 1_555
C27B C19B 1_555 1_555
C28B C15B 1_555 1_555
H16B C28B 1_555 1_555
C29B C24B 1_555 1_555
H17B C29B 1_555 1_555
C30B C22B 1_555 1_555
H18B C30B 1_555 1_555
C31B C24B 1_555 1_555
H19B C31B 1_555 1_555
C32B C25B 1_555 1_555
H20B C32B 1_555 1_555
C33B C20B 1_555 1_555
H21B C33B 1_555 1_555
C34B C25B 1_555 1_555
H22B C34B 1_555 1_555
C35B C22B 1_555 1_555
H23B C35B 1_555 1_555
C36B C20B 1_555 1_555
H24B C36B 1_555 1_555
C4 C13 1_555 1_555
C5 C16 1_555 1_555
C8 C10 1_555 1_555
C11 C18 1_555 1_555
C12 C14 1_555 1_555
C15 C18 1_555 1_555
C21 C23 1_555 1_555
C26 C27 1_555 1_555
C26 C28 1_555 1_555
C29 C30 1_555 1_555
C31 C35 1_555 1_555
C32 C36 1_555 1_555
C33 C34 1_555 1_555
C4B C13B 1_555 1_555
C5B C16B 1_555 1_555
C8B C10B 1_555 1_555
C11B C18B 1_555 1_555
C12B C14B 1_555 1_555
C15B C18B 1_555 1_555
C21B C23B 1_555 1_555
C26B C27B 1_555 1_555
C26B C28B 1_555 1_555
C29B C30B 1_555 1_555
C31B C35B 1_555 1_555
C32B C36B 1_555 1_555
C33B C34B 1_555 1_555

#END
