
#######################################################################
#
#                 Cambridge Crystallographic Data Centre
#                                CCDC 
#
#######################################################################
#
# If this CIF has been generated from an entry in the Cambridge 
# Structural Database, then it will include bibliographic, chemical, 
# crystal, experimental, refinement or atomic coordinate data resulting 
# from the CCDC's data processing and validation procedures.
#
#######################################################################

data_CEHLEG
_chemical_name_common            "3',4'-Dihydroxynomifensine methiodide"
_chemical_formula_moiety         'C17 H21 N2 O2 1+,I1 1-'
_chemical_name_systematic        
'(-)-8-Amino-1,2,3,4-tetrahydro-4-(3,4-dihydroxyphenyl)-2-methylisoquinoline methiodide'
_chemical_properties_biological  'dopamine receptor agonist activity'
_symmetry_cell_setting           orthorhombic
_symmetry_space_group_name_H-M   'P 21 21 21'
_symmetry_Int_Tables_number      19
_space_group_name_Hall           'P 2ac 2ab'
loop_
_symmetry_equiv_pos_site_id
_symmetry_equiv_pos_as_xyz
1 x,y,z
2 1/2+x,1/2-y,-z
3 -x,1/2+y,1/2-z
4 1/2-x,-y,1/2+z
_cell_length_a                   9.301(1)
_cell_length_b                   10.834(1)
_cell_length_c                   16.829(2)
_cell_angle_alpha                90
_cell_angle_beta                 90
_cell_angle_gamma                90
_cell_volume                     1695.81
_exptl_crystal_colour            colorless
_chemical_melting_point          249-54deg.C
_cell_formula_units_Z            4
loop_
_atom_site_label
_atom_site_type_symbol
_atom_site_fract_x
_atom_site_fract_y
_atom_site_fract_z
I1 I 0.42081 0.31987 0.34295
O1 O 0.20830 0.81540 0.13000
O2 O -0.06420 0.83930 0.08720
N1 N 0.17100 0.15540 0.15200
N2 N 0.05400 -0.00900 -0.06820
C1 C 0.11880 0.09320 0.22530
C2 C 0.33160 0.13660 0.14560
C3 C 0.09580 0.10140 0.08250
C4 C 0.12610 0.17160 0.00680
C5 C 0.10790 0.10940 -0.06550
C6 C 0.14220 0.17100 -0.13520
C7 C 0.18830 0.29130 -0.13330
C8 C 0.20140 0.35800 -0.06250
C9 C 0.16930 0.29520 0.00880
C10 C 0.19040 0.36310 0.08710
C11 C 0.13440 0.29170 0.15720
C12 C 0.12070 0.49050 0.08670
C13 C 0.19790 0.59530 0.10800
C14 C 0.13510 0.71100 0.10850
C15 C -0.00790 0.72580 0.08790
C16 C -0.08520 0.62120 0.06670
C17 C -0.02220 0.50490 0.06670
H1 H 0.31200 0.82300 0.12100
H2 H -0.14500 0.84800 0.08800
H3 H 0.09900 -0.04500 -0.12300
H4 H 0.04100 -0.04800 -0.02700
H5 H 0.02800 0.08200 0.22700
H6 H 0.12000 0.01600 0.22300
H7 H 0.14900 0.12800 0.27200
H8 H 0.38800 0.17200 0.09700
H9 H 0.38600 0.20000 0.18000
H10 H 0.34300 0.04900 0.13300
H11 H -0.00600 0.10600 0.09400
H12 H 0.14000 0.02700 0.07100
H13 H 0.12600 0.13600 -0.18100
H14 H 0.20500 0.33500 -0.17800
H15 H 0.23800 0.45300 -0.05900
H16 H 0.27700 0.38500 0.09600
H17 H 0.17800 0.33200 0.20700
H18 H 0.03700 0.28900 0.16200
H19 H 0.28600 0.58100 0.13100
H20 H -0.15300 0.63200 0.05400
H21 H -0.07000 0.45500 0.06800
loop_
_geom_bond_atom_site_label_1
_geom_bond_atom_site_label_2
_geom_bond_site_symmetry_1
_geom_bond_site_symmetry_2
O1 C14 1_555 1_555
O2 C15 1_555 1_555
N1 C1 1_555 1_555
N2 C5 1_555 1_555
C1 H5 1_555 1_555
C2 N1 1_555 1_555
C3 N1 1_555 1_555
C4 C3 1_555 1_555
C5 C4 1_555 1_555
C6 C5 1_555 1_555
C7 C6 1_555 1_555
C8 C7 1_555 1_555
C9 C4 1_555 1_555
C10 C9 1_555 1_555
C11 N1 1_555 1_555
C12 C10 1_555 1_555
C13 C12 1_555 1_555
C14 C13 1_555 1_555
C15 C14 1_555 1_555
C16 C15 1_555 1_555
C17 C12 1_555 1_555
H1 O1 1_555 1_555
H2 O2 1_555 1_555
H3 N2 1_555 1_555
H4 N2 1_555 1_555
H6 C1 1_555 1_555
H7 C1 1_555 1_555
H8 C2 1_555 1_555
H9 C2 1_555 1_555
H10 C2 1_555 1_555
H11 C3 1_555 1_555
H12 C3 1_555 1_555
H13 C6 1_555 1_555
H14 C7 1_555 1_555
H15 C8 1_555 1_555
H16 C10 1_555 1_555
H17 C11 1_555 1_555
H18 C11 1_555 1_555
H19 C13 1_555 1_555
H20 C16 1_555 1_555
H21 C17 1_555 1_555
C8 C9 1_555 1_555
C10 C11 1_555 1_555
C16 C17 1_555 1_555

#END
