
#######################################################################
#
#                 Cambridge Crystallographic Data Centre
#                                CCDC 
#
#######################################################################
#
# If this CIF has been generated from an entry in the Cambridge 
# Structural Database, then it will include bibliographic, chemical, 
# crystal, experimental, refinement or atomic coordinate data resulting 
# from the CCDC's data processing and validation procedures.
#
#######################################################################

data_CEHLUY
_chemical_formula_moiety         'C15 H12 N4 O2 S1'
_chemical_name_systematic        
'4-(((1-Phenyl-1H-tetrazol-5-yl)sulfanyl)methyl)benzoic acid'
_symmetry_cell_setting           monoclinic
_symmetry_space_group_name_H-M   'C 2/c'
_symmetry_Int_Tables_number      15
_space_group_name_Hall           '-C 2yn'
loop_
_symmetry_equiv_pos_site_id
_symmetry_equiv_pos_as_xyz
1 x,y,z
2 -x,y,1/2-z
3 1/2+x,1/2+y,z
4 1/2-x,1/2+y,1/2-z
5 -x,-y,-z
6 x,-y,1/2+z
7 1/2-x,1/2-y,-z
8 1/2+x,1/2-y,1/2+z
_cell_length_a                   53.553(3)
_cell_length_b                   4.5614(5)
_cell_length_c                   12.0428(14)
_cell_angle_alpha                90
_cell_angle_beta                 98.4190(10)
_cell_angle_gamma                90
_cell_volume                     2910.07
_exptl_crystal_colour            colorless
_exptl_crystal_description       block
_cell_formula_units_Z            8
loop_
_atom_site_label
_atom_site_type_symbol
_atom_site_fract_x
_atom_site_fract_y
_atom_site_fract_z
S1 S 0.129158(10) -0.04258(15) 0.26524(5)
O1 O 0.00707(3) 0.7960(4) 0.12954(12)
O2 O 0.02309(3) 0.7925(4) -0.03064(12)
N1 N 0.11663(4) 0.2654(5) 0.44644(17)
N2 N 0.12992(5) 0.4283(6) 0.53017(18)
N3 N 0.15358(4) 0.4442(5) 0.51959(17)
N4 N 0.15607(3) 0.2866(5) 0.42605(16)
C1 C 0.02312(4) 0.7043(5) 0.06562(19)
H1 H -0.0034 0.9481 0.0936
C2 C 0.04154(3) 0.4840(5) 0.11715(16)
C3 C 0.04162(4) 0.3858(5) 0.22568(18)
H2 H 0.0296 0.4556 0.2677
C4 C 0.05941(4) 0.1844(5) 0.27226(18)
H3 H 0.0593 0.1194 0.3453
C5 C 0.07741(4) 0.0789(5) 0.21133(18)
C6 C 0.07723(4) 0.1758(5) 0.10251(18)
H4 H 0.0892 0.1047 0.0605
C7 C 0.05958(4) 0.3764(5) 0.05557(17)
H5 H 0.0597 0.4402 -0.0177
C8 C 0.09638(4) -0.1477(5) 0.26133(18)
H6 H 0.0934 -0.3274 0.2183
H7 H 0.0934 -0.1896 0.3373
C9 C 0.13334(4) 0.1792(5) 0.38282(18)
C10 C 0.18005(4) 0.2478(6) 0.3890(2)
C11 C 0.19864(6) 0.1085(8) 0.4596(3)
H8 H 0.1958 0.0420 0.5297
C12 C 0.22191(7) 0.0694(11) 0.4235(4)
H9 H 0.2348 -0.0255 0.4698
C13 C 0.22598(7) 0.1682(11) 0.3213(5)
H10 H 0.2417 0.1430 0.2985
C14 C 0.20719(6) 0.3037(9) 0.2523(3)
H11 H 0.2100 0.3680 0.1818
C15 C 0.18387(5) 0.3465(7) 0.2866(2)
H12 H 0.1710 0.4417 0.2400
loop_
_geom_bond_atom_site_label_1
_geom_bond_atom_site_label_2
_geom_bond_site_symmetry_1
_geom_bond_site_symmetry_2
S1 C8 1_555 1_555
O1 C1 1_555 1_555
O2 C1 1_555 1_555
N1 N2 1_555 1_555
N2 N3 1_555 1_555
N3 N4 1_555 1_555
N4 C9 1_555 1_555
C1 C2 1_555 1_555
H1 O1 1_555 1_555
C2 C3 1_555 1_555
C3 H2 1_555 1_555
C4 C3 1_555 1_555
H3 C4 1_555 1_555
C5 C4 1_555 1_555
C6 C5 1_555 1_555
H4 C6 1_555 1_555
C7 C2 1_555 1_555
H5 C7 1_555 1_555
C8 C5 1_555 1_555
H6 C8 1_555 1_555
H7 C8 1_555 1_555
C9 S1 1_555 1_555
C10 N4 1_555 1_555
C11 C10 1_555 1_555
H8 C11 1_555 1_555
C12 C11 1_555 1_555
H9 C12 1_555 1_555
C13 C12 1_555 1_555
H10 C13 1_555 1_555
C14 C13 1_555 1_555
H11 C14 1_555 1_555
C15 C10 1_555 1_555
H12 C15 1_555 1_555
N1 C9 1_555 1_555
C6 C7 1_555 1_555
C14 C15 1_555 1_555

#END
