
#######################################################################
#
#                 Cambridge Crystallographic Data Centre
#                                CCDC 
#
#######################################################################
#
# If this CIF has been generated from an entry in the Cambridge 
# Structural Database, then it will include bibliographic, chemical, 
# crystal, experimental, refinement or atomic coordinate data resulting 
# from the CCDC's data processing and validation procedures.
#
#######################################################################

data_CEHNIO
_chemical_formula_moiety         'C19 H22 N1 O5 P1'
_chemical_name_systematic        
'1-Benzyl-2-oxo-2,3-dihydro-1H-indol-3-yl diethyl phosphate'
_symmetry_cell_setting           triclinic
_symmetry_space_group_name_H-M   'P -1'
_symmetry_Int_Tables_number      2
_space_group_name_Hall           '-P 1'
loop_
_symmetry_equiv_pos_site_id
_symmetry_equiv_pos_as_xyz
1 x,y,z
2 -x,-y,-z
_cell_length_a                   8.9013(4)
_cell_length_b                   11.0398(6)
_cell_length_c                   11.1039(7)
_cell_angle_alpha                96.881(5)
_cell_angle_beta                 113.619(5)
_cell_angle_gamma                105.452(5)
_cell_volume                     931.371
_exptl_crystal_colour            colorless
_cell_formula_units_Z            2
loop_
_atom_site_label
_atom_site_type_symbol
_atom_site_fract_x
_atom_site_fract_y
_atom_site_fract_z
P1 P 0.53247(7) 0.77604(5) 0.12890(5)
O1 O 0.68448(19) 1.14669(15) 0.33845(17)
O2 O 0.67965(17) 0.91345(13) 0.17023(13)
O3 O 0.57855(19) 0.69715(14) 0.22472(15)
O4 O 0.36143(17) 0.80208(13) 0.10808(14)
O5 O 0.49728(19) 0.72134(15) -0.01994(15)
N1 N 0.97858(19) 1.19388(15) 0.40421(16)
C1 C 0.8083(3) 1.11366(19) 0.35029(19)
C2 C 0.8038(2) 0.97433(18) 0.31086(18)
H1 H 0.7734 0.9237 0.3697
C3 C 0.9875(2) 0.99250(18) 0.33602(18)
C4 C 1.0662(3) 0.9046(2) 0.3172(2)
H2 H 1.0025 0.8160 0.2832
C5 C 1.2424(3) 0.9513(2) 0.3502(2)
H3 H 1.2971 0.8934 0.3373
C6 C 1.3373(3) 1.0823(2) 0.4016(2)
H4 H 1.4550 1.1115 0.4221
C7 C 1.2604(2) 1.1721(2) 0.4236(2)
H5 H 1.3247 1.2605 0.4593
C8 C 1.0853(2) 1.12411(18) 0.39011(17)
C9 C 1.0412(3) 1.33220(19) 0.4711(2)
H6 H 1.1518 1.3537 0.5513
H7 H 0.9584 1.3492 0.5007
C10 C 1.0655(3) 1.41909(18) 0.3799(2)
C11 C 1.2285(3) 1.5043(2) 0.4088(2)
H8 H 1.3261 1.5095 0.4866
C12 C 1.2472(3) 1.5819(2) 0.3229(3)
H9 H 1.3573 1.6386 0.3431
C13 C 1.1044(4) 1.5754(2) 0.2086(3)
H10 H 1.1174 1.6271 0.1507
C14 C 0.9421(3) 1.4925(2) 0.1794(2)
H11 H 0.8449 1.4884 0.1018
C15 C 0.9226(3) 1.4148(2) 0.2652(2)
H12 H 0.8120 1.3593 0.2451
C16 C 0.3068(3) 0.8942(2) 0.0308(2)
H13 H 0.3329 0.8876 -0.0461
H14 H 0.3699 0.9823 0.0881
C17 C 0.1149(3) 0.8635(3) -0.0181(2)
H15 H 0.0534 0.7762 -0.0746
H16 H 0.0777 0.9229 -0.0697
H17 H 0.0903 0.8717 0.0585
C18 C 0.6079(15) 0.6609(9) -0.0514(13)
H18 H 0.5938 0.5784 -0.0274
H19 H 0.7293 0.7163 0.0022
C19 C 0.5632(12) 0.6395(8) -0.1960(10)
H20 H 0.4733 0.5562 -0.2450
H21 H 0.6650 0.6418 -0.2078
H22 H 0.5222 0.7064 -0.2300
C20? C 0.6484(14) 0.7138(9) -0.0462(13)
C21? C 0.6205(13) 0.6931(10) -0.1682(11)
H23? H 0.7453 0.7950 0.0042
H24? H 0.6848 0.6452 -0.0098
H25? H 0.6894 0.6441 -0.1817
H26? H 0.6518 0.7745 -0.1904
H27? H 0.4988 0.6448 -0.2259
loop_
_geom_bond_atom_site_label_1
_geom_bond_atom_site_label_2
_geom_bond_site_symmetry_1
_geom_bond_site_symmetry_2
P1 O2 1_555 1_555
O1 C1 1_555 1_555
O2 C2 1_555 1_555
O3 P1 1_555 1_555
O4 P1 1_555 1_555
O5 P1 1_555 1_555
N1 C1 1_555 1_555
C1 C2 1_555 1_555
C2 H1 1_555 1_555
C3 C2 1_555 1_555
C4 C3 1_555 1_555
H2 C4 1_555 1_555
C5 C4 1_555 1_555
H3 C5 1_555 1_555
C6 C5 1_555 1_555
H4 C6 1_555 1_555
C7 C6 1_555 1_555
H5 C7 1_555 1_555
C8 N1 1_555 1_555
C9 N1 1_555 1_555
H6 C9 1_555 1_555
H7 C9 1_555 1_555
C10 C9 1_555 1_555
C11 C10 1_555 1_555
H8 C11 1_555 1_555
C12 C11 1_555 1_555
H9 C12 1_555 1_555
C13 C12 1_555 1_555
H10 C13 1_555 1_555
C14 C13 1_555 1_555
H11 C14 1_555 1_555
C15 C10 1_555 1_555
H12 C15 1_555 1_555
C16 O4 1_555 1_555
H13 C16 1_555 1_555
H14 C16 1_555 1_555
C17 C16 1_555 1_555
H15 C17 1_555 1_555
H16 C17 1_555 1_555
H17 C17 1_555 1_555
C18 O5 1_555 1_555
H18 C18 1_555 1_555
H19 C18 1_555 1_555
C19 C18 1_555 1_555
H20 C19 1_555 1_555
H21 C19 1_555 1_555
H22 C19 1_555 1_555
C3 C8 1_555 1_555
C7 C8 1_555 1_555
C14 C15 1_555 1_555

#END
