
#######################################################################
#
#                 Cambridge Crystallographic Data Centre
#                                CCDC 
#
#######################################################################
#
# If this CIF has been generated from an entry in the Cambridge 
# Structural Database, then it will include bibliographic, chemical, 
# crystal, experimental, refinement or atomic coordinate data resulting 
# from the CCDC's data processing and validation procedures.
#
#######################################################################

data_CEHPEN
_chemical_formula_moiety         'C100 H96 N4 O8,2(C2 H6 O1)'
_chemical_name_systematic        
'22,47-bis{bis[4-(pentoxy)phenyl]methylidene}-9,10,34,35-tetra-azanonacyclo[46.2.2.2^18,21^.2^23,26^.2^43,46^.0^2,7^.0^12,17^.0^27,32^.0^37,42^]octapentaconta-1(50),2,4,6,12,14,16,18,20,23,25,27,29,31,37,39,41,43,45,48,51,53,55,57-tetracosaene-8,11,33,36-tetrone ethanol unknown solvate'
_symmetry_cell_setting           monoclinic
_symmetry_space_group_name_H-M   'C 2/c'
_symmetry_Int_Tables_number      15
_space_group_name_Hall           '-C 2yn'
loop_
_symmetry_equiv_pos_site_id
_symmetry_equiv_pos_as_xyz
1 x,y,z
2 -x,y,1/2-z
3 1/2+x,1/2+y,z
4 1/2-x,1/2+y,1/2-z
5 -x,-y,-z
6 x,-y,1/2+z
7 1/2-x,1/2-y,-z
8 1/2+x,1/2-y,1/2+z
_cell_length_a                   38.906(10)
_cell_length_b                   9.493(2)
_cell_length_c                   27.486(7)
_cell_angle_alpha                90
_cell_angle_beta                 102.749(5)
_cell_angle_gamma                90
_cell_volume                     9901.26
_exptl_crystal_colour            colorless
_exptl_crystal_description       block
_chemical_melting_point          '282-283 deg.C'
_cell_formula_units_Z            4
_chemical_properties_physical    ', Efflorescent'
_exptl_crystal_recrystallization_method 'chloroform and ethanol'
_exptl_crystal_preparation       ', Luminescent'
loop_
_atom_site_label
_atom_site_type_symbol
_atom_site_fract_x
_atom_site_fract_y
_atom_site_fract_z
O1 O -0.03239(5) 0.1015(2) 0.43781(8)
O2 O -0.01818(5) 0.3097(2) 0.12702(8)
O3 O -0.20675(6) 0.9742(2) 0.15865(8)
O4 O -0.19607(7) 0.3865(5) 0.44278(10)
N1 N 0.01945(6) 0.0549(2) 0.41763(10)
H1 H 0.0315 -0.0037 0.4030
N2 N -0.03611(6) 0.1735(2) 0.05812(10)
H2 H -0.0477 0.1686 0.0268
C1 C -0.01425(7) 0.0290(3) 0.41629(10)
C2 C -0.02840(7) -0.1016(2) 0.38744(10)
C3 C -0.01136(7) -0.2303(3) 0.40144(11)
H3 H 0.0096 -0.2323 0.4268
C4 C -0.02496(8) -0.3545(3) 0.37847(12)
H4 H -0.0132 -0.4414 0.3877
C5 C -0.05541(8) -0.3510(3) 0.34244(11)
H5 H -0.0650 -0.4364 0.3271
C6 C -0.07255(7) -0.2246(3) 0.32791(11)
H6 H -0.0936 -0.2247 0.3027
C7 C -0.05921(7) -0.0970(3) 0.34983(10)
C8 C -0.07641(7) 0.0374(3) 0.32917(10)
C9 C -0.11286(7) 0.0520(3) 0.31852(11)
H7 H -0.1269 -0.0210 0.3277
C10 C -0.12906(7) 0.1717(3) 0.29467(10)
H8 H -0.1540 0.1807 0.2886
C11 C -0.10921(7) 0.2786(3) 0.27962(10)
C12 C -0.07272(7) 0.2632(3) 0.29025(11)
H9 H -0.0587 0.3345 0.2801
C13 C -0.05641(7) 0.1456(3) 0.31543(10)
H10 H -0.0314 0.1392 0.3233
C14 C -0.12538(7) 0.4057(3) 0.25109(10)
C15 C -0.11165(7) 0.4351(3) 0.20568(10)
C16 C -0.09428(8) 0.5603(3) 0.19970(11)
H11 H -0.0911 0.6296 0.2252
C17 C -0.08158(8) 0.5854(3) 0.15732(11)
H12 H -0.0705 0.6728 0.1539
C18 C -0.08472(7) 0.4851(3) 0.11954(10)
C19 C -0.10173(8) 0.3597(3) 0.12560(11)
H13 H -0.1043 0.2892 0.1005
C20 C -0.11494(8) 0.3360(3) 0.16755(11)
H14 H -0.1266 0.2496 0.1705
C21 C -0.07190(7) 0.5151(3) 0.07338(10)
C22 C -0.08175(7) 0.6402(3) 0.04770(11)
H15 H -0.0958 0.7060 0.0608
C23 C -0.07176(7) 0.6717(3) 0.00376(11)
H16 H -0.0780 0.7595 -0.0123
C24 C -0.05249(8) 0.5741(3) -0.01668(12)
H17 H -0.0463 0.5930 -0.0476
C25 C -0.04227(7) 0.4487(3) 0.00822(11)
H18 H -0.0290 0.3820 -0.0057
C26 C -0.05129(7) 0.4195(3) 0.05351(10)
C27 C -0.03417(7) 0.2970(3) 0.08363(11)
C28 C -0.14950(7) 0.4873(3) 0.26598(11)
C29 C -0.16632(7) 0.6122(3) 0.23724(10)
C30 C -0.17739(8) 0.6156(3) 0.18559(11)
H19 H -0.1750 0.5331 0.1670
C31 C -0.19162(8) 0.7345(3) 0.16059(12)
H20 H -0.1997 0.7323 0.1254
C32 C -0.19423(7) 0.8591(3) 0.18692(11)
C33 C -0.18475(7) 0.8575(3) 0.23806(12)
H21 H -0.1874 0.9400 0.2565
C34 C -0.17122(7) 0.7347(3) 0.26305(12)
H22 H -0.1652 0.7344 0.2985
C35 C -0.21428(9) 1.0987(3) 0.18368(13)
H23 H -0.1922 1.1383 0.2041
H24 H -0.2303 1.0761 0.2060
C36 C -0.23131(10) 1.2034(4) 0.14495(15)
H25 H -0.2498 1.1549 0.1201
H26 H -0.2134 1.2387 0.1274
C37 C -0.24771(11) 1.3277(4) 0.16572(17)
H27 H -0.2652 1.2922 0.1841
H28 H -0.2291 1.3777 0.1899
C38 C -0.26552(15) 1.4304(5) 0.1273(2)
H29 H -0.2475 1.4729 0.1115
H30 H -0.2822 1.3779 0.1011
C39 C -0.28491(17) 1.5444(6) 0.1452(3)
H31 H -0.2939 1.6101 0.1179
H32 H -0.2691 1.5946 0.1724
H33 H -0.3047 1.5049 0.1574
C40 C -0.16061(7) 0.4612(3) 0.31388(11)
C41 C -0.19573(8) 0.4400(3) 0.31369(12)
H34 H -0.2127 0.4437 0.2830
C42 C -0.20660(9) 0.4137(4) 0.35706(13)
H35 H -0.2308 0.3955 0.3560
C43 C -0.18260(9) 0.4136(4) 0.40224(13)
C44 C -0.14757(9) 0.4367(4) 0.40310(13)
H36 H -0.1307 0.4364 0.4339
C45 C -0.13699(8) 0.4600(4) 0.35936(12)
H37 H -0.1127 0.4759 0.3604
C46 C -0.17269(16) 0.3905(9) 0.49042(18)
H38 H -0.1611 0.4838 0.4960
H39 H -0.1542 0.3176 0.4926
C47 C -0.1935(2) 0.3642(10) 0.5282(2)
H40 H -0.2151 0.4229 0.5218
H41 H -0.1795 0.3849 0.5621
C48 C -0.2030(3) 0.2047(12) 0.5225(3)
H42 H -0.2216 0.1850 0.5411
H43 H -0.2130 0.1847 0.4869
C49 C -0.1723(3) 0.1036(14) 0.5411(4)
H44 H -0.1599 0.1241 0.5759
H45 H -0.1551 0.1043 0.5193
C50 C -0.1962(4) -0.0563(15) 0.5363(5)
H46 H -0.1826 -0.1314 0.5249
H47 H -0.2188 -0.0449 0.5124
H48 H -0.2006 -0.0812 0.5691
O1A O 0.03239(5) 0.1015(2) 0.06219(8)
O2A O 0.01818(5) 0.3097(2) 0.37298(8)
O3A O 0.20675(6) 0.9742(2) 0.34135(8)
O4A O 0.19607(7) 0.3865(5) 0.05722(10)
N1A N -0.01945(6) 0.0549(2) 0.08237(10)
H1A H -0.0315 -0.0037 0.0970
N2A N 0.03611(6) 0.1735(2) 0.44188(10)
H2A H 0.0477 0.1686 0.4732
C1A C 0.01425(7) 0.0290(3) 0.08371(10)
C2A C 0.02840(7) -0.1016(2) 0.11256(10)
C3A C 0.01136(7) -0.2303(3) 0.09856(11)
H3A H -0.0096 -0.2323 0.0732
C4A C 0.02496(8) -0.3545(3) 0.12153(12)
H4A H 0.0132 -0.4414 0.1123
C5A C 0.05541(8) -0.3510(3) 0.15756(11)
H5A H 0.0650 -0.4364 0.1729
C6A C 0.07255(7) -0.2246(3) 0.17209(11)
H6A H 0.0936 -0.2247 0.1973
C7A C 0.05921(7) -0.0970(3) 0.15017(10)
C8A C 0.07641(7) 0.0374(3) 0.17083(10)
C9A C 0.11286(7) 0.0520(3) 0.18148(11)
H7A H 0.1269 -0.0210 0.1723
C10A C 0.12906(7) 0.1717(3) 0.20533(10)
H8A H 0.1540 0.1807 0.2114
C11A C 0.10921(7) 0.2786(3) 0.22038(10)
C12A C 0.07272(7) 0.2632(3) 0.20975(11)
H9A H 0.0587 0.3345 0.2199
C13A C 0.05641(7) 0.1456(3) 0.18457(10)
H10A H 0.0314 0.1392 0.1767
C14A C 0.12538(7) 0.4057(3) 0.24891(10)
C15A C 0.11165(7) 0.4351(3) 0.29432(10)
C16A C 0.09428(8) 0.5603(3) 0.30030(11)
H11A H 0.0911 0.6296 0.2748
C17A C 0.08158(8) 0.5854(3) 0.34268(11)
H12A H 0.0705 0.6728 0.3461
C18A C 0.08472(7) 0.4851(3) 0.38046(10)
C19A C 0.10173(8) 0.3597(3) 0.37440(11)
H13A H 0.1043 0.2892 0.3995
C20A C 0.11494(8) 0.3360(3) 0.33245(11)
H14A H 0.1266 0.2496 0.3295
C21A C 0.07190(7) 0.5151(3) 0.42662(10)
C22A C 0.08175(7) 0.6402(3) 0.45230(11)
H15A H 0.0958 0.7060 0.4392
C23A C 0.07176(7) 0.6717(3) 0.49624(11)
H16A H 0.0780 0.7595 0.5123
C24A C 0.05249(8) 0.5741(3) 0.51668(12)
H17A H 0.0463 0.5930 0.5476
C25A C 0.04227(7) 0.4487(3) 0.49178(11)
H18A H 0.0290 0.3820 0.5057
C26A C 0.05129(7) 0.4195(3) 0.44649(10)
C27A C 0.03417(7) 0.2970(3) 0.41637(11)
C28A C 0.14950(7) 0.4873(3) 0.23402(11)
C29A C 0.16632(7) 0.6122(3) 0.26276(10)
C30A C 0.17739(8) 0.6156(3) 0.31441(11)
H19A H 0.1750 0.5331 0.3330
C31A C 0.19162(8) 0.7345(3) 0.33941(12)
H20A H 0.1997 0.7323 0.3746
C32A C 0.19423(7) 0.8591(3) 0.31308(11)
C33A C 0.18475(7) 0.8575(3) 0.26194(12)
H21A H 0.1874 0.9400 0.2435
C34A C 0.17122(7) 0.7347(3) 0.23695(12)
H22A H 0.1652 0.7344 0.2015
C35A C 0.21428(9) 1.0987(3) 0.31632(13)
H23A H 0.1922 1.1383 0.2959
H24A H 0.2303 1.0761 0.2940
C36A C 0.23131(10) 1.2034(4) 0.35505(15)
H25A H 0.2498 1.1549 0.3799
H26A H 0.2134 1.2387 0.3726
C37A C 0.24771(11) 1.3277(4) 0.33428(17)
H27A H 0.2652 1.2922 0.3159
H28A H 0.2291 1.3777 0.3101
C38A C 0.26552(15) 1.4304(5) 0.3727(2)
H29A H 0.2475 1.4729 0.3885
H30A H 0.2822 1.3779 0.3989
C39A C 0.28491(17) 1.5444(6) 0.3548(3)
H31A H 0.2939 1.6101 0.3821
H32A H 0.2691 1.5946 0.3276
H33A H 0.3047 1.5049 0.3426
C40A C 0.16061(7) 0.4612(3) 0.18612(11)
C41A C 0.19573(8) 0.4400(3) 0.18631(12)
H34A H 0.2127 0.4437 0.2170
C42A C 0.20660(9) 0.4137(4) 0.14294(13)
H35A H 0.2308 0.3955 0.1440
C43A C 0.18260(9) 0.4136(4) 0.09776(13)
C44A C 0.14757(9) 0.4367(4) 0.09690(13)
H36A H 0.1307 0.4364 0.0661
C45A C 0.13699(8) 0.4600(4) 0.14064(12)
H37A H 0.1127 0.4759 0.1396
C46A C 0.17269(16) 0.3905(9) 0.00958(18)
H38A H 0.1611 0.4838 0.0040
H39A H 0.1542 0.3176 0.0074
C47A C 0.1935(2) 0.3642(10) -0.0282(2)
H40A H 0.2151 0.4229 -0.0218
H41A H 0.1795 0.3849 -0.0621
C48A C 0.2030(3) 0.2047(12) -0.0225(3)
H42A H 0.2216 0.1850 -0.0411
H43A H 0.2130 0.1847 0.0131
C49A C 0.1723(3) 0.1036(14) -0.0411(4)
H44A H 0.1599 0.1241 -0.0759
H45A H 0.1551 0.1043 -0.0193
C50A C 0.1962(4) -0.0563(15) -0.0363(5)
H46A H 0.1826 -0.1314 -0.0249
H47A H 0.2188 -0.0449 -0.0124
H48A H 0.2006 -0.0812 -0.0691
O5 O 0.08038(6) 0.9415(3) 0.02573(9)
H49 H 0.0695 0.9906 0.0428
C51 C 0.11107(14) 0.8901(10) 0.05608(19)
H50 H 0.1052 0.8501 0.0865
H51 H 0.1274 0.9701 0.0665
C52 C 0.12860(17) 0.7879(8) 0.0346(4)
H52 H 0.1363 0.8283 0.0060
H53 H 0.1127 0.7086 0.0234
H54 H 0.1492 0.7547 0.0592
loop_
_geom_bond_atom_site_label_1
_geom_bond_atom_site_label_2
_geom_bond_site_symmetry_1
_geom_bond_site_symmetry_2
O1 C1 1_555 1_555
O2 C27 1_555 1_555
O3 C32 1_555 1_555
O4 C43 1_555 1_555
N1 H1 1_555 1_555
N2 H2 1_555 1_555
C1 N1 1_555 1_555
C2 C1 1_555 1_555
C3 C2 1_555 1_555
H3 C3 1_555 1_555
C4 C3 1_555 1_555
H4 C4 1_555 1_555
C5 C4 1_555 1_555
H5 C5 1_555 1_555
C6 C5 1_555 1_555
H6 C6 1_555 1_555
C7 C2 1_555 1_555
C8 C7 1_555 1_555
C9 C8 1_555 1_555
H7 C9 1_555 1_555
C10 C9 1_555 1_555
H8 C10 1_555 1_555
C11 C10 1_555 1_555
C12 C11 1_555 1_555
H9 C12 1_555 1_555
C13 C8 1_555 1_555
H10 C13 1_555 1_555
C14 C11 1_555 1_555
C15 C14 1_555 1_555
C16 C15 1_555 1_555
H11 C16 1_555 1_555
C17 C16 1_555 1_555
H12 C17 1_555 1_555
C18 C17 1_555 1_555
C19 C18 1_555 1_555
H13 C19 1_555 1_555
C20 C15 1_555 1_555
H14 C20 1_555 1_555
C21 C18 1_555 1_555
C22 C21 1_555 1_555
H15 C22 1_555 1_555
C23 C22 1_555 1_555
H16 C23 1_555 1_555
C24 C23 1_555 1_555
H17 C24 1_555 1_555
C25 C24 1_555 1_555
H18 C25 1_555 1_555
C26 C21 1_555 1_555
C27 N2 1_555 1_555
C28 C14 1_555 1_555
C29 C28 1_555 1_555
C30 C29 1_555 1_555
H19 C30 1_555 1_555
C31 C30 1_555 1_555
H20 C31 1_555 1_555
C32 C31 1_555 1_555
C33 C32 1_555 1_555
H21 C33 1_555 1_555
C34 C29 1_555 1_555
H22 C34 1_555 1_555
C35 O3 1_555 1_555
H23 C35 1_555 1_555
H24 C35 1_555 1_555
C36 C35 1_555 1_555
H25 C36 1_555 1_555
H26 C36 1_555 1_555
C37 C36 1_555 1_555
H27 C37 1_555 1_555
H28 C37 1_555 1_555
C38 C37 1_555 1_555
H29 C38 1_555 1_555
H30 C38 1_555 1_555
C39 C38 1_555 1_555
H31 C39 1_555 1_555
H32 C39 1_555 1_555
H33 C39 1_555 1_555
C40 C28 1_555 1_555
C41 C40 1_555 1_555
H34 C41 1_555 1_555
C42 C41 1_555 1_555
H35 C42 1_555 1_555
C43 C42 1_555 1_555
C44 C43 1_555 1_555
H36 C44 1_555 1_555
C45 C40 1_555 1_555
H37 C45 1_555 1_555
C46 O4 1_555 1_555
H38 C46 1_555 1_555
H39 C46 1_555 1_555
C47 C46 1_555 1_555
H40 C47 1_555 1_555
H41 C47 1_555 1_555
C48 C47 1_555 1_555
H42 C48 1_555 1_555
H43 C48 1_555 1_555
C49 C48 1_555 1_555
H44 C49 1_555 1_555
H45 C49 1_555 1_555
C50 C49 1_555 1_555
H46 C50 1_555 1_555
H47 C50 1_555 1_555
H48 C50 1_555 1_555
O5 H49 1_555 1_555
C51 O5 1_555 1_555
H50 C51 1_555 1_555
H51 C51 1_555 1_555
C52 C51 1_555 1_555
H52 C52 1_555 1_555
H53 C52 1_555 1_555
H54 C52 1_555 1_555
O1A C1A 1_555 1_555
O2A C27A 1_555 1_555
O3A C32A 1_555 1_555
O4A C43A 1_555 1_555
N1A N2 1_555 1_555
H1A N1A 1_555 1_555
N2A N1 1_555 1_555
H2A N2A 1_555 1_555
C1A N1A 1_555 1_555
C2A C1A 1_555 1_555
C3A C2A 1_555 1_555
H3A C3A 1_555 1_555
C4A C3A 1_555 1_555
H4A C4A 1_555 1_555
C5A C4A 1_555 1_555
H5A C5A 1_555 1_555
C6A C5A 1_555 1_555
H6A C6A 1_555 1_555
C7A C2A 1_555 1_555
C8A C7A 1_555 1_555
C9A C8A 1_555 1_555
H7A C9A 1_555 1_555
C10A C9A 1_555 1_555
H8A C10A 1_555 1_555
C11A C10A 1_555 1_555
C12A C11A 1_555 1_555
H9A C12A 1_555 1_555
C13A C8A 1_555 1_555
H10A C13A 1_555 1_555
C14A C11A 1_555 1_555
C15A C14A 1_555 1_555
C16A C15A 1_555 1_555
H11A C16A 1_555 1_555
C17A C16A 1_555 1_555
H12A C17A 1_555 1_555
C18A C17A 1_555 1_555
C19A C18A 1_555 1_555
H13A C19A 1_555 1_555
C20A C15A 1_555 1_555
H14A C20A 1_555 1_555
C21A C18A 1_555 1_555
C22A C21A 1_555 1_555
H15A C22A 1_555 1_555
C23A C22A 1_555 1_555
H16A C23A 1_555 1_555
C24A C23A 1_555 1_555
H17A C24A 1_555 1_555
C25A C24A 1_555 1_555
H18A C25A 1_555 1_555
C26A C21A 1_555 1_555
C27A N2A 1_555 1_555
C28A C14A 1_555 1_555
C29A C28A 1_555 1_555
C30A C29A 1_555 1_555
H19A C30A 1_555 1_555
C31A C30A 1_555 1_555
H20A C31A 1_555 1_555
C32A C31A 1_555 1_555
C33A C32A 1_555 1_555
H21A C33A 1_555 1_555
C34A C29A 1_555 1_555
H22A C34A 1_555 1_555
C35A O3A 1_555 1_555
H23A C35A 1_555 1_555
H24A C35A 1_555 1_555
C36A C35A 1_555 1_555
H25A C36A 1_555 1_555
H26A C36A 1_555 1_555
C37A C36A 1_555 1_555
H27A C37A 1_555 1_555
H28A C37A 1_555 1_555
C38A C37A 1_555 1_555
H29A C38A 1_555 1_555
H30A C38A 1_555 1_555
C39A C38A 1_555 1_555
H31A C39A 1_555 1_555
H32A C39A 1_555 1_555
H33A C39A 1_555 1_555
C40A C28A 1_555 1_555
C41A C40A 1_555 1_555
H34A C41A 1_555 1_555
C42A C41A 1_555 1_555
H35A C42A 1_555 1_555
C43A C42A 1_555 1_555
C44A C43A 1_555 1_555
H36A C44A 1_555 1_555
C45A C40A 1_555 1_555
H37A C45A 1_555 1_555
C46A O4A 1_555 1_555
H38A C46A 1_555 1_555
H39A C46A 1_555 1_555
C47A C46A 1_555 1_555
H40A C47A 1_555 1_555
H41A C47A 1_555 1_555
C48A C47A 1_555 1_555
H42A C48A 1_555 1_555
H43A C48A 1_555 1_555
C49A C48A 1_555 1_555
H44A C49A 1_555 1_555
H45A C49A 1_555 1_555
C50A C49A 1_555 1_555
H46A C50A 1_555 1_555
H47A C50A 1_555 1_555
H48A C50A 1_555 1_555
C6 C7 1_555 1_555
C12 C13 1_555 1_555
C19 C20 1_555 1_555
C25 C26 1_555 1_555
C26 C27 1_555 1_555
C33 C34 1_555 1_555
C44 C45 1_555 1_555
C6A C7A 1_555 1_555
C12A C13A 1_555 1_555
C19A C20A 1_555 1_555
C25A C26A 1_555 1_555
C26A C27A 1_555 1_555
C33A C34A 1_555 1_555
C44A C45A 1_555 1_555

#END
