
#######################################################################
#
#                 Cambridge Crystallographic Data Centre
#                                CCDC 
#
#######################################################################
#
# If this CIF has been generated from an entry in the Cambridge 
# Structural Database, then it will include bibliographic, chemical, 
# crystal, experimental, refinement or atomic coordinate data resulting 
# from the CCDC's data processing and validation procedures.
#
#######################################################################

data_CEHQAK
_chemical_formula_moiety         'C17 H14 Cl2 N2 O2 S1'
_chemical_name_systematic        
3-(4-chlorophenyl)-1-[(4-chlorophenyl)sulfonyl]-5-methyl-1,6-dihydropyridazine
_symmetry_cell_setting           monoclinic
_symmetry_space_group_name_H-M   'P 21/n'
_symmetry_Int_Tables_number      14
_space_group_name_Hall           '-P 2yn'
loop_
_symmetry_equiv_pos_site_id
_symmetry_equiv_pos_as_xyz
1 x,y,z
2 1/2-x,1/2+y,1/2-z
3 -x,-y,-z
4 1/2+x,1/2-y,1/2+z
_cell_length_a                   11.6687(9)
_cell_length_b                   8.7574(6)
_cell_length_c                   17.8369(15)
_cell_angle_alpha                90
_cell_angle_beta                 96.5120(10)
_cell_angle_gamma                90
_cell_volume                     1810.95
_exptl_crystal_colour            yellow
_exptl_crystal_description       block
_cell_formula_units_Z            4
loop_
_atom_site_label
_atom_site_type_symbol
_atom_site_fract_x
_atom_site_fract_y
_atom_site_fract_z
Cl1 Cl 1.03241(10) 0.20181(13) -0.09705(6)
Cl2 Cl 0.26360(11) -0.02911(14) 0.10447(8)
N1 N 0.6286(2) 0.5798(3) 0.18985(13)
N2 N 0.6846(2) 0.5148(3) 0.13143(13)
O1 O 0.44403(17) 0.6815(3) 0.22308(11)
O2 O 0.48686(18) 0.6890(3) 0.08995(11)
S1 S 0.49017(7) 0.61144(12) 0.16045(5)
C1 C 0.7910(3) 0.4752(4) 0.15067(17)
C2 C 0.8471(3) 0.4914(4) 0.22797(18)
H1 H 0.9272 0.4893 0.2373
C3 C 0.7840(3) 0.5090(4) 0.28444(18)
C4 C 0.6551(3) 0.5095(4) 0.26463(16)
H2 H 0.6258 0.4059 0.2639
H3 H 0.6189 0.5671 0.3020
C5 C 0.8514(3) 0.4068(4) 0.08966(17)
C6 C 0.8092(3) 0.4245(4) 0.01519(19)
H4 H 0.7418 0.4804 0.0032
C7 C 0.8635(3) 0.3620(5) -0.04253(19)
H5 H 0.8325 0.3749 -0.0925
C8 C 0.9624(3) 0.2816(4) -0.0256(2)
C9 C 1.0072(3) 0.2614(4) 0.0473(2)
H6 H 1.0741 0.2043 0.0586
C10 C 0.9527(3) 0.3266(4) 0.10551(19)
H7 H 0.9851 0.3156 0.1553
C11 C 0.8278(3) 0.5186(4) 0.36641(18)
H8 H 0.9105 0.5143 0.3723
H9 H 0.7979 0.4345 0.3928
H10 H 0.8030 0.6129 0.3867
C12 C 0.4266(2) 0.4306(4) 0.14536(17)
C13 C 0.3628(3) 0.3687(5) 0.19844(18)
H11 H 0.3532 0.4222 0.2423
C14 C 0.3133(3) 0.2260(5) 0.1856(2)
H12 H 0.2706 0.1830 0.2212
C15 C 0.3268(3) 0.1484(5) 0.1209(2)
C16 C 0.3906(3) 0.2096(5) 0.06820(19)
H13 H 0.4001 0.1558 0.0244
C17 C 0.4406(3) 0.3514(5) 0.08063(17)
H14 H 0.4840 0.3934 0.0451
loop_
_geom_bond_atom_site_label_1
_geom_bond_atom_site_label_2
_geom_bond_site_symmetry_1
_geom_bond_site_symmetry_2
Cl1 C8 1_555 1_555
Cl2 C15 1_555 1_555
N1 N2 1_555 1_555
N2 C1 1_555 1_555
O1 S1 1_555 1_555
O2 S1 1_555 1_555
S1 N1 1_555 1_555
C1 C2 1_555 1_555
C2 H1 1_555 1_555
C3 C2 1_555 1_555
C4 N1 1_555 1_555
H2 C4 1_555 1_555
H3 C4 1_555 1_555
C5 C1 1_555 1_555
C6 C5 1_555 1_555
H4 C6 1_555 1_555
C7 C6 1_555 1_555
H5 C7 1_555 1_555
C8 C7 1_555 1_555
C9 C8 1_555 1_555
H6 C9 1_555 1_555
C10 C5 1_555 1_555
H7 C10 1_555 1_555
C11 C3 1_555 1_555
H8 C11 1_555 1_555
H9 C11 1_555 1_555
H10 C11 1_555 1_555
C12 S1 1_555 1_555
C13 C12 1_555 1_555
H11 C13 1_555 1_555
C14 C13 1_555 1_555
H12 C14 1_555 1_555
C15 C14 1_555 1_555
C16 C15 1_555 1_555
H13 C16 1_555 1_555
C17 C12 1_555 1_555
H14 C17 1_555 1_555
C3 C4 1_555 1_555
C9 C10 1_555 1_555
C16 C17 1_555 1_555

#END
