
#######################################################################
#
#                 Cambridge Crystallographic Data Centre
#                                CCDC 
#
#######################################################################
#
# If this CIF has been generated from an entry in the Cambridge 
# Structural Database, then it will include bibliographic, chemical, 
# crystal, experimental, refinement or atomic coordinate data resulting 
# from the CCDC's data processing and validation procedures.
#
#######################################################################

data_CEHVAP
_chemical_formula_moiety         'C31 H41 N3 O7 S1'
_chemical_name_systematic        
'methyl N-(2-(9,20-dioxo-11,12,14,15,17,18,19,20-octahydrodibenzo[i,k][1,4,7,14]dioxadiazacyclohexadecin-10(9H)-yl)-4-(methylsulfanyl)butanoyl)valinate'
_symmetry_cell_setting           monoclinic
_symmetry_space_group_name_H-M   'P 21/n'
_symmetry_Int_Tables_number      14
_space_group_name_Hall           '-P 2yn'
loop_
_symmetry_equiv_pos_site_id
_symmetry_equiv_pos_as_xyz
1 x,y,z
2 1/2-x,1/2+y,1/2-z
3 -x,-y,-z
4 1/2+x,1/2-y,1/2+z
_cell_length_a                   11.5868(3)
_cell_length_b                   14.9472(4)
_cell_length_c                   17.5410(7)
_cell_angle_alpha                90
_cell_angle_beta                 91.091(3)
_cell_angle_gamma                90
_cell_volume                     3037.38
_exptl_crystal_colour            white
_exptl_crystal_description       block
_cell_formula_units_Z            4
loop_
_atom_site_label
_atom_site_type_symbol
_atom_site_fract_x
_atom_site_fract_y
_atom_site_fract_z
S1 S 0.60112(5) 0.90636(4) 0.04414(5)
O1 O 0.99056(12) 0.76959(9) 0.20215(9)
O2 O 1.24787(15) 0.84300(11) 0.41307(10)
O3 O 1.07143(14) 0.62722(11) 0.03660(10)
O4 O 1.22407(14) 0.65345(10) 0.17634(9)
O5 O 1.03564(14) 0.91947(11) -0.09525(10)
N1 N 0.96780(14) 0.79261(10) 0.07521(10)
O6 O 1.28359(17) 0.84802(13) -0.18711(13)
N2 N 1.18095(17) 0.76772(12) 0.30834(11)
N3 N 1.06205(16) 0.77207(13) -0.07293(12)
O7 O 1.30406(17) 0.79220(17) -0.06911(13)
C1 C 1.08003(19) 0.89915(14) 0.34766(13)
C2 C 1.01787(16) 0.81102(13) 0.14442(12)
C3 C 1.05924(17) 0.93906(13) 0.27645(12)
C4 C 1.11784(16) 0.87517(12) 0.14719(12)
C5 C 1.32677(17) 0.96664(13) 0.15937(13)
H1 H 1.3966 0.9971 0.1639
C6 C 1.30227(17) 0.91632(13) 0.09467(13)
H2 H 1.3547 0.9135 0.0553
C7 C 0.75488(18) 0.90746(15) 0.06374(14)
H3 H 0.7779 0.9674 0.0789
H4 H 0.7719 0.8677 0.1062
C8 C 1.14124(17) 0.92702(12) 0.21230(12)
C9 C 0.8989(2) 1.02025(16) 0.32976(15)
H5 H 0.838 1.0602 0.3236
C10 C 0.95334(16) 0.86417(13) 0.01764(12)
H6 H 0.9803 0.9196 0.0419
C11 C 0.96770(18) 0.99928(14) 0.26821(13)
H7 H 0.9526 1.0256 0.221
C12 C 0.90171(18) 0.70858(13) 0.06885(13)
H8 H 0.87 0.703 0.0175
H9 H 0.8378 0.7104 0.1037
C13 C 1.02195(17) 0.85351(14) -0.05470(12)
C14 C 0.82545(17) 0.87888(14) -0.00426(13)
H10 H 0.8198 0.9245 -0.0435
H11 H 0.7937 0.8239 -0.0252
C15 C 1.24708(17) 0.97162(13) 0.21751(13)
H12 H 1.2646 1.0053 0.2608
C16 C 1.1683(2) 0.57413(15) 0.06175(15)
H13 H 1.2016 0.5451 0.0179
H14 H 1.1412 0.5276 0.0956
C17 C 1.19874(17) 0.87022(13) 0.08942(12)
H15 H 1.1828 0.8353 0.0466
C18 C 0.97639(19) 0.62760(14) 0.08691(14)
H16 H 1.0042 0.6304 0.1394
H17 H 0.9316 0.5732 0.0804
C19 C 0.9213(2) 0.98163(17) 0.40010(15)
H18 H 0.876 0.9963 0.4415
C20 C 1.1381(2) 0.66180(16) -0.16399(15)
H19 H 1.1761 0.6295 -0.1219
C21 C 1.1780(2) 0.83429(14) 0.35966(13)
C22 C 1.0107(2) 0.92137(16) 0.40892(14)
H20 H 1.025 0.8953 0.4563
C23 C 0.5736(2) 0.78755(17) 0.04541(18)
H21 H 0.6263 0.7578 0.0122
H22 H 0.4958 0.7763 0.0283
H23 H 0.5842 0.7653 0.0964
C24 C 1.2609(2) 0.62739(15) 0.10260(14)
H24 H 1.3305 0.5916 0.1075
H25 H 1.2788 0.6803 0.073
C25 C 1.3144(2) 0.69541(15) 0.22023(14)
H26 H 1.3316 0.7536 0.1988
H27 H 1.3838 0.6592 0.2186
C26 C 1.2772(2) 0.70598(14) 0.30169(14)
H28 H 1.2549 0.648 0.3215
H29 H 1.3418 0.7277 0.3324
C27 C 1.0207(2) 0.62105(18) -0.17742(18)
H30 H 0.9824 0.6511 -0.2191
H31 H 0.9759 0.6272 -0.1323
H32 H 1.029 0.5588 -0.1895
C28 C 1.1297(2) 0.76145(17) -0.14123(14)
H33 H 1.0911 0.794 -0.183
C29 C 1.2490(2) 0.80296(17) -0.12735(16)
C30 C 1.2129(3) 0.65267(19) -0.23398(17)
H34 H 1.2119 0.5917 -0.2511
H35 H 1.2907 0.6698 -0.2211
H36 H 1.1833 0.6907 -0.2738
C31 C 1.3985(3) 0.8846(2) -0.1799(2)
H37 H 1.4002 0.9296 -0.1409
H38 H 1.4201 0.9108 -0.2276
H39 H 1.4518 0.8377 -0.1666
H40 H 1.125(2) 0.7666(16) 0.2745(15)
H41 H 1.069(2) 0.7313(18) -0.0385(16)
loop_
_geom_bond_atom_site_label_1
_geom_bond_atom_site_label_2
_geom_bond_site_symmetry_1
_geom_bond_site_symmetry_2
S1 C7 1_555 1_555
O1 C2 1_555 1_555
O2 C21 1_555 1_555
O3 C16 1_555 1_555
O4 C24 1_555 1_555
O5 C13 1_555 1_555
N1 C2 1_555 1_555
O6 C29 1_555 1_555
N2 C21 1_555 1_555
N3 C13 1_555 1_555
O7 C29 1_555 1_555
C1 C3 1_555 1_555
C2 C4 1_555 1_555
C3 C8 1_555 1_555
C4 C8 1_555 1_555
C5 H1 1_555 1_555
C6 C5 1_555 1_555
H2 C6 1_555 1_555
C7 H3 1_555 1_555
H4 C7 1_555 1_555
C8 C15 1_555 1_555
C9 H5 1_555 1_555
C10 N1 1_555 1_555
H6 C10 1_555 1_555
C11 C3 1_555 1_555
H7 C11 1_555 1_555
C12 N1 1_555 1_555
H8 C12 1_555 1_555
H9 C12 1_555 1_555
C13 C10 1_555 1_555
C14 C7 1_555 1_555
H10 C14 1_555 1_555
H11 C14 1_555 1_555
C15 C5 1_555 1_555
H12 C15 1_555 1_555
C16 H13 1_555 1_555
H14 C16 1_555 1_555
C17 C4 1_555 1_555
H15 C17 1_555 1_555
C18 O3 1_555 1_555
H16 C18 1_555 1_555
H17 C18 1_555 1_555
C19 C9 1_555 1_555
H18 C19 1_555 1_555
C20 H19 1_555 1_555
C21 C1 1_555 1_555
C22 C1 1_555 1_555
H20 C22 1_555 1_555
C23 S1 1_555 1_555
H21 C23 1_555 1_555
H22 C23 1_555 1_555
H23 C23 1_555 1_555
C24 C16 1_555 1_555
H24 C24 1_555 1_555
H25 C24 1_555 1_555
C25 O4 1_555 1_555
H26 C25 1_555 1_555
H27 C25 1_555 1_555
C26 N2 1_555 1_555
H28 C26 1_555 1_555
H29 C26 1_555 1_555
C27 C20 1_555 1_555
H30 C27 1_555 1_555
H31 C27 1_555 1_555
H32 C27 1_555 1_555
C28 N3 1_555 1_555
H33 C28 1_555 1_555
C29 C28 1_555 1_555
C30 C20 1_555 1_555
H34 C30 1_555 1_555
H35 C30 1_555 1_555
H36 C30 1_555 1_555
C31 O6 1_555 1_555
H37 C31 1_555 1_555
H38 C31 1_555 1_555
H39 C31 1_555 1_555
H40 N2 1_555 1_555
H41 N3 1_555 1_555
C6 C17 1_555 1_555
C9 C11 1_555 1_555
C10 C14 1_555 1_555
C12 C18 1_555 1_555
C19 C22 1_555 1_555
C20 C28 1_555 1_555
C25 C26 1_555 1_555

#END
