
#######################################################################
#
#                 Cambridge Crystallographic Data Centre
#                                CCDC 
#
#######################################################################
#
# If this CIF has been generated from an entry in the Cambridge 
# Structural Database, then it will include bibliographic, chemical, 
# crystal, experimental, refinement or atomic coordinate data resulting 
# from the CCDC's data processing and validation procedures.
#
#######################################################################

data_CEHWIY
_chemical_formula_moiety         'C31 H41 N3 O3,H2 O1'
_chemical_name_systematic        
'N-(biphenyl-4-ylmethyl)-1-(3,3,8,8-tetramethyl-6,10-dioxo-1,5-diazecan-1-yl)cyclopentanecarboxamide monohydrate'
_symmetry_cell_setting           orthorhombic
_symmetry_space_group_name_H-M   'P c c n'
_symmetry_Int_Tables_number      56
_space_group_name_Hall           '-P 2ab 2ac'
loop_
_symmetry_equiv_pos_site_id
_symmetry_equiv_pos_as_xyz
1 x,y,z
2 1/2-x,1/2-y,z
3 1/2+x,-y,1/2-z
4 -x,1/2+y,1/2-z
5 -x,-y,-z
6 1/2+x,1/2+y,-z
7 1/2-x,y,1/2+z
8 x,1/2-y,1/2+z
_cell_length_a                   27.6390(8)
_cell_length_b                   17.7059(5)
_cell_length_c                   12.3033(3)
_cell_angle_alpha                90
_cell_angle_beta                 90
_cell_angle_gamma                90
_cell_volume                     6020.91
_exptl_crystal_colour            white
_exptl_crystal_description       plate
_cell_formula_units_Z            8
loop_
_atom_site_label
_atom_site_type_symbol
_atom_site_fract_x
_atom_site_fract_y
_atom_site_fract_z
O1 O 0.48613(5) 0.42149(7) 0.12721(10)
O2 O 0.45373(6) 0.24076(7) 0.34996(11)
O3 O 0.50779(6) 0.15250(7) 0.14299(11)
N1 N 0.46914(7) 0.26321(9) 0.11529(13)
N2 N 0.43149(6) 0.35698(9) 0.29055(13)
N3 N 0.50374(7) 0.52550(9) 0.22322(13)
C1 C 0.50808(8) 0.22253(10) 0.14321(14)
C2 C 0.67593(8) 0.43947(11) 0.12503(16)
C3 C 0.47922(8) 0.46126(10) 0.20840(15)
C4 C 0.46535(8) 0.30661(10) 0.33144(14)
C5 C 0.58506(8) 0.51301(10) 0.13516(15)
C6 C 0.42050(8) 0.23108(11) 0.11377(16)
H1 H 0.419 0.1889 0.1664
H2 H 0.414 0.2101 0.0406
C7 C 0.66612(8) 0.49309(11) 0.20561(17)
H3 H 0.6903 0.5051 0.2577
C8 C 0.63949(8) 0.42385(11) 0.04950(16)
H4 H 0.6453 0.3878 -0.0061
C9 C 0.72261(8) 0.39755(11) 0.12151(17)
C10 C 0.51727(8) 0.33164(10) 0.35082(15)
H5 H 0.5225 0.3354 0.4302
H6 H 0.5213 0.383 0.3202
C11 C 0.55766(8) 0.27982(11) 0.30209(15)
C12 C 0.60531(8) 0.32293(12) 0.31941(18)
H7 H 0.6097 0.3332 0.3971
H8 H 0.6042 0.3708 0.2794
H9 H 0.6324 0.2923 0.2928
C13 C 0.62138(8) 0.52907(11) 0.21032(17)
H10 H 0.6155 0.5653 0.2658
C14 C 0.59503(8) 0.46009(11) 0.05430(16)
H11 H 0.571 0.4486 0.0016
C15 C 0.53695(8) 0.55393(10) 0.13893(16)
H12 H 0.543 0.6083 0.1521
H13 H 0.521 0.5492 0.0672
C16 C 0.55207(8) 0.26757(10) 0.17736(16)
H14 H 0.5507 0.3176 0.1416
H15 H 0.5813 0.2414 0.1502
C17 C 0.74578(9) 0.37496(12) 0.21652(18)
H16 H 0.7328 0.3896 0.2848
C18 C 0.38081(8) 0.28855(12) 0.14176(17)
C19 C 0.74359(9) 0.37684(13) 0.02283(18)
H17 H 0.7292 0.393 -0.0433
C20 C 0.39377(9) 0.48673(12) 0.26499(19)
H18 H 0.4026 0.5374 0.2375
H19 H 0.3745 0.4604 0.2087
C21 C 0.56113(9) 0.20411(11) 0.36209(16)
H20 H 0.5873 0.1739 0.3306
H21 H 0.5305 0.1768 0.3549
H22 H 0.5679 0.2133 0.4392
C22 C 0.38497(8) 0.32226(11) 0.25842(16)
H23 H 0.3594 0.361 0.2666
H24 H 0.3777 0.2814 0.3109
C23 C 0.37934(9) 0.35057(12) 0.05395(18)
H25 H 0.4076 0.3835 0.0619
H26 H 0.3498 0.3805 0.0624
H27 H 0.3797 0.3271 -0.0182
C24 C 0.44010(8) 0.44050(10) 0.29337(15)
C25 C 0.33225(10) 0.24544(15) 0.1397(2)
H28 H 0.327 0.2241 0.0672
H29 H 0.3058 0.2803 0.1572
H30 H 0.3331 0.2046 0.1934
C26 C 0.80721(9) 0.30965(14) 0.1148(2)
H31 H 0.8354 0.2791 0.1125
C27 C 0.78765(10) 0.33131(14) 0.2133(2)
H32 H 0.8028 0.3164 0.2792
C28 C 0.78528(9) 0.33286(15) 0.0196(2)
H33 H 0.7987 0.3187 -0.0484
C29 C 0.36485(10) 0.49328(14) 0.3710(2)
H34 H 0.3549 0.5463 0.3831
H35 H 0.3354 0.4617 0.367
C30 C 0.44933(9) 0.46658(11) 0.41228(16)
H36 H 0.4645 0.5172 0.4148
H37 H 0.4699 0.4302 0.4523
C31 C 0.39530(18) 0.4681(3) 0.4587(3)
H38 H 0.3855 0.417 0.483
H39 H 0.3929 0.5031 0.5212
H40 H 0.4738(8) 0.3099(15) 0.1151(19)
H41 H 0.4940(9) 0.5559(15) 0.278(2)
O4 O 0.2536(3) 0.4064(11) 0.498(2)
H42? H 0.4525 0.4216 0.4596
H43? H 0.4802 0.4948 0.4155
C32? C 0.4105(3) 0.5144(4) 0.4531(5)
H44? H 0.4191 0.5685 0.4478
H45? H 0.4026 0.5021 0.5296
O5? O 0.2448(10) 0.337(3) 0.382(2)
loop_
_geom_bond_atom_site_label_1
_geom_bond_atom_site_label_2
_geom_bond_site_symmetry_1
_geom_bond_site_symmetry_2
O1 C3 1_555 1_555
O2 C4 1_555 1_555
O3 C1 1_555 1_555
N1 C1 1_555 1_555
N2 C4 1_555 1_555
N3 C3 1_555 1_555
C1 C16 1_555 1_555
C2 C7 1_555 1_555
C3 C24 1_555 1_555
C4 C10 1_555 1_555
C5 C13 1_555 1_555
C6 N1 1_555 1_555
H1 C6 1_555 1_555
H2 C6 1_555 1_555
C7 H3 1_555 1_555
C8 C2 1_555 1_555
H4 C8 1_555 1_555
C9 C2 1_555 1_555
C10 H5 1_555 1_555
H6 C10 1_555 1_555
C11 C10 1_555 1_555
C12 C11 1_555 1_555
H7 C12 1_555 1_555
H8 C12 1_555 1_555
H9 C12 1_555 1_555
C13 C7 1_555 1_555
H10 C13 1_555 1_555
C14 C5 1_555 1_555
H11 C14 1_555 1_555
C15 N3 1_555 1_555
H12 C15 1_555 1_555
H13 C15 1_555 1_555
C16 C11 1_555 1_555
H14 C16 1_555 1_555
H15 C16 1_555 1_555
C17 C9 1_555 1_555
H16 C17 1_555 1_555
C18 C6 1_555 1_555
C19 C9 1_555 1_555
H17 C19 1_555 1_555
C20 H18 1_555 1_555
H19 C20 1_555 1_555
C21 C11 1_555 1_555
H20 C21 1_555 1_555
H21 C21 1_555 1_555
H22 C21 1_555 1_555
C22 N2 1_555 1_555
H23 C22 1_555 1_555
H24 C22 1_555 1_555
C23 C18 1_555 1_555
H25 C23 1_555 1_555
H26 C23 1_555 1_555
H27 C23 1_555 1_555
C24 N2 1_555 1_555
C25 C18 1_555 1_555
H28 C25 1_555 1_555
H29 C25 1_555 1_555
H30 C25 1_555 1_555
C26 H31 1_555 1_555
C27 C17 1_555 1_555
H32 C27 1_555 1_555
C28 C19 1_555 1_555
H33 C28 1_555 1_555
C29 C20 1_555 1_555
H34 C29 1_555 1_555
H35 C29 1_555 1_555
C30 C24 1_555 1_555
H36 C30 1_555 1_555
H37 C30 1_555 1_555
C31 C29 1_555 1_555
H38 C31 1_555 1_555
H39 C31 1_555 1_555
H40 N1 1_555 1_555
H41 N3 1_555 1_555
C5 C15 1_555 1_555
C8 C14 1_555 1_555
C18 C22 1_555 1_555
C20 C24 1_555 1_555
C26 C27 1_555 1_555
C26 C28 1_555 1_555
C30 C31 1_555 1_555

#END
