
#######################################################################
#
#                 Cambridge Crystallographic Data Centre
#                                CCDC 
#
#######################################################################
#
# If this CIF has been generated from an entry in the Cambridge 
# Structural Database, then it will include bibliographic, chemical, 
# crystal, experimental, refinement or atomic coordinate data resulting 
# from the CCDC's data processing and validation procedures.
#
#######################################################################

data_CEHWUI
_chemical_formula_moiety         'C19 H22 O2 S3'
_chemical_name_systematic        
7,8,10,11-Tetrahydro-5H,13H-dibenzo(d,o)(1,3,7,10,13)dioxatrithiacyclohexadecine
_symmetry_cell_setting           orthorhombic
_symmetry_space_group_name_H-M   'P 21 21 21'
_symmetry_Int_Tables_number      19
_space_group_name_Hall           'P 2ac 2ab'
loop_
_symmetry_equiv_pos_site_id
_symmetry_equiv_pos_as_xyz
1 x,y,z
2 1/2-x,-y,1/2+z
3 -x,1/2+y,1/2-z
4 1/2+x,1/2-y,-z
_cell_length_a                   5.041(3)
_cell_length_b                   16.805(8)
_cell_length_c                   21.958(11)
_cell_angle_alpha                90
_cell_angle_beta                 90
_cell_angle_gamma                90
_cell_volume                     1860.15
_exptl_crystal_colour            colorless
_exptl_crystal_description       plate
_cell_formula_units_Z            4
_exptl_crystal_recrystallization_method methanol
loop_
_atom_site_label
_atom_site_type_symbol
_atom_site_fract_x
_atom_site_fract_y
_atom_site_fract_z
S1 S -0.0541(4) 0.82154(9) 0.07597(6)
S2 S 0.3238(3) 0.88819(10) 0.25054(7)
S3 S -0.0339(3) 0.79077(8) 0.41657(6)
O1 O -0.2222(8) 0.6726(2) 0.21061(14)
O2 O -0.1405(8) 0.6401(2) 0.31020(14)
C1 C -0.3228(12) 0.6301(4) 0.2601(2)
H1 H -0.3390 0.5748 0.2499
H2 H -0.4949 0.6499 0.2710
C2 C -0.0492(11) 0.6326(3) 0.1718(2)
C3 C 0.1057(13) 0.5690(3) 0.1895(3)
H3 H 0.0958 0.5493 0.2305
C4 C 0.2746(13) 0.5339(4) 0.1481(3)
H4 H 0.3833 0.4898 0.1603
C5 C 0.2876(13) 0.5618(4) 0.0898(3)
H5 H 0.4073 0.5379 0.0611
C6 C 0.1307(11) 0.6235(4) 0.0724(2)
H6 H 0.1403 0.6417 0.0310
C7 C -0.0410(11) 0.6609(3) 0.1116(2)
C8 C -0.2133(12) 0.7271(3) 0.0900(2)
H7 H -0.3504 0.7353 0.1197
H8 H -0.2978 0.7104 0.0530
C9 C -0.0042(13) 0.8612(4) 0.1532(3)
H9 H -0.0222 0.9181 0.1524
H10 H -0.1383 0.8403 0.1798
C10 C 0.2574(13) 0.8402(4) 0.1767(3)
H11 H 0.3904 0.8562 0.1479
H12 H 0.2684 0.7835 0.1814
C11 C 0.1029(12) 0.8344(3) 0.3004(2)
H13 H -0.0766 0.8505 0.2925
H14 H 0.1166 0.7785 0.2921
C12 C 0.1693(12) 0.8498(3) 0.3665(2)
H15 H 0.1431 0.9052 0.3754
H16 H 0.3527 0.8375 0.3735
C13 C 0.1318(11) 0.6946(3) 0.4102(2)
H17 H 0.2225 0.6912 0.3719
H18 H 0.2607 0.6893 0.4421
C14 C -0.0668(10) 0.6291(3) 0.4148(2)
C15 C -0.1216(13) 0.5930(3) 0.4703(2)
H19 H -0.0220 0.6085 0.5056
C16 C -0.3139(13) 0.5357(4) 0.4761(3)
H20 H -0.3477 0.5118 0.5150
C17 C -0.4561(13) 0.5131(3) 0.4266(2)
H21 H -0.5903 0.4729 0.4304
C18 C -0.4075(13) 0.5480(3) 0.3708(2)
H22 H -0.5110 0.5325 0.3361
C19 C -0.2139(11) 0.6042(3) 0.3645(2)
loop_
_geom_bond_atom_site_label_1
_geom_bond_atom_site_label_2
_geom_bond_site_symmetry_1
_geom_bond_site_symmetry_2
S1 C8 1_555 1_555
S2 C10 1_555 1_555
S3 C12 1_555 1_555
O1 C1 1_555 1_555
O2 C1 1_555 1_555
C1 H1 1_555 1_555
H2 C1 1_555 1_555
C2 O1 1_555 1_555
C3 C2 1_555 1_555
H3 C3 1_555 1_555
C4 C3 1_555 1_555
H4 C4 1_555 1_555
C5 C4 1_555 1_555
H5 C5 1_555 1_555
C6 C5 1_555 1_555
H6 C6 1_555 1_555
C7 C2 1_555 1_555
C8 C7 1_555 1_555
H7 C8 1_555 1_555
H8 C8 1_555 1_555
C9 S1 1_555 1_555
H9 C9 1_555 1_555
H10 C9 1_555 1_555
C10 C9 1_555 1_555
H11 C10 1_555 1_555
H12 C10 1_555 1_555
C11 S2 1_555 1_555
H13 C11 1_555 1_555
H14 C11 1_555 1_555
C12 C11 1_555 1_555
H15 C12 1_555 1_555
H16 C12 1_555 1_555
C13 S3 1_555 1_555
H17 C13 1_555 1_555
H18 C13 1_555 1_555
C14 C13 1_555 1_555
C15 C14 1_555 1_555
H19 C15 1_555 1_555
C16 C15 1_555 1_555
H20 C16 1_555 1_555
C17 C16 1_555 1_555
H21 C17 1_555 1_555
C18 C17 1_555 1_555
H22 C18 1_555 1_555
C19 O2 1_555 1_555
C6 C7 1_555 1_555
C14 C19 1_555 1_555
C18 C19 1_555 1_555

#END
