
#######################################################################
#
#                 Cambridge Crystallographic Data Centre
#                                CCDC 
#
#######################################################################
#
# If this CIF has been generated from an entry in the Cambridge 
# Structural Database, then it will include bibliographic, chemical, 
# crystal, experimental, refinement or atomic coordinate data resulting 
# from the CCDC's data processing and validation procedures.
#
#######################################################################

data_CEHWEU
_chemical_formula_moiety         'C26 H41 N3 O6'
_chemical_name_systematic        
2-(2,6-dioxo-1,7-diazacyclopentadecan-1-yl)-3,3-dimethoxy-N-(2-methoxybenzyl)propanamide
_symmetry_cell_setting           orthorhombic
_symmetry_space_group_name_H-M   'P b c a'
_symmetry_Int_Tables_number      61
_space_group_name_Hall           '-P 2ac 2ab'
loop_
_symmetry_equiv_pos_site_id
_symmetry_equiv_pos_as_xyz
1 x,y,z
2 1/2-x,-y,1/2+z
3 1/2+x,1/2-y,-z
4 -x,1/2+y,1/2-z
5 -x,-y,-z
6 1/2+x,y,1/2-z
7 1/2-x,1/2+y,z
8 x,1/2-y,1/2+z
_cell_length_a                   13.2520(16)
_cell_length_b                   8.5410(8)
_cell_length_c                   49.520(7)
_cell_angle_alpha                90
_cell_angle_beta                 90
_cell_angle_gamma                90
_cell_volume                     5604.94
_exptl_crystal_colour            white
_exptl_crystal_description       plate
_cell_formula_units_Z            8
loop_
_atom_site_label
_atom_site_type_symbol
_atom_site_fract_x
_atom_site_fract_y
_atom_site_fract_z
O1 O 0.57361(8) 0.19100(12) 0.54214(2)
O2 O 0.79735(8) 0.22380(12) 0.61688(2)
O3 O 0.83522(8) 0.24885(11) 0.71504(2)
O4 O 0.69037(9) 0.02401(13) 0.56203(2)
N1 N 0.63417(9) 0.14296(13) 0.61637(2)
O5 O 0.35586(9) 0.85238(13) 0.59622(3)
O6 O 0.44425(8) 0.29774(12) 0.59385(2)
N2 N 0.56120(10) 0.48930(14) 0.59061(3)
C1 C 0.72822(11) 0.14912(15) 0.62758(3)
N3 N 0.73173(9) 0.05466(14) 0.72884(3)
C2 C 0.80796(10) 0.11042(15) 0.71374(3)
C3 C 0.86016(11) -0.00082(15) 0.69388(3)
H1 H 0.8277 -0.1051 0.6948
H2 H 0.9318 -0.0132 0.6991
C4 C 0.85403(11) 0.06242(16) 0.66431(3)
H3 H 0.8806 0.1707 0.6636
H4 H 0.8961 -0.0036 0.6523
C5 C 0.61880(11) 0.22073(16) 0.58958(3)
H5 H 0.6818 0.2801 0.5852
C6 C 0.59930(12) 0.10439(16) 0.56613(3)
H6 H 0.5441 0.0297 0.571
C7 C 0.45582(12) 0.14692(17) 0.71918(3)
H7 H 0.5093 0.2129 0.7111
H8 H 0.415 0.2145 0.7312
C8 C 0.55164(11) 0.05087(16) 0.62895(3)
H9 H 0.5795 -0.0509 0.635
H10 H 0.5001 0.0288 0.615
C9 C 0.49876(11) 0.13068(17) 0.65349(3)
H11 H 0.5499 0.1863 0.6644
H12 H 0.4499 0.2092 0.6468
C10 C 0.67357(11) 0.15657(16) 0.74734(3)
H13 H 0.6533 0.2527 0.7376
H14 H 0.7173 0.188 0.7626
C11 C 0.53240(11) 0.33895(16) 0.59142(3)
C12 C 0.36135(12) 0.78324(17) 0.57061(4)
C13 C 0.74491(11) 0.06072(17) 0.65444(3)
H15 H 0.7015 0.1083 0.6685
H16 H 0.7232 -0.0494 0.6521
C14 C 0.44172(12) 0.58415(19) 0.54348(4)
H17 H 0.4887 0.5006 0.5419
C15 C 0.47683(13) 0.1531(2) 0.53068(3)
H18 H 0.4727 0.04 0.5276
H19 H 0.4686 0.2085 0.5135
H20 H 0.4233 0.1851 0.5432
C16 C 0.50561(12) 0.01860(16) 0.73622(3)
H21 H 0.5425 -0.0527 0.7239
H22 H 0.4517 -0.0433 0.7451
C17 C 0.43125(12) 0.66040(17) 0.56868(3)
C18 C 0.48946(13) 0.61648(17) 0.59455(4)
H23 H 0.5262 0.7099 0.6011
H24 H 0.4405 0.5856 0.6087
C19 C 0.57981(12) 0.07596(17) 0.75831(3)
H25 H 0.5438 0.1497 0.7704
H26 H 0.601 -0.015 0.7693
C20 C 0.44303(13) 0.01126(19) 0.67148(3)
H27 H 0.4926 -0.0663 0.6782
H28 H 0.3933 -0.0457 0.6603
C21 C 0.31588(14) 0.7492(2) 0.52291(4)
H29 H 0.2769 0.7799 0.5077
C22 C 0.30348(13) 0.8274(2) 0.54782(4)
H30 H 0.256 0.9103 0.5493
C23 C 0.38698(13) 0.0839(2) 0.69618(3)
H31 H 0.3442 0.1711 0.6896
H32 H 0.3415 0.0035 0.7039
C24 C 0.38433(14) 0.6285(2) 0.52056(4)
H33 H 0.3929 0.5757 0.5038
C25 C 0.28507(14) 0.9785(2) 0.59951(5)
H34 H 0.3017 1.0631 0.5869
H35 H 0.2885 1.0179 0.6181
H36 H 0.2167 0.9404 0.5958
C26 C 0.68157(16) -0.0984(2) 0.54195(4)
H37 H 0.6306 -0.1744 0.5477
H38 H 0.7467 -0.1512 0.5399
H39 H 0.6614 -0.0524 0.5246
H40 H 0.7147(14) -0.043(2) 0.7267(4)
H41 H 0.6223(17) 0.511(2) 0.5890(4)
loop_
_geom_bond_atom_site_label_1
_geom_bond_atom_site_label_2
_geom_bond_site_symmetry_1
_geom_bond_site_symmetry_2
O1 C6 1_555 1_555
O2 C1 1_555 1_555
O3 C2 1_555 1_555
O4 C6 1_555 1_555
N1 C1 1_555 1_555
O5 C12 1_555 1_555
O6 C11 1_555 1_555
N2 C11 1_555 1_555
C1 C13 1_555 1_555
N3 C2 1_555 1_555
C2 C3 1_555 1_555
C3 H1 1_555 1_555
H2 C3 1_555 1_555
C4 C3 1_555 1_555
H3 C4 1_555 1_555
H4 C4 1_555 1_555
C5 N1 1_555 1_555
H5 C5 1_555 1_555
C6 C5 1_555 1_555
H6 C6 1_555 1_555
C7 H7 1_555 1_555
H8 C7 1_555 1_555
C8 N1 1_555 1_555
H9 C8 1_555 1_555
H10 C8 1_555 1_555
C9 C8 1_555 1_555
H11 C9 1_555 1_555
H12 C9 1_555 1_555
C10 N3 1_555 1_555
H13 C10 1_555 1_555
H14 C10 1_555 1_555
C11 C5 1_555 1_555
C12 C17 1_555 1_555
C13 C4 1_555 1_555
H15 C13 1_555 1_555
H16 C13 1_555 1_555
C14 H17 1_555 1_555
C15 O1 1_555 1_555
H18 C15 1_555 1_555
H19 C15 1_555 1_555
H20 C15 1_555 1_555
C16 C7 1_555 1_555
H21 C16 1_555 1_555
H22 C16 1_555 1_555
C17 C14 1_555 1_555
C18 N2 1_555 1_555
H23 C18 1_555 1_555
H24 C18 1_555 1_555
C19 C10 1_555 1_555
H25 C19 1_555 1_555
H26 C19 1_555 1_555
C20 C9 1_555 1_555
H27 C20 1_555 1_555
H28 C20 1_555 1_555
C21 H29 1_555 1_555
C22 C12 1_555 1_555
H30 C22 1_555 1_555
C23 C7 1_555 1_555
H31 C23 1_555 1_555
H32 C23 1_555 1_555
C24 C14 1_555 1_555
H33 C24 1_555 1_555
C25 O5 1_555 1_555
H34 C25 1_555 1_555
H35 C25 1_555 1_555
H36 C25 1_555 1_555
C26 O4 1_555 1_555
H37 C26 1_555 1_555
H38 C26 1_555 1_555
H39 C26 1_555 1_555
H40 N3 1_555 1_555
H41 N2 1_555 1_555
C16 C19 1_555 1_555
C17 C18 1_555 1_555
C20 C23 1_555 1_555
C21 C22 1_555 1_555
C21 C24 1_555 1_555

#END
