
#######################################################################
#
#                 Cambridge Crystallographic Data Centre
#                                CCDC 
#
#######################################################################
#
# If this CIF has been generated from an entry in the Cambridge 
# Structural Database, then it will include bibliographic, chemical, 
# crystal, experimental, refinement or atomic coordinate data resulting 
# from the CCDC's data processing and validation procedures.
#
#######################################################################

data_CEHYIA
_chemical_formula_moiety         'C54 H36,2(I2)'
_chemical_name_systematic        '[9]cycloparaphenylene bis(diiodine)'
_symmetry_cell_setting           monoclinic
_symmetry_space_group_name_H-M   'P 21/c'
_symmetry_Int_Tables_number      14
_space_group_name_Hall           '-P 2ybc'
loop_
_symmetry_equiv_pos_site_id
_symmetry_equiv_pos_as_xyz
1 x,y,z
2 -x,1/2+y,1/2-z
3 -x,-y,-z
4 x,1/2-y,1/2+z
_cell_length_a                   26.9974(8)
_cell_length_b                   8.1499(2)
_cell_length_c                   20.3865(6)
_cell_angle_alpha                90
_cell_angle_beta                 94.891(3)
_cell_angle_gamma                90
_cell_volume                     4469.23
_exptl_crystal_colour            orange
_cell_formula_units_Z            4
loop_
_atom_site_label
_atom_site_type_symbol
_atom_site_fract_x
_atom_site_fract_y
_atom_site_fract_z
I1 I 0.32046(4) 0.65653(11) 0.03728(5)
I2 I 0.22472(5) 0.7289(2) 0.04476(6)
I3 I 0.19131(6) 1.31891(18) 0.18168(9)
I4 I 0.29025(7) 1.3151(2) 0.18535(8)
C1 C 0.2272(4) -0.0652(12) 0.3566(5)
H1 H 0.2462 -0.0509 0.3977
C2 C 0.3552(4) 0.9739(12) -0.1211(4)
H2 H 0.3419 0.9597 -0.1654
C3 C 0.1470(4) -0.0546(12) 0.2920(5)
C4 C 0.4178(3) 0.9011(11) -0.0337(4)
C5 C 0.3960(3) 0.0462(11) 0.2665(4)
C6 C 0.4744(4) 0.2303(11) 0.1413(4)
H3 H 0.4926 0.1956 0.1059
C7 C 0.4465(3) 0.7740(10) 0.0037(4)
C8 C 0.4287(3) 0.1615(10) 0.2354(4)
C9 C 0.2514(4) -0.1210(11) 0.3044(4)
C10 C 0.4868(3) 0.6818(11) 0.1087(4)
H4 H 0.5059 0.7069 0.1487
C11 C 0.4455(3) 0.4854(10) 0.0347(4)
H5 H 0.4367 0.3754 0.0236
C12 C 0.2210(4) -0.1757(11) 0.2486(5)
H6 H 0.2351 -0.2359 0.2149
C13 C 0.3309(4) -0.1558(11) 0.2468(5)
H7 H 0.3175 -0.2457 0.2215
C14 C 0.0475(4) 0.6458(13) 0.0479(5)
C15 C 0.4766(3) 0.8054(11) 0.0618(5)
H8 H 0.4903 0.9118 0.0694
C16 C 0.3741(4) -0.0829(11) 0.2297(5)
H9 H 0.3892 -0.1215 0.1922
C17 C 0.2780(3) 1.1188(11) -0.0918(5)
C18 C 0.3064(4) -0.1013(11) 0.3002(4)
C19 C 0.4257(4) 0.3315(11) 0.2487(5)
H10 H 0.4106 0.3675 0.2865
C20 C 0.4444(4) 0.4455(11) 0.2073(4)
H11 H 0.4427 0.5585 0.2183
C21 C 0.3974(4) 0.8861(11) -0.0976(5)
H12 H 0.4125 0.8139 -0.1266
C22 C 0.1031(4) 0.0372(12) 0.2732(5)
C23 C 0.4656(4) 0.4012(11) 0.1503(4)
C24 C 0.3328(3) 0.0111(10) 0.3434(4)
H13 H 0.3205 0.0391 0.3842
C25 C 0.4351(4) 0.6071(11) -0.0101(4)
H14 H 0.4196 0.5791 -0.0523
C26 C 0.0457(3) 0.2755(11) 0.1958(5)
C27 C 0.4691(3) 0.5207(10) 0.0974(4)
C28 C 0.1712(4) -0.1412(12) 0.2435(5)
H15 H 0.1517 -0.1775 0.2052
C29 C 0.1313(3) 1.0002(11) -0.0510(5)
C30 C 0.3586(4) 1.1201(11) -0.0197(5)
H16 H 0.3473 1.2077 0.0060
C31 C 0.3772(3) 0.0806(11) 0.3254(4)
H17 H 0.3950 0.1540 0.3551
C32 C 0.0189(3) 0.5549(11) 0.1539(5)
H18 H 0.0037 0.5791 0.1932
C33 C 0.2480(4) 1.0248(12) -0.1354(5)
H19 H 0.2622 0.9747 -0.1715
C34 C 0.0689(4) -0.0093(13) 0.2206(5)
H20 H 0.0650 -0.1226 0.2105
C35 C 0.0675(3) 0.7801(12) 0.0093(5)
C36 C 0.0728(4) 0.7719(15) -0.0566(6)
H21 H 0.0542 0.6913 -0.0819
C37 C 0.4572(3) 0.1166(12) 0.1822(4)
H22 H 0.4643 0.0040 0.1754
C38 C 0.1785(4) -0.0293(13) 0.3534(5)
H23 H 0.1644 0.0126 0.3911
C39 C 0.0539(4) 0.3613(13) 0.0828(5)
H24 H 0.0627 0.2519 0.0726
C40 C 0.1226(4) 1.0176(12) 0.0134(5)
H25 H 0.1374 1.1070 0.0378
C41 C 0.0997(4) 0.2023(12) 0.2923(5)
H26 H 0.1173 0.2370 0.3322
C42 C 0.3323(3) 1.0825(11) -0.0801(4)
C43 C 0.2035(4) 1.1946(12) -0.0409(6)
H27 H 0.1872 1.2659 -0.0127
C44 C 0.1757(4) 1.0726(12) -0.0767(5)
C45 C 0.1995(4) 1.0018(12) -0.1285(5)
H28 H 0.1806 0.9354 -0.1597
C46 C 0.3998(3) 1.0344(10) 0.0033(5)
H29 H 0.4169 1.0636 0.0444
C47 C 0.0234(4) 0.6779(13) 0.1080(6)
H30 H 0.0107 0.7842 0.1157
C48 C 0.2530(4) 1.2120(11) -0.0459(5)
H31 H 0.2713 1.2881 -0.0181
C49 C 0.0920(4) 0.9055(13) 0.0454(6)
H32 H 0.0883 0.9164 0.0912
C50 C 0.0719(4) 0.3146(12) 0.2556(5)
H33 H 0.0704 0.4239 0.2715
C51 C 0.0364(4) 0.3942(13) 0.1438(5)
C52 C 0.0406(4) 0.1042(12) 0.1826(5)
H34 H 0.0178 0.0673 0.1477
C53 C 0.0588(4) 0.4836(13) 0.0368(5)
H35 H 0.0704 0.4546 -0.0044
C54 C 0.1030(4) 0.8726(13) -0.0879(5)
H36 H 0.1057 0.8602 -0.1338
loop_
_geom_bond_atom_site_label_1
_geom_bond_atom_site_label_2
_geom_bond_site_symmetry_1
_geom_bond_site_symmetry_2
I1 I2 1_555 1_555
I3 I4 1_555 1_555
C1 H1 1_555 1_555
C2 H2 1_555 1_555
C3 C22 1_555 1_555
C4 C7 1_555 1_555
C5 C8 1_555 1_555
C6 H3 1_555 1_555
C7 C15 1_555 1_555
C8 C19 1_555 1_555
C9 C1 1_555 1_555
C10 H4 1_555 1_555
C11 H5 1_555 1_555
C12 C9 1_555 1_555
H6 C12 1_555 1_555
C13 H7 1_555 1_555
C14 C35 1_555 1_555
C15 C10 1_555 1_555
H8 C15 1_555 1_555
C16 C5 1_555 1_555
H9 C16 1_555 1_555
C17 C33 1_555 1_555
C18 C9 1_555 1_555
C19 H10 1_555 1_555
C20 C19 1_555 1_555
H11 C20 1_555 1_555
C21 C2 1_555 1_555
H12 C21 1_555 1_555
C22 C34 1_555 1_555
C23 C6 1_555 1_555
C24 C18 1_555 1_555
H13 C24 1_555 1_555
C25 C7 1_555 1_555
H14 C25 1_555 1_555
C26 C50 1_555 1_555
C27 C10 1_555 1_555
C28 C3 1_555 1_555
H15 C28 1_555 1_555
C29 C40 1_555 1_555
C30 H16 1_555 1_555
C31 C5 1_555 1_555
H17 C31 1_555 1_555
C32 H18 1_555 1_555
C33 H19 1_555 1_555
C34 H20 1_555 1_555
C35 C36 1_555 1_555
C36 H21 1_555 1_555
C37 C6 1_555 1_555
H22 C37 1_555 1_555
C38 C1 1_555 1_555
H23 C38 1_555 1_555
C39 H24 1_555 1_555
C40 H25 1_555 1_555
C41 C22 1_555 1_555
H26 C41 1_555 1_555
C42 C2 1_555 1_555
C43 H27 1_555 1_555
C44 C29 1_555 1_555
C45 C33 1_555 1_555
H28 C45 1_555 1_555
C46 C4 1_555 1_555
H29 C46 1_555 1_555
C47 C14 1_555 1_555
H30 C47 1_555 1_555
C48 C17 1_555 1_555
H31 C48 1_555 1_555
C49 C35 1_555 1_555
H32 C49 1_555 1_555
C50 C41 1_555 1_555
H33 C50 1_555 1_555
C51 C26 1_555 1_555
C52 C26 1_555 1_555
H34 C52 1_555 1_555
C53 C14 1_555 1_555
H35 C53 1_555 1_555
C54 C29 1_555 1_555
H36 C54 1_555 1_555
C3 C38 1_555 1_555
C4 C21 1_555 1_555
C8 C37 1_555 1_555
C11 C25 1_555 1_555
C11 C27 1_555 1_555
C12 C28 1_555 1_555
C13 C16 1_555 1_555
C13 C18 1_555 1_555
C17 C42 1_555 1_555
C20 C23 1_555 1_555
C23 C27 1_555 1_555
C24 C31 1_555 1_555
C30 C42 1_555 1_555
C30 C46 1_555 1_555
C32 C47 1_555 1_555
C32 C51 1_555 1_555
C34 C52 1_555 1_555
C36 C54 1_555 1_555
C39 C51 1_555 1_555
C39 C53 1_555 1_555
C40 C49 1_555 1_555
C43 C44 1_555 1_555
C43 C48 1_555 1_555
C44 C45 1_555 1_555

#END
