
#######################################################################
#
#                 Cambridge Crystallographic Data Centre
#                                CCDC 
#
#######################################################################
#
# If this CIF has been generated from an entry in the Cambridge 
# Structural Database, then it will include bibliographic, chemical, 
# crystal, experimental, refinement or atomic coordinate data resulting 
# from the CCDC's data processing and validation procedures.
#
#######################################################################

data_CEJRAL
_chemical_formula_moiety         'C9 H10 N4 O4'
_chemical_name_systematic        'Theophylline-7-acetic acid'
_symmetry_cell_setting           monoclinic
_symmetry_space_group_name_H-M   'P 21/n'
_symmetry_Int_Tables_number      14
_space_group_name_Hall           '-P 2yn'
loop_
_symmetry_equiv_pos_site_id
_symmetry_equiv_pos_as_xyz
1 x,y,z
2 1/2-x,1/2+y,1/2-z
3 -x,-y,-z
4 1/2+x,1/2-y,1/2+z
_cell_length_a                   9.5418(11)
_cell_length_b                   7.2415(9)
_cell_length_c                   14.4455(17)
_cell_angle_alpha                90
_cell_angle_beta                 98.657(2)
_cell_angle_gamma                90
_cell_volume                     986.768
_exptl_crystal_colour            colorless
_exptl_crystal_description       block
_cell_formula_units_Z            4
_exptl_crystal_recrystallization_method ethanol
loop_
_atom_site_label
_atom_site_type_symbol
_atom_site_fract_x
_atom_site_fract_y
_atom_site_fract_z
O1 O 1.1383(2) 0.1974(3) -0.11951(13)
O2 O 1.14132(18) 0.4062(3) 0.17905(12)
O3 O 0.99898(19) 0.4127(2) 0.38119(12)
H1 H 1.0578 0.3555 0.4174
O4 O 0.9641(2) 0.1406(3) 0.30767(13)
N1 N 1.1401(2) 0.2876(3) 0.03134(14)
N2 N 0.9283(2) 0.1936(3) -0.06421(14)
N3 N 0.8236(2) 0.3275(3) 0.14859(14)
N4 N 0.7160(2) 0.2160(3) 0.01225(14)
C1 C 1.0724(3) 0.2243(3) -0.05512(17)
C2 C 1.0750(3) 0.3386(3) 0.10872(17)
C3 C 0.9267(2) 0.3014(3) 0.09203(16)
C4 C 0.8576(2) 0.2344(3) 0.00961(16)
C5 C 0.7020(3) 0.2737(4) 0.09760(17)
H2 H 0.6155 0.2763 0.1198
C6 C 1.2947(3) 0.3099(4) 0.0413(2)
H3 H 1.3392 0.1907 0.0482
H4 H 1.3268 0.3836 0.0956
H5 H 1.3191 0.3698 -0.0133
C7 C 0.8507(3) 0.1393(4) -0.15540(18)
H6 H 0.8122 0.2472 -0.1885
H7 H 0.7750 0.0570 -0.1464
H8 H 0.9140 0.0780 -0.1911
C8 C 0.8453(3) 0.4134(4) 0.24087(16)
H9 H 0.7543 0.4272 0.2624
H10 H 0.8849 0.5358 0.2360
C9 C 0.9433(2) 0.3026(4) 0.31242(17)
loop_
_geom_bond_atom_site_label_1
_geom_bond_atom_site_label_2
_geom_bond_site_symmetry_1
_geom_bond_site_symmetry_2
O1 C1 1_555 1_555
O2 C2 1_555 1_555
O3 H1 1_555 1_555
O4 C9 1_555 1_555
N1 C1 1_555 1_555
N2 C1 1_555 1_555
N3 C3 1_555 1_555
N4 C4 1_555 1_555
C2 N1 1_555 1_555
C3 C2 1_555 1_555
C4 N2 1_555 1_555
C5 N3 1_555 1_555
H2 C5 1_555 1_555
C6 N1 1_555 1_555
H3 C6 1_555 1_555
H4 C6 1_555 1_555
H5 C6 1_555 1_555
C7 N2 1_555 1_555
H6 C7 1_555 1_555
H7 C7 1_555 1_555
H8 C7 1_555 1_555
C8 N3 1_555 1_555
H9 C8 1_555 1_555
H10 C8 1_555 1_555
C9 O3 1_555 1_555
N4 C5 1_555 1_555
C3 C4 1_555 1_555
C8 C9 1_555 1_555

#END
