
#######################################################################
#
#                 Cambridge Crystallographic Data Centre
#                                CCDC 
#
#######################################################################
#
# If this CIF has been generated from an entry in the Cambridge 
# Structural Database, then it will include bibliographic, chemical, 
# crystal, experimental, refinement or atomic coordinate data resulting 
# from the CCDC's data processing and validation procedures.
#
#######################################################################

data_CEJSAM
_chemical_compound_source        'flowers of Pueraia lobata'
_chemical_formula_moiety         'C23 H24 O11'
_chemical_name_systematic        Kakkalidone
_chemical_properties_biological  
'used in traditional Chinese medicine to counteract problems associated with alcohol drinking'
_symmetry_cell_setting           monoclinic
_symmetry_space_group_name_H-M   'P 21'
_symmetry_Int_Tables_number      4
_space_group_name_Hall           'P 2yb'
loop_
_symmetry_equiv_pos_site_id
_symmetry_equiv_pos_as_xyz
1 x,y,z
2 -x,1/2+y,-z
_cell_length_a                   6.081(3)
_cell_length_b                   7.838(3)
_cell_length_c                   22.600(10)
_cell_angle_alpha                90
_cell_angle_beta                 92.127(7)
_cell_angle_gamma                90
_cell_volume                     1076.44
_exptl_crystal_colour            colorless
_exptl_crystal_description       needle
_cell_formula_units_Z            2
_exptl_crystal_recrystallization_method ethanol
loop_
_atom_site_label
_atom_site_type_symbol
_atom_site_fract_x
_atom_site_fract_y
_atom_site_fract_z
O1 O 0.1894(7) 0.2059(5) 0.86402(18)
O2 O -0.3204(7) -0.0177(6) 0.94596(19)
O3 O -0.4970(7) -0.0876(6) 0.8431(2)
H1 H -0.4845 -0.0856 0.8793
O4 O -0.4877(8) -0.0509(7) 0.7241(2)
O5 O -0.1387(7) 0.0858(10) 0.6738(2)
O6 O 0.1268(9) 0.0524(7) 1.20172(19)
O7 O 0.1510(9) 0.2401(7) 0.6410(2)
O8 O -0.114(2) -0.088(2) 0.5731(6)
H2 H -0.1462 -0.1243 0.6058
O9 O 0.1962(11) -0.0703(10) 0.4947(3)
H3 H 0.2347 0.0002 0.4704
O10 O 0.5434(9) 0.1536(7) 0.52617(19)
H4 H 0.6020 0.2477 0.5248
O11 O 0.422(3) 0.5436(19) 0.5969(6)
H5 H 0.4102 0.5254 0.5612
C1 C 0.1875(10) 0.1919(8) 0.9234(3)
H6 H 0.3052 0.2387 0.9452
C2 C 0.0278(9) 0.1152(7) 0.9534(2)
C3 C -0.1621(10) 0.0470(8) 0.9214(3)
C4 C -0.1557(10) 0.0594(8) 0.8577(3)
C5 C -0.3268(10) -0.0057(8) 0.8202(3)
C6 C -0.3145(10) 0.0062(9) 0.7601(3)
C7 C -0.1361(12) 0.0833(11) 0.7353(3)
C8 C 0.0372(11) 0.1473(9) 0.7714(3)
H7 H 0.1594 0.1972 0.7549
C9 C 0.0226(10) 0.1347(7) 0.8309(3)
C10 C 0.0527(11) 0.1023(8) 1.0193(2)
C11 C -0.1194(12) 0.1527(9) 1.0545(3)
H8 H -0.2483 0.1963 1.0369
C12 C -0.0984(13) 0.1379(9) 1.1161(3)
H9 H -0.2137 0.1713 1.1393
C13 C 0.0927(12) 0.0737(10) 1.1426(3)
C14 C 0.2645(13) 0.0250(10) 1.1066(3)
H10 H 0.3946 -0.0178 1.1237
C15 C 0.2417(10) 0.0400(8) 1.0466(3)
H11 H 0.3576 0.0071 1.0235
C16 C -0.4614(15) -0.2237(10) 0.7048(4)
H12 H -0.5863 -0.2563 0.6802
H13 H -0.4501 -0.2976 0.7387
H14 H -0.3301 -0.2329 0.6827
C17 C -0.0528(15) 0.0998(12) 1.2377(3)
H15 H -0.0129 0.0799 1.2786
H16 H -0.1799 0.0326 1.2267
H17 H -0.0860 0.2185 1.2319
H18 H 0.1648 -0.0101 0.6637
C18 C 0.019(2) 0.055(3) 0.5800(6)
H19 H -0.0442 0.1580 0.5612
H20 H 0.3178 -0.0837 0.5788
C19 C 0.0626(12) 0.0742(10) 0.6462(3)
C20 C 0.2347(12) -0.0044(11) 0.5529(3)
C21 C 0.3345(13) 0.1693(10) 0.5523(3)
H21 H 0.2401 0.2463 0.5285
H22 H 0.4367 0.1433 0.6359
C22 C 0.512(3) 0.3946(19) 0.6266(8)
H23 H 0.5256 0.4159 0.6688
H24 H 0.6575 0.3712 0.6124
C23 C 0.3593(13) 0.2357(10) 0.6146(3)
O12? O -0.0329(19) -0.2068(15) 0.5998(4)
H25? H -0.0070 -0.2634 0.5703
O13? O 0.292(3) 0.5222(15) 0.5749(7)
H26? H 0.3213 0.4901 0.5416
C24? C 0.0626(12) 0.0742(10) 0.6462(3)
C25? C 0.2347(12) -0.0044(11) 0.5529(3)
H27? H 0.1625 0.0115 0.6734
C26? C 0.026(2) -0.040(2) 0.5906(5)
H28? H -0.0985 0.0110 0.5681
H29? H 0.3500 -0.0777 0.5706
C27? C 0.3593(13) 0.2357(10) 0.6146(3)
H30? H 0.4689 0.1716 0.6385
C28? C 0.403(3) 0.425(3) 0.6156(8)
H31? H 0.3698 0.4679 0.6546
H32? H 0.5593 0.4427 0.6106
loop_
_geom_bond_atom_site_label_1
_geom_bond_atom_site_label_2
_geom_bond_site_symmetry_1
_geom_bond_site_symmetry_2
O1 C1 1_555 1_555
O2 C3 1_555 1_555
O3 H1 1_555 1_555
O4 C6 1_555 1_555
O5 C7 1_555 1_555
O6 C13 1_555 1_555
O7 C19 1_555 1_555
O8 H2 1_555 1_555
O9 H3 1_555 1_555
O10 H4 1_555 1_555
O11 H5 1_555 1_555
C1 H6 1_555 1_555
C2 C1 1_555 1_555
C3 C2 1_555 1_555
C4 C3 1_555 1_555
C5 O3 1_555 1_555
C6 C5 1_555 1_555
C7 C6 1_555 1_555
C8 C7 1_555 1_555
H7 C8 1_555 1_555
C9 O1 1_555 1_555
C10 C2 1_555 1_555
C11 C10 1_555 1_555
H8 C11 1_555 1_555
C12 C11 1_555 1_555
H9 C12 1_555 1_555
C13 C12 1_555 1_555
C14 C13 1_555 1_555
H10 C14 1_555 1_555
C15 C10 1_555 1_555
H11 C15 1_555 1_555
C16 O4 1_555 1_555
H12 C16 1_555 1_555
H13 C16 1_555 1_555
H14 C16 1_555 1_555
C17 O6 1_555 1_555
H15 C17 1_555 1_555
H16 C17 1_555 1_555
H17 C17 1_555 1_555
H18 C19 1_555 1_555
C18 O8 1_555 1_555
H19 C18 1_555 1_555
H20 C20 1_555 1_555
C19 O5 1_555 1_555
C20 O9 1_555 1_555
C21 O10 1_555 1_555
H21 C21 1_555 1_555
H22 C23 1_555 1_555
C22 O11 1_555 1_555
H23 C22 1_555 1_555
H24 C22 1_555 1_555
C23 O7 1_555 1_555
C4 C5 1_555 1_555
C4 C9 1_555 1_555
C8 C9 1_555 1_555
C14 C15 1_555 1_555
C18 C19 1_555 1_555
C18 C20 1_555 1_555
C20 C21 1_555 1_555
C21 C23 1_555 1_555
C22 C23 1_555 1_555

#END
