
#######################################################################
#
#                 Cambridge Crystallographic Data Centre
#                                CCDC 
#
#######################################################################
#
# If this CIF has been generated from an entry in the Cambridge 
# Structural Database, then it will include bibliographic, chemical, 
# crystal, experimental, refinement or atomic coordinate data resulting 
# from the CCDC's data processing and validation procedures.
#
#######################################################################

data_CEJTIV
_chemical_formula_moiety         'C13 H10 Cl2 N3 O2 1+,Cl1 1-,2(H2 O1)'
_chemical_name_systematic        
"2,4-Dichloro-N'-isonicotinoylbenzohydrazide hydrochloride dihydrate"
_symmetry_cell_setting           monoclinic
_symmetry_space_group_name_H-M   'P 21/n'
_symmetry_Int_Tables_number      14
_space_group_name_Hall           '-P 2yn'
loop_
_symmetry_equiv_pos_site_id
_symmetry_equiv_pos_as_xyz
1 x,y,z
2 1/2-x,1/2+y,1/2-z
3 -x,-y,-z
4 1/2+x,1/2-y,1/2+z
_cell_length_a                   7.2069(3)
_cell_length_b                   48.5142(18)
_cell_length_c                   9.4688(3)
_cell_angle_alpha                90
_cell_angle_beta                 106.6580(10)
_cell_angle_gamma                90
_cell_volume                     3171.7
_exptl_crystal_description       prism
_cell_formula_units_Z            8
_exptl_crystal_recrystallization_method methanol
loop_
_atom_site_label
_atom_site_type_symbol
_atom_site_fract_x
_atom_site_fract_y
_atom_site_fract_z
Cl1 Cl 0.05743(9) 0.047655(17) -0.57568(7)
Cl2 Cl 0.49724(10) 0.106353(13) -0.12261(7)
O1 O 0.7045(2) 0.03923(4) 0.09494(18)
O2 O 0.4559(2) 0.03004(4) 0.35433(18)
N1 N 0.4767(3) 0.06682(4) 0.1443(2)
H1 H 0.3652 0.0745 0.1099
N2 N 0.5763(3) 0.06992(4) 0.2919(2)
H2 H 0.6487 0.0841 0.3215
N3 N 0.8940(3) 0.06112(4) 0.8302(2)
H3 H 0.9636 0.0630 0.9202
C1 C 0.2029(3) 0.04891(6) -0.3945(3)
C2 C 0.2803(3) 0.07408(6) -0.3377(3)
H4 H 0.2573 0.0899 -0.3958
C3 C 0.3923(3) 0.07510(5) -0.1925(3)
C4 C 0.4273(3) 0.05160(5) -0.1037(3)
C5 C 0.3490(3) 0.02666(5) -0.1655(3)
H5 H 0.3725 0.0107 -0.1084
C6 C 0.2371(3) 0.02519(6) -0.3103(3)
H6 H 0.1854 0.0084 -0.3508
C7 C 0.5515(3) 0.05208(5) 0.0541(3)
C8 C 0.5583(3) 0.05053(5) 0.3882(3)
C9 C 0.6761(3) 0.05533(5) 0.5456(3)
C10 C 0.7487(3) 0.08119(5) 0.5992(3)
H7 H 0.7222 0.0966 0.5384
C11 C 0.8598(3) 0.08343(5) 0.7430(3)
H8 H 0.9114 0.1004 0.7800
C12 C 0.8248(3) 0.03614(5) 0.7835(3)
H9 H 0.8516 0.0212 0.8474
C13 C 0.7134(3) 0.03278(5) 0.6397(3)
H10 H 0.6636 0.0155 0.6060
Cl3 Cl 1.02234(9) 0.182927(14) 1.25016(6)
Cl4 Cl 0.67449(10) 0.247945(13) 0.79434(7)
O3 O 0.4127(2) 0.20642(4) 0.57283(18)
O4 O 0.6610(2) 0.21802(3) 0.32018(18)
N4 N 0.6420(3) 0.17923(4) 0.5217(2)
H11 H 0.7526 0.1713 0.5555
N5 N 0.5423(3) 0.17720(4) 0.3741(2)
H12 H 0.4727 0.1629 0.3410
N6 N 0.2111(3) 0.19117(4) -0.1592(2)
H13 H 0.1413 0.1901 -0.2495
C14 C 0.8912(3) 0.18651(5) 1.0656(3)
C15 C 0.8396(3) 0.21255(5) 1.0091(3)
H14 H 0.8741 0.2281 1.0684
C16 C 0.7354(3) 0.21497(5) 0.8622(2)
C17 C 0.6835(3) 0.19196(5) 0.7718(2)
C18 C 0.7387(3) 0.16611(5) 0.8331(3)
H15 H 0.7061 0.1505 0.7740
C19 C 0.8414(3) 0.16309(5) 0.9805(3)
H16 H 0.8758 0.1457 1.0209
C20 C 0.5644(3) 0.19378(5) 0.6133(3)
C21 C 0.5558(3) 0.19788(5) 0.2828(3)
C22 C 0.4321(3) 0.19455(5) 0.1253(2)
C23 C 0.3762(3) 0.16888(5) 0.0605(3)
H17 H 0.4140 0.1527 0.1140
C24 C 0.2646(3) 0.16788(5) -0.0836(3)
H18 H 0.2262 0.1509 -0.1286
C25 C 0.2613(3) 0.21607(5) -0.1006(3)
H19 H 0.2198 0.2319 -0.1564
C26 C 0.3749(3) 0.21816(5) 0.0428(3)
H20 H 0.4131 0.2354 0.0841
Cl5 Cl 0.02731(9) 0.142970(12) 0.58396(6)
Cl6 Cl 0.09696(9) 0.101013(13) 0.09515(7)
O5 O 0.1005(2) 0.02736(4) 0.09645(18)
H21 H 0.2009 0.0312 0.1673
H22 H -0.0070 0.0297 0.1276
O6 O 0.7897(3) 0.11604(4) 0.27749(19)
H23 H 0.8764 0.1117 0.2220
H24 H 0.8541 0.1244 0.3594
O7 O 0.3407(2) 0.12935(4) 0.40175(19)
H25 H 0.2763 0.1211 0.3385
H26 H 0.2588 0.1354 0.4582
O8 O 0.0225(2) 0.21697(3) 0.57408(17)
H27 H 0.1299 0.2159 0.5365
H28 H -0.0719 0.2152 0.4998
loop_
_geom_bond_atom_site_label_1
_geom_bond_atom_site_label_2
_geom_bond_site_symmetry_1
_geom_bond_site_symmetry_2
Cl1 C1 1_555 1_555
Cl2 C3 1_555 1_555
O1 C7 1_555 1_555
O2 C8 1_555 1_555
N1 H1 1_555 1_555
N2 N1 1_555 1_555
H2 N2 1_555 1_555
N3 H3 1_555 1_555
C1 C2 1_555 1_555
C2 H4 1_555 1_555
C3 C2 1_555 1_555
C4 C3 1_555 1_555
C5 C4 1_555 1_555
H5 C5 1_555 1_555
C6 C1 1_555 1_555
H6 C6 1_555 1_555
C7 N1 1_555 1_555
C8 N2 1_555 1_555
C9 C8 1_555 1_555
C10 C9 1_555 1_555
H7 C10 1_555 1_555
C11 N3 1_555 1_555
H8 C11 1_555 1_555
C12 N3 1_555 1_555
H9 C12 1_555 1_555
C13 C9 1_555 1_555
H10 C13 1_555 1_555
Cl3 C14 1_555 1_555
Cl4 C16 1_555 1_555
O3 C20 1_555 1_555
O4 C21 1_555 1_555
N4 H11 1_555 1_555
N5 N4 1_555 1_555
H12 N5 1_555 1_555
N6 H13 1_555 1_555
C14 C15 1_555 1_555
C15 H14 1_555 1_555
C16 C15 1_555 1_555
C17 C16 1_555 1_555
C18 C17 1_555 1_555
H15 C18 1_555 1_555
C19 C14 1_555 1_555
H16 C19 1_555 1_555
C20 N4 1_555 1_555
C21 N5 1_555 1_555
C22 C21 1_555 1_555
C23 C22 1_555 1_555
H17 C23 1_555 1_555
C24 N6 1_555 1_555
H18 C24 1_555 1_555
C25 N6 1_555 1_555
H19 C25 1_555 1_555
C26 C22 1_555 1_555
H20 C26 1_555 1_555
O5 H21 1_555 1_555
H22 O5 1_555 1_555
O6 H23 1_555 1_555
H24 O6 1_555 1_555
O7 H25 1_555 1_555
H26 O7 1_555 1_555
O8 H27 1_555 1_555
H28 O8 1_555 1_555
C4 C7 1_555 1_555
C5 C6 1_555 1_555
C10 C11 1_555 1_555
C12 C13 1_555 1_555
C17 C20 1_555 1_555
C18 C19 1_555 1_555
C23 C24 1_555 1_555
C25 C26 1_555 1_555

#END
