
#######################################################################
#
#                 Cambridge Crystallographic Data Centre
#                                CCDC 
#
#######################################################################
#
# If this CIF has been generated from an entry in the Cambridge 
# Structural Database, then it will include bibliographic, chemical, 
# crystal, experimental, refinement or atomic coordinate data resulting 
# from the CCDC's data processing and validation procedures.
#
#######################################################################

data_CEJWUM
_chemical_formula_moiety         'C11 H15 N1 O3'
_chemical_name_systematic        
2-(acetyloxy)-8-methylidene-2-azabicyclo[3.3.1]nonan-3-one
_symmetry_cell_setting           monoclinic
_symmetry_space_group_name_H-M   'P 21'
_symmetry_Int_Tables_number      4
_space_group_name_Hall           'P 2yb'
loop_
_symmetry_equiv_pos_site_id
_symmetry_equiv_pos_as_xyz
1 x,y,z
2 -x,1/2+y,-z
_cell_length_a                   7.4542(16)
_cell_length_b                   7.4534(16)
_cell_length_c                   9.975(2)
_cell_angle_alpha                90
_cell_angle_beta                 101.466(5)
_cell_angle_gamma                90
_cell_volume                     543.142
_exptl_crystal_colour            colorless
_exptl_crystal_description       prismatic
_cell_formula_units_Z            2
loop_
_atom_site_label
_atom_site_type_symbol
_atom_site_fract_x
_atom_site_fract_y
_atom_site_fract_z
N1 N 0.1869(4) 0.2723(3) 0.3081(3)
O1 O -0.0269(3) 0.4856(3) 0.3105(2)
O2 O 0.4035(3) 0.4800(4) 0.4751(2)
O3 O 0.2930(3) 0.4033(3) 0.2568(2)
C1 C 0.0159(5) 0.3284(5) 0.3176(3)
C2 C -0.1090(5) 0.1816(5) 0.3491(4)
H1 H -0.2331 0.2106 0.3038
H2 H -0.1057 0.1823 0.4468
C3 C -0.0664(4) -0.0074(5) 0.3079(3)
H3 H -0.1291 -0.0923 0.3579
C4 C -0.1267(4) -0.0448(5) 0.1552(4)
H4 H -0.2566 -0.0202 0.1278
H5 H -0.1077 -0.1709 0.1383
C5 C -0.0228(4) 0.0678(5) 0.0681(3)
H6 H -0.0512 0.0249 -0.0256
H7 H -0.0630 0.1915 0.0684
C6 C 0.1793(4) 0.0595(4) 0.1195(3)
C7 C 0.2344(4) 0.0908(4) 0.2715(3)
H8 H 0.3670 0.0741 0.2997
C8 C 0.1378(5) -0.0384(5) 0.3503(3)
H9 H 0.1770 -0.0182 0.4478
H10 H 0.1673 -0.1610 0.3305
C9 C 0.2974(5) 0.0233(6) 0.0427(4)
H11 H 0.2571 0.0007 -0.0501
H12 H 0.4218 0.0201 0.0808
C10 C 0.4022(4) 0.4996(4) 0.3578(3)
C11 C 0.5136(5) 0.6281(4) 0.2947(4)
H13 H 0.5319 0.7359 0.3483
H14 H 0.4507 0.6562 0.2036
H15 H 0.6300 0.5751 0.2916
loop_
_geom_bond_atom_site_label_1
_geom_bond_atom_site_label_2
_geom_bond_site_symmetry_1
_geom_bond_site_symmetry_2
N1 O3 1_555 1_555
O1 C1 1_555 1_555
O2 C10 1_555 1_555
O3 C10 1_555 1_555
C1 N1 1_555 1_555
C2 C1 1_555 1_555
H1 C2 1_555 1_555
H2 C2 1_555 1_555
C3 C2 1_555 1_555
H3 C3 1_555 1_555
C4 C3 1_555 1_555
H4 C4 1_555 1_555
H5 C4 1_555 1_555
C5 C4 1_555 1_555
H6 C5 1_555 1_555
H7 C5 1_555 1_555
C6 C5 1_555 1_555
C7 N1 1_555 1_555
H8 C7 1_555 1_555
C8 C3 1_555 1_555
H9 C8 1_555 1_555
H10 C8 1_555 1_555
C9 C6 1_555 1_555
H11 C9 1_555 1_555
H12 C9 1_555 1_555
C10 C11 1_555 1_555
C11 H13 1_555 1_555
H14 C11 1_555 1_555
H15 C11 1_555 1_555
C6 C7 1_555 1_555
C7 C8 1_555 1_555

#END
