
#######################################################################
#
#                 Cambridge Crystallographic Data Centre
#                                CCDC 
#
#######################################################################
#
# If this CIF has been generated from an entry in the Cambridge 
# Structural Database, then it will include bibliographic, chemical, 
# crystal, experimental, refinement or atomic coordinate data resulting 
# from the CCDC's data processing and validation procedures.
#
#######################################################################

data_CEJXIB
_chemical_formula_moiety         'C17 H20 N2 O3'
_chemical_name_systematic        
2-(acetyloxy)-6-benzyl-8-methylidene-2,6-diazabicyclo[3.3.1]nonan-3-one
_symmetry_cell_setting           triclinic
_symmetry_space_group_name_H-M   'P -1'
_symmetry_Int_Tables_number      2
_space_group_name_Hall           '-P 1'
loop_
_symmetry_equiv_pos_site_id
_symmetry_equiv_pos_as_xyz
1 x,y,z
2 -x,-y,-z
_cell_length_a                   6.4628(11)
_cell_length_b                   9.2953(15)
_cell_length_c                   13.627(2)
_cell_angle_alpha                105.066(3)
_cell_angle_beta                 94.680(3)
_cell_angle_gamma                94.222(4)
_cell_volume                     784.016
_exptl_crystal_colour            colorless
_exptl_crystal_description       prismatic
_cell_formula_units_Z            2
loop_
_atom_site_label
_atom_site_type_symbol
_atom_site_fract_x
_atom_site_fract_y
_atom_site_fract_z
N1 N 0.7017(2) 0.39431(14) 0.62559(10)
N2 N 0.6962(2) 0.70474(13) 0.82955(9)
O1 O 0.3524(2) 0.33845(15) 0.60733(10)
O2 O 0.7175(2) 0.24466(11) 0.63007(8)
O3 O 0.7664(3) 0.18245(15) 0.46480(10)
C1 C 0.5015(3) 0.43222(19) 0.62983(11)
C2 C 0.4799(3) 0.59802(19) 0.65788(12)
H1 H 0.3598 0.6159 0.6961
H2 H 0.4509 0.6276 0.5953
C3 C 0.6683(3) 0.69932(17) 0.72074(12)
H3 H 0.6536 0.8013 0.7155
C4 C 0.8617(3) 0.64835(18) 0.67165(13)
H4 H 0.9832 0.7157 0.7057
H5 H 0.8472 0.6481 0.6002
C5 C 0.8867(3) 0.49094(18) 0.68155(12)
H6 H 1.0121 0.4553 0.6512
C6 C 0.9053(3) 0.49224(17) 0.79246(12)
C7 C 0.7311(3) 0.56026(16) 0.84824(11)
H7 H 0.6043 0.4928 0.8262
H8 H 0.7642 0.5735 0.9210
C8 C 1.0592(3) 0.4370(2) 0.83431(17)
H9 H 1.0649 0.4385 0.9030
H10 H 1.1629 0.3963 0.7954
C9 C 0.5278(3) 0.77115(18) 0.88547(12)
H11 H 0.4049 0.6994 0.8692
H12 H 0.4931 0.8583 0.8633
C10 C 0.5849(3) 0.81717(16) 0.99959(12)
C11 C 0.4391(4) 0.7961(2) 1.06422(15)
H13 H 0.3067 0.7499 1.0372
C12 C 0.4879(6) 0.8430(3) 1.16828(18)
H14 H 0.3879 0.8278 1.2109
C13 C 0.6796(6) 0.9110(3) 1.21000(17)
H15 H 0.7108 0.9431 1.2806
C14 C 0.8270(4) 0.9319(3) 1.14651(17)
H16 H 0.9591 0.9783 1.1741
C15 C 0.7791(3) 0.8841(2) 1.04178(14)
H17 H 0.8803 0.8976 0.9993
C16 C 0.7516(3) 0.14774(17) 0.54160(12)
C17 C 0.7658(3) -0.00180(19) 0.55985(15)
H18 H 0.7511 -0.0768 0.4956
H19 H 0.6567 -0.0217 0.5997
H20 H 0.8989 -0.0038 0.5961
loop_
_geom_bond_atom_site_label_1
_geom_bond_atom_site_label_2
_geom_bond_site_symmetry_1
_geom_bond_site_symmetry_2
N1 O2 1_555 1_555
N2 C3 1_555 1_555
O1 C1 1_555 1_555
O2 C16 1_555 1_555
O3 C16 1_555 1_555
C1 N1 1_555 1_555
C2 C1 1_555 1_555
H1 C2 1_555 1_555
H2 C2 1_555 1_555
C3 C2 1_555 1_555
H3 C3 1_555 1_555
C4 C3 1_555 1_555
H4 C4 1_555 1_555
H5 C4 1_555 1_555
C5 N1 1_555 1_555
H6 C5 1_555 1_555
C6 C5 1_555 1_555
C7 N2 1_555 1_555
H7 C7 1_555 1_555
H8 C7 1_555 1_555
C8 C6 1_555 1_555
H9 C8 1_555 1_555
H10 C8 1_555 1_555
C9 N2 1_555 1_555
H11 C9 1_555 1_555
H12 C9 1_555 1_555
C10 C9 1_555 1_555
C11 C10 1_555 1_555
H13 C11 1_555 1_555
C12 C11 1_555 1_555
H14 C12 1_555 1_555
C13 C12 1_555 1_555
H15 C13 1_555 1_555
C14 C13 1_555 1_555
H16 C14 1_555 1_555
C15 C10 1_555 1_555
H17 C15 1_555 1_555
C16 C17 1_555 1_555
C17 H18 1_555 1_555
H19 C17 1_555 1_555
H20 C17 1_555 1_555
C4 C5 1_555 1_555
C6 C7 1_555 1_555
C14 C15 1_555 1_555

#END
