
#######################################################################
#
#                 Cambridge Crystallographic Data Centre
#                                CCDC 
#
#######################################################################
#
# If this CIF has been generated from an entry in the Cambridge 
# Structural Database, then it will include bibliographic, chemical, 
# crystal, experimental, refinement or atomic coordinate data resulting 
# from the CCDC's data processing and validation procedures.
#
#######################################################################

data_CEJXUN
_chemical_formula_moiety         'C17 H19 N1 O3'
_chemical_name_systematic        
2-(acetyloxy)-8-benzylidene-2-azabicyclo[3.3.1]nonan-3-one
_symmetry_cell_setting           monoclinic
_symmetry_space_group_name_H-M   'P 21/c'
_symmetry_Int_Tables_number      14
_space_group_name_Hall           '-P 2ybc'
loop_
_symmetry_equiv_pos_site_id
_symmetry_equiv_pos_as_xyz
1 x,y,z
2 -x,1/2+y,1/2-z
3 -x,-y,-z
4 x,1/2-y,1/2+z
_cell_length_a                   10.1903(15)
_cell_length_b                   12.9589(19)
_cell_length_c                   12.3832(18)
_cell_angle_alpha                90
_cell_angle_beta                 112.912(3)
_cell_angle_gamma                90
_cell_volume                     1506.25
_exptl_crystal_colour            colorless
_exptl_crystal_description       prismatic
_cell_formula_units_Z            4
loop_
_atom_site_label
_atom_site_type_symbol
_atom_site_fract_x
_atom_site_fract_y
_atom_site_fract_z
N1 N 0.24582(17) -0.08272(11) 0.43231(12)
O1 O 0.09803(16) -0.21250(11) 0.43162(13)
O2 O 0.18563(14) -0.02542(10) 0.49887(10)
O3 O 0.35461(15) -0.09316(12) 0.65966(12)
C1 C 0.30394(17) -0.01500(13) 0.36699(14)
H1 H 0.3700 0.0343 0.4211
C2 C 0.1785(2) -0.17447(14) 0.39170(15)
C3 C 0.2193(2) -0.22686(14) 0.30060(17)
H2 H 0.1354 -0.2611 0.2454
H3 H 0.2886 -0.2801 0.3394
C4 C 0.2807(2) -0.15918(15) 0.23114(17)
H4 H 0.3330 -0.2033 0.1973
C5 C 0.3848(2) -0.08320(14) 0.31432(18)
H5 H 0.4597 -0.1201 0.3759
H6 H 0.4281 -0.0413 0.2722
C6 C 0.18581(17) 0.04302(13) 0.27351(14)
C7 C 0.08652(19) -0.02494(14) 0.17770(15)
H7 H 0.0259 0.0179 0.1134
H8 H 0.0258 -0.0630 0.2076
C8 C 0.1674(2) -0.10079(15) 0.13229(16)
H9 H 0.1007 -0.1497 0.0799
H10 H 0.2121 -0.0634 0.0878
C9 C 0.16975(18) 0.14406(14) 0.27481(15)
H11 H 0.0938 0.1720 0.2121
C10 C 0.25865(19) 0.21785(13) 0.36452(15)
C11 C 0.3872(2) 0.25229(17) 0.36662(18)
H12 H 0.4216 0.2261 0.3127
C12 C 0.4662(3) 0.32491(19) 0.4471(2)
H13 H 0.5522 0.3478 0.4461
C13 C 0.4198(3) 0.36312(18) 0.5273(2)
H14 H 0.4730 0.4124 0.5812
C14 C 0.2939(3) 0.3286(2) 0.5284(2)
H15 H 0.2619 0.3536 0.5843
C15 C 0.2137(2) 0.25681(18) 0.44750(19)
H16 H 0.1277 0.2344 0.4491
C16 C 0.25328(19) -0.04003(14) 0.61674(15)
C17 C 0.1797(2) 0.01959(19) 0.67811(19)
H17 H 0.2384 0.0223 0.7603
H18 H 0.0908 -0.0132 0.6669
H19 H 0.1619 0.0884 0.6470
loop_
_geom_bond_atom_site_label_1
_geom_bond_atom_site_label_2
_geom_bond_site_symmetry_1
_geom_bond_site_symmetry_2
N1 O2 1_555 1_555
O1 C2 1_555 1_555
O2 C16 1_555 1_555
O3 C16 1_555 1_555
C1 N1 1_555 1_555
H1 C1 1_555 1_555
C2 N1 1_555 1_555
C3 C2 1_555 1_555
H2 C3 1_555 1_555
H3 C3 1_555 1_555
C4 C3 1_555 1_555
H4 C4 1_555 1_555
C5 C1 1_555 1_555
H5 C5 1_555 1_555
H6 C5 1_555 1_555
C6 C1 1_555 1_555
C7 C6 1_555 1_555
H7 C7 1_555 1_555
H8 C7 1_555 1_555
C8 C4 1_555 1_555
H9 C8 1_555 1_555
H10 C8 1_555 1_555
C9 C6 1_555 1_555
H11 C9 1_555 1_555
C10 C9 1_555 1_555
C11 C10 1_555 1_555
H12 C11 1_555 1_555
C12 C11 1_555 1_555
H13 C12 1_555 1_555
C13 C12 1_555 1_555
H14 C13 1_555 1_555
C14 C13 1_555 1_555
H15 C14 1_555 1_555
C15 C10 1_555 1_555
H16 C15 1_555 1_555
C16 C17 1_555 1_555
C17 H17 1_555 1_555
H18 C17 1_555 1_555
H19 C17 1_555 1_555
C4 C5 1_555 1_555
C7 C8 1_555 1_555
C14 C15 1_555 1_555

#END
