
#######################################################################
#
#                 Cambridge Crystallographic Data Centre
#                                CCDC 
#
#######################################################################
#
# If this CIF has been generated from an entry in the Cambridge 
# Structural Database, then it will include bibliographic, chemical, 
# crystal, experimental, refinement or atomic coordinate data resulting 
# from the CCDC's data processing and validation procedures.
#
#######################################################################

data_CEJZID
_chemical_formula_moiety         'C16 H18 O2'
_chemical_name_systematic        
3-butyl-3a,9b-dihydronaphtho[1,2-b]furan-2(3H)-one
_symmetry_cell_setting           monoclinic
_symmetry_space_group_name_H-M   'P 21'
_symmetry_Int_Tables_number      4
_space_group_name_Hall           'P 2yb'
loop_
_symmetry_equiv_pos_site_id
_symmetry_equiv_pos_as_xyz
1 x,y,z
2 -x,1/2+y,-z
_cell_length_a                   10.0254(5)
_cell_length_b                   10.2704(4)
_cell_length_c                   14.0606(8)
_cell_angle_alpha                90
_cell_angle_beta                 108.791(6)
_cell_angle_gamma                90
_cell_volume                     1370.58
_exptl_crystal_colour            colorless
_exptl_crystal_description       plate
_cell_formula_units_Z            4
loop_
_atom_site_label
_atom_site_type_symbol
_atom_site_fract_x
_atom_site_fract_y
_atom_site_fract_z
O1 O 0.8321(2) 0.4753(2) 0.48630(16)
O2 O 0.89165(19) 0.6250(2) 0.60736(15)
C1 C 0.9140(3) 0.5574(3) 0.5317(2)
C2 C 1.0058(3) 0.7213(3) 0.6486(2)
H1 H 0.973(4) 0.806(4) 0.621(3)
C3 C 1.0326(3) 0.7287(3) 0.7598(2)
C4 C 0.9548(3) 0.8134(3) 0.7984(2)
H2 H 0.888(4) 0.866(4) 0.750(3)
C5 C 0.9759(4) 0.8164(4) 0.9011(3)
H3 H 0.931(5) 0.873(5) 0.936(4)
C6 C 1.0754(4) 0.7352(4) 0.9653(2)
H4 H 1.098(5) 0.729(5) 1.037(4)
C7 C 1.1538(4) 0.6514(4) 0.9271(3)
H5 H 1.230(5) 0.598(5) 0.970(4)
C8 C 1.1354(3) 0.6480(3) 0.8249(2)
C9 C 1.2220(3) 0.5650(3) 0.7831(3)
H6 H 1.289(4) 0.507(4) 0.829(3)
C10 C 1.2197(3) 0.5746(3) 0.6889(3)
H7 H 1.278(5) 0.515(5) 0.665(4)
C11 C 1.1272(3) 0.6693(3) 0.6152(2)
H8 H 1.185(4) 0.751(4) 0.607(3)
C12 C 1.0487(3) 0.6032(3) 0.5146(2)
H9 H 1.093(4) 0.526(4) 0.499(3)
C13 C 1.0131(3) 0.6955(3) 0.4235(2)
H10 H 1.103(4) 0.733(4) 0.424(3)
H11 H 0.953(5) 0.771(5) 0.432(3)
C14 C 0.9431(3) 0.6283(3) 0.3230(2)
H12 H 1.000(4) 0.555(4) 0.312(3)
H13 H 0.855(4) 0.592(4) 0.324(3)
C15 C 0.9152(5) 0.7217(4) 0.2350(3)
H14 H 1.013(6) 0.756(6) 0.232(4)
H15 H 0.869(7) 0.792(8) 0.247(5)
C16 C 0.8381(5) 0.6585(5) 0.1351(3)
H16 H 0.827(6) 0.734(7) 0.079(5)
H17 H 0.903(6) 0.585(7) 0.124(5)
H18 H 0.740(6) 0.617(6) 0.136(4)
O3 O 0.2705(2) 0.4637(2) 0.41820(16)
O4 O 0.46346(19) 0.4691(2) 0.55194(14)
C17 C 0.3779(3) 0.4103(3) 0.4688(2)
C18 C 0.5840(3) 0.3824(3) 0.6021(2)
H19 H 0.668(4) 0.412(3) 0.582(3)
C19 C 0.6172(3) 0.4000(3) 0.7134(2)
C20 C 0.7120(3) 0.4942(3) 0.7647(2)
H20 H 0.764(4) 0.546(4) 0.729(3)
C21 C 0.7346(3) 0.5157(3) 0.8666(2)
H21 H 0.798(5) 0.585(5) 0.899(4)
C22 C 0.6614(3) 0.4426(3) 0.9164(2)
H22 H 0.674(4) 0.462(5) 0.991(3)
C23 C 0.5675(3) 0.3468(3) 0.8657(2)
H23 H 0.518(4) 0.291(4) 0.901(3)
C24 C 0.5450(3) 0.3236(3) 0.7635(2)
C25 C 0.4530(3) 0.2189(3) 0.7097(2)
H24 H 0.393(4) 0.175(4) 0.742(3)
C26 C 0.4476(3) 0.1820(3) 0.6180(2)
H25 H 0.389(4) 0.109(5) 0.581(3)
C27 C 0.5317(3) 0.2474(3) 0.5603(2)
H26 H 0.613(4) 0.193(4) 0.561(3)
C28 C 0.4378(3) 0.2808(3) 0.4526(2)
H27 H 0.361(3) 0.221(3) 0.428(2)
C29 C 0.5216(3) 0.2954(3) 0.3782(2)
H28 H 0.605(4) 0.359(4) 0.408(3)
H29 H 0.559(4) 0.210(4) 0.375(3)
C30 C 0.4361(3) 0.3453(3) 0.2751(2)
H30 H 0.398(4) 0.434(4) 0.279(3)
H31 H 0.354(4) 0.286(4) 0.244(3)
C31 C 0.5230(3) 0.3574(4) 0.2042(2)
H32 H 0.608(4) 0.417(4) 0.239(3)
H33 H 0.552(5) 0.271(5) 0.192(4)
C32 C 0.4380(4) 0.4180(5) 0.1046(3)
H34 H 0.358(5) 0.366(5) 0.070(4)
H35 H 0.397(6) 0.510(6) 0.120(4)
H36 H 0.496(6) 0.430(6) 0.059(5)
loop_
_geom_bond_atom_site_label_1
_geom_bond_atom_site_label_2
_geom_bond_site_symmetry_1
_geom_bond_site_symmetry_2
O1 C1 1_555 1_555
O2 C1 1_555 1_555
C1 C12 1_555 1_555
C2 O2 1_555 1_555
H1 C2 1_555 1_555
C3 C2 1_555 1_555
C4 C3 1_555 1_555
H2 C4 1_555 1_555
C5 C4 1_555 1_555
H3 C5 1_555 1_555
C6 C5 1_555 1_555
H4 C6 1_555 1_555
C7 C6 1_555 1_555
H5 C7 1_555 1_555
C8 C3 1_555 1_555
C9 C8 1_555 1_555
H6 C9 1_555 1_555
C10 C9 1_555 1_555
H7 C10 1_555 1_555
C11 C2 1_555 1_555
H8 C11 1_555 1_555
C12 C11 1_555 1_555
H9 C12 1_555 1_555
C13 C12 1_555 1_555
H10 C13 1_555 1_555
H11 C13 1_555 1_555
C14 C13 1_555 1_555
H12 C14 1_555 1_555
H13 C14 1_555 1_555
C15 C14 1_555 1_555
H14 C15 1_555 1_555
H15 C15 1_555 1_555
C16 C15 1_555 1_555
H16 C16 1_555 1_555
H17 C16 1_555 1_555
H18 C16 1_555 1_555
O3 C17 1_555 1_555
O4 C17 1_555 1_555
C17 C28 1_555 1_555
C18 O4 1_555 1_555
H19 C18 1_555 1_555
C19 C18 1_555 1_555
C20 C19 1_555 1_555
H20 C20 1_555 1_555
C21 C20 1_555 1_555
H21 C21 1_555 1_555
C22 C21 1_555 1_555
H22 C22 1_555 1_555
C23 C22 1_555 1_555
H23 C23 1_555 1_555
C24 C19 1_555 1_555
C25 C24 1_555 1_555
H24 C25 1_555 1_555
C26 C25 1_555 1_555
H25 C26 1_555 1_555
C27 C18 1_555 1_555
H26 C27 1_555 1_555
C28 C27 1_555 1_555
H27 C28 1_555 1_555
C29 C28 1_555 1_555
H28 C29 1_555 1_555
H29 C29 1_555 1_555
C30 C29 1_555 1_555
H30 C30 1_555 1_555
H31 C30 1_555 1_555
C31 C30 1_555 1_555
H32 C31 1_555 1_555
H33 C31 1_555 1_555
C32 C31 1_555 1_555
H34 C32 1_555 1_555
H35 C32 1_555 1_555
H36 C32 1_555 1_555
C7 C8 1_555 1_555
C10 C11 1_555 1_555
C23 C24 1_555 1_555
C26 C27 1_555 1_555

#END
