
#######################################################################
#
#                 Cambridge Crystallographic Data Centre
#                                CCDC 
#
#######################################################################
#
# If this CIF has been generated from an entry in the Cambridge 
# Structural Database, then it will include bibliographic, chemical, 
# crystal, experimental, refinement or atomic coordinate data resulting 
# from the CCDC's data processing and validation procedures.
#
#######################################################################

data_CEJZEZ
_chemical_formula_moiety         'C16 H18 O3'
_chemical_name_systematic        
3-butyl-3a,4,9,9a-tetrahydro-4,9-epoxynaphtho[2,3-c]furan-1(3H)-one
_symmetry_cell_setting           monoclinic
_symmetry_space_group_name_H-M   'P 21/c'
_symmetry_Int_Tables_number      14
_space_group_name_Hall           '-P 2ybc'
loop_
_symmetry_equiv_pos_site_id
_symmetry_equiv_pos_as_xyz
1 x,y,z
2 -x,1/2+y,1/2-z
3 -x,-y,-z
4 x,1/2-y,1/2+z
_cell_length_a                   9.3270(4)
_cell_length_b                   16.5345(6)
_cell_length_c                   8.3303(3)
_cell_angle_alpha                90
_cell_angle_beta                 92.288(4)
_cell_angle_gamma                90
_cell_volume                     1283.65
_exptl_crystal_colour            colorless
_exptl_crystal_description       prism
_cell_formula_units_Z            4
loop_
_atom_site_label
_atom_site_type_symbol
_atom_site_fract_x
_atom_site_fract_y
_atom_site_fract_z
O1 O -0.02002(10) 0.37600(6) 0.04075(12)
O2 O 0.10293(10) 0.30073(5) 0.21961(11)
O3 O 0.31393(9) 0.45799(5) 0.24126(10)
C1 C 0.04378(13) 0.37080(8) 0.16852(16)
C2 C 0.17323(13) 0.30783(7) 0.37979(15)
H1 H 0.1135(17) 0.2777(9) 0.4499(18)
C3 C 0.16592(13) 0.39841(7) 0.42591(15)
H2 H 0.1282(16) 0.4040(9) 0.5289(19)
C4 C 0.30770(13) 0.44686(8) 0.41365(15)
H3 H 0.3955(18) 0.4223(10) 0.455(2)
C5 C 0.27900(13) 0.53246(8) 0.46944(15)
C6 C 0.31321(13) 0.57507(8) 0.60839(16)
H4 H 0.3663(18) 0.5512(10) 0.695(2)
C7 C 0.26523(14) 0.65542(8) 0.61707(16)
H5 H 0.2890(19) 0.6859(11) 0.711(2)
C8 C 0.18380(14) 0.69007(8) 0.49180(17)
H6 H 0.1524(19) 0.7455(11) 0.498(2)
C9 C 0.14630(13) 0.64595(8) 0.35266(16)
H7 H 0.0866(18) 0.6693(10) 0.267(2)
C10 C 0.19655(13) 0.56739(8) 0.34370(15)
C11 C 0.17876(13) 0.50094(8) 0.21989(15)
H8 H 0.1615(17) 0.5154(10) 0.109(2)
C12 C 0.07341(13) 0.43791(7) 0.28874(15)
H9 H -0.0169(19) 0.4609(10) 0.318(2)
C13 C 0.32138(13) 0.27009(8) 0.37358(15)
H10 H 0.3754(18) 0.2987(10) 0.292(2)
H11 H 0.3700(18) 0.2771(10) 0.477(2)
C14 C 0.31646(14) 0.17970(8) 0.33401(16)
H12 H 0.2678(17) 0.1509(10) 0.419(2)
H13 H 0.2624(19) 0.1728(10) 0.235(2)
C15 C 0.46585(15) 0.14262(8) 0.31824(16)
H14 H 0.5193(19) 0.1728(11) 0.237(2)
H15 H 0.454(2) 0.0863(12) 0.273(2)
C16 C 0.55259(15) 0.13974(9) 0.47692(17)
H16 H 0.651(2) 0.1175(13) 0.465(3)
H17 H 0.503(2) 0.1084(12) 0.559(2)
H18 H 0.567(2) 0.1956(13) 0.525(2)
loop_
_geom_bond_atom_site_label_1
_geom_bond_atom_site_label_2
_geom_bond_site_symmetry_1
_geom_bond_site_symmetry_2
O1 C1 1_555 1_555
O2 C1 1_555 1_555
O3 C4 1_555 1_555
C1 C12 1_555 1_555
C2 O2 1_555 1_555
H1 C2 1_555 1_555
C3 C2 1_555 1_555
H2 C3 1_555 1_555
C4 C3 1_555 1_555
H3 C4 1_555 1_555
C5 C4 1_555 1_555
C6 C5 1_555 1_555
H4 C6 1_555 1_555
C7 C6 1_555 1_555
H5 C7 1_555 1_555
C8 C7 1_555 1_555
H6 C8 1_555 1_555
C9 C8 1_555 1_555
H7 C9 1_555 1_555
C10 C5 1_555 1_555
C11 O3 1_555 1_555
H8 C11 1_555 1_555
C12 C3 1_555 1_555
H9 C12 1_555 1_555
C13 C2 1_555 1_555
H10 C13 1_555 1_555
H11 C13 1_555 1_555
C14 C13 1_555 1_555
H12 C14 1_555 1_555
H13 C14 1_555 1_555
C15 C14 1_555 1_555
H14 C15 1_555 1_555
H15 C15 1_555 1_555
C16 C15 1_555 1_555
H16 C16 1_555 1_555
H17 C16 1_555 1_555
H18 C16 1_555 1_555
C9 C10 1_555 1_555
C10 C11 1_555 1_555
C11 C12 1_555 1_555

#END
