
#######################################################################
#
#                 Cambridge Crystallographic Data Centre
#                                CCDC 
#
#######################################################################
#
# If this CIF has been generated from an entry in the Cambridge 
# Structural Database, then it will include bibliographic, chemical, 
# crystal, experimental, refinement or atomic coordinate data resulting 
# from the CCDC's data processing and validation procedures.
#
#######################################################################

data_CEKBIF
_chemical_formula_moiety         'C6 N12 O3 2-,2(C1 H7 N4 1+)'
_chemical_name_systematic        
"bis(aminoguanidinium) 5,5'-(oxydi-1,2,5-oxadiazole-4,3-diyl)bistetrazol-1-ide"
_symmetry_cell_setting           monoclinic
_symmetry_space_group_name_H-M   'C 2/c'
_symmetry_Int_Tables_number      15
_space_group_name_Hall           '-C 2yn'
loop_
_symmetry_equiv_pos_site_id
_symmetry_equiv_pos_as_xyz
1 x,y,z
2 -x,y,1/2-z
3 1/2+x,1/2+y,z
4 1/2-x,1/2+y,1/2-z
5 -x,-y,-z
6 x,-y,1/2+z
7 1/2-x,1/2-y,-z
8 1/2+x,1/2-y,1/2+z
_cell_length_a                   10.223(4)
_cell_length_b                   12.234(4)
_cell_length_c                   14.849(5)
_cell_angle_alpha                90
_cell_angle_beta                 107.163(4)
_cell_angle_gamma                90
_cell_volume                     1774.44
_exptl_crystal_colour            colorless
_exptl_crystal_description       block
_cell_formula_units_Z            4
loop_
_atom_site_label
_atom_site_type_symbol
_atom_site_fract_x
_atom_site_fract_y
_atom_site_fract_z
O1 O 0.66550(11) 0.37791(8) 0.42754(7)
O2 O 0.5000 0.55460(11) 0.2500
N1 N 0.59833(12) 0.39652(10) 0.33360(8)
N2 N 0.66710(12) 0.47115(9) 0.48009(8)
N3 N 0.63619(12) 0.68768(9) 0.54327(8)
N4 N 0.59065(13) 0.79023(10) 0.54455(8)
N5 N 0.51226(13) 0.81681(10) 0.45967(8)
N6 N 0.50490(12) 0.73247(9) 0.40016(8)
C1 C 0.56227(13) 0.49851(11) 0.33016(9)
C2 C 0.60321(13) 0.54653(11) 0.42143(9)
C3 C 0.58246(13) 0.65535(11) 0.45407(9)
O1A O 0.33450(11) 0.37791(8) 0.07246(7)
N1A N 0.40167(12) 0.39652(10) 0.16640(8)
N2A N 0.33290(12) 0.47115(9) 0.01991(8)
N3A N 0.36381(12) 0.68768(9) -0.04327(8)
N4A N 0.40935(13) 0.79023(10) -0.04455(8)
N5A N 0.48774(13) 0.81681(10) 0.04033(8)
N6A N 0.49510(12) 0.73247(9) 0.09984(8)
C1A C 0.43773(13) 0.49851(11) 0.16984(9)
C2A C 0.39679(13) 0.54653(11) 0.07857(9)
C3A C 0.41754(13) 0.65535(11) 0.04593(9)
N7 N 0.90534(12) 0.49236(11) 0.84007(8)
N8 N 0.83891(13) 0.63068(10) 0.73035(10)
N9 N 0.78011(13) 0.45468(10) 0.68713(9)
N10 N 0.8017(2) 0.34314(12) 0.70819(10)
C4 C 0.84273(13) 0.52601(11) 0.75360(9)
H1 H 0.9384(17) 0.5430(14) 0.8854(12)
H2 H 0.9016(16) 0.4231(16) 0.8541(11)
H3 H 0.7853(17) 0.6488(14) 0.6751(12)
H4 H 0.8814(18) 0.6776(15) 0.7734(13)
H5 H 0.7546(18) 0.4730(15) 0.6280(15)
H6 H 0.725(2) 0.3102(17) 0.6805(14)
H7 H 0.875(2) 0.3140(19) 0.6890(15)
loop_
_geom_bond_atom_site_label_1
_geom_bond_atom_site_label_2
_geom_bond_site_symmetry_1
_geom_bond_site_symmetry_2
O1 N1 1_555 1_555
O2 C1 1_555 1_555
N1 C1 1_555 1_555
N2 O1 1_555 1_555
N3 N4 1_555 1_555
N4 N5 1_555 1_555
N5 N6 1_555 1_555
N6 C3 1_555 1_555
N7 C4 1_555 1_555
N8 C4 1_555 1_555
N9 N10 1_555 1_555
N10 H6 1_555 1_555
C1 C2 1_555 1_555
C2 N2 1_555 1_555
C3 N3 1_555 1_555
C4 N9 1_555 1_555
H1 N7 1_555 1_555
H2 N7 1_555 1_555
H3 N8 1_555 1_555
H4 N8 1_555 1_555
H5 N9 1_555 1_555
H7 N10 1_555 1_555
O1A N1A 1_555 1_555
N1A C1A 1_555 1_555
N2A O1A 1_555 1_555
N3A N4A 1_555 1_555
N4A N5A 1_555 1_555
N5A N6A 1_555 1_555
N6A C3A 1_555 1_555
C1A O2 1_555 1_555
C2A N2A 1_555 1_555
C3A N3A 1_555 1_555
C2 C3 1_555 1_555
C1A C2A 1_555 1_555
C2A C3A 1_555 1_555

#END
