
#######################################################################
#
#                 Cambridge Crystallographic Data Centre
#                                CCDC 
#
#######################################################################
#
# If this CIF has been generated from an entry in the Cambridge 
# Structural Database, then it will include bibliographic, chemical, 
# crystal, experimental, refinement or atomic coordinate data resulting 
# from the CCDC's data processing and validation procedures.
#
#######################################################################

data_CEKBOJ
_chemical_formula_moiety         'C14 H12 N2,C6 H6 O2'
_chemical_name_systematic        '2,9-Dimethyl-1,10-phenanthroline resorcinol'
_symmetry_cell_setting           triclinic
_symmetry_space_group_name_H-M   'P -1'
_symmetry_Int_Tables_number      2
_space_group_name_Hall           '-P 1'
loop_
_symmetry_equiv_pos_site_id
_symmetry_equiv_pos_as_xyz
1 x,y,z
2 -x,-y,-z
_cell_length_a                   7.461(1)
_cell_length_b                   11.942(2)
_cell_length_c                   14.392(3)
_cell_angle_alpha                139.25(1)
_cell_angle_beta                 91.16(2)
_cell_angle_gamma                94.87(1)
_cell_volume                     826.944
_cell_formula_units_Z            2
loop_
_atom_site_label
_atom_site_type_symbol
_atom_site_fract_x
_atom_site_fract_y
_atom_site_fract_z
N1 N 0.25800 0.60170 0.42120
C1 C 0.25040 0.55610 0.47980
C2 C 0.23300 0.67960 0.62860
C3 C 0.22800 0.84780 0.71110
C4 C 0.23380 1.07330 0.73330
C5 C 0.24330 1.11700 0.67200
C6 C 0.25900 1.03110 0.45240
C7 C 0.26740 0.90430 0.30760
C8 C 0.26640 0.73330 0.23110
N2 N 0.25800 0.68940 0.29270
C9 C 0.25370 0.81610 0.43690
C10 C 0.24960 0.76930 0.50300
C11 C 0.23620 0.89980 0.65200
C12 C 0.25240 0.99040 0.52120
C13 C 0.26020 0.37140 0.38600
C14 C 0.27180 0.58860 0.07130
H1 H 0.22100 0.64200 0.65400
H2 H 0.24400 0.95600 0.83000
H3 H 0.22000 1.16400 0.83100
H4 H 0.24800 1.21800 0.71700
H5 H 0.27800 1.14800 0.50300
H6 H 0.28800 0.94500 0.26800
H7 H 0.21100 0.30700 0.29600
H8 H 0.18700 0.31900 0.40700
H9 H 0.37500 0.37100 0.40800
H10 H 0.35500 0.50400 0.03000
H11 H 0.32600 0.62400 0.04300
H12 H 0.13500 0.52500 0.01700
C15 C 0.33150 0.58970 -0.18880
C16 C 0.14630 0.56270 -0.19650
C17 C 0.05630 0.70050 -0.09450
C18 C 0.15230 0.86890 0.01610
C19 C 0.33780 0.89160 0.02260
C20 C 0.43180 0.75420 -0.07800
O1 O 0.40880 0.44550 -0.29770
O2 O -0.12450 0.68020 -0.09420
H13 H 0.08800 0.45700 -0.27400
H14 H 0.08800 0.96200 0.07300
H15 H 0.41400 1.01000 0.10500
H16 H 0.54900 0.76500 -0.07000
H17 H 0.50900 0.47000 -0.27500
H18 H -0.17800 0.59100 -0.15000
loop_
_geom_bond_atom_site_label_1
_geom_bond_atom_site_label_2
_geom_bond_site_symmetry_1
_geom_bond_site_symmetry_2
N1 C1 1_555 1_555
C1 C2 1_555 1_555
C2 C3 1_555 1_555
C3 C11 1_555 1_555
C4 C5 1_555 1_555
C5 C12 1_555 1_555
C6 C7 1_555 1_555
C7 C8 1_555 1_555
C8 N2 1_555 1_555
N2 C9 1_555 1_555
C9 C10 1_555 1_555
C10 N1 1_555 1_555
C11 C4 1_555 1_555
C12 C6 1_555 1_555
C13 C1 1_555 1_555
C14 C8 1_555 1_555
C15 C16 1_555 1_555
C16 C17 1_555 1_555
C17 C18 1_555 1_555
C18 C19 1_555 1_555
C19 C20 1_555 1_555
C20 C15 1_555 1_555
O1 C15 1_555 1_555
O2 C17 1_555 1_555
H1 C2 1_555 1_555
H2 C3 1_555 1_555
H3 C4 1_555 1_555
H4 C5 1_555 1_555
H5 C6 1_555 1_555
H6 C7 1_555 1_555
H7 C13 1_555 1_555
H8 C13 1_555 1_555
H9 C13 1_555 1_555
H10 C14 1_555 1_555
H11 C14 1_555 1_555
H12 C14 1_555 1_555
H13 C16 1_555 1_555
H14 C18 1_555 1_555
H15 C19 1_555 1_555
H16 C20 1_555 1_555
H17 O1 1_555 1_555
H18 O2 1_555 1_555
C9 C12 1_555 1_555
C10 C11 1_555 1_555

#END
