
#######################################################################
#
#                 Cambridge Crystallographic Data Centre
#                                CCDC 
#
#######################################################################
#
# If this CIF has been generated from an entry in the Cambridge 
# Structural Database, then it will include bibliographic, chemical, 
# crystal, experimental, refinement or atomic coordinate data resulting 
# from the CCDC's data processing and validation procedures.
#
#######################################################################

data_CEKDIH
_chemical_formula_moiety         'C37 H22 O1'
_chemical_name_systematic        
4-(9,9'-Spirobi[fluoren]-2-yl)dibenzo[b,d]furan
_symmetry_cell_setting           monoclinic
_symmetry_space_group_name_H-M   'P 21/n'
_symmetry_Int_Tables_number      14
_space_group_name_Hall           '-P 2yn'
loop_
_symmetry_equiv_pos_site_id
_symmetry_equiv_pos_as_xyz
1 x,y,z
2 1/2-x,1/2+y,1/2-z
3 -x,-y,-z
4 1/2+x,1/2-y,1/2+z
_cell_length_a                   9.9930(6)
_cell_length_b                   9.7316(4)
_cell_length_c                   25.6891(12)
_cell_angle_alpha                90
_cell_angle_beta                 93.021(4)
_cell_angle_gamma                90
_cell_volume                     2494.74
_exptl_crystal_colour            colorless
_cell_formula_units_Z            4
loop_
_atom_site_label
_atom_site_type_symbol
_atom_site_fract_x
_atom_site_fract_y
_atom_site_fract_z
O1 O 0.2698(2) 0.5560(2) 0.00869(8)
C1 C 0.5962(3) 0.8884(3) 0.18082(11)
C2 C 0.5400(3) 0.8602(3) 0.12798(12)
C3 C 0.4279(3) 0.9429(3) 0.11781(11)
C4 C 0.2073(3) 1.1552(3) 0.19036(11)
C5 C 0.5178(3) 0.9905(3) 0.20277(11)
C6 C 0.2668(3) 1.0255(3) 0.18596(10)
C7 C 0.5458(3) 1.0322(3) 0.25351(12)
H1 H 0.4948 1.1009 0.2680
C8 C 0.2967(3) 1.2572(3) 0.16783(10)
C9 C 0.2795(4) 1.3982(3) 0.16002(12)
H2 H 0.2038 1.4429 0.1710
C10 C 0.3842(3) 0.8291(3) 0.03581(11)
C11 C 0.4107(3) 1.1919(3) 0.15120(10)
C12 C 0.0847(3) 1.1686(3) 0.21218(12)
H3 H 0.0478 1.2551 0.2170
C13 C 0.2940(3) 0.8021(3) -0.01064(12)
C14 C 0.5772(3) 0.7643(3) 0.09064(12)
H4 H 0.6543 0.7116 0.0963
C15 C 0.3505(3) 0.9288(3) 0.07220(11)
H5 H 0.2763 0.9851 0.0656
C16 C 0.4984(3) 0.7494(3) 0.04576(12)
H6 H 0.5218 0.6844 0.0213
C17 C 0.7264(3) 0.8690(3) 0.26147(14)
H7 H 0.7953 0.8277 0.2816
C18 C 0.5087(3) 1.2647(3) 0.12726(11)
H8 H 0.5851 1.2206 0.1166
C19 C 0.7001(3) 0.8281(3) 0.21031(13)
H9 H 0.7521 0.7604 0.1958
C20 C 0.6496(4) 0.9716(3) 0.28263(13)
H10 H 0.6684 0.9998 0.3168
C21 C 0.2421(3) 0.6724(3) -0.02215(11)
C22 C 0.1150(4) 0.4973(4) -0.05689(13)
C23 C 0.1505(4) 0.6419(3) -0.06275(12)
C24 C 0.1892(3) 0.4516(3) -0.01298(13)
C25 C 0.0179(3) 1.0528(3) 0.22666(13)
H11 H -0.0656 1.0609 0.2408
C26 C 0.3781(4) 1.4701(3) 0.13541(13)
H12 H 0.3678 1.5639 0.1296
C27 C 0.4914(4) 1.4043(3) 0.11945(13)
H13 H 0.5567 1.4544 0.1033
C28 C 0.0737(4) 0.9234(3) 0.22044(14)
H14 H 0.0265 0.8456 0.2298
C29 C 0.1994(3) 0.9094(3) 0.20039(13)
H15 H 0.2374 0.8229 0.1968
C30 C 0.4050(3) 1.0370(3) 0.16403(11)
C31 C 0.2476(4) 0.9045(4) -0.04433(13)
H16 H 0.2783 0.9939 -0.0389
C32 C 0.1548(4) 0.8780(4) -0.08674(14)
H17 H 0.1263 0.9494 -0.1087
C33 C 0.1817(4) 0.3224(4) 0.00690(15)
H18 H 0.2325 0.2959 0.0366
C34 C 0.0956(5) 0.2332(4) -0.01907(18)
H19 H 0.0869 0.1442 -0.0065
C35 C 0.0284(4) 0.4048(4) -0.08243(15)
H20 H -0.0236 0.4320 -0.1117
C36 C 0.0204(4) 0.2731(5) -0.0641(2)
H21 H -0.0353 0.2098 -0.0816
C37 C 0.1074(4) 0.7488(4) -0.09557(13)
H22 H 0.0463 0.7318 -0.1234
loop_
_geom_bond_atom_site_label_1
_geom_bond_atom_site_label_2
_geom_bond_site_symmetry_1
_geom_bond_site_symmetry_2
O1 C21 1_555 1_555
C1 C2 1_555 1_555
C2 C3 1_555 1_555
C3 C15 1_555 1_555
C4 C6 1_555 1_555
C5 C1 1_555 1_555
C6 C29 1_555 1_555
C7 C5 1_555 1_555
H1 C7 1_555 1_555
C8 C4 1_555 1_555
C9 C8 1_555 1_555
H2 C9 1_555 1_555
C10 C13 1_555 1_555
C11 C8 1_555 1_555
C12 C4 1_555 1_555
H3 C12 1_555 1_555
C13 C21 1_555 1_555
C14 C2 1_555 1_555
H4 C14 1_555 1_555
C15 C10 1_555 1_555
H5 C15 1_555 1_555
C16 C10 1_555 1_555
H6 C16 1_555 1_555
C17 H7 1_555 1_555
C18 C11 1_555 1_555
H8 C18 1_555 1_555
C19 C1 1_555 1_555
H9 C19 1_555 1_555
C20 C7 1_555 1_555
H10 C20 1_555 1_555
C21 C23 1_555 1_555
C22 C23 1_555 1_555
C23 C37 1_555 1_555
C24 O1 1_555 1_555
C25 C12 1_555 1_555
H11 C25 1_555 1_555
C26 C9 1_555 1_555
H12 C26 1_555 1_555
C27 C18 1_555 1_555
H13 C27 1_555 1_555
C28 C25 1_555 1_555
H14 C28 1_555 1_555
C29 C28 1_555 1_555
H15 C29 1_555 1_555
C30 C3 1_555 1_555
C31 C13 1_555 1_555
H16 C31 1_555 1_555
C32 C31 1_555 1_555
H17 C32 1_555 1_555
C33 C24 1_555 1_555
H18 C33 1_555 1_555
C34 C33 1_555 1_555
H19 C34 1_555 1_555
C35 C22 1_555 1_555
H20 C35 1_555 1_555
C36 C34 1_555 1_555
H21 C36 1_555 1_555
C37 C32 1_555 1_555
H22 C37 1_555 1_555
C5 C30 1_555 1_555
C6 C30 1_555 1_555
C11 C30 1_555 1_555
C14 C16 1_555 1_555
C17 C19 1_555 1_555
C17 C20 1_555 1_555
C22 C24 1_555 1_555
C26 C27 1_555 1_555
C35 C36 1_555 1_555

#END
