
#######################################################################
#
#                 Cambridge Crystallographic Data Centre
#                                CCDC 
#
#######################################################################
#
# If this CIF has been generated from an entry in the Cambridge 
# Structural Database, then it will include bibliographic, chemical, 
# crystal, experimental, refinement or atomic coordinate data resulting 
# from the CCDC's data processing and validation procedures.
#
#######################################################################

data_CEKGEH
_chemical_formula_moiety         'C27 H40 O2'
_chemical_name_systematic        
'17-(hex-5-yn-2-yl)-10,13-dimethyl-2,3,4,7,8,9,10,11,12,13,14,15,16,17-tetradecahydro-1H-cyclopenta[a]phenanthren-3-yl acetate'
_symmetry_cell_setting           monoclinic
_symmetry_space_group_name_H-M   'P 21'
_symmetry_Int_Tables_number      4
_space_group_name_Hall           'P 2yb'
loop_
_symmetry_equiv_pos_site_id
_symmetry_equiv_pos_as_xyz
1 x,y,z
2 -x,1/2+y,-z
_cell_length_a                   10.9034(3)
_cell_length_b                   7.3162(2)
_cell_length_c                   14.3345(4)
_cell_angle_alpha                90
_cell_angle_beta                 91.444(2)
_cell_angle_gamma                90
_cell_volume                     1143.12
_exptl_crystal_colour            colorless
_exptl_crystal_description       Plank
_cell_formula_units_Z            2
loop_
_atom_site_label
_atom_site_type_symbol
_atom_site_fract_x
_atom_site_fract_y
_atom_site_fract_z
O1 O 0.92172(14) 0.5564(3) 0.09005(10)
O2 O 0.75130(14) 0.5150(3) 0.00119(11)
C1 C 0.2373(2) 0.5338(4) 1.06207(17)
H1 H 0.169960 0.584231 1.094055
C2 C 0.3210(2) 0.4712(3) 1.02234(15)
C3 C 0.42376(19) 0.3942(3) 0.97078(15)
H2 H 0.413729 0.259996 0.966225
H3 H 0.501443 0.419056 1.005736
C4 C 0.43160(19) 0.4748(3) 0.87215(15)
H4 H 0.351026 0.460149 0.839622
H5 H 0.448656 0.607381 0.877264
C5 C 0.53064(18) 0.3860(3) 0.81300(14)
H6 H 0.607394 0.374948 0.852278
C6 C 0.55755(17) 0.5095(3) 0.72924(14)
H7 H 0.477364 0.533111 0.696038
C7 C 0.6098(2) 0.6988(3) 0.76052(15)
H8 H 0.542312 0.787907 0.767521
H9 H 0.654680 0.687510 0.821141
C8 C 0.6974(2) 0.7628(3) 0.68416(16)
H10 H 0.678252 0.889370 0.664187
H11 H 0.783933 0.756910 0.706494
C9 C 0.67305(17) 0.6276(3) 0.60475(14)
H12 H 0.592798 0.664709 0.575219
C10 C 0.64886(17) 0.4447(3) 0.65443(14)
C11 C 0.59909(19) 0.3129(3) 0.57970(14)
H13 H 0.519371 0.358830 0.554817
H14 H 0.584952 0.191723 0.608243
C12 C 0.68835(19) 0.2923(3) 0.49939(15)
H15 H 0.650775 0.211480 0.451238
H16 H 0.764128 0.232229 0.523387
C13 C 0.72279(17) 0.4744(3) 0.45374(14)
H17 H 0.645809 0.522161 0.423173
C14 C 0.76354(18) 0.6194(3) 0.52587(14)
H18 H 0.846170 0.585201 0.552255
C15 C 0.77268(18) 0.8059(3) 0.47792(15)
H19 H 0.689105 0.855974 0.467479
H20 H 0.818457 0.891102 0.519632
C16 C 0.8352(2) 0.7951(3) 0.38701(16)
H21 H 0.862265 0.906333 0.360263
C17 C 0.85603(18) 0.6414(3) 0.34030(15)
C18 C 0.81702(18) 0.4524(3) 0.37454(15)
C19 C 0.75587(19) 0.3460(3) 0.29269(15)
H22 H 0.744964 0.217157 0.311961
H23 H 0.673336 0.397954 0.279862
C20 C 0.8280(2) 0.3496(3) 0.20254(16)
H24 H 0.907601 0.286664 0.212420
H25 H 0.781346 0.284743 0.152488
C21 C 0.8496(2) 0.5460(4) 0.17382(15)
H26 H 0.768944 0.608422 0.162558
C22 C 0.9225(2) 0.6472(4) 0.24943(16)
H27 H 1.004369 0.590179 0.257803
H28 H 0.934329 0.775900 0.230299
C23 C 0.4899(2) 0.1940(3) 0.78376(15)
H29 H 0.422269 0.202767 0.737622
H30 H 0.462340 0.126871 0.838565
H31 H 0.558912 0.129217 0.756333
C24 C 0.76578(19) 0.3668(3) 0.70237(15)
H32 H 0.792424 0.448296 0.753233
H33 H 0.830898 0.357383 0.656733
H34 H 0.748319 0.245379 0.727628
C25 C 0.93250(19) 0.3491(4) 0.40949(16)
H35 H 0.963702 0.405239 0.467445
H36 H 0.995571 0.355379 0.362089
H37 H 0.911642 0.220951 0.421172
C26 C 0.8595(2) 0.5418(3) 0.00761(15)
C27 C 0.9433(2) 0.5643(5) -0.07210(17)
H38 H 0.963630 0.443896 -0.097371
H39 H 1.018619 0.625726 -0.050459
H40 H 0.902676 0.638016 -0.120886
H41? H 0.959653 0.694529 -0.081773
H42? H 0.904664 0.512700 -0.128685
H43? H 1.020608 0.500409 -0.058258
loop_
_geom_bond_atom_site_label_1
_geom_bond_atom_site_label_2
_geom_bond_site_symmetry_1
_geom_bond_site_symmetry_2
O1 C21 1_555 1_555
O2 C26 1_555 1_555
C1 H1 1_555 1_555
C2 C1 1_555 1_555
C3 C2 1_555 1_555
H2 C3 1_555 1_555
H3 C3 1_555 1_555
C4 C3 1_555 1_555
H4 C4 1_555 1_555
H5 C4 1_555 1_555
C5 C4 1_555 1_555
H6 C5 1_555 1_555
C6 C5 1_555 1_555
H7 C6 1_555 1_555
C7 C6 1_555 1_555
H8 C7 1_555 1_555
H9 C7 1_555 1_555
C8 C7 1_555 1_555
H10 C8 1_555 1_555
H11 C8 1_555 1_555
C9 C8 1_555 1_555
H12 C9 1_555 1_555
C10 C6 1_555 1_555
C11 C10 1_555 1_555
H13 C11 1_555 1_555
H14 C11 1_555 1_555
C12 C11 1_555 1_555
H15 C12 1_555 1_555
H16 C12 1_555 1_555
C13 C12 1_555 1_555
H17 C13 1_555 1_555
C14 C9 1_555 1_555
H18 C14 1_555 1_555
C15 C14 1_555 1_555
H19 C15 1_555 1_555
H20 C15 1_555 1_555
C16 C15 1_555 1_555
H21 C16 1_555 1_555
C17 C16 1_555 1_555
C18 C13 1_555 1_555
C19 C18 1_555 1_555
H22 C19 1_555 1_555
H23 C19 1_555 1_555
C20 C19 1_555 1_555
H24 C20 1_555 1_555
H25 C20 1_555 1_555
C21 C20 1_555 1_555
H26 C21 1_555 1_555
C22 C17 1_555 1_555
H27 C22 1_555 1_555
H28 C22 1_555 1_555
C23 C5 1_555 1_555
H29 C23 1_555 1_555
H30 C23 1_555 1_555
H31 C23 1_555 1_555
C24 C10 1_555 1_555
H32 C24 1_555 1_555
H33 C24 1_555 1_555
H34 C24 1_555 1_555
C25 C18 1_555 1_555
H35 C25 1_555 1_555
H36 C25 1_555 1_555
H37 C25 1_555 1_555
C26 O1 1_555 1_555
C27 C26 1_555 1_555
H38 C27 1_555 1_555
H39 C27 1_555 1_555
H40 C27 1_555 1_555
C9 C10 1_555 1_555
C13 C14 1_555 1_555
C17 C18 1_555 1_555
C21 C22 1_555 1_555

#END
