
#######################################################################
#
#                 Cambridge Crystallographic Data Centre
#                                CCDC 
#
#######################################################################
#
# If this CIF has been generated from an entry in the Cambridge 
# Structural Database, then it will include bibliographic, chemical, 
# crystal, experimental, refinement or atomic coordinate data resulting 
# from the CCDC's data processing and validation procedures.
#
#######################################################################

data_CEKGEF
_chemical_formula_moiety         'C20 H18 N4 S1,0.5(C1 H1 Cl3)'
_chemical_name_systematic        
"N-(Anthracen-9-yl)-N'-(2-(imidazol-4-yl)ethyl)thiourea chloroform solvate"
_symmetry_cell_setting           triclinic
_symmetry_space_group_name_H-M   'P -1'
_symmetry_Int_Tables_number      2
_space_group_name_Hall           '-P 1'
loop_
_symmetry_equiv_pos_site_id
_symmetry_equiv_pos_as_xyz
1 x,y,z
2 -x,-y,-z
_cell_length_a                   8.883(4)
_cell_length_b                   17.871(8)
_cell_length_c                   26.832(12)
_cell_angle_alpha                78.473(10)
_cell_angle_beta                 83.475(8)
_cell_angle_gamma                88.681(10)
_cell_volume                     4146.58
_cell_formula_units_Z            8
loop_
_atom_site_label
_atom_site_type_symbol
_atom_site_fract_x
_atom_site_fract_y
_atom_site_fract_z
H1 H -0.074(5) -0.0584(10) 0.2827(16)
S1 S 0.13884(14) 0.17965(8) 0.05899(5)
N1 N 0.2857(4) 0.3108(2) 0.04697(14)
N2 N 0.2409(5) 0.2450(3) 0.12980(17)
N3 N -0.0295(7) 0.1151(4) 0.2817(2)
N4 N -0.0422(6) -0.0092(4) 0.2828(2)
C1 C 0.3159(6) 0.4408(4) 0.05724(15)
C2 C 0.1579(6) 0.4628(4) 0.04716(17)
H2 H 0.0939 0.4258 0.0412
C3 C 0.1044(6) 0.5334(4) 0.04630(18)
H3 H 0.0034 0.5428 0.0411
C4 C 0.1928(7) 0.5941(3) 0.05279(17)
H4 H 0.1529 0.6430 0.0507
C5 C 0.3427(7) 0.5784(3) 0.06248(17)
H5 H 0.4034 0.6174 0.0675
C6 C 0.4029(6) 0.5046(3) 0.06474(16)
C7 C 0.5535(5) 0.4881(3) 0.07694(16)
H6 H 0.6135 0.5271 0.0824
C8 C 0.6105(6) 0.4169(4) 0.08076(16)
C9 C 0.7646(6) 0.3975(4) 0.09529(17)
H7 H 0.8229 0.4353 0.1030
C10 C 0.8233(6) 0.3268(4) 0.0977(2)
H8 H 0.9213 0.3177 0.1065
C11 C 0.7413(6) 0.2661(3) 0.08742(18)
H9 H 0.7843 0.2179 0.0889
C12 C 0.5950(6) 0.2802(3) 0.07502(16)
H10 H 0.5403 0.2403 0.0682
C13 C 0.5244(6) 0.3529(3) 0.07216(16)
C14 C 0.3722(6) 0.3701(3) 0.05949(16)
C15 C 0.2258(5) 0.2503(3) 0.0794(2)
C16 C 0.2053(6) 0.1714(4) 0.1723(2)
H11 H 0.2241 0.1259 0.1580
H12 H 0.2689 0.1696 0.1997
C17 C 0.0493(7) 0.1756(4) 0.1914(2)
H13 H -0.0142 0.1764 0.1642
H14 H 0.0302 0.2217 0.2050
C18 C 0.0131(7) 0.1028(5) 0.2350(2)
C19 C 0.0062(8) 0.0280(5) 0.2349(2)
H15 H 0.0307 0.0055 0.2066
C20 C -0.0655(8) 0.0474(6) 0.3076(3)
H16 H -0.1054 0.0392 0.3418
H17 H 0.275(4) 0.299(2) 0.1372(12)
H18 H 0.474(9) 0.537(5) 0.3734(4)
S2 S 0.77533(15) 0.66150(9) 0.08152(5)
N5 N 0.6611(5) 0.8005(3) 0.0581(2)
N6 N 0.5455(6) 0.7311(3) 0.13113(19)
N7 N 0.4816(7) 0.5288(5) 0.2627(3)
N8 N 0.4890(7) 0.5438(6) 0.3379(3)
C21 C 0.4270(7) 0.8796(4) 0.04810(17)
C22 C 0.3563(7) 0.8202(3) 0.03109(18)
H19 H 0.4062 0.7745 0.0288
C23 C 0.2104(8) 0.8330(4) 0.01797(19)
H20 H 0.1624 0.7951 0.0064
C24 C 0.1338(7) 0.9001(5) 0.0215(2)
H21 H 0.0349 0.9055 0.0131
C25 C 0.1992(7) 0.9591(4) 0.03711(18)
H22 H 0.1477 1.0048 0.0382
C26 C 0.3538(7) 0.9475(4) 0.05207(18)
C27 C 0.4221(7) 1.0071(3) 0.06898(17)
H23 H 0.3719 1.0532 0.0697
C28 C 0.5702(7) 0.9949(4) 0.08502(19)
C29 C 0.6420(8) 1.0538(4) 0.1054(2)
H24 H 0.5941 1.1002 0.1070
C30 C 0.7829(9) 1.0383(4) 0.1222(2)
H25 H 0.8297 1.0747 0.1356
C31 C 0.8540(7) 0.9711(5) 0.1196(2)
H26 H 0.9499 0.9643 0.1306
C32 C 0.7948(7) 0.9120(4) 0.1018(2)
H27 H 0.8459 0.8660 0.1017
C33 C 0.6457(6) 0.9264(4) 0.08299(18)
C34 C 0.5792(7) 0.8662(4) 0.06377(18)
C35 C 0.6587(6) 0.7329(4) 0.0915(2)
C36 C 0.5123(6) 0.6590(4) 0.1729(2)
H28 H 0.4037 0.6531 0.1818
H29 H 0.5505 0.6144 0.1600
C37 C 0.5853(7) 0.6652(4) 0.2187(2)
H30 H 0.5595 0.7140 0.2280
H31 H 0.6944 0.6634 0.2108
C38 C 0.5355(7) 0.6011(4) 0.2640(3)
C39 C 0.5400(6) 0.6082(3) 0.3116(2)
H32 H 0.5724 0.6499 0.3235
C40 C 0.4555(6) 0.4918(3) 0.3125(2)
H33 H 0.4222 0.4419 0.3253
H34 H 0.627(5) 0.752(3) 0.1489(16)
H35 H 0.715(5) 0.782(3) 0.0368(16)
H36 H -0.172(5) 0.792(3) 0.2673(4)
S3 S 0.2932(2) 0.67730(12) 0.44160(6)
N9 N 0.3233(5) 0.7269(3) 0.34146(17)
N10 N 0.1394(6) 0.7909(3) 0.38688(16)
N11 N -0.2711(7) 0.7453(4) 0.3820(3)
N12 N -0.1913(7) 0.7882(5) 0.3025(3)
C41 C 0.3672(7) 0.8507(4) 0.2812(2)
C42 C 0.4535(7) 0.8799(5) 0.3163(2)
H37 H 0.4638 0.8508 0.3486
C43 C 0.5192(8) 0.9505(5) 0.3013(3)
H38 H 0.5736 0.9686 0.3240
C44 C 0.5078(11) 0.9978(6) 0.2518(4)
H39 H 0.5557 1.0450 0.2425
C45 C 0.4237(11) 0.9715(5) 0.2181(3)
H40 H 0.4109 1.0022 0.1865
C46 C 0.3563(8) 0.8964(5) 0.2324(3)
C47 C 0.2760(9) 0.8674(5) 0.1972(2)
H41 H 0.2703 0.8964 0.1646
C48 C 0.2066(7) 0.7968(5) 0.2109(2)
C49 C 0.1245(8) 0.7682(5) 0.1752(3)
H42 H 0.1169 0.7982 0.1430
C50 C 0.0587(8) 0.6990(6) 0.1876(3)
H43 H 0.0082 0.6812 0.1638
C51 C 0.0658(7) 0.6528(5) 0.2368(3)
H44 H 0.0181 0.6055 0.2455
C52 C 0.1432(7) 0.6783(4) 0.2715(2)
H45 H 0.1478 0.6477 0.3036
C53 C 0.2165(6) 0.7505(4) 0.2594(2)
C54 C 0.3004(6) 0.7799(4) 0.2943(2)
C55 C 0.2457(7) 0.7368(4) 0.3873(2)
C56 C 0.0328(7) 0.7977(4) 0.4324(2)
H46 H 0.0814 0.8242 0.4544
H47 H 0.0038 0.7472 0.4516
C57 C -0.1089(8) 0.8421(4) 0.4150(2)
H48 H -0.1841 0.8411 0.4443
H49 H -0.0820 0.8950 0.4007
C58 C -0.1748(7) 0.8079(4) 0.3756(3)
C59 C -0.1295(6) 0.8349(3) 0.3257(2)
H50 H -0.0684 0.8770 0.3113
C60 C -0.2806(6) 0.7342(3) 0.3331(2)
H51 H -0.3366 0.6973 0.3234
S4 S -0.08591(18) 0.18043(11) 0.41440(6)
N13 N 0.0580(5) 0.2361(3) 0.32342(18)
N14 N 0.1099(5) 0.2997(3) 0.38623(16)
N15 N 0.4855(11) 0.3014(5) 0.4586(3)
N16 N 0.5670(9) 0.3114(4) 0.3787(3)
C61 C 0.0904(9) 0.3521(4) 0.2555(2)
C62 C -0.0654(9) 0.3712(5) 0.2637(3)
H52 H -0.1287 0.3408 0.2895
C63 C -0.1225(9) 0.4342(6) 0.2340(3)
H53 H -0.2244 0.4461 0.2405
C64 C -0.0328(12) 0.4819(5) 0.1936(3)
H54 H -0.0725 0.5247 0.1736
C65 C 0.1191(10) 0.4608(5) 0.1858(2)
H55 H 0.1807 0.4910 0.1594
C66 C 0.1848(9) 0.3976(4) 0.2148(2)
C67 C 0.3355(9) 0.3776(4) 0.2045(2)
H56 H 0.3950 0.4072 0.1772
C68 C 0.3987(8) 0.3159(5) 0.2333(2)
C69 C 0.5562(10) 0.2897(6) 0.2254(3)
H57 H 0.6199 0.3181 0.1988
C70 C 0.6145(11) 0.2279(7) 0.2537(4)
H58 H 0.7160 0.2153 0.2470
C71 C 0.5195(12) 0.1808(5) 0.2947(3)
H59 H 0.5572 0.1372 0.3144
C72 C 0.3717(10) 0.2026(5) 0.3034(3)
H60 H 0.3110 0.1724 0.3300
C73 C 0.3054(8) 0.2662(4) 0.2756(2)
C74 C 0.1522(8) 0.2881(4) 0.2845(2)
C75 C 0.0361(6) 0.2427(4) 0.3734(2)
C76 C 0.0996(7) 0.3084(4) 0.4401(2)
H61 H 0.1186 0.2598 0.4620
H62 H -0.0011 0.3256 0.4508
C77 C 0.2190(8) 0.3676(4) 0.4442(2)
H63 H 0.1999 0.4160 0.4221
H64 H 0.2123 0.3756 0.4791
C78 C 0.3761(8) 0.3392(4) 0.4286(3)
C79 C 0.4302(7) 0.3479(3) 0.3793(2)
H65 H 0.3842 0.3734 0.3512
C80 C 0.6013(8) 0.2844(4) 0.4269(3)
H66 H 0.6894 0.2588 0.4361
H67 H -0.004(4) 0.182(3) 0.3222(14)
C81 C 0.8414(13) 0.5248(10) 0.4102(7)
Cl1 Cl 0.9945(9) 0.5644(8) 0.4318(5)
Cl2 Cl 0.8477(9) 0.4573(6) 0.3826(3)
Cl3 Cl 0.6679(5) 0.5278(4) 0.4582(2)
C82 C 0.2236(9) 0.0513(5) 0.4497(3)
Cl4 Cl 0.242(2) -0.0135(12) 0.5050(7)
Cl5 Cl 0.299(2) -0.0213(12) 0.4191(7)
Cl6 Cl 0.3940(18) 0.0939(9) 0.4474(6)
Cl7? Cl 0.9861(13) 0.5732(8) 0.4204(6)
Cl8? Cl 0.8987(12) 0.4878(7) 0.3522(3)
Cl9? Cl 0.7551(10) 0.4779(4) 0.4506(2)
Cl10? Cl 0.1988(11) -0.0120(4) 0.5102(3)
Cl11? Cl 0.2564(8) 0.0012(3) 0.3979(2)
Cl12? Cl 0.3550(7) 0.1193(4) 0.4478(2)
loop_
_geom_bond_atom_site_label_1
_geom_bond_atom_site_label_2
_geom_bond_site_symmetry_1
_geom_bond_site_symmetry_2
H1 N4 1_555 1_555
S1 C15 1_555 1_555
N1 C14 1_555 1_555
N2 C15 1_555 1_555
N3 C18 1_555 1_555
N4 C19 1_555 1_555
C1 C2 1_555 1_555
C2 H2 1_555 1_555
C3 C2 1_555 1_555
H3 C3 1_555 1_555
C4 C3 1_555 1_555
H4 C4 1_555 1_555
C5 C4 1_555 1_555
H5 C5 1_555 1_555
C6 C1 1_555 1_555
C7 C6 1_555 1_555
H6 C7 1_555 1_555
C8 C7 1_555 1_555
C9 C8 1_555 1_555
H7 C9 1_555 1_555
C10 C9 1_555 1_555
H8 C10 1_555 1_555
C11 C10 1_555 1_555
H9 C11 1_555 1_555
C12 C11 1_555 1_555
H10 C12 1_555 1_555
C13 C8 1_555 1_555
C14 C1 1_555 1_555
C15 N1 1_555 1_555
C16 N2 1_555 1_555
H11 C16 1_555 1_555
H12 C16 1_555 1_555
C17 C16 1_555 1_555
H13 C17 1_555 1_555
H14 C17 1_555 1_555
C18 C17 1_555 1_555
C19 C18 1_555 1_555
H15 C19 1_555 1_555
C20 N3 1_555 1_555
H16 C20 1_555 1_555
H17 N2 1_555 1_555
H18 N8 1_555 1_555
S2 C35 1_555 1_555
N5 C34 1_555 1_555
N6 C35 1_555 1_555
N7 C38 1_555 1_555
N8 C39 1_555 1_555
C21 C22 1_555 1_555
C22 H19 1_555 1_555
C23 C22 1_555 1_555
H20 C23 1_555 1_555
C24 C23 1_555 1_555
H21 C24 1_555 1_555
C25 C24 1_555 1_555
H22 C25 1_555 1_555
C26 C21 1_555 1_555
C27 C26 1_555 1_555
H23 C27 1_555 1_555
C28 C27 1_555 1_555
C29 C28 1_555 1_555
H24 C29 1_555 1_555
C30 C29 1_555 1_555
H25 C30 1_555 1_555
C31 C30 1_555 1_555
H26 C31 1_555 1_555
C32 C31 1_555 1_555
H27 C32 1_555 1_555
C33 C28 1_555 1_555
C34 C21 1_555 1_555
C35 N5 1_555 1_555
C36 N6 1_555 1_555
H28 C36 1_555 1_555
H29 C36 1_555 1_555
C37 C36 1_555 1_555
H30 C37 1_555 1_555
H31 C37 1_555 1_555
C38 C37 1_555 1_555
C39 C38 1_555 1_555
H32 C39 1_555 1_555
C40 N7 1_555 1_555
H33 C40 1_555 1_555
H34 N6 1_555 1_555
H35 N5 1_555 1_555
H36 N12 1_555 1_555
S3 C55 1_555 1_555
N9 C54 1_555 1_555
N10 C55 1_555 1_555
N11 C58 1_555 1_555
N12 C59 1_555 1_555
C41 C42 1_555 1_555
C42 H37 1_555 1_555
C43 C42 1_555 1_555
H38 C43 1_555 1_555
C44 C43 1_555 1_555
H39 C44 1_555 1_555
C45 C44 1_555 1_555
H40 C45 1_555 1_555
C46 C41 1_555 1_555
C47 C46 1_555 1_555
H41 C47 1_555 1_555
C48 C47 1_555 1_555
C49 C48 1_555 1_555
H42 C49 1_555 1_555
C50 C49 1_555 1_555
H43 C50 1_555 1_555
C51 C50 1_555 1_555
H44 C51 1_555 1_555
C52 C51 1_555 1_555
H45 C52 1_555 1_555
C53 C48 1_555 1_555
C54 C41 1_555 1_555
C55 N9 1_555 1_555
C56 N10 1_555 1_555
H46 C56 1_555 1_555
H47 C56 1_555 1_555
C57 C56 1_555 1_555
H48 C57 1_555 1_555
H49 C57 1_555 1_555
C58 C57 1_555 1_555
C59 C58 1_555 1_555
H50 C59 1_555 1_555
C60 N11 1_555 1_555
H51 C60 1_555 1_555
S4 C75 1_555 1_555
N13 C74 1_555 1_555
N14 C75 1_555 1_555
N15 C78 1_555 1_555
N16 C79 1_555 1_555
C61 C62 1_555 1_555
C62 H52 1_555 1_555
C63 C62 1_555 1_555
H53 C63 1_555 1_555
C64 C63 1_555 1_555
H54 C64 1_555 1_555
C65 C64 1_555 1_555
H55 C65 1_555 1_555
C66 C61 1_555 1_555
C67 C66 1_555 1_555
H56 C67 1_555 1_555
C68 C67 1_555 1_555
C69 C68 1_555 1_555
H57 C69 1_555 1_555
C70 C69 1_555 1_555
H58 C70 1_555 1_555
C71 C70 1_555 1_555
H59 C71 1_555 1_555
C72 C71 1_555 1_555
H60 C72 1_555 1_555
C73 C68 1_555 1_555
C74 C61 1_555 1_555
C75 N13 1_555 1_555
C76 N14 1_555 1_555
H61 C76 1_555 1_555
H62 C76 1_555 1_555
C77 C76 1_555 1_555
H63 C77 1_555 1_555
H64 C77 1_555 1_555
C78 C77 1_555 1_555
C79 C78 1_555 1_555
H65 C79 1_555 1_555
C80 N15 1_555 1_555
H66 C80 1_555 1_555
H67 N13 1_555 1_555
C81 Cl1 1_555 1_555
Cl2 C81 1_555 1_555
Cl3 C81 1_555 1_555
C82 Cl4 1_555 1_555
Cl5 C82 1_555 1_555
Cl6 C82 1_555 1_555
N4 C20 1_555 1_555
C5 C6 1_555 1_555
C12 C13 1_555 1_555
C13 C14 1_555 1_555
N8 C40 1_555 1_555
C25 C26 1_555 1_555
C32 C33 1_555 1_555
C33 C34 1_555 1_555
N12 C60 1_555 1_555
C45 C46 1_555 1_555
C52 C53 1_555 1_555
C53 C54 1_555 1_555
N16 C80 1_555 1_555
C65 C66 1_555 1_555
C72 C73 1_555 1_555
C73 C74 1_555 1_555

#END
