
#######################################################################
#
#                 Cambridge Crystallographic Data Centre
#                                CCDC 
#
#######################################################################
#
# If this CIF has been generated from an entry in the Cambridge 
# Structural Database, then it will include bibliographic, chemical, 
# crystal, experimental, refinement or atomic coordinate data resulting 
# from the CCDC's data processing and validation procedures.
#
#######################################################################

data_CEKPAJ
_chemical_formula_moiety         'C9 H7 N1 O4 S1,2(H2 O1)'
_chemical_name_systematic        '8-Hydroxy-5-quinoline-sulfonic acid dihydrate'
_symmetry_cell_setting           monoclinic
_symmetry_space_group_name_H-M   'P 21/n'
_symmetry_Int_Tables_number      14
_space_group_name_Hall           '-P 2yn'
loop_
_symmetry_equiv_pos_site_id
_symmetry_equiv_pos_as_xyz
1 x,y,z
2 1/2-x,1/2+y,1/2-z
3 -x,-y,-z
4 1/2+x,1/2-y,1/2+z
_cell_length_a                   6.699(2)
_cell_length_b                   16.711(3)
_cell_length_c                   10.203(1)
_cell_angle_alpha                90
_cell_angle_beta                 109.22(1)
_cell_angle_gamma                90
_cell_volume                     1078.53
_exptl_crystal_colour            'light yellow'
_cell_formula_units_Z            4
loop_
_atom_site_label
_atom_site_type_symbol
_atom_site_fract_x
_atom_site_fract_y
_atom_site_fract_z
S1 S 0.52480 0.13530 0.15640
O1 O 0.86370 -0.00580 0.72150
O2 O 0.44990 0.21390 0.17780
O3 O 0.35810 0.08270 0.07580
O4 O 0.70020 0.13900 0.10200
N1 N 0.78360 -0.10130 0.50230
C1 C 0.75290 -0.15300 0.39990
C2 C 0.68070 -0.12720 0.26260
C3 C 0.63980 -0.04770 0.23470
C4 C 0.62950 0.09200 0.32510
C5 C 0.67080 0.14060 0.43920
C6 C 0.75130 0.11040 0.57540
C7 C 0.78820 0.03060 0.59750
C8 C 0.74750 -0.02080 0.48040
C9 C 0.66990 0.00840 0.34290
H1 H 0.87800 0.03300 0.78800
H2 H 0.82300 -0.12400 0.59400
H7 H 0.78600 -0.21000 0.42300
H8 H 0.67000 -0.16600 0.18700
H9 H 0.58700 -0.03300 0.13700
H10 H 0.64700 0.19400 0.42900
H11 H 0.77900 0.14800 0.65400
O5 O 0.43160 0.40210 0.42130
H3 H 0.35500 0.39500 0.47300
H4 H 0.53900 0.41200 0.47500
O6 O 0.09370 0.19850 0.27450
H5 H -0.00300 0.18100 0.22100
H6 H 0.16800 0.19900 0.23600
loop_
_geom_bond_atom_site_label_1
_geom_bond_atom_site_label_2
_geom_bond_site_symmetry_1
_geom_bond_site_symmetry_2
S1 O2 1_555 1_555
O1 C7 1_555 1_555
O3 S1 1_555 1_555
O4 S1 1_555 1_555
O5 H3 1_555 1_555
O6 H5 1_555 1_555
N1 C1 1_555 1_555
C1 C2 1_555 1_555
C2 C3 1_555 1_555
C3 C9 1_555 1_555
C4 S1 1_555 1_555
C5 C4 1_555 1_555
C6 C5 1_555 1_555
C7 C6 1_555 1_555
C8 N1 1_555 1_555
C9 C4 1_555 1_555
H1 O1 1_555 1_555
H2 N1 1_555 1_555
H4 O5 1_555 1_555
H6 O6 1_555 1_555
H7 C1 1_555 1_555
H8 C2 1_555 1_555
H9 C3 1_555 1_555
H10 C5 1_555 1_555
H11 C6 1_555 1_555
C7 C8 1_555 1_555
C8 C9 1_555 1_555

#END
