
#######################################################################
#
#                 Cambridge Crystallographic Data Centre
#                                CCDC 
#
#######################################################################
#
# If this CIF has been generated from an entry in the Cambridge 
# Structural Database, then it will include bibliographic, chemical, 
# crystal, experimental, refinement or atomic coordinate data resulting 
# from the CCDC's data processing and validation procedures.
#
#######################################################################

data_CEKQUH
_chemical_formula_moiety         'C24 H24 B10'
_chemical_name_systematic        
1-(4-(5a,10a,10b,10c-tetrahydropyren-1-yl)phenyl)-1,2-dicarba-closo-dodecaborane(11)
_symmetry_cell_setting           monoclinic
_symmetry_space_group_name_H-M   'P 21/c'
_symmetry_Int_Tables_number      14
_space_group_name_Hall           '-P 2ybc'
loop_
_symmetry_equiv_pos_site_id
_symmetry_equiv_pos_as_xyz
1 x,y,z
2 -x,1/2+y,1/2-z
3 -x,-y,-z
4 x,1/2-y,1/2+z
_cell_length_a                   28.5392(16)
_cell_length_b                   6.8852(11)
_cell_length_c                   25.9032(14)
_cell_angle_alpha                90
_cell_angle_beta                 116.989(3)
_cell_angle_gamma                90
_cell_volume                     4535.6
_exptl_crystal_colour            white
_exptl_crystal_description       block
_cell_formula_units_Z            8
loop_
_atom_site_label
_atom_site_type_symbol
_atom_site_fract_x
_atom_site_fract_y
_atom_site_fract_z
C1 C 0.46657(5) 0.9223(2) 0.34114(6)
C2 C 0.54339(6) 1.1122(2) 0.40569(7)
H1 H 0.5734 1.1263 0.4408
C3 C 0.64707(6) 0.6468(2) 0.57036(7)
H2 H 0.6703 0.5424 0.5822
C4 C 0.52303(6) 0.7944(2) 0.43823(6)
C5 C 0.39108(6) 0.7317(2) 0.27249(6)
H3 H 0.3691 0.6243 0.2643
C6 C 0.53180(6) 1.2512(2) 0.36550(7)
H4 H 0.5535 1.3595 0.3735
C7 C 0.45508(5) 1.0653(2) 0.29775(6)
C8 C 0.65460(6) 0.7989(2) 0.60837(6)
C9 C 0.51111(6) 0.9414(2) 0.39665(7)
C10 C 0.49018(6) 0.6308(2) 0.42492(7)
H5 H 0.4978 0.5340 0.4526
C11 C 0.43487(6) 0.7491(2) 0.32924(6)
C12 C 0.47335(7) 1.3772(3) 0.26607(7)
H6 H 0.4933 1.4899 0.2734
C13 C 0.48624(6) 1.2346(2) 0.31016(7)
C14 C 0.41105(5) 1.0409(2) 0.24189(6)
C15 C 0.70010(6) 0.7910(2) 0.66737(6)
C16 C 0.56869(6) 0.8041(2) 0.49678(7)
C17 C 0.44679(6) 0.6104(2) 0.37159(7)
H7 H 0.4254 0.5016 0.3642
C18 C 0.57715(6) 0.9583(2) 0.53535(7)
H8 H 0.5540 1.0628 0.5242
C19 C 0.60556(6) 0.6479(2) 0.51502(7)
H9 H 0.6017 0.5465 0.4897
C20 C 0.61928(6) 0.9560(2) 0.58933(7)
H10 H 0.6247 1.0610 0.6140
C21 C 0.38086(6) 0.8641(2) 0.23115(7)
H11 H 0.3535 0.8418 0.1944
C22 C 0.40116(6) 1.1832(3) 0.20043(7)
H12 H 0.3735 1.1668 0.1635
C23 C 0.70574(6) 0.9555(2) 0.71592(7)
H13 H 0.6801 1.0582 0.7082
C24 C 0.43136(7) 1.3481(3) 0.21266(7)
H14 H 0.4232 1.4423 0.1841
B1 B 0.68722(7) 0.7284(3) 0.72414(8)
H15 H 0.6481 0.6906 0.7196
B2 B 0.72446(7) 0.5741(3) 0.69981(8)
H16 H 0.7094 0.4324 0.6794
B3 B 0.79739(7) 0.7963(3) 0.79827(8)
H17 H 0.8299 0.7994 0.8425
B4 B 0.76153(7) 0.7235(3) 0.67631(8)
H18 H 0.7701 0.6794 0.6406
B5 B 0.73343(7) 0.8600(3) 0.78427(8)
H19 H 0.7243 0.9051 0.8194
B6 B 0.74838(7) 0.9711(3) 0.68532(9)
H20 H 0.7482 1.0871 0.6560
B7 B 0.79231(7) 0.6138(3) 0.74538(8)
H21 H 0.8216 0.4975 0.7554
B8 B 0.77017(7) 1.0135(3) 0.76059(9)
H22 H 0.7841 1.1577 0.7797
B9 B 0.74604(7) 0.6132(3) 0.77533(8)
H23 H 0.7454 0.4968 0.8041
B10 B 0.80758(7) 0.8575(3) 0.73687(9)
H24 H 0.8465 0.8978 0.7413
C25 C 1.04159(6) 0.5892(2) 0.34378(6)
C26 C 0.92665(6) 0.3037(2) 0.42688(6)
C27 C 0.97337(6) 0.3035(2) 0.41527(6)
C28 C 1.10745(6) 0.2665(2) 0.38090(7)
H25 H 1.1298 0.1598 0.3939
C29 C 1.06345(5) 0.2753(2) 0.39435(6)
C30 C 1.00782(6) 0.7544(2) 0.32336(6)
C31 C 1.08479(6) 0.5724(2) 0.33168(6)
C32 C 0.95050(6) 0.6216(2) 0.36311(6)
H26 H 0.9205 0.6325 0.3683
C33 C 1.02931(5) 0.4416(2) 0.37511(6)
C34 C 1.00704(6) 0.1427(2) 0.43340(7)
H27 H 0.9995 0.0410 0.4521
C35 C 0.96286(6) 0.7637(2) 0.33388(7)
H28 H 0.9408 0.8711 0.3203
C36 C 1.09497(6) 0.7209(2) 0.30038(7)
H29 H 1.1234 0.7095 0.2921
C37 C 1.05167(6) 0.1303(2) 0.42424(7)
H30 H 1.0739 0.0235 0.4383
C38 C 1.06273(6) 0.8841(2) 0.28185(7)
H31 H 1.0700 0.9826 0.2620
C39 C 1.01934(6) 0.8996(2) 0.29311(7)
H32 H 0.9978 1.0084 0.2803
C40 C 0.98471(5) 0.4557(2) 0.38550(6)
C41 C 0.79561(6) 0.2581(2) 0.46944(6)
C42 C 0.84064(6) 0.2805(2) 0.45364(6)
C43 C 0.91798(6) 0.4438(3) 0.45859(7)
H33 H 0.9410 0.5484 0.4718
C44 C 0.87816(7) 0.4375(2) 0.47144(7)
H34 H 0.8742 0.5388 0.4929
C45 C 0.78757(6) 0.4059(2) 0.51550(7)
H35 H 0.8120 0.5005 0.5136
C46 C 1.11764(6) 0.4044(2) 0.35065(7)
H36 H 1.1458 0.3906 0.3422
C47 C 0.84901(6) 0.1366(2) 0.42071(7)
H37 H 0.8260 0.0319 0.4072
C48 C 0.89081(6) 0.1474(3) 0.40799(7)
H38 H 0.8956 0.0487 0.3863
B11 B 0.73444(7) 0.1868(3) 0.41900(8)
H39 H 0.7251 0.1492 0.3741
B12 B 0.81074(7) 0.1806(3) 0.53824(8)
H40 H 0.8511 0.1430 0.5700
B13 B 0.75305(7) 0.0575(3) 0.53385(9)
H41 H 0.7553 -0.0614 0.5633
B14 B 0.72573(7) 0.4534(3) 0.49906(8)
H42 H 0.7108 0.5925 0.5065
B15 B 0.77355(7) 0.0320(3) 0.47836(8)
H43 H 0.7893 -0.1067 0.4719
B16 B 0.70084(7) 0.2263(3) 0.50834(8)
H44 H 0.6691 0.2146 0.5212
B17 B 0.68859(7) 0.3106(3) 0.43784(8)
H45 H 0.6491 0.3542 0.4053
B18 B 0.70561(7) 0.0607(3) 0.45837(8)
H46 H 0.6771 -0.0576 0.4384
B19 B 0.76558(7) 0.3015(3) 0.55745(9)
H47 H 0.7768 0.3419 0.6026
B20 B 0.74559(7) 0.4314(3) 0.44328(8)
H48 H 0.7442 0.5528 0.4150
loop_
_geom_bond_atom_site_label_1
_geom_bond_atom_site_label_2
_geom_bond_site_symmetry_1
_geom_bond_site_symmetry_2
C1 C7 1_555 1_555
C2 H1 1_555 1_555
C3 H2 1_555 1_555
C4 C9 1_555 1_555
C5 H3 1_555 1_555
C6 C2 1_555 1_555
H4 C6 1_555 1_555
C7 C13 1_555 1_555
C8 C3 1_555 1_555
C9 C1 1_555 1_555
C10 C4 1_555 1_555
H5 C10 1_555 1_555
C11 C1 1_555 1_555
C12 H6 1_555 1_555
C13 C6 1_555 1_555
C14 C7 1_555 1_555
C15 C8 1_555 1_555
C16 C4 1_555 1_555
C17 C10 1_555 1_555
H7 C17 1_555 1_555
C18 C16 1_555 1_555
H8 C18 1_555 1_555
C19 C3 1_555 1_555
H9 C19 1_555 1_555
C20 C8 1_555 1_555
H10 C20 1_555 1_555
C21 C5 1_555 1_555
H11 C21 1_555 1_555
C22 C14 1_555 1_555
H12 C22 1_555 1_555
C23 C15 1_555 1_555
H13 C23 1_555 1_555
C24 C12 1_555 1_555
H14 C24 1_555 1_555
B1 C15 1_555 1_555
H15 B1 1_555 1_555
B2 C15 1_555 1_555
H16 B2 1_555 1_555
B3 H17 1_555 1_555
B4 C15 1_555 1_555
H18 B4 1_555 1_555
B5 C23 1_555 1_555
H19 B5 1_555 1_555
B6 C15 1_555 1_555
H20 B6 1_555 1_555
B7 B2 1_555 1_555
H21 B7 1_555 1_555
B8 C23 1_555 1_555
H22 B8 1_555 1_555
B9 B1 1_555 1_555
H23 B9 1_555 1_555
B10 B3 1_555 1_555
H24 B10 1_555 1_555
C25 C30 1_555 1_555
C26 C27 1_555 1_555
C27 C34 1_555 1_555
C28 H25 1_555 1_555
C29 C28 1_555 1_555
C30 C35 1_555 1_555
C31 C25 1_555 1_555
C32 H26 1_555 1_555
C33 C25 1_555 1_555
C34 H27 1_555 1_555
C35 C32 1_555 1_555
H28 C35 1_555 1_555
C36 C31 1_555 1_555
H29 C36 1_555 1_555
C37 C29 1_555 1_555
H30 C37 1_555 1_555
C38 C36 1_555 1_555
H31 C38 1_555 1_555
C39 C30 1_555 1_555
H32 C39 1_555 1_555
C40 C27 1_555 1_555
C41 C42 1_555 1_555
C42 C44 1_555 1_555
C43 C26 1_555 1_555
H33 C43 1_555 1_555
C44 C43 1_555 1_555
H34 C44 1_555 1_555
C45 C41 1_555 1_555
H35 C45 1_555 1_555
C46 C28 1_555 1_555
H36 C46 1_555 1_555
C47 C42 1_555 1_555
H37 C47 1_555 1_555
C48 C26 1_555 1_555
H38 C48 1_555 1_555
B11 C41 1_555 1_555
H39 B11 1_555 1_555
B12 C41 1_555 1_555
H40 B12 1_555 1_555
B13 B12 1_555 1_555
H41 B13 1_555 1_555
B14 C45 1_555 1_555
H42 B14 1_555 1_555
B15 C41 1_555 1_555
H43 B15 1_555 1_555
B16 B13 1_555 1_555
H44 B16 1_555 1_555
B17 B11 1_555 1_555
H45 B17 1_555 1_555
B18 B11 1_555 1_555
H46 B18 1_555 1_555
B19 C45 1_555 1_555
H47 B19 1_555 1_555
B20 C41 1_555 1_555
H48 B20 1_555 1_555
C2 C9 1_555 1_555
C5 C11 1_555 1_555
C11 C17 1_555 1_555
C12 C13 1_555 1_555
C14 C21 1_555 1_555
C16 C19 1_555 1_555
C18 C20 1_555 1_555
C22 C24 1_555 1_555
C23 B1 1_555 1_555
C23 B6 1_555 1_555
B1 B2 1_555 1_555
B1 B5 1_555 1_555
B2 B4 1_555 1_555
B2 B9 1_555 1_555
B3 B5 1_555 1_555
B3 B7 1_555 1_555
B3 B8 1_555 1_555
B3 B9 1_555 1_555
B4 B6 1_555 1_555
B4 B7 1_555 1_555
B4 B10 1_555 1_555
B5 B8 1_555 1_555
B5 B9 1_555 1_555
B6 B8 1_555 1_555
B6 B10 1_555 1_555
B7 B9 1_555 1_555
B7 B10 1_555 1_555
B8 B10 1_555 1_555
C29 C33 1_555 1_555
C31 C46 1_555 1_555
C32 C40 1_555 1_555
C33 C40 1_555 1_555
C34 C37 1_555 1_555
C38 C39 1_555 1_555
C45 B12 1_555 1_555
C45 B20 1_555 1_555
C47 C48 1_555 1_555
B11 B15 1_555 1_555
B11 B20 1_555 1_555
B12 B15 1_555 1_555
B12 B19 1_555 1_555
B13 B15 1_555 1_555
B13 B18 1_555 1_555
B13 B19 1_555 1_555
B14 B16 1_555 1_555
B14 B17 1_555 1_555
B14 B19 1_555 1_555
B14 B20 1_555 1_555
B15 B18 1_555 1_555
B16 B17 1_555 1_555
B16 B18 1_555 1_555
B16 B19 1_555 1_555
B17 B18 1_555 1_555
B17 B20 1_555 1_555

#END
