
#######################################################################
#
#                 Cambridge Crystallographic Data Centre
#                                CCDC 
#
#######################################################################
#
# If this CIF has been generated from an entry in the Cambridge 
# Structural Database, then it will include bibliographic, chemical, 
# crystal, experimental, refinement or atomic coordinate data resulting 
# from the CCDC's data processing and validation procedures.
#
#######################################################################

data_CEKQIU
_chemical_formula_moiety         'C11 H13 N2 1+,C7 H5 O2 1-'
_chemical_name_systematic        '7-amino-2,4-dimethylquinolinium benzoate'
_symmetry_cell_setting           monoclinic
_symmetry_space_group_name_H-M   'P 21/c'
_symmetry_Int_Tables_number      14
_space_group_name_Hall           '-P 2ybc'
loop_
_symmetry_equiv_pos_site_id
_symmetry_equiv_pos_as_xyz
1 x,y,z
2 -x,1/2+y,1/2-z
3 -x,-y,-z
4 x,1/2-y,1/2+z
_cell_length_a                   24.339(5)
_cell_length_b                   7.2309(14)
_cell_length_c                   18.639(4)
_cell_angle_alpha                90
_cell_angle_beta                 112.50(3)
_cell_angle_gamma                90
_cell_volume                     3030.63
_exptl_crystal_colour            brown
_exptl_crystal_description       block
_cell_formula_units_Z            8
loop_
_atom_site_label
_atom_site_type_symbol
_atom_site_fract_x
_atom_site_fract_y
_atom_site_fract_z
O1 O 0.63716(9) -0.1652(2) 0.32840(10)
O2 O 0.61158(7) 0.0252(2) 0.22792(9)
C23 C 0.68629(9) 0.1238(3) 0.34541(11)
C24 C 0.72603(9) 0.0836(3) 0.42022(12)
H21 H 0.7276 -0.0356 0.4396
C25 C 0.76319(10) 0.2181(4) 0.46605(13)
H22 H 0.7901 0.1888 0.5157
C26 C 0.76052(11) 0.3949(4) 0.43848(14)
H23 H 0.7845 0.4866 0.4701
C27 C 0.72225(11) 0.4373(4) 0.36390(14)
H24 H 0.7210 0.5568 0.3449
C28 C 0.68584(10) 0.3024(3) 0.31754(13)
H25 H 0.6606 0.3312 0.2670
C29 C 0.64184(9) -0.0183(3) 0.29760(12)
O3 O 0.13316(8) 0.6944(2) 0.32468(10)
O4 O 0.10963(7) 0.4868(2) 0.39520(9)
C30 C 0.18274(8) 0.4064(3) 0.34668(10)
C31 C 0.22246(10) 0.4610(4) 0.31330(13)
H26 H 0.2248 0.5848 0.3012
C32 C 0.25844(11) 0.3322(5) 0.29804(14)
H27 H 0.2850 0.3699 0.2759
C33 C 0.25539(11) 0.1492(4) 0.31525(14)
H28 H 0.2789 0.0627 0.3033
C34 C 0.21785(11) 0.0937(4) 0.35000(13)
H29 H 0.2164 -0.0301 0.3628
C35 C 0.18223(9) 0.2213(3) 0.36604(11)
H30 H 0.1573 0.1827 0.3904
C36 C 0.13833(9) 0.5422(3) 0.35638(11)
N1 N 0.47988(8) 0.3451(2) 0.37094(10)
N2 N 0.35635(12) 0.2474(4) 0.51480(16)
C1 C 0.53289(10) 0.3544(3) 0.36488(12)
C2 C 0.58368(10) 0.3082(3) 0.42848(13)
H1 H 0.6203 0.3111 0.4236
C3 C 0.58146(10) 0.2583(3) 0.49836(13)
C4 C 0.52511(10) 0.2482(3) 0.50410(11)
C5 C 0.47369(9) 0.2933(3) 0.43830(11)
C6 C 0.41716(10) 0.2910(3) 0.44039(12)
H2 H 0.3841 0.3194 0.3959
C7 C 0.40988(10) 0.2466(3) 0.50869(13)
C8 C 0.46120(11) 0.1986(3) 0.57463(13)
H3 H 0.4569 0.1648 0.6203
C9 C 0.51626(11) 0.2007(3) 0.57274(12)
H4 H 0.5489 0.1703 0.6173
C10 C 0.53413(11) 0.4203(4) 0.28954(13)
H5 H 0.4950 0.4599 0.2561
H6 H 0.5468 0.3214 0.2651
H7 H 0.5613 0.5221 0.2989
C11 C 0.63753(11) 0.2200(4) 0.56698(14)
H8 H 0.6711 0.2354 0.5525
H9 H 0.6368 0.0954 0.5844
H10 H 0.6407 0.3045 0.6081
H31 H 0.4405(12) 0.398(4) 0.3222(15)
H33 H 0.3264(13) 0.275(4) 0.4751(17)
H34 H 0.3570(12) 0.222(4) 0.5635(16)
N3 N 1.01595(8) 0.6606(2) 0.40323(10)
N4 N 1.13779(11) 0.7343(3) 0.67178(13)
C12 C 0.96406(9) 0.6663(3) 0.34273(12)
C13 C 0.91360(10) 0.7254(3) 0.35376(13)
H11 H 0.8775 0.7310 0.3114
C14 C 0.91570(9) 0.7760(3) 0.42595(12)
C15 C 0.97095(9) 0.7713(3) 0.48939(11)
C16 C 1.02210(9) 0.7117(3) 0.47671(11)
C17 C 1.07770(9) 0.6991(3) 0.53667(12)
H12 H 1.1103 0.6590 0.5264
C18 C 1.08472(10) 0.7457(3) 0.61128(12)
C19 C 1.03421(11) 0.8087(3) 0.62487(13)
H13 H 1.0386 0.8432 0.6748
C20 C 0.97987(10) 0.8195(3) 0.56680(13)
H14 H 0.9477 0.8595 0.5779
C21 C 0.96322(11) 0.6034(4) 0.26594(12)
H15 H 1.0018 0.5574 0.2723
H16 H 0.9530 0.7055 0.2303
H17 H 0.9343 0.5069 0.2459
C22 C 0.85990(10) 0.8303(3) 0.43659(15)
H18 H 0.8271 0.8290 0.3872
H19 H 0.8645 0.9524 0.4583
H20 H 0.8524 0.7444 0.4710
H32 H 1.0503(11) 0.618(3) 0.3968(12)
H35 H 1.1685(13) 0.692(4) 0.6629(15)
H36 H 1.1403(12) 0.744(4) 0.7188(16)
loop_
_geom_bond_atom_site_label_1
_geom_bond_atom_site_label_2
_geom_bond_site_symmetry_1
_geom_bond_site_symmetry_2
O1 C29 1_555 1_555
O2 C29 1_555 1_555
O3 C36 1_555 1_555
O4 C36 1_555 1_555
N1 C1 1_555 1_555
N2 C7 1_555 1_555
N3 C12 1_555 1_555
N4 C18 1_555 1_555
C1 C2 1_555 1_555
C2 H1 1_555 1_555
C3 C2 1_555 1_555
C4 C3 1_555 1_555
C5 N1 1_555 1_555
C6 C5 1_555 1_555
H2 C6 1_555 1_555
C7 C6 1_555 1_555
C8 C7 1_555 1_555
H3 C8 1_555 1_555
C9 C4 1_555 1_555
H4 C9 1_555 1_555
C10 C1 1_555 1_555
H5 C10 1_555 1_555
H6 C10 1_555 1_555
H7 C10 1_555 1_555
C11 C3 1_555 1_555
H8 C11 1_555 1_555
H9 C11 1_555 1_555
H10 C11 1_555 1_555
C12 C13 1_555 1_555
C13 H11 1_555 1_555
C14 C13 1_555 1_555
C15 C14 1_555 1_555
C16 N3 1_555 1_555
C17 C16 1_555 1_555
H12 C17 1_555 1_555
C18 C17 1_555 1_555
C19 C18 1_555 1_555
H13 C19 1_555 1_555
C20 C15 1_555 1_555
H14 C20 1_555 1_555
C21 C12 1_555 1_555
H15 C21 1_555 1_555
H16 C21 1_555 1_555
H17 C21 1_555 1_555
C22 C14 1_555 1_555
H18 C22 1_555 1_555
H19 C22 1_555 1_555
H20 C22 1_555 1_555
C23 C24 1_555 1_555
C24 H21 1_555 1_555
C25 C24 1_555 1_555
H22 C25 1_555 1_555
C26 C25 1_555 1_555
H23 C26 1_555 1_555
C27 C26 1_555 1_555
H24 C27 1_555 1_555
C28 C23 1_555 1_555
H25 C28 1_555 1_555
C29 C23 1_555 1_555
C30 C31 1_555 1_555
C31 H26 1_555 1_555
C32 C31 1_555 1_555
H27 C32 1_555 1_555
C33 C32 1_555 1_555
H28 C33 1_555 1_555
C34 C33 1_555 1_555
H29 C34 1_555 1_555
C35 C30 1_555 1_555
H30 C35 1_555 1_555
C36 C30 1_555 1_555
H31 N1 1_555 1_555
H32 N3 1_555 1_555
H33 N2 1_555 1_555
H34 N2 1_555 1_555
H35 N4 1_555 1_555
H36 N4 1_555 1_555
C4 C5 1_555 1_555
C8 C9 1_555 1_555
C15 C16 1_555 1_555
C19 C20 1_555 1_555
C27 C28 1_555 1_555
C34 C35 1_555 1_555

#END
