
#######################################################################
#
#                 Cambridge Crystallographic Data Centre
#                                CCDC 
#
#######################################################################
#
# If this CIF has been generated from an entry in the Cambridge 
# Structural Database, then it will include bibliographic, chemical, 
# crystal, experimental, refinement or atomic coordinate data resulting 
# from the CCDC's data processing and validation procedures.
#
#######################################################################

data_CEKQOB
_chemical_formula_moiety         'C18 H22 B10'
_chemical_name_systematic        
1-(4-(9-ethyl-9H-carbazol-3-yl)phenyl)-1,2-dicarba-closo-dodecaborane(11)
_symmetry_cell_setting           monoclinic
_symmetry_space_group_name_H-M   'P 21'
_symmetry_Int_Tables_number      4
_space_group_name_Hall           'P 2yb'
loop_
_symmetry_equiv_pos_site_id
_symmetry_equiv_pos_as_xyz
1 x,y,z
2 -x,1/2+y,-z
_cell_length_a                   7.216(3)
_cell_length_b                   13.501(6)
_cell_length_c                   10.466(5)
_cell_angle_alpha                90
_cell_angle_beta                 104.729(7)
_cell_angle_gamma                90
_cell_volume                     986.125
_exptl_crystal_colour            colorless
_exptl_crystal_description       block
_cell_formula_units_Z            2
loop_
_atom_site_label
_atom_site_type_symbol
_atom_site_fract_x
_atom_site_fract_y
_atom_site_fract_z
B1 B 0.9040(7) 0.4967(4) 0.9638(4)
H1 H 0.8923 0.5473 1.0438
B2 B 0.7185(8) 0.3927(4) 0.7367(5)
H2 H 0.5856 0.3717 0.6638
B3 B 0.9597(8) 0.3749(4) 0.9959(5)
H3 H 0.9850 0.3423 1.0951
B4 B 1.0882(8) 0.3347(4) 0.8860(5)
H4 H 1.1964 0.2755 0.9101
B5 B 0.7315(8) 0.4112(4) 0.9057(6)
H5 H 0.6047 0.4037 0.9451
B6 B 1.1143(8) 0.4465(5) 0.7897(6)
H6 H 1.2408 0.4619 0.7524
B7 B 0.9448(8) 0.3499(4) 0.7270(5)
H7 H 0.9622 0.3007 0.6471
B8 B 1.1199(9) 0.4553(5) 0.9572(6)
H8 H 1.2524 0.4755 1.0310
B9 B 0.8460(9) 0.3080(4) 0.8544(6)
H9 H 0.7946 0.2317 0.8590
B10 B 0.9916(7) 0.5360(4) 0.8396(5)
H10 H 1.0380 0.6132 0.8345
C1 C 0.2245(6) 0.9158(3) 0.6843(4)
C2 C 0.6144(5) 0.5860(3) 0.7752(3)
C3 C 0.3365(5) 0.7365(3) 0.7071(4)
C4 C 0.1808(6) 0.8114(3) 0.6701(4)
C5 C 0.0711(6) 0.9842(3) 0.6522(4)
C6 C 0.5278(6) 0.6079(3) 0.6438(4)
H11 H 0.5630 0.5735 0.5766
C7 C -0.0058(6) 0.7816(3) 0.6257(4)
H12 H -0.0322 0.7142 0.6165
C8 C 0.4113(7) 0.9518(3) 0.7249(4)
H13 H 0.5130 0.9073 0.7458
C9 C 0.3877(6) 0.6816(3) 0.6130(4)
H14 H 0.3274 0.6936 0.5247
C10 C -0.1194(7) 0.9496(4) 0.6099(4)
H15 H -0.2198 0.9949 0.5928
C11 C 0.4250(7) 0.7158(3) 0.8370(4)
H16 H 0.3917 0.7517 0.9036
C12 C 0.5624(7) 0.6427(3) 0.8703(4)
H17 H 0.6215 0.6313 0.9589
C13 C 0.4475(8) 1.0504(3) 0.7346(5)
H18 H 0.5729 1.0734 0.7617
C14 C 0.2924(8) 1.1182(4) 0.7030(5)
H19 H 0.3153 1.1861 0.7081
C15 C -0.1594(7) 0.8492(4) 0.5934(5)
H20 H -0.2847 0.8270 0.5617
C16 C 0.1110(8) 1.0835(4) 0.6655(5)
H21 H 0.0100 1.1284 0.6481
C17 C 0.7607(5) 0.5068(3) 0.8103(3)
C18 C 0.8852(7) 0.4757(4) 0.7020(5)
H22 H 0.8594 0.5100 0.6037
loop_
_geom_bond_atom_site_label_1
_geom_bond_atom_site_label_2
_geom_bond_site_symmetry_1
_geom_bond_site_symmetry_2
B1 H1 1_555 1_555
B2 H2 1_555 1_555
B3 B1 1_555 1_555
H3 B3 1_555 1_555
B4 B3 1_555 1_555
H4 B4 1_555 1_555
B5 B1 1_555 1_555
H5 B5 1_555 1_555
B6 B4 1_555 1_555
H6 B6 1_555 1_555
B7 B2 1_555 1_555
H7 B7 1_555 1_555
B8 B1 1_555 1_555
H8 B8 1_555 1_555
B9 B2 1_555 1_555
H9 B9 1_555 1_555
B10 B1 1_555 1_555
H10 B10 1_555 1_555
C1 C4 1_555 1_555
C2 C6 1_555 1_555
C3 C4 1_555 1_555
C4 C7 1_555 1_555
C5 C1 1_555 1_555
C6 H11 1_555 1_555
C7 H12 1_555 1_555
C8 C1 1_555 1_555
H13 C8 1_555 1_555
C9 C3 1_555 1_555
H14 C9 1_555 1_555
C10 C5 1_555 1_555
H15 C10 1_555 1_555
C11 C3 1_555 1_555
H16 C11 1_555 1_555
C12 C2 1_555 1_555
H17 C12 1_555 1_555
C13 C8 1_555 1_555
H18 C13 1_555 1_555
C14 C13 1_555 1_555
H19 C14 1_555 1_555
C15 C7 1_555 1_555
H20 C15 1_555 1_555
C16 C5 1_555 1_555
H21 C16 1_555 1_555
C17 B1 1_555 1_555
C18 B2 1_555 1_555
H22 C18 1_555 1_555
B2 B5 1_555 1_555
B2 C17 1_555 1_555
B3 B5 1_555 1_555
B3 B8 1_555 1_555
B3 B9 1_555 1_555
B4 B7 1_555 1_555
B4 B8 1_555 1_555
B4 B9 1_555 1_555
B5 B9 1_555 1_555
B5 C17 1_555 1_555
B6 B7 1_555 1_555
B6 B8 1_555 1_555
B6 B10 1_555 1_555
B6 C18 1_555 1_555
B7 B9 1_555 1_555
B7 C18 1_555 1_555
B8 B10 1_555 1_555
B10 C17 1_555 1_555
B10 C18 1_555 1_555
C2 C17 1_555 1_555
C6 C9 1_555 1_555
C10 C15 1_555 1_555
C11 C12 1_555 1_555
C14 C16 1_555 1_555
C17 C18 1_555 1_555

#END
