
#######################################################################
#
#                 Cambridge Crystallographic Data Centre
#                                CCDC 
#
#######################################################################
#
# If this CIF has been generated from an entry in the Cambridge 
# Structural Database, then it will include bibliographic, chemical, 
# crystal, experimental, refinement or atomic coordinate data resulting 
# from the CCDC's data processing and validation procedures.
#
#######################################################################

data_CEKQEQ
_chemical_formula_moiety         'C11 H13 N2 1+,C2 H3 O2 1-'
_chemical_name_systematic        '7-amino-2,4-dimethylquinolinium acetate'
_symmetry_cell_setting           orthorhombic
_symmetry_space_group_name_H-M   'P b c a'
_symmetry_Int_Tables_number      61
_space_group_name_Hall           '-P 2ac 2ab'
loop_
_symmetry_equiv_pos_site_id
_symmetry_equiv_pos_as_xyz
1 x,y,z
2 1/2-x,-y,1/2+z
3 -x,1/2+y,1/2-z
4 1/2+x,1/2-y,-z
5 -x,-y,-z
6 1/2+x,y,1/2-z
7 x,1/2-y,1/2+z
8 1/2-x,1/2+y,z
_cell_length_a                   17.755(4)
_cell_length_b                   7.4749(15)
_cell_length_c                   18.786(4)
_cell_angle_alpha                90
_cell_angle_beta                 90
_cell_angle_gamma                90
_cell_volume                     2493.22
_exptl_crystal_colour            yellow
_exptl_crystal_description       block
_cell_formula_units_Z            8
loop_
_atom_site_label
_atom_site_type_symbol
_atom_site_fract_x
_atom_site_fract_y
_atom_site_fract_z
O1 O 1.09218(8) 0.2144(2) 0.28579(7)
O2 O 1.04769(7) 0.03352(19) 0.36866(7)
C1 C 1.03941(11) 0.1422(3) 0.31733(10)
C2 C 0.95980(14) 0.1833(4) 0.29453(14)
H1 H 0.9509 0.3096 0.2984
H2 H 0.9251 0.1200 0.3246
H3 H 0.9527 0.1464 0.2460
N1 N 0.18620(9) 0.03344(18) 0.41464(7)
N2 N 0.07506(11) 0.2407(2) 0.63169(10)
C3 C 0.24551(11) -0.0080(2) 0.37383(9)
C4 C 0.31792(11) 0.0183(2) 0.39986(11)
H4 H 0.3589 -0.0130 0.3716
C5 C 0.33056(10) 0.0895(2) 0.46634(10)
C6 C 0.26778(9) 0.1326(2) 0.50911(9)
C7 C 0.27248(11) 0.2046(2) 0.57845(9)
H5 H 0.3196 0.2285 0.5978
C8 C 0.20998(11) 0.2398(2) 0.61744(9)
H6 H 0.2152 0.2895 0.6626
C9 C 0.13691(10) 0.2026(2) 0.59105(9)
C10 C 0.13011(10) 0.1343(2) 0.52298(9)
H7 H 0.0826 0.1114 0.5043
C11 C 0.19411(9) 0.0995(2) 0.48211(8)
C12 C 0.23020(13) -0.0779(3) 0.30089(10)
H8 H 0.1924 -0.1695 0.3033
H9 H 0.2756 -0.1271 0.2813
H10 H 0.2127 0.0178 0.2711
C13 C 0.40939(11) 0.1223(3) 0.49209(13)
H11 H 0.4446 0.0855 0.4561
H12 H 0.4181 0.0548 0.5348
H13 H 0.4160 0.2474 0.5018
H14 H 0.1320(14) 0.025(3) 0.3943(12)
H15 H 0.0851(14) 0.256(3) 0.6768(15)
H16 H 0.0310(15) 0.181(3) 0.6189(13)
loop_
_geom_bond_atom_site_label_1
_geom_bond_atom_site_label_2
_geom_bond_site_symmetry_1
_geom_bond_site_symmetry_2
O1 C1 1_555 1_555
O2 C1 1_555 1_555
C1 C2 1_555 1_555
C2 H1 1_555 1_555
H2 C2 1_555 1_555
H3 C2 1_555 1_555
N1 C3 1_555 1_555
N2 C9 1_555 1_555
C3 C4 1_555 1_555
C4 H4 1_555 1_555
C5 C4 1_555 1_555
C6 C5 1_555 1_555
C7 C6 1_555 1_555
H5 C7 1_555 1_555
C8 C7 1_555 1_555
H6 C8 1_555 1_555
C9 C8 1_555 1_555
C10 C9 1_555 1_555
H7 C10 1_555 1_555
C11 N1 1_555 1_555
C12 C3 1_555 1_555
H8 C12 1_555 1_555
H9 C12 1_555 1_555
H10 C12 1_555 1_555
C13 C5 1_555 1_555
H11 C13 1_555 1_555
H12 C13 1_555 1_555
H13 C13 1_555 1_555
H14 N1 1_555 1_555
H15 N2 1_555 1_555
H16 N2 1_555 1_555
C6 C11 1_555 1_555
C10 C11 1_555 1_555

#END
