
#######################################################################
#
#                 Cambridge Crystallographic Data Centre
#                                CCDC 
#
#######################################################################
#
# If this CIF has been generated from an entry in the Cambridge 
# Structural Database, then it will include bibliographic, chemical, 
# crystal, experimental, refinement or atomic coordinate data resulting 
# from the CCDC's data processing and validation procedures.
#
#######################################################################

data_CEKRIW
_chemical_formula_moiety         'C23 H26 B10'
_chemical_name_systematic        
1-methyl-2-(4-(phenanthren-9-yl)phenyl)-1,2-dicarba-closo-dodecaborane(10)
_symmetry_cell_setting           monoclinic
_symmetry_space_group_name_H-M   'P 21/n'
_symmetry_Int_Tables_number      14
_space_group_name_Hall           '-P 2yn'
loop_
_symmetry_equiv_pos_site_id
_symmetry_equiv_pos_as_xyz
1 x,y,z
2 1/2-x,1/2+y,1/2-z
3 -x,-y,-z
4 1/2+x,1/2-y,1/2+z
_cell_length_a                   9.0659(8)
_cell_length_b                   19.6907(17)
_cell_length_c                   12.8927(11)
_cell_angle_alpha                90
_cell_angle_beta                 90.199(3)
_cell_angle_gamma                90
_cell_volume                     2301.51
_exptl_crystal_colour            colorless
_exptl_crystal_description       block
_cell_formula_units_Z            4
loop_
_atom_site_label
_atom_site_type_symbol
_atom_site_fract_x
_atom_site_fract_y
_atom_site_fract_z
B1 B 1.0005(7) 0.3471(3) 0.2994(5)
H1 H 1.0114 0.2999 0.3445
B2 B 0.9286(8) 0.4123(3) 0.1053(5)
H2 H 0.8934 0.4076 0.0239
C1 C 0.8183(6) 0.4433(3) 0.2026(4)
B3 B 0.9146(7) 0.4877(3) 0.2955(5)
H3 H 0.8688 0.5315 0.3375
B4 B 0.8601(7) 0.3566(3) 0.2038(5)
H4 H 0.7794 0.3163 0.1870
B5 B 0.9609(8) 0.4925(4) 0.1618(5)
H5 H 0.9468 0.5395 0.1169
B6 B 1.0475(8) 0.3506(4) 0.1657(5)
H6 H 1.0896 0.3060 0.1236
B7 B 1.1111(8) 0.4356(4) 0.1400(5)
H7 H 1.1958 0.4459 0.0812
B8 B 1.1016(8) 0.4830(4) 0.2589(5)
H8 H 1.1794 0.5242 0.2772
B9 B 1.0350(7) 0.4274(4) 0.3567(5)
H9 H 1.0688 0.4324 0.4384
B10 B 1.1573(8) 0.3948(4) 0.2602(5)
H10 H 1.2708 0.3790 0.2786
C2 C 0.5969(6) 0.4282(3) 0.5447(4)
H11 H 0.5767 0.4608 0.5949
C3 C 0.2865(6) 0.3474(3) 0.7948(4)
C4 C 0.1443(6) 0.3295(3) 0.7499(4)
C5 C 0.0146(6) 0.3178(3) 0.8090(4)
H12 H 0.0176 0.3249 0.8802
C6 C 0.4419(7) 0.3668(3) 0.9454(4)
H13 H 0.4535 0.3680 1.0171
C7 C 0.7382(6) 0.3927(3) 0.3951(4)
C8 C 0.5497(7) 0.3209(3) 0.4680(4)
H14 H 0.4973 0.2803 0.4662
C9 C 0.3920(6) 0.3547(3) 0.6168(4)
C10 C 0.7078(7) 0.4406(3) 0.4728(4)
H15 H 0.7619 0.4807 0.4762
C11 C 0.1341(6) 0.3198(3) 0.6410(4)
C12 C 0.4104(6) 0.3606(3) 0.7291(4)
C13 C 0.5164(6) 0.3691(3) 0.5437(4)
C14 C 0.3077(7) 0.3523(3) 0.9035(4)
H16 H 0.2278 0.3455 0.9473
C15 C 0.2619(7) 0.3344(3) 0.5775(4)
H17 H 0.2535 0.3293 0.5060
C16 C 0.8612(6) 0.4047(3) 0.3174(4)
C17 C 0.5468(6) 0.3754(3) 0.7751(4)
H18 H 0.6287 0.3825 0.7332
C18 C 0.0014(7) 0.2981(3) 0.5969(5)
H19 H -0.0042 0.2921 0.5254
C19 C 0.5622(7) 0.3798(3) 0.8815(5)
H20 H 0.6529 0.3914 0.9104
C20 C 0.6595(6) 0.4613(3) 0.1835(5)
H21 H 0.6313 0.4978 0.2288
H22 H 0.5986 0.4224 0.1968
H23 H 0.6470 0.4753 0.1127
C21 C 0.6605(7) 0.3324(3) 0.3948(4)
H24 H 0.6819 0.2993 0.3456
C22 C -0.1224(7) 0.2850(3) 0.6567(5)
H25 H -0.2093 0.2690 0.6269
C23 C -0.1111(7) 0.2970(3) 0.7653(5)
H26 H -0.1935 0.2902 0.8068
loop_
_geom_bond_atom_site_label_1
_geom_bond_atom_site_label_2
_geom_bond_site_symmetry_1
_geom_bond_site_symmetry_2
B1 H1 1_555 1_555
B2 H2 1_555 1_555
C1 B2 1_555 1_555
B3 C1 1_555 1_555
H3 B3 1_555 1_555
B4 B1 1_555 1_555
H4 B4 1_555 1_555
B5 B2 1_555 1_555
H5 B5 1_555 1_555
B6 B1 1_555 1_555
H6 B6 1_555 1_555
B7 B2 1_555 1_555
H7 B7 1_555 1_555
B8 B3 1_555 1_555
H8 B8 1_555 1_555
B9 B1 1_555 1_555
H9 B9 1_555 1_555
B10 B1 1_555 1_555
H10 B10 1_555 1_555
C2 H11 1_555 1_555
C3 C4 1_555 1_555
C4 C5 1_555 1_555
C5 H12 1_555 1_555
C6 H13 1_555 1_555
C7 C10 1_555 1_555
C8 H14 1_555 1_555
C9 C12 1_555 1_555
C10 C2 1_555 1_555
H15 C10 1_555 1_555
C11 C4 1_555 1_555
C12 C3 1_555 1_555
C13 C2 1_555 1_555
C14 C3 1_555 1_555
H16 C14 1_555 1_555
C15 C9 1_555 1_555
H17 C15 1_555 1_555
C16 B1 1_555 1_555
C17 C12 1_555 1_555
H18 C17 1_555 1_555
C18 C11 1_555 1_555
H19 C18 1_555 1_555
C19 C6 1_555 1_555
H20 C19 1_555 1_555
C20 C1 1_555 1_555
H21 C20 1_555 1_555
H22 C20 1_555 1_555
H23 C20 1_555 1_555
C21 C7 1_555 1_555
H24 C21 1_555 1_555
C22 C18 1_555 1_555
H25 C22 1_555 1_555
C23 C5 1_555 1_555
H26 C23 1_555 1_555
B2 B4 1_555 1_555
B2 B6 1_555 1_555
C1 B4 1_555 1_555
C1 B5 1_555 1_555
C1 C16 1_555 1_555
B3 B5 1_555 1_555
B3 B9 1_555 1_555
B3 C16 1_555 1_555
B4 B6 1_555 1_555
B4 C16 1_555 1_555
B5 B7 1_555 1_555
B5 B8 1_555 1_555
B6 B7 1_555 1_555
B6 B10 1_555 1_555
B7 B8 1_555 1_555
B7 B10 1_555 1_555
B8 B9 1_555 1_555
B8 B10 1_555 1_555
B9 B10 1_555 1_555
B9 C16 1_555 1_555
C6 C14 1_555 1_555
C7 C16 1_555 1_555
C8 C13 1_555 1_555
C8 C21 1_555 1_555
C9 C13 1_555 1_555
C11 C15 1_555 1_555
C17 C19 1_555 1_555
C22 C23 1_555 1_555

#END
