
#######################################################################
#
#                 Cambridge Crystallographic Data Centre
#                                CCDC 
#
#######################################################################
#
# If this CIF has been generated from an entry in the Cambridge 
# Structural Database, then it will include bibliographic, chemical, 
# crystal, experimental, refinement or atomic coordinate data resulting 
# from the CCDC's data processing and validation procedures.
#
#######################################################################

data_CEKRUI
_chemical_formula_moiety         'C22 H23 B10 F1'
_chemical_name_systematic        
1-(2-fluoro-4-(phenanthren-9-yl)phenyl)-1,2-dicarba-closo-dodecaborane(11)
_symmetry_cell_setting           orthorhombic
_symmetry_space_group_name_H-M   'P n a 21'
_symmetry_Int_Tables_number      33
_space_group_name_Hall           'P 2c -2n'
loop_
_symmetry_equiv_pos_site_id
_symmetry_equiv_pos_as_xyz
1 x,y,z
2 -x,-y,1/2+z
3 1/2+x,1/2-y,z
4 1/2-x,1/2+y,1/2+z
_cell_length_a                   13.1340(6)
_cell_length_b                   16.9188(7)
_cell_length_c                   19.7430(8)
_cell_angle_alpha                90
_cell_angle_beta                 90
_cell_angle_gamma                90
_cell_volume                     4387.12
_exptl_crystal_colour            colorless
_exptl_crystal_description       block
_cell_formula_units_Z            8
loop_
_atom_site_label
_atom_site_type_symbol
_atom_site_fract_x
_atom_site_fract_y
_atom_site_fract_z
B1 B 0.7638(3) 0.5919(3) 0.8334(2)
H1 H 0.7868 0.5318 0.8154
B2 B 0.7169(3) 0.6097(3) 0.9161(2)
H2 H 0.7094 0.5604 0.9536
B3 B 0.6284(3) 0.6867(3) 0.9119(2)
H3 H 0.5611 0.6887 0.9467
B4 B 0.6191(3) 0.7176(2) 0.8282(2)
H4 H 0.5460 0.7400 0.8061
B5 B 0.8276(3) 0.6792(3) 0.8067(2)
H5 H 0.8940 0.6768 0.7712
B6 B 0.8381(3) 0.6472(3) 0.8921(3)
H6 H 0.9111 0.6238 0.9133
B7 B 0.7516(3) 0.7060(3) 0.9413(2)
H7 H 0.7680 0.7209 0.9955
B8 B 0.6895(3) 0.7738(3) 0.8865(3)
H8 H 0.6646 0.8337 0.9043
B9 B 0.7353(4) 0.7567(2) 0.8038(3)
H9 H 0.7404 0.8056 0.7657
B10 B 0.8198(5) 0.7506(2) 0.8731(3)
H10 H 0.8812 0.7955 0.8817
C1 C 0.6388(3) 0.6203(2) 0.84839(18)
C2 C 0.7033(3) 0.6609(2) 0.7825(2)
H11 H 0.6861 0.6451 0.7286
C3 C 0.4907(3) 0.5680(2) 0.77865(19)
C4 C 0.5524(2) 0.56371(19) 0.83524(18)
C5 C 0.5274(3) 0.5062(2) 0.88194(19)
H12 H 0.5682 0.5007 0.9214
C6 C 0.4443(3) 0.4558(2) 0.87312(18)
H13 H 0.4297 0.4168 0.9063
C7 C 0.3829(2) 0.46237(19) 0.81640(17)
C8 C 0.4078(3) 0.5191(2) 0.76874(19)
H14 H 0.3677 0.5245 0.7290
C9 C 0.2943(2) 0.40795(19) 0.80487(18)
C10 C 0.3089(3) 0.3296(2) 0.80781(19)
H15 H 0.3733 0.3104 0.8224
C11 C 0.2320(3) 0.2736(2) 0.79001(19)
C12 C 0.2497(3) 0.1918(2) 0.7930(2)
H16 H 0.3124 0.1729 0.8107
C13 C 0.1774(3) 0.1384(2) 0.7706(2)
H17 H 0.1901 0.0832 0.7732
C14 C 0.0856(3) 0.1664(2) 0.74411(19)
H18 H 0.0369 0.1300 0.7269
C15 C 0.0650(3) 0.24609(19) 0.7427(3)
H19 H 0.0015 0.2640 0.7255
C16 C 0.1366(3) 0.3014(2) 0.76627(18)
C17 C 0.1162(3) 0.3865(2) 0.76775(19)
C18 C 0.0210(3) 0.4174(2) 0.7504(2)
H20 H -0.0318 0.3824 0.7370
C19 C 0.0022(3) 0.4973(2) 0.7523(2)
H21 H -0.0624 0.5172 0.7389
C20 C 0.0776(3) 0.5488(2) 0.7740(2)
H22 H 0.0639 0.6038 0.7770
C21 C 0.1721(3) 0.5203(2) 0.7910(2)
H23 H 0.2232 0.5563 0.8054
C22 C 0.1951(3) 0.4391(2) 0.78759(19)
F1 F 0.5106(2) 0.62045(16) 0.72882(14)
B11 B 0.9576(3) 0.6596(2) 0.5930(2)
H25 H 0.9409 0.6424 0.6466
B12 B 1.0178(3) 0.5932(2) 0.5356(2)
H26 H 1.0406 0.5319 0.5508
B13 B 0.9719(3) 0.6156(2) 0.4565(2)
H27 H 0.9644 0.5671 0.4183
B14 B 0.8815(3) 0.6899(3) 0.4593(2)
H28 H 0.8144 0.6920 0.4244
B15 B 0.9936(4) 0.7581(3) 0.5704(3)
H29 H 1.0011 0.8062 0.6091
B16 B 1.0826(3) 0.6797(2) 0.5644(2)
H30 H 1.1495 0.6763 0.5994
B17 B 1.0908(3) 0.6498(3) 0.4783(2)
H31 H 1.1632 0.6264 0.4561
B18 B 1.0059(3) 0.7096(3) 0.4305(2)
H32 H 1.0217 0.7255 0.3764
B19 B 0.9449(3) 0.7761(3) 0.4866(2)
H33 H 0.9201 0.8364 0.4703
B20 B 1.0753(4) 0.7515(2) 0.4986(3)
H34 H 1.1374 0.7957 0.4897
C23 C 0.8933(3) 0.6229(2) 0.52434(18)
C24 C 0.8744(3) 0.7192(2) 0.5438(2)
H35 H 0.8012 0.7420 0.5654
C25 C 0.7386(3) 0.5748(2) 0.58810(19)
C26 C 0.8063(2) 0.56586(19) 0.53432(17)
C27 C 0.7845(3) 0.5037(2) 0.49022(19)
C28 C 0.7022(3) 0.45482(19) 0.49847(19)
H36 H 0.6906 0.4135 0.4668
C29 C 0.6351(2) 0.46492(18) 0.55276(18)
C30 C 0.6564(3) 0.5259(2) 0.59770(19)
H37 H 0.6134 0.5340 0.6358
C31 C 0.5489(3) 0.4088(2) 0.56430(18)
C32 C 0.5667(3) 0.3303(2) 0.56104(18)
H38 H 0.6320 0.3123 0.5471
C33 C 0.4899(3) 0.2729(2) 0.57792(19)
C34 C 0.5110(3) 0.1911(2) 0.5723(2)
H39 H 0.5749 0.1740 0.5552
C35 C 0.4402(3) 0.1370(2) 0.5912(2)
H40 H 0.4542 0.0822 0.5864
C36 C 0.3469(3) 0.1616(2) 0.61760(19)
H41 H 0.2985 0.1233 0.6320
C37 C 0.3243(3) 0.2401(2) 0.6230(2)
H42 H 0.2603 0.2558 0.6409
C38 C 0.3952(3) 0.2989(2) 0.60214(17)
C39 C 0.3725(3) 0.3827(2) 0.60225(18)
C40 C 0.2748(3) 0.4122(2) 0.61904(18)
H43 H 0.2242 0.3765 0.6347
C41 C 0.2514(3) 0.4908(2) 0.61329(19)
H44 H 0.1853 0.5090 0.6250
C42 C 0.3251(3) 0.5444(2) 0.59004(19)
H45 H 0.3085 0.5987 0.5848
C43 C 0.4205(3) 0.5183(2) 0.57514(19)
H46 H 0.4701 0.5553 0.5601
C44 C 0.4481(3) 0.4380(2) 0.58131(18)
H47 H 0.7498 0.6165 0.6194
F3 F 0.8445(3) 0.4885(3) 0.4386(2)
H24? H 0.5061 0.6063 0.7450
F2? F 0.5867(12) 0.4897(9) 0.9325(7)
H48? H 0.8286 0.4949 0.4528
F4? F 0.7451(4) 0.6349(3) 0.6306(2)
loop_
_geom_bond_atom_site_label_1
_geom_bond_atom_site_label_2
_geom_bond_site_symmetry_1
_geom_bond_site_symmetry_2
B1 H1 1_555 1_555
B2 B1 1_555 1_555
H2 B2 1_555 1_555
B3 B2 1_555 1_555
H3 B3 1_555 1_555
B4 B3 1_555 1_555
H4 B4 1_555 1_555
B5 B1 1_555 1_555
H5 B5 1_555 1_555
B6 B1 1_555 1_555
H6 B6 1_555 1_555
B7 B2 1_555 1_555
H7 B7 1_555 1_555
B8 B3 1_555 1_555
H8 B8 1_555 1_555
B9 B4 1_555 1_555
H9 B9 1_555 1_555
B10 B5 1_555 1_555
H10 B10 1_555 1_555
C1 B1 1_555 1_555
C2 B1 1_555 1_555
H11 C2 1_555 1_555
C3 C4 1_555 1_555
C4 C1 1_555 1_555
C5 C4 1_555 1_555
H12 C5 1_555 1_555
C6 C5 1_555 1_555
H13 C6 1_555 1_555
C7 C6 1_555 1_555
C8 C3 1_555 1_555
H14 C8 1_555 1_555
C9 C7 1_555 1_555
C10 C9 1_555 1_555
H15 C10 1_555 1_555
C11 C10 1_555 1_555
C12 C11 1_555 1_555
H16 C12 1_555 1_555
C13 C12 1_555 1_555
H17 C13 1_555 1_555
C14 C13 1_555 1_555
H18 C14 1_555 1_555
C15 C14 1_555 1_555
H19 C15 1_555 1_555
C16 C11 1_555 1_555
C17 C16 1_555 1_555
C18 C17 1_555 1_555
H20 C18 1_555 1_555
C19 C18 1_555 1_555
H21 C19 1_555 1_555
C20 C19 1_555 1_555
H22 C20 1_555 1_555
C21 C20 1_555 1_555
H23 C21 1_555 1_555
C22 C9 1_555 1_555
F1 C3 1_555 1_555
B11 H25 1_555 1_555
B12 B11 1_555 1_555
H26 B12 1_555 1_555
B13 B12 1_555 1_555
H27 B13 1_555 1_555
B14 B13 1_555 1_555
H28 B14 1_555 1_555
B15 B11 1_555 1_555
H29 B15 1_555 1_555
B16 B11 1_555 1_555
H30 B16 1_555 1_555
B17 B12 1_555 1_555
H31 B17 1_555 1_555
B18 B13 1_555 1_555
H32 B18 1_555 1_555
B19 B14 1_555 1_555
H33 B19 1_555 1_555
B20 B15 1_555 1_555
H34 B20 1_555 1_555
C23 B11 1_555 1_555
C24 B11 1_555 1_555
H35 C24 1_555 1_555
C25 C26 1_555 1_555
C26 C23 1_555 1_555
C27 C26 1_555 1_555
C28 C27 1_555 1_555
H36 C28 1_555 1_555
C29 C28 1_555 1_555
C30 C25 1_555 1_555
H37 C30 1_555 1_555
C31 C29 1_555 1_555
C32 C31 1_555 1_555
H38 C32 1_555 1_555
C33 C32 1_555 1_555
C34 C33 1_555 1_555
H39 C34 1_555 1_555
C35 C34 1_555 1_555
H40 C35 1_555 1_555
C36 C35 1_555 1_555
H41 C36 1_555 1_555
C37 C36 1_555 1_555
H42 C37 1_555 1_555
C38 C33 1_555 1_555
C39 C38 1_555 1_555
C40 C39 1_555 1_555
H43 C40 1_555 1_555
C41 C40 1_555 1_555
H44 C41 1_555 1_555
C42 C41 1_555 1_555
H45 C42 1_555 1_555
C43 C42 1_555 1_555
H46 C43 1_555 1_555
C44 C31 1_555 1_555
H47 C25 1_555 1_555
F3 C27 1_555 1_555
B2 B6 1_555 1_555
B2 C1 1_555 1_555
B3 B7 1_555 1_555
B3 C1 1_555 1_555
B4 B8 1_555 1_555
B4 C1 1_555 1_555
B4 C2 1_555 1_555
B5 B6 1_555 1_555
B5 B9 1_555 1_555
B5 C2 1_555 1_555
B6 B7 1_555 1_555
B6 B10 1_555 1_555
B7 B8 1_555 1_555
B7 B10 1_555 1_555
B8 B9 1_555 1_555
B8 B10 1_555 1_555
B9 B10 1_555 1_555
B9 C2 1_555 1_555
C1 C2 1_555 1_555
C7 C8 1_555 1_555
C15 C16 1_555 1_555
C17 C22 1_555 1_555
C21 C22 1_555 1_555
B12 B16 1_555 1_555
B12 C23 1_555 1_555
B13 B17 1_555 1_555
B13 C23 1_555 1_555
B14 B18 1_555 1_555
B14 C23 1_555 1_555
B14 C24 1_555 1_555
B15 B16 1_555 1_555
B15 B19 1_555 1_555
B15 C24 1_555 1_555
B16 B17 1_555 1_555
B16 B20 1_555 1_555
B17 B18 1_555 1_555
B17 B20 1_555 1_555
B18 B19 1_555 1_555
B18 B20 1_555 1_555
B19 B20 1_555 1_555
B19 C24 1_555 1_555
C23 C24 1_555 1_555
C29 C30 1_555 1_555
C37 C38 1_555 1_555
C39 C44 1_555 1_555
C43 C44 1_555 1_555

#END
