
#######################################################################
#
#                 Cambridge Crystallographic Data Centre
#                                CCDC 
#
#######################################################################
#
# If this CIF has been generated from an entry in the Cambridge 
# Structural Database, then it will include bibliographic, chemical, 
# crystal, experimental, refinement or atomic coordinate data resulting 
# from the CCDC's data processing and validation procedures.
#
#######################################################################

data_CEKRES
_chemical_formula_moiety         'C26 H29 B10 N1'
_chemical_name_systematic        
1-(4'-(diphenylamino)biphenyl-4-yl)-1,2-dicarba-closo-dodecaborane(11)
_symmetry_cell_setting           monoclinic
_symmetry_space_group_name_H-M   'C 2/c'
_symmetry_Int_Tables_number      15
_space_group_name_Hall           '-C 2yn'
loop_
_symmetry_equiv_pos_site_id
_symmetry_equiv_pos_as_xyz
1 x,y,z
2 -x,y,1/2-z
3 1/2+x,1/2+y,z
4 1/2-x,1/2+y,1/2-z
5 -x,-y,-z
6 x,-y,1/2+z
7 1/2-x,1/2-y,-z
8 1/2+x,1/2-y,1/2+z
_cell_length_a                   19.494(3)
_cell_length_b                   7.4004(13)
_cell_length_c                   37.591(7)
_cell_angle_alpha                90
_cell_angle_beta                 104.328(3)
_cell_angle_gamma                90
_cell_volume                     5254.32
_exptl_crystal_colour            white
_exptl_crystal_description       block
_cell_formula_units_Z            8
loop_
_atom_site_label
_atom_site_type_symbol
_atom_site_fract_x
_atom_site_fract_y
_atom_site_fract_z
C1 C 0.4399(2) 1.4433(4) 0.20734(9)
H1 H 0.4297 1.5367 0.2218
C2 C 0.36017(12) 0.7036(3) 0.07298(6)
C3 C 0.37555(11) 0.2762(3) -0.05437(6)
N1 N 0.36236(11) 1.0076(3) 0.16894(6)
C4 C 0.36461(11) 0.5951(3) 0.04045(6)
C5 C 0.35938(12) 0.9060(3) 0.13673(6)
C6 C 0.35574(13) 0.9912(3) 0.10309(7)
H2 H 0.3531 1.1166 0.1016
C7 C 0.37198(11) 0.3885(3) -0.02165(6)
C8 C 0.36063(14) 0.7187(3) 0.13710(7)
H3 H 0.3607 0.6581 0.1588
C9 C 0.35607(13) 0.8913(3) 0.07215(7)
H4 H 0.3535 0.9511 0.0501
C10 C 0.36169(13) 0.6207(3) 0.10629(7)
H5 H 0.3635 0.4953 0.1078
C11 C 0.39962(13) 0.4299(4) 0.04377(7)
H6 H 0.4212 0.3867 0.0671
C12 C 0.33849(14) 0.5550(4) -0.02549(7)
H7 H 0.3180 0.5995 -0.0488
C13 C 0.40945(14) 1.1582(3) 0.17712(7)
C14 C 0.33518(14) 0.6559(4) 0.00496(7)
H8 H 0.3126 0.7676 0.0016
B1 B 0.45392(15) 0.1956(4) -0.06052(8)
C15 C 0.40333(14) 0.3281(4) 0.01363(7)
H9 H 0.4270 0.2180 0.0169
C16 C 0.33937(14) 0.9258(3) 0.19841(7)
B2 B 0.41101(15) 0.3769(4) -0.08745(8)
B3 B 0.30404(15) 0.1363(4) -0.07288(8)
B4 B 0.44591(16) 0.2008(5) -0.10864(9)
B5 B 0.38859(16) 0.0471(4) -0.05180(8)
C17 C 0.38130(17) 0.9257(4) 0.23388(8)
H10 H 0.4255 0.9808 0.2390
B6 B 0.29605(16) 0.1413(5) -0.12120(8)
B7 B 0.33898(18) -0.0406(4) -0.09433(9)
B8 B 0.36156(17) 0.2891(5) -0.12985(8)
C18 C 0.47132(17) 1.1649(4) 0.16557(9)
H11 H 0.4830 1.0704 0.1519
C19 C 0.27391(17) 0.8418(4) 0.19168(9)
H12 H 0.2447 0.8427 0.1680
B9 B 0.37462(17) 0.0533(5) -0.12953(9)
C20 C 0.39354(18) 1.2997(4) 0.19810(8)
H13 H 0.3518 1.2977 0.2059
B10 B 0.43208(17) -0.0054(5) -0.08643(9)
C21 C 0.3578(2) 0.8440(5) 0.26184(9)
H14 H 0.3860 0.8466 0.2857
C22 C 0.2935(3) 0.7595(5) 0.25459(11)
H15 H 0.2781 0.7038 0.2734
C23 C 0.2514(2) 0.7576(5) 0.21911(11)
H16 H 0.2079 0.6990 0.2139
C24 C 0.5009(2) 1.4488(5) 0.19530(11)
H17 H 0.5318 1.5458 0.2014
C25 C 0.5157(2) 1.3117(5) 0.17439(12)
H18 H 0.5565 1.3171 0.1659
C26 C 0.32223(13) 0.3275(4) -0.09473(7)
H19 H 0.2439(15) 0.142(3) -0.1387(7)
H20 H 0.3494(15) 0.388(4) -0.1509(8)
H21 H 0.4286(14) 0.523(4) -0.0806(7)
H22 H 0.3740(15) -0.026(4) -0.1532(8)
H23 H 0.3943(16) -0.012(4) -0.0264(8)
H24 H 0.4706(17) -0.115(4) -0.0828(8)
H25 H 0.3157(17) -0.170(4) -0.0963(8)
H26 H 0.2880(14) 0.437(4) -0.0955(7)
H27 H 0.4877(18) 0.231(4) -0.1210(9)
H28 H 0.5020(14) 0.230(3) -0.0391(7)
H29 H 0.2626(16) 0.148(4) -0.0584(8)
loop_
_geom_bond_atom_site_label_1
_geom_bond_atom_site_label_2
_geom_bond_site_symmetry_1
_geom_bond_site_symmetry_2
C1 H1 1_555 1_555
C2 C4 1_555 1_555
C3 C7 1_555 1_555
N1 C5 1_555 1_555
C4 C11 1_555 1_555
C5 C6 1_555 1_555
C6 H2 1_555 1_555
C7 C12 1_555 1_555
C8 C5 1_555 1_555
H3 C8 1_555 1_555
C9 C2 1_555 1_555
H4 C9 1_555 1_555
C10 C2 1_555 1_555
H5 C10 1_555 1_555
C11 H6 1_555 1_555
C12 H7 1_555 1_555
C13 N1 1_555 1_555
C14 C4 1_555 1_555
H8 C14 1_555 1_555
B1 C3 1_555 1_555
C15 C7 1_555 1_555
H9 C15 1_555 1_555
C16 N1 1_555 1_555
B2 C3 1_555 1_555
B3 C3 1_555 1_555
B4 B1 1_555 1_555
B5 C3 1_555 1_555
C17 C16 1_555 1_555
H10 C17 1_555 1_555
B6 B3 1_555 1_555
B7 B3 1_555 1_555
B8 B2 1_555 1_555
C18 C13 1_555 1_555
H11 C18 1_555 1_555
C19 C16 1_555 1_555
H12 C19 1_555 1_555
B9 B4 1_555 1_555
C20 C1 1_555 1_555
H13 C20 1_555 1_555
B10 B1 1_555 1_555
C21 C17 1_555 1_555
H14 C21 1_555 1_555
C22 C21 1_555 1_555
H15 C22 1_555 1_555
C23 C19 1_555 1_555
H16 C23 1_555 1_555
C24 C1 1_555 1_555
H17 C24 1_555 1_555
C25 C18 1_555 1_555
H18 C25 1_555 1_555
C26 C3 1_555 1_555
H19 B6 1_555 1_555
H20 B8 1_555 1_555
H21 B2 1_555 1_555
H22 B9 1_555 1_555
H23 B5 1_555 1_555
H24 B10 1_555 1_555
H25 B7 1_555 1_555
H26 C26 1_555 1_555
H27 B4 1_555 1_555
H28 B1 1_555 1_555
H29 B3 1_555 1_555
C6 C9 1_555 1_555
C8 C10 1_555 1_555
C11 C15 1_555 1_555
C12 C14 1_555 1_555
C13 C20 1_555 1_555
B1 B2 1_555 1_555
B1 B5 1_555 1_555
B2 B4 1_555 1_555
B2 C26 1_555 1_555
B3 B5 1_555 1_555
B3 C26 1_555 1_555
B4 B8 1_555 1_555
B4 B10 1_555 1_555
B5 B7 1_555 1_555
B5 B10 1_555 1_555
B6 B7 1_555 1_555
B6 B8 1_555 1_555
B6 B9 1_555 1_555
B6 C26 1_555 1_555
B7 B9 1_555 1_555
B7 B10 1_555 1_555
B8 B9 1_555 1_555
B8 C26 1_555 1_555
B9 B10 1_555 1_555
C22 C23 1_555 1_555
C24 C25 1_555 1_555

#END
