
#######################################################################
#
#                 Cambridge Crystallographic Data Centre
#                                CCDC 
#
#######################################################################
#
# If this CIF has been generated from an entry in the Cambridge 
# Structural Database, then it will include bibliographic, chemical, 
# crystal, experimental, refinement or atomic coordinate data resulting 
# from the CCDC's data processing and validation procedures.
#
#######################################################################

data_CEKRAO
_chemical_formula_moiety         'C22 H24 B10'
_chemical_name_systematic        
1-(4-(phenanthren-9-yl)phenyl)-1,2-dicarba-closo-dodecaborane(11)
_symmetry_cell_setting           monoclinic
_symmetry_space_group_name_H-M   'P 21/c'
_symmetry_Int_Tables_number      14
_space_group_name_Hall           '-P 2ybc'
loop_
_symmetry_equiv_pos_site_id
_symmetry_equiv_pos_as_xyz
1 x,y,z
2 -x,1/2+y,1/2-z
3 -x,-y,-z
4 x,1/2-y,1/2+z
_cell_length_a                   20.508(3)
_cell_length_b                   17.095(3)
_cell_length_c                   13.194(2)
_cell_angle_alpha                90
_cell_angle_beta                 107.917(2)
_cell_angle_gamma                90
_cell_volume                     4401.28
_exptl_crystal_colour            white
_exptl_crystal_description       block
_cell_formula_units_Z            8
loop_
_atom_site_label
_atom_site_type_symbol
_atom_site_fract_x
_atom_site_fract_y
_atom_site_fract_z
C1 C 0.33754(13) 0.61902(15) -0.33098(19)
C2 C 0.35670(13) 0.56375(14) -0.24651(19)
C3 C 0.33952(13) 0.70193(15) -0.3069(2)
C4 C 0.37436(13) 0.59075(14) -0.13746(18)
C5 C 0.38080(14) 0.66854(15) -0.1170(2)
H1 H 0.3958 0.6852 -0.0465
C6 C 0.40409(13) 0.37861(14) 0.21807(19)
C7 C 0.39699(13) 0.43489(14) 0.12756(19)
C8 C 0.43984(14) 0.54006(15) 0.0439(2)
H2 H 0.4735 0.5773 0.0473
C9 C 0.38355(13) 0.53525(14) -0.04700(18)
C10 C 0.36534(14) 0.72593(15) -0.1998(2)
C11 C 0.44676(14) 0.49034(16) 0.1298(2)
H3 H 0.4852 0.4943 0.1895
C12 C 0.32063(15) 0.59077(18) -0.4363(2)
H4 H 0.3067 0.6261 -0.4925
C13 C 0.33312(15) 0.48039(16) -0.0481(2)
H5 H 0.2943 0.4769 -0.1073
C14 C 0.31852(15) 0.76067(17) -0.3861(2)
H6 H 0.2993 0.7464 -0.4571
C15 C 0.33996(15) 0.43100(17) 0.0378(2)
H7 H 0.3057 0.3947 0.0353
C16 C 0.36055(15) 0.48394(16) -0.2717(2)
H8 H 0.3736 0.4473 -0.2171
C17 C 0.37245(18) 0.80652(17) -0.1755(3)
H9 H 0.3902 0.8226 -0.1051
C18 C 0.32415(17) 0.51331(19) -0.4582(2)
H10 H 0.3124 0.4964 -0.5285
C19 C 0.34534(17) 0.45955(18) -0.3754(2)
H11 H 0.3492 0.4069 -0.3904
C20 C 0.46658(17) 0.3123(2) 0.2417(3)
B1 B 0.33380(18) 0.3385(2) 0.2419(3)
B2 B 0.3841(2) 0.28237(19) 0.1832(3)
C21 C 0.32613(19) 0.83787(18) -0.3595(3)
H12 H 0.3126 0.8755 -0.4128
C22 C 0.3533(2) 0.86129(18) -0.2555(3)
H13 H 0.3588 0.9143 -0.2390
B3 B 0.3595(2) 0.3155(2) 0.3789(3)
B4 B 0.4728(2) 0.3861(2) 0.3319(3)
B5 B 0.4456(2) 0.3457(3) 0.4347(3)
B6 B 0.3886(2) 0.4028(2) 0.3339(3)
B7 B 0.4266(2) 0.2451(2) 0.4035(3)
B8 B 0.4958(2) 0.2894(3) 0.3736(3)
B9 B 0.4408(2) 0.2251(2) 0.2816(3)
B10 B 0.3565(2) 0.2414(2) 0.2845(3)
H14 H 0.2835(17) 0.3601(17) 0.192(2)
H15 H 0.3717(18) 0.2696(19) 0.104(3)
H16 H 0.497(2) 0.316(2) 0.189(3)
H17 H 0.467(2) 0.367(2) 0.517(3)
H18 H 0.324(2) 0.318(2) 0.423(3)
H19 H 0.4370(19) 0.200(2) 0.468(3)
H20 H 0.455(2) 0.167(3) 0.252(3)
H21 H 0.505(2) 0.430(2) 0.335(3)
H22 H 0.374(2) 0.466(2) 0.339(3)
H23 H 0.556(2) 0.279(2) 0.413(3)
H24 H 0.321(2) 0.196(3) 0.266(3)
C23 C 0.13042(13) 0.59210(15) 0.4889(2)
C24 C 0.17026(14) 0.61522(16) 0.3321(2)
C25 C 0.11733(14) 0.53801(15) 0.5691(2)
C26 C 0.12753(15) 0.67053(16) 0.5027(2)
H25 H 0.1122 0.6891 0.5577
C27 C 0.14720(15) 0.72582(15) 0.4358(2)
C28 C 0.09738(14) 0.43803(16) 0.7261(2)
C29 C 0.08691(14) 0.38271(16) 0.8085(2)
C30 C 0.14843(14) 0.56233(15) 0.3982(2)
C31 C 0.17119(14) 0.69845(16) 0.3530(2)
C32 C 0.05013(15) 0.49642(17) 0.6805(2)
H26 H 0.0113 0.5026 0.7021
C33 C 0.06046(15) 0.54522(17) 0.6034(2)
H27 H 0.0283 0.5839 0.5739
C34 C 0.14405(18) 0.48210(17) 0.3723(2)
H28 H 0.1291 0.4472 0.4145
C35 C 0.15540(16) 0.43153(18) 0.6939(2)
H29 H 0.1879 0.3934 0.7242
C36 C 0.18822(17) 0.58399(19) 0.2455(2)
H30 H 0.2029 0.6177 0.2016
C37 C 0.14451(18) 0.80670(18) 0.4527(3)
H31 H 0.1273 0.8249 0.5058
C38 C 0.16541(16) 0.48107(18) 0.6172(2)
H32 H 0.2050 0.4763 0.5975
C39 C 0.19510(16) 0.75422(19) 0.2937(2)
H33 H 0.2123 0.7373 0.2400
C40 C 0.1668(2) 0.85923(19) 0.3920(3)
H34 H 0.1641 0.9127 0.4034
C41 C 0.19348(19) 0.83248(19) 0.3137(3)
H35 H 0.2103 0.8680 0.2745
C42 C 0.1613(2) 0.4543(2) 0.2869(3)
H36 H 0.1574 0.4012 0.2708
C43 C 0.1847(2) 0.5061(2) 0.2241(3)
H37 H 0.1981 0.4873 0.1673
B11 B 0.1046(3) 0.2853(2) 0.7940(3)
C44 C 0.0230(2) 0.3184(3) 0.7707(3)
B12 B 0.1260(3) 0.3198(3) 1.0118(3)
B13 B 0.1549(2) 0.3408(2) 0.9014(3)
B14 B 0.0405(3) 0.3538(3) 0.9817(4)
B15 B 0.0575(3) 0.2534(3) 0.9713(3)
B16 B -0.0092(3) 0.2969(4) 0.8708(4)
B17 B 0.0172(2) 0.3920(3) 0.8521(4)
B18 B 0.1011(3) 0.4075(3) 0.9385(3)
B19 B 0.1288(3) 0.2449(3) 0.9221(4)
B20 B 0.0455(3) 0.2314(3) 0.8368(3)
H38 H 0.0512(19) 0.206(2) 1.026(3)
H39 H 0.017(3) 0.375(3) 1.039(4)
H40 H 0.123(2) 0.272(2) 0.727(3)
H41 H 0.028(3) 0.179(3) 0.793(4)
H42 H 0.162(2) 0.322(2) 1.095(3)
H43 H -0.063(3) 0.286(3) 0.858(4)
H44 H 0.113(2) 0.469(3) 0.954(3)
H45 H 0.208(2) 0.362(2) 0.903(3)
H46 H -0.016(2) 0.435(3) 0.826(3)
H47 H 0.168(3) 0.196(3) 0.942(4)
H48 H -0.003(3) 0.321(3) 0.686(4)
loop_
_geom_bond_atom_site_label_1
_geom_bond_atom_site_label_2
_geom_bond_site_symmetry_1
_geom_bond_site_symmetry_2
C1 C2 1_555 1_555
C2 C4 1_555 1_555
C3 C1 1_555 1_555
C4 C5 1_555 1_555
C5 H1 1_555 1_555
C6 C7 1_555 1_555
C7 C11 1_555 1_555
C8 H2 1_555 1_555
C9 C4 1_555 1_555
C10 C3 1_555 1_555
C11 C8 1_555 1_555
H3 C11 1_555 1_555
C12 C1 1_555 1_555
H4 C12 1_555 1_555
C13 C9 1_555 1_555
H5 C13 1_555 1_555
C14 C3 1_555 1_555
H6 C14 1_555 1_555
C15 C7 1_555 1_555
H7 C15 1_555 1_555
C16 C2 1_555 1_555
H8 C16 1_555 1_555
C17 C10 1_555 1_555
H9 C17 1_555 1_555
C18 C12 1_555 1_555
H10 C18 1_555 1_555
C19 C16 1_555 1_555
H11 C19 1_555 1_555
C20 C6 1_555 1_555
B1 C6 1_555 1_555
B2 C6 1_555 1_555
C21 C14 1_555 1_555
H12 C21 1_555 1_555
C22 C17 1_555 1_555
H13 C22 1_555 1_555
B3 B1 1_555 1_555
B4 C6 1_555 1_555
B5 B3 1_555 1_555
B6 C6 1_555 1_555
B7 B3 1_555 1_555
B8 C20 1_555 1_555
B9 C20 1_555 1_555
B10 B1 1_555 1_555
H14 B1 1_555 1_555
H15 B2 1_555 1_555
H16 C20 1_555 1_555
H17 B5 1_555 1_555
H18 B3 1_555 1_555
H19 B7 1_555 1_555
H20 B9 1_555 1_555
H21 B4 1_555 1_555
H22 B6 1_555 1_555
H23 B8 1_555 1_555
H24 B10 1_555 1_555
C23 C25 1_555 1_555
C24 C30 1_555 1_555
C25 C33 1_555 1_555
C26 C23 1_555 1_555
H25 C26 1_555 1_555
C27 C26 1_555 1_555
C28 C29 1_555 1_555
C29 B11 1_555 1_555
C30 C23 1_555 1_555
C31 C24 1_555 1_555
C32 C28 1_555 1_555
H26 C32 1_555 1_555
C33 C32 1_555 1_555
H27 C33 1_555 1_555
C34 C30 1_555 1_555
H28 C34 1_555 1_555
C35 C28 1_555 1_555
H29 C35 1_555 1_555
C36 C24 1_555 1_555
H30 C36 1_555 1_555
C37 C27 1_555 1_555
H31 C37 1_555 1_555
C38 C25 1_555 1_555
H32 C38 1_555 1_555
C39 C31 1_555 1_555
H33 C39 1_555 1_555
C40 C37 1_555 1_555
H34 C40 1_555 1_555
C41 C39 1_555 1_555
H35 C41 1_555 1_555
C42 C34 1_555 1_555
H36 C42 1_555 1_555
C43 C36 1_555 1_555
H37 C43 1_555 1_555
B11 C44 1_555 1_555
C44 C29 1_555 1_555
B12 B13 1_555 1_555
B13 C29 1_555 1_555
B14 B12 1_555 1_555
B15 B12 1_555 1_555
B16 C44 1_555 1_555
B17 C29 1_555 1_555
B18 C29 1_555 1_555
B19 B11 1_555 1_555
B20 B11 1_555 1_555
H38 B15 1_555 1_555
H39 B14 1_555 1_555
H40 B11 1_555 1_555
H41 B20 1_555 1_555
H42 B12 1_555 1_555
H43 B16 1_555 1_555
H44 B18 1_555 1_555
H45 B13 1_555 1_555
H46 B17 1_555 1_555
H47 B19 1_555 1_555
H48 C44 1_555 1_555
C5 C10 1_555 1_555
C8 C9 1_555 1_555
C13 C15 1_555 1_555
C18 C19 1_555 1_555
C20 B2 1_555 1_555
C20 B4 1_555 1_555
B1 B2 1_555 1_555
B1 B6 1_555 1_555
B2 B9 1_555 1_555
B2 B10 1_555 1_555
C21 C22 1_555 1_555
B3 B6 1_555 1_555
B3 B10 1_555 1_555
B4 B5 1_555 1_555
B4 B6 1_555 1_555
B4 B8 1_555 1_555
B5 B6 1_555 1_555
B5 B7 1_555 1_555
B5 B8 1_555 1_555
B7 B8 1_555 1_555
B7 B9 1_555 1_555
B7 B10 1_555 1_555
B8 B9 1_555 1_555
B9 B10 1_555 1_555
C27 C31 1_555 1_555
C35 C38 1_555 1_555
C40 C41 1_555 1_555
C42 C43 1_555 1_555
B11 B13 1_555 1_555
C44 B17 1_555 1_555
C44 B20 1_555 1_555
B12 B18 1_555 1_555
B12 B19 1_555 1_555
B13 B18 1_555 1_555
B13 B19 1_555 1_555
B14 B15 1_555 1_555
B14 B16 1_555 1_555
B14 B17 1_555 1_555
B14 B18 1_555 1_555
B15 B16 1_555 1_555
B15 B19 1_555 1_555
B15 B20 1_555 1_555
B16 B17 1_555 1_555
B16 B20 1_555 1_555
B17 B18 1_555 1_555
B19 B20 1_555 1_555

#END
