
#######################################################################
#
#                 Cambridge Crystallographic Data Centre
#                                CCDC 
#
#######################################################################
#
# If this CIF has been generated from an entry in the Cambridge 
# Structural Database, then it will include bibliographic, chemical, 
# crystal, experimental, refinement or atomic coordinate data resulting 
# from the CCDC's data processing and validation procedures.
#
#######################################################################

data_CEKWIB
_chemical_formula_moiety         'C25 H26 Br1 N1 O2 S1'
_chemical_name_systematic        
2-(1-bromopropyl)-4,4-diphenyl-1-(phenylsulfonyl)pyrrolidine
_symmetry_cell_setting           orthorhombic
_symmetry_space_group_name_H-M   'P 21 21 21'
_symmetry_Int_Tables_number      19
_space_group_name_Hall           'P 2ac 2ab'
loop_
_symmetry_equiv_pos_site_id
_symmetry_equiv_pos_as_xyz
1 x,y,z
2 1/2-x,-y,1/2+z
3 -x,1/2+y,1/2-z
4 1/2+x,1/2-y,-z
_cell_length_a                   11.66230(10)
_cell_length_b                   12.47280(10)
_cell_length_c                   15.71860(10)
_cell_angle_alpha                90
_cell_angle_beta                 90
_cell_angle_gamma                90
_cell_volume                     2286.45
_exptl_crystal_description       block
_cell_formula_units_Z            4
loop_
_atom_site_label
_atom_site_type_symbol
_atom_site_fract_x
_atom_site_fract_y
_atom_site_fract_z
Br1 Br 0.52879(5) 0.34283(4) 0.53349(3)
S1 S 0.34261(6) 0.56638(6) 0.76528(5)
O1 O 0.28040(18) 0.4885(3) 0.71662(15)
N1 N 0.4726(2) 0.5636(2) 0.72925(15)
O2 O 0.3062(2) 0.6753(2) 0.7664(2)
C1 C 0.6582(2) 0.4937(2) 0.85890(17)
C2 C 0.3437(3) 0.5219(3) 0.87157(18)
C3 C 0.6505(3) 0.4850(3) 0.69485(19)
H1 H 0.6847 0.5192 0.6456
H2 H 0.6866 0.4157 0.7029
C4 C 0.5211(3) 0.4713(2) 0.68172(17)
H3 H 0.4953 0.4039 0.7074
C5 C 0.6693(3) 0.3833(3) 0.8643(2)
H4 H 0.6786 0.3432 0.8149
C6 C 0.5633(2) 0.6319(2) 0.76433(19)
H5 H 0.5406 0.6617 0.8188
H6 H 0.5813 0.6902 0.7257
C7 C 0.7827(2) 0.6128(3) 0.77177(19)
C8 C 0.6445(3) 0.5505(3) 0.9347(2)
H7 H 0.6382 0.6248 0.9331
C9 C 0.4812(3) 0.4774(3) 0.58835(18)
H8 H 0.3972 0.4792 0.5884
C10 C 0.8818(3) 0.5514(3) 0.7593(2)
H9 H 0.8757 0.4775 0.7535
C11 C 0.3643(3) 0.4156(3) 0.8883(2)
H10 H 0.3772 0.3678 0.8439
C12 C 0.6670(2) 0.5554(2) 0.77457(17)
C13 C 0.7949(3) 0.7224(3) 0.7802(3)
H11 H 0.7304 0.7648 0.7891
C14 C 0.3228(3) 0.5942(3) 0.9370(2)
H12 H 0.3088 0.6663 0.9257
C15 C 0.5226(3) 0.5725(3) 0.53726(19)
H13 H 0.6050 0.5668 0.5302
H14 H 0.5074 0.6373 0.5695
C16 C 0.9021(4) 0.7695(4) 0.7755(3)
H15 H 0.9087 0.8435 0.7809
C17 C 0.9887(3) 0.5994(3) 0.7555(3)
H16 H 1.0538 0.5575 0.7478
C18 C 0.9987(3) 0.7088(4) 0.7630(3)
H17 H 1.0703 0.7413 0.7597
C19 C 0.6512(3) 0.3882(4) 1.0162(2)
H18 H 0.6480 0.3530 1.0684
C20 C 0.6403(3) 0.4977(4) 1.0122(2)
H19 H 0.6299 0.5369 1.0620
C21 C 0.3658(3) 0.3799(4) 0.9726(3)
H20 H 0.3808 0.3084 0.9848
C22 C 0.4683(4) 0.5836(4) 0.4503(2)
H21 H 0.4864 0.5217 0.4166
H22 H 0.4975 0.6467 0.4229
H23 H 0.3866 0.5895 0.4563
C23 C 0.6666(4) 0.3316(3) 0.9428(3)
H24 H 0.6755 0.2575 0.9452
C24 C 0.3236(4) 0.5550(5) 1.0206(2)
H25 H 0.3092 0.6016 1.0655
C25 C 0.3449(4) 0.4509(5) 1.0368(2)
H26 H 0.3454 0.4269 1.0928
loop_
_geom_bond_atom_site_label_1
_geom_bond_atom_site_label_2
_geom_bond_site_symmetry_1
_geom_bond_site_symmetry_2
Br1 C9 1_555 1_555
S1 O1 1_555 1_555
N1 S1 1_555 1_555
O2 S1 1_555 1_555
C1 C5 1_555 1_555
C2 S1 1_555 1_555
C3 H1 1_555 1_555
H2 C3 1_555 1_555
C4 N1 1_555 1_555
H3 C4 1_555 1_555
C5 H4 1_555 1_555
C6 N1 1_555 1_555
H5 C6 1_555 1_555
H6 C6 1_555 1_555
C7 C10 1_555 1_555
C8 C1 1_555 1_555
H7 C8 1_555 1_555
C9 C4 1_555 1_555
H8 C9 1_555 1_555
C10 H9 1_555 1_555
C11 C2 1_555 1_555
H10 C11 1_555 1_555
C12 C1 1_555 1_555
C13 C7 1_555 1_555
H11 C13 1_555 1_555
C14 C2 1_555 1_555
H12 C14 1_555 1_555
C15 C9 1_555 1_555
H13 C15 1_555 1_555
H14 C15 1_555 1_555
C16 C13 1_555 1_555
H15 C16 1_555 1_555
C17 C10 1_555 1_555
H16 C17 1_555 1_555
C18 C16 1_555 1_555
H17 C18 1_555 1_555
C19 H18 1_555 1_555
C20 C8 1_555 1_555
H19 C20 1_555 1_555
C21 C11 1_555 1_555
H20 C21 1_555 1_555
C22 C15 1_555 1_555
H21 C22 1_555 1_555
H22 C22 1_555 1_555
H23 C22 1_555 1_555
C23 C5 1_555 1_555
H24 C23 1_555 1_555
C24 C14 1_555 1_555
H25 C24 1_555 1_555
C25 C21 1_555 1_555
H26 C25 1_555 1_555
C3 C4 1_555 1_555
C3 C12 1_555 1_555
C6 C12 1_555 1_555
C7 C12 1_555 1_555
C17 C18 1_555 1_555
C19 C20 1_555 1_555
C19 C23 1_555 1_555
C24 C25 1_555 1_555

#END
