
#######################################################################
#
#                 Cambridge Crystallographic Data Centre
#                                CCDC 
#
#######################################################################
#
# If this CIF has been generated from an entry in the Cambridge 
# Structural Database, then it will include bibliographic, chemical, 
# crystal, experimental, refinement or atomic coordinate data resulting 
# from the CCDC's data processing and validation procedures.
#
#######################################################################

data_CEKXUL
_chemical_name_common            
'18-Crown-6 bis(2,4-dinitrophenol) clathrate dihydrate'
_chemical_formula_moiety         'C12 H24 O6,2(C6 H4 N2 O5),2(H2 O1)'
_chemical_name_systematic        
'1,4,7,10,13,16-Hexaoxacyclo-octadecane bis(2,4-dinitrophenol) clathrate dihydrate'
_symmetry_cell_setting           triclinic
_symmetry_space_group_name_H-M   'P -1'
_symmetry_Int_Tables_number      2
_space_group_name_Hall           '-P 1'
loop_
_symmetry_equiv_pos_site_id
_symmetry_equiv_pos_as_xyz
1 x,y,z
2 -x,-y,-z
_cell_length_a                   8.064(2)
_cell_length_b                   13.139(3)
_cell_length_c                   7.682(1)
_cell_angle_alpha                98.53(1)
_cell_angle_beta                 94.93(1)
_cell_angle_gamma                99.73(2)
_cell_volume                     788.186
_cell_formula_units_Z            1
loop_
_atom_site_label
_atom_site_type_symbol
_atom_site_fract_x
_atom_site_fract_y
_atom_site_fract_z
O1 O 0.05830 0.13020 0.33120
C1 C 0.17370 0.22690 0.34370
C2 C 0.33190 0.20660 0.26920
O2 O 0.29210 0.17100 0.08450
C3 C 0.43390 0.14790 -0.00020
C4 C 0.37700 0.10370 -0.18920
O3 O 0.26700 0.00560 -0.20000
C5 C 0.21770 -0.04530 -0.37530
C6 C -0.10260 0.14740 0.37710
H4 H 0.11500 0.27600 0.26500
H5 H 0.20300 0.26700 0.47900
H6 H 0.42800 0.27600 0.29500
H7 H 0.37600 0.14600 0.33100
H8 H 0.52700 0.21800 0.00700
H9 H 0.49000 0.09100 0.06200
H10 H 0.30500 0.15600 -0.24400
H11 H 0.48200 0.09400 -0.26500
H12 H 0.14800 0.00200 -0.44500
H13 H 0.32800 -0.05700 -0.44000
H14 H -0.08900 0.19500 0.50700
H15 H -0.15800 0.18700 0.28000
C6A C 0.10260 -0.14740 -0.37710
C5A C -0.21770 0.04530 0.37530
O1A O -0.05830 -0.13020 -0.33120
H14A H 0.08900 -0.19500 -0.50700
H15A H 0.15800 -0.18700 -0.28000
O3A O -0.26700 -0.00560 0.20000
H12A H -0.14800 -0.00200 0.44500
H13A H -0.32800 0.05700 0.44000
C1A C -0.17370 -0.22690 -0.34370
C4A C -0.37700 -0.10370 0.18920
C2A C -0.33190 -0.20660 -0.26920
H4A H -0.11500 -0.27600 -0.26500
H5A H -0.20300 -0.26700 -0.47900
C3A C -0.43390 -0.14790 0.00020
H10A H -0.30500 -0.15600 0.24400
H11A H -0.48200 -0.09400 0.26500
O2A O -0.29210 -0.17100 -0.08450
H6A H -0.42800 -0.27600 -0.29500
H7A H -0.37600 -0.14600 -0.33100
H8A H -0.52700 -0.21800 -0.00700
H9A H -0.49000 -0.09100 -0.06200
O4 O 0.13390 -0.05410 0.10890
H1 H 0.10700 -0.02100 0.17600
H2 H 0.16800 -0.04000 0.01900
O5 O 0.23110 -0.21510 0.20190
C7 C 0.11260 -0.29980 0.19520
C8 C 0.15160 -0.38870 0.25980
C9 C 0.02890 -0.47550 0.25970
C10 C -0.13390 -0.47460 0.19220
C11 C -0.17820 -0.39000 0.12380
C12 C -0.05480 -0.30320 0.12770
N1 N 0.32550 -0.39360 0.32830
O6 O 0.43490 -0.32070 0.34460
O7 O 0.34870 -0.47590 0.36990
N2 N -0.26320 -0.56860 0.18720
O8 O -0.22550 -0.63840 0.26200
O9 O -0.40040 -0.57330 0.10640
H3 H 0.19000 -0.16300 0.16400
H16 H 0.05900 -0.54300 0.31100
H17 H -0.30800 -0.39100 0.07500
H18 H -0.09000 -0.23800 0.07300
loop_
_geom_bond_atom_site_label_1
_geom_bond_atom_site_label_2
_geom_bond_site_symmetry_1
_geom_bond_site_symmetry_2
O1 C1 1_555 1_555
C1 C2 1_555 1_555
C2 O2 1_555 1_555
O2 C3 1_555 1_555
C3 C4 1_555 1_555
C4 O3 1_555 1_555
O3 C5 1_555 1_555
C5 H12 1_555 1_555
C6 O1 1_555 1_555
O4 H1 1_555 1_555
O5 C7 1_555 1_555
C7 C8 1_555 1_555
C8 C9 1_555 1_555
C9 C10 1_555 1_555
C10 C11 1_555 1_555
C11 C12 1_555 1_555
C12 C7 1_555 1_555
N1 C8 1_555 1_555
O6 N1 1_555 1_555
O7 N1 1_555 1_555
N2 C10 1_555 1_555
O8 N2 1_555 1_555
O9 N2 1_555 1_555
H2 O4 1_555 1_555
H3 O5 1_555 1_555
H4 C1 1_555 1_555
H5 C1 1_555 1_555
H6 C2 1_555 1_555
H7 C2 1_555 1_555
H8 C3 1_555 1_555
H9 C3 1_555 1_555
H10 C4 1_555 1_555
H11 C4 1_555 1_555
H13 C5 1_555 1_555
H14 C6 1_555 1_555
H15 C6 1_555 1_555
H16 C9 1_555 1_555
H17 C11 1_555 1_555
H18 C12 1_555 1_555
C6A C5 1_555 1_555
C5A C6 1_555 1_555
O1A C6A 1_555 1_555
H14A C6A 1_555 1_555
H15A C6A 1_555 1_555
O3A C5A 1_555 1_555
H12A C5A 1_555 1_555
H13A C5A 1_555 1_555
C1A O1A 1_555 1_555
C4A O3A 1_555 1_555
C2A C1A 1_555 1_555
H4A C1A 1_555 1_555
H5A C1A 1_555 1_555
C3A C4A 1_555 1_555
H10A C4A 1_555 1_555
H11A C4A 1_555 1_555
O2A C2A 1_555 1_555
H6A C2A 1_555 1_555
H7A C2A 1_555 1_555
H8A C3A 1_555 1_555
H9A C3A 1_555 1_555
C3A O2A 1_555 1_555

#END
