
#######################################################################
#
#                 Cambridge Crystallographic Data Centre
#                                CCDC 
#
#######################################################################
#
# If this CIF has been generated from an entry in the Cambridge 
# Structural Database, then it will include bibliographic, chemical, 
# crystal, experimental, refinement or atomic coordinate data resulting 
# from the CCDC's data processing and validation procedures.
#
#######################################################################

data_CELMOW
_chemical_name_common            4-Iodo-N,N-bis(2-nitrophenylsulfonyl)aniline
_chemical_formula_moiety         'C18 H12 I1 N3 O8 S2'
_chemical_name_systematic        4-Iodophenyliminobis(2-nitrobenzenesulfinate)
_symmetry_cell_setting           monoclinic
_symmetry_space_group_name_H-M   'P 21/c'
_symmetry_Int_Tables_number      14
_space_group_name_Hall           '-P 2ybc'
loop_
_symmetry_equiv_pos_site_id
_symmetry_equiv_pos_as_xyz
1 x,y,z
2 -x,1/2+y,1/2-z
3 -x,-y,-z
4 x,1/2-y,1/2+z
_cell_length_a                   12.1680(2)
_cell_length_b                   18.6695(4)
_cell_length_c                   9.0443(2)
_cell_angle_alpha                90
_cell_angle_beta                 100.030(2)
_cell_angle_gamma                90
_cell_volume                     2023.2
_exptl_crystal_colour            colorless
_exptl_crystal_description       block
_chemical_melting_point          '494-495 K(dec.)'
_cell_formula_units_Z            4
_exptl_crystal_recrystallization_method ethanol
loop_
_atom_site_label
_atom_site_type_symbol
_atom_site_fract_x
_atom_site_fract_y
_atom_site_fract_z
C1 C 0.23101(19) 0.54803(12) 0.3959(3)
C2 C 0.31765(18) 0.59562(12) 0.3932(3)
C3 C 0.30537(19) 0.65045(12) 0.2883(3)
C4 C 0.20628(19) 0.65658(12) 0.1879(3)
I1 I 0.191490(13) 0.739379(9) 0.029339(18)
C5 C 0.11927(19) 0.60854(13) 0.1890(3)
C6 C 0.13221(19) 0.55365(13) 0.2938(3)
N1 N 0.24333(15) 0.49179(10) 0.5086(2)
S1 S 0.17704(5) 0.49852(3) 0.65794(6)
O1 O 0.09661(13) 0.55381(9) 0.61739(18)
O2 O 0.14369(14) 0.42830(9) 0.69149(18)
S2 S 0.33257(5) 0.42391(3) 0.49973(6)
O3 O 0.40777(13) 0.44774(9) 0.40493(18)
O4 O 0.37124(13) 0.40379(9) 0.65175(18)
C7 C 0.27774(18) 0.53079(13) 0.8083(3)
C8 C 0.30062(19) 0.49762(13) 0.9478(3)
N2 N 0.2400(2) 0.43414(13) 0.9879(2)
O5 O 0.14275(18) 0.44289(13) 1.0005(2)
O6 O 0.2925(2) 0.37852(12) 1.0120(3)
C9 C 0.3805(2) 0.52472(14) 1.0615(3)
C10 C 0.4373(2) 0.58681(14) 1.0363(3)
C11 C 0.4137(2) 0.62090(14) 0.8996(3)
C12 C 0.3340(2) 0.59292(13) 0.7850(3)
C13 C 0.24879(19) 0.35493(12) 0.4005(3)
C14 C 0.29488(19) 0.29462(13) 0.3419(3)
N3 N 0.41559(17) 0.28189(11) 0.3645(2)
O7 O 0.47346(14) 0.30665(10) 0.4758(2)
O8 O 0.45171(17) 0.24682(11) 0.2693(3)
C15 C 0.2286(2) 0.24305(13) 0.2600(3)
C16 C 0.1139(2) 0.25092(14) 0.2355(3)
C17 C 0.0670(2) 0.30995(13) 0.2905(3)
C18 C 0.13333(19) 0.36139(13) 0.3726(3)
H1 H 0.3853 0.5908 0.4629
H2 H 0.3644 0.6834 0.2854
H3 H 0.0518 0.6132 0.1189
H4 H 0.0738 0.5201 0.2957
H5 H 0.3963 0.5011 1.1559
H6 H 0.4925 0.6058 1.1136
H7 H 0.4519 0.6638 0.8834
H8 H 0.3183 0.6165 0.6907
H9 H 0.2617 0.2027 0.2211
H10 H 0.0676 0.2156 0.1807
H11 H -0.0118 0.3155 0.2720
H12 H 0.0994 0.4017 0.4104
loop_
_geom_bond_atom_site_label_1
_geom_bond_atom_site_label_2
_geom_bond_site_symmetry_1
_geom_bond_site_symmetry_2
C1 C2 1_555 1_555
C2 C3 1_555 1_555
C3 C4 1_555 1_555
C4 I1 1_555 1_555
C5 C4 1_555 1_555
C6 C1 1_555 1_555
N1 C1 1_555 1_555
S1 N1 1_555 1_555
O1 S1 1_555 1_555
O2 S1 1_555 1_555
S2 N1 1_555 1_555
O3 S2 1_555 1_555
O4 S2 1_555 1_555
C7 S1 1_555 1_555
C8 C7 1_555 1_555
N2 C8 1_555 1_555
O5 N2 1_555 1_555
O6 N2 1_555 1_555
C9 C8 1_555 1_555
C10 C9 1_555 1_555
C11 C10 1_555 1_555
C12 C7 1_555 1_555
C13 S2 1_555 1_555
C14 C13 1_555 1_555
N3 C14 1_555 1_555
O7 N3 1_555 1_555
O8 N3 1_555 1_555
C15 C14 1_555 1_555
C16 C15 1_555 1_555
C17 C16 1_555 1_555
C18 C13 1_555 1_555
H1 C2 1_555 1_555
H2 C3 1_555 1_555
H3 C5 1_555 1_555
H4 C6 1_555 1_555
H5 C9 1_555 1_555
H6 C10 1_555 1_555
H7 C11 1_555 1_555
H8 C12 1_555 1_555
H9 C15 1_555 1_555
H10 C16 1_555 1_555
H11 C17 1_555 1_555
H12 C18 1_555 1_555
C5 C6 1_555 1_555
C11 C12 1_555 1_555
C17 C18 1_555 1_555

#END
