
#######################################################################
#
#                 Cambridge Crystallographic Data Centre
#                                CCDC 
#
#######################################################################
#
# If this CIF has been generated from an entry in the Cambridge 
# Structural Database, then it will include bibliographic, chemical, 
# crystal, experimental, refinement or atomic coordinate data resulting 
# from the CCDC's data processing and validation procedures.
#
#######################################################################

data_CELNOY
_chemical_name_common            Pyrimethanil
_chemical_formula_moiety         'C12 H13 N3'
_chemical_name_systematic        4,6-Dimethyl-N-phenylpyrimidin-2-amine
_symmetry_cell_setting           triclinic
_symmetry_space_group_name_H-M   'P -1'
_symmetry_Int_Tables_number      2
_space_group_name_Hall           '-P 1'
loop_
_symmetry_equiv_pos_site_id
_symmetry_equiv_pos_as_xyz
1 x,y,z
2 -x,-y,-z
_cell_length_a                   7.5322(9)
_cell_length_b                   11.7008(14)
_cell_length_c                   14.6401(17)
_cell_angle_alpha                68.361(2)
_cell_angle_beta                 85.554(2)
_cell_angle_gamma                71.291(2)
_cell_volume                     1134.75
_cell_formula_units_Z            4
loop_
_atom_site_label
_atom_site_type_symbol
_atom_site_fract_x
_atom_site_fract_y
_atom_site_fract_z
C1 C 0.77620(19) 1.19801(12) 0.77588(10)
C2 C 0.7494(2) 1.24821(14) 0.85035(12)
H1 H 0.7074 1.2053 0.9107
C3 C 0.7859(3) 1.36287(16) 0.83354(14)
H2 H 0.7685 1.3960 0.8836
C4 C 0.8468(3) 1.42889(16) 0.74527(14)
H3 H 0.8723 1.5051 0.7357
C5 C 0.8698(2) 1.38060(15) 0.67085(13)
H4 H 0.9091 1.4252 0.6102
C6 C 0.8346(2) 1.26628(14) 0.68576(11)
H5 H 0.8502 1.2347 0.6349
C7 C 0.74310(18) 0.97774(12) 0.86718(9)
C8 C 0.7432(3) 0.88952(19) 1.13192(11)
H6 H 0.8671 0.8849 1.1480
H7 H 0.7095 0.8192 1.1804
H8 H 0.6555 0.9703 1.1310
C9 C 0.7395(2) 0.88040(14) 1.03274(10)
C10 C 0.7261(3) 0.77254(15) 1.02054(11)
H9 H 0.7189 0.7008 1.0745
C11 C 0.7235(2) 0.77319(14) 0.92605(11)
C12 C 0.7074(4) 0.65986(18) 0.90539(15)
H10 H 0.7244 0.6743 0.8368
H11 H 0.5856 0.6509 0.9221
H12 H 0.8021 0.5822 0.9440
N1 N 0.74640(18) 1.08179(11) 0.78459(8)
N2 N 0.74732(16) 0.98476(11) 0.95575(8)
N3 N 0.73440(18) 0.87558(11) 0.84798(8)
H13 H 0.737(2) 1.0728(14) 0.7243(11)
C13 C 1.02325(18) 0.74002(11) 0.66190(9)
C14 C 1.0699(2) 0.68746(13) 0.58879(11)
H14 H 1.0025 0.7285 0.5287
C15 C 1.2176(2) 0.57357(14) 0.60605(12)
H15 H 1.2484 0.5392 0.5567
C16 C 1.3191(2) 0.51032(15) 0.69399(13)
H16 H 1.4181 0.4342 0.7043
C17 C 1.2726(2) 0.56114(15) 0.76665(12)
H17 H 1.3403 0.5188 0.8267
C18 C 1.1262(2) 0.67443(13) 0.75151(10)
H18 H 1.0959 0.7074 0.8016
C19 C 0.78603(17) 0.95619(11) 0.57103(9)
C20 C 0.4377(2) 1.26991(14) 0.53796(12)
H19 H 0.3192 1.2552 0.5553
H20 H 0.4198 1.3476 0.4809
H21 H 0.4897 1.2790 0.5918
C21 C 0.56935(19) 1.15741(12) 0.51603(10)
C22 C 0.5823(2) 1.15507(13) 0.42160(10)
H22 H 0.5091 1.2239 0.3693
C23 C 0.70646(19) 1.04824(13) 0.40766(9)
C24 C 0.7293(2) 1.03731(15) 0.30829(10)
H23 H 0.8600 1.0148 0.2945
H24 H 0.6622 1.1187 0.2592
H25 H 0.6803 0.9714 0.3076
N4 N 0.87872(17) 0.85500(10) 0.65263(8)
N5 N 0.67281(15) 1.05868(10) 0.59132(7)
N6 N 0.81011(15) 0.94687(10) 0.48251(7)
H26 H 0.843(2) 0.8664(14) 0.7094(11)
loop_
_geom_bond_atom_site_label_1
_geom_bond_atom_site_label_2
_geom_bond_site_symmetry_1
_geom_bond_site_symmetry_2
C1 C2 1_555 1_555
C2 H1 1_555 1_555
C3 C2 1_555 1_555
H2 C3 1_555 1_555
C4 C3 1_555 1_555
H3 C4 1_555 1_555
C5 C4 1_555 1_555
H4 C5 1_555 1_555
C6 C1 1_555 1_555
H5 C6 1_555 1_555
C7 N1 1_555 1_555
C8 H6 1_555 1_555
H7 C8 1_555 1_555
H8 C8 1_555 1_555
C9 C8 1_555 1_555
C10 C9 1_555 1_555
H9 C10 1_555 1_555
C11 C10 1_555 1_555
C12 C11 1_555 1_555
H10 C12 1_555 1_555
H11 C12 1_555 1_555
H12 C12 1_555 1_555
N1 C1 1_555 1_555
N2 C7 1_555 1_555
N3 C7 1_555 1_555
H13 N1 1_555 1_555
C13 C14 1_555 1_555
C14 H14 1_555 1_555
C15 C14 1_555 1_555
H15 C15 1_555 1_555
C16 C15 1_555 1_555
H16 C16 1_555 1_555
C17 C16 1_555 1_555
H17 C17 1_555 1_555
C18 C13 1_555 1_555
H18 C18 1_555 1_555
C19 N4 1_555 1_555
C20 H19 1_555 1_555
H20 C20 1_555 1_555
H21 C20 1_555 1_555
C21 C20 1_555 1_555
C22 C21 1_555 1_555
H22 C22 1_555 1_555
C23 C22 1_555 1_555
C24 C23 1_555 1_555
H23 C24 1_555 1_555
H24 C24 1_555 1_555
H25 C24 1_555 1_555
N4 C13 1_555 1_555
N5 C19 1_555 1_555
N6 C19 1_555 1_555
H26 N4 1_555 1_555
C5 C6 1_555 1_555
C9 N2 1_555 1_555
C11 N3 1_555 1_555
C17 C18 1_555 1_555
C21 N5 1_555 1_555
C23 N6 1_555 1_555

#END
