
#######################################################################
#
#                 Cambridge Crystallographic Data Centre
#                                CCDC 
#
#######################################################################
#
# If this CIF has been generated from an entry in the Cambridge 
# Structural Database, then it will include bibliographic, chemical, 
# crystal, experimental, refinement or atomic coordinate data resulting 
# from the CCDC's data processing and validation procedures.
#
#######################################################################

data_CELSEU
_chemical_formula_moiety         'C16 H14 N2 O1'
_chemical_name_systematic        
(4-benzylidene-3-oxocyclohexyl)propanedinitrile
_symmetry_cell_setting           trigonal
_symmetry_space_group_name_H-M   'P 32 2 1'
_symmetry_Int_Tables_number      154
_space_group_name_Hall           'P 32 2"'
loop_
_symmetry_equiv_pos_site_id
_symmetry_equiv_pos_as_xyz
1 x,y,z
2 -y,x-y,2/3+z
3 -x+y,-x,1/3+z
4 y,x,-z
5 x-y,-y,1/3-z
6 -x,-x+y,2/3-z
_cell_length_a                   6.4388(4)
_cell_length_b                   6.4388(4)
_cell_length_c                   55.095(3)
_cell_angle_alpha                90
_cell_angle_beta                 90
_cell_angle_gamma                120
_cell_volume                     1978.12
_exptl_crystal_colour            'reddish red'
_exptl_crystal_description       block
_cell_formula_units_Z            6
loop_
_atom_site_label
_atom_site_type_symbol
_atom_site_fract_x
_atom_site_fract_y
_atom_site_fract_z
O1 O 0.7793(5) -0.2833(5) 0.74637(5)
C1 C 0.9088(6) -0.0730(6) 0.74219(6)
C2 C 0.8813(7) 0.1155(6) 0.75530(6)
N1 N 1.6198(8) 0.0154(9) 0.69935(7)
C3 C 1.2032(7) 0.4261(7) 0.72732(6)
H1 H 1.0964 0.4034 0.7139
H2 H 1.3335 0.5910 0.7271
C4 C 1.3024(6) 0.2576(6) 0.72468(6)
H3 H 1.3945 0.2715 0.7394
C5 C 1.3639(7) 0.3355(7) 0.67969(6)
C6 C 1.5607(7) 0.1553(8) 0.70018(6)
N2 N 1.2785(9) 0.3439(8) 0.66219(7)
C7 C 0.6059(8) 0.1665(7) 0.78501(6)
C8 C 1.4738(7) 0.3250(7) 0.70265(6)
H4 H 1.6125 0.4841 0.7057
C9 C 1.0968(7) -0.0004(7) 0.72297(7)
H5 H 1.0209 -0.0232 0.7072
H6 H 1.1628 -0.1066 0.7238
C10 C 1.0666(7) 0.3745(6) 0.75132(7)
H7 H 1.1813 0.4267 0.7645
H8 H 0.9880 0.4695 0.7519
C11 C 0.6896(7) 0.0360(6) 0.76955(6)
H9 H 0.5919 -0.1299 0.7698
C12 C 0.3622(9) 0.0600(9) 0.78986(7)
H10 H 0.2568 -0.0907 0.7835
C13 C 0.7587(10) 0.3856(9) 0.79572(7)
H11 H 0.9231 0.4581 0.7932
C14 C 0.2756(10) 0.1774(11) 0.80409(8)
H12 H 0.1115 0.1070 0.8068
C15 C 0.4296(13) 0.3974(12) 0.81427(9)
H13 H 0.3708 0.4759 0.8238
C16 C 0.6681(13) 0.4973(11) 0.81019(9)
H14 H 0.7733 0.6443 0.8173
loop_
_geom_bond_atom_site_label_1
_geom_bond_atom_site_label_2
_geom_bond_site_symmetry_1
_geom_bond_site_symmetry_2
O1 C1 1_555 1_555
C1 C2 1_555 1_555
C2 C10 1_555 1_555
N1 C6 1_555 1_555
C3 H1 1_555 1_555
H2 C3 1_555 1_555
C4 C3 1_555 1_555
H3 C4 1_555 1_555
C5 N2 1_555 1_555
C6 C8 1_555 1_555
C7 C11 1_555 1_555
C8 C4 1_555 1_555
H4 C8 1_555 1_555
C9 C1 1_555 1_555
H5 C9 1_555 1_555
H6 C9 1_555 1_555
C10 C3 1_555 1_555
H7 C10 1_555 1_555
H8 C10 1_555 1_555
C11 C2 1_555 1_555
H9 C11 1_555 1_555
C12 C7 1_555 1_555
H10 C12 1_555 1_555
C13 C7 1_555 1_555
H11 C13 1_555 1_555
C14 C12 1_555 1_555
H12 C14 1_555 1_555
C15 C14 1_555 1_555
H13 C15 1_555 1_555
C16 C13 1_555 1_555
H14 C16 1_555 1_555
C4 C9 1_555 1_555
C5 C8 1_555 1_555
C15 C16 1_555 1_555

#END
