
#######################################################################
#
#                 Cambridge Crystallographic Data Centre
#                                CCDC 
#
#######################################################################
#
# If this CIF has been generated from an entry in the Cambridge 
# Structural Database, then it will include bibliographic, chemical, 
# crystal, experimental, refinement or atomic coordinate data resulting 
# from the CCDC's data processing and validation procedures.
#
#######################################################################

data_CEMBRE11
_chemical_compound_source        'Red pine tree'
_chemical_name_common            Cembrene
_chemical_formula_moiety         'C20 H32'
_chemical_name_systematic        
1-Isopropyl-4,8,12-trimethylcyclotetradeca-2,4,7,11-tetraene
_chemical_properties_biological  'possible physiological activity'
_symmetry_cell_setting           orthorhombic
_symmetry_space_group_name_H-M   'P 21 21 21'
_symmetry_Int_Tables_number      19
_space_group_name_Hall           'P 2ac 2ab'
loop_
_symmetry_equiv_pos_site_id
_symmetry_equiv_pos_as_xyz
1 x,y,z
2 1/2+x,1/2-y,-z
3 -x,1/2+y,1/2-z
4 1/2-x,-y,1/2+z
_cell_length_a                   6.243(6)
_cell_length_b                   13.888(6)
_cell_length_c                   21.650(7)
_cell_angle_alpha                90
_cell_angle_beta                 90
_cell_angle_gamma                90
_cell_volume                     1877.12
_exptl_crystal_colour            colorless
_chemical_melting_point          59-60deg.C
_cell_formula_units_Z            4
loop_
_atom_site_label
_atom_site_type_symbol
_atom_site_fract_x
_atom_site_fract_y
_atom_site_fract_z
C1 C 0.5560(13) 0.0805(5) 0.2209(3)
C2 C 0.6759(12) -0.0155(5) 0.2052(4)
C3 C 0.6136(14) -0.0742(5) 0.1584(3)
C4 C 0.7296(13) -0.1626(5) 0.1426(3)
C5 C 0.6683(15) -0.2170(5) 0.0957(4)
C6 C 0.4795(8) -0.1955(5) 0.0527(4)
C7 C 0.5118(16) -0.1075(5) 0.0109(3)
C8 C 0.3736(15) -0.0392(6) 0.0029(3)
C9 C 0.4381(18) 0.0466(5) -0.0360(4)
C10 C 0.4466(18) 0.1416(6) 0.0004(4)
C11 C 0.6097(16) 0.1360(5) 0.0502(3)
C12 C 0.6109(13) 0.1958(6) 0.0995(3)
C13 C 0.7823(14) 0.1860(6) 0.1486(4)
C14 C 0.7053(16) 0.1679(6) 0.2147(4)
C16 C 0.4457(16) 0.0752(7) 0.2847(3)
C17 C 0.6025(17) 0.0582(8) 0.3387(4)
C18 C 0.2638(18) 0.0027(9) 0.2844(5)
C19 C 0.9289(16) -0.1897(7) 0.1799(5)
C20 C 0.4589(20) 0.2769(7) 0.1097(5)
C21 C 0.1550 -0.0449 0.0314
C15? C 0.6303 0.2241 0.2285
loop_
_geom_bond_atom_site_label_1
_geom_bond_atom_site_label_2
_geom_bond_site_symmetry_1
_geom_bond_site_symmetry_2
C1 C2 1_555 1_555
C2 C3 1_555 1_555
C3 C4 1_555 1_555
C4 C5 1_555 1_555
C5 C6 1_555 1_555
C6 C7 1_555 1_555
C7 C8 1_555 1_555
C8 C9 1_555 1_555
C9 C10 1_555 1_555
C10 C11 1_555 1_555
C11 C12 1_555 1_555
C12 C13 1_555 1_555
C13 C14 1_555 1_555
C14 C1 1_555 1_555
C16 C1 1_555 1_555
C17 C16 1_555 1_555
C18 C16 1_555 1_555
C19 C4 1_555 1_555
C20 C12 1_555 1_555
C21 C8 1_555 1_555

#END
