
#######################################################################
#
#                 Cambridge Crystallographic Data Centre
#                                CCDC 
#
#######################################################################
#
# If this CIF has been generated from an entry in the Cambridge 
# Structural Database, then it will include bibliographic, chemical, 
# crystal, experimental, refinement or atomic coordinate data resulting 
# from the CCDC's data processing and validation procedures.
#
#######################################################################

data_CEMFUX
_chemical_formula_moiety         'C32 H44 N2 O8 S2'
_chemical_name_systematic        
"Di-t-butyl 2,2'-(ethane-1,2-diylbis((((4-methylphenyl)sulfonyl)imino)methylene))bis(acrylate)"
_symmetry_cell_setting           monoclinic
_symmetry_space_group_name_H-M   'C 2/c'
_symmetry_Int_Tables_number      15
_space_group_name_Hall           '-C 2yn'
loop_
_symmetry_equiv_pos_site_id
_symmetry_equiv_pos_as_xyz
1 x,y,z
2 -x,y,1/2-z
3 1/2+x,1/2+y,z
4 1/2-x,1/2+y,1/2-z
5 -x,-y,-z
6 x,-y,1/2+z
7 1/2-x,1/2-y,-z
8 1/2+x,1/2-y,1/2+z
_cell_length_a                   25.058(9)
_cell_length_b                   12.865(4)
_cell_length_c                   11.153(4)
_cell_angle_alpha                90
_cell_angle_beta                 109.43(4)
_cell_angle_gamma                90
_cell_volume                     3390.64
_exptl_crystal_colour            colorless
_exptl_crystal_description       Prism
_cell_formula_units_Z            4
loop_
_atom_site_label
_atom_site_type_symbol
_atom_site_fract_x
_atom_site_fract_y
_atom_site_fract_z
S1 S 0.18263(2) 0.05297(4) 0.47316(5)
O1 O 0.18115(7) 0.08085(12) 0.34765(14)
O2 O 0.19568(7) -0.05164(11) 0.51741(16)
O3 O 0.39572(7) 0.14822(12) 0.78286(16)
O4 O 0.34176(6) 0.00272(11) 0.74228(15)
N1 N 0.22986(7) 0.12910(13) 0.57040(17)
C1 C 0.11747(9) 0.08763(16) 0.4903(2)
C2 C 0.08221(10) 0.15968(17) 0.4080(2)
H1 H 0.0916 0.1869 0.3384
C3 C 0.03306(10) 0.19116(18) 0.4293(2)
H2 H 0.0088 0.2399 0.3730
C4 C 0.01845(10) 0.15311(17) 0.5310(2)
C5 C 0.05420(10) 0.08002(17) 0.6115(2)
H3 H 0.0446 0.0520 0.6805
C6 C 0.10331(10) 0.04811(16) 0.5919(2)
H4 H 0.1274 -0.0009 0.6478
C7 C -0.03483(10) 0.18843(19) 0.5528(3)
H5 H -0.0529 0.2432 0.4916
H6 H -0.0255 0.2156 0.6394
H7 H -0.0608 0.1295 0.5414
C8 C 0.22742(9) 0.23933(15) 0.5301(2)
H8 H 0.2334 0.2852 0.6047
H9 H 0.1896 0.2547 0.4680
C9 C 0.24260(9) 0.11125(17) 0.7093(2)
H10 H 0.2422 0.0358 0.7265
H11 H 0.2134 0.1451 0.7378
C10 C 0.29981(10) 0.15565(17) 0.7806(2)
C11 C 0.30654(11) 0.23989(19) 0.8508(2)
H12 H 0.2744 0.2752 0.8580
H13 H 0.3435 0.2654 0.8944
C12 C 0.35145(10) 0.10384(17) 0.7683(2)
C13 C 0.38398(10) -0.06429(17) 0.7136(2)
C14 C 0.35363(12) -0.16799(19) 0.6882(3)
H14 H 0.3457 -0.1906 0.7645
H15 H 0.3776 -0.2197 0.6663
H16 H 0.3180 -0.1607 0.6175
C15 C 0.39403(11) -0.02273(19) 0.5958(2)
H17 H 0.3576 -0.0116 0.5286
H18 H 0.4164 -0.0730 0.5667
H19 H 0.4146 0.0433 0.6160
C16 C 0.43781(11) -0.0709(2) 0.8269(2)
H20 H 0.4558 -0.0023 0.8436
H21 H 0.4638 -0.1207 0.8088
H22 H 0.4288 -0.0941 0.9016
S1F S 0.31737(2) 0.44703(4) 0.52684(5)
O1F O 0.31885(7) 0.41915(12) 0.65235(14)
O2F O 0.30432(7) 0.55164(11) 0.48259(16)
O3F O 0.10428(7) 0.35178(12) 0.21714(16)
O4F O 0.15824(6) 0.49728(11) 0.25772(15)
N1F N 0.27014(7) 0.37090(13) 0.42960(17)
C1F C 0.38253(9) 0.41237(16) 0.5097(2)
C2F C 0.41779(10) 0.34032(17) 0.5920(2)
H1F H 0.4084 0.3131 0.6616
C3F C 0.46694(10) 0.30884(18) 0.5707(2)
H2F H 0.4912 0.2601 0.6270
C4F C 0.48155(10) 0.34689(17) 0.4690(2)
C5F C 0.44580(10) 0.41998(17) 0.3885(2)
H3F H 0.4554 0.4480 0.3195
C6F C 0.39669(10) 0.45189(16) 0.4081(2)
H4F H 0.3726 0.5009 0.3522
C7F C 0.53483(10) 0.31157(19) 0.4472(3)
H5F H 0.5529 0.2568 0.5084
H6F H 0.5255 0.2844 0.3606
H7F H 0.5608 0.3705 0.4586
C8F C 0.27258(9) 0.26067(15) 0.4699(2)
H8F H 0.2666 0.2148 0.3953
H9F H 0.3104 0.2453 0.5320
C9F C 0.25740(9) 0.38875(17) 0.2907(2)
H10F H 0.2578 0.4642 0.2735
H11F H 0.2866 0.3549 0.2622
C10F C 0.20019(10) 0.34435(17) 0.2194(2)
C11F C 0.19346(11) 0.26011(19) 0.1492(2)
H12F H 0.2256 0.2248 0.1420
H13F H 0.1565 0.2346 0.1056
C12F C 0.14855(10) 0.39616(17) 0.2317(2)
C13F C 0.11602(10) 0.56429(17) 0.2864(2)
C14F C 0.14637(12) 0.66799(19) 0.3118(3)
H14F H 0.1543 0.6906 0.2355
H15F H 0.1224 0.7197 0.3337
H16F H 0.1820 0.6607 0.3825
C15F C 0.10597(11) 0.52273(19) 0.4042(2)
H17F H 0.1424 0.5116 0.4714
H18F H 0.0836 0.5730 0.4333
H19F H 0.0854 0.4567 0.3840
C16F C 0.06219(11) 0.5709(2) 0.1731(2)
H20F H 0.0442 0.5023 0.1564
H21F H 0.0362 0.6207 0.1912
H22F H 0.0712 0.5941 0.0984
loop_
_geom_bond_atom_site_label_1
_geom_bond_atom_site_label_2
_geom_bond_site_symmetry_1
_geom_bond_site_symmetry_2
S1 O1 1_555 1_555
O2 S1 1_555 1_555
O3 C12 1_555 1_555
O4 C12 1_555 1_555
N1 S1 1_555 1_555
C1 S1 1_555 1_555
C2 C1 1_555 1_555
H1 C2 1_555 1_555
C3 C2 1_555 1_555
H2 C3 1_555 1_555
C4 C3 1_555 1_555
C5 C4 1_555 1_555
H3 C5 1_555 1_555
C6 C1 1_555 1_555
H4 C6 1_555 1_555
C7 C4 1_555 1_555
H5 C7 1_555 1_555
H6 C7 1_555 1_555
H7 C7 1_555 1_555
C8 N1 1_555 1_555
H8 C8 1_555 1_555
H9 C8 1_555 1_555
C9 N1 1_555 1_555
H10 C9 1_555 1_555
H11 C9 1_555 1_555
C10 C9 1_555 1_555
C11 C10 1_555 1_555
H12 C11 1_555 1_555
H13 C11 1_555 1_555
C12 C10 1_555 1_555
C13 O4 1_555 1_555
C14 C13 1_555 1_555
H14 C14 1_555 1_555
H15 C14 1_555 1_555
H16 C14 1_555 1_555
C15 C13 1_555 1_555
H17 C15 1_555 1_555
H18 C15 1_555 1_555
H19 C15 1_555 1_555
C16 C13 1_555 1_555
H20 C16 1_555 1_555
H21 C16 1_555 1_555
H22 C16 1_555 1_555
S1F O1F 1_555 1_555
O2F S1F 1_555 1_555
O3F C12F 1_555 1_555
O4F C12F 1_555 1_555
N1F S1F 1_555 1_555
C1F S1F 1_555 1_555
C2F C1F 1_555 1_555
H1F C2F 1_555 1_555
C3F C2F 1_555 1_555
H2F C3F 1_555 1_555
C4F C3F 1_555 1_555
C5F C4F 1_555 1_555
H3F C5F 1_555 1_555
C6F C1F 1_555 1_555
H4F C6F 1_555 1_555
C7F C4F 1_555 1_555
H5F C7F 1_555 1_555
H6F C7F 1_555 1_555
H7F C7F 1_555 1_555
C8F C8 1_555 1_555
H8F C8F 1_555 1_555
H9F C8F 1_555 1_555
C9F N1F 1_555 1_555
H10F C9F 1_555 1_555
H11F C9F 1_555 1_555
C10F C9F 1_555 1_555
C11F C10F 1_555 1_555
H12F C11F 1_555 1_555
H13F C11F 1_555 1_555
C12F C10F 1_555 1_555
C13F O4F 1_555 1_555
C14F C13F 1_555 1_555
H14F C14F 1_555 1_555
H15F C14F 1_555 1_555
H16F C14F 1_555 1_555
C15F C13F 1_555 1_555
H17F C15F 1_555 1_555
H18F C15F 1_555 1_555
H19F C15F 1_555 1_555
C16F C13F 1_555 1_555
H20F C16F 1_555 1_555
H21F C16F 1_555 1_555
H22F C16F 1_555 1_555
C5 C6 1_555 1_555
N1F C8F 1_555 1_555
C5F C6F 1_555 1_555

#END
