
#######################################################################
#
#                 Cambridge Crystallographic Data Centre
#                                CCDC 
#
#######################################################################
#
# If this CIF has been generated from an entry in the Cambridge 
# Structural Database, then it will include bibliographic, chemical, 
# crystal, experimental, refinement or atomic coordinate data resulting 
# from the CCDC's data processing and validation procedures.
#
#######################################################################

data_CEMGOS
_chemical_formula_moiety         'C29 H35 N1 O5'
_chemical_name_systematic        
15-Hydroxy-1,5,6,16,18-pentamethyl-8-phenyl-20-oxa-10-azapentacyclo[13.4.1.0^2,14^.0^3,12^.0^7,12^]icos-4-ene-9,11,13-trione
_symmetry_cell_setting           monoclinic
_symmetry_space_group_name_H-M   'P 21'
_symmetry_Int_Tables_number      4
_space_group_name_Hall           'P 2yb'
loop_
_symmetry_equiv_pos_site_id
_symmetry_equiv_pos_as_xyz
1 x,y,z
2 -x,1/2+y,-z
_cell_length_a                   8.7606(5)
_cell_length_b                   9.5880(5)
_cell_length_c                   18.8582(9)
_cell_angle_alpha                90
_cell_angle_beta                 103.118(5)
_cell_angle_gamma                90
_cell_volume                     1542.69
_exptl_crystal_colour            colorless
_exptl_crystal_description       block
_cell_formula_units_Z            2
loop_
_atom_site_label
_atom_site_type_symbol
_atom_site_fract_x
_atom_site_fract_y
_atom_site_fract_z
O1 O 0.6912(3) -0.0092(3) 0.20837(13)
O2 O 1.0079(3) 0.2330(3) 0.38561(12)
O3 O 0.1254(2) 0.1238(2) 0.23410(11)
O4 O 0.2681(3) 0.2609(3) 0.32444(11)
H1 H 0.1899 0.2700 0.3410
O5 O 0.5906(3) 0.3330(3) 0.29901(14)
N1 N 0.8510(3) 0.1075(4) 0.29852(16)
C1 C 0.7097(4) 0.0479(4) 0.26650(17)
C2 C 0.8333(4) 0.1933(5) 0.48859(17)
C3 C 0.7788(5) 0.3289(5) 0.4815(2)
H2 H 0.7266 0.3622 0.4361
C4 C 0.8947(4) 0.1571(4) 0.36764(17)
C5 C 0.8019(5) 0.4157(6) 0.5421(2)
H3 H 0.7634 0.5064 0.5371
C6 C 0.8067(4) 0.0994(4) 0.42061(16)
H4 H 0.8576 0.0105 0.4373
C7 C 0.8785(6) 0.3704(7) 0.6073(2)
H5 H 0.8933 0.4300 0.6472
C8 C 0.6309(4) 0.0636(4) 0.38905(16)
H6 H 0.5707 0.1336 0.4090
C9 C 0.9354(5) 0.2378(7) 0.6162(2)
H7 H 0.9877 0.2076 0.6622
C10 C 0.5764(4) -0.0813(4) 0.41262(19)
H8 H 0.4684 -0.0641 0.4166
C11 C 0.9158(5) 0.1454(6) 0.55623(19)
H9 H 0.9568 0.0556 0.5618
C12 C 0.5595(4) -0.1941(4) 0.3554(2)
C13 C 0.4833(4) -0.1608(4) 0.2879(2)
H10 H 0.460(4) -0.227(3) 0.2474(13)
C14 C 0.4339(4) -0.0121(4) 0.27623(16)
H11 H 0.3627 0.0051 0.3085
C15 C 0.5800(4) 0.0777(4) 0.30591(16)
C16 C 0.6594(6) -0.1257(6) 0.4894(2)
H12 H 0.6065 -0.2048 0.5039
H13 H 0.6578 -0.0500 0.5226
H14 H 0.7660 -0.1502 0.4902
C17 C 0.6148(6) -0.3403(5) 0.3754(3)
H15 H 0.5508 -0.3817 0.4048
H16 H 0.7219 -0.3382 0.4021
H17 H 0.6068 -0.3944 0.3318
C18 C 0.3552(4) 0.0535(4) 0.20266(16)
H18 H 0.4066 0.0268 0.1636
C19 C 0.1757(4) 0.0375(4) 0.18027(16)
C20 C 0.1113(4) 0.0978(5) 0.10301(18)
H19 H 0.1998 0.1269 0.0837
H20 H 0.0589 0.0230 0.0722
C21 C -0.0018(5) 0.2199(5) 0.09662(18)
H21 H -0.0841 0.1955 0.1220
C22 C 0.0763(5) 0.3525(5) 0.1296(2)
H22 H 0.0045 0.4285 0.1121
H23 H 0.1676 0.3668 0.1094
C23 C 0.1297(4) 0.3687(4) 0.2121(2)
H24 H 0.0348 0.3742 0.2312
C24 C 0.2228(4) 0.2452(4) 0.24856(17)
C25 C 0.3723(4) 0.2106(4) 0.22082(17)
H25 H 0.374(4) 0.273(3) 0.1812(11)
C26 C 0.5228(4) 0.2267(4) 0.27922(16)
C27 C 0.1144(4) -0.1086(4) 0.18675(19)
H26 H 0.1538 -0.1426 0.2353
H27 H 0.1486 -0.1689 0.1528
H28 H 0.0019 -0.1069 0.1762
C28 C -0.0790(6) 0.2445(7) 0.0156(2)
H29 H 0.0009 0.2578 -0.0112
H30 H -0.1442 0.3259 0.0109
H31 H -0.1416 0.1650 -0.0034
C29 C 0.2186(5) 0.5042(5) 0.2326(3)
H32 H 0.3170 0.4999 0.2184
H33 H 0.2372 0.5178 0.2843
H34 H 0.1578 0.5805 0.2081
H35 H 0.912(5) 0.105(5) 0.279(2)
loop_
_geom_bond_atom_site_label_1
_geom_bond_atom_site_label_2
_geom_bond_site_symmetry_1
_geom_bond_site_symmetry_2
O1 C1 1_555 1_555
O2 C4 1_555 1_555
O3 C19 1_555 1_555
O4 H1 1_555 1_555
O5 C26 1_555 1_555
N1 C1 1_555 1_555
C1 C15 1_555 1_555
C2 C3 1_555 1_555
C3 H2 1_555 1_555
C4 N1 1_555 1_555
C5 C3 1_555 1_555
H3 C5 1_555 1_555
C6 C2 1_555 1_555
H4 C6 1_555 1_555
C7 C5 1_555 1_555
H5 C7 1_555 1_555
C8 C6 1_555 1_555
H6 C8 1_555 1_555
C9 C7 1_555 1_555
H7 C9 1_555 1_555
C10 C8 1_555 1_555
H8 C10 1_555 1_555
C11 C2 1_555 1_555
H9 C11 1_555 1_555
C12 C10 1_555 1_555
C13 C12 1_555 1_555
H10 C13 1_555 1_555
C14 C13 1_555 1_555
H11 C14 1_555 1_555
C15 C8 1_555 1_555
C16 C10 1_555 1_555
H12 C16 1_555 1_555
H13 C16 1_555 1_555
H14 C16 1_555 1_555
C17 C12 1_555 1_555
H15 C17 1_555 1_555
H16 C17 1_555 1_555
H17 C17 1_555 1_555
C18 C14 1_555 1_555
H18 C18 1_555 1_555
C19 C18 1_555 1_555
C20 C19 1_555 1_555
H19 C20 1_555 1_555
H20 C20 1_555 1_555
C21 C20 1_555 1_555
H21 C21 1_555 1_555
C22 C21 1_555 1_555
H22 C22 1_555 1_555
H23 C22 1_555 1_555
C23 C22 1_555 1_555
H24 C23 1_555 1_555
C24 O3 1_555 1_555
C25 C18 1_555 1_555
H25 C25 1_555 1_555
C26 C15 1_555 1_555
C27 C19 1_555 1_555
H26 C27 1_555 1_555
H27 C27 1_555 1_555
H28 C27 1_555 1_555
C28 C21 1_555 1_555
H29 C28 1_555 1_555
H30 C28 1_555 1_555
H31 C28 1_555 1_555
C29 C23 1_555 1_555
H32 C29 1_555 1_555
H33 C29 1_555 1_555
H34 C29 1_555 1_555
H35 N1 1_555 1_555
O4 C24 1_555 1_555
C4 C6 1_555 1_555
C9 C11 1_555 1_555
C14 C15 1_555 1_555
C23 C24 1_555 1_555
C24 C25 1_555 1_555
C25 C26 1_555 1_555

#END
