
#######################################################################
#
#                 Cambridge Crystallographic Data Centre
#                                CCDC 
#
#######################################################################
#
# If this CIF has been generated from an entry in the Cambridge 
# Structural Database, then it will include bibliographic, chemical, 
# crystal, experimental, refinement or atomic coordinate data resulting 
# from the CCDC's data processing and validation procedures.
#
#######################################################################

data_CEMJOT03
_chemical_formula_moiety         'C11 H12 O4'
_chemical_name_systematic        '3-(3,4-dimethoxyphenyl)acrylic acid'
_symmetry_cell_setting           monoclinic
_symmetry_space_group_name_H-M   'P 21/c'
_symmetry_Int_Tables_number      14
_space_group_name_Hall           '-P 2ybc'
loop_
_symmetry_equiv_pos_site_id
_symmetry_equiv_pos_as_xyz
1 x,y,z
2 -x,1/2+y,1/2-z
3 -x,-y,-z
4 x,1/2-y,1/2+z
_cell_length_a                   11.216(6)
_cell_length_b                   8.214(6)
_cell_length_c                   14.073(12)
_cell_angle_alpha                90
_cell_angle_beta                 128.86(3)
_cell_angle_gamma                90
_cell_volume                     1009.58
_exptl_crystal_colour            colorless
_exptl_crystal_description       block
_cell_formula_units_Z            4
loop_
_atom_site_label
_atom_site_type_symbol
_atom_site_fract_x
_atom_site_fract_y
_atom_site_fract_z
O1 O 0.48499(10) 0.14409(10) 0.41129(8)
O2 O 0.38102(9) 0.14106(10) 0.50437(8)
H1 H 0.4226 0.0518 0.5277
O3 O 0.07811(9) 0.95786(9) 0.26884(7)
O4 O 0.13725(9) 1.08876(9) 0.13664(7)
C1 C 0.30088(11) 0.62207(13) 0.27301(9)
C2 C 0.16217(11) 0.86437(13) 0.25079(9)
C3 C 0.33733(12) 0.37013(13) 0.38856(10)
H2 H 0.2767 0.4114 0.4070
C4 C 0.19419(12) 0.93650(13) 0.17742(9)
C5 C 0.21514(11) 0.70988(12) 0.29734(9)
H3 H 0.1938 0.6633 0.3454
C6 C 0.40730(11) 0.20896(13) 0.43456(9)
C7 C 0.33104(12) 0.69432(14) 0.20086(10)
H4 H 0.3876 0.6376 0.1840
C8 C 0.27816(13) 0.85005(14) 0.15325(10)
H5 H 0.2994 0.8961 0.1050
C9 C 0.35848(11) 0.45885(13) 0.32107(9)
H6 H 0.4168 0.4112 0.3024
C10 C 0.17804(15) 1.17191(15) 0.07170(11)
H7 H 0.1356 1.2797 0.0514
H8 H 0.1385 1.1134 -0.0018
H9 H 0.2875 1.1785 0.1218
C11 C 0.06457(13) 0.89859(14) 0.35734(10)
H10 H 0.0111 0.9772 0.3686
H11 H 0.1648 0.8808 0.4335
H12 H 0.0087 0.7979 0.3293
loop_
_geom_bond_atom_site_label_1
_geom_bond_atom_site_label_2
_geom_bond_site_symmetry_1
_geom_bond_site_symmetry_2
O1 C6 1_555 1_555
O2 H1 1_555 1_555
O3 C2 1_555 1_555
O4 C4 1_555 1_555
C1 C5 1_555 1_555
C2 C4 1_555 1_555
C3 H2 1_555 1_555
C4 C8 1_555 1_555
C5 C2 1_555 1_555
H3 C5 1_555 1_555
C6 O2 1_555 1_555
C7 C1 1_555 1_555
H4 C7 1_555 1_555
C8 C7 1_555 1_555
H5 C8 1_555 1_555
C9 C1 1_555 1_555
H6 C9 1_555 1_555
C10 O4 1_555 1_555
H7 C10 1_555 1_555
H8 C10 1_555 1_555
H9 C10 1_555 1_555
C11 O3 1_555 1_555
H10 C11 1_555 1_555
H11 C11 1_555 1_555
H12 C11 1_555 1_555
C3 C6 1_555 1_555
C3 C9 1_555 1_555

#END
