
#######################################################################
#
#                 Cambridge Crystallographic Data Centre
#                                CCDC 
#
#######################################################################
#
# If this CIF has been generated from an entry in the Cambridge 
# Structural Database, then it will include bibliographic, chemical, 
# crystal, experimental, refinement or atomic coordinate data resulting 
# from the CCDC's data processing and validation procedures.
#
#######################################################################

data_CEMZOJ
_chemical_formula_moiety         'C8 H31 B10 N4 P1'
_chemical_name_systematic        
10-(tris(Dimethylamino)phosphoranylideneamino)-1,2-dicarba-nido-dodecaborane(12)
_symmetry_cell_setting           orthorhombic
_symmetry_space_group_name_H-M   'P b c a'
_symmetry_Int_Tables_number      61
_space_group_name_Hall           '-P 2ac 2ab'
loop_
_symmetry_equiv_pos_site_id
_symmetry_equiv_pos_as_xyz
1 x,y,z
2 1/2-x,-y,1/2+z
3 -x,1/2+y,1/2-z
4 1/2+x,1/2-y,-z
5 -x,-y,-z
6 1/2+x,y,1/2-z
7 x,1/2-y,1/2+z
8 1/2-x,1/2+y,z
_cell_length_a                   10.799(2)
_cell_length_b                   17.252(4)
_cell_length_c                   20.326(4)
_cell_angle_alpha                90
_cell_angle_beta                 90
_cell_angle_gamma                90
_cell_volume                     3786.82
_exptl_crystal_colour            colorless
_exptl_crystal_description       block
_cell_formula_units_Z            8
_exptl_crystal_recrystallization_method toluene
loop_
_atom_site_label
_atom_site_type_symbol
_atom_site_fract_x
_atom_site_fract_y
_atom_site_fract_z
P1 P 0.25223(9) 0.24518(6) 0.64315(4)
N1 N 0.3050(3) 0.2853(2) 0.71138(16)
H1 H 0.369(4) 0.270(3) 0.716(2)
B1 B 0.2551(5) 0.4897(3) 0.9143(2)
H2 H 0.280(4) 0.526(3) 0.955(2)
N2 N 0.3415(3) 0.17456(18) 0.61935(16)
B2 B 0.1657(5) 0.4030(3) 0.9233(2)
H3 H 0.122(4) 0.379(2) 0.9700(19)
N3 N 0.2531(3) 0.30910(17) 0.58438(13)
B3 B 0.0993(5) 0.4853(3) 0.8843(2)
H4 H 0.016(4) 0.519(2) 0.9001(17)
N4 N 0.1135(3) 0.21379(18) 0.65895(15)
B4 B 0.2167(5) 0.5293(3) 0.8358(3)
H5 H 0.207(3) 0.589(2) 0.8251(17)
B5 B 0.3543(4) 0.4767(3) 0.8456(2)
H6 H 0.449(4) 0.506(2) 0.8433(18)
B6 B 0.3226(4) 0.3969(3) 0.9009(2)
H7 H 0.393(3) 0.3727(19) 0.9355(16)
C1 C 0.0929(4) 0.3950(2) 0.8501(2)
H8 H 0.004(4) 0.370(2) 0.8485(19)
C2 C 0.1197(4) 0.4621(2) 0.8029(2)
H9 H 0.053(4) 0.480(2) 0.7736(19)
B7 B 0.2623(4) 0.4586(3) 0.7739(2)
H10 H 0.281(4) 0.482(2) 0.7221(19)
B8 B 0.3383(4) 0.3809(3) 0.8148(2)
H11 H 0.430(3) 0.3477(19) 0.8055(16)
B9 B 0.2124(4) 0.3359(3) 0.8586(2)
H12 H 0.198(3) 0.275(2) 0.8729(16)
B10 B 0.2370(4) 0.3397(3) 0.7566(2)
H13 H 0.131(3) 0.341(2) 0.7422(17)
C3 C 0.4707(4) 0.1883(3) 0.6000(2)
H14 H 0.4890 0.2438 0.6028
H15 H 0.4832 0.1705 0.5546
H16 H 0.5260 0.1596 0.6295
C4 C 0.3013(4) 0.0943(2) 0.6110(2)
H17 H 0.2113 0.0912 0.6165
H18 H 0.3418 0.0616 0.6440
H19 H 0.3237 0.0763 0.5668
C5 C 0.2665(4) 0.2900(3) 0.51390(18)
H20 H 0.2869 0.2350 0.5092
H21 H 0.3330 0.3215 0.4948
H22 H 0.1886 0.3010 0.4910
C6 C 0.2135(4) 0.3897(2) 0.5955(2)
H23 H 0.2745 0.4251 0.5763
H24 H 0.2071 0.3994 0.6429
H25 H 0.1327 0.3982 0.5748
C7 C 0.0172(4) 0.2100(2) 0.6073(2)
H26 H 0.0109 0.1568 0.5908
H27 H 0.0394 0.2448 0.5711
H28 H -0.0627 0.2259 0.6259
C8 C 0.0848(4) 0.1690(3) 0.71854(19)
H29 H 0.0061 0.1870 0.7371
H30 H 0.1510 0.1763 0.7510
H31 H 0.0782 0.1140 0.7073
loop_
_geom_bond_atom_site_label_1
_geom_bond_atom_site_label_2
_geom_bond_site_symmetry_1
_geom_bond_site_symmetry_2
P1 N1 1_555 1_555
N1 H1 1_555 1_555
B1 H2 1_555 1_555
N2 P1 1_555 1_555
B2 B1 1_555 1_555
H3 B2 1_555 1_555
N3 P1 1_555 1_555
B3 B1 1_555 1_555
H4 B3 1_555 1_555
N4 P1 1_555 1_555
B4 B1 1_555 1_555
H5 B4 1_555 1_555
B5 B1 1_555 1_555
H6 B5 1_555 1_555
B6 B1 1_555 1_555
H7 B6 1_555 1_555
C1 B2 1_555 1_555
H8 C1 1_555 1_555
C2 B3 1_555 1_555
H9 C2 1_555 1_555
B7 B4 1_555 1_555
H10 B7 1_555 1_555
B8 B5 1_555 1_555
H11 B8 1_555 1_555
B9 B2 1_555 1_555
H12 B9 1_555 1_555
B10 N1 1_555 1_555
H13 B10 1_555 1_555
C3 N2 1_555 1_555
H14 C3 1_555 1_555
H15 C3 1_555 1_555
H16 C3 1_555 1_555
C4 N2 1_555 1_555
H17 C4 1_555 1_555
H18 C4 1_555 1_555
H19 C4 1_555 1_555
C5 N3 1_555 1_555
H20 C5 1_555 1_555
H21 C5 1_555 1_555
H22 C5 1_555 1_555
C6 N3 1_555 1_555
H23 C6 1_555 1_555
H24 C6 1_555 1_555
H25 C6 1_555 1_555
C7 N4 1_555 1_555
H26 C7 1_555 1_555
H27 C7 1_555 1_555
H28 C7 1_555 1_555
C8 N4 1_555 1_555
H29 C8 1_555 1_555
H30 C8 1_555 1_555
H31 C8 1_555 1_555
B2 B3 1_555 1_555
B2 B6 1_555 1_555
B3 B4 1_555 1_555
B3 C1 1_555 1_555
B4 B5 1_555 1_555
B4 C2 1_555 1_555
B5 B6 1_555 1_555
B5 B7 1_555 1_555
B6 B8 1_555 1_555
B6 B9 1_555 1_555
C1 C2 1_555 1_555
C1 B9 1_555 1_555
C2 B7 1_555 1_555
B7 B8 1_555 1_555
B7 B10 1_555 1_555
B8 B9 1_555 1_555
B8 B10 1_555 1_555
B9 B10 1_555 1_555

#END
