
#######################################################################
#
#                 Cambridge Crystallographic Data Centre
#                                CCDC 
#
#######################################################################
#
# If this CIF has been generated from an entry in the Cambridge 
# Structural Database, then it will include bibliographic, chemical, 
# crystal, experimental, refinement or atomic coordinate data resulting 
# from the CCDC's data processing and validation procedures.
#
#######################################################################

data_CEMZEB
_chemical_formula_moiety         'C32 H31 N1 O7'
_chemical_name_systematic        
(4R,5S)-3-((S)-3-(5-(Benzyloxy)-7-methoxy-2-methyl-4-oxo-4H-chromen-6-yl)-2-methylpropanoyl)-4-methyl-5-phenyloxazolidin-2-one
_symmetry_cell_setting           tetragonal
_symmetry_space_group_name_H-M   'P 43'
_symmetry_Int_Tables_number      78
_space_group_name_Hall           'P 4cw'
loop_
_symmetry_equiv_pos_site_id
_symmetry_equiv_pos_as_xyz
1 x,y,z
2 -x,-y,1/2+z
3 -y,x,3/4+z
4 y,-x,1/4+z
_cell_length_a                   10.37930(10)
_cell_length_b                   10.37930(10)
_cell_length_c                   25.3520(7)
_cell_angle_alpha                90
_cell_angle_beta                 90
_cell_angle_gamma                90
_cell_volume                     2731.17
_exptl_crystal_colour            colorless
_exptl_crystal_description       block
_chemical_melting_point          '422.2 K'
_cell_formula_units_Z            4
loop_
_atom_site_label
_atom_site_type_symbol
_atom_site_fract_x
_atom_site_fract_y
_atom_site_fract_z
C1 C 0.92060(11) 0.22559(11) 0.17656(5)
H1 H 0.9921 0.1658 0.1683
H2 H 0.8782 0.2491 0.1429
C2 C 0.58499(11) -0.10922(11) 0.16485(5)
H3 H 0.6479 -0.1792 0.1563
C3 C 0.53147(13) -0.05191(14) 0.11432(5)
H4 H 0.4687 0.0153 0.1230
H5 H 0.4893 -0.1196 0.0937
H6 H 0.6019 -0.0144 0.0937
C4 C 1.04599(12) 0.77003(12) 0.29139(5)
C5 C 0.48293(12) -0.15969(12) 0.20417(5)
H7 H 0.5190 -0.2365 0.2228
C6 C 0.82241(12) 0.15660(11) 0.21247(5)
H8 H 0.7504 0.2175 0.2206
C7 C 1.12064(13) 0.86632(12) 0.32251(6)
H9 H 1.0661 0.9413 0.3299
H10 H 1.1963 0.8936 0.3023
H11 H 1.1485 0.8274 0.3558
C8 C 0.88583(13) 0.11509(13) 0.26434(5)
H12 H 0.8227 0.0693 0.2861
H13 H 0.9166 0.1914 0.2833
H14 H 0.9587 0.0580 0.2568
C9 C 0.57186(12) 0.02438(12) 0.24010(5)
C10 C 0.76801(11) 0.04133(11) 0.18257(5)
C11 C 0.92244(12) 0.77783(12) 0.27666(5)
H15 H 0.8735 0.8500 0.2880
C12 C 0.85976(11) 0.68143(11) 0.24423(5)
C13 C 0.94094(11) 0.56811(11) 0.23280(5)
C14 C 0.89914(11) 0.45511(11) 0.20667(5)
C15 C 0.97459(11) 0.34566(12) 0.20200(5)
C16 C 1.10068(12) 0.34955(12) 0.22334(5)
C17 C 1.29316(15) 0.23744(15) 0.24573(8)
H16 H 1.3503 0.3026 0.2304
H17 H 1.3326 0.1521 0.2421
H18 H 1.2796 0.2564 0.2832
C18 C 1.14760(11) 0.45924(11) 0.24732(5)
H19 H 1.2335 0.4622 0.2602
C19 C 1.06674(11) 0.56526(11) 0.25225(5)
C20 C 0.35235(11) -0.19486(12) 0.18198(5)
C21 C 0.24778(12) -0.11030(13) 0.18345(6)
H20 H 0.2576 -0.0274 0.1989
C22 C 0.12970(12) -0.14654(13) 0.16254(6)
H21 H 0.0586 -0.0891 0.1643
C23 C 0.11496(13) -0.26618(14) 0.13907(5)
H22 H 0.0344 -0.2904 0.1243
C24 C 0.21824(13) -0.34998(13) 0.13723(6)
H23 H 0.2084 -0.4320 0.1211
C25 C 0.33615(12) -0.31544(12) 0.15872(6)
H24 H 0.4062 -0.3743 0.1576
C26 C 0.76412(12) 0.51262(12) 0.13637(5)
H25 H 0.8332 0.4835 0.1122
H26 H 0.7730 0.6068 0.1414
C27 C 0.63425(12) 0.48243(12) 0.11288(5)
C28 C 0.59414(13) 0.55066(13) 0.06822(5)
H27 H 0.6473 0.6168 0.0542
C29 C 0.47740(13) 0.52246(14) 0.04426(6)
H28 H 0.4508 0.5691 0.0139
C30 C 0.39936(13) 0.42584(13) 0.06469(6)
H29 H 0.3198 0.4058 0.0481
C31 C 0.43754(13) 0.35892(13) 0.10915(6)
H30 H 0.3835 0.2936 0.1233
C32 C 0.55461(13) 0.38664(12) 0.13339(6)
H31 H 0.5803 0.3402 0.1639
N1 N 0.64795(9) -0.00942(9) 0.19738(4)
O1 O 1.12083(8) 0.66691(8) 0.27891(3)
O2 O 0.46872(8) -0.05512(9) 0.24217(4)
O3 O 0.58710(9) 0.10985(9) 0.27153(4)
O4 O 0.82341(8) -0.00800(9) 0.14551(4)
O5 O 0.74802(8) 0.69522(9) 0.22854(4)
O6 O 0.77606(8) 0.44789(8) 0.18627(3)
O7 O 1.17144(9) 0.23915(9) 0.21867(4)
loop_
_geom_bond_atom_site_label_1
_geom_bond_atom_site_label_2
_geom_bond_site_symmetry_1
_geom_bond_site_symmetry_2
C1 H1 1_555 1_555
H2 C1 1_555 1_555
C2 H3 1_555 1_555
C3 C2 1_555 1_555
H4 C3 1_555 1_555
H5 C3 1_555 1_555
H6 C3 1_555 1_555
C4 C7 1_555 1_555
C5 C2 1_555 1_555
H7 C5 1_555 1_555
C6 C1 1_555 1_555
H8 C6 1_555 1_555
C7 H9 1_555 1_555
H10 C7 1_555 1_555
H11 C7 1_555 1_555
C8 C6 1_555 1_555
H12 C8 1_555 1_555
H13 C8 1_555 1_555
H14 C8 1_555 1_555
C9 N1 1_555 1_555
C10 C6 1_555 1_555
C11 C4 1_555 1_555
H15 C11 1_555 1_555
C12 C11 1_555 1_555
C13 C12 1_555 1_555
C14 C13 1_555 1_555
C15 C1 1_555 1_555
C16 C15 1_555 1_555
C17 H16 1_555 1_555
H17 C17 1_555 1_555
H18 C17 1_555 1_555
C18 C16 1_555 1_555
H19 C18 1_555 1_555
C19 C13 1_555 1_555
C20 C5 1_555 1_555
C21 C20 1_555 1_555
H20 C21 1_555 1_555
C22 C21 1_555 1_555
H21 C22 1_555 1_555
C23 C22 1_555 1_555
H22 C23 1_555 1_555
C24 C23 1_555 1_555
H23 C24 1_555 1_555
C25 C20 1_555 1_555
H24 C25 1_555 1_555
C26 H25 1_555 1_555
H26 C26 1_555 1_555
C27 C26 1_555 1_555
C28 C27 1_555 1_555
H27 C28 1_555 1_555
C29 C28 1_555 1_555
H28 C29 1_555 1_555
C30 C29 1_555 1_555
H29 C30 1_555 1_555
C31 C30 1_555 1_555
H30 C31 1_555 1_555
C32 C27 1_555 1_555
H31 C32 1_555 1_555
N1 C2 1_555 1_555
O1 C4 1_555 1_555
O2 C5 1_555 1_555
O3 C9 1_555 1_555
O4 C10 1_555 1_555
O5 C12 1_555 1_555
O6 C14 1_555 1_555
O7 C16 1_555 1_555
C9 O2 1_555 1_555
C10 N1 1_555 1_555
C14 C15 1_555 1_555
C17 O7 1_555 1_555
C18 C19 1_555 1_555
C19 O1 1_555 1_555
C24 C25 1_555 1_555
C26 O6 1_555 1_555
C31 C32 1_555 1_555

#END
