
#######################################################################
#
#                 Cambridge Crystallographic Data Centre
#                                CCDC 
#
#######################################################################
#
# If this CIF has been generated from an entry in the Cambridge 
# Structural Database, then it will include bibliographic, chemical, 
# crystal, experimental, refinement or atomic coordinate data resulting 
# from the CCDC's data processing and validation procedures.
#
#######################################################################

data_CENJAI
_chemical_formula_moiety         'C20 H15 Cl1 F1 N4'
_chemical_name_systematic        
'3-(3-chloro-4-fluorophenyl)-1,5-diphenylverdazyl radical'
_symmetry_cell_setting           monoclinic
_symmetry_space_group_name_H-M   'P 21/n'
_symmetry_Int_Tables_number      14
_space_group_name_Hall           '-P 2yn'
loop_
_symmetry_equiv_pos_site_id
_symmetry_equiv_pos_as_xyz
1 x,y,z
2 1/2-x,1/2+y,1/2-z
3 -x,-y,-z
4 1/2+x,1/2-y,1/2+z
_cell_length_a                   5.046(2)
_cell_length_b                   33.343(15)
_cell_length_c                   10.284(5)
_cell_angle_alpha                90
_cell_angle_beta                 96.233(5)
_cell_angle_gamma                90
_cell_volume                     1720.04
_cell_formula_units_Z            4
loop_
_atom_site_label
_atom_site_type_symbol
_atom_site_fract_x
_atom_site_fract_y
_atom_site_fract_z
Cl1 Cl 0.53284(16) 0.42302(2) 0.99085(6)
N1 N 0.6438(3) 0.40191(5) 0.49526(16)
N2 N 0.7513(4) 0.40262(5) 0.38081(17)
F1 F 0.1127(3) 0.36378(5) 1.00351(14)
N3 N 0.5768(3) 0.33985(5) 0.32377(16)
N4 N 0.4712(3) 0.33658(5) 0.43964(17)
C1 C 0.5050(4) 0.31056(6) 0.22807(19)
C2 C 0.4210(4) 0.36490(6) 0.6495(2)
C3 C 0.8299(4) 0.44015(6) 0.3342(2)
C4 C 0.5138(4) 0.39134(7) 0.7483(2)
H1 H 0.6469 0.4096 0.7341
C5 C 0.5268(4) 0.36716(6) 0.52093(19)
C6 C 0.6268(5) 0.30832(7) 0.1143(2)
H2 H 0.7645 0.3259 0.1010
C7 C 0.3045(4) 0.28345(7) 0.2465(2)
H3 H 0.2211 0.2842 0.3228
C8 C 0.4114(4) 0.39085(7) 0.8671(2)
C9 C 0.2260(4) 0.33749(7) 0.6736(2)
H4 H 0.1649 0.3191 0.6093
C10 C 1.0118(5) 0.44326(7) 0.2439(2)
H5 H 1.0929 0.4204 0.2150
C11 C 0.7196(5) 0.47454(7) 0.3783(3)
H6 H 0.5966 0.4729 0.4392
C12 C 0.1214(5) 0.33718(8) 0.7923(3)
H7 H -0.0117 0.3190 0.8073
C13 C 0.5450(6) 0.28015(8) 0.0203(2)
H8 H 0.6269 0.2793 -0.0565
C14 C 0.8118(4) 0.36480(6) 0.3228(2)
H9 H 0.9636 0.3523 0.3728
H10 H 0.8538 0.3688 0.2338
C15 C 1.0731(6) 0.48033(9) 0.1968(3)
H11 H 1.1923 0.4822 0.1341
C16 C 0.2149(5) 0.36378(8) 0.8873(2)
C17 C 0.2289(5) 0.25529(7) 0.1512(3)
H12 H 0.0949 0.2371 0.1644
C18 C 0.3473(5) 0.25365(8) 0.0374(3)
H13 H 0.2934 0.2348 -0.0267
C19 C 0.9632(6) 0.51420(8) 0.2399(3)
H14 H 1.0049 0.5391 0.2068
C20 C 0.7897(7) 0.51122(8) 0.3331(3)
H15 H 0.7188 0.5344 0.3660
loop_
_geom_bond_atom_site_label_1
_geom_bond_atom_site_label_2
_geom_bond_site_symmetry_1
_geom_bond_site_symmetry_2
Cl1 C8 1_555 1_555
N1 N2 1_555 1_555
N2 C3 1_555 1_555
F1 C16 1_555 1_555
N3 N4 1_555 1_555
N4 C5 1_555 1_555
C1 N3 1_555 1_555
C2 C4 1_555 1_555
C3 C10 1_555 1_555
C4 H1 1_555 1_555
C5 N1 1_555 1_555
C6 C1 1_555 1_555
H2 C6 1_555 1_555
C7 C1 1_555 1_555
H3 C7 1_555 1_555
C8 C4 1_555 1_555
C9 C2 1_555 1_555
H4 C9 1_555 1_555
C10 H5 1_555 1_555
C11 C3 1_555 1_555
H6 C11 1_555 1_555
C12 C9 1_555 1_555
H7 C12 1_555 1_555
C13 C6 1_555 1_555
H8 C13 1_555 1_555
C14 N2 1_555 1_555
H9 C14 1_555 1_555
H10 C14 1_555 1_555
C15 C10 1_555 1_555
H11 C15 1_555 1_555
C16 C8 1_555 1_555
C17 C7 1_555 1_555
H12 C17 1_555 1_555
C18 C13 1_555 1_555
H13 C18 1_555 1_555
C19 C15 1_555 1_555
H14 C19 1_555 1_555
C20 C11 1_555 1_555
H15 C20 1_555 1_555
N3 C14 1_555 1_555
C2 C5 1_555 1_555
C12 C16 1_555 1_555
C17 C18 1_555 1_555
C19 C20 1_555 1_555

#END
