
#######################################################################
#
#                 Cambridge Crystallographic Data Centre
#                                CCDC 
#
#######################################################################
#
# If this CIF has been generated from an entry in the Cambridge 
# Structural Database, then it will include bibliographic, chemical, 
# crystal, experimental, refinement or atomic coordinate data resulting 
# from the CCDC's data processing and validation procedures.
#
#######################################################################

data_CENQAQ
_chemical_formula_moiety         'C17 H16 I1 N1 O1'
_chemical_name_systematic        
(R)-6-(iodomethyl)-3,6-diphenyl-5,6-dihydro-4H-1,2-oxazine
_symmetry_cell_setting           monoclinic
_symmetry_space_group_name_H-M   'P 21'
_symmetry_Int_Tables_number      4
_space_group_name_Hall           'P 2yb'
loop_
_symmetry_equiv_pos_site_id
_symmetry_equiv_pos_as_xyz
1 x,y,z
2 -x,1/2+y,-z
_cell_length_a                   8.5343(5)
_cell_length_b                   5.8274(4)
_cell_length_c                   14.6323(9)
_cell_angle_alpha                90
_cell_angle_beta                 98.931(2)
_cell_angle_gamma                90
_cell_volume                     718.882
_exptl_crystal_colour            colorless
_exptl_crystal_description       Block
_chemical_melting_point          '186-188 deg.C'
_cell_formula_units_Z            2
_exptl_crystal_recrystallization_method dichloromethane
loop_
_atom_site_label
_atom_site_type_symbol
_atom_site_fract_x
_atom_site_fract_y
_atom_site_fract_z
I1 I 0.49426(2) -0.14314(6) 0.08933(2)
O1 O 0.4192(3) -0.0554(4) 0.29705(16)
N1 N 0.3583(3) -0.0770(5) 0.3820(2)
C1 C -0.0898(4) 0.1877(7) 0.0989(2)
H1 H -0.1947 0.1946 0.0659
C2 C 0.0134(4) 0.371(2) 0.09553(19)
H2 H -0.0212 0.5035 0.0603
C3 C 0.1676(3) 0.3602(11) 0.14384(19)
H3 H 0.2376 0.4860 0.1413
C4 C 0.2200(4) 0.1658(6) 0.1960(2)
C5 C 0.3908(4) 0.1563(6) 0.2461(2)
C6 C 0.3163(4) 0.1056(6) 0.4215(2)
C7 C 0.2479(4) 0.0625(6) 0.5076(2)
C8 C 0.2609(4) 0.2277(6) 0.5775(2)
H4 H 0.3119 0.3696 0.5695
C9 C 0.1999(4) 0.1861(6) 0.6585(2)
H5 H 0.2094 0.2995 0.7057
C10 C 0.1251(4) -0.0203(7) 0.6708(3)
H6 H 0.0845 -0.0490 0.7266
C11 C 0.1154(4) -0.0165(6) 0.1994(2)
H7 H 0.1489 -0.1490 0.2350
C12 C -0.0389(4) -0.0048(7) 0.1506(2)
H8 H -0.1094 -0.1301 0.1528
C13 C 0.3302(3) 0.3464(10) 0.3879(2)
H9 H 0.3773 0.4448 0.4402
H10 H 0.2232 0.4066 0.3640
C14 C 0.4330(3) 0.3566(11) 0.31180(19)
H11 H 0.4147 0.5032 0.2776
H12 H 0.5464 0.3484 0.3392
C15 C 0.1097(4) -0.1847(6) 0.6014(2)
H13 H 0.0579 -0.3258 0.6096
C16 C 0.1699(3) -0.1430(11) 0.52017(19)
H14 H 0.1579 -0.2555 0.4726
C17 C 0.5109(4) 0.1525(6) 0.1792(2)
H15 H 0.6190 0.1578 0.2155
H16 H 0.4966 0.2926 0.1406
loop_
_geom_bond_atom_site_label_1
_geom_bond_atom_site_label_2
_geom_bond_site_symmetry_1
_geom_bond_site_symmetry_2
I1 C17 1_555 1_555
O1 N1 1_555 1_555
N1 C6 1_555 1_555
C1 H1 1_555 1_555
C2 C1 1_555 1_555
H2 C2 1_555 1_555
C3 C2 1_555 1_555
H3 C3 1_555 1_555
C4 C3 1_555 1_555
C5 O1 1_555 1_555
C6 C7 1_555 1_555
C7 C8 1_555 1_555
C8 H4 1_555 1_555
C9 C8 1_555 1_555
H5 C9 1_555 1_555
C10 C9 1_555 1_555
H6 C10 1_555 1_555
C11 C4 1_555 1_555
H7 C11 1_555 1_555
C12 C1 1_555 1_555
H8 C12 1_555 1_555
C13 C6 1_555 1_555
H9 C13 1_555 1_555
H10 C13 1_555 1_555
C14 C5 1_555 1_555
H11 C14 1_555 1_555
H12 C14 1_555 1_555
C15 C10 1_555 1_555
H13 C15 1_555 1_555
C16 C7 1_555 1_555
H14 C16 1_555 1_555
C17 C5 1_555 1_555
H15 C17 1_555 1_555
H16 C17 1_555 1_555
C4 C5 1_555 1_555
C11 C12 1_555 1_555
C13 C14 1_555 1_555
C15 C16 1_555 1_555

#END
