
#######################################################################
#
#                 Cambridge Crystallographic Data Centre
#                                CCDC 
#
#######################################################################
#
# If this CIF has been generated from an entry in the Cambridge 
# Structural Database, then it will include bibliographic, chemical, 
# crystal, experimental, refinement or atomic coordinate data resulting 
# from the CCDC's data processing and validation procedures.
#
#######################################################################

data_CENTUN
_chemical_formula_moiety         'C16 F6 N4,C14 H10'
_chemical_name_systematic        
"2,2'-(1,3,4,5,7,8-hexafluoronaphthalene-2,6-diylidene)dipropanedinitrile phenanthrene"
_symmetry_cell_setting           monoclinic
_symmetry_space_group_name_H-M   'P 21/c'
_symmetry_Int_Tables_number      14
_space_group_name_Hall           '-P 2ybc'
loop_
_symmetry_equiv_pos_site_id
_symmetry_equiv_pos_as_xyz
1 x,y,z
2 -x,1/2+y,1/2-z
3 -x,-y,-z
4 x,1/2-y,1/2+z
_cell_length_a                   7.2884(10)
_cell_length_b                   7.2278(11)
_cell_length_c                   21.205(3)
_cell_angle_alpha                90
_cell_angle_beta                 90.690(4)
_cell_angle_gamma                90
_cell_volume                     1116.98
_exptl_crystal_colour            black
_exptl_crystal_description       needle
_cell_formula_units_Z            2
loop_
_atom_site_label
_atom_site_type_symbol
_atom_site_fract_x
_atom_site_fract_y
_atom_site_fract_z
C9 C 0.6343(12) 0.6940(10) 0.3861(5)
C10 C 0.6156(12) 0.5615(12) 0.3407(5)
C11 C 0.5496(12) 0.3863(11) 0.3540(4)
C12 C 0.4986(10) 0.3448(11) 0.4145(4)
C13 C 0.5135(9) 0.4755(10) 0.4628(4)
C14 C 0.5812(10) 0.6537(11) 0.4495(4)
C15 C 0.5975(6) 0.7896(7) 0.4966(3)
C16 C 0.5477(6) 0.7542(7) 0.5563(3)
C17 C 0.4758(11) 0.5762(10) 0.5732(5)
C18 C 0.4193(12) 0.5411(11) 0.6373(5)
C19 C 0.3516(12) 0.3699(10) 0.6527(5)
C20 C 0.3379(12) 0.2287(9) 0.6071(4)
C21 C 0.3884(10) 0.2632(10) 0.5464(4)
C22 C 0.4583(9) 0.4346(10) 0.5280(4)
C9B C 0.3657(12) 0.3060(10) 0.6139(5)
C10B C 0.3844(12) 0.4385(12) 0.6593(5)
C11B C 0.4504(12) 0.6137(11) 0.6460(4)
C12B C 0.5014(10) 0.6552(11) 0.5855(4)
C13B C 0.4865(9) 0.5245(10) 0.5372(4)
C14B C 0.4188(10) 0.3463(11) 0.5505(4)
C15B C 0.4025(6) 0.2104(7) 0.5034(3)
C16B C 0.4523(6) 0.2458(7) 0.4437(3)
C17B C 0.5242(11) 0.4238(10) 0.4268(5)
C18B C 0.5807(12) 0.4589(11) 0.3627(5)
C19B C 0.6484(12) 0.6301(10) 0.3473(5)
C20B C 0.6621(12) 0.7713(9) 0.3929(4)
C21B C 0.6116(10) 0.7368(10) 0.4536(4)
C22B C 0.5417(9) 0.5654(10) 0.4720(4)
C1 C 0.846(3) 0.440(2) 0.7302(5)
C2 C 0.850(3) 0.340(3) 0.6692(5)
C3 C 0.778(2) 0.1631(19) 0.6746(7)
C4 C 0.9102(10) 0.4247(9) 0.6143(3)
C5 C 0.9047(7) 0.3317(8) 0.5556(2)
C6 C 0.9626(11) 0.4103(8) 0.4992(3)
C7 C 0.9547(6) 0.3136(6) 0.4407(2)
C8 C 1.0158(16) 0.3951(12) 0.3867(4)
F1 F 0.8364(10) 0.1614(8) 0.5549(3)
F2 F 0.890(3) 0.1422(17) 0.4373(6)
F3 F 1.0003(4) 0.2962(4) 0.3332(2)
N1 N 0.837(3) 0.509(2) 0.7778(5)
N2 N 0.7142(18) 0.0184(19) 0.6829(7)
C1B C 1.154(3) 0.560(2) 0.2698(5)
C2B C 1.150(3) 0.660(3) 0.3308(5)
C3B C 1.222(2) 0.8369(19) 0.3254(7)
C4B C 1.0898(10) 0.5753(9) 0.3857(3)
C5B C 1.0953(7) 0.6683(8) 0.4444(2)
C6B C 1.0374(11) 0.5897(8) 0.5008(3)
C7B C 1.0453(6) 0.6864(6) 0.5593(2)
C8B C 0.9842(16) 0.6049(12) 0.6133(4)
F1B F 1.1636(10) 0.8386(8) 0.4451(3)
F2B F 1.110(3) 0.8578(17) 0.5627(6)
F3B F 0.9997(4) 0.7038(4) 0.6668(2)
N1B N 1.163(3) 0.491(2) 0.2222(5)
N2B N 1.2858(18) 0.9816(19) 0.3171(7)
C23? C 0.738(2) 0.146(2) 0.6830(9)
C24? C 0.820(3) 0.325(3) 0.6647(5)
C25? C 0.839(3) 0.448(2) 0.7150(6)
C26? C 0.8772(11) 0.3568(10) 0.6033(4)
C27? C 0.9526(7) 0.5291(9) 0.5847(3)
C28? C 1.0076(13) 0.5737(10) 0.5241(3)
C29? C 1.0846(6) 0.7421(7) 0.5059(2)
C30? C 1.140(2) 0.7754(17) 0.4451(5)
F4? F 0.9663(9) 0.6603(7) 0.6284(3)
F5? F 1.112(4) 0.8760(18) 0.5484(7)
F6? F 1.2087(6) 0.9438(6) 0.43329(17)
N3? N 0.670(2) 0.011(2) 0.6994(8)
N4? N 0.850(3) 0.542(2) 0.7594(5)
H1? H 0.6821 0.8123 0.3758
H2? H 0.6489 0.5902 0.2987
H3? H 0.5398 0.2959 0.3216
H4? H 0.4524 0.225 0.4237
H5? H 0.6443 0.9082 0.4861
H6? H 0.5602 0.8478 0.5875
H7? H 0.4289 0.6355 0.6683
H8? H 0.3136 0.3464 0.6947
H9? H 0.2936 0.1098 0.6186
H10? H 0.3756 0.1678 0.5159
loop_
_geom_bond_atom_site_label_1
_geom_bond_atom_site_label_2
_geom_bond_site_symmetry_1
_geom_bond_site_symmetry_2
C1 C2 1_555 1_555
C2 C3 1_555 1_555
C3 N2 1_555 1_555
C4 C2 1_555 1_555
C5 C4 1_555 1_555
C6 C5 1_555 1_555
C7 C6 1_555 1_555
C8 C7 1_555 1_555
F1 C5 1_555 1_555
F2 C7 1_555 1_555
F3 C8 1_555 1_555
N1 C1 1_555 1_555
C9 C10 1_555 1_555
C10 C11 1_555 1_555
C11 C12 1_555 1_555
C12 C13 1_555 1_555
C13 C14 1_555 1_555
C14 C9 1_555 1_555
C15 C14 1_555 1_555
C16 C15 1_555 1_555
C17 C16 1_555 1_555
C18 C17 1_555 1_555
C19 C18 1_555 1_555
C20 C19 1_555 1_555
C21 C20 1_555 1_555
C22 C13 1_555 1_555
C1B C2B 1_555 1_555
C2B C3B 1_555 1_555
C3B N2B 1_555 1_555
C4B C8 1_555 1_555
C5B C4B 1_555 1_555
C6B C6 1_555 1_555
C7B C6B 1_555 1_555
C8B C4 1_555 1_555
F1B C5B 1_555 1_555
F2B C7B 1_555 1_555
F3B C8B 1_555 1_555
N1B C1B 1_555 1_555
C9B C19 1_555 1_555
C10B C18 1_555 1_555
C11B C18 1_555 1_555
C12B C16 1_555 1_555
C13B C16 1_555 1_555
C14B C17 1_555 1_555
C15B C21 1_555 1_555
C16B C12 1_555 1_555
C17B C12 1_555 1_555
C18B C10 1_555 1_555
C19B C9 1_555 1_555
C20B C9 1_555 1_555
C21B C14 1_555 1_555
C22B C13 1_555 1_555
C10 C19B 1_555 1_555
C11 C18B 1_555 1_555
C13 C16B 1_555 1_555
C13 C17B 1_555 1_555
C14 C17B 1_555 1_555
C14 C22B 1_555 1_555
C15 C21B 1_555 1_555
C15 C22B 1_555 1_555
C17 C22 1_555 1_555
C17 C12B 1_555 1_555
C17 C13B 1_555 1_555
C19 C10B 1_555 1_555
C20 C9B 1_555 1_555
C21 C22 1_555 1_555
C21 C14B 1_555 1_555
C22 C13B 1_555 1_555
C22 C14B 1_555 1_555
C22 C15B 1_555 1_555
C2B C4B 1_555 1_555
C5B C6B 1_555 1_555
C7B C8B 1_555 1_555
C9B C10B 1_555 1_555
C9B C14B 1_555 1_555
C10B C11B 1_555 1_555
C11B C12B 1_555 1_555
C12B C13B 1_555 1_555
C13B C14B 1_555 1_555
C13B C22B 1_555 1_555
C14B C15B 1_555 1_555
C15B C16B 1_555 1_555
C16B C17B 1_555 1_555
C17B C18B 1_555 1_555
C17B C22B 1_555 1_555
C18B C19B 1_555 1_555
C19B C20B 1_555 1_555
C20B C21B 1_555 1_555
C21B C22B 1_555 1_555

#END
