
#######################################################################
#
#                 Cambridge Crystallographic Data Centre
#                                CCDC 
#
#######################################################################
#
# If this CIF has been generated from an entry in the Cambridge 
# Structural Database, then it will include bibliographic, chemical, 
# crystal, experimental, refinement or atomic coordinate data resulting 
# from the CCDC's data processing and validation procedures.
#
#######################################################################

data_CENVAV
_chemical_formula_moiety         'C16 F6 N4,C14 H8 S2'
_chemical_name_systematic        
"2,2'-(1,3,4,5,7,8-hexafluoronaphthalene-2,6-diylidene)dipropanedinitrile naphtho[1,2-b:5,6-b']bisthiophene"
_symmetry_cell_setting           monoclinic
_symmetry_space_group_name_H-M   'P 21/n'
_symmetry_Int_Tables_number      14
_space_group_name_Hall           '-P 2yn'
loop_
_symmetry_equiv_pos_site_id
_symmetry_equiv_pos_as_xyz
1 x,y,z
2 1/2-x,1/2+y,1/2-z
3 -x,-y,-z
4 1/2+x,1/2-y,1/2+z
_cell_length_a                   6.662(2)
_cell_length_b                   20.442(8)
_cell_length_c                   8.747(3)
_cell_angle_alpha                90
_cell_angle_beta                 103.096(10)
_cell_angle_gamma                90
_cell_volume                     1160.23
_exptl_crystal_colour            brown
_exptl_crystal_description       needle
_cell_formula_units_Z            2
loop_
_atom_site_label
_atom_site_type_symbol
_atom_site_fract_x
_atom_site_fract_y
_atom_site_fract_z
C1 C 0.0982(7) 0.2323(3) 0.1837(5)
C2 C 0.0923(6) 0.1660(2) 0.2372(6)
C3 C 0.1304(7) 0.1625(2) 0.4047(6)
C4 C 0.0540(7) 0.1131(3) 0.1325(6)
C5 C 0.0033(6) 0.1249(3) -0.0383(6)
C6 C -0.0362(7) 0.0715(3) -0.1361(6)
C7 C 0.0255(7) -0.0075(3) 0.0816(6)
C8 C 0.0612(7) 0.0476(3) 0.1825(6)
F1 F 0.1052(4) 0.03846(14) 0.3379(4)
F2 F -0.0098(4) 0.18256(15) -0.0934(4)
F3 F -0.0874(4) 0.08244(14) -0.2933(3)
N1 N 0.1087(6) 0.2866(2) 0.1556(5)
N2 N 0.1578(6) 0.1657(2) 0.5392(5)
C1B C -0.0982(7) -0.2323(3) -0.1837(5)
C2B C -0.0923(6) -0.1660(2) -0.2372(6)
C3B C -0.1304(7) -0.1625(2) -0.4047(6)
C4B C -0.0540(7) -0.1131(3) -0.1325(6)
C5B C -0.0033(6) -0.1249(3) 0.0383(6)
C6B C 0.0362(7) -0.0715(3) 0.1361(6)
C7B C -0.0255(7) 0.0075(3) -0.0816(6)
C8B C -0.0612(7) -0.0476(3) -0.1825(6)
F1B F -0.1052(4) -0.03846(14) -0.3379(4)
F2B F 0.0098(4) -0.18256(15) 0.0934(4)
F3B F 0.0874(4) -0.08244(14) 0.2933(3)
N1B N -0.1087(6) -0.2866(2) -0.1556(5)
N2B N -0.1578(6) -0.1657(2) -0.5392(5)
C9 C 0.5940(8) 0.1865(3) 0.2351(7)
H1 H 0.6104 0.23 0.2736
C10 C 0.6178(8) 0.1325(3) 0.3300(7)
H2 H 0.6533 0.1342 0.4414
C11 C 0.5829(7) 0.0732(3) 0.2409(7)
C12 C 0.5333(7) 0.0843(3) 0.0812(6)
C13 C 0.4944(7) 0.0325(2) -0.0297(6)
C14 C 0.442(2) 0.0433(3) -0.1956(7)
H3 H 0.4332 0.0869 -0.2346
C15 C 0.4042(7) -0.0070(3) -0.2978(6)
H4 H 0.3692 0.0013 -0.4075
S1 S 0.53079(19) 0.16702(7) 0.03807(17)
C9B C 0.4060(8) -0.1865(3) -0.2351(7)
H1B H 0.3896 -0.23 -0.2736
C10B C 0.3822(8) -0.1325(3) -0.3300(7)
H2B H 0.3467 -0.1342 -0.4414
C11B C 0.4171(7) -0.0732(3) -0.2409(7)
C12B C 0.4667(7) -0.0843(3) -0.0812(6)
C13B C 0.5056(7) -0.0325(2) 0.0297(6)
C14B C 0.558(2) -0.0433(3) 0.1956(7)
H3B H 0.5668 -0.0869 0.2346
C15B C 0.5958(7) 0.0070(3) 0.2978(6)
H4B H 0.6308 -0.0013 0.4075
S1B S 0.46921(19) -0.16702(7) -0.03807(17)
C16? C 0.613(7) 0.1705(10) 0.292(3)
H5? H 0.6489 0.2042 0.3677
C17? C 0.554(6) 0.1816(13) 0.134(4)
H6? H 0.5411 0.2238 0.0872
C18? C 0.514(5) 0.1216(14) 0.048(3)
C19? C 0.559(6) 0.0671(11) 0.142(2)
C20? C 0.525(5) 0.0019(11) 0.081(3)
C21? C 0.560(19) -0.0541(15) 0.183(5)
H7? H 0.6032 -0.048 0.2933
C22? C 0.532(6) -0.1156(14) 0.124(4)
H8? H 0.541 -0.1528 0.19
S2? S 0.6140(15) 0.0884(6) 0.3381(13)
loop_
_geom_bond_atom_site_label_1
_geom_bond_atom_site_label_2
_geom_bond_site_symmetry_1
_geom_bond_site_symmetry_2
C1 C2 1_555 1_555
C2 C3 1_555 1_555
C3 N2 1_555 1_555
C4 C2 1_555 1_555
C5 C4 1_555 1_555
C6 C5 1_555 1_555
C7 C8 1_555 1_555
C8 C4 1_555 1_555
F1 C8 1_555 1_555
F2 C5 1_555 1_555
F3 C6 1_555 1_555
N1 C1 1_555 1_555
C9 H1 1_555 1_555
C10 C9 1_555 1_555
H2 C10 1_555 1_555
C11 C10 1_555 1_555
C12 C11 1_555 1_555
C13 C12 1_555 1_555
C14 C13 1_555 1_555
H3 C14 1_555 1_555
C15 C14 1_555 1_555
H4 C15 1_555 1_555
S1 C9 1_555 1_555
C1B C2B 1_555 1_555
C2B C3B 1_555 1_555
C3B N2B 1_555 1_555
C4B C2B 1_555 1_555
C5B C4B 1_555 1_555
C6B C7 1_555 1_555
C7B C6 1_555 1_555
C8B C4B 1_555 1_555
F1B C8B 1_555 1_555
F2B C5B 1_555 1_555
F3B C6B 1_555 1_555
N1B C1B 1_555 1_555
C9B H1B 1_555 1_555
C10B C9B 1_555 1_555
H2B C10B 1_555 1_555
C11B C15 1_555 1_555
C12B C11B 1_555 1_555
C13B C13 1_555 1_555
C14B C13B 1_555 1_555
H3B C14B 1_555 1_555
C15B C11 1_555 1_555
H4B C15B 1_555 1_555
S1B C9B 1_555 1_555
C7 C7B 1_555 1_555
C12 S1 1_555 1_555
C5B C6B 1_555 1_555
C7B C8B 1_555 1_555
C10B C11B 1_555 1_555
C12B C13B 1_555 1_555
C12B S1B 1_555 1_555
C14B C15B 1_555 1_555

#END
