
#######################################################################
#
#                 Cambridge Crystallographic Data Centre
#                                CCDC 
#
#######################################################################
#
# If this CIF has been generated from an entry in the Cambridge 
# Structural Database, then it will include bibliographic, chemical, 
# crystal, experimental, refinement or atomic coordinate data resulting 
# from the CCDC's data processing and validation procedures.
#
#######################################################################

data_CENVUN
_chemical_formula_moiety         'C36 H38 N2 O10'
_chemical_name_systematic        
'(E,E)-5-(5-((4-nitrobenzoyl)oxy)-2-(1-methyl-3-((4-nitrobenzoyl)oxy)prop-1-enyl)-3,8-dimethyl-(1R,2S,4aR,5R,8R,8aR)-1,2,4a,5,6,7,8,8a-octahydronaphthalen-1-yl)penta-2,4-dienoic acid'
_symmetry_cell_setting           triclinic
_symmetry_space_group_name_H-M   'P 1'
_symmetry_Int_Tables_number      1
_space_group_name_Hall           'P 1'
loop_
_symmetry_equiv_pos_site_id
_symmetry_equiv_pos_as_xyz
1 x,y,z
_cell_length_a                   6.564(2)
_cell_length_b                   15.654(6)
_cell_length_c                   16.701(6)
_cell_angle_alpha                94.618(5)
_cell_angle_beta                 92.568(5)
_cell_angle_gamma                100.754(5)
_cell_volume                     1677.32
_exptl_crystal_colour            colorless
_exptl_crystal_description       plate
_cell_formula_units_Z            2
loop_
_atom_site_label
_atom_site_type_symbol
_atom_site_fract_x
_atom_site_fract_y
_atom_site_fract_z
C1 C 1.1068(12) 1.1144(4) 0.5530(4)
H1 H 1.1531 1.0722 0.5200
C2 C 1.2485(11) 1.1863(4) 0.5903(4)
H2 H 1.3900 1.1926 0.5830
C3 C 1.1718(11) 1.2471(4) 0.6379(4)
C4 C 0.9685(13) 1.2407(4) 0.6520(4)
H3 H 0.9228 1.2841 0.6837
C5 C 0.8281(12) 1.1664(4) 0.6173(4)
H4 H 0.6888 1.1575 0.6288
C6 C 0.9015(11) 1.1068(4) 0.5654(4)
C7 C 0.7428(11) 1.0329(4) 0.5245(4)
C8 C 0.6882(12) 0.9286(4) 0.4086(4)
H5 H 0.5960 0.8892 0.4399
C9 C 0.5618(13) 0.9720(5) 0.3536(5)
H6 H 0.6525 1.0179 0.3295
H7 H 0.4640 0.9984 0.3843
C10 C 0.4447(13) 0.9064(6) 0.2880(5)
H8 H 0.3401 0.8659 0.3123
H9 H 0.3731 0.9372 0.2510
C11 C 0.5792(12) 0.8546(5) 0.2406(4)
H10 H 0.6781 0.8959 0.2135
C12 C 0.4412(13) 0.7935(6) 0.1759(5)
H11 H 0.3627 0.7453 0.2002
H12 H 0.5262 0.7720 0.1367
H13 H 0.3477 0.8247 0.1502
C13 C 0.7037(11) 0.8104(4) 0.2988(4)
H14 H 0.6027 0.7715 0.3272
C14 C 0.8294(11) 0.8779(4) 0.3625(4)
H15 H 0.9195 0.9203 0.3332
C15 C 0.9716(11) 0.8398(5) 0.4173(5)
H16 H 1.0220 0.8724 0.4655
C16 C 1.0296(11) 0.7649(5) 0.4027(4)
C17 C 1.1738(14) 0.7306(6) 0.4581(5)
H17 H 1.2268 0.7745 0.5013
H18 H 1.2871 0.7159 0.4290
H19 H 1.1002 0.6795 0.4797
C18 C 0.9564(12) 0.7060(5) 0.3256(4)
H20 H 1.0828 0.6931 0.3022
C19 C 0.8280(12) 0.6183(5) 0.3405(4)
C20 C 0.6410(14) 0.6193(5) 0.3889(5)
H21 H 0.5277 0.6295 0.3549
H22 H 0.6733 0.6650 0.4320
H23 H 0.6024 0.5641 0.4108
C21 C 0.8861(12) 0.5470(5) 0.3098(4)
H24 H 1.0048 0.5547 0.2808
C22 C 0.7805(13) 0.4555(5) 0.3171(5)
H25 H 0.8687 0.4260 0.3488
H26 H 0.6514 0.4548 0.3433
C23 C 0.6580(11) 0.3252(5) 0.2342(5)
C24 C 0.6245(11) 0.2833(5) 0.1500(5)
C25 C 0.5683(11) 0.1917(5) 0.1418(5)
H27 H 0.5493 0.1612 0.1872
C26 C 0.5414(12) 0.1475(5) 0.0664(6)
H28 H 0.5046 0.0869 0.0599
C27 C 0.5707(11) 0.1959(5) 0.0004(5)
C28 C 0.6163(11) 0.2859(5) 0.0056(5)
H29 H 0.6271 0.3164 -0.0400
C29 C 0.6456(10) 0.3290(5) 0.0831(5)
H30 H 0.6799 0.3896 0.0895
C30 C 0.8526(12) 0.7546(4) 0.2620(4)
H31 H 0.9655 0.7956 0.2414
C31 C 0.7656(11) 0.6884(4) 0.1924(4)
H32 H 0.6378 0.6525 0.1974
C32 C 0.8582(11) 0.6779(4) 0.1251(4)
H33 H 0.9803 0.7163 0.1170
C33 C 0.7746(12) 0.6076(4) 0.0627(4)
H34 H 0.6521 0.5700 0.0718
C34 C 0.8626(12) 0.5937(5) -0.0064(4)
H35 H 0.9867 0.6295 -0.0166
C35 C 0.7638(11) 0.5217(5) -0.0670(4)
C36 C 0.7897(14) 0.4513(5) -0.1942(5)
H36 H 0.7869 0.3947 -0.1754
H37 H 0.8744 0.4575 -0.2395
H38 H 0.6509 0.4572 -0.2100
N1 N 1.3232(11) 1.3237(4) 0.6749(4)
N2 N 0.5521(11) 0.1480(5) -0.0799(5)
O1 O 0.8263(8) 0.9936(3) 0.4625(3)
O2 O 0.5654(9) 1.0141(3) 0.5406(3)
O3 O 1.5039(10) 1.3171(4) 0.6822(4)
O4 O 1.2563(10) 1.3905(3) 0.6922(4)
O5 O 0.7399(8) 0.4124(3) 0.2369(3)
O6 O 0.6218(9) 0.2883(3) 0.2923(3)
O7 O 0.5564(11) 0.1895(5) -0.1386(4)
O8 O 0.5353(10) 0.0682(4) -0.0827(4)
O9 O 0.6040(10) 0.4749(4) -0.0607(4)
O10 O 0.8748(9) 0.5178(4) -0.1307(3)
C37 C 0.7384(12) 0.4704(5) 0.5741(4)
H39 H 0.8231 0.5129 0.6092
C38 C 0.8196(11) 0.4018(4) 0.5395(4)
H40 H 0.9575 0.3976 0.5501
C39 C 0.6844(11) 0.3386(5) 0.4873(4)
C40 C 0.4840(11) 0.3442(4) 0.4693(4)
H41 H 0.3985 0.3010 0.4353
C41 C 0.4089(11) 0.4146(4) 0.5021(4)
H42 H 0.2746 0.4212 0.4877
C42 C 0.5366(11) 0.4770(4) 0.5579(4)
C43 C 0.4409(11) 0.5479(4) 0.5963(4)
C44 C 0.4890(11) 0.6538(4) 0.7122(4)
H43 H 0.4232 0.6916 0.6795
C45 C 0.3335(12) 0.6077(5) 0.7662(5)
H44 H 0.2085 0.5792 0.7344
H45 H 0.3916 0.5634 0.7918
C46 C 0.2808(12) 0.6729(5) 0.8295(5)
H46 H 0.1857 0.6420 0.8649
H47 H 0.2093 0.7129 0.8033
C47 C 0.4712(11) 0.7263(5) 0.8808(4)
H48 H 0.5408 0.6854 0.9080
C48 C 0.3976(13) 0.7862(5) 0.9446(5)
H49 H 0.3593 0.8349 0.9203
H50 H 0.5075 0.8069 0.9854
H51 H 0.2795 0.7546 0.9685
C49 C 0.6237(11) 0.7735(4) 0.8230(4)
H52 H 0.5521 0.8131 0.7950
C50 C 0.6785(10) 0.7069(4) 0.7598(4)
H53 H 0.7454 0.6662 0.7884
C51 C 0.8327(11) 0.7503(5) 0.7046(5)
H54 H 0.8403 0.7205 0.6547
C52 C 0.9570(11) 0.8262(5) 0.7205(5)
C53 C 1.1088(15) 0.8662(6) 0.6642(6)
H55 H 1.2473 0.8712 0.6875
H56 H 1.0840 0.9231 0.6546
H57 H 1.0929 0.8300 0.6142
C54 C 0.9617(12) 0.8792(5) 0.8017(4)
H58 H 1.1058 0.8891 0.8239
C55 C 0.9140(11) 0.9695(5) 0.7907(4)
C56 C 0.7145(13) 0.9733(5) 0.7470(5)
H59 H 0.6033 0.9615 0.7824
H60 H 0.6904 0.9304 0.7015
H61 H 0.7207 1.0303 0.7290
C57 C 1.0515(13) 1.0392(5) 0.8222(5)
H62 H 1.1675 1.0286 0.8509
C58 C 1.0379(13) 1.1329(5) 0.8161(5)
H63 H 1.1456 1.1602 0.7834
H64 H 0.9039 1.1371 0.7915
C59 C 1.0890(11) 1.2640(5) 0.8997(5)
C60 C 1.1198(10) 1.3063(5) 0.9828(5)
C61 C 1.1685(11) 1.3979(5) 0.9902(5)
H65 H 1.1738 1.4281 0.9444
C62 C 1.2085(11) 1.4430(5) 1.0653(5)
H66 H 1.2427 1.5036 1.0709
C63 C 1.1969(11) 1.3967(5) 1.1312(5)
C64 C 1.1415(11) 1.3065(5) 1.1256(5)
H67 H 1.1290 1.2769 1.1717
C65 C 1.1050(10) 1.2613(5) 1.0502(4)
H68 H 1.0707 1.2006 1.0452
C66 C 0.8285(10) 0.8275(4) 0.8631(4)
H69 H 0.9091 0.7858 0.8828
C67 C 0.8164(11) 0.8929(4) 0.9334(4)
H70 H 0.7181 0.9282 0.9288
C68 C 0.9351(11) 0.9038(4) 1.0013(4)
H71 H 1.0221 0.8643 1.0094
C69 C 0.9364(11) 0.9730(5) 1.0629(4)
H72 H 0.8474 1.0114 1.0537
C70 C 1.0519(13) 0.9879(5) 1.1318(4)
H73 H 1.1419 0.9505 1.1430
C71 C 1.0419(11) 1.0616(4) 1.1910(4)
C72 C 1.1607(14) 1.1326(5) 1.3185(5)
H74 H 1.2397 1.1863 1.3036
H75 H 1.2203 1.1183 1.3681
H76 H 1.0198 1.1390 1.3254
N3 N 0.7675(9) 0.2638(3) 0.4525(3)
N4 N 1.2514(10) 1.4427(5) 1.2123(6)
O11 O 0.9525(8) 0.2728(3) 0.4436(3)
O12 O 0.6435(9) 0.1939(3) 0.4388(3)
O13 O 0.5652(8) 0.5889(3) 0.6603(3)
O14 O 0.2735(8) 0.5620(3) 0.5785(3)
O15 O 1.0649(8) 1.1762(3) 0.8981(3)
O16 O 1.0834(10) 1.3013(4) 0.8404(4)
O17 O 1.3198(9) 1.5227(4) 1.2135(4)
O18 O 1.2312(10) 1.4030(5) 1.2707(4)
O19 O 0.9418(11) 1.1170(4) 1.1800(4)
O20 O 1.1643(10) 1.0630(4) 1.2556(3)
loop_
_geom_bond_atom_site_label_1
_geom_bond_atom_site_label_2
_geom_bond_site_symmetry_1
_geom_bond_site_symmetry_2
C1 H1 1_555 1_555
C2 C1 1_555 1_555
H2 C2 1_555 1_555
C3 C2 1_555 1_555
C4 C3 1_555 1_555
H3 C4 1_555 1_555
C5 C4 1_555 1_555
H4 C5 1_555 1_555
C6 C1 1_555 1_555
C7 C6 1_555 1_555
C8 H5 1_555 1_555
C9 C8 1_555 1_555
H6 C9 1_555 1_555
H7 C9 1_555 1_555
C10 C9 1_555 1_555
H8 C10 1_555 1_555
H9 C10 1_555 1_555
C11 C10 1_555 1_555
H10 C11 1_555 1_555
C12 C11 1_555 1_555
H11 C12 1_555 1_555
H12 C12 1_555 1_555
H13 C12 1_555 1_555
C13 C11 1_555 1_555
H14 C13 1_555 1_555
C14 C8 1_555 1_555
H15 C14 1_555 1_555
C15 C14 1_555 1_555
H16 C15 1_555 1_555
C16 C15 1_555 1_555
C17 C16 1_555 1_555
H17 C17 1_555 1_555
H18 C17 1_555 1_555
H19 C17 1_555 1_555
C18 C16 1_555 1_555
H20 C18 1_555 1_555
C19 C18 1_555 1_555
C20 C19 1_555 1_555
H21 C20 1_555 1_555
H22 C20 1_555 1_555
H23 C20 1_555 1_555
C21 C19 1_555 1_555
H24 C21 1_555 1_555
C22 C21 1_555 1_555
H25 C22 1_555 1_555
H26 C22 1_555 1_555
C23 C24 1_555 1_555
C24 C25 1_555 1_555
C25 H27 1_555 1_555
C26 C25 1_555 1_555
H28 C26 1_555 1_555
C27 C26 1_555 1_555
C28 C27 1_555 1_555
H29 C28 1_555 1_555
C29 C24 1_555 1_555
H30 C29 1_555 1_555
C30 C13 1_555 1_555
H31 C30 1_555 1_555
C31 C30 1_555 1_555
H32 C31 1_555 1_555
C32 C31 1_555 1_555
H33 C32 1_555 1_555
C33 C32 1_555 1_555
H34 C33 1_555 1_555
C34 C33 1_555 1_555
H35 C34 1_555 1_555
C35 C34 1_555 1_555
C36 H36 1_555 1_555
H37 C36 1_555 1_555
H38 C36 1_555 1_555
C37 H39 1_555 1_555
C38 C37 1_555 1_555
H40 C38 1_555 1_555
C39 C38 1_555 1_555
C40 C39 1_555 1_555
H41 C40 1_555 1_555
C41 C40 1_555 1_555
H42 C41 1_555 1_555
C42 C37 1_555 1_555
C43 C42 1_555 1_555
C44 H43 1_555 1_555
C45 C44 1_555 1_555
H44 C45 1_555 1_555
H45 C45 1_555 1_555
C46 C45 1_555 1_555
H46 C46 1_555 1_555
H47 C46 1_555 1_555
C47 C46 1_555 1_555
H48 C47 1_555 1_555
C48 C47 1_555 1_555
H49 C48 1_555 1_555
H50 C48 1_555 1_555
H51 C48 1_555 1_555
C49 C47 1_555 1_555
H52 C49 1_555 1_555
C50 C44 1_555 1_555
H53 C50 1_555 1_555
C51 C50 1_555 1_555
H54 C51 1_555 1_555
C52 C51 1_555 1_555
C53 C52 1_555 1_555
H55 C53 1_555 1_555
H56 C53 1_555 1_555
H57 C53 1_555 1_555
C54 C52 1_555 1_555
H58 C54 1_555 1_555
C55 C54 1_555 1_555
C56 C55 1_555 1_555
H59 C56 1_555 1_555
H60 C56 1_555 1_555
H61 C56 1_555 1_555
C57 C55 1_555 1_555
H62 C57 1_555 1_555
C58 C57 1_555 1_555
H63 C58 1_555 1_555
H64 C58 1_555 1_555
C59 C60 1_555 1_555
C60 C61 1_555 1_555
C61 H65 1_555 1_555
C62 C61 1_555 1_555
H66 C62 1_555 1_555
C63 C62 1_555 1_555
C64 C63 1_555 1_555
H67 C64 1_555 1_555
C65 C60 1_555 1_555
H68 C65 1_555 1_555
C66 C49 1_555 1_555
H69 C66 1_555 1_555
C67 C66 1_555 1_555
H70 C67 1_555 1_555
C68 C67 1_555 1_555
H71 C68 1_555 1_555
C69 C68 1_555 1_555
H72 C69 1_555 1_555
C70 C69 1_555 1_555
H73 C70 1_555 1_555
C71 C70 1_555 1_555
C72 H74 1_555 1_555
H75 C72 1_555 1_555
H76 C72 1_555 1_555
N1 C3 1_555 1_555
N2 C27 1_555 1_555
N3 C39 1_555 1_555
N4 C63 1_555 1_555
O1 C7 1_555 1_555
O2 C7 1_555 1_555
O3 N1 1_555 1_555
O4 N1 1_555 1_555
O5 C22 1_555 1_555
O6 C23 1_555 1_555
O7 N2 1_555 1_555
O8 N2 1_555 1_555
O9 C35 1_555 1_555
O10 C35 1_555 1_555
O11 N3 1_555 1_555
O12 N3 1_555 1_555
O13 C43 1_555 1_555
O14 C43 1_555 1_555
O15 C58 1_555 1_555
O16 C59 1_555 1_555
O17 N4 1_555 1_555
O18 N4 1_555 1_555
O19 C71 1_555 1_555
O20 C71 1_555 1_555
C5 C6 1_555 1_555
C8 O1 1_555 1_555
C13 C14 1_555 1_555
C18 C30 1_555 1_555
C23 O5 1_555 1_555
C28 C29 1_555 1_555
C36 O10 1_555 1_555
C41 C42 1_555 1_555
C44 O13 1_555 1_555
C49 C50 1_555 1_555
C54 C66 1_555 1_555
C59 O15 1_555 1_555
C64 C65 1_555 1_555
C72 O20 1_555 1_555

#END
