
#######################################################################
#
#                 Cambridge Crystallographic Data Centre
#                                CCDC 
#
#######################################################################
#
# If this CIF has been generated from an entry in the Cambridge 
# Structural Database, then it will include bibliographic, chemical, 
# crystal, experimental, refinement or atomic coordinate data resulting 
# from the CCDC's data processing and validation procedures.
#
#######################################################################

data_CENVOJ
_chemical_formula_moiety         'C42 H56 Mg1 N4 O2'
_chemical_name_systematic        
(2,2'-(ethane-1,2-diylbis((azanylylidene)methylylidene))bis(4,6-di-t-butylphenolato))-bis(pyridine)-magnesium
_symmetry_cell_setting           triclinic
_symmetry_space_group_name_H-M   'P -1'
_symmetry_Int_Tables_number      2
_space_group_name_Hall           '-P 1'
loop_
_symmetry_equiv_pos_site_id
_symmetry_equiv_pos_as_xyz
1 x,y,z
2 -x,-y,-z
_cell_length_a                   8.446(3)
_cell_length_b                   14.978(6)
_cell_length_c                   16.783(6)
_cell_angle_alpha                107.954(10)
_cell_angle_beta                 98.611(13)
_cell_angle_gamma                99.026(13)
_cell_volume                     1949.89
_exptl_crystal_colour            colorless
_exptl_crystal_description       plate
_cell_formula_units_Z            2
loop_
_atom_site_label
_atom_site_type_symbol
_atom_site_fract_x
_atom_site_fract_y
_atom_site_fract_z
Mg1 Mg 0.17469(10) 0.53053(6) 0.74383(5)
O1 O 0.25706(19) 0.41634(11) 0.68263(10)
O2 O 0.31231(19) 0.61602(11) 0.85540(10)
N1 N -0.0102(2) 0.48680(14) 0.62636(12)
N2 N 0.0142(2) 0.63232(14) 0.77209(12)
N3 N 0.0275(2) 0.43885(14) 0.80411(12)
N4 N 0.3302(2) 0.61752(14) 0.68003(12)
C1 C 0.2015(3) 0.34101(17) 0.61319(15)
C2 C 0.0535(3) 0.33222(17) 0.55429(14)
C3 C -0.0077(3) 0.24902(17) 0.48152(15)
H1 H -0.1060 0.2455 0.4437
C4 C 0.0685(3) 0.17277(17) 0.46288(15)
C5 C 0.2146(3) 0.18240(17) 0.52027(15)
H2 H 0.2695 0.1306 0.5088
C6 C 0.2845(3) 0.26308(17) 0.59306(15)
C7 C -0.0396(3) 0.40699(18) 0.56368(15)
H3 H -0.1317 0.3958 0.5190
C8 C -0.0040(3) 0.08407(18) 0.38135(15)
C9 C 0.0009(4) 0.1153(2) 0.30236(16)
H4 H -0.0641 0.1644 0.3042
H5 H -0.0449 0.0596 0.2501
H6 H 0.1146 0.1418 0.3024
C10 C -0.1825(3) 0.0429(2) 0.38084(18)
H7 H -0.1861 0.0217 0.4304
H8 H -0.2290 -0.0119 0.3280
H9 H -0.2465 0.0926 0.3839
C11 C 0.0904(4) 0.00415(19) 0.37514(18)
H10 H 0.2048 0.0283 0.3743
H11 H 0.0404 -0.0502 0.3224
H12 H 0.0868 -0.0170 0.4247
C12 C 0.4454(3) 0.26724(17) 0.65247(15)
C13 C 0.5741(3) 0.35821(18) 0.66382(16)
H13 H 0.5323 0.4155 0.6895
H14 H 0.5958 0.3571 0.6078
H15 H 0.6760 0.3597 0.7014
C14 C 0.5226(3) 0.18066(19) 0.61739(17)
H16 H 0.6263 0.1881 0.6564
H17 H 0.5435 0.1772 0.5607
H18 H 0.4474 0.1215 0.6126
C15 C 0.4112(3) 0.26869(19) 0.74017(15)
H19 H 0.3716 0.3267 0.7665
H20 H 0.5125 0.2687 0.7773
H21 H 0.3279 0.2116 0.7327
C16 C 0.3164(3) 0.69942(17) 0.91040(14)
C17 C 0.1854(3) 0.74866(16) 0.90490(15)
C18 C 0.1883(3) 0.83654(17) 0.96918(15)
H22 H 0.0983 0.8669 0.9641
C19 C 0.3164(3) 0.87946(17) 1.03857(15)
C20 C 0.4491(3) 0.83320(17) 1.04112(15)
H23 H 0.5399 0.8625 1.0881
C21 C 0.4568(3) 0.74826(17) 0.98015(15)
C22 C 0.0431(3) 0.71214(17) 0.83529(15)
H24 H -0.0365 0.7505 0.8362
C23 C 0.6107(3) 0.70630(17) 0.98526(15)
C24 C 0.6699(3) 0.68834(19) 0.90050(16)
H25 H 0.5838 0.6424 0.8536
H26 H 0.7689 0.6621 0.9044
H27 H 0.6947 0.7491 0.8895
C25 C 0.5722(3) 0.61102(18) 1.00272(16)
H28 H 0.5330 0.6223 1.0563
H29 H 0.6719 0.5855 1.0076
H30 H 0.4874 0.5646 0.9554
C26 C 0.7532(3) 0.7745(2) 1.05658(17)
H31 H 0.7762 0.8368 1.0481
H32 H 0.8510 0.7469 1.0548
H33 H 0.7234 0.7834 1.1123
C27 C 0.3243(3) 0.97436(17) 1.10999(16)
C28 C 0.4789(4) 1.04835(19) 1.11777(17)
H34 H 0.5764 1.0256 1.1354
H35 H 0.4786 1.1099 1.1606
H36 H 0.4803 1.0568 1.0622
C29 C 0.3301(4) 0.9565(2) 1.19532(17)
H37 H 0.2292 0.9118 1.1920
H38 H 0.3399 1.0174 1.2414
H39 H 0.4249 0.9287 1.2072
C30 C 0.1757(4) 1.0178(2) 1.0925(2)
H40 H 0.1697 1.0286 1.0375
H41 H 0.1870 1.0792 1.1384
H42 H 0.0753 0.9735 1.0904
C31 C -0.1128(3) 0.55634(18) 0.62172(15)
H43 H -0.2186 0.5231 0.5811
H44 H -0.0570 0.6054 0.6011
C32 C -0.1429(3) 0.60421(18) 0.71061(15)
H45 H -0.1886 0.6616 0.7122
H46 H -0.2224 0.5590 0.7253
C33 C 0.0069(3) 0.34283(17) 0.77663(16)
H47 H 0.0549 0.3133 0.7303
C34 C -0.0806(3) 0.28472(18) 0.81218(16)
H48 H -0.0911 0.2170 0.7907
C35 C -0.1525(3) 0.32562(19) 0.87896(16)
H49 H -0.2131 0.2872 0.9045
C36 C -0.1336(3) 0.42419(19) 0.90750(17)
H50 H -0.1822 0.4550 0.9531
C37 C -0.0434(3) 0.47766(19) 0.86924(16)
H51 H -0.0307 0.5455 0.8901
C38 C 0.3560(3) 0.71342(19) 0.70498(16)
H52 H 0.3114 0.7458 0.7516
C39 C 0.4441(3) 0.7681(2) 0.66668(17)
H53 H 0.4574 0.8360 0.6860
C40 C 0.5126(3) 0.7221(2) 0.59964(16)
H54 H 0.5750 0.7576 0.5724
C41 C 0.4876(3) 0.6236(2) 0.57372(16)
H55 H 0.5327 0.5897 0.5278
C42 C 0.3966(3) 0.57429(19) 0.61481(15)
H56 H 0.3803 0.5062 0.5958
loop_
_geom_bond_atom_site_label_1
_geom_bond_atom_site_label_2
_geom_bond_site_symmetry_1
_geom_bond_site_symmetry_2
Mg1 O1 1_555 1_555
O1 C1 1_555 1_555
O2 Mg1 1_555 1_555
N1 Mg1 1_555 1_555
N2 Mg1 1_555 1_555
N3 Mg1 1_555 1_555
N4 Mg1 1_555 1_555
C1 C2 1_555 1_555
C2 C3 1_555 1_555
C3 H1 1_555 1_555
C4 C3 1_555 1_555
C5 C4 1_555 1_555
H2 C5 1_555 1_555
C6 C1 1_555 1_555
C7 N1 1_555 1_555
H3 C7 1_555 1_555
C8 C4 1_555 1_555
C9 C8 1_555 1_555
H4 C9 1_555 1_555
H5 C9 1_555 1_555
H6 C9 1_555 1_555
C10 C8 1_555 1_555
H7 C10 1_555 1_555
H8 C10 1_555 1_555
H9 C10 1_555 1_555
C11 C8 1_555 1_555
H10 C11 1_555 1_555
H11 C11 1_555 1_555
H12 C11 1_555 1_555
C12 C6 1_555 1_555
C13 C12 1_555 1_555
H13 C13 1_555 1_555
H14 C13 1_555 1_555
H15 C13 1_555 1_555
C14 C12 1_555 1_555
H16 C14 1_555 1_555
H17 C14 1_555 1_555
H18 C14 1_555 1_555
C15 C12 1_555 1_555
H19 C15 1_555 1_555
H20 C15 1_555 1_555
H21 C15 1_555 1_555
C16 O2 1_555 1_555
C17 C16 1_555 1_555
C18 C17 1_555 1_555
H22 C18 1_555 1_555
C19 C18 1_555 1_555
C20 C19 1_555 1_555
H23 C20 1_555 1_555
C21 C16 1_555 1_555
C22 N2 1_555 1_555
H24 C22 1_555 1_555
C23 C21 1_555 1_555
C24 C23 1_555 1_555
H25 C24 1_555 1_555
H26 C24 1_555 1_555
H27 C24 1_555 1_555
C25 C23 1_555 1_555
H28 C25 1_555 1_555
H29 C25 1_555 1_555
H30 C25 1_555 1_555
C26 C23 1_555 1_555
H31 C26 1_555 1_555
H32 C26 1_555 1_555
H33 C26 1_555 1_555
C27 C19 1_555 1_555
C28 C27 1_555 1_555
H34 C28 1_555 1_555
H35 C28 1_555 1_555
H36 C28 1_555 1_555
C29 C27 1_555 1_555
H37 C29 1_555 1_555
H38 C29 1_555 1_555
H39 C29 1_555 1_555
C30 C27 1_555 1_555
H40 C30 1_555 1_555
H41 C30 1_555 1_555
H42 C30 1_555 1_555
C31 N1 1_555 1_555
H43 C31 1_555 1_555
H44 C31 1_555 1_555
C32 N2 1_555 1_555
H45 C32 1_555 1_555
H46 C32 1_555 1_555
C33 N3 1_555 1_555
H47 C33 1_555 1_555
C34 C33 1_555 1_555
H48 C34 1_555 1_555
C35 C34 1_555 1_555
H49 C35 1_555 1_555
C36 C35 1_555 1_555
H50 C36 1_555 1_555
C37 N3 1_555 1_555
H51 C37 1_555 1_555
C38 N4 1_555 1_555
H52 C38 1_555 1_555
C39 C38 1_555 1_555
H53 C39 1_555 1_555
C40 C39 1_555 1_555
H54 C40 1_555 1_555
C41 C40 1_555 1_555
H55 C41 1_555 1_555
C42 N4 1_555 1_555
H56 C42 1_555 1_555
C2 C7 1_555 1_555
C5 C6 1_555 1_555
C17 C22 1_555 1_555
C20 C21 1_555 1_555
C31 C32 1_555 1_555
C36 C37 1_555 1_555
C41 C42 1_555 1_555

#END
