
#######################################################################
#
#                 Cambridge Crystallographic Data Centre
#                                CCDC 
#
#######################################################################
#
# If this CIF has been generated from an entry in the Cambridge 
# Structural Database, then it will include bibliographic, chemical, 
# crystal, experimental, refinement or atomic coordinate data resulting 
# from the CCDC's data processing and validation procedures.
#
#######################################################################

data_CENVUP
_chemical_formula_moiety         'C46 H56 Mg1 N4 O2,C7 H8'
_chemical_name_systematic        
"(2,2'-(1,2-phenylenebis((azanylylidene)methylylidene))bis(4,6-di-t-butylphenolato))-bis(pyridine)-magnesium toluene solvate"
_symmetry_cell_setting           monoclinic
_symmetry_space_group_name_H-M   'P 21'
_symmetry_Int_Tables_number      4
_space_group_name_Hall           'P 2yb'
loop_
_symmetry_equiv_pos_site_id
_symmetry_equiv_pos_as_xyz
1 x,y,z
2 -x,1/2+y,-z
_cell_length_a                   14.2481(12)
_cell_length_b                   13.3597(11)
_cell_length_c                   14.4631(11)
_cell_angle_alpha                90
_cell_angle_beta                 116.897(3)
_cell_angle_gamma                90
_cell_volume                     2455.23
_exptl_crystal_colour            orange
_exptl_crystal_description       plate
_cell_formula_units_Z            2
loop_
_atom_site_label
_atom_site_type_symbol
_atom_site_fract_x
_atom_site_fract_y
_atom_site_fract_z
Mg1 Mg 0.43326(12) 0.50185(11) 0.31412(11)
O1 O 0.3212(2) 0.5890(2) 0.2204(2)
O2 O 0.4743(2) 0.4162(2) 0.2297(2)
N1 N 0.4128(3) 0.5686(2) 0.4392(3)
N2 N 0.5552(3) 0.4331(2) 0.4485(3)
N3 N 0.5524(3) 0.6230(3) 0.3267(3)
N4 N 0.3173(3) 0.3800(3) 0.3100(3)
C1 C 0.2558(3) 0.6491(3) 0.2307(3)
C2 C 0.1794(3) 0.7030(3) 0.1417(3)
C3 C 0.1104(3) 0.7655(3) 0.1555(3)
H1 H 0.0628 0.8030 0.0974
C4 C 0.1051(3) 0.7781(3) 0.2503(3)
C5 C 0.1771(3) 0.7260(3) 0.3333(3)
H2 H 0.1745 0.7314 0.3975
C6 C 0.2552(3) 0.6647(3) 0.3282(3)
C7 C 0.1777(3) 0.6884(3) 0.0355(3)
C8 C 0.1574(4) 0.5770(3) 0.0043(3)
H3 H 0.2146 0.5362 0.0553
H4 H 0.1542 0.5678 -0.0643
H5 H 0.0904 0.5562 0.0021
C9 C 0.2822(4) 0.7212(4) 0.0399(3)
H6 H 0.2958 0.7913 0.0619
H7 H 0.2789 0.7142 -0.0290
H8 H 0.3390 0.6792 0.0895
C10 C 0.0887(4) 0.7488(4) -0.0492(3)
H9 H 0.0210 0.7277 -0.0535
H10 H 0.0889 0.7370 -0.1160
H11 H 0.0994 0.8202 -0.0322
C11 C 0.0241(3) 0.8499(3) 0.2565(3)
C12 C -0.0854(3) 0.8264(4) 0.1688(3)
H12 H -0.0853 0.8366 0.1017
H13 H -0.1374 0.8709 0.1741
H14 H -0.1035 0.7566 0.1745
C13 C 0.0189(4) 0.8404(4) 0.3595(3)
H15 H 0.0019 0.7711 0.3686
H16 H -0.0356 0.8852 0.3593
H17 H 0.0872 0.8586 0.4166
C14 C 0.0556(4) 0.9574(3) 0.2452(4)
H18 H 0.1262 0.9715 0.3006
H19 H 0.0052 1.0045 0.2498
H20 H 0.0556 0.9649 0.1777
C15 C 0.3318(3) 0.6225(3) 0.4243(3)
H21 H 0.3217 0.6358 0.4837
C16 C 0.5435(3) 0.3462(3) 0.2512(3)
C17 C 0.5393(3) 0.2786(3) 0.1716(3)
C18 C 0.6188(3) 0.2093(3) 0.1965(3)
H22 H 0.6151 0.1650 0.1435
C19 C 0.7056(3) 0.1999(3) 0.2957(3)
C20 C 0.7083(3) 0.2634(3) 0.3714(3)
H23 H 0.7671 0.2605 0.4381
C21 C 0.6272(3) 0.3329(3) 0.3541(3)
C22 C 0.4478(3) 0.2854(3) 0.0621(3)
C23 C 0.3429(3) 0.2746(4) 0.0661(3)
H24 H 0.3434 0.2128 0.1028
H25 H 0.2855 0.2719 -0.0047
H26 H 0.3326 0.3321 0.1026
C24 C 0.4526(4) 0.2028(4) -0.0089(4)
H27 H 0.5169 0.2104 -0.0169
H28 H 0.3911 0.2079 -0.0769
H29 H 0.4528 0.1373 0.0217
C25 C 0.4507(4) 0.3870(4) 0.0125(3)
H30 H 0.4459 0.4415 0.0556
H31 H 0.3912 0.3911 -0.0570
H32 H 0.5168 0.3929 0.0075
C26 C 0.7937(4) 0.1234(3) 0.3188(3)
C27 C 0.8212(5) 0.0682(4) 0.4205(4)
H33 H 0.8471 0.1163 0.4779
H34 H 0.8758 0.0182 0.4323
H35 H 0.7582 0.0348 0.4164
C28 C 0.8907(4) 0.1763(4) 0.3263(5)
H36 H 0.8748 0.2082 0.2598
H37 H 0.9477 0.1277 0.3434
H38 H 0.9127 0.2275 0.3807
C29 C 0.7599(4) 0.0429(4) 0.2342(4)
H39 H 0.6942 0.0118 0.2258
H40 H 0.8150 -0.0083 0.2542
H41 H 0.7490 0.0736 0.1686
C30 C 0.6298(3) 0.3799(3) 0.4449(3)
H42 H 0.6920 0.3712 0.5082
C31 C 0.4847(3) 0.5356(3) 0.5399(3)
C32 C 0.4860(3) 0.5677(3) 0.6326(3)
H43 H 0.4366 0.6165 0.6306
C33 C 0.5572(3) 0.5297(3) 0.7263(3)
H44 H 0.5572 0.5532 0.7883
C34 C 0.6290(3) 0.4575(3) 0.7314(3)
H45 H 0.6772 0.4304 0.7964
C35 C 0.6300(3) 0.4254(3) 0.6416(3)
H46 H 0.6795 0.3759 0.6453
C36 C 0.5599(3) 0.4639(3) 0.5450(3)
C37 C 0.5419(4) 0.7175(4) 0.3521(4)
H47 H 0.4828 0.7334 0.3631
C38 C 0.6123(5) 0.7925(4) 0.3630(5)
H48 H 0.6024 0.8582 0.3821
C39 C 0.6972(4) 0.7703(4) 0.3456(5)
H49 H 0.7472 0.8205 0.3526
C40 C 0.7085(4) 0.6748(4) 0.3182(4)
H50 H 0.7662 0.6573 0.3055
C41 C 0.6349(4) 0.6052(4) 0.3096(4)
H51 H 0.6433 0.5392 0.2901
C42 C 0.2156(4) 0.3984(4) 0.2809(4)
H52 H 0.1906 0.4647 0.2610
C43 C 0.1446(4) 0.3267(4) 0.2782(5)
H53 H 0.0729 0.3435 0.2564
C44 C 0.1798(4) 0.2302(4) 0.3079(5)
H54 H 0.1334 0.1791 0.3076
C45 C 0.2827(4) 0.2108(4) 0.3374(4)
H55 H 0.3091 0.1449 0.3578
C46 C 0.3488(4) 0.2854(4) 0.3382(4)
H56 H 0.4207 0.2694 0.3599
C47 C 0.8639(4) 0.5274(3) 0.1084(4)
C48 C 0.7791(4) 0.4785(4) 0.1113(6)
H57 H 0.7171 0.4673 0.0485
C49 C 0.7833(6) 0.4466(4) 0.2020(7)
H58 H 0.7244 0.4131 0.2017
C50 C 0.8710(7) 0.4620(5) 0.2941(6)
H59 H 0.8738 0.4390 0.3574
C51 C 0.9566(5) 0.5124(5) 0.2927(5)
H60 H 1.0181 0.5247 0.3557
C52 C 0.9514(4) 0.5442(4) 0.1997(5)
H61 H 1.0097 0.5784 0.1993
C53 C 0.8596(5) 0.5609(5) 0.0070(5)
H62 H 0.8928 0.5102 -0.0175
H63 H 0.8972 0.6246 0.0171
H64 H 0.7861 0.5697 -0.0445
loop_
_geom_bond_atom_site_label_1
_geom_bond_atom_site_label_2
_geom_bond_site_symmetry_1
_geom_bond_site_symmetry_2
Mg1 O1 1_555 1_555
O1 C1 1_555 1_555
O2 Mg1 1_555 1_555
N1 Mg1 1_555 1_555
N2 Mg1 1_555 1_555
N3 Mg1 1_555 1_555
N4 Mg1 1_555 1_555
C1 C2 1_555 1_555
C2 C3 1_555 1_555
C3 H1 1_555 1_555
C4 C3 1_555 1_555
C5 C4 1_555 1_555
H2 C5 1_555 1_555
C6 C1 1_555 1_555
C7 C2 1_555 1_555
C8 C7 1_555 1_555
H3 C8 1_555 1_555
H4 C8 1_555 1_555
H5 C8 1_555 1_555
C9 C7 1_555 1_555
H6 C9 1_555 1_555
H7 C9 1_555 1_555
H8 C9 1_555 1_555
C10 C7 1_555 1_555
H9 C10 1_555 1_555
H10 C10 1_555 1_555
H11 C10 1_555 1_555
C11 C4 1_555 1_555
C12 C11 1_555 1_555
H12 C12 1_555 1_555
H13 C12 1_555 1_555
H14 C12 1_555 1_555
C13 C11 1_555 1_555
H15 C13 1_555 1_555
H16 C13 1_555 1_555
H17 C13 1_555 1_555
C14 C11 1_555 1_555
H18 C14 1_555 1_555
H19 C14 1_555 1_555
H20 C14 1_555 1_555
C15 N1 1_555 1_555
H21 C15 1_555 1_555
C16 O2 1_555 1_555
C17 C16 1_555 1_555
C18 C17 1_555 1_555
H22 C18 1_555 1_555
C19 C18 1_555 1_555
C20 C19 1_555 1_555
H23 C20 1_555 1_555
C21 C16 1_555 1_555
C22 C17 1_555 1_555
C23 C22 1_555 1_555
H24 C23 1_555 1_555
H25 C23 1_555 1_555
H26 C23 1_555 1_555
C24 C22 1_555 1_555
H27 C24 1_555 1_555
H28 C24 1_555 1_555
H29 C24 1_555 1_555
C25 C22 1_555 1_555
H30 C25 1_555 1_555
H31 C25 1_555 1_555
H32 C25 1_555 1_555
C26 C19 1_555 1_555
C27 C26 1_555 1_555
H33 C27 1_555 1_555
H34 C27 1_555 1_555
H35 C27 1_555 1_555
C28 C26 1_555 1_555
H36 C28 1_555 1_555
H37 C28 1_555 1_555
H38 C28 1_555 1_555
C29 C26 1_555 1_555
H39 C29 1_555 1_555
H40 C29 1_555 1_555
H41 C29 1_555 1_555
C30 N2 1_555 1_555
H42 C30 1_555 1_555
C31 N1 1_555 1_555
C32 C31 1_555 1_555
H43 C32 1_555 1_555
C33 C32 1_555 1_555
H44 C33 1_555 1_555
C34 C33 1_555 1_555
H45 C34 1_555 1_555
C35 C34 1_555 1_555
H46 C35 1_555 1_555
C36 N2 1_555 1_555
C37 N3 1_555 1_555
H47 C37 1_555 1_555
C38 C37 1_555 1_555
H48 C38 1_555 1_555
C39 C38 1_555 1_555
H49 C39 1_555 1_555
C40 C39 1_555 1_555
H50 C40 1_555 1_555
C41 N3 1_555 1_555
H51 C41 1_555 1_555
C42 N4 1_555 1_555
H52 C42 1_555 1_555
C43 C42 1_555 1_555
H53 C43 1_555 1_555
C44 C43 1_555 1_555
H54 C44 1_555 1_555
C45 C44 1_555 1_555
H55 C45 1_555 1_555
C46 N4 1_555 1_555
H56 C46 1_555 1_555
C47 C48 1_555 1_555
C48 H57 1_555 1_555
C49 C48 1_555 1_555
H58 C49 1_555 1_555
C50 C49 1_555 1_555
H59 C50 1_555 1_555
C51 C50 1_555 1_555
H60 C51 1_555 1_555
C52 C47 1_555 1_555
H61 C52 1_555 1_555
C53 C47 1_555 1_555
H62 C53 1_555 1_555
H63 C53 1_555 1_555
H64 C53 1_555 1_555
C5 C6 1_555 1_555
C6 C15 1_555 1_555
C20 C21 1_555 1_555
C21 C30 1_555 1_555
C31 C36 1_555 1_555
C35 C36 1_555 1_555
C40 C41 1_555 1_555
C45 C46 1_555 1_555
C51 C52 1_555 1_555

#END
