
#######################################################################
#
#                 Cambridge Crystallographic Data Centre
#                                CCDC 
#
#######################################################################
#
# If this CIF has been generated from an entry in the Cambridge 
# Structural Database, then it will include bibliographic, chemical, 
# crystal, experimental, refinement or atomic coordinate data resulting 
# from the CCDC's data processing and validation procedures.
#
#######################################################################

data_CENWIE
_chemical_formula_moiety         'C47 H61 Ca1 N5 O2'
_chemical_name_systematic        
(2,2'-(ethane-1,2-diylbis((azanylylidene)methylylidene))bis(4,6-di-t-butylphenolato))-tris(pyridine)-calcium
_symmetry_cell_setting           monoclinic
_symmetry_space_group_name_H-M   'C 2/c'
_symmetry_Int_Tables_number      15
_space_group_name_Hall           '-C 2yn'
loop_
_symmetry_equiv_pos_site_id
_symmetry_equiv_pos_as_xyz
1 x,y,z
2 -x,y,1/2-z
3 1/2+x,1/2+y,z
4 1/2-x,1/2+y,1/2-z
5 -x,-y,-z
6 x,-y,1/2+z
7 1/2-x,1/2-y,-z
8 1/2+x,1/2-y,1/2+z
_cell_length_a                   15.0350(7)
_cell_length_b                   13.2916(6)
_cell_length_c                   21.8624(11)
_cell_angle_alpha                90
_cell_angle_beta                 93.198(2)
_cell_angle_gamma                90
_cell_volume                     4362.16
_exptl_crystal_colour            colorless
_exptl_crystal_description       cube
_cell_formula_units_Z            4
loop_
_atom_site_label
_atom_site_type_symbol
_atom_site_fract_x
_atom_site_fract_y
_atom_site_fract_z
Ca1 Ca 0.5000 0.43971(3) 0.2500
O1 O 0.62542(7) 0.47984(8) 0.30959(5)
N1 N 0.56496(8) 0.27961(10) 0.29949(6)
N2 N 0.5000 0.64055(15) 0.2500
N3 N 0.40197(9) 0.44478(10) 0.34012(6)
C1 C 0.68913(10) 0.44528(12) 0.34579(7)
C2 C 0.70039(10) 0.33978(12) 0.35605(7)
C3 C 0.77138(10) 0.30197(12) 0.39411(7)
H1 H 0.7771 0.2312 0.3992
C4 C 0.83271(10) 0.36385(12) 0.42418(7)
C5 C 0.82076(10) 0.46792(12) 0.41440(7)
H2 H 0.8622 0.5122 0.4349
C6 C 0.75357(10) 0.51056(12) 0.37740(7)
C7 C 0.63880(10) 0.26542(12) 0.33057(7)
H3 H 0.6551 0.1972 0.3378
C8 C 0.90995(11) 0.32603(12) 0.46654(7)
C9 C 0.90050(11) 0.36917(13) 0.53105(7)
H4 H 0.9007 0.4428 0.5291
H5 H 0.9504 0.3462 0.5582
H6 H 0.8444 0.3460 0.5469
C10 C 0.91091(12) 0.21121(13) 0.47172(9)
H7 H 0.8551 0.1882 0.4881
H8 H 0.9612 0.1902 0.4993
H9 H 0.9171 0.1817 0.4311
C11 C 0.99908(11) 0.36050(14) 0.44265(8)
H10 H 1.0073 0.3294 0.4027
H11 H 1.0478 0.3402 0.4717
H12 H 0.9990 0.4339 0.4383
C12 C 0.74821(11) 0.62482(12) 0.36781(7)
C13 C 0.65740(11) 0.66596(13) 0.38512(8)
H13 H 0.6097 0.6292 0.3625
H14 H 0.6533 0.7376 0.3747
H15 H 0.6513 0.6574 0.4292
C14 C 0.76204(11) 0.64759(13) 0.29990(7)
H16 H 0.8200 0.6213 0.2890
H17 H 0.7603 0.7205 0.2932
H18 H 0.7147 0.6154 0.2742
C15 C 0.81978(11) 0.68175(13) 0.40673(8)
H19 H 0.8112 0.6699 0.4503
H20 H 0.8150 0.7539 0.3980
H21 H 0.8789 0.6578 0.3968
C16 C 0.51414(11) 0.18869(12) 0.28387(7)
H22 H 0.4608 0.1857 0.3084
H23 H 0.5511 0.1286 0.2938
C17 C 0.55875(11) 0.69363(13) 0.21945(7)
H24 H 0.6007 0.6577 0.1969
C18 C 0.56219(12) 0.79763(14) 0.21870(8)
H25 H 0.6063 0.8319 0.1972
C19 C 0.5000 0.8505(2) 0.2500
H26 H 0.5000 0.9219 0.2500
C20 C 0.43917(11) 0.44303(12) 0.39737(7)
H27 H 0.5018 0.4342 0.4028
C21 C 0.39070(12) 0.45347(13) 0.44879(8)
H28 H 0.4195 0.4516 0.4886
C22 C 0.29972(12) 0.46673(13) 0.44151(8)
H29 H 0.2649 0.4750 0.4761
C23 C 0.26023(12) 0.46776(13) 0.38298(8)
H30 H 0.1977 0.4762 0.3766
C24 C 0.31351(11) 0.45621(13) 0.33369(8)
H31 H 0.2860 0.4564 0.2935
O1A O 0.37458(7) 0.47984(8) 0.19041(5)
N1A N 0.43504(8) 0.27961(10) 0.20051(6)
C1A C 0.31087(10) 0.44528(12) 0.15421(7)
C2A C 0.29961(10) 0.33978(12) 0.14395(7)
C3A C 0.22862(10) 0.30197(12) 0.10589(7)
H1A H 0.2229 0.2312 0.1008
C4A C 0.16729(10) 0.36385(12) 0.07582(7)
C5A C 0.17924(10) 0.46792(12) 0.08560(7)
H2A H 0.1378 0.5122 0.0651
C6A C 0.24643(10) 0.51056(12) 0.12260(7)
C7A C 0.36120(10) 0.26542(12) 0.16943(7)
H3A H 0.3449 0.1972 0.1622
C8A C 0.09005(11) 0.32603(12) 0.03346(7)
C9A C 0.09950(11) 0.36917(13) -0.03105(7)
H4A H 0.0993 0.4428 -0.0291
H5A H 0.0496 0.3462 -0.0582
H6A H 0.1556 0.3460 -0.0469
C10A C 0.08909(12) 0.21121(13) 0.02828(9)
H7A H 0.1449 0.1882 0.0119
H8A H 0.0388 0.1902 0.0007
H9A H 0.0829 0.1817 0.0689
C11A C 0.00092(11) 0.36050(14) 0.05735(8)
H10A H -0.0073 0.3294 0.0973
H11A H -0.0478 0.3402 0.0283
H12A H 0.0010 0.4339 0.0617
C12A C 0.25179(11) 0.62482(12) 0.13219(7)
C13A C 0.34260(11) 0.66596(13) 0.11488(8)
H13A H 0.3903 0.6292 0.1375
H14A H 0.3467 0.7376 0.1253
H15A H 0.3487 0.6574 0.0708
C14A C 0.23796(11) 0.64759(13) 0.20010(7)
H16A H 0.1800 0.6213 0.2110
H17A H 0.2397 0.7205 0.2068
H18A H 0.2853 0.6154 0.2258
C15A C 0.18022(11) 0.68175(13) 0.09327(8)
H19A H 0.1888 0.6699 0.0497
H20A H 0.1850 0.7539 0.1020
H21A H 0.1211 0.6578 0.1032
C16A C 0.48586(11) 0.18869(12) 0.21613(7)
H22A H 0.5392 0.1857 0.1916
H23A H 0.4489 0.1286 0.2062
C17A C 0.44125(11) 0.69363(13) 0.28055(7)
H24A H 0.3993 0.6577 0.3031
C18A C 0.43781(12) 0.79763(14) 0.28130(8)
H25A H 0.3937 0.8319 0.3028
N3A N 0.59803(9) 0.44478(10) 0.15988(6)
C20A C 0.56083(11) 0.44303(12) 0.10263(7)
H27A H 0.4982 0.4342 0.0972
C21A C 0.60930(12) 0.45347(13) 0.05121(8)
H28A H 0.5805 0.4516 0.0114
C22A C 0.70028(12) 0.46673(13) 0.05849(8)
H29A H 0.7351 0.4750 0.0239
C23A C 0.73977(12) 0.46776(13) 0.11702(8)
H30A H 0.8023 0.4762 0.1234
C24A C 0.68649(11) 0.45621(13) 0.16631(8)
H31A H 0.7140 0.4564 0.2065
loop_
_geom_bond_atom_site_label_1
_geom_bond_atom_site_label_2
_geom_bond_site_symmetry_1
_geom_bond_site_symmetry_2
Ca1 O1 1_555 1_555
O1 C1 1_555 1_555
N1 Ca1 1_555 1_555
N2 Ca1 1_555 1_555
N3 Ca1 1_555 1_555
C1 C2 1_555 1_555
C2 C3 1_555 1_555
C3 H1 1_555 1_555
C4 C3 1_555 1_555
C5 C4 1_555 1_555
H2 C5 1_555 1_555
C6 C1 1_555 1_555
C7 N1 1_555 1_555
H3 C7 1_555 1_555
C8 C4 1_555 1_555
C9 C8 1_555 1_555
H4 C9 1_555 1_555
H5 C9 1_555 1_555
H6 C9 1_555 1_555
C10 C8 1_555 1_555
H7 C10 1_555 1_555
H8 C10 1_555 1_555
H9 C10 1_555 1_555
C11 C8 1_555 1_555
H10 C11 1_555 1_555
H11 C11 1_555 1_555
H12 C11 1_555 1_555
C12 C6 1_555 1_555
C13 C12 1_555 1_555
H13 C13 1_555 1_555
H14 C13 1_555 1_555
H15 C13 1_555 1_555
C14 C12 1_555 1_555
H16 C14 1_555 1_555
H17 C14 1_555 1_555
H18 C14 1_555 1_555
C15 C12 1_555 1_555
H19 C15 1_555 1_555
H20 C15 1_555 1_555
H21 C15 1_555 1_555
C16 N1 1_555 1_555
H22 C16 1_555 1_555
H23 C16 1_555 1_555
C17 N2 1_555 1_555
H24 C17 1_555 1_555
C18 C17 1_555 1_555
H25 C18 1_555 1_555
C19 C18 1_555 1_555
H26 C19 1_555 1_555
C20 N3 1_555 1_555
H27 C20 1_555 1_555
C21 C20 1_555 1_555
H28 C21 1_555 1_555
C22 C21 1_555 1_555
H29 C22 1_555 1_555
C23 C22 1_555 1_555
H30 C23 1_555 1_555
C24 N3 1_555 1_555
H31 C24 1_555 1_555
O1A Ca1 1_555 1_555
N1A Ca1 1_555 1_555
C1A O1A 1_555 1_555
C2A C1A 1_555 1_555
C3A C2A 1_555 1_555
H1A C3A 1_555 1_555
C4A C3A 1_555 1_555
C5A C4A 1_555 1_555
H2A C5A 1_555 1_555
C6A C1A 1_555 1_555
C7A N1A 1_555 1_555
H3A C7A 1_555 1_555
C8A C4A 1_555 1_555
C9A C8A 1_555 1_555
H4A C9A 1_555 1_555
H5A C9A 1_555 1_555
H6A C9A 1_555 1_555
C10A C8A 1_555 1_555
H7A C10A 1_555 1_555
H8A C10A 1_555 1_555
H9A C10A 1_555 1_555
C11A C8A 1_555 1_555
H10A C11A 1_555 1_555
H11A C11A 1_555 1_555
H12A C11A 1_555 1_555
C12A C6A 1_555 1_555
C13A C12A 1_555 1_555
H13A C13A 1_555 1_555
H14A C13A 1_555 1_555
H15A C13A 1_555 1_555
C14A C12A 1_555 1_555
H16A C14A 1_555 1_555
H17A C14A 1_555 1_555
H18A C14A 1_555 1_555
C15A C12A 1_555 1_555
H19A C15A 1_555 1_555
H20A C15A 1_555 1_555
H21A C15A 1_555 1_555
C16A C16 1_555 1_555
H22A C16A 1_555 1_555
H23A C16A 1_555 1_555
C17A N2 1_555 1_555
H24A C17A 1_555 1_555
C18A C19 1_555 1_555
H25A C18A 1_555 1_555
N3A Ca1 1_555 1_555
C20A N3A 1_555 1_555
H27A C20A 1_555 1_555
C21A C20A 1_555 1_555
H28A C21A 1_555 1_555
C22A C21A 1_555 1_555
H29A C22A 1_555 1_555
C23A C22A 1_555 1_555
H30A C23A 1_555 1_555
C24A N3A 1_555 1_555
H31A C24A 1_555 1_555
C2 C7 1_555 1_555
C5 C6 1_555 1_555
C23 C24 1_555 1_555
N1A C16A 1_555 1_555
C2A C7A 1_555 1_555
C5A C6A 1_555 1_555
C17A C18A 1_555 1_555
C23A C24A 1_555 1_555

#END
