
#######################################################################
#
#                 Cambridge Crystallographic Data Centre
#                                CCDC 
#
#######################################################################
#
# If this CIF has been generated from an entry in the Cambridge 
# Structural Database, then it will include bibliographic, chemical, 
# crystal, experimental, refinement or atomic coordinate data resulting 
# from the CCDC's data processing and validation procedures.
#
#######################################################################

data_CENYUR
_chemical_formula_moiety         'C12 H16 N4,2(H2 O1)'
_chemical_name_systematic        
"1,1'-Ethene-1,2-diylbis(3,5-dimethyl-1H-pyrazole) dihydrate"
_symmetry_cell_setting           orthorhombic
_symmetry_space_group_name_H-M   'P c c n'
_symmetry_Int_Tables_number      56
_space_group_name_Hall           '-P 2ab 2ac'
loop_
_symmetry_equiv_pos_site_id
_symmetry_equiv_pos_as_xyz
1 x,y,z
2 1/2-x,1/2-y,z
3 -x,1/2+y,1/2-z
4 1/2+x,-y,1/2-z
5 -x,-y,-z
6 1/2+x,1/2+y,-z
7 x,1/2-y,1/2+z
8 1/2-x,y,1/2+z
_cell_length_a                   14.576(11)
_cell_length_b                   20.042(15)
_cell_length_c                   4.695(3)
_cell_angle_alpha                90
_cell_angle_beta                 90
_cell_angle_gamma                90
_cell_volume                     1371.56
_exptl_crystal_colour            colorless
_exptl_crystal_description       Prism
_cell_formula_units_Z            4
loop_
_atom_site_label
_atom_site_type_symbol
_atom_site_fract_x
_atom_site_fract_y
_atom_site_fract_z
N1 N 0.92610(11) 0.58172(8) 0.1466(4)
N2 N 1.00335(10) 0.58205(7) 0.3150(4)
C1 C 0.85201(14) 0.65865(11) -0.1892(5)
H1 H 0.8099 0.6208 -0.2100
H2 H 0.8789 0.6695 -0.3748
H3 H 0.8182 0.6974 -0.1170
C2 C 0.92673(13) 0.64071(10) 0.0156(4)
C3 C 1.00345(13) 0.67881(10) 0.0962(5)
H4 H 1.0189 0.7223 0.0317
C4 C 1.05166(13) 0.64029(9) 0.2877(4)
C5 C 1.13955(13) 0.65345(10) 0.4419(5)
H5 H 1.1295 0.6492 0.6475
H6 H 1.1608 0.6987 0.3985
H7 H 1.1860 0.6211 0.3810
C6 C 1.02511(14) 0.52755(9) 0.4921(4)
H8 H 1.0787 0.5304 0.6066
N1D N 1.07390(11) 0.41828(8) 0.8534(4)
N2D N 0.99665(10) 0.41795(7) 0.6850(4)
C1D C 1.14799(14) 0.34135(11) 1.1892(5)
H1D H 1.1901 0.3792 1.2100
H2D H 1.1211 0.3305 1.3748
H3D H 1.1818 0.3026 1.1170
C2D C 1.07327(13) 0.35929(10) 0.9844(4)
C3D C 0.99655(13) 0.32119(10) 0.9038(5)
H4D H 0.9811 0.2777 0.9683
C4D C 0.94834(13) 0.35971(9) 0.7123(4)
C5D C 0.86045(13) 0.34655(10) 0.5581(5)
H5D H 0.8705 0.3508 0.3525
H6D H 0.8392 0.3013 0.6015
H7D H 0.8140 0.3789 0.6190
C6D C 0.97489(14) 0.47245(9) 0.5079(4)
H8D H 0.9213 0.4696 0.3934
O1 O 0.79772(10) 0.47794(7) 0.0415(3)
H9 H 0.8385(14) 0.5086(10) 0.060(5)
H10 H 0.7678(16) 0.4797(12) -0.117(4)
loop_
_geom_bond_atom_site_label_1
_geom_bond_atom_site_label_2
_geom_bond_site_symmetry_1
_geom_bond_site_symmetry_2
N1 N2 1_555 1_555
N2 C4 1_555 1_555
C1 H1 1_555 1_555
H2 C1 1_555 1_555
H3 C1 1_555 1_555
C2 N1 1_555 1_555
C3 C2 1_555 1_555
H4 C3 1_555 1_555
C4 C3 1_555 1_555
C5 C4 1_555 1_555
H5 C5 1_555 1_555
H6 C5 1_555 1_555
H7 C5 1_555 1_555
C6 N2 1_555 1_555
H8 C6 1_555 1_555
O1 H9 1_555 1_555
H10 O1 1_555 1_555
N1D N2D 1_555 1_555
N2D C4D 1_555 1_555
C1D H1D 1_555 1_555
H2D C1D 1_555 1_555
H3D C1D 1_555 1_555
C2D N1D 1_555 1_555
C3D C2D 1_555 1_555
H4D C3D 1_555 1_555
C4D C3D 1_555 1_555
C5D C4D 1_555 1_555
H5D C5D 1_555 1_555
H6D C5D 1_555 1_555
H7D C5D 1_555 1_555
C6D C6 1_555 1_555
H8D C6D 1_555 1_555
C1 C2 1_555 1_555
N2D C6D 1_555 1_555
C1D C2D 1_555 1_555

#END
