
#######################################################################
#
#                 Cambridge Crystallographic Data Centre
#                                CCDC 
#
#######################################################################
#
# If this CIF has been generated from an entry in the Cambridge 
# Structural Database, then it will include bibliographic, chemical, 
# crystal, experimental, refinement or atomic coordinate data resulting 
# from the CCDC's data processing and validation procedures.
#
#######################################################################

data_CEPHAJ
_chemical_name_common            
"ethyl (3R,6'S,8'S)-6'-hydroxy-1,1'',5,7-tetramethyl-2,2''-dioxo-6',7'-dihydrodispiro[indoline-3,5'-indolizine-8',3''-indoline]-6'-carboxylate"
_chemical_formula_moiety         'C29 H29 N3 O5'
_chemical_name_systematic        
"ethyl 6'-hydroxy-1,1'',5,7-tetramethyl-2,2''-dioxo-1,1'',2,2'',6',7'-hexahydrodispiro[indole-3,5'-indolizine-8',3''-indole]-6'-carboxylate"
_symmetry_cell_setting           orthorhombic
_symmetry_space_group_name_H-M   'P 21 21 21'
_symmetry_Int_Tables_number      19
_space_group_name_Hall           'P 2ac 2ab'
loop_
_symmetry_equiv_pos_site_id
_symmetry_equiv_pos_as_xyz
1 x,y,z
2 1/2-x,-y,1/2+z
3 1/2+x,1/2-y,-z
4 -x,1/2+y,1/2-z
_cell_length_a                   9.6120(5)
_cell_length_b                   9.9405(4)
_cell_length_c                   52.933(3)
_cell_angle_alpha                90
_cell_angle_beta                 90
_cell_angle_gamma                90
_cell_volume                     5057.65
_exptl_crystal_colour            'light colorless'
_exptl_crystal_description       plate
_cell_formula_units_Z            8
loop_
_atom_site_label
_atom_site_type_symbol
_atom_site_fract_x
_atom_site_fract_y
_atom_site_fract_z
O1 O 0.9136(4) 0.9917(3) 0.30061(7)
O2 O 0.6682(4) 0.8537(3) 0.31935(7)
H1 H 0.6314 0.8403 0.3054
O3 O 0.7899(5) 0.6683(4) 0.36869(7)
O4 O 0.8273(4) 0.8852(3) 0.35897(7)
O5 O 0.4949(4) 0.7578(3) 0.28388(7)
N1 N 1.0877(4) 0.8787(3) 0.32155(7)
N2 N 0.8605(4) 0.7120(4) 0.28351(7)
N3 N 0.4251(5) 0.5381(4) 0.27843(8)
C1 C 1.2349(5) 0.6925(5) 0.34031(9)
C2 C 1.2405(6) 0.5521(5) 0.34306(10)
H2 H 1.3188 0.5138 0.3509
C3 C 1.1347(6) 0.4671(4) 0.33470(10)
C4 C 1.0169(5) 0.5230(4) 0.32343(10)
H3 H 0.9444 0.4673 0.3177
C5 C 1.0077(5) 0.6617(4) 0.32074(9)
C6 C 1.1176(5) 0.7437(4) 0.32821(9)
C7 C 1.3521(5) 0.7753(5) 0.35110(11)
H4 H 1.4113 0.7184 0.3614
H5 H 1.3140 0.8470 0.3614
H6 H 1.4062 0.8137 0.3374
C8 C 1.1468(7) 0.3158(5) 0.33776(14)
H7 H 1.2194 0.2821 0.3267
H8 H 1.0589 0.2739 0.3334
H9 H 1.1699 0.2947 0.3551
C9 C 0.9608(5) 0.8894(4) 0.31001(9)
C10 C 0.8927(5) 0.7480(4) 0.30970(9)
C11 C 1.1875(6) 0.9894(5) 0.32079(11)
H10 H 1.2068 1.0196 0.3379
H11 H 1.1489 1.0632 0.3111
H12 H 1.2731 0.9589 0.3129
C12 C 0.9525(5) 0.7311(5) 0.26388(9)
H13 H 1.0239 0.7957 0.2635
C13 C 0.9234(6) 0.6415(5) 0.24512(10)
H14 H 0.9701 0.6330 0.2296
C14 C 0.8078(6) 0.5630(5) 0.25367(10)
H15 H 0.7639 0.4939 0.2445
C15 C 0.7725(5) 0.6051(4) 0.27713(9)
C16 C 0.6536(5) 0.5681(4) 0.29410(9)
C17 C 0.6821(5) 0.6062(4) 0.32199(9)
H16 H 0.5934 0.6078 0.3311
H17 H 0.7400 0.5360 0.3296
C18 C 0.7548(5) 0.7428(4) 0.32560(9)
C19 C 0.7916(5) 0.7584(5) 0.35363(10)
C20 C 0.8614(8) 0.9143(6) 0.38530(10)
H18 H 0.9323 0.8515 0.3915
H19 H 0.7784 0.9058 0.3959
C21 C 0.9152(8) 1.0554(6) 0.38599(12)
H20 H 0.9990 1.0616 0.3759
H21 H 0.9362 1.0802 0.4033
H22 H 0.8452 1.1160 0.3793
C22 C 0.5162(5) 0.6361(5) 0.28477(10)
C23 C 0.2839(6) 0.5663(6) 0.26940(11)
H23 H 0.2169 0.5358 0.2818
H24 H 0.2683 0.5195 0.2536
H25 H 0.2731 0.6624 0.2668
C24 C 0.4789(5) 0.4083(5) 0.28267(10)
C25 C 0.4156(6) 0.2859(5) 0.27897(10)
H26 H 0.3236 0.2804 0.2730
C26 C 0.4917(6) 0.1704(5) 0.28428(11)
H27 H 0.4502 0.0857 0.2819
C27 C 0.6293(6) 0.1776(5) 0.29306(10)
H28 H 0.6796 0.0987 0.2967
C28 C 0.6904(6) 0.3044(5) 0.29639(10)
H29 H 0.7831 0.3111 0.3019
C29 C 0.6151(5) 0.4189(5) 0.29158(9)
O6 O 1.1704(4) 0.3902(4) 0.54850(7)
O7 O 1.0144(4) 0.5759(3) 0.57656(6)
H30 H 1.0130 0.6125 0.5625
O8 O 0.7992(4) 0.4210(4) 0.61833(7)
O9 O 1.0318(4) 0.4105(4) 0.61422(6)
O10 O 0.9509(4) 0.7232(3) 0.53613(7)
N4 N 1.0998(4) 0.1970(4) 0.56835(8)
N5 N 0.8701(4) 0.3851(4) 0.53504(7)
N6 N 0.7350(5) 0.8145(3) 0.52897(8)
C30 C 0.9469(6) 0.0082(4) 0.58467(9)
C31 C 0.8085(6) -0.0222(4) 0.59011(10)
H31 H 0.7884 -0.1077 0.5968
C32 C 0.6987(5) 0.0657(5) 0.58634(10)
C33 C 0.7281(5) 0.1936(5) 0.57640(9)
H32 H 0.6558 0.2551 0.5733
C34 C 0.8636(5) 0.2279(4) 0.57127(9)
C35 C 0.9713(5) 0.1377(4) 0.57556(9)
C36 C 1.0566(6) -0.0977(5) 0.58898(12)
H33 H 1.1172 -0.0698 0.6027
H34 H 1.1109 -0.1093 0.5737
H35 H 1.0122 -0.1822 0.5934
C37 C 0.5511(6) 0.0248(6) 0.59318(13)
H36 H 0.5059 -0.0138 0.5785
H37 H 0.4997 0.1033 0.5988
H38 H 0.5537 -0.0413 0.6067
C38 C 1.0809(5) 0.3224(4) 0.55814(10)
C39 C 0.9247(5) 0.3578(4) 0.56038(9)
C40 C 1.2387(5) 0.1420(5) 0.57164(11)
H39 H 1.2509 0.1139 0.5891
H40 H 1.3072 0.2102 0.5675
H41 H 1.2508 0.0652 0.5606
C41 C 0.8850(6) 0.2936(5) 0.51573(9)
H42 H 0.9490 0.2221 0.5153
C42 C 0.7913(7) 0.3244(5) 0.49727(10)
H43 H 0.7795 0.2783 0.4819
C43 C 0.7147(6) 0.4390(5) 0.50550(10)
H44 H 0.6429 0.4824 0.4966
C44 C 0.7653(5) 0.4743(4) 0.52890(9)
C45 C 0.7338(5) 0.5923(4) 0.54560(9)
C46 C 0.7632(5) 0.5530(4) 0.57331(9)
H45 H 0.7581 0.6346 0.5837
H46 H 0.6890 0.4926 0.5790
C47 C 0.9035(5) 0.4844(4) 0.57838(9)
C48 C 0.9031(6) 0.4347(4) 0.60590(9)
C49 C 1.0446(6) 0.3621(5) 0.64021(10)
H47 H 0.9657 0.3944 0.6502
H48 H 1.1303 0.3972 0.6478
C50 C 1.0474(8) 0.2119(5) 0.64048(11)
H49 H 1.1313 0.1804 0.6322
H50 H 0.9666 0.1774 0.6316
H51 H 1.0461 0.1802 0.6578
C51 C 0.8238(6) 0.7157(5) 0.53658(10)
C52 C 0.7807(6) 0.9461(4) 0.51985(11)
H52 H 0.7540 1.0148 0.5319
H53 H 0.7374 0.9647 0.5037
H54 H 0.8811 0.9460 0.5179
C53 C 0.5941(5) 0.7771(4) 0.53245(9)
C54 C 0.4761(6) 0.8524(5) 0.52760(10)
H55 H 0.4820 0.9397 0.5209
C55 C 0.3485(6) 0.7937(5) 0.53307(10)
H56 H 0.2665 0.8429 0.5302
C56 C 0.3396(6) 0.6633(5) 0.54269(10)
H57 H 0.2522 0.6257 0.5464
C57 C 0.4610(6) 0.5885(5) 0.54685(10)
H58 H 0.4553 0.4996 0.5528
C58 C 0.5888(5) 0.6457(4) 0.54212(9)
loop_
_geom_bond_atom_site_label_1
_geom_bond_atom_site_label_2
_geom_bond_site_symmetry_1
_geom_bond_site_symmetry_2
O1 C9 1_555 1_555
O2 H1 1_555 1_555
O3 C19 1_555 1_555
O4 C19 1_555 1_555
O5 C22 1_555 1_555
N1 C6 1_555 1_555
N2 C10 1_555 1_555
N3 C22 1_555 1_555
C1 C2 1_555 1_555
C2 H2 1_555 1_555
C3 C2 1_555 1_555
C4 C3 1_555 1_555
H3 C4 1_555 1_555
C5 C4 1_555 1_555
C6 C1 1_555 1_555
C7 C1 1_555 1_555
H4 C7 1_555 1_555
H5 C7 1_555 1_555
H6 C7 1_555 1_555
C8 C3 1_555 1_555
H7 C8 1_555 1_555
H8 C8 1_555 1_555
H9 C8 1_555 1_555
C9 N1 1_555 1_555
C10 C5 1_555 1_555
C11 N1 1_555 1_555
H10 C11 1_555 1_555
H11 C11 1_555 1_555
H12 C11 1_555 1_555
C12 N2 1_555 1_555
H13 C12 1_555 1_555
C13 C12 1_555 1_555
H14 C13 1_555 1_555
C14 C13 1_555 1_555
H15 C14 1_555 1_555
C15 N2 1_555 1_555
C16 C15 1_555 1_555
C17 C16 1_555 1_555
H16 C17 1_555 1_555
H17 C17 1_555 1_555
C18 O2 1_555 1_555
C19 C18 1_555 1_555
C20 O4 1_555 1_555
H18 C20 1_555 1_555
H19 C20 1_555 1_555
C21 C20 1_555 1_555
H20 C21 1_555 1_555
H21 C21 1_555 1_555
H22 C21 1_555 1_555
C22 C16 1_555 1_555
C23 N3 1_555 1_555
H23 C23 1_555 1_555
H24 C23 1_555 1_555
H25 C23 1_555 1_555
C24 N3 1_555 1_555
C25 C24 1_555 1_555
H26 C25 1_555 1_555
C26 C25 1_555 1_555
H27 C26 1_555 1_555
C27 C26 1_555 1_555
H28 C27 1_555 1_555
C28 C27 1_555 1_555
H29 C28 1_555 1_555
C29 C16 1_555 1_555
O6 C38 1_555 1_555
O7 H30 1_555 1_555
O8 C48 1_555 1_555
O9 C48 1_555 1_555
O10 C51 1_555 1_555
N4 C35 1_555 1_555
N5 C39 1_555 1_555
N6 C51 1_555 1_555
C30 C31 1_555 1_555
C31 H31 1_555 1_555
C32 C31 1_555 1_555
C33 C32 1_555 1_555
H32 C33 1_555 1_555
C34 C33 1_555 1_555
C35 C30 1_555 1_555
C36 C30 1_555 1_555
H33 C36 1_555 1_555
H34 C36 1_555 1_555
H35 C36 1_555 1_555
C37 C32 1_555 1_555
H36 C37 1_555 1_555
H37 C37 1_555 1_555
H38 C37 1_555 1_555
C38 N4 1_555 1_555
C39 C34 1_555 1_555
C40 N4 1_555 1_555
H39 C40 1_555 1_555
H40 C40 1_555 1_555
H41 C40 1_555 1_555
C41 N5 1_555 1_555
H42 C41 1_555 1_555
C42 C41 1_555 1_555
H43 C42 1_555 1_555
C43 C42 1_555 1_555
H44 C43 1_555 1_555
C44 N5 1_555 1_555
C45 C44 1_555 1_555
C46 C45 1_555 1_555
H45 C46 1_555 1_555
H46 C46 1_555 1_555
C47 O7 1_555 1_555
C48 C47 1_555 1_555
C49 O9 1_555 1_555
H47 C49 1_555 1_555
H48 C49 1_555 1_555
C50 C49 1_555 1_555
H49 C50 1_555 1_555
H50 C50 1_555 1_555
H51 C50 1_555 1_555
C51 C45 1_555 1_555
C52 N6 1_555 1_555
H52 C52 1_555 1_555
H53 C52 1_555 1_555
H54 C52 1_555 1_555
C53 N6 1_555 1_555
C54 C53 1_555 1_555
H55 C54 1_555 1_555
C55 C54 1_555 1_555
H56 C55 1_555 1_555
C56 C55 1_555 1_555
H57 C56 1_555 1_555
C57 C56 1_555 1_555
H58 C57 1_555 1_555
C58 C45 1_555 1_555
C5 C6 1_555 1_555
C9 C10 1_555 1_555
C10 C18 1_555 1_555
C14 C15 1_555 1_555
C17 C18 1_555 1_555
C24 C29 1_555 1_555
C28 C29 1_555 1_555
C34 C35 1_555 1_555
C38 C39 1_555 1_555
C39 C47 1_555 1_555
C43 C44 1_555 1_555
C46 C47 1_555 1_555
C53 C58 1_555 1_555
C57 C58 1_555 1_555

#END
