
#######################################################################
#
#                 Cambridge Crystallographic Data Centre
#                                CCDC 
#
#######################################################################
#
# If this CIF has been generated from an entry in the Cambridge 
# Structural Database, then it will include bibliographic, chemical, 
# crystal, experimental, refinement or atomic coordinate data resulting 
# from the CCDC's data processing and validation procedures.
#
#######################################################################

data_CEPHAR01
_chemical_formula_moiety         'C19 H18 O4'
_chemical_name_systematic        Hainanolide
_symmetry_cell_setting           orthorhombic
_symmetry_space_group_name_H-M   'P 21 21 21'
_symmetry_Int_Tables_number      19
_space_group_name_Hall           'P 2ac 2ab'
loop_
_symmetry_equiv_pos_site_id
_symmetry_equiv_pos_as_xyz
1 x,y,z
2 1/2+x,1/2-y,-z
3 -x,1/2+y,1/2-z
4 1/2-x,-y,1/2+z
_cell_length_a                   22.357(11)
_cell_length_b                   8.374(4)
_cell_length_c                   7.659(4)
_cell_angle_alpha                90
_cell_angle_beta                 90
_cell_angle_gamma                90
_cell_volume                     1433.9
_exptl_crystal_colour            yellow
_cell_formula_units_Z            4
loop_
_atom_site_label
_atom_site_type_symbol
_atom_site_fract_x
_atom_site_fract_y
_atom_site_fract_z
O1 O 0.65850 1.04810 0.04730
O2 O 1.03770 0.86200 0.04220
O3 O 0.99900 0.61900 0.07920
O4 O 0.85100 0.48680 -0.05050
C1 C 0.70370 0.96740 0.06010
C2 C 0.69400 0.78790 0.06230
C3 C 0.73400 0.66460 0.08270
C4 C 0.79600 0.68140 0.12500
C5 C 0.82990 0.81570 0.14230
C6 C 0.81640 0.98210 0.09890
C7 C 0.76120 1.03890 0.05720
C8 C 0.87190 1.08510 0.09930
C9 C 0.92250 1.01290 -0.02450
C10 C 0.93000 0.82960 0.01030
C11 C 0.89460 0.77990 0.18020
C12 C 0.89780 0.59990 0.20630
C13 C 0.83740 0.53470 0.13200
C14 C 0.90930 0.54550 -0.09650
C15 C 0.94360 0.52890 0.07670
C16 C 0.99410 0.77370 0.04510
C17 C 0.91020 0.72520 -0.14950
C18 C 0.95110 0.75250 -0.30250
C19 C 0.70980 0.49310 0.07410
H1 H 0.65390 0.76640 0.04730
H2 H 0.76030 1.13800 0.00430
H3 H 0.86360 1.14360 0.04230
H4 H 0.87340 1.15110 0.15520
H5 H 0.95570 1.06750 0.00110
H6 H 0.9002 1.0341 -0.1340
H7 H 0.90360 0.63070 0.32970
H8 H 0.81970 0.45050 0.24680
H9 H 0.92320 0.46130 -0.16730
H10 H 0.95870 0.42150 0.13490
H11 H 0.8801 0.8004 0.2931
H12 H 0.88400 0.73900 -0.27850
H13 H 0.9624 0.8653 -0.3105
H14 H 0.99510 0.75510 -0.28940
H15 H 0.94500 0.71660 -0.37170
H16 H 0.6567 0.4393 0.0612
H17 H 0.72300 0.39240 -0.04210
H18 H 0.71700 0.45090 0.20310
loop_
_geom_bond_atom_site_label_1
_geom_bond_atom_site_label_2
_geom_bond_site_symmetry_1
_geom_bond_site_symmetry_2
O1 C1 1_555 1_555
O2 C16 1_555 1_555
O3 C15 1_555 1_555
O4 C13 1_555 1_555
C1 C2 1_555 1_555
C2 C3 1_555 1_555
C3 C4 1_555 1_555
C4 C5 1_555 1_555
C5 C6 1_555 1_555
C6 C7 1_555 1_555
C7 C1 1_555 1_555
C8 C6 1_555 1_555
C9 C8 1_555 1_555
C10 C9 1_555 1_555
C11 C5 1_555 1_555
C12 C11 1_555 1_555
C13 C4 1_555 1_555
C14 O4 1_555 1_555
C15 C12 1_555 1_555
C16 O3 1_555 1_555
C17 C10 1_555 1_555
C18 C17 1_555 1_555
C19 C3 1_555 1_555
H1 C2 1_555 1_555
H2 C7 1_555 1_555
H3 C8 1_555 1_555
H4 C8 1_555 1_555
H5 C9 1_555 1_555
H6 C9 1_555 1_555
H7 C12 1_555 1_555
H8 C13 1_555 1_555
H9 C14 1_555 1_555
H10 C15 1_555 1_555
H11 C11 1_555 1_555
H12 C17 1_555 1_555
H13 C18 1_555 1_555
H14 C18 1_555 1_555
H15 C18 1_555 1_555
H16 C19 1_555 1_555
H17 C19 1_555 1_555
H18 C19 1_555 1_555
C10 C11 1_555 1_555
C10 C16 1_555 1_555
C12 C13 1_555 1_555
C14 C15 1_555 1_555
C14 C17 1_555 1_555

#END
