
#######################################################################
#
#                 Cambridge Crystallographic Data Centre
#                                CCDC 
#
#######################################################################
#
# If this CIF has been generated from an entry in the Cambridge 
# Structural Database, then it will include bibliographic, chemical, 
# crystal, experimental, refinement or atomic coordinate data resulting 
# from the CCDC's data processing and validation procedures.
#
#######################################################################

data_CEPHUB
_chemical_formula_moiety         'C25 H34 N3 O2 1+,Cl1 1-,1.5(H2 O1)'
_chemical_name_systematic        
'N,N-(Diethylamino)acetylcinchonidium chloride sesquihydrate'
_symmetry_cell_setting           orthorhombic
_symmetry_space_group_name_H-M   'P 21 21 21'
_symmetry_Int_Tables_number      19
_space_group_name_Hall           'P 2ac 2ab'
loop_
_symmetry_equiv_pos_site_id
_symmetry_equiv_pos_as_xyz
1 x,y,z
2 1/2-x,-y,1/2+z
3 -x,1/2+y,1/2-z
4 1/2+x,1/2-y,-z
_cell_length_a                   8.538(3)
_cell_length_b                   17.357(6)
_cell_length_c                   33.770(12)
_cell_angle_alpha                90
_cell_angle_beta                 90
_cell_angle_gamma                90
_cell_volume                     5004.51
_exptl_crystal_colour            colorless
_exptl_crystal_description       block
_chemical_melting_point          215-217deg.C
_cell_formula_units_Z            8
loop_
_atom_site_label
_atom_site_type_symbol
_atom_site_fract_x
_atom_site_fract_y
_atom_site_fract_z
Cl1 Cl 0.71462(18) 0.52513(10) 0.36222(4)
Cl2 Cl 1.22369(19) 0.48372(11) 0.43925(4)
O1 O 0.3856(5) 0.4377(2) 0.51574(11)
H1 H 0.3425 0.4550 0.4959
O2 O 0.6874(5) 0.6535(2) 0.51895(12)
N1 N 0.7107(5) 0.4990(2) 0.49558(11)
N2 N 0.2879(6) 0.4870(3) 0.65892(14)
N3 N 0.5617(7) 0.6936(3) 0.46499(17)
C1 C 0.4102(6) 0.5603(3) 0.60611(16)
C2 C 0.4737(7) 0.6331(4) 0.59511(17)
H3 H 0.5156 0.6396 0.5699
C3 C 0.4740(8) 0.6943(4) 0.62122(19)
H4 H 0.5143 0.7417 0.6134
C4 C 0.4143(8) 0.6852(4) 0.65900(19)
H5 H 0.4158 0.7264 0.6766
C5 C 0.3548(7) 0.6178(4) 0.67054(18)
H6 H 0.3151 0.6129 0.6961
C6 C 0.3507(7) 0.5536(4) 0.64476(17)
C7 C 0.2791(7) 0.4285(4) 0.63389(19)
H7 H 0.2360 0.3828 0.6432
C8 C 0.3295(6) 0.4302(3) 0.59447(17)
H8 H 0.3162 0.3873 0.5783
C9 C 0.3996(6) 0.4963(3) 0.57971(14)
C10 C 0.4539(6) 0.4981(3) 0.53713(14)
H9 H 0.4251 0.5475 0.5251
C11 C 0.6342(6) 0.4891(3) 0.53692(14)
H10 H 0.6770 0.5295 0.5541
C12 C 0.6910(6) 0.4121(3) 0.55315(16)
H11 H 0.7028 0.4156 0.5817
H12 H 0.6141 0.3725 0.5475
C13 C 0.8457(7) 0.3905(3) 0.53470(19)
H13 H 0.8968 0.3496 0.5499
C14 C 0.8168(7) 0.3648(3) 0.49205(18)
H14 H 0.9164 0.3681 0.4778
C15 C 0.7048(7) 0.4219(3) 0.47354(16)
H15 H 0.5991 0.4014 0.4745
H16 H 0.7325 0.4297 0.4460
C16 C 0.9477(7) 0.4620(4) 0.53327(18)
H17 H 1.0542 0.4479 0.5264
H18 H 0.9494 0.4866 0.5591
C17 C 0.8821(6) 0.5175(3) 0.50247(17)
H19 H 0.8929 0.5701 0.5117
H20 H 0.9399 0.5124 0.4779
C18 C 0.7435(11) 0.2827(4) 0.4834(2)
H21 H 0.6913 0.2753 0.4595
C19 C 0.7516(16) 0.2285(5) 0.5064(4)
H22 H 0.8031 0.2343 0.5305
H23 H 0.7064 0.1814 0.4998
C20 C 0.6357(6) 0.5573(3) 0.46893(14)
H24 H 0.5295 0.5409 0.4632
H25 H 0.6927 0.5588 0.4441
C21 C 0.6307(7) 0.6390(3) 0.48650(19)
C22 C 0.5042(9) 0.6822(5) 0.4257(2)
H26 H 0.5304 0.6304 0.4173
H27 H 0.5572 0.7178 0.4081
C23 C 0.3320(11) 0.6934(6) 0.4216(3)
H28 H 0.2783 0.6591 0.4394
H29 H 0.3010 0.6824 0.3949
H30 H 0.3056 0.7457 0.4280
C24 C 0.5495(8) 0.7726(4) 0.4823(2)
H31 H 0.4481 0.7941 0.4755
H32 H 0.5550 0.7688 0.5109
C25 C 0.6740(10) 0.8264(5) 0.4684(3)
H33 H 0.7749 0.8035 0.4727
H34 H 0.6671 0.8739 0.4829
H35 H 0.6602 0.8365 0.4407
O3 O -0.0643(4) 0.6165(2) 0.30813(10)
H2 H -0.1194 0.5999 0.3261
O4 O 0.0372(4) 0.3780(2) 0.27324(11)
N4 N -0.3201(5) 0.6629(3) 0.17771(14)
N5 N 0.2005(4) 0.5082(2) 0.30095(10)
N6 N -0.0563(6) 0.3442(3) 0.33281(13)
C26 C -0.2073(6) 0.5486(3) 0.20990(15)
C27 C -0.1903(6) 0.4677(3) 0.20830(15)
H36 H -0.1305 0.4429 0.2275
C28 C -0.2589(7) 0.4259(4) 0.17962(18)
H37 H -0.2478 0.3726 0.1795
C29 C -0.3483(7) 0.4627(4) 0.14953(18)
H38 H -0.3949 0.4334 0.1297
C30 C -0.3655(7) 0.5403(4) 0.14972(17)
H39 H -0.4241 0.5642 0.1300
C31 C -0.2955(6) 0.5846(3) 0.17947(15)
C32 C -0.2592(6) 0.7042(3) 0.20621(18)
H40 H -0.2737 0.7573 0.2054
C33 C -0.1739(6) 0.6739(3) 0.23778(17)
H41 H -0.1343 0.7066 0.2571
C34 C -0.1478(5) 0.5959(3) 0.24056(15)
C35 C -0.0621(6) 0.5623(3) 0.27615(14)
H42 H -0.1168 0.5155 0.2846
C36 C 0.1061(5) 0.5415(3) 0.26573(13)
H43 H 0.1019 0.5015 0.2453
C37 C 0.2004(6) 0.6085(3) 0.24887(15)
H44 H 0.1628 0.6566 0.2600
H45 H 0.1867 0.6106 0.2204
C38 C 0.3738(6) 0.5983(3) 0.25870(16)
H46 H 0.4379 0.6324 0.2422
C39 C 0.3981(6) 0.6166(3) 0.30236(16)
H47 H 0.5007 0.5966 0.3103
C40 C 0.2700(6) 0.5725(3) 0.32620(14)
H48 H 0.3159 0.5508 0.3500
H49 H 0.1879 0.6080 0.3340
C41 C 0.3380(6) 0.4638(3) 0.28377(16)
H50 H 0.3012 0.4162 0.2719
H51 H 0.4115 0.4509 0.3046
C42 C 0.4202(6) 0.5142(3) 0.25194(15)
H52 H 0.5330 0.5085 0.2540
H53 H 0.3884 0.4979 0.2257
C43 C 0.3947(7) 0.7015(4) 0.31102(18)
H54 H 0.2982 0.7263 0.3112
C44 C 0.5198(8) 0.7424(4) 0.3183(2)
H55 H 0.6179 0.7190 0.3183
H56 H 0.5109 0.7948 0.3234
C45 C 0.1106(6) 0.4558(3) 0.32881(14)
H57 H 0.1828 0.4352 0.3483
H58 H 0.0332 0.4863 0.3428
C46 C 0.0282(6) 0.3892(3) 0.30864(18)
C47 C -0.1519(8) 0.2836(4) 0.3149(2)
H59 H -0.1740 0.2446 0.3347
H60 H -0.0928 0.2594 0.2938
C48 C -0.3034(8) 0.3130(4) 0.2985(2)
H61 H -0.3608 0.3389 0.3190
H62 H -0.3641 0.2705 0.2886
H63 H -0.2825 0.3484 0.2773
C49 C -0.0573(7) 0.3478(3) 0.37652(16)
H64 H -0.1629 0.3389 0.3861
H65 H -0.0254 0.3989 0.3850
C50 C 0.0526(9) 0.2881(4) 0.39448(17)
H66 H 0.0185 0.2374 0.3871
H67 H 0.0516 0.2927 0.4228
H68 H 0.1570 0.2965 0.3848
O5 O 0.4598(5) 0.3960(3) 0.38329(13)
H69 H 0.5437 0.4221 0.3814
H70 H 0.4379 0.3870 0.4074
O6 O 0.5177(6) 0.2300(3) 0.38572(14)
H71 H 0.4739 0.2084 0.3660
H72 H 0.5332 0.2777 0.3813
O7 O 0.9703(7) 0.6167(3) 0.41457(17)
H73 H 0.9001 0.5943 0.4009
H74 H 1.0427 0.5851 0.4205
loop_
_geom_bond_atom_site_label_1
_geom_bond_atom_site_label_2
_geom_bond_site_symmetry_1
_geom_bond_site_symmetry_2
O1 H1 1_555 1_555
O2 C21 1_555 1_555
O3 H2 1_555 1_555
O4 C46 1_555 1_555
N1 C11 1_555 1_555
N2 C6 1_555 1_555
N3 C21 1_555 1_555
N4 C31 1_555 1_555
N5 C36 1_555 1_555
N6 C46 1_555 1_555
C1 C2 1_555 1_555
C2 H3 1_555 1_555
C3 C2 1_555 1_555
H4 C3 1_555 1_555
C4 C3 1_555 1_555
H5 C4 1_555 1_555
C5 C4 1_555 1_555
H6 C5 1_555 1_555
C6 C1 1_555 1_555
C7 N2 1_555 1_555
H7 C7 1_555 1_555
C8 C7 1_555 1_555
H8 C8 1_555 1_555
C9 C1 1_555 1_555
C10 O1 1_555 1_555
H9 C10 1_555 1_555
C11 C10 1_555 1_555
H10 C11 1_555 1_555
C12 C11 1_555 1_555
H11 C12 1_555 1_555
H12 C12 1_555 1_555
C13 C12 1_555 1_555
H13 C13 1_555 1_555
C14 C13 1_555 1_555
H14 C14 1_555 1_555
C15 N1 1_555 1_555
H15 C15 1_555 1_555
H16 C15 1_555 1_555
C16 C13 1_555 1_555
H17 C16 1_555 1_555
H18 C16 1_555 1_555
C17 N1 1_555 1_555
H19 C17 1_555 1_555
H20 C17 1_555 1_555
C18 C14 1_555 1_555
H21 C18 1_555 1_555
C19 C18 1_555 1_555
H22 C19 1_555 1_555
H23 C19 1_555 1_555
C20 N1 1_555 1_555
H24 C20 1_555 1_555
H25 C20 1_555 1_555
C21 C20 1_555 1_555
C22 N3 1_555 1_555
H26 C22 1_555 1_555
H27 C22 1_555 1_555
C23 C22 1_555 1_555
H28 C23 1_555 1_555
H29 C23 1_555 1_555
H30 C23 1_555 1_555
C24 N3 1_555 1_555
H31 C24 1_555 1_555
H32 C24 1_555 1_555
C25 C24 1_555 1_555
H33 C25 1_555 1_555
H34 C25 1_555 1_555
H35 C25 1_555 1_555
C26 C27 1_555 1_555
C27 H36 1_555 1_555
C28 C27 1_555 1_555
H37 C28 1_555 1_555
C29 C28 1_555 1_555
H38 C29 1_555 1_555
C30 C29 1_555 1_555
H39 C30 1_555 1_555
C31 C26 1_555 1_555
C32 N4 1_555 1_555
H40 C32 1_555 1_555
C33 C32 1_555 1_555
H41 C33 1_555 1_555
C34 C26 1_555 1_555
C35 O3 1_555 1_555
H42 C35 1_555 1_555
C36 C35 1_555 1_555
H43 C36 1_555 1_555
C37 C36 1_555 1_555
H44 C37 1_555 1_555
H45 C37 1_555 1_555
C38 C37 1_555 1_555
H46 C38 1_555 1_555
C39 C38 1_555 1_555
H47 C39 1_555 1_555
C40 N5 1_555 1_555
H48 C40 1_555 1_555
H49 C40 1_555 1_555
C41 N5 1_555 1_555
H50 C41 1_555 1_555
H51 C41 1_555 1_555
C42 C38 1_555 1_555
H52 C42 1_555 1_555
H53 C42 1_555 1_555
C43 C39 1_555 1_555
H54 C43 1_555 1_555
C44 C43 1_555 1_555
H55 C44 1_555 1_555
H56 C44 1_555 1_555
C45 N5 1_555 1_555
H57 C45 1_555 1_555
H58 C45 1_555 1_555
C46 C45 1_555 1_555
C47 N6 1_555 1_555
H59 C47 1_555 1_555
H60 C47 1_555 1_555
C48 C47 1_555 1_555
H61 C48 1_555 1_555
H62 C48 1_555 1_555
H63 C48 1_555 1_555
C49 N6 1_555 1_555
H64 C49 1_555 1_555
H65 C49 1_555 1_555
C50 C49 1_555 1_555
H66 C50 1_555 1_555
H67 C50 1_555 1_555
H68 C50 1_555 1_555
O5 H69 1_555 1_555
H70 O5 1_555 1_555
O6 H71 1_555 1_555
H72 O6 1_555 1_555
O7 H73 1_555 1_555
H74 O7 1_555 1_555
C5 C6 1_555 1_555
C8 C9 1_555 1_555
C9 C10 1_555 1_555
C14 C15 1_555 1_555
C16 C17 1_555 1_555
C30 C31 1_555 1_555
C33 C34 1_555 1_555
C34 C35 1_555 1_555
C39 C40 1_555 1_555
C41 C42 1_555 1_555

#END
