
#######################################################################
#
#                 Cambridge Crystallographic Data Centre
#                                CCDC 
#
#######################################################################
#
# If this CIF has been generated from an entry in the Cambridge 
# Structural Database, then it will include bibliographic, chemical, 
# crystal, experimental, refinement or atomic coordinate data resulting 
# from the CCDC's data processing and validation procedures.
#
#######################################################################

data_CEPJIT
_chemical_formula_moiety         'C38 H48 N2 O2 S2'
_chemical_name_systematic        
1,1'-(1,3-phenylene)bis(4,4-dimethyl-1-{[2-(propylsulfanyl)phenyl]amino}pent-1-en-3-one)
_symmetry_cell_setting           monoclinic
_symmetry_space_group_name_H-M   'P 21/c'
_symmetry_Int_Tables_number      14
_space_group_name_Hall           '-P 2ybc'
loop_
_symmetry_equiv_pos_site_id
_symmetry_equiv_pos_as_xyz
1 x,y,z
2 -x,1/2+y,1/2-z
3 -x,-y,-z
4 x,1/2-y,1/2+z
_cell_length_a                   14.149(5)
_cell_length_b                   10.258(3)
_cell_length_c                   24.194(8)
_cell_angle_alpha                90
_cell_angle_beta                 96.710(6)
_cell_angle_gamma                90
_cell_volume                     3487.47
_exptl_crystal_colour            colorless
_exptl_crystal_description       block
_cell_formula_units_Z            4
loop_
_atom_site_label
_atom_site_type_symbol
_atom_site_fract_x
_atom_site_fract_y
_atom_site_fract_z
S1 S 0.42303(13) -0.2173(2) -0.11552(8)
S2 S 0.04100(12) 0.23414(16) 0.15463(7)
O1 O 0.3770(2) -0.2545(3) 0.04176(15)
O2 O 0.0682(3) 0.6073(4) 0.1133(2)
N1 N 0.3402(3) -0.0538(4) -0.0296(2)
H1 H 0.3609 -0.1345 -0.0253
N2 N 0.1819(4) 0.4019(4) 0.1207(2)
H2 H 0.1296 0.4372 0.1304
C1 C 0.3432(5) -0.0851(6) -0.1285(3)
C2 C 0.3096(5) -0.0451(7) -0.1830(3)
H3 H 0.3313 -0.0904 -0.2133
C3 C 0.2466(5) 0.0569(7) -0.1944(3)
H4 H 0.2266 0.0823 -0.2317
C4 C 0.2134(5) 0.1208(6) -0.1504(3)
H5 H 0.1699 0.1911 -0.1575
C5 C 0.2421(5) 0.0845(6) -0.0968(3)
H6 H 0.2162 0.1282 -0.0674
C6 C 0.3085(4) -0.0153(5) -0.0838(2)
C7 C 0.3444(6) -0.3558(7) -0.1376(3)
H7 H 0.3236 -0.3475 -0.1779
H8 H 0.3816 -0.4374 -0.1319
C8 C 0.2610(7) -0.3666(7) -0.1087(4)
H9 H 0.2204 -0.2889 -0.1173
H10 H 0.2812 -0.3666 -0.0681
C9 C 0.2013(7) -0.4895(8) -0.1238(4)
H11 H 0.1780 -0.4881 -0.1635
H12 H 0.1472 -0.4918 -0.1020
H13 H 0.2408 -0.5671 -0.1154
C10 C 0.3428(4) 0.0200(5) 0.0180(2)
C11 C 0.3603(4) -0.0385(6) 0.0705(3)
H14 H 0.3606 0.0169 0.1020
C12 C 0.3777(4) -0.1754(5) 0.0812(3)
C13 C 0.4006(4) -0.2236(6) 0.1412(2)
C14 C 0.4778(5) -0.1335(7) 0.1724(3)
H15 H 0.4933 -0.1645 0.2107
H16 H 0.4534 -0.0441 0.1728
H17 H 0.5351 -0.1351 0.1533
C15 C 0.3095(5) -0.2153(7) 0.1696(3)
H18 H 0.2615 -0.2745 0.1510
H19 H 0.2852 -0.1258 0.1672
H20 H 0.3235 -0.2404 0.2088
C16 C 0.4374(6) -0.3601(6) 0.1440(3)
H21 H 0.4496 -0.3874 0.1830
H22 H 0.4967 -0.3643 0.1268
H23 H 0.3901 -0.4181 0.1241
C17 C 0.3398(4) 0.1621(5) 0.0151(2)
C18 C 0.4061(4) 0.2311(5) -0.0126(2)
H24 H 0.4480 0.1842 -0.0333
C19 C 0.4114(4) 0.3612(6) -0.0105(3)
H25 H 0.4595 0.4041 -0.0280
C20 C 0.3481(4) 0.4358(5) 0.0168(2)
H26 H 0.3509 0.5283 0.0166
C21 C 0.2797(4) 0.3692(5) 0.0448(2)
C22 C 0.2771(4) 0.2358(5) 0.0433(2)
H27 H 0.2312 0.1916 0.0621
C23 C 0.2103(4) 0.4480(5) 0.0721(2)
C24 C 0.1725(4) 0.5600(5) 0.0470(3)
H28 H 0.1943 0.5881 0.0133
C25 C 0.1009(4) 0.6358(5) 0.0702(3)
C26 C 0.0615(4) 0.7595(5) 0.0401(2)
C27 C -0.0400(5) 0.7369(7) 0.0162(4)
H29 H -0.0639 0.8137 -0.0051
H30 H -0.0790 0.7214 0.0465
H31 H -0.0434 0.6607 -0.0084
C28 C 0.1184(5) 0.8056(7) -0.0062(4)
H32 H 0.1151 0.7395 -0.0356
H33 H 0.1849 0.8192 0.0091
H34 H 0.0916 0.8877 -0.0217
C29 C 0.0657(7) 0.8732(6) 0.0846(4)
H35 H 0.0412 0.9537 0.0664
H36 H 0.1317 0.8864 0.1008
H37 H 0.0267 0.8498 0.1140
C30 C 0.2237(4) 0.3075(5) 0.1568(2)
C31 C 0.3223(5) 0.3000(6) 0.1716(3)
H38 H 0.3632 0.3593 0.1559
C32 C 0.3598(5) 0.2079(7) 0.2086(3)
H39 H 0.4268 0.2030 0.2178
C33 C 0.3023(5) 0.1221(7) 0.2327(3)
H40 H 0.3293 0.0595 0.2589
C34 C 0.2033(5) 0.1276(6) 0.2183(3)
H41 H 0.1631 0.0674 0.2341
C35 C 0.1634(4) 0.2236(6) 0.1801(2)
C36 C -0.0154(5) 0.1073(6) 0.1928(3)
H42 H -0.0783 0.0866 0.1723
H43 H 0.0240 0.0274 0.1935
C37 C -0.0289(6) 0.1430(7) 0.2513(3)
H44 H 0.0334 0.1674 0.2716
H45 H -0.0528 0.0660 0.2701
C38 C -0.0976(5) 0.2542(7) 0.2541(3)
H46 H -0.0677 0.3355 0.2439
H47 H -0.1148 0.2616 0.2921
H48 H -0.1550 0.2380 0.2283
loop_
_geom_bond_atom_site_label_1
_geom_bond_atom_site_label_2
_geom_bond_site_symmetry_1
_geom_bond_site_symmetry_2
S1 C1 1_555 1_555
S2 C35 1_555 1_555
O1 C12 1_555 1_555
O2 C25 1_555 1_555
N1 H1 1_555 1_555
N2 H2 1_555 1_555
C1 C2 1_555 1_555
C2 H3 1_555 1_555
C3 C2 1_555 1_555
H4 C3 1_555 1_555
C4 C3 1_555 1_555
H5 C4 1_555 1_555
C5 C4 1_555 1_555
H6 C5 1_555 1_555
C6 N1 1_555 1_555
C7 S1 1_555 1_555
H7 C7 1_555 1_555
H8 C7 1_555 1_555
C8 C7 1_555 1_555
H9 C8 1_555 1_555
H10 C8 1_555 1_555
C9 C8 1_555 1_555
H11 C9 1_555 1_555
H12 C9 1_555 1_555
H13 C9 1_555 1_555
C10 N1 1_555 1_555
C11 C10 1_555 1_555
H14 C11 1_555 1_555
C12 C11 1_555 1_555
C13 C12 1_555 1_555
C14 C13 1_555 1_555
H15 C14 1_555 1_555
H16 C14 1_555 1_555
H17 C14 1_555 1_555
C15 C13 1_555 1_555
H18 C15 1_555 1_555
H19 C15 1_555 1_555
H20 C15 1_555 1_555
C16 C13 1_555 1_555
H21 C16 1_555 1_555
H22 C16 1_555 1_555
H23 C16 1_555 1_555
C17 C10 1_555 1_555
C18 C17 1_555 1_555
H24 C18 1_555 1_555
C19 C18 1_555 1_555
H25 C19 1_555 1_555
C20 C19 1_555 1_555
H26 C20 1_555 1_555
C21 C20 1_555 1_555
C22 C17 1_555 1_555
H27 C22 1_555 1_555
C23 N2 1_555 1_555
C24 C23 1_555 1_555
H28 C24 1_555 1_555
C25 C24 1_555 1_555
C26 C25 1_555 1_555
C27 C26 1_555 1_555
H29 C27 1_555 1_555
H30 C27 1_555 1_555
H31 C27 1_555 1_555
C28 C26 1_555 1_555
H32 C28 1_555 1_555
H33 C28 1_555 1_555
H34 C28 1_555 1_555
C29 C26 1_555 1_555
H35 C29 1_555 1_555
H36 C29 1_555 1_555
H37 C29 1_555 1_555
C30 N2 1_555 1_555
C31 C30 1_555 1_555
H38 C31 1_555 1_555
C32 C31 1_555 1_555
H39 C32 1_555 1_555
C33 C32 1_555 1_555
H40 C33 1_555 1_555
C34 C33 1_555 1_555
H41 C34 1_555 1_555
C35 C30 1_555 1_555
C36 S2 1_555 1_555
H42 C36 1_555 1_555
H43 C36 1_555 1_555
C37 C36 1_555 1_555
H44 C37 1_555 1_555
H45 C37 1_555 1_555
C38 C37 1_555 1_555
H46 C38 1_555 1_555
H47 C38 1_555 1_555
H48 C38 1_555 1_555
C1 C6 1_555 1_555
C5 C6 1_555 1_555
C21 C22 1_555 1_555
C21 C23 1_555 1_555
C34 C35 1_555 1_555

#END
