
#######################################################################
#
#                 Cambridge Crystallographic Data Centre
#                                CCDC 
#
#######################################################################
#
# If this CIF has been generated from an entry in the Cambridge 
# Structural Database, then it will include bibliographic, chemical, 
# crystal, experimental, refinement or atomic coordinate data resulting 
# from the CCDC's data processing and validation procedures.
#
#######################################################################

data_CEPLER01
_chemical_formula_moiety         'C45 H27 N3 O3'
_chemical_name_systematic        
'(benzene-1,3,5-triyl)tris[(9H-carbazol-9-yl)methanone] unknown solvate'
_symmetry_cell_setting           triclinic
_symmetry_space_group_name_H-M   'P -1'
_symmetry_Int_Tables_number      2
_space_group_name_Hall           '-P 1'
loop_
_symmetry_equiv_pos_site_id
_symmetry_equiv_pos_as_xyz
1 x,y,z
2 -x,-y,-z
_cell_length_a                   7.7413(13)
_cell_length_b                   13.003(2)
_cell_length_c                   18.954(3)
_cell_angle_alpha                100.483(4)
_cell_angle_beta                 92.490(5)
_cell_angle_gamma                92.856(5)
_cell_volume                     1871.06
_exptl_crystal_colour            colorless
_exptl_crystal_description       block
_cell_formula_units_Z            2
loop_
_atom_site_label
_atom_site_type_symbol
_atom_site_fract_x
_atom_site_fract_y
_atom_site_fract_z
O1 O 0.1650(2) 0.38210(12) 0.90358(8)
O2 O 0.1836(2) 0.47731(12) 0.60105(8)
O3 O 0.1359(2) 0.02510(12) 0.65180(9)
N1 N 0.3974(2) 0.48994(13) 0.89074(8)
N2 N 0.3655(2) 0.01703(13) 0.72931(9)
N3 N 0.3915(2) 0.37879(13) 0.54684(9)
C1 C 0.2779(3) 0.24200(16) 0.77633(11)
H1 H 0.2737 0.2054 0.8141
C2 C 0.2856(2) 0.35108(16) 0.79041(10)
C3 C 0.2917(3) 0.35085(15) 0.66354(10)
C4 C 0.2763(3) 0.18791(15) 0.70644(11)
C5 C 0.2830(3) 0.24197(15) 0.64964(11)
H2 H 0.2817 0.2055 0.6026
C6 C 0.2910(2) 0.40551(15) 0.73371(10)
H3 H 0.2940 0.4783 0.7427
C7 C 0.2773(3) 0.40677(16) 0.86634(11)
C8 C 0.5385(3) 0.04797(16) 0.75532(11)
C9 C 0.2848(3) 0.41057(16) 0.60258(10)
C10 C 0.3219(3) -0.08066(15) 0.74922(11)
C11 C 0.5675(3) 0.50520(16) 0.86708(11)
C12 C 0.2529(3) 0.07017(16) 0.69103(11)
C13 C 0.3742(3) 0.57243(16) 0.94946(10)
C14 C 0.3510(3) 0.38689(16) 0.47371(11)
C15 C 0.6448(3) 0.59655(16) 0.90861(11)
C16 C 0.6002(3) -0.02707(17) 0.79316(11)
C17 C 0.5567(3) 0.33551(16) 0.55039(11)
C18 C 0.5226(3) 0.63948(16) 0.96009(11)
C19 C 0.4626(3) -0.10760(16) 0.78972(11)
C20 C 0.1684(3) -0.14201(17) 0.73647(12)
H4 H 0.0757 -0.1237 0.7094
C21 C 0.2312(3) 0.59172(17) 0.99054(11)
H5 H 0.1324 0.5466 0.9832
C22 C 0.6154(3) 0.31335(17) 0.48094(12)
C23 C 0.6589(3) 0.44052(19) 0.81730(11)
H6 H 0.6087 0.3775 0.7917
C24 C 0.2064(3) 0.42242(18) 0.44350(12)
H7 H 0.1184 0.4504 0.4715
C25 C 0.6601(3) 0.32291(19) 0.60910(12)
H8 H 0.6240 0.3421 0.6556
C26 C 0.8275(3) 0.4731(2) 0.80705(13)
H9 H 0.8904 0.4322 0.7730
C27 C 0.7687(3) -0.0158(2) 0.82313(13)
H10 H 0.8100 -0.0651 0.8486
C28 C 0.4852(3) 0.34453(17) 0.43273(11)
C29 C 0.6460(3) 0.13153(18) 0.74459(13)
H11 H 0.6073 0.1794 0.7174
C30 C 0.2429(4) 0.68128(19) 1.04284(12)
H12 H 0.1490 0.6970 1.0710
C31 C 0.9037(3) 0.5651(2) 0.84642(15)
H13 H 1.0170 0.5854 0.8384
C32 C 0.5305(3) 0.72862(18) 1.01382(13)
H14 H 0.6292 0.7738 1.0218
C33 C 0.1595(4) -0.23241(19) 0.76609(13)
H15 H 0.0584 -0.2756 0.7585
C34 C 0.1972(4) 0.4148(2) 0.36930(12)
H16 H 0.1007 0.4378 0.3471
C35 C 0.4493(4) -0.19844(18) 0.81916(13)
H17 H 0.5412 -0.2170 0.8466
C36 C 0.8143(3) 0.6273(2) 0.89748(14)
H18 H 0.8666 0.6890 0.9241
C37 C 0.8722(3) 0.0680(2) 0.81480(15)
H19 H 0.9844 0.0766 0.8355
C38 C 0.3898(4) 0.74830(19) 1.05468(13)
H20 H 0.3933 0.8074 1.0908
C39 C 0.8123(3) 0.1417(2) 0.77539(14)
H21 H 0.8857 0.1982 0.7699
C40 C 0.4733(4) 0.3384(2) 0.35851(12)
H22 H 0.5613 0.3109 0.3303
C41 C 0.7757(3) 0.2718(2) 0.46969(14)
H23 H 0.8150 0.2553 0.4235
C42 C 0.8181(3) 0.2811(2) 0.59666(14)
H24 H 0.8881 0.2697 0.6353
C43 C 0.2973(4) -0.25989(19) 0.80670(14)
H25 H 0.2868 -0.3208 0.8258
C44 C 0.3294(4) 0.3735(2) 0.32775(13)
H26 H 0.3202 0.3696 0.2782
C45 C 0.8750(3) 0.2556(2) 0.52784(15)
H27 H 0.9821 0.2270 0.5209
loop_
_geom_bond_atom_site_label_1
_geom_bond_atom_site_label_2
_geom_bond_site_symmetry_1
_geom_bond_site_symmetry_2
O1 C7 1_555 1_555
O2 C9 1_555 1_555
O3 C12 1_555 1_555
N1 C7 1_555 1_555
N2 C8 1_555 1_555
N3 C9 1_555 1_555
C1 H1 1_555 1_555
C2 C1 1_555 1_555
C3 C5 1_555 1_555
C4 C1 1_555 1_555
C5 C4 1_555 1_555
H2 C5 1_555 1_555
C6 C2 1_555 1_555
H3 C6 1_555 1_555
C7 C2 1_555 1_555
C8 C16 1_555 1_555
C9 C3 1_555 1_555
C10 N2 1_555 1_555
C11 N1 1_555 1_555
C12 N2 1_555 1_555
C13 N1 1_555 1_555
C14 N3 1_555 1_555
C15 C11 1_555 1_555
C16 C19 1_555 1_555
C17 N3 1_555 1_555
C18 C13 1_555 1_555
C19 C10 1_555 1_555
C20 C10 1_555 1_555
H4 C20 1_555 1_555
C21 C13 1_555 1_555
H5 C21 1_555 1_555
C22 C17 1_555 1_555
C23 C11 1_555 1_555
H6 C23 1_555 1_555
C24 C14 1_555 1_555
H7 C24 1_555 1_555
C25 C17 1_555 1_555
H8 C25 1_555 1_555
C26 C23 1_555 1_555
H9 C26 1_555 1_555
C27 C16 1_555 1_555
H10 C27 1_555 1_555
C28 C14 1_555 1_555
C29 C8 1_555 1_555
H11 C29 1_555 1_555
C30 C21 1_555 1_555
H12 C30 1_555 1_555
C31 C26 1_555 1_555
H13 C31 1_555 1_555
C32 C18 1_555 1_555
H14 C32 1_555 1_555
C33 C20 1_555 1_555
H15 C33 1_555 1_555
C34 C24 1_555 1_555
H16 C34 1_555 1_555
C35 C19 1_555 1_555
H17 C35 1_555 1_555
C36 C15 1_555 1_555
H18 C36 1_555 1_555
C37 C27 1_555 1_555
H19 C37 1_555 1_555
C38 C30 1_555 1_555
H20 C38 1_555 1_555
C39 C29 1_555 1_555
H21 C39 1_555 1_555
C40 C28 1_555 1_555
H22 C40 1_555 1_555
C41 C22 1_555 1_555
H23 C41 1_555 1_555
C42 C25 1_555 1_555
H24 C42 1_555 1_555
C43 C33 1_555 1_555
H25 C43 1_555 1_555
C44 C34 1_555 1_555
H26 C44 1_555 1_555
C45 C41 1_555 1_555
H27 C45 1_555 1_555
C3 C6 1_555 1_555
C4 C12 1_555 1_555
C15 C18 1_555 1_555
C22 C28 1_555 1_555
C31 C36 1_555 1_555
C32 C38 1_555 1_555
C35 C43 1_555 1_555
C37 C39 1_555 1_555
C40 C44 1_555 1_555
C42 C45 1_555 1_555

#END
