
#######################################################################
#
#                 Cambridge Crystallographic Data Centre
#                                CCDC 
#
#######################################################################
#
# If this CIF has been generated from an entry in the Cambridge 
# Structural Database, then it will include bibliographic, chemical, 
# crystal, experimental, refinement or atomic coordinate data resulting 
# from the CCDC's data processing and validation procedures.
#
#######################################################################

data_CEPMOC
_chemical_formula_moiety         '2(C13 H9 N1),C6 H5 Br1 O1'
_chemical_name_systematic        '4-bromophenol bis(acridine)'
_symmetry_cell_setting           monoclinic
_symmetry_space_group_name_H-M   'P 21'
_symmetry_Int_Tables_number      4
_space_group_name_Hall           'P 2yb'
loop_
_symmetry_equiv_pos_site_id
_symmetry_equiv_pos_as_xyz
1 x,y,z
2 -x,1/2+y,-z
_cell_length_a                   13.0192(2)
_cell_length_b                   14.6232(3)
_cell_length_c                   14.2369(2)
_cell_angle_alpha                90
_cell_angle_beta                 115.2880(10)
_cell_angle_gamma                90
_cell_volume                     2450.72
_exptl_crystal_colour            colorless
_exptl_crystal_description       block
_cell_formula_units_Z            4
loop_
_atom_site_label
_atom_site_type_symbol
_atom_site_fract_x
_atom_site_fract_y
_atom_site_fract_z
Br1 Br 1.12466(4) 0.40597(4) 0.57540(4)
O1 O 0.8314(3) 0.6983(3) 0.6368(3)
H1 H 0.7926 0.6778 0.6646
C1 C 0.8941(4) 0.6294(4) 0.6224(4)
C2 C 0.8852(4) 0.5384(4) 0.6468(4)
H2 H 0.8330 0.5219 0.6743
C3 C 0.9515(4) 0.4721(4) 0.6313(4)
H3 H 0.9440 0.4100 0.6469
C4 C 1.0283(4) 0.4958(4) 0.5934(3)
C5 C 1.0383(4) 0.5861(4) 0.5688(4)
H4 H 1.0912 0.6023 0.5419
C6 C 0.9714(4) 0.6521(4) 0.5834(4)
H5 H 0.9785 0.7140 0.5667
Br2 Br 1.02528(4) 0.20916(4) 0.67136(4)
O2 O 0.7411(3) -0.0610(2) 0.7770(3)
H6 H 0.7076 -0.0352 0.8069
C7 C 0.8046(4) 0.0011(4) 0.7532(4)
C8 C 0.7985(4) 0.0944(4) 0.7690(4)
H7 H 0.7489 0.1166 0.7970
C9 C 0.8643(4) 0.1547(4) 0.7440(4)
H8 H 0.8601 0.2184 0.7549
C10 C 0.9355(4) 0.1228(4) 0.7033(4)
C11 C 0.9416(4) 0.0305(4) 0.6860(4)
H9 H 0.9907 0.0088 0.6572
C12 C 0.8755(4) -0.0303(4) 0.7110(4)
H10 H 0.8790 -0.0938 0.6989
N1 N 0.7662(4) 0.3801(3) 0.7513(4)
C13 C 0.5990(5) 0.3830(4) 0.5913(5)
H11 H 0.6408 0.4115 0.5586
C14 C 0.4866(6) 0.3653(4) 0.5348(5)
H12 H 0.4510 0.3821 0.4636
C15 C 0.4219(5) 0.3220(4) 0.5807(5)
H13 H 0.3433 0.3107 0.5406
C16 C 0.4724(5) 0.2969(4) 0.6819(5)
H14 H 0.4288 0.2668 0.7117
C17 C 0.6458(5) 0.2922(4) 0.8491(5)
H15 H 0.607(4) 0.260(4) 0.884(4)
C18 C 0.8220(5) 0.2913(4) 1.0126(5)
H16 H 0.7845 0.2612 1.0483
C19 C 0.9342(5) 0.3128(4) 1.0647(5)
H17 H 0.9740 0.2986 1.1365
C20 C 0.9910(5) 0.3562(4) 1.0123(5)
H18 H 1.0695 0.3703 1.0489
C21 C 0.9356(5) 0.3781(4) 0.9101(5)
H19 H 0.9756 0.4075 0.8762
C22 C 0.6554(5) 0.3596(3) 0.6991(4)
C23 C 0.5908(5) 0.3147(3) 0.7452(4)
C24 C 0.7605(5) 0.3131(3) 0.9060(4)
C25 C 0.8167(5) 0.3573(4) 0.8527(5)
N2 N 0.6169(3) 0.0342(3) 0.8610(3)
C26 C 0.4621(4) 0.0310(3) 0.6919(4)
H20 H 0.5099 0.0037 0.6647
C27 C 0.3514(5) 0.0493(4) 0.6281(4)
H21 H 0.3231 0.0353 0.5562
C28 C 0.2786(4) 0.0880(4) 0.6658(4)
H22 H 0.2014 0.0988 0.6197
C29 C 0.3168(4) 0.1105(3) 0.7681(4)
H23 H 0.2665 0.1371 0.7929
C30 C 0.4779(4) 0.1175(3) 0.9425(4)
H24 H 0.427(3) 0.148(3) 0.969(3)
C31 C 0.6435(4) 0.1266(3) 1.1129(4)
H25 H 0.5991 0.1548 1.1432
C32 C 0.7556(5) 0.1110(4) 1.1720(4)
H26 H 0.7893 0.1284 1.2431
C33 C 0.8217(5) 0.0691(4) 1.1280(4)
H27 H 0.9000 0.0585 1.1702
C34 C 0.7765(4) 0.0432(3) 1.0264(4)
H28 H 0.8230 0.0150 0.9983
C35 C 0.5061(4) 0.0530(3) 0.7998(4)
C36 C 0.4326(4) 0.0939(3) 0.8377(4)
C37 C 0.5915(4) 0.1013(3) 1.0064(4)
C38 C 0.6585(4) 0.0589(3) 0.9623(4)
N3 N 0.6957(3) 0.6290(3) 0.7224(3)
C39 C 0.8589(4) 0.6247(4) 0.8857(4)
H29 H 0.9024 0.6549 0.8558
C40 C 0.9077(5) 0.6013(4) 0.9880(4)
H30 H 0.9852 0.6160 1.0292
C41 C 0.8457(5) 0.5558(4) 1.0340(4)
H31 H 0.8820 0.5403 1.1056
C42 C 0.7352(5) 0.5339(4) 0.9780(4)
H32 H 0.6949 0.5019 1.0099
C43 C 0.5654(5) 0.5412(3) 0.8093(4)
H33 H 0.526(4) 0.515(3) 0.837(3)
C44 C 0.3980(4) 0.5518(4) 0.6385(4)
H34 H 0.3502 0.5235 0.6651
C45 C 0.3547(5) 0.5777(4) 0.5373(4)
H35 H 0.2767 0.5670 0.4935
C46 C 0.4235(5) 0.6199(4) 0.4965(4)
H36 H 0.3919 0.6373 0.4254
C47 C 0.5354(4) 0.6361(3) 0.5580(4)
H37 H 0.5811 0.6650 0.5295
C48 C 0.7419(4) 0.6039(3) 0.8235(4)
C49 C 0.6792(4) 0.5587(3) 0.8711(4)
C50 C 0.5146(4) 0.5671(3) 0.7049(4)
C51 C 0.5844(4) 0.6102(3) 0.6642(4)
N4 N 0.5937(3) 0.3673(3) 0.0870(3)
C52 C 0.4199(5) 0.3609(3) -0.0670(4)
H38 H 0.4582 0.3836 -0.1060
C53 C 0.3072(5) 0.3413(4) -0.1160(4)
H39 H 0.2678 0.3491 -0.1890
C54 C 0.2480(5) 0.3094(4) -0.0592(4)
H40 H 0.1691 0.2967 -0.0942
C55 C 0.3028(4) 0.2970(4) 0.0443(4)
H41 H 0.2617 0.2760 0.0814
C56 C 0.4822(5) 0.3016(4) 0.2047(4)
H42 H 0.446(4) 0.285(3) 0.246(4)
C57 C 0.6663(5) 0.3020(4) 0.3598(4)
H43 H 0.6325 0.2789 0.4023
C58 C 0.7804(6) 0.3194(4) 0.4017(5)
H44 H 0.8257 0.3076 0.4733
C59 C 0.8310(5) 0.3542(4) 0.3405(5)
H45 H 0.9103 0.3665 0.3714
C60 C 0.7694(5) 0.3710(4) 0.2375(5)
H46 H 0.8055 0.3953 0.1973
C61 C 0.4813(4) 0.3479(3) 0.0422(4)
C62 C 0.4214(4) 0.3149(3) 0.0990(4)
C63 C 0.5983(5) 0.3186(3) 0.2527(4)
C64 C 0.6509(4) 0.3522(3) 0.1902(4)
loop_
_geom_bond_atom_site_label_1
_geom_bond_atom_site_label_2
_geom_bond_site_symmetry_1
_geom_bond_site_symmetry_2
Br1 C4 1_555 1_555
O1 H1 1_555 1_555
C1 O1 1_555 1_555
C2 C1 1_555 1_555
H2 C2 1_555 1_555
C3 C2 1_555 1_555
H3 C3 1_555 1_555
C4 C3 1_555 1_555
C5 C4 1_555 1_555
H4 C5 1_555 1_555
C6 C1 1_555 1_555
H5 C6 1_555 1_555
Br2 C10 1_555 1_555
O2 H6 1_555 1_555
C7 O2 1_555 1_555
C8 C7 1_555 1_555
H7 C8 1_555 1_555
C9 C8 1_555 1_555
H8 C9 1_555 1_555
C10 C9 1_555 1_555
C11 C10 1_555 1_555
H9 C11 1_555 1_555
C12 C7 1_555 1_555
H10 C12 1_555 1_555
N1 C22 1_555 1_555
C13 H11 1_555 1_555
C14 C13 1_555 1_555
H12 C14 1_555 1_555
C15 C14 1_555 1_555
H13 C15 1_555 1_555
C16 C15 1_555 1_555
H14 C16 1_555 1_555
C17 H15 1_555 1_555
C18 H16 1_555 1_555
C19 C18 1_555 1_555
H17 C19 1_555 1_555
C20 C19 1_555 1_555
H18 C20 1_555 1_555
C21 C20 1_555 1_555
H19 C21 1_555 1_555
C22 C13 1_555 1_555
C23 C16 1_555 1_555
C24 C17 1_555 1_555
C25 N1 1_555 1_555
N2 C35 1_555 1_555
C26 H20 1_555 1_555
C27 C26 1_555 1_555
H21 C27 1_555 1_555
C28 C27 1_555 1_555
H22 C28 1_555 1_555
C29 C28 1_555 1_555
H23 C29 1_555 1_555
C30 H24 1_555 1_555
C31 H25 1_555 1_555
C32 C31 1_555 1_555
H26 C32 1_555 1_555
C33 C32 1_555 1_555
H27 C33 1_555 1_555
C34 C33 1_555 1_555
H28 C34 1_555 1_555
C35 C26 1_555 1_555
C36 C29 1_555 1_555
C37 C30 1_555 1_555
C38 N2 1_555 1_555
N3 C48 1_555 1_555
C39 H29 1_555 1_555
C40 C39 1_555 1_555
H30 C40 1_555 1_555
C41 C40 1_555 1_555
H31 C41 1_555 1_555
C42 C41 1_555 1_555
H32 C42 1_555 1_555
C43 H33 1_555 1_555
C44 H34 1_555 1_555
C45 C44 1_555 1_555
H35 C45 1_555 1_555
C46 C45 1_555 1_555
H36 C46 1_555 1_555
C47 C46 1_555 1_555
H37 C47 1_555 1_555
C48 C39 1_555 1_555
C49 C42 1_555 1_555
C50 C43 1_555 1_555
C51 N3 1_555 1_555
N4 C61 1_555 1_555
C52 H38 1_555 1_555
C53 C52 1_555 1_555
H39 C53 1_555 1_555
C54 C53 1_555 1_555
H40 C54 1_555 1_555
C55 C54 1_555 1_555
H41 C55 1_555 1_555
C56 H42 1_555 1_555
C57 H43 1_555 1_555
C58 C57 1_555 1_555
H44 C58 1_555 1_555
C59 C58 1_555 1_555
H45 C59 1_555 1_555
C60 C59 1_555 1_555
H46 C60 1_555 1_555
C61 C52 1_555 1_555
C62 C55 1_555 1_555
C63 C56 1_555 1_555
C64 N4 1_555 1_555
C5 C6 1_555 1_555
C11 C12 1_555 1_555
C17 C23 1_555 1_555
C18 C24 1_555 1_555
C21 C25 1_555 1_555
C22 C23 1_555 1_555
C24 C25 1_555 1_555
C30 C36 1_555 1_555
C31 C37 1_555 1_555
C34 C38 1_555 1_555
C35 C36 1_555 1_555
C37 C38 1_555 1_555
C43 C49 1_555 1_555
C44 C50 1_555 1_555
C47 C51 1_555 1_555
C48 C49 1_555 1_555
C50 C51 1_555 1_555
C56 C62 1_555 1_555
C57 C63 1_555 1_555
C60 C64 1_555 1_555
C61 C62 1_555 1_555
C63 C64 1_555 1_555

#END
