
#######################################################################
#
#                 Cambridge Crystallographic Data Centre
#                                CCDC 
#
#######################################################################
#
# If this CIF has been generated from an entry in the Cambridge 
# Structural Database, then it will include bibliographic, chemical, 
# crystal, experimental, refinement or atomic coordinate data resulting 
# from the CCDC's data processing and validation procedures.
#
#######################################################################

data_CEPMOA
_chemical_formula_moiety         'C20 H17 N5 O2'
_chemical_name_systematic        
2,4-Dihydro-4-((5-hydroxy-3-methyl-1-phenyl-1H-pyrazol-4-yl)imino)-5-methyl-2-phenyl-3H-pyrazol-3-one
_symmetry_cell_setting           triclinic
_symmetry_space_group_name_H-M   'P -1'
_symmetry_Int_Tables_number      2
_space_group_name_Hall           '-P 1'
loop_
_symmetry_equiv_pos_site_id
_symmetry_equiv_pos_as_xyz
1 x,y,z
2 -x,-y,-z
_cell_length_a                   9.7844(13)
_cell_length_b                   9.9517(12)
_cell_length_c                   18.630(2)
_cell_angle_alpha                80.677(3)
_cell_angle_beta                 84.281(3)
_cell_angle_gamma                88.120(3)
_cell_volume                     1780.9
_exptl_crystal_colour            red
_exptl_crystal_description       needle
_chemical_melting_point          183-184deg.C
_cell_formula_units_Z            4
loop_
_atom_site_label
_atom_site_type_symbol
_atom_site_fract_x
_atom_site_fract_y
_atom_site_fract_z
C1 C 0.5229(3) 0.5204(3) 0.28720(15)
C2 C 0.5367(3) 0.5421(3) 0.20877(14)
C3 C 0.4402(3) 0.4495(3) 0.19074(15)
C4 C 0.4130(3) 0.4312(3) 0.11568(15)
H1 H 0.3173 0.4132 0.1151
H2 H 0.4673 0.3560 0.1015
H3 H 0.4367 0.5126 0.0821
N1 N 0.3755(2) 0.3797(2) 0.24875(12)
N2 N 0.4277(2) 0.4241(2) 0.30845(11)
O1 O 0.5819(2) 0.57557(19) 0.33382(10)
C5 C 0.3777(3) 0.3645(3) 0.38111(15)
C6 C 0.3625(3) 0.4429(3) 0.43638(15)
H4 H 0.3819 0.5353 0.4265
C7 C 0.3178(3) 0.3816(3) 0.50684(16)
H5 H 0.3085 0.4329 0.5446
C8 C 0.2875(3) 0.2466(4) 0.52090(17)
H6 H 0.2577 0.2062 0.5682
C9 C 0.3006(3) 0.1702(3) 0.46575(18)
H7 H 0.2784 0.0785 0.4757
C10 C 0.3470(3) 0.2287(3) 0.39476(15)
H8 H 0.3570 0.1766 0.3573
N3 N 0.6094(2) 0.6259(2) 0.15715(11)
C11 C 0.7776(3) 0.7604(3) 0.21361(15)
C12 C 0.7034(3) 0.7170(3) 0.15807(15)
C13 C 0.7581(3) 0.8009(3) 0.09166(15)
C14 C 0.7138(4) 0.7982(3) 0.01756(16)
H9 H 0.7448 0.8788 -0.0149
H10 H 0.6154 0.7950 0.0206
H11 H 0.7528 0.7192 -0.0008
N4 N 0.8492(3) 0.8855(2) 0.10245(12)
N5 N 0.8622(2) 0.8596(2) 0.17890(12)
O2 O 0.7753(2) 0.7163(2) 0.28183(10)
H12 H 0.690(4) 0.641(4) 0.305(2)
C15 C 0.9529(3) 0.9442(3) 0.20694(17)
C16 C 0.9614(3) 0.9359(3) 0.28084(18)
H13 H 0.9106 0.8718 0.3139
C17 C 1.0464(4) 1.0238(3) 0.30576(19)
H14 H 1.0505 1.0201 0.3557
C18 C 1.1241(3) 1.1161(3) 0.2573(2)
H15 H 1.1819 1.1740 0.2741
C19 C 1.1158(3) 1.1219(3) 0.1847(2)
H16 H 1.1684 1.1847 0.1519
C20 C 1.0310(3) 1.0366(3) 0.15820(17)
H17 H 1.0269 1.0417 0.1082
C21 C 0.0200(3) 0.5022(3) 0.29294(15)
C22 C 0.0285(3) 0.5276(3) 0.21428(15)
C23 C -0.0715(3) 0.4375(3) 0.19708(15)
C24 C -0.1030(3) 0.4204(3) 0.12233(15)
H18 H -0.0323 0.3654 0.1013
H19 H -0.1069 0.5081 0.0922
H20 H -0.1899 0.3767 0.1254
N6 N -0.1345(2) 0.3672(2) 0.25548(13)
N7 N -0.0754(2) 0.4057(2) 0.31545(12)
O3 O 0.0820(2) 0.5559(2) 0.33824(10)
C25 C -0.1232(3) 0.3435(3) 0.38757(15)
C26 C -0.0412(3) 0.3372(3) 0.44403(15)
H21 H 0.0466 0.3733 0.4358
C27 C -0.0917(4) 0.2762(3) 0.51321(16)
H22 H -0.0371 0.2722 0.5516
C28 C -0.2187(3) 0.2220(3) 0.52652(17)
H23 H -0.2509 0.1817 0.5735
C29 C -0.2993(3) 0.2273(3) 0.46994(17)
H24 H -0.3863 0.1897 0.4785
C30 C -0.2519(3) 0.2882(3) 0.40038(16)
H25 H -0.3070 0.2917 0.3622
N8 N 0.0973(2) 0.6120(2) 0.16224(11)
C31 C 0.2647(3) 0.7529(3) 0.21596(16)
C32 C 0.1912(3) 0.7057(3) 0.16108(14)
C33 C 0.2451(3) 0.7862(3) 0.09359(15)
C34 C 0.2020(4) 0.7788(3) 0.01982(16)
H26 H 0.2439 0.8509 -0.0151
H27 H 0.1038 0.7882 0.0211
H28 H 0.2304 0.6926 0.0060
N9 N 0.3379(3) 0.8713(2) 0.10247(12)
N10 N 0.3490(2) 0.8500(2) 0.17885(12)
O4 O 0.2600(2) 0.71528(19) 0.28469(10)
H29 H 0.174(4) 0.633(4) 0.3100(17)
C35 C 0.4450(3) 0.9321(3) 0.20512(16)
C36 C 0.4702(3) 0.9146(3) 0.27787(16)
H30 H 0.4238 0.8484 0.3117
C37 C 0.5644(3) 0.9958(3) 0.30002(18)
H31 H 0.5812 0.9837 0.3489
C38 C 0.6334(3) 1.0937(3) 0.25102(19)
H32 H 0.6971 1.1477 0.2663
C39 C 0.6076(4) 1.1111(3) 0.1794(2)
H33 H 0.6542 1.1775 0.1458
C40 C 0.5136(3) 1.0319(3) 0.15622(17)
H34 H 0.4963 1.0459 0.1074
loop_
_geom_bond_atom_site_label_1
_geom_bond_atom_site_label_2
_geom_bond_site_symmetry_1
_geom_bond_site_symmetry_2
C1 C2 1_555 1_555
C2 C3 1_555 1_555
C3 C4 1_555 1_555
C4 H1 1_555 1_555
H2 C4 1_555 1_555
H3 C4 1_555 1_555
N1 C3 1_555 1_555
N2 C1 1_555 1_555
O1 C1 1_555 1_555
C5 N2 1_555 1_555
C6 C5 1_555 1_555
H4 C6 1_555 1_555
C7 C6 1_555 1_555
H5 C7 1_555 1_555
C8 C7 1_555 1_555
H6 C8 1_555 1_555
C9 C8 1_555 1_555
H7 C9 1_555 1_555
C10 C5 1_555 1_555
H8 C10 1_555 1_555
N3 C2 1_555 1_555
C11 C12 1_555 1_555
C12 N3 1_555 1_555
C13 C12 1_555 1_555
C14 C13 1_555 1_555
H9 C14 1_555 1_555
H10 C14 1_555 1_555
H11 C14 1_555 1_555
N4 C13 1_555 1_555
N5 C11 1_555 1_555
O2 C11 1_555 1_555
H12 O2 1_555 1_555
C15 N5 1_555 1_555
C16 C15 1_555 1_555
H13 C16 1_555 1_555
C17 C16 1_555 1_555
H14 C17 1_555 1_555
C18 C17 1_555 1_555
H15 C18 1_555 1_555
C19 C18 1_555 1_555
H16 C19 1_555 1_555
C20 C15 1_555 1_555
H17 C20 1_555 1_555
C21 C22 1_555 1_555
C22 C23 1_555 1_555
C23 C24 1_555 1_555
C24 H18 1_555 1_555
H19 C24 1_555 1_555
H20 C24 1_555 1_555
N6 C23 1_555 1_555
N7 C21 1_555 1_555
O3 C21 1_555 1_555
C25 N7 1_555 1_555
C26 C25 1_555 1_555
H21 C26 1_555 1_555
C27 C26 1_555 1_555
H22 C27 1_555 1_555
C28 C27 1_555 1_555
H23 C28 1_555 1_555
C29 C28 1_555 1_555
H24 C29 1_555 1_555
C30 C25 1_555 1_555
H25 C30 1_555 1_555
N8 C22 1_555 1_555
C31 C32 1_555 1_555
C32 N8 1_555 1_555
C33 C32 1_555 1_555
C34 C33 1_555 1_555
H26 C34 1_555 1_555
H27 C34 1_555 1_555
H28 C34 1_555 1_555
N9 C33 1_555 1_555
N10 C31 1_555 1_555
O4 C31 1_555 1_555
H29 O4 1_555 1_555
C35 N10 1_555 1_555
C36 C35 1_555 1_555
H30 C36 1_555 1_555
C37 C36 1_555 1_555
H31 C37 1_555 1_555
C38 C37 1_555 1_555
H32 C38 1_555 1_555
C39 C38 1_555 1_555
H33 C39 1_555 1_555
C40 C35 1_555 1_555
H34 C40 1_555 1_555
N1 N2 1_555 1_555
C9 C10 1_555 1_555
N4 N5 1_555 1_555
C19 C20 1_555 1_555
N6 N7 1_555 1_555
C29 C30 1_555 1_555
N9 N10 1_555 1_555
C39 C40 1_555 1_555

#END
