
#######################################################################
#
#                 Cambridge Crystallographic Data Centre
#                                CCDC 
#
#######################################################################
#
# If this CIF has been generated from an entry in the Cambridge 
# Structural Database, then it will include bibliographic, chemical, 
# crystal, experimental, refinement or atomic coordinate data resulting 
# from the CCDC's data processing and validation procedures.
#
#######################################################################

data_CEPPUJ
_chemical_formula_moiety         'C23 H30 N2 O3'
_chemical_name_systematic        
((R,S)-3,3-Dimethyl-5-hydroxy-2-isobutylamino-3,4-dihydro-2H-1,4-benzoxazin-6-yl)-(2,6-dimethylphenyl)methanone
_symmetry_cell_setting           monoclinic
_symmetry_space_group_name_H-M   'C 2/c'
_symmetry_Int_Tables_number      15
_space_group_name_Hall           '-C 2yn'
loop_
_symmetry_equiv_pos_site_id
_symmetry_equiv_pos_as_xyz
1 x,y,z
2 1/2+x,1/2+y,z
3 -x,y,1/2-z
4 1/2-x,1/2+y,1/2-z
5 -x,-y,-z
6 1/2-x,1/2-y,-z
7 x,-y,1/2+z
8 1/2+x,1/2-y,1/2+z
_cell_length_a                   31.003(13)
_cell_length_b                   7.393(4)
_cell_length_c                   20.004(8)
_cell_angle_alpha                90
_cell_angle_beta                 112.19(3)
_cell_angle_gamma                90
_cell_volume                     4245.44
_exptl_crystal_colour            'bright yellow'
_exptl_crystal_description       plate
_chemical_melting_point          154-156deg.C
_cell_formula_units_Z            8
_exptl_crystal_recrystallization_method 'petroleum ether'
loop_
_atom_site_label
_atom_site_type_symbol
_atom_site_fract_x
_atom_site_fract_y
_atom_site_fract_z
O1 O 0.41096(5) 0.6063(2) 0.40406(8)
C1 C 0.37829(8) 0.7561(3) 0.36908(12)
H1 H 0.3542 0.7577 0.3896
C2 C 0.40444(8) 0.9361(3) 0.38799(12)
N1 N 0.43971(6) 0.9264(2) 0.35572(10)
H2 H 0.4562 1.0473 0.3507
C3 C 0.46702(8) 0.7694(3) 0.37128(11)
C4 C 0.50905(8) 0.7655(3) 0.36091(11)
C5 C 0.53707(8) 0.6096(3) 0.37628(11)
C6 C 0.52154(8) 0.4563(3) 0.40269(11)
H3 H 0.5399 0.3528 0.4146
C7 C 0.47996(8) 0.4579(3) 0.41102(11)
H4 H 0.4700 0.3550 0.4278
C8 C 0.45219(7) 0.6122(3) 0.39458(11)
O2 O 0.52147(6) 0.9213(2) 0.33744(9)
H5 H 0.5572 0.8957 0.3326
O3 O 0.59274(7) 0.7368(2) 0.33652(11)
C9 C 0.58074(8) 0.6076(3) 0.36556(12)
N2 N 0.35579(7) 0.7339(3) 0.29356(10)
H6 H 0.3782 0.7416 0.2581
C10 C 0.32388(9) 0.5804(4) 0.26861(15)
H7 H 0.3024 0.5812 0.2934
H8 H 0.3416 0.4688 0.2810
C11 C 0.29720(11) 0.5847(5) 0.19011(18)
H9 H 0.3202 0.5719 0.1676
C12 C 0.27257(14) 0.7544(7) 0.1625(2)
H10 H 0.2938 0.8539 0.1794
H11 H 0.2475 0.7680 0.1792
H12 H 0.2602 0.7524 0.1106
C13 C 0.26498(13) 0.4208(6) 0.1655(2)
H13 H 0.2419 0.4257 0.1867
H14 H 0.2829 0.3119 0.1806
H15 H 0.2499 0.4218 0.1138
C14 C 0.37201(8) 1.0934(3) 0.35520(14)
H16 H 0.3590 1.0810 0.3036
H17 H 0.3891 1.2047 0.3679
H18 H 0.3474 1.0942 0.3733
C15 C 0.42686(9) 0.9572(4) 0.47079(12)
H19 H 0.4420 1.0728 0.4826
H20 H 0.4494 0.8629 0.4907
H21 H 0.4032 0.9491 0.4907
C16 C 0.61291(8) 0.4488(3) 0.39130(12)
C17 C 0.64856(9) 0.4583(4) 0.45935(13)
C18 C 0.67898(10) 0.3146(5) 0.48231(17)
H22 H 0.7032 0.3194 0.5273
C19 C 0.67395(12) 0.1643(5) 0.4395(2)
H23 H 0.6945 0.0677 0.4558
C20 C 0.63829(11) 0.1569(4) 0.37221(19)
H24 H 0.6350 0.0547 0.3436
C21 C 0.60756(9) 0.2985(3) 0.34687(14)
C22 C 0.56945(11) 0.2923(4) 0.27325(15)
H25 H 0.5448 0.3730 0.2718
H26 H 0.5575 0.1714 0.2631
H27 H 0.5816 0.3287 0.2378
C23 C 0.65359(12) 0.6198(5) 0.50687(16)
H31 H 0.6791 0.6010 0.5520
H32 H 0.6254 0.6368 0.5154
H33 H 0.6595 0.7253 0.4836
H28? H 0.5778 0.2090 0.2433
H29? H 0.5652 0.4107 0.2520
H30? H 0.5410 0.2534 0.2773
loop_
_geom_bond_atom_site_label_1
_geom_bond_atom_site_label_2
_geom_bond_site_symmetry_1
_geom_bond_site_symmetry_2
O1 C1 1_555 1_555
C1 H1 1_555 1_555
C2 C1 1_555 1_555
N1 C2 1_555 1_555
H2 N1 1_555 1_555
C3 N1 1_555 1_555
C4 C3 1_555 1_555
C5 C4 1_555 1_555
C6 C5 1_555 1_555
H3 C6 1_555 1_555
C7 C6 1_555 1_555
H4 C7 1_555 1_555
C8 O1 1_555 1_555
O2 C4 1_555 1_555
H5 O2 1_555 1_555
O3 C9 1_555 1_555
C9 C5 1_555 1_555
N2 C1 1_555 1_555
H6 N2 1_555 1_555
C10 N2 1_555 1_555
H7 C10 1_555 1_555
H8 C10 1_555 1_555
C11 C10 1_555 1_555
H9 C11 1_555 1_555
C12 C11 1_555 1_555
H10 C12 1_555 1_555
H11 C12 1_555 1_555
H12 C12 1_555 1_555
C13 C11 1_555 1_555
H13 C13 1_555 1_555
H14 C13 1_555 1_555
H15 C13 1_555 1_555
C14 C2 1_555 1_555
H16 C14 1_555 1_555
H17 C14 1_555 1_555
H18 C14 1_555 1_555
C15 C2 1_555 1_555
H19 C15 1_555 1_555
H20 C15 1_555 1_555
H21 C15 1_555 1_555
C16 C9 1_555 1_555
C17 C16 1_555 1_555
C18 C17 1_555 1_555
H22 C18 1_555 1_555
C19 C18 1_555 1_555
H23 C19 1_555 1_555
C20 C19 1_555 1_555
H24 C20 1_555 1_555
C21 C16 1_555 1_555
C22 C21 1_555 1_555
H25 C22 1_555 1_555
H26 C22 1_555 1_555
H27 C22 1_555 1_555
C23 C17 1_555 1_555
H31 C23 1_555 1_555
H32 C23 1_555 1_555
H33 C23 1_555 1_555
C3 C8 1_555 1_555
C7 C8 1_555 1_555
C20 C21 1_555 1_555

#END
