
#######################################################################
#
#                 Cambridge Crystallographic Data Centre
#                                CCDC 
#
#######################################################################
#
# If this CIF has been generated from an entry in the Cambridge 
# Structural Database, then it will include bibliographic, chemical, 
# crystal, experimental, refinement or atomic coordinate data resulting 
# from the CCDC's data processing and validation procedures.
#
#######################################################################

data_CEPQEU
_chemical_formula_moiety         'C17 H23 N3 O4'
_chemical_name_systematic        
(R,S)-2-Morpholino-3-spiro-1'-cyclohexyl-6-nitro-3,4-dihydro-2H-1,4-benzoxazine
_symmetry_cell_setting           triclinic
_symmetry_space_group_name_H-M   'P -1'
_symmetry_Int_Tables_number      2
_space_group_name_Hall           '-P 1'
loop_
_symmetry_equiv_pos_site_id
_symmetry_equiv_pos_as_xyz
1 x,y,z
2 -x,-y,-z
_cell_length_a                   9.373(6)
_cell_length_b                   9.802(5)
_cell_length_c                   10.391(8)
_cell_angle_alpha                71.79(4)
_cell_angle_beta                 70.18(4)
_cell_angle_gamma                72.29(4)
_cell_volume                     831.876
_exptl_crystal_colour            'pale orange'
_exptl_crystal_description       prism
_chemical_melting_point          210-212deg.C
_cell_formula_units_Z            2
_exptl_crystal_recrystallization_method 'diethyl ether/chloroform'
loop_
_atom_site_label
_atom_site_type_symbol
_atom_site_fract_x
_atom_site_fract_y
_atom_site_fract_z
O1 O 0.06157(12) 0.24506(14) 0.47478(12)
C1 C 0.02979(17) 0.16800(17) 0.62368(17)
H1 H 0.0754 0.0631 0.6273
C2 C 0.11330(16) 0.21735(17) 0.70035(16)
N1 N 0.27933(15) 0.17559(16) 0.62624(15)
H2 H 0.342(2) 0.181(2) 0.665(2)
C3 C 0.32258(17) 0.22105(17) 0.48119(17)
C4 C 0.47518(19) 0.22877(19) 0.40403(19)
H3 H 0.5527 0.2032 0.4497
C5 C 0.5103(2) 0.2748(2) 0.2588(2)
C6 C 0.4004(2) 0.3142(2) 0.1855(2)
H4 H 0.4267 0.3470 0.0880
C7 C 0.2497(2) 0.30338(19) 0.26141(18)
H5 H 0.1733 0.3288 0.2145
C8 C 0.21143(18) 0.25522(17) 0.40636(17)
N2 N -0.13472(14) 0.18294(14) 0.68017(15)
C9 C -0.2353(2) 0.32624(19) 0.6338(2)
H6 H -0.2301 0.3420 0.5356
H7 H -0.2001 0.4050 0.6436
C10 C -0.3999(2) 0.3272(2) 0.7225(3)
H8 H -0.4048 0.3148 0.8202
H9 H -0.4666 0.4216 0.6930
O2 O -0.45473(13) 0.21290(14) 0.71045(16)
C11 C -0.3571(2) 0.0741(2) 0.7502(3)
H10 H -0.3943 -0.0023 0.7385
H11 H -0.3621 0.0550 0.8489
C12 C -0.1913(2) 0.0681(2) 0.6638(2)
H12 H -0.1272 -0.0276 0.6942
H13 H -0.1847 0.0820 0.5655
C13 C 0.06230(19) 0.38132(18) 0.6994(2)
H14 H 0.0794 0.4386 0.6029
H15 H -0.0481 0.4051 0.7452
C14 C 0.1514(2) 0.4234(2) 0.7745(2)
H16 H 0.2611 0.4067 0.7248
H17 H 0.1142 0.5272 0.7742
C15 C 0.1302(3) 0.3334(3) 0.9241(2)
H18 H 0.0228 0.3616 0.9767
H19 H 0.1951 0.3557 0.9669
C16 C 0.1714(2) 0.1686(3) 0.9345(2)
H20 H 0.1425 0.1172 1.0326
H21 H 0.2829 0.1367 0.8981
C17 C 0.0884(2) 0.1275(2) 0.85219(18)
H22 H 0.1268 0.0237 0.8527
H23 H -0.0221 0.1436 0.8988
N3 N 0.6712(2) 0.2831(2) 0.1810(2)
O3 O 0.77076(18) 0.2381(2) 0.2455(2)
O4 O 0.7007(2) 0.3337(3) 0.0540(2)
loop_
_geom_bond_atom_site_label_1
_geom_bond_atom_site_label_2
_geom_bond_site_symmetry_1
_geom_bond_site_symmetry_2
O1 C1 1_555 1_555
C1 H1 1_555 1_555
C2 C1 1_555 1_555
N1 C2 1_555 1_555
H2 N1 1_555 1_555
C3 N1 1_555 1_555
C4 C3 1_555 1_555
H3 C4 1_555 1_555
C5 C4 1_555 1_555
C6 C5 1_555 1_555
H4 C6 1_555 1_555
C7 C6 1_555 1_555
H5 C7 1_555 1_555
C8 O1 1_555 1_555
N2 C1 1_555 1_555
C9 N2 1_555 1_555
H6 C9 1_555 1_555
H7 C9 1_555 1_555
C10 C9 1_555 1_555
H8 C10 1_555 1_555
H9 C10 1_555 1_555
O2 C10 1_555 1_555
C11 O2 1_555 1_555
H10 C11 1_555 1_555
H11 C11 1_555 1_555
C12 N2 1_555 1_555
H12 C12 1_555 1_555
H13 C12 1_555 1_555
C13 C2 1_555 1_555
H14 C13 1_555 1_555
H15 C13 1_555 1_555
C14 C13 1_555 1_555
H16 C14 1_555 1_555
H17 C14 1_555 1_555
C15 C14 1_555 1_555
H18 C15 1_555 1_555
H19 C15 1_555 1_555
C16 C15 1_555 1_555
H20 C16 1_555 1_555
H21 C16 1_555 1_555
C17 C2 1_555 1_555
H22 C17 1_555 1_555
H23 C17 1_555 1_555
N3 C5 1_555 1_555
O3 N3 1_555 1_555
O4 N3 1_555 1_555
C3 C8 1_555 1_555
C7 C8 1_555 1_555
C11 C12 1_555 1_555
C16 C17 1_555 1_555

#END
