
#######################################################################
#
#                 Cambridge Crystallographic Data Centre
#                                CCDC 
#
#######################################################################
#
# If this CIF has been generated from an entry in the Cambridge 
# Structural Database, then it will include bibliographic, chemical, 
# crystal, experimental, refinement or atomic coordinate data resulting 
# from the CCDC's data processing and validation procedures.
#
#######################################################################

data_CEPWUP
_chemical_formula_moiety         'C38 H28'
_chemical_name_systematic        (3.3)(2,7)Pyrenophane
_symmetry_cell_setting           monoclinic
_symmetry_space_group_name_H-M   'P 21/c'
_symmetry_Int_Tables_number      14
_space_group_name_Hall           '-P 2ybc'
loop_
_symmetry_equiv_pos_site_id
_symmetry_equiv_pos_as_xyz
1 x,y,z
2 -x,1/2+y,1/2-z
3 -x,-y,-z
4 x,1/2-y,1/2+z
_cell_length_a                   10.052(2)
_cell_length_b                   10.137(2)
_cell_length_c                   11.926(2)
_cell_angle_alpha                90
_cell_angle_beta                 91.05(2)
_cell_angle_gamma                90
_cell_volume                     1215.02
_exptl_crystal_colour            yellow
_chemical_melting_point          'above 355deg.C'
_cell_formula_units_Z            2
loop_
_atom_site_label
_atom_site_type_symbol
_atom_site_fract_x
_atom_site_fract_y
_atom_site_fract_z
C1 C 0.36030 0.18860 0.44890
C2 C 0.23770 0.24980 0.46270
C3 C 0.22990 0.35280 0.53910
C4 C 0.34180 0.40150 0.59650
C5 C 0.46720 0.34170 0.57810
C6 C 0.33550 0.51380 0.66920
C7 C 0.44640 0.56520 0.71720
C8 C 0.57520 0.50930 0.69850
C9 C 0.58400 0.39570 0.62960
C10 C 0.69120 0.56770 0.73960
C11 C 0.81630 0.51970 0.71310
C12 C 0.82430 0.40360 0.65110
C13 C 0.71110 0.34000 0.60820
C14 C 0.71530 0.22380 0.53860
C15 C 0.60470 0.17380 0.48970
C16 C 0.47610 0.23160 0.50500
C17 C 0.93800 0.60110 0.74110
C18 C 0.98240 0.68980 0.64490
C19 C 0.11650 0.20410 0.39470
H1 H 0.36500 0.11500 0.39800
H2 H 0.14400 0.39800 0.55100
H3 H 0.24600 0.55600 0.68100
H4 H 0.44100 0.64200 0.76200
H5 H 0.68900 0.64600 0.78200
H6 H 0.91600 0.36700 0.63300
H7 H 0.80600 0.18300 0.52800
H8 H 0.61100 0.10000 0.44200
H9 H 0.92200 0.65500 0.81100
H10 H 1.01400 0.54500 0.76300
H11 H 1.06500 0.73300 0.67000
H12 H 1.00900 0.63100 0.57900
H13 H 0.14900 0.15600 0.32600
H14 H 0.06700 0.13900 0.44200
C19B C 0.88350 0.79590 0.60530
C18B C 0.01760 0.31020 0.35510
C2B C 0.76230 0.75020 0.53730
H13B H 0.85100 0.84400 0.67400
H14B H 0.93300 0.86100 0.55800
C17B C 0.06200 0.39890 0.25890
H11B H -0.06500 0.26700 0.33000
H12B H -0.00900 0.36900 0.42100
C1B C 0.63970 0.81140 0.55110
C3B C 0.77010 0.64720 0.46090
C11B C 0.18370 0.48030 0.28690
H9B H 0.07800 0.34500 0.18900
H10B H -0.01400 0.45500 0.23700
C16B C 0.52390 0.76840 0.49500
H1B H 0.63500 0.88500 0.60200
C4B C 0.65820 0.59850 0.40350
H2B H 0.85600 0.60200 0.44900
C10B C 0.30880 0.43230 0.26040
C12B C 0.17570 0.59640 0.34890
C5B C 0.53280 0.65830 0.42190
C15B C 0.39530 0.82620 0.51030
C6B C 0.66450 0.48620 0.33080
C8B C 0.42480 0.49070 0.30150
H5B H 0.31100 0.35400 0.21800
C13B C 0.28890 0.66000 0.39180
H6B H 0.08400 0.63300 0.36700
C9B C 0.41600 0.60430 0.37040
C14B C 0.28470 0.77620 0.46140
H8B H 0.38900 0.90000 0.55800
C7B C 0.55360 0.43480 0.28280
H3B H 0.75400 0.44400 0.31900
H7B H 0.19400 0.81700 0.47200
H4B H 0.55900 0.35800 0.23800
loop_
_geom_bond_atom_site_label_1
_geom_bond_atom_site_label_2
_geom_bond_site_symmetry_1
_geom_bond_site_symmetry_2
C1 C2 1_555 1_555
C2 C3 1_555 1_555
C3 C4 1_555 1_555
C4 C5 1_555 1_555
C5 C9 1_555 1_555
C6 C4 1_555 1_555
C7 C6 1_555 1_555
C8 C7 1_555 1_555
C9 C8 1_555 1_555
C10 C8 1_555 1_555
C11 C10 1_555 1_555
C12 C11 1_555 1_555
C13 C9 1_555 1_555
C14 C13 1_555 1_555
C15 C14 1_555 1_555
C16 C1 1_555 1_555
C17 C11 1_555 1_555
C18 C17 1_555 1_555
C19 C2 1_555 1_555
H1 C1 1_555 1_555
H2 C3 1_555 1_555
H3 C6 1_555 1_555
H4 C7 1_555 1_555
H5 C10 1_555 1_555
H6 C12 1_555 1_555
H7 C14 1_555 1_555
H8 C15 1_555 1_555
H9 C17 1_555 1_555
H10 C17 1_555 1_555
H11 C18 1_555 1_555
H12 C18 1_555 1_555
H13 C19 1_555 1_555
H14 C19 1_555 1_555
C19B C18 1_555 1_555
C18B C19 1_555 1_555
C2B C19B 1_555 1_555
H13B C19B 1_555 1_555
H14B C19B 1_555 1_555
C17B C18B 1_555 1_555
H11B C18B 1_555 1_555
H12B C18B 1_555 1_555
C1B C2B 1_555 1_555
C3B C2B 1_555 1_555
C11B C17B 1_555 1_555
H9B C17B 1_555 1_555
H10B C17B 1_555 1_555
C16B C1B 1_555 1_555
H1B C1B 1_555 1_555
C4B C3B 1_555 1_555
H2B C3B 1_555 1_555
C10B C11B 1_555 1_555
C12B C11B 1_555 1_555
C5B C16B 1_555 1_555
C15B C16B 1_555 1_555
C6B C4B 1_555 1_555
C8B C10B 1_555 1_555
H5B C10B 1_555 1_555
C13B C12B 1_555 1_555
H6B C12B 1_555 1_555
C9B C5B 1_555 1_555
C14B C15B 1_555 1_555
H8B C15B 1_555 1_555
C7B C6B 1_555 1_555
H3B C6B 1_555 1_555
H7B C14B 1_555 1_555
H4B C7B 1_555 1_555
C5 C16 1_555 1_555
C12 C13 1_555 1_555
C15 C16 1_555 1_555
C4B C5B 1_555 1_555
C8B C9B 1_555 1_555
C8B C7B 1_555 1_555
C13B C9B 1_555 1_555
C13B C14B 1_555 1_555

#END
