
#######################################################################
#
#                 Cambridge Crystallographic Data Centre
#                                CCDC 
#
#######################################################################
#
# If this CIF has been generated from an entry in the Cambridge 
# Structural Database, then it will include bibliographic, chemical, 
# crystal, experimental, refinement or atomic coordinate data resulting 
# from the CCDC's data processing and validation procedures.
#
#######################################################################

data_CEPXOK
_chemical_formula_moiety         'C42 H30 F6,2(C1 H2 Cl2)'
_chemical_name_systematic        
'6,12,18,24,30,36-Hexafluoro-3,9,15,21,27,33-hexamethyl(0.~6~)metacyclophane dichloromethane solvate'
_symmetry_cell_setting           cubic
_symmetry_space_group_name_H-M   'P a 3'
_symmetry_Int_Tables_number      205
_space_group_name_Hall           '-P 2ac 2ab 3'
loop_
_symmetry_equiv_pos_site_id
_symmetry_equiv_pos_as_xyz
1 x,y,z
2 z,x,y
3 y,z,x
4 1/2+x,y,1/2-z
5 1/2+z,x,1/2-y
6 1/2+y,z,1/2-x
7 1/2-x,1/2+y,z
8 1/2-z,1/2+x,y
9 1/2-y,1/2+z,x
10 -x,1/2+y,1/2-z
11 -z,1/2+x,1/2-y
12 -y,1/2+z,1/2-x
13 -x,-y,-z
14 -z,-x,-y
15 -y,-z,-x
16 1/2-x,-y,1/2+z
17 1/2-z,-x,1/2+y
18 1/2-y,-z,1/2+x
19 1/2+x,1/2-y,-z
20 1/2+z,1/2-x,-y
21 1/2+y,1/2-z,-x
22 x,1/2-y,1/2+z
23 z,1/2-x,1/2+y
24 y,1/2-z,1/2+x
_cell_length_a                   15.621(4)
_cell_length_b                   15.621(4)
_cell_length_c                   15.621(4)
_cell_angle_alpha                90
_cell_angle_beta                 90
_cell_angle_gamma                90
_cell_volume                     3811.77
_chemical_melting_point          'above 360deg.C'
_cell_formula_units_Z            4
loop_
_atom_site_label
_atom_site_type_symbol
_atom_site_fract_x
_atom_site_fract_y
_atom_site_fract_z
C1 C 0.29860 0.11620 0.43000
C2 C 0.21900 0.15010 0.44880
C3 C 0.20540 0.20250 0.51940
C4 C 0.11870 0.24170 0.53560
C5 C 0.27400 0.21680 0.57540
C6 C 0.31460 0.05870 0.35510
C7 C 0.36610 0.13880 0.48350
F1 F 0.44650 0.11620 0.46070
H1 H 0.16600 0.13500 0.40700
H2 H 0.11800 0.30800 0.55400
H3 H 0.08100 0.20500 0.58000
H4 H 0.09200 0.23500 0.47200
H5 H 0.26300 0.25300 0.63300
C6V C 0.35510 0.18540 0.55870
C5H C 0.28320 0.07540 0.27400
C7H C 0.36120 -0.01650 0.36610
C1V C 0.43000 0.20140 0.61620
C3H C 0.29750 0.01940 0.20540
H5H H 0.24700 0.13300 0.26300
C1H C 0.38380 -0.07000 0.29860
F1H F 0.38380 -0.03930 0.44650
C2V C 0.44880 0.28100 0.65010
C7V C 0.48350 0.13390 0.63880
C2H C 0.34990 -0.05120 0.21900
C4H C 0.25830 0.03560 0.11870
C6H C 0.44130 -0.14490 0.31460
C3V C 0.51940 0.29460 0.70250
H1V H 0.40700 0.33400 0.63500
C6T C 0.55870 0.14490 0.68540
F1V F 0.46070 0.05350 0.61620
H1H H 0.36500 -0.09300 0.16600
H2H H 0.19200 0.05400 0.11800
H3H H 0.29500 0.08000 0.08100
H4H H 0.26500 -0.02800 0.09200
C5J C 0.42460 -0.22600 0.28320
C7J C 0.51650 -0.13390 0.36120
C4V C 0.53560 0.38130 0.74170
C5V C 0.57540 0.22600 0.71680
C1T C 0.61620 0.07000 0.70140
C3J C 0.48060 -0.29460 0.29750
H5J H 0.36700 -0.23700 0.24700
C1J C 0.57000 -0.20140 0.38380
F1J F 0.53930 -0.05350 0.38380
H2V H 0.55400 0.38200 0.80800
H3V H 0.58000 0.41900 0.70500
H4V H 0.47200 0.40800 0.73500
H5V H 0.63300 0.23700 0.75300
C2T C 0.65010 0.05120 0.78100
C7T C 0.63880 0.01650 0.63390
C2J C 0.55120 -0.28100 0.34990
C4J C 0.46440 -0.38130 0.25830
C6J C 0.64490 -0.18540 0.44130
C3T C 0.70250 -0.01940 0.79460
H1T H 0.63500 0.09300 0.83400
C6L C 0.68540 -0.05870 0.64490
F1T F 0.61620 0.03930 0.55350
H1J H 0.59300 -0.33400 0.36500
H2J H 0.44600 -0.38200 0.19200
H3J H 0.42000 -0.41900 0.29500
H4J H 0.52800 -0.40800 0.26500
C5L C 0.72600 -0.21680 0.42460
C7L C 0.63390 -0.13880 0.51650
C4T C 0.74170 -0.03560 0.88130
C5T C 0.71680 -0.07540 0.72600
C1L C 0.70140 -0.11620 0.57000
C3L C 0.79460 -0.20250 0.48060
H5L H 0.73700 -0.25300 0.36700
F1L F 0.55350 -0.11620 0.53930
H2T H 0.80800 -0.05400 0.88200
H3T H 0.70500 -0.08000 0.91900
H4T H 0.73500 0.02800 0.90800
H5T H 0.75300 -0.13300 0.73700
C2L C 0.78100 -0.15010 0.55120
C4L C 0.88130 -0.24170 0.46440
H1L H 0.83400 -0.13500 0.59300
H2L H 0.88200 -0.30800 0.44600
H3L H 0.91900 -0.20500 0.42000
H4L H 0.90800 -0.23500 0.52800
loop_
_geom_bond_atom_site_label_1
_geom_bond_atom_site_label_2
_geom_bond_site_symmetry_1
_geom_bond_site_symmetry_2
C1 C2 1_555 1_555
C2 C3 1_555 1_555
C3 C4 1_555 1_555
C4 H2 1_555 1_555
C5 C3 1_555 1_555
C6 C1 1_555 1_555
C7 C1 1_555 1_555
F1 C7 1_555 1_555
H1 C2 1_555 1_555
H3 C4 1_555 1_555
H4 C4 1_555 1_555
H5 C5 1_555 1_555
C6V C5 1_555 1_555
C5H C6 1_555 1_555
C7H C6 1_555 1_555
C1V C6V 1_555 1_555
C3H C5H 1_555 1_555
H5H C5H 1_555 1_555
C1H C7H 1_555 1_555
F1H C7H 1_555 1_555
C2V C1V 1_555 1_555
C7V C1V 1_555 1_555
C2H C3H 1_555 1_555
C4H C3H 1_555 1_555
C6H C1H 1_555 1_555
C3V C2V 1_555 1_555
H1V C2V 1_555 1_555
C6T C7V 1_555 1_555
F1V C7V 1_555 1_555
H1H C2H 1_555 1_555
H2H C4H 1_555 1_555
H3H C4H 1_555 1_555
H4H C4H 1_555 1_555
C5J C6H 1_555 1_555
C7J C6H 1_555 1_555
C4V C3V 1_555 1_555
C5V C3V 1_555 1_555
C1T C6T 1_555 1_555
C3J C5J 1_555 1_555
H5J C5J 1_555 1_555
C1J C7J 1_555 1_555
F1J C7J 1_555 1_555
H2V C4V 1_555 1_555
H3V C4V 1_555 1_555
H4V C4V 1_555 1_555
H5V C5V 1_555 1_555
C2T C1T 1_555 1_555
C7T C1T 1_555 1_555
C2J C3J 1_555 1_555
C4J C3J 1_555 1_555
C6J C1J 1_555 1_555
C3T C2T 1_555 1_555
H1T C2T 1_555 1_555
C6L C7T 1_555 1_555
F1T C7T 1_555 1_555
H1J C2J 1_555 1_555
H2J C4J 1_555 1_555
H3J C4J 1_555 1_555
H4J C4J 1_555 1_555
C5L C6J 1_555 1_555
C7L C6J 1_555 1_555
C4T C3T 1_555 1_555
C5T C3T 1_555 1_555
C1L C6L 1_555 1_555
C3L C5L 1_555 1_555
H5L C5L 1_555 1_555
F1L C7L 1_555 1_555
H2T C4T 1_555 1_555
H3T C4T 1_555 1_555
H4T C4T 1_555 1_555
H5T C5T 1_555 1_555
C2L C1L 1_555 1_555
C4L C3L 1_555 1_555
H1L C2L 1_555 1_555
H2L C4L 1_555 1_555
H3L C4L 1_555 1_555
H4L C4L 1_555 1_555
C7 C6V 1_555 1_555
C1H C2H 1_555 1_555
C6T C5V 1_555 1_555
C1J C2J 1_555 1_555
C6L C5T 1_555 1_555
C7L C1L 1_555 1_555
C3L C2L 1_555 1_555

#END
