
#######################################################################
#
#                 Cambridge Crystallographic Data Centre
#                                CCDC 
#
#######################################################################
#
# If this CIF has been generated from an entry in the Cambridge 
# Structural Database, then it will include bibliographic, chemical, 
# crystal, experimental, refinement or atomic coordinate data resulting 
# from the CCDC's data processing and validation procedures.
#
#######################################################################

data_CEPZUU
_chemical_formula_moiety         'C52 H70 Li2 N4 O4'
_chemical_name_systematic        
(\m~2~-(N-(2-((2,6-Dimethylphenyl)amino)benzylidene)-N'-(2-((2,6-dimethylphenyl)amino)benzylidene)cyclohexane-1,2-diaminato)-tetrakis(tetrahydrofuran)-di-lithium
_symmetry_cell_setting           triclinic
_symmetry_space_group_name_H-M   'P -1'
_symmetry_Int_Tables_number      2
_space_group_name_Hall           '-P 1'
loop_
_symmetry_equiv_pos_site_id
_symmetry_equiv_pos_as_xyz
1 x,y,z
2 -x,-y,-z
_cell_length_a                   9.6598(14)
_cell_length_b                   16.151(3)
_cell_length_c                   17.149(3)
_cell_angle_alpha                65.550(2)
_cell_angle_beta                 88.613(3)
_cell_angle_gamma                78.037(3)
_cell_volume                     2376.98
_cell_formula_units_Z            2
loop_
_atom_site_label
_atom_site_type_symbol
_atom_site_fract_x
_atom_site_fract_y
_atom_site_fract_z
C1 C 1.1688(4) 0.6584(2) 0.5782(2)
C2 C 1.2960(4) 0.6757(3) 0.5347(2)
H1 H 1.3373 0.7217 0.5374
C3 C 1.3584(4) 0.6267(3) 0.4896(2)
H2 H 1.4397 0.6412 0.4617
C4 C 1.3041(4) 0.5562(3) 0.4842(2)
H3 H 1.3461 0.5242 0.4524
C5 C 1.1866(4) 0.5352(3) 0.5275(2)
H4 H 1.1506 0.4871 0.5252
C6 C 1.1168(4) 0.5820(2) 0.5753(2)
C7 C 1.0038(4) 0.5433(2) 0.6243(2)
H5 H 0.9909 0.4885 0.6226
C8 C 0.8120(3) 0.5191(2) 0.7119(2)
H6 H 0.8298 0.4628 0.7013
C9 C 0.6653(4) 0.5770(3) 0.6722(2)
H7 H 0.6502 0.6354 0.6781
H8 H 0.6602 0.5914 0.6114
C10 C 0.5487(4) 0.5264(3) 0.7145(2)
H9 H 0.4568 0.5658 0.6885
H10 H 0.5595 0.4699 0.7056
C11 C 0.5563(4) 0.5020(3) 0.8101(2)
H11 H 0.4836 0.4680 0.8369
H12 H 0.5385 0.5588 0.8189
C12 C 0.7018(3) 0.4428(2) 0.8518(2)
H13 H 0.7149 0.3834 0.8480
H14 H 0.7057 0.4306 0.9122
C13 C 0.8221(3) 0.4904(2) 0.8093(2)
H15 H 0.8155 0.5462 0.8198
C14 C 1.0388(4) 0.4515(2) 0.8886(2)
H16 H 1.0034 0.5088 0.8901
C15 C 1.1784(3) 0.4022(2) 0.9320(2)
C16 C 1.2375(4) 0.4444(3) 0.9762(2)
H17 H 1.1826 0.4972 0.9797
C17 C 1.3731(4) 0.4111(3) 1.0146(2)
H18 H 1.4093 0.4401 1.0438
C18 C 1.4538(4) 0.3328(3) 1.0082(2)
H19 H 1.5454 0.3091 1.0341
C19 C 1.4033(4) 0.2890(2) 0.9651(2)
H20 H 1.4626 0.2378 0.9611
C20 C 1.2610(3) 0.3199(2) 0.9258(2)
C21 C 1.1725(3) 0.7704(2) 0.6337(2)
C22 C 1.2336(4) 0.7444(3) 0.7165(2)
C23 C 1.2991(4) 0.8052(3) 0.7320(3)
H21 H 1.3413 0.7872 0.7864
C24 C 1.3033(4) 0.8917(3) 0.6687(3)
H22 H 1.3485 0.9315 0.6800
C25 C 1.2390(4) 0.9188(3) 0.5877(3)
H23 H 1.2392 0.9779 0.5453
C26 C 1.1746(4) 0.8592(3) 0.5691(2)
C27 C 1.1033(4) 0.8906(3) 0.4815(2)
H24 H 1.1637 0.8637 0.4489
H25 H 1.0857 0.9573 0.4523
H26 H 1.0150 0.8709 0.4872
C28 C 1.2213(4) 0.6532(3) 0.7881(2)
H27 H 1.1243 0.6557 0.8024
H28 H 1.2796 0.6419 0.8375
H29 H 1.2522 0.6039 0.7700
C29 C 1.3064(4) 0.2105(3) 0.8661(2)
C30 C 1.3256(4) 0.1136(3) 0.9165(3)
C31 C 1.4164(4) 0.0532(3) 0.8903(3)
H30 H 1.4299 -0.0106 0.9232
C32 C 1.4880(4) 0.0856(4) 0.8163(3)
H31 H 1.5488 0.0437 0.8000
C33 C 1.4688(4) 0.1793(3) 0.7675(3)
H32 H 1.5171 0.2007 0.7179
C34 C 1.3787(4) 0.2432(3) 0.7904(3)
C35 C 1.2471(4) 0.0794(3) 0.9965(3)
H33 H 1.2821 0.0136 1.0283
H34 H 1.1477 0.0916 0.9811
H35 H 1.2614 0.1111 1.0312
C36 C 1.3545(5) 0.3455(3) 0.7351(3)
H36 H 1.4077 0.3560 0.6852
H37 H 1.3849 0.3762 0.7670
H38 H 1.2553 0.3701 0.7178
C37 C 0.7861(5) 0.7687(3) 0.4798(3)
H39 H 0.8837 0.7699 0.4657
H40 H 0.7683 0.7088 0.4880
C38 C 0.6921(7) 0.8418(5) 0.4136(4)
H41 H 0.6682 0.8215 0.3706
H42 H 0.7348 0.8953 0.3859
C39 C 0.5627(5) 0.8659(4) 0.4562(3)
H43 H 0.4913 0.8328 0.4532
H44 H 0.5225 0.9323 0.4296
C40 C 0.6159(4) 0.8353(3) 0.5478(3)
H45 H 0.6128 0.8888 0.5604
H46 H 0.5584 0.7959 0.5871
C41 C 0.8573(4) 0.8639(3) 0.6959(3)
H47 H 0.8515 0.8913 0.6336
H48 H 0.9485 0.8664 0.7163
C42 C 0.7383(5) 0.9153(3) 0.7282(3)
H49 H 0.7722 0.9570 0.7470
H50 H 0.6627 0.9514 0.6836
C43 C 0.6880(5) 0.8423(3) 0.8008(3)
H51 H 0.7220 0.8393 0.8548
H52 H 0.5851 0.8554 0.7979
C44 C 0.7434(6) 0.7548(3) 0.7943(3)
H53 H 0.7910 0.7086 0.8487
H54 H 0.6663 0.7320 0.7806
C45 C 1.0361(5) 0.2304(4) 0.7176(4)
H55 H 1.1331 0.2140 0.7414
H56 H 1.0294 0.2784 0.6595
C46 C 0.9933(6) 0.1480(4) 0.7179(4)
H57 H 1.0493 0.0911 0.7616
H58 H 1.0045 0.1456 0.6624
C47 C 0.8412(5) 0.1605(4) 0.7372(4)
H59 H 0.8263 0.1084 0.7888
H60 H 0.7817 0.1656 0.6899
C48 C 0.8085(4) 0.2491(3) 0.7494(3)
H61 H 0.7624 0.3010 0.6974
H62 H 0.7470 0.2436 0.7960
C49 C 0.8229(5) 0.1530(3) 0.9819(3)
H63 H 0.8683 0.1050 0.9638
H64 H 0.7287 0.1803 0.9531
C50 C 0.8138(5) 0.1120(4) 1.0778(3)
H65 H 0.7216 0.1361 1.0930
H66 H 0.8300 0.0446 1.1013
C51 C 0.9282(5) 0.1416(3) 1.1104(3)
H67 H 1.0183 0.0975 1.1207
H68 H 0.9041 0.1489 1.1627
C52 C 0.9321(4) 0.2337(3) 1.0371(3)
H69 H 0.8605 0.2832 1.0414
H70 H 1.0244 0.2486 1.0372
Li1 Li 0.9081(6) 0.7039(4) 0.6563(4)
Li2 Li 1.0050(6) 0.2957(4) 0.8578(4)
N1 N 1.1024(3) 0.70806(19) 0.62025(18)
N2 N 0.9184(3) 0.57409(19) 0.67000(18)
N3 N 0.9587(3) 0.42572(18) 0.84839(17)
N4 N 1.2084(3) 0.27532(19) 0.88661(19)
O1 O 0.7598(3) 0.78419(19) 0.55573(16)
O2 O 0.8403(3) 0.76966(17) 0.72903(16)
O3 O 0.9416(3) 0.2620(2) 0.76898(19)
O4 O 0.9044(3) 0.22274(17) 0.96085(16)
loop_
_geom_bond_atom_site_label_1
_geom_bond_atom_site_label_2
_geom_bond_site_symmetry_1
_geom_bond_site_symmetry_2
C1 C2 1_555 1_555
C2 H1 1_555 1_555
C3 C2 1_555 1_555
H2 C3 1_555 1_555
C4 C3 1_555 1_555
H3 C4 1_555 1_555
C5 C4 1_555 1_555
H4 C5 1_555 1_555
C6 C1 1_555 1_555
C7 C6 1_555 1_555
H5 C7 1_555 1_555
C8 H6 1_555 1_555
C9 C8 1_555 1_555
H7 C9 1_555 1_555
H8 C9 1_555 1_555
C10 C9 1_555 1_555
H9 C10 1_555 1_555
H10 C10 1_555 1_555
C11 C10 1_555 1_555
H11 C11 1_555 1_555
H12 C11 1_555 1_555
C12 C11 1_555 1_555
H13 C12 1_555 1_555
H14 C12 1_555 1_555
C13 C8 1_555 1_555
H15 C13 1_555 1_555
C14 H16 1_555 1_555
C15 C14 1_555 1_555
C16 C15 1_555 1_555
H17 C16 1_555 1_555
C17 C16 1_555 1_555
H18 C17 1_555 1_555
C18 C17 1_555 1_555
H19 C18 1_555 1_555
C19 C18 1_555 1_555
H20 C19 1_555 1_555
C20 C15 1_555 1_555
C21 C22 1_555 1_555
C22 C23 1_555 1_555
C23 H21 1_555 1_555
C24 C23 1_555 1_555
H22 C24 1_555 1_555
C25 C24 1_555 1_555
H23 C25 1_555 1_555
C26 C21 1_555 1_555
C27 C26 1_555 1_555
H24 C27 1_555 1_555
H25 C27 1_555 1_555
H26 C27 1_555 1_555
C28 C22 1_555 1_555
H27 C28 1_555 1_555
H28 C28 1_555 1_555
H29 C28 1_555 1_555
C29 C30 1_555 1_555
C30 C31 1_555 1_555
C31 H30 1_555 1_555
C32 C31 1_555 1_555
H31 C32 1_555 1_555
C33 C32 1_555 1_555
H32 C33 1_555 1_555
C34 C29 1_555 1_555
C35 C30 1_555 1_555
H33 C35 1_555 1_555
H34 C35 1_555 1_555
H35 C35 1_555 1_555
C36 C34 1_555 1_555
H36 C36 1_555 1_555
H37 C36 1_555 1_555
H38 C36 1_555 1_555
C37 H39 1_555 1_555
H40 C37 1_555 1_555
C38 C37 1_555 1_555
H41 C38 1_555 1_555
H42 C38 1_555 1_555
C39 C38 1_555 1_555
H43 C39 1_555 1_555
H44 C39 1_555 1_555
C40 C39 1_555 1_555
H45 C40 1_555 1_555
H46 C40 1_555 1_555
C41 H47 1_555 1_555
H48 C41 1_555 1_555
C42 C41 1_555 1_555
H49 C42 1_555 1_555
H50 C42 1_555 1_555
C43 C42 1_555 1_555
H51 C43 1_555 1_555
H52 C43 1_555 1_555
C44 C43 1_555 1_555
H53 C44 1_555 1_555
H54 C44 1_555 1_555
C45 H55 1_555 1_555
H56 C45 1_555 1_555
C46 C45 1_555 1_555
H57 C46 1_555 1_555
H58 C46 1_555 1_555
C47 C46 1_555 1_555
H59 C47 1_555 1_555
H60 C47 1_555 1_555
C48 C47 1_555 1_555
H61 C48 1_555 1_555
H62 C48 1_555 1_555
C49 H63 1_555 1_555
H64 C49 1_555 1_555
C50 C49 1_555 1_555
H65 C50 1_555 1_555
H66 C50 1_555 1_555
C51 C50 1_555 1_555
H67 C51 1_555 1_555
H68 C51 1_555 1_555
C52 C51 1_555 1_555
H69 C52 1_555 1_555
H70 C52 1_555 1_555
Li1 N1 1_555 1_555
Li2 N3 1_555 1_555
N1 C1 1_555 1_555
N2 C7 1_555 1_555
N3 C13 1_555 1_555
N4 C20 1_555 1_555
O1 C37 1_555 1_555
O2 C41 1_555 1_555
O3 C45 1_555 1_555
O4 C49 1_555 1_555
C5 C6 1_555 1_555
C8 N2 1_555 1_555
C12 C13 1_555 1_555
C14 N3 1_555 1_555
C19 C20 1_555 1_555
C21 N1 1_555 1_555
C25 C26 1_555 1_555
C29 N4 1_555 1_555
C33 C34 1_555 1_555
C40 O1 1_555 1_555
C44 O2 1_555 1_555
C48 O3 1_555 1_555
C52 O4 1_555 1_555
Li1 N2 1_555 1_555
Li1 O1 1_555 1_555
Li1 O2 1_555 1_555
Li2 N4 1_555 1_555
Li2 O3 1_555 1_555
Li2 O4 1_555 1_555

#END
