
#######################################################################
#
#                 Cambridge Crystallographic Data Centre
#                                CCDC 
#
#######################################################################
#
# If this CIF has been generated from an entry in the Cambridge 
# Structural Database, then it will include bibliographic, chemical, 
# crystal, experimental, refinement or atomic coordinate data resulting 
# from the CCDC's data processing and validation procedures.
#
#######################################################################

data_CEQBAE
_chemical_formula_moiety         '2(C13 H9 N1),C6 H5 Cl1 O1'
_chemical_name_systematic        '4-chlorophenol acridine'
_symmetry_cell_setting           monoclinic
_symmetry_space_group_name_H-M   'P 21'
_symmetry_Int_Tables_number      4
_space_group_name_Hall           'P 2yb'
loop_
_symmetry_equiv_pos_site_id
_symmetry_equiv_pos_as_xyz
1 x,y,z
2 -x,1/2+y,-z
_cell_length_a                   12.8719(4)
_cell_length_b                   14.5519(4)
_cell_length_c                   14.2914(4)
_cell_angle_alpha                90
_cell_angle_beta                 115.4000(10)
_cell_angle_gamma                90
_cell_volume                     2418.17
_exptl_crystal_colour            colorless
_exptl_crystal_description       block
_cell_formula_units_Z            4
loop_
_atom_site_label
_atom_site_type_symbol
_atom_site_fract_x
_atom_site_fract_y
_atom_site_fract_z
Cl1 Cl 1.11735(8) 0.66014(8) 0.07397(7)
O1 O 0.8318(2) 0.94887(19) 0.1331(2)
H1 H 0.7936 0.9286 0.1638
C1 C 0.8954(3) 0.8799(3) 0.1202(2)
C2 C 0.9737(3) 0.9020(3) 0.0799(2)
H2 H 0.9809 0.9638 0.0623
C3 C 1.0405(3) 0.8345(3) 0.0654(2)
H3 H 1.0936 0.8498 0.0379
C4 C 1.0301(3) 0.7446(3) 0.0910(2)
C5 C 0.9519(3) 0.7213(3) 0.1296(3)
H4 H 0.9442 0.6591 0.1458
C6 C 0.8848(3) 0.7888(3) 0.1444(2)
H5 H 0.8313 0.7729 0.1712
N1 N 0.6936(2) 0.88186(19) 0.2191(2)
C7 C 0.5317(3) 0.8872(3) 0.0544(3)
H6 H 0.5779 0.9150 0.0254
C8 C 0.4192(3) 0.8712(3) -0.0060(3)
H7 H 0.3870 0.8888 -0.0768
C9 C 0.3487(3) 0.8285(3) 0.0346(3)
H8 H 0.2700 0.8170 -0.0093
C10 C 0.3924(3) 0.8040(3) 0.1354(3)
H9 H 0.3439 0.7759 0.1618
C11 C 0.5626(3) 0.7949(2) 0.3067(3)
H10 H 0.5181 0.7652 0.3363
C12 C 0.7350(3) 0.7895(3) 0.4748(3)
H11 H 0.6942 0.7585 0.5072
C13 C 0.8468(4) 0.8111(3) 0.5303(3)
H12 H 0.8839 0.7955 0.6017
C14 C 0.9093(3) 0.8567(3) 0.4836(3)
H13 H 0.9877 0.8719 0.5243
C15 C 0.8594(3) 0.8791(3) 0.3817(3)
H14 H 0.9030 0.9089 0.3513
C16 C 0.5814(3) 0.8629(2) 0.1608(2)
C17 C 0.5110(3) 0.8198(2) 0.2028(3)
C18 C 0.6777(3) 0.8128(2) 0.3678(2)
C19 C 0.7415(3) 0.8579(2) 0.3203(2)
Cl2 Cl 1.02704(7) 0.45734(8) 0.16825(7)
O2 O 0.7498(2) 0.19624(19) 0.2790(2)
H15 H 0.7107 0.2240 0.3044
C20 C 0.8134(3) 0.2585(3) 0.2537(3)
C21 C 0.8846(3) 0.2256(3) 0.2113(3)
H16 H 0.8879 0.1615 0.2003
C22 C 0.9512(3) 0.2859(3) 0.1848(2)
H17 H 1.0005 0.2634 0.1561
C23 C 0.9449(3) 0.3790(3) 0.2004(2)
C24 C 0.8737(3) 0.4127(3) 0.2425(3)
H18 H 0.8696 0.4769 0.2524
C25 C 0.8089(3) 0.3524(3) 0.2698(3)
H19 H 0.7609 0.3750 0.2998
N2 N 0.6212(2) 0.28980(19) 0.3610(2)
C26 C 0.4646(3) 0.2855(2) 0.1925(3)
H20 H 0.5138 0.2594 0.1656
C27 C 0.3527(3) 0.3019(3) 0.1283(3)
H21 H 0.3242 0.2868 0.0569
C28 C 0.2774(3) 0.3414(3) 0.1666(3)
H22 H 0.1993 0.3526 0.1207
C29 C 0.3167(3) 0.3631(3) 0.2679(3)
H23 H 0.2656 0.3893 0.2926
C30 C 0.4786(3) 0.3707(2) 0.4419(3)
H24 H 0.4303 0.3975 0.4694
C31 C 0.6462(3) 0.3803(2) 0.6132(3)
H25 H 0.6010 0.4082 0.6433
C32 C 0.7598(3) 0.3644(3) 0.6721(3)
H26 H 0.7937 0.3811 0.7433
C33 C 0.8278(3) 0.3234(3) 0.6281(3)
H27 H 0.9071 0.3129 0.6704
C34 C 0.7823(3) 0.2984(3) 0.5261(3)
H28 H 0.8298 0.2713 0.4980
C35 C 0.5086(3) 0.3072(2) 0.2994(2)
C36 C 0.4336(3) 0.3472(2) 0.3383(2)
C37 C 0.5944(3) 0.3551(2) 0.5063(2)
C38 C 0.6635(3) 0.3133(2) 0.4623(2)
N3 N 0.7646(3) 0.6321(2) 0.2498(3)
C39 C 0.5961(4) 0.6345(3) 0.0891(3)
H29 H 0.6392 0.6629 0.0573
C40 C 0.4833(4) 0.6172(3) 0.0320(3)
H30 H 0.4483 0.6334 -0.0393
C41 C 0.4159(4) 0.5747(3) 0.0776(3)
H31 H 0.3364 0.5633 0.0371
C42 C 0.4662(3) 0.5508(3) 0.1788(3)
H32 H 0.4213 0.5218 0.2085
C43 C 0.6407(3) 0.5457(2) 0.3463(3)
H33 H 0.5991 0.5159 0.3787
C44 C 0.8174(3) 0.5461(3) 0.5111(3)
H34 H 0.7788 0.5173 0.5469
C45 C 0.9305(3) 0.5673(3) 0.5630(3)
H35 H 0.9700 0.5536 0.6348
C46 C 0.9899(4) 0.6094(3) 0.5119(4)
H36 H 1.0692 0.6235 0.5493
C47 C 0.9348(3) 0.6303(3) 0.4092(4)
H37 H 0.9762 0.6588 0.3757
C48 C 0.6516(3) 0.6113(2) 0.1953(3)
C49 C 0.5854(3) 0.5681(2) 0.2422(3)
C50 C 0.7553(3) 0.5662(2) 0.4034(3)
C51 C 0.8159(3) 0.6098(2) 0.3514(3)
N4 N 0.5243(3) 0.0538(2) 0.2993(3)
C52 C 0.2309(3) 0.1236(3) 0.2619(3)
H38 H 0.1930 0.1476 0.3009
C53 C 0.1696(4) 0.1061(3) 0.1594(4)
H39 H 0.0893 0.1181 0.1274
C54 C 0.2240(4) 0.0703(3) 0.0997(3)
H40 H 0.1795 0.0577 0.0283
C55 C 0.3387(4) 0.0538(3) 0.1429(3)
H41 H 0.3742 0.0310 0.1014
C56 C 0.4088(2) 0.1221(2) 0.4137(2)
H42 H 0.3704 0.1467 0.4520
C57 C 0.7040(3) 0.0502(3) 0.4628(3)
H43 H 0.7467 0.0286 0.4271
C58 C 0.7578(3) 0.0627(3) 0.5659(3)
H44 H 0.8373 0.0487 0.6023
C59 C 0.6959(3) 0.0971(3) 0.6206(3)
H45 H 0.7346 0.1066 0.6933
C60 C 0.5821(3) 0.1163(2) 0.5697(3)
H46 H 0.5421 0.1393 0.6073
C61 C 0.3515(3) 0.1061(2) 0.3118(3)
C62 C 0.4066(3) 0.0706(2) 0.2508(3)
C63 C 0.5847(3) 0.0686(2) 0.4061(3)
C64 C 0.5214(3) 0.1025(2) 0.4604(3)
loop_
_geom_bond_atom_site_label_1
_geom_bond_atom_site_label_2
_geom_bond_site_symmetry_1
_geom_bond_site_symmetry_2
Cl1 C4 1_555 1_555
O1 H1 1_555 1_555
C1 O1 1_555 1_555
C2 C1 1_555 1_555
H2 C2 1_555 1_555
C3 C2 1_555 1_555
H3 C3 1_555 1_555
C4 C3 1_555 1_555
C5 C4 1_555 1_555
H4 C5 1_555 1_555
C6 C1 1_555 1_555
H5 C6 1_555 1_555
N1 C16 1_555 1_555
C7 H6 1_555 1_555
C8 C7 1_555 1_555
H7 C8 1_555 1_555
C9 C8 1_555 1_555
H8 C9 1_555 1_555
C10 C9 1_555 1_555
H9 C10 1_555 1_555
C11 H10 1_555 1_555
C12 H11 1_555 1_555
C13 C12 1_555 1_555
H12 C13 1_555 1_555
C14 C13 1_555 1_555
H13 C14 1_555 1_555
C15 C14 1_555 1_555
H14 C15 1_555 1_555
C16 C7 1_555 1_555
C17 C10 1_555 1_555
C18 C11 1_555 1_555
C19 N1 1_555 1_555
Cl2 C23 1_555 1_555
O2 H15 1_555 1_555
C20 O2 1_555 1_555
C21 C20 1_555 1_555
H16 C21 1_555 1_555
C22 C21 1_555 1_555
H17 C22 1_555 1_555
C23 C22 1_555 1_555
C24 C23 1_555 1_555
H18 C24 1_555 1_555
C25 C20 1_555 1_555
H19 C25 1_555 1_555
N2 C35 1_555 1_555
C26 H20 1_555 1_555
C27 C26 1_555 1_555
H21 C27 1_555 1_555
C28 C27 1_555 1_555
H22 C28 1_555 1_555
C29 C28 1_555 1_555
H23 C29 1_555 1_555
C30 H24 1_555 1_555
C31 H25 1_555 1_555
C32 C31 1_555 1_555
H26 C32 1_555 1_555
C33 C32 1_555 1_555
H27 C33 1_555 1_555
C34 C33 1_555 1_555
H28 C34 1_555 1_555
C35 C26 1_555 1_555
C36 C29 1_555 1_555
C37 C30 1_555 1_555
C38 N2 1_555 1_555
N3 C48 1_555 1_555
C39 H29 1_555 1_555
C40 C39 1_555 1_555
H30 C40 1_555 1_555
C41 C40 1_555 1_555
H31 C41 1_555 1_555
C42 C41 1_555 1_555
H32 C42 1_555 1_555
C43 H33 1_555 1_555
C44 H34 1_555 1_555
C45 C44 1_555 1_555
H35 C45 1_555 1_555
C46 C45 1_555 1_555
H36 C46 1_555 1_555
C47 C46 1_555 1_555
H37 C47 1_555 1_555
C48 C39 1_555 1_555
C49 C42 1_555 1_555
C50 C43 1_555 1_555
C51 N3 1_555 1_555
N4 C62 1_555 1_555
C52 H38 1_555 1_555
C53 C52 1_555 1_555
H39 C53 1_555 1_555
C54 C53 1_555 1_555
H40 C54 1_555 1_555
C55 C54 1_555 1_555
H41 C55 1_555 1_555
C56 H42 1_555 1_555
C57 H43 1_555 1_555
C58 C57 1_555 1_555
H44 C58 1_555 1_555
C59 C58 1_555 1_555
H45 C59 1_555 1_555
C60 C59 1_555 1_555
H46 C60 1_555 1_555
C61 C52 1_555 1_555
C62 C55 1_555 1_555
C63 N4 1_555 1_555
C64 C56 1_555 1_555
C5 C6 1_555 1_555
C11 C17 1_555 1_555
C12 C18 1_555 1_555
C15 C19 1_555 1_555
C16 C17 1_555 1_555
C18 C19 1_555 1_555
C24 C25 1_555 1_555
C30 C36 1_555 1_555
C31 C37 1_555 1_555
C34 C38 1_555 1_555
C35 C36 1_555 1_555
C37 C38 1_555 1_555
C43 C49 1_555 1_555
C44 C50 1_555 1_555
C47 C51 1_555 1_555
C48 C49 1_555 1_555
C50 C51 1_555 1_555
C56 C61 1_555 1_555
C57 C63 1_555 1_555
C60 C64 1_555 1_555
C61 C62 1_555 1_555
C63 C64 1_555 1_555

#END
