
#######################################################################
#
#                 Cambridge Crystallographic Data Centre
#                                CCDC 
#
#######################################################################
#
# If this CIF has been generated from an entry in the Cambridge 
# Structural Database, then it will include bibliographic, chemical, 
# crystal, experimental, refinement or atomic coordinate data resulting 
# from the CCDC's data processing and validation procedures.
#
#######################################################################

data_CEQQUN
_chemical_formula_moiety         'C10 H7 N3 O4,H2 O1'
_chemical_name_systematic        
'2-(1H-1,2,4-triazol-1-yl)benzene-1,4-dicarboxylic acid monohydrate'
_symmetry_cell_setting           monoclinic
_symmetry_space_group_name_H-M   'P 21/c'
_symmetry_Int_Tables_number      14
_space_group_name_Hall           '-P 2ybc'
loop_
_symmetry_equiv_pos_site_id
_symmetry_equiv_pos_as_xyz
1 x,y,z
2 -x,1/2+y,1/2-z
3 -x,-y,-z
4 x,1/2-y,1/2+z
_cell_length_a                   10.7501(19)
_cell_length_b                   7.7339(14)
_cell_length_c                   13.372(2)
_cell_angle_alpha                90
_cell_angle_beta                 102.123(2)
_cell_angle_gamma                90
_cell_volume                     1086.96
_exptl_crystal_colour            colorless
_exptl_crystal_description       block
_cell_formula_units_Z            4
loop_
_atom_site_label
_atom_site_type_symbol
_atom_site_fract_x
_atom_site_fract_y
_atom_site_fract_z
N1 N 0.96275(15) 0.1640(2) 0.92325(12)
O1 O 1.23842(13) 0.5037(2) 0.69580(11)
H1 H 1.1786 0.5513 0.6576
C1 C 1.30889(17) 0.3697(3) 0.85537(14)
O2 O 1.59333(13) 0.1112(2) 1.16179(10)
H2 H 1.6579 0.0813 1.2024
C2 C 1.62459(17) 0.1804(2) 1.08099(15)
N2 N 1.16138(14) 0.2446(2) 0.95354(11)
N3 N 1.11341(15) 0.3105(2) 1.03201(12)
O3 O 1.73174(13) 0.1926(2) 1.07015(13)
C3 C 1.28816(16) 0.2812(2) 0.94121(14)
C4 C 1.20310(19) 0.4534(3) 0.77914(15)
C5 C 1.53438(18) 0.3236(3) 0.91599(15)
H3 H 1.6172 0.3350 0.9063
O4 O 1.09728(14) 0.4760(2) 0.79414(12)
C6 C 1.38801(17) 0.2193(2) 1.01523(14)
H4 H 1.3722 0.1627 1.0726
C7 C 1.43404(17) 0.3875(3) 0.84362(14)
H5 H 1.4502 0.4434 0.7861
C8 C 1.51233(17) 0.2427(2) 1.00293(14)
C9 C 1.07024(18) 0.1580(3) 0.89049(16)
C10 C 0.99439(19) 0.2583(3) 1.01023(15)
H6 H 0.934(2) 0.283(3) 1.0526(16)
H7 H 1.0854(17) 0.104(3) 0.8298(15)
O5 O 0.79989(14) 0.0218(2) 0.29536(11)
H8 H 0.8535 0.1040 0.3072
H9 H 0.8116 -0.0461 0.3465
loop_
_geom_bond_atom_site_label_1
_geom_bond_atom_site_label_2
_geom_bond_site_symmetry_1
_geom_bond_site_symmetry_2
N1 C9 1_555 1_555
O1 H1 1_555 1_555
C1 C3 1_555 1_555
O2 H2 1_555 1_555
C2 O2 1_555 1_555
N2 N3 1_555 1_555
N3 C10 1_555 1_555
O3 C2 1_555 1_555
C3 N2 1_555 1_555
C4 O1 1_555 1_555
C5 H3 1_555 1_555
O4 C4 1_555 1_555
C6 C3 1_555 1_555
H4 C6 1_555 1_555
C7 C1 1_555 1_555
H5 C7 1_555 1_555
C8 C2 1_555 1_555
C9 N2 1_555 1_555
C10 N1 1_555 1_555
H6 C10 1_555 1_555
H7 C9 1_555 1_555
O5 H8 1_555 1_555
H9 O5 1_555 1_555
C1 C4 1_555 1_555
C5 C7 1_555 1_555
C5 C8 1_555 1_555
C6 C8 1_555 1_555

#END
