
#######################################################################
#
#                 Cambridge Crystallographic Data Centre
#                                CCDC 
#
#######################################################################
#
# If this CIF has been generated from an entry in the Cambridge 
# Structural Database, then it will include bibliographic, chemical, 
# crystal, experimental, refinement or atomic coordinate data resulting 
# from the CCDC's data processing and validation procedures.
#
#######################################################################

data_CEQREX
_chemical_formula_moiety         'C36 H30 N1 P2 1+,C6 H18 B11 1-'
_chemical_name_systematic        
'Triphenyl-N-(triphenylphosphoranylidene)phosphoraniminium 1,2-(but-1-yl-4-ylidene)-1,2-dicarba-closo-tridecaborane(11)'
_symmetry_cell_setting           monoclinic
_symmetry_space_group_name_H-M   'P 21/c'
_symmetry_Int_Tables_number      14
_space_group_name_Hall           '-P 2ybc'
loop_
_symmetry_equiv_pos_site_id
_symmetry_equiv_pos_as_xyz
1 x,y,z
2 -x,1/2+y,1/2-z
3 -x,-y,-z
4 x,1/2-y,1/2+z
_cell_length_a                   12.7941(9)
_cell_length_b                   17.3171(12)
_cell_length_c                   18.3531(13)
_cell_angle_alpha                90
_cell_angle_beta                 97.124(2)
_cell_angle_gamma                90
_cell_volume                     4034.86
_exptl_crystal_colour            colorless
_exptl_crystal_description       block
_cell_formula_units_Z            4
loop_
_atom_site_label
_atom_site_type_symbol
_atom_site_fract_x
_atom_site_fract_y
_atom_site_fract_z
N1 N 0.90989(16) 0.35043(13) -0.02903(12)
P1 P 0.88774(5) 0.33532(4) 0.05257(4)
P2 P 0.88909(5) 0.31565(4) -0.10922(4)
C1 C 0.7700(2) 0.38451(15) 0.07283(15)
C2 C 0.7054(2) 0.35538(17) 0.12212(16)
H1 H 0.7222 0.3078 0.1465
C3 C 0.6161(2) 0.39631(19) 0.13541(19)
H2 H 0.5716 0.3765 0.1687
C4 C 0.5924(3) 0.4653(2) 0.1003(2)
H3 H 0.5310 0.4928 0.1094
C5 C 0.6564(3) 0.49527(19) 0.05216(19)
H4 H 0.6399 0.5435 0.0288
C6 C 0.7449(2) 0.45457(17) 0.03813(17)
H5 H 0.7887 0.4747 0.0045
C7 C 0.9955(2) 0.37447(15) 0.11438(15)
C8 C 0.9871(2) 0.37958(15) 0.18912(15)
H6 H 0.9239 0.3640 0.2073
C9 C 1.0708(2) 0.40745(17) 0.23709(16)
H7 H 1.0648 0.4111 0.2881
C10 C 1.1624(2) 0.42978(17) 0.21109(17)
H8 H 1.2201 0.4479 0.2443
C11 C 1.1709(2) 0.42587(17) 0.13663(18)
H9 H 1.2342 0.4419 0.1191
C12 C 1.0877(2) 0.39871(16) 0.08740(16)
H10 H 1.0933 0.3967 0.0363
C13 C 0.8738(2) 0.23496(15) 0.07473(14)
C14 C 0.9583(2) 0.19398(15) 0.11198(15)
H11 H 1.0218 0.2200 0.1295
C15 C 0.9491(2) 0.11503(16) 0.12335(16)
H12 H 1.0058 0.0874 0.1497
C16 C 0.8576(2) 0.07660(16) 0.09635(16)
H13 H 0.8519 0.0226 0.1039
C17 C 0.7740(2) 0.11675(16) 0.05829(16)
H14 H 0.7117 0.0901 0.0391
C18 C 0.7815(2) 0.19563(15) 0.04837(15)
H15 H 0.7236 0.2232 0.0235
C19 C 0.7672(2) 0.34951(15) -0.15835(15)
C20 C 0.6772(2) 0.34857(17) -0.12224(16)
H16 H 0.6833 0.3371 -0.0713
C21 C 0.5790(2) 0.36434(18) -0.16053(17)
H17 H 0.5180 0.3632 -0.1358
C22 C 0.5699(2) 0.38164(18) -0.23441(17)
H18 H 0.5027 0.3924 -0.2606
C23 C 0.6584(2) 0.38334(19) -0.27024(17)
H19 H 0.6519 0.3960 -0.3210
C24 C 0.7573(2) 0.36662(17) -0.23279(16)
H20 H 0.8177 0.3669 -0.2581
C25 C 0.99771(19) 0.34241(15) -0.15748(14)
C26 C 1.0380(2) 0.41732(16) -0.15196(16)
H21 H 1.0064 0.4551 -0.1242
C27 C 1.1243(2) 0.43640(17) -0.18700(17)
H22 H 1.1512 0.4876 -0.1836
C28 C 1.1716(2) 0.38183(18) -0.22686(16)
H23 H 1.2312 0.3952 -0.2503
C29 C 1.1319(2) 0.30773(18) -0.23254(16)
H24 H 1.1641 0.2702 -0.2602
C30 C 1.0454(2) 0.28785(16) -0.19810(15)
H25 H 1.0184 0.2367 -0.2022
C31 C 0.8785(2) 0.21147(15) -0.11348(14)
C32 C 0.7939(2) 0.17480(16) -0.15519(16)
H26 H 0.7410 0.2047 -0.1832
C33 C 0.7871(2) 0.09502(17) -0.15566(18)
H27 H 0.7298 0.0703 -0.1844
C34 C 0.8632(2) 0.05119(17) -0.11461(17)
H28 H 0.8569 -0.0035 -0.1139
C35 C 0.9490(2) 0.08712(16) -0.07433(16)
H29 H 1.0020 0.0568 -0.0471
C36 C 0.9573(2) 0.16695(15) -0.07388(15)
H30 H 1.0163 0.1913 -0.0468
B1 B 0.5353(3) 0.76494(19) -0.00725(19)
H31 H 0.4619 0.7341 0.0037
B2 B 0.5399(3) 0.86271(19) -0.04249(19)
H32 H 0.4686 0.8974 -0.0636
B3 B 0.6601(3) 0.9027(2) 0.0089(2)
H33 H 0.6704 0.9632 0.0302
B4 B 0.7495(3) 0.8210(2) 0.0665(2)
H34 H 0.8104 0.8385 0.1127
B5 B 0.6695(3) 0.7317(2) 0.0569(2)
H35 H 0.6729 0.6816 0.0958
B6 B 0.5753(3) 0.78499(19) -0.09528(19)
H36 H 0.5244 0.7686 -0.1470
B7 B 0.6536(3) 0.8710(2) -0.0864(2)
H37 H 0.6566 0.9135 -0.1321
B8 B 0.7664(3) 0.8502(2) -0.0232(2)
H38 H 0.8407 0.8831 -0.0278
B9 B 0.7680(3) 0.7511(2) 0.00081(19)
H39 H 0.8419 0.7158 0.0081
B10 B 0.6437(3) 0.71418(19) -0.03828(19)
H40 H 0.6321 0.6518 -0.0533
B11 B 0.7144(3) 0.7794(2) -0.0888(2)
H41 H 0.7541 0.7615 -0.1372
C37 C 0.6257(2) 0.80684(19) 0.09928(19)
C38 C 0.5574(2) 0.8538(2) 0.04835(17)
C39 C 0.6192(3) 0.8032(2) 0.17283(19)
H42 H 0.6640 0.7688 0.2024
C40 C 0.5434(3) 0.8519(2) 0.2079(2)
H43 H 0.5752 0.8671 0.2578
H44 H 0.4788 0.8218 0.2127
C41 C 0.5155(3) 0.9227(2) 0.1631(2)
H45 H 0.5786 0.9557 0.1626
H46 H 0.4614 0.9527 0.1851
C42 C 0.4727(3) 0.8990(2) 0.0839(2)
H47 H 0.4522 0.9458 0.0545
H48 H 0.4092 0.8664 0.0846
loop_
_geom_bond_atom_site_label_1
_geom_bond_atom_site_label_2
_geom_bond_site_symmetry_1
_geom_bond_site_symmetry_2
N1 P1 1_555 1_555
P1 C1 1_555 1_555
P2 N1 1_555 1_555
C1 C2 1_555 1_555
C2 H1 1_555 1_555
C3 C2 1_555 1_555
H2 C3 1_555 1_555
C4 C3 1_555 1_555
H3 C4 1_555 1_555
C5 C4 1_555 1_555
H4 C5 1_555 1_555
C6 C1 1_555 1_555
H5 C6 1_555 1_555
C7 P1 1_555 1_555
C8 C7 1_555 1_555
H6 C8 1_555 1_555
C9 C8 1_555 1_555
H7 C9 1_555 1_555
C10 C9 1_555 1_555
H8 C10 1_555 1_555
C11 C10 1_555 1_555
H9 C11 1_555 1_555
C12 C7 1_555 1_555
H10 C12 1_555 1_555
C13 P1 1_555 1_555
C14 C13 1_555 1_555
H11 C14 1_555 1_555
C15 C14 1_555 1_555
H12 C15 1_555 1_555
C16 C15 1_555 1_555
H13 C16 1_555 1_555
C17 C16 1_555 1_555
H14 C17 1_555 1_555
C18 C13 1_555 1_555
H15 C18 1_555 1_555
C19 P2 1_555 1_555
C20 C19 1_555 1_555
H16 C20 1_555 1_555
C21 C20 1_555 1_555
H17 C21 1_555 1_555
C22 C21 1_555 1_555
H18 C22 1_555 1_555
C23 C22 1_555 1_555
H19 C23 1_555 1_555
C24 C19 1_555 1_555
H20 C24 1_555 1_555
C25 P2 1_555 1_555
C26 C25 1_555 1_555
H21 C26 1_555 1_555
C27 C26 1_555 1_555
H22 C27 1_555 1_555
C28 C27 1_555 1_555
H23 C28 1_555 1_555
C29 C28 1_555 1_555
H24 C29 1_555 1_555
C30 C25 1_555 1_555
H25 C30 1_555 1_555
C31 P2 1_555 1_555
C32 C31 1_555 1_555
H26 C32 1_555 1_555
C33 C32 1_555 1_555
H27 C33 1_555 1_555
C34 C33 1_555 1_555
H28 C34 1_555 1_555
C35 C34 1_555 1_555
H29 C35 1_555 1_555
C36 C31 1_555 1_555
H30 C36 1_555 1_555
B1 H31 1_555 1_555
B2 B1 1_555 1_555
H32 B2 1_555 1_555
B3 B2 1_555 1_555
H33 B3 1_555 1_555
B4 B3 1_555 1_555
H34 B4 1_555 1_555
B5 B1 1_555 1_555
H35 B5 1_555 1_555
B6 B1 1_555 1_555
H36 B6 1_555 1_555
B7 B2 1_555 1_555
H37 B7 1_555 1_555
B8 B3 1_555 1_555
H38 B8 1_555 1_555
B9 B4 1_555 1_555
H39 B9 1_555 1_555
B10 B1 1_555 1_555
H40 B10 1_555 1_555
B11 B6 1_555 1_555
H41 B11 1_555 1_555
C37 B4 1_555 1_555
C38 B1 1_555 1_555
C39 C37 1_555 1_555
H42 C39 1_555 1_555
C40 C39 1_555 1_555
H43 C40 1_555 1_555
H44 C40 1_555 1_555
C41 C40 1_555 1_555
H45 C41 1_555 1_555
H46 C41 1_555 1_555
C42 C38 1_555 1_555
H47 C42 1_555 1_555
H48 C42 1_555 1_555
C5 C6 1_555 1_555
C11 C12 1_555 1_555
C17 C18 1_555 1_555
C23 C24 1_555 1_555
C29 C30 1_555 1_555
C35 C36 1_555 1_555
B2 B6 1_555 1_555
B2 C38 1_555 1_555
B3 B7 1_555 1_555
B3 C38 1_555 1_555
B4 B5 1_555 1_555
B4 B8 1_555 1_555
B5 B9 1_555 1_555
B5 B10 1_555 1_555
B5 C37 1_555 1_555
B6 B7 1_555 1_555
B6 B10 1_555 1_555
B7 B8 1_555 1_555
B7 B11 1_555 1_555
B8 B9 1_555 1_555
B8 B11 1_555 1_555
B9 B10 1_555 1_555
B9 B11 1_555 1_555
B10 B11 1_555 1_555
C37 C38 1_555 1_555
C41 C42 1_555 1_555

#END
