
#######################################################################
#
#                 Cambridge Crystallographic Data Centre
#                                CCDC 
#
#######################################################################
#
# If this CIF has been generated from an entry in the Cambridge 
# Structural Database, then it will include bibliographic, chemical, 
# crystal, experimental, refinement or atomic coordinate data resulting 
# from the CCDC's data processing and validation procedures.
#
#######################################################################

data_CEQRIB
_chemical_formula_moiety         'C36 H30 N1 P2 1+,C5 H16 B11 1-'
_chemical_name_systematic        
'Triphenyl-N-(triphenylphosphoranylidene)phosphoraniminium 1,2-(prop-1-ene-1,3-diyl)-1,2-dicarba-closo-tridecaborane(11) radical'
_symmetry_cell_setting           orthorhombic
_symmetry_space_group_name_H-M   'P b c m'
_symmetry_Int_Tables_number      57
_space_group_name_Hall           '-P 2c 2b'
loop_
_symmetry_equiv_pos_site_id
_symmetry_equiv_pos_as_xyz
1 x,y,z
2 -x,-y,1/2+z
3 -x,1/2+y,1/2-z
4 x,1/2-y,-z
5 -x,-y,-z
6 x,y,1/2-z
7 x,1/2-y,1/2+z
8 -x,1/2+y,z
_cell_length_a                   9.0846(6)
_cell_length_b                   18.2030(13)
_cell_length_c                   24.8727(17)
_cell_angle_alpha                90
_cell_angle_beta                 90
_cell_angle_gamma                90
_cell_volume                     4113.12
_exptl_crystal_colour            colorless
_exptl_crystal_description       block
_cell_formula_units_Z            4
loop_
_atom_site_label
_atom_site_type_symbol
_atom_site_fract_x
_atom_site_fract_y
_atom_site_fract_z
P1 P 0.09938(9) 0.66718(5) 0.49660(3)
N1 N 0.1506(5) 0.7500 0.5000
C1 C 0.1626(4) 0.62634(18) 0.43468(13)
C2 C 0.2863(4) 0.6551(2) 0.40949(15)
H1 H 0.3329 0.6976 0.4237
C3 C 0.3418(5) 0.6218(2) 0.36376(16)
H2 H 0.4271 0.6412 0.3468
C4 C 0.2735(5) 0.5602(2) 0.34259(16)
H3 H 0.3115 0.5376 0.3111
C5 C 0.1496(5) 0.5317(2) 0.36743(16)
H4 H 0.1027 0.4895 0.3529
C6 C 0.0937(4) 0.5646(2) 0.41330(15)
H5 H 0.0084 0.5450 0.4302
C7 C 0.1820(4) 0.61763(19) 0.55177(15)
C8 C 0.2518(4) 0.5504(2) 0.54466(18)
H6 H 0.2543 0.5277 0.5103
C9 C 0.3183(5) 0.5166(3) 0.5890(2)
H7 H 0.3670 0.4709 0.5844
C10 C 0.3145(6) 0.5480(3) 0.6386(2)
H8 H 0.3604 0.5241 0.6681
C11 C 0.2429(6) 0.6156(3) 0.6461(2)
H9 H 0.2393 0.6375 0.6808
C12 C 0.1778(5) 0.6500(3) 0.60271(17)
H10 H 0.1299 0.6959 0.6075
C13 C -0.0973(4) 0.6540(2) 0.49898(14)
C14 C -0.1667(4) 0.6255(2) 0.54399(15)
H11 H -0.1099 0.6089 0.5737
C15 C -0.3191(4) 0.6213(2) 0.54576(17)
H12 H -0.3667 0.6016 0.5765
C16 C -0.4012(4) 0.6460(3) 0.50276(18)
H13 H -0.5056 0.6436 0.5042
C17 C -0.3328(5) 0.6742(3) 0.45732(18)
H14 H -0.3902 0.6909 0.4278
C18 C -0.1806(4) 0.6781(2) 0.45509(15)
H15 H -0.1331 0.6969 0.4240
P1C P 0.09938(9) 0.83282(5) 0.50340(3)
C1C C 0.1626(4) 0.87366(18) 0.56532(13)
C2C C 0.2863(4) 0.8449(2) 0.59051(15)
H1C H 0.3329 0.8024 0.5763
C3C C 0.3418(5) 0.8782(2) 0.63624(16)
H2C H 0.4271 0.8588 0.6532
C4C C 0.2735(5) 0.9398(2) 0.65741(16)
H3C H 0.3115 0.9624 0.6889
C5C C 0.1496(5) 0.9683(2) 0.63257(16)
H4C H 0.1027 1.0105 0.6471
C6C C 0.0937(4) 0.9354(2) 0.58670(15)
H5C H 0.0084 0.9550 0.5698
C7C C 0.1820(4) 0.88237(19) 0.44823(15)
C8C C 0.2518(4) 0.9496(2) 0.45534(18)
H6C H 0.2543 0.9723 0.4897
C9C C 0.3183(5) 0.9834(3) 0.4110(2)
H7C H 0.3670 1.0291 0.4156
C10C C 0.3145(6) 0.9520(3) 0.3614(2)
H8C H 0.3604 0.9759 0.3319
C11C C 0.2429(6) 0.8844(3) 0.3539(2)
H9C H 0.2393 0.8625 0.3192
C12C C 0.1778(5) 0.8500(3) 0.39729(17)
H10C H 0.1299 0.8041 0.3925
C13C C -0.0973(4) 0.8460(2) 0.50102(14)
C14C C -0.1667(4) 0.8745(2) 0.45601(15)
H11C H -0.1099 0.8911 0.4263
C15C C -0.3191(4) 0.8787(2) 0.45424(17)
H12C H -0.3667 0.8984 0.4235
C16C C -0.4012(4) 0.8540(3) 0.49724(18)
H13C H -0.5056 0.8564 0.4958
C17C C -0.3328(5) 0.8258(3) 0.54268(18)
H14C H -0.3902 0.8091 0.5722
C18C C -0.1806(4) 0.8219(2) 0.54491(15)
H15C H -0.1331 0.8031 0.5760
C19 C 0.1104(11) 0.2344(6) 0.27985(19)
C20 C -0.0267(16) 0.2053(9) 0.2996(5)
C21 C -0.1140(17) 0.1946(9) 0.2500
H16 H -0.1974 0.2295 0.2500
H17 H -0.1552 0.1442 0.2500
B1 B 0.1559(14) 0.3454(7) 0.2500
H18 H 0.0421 0.3690 0.2500
B2 B 0.2039(8) 0.2887(4) 0.3113(3)
H19 H 0.1413 0.3012 0.3490
B3 B 0.2832(8) 0.1968(4) 0.2904(3)
H20 H 0.2790 0.1426 0.3117
B4 B 0.3254(7) 0.3545(3) 0.2870(2)
H21 H 0.3439 0.4054 0.3114
B5 B 0.3965(7) 0.2706(3) 0.3078(2)
H22 H 0.4634 0.2667 0.3455
B6 B 0.4315(12) 0.2164(5) 0.2500
H23 H 0.5199 0.1735 0.2500
B7 B 0.4705(9) 0.3116(5) 0.2500
H24 H 0.5854 0.3340 0.2500
C19E C 0.1104(11) 0.2344(6) 0.22015(19)
C20E C -0.0267(16) 0.2053(9) 0.2004(5)
B2E B 0.2039(8) 0.2887(4) 0.1887(3)
H19E H 0.1413 0.3012 0.1510
B3E B 0.2832(8) 0.1968(4) 0.2096(3)
H20E H 0.2790 0.1426 0.1883
B4E B 0.3254(7) 0.3545(3) 0.2130(2)
H21E H 0.3439 0.4054 0.1886
B5E B 0.3965(7) 0.2706(3) 0.1922(2)
H22E H 0.4634 0.2667 0.1545
loop_
_geom_bond_atom_site_label_1
_geom_bond_atom_site_label_2
_geom_bond_site_symmetry_1
_geom_bond_site_symmetry_2
P1 N1 1_555 1_555
N1 P1C 1_555 1_555
C1 P1 1_555 1_555
C2 C1 1_555 1_555
H1 C2 1_555 1_555
C3 C2 1_555 1_555
H2 C3 1_555 1_555
C4 C3 1_555 1_555
H3 C4 1_555 1_555
C5 C4 1_555 1_555
H4 C5 1_555 1_555
C6 C1 1_555 1_555
H5 C6 1_555 1_555
C7 P1 1_555 1_555
C8 C7 1_555 1_555
H6 C8 1_555 1_555
C9 C8 1_555 1_555
H7 C9 1_555 1_555
C10 C9 1_555 1_555
H8 C10 1_555 1_555
C11 C10 1_555 1_555
H9 C11 1_555 1_555
C12 C7 1_555 1_555
H10 C12 1_555 1_555
C13 P1 1_555 1_555
C14 C13 1_555 1_555
H11 C14 1_555 1_555
C15 C14 1_555 1_555
H12 C15 1_555 1_555
C16 C15 1_555 1_555
H13 C16 1_555 1_555
C17 C16 1_555 1_555
H14 C17 1_555 1_555
C18 C13 1_555 1_555
H15 C18 1_555 1_555
C19 C20 1_555 1_555
C20 C21 1_555 1_555
C21 H16 1_555 1_555
H17 C21 1_555 1_555
B1 H18 1_555 1_555
B2 C19 1_555 1_555
H19 B2 1_555 1_555
B3 C19 1_555 1_555
H20 B3 1_555 1_555
B4 B1 1_555 1_555
H21 B4 1_555 1_555
B5 B2 1_555 1_555
H22 B5 1_555 1_555
B6 B3 1_555 1_555
H23 B6 1_555 1_555
B7 B4 1_555 1_555
H24 B7 1_555 1_555
P1C C1C 1_555 1_555
C1C C2C 1_555 1_555
C2C H1C 1_555 1_555
C3C C2C 1_555 1_555
H2C C3C 1_555 1_555
C4C C3C 1_555 1_555
H3C C4C 1_555 1_555
C5C C4C 1_555 1_555
H4C C5C 1_555 1_555
C6C C1C 1_555 1_555
H5C C6C 1_555 1_555
C7C P1C 1_555 1_555
C8C C7C 1_555 1_555
H6C C8C 1_555 1_555
C9C C8C 1_555 1_555
H7C C9C 1_555 1_555
C10C C9C 1_555 1_555
H8C C10C 1_555 1_555
C11C C10C 1_555 1_555
H9C C11C 1_555 1_555
C12C C7C 1_555 1_555
H10C C12C 1_555 1_555
C13C P1C 1_555 1_555
C14C C13C 1_555 1_555
H11C C14C 1_555 1_555
C15C C14C 1_555 1_555
H12C C15C 1_555 1_555
C16C C15C 1_555 1_555
H13C C16C 1_555 1_555
C17C C16C 1_555 1_555
H14C C17C 1_555 1_555
C18C C13C 1_555 1_555
H15C C18C 1_555 1_555
C19E C19 1_555 1_555
C20E C21 1_555 1_555
B2E B1 1_555 1_555
H19E B2E 1_555 1_555
B3E B3 1_555 1_555
H20E B3E 1_555 1_555
B4E B1 1_555 1_555
H21E B4E 1_555 1_555
B5E B6 1_555 1_555
H22E B5E 1_555 1_555
C5 C6 1_555 1_555
C11 C12 1_555 1_555
C17 C18 1_555 1_555
B1 B2 1_555 1_555
B2 B3 1_555 1_555
B2 B4 1_555 1_555
B3 B5 1_555 1_555
B4 B5 1_555 1_555
B4 B4E 1_555 1_555
B5 B6 1_555 1_555
B5 B7 1_555 1_555
B6 B7 1_555 1_555
B6 B3E 1_555 1_555
B7 B4E 1_555 1_555
B7 B5E 1_555 1_555
C5C C6C 1_555 1_555
C11C C12C 1_555 1_555
C17C C18C 1_555 1_555
C19E C20E 1_555 1_555
C19E B2E 1_555 1_555
C19E B3E 1_555 1_555
B2E B3E 1_555 1_555
B2E B4E 1_555 1_555
B2E B5E 1_555 1_555
B3E B5E 1_555 1_555
B4E B5E 1_555 1_555

#END
