
#######################################################################
#
#                 Cambridge Crystallographic Data Centre
#                                CCDC 
#
#######################################################################
#
# If this CIF has been generated from an entry in the Cambridge 
# Structural Database, then it will include bibliographic, chemical, 
# crystal, experimental, refinement or atomic coordinate data resulting 
# from the CCDC's data processing and validation procedures.
#
#######################################################################

data_CERJIT
_chemical_formula_moiety         'C22 H15 Cl2 N3 O3'
_chemical_name_systematic        
'3-(Benzotriazol-1-yl)-1-(4-chlorophenyl)-1-oxopropan-2-yl 2-chlorobenzoate'
_symmetry_cell_setting           monoclinic
_symmetry_space_group_name_H-M   'P 21/c'
_symmetry_Int_Tables_number      14
_space_group_name_Hall           '-P 2ybc'
loop_
_symmetry_equiv_pos_site_id
_symmetry_equiv_pos_as_xyz
1 x,y,z
2 -x,1/2+y,1/2-z
3 -x,-y,-z
4 x,1/2-y,1/2+z
_cell_length_a                   10.112(2)
_cell_length_b                   9.2772(19)
_cell_length_c                   21.998(5)
_cell_angle_alpha                90
_cell_angle_beta                 92.773(3)
_cell_angle_gamma                90
_cell_volume                     2061.24
_exptl_crystal_colour            white
_exptl_crystal_description       plate
_cell_formula_units_Z            4
_exptl_crystal_recrystallization_method 'ethyl acetate'
loop_
_atom_site_label
_atom_site_type_symbol
_atom_site_fract_x
_atom_site_fract_y
_atom_site_fract_z
Cl1 Cl 0.40849(7) 0.47129(9) 0.19930(3)
Cl2 Cl -0.43462(8) 0.17688(11) 0.05565(4)
O1 O 0.10711(15) -0.01029(16) 0.22085(7)
O2 O 0.16725(13) 0.17832(15) 0.31309(6)
O3 O 0.17382(14) 0.31716(16) 0.23055(6)
N1 N -0.01333(18) 0.1282(2) 0.40310(8)
N2 N -0.1002(2) 0.2352(2) 0.41448(9)
N3 N -0.0653(2) 0.2950(2) 0.46602(10)
C1 C -0.1993(2) 0.1905(2) 0.20492(10)
H1 H -0.1990 0.2358 0.2427
C2 C -0.3035(2) 0.2120(3) 0.16347(11)
H2 H -0.3740 0.2705 0.1733
C3 C -0.3032(3) 0.1473(3) 0.10781(11)
C4 C -0.2022(3) 0.0588(3) 0.09246(10)
H3 H -0.2033 0.0148 0.0545
C5 C -0.0981(2) 0.0361(3) 0.13450(10)
H4 H -0.0291 -0.0246 0.1247
C6 C -0.0949(2) 0.1022(2) 0.19096(9)
C7 C 0.0207(2) 0.0740(2) 0.23347(9)
C8 C 0.03134(19) 0.1505(2) 0.29502(9)
H5 H -0.0180 0.2415 0.2926
C9 C -0.0226(2) 0.0555(2) 0.34460(9)
H6 H -0.1144 0.0319 0.3342
H7 H 0.0272 -0.0339 0.3472
C10 C 0.0811(2) 0.1197(2) 0.44892(10)
C11 C 0.0466(3) 0.2273(3) 0.48899(10)
C12 C 0.1225(3) 0.2514(4) 0.54268(12)
H8 H 0.1008 0.3233 0.5699
C13 C 0.2284(4) 0.1659(5) 0.55316(14)
H9 H 0.2808 0.1797 0.5886
C14 C 0.2629(3) 0.0574(4) 0.51318(15)
H10 H 0.3371 0.0012 0.5228
C15 C 0.1904(3) 0.0308(3) 0.45981(12)
H11 H 0.2129 -0.0415 0.4329
C16 C 0.22788(19) 0.2725(2) 0.27667(9)
C17 C 0.36207(19) 0.3116(2) 0.30176(9)
C18 C 0.4055(2) 0.2633(3) 0.35902(10)
H12 H 0.3499 0.2059 0.3813
C19 C 0.5292(3) 0.2987(3) 0.38366(11)
H13 H 0.5568 0.2647 0.4220
C20 C 0.6115(3) 0.3842(3) 0.35148(14)
H14 H 0.6950 0.4080 0.3680
C21 C 0.5714(2) 0.4342(3) 0.29559(13)
H15 H 0.6277 0.4924 0.2741
C22 C 0.4479(2) 0.3993(2) 0.27053(10)
loop_
_geom_bond_atom_site_label_1
_geom_bond_atom_site_label_2
_geom_bond_site_symmetry_1
_geom_bond_site_symmetry_2
Cl1 C22 1_555 1_555
Cl2 C3 1_555 1_555
O1 C7 1_555 1_555
O2 C8 1_555 1_555
O3 C16 1_555 1_555
N1 N2 1_555 1_555
N2 N3 1_555 1_555
N3 C11 1_555 1_555
C1 H1 1_555 1_555
C2 C1 1_555 1_555
H2 C2 1_555 1_555
C3 C2 1_555 1_555
C4 C3 1_555 1_555
H3 C4 1_555 1_555
C5 C4 1_555 1_555
H4 C5 1_555 1_555
C6 C1 1_555 1_555
C7 C6 1_555 1_555
C8 C7 1_555 1_555
H5 C8 1_555 1_555
C9 N1 1_555 1_555
H6 C9 1_555 1_555
H7 C9 1_555 1_555
C10 N1 1_555 1_555
C11 C10 1_555 1_555
C12 C11 1_555 1_555
H8 C12 1_555 1_555
C13 C12 1_555 1_555
H9 C13 1_555 1_555
C14 C13 1_555 1_555
H10 C14 1_555 1_555
C15 C10 1_555 1_555
H11 C15 1_555 1_555
C16 O2 1_555 1_555
C17 C16 1_555 1_555
C18 C17 1_555 1_555
H12 C18 1_555 1_555
C19 C18 1_555 1_555
H13 C19 1_555 1_555
C20 C19 1_555 1_555
H14 C20 1_555 1_555
C21 C20 1_555 1_555
H15 C21 1_555 1_555
C22 C17 1_555 1_555
C5 C6 1_555 1_555
C8 C9 1_555 1_555
C14 C15 1_555 1_555
C21 C22 1_555 1_555

#END
