
#######################################################################
#
#                 Cambridge Crystallographic Data Centre
#                                CCDC 
#
#######################################################################
#
# If this CIF has been generated from an entry in the Cambridge 
# Structural Database, then it will include bibliographic, chemical, 
# crystal, experimental, refinement or atomic coordinate data resulting 
# from the CCDC's data processing and validation procedures.
#
#######################################################################

data_CERKOA
_chemical_formula_moiety         'C21 H18 N2 O2'
_chemical_name_systematic        3-Phenyl-1,5-di-2-pyridylpentane-1,5-dione
_symmetry_cell_setting           triclinic
_symmetry_space_group_name_H-M   'P -1'
_symmetry_Int_Tables_number      2
_space_group_name_Hall           '-P 1'
loop_
_symmetry_equiv_pos_site_id
_symmetry_equiv_pos_as_xyz
1 x,y,z
2 -x,-y,-z
_cell_length_a                   8.464(3)
_cell_length_b                   10.484(4)
_cell_length_c                   10.713(4)
_cell_angle_alpha                94.449(4)
_cell_angle_beta                 111.377(4)
_cell_angle_gamma                100.396(4)
_cell_volume                     859.972
_exptl_crystal_colour            colorless
_exptl_crystal_description       block
_cell_formula_units_Z            2
_exptl_crystal_recrystallization_method ethanol
loop_
_atom_site_label
_atom_site_type_symbol
_atom_site_fract_x
_atom_site_fract_y
_atom_site_fract_z
O1 O 0.2523(2) 0.04482(13) 0.32665(13)
O2 O 0.48691(19) 0.07433(15) 0.81888(14)
C1 C 0.3514(2) 0.14577(17) 0.33106(17)
C2 C 0.4958(2) 0.21642(19) 0.46208(17)
H1 H 0.5120 0.3103 0.4615
H2 H 0.6033 0.1921 0.4681
C3 C 0.4582(2) 0.18461(17) 0.58714(16)
H3 H 0.4236 0.0889 0.5778
C4 C 0.6205(2) 0.23188(18) 0.71847(17)
H4 H 0.7203 0.2110 0.7040
H5 H 0.6424 0.3265 0.7407
C5 C 0.6017(2) 0.16999(18) 0.83613(18)
C6 C 0.3318(2) 0.20149(18) 0.20252(17)
N1 N 0.4275(3) 0.32040(18) 0.21427(17)
C7 C 0.4063(4) 0.3684(3) 0.0989(2)
H6 H 0.4714 0.4517 0.1044
C8 C 0.2951(4) 0.3031(3) -0.0268(2)
H7 H 0.2857 0.3415 -0.1038
C9 C 0.1989(3) 0.1815(2) -0.0373(2)
H8 H 0.1224 0.1347 -0.1215
C10 C 0.2173(3) 0.1294(2) 0.07942(19)
H9 H 0.1531 0.0461 0.0755
C11 C 0.3074(2) 0.24034(16) 0.59468(15)
C12 C 0.3174(3) 0.37470(17) 0.60856(18)
H10 H 0.4174 0.4316 0.6120
C13 C 0.1813(3) 0.4252(2) 0.6173(2)
H11 H 0.1907 0.5155 0.6273
C14 C 0.0317(3) 0.3425(2) 0.6112(2)
H12 H -0.0604 0.3764 0.6161
C15 C 0.0196(3) 0.2095(2) 0.59791(19)
H13 H -0.0808 0.1531 0.5943
C16 C 0.1562(2) 0.15925(18) 0.58995(17)
H14 H 0.1464 0.0689 0.5812
C17 C 0.7331(2) 0.22625(18) 0.97643(18)
N2 N 0.8480(2) 0.33683(16) 0.98995(16)
C18 C 0.9678(3) 0.3847(2) 1.1146(2)
H15 H 1.0483 0.4624 1.1264
C19 C 0.9779(3) 0.3252(3) 1.2261(2)
H16 H 1.0648 0.3611 1.3106
C20 C 0.8597(3) 0.2135(3) 1.2115(2)
H17 H 0.8637 0.1721 1.2859
C21 C 0.7334(3) 0.1620(2) 1.0848(2)
H18 H 0.6500 0.0858 1.0722
loop_
_geom_bond_atom_site_label_1
_geom_bond_atom_site_label_2
_geom_bond_site_symmetry_1
_geom_bond_site_symmetry_2
O1 C1 1_555 1_555
O2 C5 1_555 1_555
C1 C2 1_555 1_555
C2 H1 1_555 1_555
H2 C2 1_555 1_555
C3 C2 1_555 1_555
H3 C3 1_555 1_555
C4 C3 1_555 1_555
H4 C4 1_555 1_555
H5 C4 1_555 1_555
C5 C4 1_555 1_555
C6 C1 1_555 1_555
N1 C6 1_555 1_555
C7 N1 1_555 1_555
H6 C7 1_555 1_555
C8 C7 1_555 1_555
H7 C8 1_555 1_555
C9 C8 1_555 1_555
H8 C9 1_555 1_555
C10 C6 1_555 1_555
H9 C10 1_555 1_555
C11 C3 1_555 1_555
C12 C11 1_555 1_555
H10 C12 1_555 1_555
C13 C12 1_555 1_555
H11 C13 1_555 1_555
C14 C13 1_555 1_555
H12 C14 1_555 1_555
C15 C14 1_555 1_555
H13 C15 1_555 1_555
C16 C11 1_555 1_555
H14 C16 1_555 1_555
C17 C5 1_555 1_555
N2 C17 1_555 1_555
C18 N2 1_555 1_555
H15 C18 1_555 1_555
C19 C18 1_555 1_555
H16 C19 1_555 1_555
C20 C19 1_555 1_555
H17 C20 1_555 1_555
C21 C17 1_555 1_555
H18 C21 1_555 1_555
C9 C10 1_555 1_555
C15 C16 1_555 1_555
C20 C21 1_555 1_555

#END
