
#######################################################################
#
#                 Cambridge Crystallographic Data Centre
#                                CCDC 
#
#######################################################################
#
# If this CIF has been generated from an entry in the Cambridge 
# Structural Database, then it will include bibliographic, chemical, 
# crystal, experimental, refinement or atomic coordinate data resulting 
# from the CCDC's data processing and validation procedures.
#
#######################################################################

data_CERLER
_chemical_formula_moiety         'C8 H10 N2 O2'
_chemical_name_systematic        '3-Methoxybenzamide oxime'
_symmetry_cell_setting           monoclinic
_symmetry_space_group_name_H-M   'P 21/c'
_symmetry_Int_Tables_number      14
_space_group_name_Hall           '-P 2ybc'
loop_
_symmetry_equiv_pos_site_id
_symmetry_equiv_pos_as_xyz
1 x,y,z
2 -x,1/2+y,1/2-z
3 -x,-y,-z
4 x,1/2-y,1/2+z
_cell_length_a                   6.8630(14)
_cell_length_b                   18.910(4)
_cell_length_c                   12.893(3)
_cell_angle_alpha                90
_cell_angle_beta                 101.77(3)
_cell_angle_gamma                90
_cell_volume                     1638.06
_exptl_crystal_colour            colorless
_exptl_crystal_description       Block
_cell_formula_units_Z            8
_exptl_crystal_recrystallization_method ethanol
loop_
_atom_site_label
_atom_site_type_symbol
_atom_site_fract_x
_atom_site_fract_y
_atom_site_fract_z
O1 O 1.1321(3) 0.71692(10) 0.65094(15)
O2 O 0.4851(2) 0.93287(10) 0.41156(14)
H1 H 0.5455 0.9583 0.3774
N1 N 0.3359(3) 0.85808(14) 0.54115(19)
H2 H 0.2609 0.8842 0.4948
H3 H 0.2845 0.8329 0.5843
N2 N 0.6233(3) 0.89226(11) 0.48501(16)
C1 C 1.2463(4) 0.66456(16) 0.7174(3)
H4 H 1.2950 0.6841 0.7866
H5 H 1.3567 0.6501 0.6871
H6 H 1.1638 0.6243 0.7231
C2 C 0.9572(4) 0.73885(13) 0.6778(2)
C3 C 0.8961(4) 0.71853(15) 0.7691(2)
H7 H 0.9716 0.6871 0.8164
C4 C 0.7204(4) 0.74593(17) 0.7885(2)
H8 H 0.6796 0.7336 0.8506
C5 C 0.6046(4) 0.79108(15) 0.7178(2)
H9 H 0.4872 0.8090 0.7329
C6 C 0.6613(3) 0.80992(13) 0.62471(18)
C7 C 0.8399(3) 0.78339(12) 0.60568(19)
H10 H 0.8810 0.7957 0.5437
C8 C 0.5362(3) 0.85654(13) 0.54615(19)
O3 O 0.2607(3) 1.04883(11) 0.05775(15)
O4 O 0.9629(2) 0.93568(10) 0.41696(14)
H11 H 0.9078 0.9174 0.4610
N3 N 1.1066(3) 1.01676(13) 0.29129(18)
H12 H 1.1846 0.9922 0.3385
H13 H 1.1554 1.0432 0.2487
N4 N 0.8212(3) 0.97593(11) 0.34384(16)
C9 C 0.1293(4) 1.08501(17) -0.0255(2)
H14 H 0.1110 1.1328 -0.0040
H15 H 0.0030 1.0612 -0.0405
H16 H 0.1853 1.0854 -0.0879
C10 C 0.4525(4) 1.07439(14) 0.0874(2)
C11 C 0.5778(4) 1.03486(13) 0.16353(19)
H17 H 0.5311 0.9936 0.1892
C12 C 0.7738(3) 1.05649(13) 0.20199(19)
C13 C 0.8405(4) 1.11758(13) 0.1615(2)
H18 H 0.9706 1.1327 0.1862
C14 C 0.7161(4) 1.15619(15) 0.0849(2)
H19 H 0.7632 1.1972 0.0585
C15 C 0.5208(4) 1.13472(15) 0.0463(2)
H20 H 0.4379 1.1606 -0.0062
C16 C 0.9056(3) 1.01372(13) 0.28397(19)
loop_
_geom_bond_atom_site_label_1
_geom_bond_atom_site_label_2
_geom_bond_site_symmetry_1
_geom_bond_site_symmetry_2
O1 C1 1_555 1_555
O2 H1 1_555 1_555
N1 H2 1_555 1_555
H3 N1 1_555 1_555
N2 O2 1_555 1_555
C1 H4 1_555 1_555
H5 C1 1_555 1_555
H6 C1 1_555 1_555
C2 O1 1_555 1_555
C3 C2 1_555 1_555
H7 C3 1_555 1_555
C4 C3 1_555 1_555
H8 C4 1_555 1_555
C5 C4 1_555 1_555
H9 C5 1_555 1_555
C6 C5 1_555 1_555
C7 C2 1_555 1_555
H10 C7 1_555 1_555
C8 N1 1_555 1_555
O3 C9 1_555 1_555
O4 H11 1_555 1_555
N3 H12 1_555 1_555
H13 N3 1_555 1_555
N4 O4 1_555 1_555
C9 H14 1_555 1_555
H15 C9 1_555 1_555
H16 C9 1_555 1_555
C10 O3 1_555 1_555
C11 C10 1_555 1_555
H17 C11 1_555 1_555
C12 C11 1_555 1_555
C13 C12 1_555 1_555
H18 C13 1_555 1_555
C14 C13 1_555 1_555
H19 C14 1_555 1_555
C15 C10 1_555 1_555
H20 C15 1_555 1_555
C16 N3 1_555 1_555
N2 C8 1_555 1_555
C6 C7 1_555 1_555
C6 C8 1_555 1_555
N4 C16 1_555 1_555
C12 C16 1_555 1_555
C14 C15 1_555 1_555

#END
