
#######################################################################
#
#                 Cambridge Crystallographic Data Centre
#                                CCDC 
#
#######################################################################
#
# If this CIF has been generated from an entry in the Cambridge 
# Structural Database, then it will include bibliographic, chemical, 
# crystal, experimental, refinement or atomic coordinate data resulting 
# from the CCDC's data processing and validation procedures.
#
#######################################################################

data_CERMOE
_chemical_compound_source        'edible lichen Lobaria sp.'
_chemical_name_common            'lobarioid A unknown solvate'
_chemical_formula_moiety         'C20 H18 O9'
_chemical_name_systematic        
'methyl 1,3-dihydroxy-8-methoxy-2,10-dimethyl-4-oxo-4,5a-dihydro-7H-benzo[b]furo[2,3,4-fg][1,5]benzodioxocine-11-carboxylate unknown solvate'
_chemical_properties_biological  
'antibacterial activity against three strains of gram-positive bacteria'
_symmetry_cell_setting           monoclinic
_symmetry_space_group_name_H-M   'C 2/c'
_symmetry_Int_Tables_number      15
_space_group_name_Hall           '-C 2yn'
loop_
_symmetry_equiv_pos_site_id
_symmetry_equiv_pos_as_xyz
1 x,y,z
2 -x,y,1/2-z
3 1/2+x,1/2+y,z
4 1/2-x,1/2+y,1/2-z
5 -x,-y,-z
6 x,-y,1/2+z
7 1/2-x,1/2-y,-z
8 1/2+x,1/2-y,1/2+z
_cell_length_a                   28.188(4)
_cell_length_b                   8.9879(12)
_cell_length_c                   21.064(3)
_cell_angle_alpha                90
_cell_angle_beta                 124.905(2)
_cell_angle_gamma                90
_cell_volume                     4376.54
_exptl_crystal_colour            colorless
_exptl_crystal_description       block
_cell_formula_units_Z            8
loop_
_atom_site_label
_atom_site_type_symbol
_atom_site_fract_x
_atom_site_fract_y
_atom_site_fract_z
O1 O 0.02805(4) 0.38132(11) 0.06349(5)
O2 O 0.25691(3) 0.49240(9) 0.34703(5)
O3 O 0.39775(4) 0.54450(14) 0.52482(6)
O4 O 0.16338(4) 0.35217(11) 0.46907(5)
O5 O 0.17641(4) 0.23858(9) 0.29920(5)
O6 O 0.06023(4) 0.72010(10) 0.07914(5)
H1 H 0.0382 0.6513 0.0503
O7 O 0.23899(4) 0.80400(10) 0.31654(5)
H2 H 0.2669 0.7593 0.3549
O8 O 0.34264(4) 0.71798(11) 0.43670(6)
C1 C 0.07702(5) 0.38365(13) 0.12110(7)
C2 C 0.11678(5) 0.50848(12) 0.15766(6)
C3 C 0.16688(5) 0.45621(12) 0.22435(6)
C4 C 0.20853(5) 0.54951(12) 0.27918(6)
C5 C 0.25278(5) 0.48552(13) 0.41007(6)
C6 C 0.29998(5) 0.54715(14) 0.47862(7)
C7 C 0.34786(5) 0.61358(15) 0.47700(7)
C8 C 0.44723(7) 0.6040(3) 0.52803(11)
H3 H 0.4396 0.5988 0.4765
H4 H 0.4818 0.5454 0.5646
H5 H 0.4535 0.7079 0.5452
C9 C 0.16138(7) 0.35399(17) 0.53570(9)
H6 H 0.1971 0.3110 0.5801
H7 H 0.1282 0.2954 0.5249
H8 H 0.1574 0.4568 0.5476
C10 C 0.20904(5) 0.41810(14) 0.47499(7)
C11 C 0.25458(5) 0.48441(14) 0.54261(7)
H9 H 0.2539 0.4873 0.5871
C12 C 0.30109(5) 0.54646(15) 0.54579(7)
C13 C 0.16304(5) 0.29089(12) 0.22904(6)
H10 H 0.1893 0.2425 0.2175
C14 C 0.15798(5) 0.33015(13) 0.33777(7)
H11 H 0.1392 0.2662 0.3556
H12 H 0.1288 0.4025 0.3002
C15 C 0.20749(5) 0.41423(13) 0.40662(6)
O9 O 0.10258(4) 0.25911(9) 0.16527(5)
C16 C 0.10818(5) 0.66098(13) 0.14287(6)
C17 C 0.15043(5) 0.75993(12) 0.19730(7)
C18 C 0.20029(5) 0.70370(12) 0.26536(6)
C19 C 0.14125(6) 0.92481(13) 0.18417(8)
H13 H 0.1036 0.9515 0.1736
H14 H 0.1421 0.9528 0.1399
H15 H 0.1720 0.9776 0.2305
C20 C 0.34978(6) 0.61724(19) 0.62001(8)
H16 H 0.3396 0.6206 0.6573
H17 H 0.3563 0.7186 0.6094
H18 H 0.3851 0.5585 0.6415
loop_
_geom_bond_atom_site_label_1
_geom_bond_atom_site_label_2
_geom_bond_site_symmetry_1
_geom_bond_site_symmetry_2
O1 C1 1_555 1_555
O2 C4 1_555 1_555
O3 C7 1_555 1_555
O4 C9 1_555 1_555
O5 C13 1_555 1_555
O6 H1 1_555 1_555
O7 H2 1_555 1_555
O8 C7 1_555 1_555
C1 C2 1_555 1_555
C2 C3 1_555 1_555
C3 C4 1_555 1_555
C4 C18 1_555 1_555
C5 O2 1_555 1_555
C6 C5 1_555 1_555
C7 C6 1_555 1_555
C8 O3 1_555 1_555
H3 C8 1_555 1_555
H4 C8 1_555 1_555
H5 C8 1_555 1_555
C9 H6 1_555 1_555
H7 C9 1_555 1_555
H8 C9 1_555 1_555
C10 O4 1_555 1_555
C11 C10 1_555 1_555
H9 C11 1_555 1_555
C12 C6 1_555 1_555
C13 C3 1_555 1_555
H10 C13 1_555 1_555
C14 O5 1_555 1_555
H11 C14 1_555 1_555
H12 C14 1_555 1_555
C15 C5 1_555 1_555
O9 C1 1_555 1_555
C16 O6 1_555 1_555
C17 C16 1_555 1_555
C18 O7 1_555 1_555
C19 C17 1_555 1_555
H13 C19 1_555 1_555
H14 C19 1_555 1_555
H15 C19 1_555 1_555
C20 C12 1_555 1_555
H16 C20 1_555 1_555
H17 C20 1_555 1_555
H18 C20 1_555 1_555
C2 C16 1_555 1_555
C10 C15 1_555 1_555
C11 C12 1_555 1_555
C13 O9 1_555 1_555
C14 C15 1_555 1_555
C17 C18 1_555 1_555

#END
