
#######################################################################
#
#                 Cambridge Crystallographic Data Centre
#                                CCDC 
#
#######################################################################
#
# If this CIF has been generated from an entry in the Cambridge 
# Structural Database, then it will include bibliographic, chemical, 
# crystal, experimental, refinement or atomic coordinate data resulting 
# from the CCDC's data processing and validation procedures.
#
#######################################################################

data_CERMES02
_chemical_formula_moiety         'C10 H19 N2 O4 P1'
_chemical_name_systematic        
(3S,5\L,8S)-3,8-bis(Propan-2-yl)-1,6-dioxa-4,9-diaza-5\l^5^-phosphaspiro[4.4]nonane-2,7-dione
_symmetry_cell_setting           monoclinic
_symmetry_space_group_name_H-M   'P 21'
_symmetry_Int_Tables_number      4
_space_group_name_Hall           'P 2yb'
loop_
_symmetry_equiv_pos_site_id
_symmetry_equiv_pos_as_xyz
1 x,y,z
2 -x,1/2+y,-z
_cell_length_a                   10.307(2)
_cell_length_b                   5.9991(12)
_cell_length_c                   11.119(2)
_cell_angle_alpha                90
_cell_angle_beta                 103.388(3)
_cell_angle_gamma                90
_cell_volume                     668.834
_exptl_crystal_colour            colorless
_exptl_crystal_description       needle
_chemical_melting_point          'above 180deg.C(dec)'
_cell_formula_units_Z            2
_exptl_crystal_recrystallization_method chloroform
loop_
_atom_site_label
_atom_site_type_symbol
_atom_site_fract_x
_atom_site_fract_y
_atom_site_fract_z
O1 O 0.20139(15) 0.9433(3) 0.07593(17)
O2 O 0.04075(19) 1.1311(3) 0.1306(2)
C1 C 0.0967(2) 0.9578(4) 0.1229(2)
C2 C 0.0572(2) 0.7360(4) 0.1663(2)
H1 H -0.0292 0.6921 0.1141
N1 N 0.15787(19) 0.5847(3) 0.14500(18)
H2 H 0.1592 0.4481 0.1687
P1 P 0.26867(5) 0.67786(10) 0.07510(4)
H3 H 0.2391 0.6750 -0.0419
O3 O 0.33615(15) 0.4124(3) 0.07539(16)
O4 O 0.52408(19) 0.2240(3) 0.12971(19)
C3 C 0.4644(2) 0.3981(4) 0.1226(2)
C4 C 0.5258(2) 0.6198(4) 0.1656(2)
H4 H 0.5859 0.6635 0.1131
N2 N 0.41450(17) 0.7711(3) 0.14471(18)
H5 H 0.4250 0.9076 0.1686
C5 C 0.0454(3) 0.7483(5) 0.3004(3)
H6 H -0.0244 0.8573 0.3043
C6 C 0.1722(3) 0.8275(8) 0.3858(3)
H7 H 0.1603 0.8337 0.4689
H8 H 0.1941 0.9733 0.3609
H9 H 0.2433 0.7260 0.3822
C7 C 0.0022(5) 0.5278(8) 0.3419(4)
H10 H -0.0051 0.5392 0.4263
H11 H 0.0669 0.4159 0.3357
H12 H -0.0828 0.4874 0.2905
C8 C 0.6053(2) 0.6064(5) 0.2997(2)
H13 H 0.6769 0.4975 0.3031
C9 C 0.6696(4) 0.8268(7) 0.3409(4)
H14 H 0.7193 0.8156 0.4251
H15 H 0.6019 0.9389 0.3348
H16 H 0.7286 0.8669 0.2891
C10 C 0.5203(3) 0.5247(8) 0.3845(3)
H17 H 0.5732 0.5181 0.4678
H18 H 0.4867 0.3788 0.3590
H19 H 0.4470 0.6253 0.3808
loop_
_geom_bond_atom_site_label_1
_geom_bond_atom_site_label_2
_geom_bond_site_symmetry_1
_geom_bond_site_symmetry_2
O1 C1 1_555 1_555
O2 C1 1_555 1_555
C1 C2 1_555 1_555
C2 H1 1_555 1_555
N1 C2 1_555 1_555
H2 N1 1_555 1_555
P1 O1 1_555 1_555
H3 P1 1_555 1_555
O3 P1 1_555 1_555
O4 C3 1_555 1_555
C3 O3 1_555 1_555
C4 C3 1_555 1_555
H4 C4 1_555 1_555
N2 P1 1_555 1_555
H5 N2 1_555 1_555
C5 C2 1_555 1_555
H6 C5 1_555 1_555
C6 C5 1_555 1_555
H7 C6 1_555 1_555
H8 C6 1_555 1_555
H9 C6 1_555 1_555
C7 C5 1_555 1_555
H10 C7 1_555 1_555
H11 C7 1_555 1_555
H12 C7 1_555 1_555
C8 C4 1_555 1_555
H13 C8 1_555 1_555
C9 C8 1_555 1_555
H14 C9 1_555 1_555
H15 C9 1_555 1_555
H16 C9 1_555 1_555
C10 C8 1_555 1_555
H17 C10 1_555 1_555
H18 C10 1_555 1_555
H19 C10 1_555 1_555
N1 P1 1_555 1_555
C4 N2 1_555 1_555

#END
