
#######################################################################
#
#                 Cambridge Crystallographic Data Centre
#                                CCDC 
#
#######################################################################
#
# If this CIF has been generated from an entry in the Cambridge 
# Structural Database, then it will include bibliographic, chemical, 
# crystal, experimental, refinement or atomic coordinate data resulting 
# from the CCDC's data processing and validation procedures.
#
#######################################################################

data_CERPEV
_chemical_formula_moiety         'C18 H14 O6 S2'
_chemical_name_systematic        'p-Phenylene bis(benzenesulfonate)'
_symmetry_cell_setting           triclinic
_symmetry_space_group_name_H-M   'P -1'
_symmetry_Int_Tables_number      2
_space_group_name_Hall           '-P 1'
loop_
_symmetry_equiv_pos_site_id
_symmetry_equiv_pos_as_xyz
1 x,y,z
2 -x,-y,-z
_cell_length_a                   8.225(2)
_cell_length_b                   10.664(3)
_cell_length_c                   12.493(3)
_cell_angle_alpha                101.125(4)
_cell_angle_beta                 109.046(4)
_cell_angle_gamma                110.346(4)
_cell_volume                     911.283
_exptl_crystal_colour            colorless
_exptl_crystal_description       block
_chemical_melting_point          '388-389 K'
_cell_formula_units_Z            2
_exptl_crystal_recrystallization_method ethanol
loop_
_atom_site_label
_atom_site_type_symbol
_atom_site_fract_x
_atom_site_fract_y
_atom_site_fract_z
S1 S 0.02464(11) 0.98717(8) 0.79836(6)
O1 O 0.2428(3) 1.09633(18) 0.88713(16)
O2 O -0.0563(4) 1.0777(3) 0.7634(2)
O3 O -0.0533(3) 0.8953(3) 0.85588(19)
C1 C 0.0422(3) 0.8883(3) 0.6770(2)
C2 C -0.0415(4) 0.7427(3) 0.6443(3)
H1 H -0.1000 0.6991 0.6882
C3 C -0.0380(5) 0.6633(4) 0.5474(4)
H2 H -0.0965 0.5644 0.5240
C4 C 0.0488(6) 0.7255(5) 0.4848(3)
H3 H 0.0486 0.6689 0.4179
C5 C 0.1387(6) 0.8723(5) 0.5179(3)
H4 H 0.2016 0.9142 0.4751
C6 C 0.1341(4) 0.9567(3) 0.6162(3)
H5 H 0.1911 1.0556 0.6397
C7 C 0.3697(4) 1.0426(2) 0.9433(2)
C8 C 0.3581(4) 0.9974(3) 1.0375(2)
H6 H 0.2626 0.9965 1.0621
C9 C 0.5092(4) 1.0465(3) 0.9052(2)
H7 H 0.5143 1.0782 0.8415
S1A S 0.97536(11) 1.01283(8) 1.20164(6)
O1A O 0.7572(3) 0.90367(18) 1.11287(16)
O2A O 1.0563(4) 0.9223(3) 1.2366(2)
O3A O 1.0533(3) 1.1047(3) 1.14412(19)
C1A C 0.9578(3) 1.1117(3) 1.3230(2)
C2A C 1.0415(4) 1.2573(3) 1.3557(3)
H1A H 1.1000 1.3009 1.3118
C3A C 1.0380(5) 1.3367(4) 1.4526(4)
H2A H 1.0965 1.4356 1.4760
C4A C 0.9512(6) 1.2745(5) 1.5152(3)
H3A H 0.9514 1.3311 1.5821
C5A C 0.8613(6) 1.1277(5) 1.4821(3)
H4A H 0.7984 1.0858 1.5249
C6A C 0.8659(4) 1.0433(3) 1.3838(3)
H5A H 0.8089 0.9444 1.3603
C7A C 0.6303(4) 0.9574(2) 1.0567(2)
C8A C 0.6419(4) 1.0026(3) 0.9625(2)
H6A H 0.7374 1.0035 0.9379
C9A C 0.4908(4) 0.9535(3) 1.0948(2)
H7A H 0.4857 0.9218 1.1585
S2 S 0.39752(10) 0.64022(8) 0.32249(6)
O4 O 0.1719(2) 0.54401(19) 0.24340(16)
O5 O 0.4517(3) 0.7681(2) 0.2965(2)
O6 O 0.4199(3) 0.6432(3) 0.44020(18)
C10 C 0.4988(4) 0.5378(3) 0.2687(2)
C11 C 0.5723(4) 0.5687(4) 0.1873(3)
H8 H 0.5698 0.6442 0.1611
C12 C 0.6498(5) 0.4845(6) 0.1456(3)
H9 H 0.6976 0.5025 0.0893
C13 C 0.6569(5) 0.3753(5) 0.1860(4)
H10 H 0.7111 0.3206 0.1580
C14 C 0.5847(5) 0.3461(4) 0.2673(3)
H11 H 0.5893 0.2714 0.2942
C15 C 0.5055(4) 0.4269(3) 0.3090(3)
H12 H 0.4564 0.4072 0.3643
C16 C 0.0898(3) 0.5244(3) 0.1190(2)
C17 C 0.0601(4) 0.6317(3) 0.0835(2)
H13 H 0.1009 0.7196 0.1403
C18 C 0.0313(4) 0.3934(3) 0.0381(3)
H14 H 0.0529 0.3226 0.0648
S2A S -0.39752(10) 0.35978(8) -0.32249(6)
O4A O -0.1719(2) 0.45599(19) -0.24340(16)
O5A O -0.4517(3) 0.2319(2) -0.2965(2)
O6A O -0.4199(3) 0.3568(3) -0.44020(18)
C10A C -0.4988(4) 0.4622(3) -0.2687(2)
C11A C -0.5723(4) 0.4313(4) -0.1873(3)
H8A H -0.5698 0.3558 -0.1611
C12A C -0.6498(5) 0.5155(6) -0.1456(3)
H9A H -0.6976 0.4975 -0.0893
C13A C -0.6569(5) 0.6247(5) -0.1860(4)
H10A H -0.7111 0.6794 -0.1580
C14A C -0.5847(5) 0.6539(4) -0.2673(3)
H11A H -0.5893 0.7286 -0.2942
C15A C -0.5055(4) 0.5731(3) -0.3090(3)
H12A H -0.4564 0.5928 -0.3643
C16A C -0.0898(3) 0.4756(3) -0.1190(2)
C17A C -0.0601(4) 0.3683(3) -0.0835(2)
H13A H -0.1009 0.2804 -0.1403
C18A C -0.0313(4) 0.6066(3) -0.0381(3)
H14A H -0.0529 0.6774 -0.0648
loop_
_geom_bond_atom_site_label_1
_geom_bond_atom_site_label_2
_geom_bond_site_symmetry_1
_geom_bond_site_symmetry_2
S1 O1 1_555 1_555
S2 O4 1_555 1_555
O1 C7 1_555 1_555
O2 S1 1_555 1_555
O3 S1 1_555 1_555
O4 C16 1_555 1_555
O5 S2 1_555 1_555
O6 S2 1_555 1_555
C1 S1 1_555 1_555
C2 C1 1_555 1_555
H1 C2 1_555 1_555
C3 C2 1_555 1_555
H2 C3 1_555 1_555
C4 C3 1_555 1_555
H3 C4 1_555 1_555
C5 C4 1_555 1_555
H4 C5 1_555 1_555
C6 C1 1_555 1_555
H5 C6 1_555 1_555
C7 C8 1_555 1_555
C8 H6 1_555 1_555
C9 C7 1_555 1_555
H7 C9 1_555 1_555
C10 S2 1_555 1_555
C11 C10 1_555 1_555
H8 C11 1_555 1_555
C12 C11 1_555 1_555
H9 C12 1_555 1_555
C13 C12 1_555 1_555
H10 C13 1_555 1_555
C14 C13 1_555 1_555
H11 C14 1_555 1_555
C15 C10 1_555 1_555
H12 C15 1_555 1_555
C16 C17 1_555 1_555
C17 H13 1_555 1_555
C18 C16 1_555 1_555
H14 C18 1_555 1_555
S1A O1A 1_555 1_555
S2A O4A 1_555 1_555
O1A C7A 1_555 1_555
O2A S1A 1_555 1_555
O3A S1A 1_555 1_555
O4A C16A 1_555 1_555
O5A S2A 1_555 1_555
O6A S2A 1_555 1_555
C1A S1A 1_555 1_555
C2A C1A 1_555 1_555
H1A C2A 1_555 1_555
C3A C2A 1_555 1_555
H2A C3A 1_555 1_555
C4A C3A 1_555 1_555
H3A C4A 1_555 1_555
C5A C4A 1_555 1_555
H4A C5A 1_555 1_555
C6A C1A 1_555 1_555
H5A C6A 1_555 1_555
C7A C8A 1_555 1_555
C8A C9 1_555 1_555
H6A C8A 1_555 1_555
C9A C8 1_555 1_555
H7A C9A 1_555 1_555
C10A S2A 1_555 1_555
C11A C10A 1_555 1_555
H8A C11A 1_555 1_555
C12A C11A 1_555 1_555
H9A C12A 1_555 1_555
C13A C12A 1_555 1_555
H10A C13A 1_555 1_555
C14A C13A 1_555 1_555
H11A C14A 1_555 1_555
C15A C10A 1_555 1_555
H12A C15A 1_555 1_555
C16A C17A 1_555 1_555
C17A C18 1_555 1_555
H13A C17A 1_555 1_555
C18A C17 1_555 1_555
H14A C18A 1_555 1_555
C5 C6 1_555 1_555
C14 C15 1_555 1_555
C5A C6A 1_555 1_555
C7A C9A 1_555 1_555
C14A C15A 1_555 1_555
C16A C18A 1_555 1_555

#END
