
#######################################################################
#
#                 Cambridge Crystallographic Data Centre
#                                CCDC 
#
#######################################################################
#
# If this CIF has been generated from an entry in the Cambridge 
# Structural Database, then it will include bibliographic, chemical, 
# crystal, experimental, refinement or atomic coordinate data resulting 
# from the CCDC's data processing and validation procedures.
#
#######################################################################

data_CERQIA
_chemical_formula_moiety         'C7 H7 N1 O4'
_chemical_name_systematic        '2-Hydroxy-5-nitrobenzyl alcohol'
_symmetry_cell_setting           monoclinic
_symmetry_space_group_name_H-M   'P 21/c'
_symmetry_Int_Tables_number      14
_space_group_name_Hall           '-P 2ybc'
loop_
_symmetry_equiv_pos_site_id
_symmetry_equiv_pos_as_xyz
1 x,y,z
2 -x,1/2+y,1/2-z
3 -x,-y,-z
4 x,1/2-y,1/2+z
_cell_length_a                   7.2099(3)
_cell_length_b                   9.6277(4)
_cell_length_c                   21.5374(8)
_cell_angle_alpha                90
_cell_angle_beta                 98.0910(10)
_cell_angle_gamma                90
_cell_volume                     1480.13
_exptl_crystal_colour            colorless
_exptl_crystal_description       block
_cell_formula_units_Z            8
_exptl_crystal_recrystallization_method dichloromethane
loop_
_atom_site_label
_atom_site_type_symbol
_atom_site_fract_x
_atom_site_fract_y
_atom_site_fract_z
O1 O 0.2755(2) 0.33267(15) 0.48529(6)
H1 H 0.2494 0.2628 0.5058
O2 O 0.1780(2) 0.63975(15) 0.41541(7)
H2 H 0.1114 0.6523 0.3806
O3 O 0.1452(2) 0.34286(18) 0.19393(7)
O4 O 0.0209(3) 0.14567(17) 0.20940(8)
N1 N 0.1067(2) 0.24963(17) 0.22927(8)
C1 C 0.2717(2) 0.41322(19) 0.38243(8)
C2 C 0.2389(2) 0.3052(2) 0.42366(8)
C3 C 0.1701(3) 0.1770(2) 0.40011(9)
H5 H 0.1531 0.1035 0.4282
C4 C 0.1268(2) 0.15699(19) 0.33637(9)
H6 H 0.0770 0.0709 0.3201
C5 C 0.1574(2) 0.26575(19) 0.29604(8)
C6 C 0.2318(2) 0.39168(19) 0.31856(8)
H7 H 0.2553 0.4629 0.2902
C7 C 0.3357(3) 0.5536(2) 0.40700(9)
H8 H 0.4178 0.5429 0.4476
H9 H 0.4094 0.5989 0.3772
O5 O 0.2521(2) 0.85147(15) 0.49334(6)
H3 H 0.2270 0.7837 0.4691
O6 O 0.2218(2) 1.13132(16) 0.56451(7)
H4 H 0.1683 1.1470 0.5960
O7 O 0.4255(4) 0.7710(3) 0.78188(9)
O8 O 0.3134(4) 0.5693(3) 0.75622(11)
N2 N 0.3531(3) 0.6861(3) 0.74242(10)
C8 C 0.3407(3) 0.9031(2) 0.59983(9)
C9 C 0.2728(3) 0.8069(2) 0.55311(9)
C10 C 0.2307(3) 0.6710(2) 0.56907(10)
H10 H 0.1853 0.6063 0.5372
C11 C 0.2553(3) 0.6309(2) 0.63122(11)
H11 H 0.2261 0.5390 0.6426
C12 C 0.3233(3) 0.7272(2) 0.67683(9)
C13 C 0.3665(3) 0.8611(2) 0.66183(9)
H12 H 0.4140 0.9246 0.6940
C14 C 0.3868(3) 1.0493(2) 0.58293(9)
H13 H 0.4630 1.0936 0.6194
H14 H 0.4629 1.0471 0.5481
loop_
_geom_bond_atom_site_label_1
_geom_bond_atom_site_label_2
_geom_bond_site_symmetry_1
_geom_bond_site_symmetry_2
O1 H1 1_555 1_555
O2 H2 1_555 1_555
O3 N1 1_555 1_555
O4 N1 1_555 1_555
N1 C5 1_555 1_555
O5 H3 1_555 1_555
O6 H4 1_555 1_555
O7 N2 1_555 1_555
O8 N2 1_555 1_555
N2 C12 1_555 1_555
C1 C2 1_555 1_555
C2 O1 1_555 1_555
C3 C2 1_555 1_555
H5 C3 1_555 1_555
C4 C3 1_555 1_555
H6 C4 1_555 1_555
C5 C4 1_555 1_555
C6 C1 1_555 1_555
H7 C6 1_555 1_555
C7 O2 1_555 1_555
H8 C7 1_555 1_555
H9 C7 1_555 1_555
C8 C9 1_555 1_555
C9 O5 1_555 1_555
C10 C9 1_555 1_555
H10 C10 1_555 1_555
C11 C10 1_555 1_555
H11 C11 1_555 1_555
C12 C11 1_555 1_555
C13 C8 1_555 1_555
H12 C13 1_555 1_555
C14 O6 1_555 1_555
H13 C14 1_555 1_555
H14 C14 1_555 1_555
C1 C7 1_555 1_555
C5 C6 1_555 1_555
C8 C14 1_555 1_555
C12 C13 1_555 1_555

#END
