
#######################################################################
#
#                 Cambridge Crystallographic Data Centre
#                                CCDC 
#
#######################################################################
#
# If this CIF has been generated from an entry in the Cambridge 
# Structural Database, then it will include bibliographic, chemical, 
# crystal, experimental, refinement or atomic coordinate data resulting 
# from the CCDC's data processing and validation procedures.
#
#######################################################################

data_CERTAW
_chemical_formula_moiety         'C33 H35 N1 O1'
_chemical_name_systematic        
(2-t-Butyl-6-(2,6-bis(3,5-dimethylphenyl)phenylimino)methyl)phenol
_symmetry_cell_setting           monoclinic
_symmetry_space_group_name_H-M   'P 21/c'
_symmetry_Int_Tables_number      14
_space_group_name_Hall           '-P 2ybc'
loop_
_symmetry_equiv_pos_site_id
_symmetry_equiv_pos_as_xyz
1 x,y,z
2 -x,1/2+y,1/2-z
3 -x,-y,-z
4 x,1/2-y,1/2+z
_cell_length_a                   17.82(3)
_cell_length_b                   9.53(2)
_cell_length_c                   16.95(3)
_cell_angle_alpha                90
_cell_angle_beta                 98.92(3)
_cell_angle_gamma                90
_cell_volume                     2843.71
_exptl_crystal_colour            yellow
_exptl_crystal_description       block
_cell_formula_units_Z            4
loop_
_atom_site_label
_atom_site_type_symbol
_atom_site_fract_x
_atom_site_fract_y
_atom_site_fract_z
C1 C 0.86692(8) 0.94489(16) 0.25379(8)
C2 C 0.84285(8) 0.96536(15) 0.33004(8)
C3 C 0.89581(9) 0.94578(17) 0.40074(9)
H1 H 0.8805 0.9593 0.4514
C4 C 0.96990(9) 0.90702(19) 0.39592(9)
H2 H 1.0057 0.8953 0.4432
C5 C 0.99192(9) 0.88500(18) 0.32048(10)
H3 H 1.0428 0.8573 0.3185
C6 C 0.94238(9) 0.90192(16) 0.24801(9)
C7 C 0.96762(9) 0.87354(18) 0.16544(9)
C8 C 0.96023(12) 1.0099(2) 0.11471(11)
H4 H 0.9072 1.0414 0.1064
H5 H 0.9762 0.9914 0.0629
H6 H 0.9926 1.0831 0.1428
C9 C 1.05213(10) 0.8250(2) 0.17468(11)
H7 H 1.0659 0.8076 0.1218
H8 H 1.0586 0.7386 0.2063
H9 H 1.0850 0.8985 0.2018
C10 C 0.91801(10) 0.7551(2) 0.12101(10)
H10 H 0.8648 0.7851 0.1112
H11 H 0.9228 0.6700 0.1538
H12 H 0.9352 0.7356 0.0699
C11 C 0.76337(8) 0.99705(15) 0.33625(8)
H13 H 0.7498 1.0142 0.3874
C12 C 0.63182(8) 1.01373(15) 0.27921(8)
C13 C 0.59709(8) 0.93685(16) 0.33661(8)
C14 C 0.51760(8) 0.94981(16) 0.33491(8)
H14 H 0.4943 0.9042 0.3747
C15 C 0.47286(8) 1.02829(16) 0.27591(8)
H15 H 0.4195 1.0343 0.2752
C16 C 0.50686(9) 1.09828(16) 0.21771(8)
H16 H 0.4760 1.1503 0.1772
C17 C 0.58618(8) 1.09286(15) 0.21820(8)
C18 C 0.61882(8) 1.16501(16) 0.15206(8)
C19 C 0.58394(9) 1.14394(16) 0.07216(8)
H17 H 0.5407 1.0847 0.0617
C20 C 0.61168(9) 1.20857(16) 0.00738(8)
C21 C 0.67555(9) 1.29565(17) 0.02468(9)
H18 H 0.6950 1.3395 -0.0182
C22 C 0.71187(9) 1.32044(17) 0.10312(9)
C23 C 0.68301(8) 1.25413(16) 0.16657(9)
H19 H 0.7071 1.2696 0.2199
C24 C 0.78119(10) 1.4160(2) 0.11863(11)
H20 H 0.8247 1.3691 0.1012
H21 H 0.7929 1.4367 0.1759
H22 H 0.7705 1.5037 0.0888
C25 C 0.57437(10) 1.1801(2) -0.07823(9)
H23 H 0.5922 1.2490 -0.1140
H24 H 0.5191 1.1874 -0.0819
H25 H 0.5878 1.0854 -0.0939
C26 C 0.63950(8) 0.83275(16) 0.39470(8)
C27 C 0.63162(8) 0.83773(16) 0.47623(8)
H26 H 0.6017 0.9098 0.4945
C28 C 0.66708(9) 0.73823(17) 0.53091(9)
C29 C 0.71113(9) 0.63155(17) 0.50270(9)
H27 H 0.7354 0.5639 0.5392
C30 C 0.71974(9) 0.62332(17) 0.42165(9)
C31 C 0.68335(8) 0.72445(16) 0.36826(8)
H28 H 0.6885 0.7195 0.3134
C32 C 0.76852(11) 0.50785(19) 0.39240(10)
H29 H 0.7546 0.4968 0.3345
H30 H 0.7599 0.4192 0.4189
H31 H 0.8223 0.5336 0.4051
C33 C 0.65900(10) 0.7468(2) 0.61923(9)
H32 H 0.6258 0.8255 0.6276
H33 H 0.7091 0.7609 0.6512
H34 H 0.6369 0.6592 0.6355
N1 N 0.71114(7) 1.00233(13) 0.27380(7)
O1 O 0.81636(7) 0.96539(12) 0.18547(6)
H35 H 0.7691(11) 0.983(2) 0.2009(12)
loop_
_geom_bond_atom_site_label_1
_geom_bond_atom_site_label_2
_geom_bond_site_symmetry_1
_geom_bond_site_symmetry_2
C1 C2 1_555 1_555
C2 C3 1_555 1_555
C3 H1 1_555 1_555
C4 C3 1_555 1_555
H2 C4 1_555 1_555
C5 C4 1_555 1_555
H3 C5 1_555 1_555
C6 C1 1_555 1_555
C7 C6 1_555 1_555
C8 C7 1_555 1_555
H4 C8 1_555 1_555
H5 C8 1_555 1_555
H6 C8 1_555 1_555
C9 C7 1_555 1_555
H7 C9 1_555 1_555
H8 C9 1_555 1_555
H9 C9 1_555 1_555
C10 C7 1_555 1_555
H10 C10 1_555 1_555
H11 C10 1_555 1_555
H12 C10 1_555 1_555
C11 C2 1_555 1_555
H13 C11 1_555 1_555
C12 C13 1_555 1_555
C13 C14 1_555 1_555
C14 H14 1_555 1_555
C15 C14 1_555 1_555
H15 C15 1_555 1_555
C16 C15 1_555 1_555
H16 C16 1_555 1_555
C17 C12 1_555 1_555
C18 C17 1_555 1_555
C19 C18 1_555 1_555
H17 C19 1_555 1_555
C20 C19 1_555 1_555
C21 C20 1_555 1_555
H18 C21 1_555 1_555
C22 C21 1_555 1_555
C23 C18 1_555 1_555
H19 C23 1_555 1_555
C24 C22 1_555 1_555
H20 C24 1_555 1_555
H21 C24 1_555 1_555
H22 C24 1_555 1_555
C25 C20 1_555 1_555
H23 C25 1_555 1_555
H24 C25 1_555 1_555
H25 C25 1_555 1_555
C26 C13 1_555 1_555
C27 C26 1_555 1_555
H26 C27 1_555 1_555
C28 C27 1_555 1_555
C29 C28 1_555 1_555
H27 C29 1_555 1_555
C30 C29 1_555 1_555
C31 C26 1_555 1_555
H28 C31 1_555 1_555
C32 C30 1_555 1_555
H29 C32 1_555 1_555
H30 C32 1_555 1_555
H31 C32 1_555 1_555
C33 C28 1_555 1_555
H32 C33 1_555 1_555
H33 C33 1_555 1_555
H34 C33 1_555 1_555
N1 C11 1_555 1_555
O1 C1 1_555 1_555
H35 O1 1_555 1_555
C5 C6 1_555 1_555
C12 N1 1_555 1_555
C16 C17 1_555 1_555
C22 C23 1_555 1_555
C30 C31 1_555 1_555

#END
