
#######################################################################
#
#                 Cambridge Crystallographic Data Centre
#                                CCDC 
#
#######################################################################
#
# If this CIF has been generated from an entry in the Cambridge 
# Structural Database, then it will include bibliographic, chemical, 
# crystal, experimental, refinement or atomic coordinate data resulting 
# from the CCDC's data processing and validation procedures.
#
#######################################################################

data_CERVEA
_chemical_compound_source        'Poronia punctata'
_chemical_name_common            'Antibiotic M 95464 hemihydrate'
_chemical_formula_moiety         'C15 H24 O3,0.5(H2 O1)'
_chemical_name_systematic        'Punctatin A hemihydrate'
_chemical_properties_biological  'antibiotic activity'
_symmetry_cell_setting           tetragonal
_symmetry_space_group_name_H-M   'P 41 21 2'
_symmetry_Int_Tables_number      92
_space_group_name_Hall           'P 4abw 2nw'
loop_
_symmetry_equiv_pos_site_id
_symmetry_equiv_pos_as_xyz
1 x,y,z
2 1/2-y,1/2+x,1/4+z
3 -x,-y,1/2+z
4 1/2+y,1/2-x,3/4+z
5 y,x,-z
6 1/2+x,1/2-y,3/4-z
7 -y,-x,1/2-z
8 1/2-x,1/2+y,1/4-z
_cell_length_a                   10.117(3)
_cell_length_b                   10.117(3)
_cell_length_c                   28.786(7)
_cell_angle_alpha                90
_cell_angle_beta                 90
_cell_angle_gamma                90
_cell_volume                     2946.35
_chemical_melting_point          187-92deg.C
_cell_formula_units_Z            8
loop_
_atom_site_label
_atom_site_type_symbol
_atom_site_fract_x
_atom_site_fract_y
_atom_site_fract_z
O1 O 0.60320 0.86690 0.85244
O2 O 1.04680 0.69580 0.80647
O3 O 0.51400 0.71270 0.78730
C1 C 0.74820 0.74180 0.76750
C2 C 0.77580 0.87350 0.79110
C3 C 0.72720 1.01540 0.78230
C4 C 0.75540 1.04250 0.83510
C5 C 0.74030 0.89080 0.84220
C6 C 0.82200 0.79980 0.87160
C7 C 0.79630 0.65880 0.85370
C8 C 0.80600 0.63100 0.80070
C9 C 0.94990 0.61320 0.78360
C10 C 0.94380 0.65750 0.73410
C11 C 0.83730 0.72600 0.72540
C12 C 0.60650 0.72400 0.75010
C13 C 0.89500 1.09270 0.84400
C14 C 0.65710 1.13100 0.85980
C15 C 0.73920 0.49820 0.79200
H1 H 0.87430 0.86880 0.79260
H2 H 0.97960 0.51900 0.78580
H3 H 1.01360 0.63440 0.71120
H4 H 0.81820 0.77160 0.69550
H5 H 0.77840 1.06660 0.75890
H6 H 0.62940 1.01650 0.77810
H7 H 0.56080 0.80400 0.83020
H8 H 0.80200 0.80000 0.90550
H9 H 0.91890 0.81680 0.86840
H10 H 0.85650 0.59390 0.86900
H11 H 0.70410 0.63490 0.86300
H12 H 1.06990 0.66720 0.83870
H13 H 0.42560 0.74090 0.77510
H14 H 0.57910 0.79250 0.72700
H15 H 0.60230 0.64480 0.72960
H16 H 0.96560 1.04600 0.82610
H17 H 0.91200 1.08670 0.87820
H18 H 0.89540 1.18660 0.83320
H19 H 0.56460 1.09900 0.85520
H20 H 0.66390 1.13240 0.89430
H21 H 0.67400 1.22530 0.85190
H22 H 0.74720 0.46550 0.75940
H23 H 0.77700 0.43440 0.81490
H24 H 0.64200 0.50120 0.79790
O4 O 0.23390 0.23390 0.50000
H25 H 0.22220 0.30630 0.52340
H25D H 0.30630 0.22220 0.47660
loop_
_geom_bond_atom_site_label_1
_geom_bond_atom_site_label_2
_geom_bond_site_symmetry_1
_geom_bond_site_symmetry_2
O1 C5 1_555 1_555
O2 C9 1_555 1_555
O3 C12 1_555 1_555
C1 C2 1_555 1_555
C2 C3 1_555 1_555
C3 C4 1_555 1_555
C4 C5 1_555 1_555
C5 C2 1_555 1_555
C6 C5 1_555 1_555
C7 C6 1_555 1_555
C8 C1 1_555 1_555
C9 C8 1_555 1_555
C10 C9 1_555 1_555
C11 C1 1_555 1_555
C12 C1 1_555 1_555
C13 C4 1_555 1_555
C14 C4 1_555 1_555
C15 C8 1_555 1_555
H1 C2 1_555 1_555
H2 C9 1_555 1_555
H3 C10 1_555 1_555
H4 C11 1_555 1_555
H5 C3 1_555 1_555
H6 C3 1_555 1_555
H7 O1 1_555 1_555
H8 C6 1_555 1_555
H9 C6 1_555 1_555
H10 C7 1_555 1_555
H11 C7 1_555 1_555
H12 O2 1_555 1_555
H13 O3 1_555 1_555
H14 C12 1_555 1_555
H15 C12 1_555 1_555
H16 C13 1_555 1_555
H17 C13 1_555 1_555
H18 C13 1_555 1_555
H19 C14 1_555 1_555
H20 C14 1_555 1_555
H21 C14 1_555 1_555
H22 C15 1_555 1_555
H23 C15 1_555 1_555
H24 C15 1_555 1_555
O4 H25 1_555 1_555
H25D O4 1_555 1_555
C7 C8 1_555 1_555
C10 C11 1_555 1_555

#END
