
#######################################################################
#
#                 Cambridge Crystallographic Data Centre
#                                CCDC 
#
#######################################################################
#
# If this CIF has been generated from an entry in the Cambridge 
# Structural Database, then it will include bibliographic, chemical, 
# crystal, experimental, refinement or atomic coordinate data resulting 
# from the CCDC's data processing and validation procedures.
#
#######################################################################

data_CESHAM
_chemical_formula_moiety         'C30 H18 B1 N5'
_chemical_name_systematic        
'bis(cyano)[3-phenyl-N-(3-phenyl-2H-isoindol-1-yl)-1H-isoindol-1-iminato]boron unknown solvate'
_symmetry_cell_setting           monoclinic
_symmetry_space_group_name_H-M   'P 21/n'
_symmetry_Int_Tables_number      14
_space_group_name_Hall           '-P 2yn'
loop_
_symmetry_equiv_pos_site_id
_symmetry_equiv_pos_as_xyz
1 x,y,z
2 1/2-x,1/2+y,1/2-z
3 -x,-y,-z
4 1/2+x,1/2-y,1/2+z
_cell_length_a                   12.6588(4)
_cell_length_b                   10.3929(3)
_cell_length_c                   18.7969(6)
_cell_angle_alpha                90
_cell_angle_beta                 98.478(2)
_cell_angle_gamma                90
_cell_volume                     2445.93
_exptl_crystal_colour            'dark violet'
_exptl_crystal_description       block
_cell_formula_units_Z            4
loop_
_atom_site_label
_atom_site_type_symbol
_atom_site_fract_x
_atom_site_fract_y
_atom_site_fract_z
N1 N 0.49776(10) 0.13594(12) 0.42117(6)
N2 N 0.84060(11) 0.21432(14) 0.38710(6)
N3 N 0.69480(7) 0.33843(9) 0.51827(5)
N4 N 0.62609(7) 0.43356(9) 0.39887(5)
N5 N 0.62136(7) 0.55163(9) 0.50854(5)
C1 C 0.56814(10) 0.20538(11) 0.42755(6)
C2 C 0.76569(10) 0.25064(12) 0.40679(6)
C3 C 0.66707(8) 0.45571(10) 0.54692(5)
C4 C 0.70906(9) 0.45574(11) 0.62177(6)
C5 C 0.70476(11) 0.54540(13) 0.67630(6)
H1 H 0.6681 0.6227 0.6675
C6 C 0.75710(12) 0.51507(14) 0.74393(7)
H2 H 0.7544 0.5727 0.7815
C7 C 0.81386(11) 0.40069(13) 0.75759(6)
H3 H 0.8483 0.3840 0.8039
C8 C 0.81999(10) 0.31256(12) 0.70439(6)
H4 H 0.8591 0.2371 0.7135
C9 C 0.76520(9) 0.34002(11) 0.63561(6)
C10 C 0.75304(9) 0.26806(10) 0.57068(6)
C11 C 0.79389(9) 0.13765(11) 0.56294(5)
C12 C 0.90348(10) 0.11640(13) 0.57965(6)
H5 H 0.9493 0.1851 0.5927
C13 C 0.94395(11) -0.00610(14) 0.57682(7)
H6 H 1.0173 -0.0198 0.5866
C14 C 0.87611(13) -0.10800(14) 0.55964(8)
H7 H 0.9038 -0.1907 0.5583
C15 C 0.76780(13) -0.08903(13) 0.54441(7)
H8 H 0.7225 -0.1589 0.5333
C16 C 0.72593(10) 0.03393(11) 0.54559(6)
H9 H 0.6526 0.0469 0.5348
C17 C 0.60211(8) 0.54185(10) 0.43799(6)
C18 C 0.56299(9) 0.63996(11) 0.38808(6)
C19 C 0.52862(10) 0.76508(11) 0.39727(6)
H10 H 0.5283 0.7995 0.4429
C20 C 0.49515(11) 0.83598(13) 0.33663(7)
H11 H 0.4720 0.9200 0.3414
C21 C 0.49493(12) 0.78484(13) 0.26749(7)
H12 H 0.4703 0.8351 0.2275
C22 C 0.53011(11) 0.66266(13) 0.25762(6)
H13 H 0.5304 0.6295 0.2117
C23 C 0.56561(9) 0.58917(11) 0.31890(6)
C24 C 0.60652(9) 0.46148(11) 0.32748(6)
C25 C 0.62942(9) 0.37764(12) 0.26892(6)
C26 C 0.68439(11) 0.43170(15) 0.21724(7)
H14 H 0.7050 0.5176 0.2209
C27 C 0.70844(12) 0.35795(17) 0.16041(7)
H15 H 0.7459 0.3942 0.1264
C28 C 0.67715(13) 0.23157(17) 0.15405(8)
H16 H 0.6939 0.1822 0.1160
C29 C 0.62097(13) 0.17785(15) 0.20396(7)
H17 H 0.5989 0.0926 0.1991
C30 C 0.59726(11) 0.25023(12) 0.26135(6)
H18 H 0.5596 0.2132 0.2950
B1 B 0.66437(10) 0.30634(12) 0.43735(6)
loop_
_geom_bond_atom_site_label_1
_geom_bond_atom_site_label_2
_geom_bond_site_symmetry_1
_geom_bond_site_symmetry_2
N1 C1 1_555 1_555
N2 C2 1_555 1_555
N3 C3 1_555 1_555
N4 C17 1_555 1_555
N5 C3 1_555 1_555
C1 B1 1_555 1_555
C2 B1 1_555 1_555
C3 C4 1_555 1_555
C4 C5 1_555 1_555
C5 H1 1_555 1_555
C6 C5 1_555 1_555
H2 C6 1_555 1_555
C7 C6 1_555 1_555
H3 C7 1_555 1_555
C8 C7 1_555 1_555
H4 C8 1_555 1_555
C9 C4 1_555 1_555
C10 N3 1_555 1_555
C11 C10 1_555 1_555
C12 C11 1_555 1_555
H5 C12 1_555 1_555
C13 C12 1_555 1_555
H6 C13 1_555 1_555
C14 C13 1_555 1_555
H7 C14 1_555 1_555
C15 C14 1_555 1_555
H8 C15 1_555 1_555
C16 C11 1_555 1_555
H9 C16 1_555 1_555
C17 N5 1_555 1_555
C18 C17 1_555 1_555
C19 C18 1_555 1_555
H10 C19 1_555 1_555
C20 C19 1_555 1_555
H11 C20 1_555 1_555
C21 C20 1_555 1_555
H12 C21 1_555 1_555
C22 C21 1_555 1_555
H13 C22 1_555 1_555
C23 C18 1_555 1_555
C24 N4 1_555 1_555
C25 C24 1_555 1_555
C26 C25 1_555 1_555
H14 C26 1_555 1_555
C27 C26 1_555 1_555
H15 C27 1_555 1_555
C28 C27 1_555 1_555
H16 C28 1_555 1_555
C29 C28 1_555 1_555
H17 C29 1_555 1_555
C30 C25 1_555 1_555
H18 C30 1_555 1_555
B1 N3 1_555 1_555
N4 B1 1_555 1_555
C8 C9 1_555 1_555
C9 C10 1_555 1_555
C15 C16 1_555 1_555
C22 C23 1_555 1_555
C23 C24 1_555 1_555
C29 C30 1_555 1_555

#END
