
#######################################################################
#
#                 Cambridge Crystallographic Data Centre
#                                CCDC 
#
#######################################################################
#
# If this CIF has been generated from an entry in the Cambridge 
# Structural Database, then it will include bibliographic, chemical, 
# crystal, experimental, refinement or atomic coordinate data resulting 
# from the CCDC's data processing and validation procedures.
#
#######################################################################

data_CESKAN01
_chemical_name_common            'Caffeine adipic acid'
_chemical_formula_moiety         'C8 H10 N4 O2,C6 H10 O4'
_chemical_name_systematic        
'1,3,7-Trimethyl-1H-purine-2,6(3H,7H)-dione 1,4-butanedicarboxylic acid'
_symmetry_cell_setting           triclinic
_symmetry_space_group_name_H-M   'P -1'
_symmetry_Int_Tables_number      2
_space_group_name_Hall           '-P 1'
loop_
_symmetry_equiv_pos_site_id
_symmetry_equiv_pos_as_xyz
1 x,y,z
2 -x,-y,-z
_cell_length_a                   9.5480(16)
_cell_length_b                   9.5862(16)
_cell_length_c                   9.6682(16)
_cell_angle_alpha                82.705(3)
_cell_angle_beta                 87.649(3)
_cell_angle_gamma                67.236(2)
_cell_volume                     809.355
_exptl_crystal_colour            colorless
_exptl_crystal_description       parallelepiped
_cell_formula_units_Z            2
_exptl_crystal_recrystallization_method acetonitrile
loop_
_atom_site_label
_atom_site_type_symbol
_atom_site_fract_x
_atom_site_fract_y
_atom_site_fract_z
O1 O 1.02021(10) -0.28049(10) 0.61987(10)
O2 O 0.86986(11) 0.20139(11) 0.74834(10)
N1 N 0.73279(11) 0.17088(10) 0.57537(10)
N2 N 0.93967(10) -0.03833(11) 0.68568(10)
N3 N 0.75058(11) -0.14182(10) 0.41070(10)
N4 N 0.60049(11) 0.10550(11) 0.39898(10)
C1 C 1.05729(14) -0.09223(16) 0.79521(14)
H1 H 1.1165 -0.0303 0.7846
H2 H 1.1222 -0.1963 0.7876
H3 H 1.0100 -0.0853 0.8850
C2 C 0.84737(13) 0.11766(13) 0.67399(12)
C3 C 0.63687(16) 0.33353(13) 0.55326(15)
H4 H 0.6324 0.3693 0.4556
H5 H 0.6789 0.3887 0.6034
H6 H 0.5363 0.3492 0.5863
C4 C 0.71102(12) 0.07105(12) 0.49667(11)
C5 C 0.62926(13) -0.02772(13) 0.34947(12)
H7 H 0.5713 -0.0395 0.2802
C6 C 0.81621(16) -0.29861(14) 0.37518(15)
H8 H 0.7537 -0.3104 0.3059
H9 H 0.8212 -0.3683 0.4572
H10 H 0.9166 -0.3197 0.3392
C7 C 0.80585(12) -0.08038(12) 0.50742(11)
C8 C 0.92998(12) -0.14694(12) 0.60425(12)
O3 O 0.35080(9) 0.34806(9) 0.30936(9)
H11 H 0.4265 0.2726 0.3350
O4 O 0.32950(10) 0.19371(9) 0.16462(9)
C9 C 0.28175(12) 0.31790(12) 0.20800(12)
C10 C 0.13986(12) 0.45066(12) 0.15560(12)
H12 H 0.1624 0.5417 0.1404
H13 H 0.0633 0.4657 0.2275
C11 C 0.07401(13) 0.43262(12) 0.02150(13)
H14 H 0.0551 0.3394 0.0344
H15 H 0.1475 0.4239 -0.0526
O3A O -0.35080(9) 0.65194(9) -0.30936(9)
H11A H -0.4265 0.7274 -0.3350
O4A O -0.32950(10) 0.80629(9) -0.16462(9)
C9A C -0.28175(12) 0.68210(12) -0.20800(12)
C10A C -0.13986(12) 0.54934(12) -0.15560(12)
H12A H -0.1624 0.4583 -0.1404
H13A H -0.0633 0.5343 -0.2275
C11A C -0.07401(13) 0.56738(12) -0.02150(13)
H14A H -0.0551 0.6606 -0.0344
H15A H -0.1475 0.5761 0.0526
O5 O 0.30384(10) -0.01859(9) 0.01261(10)
H16 H 0.3173 0.0461 0.0521
O6 O 0.48637(11) -0.17898(10) 0.16086(10)
C12 C 0.40026(13) -0.15734(12) 0.06498(12)
C13 C 0.38653(12) -0.28133(11) -0.00804(12)
H17 H 0.3994 -0.2596 -0.1074
H18 H 0.2852 -0.2809 0.0063
C14 C 0.50253(13) -0.43939(11) 0.04304(11)
H19 H 0.4827 -0.4662 0.1399
H20 H 0.6035 -0.4375 0.0379
O5A O 0.69616(10) -0.98141(9) -0.01261(10)
H16A H 0.6827 -1.0461 -0.0521
O6A O 0.51363(11) -0.82102(10) -0.16086(10)
C12A C 0.59974(13) -0.84266(12) -0.06498(12)
C13A C 0.61347(12) -0.71867(11) 0.00804(12)
H17A H 0.6006 -0.7404 0.1074
H18A H 0.7148 -0.7191 -0.0063
C14A C 0.49747(13) -0.56061(11) -0.04304(11)
H19A H 0.5173 -0.5338 -0.1399
H20A H 0.3965 -0.5625 -0.0379
loop_
_geom_bond_atom_site_label_1
_geom_bond_atom_site_label_2
_geom_bond_site_symmetry_1
_geom_bond_site_symmetry_2
O1 C8 1_555 1_555
O2 C2 1_555 1_555
N1 C2 1_555 1_555
N2 C1 1_555 1_555
N3 C5 1_555 1_555
N4 C4 1_555 1_555
C1 H1 1_555 1_555
H2 C1 1_555 1_555
H3 C1 1_555 1_555
C2 N2 1_555 1_555
C3 N1 1_555 1_555
H4 C3 1_555 1_555
H5 C3 1_555 1_555
H6 C3 1_555 1_555
C4 N1 1_555 1_555
C5 N4 1_555 1_555
H7 C5 1_555 1_555
C6 N3 1_555 1_555
H8 C6 1_555 1_555
H9 C6 1_555 1_555
H10 C6 1_555 1_555
C7 N3 1_555 1_555
C8 N2 1_555 1_555
O3 H11 1_555 1_555
O4 C9 1_555 1_555
C9 O3 1_555 1_555
C10 C9 1_555 1_555
H12 C10 1_555 1_555
H13 C10 1_555 1_555
C11 C10 1_555 1_555
H14 C11 1_555 1_555
H15 C11 1_555 1_555
O5 H16 1_555 1_555
O6 C12 1_555 1_555
C12 O5 1_555 1_555
C13 C12 1_555 1_555
H17 C13 1_555 1_555
H18 C13 1_555 1_555
C14 C13 1_555 1_555
H19 C14 1_555 1_555
H20 C14 1_555 1_555
O3A H11A 1_555 1_555
O4A C9A 1_555 1_555
C9A O3A 1_555 1_555
C10A C9A 1_555 1_555
H12A C10A 1_555 1_555
H13A C10A 1_555 1_555
C11A C11 1_555 1_555
H14A C11A 1_555 1_555
H15A C11A 1_555 1_555
O5A H16A 1_555 1_555
O6A C12A 1_555 1_555
C12A O5A 1_555 1_555
C13A C12A 1_555 1_555
H17A C13A 1_555 1_555
H18A C13A 1_555 1_555
C14A C14 1_555 1_555
H19A C14A 1_555 1_555
H20A C14A 1_555 1_555
C4 C7 1_555 1_555
C7 C8 1_555 1_555
C10A C11A 1_555 1_555
C13A C14A 1_555 1_555

#END
