
#######################################################################
#
#                 Cambridge Crystallographic Data Centre
#                                CCDC 
#
#######################################################################
#
# If this CIF has been generated from an entry in the Cambridge 
# Structural Database, then it will include bibliographic, chemical, 
# crystal, experimental, refinement or atomic coordinate data resulting 
# from the CCDC's data processing and validation procedures.
#
#######################################################################

data_CESKUG
_chemical_formula_moiety         'C5 H11 N1 O5 S1'
_chemical_name_systematic        'D-\b,\b-Dimethylcysteic acid'
_symmetry_cell_setting           monoclinic
_symmetry_space_group_name_H-M   'P 21'
_symmetry_Int_Tables_number      4
_space_group_name_Hall           'P 2yb'
loop_
_symmetry_equiv_pos_site_id
_symmetry_equiv_pos_as_xyz
1 x,y,z
2 -x,1/2+y,-z
_cell_length_a                   8.133(1)
_cell_length_b                   8.094(1)
_cell_length_c                   6.3138(7)
_cell_angle_alpha                90
_cell_angle_beta                 96.36(1)
_cell_angle_gamma                90
_cell_volume                     413.07
_exptl_crystal_colour            white
_cell_formula_units_Z            2
loop_
_atom_site_label
_atom_site_type_symbol
_atom_site_fract_x
_atom_site_fract_y
_atom_site_fract_z
O1 O 0.27470 0.42280 0.12500
O2 O 0.17970 0.43610 0.44150
C1 C 0.20170 0.49560 0.27340
C2 C 0.14690 0.67260 0.21380
N1 N -0.00640 0.70050 0.31720
C3 C 0.28400 0.79920 0.28710
C4 C 0.44230 0.75790 0.18660
C5 C 0.31770 0.81400 0.52740
S1 S 0.21410 1.00000 0.18100
O3 O 0.06250 1.03810 0.27460
O4 O 0.18400 0.98130 -0.04890
O5 O 0.34620 1.11490 0.24480
H1 H 0.30500 0.34700 0.14700
H2 H 0.12300 0.67300 0.04900
H3 H -0.02800 0.80200 0.31700
H4 H -0.00400 0.65400 0.46700
H5 H -0.08600 0.63600 0.23300
H6 H 0.41900 0.74400 0.02900
H7 H 0.49400 0.65000 0.24900
H8 H 0.51100 0.84200 0.22600
H9 H 0.34500 0.71500 0.58600
H10 H 0.21500 0.84700 0.59600
H11 H 0.40600 0.89400 0.56700
loop_
_geom_bond_atom_site_label_1
_geom_bond_atom_site_label_2
_geom_bond_site_symmetry_1
_geom_bond_site_symmetry_2
O1 C1 1_555 1_555
O2 C1 1_555 1_555
C1 C2 1_555 1_555
C2 N1 1_555 1_555
N1 H3 1_555 1_555
C3 C2 1_555 1_555
C4 C3 1_555 1_555
C5 C3 1_555 1_555
S1 C3 1_555 1_555
O3 S1 1_555 1_555
O4 S1 1_555 1_555
O5 S1 1_555 1_555
H1 O1 1_555 1_555
H2 C2 1_555 1_555
H4 N1 1_555 1_555
H5 N1 1_555 1_555
H6 C4 1_555 1_555
H7 C4 1_555 1_555
H8 C4 1_555 1_555
H9 C5 1_555 1_555
H10 C5 1_555 1_555
H11 C5 1_555 1_555

#END
