
#######################################################################
#
#                 Cambridge Crystallographic Data Centre
#                                CCDC 
#
#######################################################################
#
# If this CIF has been generated from an entry in the Cambridge 
# Structural Database, then it will include bibliographic, chemical, 
# crystal, experimental, refinement or atomic coordinate data resulting 
# from the CCDC's data processing and validation procedures.
#
#######################################################################

data_CESNOG
_chemical_formula_moiety         'C23 H23 N1 O4'
_chemical_name_systematic        
'ethyl 2-(cyclopropylmethyl)-8-phenyl-2,3-dihydro-1H-furo[3,2-f][1,3]benzoxazine-9-carboxylate'
_chemical_properties_biological  'antibacterial activity'
_symmetry_cell_setting           monoclinic
_symmetry_space_group_name_H-M   'P 21/c'
_symmetry_Int_Tables_number      14
_space_group_name_Hall           '-P 2ybc'
loop_
_symmetry_equiv_pos_site_id
_symmetry_equiv_pos_as_xyz
1 x,y,z
2 -x,1/2+y,1/2-z
3 -x,-y,-z
4 x,1/2-y,1/2+z
_cell_length_a                   12.8609(17)
_cell_length_b                   16.719(2)
_cell_length_c                   8.9870(12)
_cell_angle_alpha                90
_cell_angle_beta                 99.434(3)
_cell_angle_gamma                90
_cell_volume                     1906.26
_exptl_crystal_colour            colorless
_exptl_crystal_description       prismatic
_cell_formula_units_Z            4
loop_
_atom_site_label
_atom_site_type_symbol
_atom_site_fract_x
_atom_site_fract_y
_atom_site_fract_z
N1 N 0.38127(14) 0.78843(11) 0.3357(2)
O1 O 0.38963(11) 1.04266(8) 0.81254(15)
O2 O 0.55116(12) 0.81441(9) 0.4841(2)
O3 O 0.11808(13) 0.94095(11) 0.4890(2)
O4 O 0.17379(14) 1.05172(14) 0.3959(2)
C1 C 0.29077(15) 1.05311(12) 0.7290(2)
C2 C 0.27546(14) 1.00179(12) 0.6111(2)
C3 C 0.37072(14) 0.95607(11) 0.6165(2)
C4 C 0.43791(15) 0.98405(12) 0.7415(2)
C5 C 0.53971(16) 0.95686(13) 0.7843(2)
H1 H 0.5828 0.9761 0.8701
C6 C 0.57393(17) 0.90012(13) 0.6940(3)
H2 H 0.6424 0.8806 0.7179
C7 C 0.50820(16) 0.87090(12) 0.5667(2)
C8 C 0.40456(15) 0.89607(12) 0.5263(2)
C9 C 0.33504(17) 0.85955(13) 0.3920(2)
H3 H 0.2677 0.8456 0.4201
H4 H 0.3221 0.8989 0.3118
C10 C 0.49051(19) 0.80215(15) 0.3357(3)
H5 H 0.4982 0.8488 0.2743
H6 H 0.5194 0.7567 0.2892
C11 C 0.36153(17) 0.71431(13) 0.4125(3)
H7 H 0.3710 0.7241 0.5203
H8 H 0.4130 0.6746 0.3944
C12 C 0.25342(19) 0.68176(15) 0.3616(3)
H9 H 0.2305 0.6804 0.2521
C13 C 0.1691(2) 0.6947(2) 0.4512(5)
H10 H 0.1863 0.7247 0.5444
H11 H 0.0982 0.7030 0.3973
C14 C 0.2146(2) 0.61548(17) 0.4457(3)
H12 H 0.1721 0.5746 0.3882
H13 H 0.2602 0.5963 0.5353
C15 C 0.22601(17) 1.11441(12) 0.7845(2)
C16 C 0.2710(2) 1.17196(15) 0.8861(3)
H14 H 0.3434 1.1717 0.9190
C17 C 0.2096(2) 1.22930(17) 0.9387(4)
H15 H 0.2408 1.2677 1.0066
C18 C 0.1030(2) 1.23017(17) 0.8917(4)
H16 H 0.0616 1.2685 0.9291
C19 C 0.0570(2) 1.17467(15) 0.7898(3)
H17 H -0.0154 1.1756 0.7571
C20 C 0.11787(18) 1.11751(14) 0.7358(3)
H18 H 0.0862 1.0803 0.6657
C21 C 0.18030(16) 0.99393(14) 0.4940(2)
C22 C 0.0827(7) 1.0703(5) 0.2790(9)
H19 H 0.0182 1.0484 0.3049
H20 H 0.0745 1.1276 0.2645
C23 C 0.1081(6) 1.0341(5) 0.1530(9)
H21 H 0.1727 1.0563 0.1307
H22 H 0.0527 1.0430 0.0692
H23 H 0.1168 0.9777 0.1708
C24? C 0.0858(7) 1.0304(5) 0.2670(10)
H24? H 0.0871 0.9739 0.2427
H25? H 0.0173 1.0438 0.2916
C25? C 0.1111(6) 1.0815(5) 0.1373(8)
H26? H 0.1248 1.1354 0.1715
H27? H 0.0523 1.0809 0.0563
H28? H 0.1722 1.0604 0.1023
loop_
_geom_bond_atom_site_label_1
_geom_bond_atom_site_label_2
_geom_bond_site_symmetry_1
_geom_bond_site_symmetry_2
N1 C9 1_555 1_555
O1 C1 1_555 1_555
O2 C7 1_555 1_555
O3 C21 1_555 1_555
O4 C21 1_555 1_555
C1 C2 1_555 1_555
C2 C3 1_555 1_555
C3 C4 1_555 1_555
C4 O1 1_555 1_555
C5 C4 1_555 1_555
H1 C5 1_555 1_555
C6 C5 1_555 1_555
H2 C6 1_555 1_555
C7 C6 1_555 1_555
C8 C3 1_555 1_555
C9 C8 1_555 1_555
H3 C9 1_555 1_555
H4 C9 1_555 1_555
C10 N1 1_555 1_555
H5 C10 1_555 1_555
H6 C10 1_555 1_555
C11 N1 1_555 1_555
H7 C11 1_555 1_555
H8 C11 1_555 1_555
C12 C11 1_555 1_555
H9 C12 1_555 1_555
C13 C12 1_555 1_555
H10 C13 1_555 1_555
H11 C13 1_555 1_555
C14 C12 1_555 1_555
H12 C14 1_555 1_555
H13 C14 1_555 1_555
C15 C1 1_555 1_555
C16 C15 1_555 1_555
H14 C16 1_555 1_555
C17 C16 1_555 1_555
H15 C17 1_555 1_555
C18 C17 1_555 1_555
H16 C18 1_555 1_555
C19 C18 1_555 1_555
H17 C19 1_555 1_555
C20 C15 1_555 1_555
H18 C20 1_555 1_555
C21 C2 1_555 1_555
C22 O4 1_555 1_555
H19 C22 1_555 1_555
H20 C22 1_555 1_555
C23 C22 1_555 1_555
H21 C23 1_555 1_555
H22 C23 1_555 1_555
H23 C23 1_555 1_555
O2 C10 1_555 1_555
C7 C8 1_555 1_555
C13 C14 1_555 1_555
C19 C20 1_555 1_555

#END
