
#######################################################################
#
#                 Cambridge Crystallographic Data Centre
#                                CCDC 
#
#######################################################################
#
# If this CIF has been generated from an entry in the Cambridge 
# Structural Database, then it will include bibliographic, chemical, 
# crystal, experimental, refinement or atomic coordinate data resulting 
# from the CCDC's data processing and validation procedures.
#
#######################################################################

data_CESPUM
_chemical_formula_moiety         'C28 H31 N1 O5'
_chemical_name_systematic        
'Ethyl 1-ethoxy-2-(3-ethoxy-3-oxo-1-phenylprop-1-en-1-yl)-6-phenyl-2-azabicyclo(3.2.0)hept-6-ene-7-carboxylate'
_symmetry_cell_setting           orthorhombic
_symmetry_space_group_name_H-M   'P 21 21 21'
_symmetry_Int_Tables_number      19
_space_group_name_Hall           'P 2ac 2ab'
loop_
_symmetry_equiv_pos_site_id
_symmetry_equiv_pos_as_xyz
1 x,y,z
2 1/2-x,-y,1/2+z
3 -x,1/2+y,1/2-z
4 1/2+x,1/2-y,-z
_cell_length_a                   7.9691(6)
_cell_length_b                   10.7420(9)
_cell_length_c                   29.440(2)
_cell_angle_alpha                90
_cell_angle_beta                 90
_cell_angle_gamma                90
_cell_volume                     2520.18
_exptl_crystal_colour            colorless
_chemical_melting_point          137deg.C
_cell_formula_units_Z            4
_exptl_crystal_recrystallization_method 'diethyl ether/petroleum ether'
loop_
_atom_site_label
_atom_site_type_symbol
_atom_site_fract_x
_atom_site_fract_y
_atom_site_fract_z
O1 O 0.4249(4) 0.70269(19) 0.03860(6)
O2 O 0.3900(3) 0.50658(19) 0.01789(6)
O3 O 0.5621(2) 0.57137(16) 0.18032(5)
O4 O 0.2450(3) 0.74925(18) 0.17600(6)
O5 O 0.1280(3) 0.7592(2) 0.24336(8)
N1 N 0.3355(3) 0.43284(19) 0.16094(6)
C1 C 0.4189(3) 0.5098(2) 0.19543(7)
C2 C 0.3104(3) 0.5922(2) 0.22555(8)
C3 C 0.3297(3) 0.5166(2) 0.26222(8)
C4 C 0.4343(4) 0.4213(3) 0.23757(8)
C5 C 0.3509(4) 0.3002(3) 0.22427(9)
H1 H 0.2843 0.2673 0.2491
H2 H 0.4335 0.2386 0.2154
C6 C 0.2406(4) 0.3363(2) 0.18447(9)
H3 H 0.2210 0.2655 0.1647
H4 H 0.1334 0.3682 0.1949
C7 C 0.6951(4) 0.4910(3) 0.16503(11)
H5 H 0.6624 0.4493 0.1372
H6 H 0.7186 0.4281 0.1878
C8 C 0.8432(5) 0.5668(4) 0.15723(16)
H7 H 0.8153 0.6345 0.1373
H8 H 0.9293 0.5168 0.1435
H9 H 0.8829 0.5992 0.1857
C9 C 0.2180(3) 0.7063(2) 0.21702(9)
C10 C 0.1531(6) 0.8587(4) 0.16212(14)
C11 C 0.1789(10) 0.8795(8) 0.1170(2)
H10 H 0.1543 0.9649 0.1101
H11 H 0.1068 0.8262 0.0996
H12 H 0.2938 0.8620 0.1096
C12 C 0.2881(3) 0.5172(3) 0.31059(8)
C13 C 0.3415(4) 0.4195(3) 0.33761(9)
H13 H 0.3979 0.3526 0.3246
C14 C 0.3115(4) 0.4209(4) 0.38346(10)
H14 H 0.3469 0.3544 0.4012
C15 C 0.2308(4) 0.5185(4) 0.40334(10)
H15 H 0.2128 0.5187 0.4345
C16 C 0.1765(5) 0.6156(4) 0.37765(10)
H16 H 0.1204 0.6819 0.3912
C17 C 0.2049(4) 0.6156(3) 0.33114(9)
H17 H 0.1679 0.6822 0.3136
C18 C 0.3286(3) 0.4553(2) 0.11500(7)
C19 C 0.3691(4) 0.5643(3) 0.09614(8)
C20 C 0.3945(4) 0.5822(3) 0.04764(8)
C21 C 0.4539(7) 0.7291(4) -0.00920(11)
H18 H 0.5619 0.6957 -0.0183
H19 H 0.3678 0.6894 -0.0274
C22 C 0.4511(8) 0.8577(4) -0.01658(14)
H20 H 0.3405 0.8891 -0.0105
H21 H 0.4804 0.8748 -0.0476
H22 H 0.5302 0.8974 0.0033
C23 C 0.2823(3) 0.3442(2) 0.08730(8)
C24 C 0.1348(4) 0.3417(3) 0.06241(9)
H23 H 0.0617 0.4092 0.0630
C25 C 0.0970(4) 0.2370(3) 0.03644(10)
H24 H -0.0016 0.2347 0.0196
C26 C 0.2026(5) 0.1390(3) 0.03560(11)
H25 H 0.1767 0.0699 0.0179
C27 C 0.3456(5) 0.1401(3) 0.06019(11)
H26 H 0.4169 0.0716 0.0598
C28 C 0.3857(4) 0.2433(3) 0.08592(9)
H27 H 0.4848 0.2439 0.1026
H31 H 0.546(4) 0.414(2) 0.2505(8)
H32 H 0.054(6) 0.870(4) 0.1761(14)
H33 H 0.401(3) 0.631(2) 0.1128(7)
C29? C 0.2101(14) 0.9787(9) 0.1736(3)
H28? H 0.3283 0.9845 0.1677
H29? H 0.1894 0.9939 0.2052
H30? H 0.1515 1.0394 0.1556
loop_
_geom_bond_atom_site_label_1
_geom_bond_atom_site_label_2
_geom_bond_site_symmetry_1
_geom_bond_site_symmetry_2
O1 C20 1_555 1_555
O2 C20 1_555 1_555
O3 C1 1_555 1_555
O4 C9 1_555 1_555
O5 C9 1_555 1_555
N1 C1 1_555 1_555
C1 C2 1_555 1_555
C2 C3 1_555 1_555
C3 C4 1_555 1_555
C4 C1 1_555 1_555
C5 C4 1_555 1_555
H1 C5 1_555 1_555
H2 C5 1_555 1_555
C6 N1 1_555 1_555
H3 C6 1_555 1_555
H4 C6 1_555 1_555
C7 O3 1_555 1_555
H5 C7 1_555 1_555
H6 C7 1_555 1_555
C8 C7 1_555 1_555
H7 C8 1_555 1_555
H8 C8 1_555 1_555
H9 C8 1_555 1_555
C9 C2 1_555 1_555
C10 O4 1_555 1_555
C11 C10 1_555 1_555
H10 C11 1_555 1_555
H11 C11 1_555 1_555
H12 C11 1_555 1_555
C12 C3 1_555 1_555
C13 C12 1_555 1_555
H13 C13 1_555 1_555
C14 C13 1_555 1_555
H14 C14 1_555 1_555
C15 C14 1_555 1_555
H15 C15 1_555 1_555
C16 C15 1_555 1_555
H16 C16 1_555 1_555
C17 C12 1_555 1_555
H17 C17 1_555 1_555
C18 N1 1_555 1_555
C19 C18 1_555 1_555
C20 C19 1_555 1_555
C21 O1 1_555 1_555
H18 C21 1_555 1_555
H19 C21 1_555 1_555
C22 C21 1_555 1_555
H20 C22 1_555 1_555
H21 C22 1_555 1_555
H22 C22 1_555 1_555
C23 C18 1_555 1_555
C24 C23 1_555 1_555
H23 C24 1_555 1_555
C25 C24 1_555 1_555
H24 C25 1_555 1_555
C26 C25 1_555 1_555
H25 C26 1_555 1_555
C27 C26 1_555 1_555
H26 C27 1_555 1_555
C28 C23 1_555 1_555
H27 C28 1_555 1_555
H31 C4 1_555 1_555
H32 C10 1_555 1_555
H33 C19 1_555 1_555
C5 C6 1_555 1_555
C16 C17 1_555 1_555
C27 C28 1_555 1_555

#END
