
#######################################################################
#
#                 Cambridge Crystallographic Data Centre
#                                CCDC 
#
#######################################################################
#
# If this CIF has been generated from an entry in the Cambridge 
# Structural Database, then it will include bibliographic, chemical, 
# crystal, experimental, refinement or atomic coordinate data resulting 
# from the CCDC's data processing and validation procedures.
#
#######################################################################

data_CESVEE
_chemical_formula_moiety         'C26 H30 N8 O4,2(C4 H10 O1)'
_chemical_name_systematic        
"N,N'-[1,3-phenylenebis(propane-2,2-diyl)]bis[2-(pyridine-4-carbonyl)hydrazine-1-carboxamide] butan-1-ol solvate"
_symmetry_cell_setting           triclinic
_symmetry_space_group_name_H-M   'P -1'
_symmetry_Int_Tables_number      2
_space_group_name_Hall           '-P 1'
loop_
_symmetry_equiv_pos_site_id
_symmetry_equiv_pos_as_xyz
1 x,y,z
2 -x,-y,-z
_cell_length_a                   16.066(5)
_cell_length_b                   16.264(5)
_cell_length_c                   25.721(8)
_cell_angle_alpha                95.908(4)
_cell_angle_beta                 98.689(3)
_cell_angle_gamma                94.564(4)
_cell_volume                     6577.41
_exptl_crystal_colour            colorless
_exptl_crystal_description       needle
_cell_formula_units_Z            8
loop_
_atom_site_label
_atom_site_type_symbol
_atom_site_fract_x
_atom_site_fract_y
_atom_site_fract_z
O1 O 0.74059(17) 0.44760(17) 0.62821(12)
O2 O 0.89425(19) 0.35541(19) 0.70011(12)
O3 O 0.77465(17) 0.08533(16) 0.66494(11)
O4 O 0.82366(18) 0.19339(18) 0.56840(12)
N1 N 0.7047(2) 0.3208(2) 0.58112(14)
H1 H 0.7187 0.2863 0.5560
N2 N 0.8429(2) 0.3742(2) 0.59819(14)
H2 H 0.8548 0.3360 0.5743
N3 N 0.9061(2) 0.4281(2) 0.63122(15)
H3 H 0.9316 0.4701 0.6189
N4 N 1.1142(2) 0.5847(2) 0.78394(19)
N5 N 0.8407(2) 0.1953(2) 0.72454(13)
H4 H 0.8873 0.2294 0.7328
N6 N 0.9058(2) 0.1436(2) 0.65755(14)
H5 H 0.9526 0.1733 0.6735
N7 N 0.9013(2) 0.0999(2) 0.60688(14)
H6 H 0.9277 0.0549 0.6026
N8 N 0.8249(2) -0.0238(2) 0.41519(15)
C1 C 0.6298(3) 0.3051(3) 0.6566(2)
C2 C 0.6929(3) 0.2622(3) 0.68010(19)
H7 H 0.7296 0.2374 0.6587
C3 C 0.7053(3) 0.2534(3) 0.7336(2)
C4 C 0.6498(3) 0.2890(4) 0.7642(2)
H8 H 0.6554 0.2828 0.8008
C5 C 0.5872(4) 0.3330(4) 0.7413(3)
H9 H 0.5500 0.3577 0.7624
C6 C 0.5781(3) 0.3414(4) 0.6878(3)
H10 H 0.5354 0.3729 0.6726
C7 C 0.6196(3) 0.3081(3) 0.5962(2)
C8 C 0.5646(3) 0.3745(3) 0.5759(2)
H11 H 0.5867 0.4289 0.5952
H12 H 0.5063 0.3612 0.5816
H13 H 0.5656 0.3760 0.5380
C9 C 0.5823(3) 0.2215(3) 0.5680(2)
H14 H 0.5801 0.2210 0.5297
H15 H 0.5251 0.2093 0.5759
H16 H 0.6182 0.1793 0.5807
C10 C 0.7613(3) 0.3847(3) 0.60533(18)
C11 C 0.9271(3) 0.4147(3) 0.68148(19)
C12 C 0.9934(3) 0.4768(3) 0.71584(19)
C13 C 1.0049(3) 0.4733(3) 0.7703(2)
H17 H 0.9716 0.4334 0.7849
C14 C 1.0651(3) 0.5283(3) 0.8029(2)
H18 H 1.0719 0.5262 0.8400
C15 C 1.1036(3) 0.5868(3) 0.7315(2)
H19 H 1.1386 0.6265 0.7180
C16 C 1.0442(2) 0.5342(3) 0.69557(19)
H20 H 1.0387 0.5376 0.6586
C17 C 0.7764(3) 0.2054(3) 0.75907(17)
C18 C 0.8258(3) 0.2581(3) 0.80933(17)
H21 H 0.8712 0.2275 0.8253
H22 H 0.7873 0.2697 0.8347
H23 H 0.8501 0.3106 0.7998
C19 C 0.7409(3) 0.1228(3) 0.77411(18)
H24 H 0.7081 0.0897 0.7426
H25 H 0.7043 0.1333 0.8008
H26 H 0.7877 0.0924 0.7886
C20 C 0.8358(3) 0.1385(2) 0.68096(17)
C21 C 0.8564(3) 0.1279(3) 0.56556(18)
C22 C 0.8482(3) 0.0725(2) 0.51345(17)
C23 C 0.7908(3) 0.0913(3) 0.47205(18)
H27 H 0.7585 0.1373 0.4761
C24 C 0.7814(3) 0.0408(3) 0.42391(19)
H28 H 0.7413 0.0535 0.3955
C25 C 0.8813(3) -0.0388(3) 0.45586(19)
H29 H 0.9150 -0.0834 0.4504
C26 C 0.8940(3) 0.0061(3) 0.50536(18)
H30 H 0.9338 -0.0087 0.5333
O5 O 0.14625(16) -0.11079(18) 0.90119(11)
O6 O 0.29687(18) 0.02098(17) 0.96684(12)
O7 O 0.19978(18) 0.27704(18) 0.91438(12)
O8 O 0.24707(18) 0.12160(18) 0.82711(12)
N9 N 0.11093(19) -0.0120(2) 0.84577(13)
H31 H 0.1294 0.0141 0.8208
N10 N 0.2473(2) -0.0406(2) 0.86364(14)
H32 H 0.2576 -0.0122 0.8376
N11 N 0.31274(19) -0.0698(2) 0.89636(14)
H33 H 0.3411 -0.1094 0.8839
N12 N 0.5354(2) -0.1309(2) 1.04510(16)
N13 N 0.2461(2) 0.1958(2) 0.97878(14)
H34 H 0.2881 0.1670 0.9898
N14 N 0.3245(2) 0.2199(2) 0.91481(15)
H35 H 0.3669 0.2006 0.9342
N15 N 0.3306(2) 0.2373(2) 0.86411(15)
H36 H 0.3605 0.2828 0.8593
N16 N 0.3157(3) 0.2460(3) 0.66637(16)
C27 C 0.0221(3) 0.0455(3) 0.90865(18)
C28 C 0.0945(3) 0.0982(3) 0.93412(18)
H37 H 0.1438 0.1006 0.9179
C29 C 0.0956(3) 0.1460(3) 0.98150(18)
C30 C 0.0230(3) 0.1413(3) 1.0054(2)
H38 H 0.0221 0.1740 1.0381
C31 C -0.0478(3) 0.0886(3) 0.9814(2)
H39 H -0.0967 0.0848 0.9981
C32 C -0.0478(3) 0.0417(3) 0.9336(2)
H40 H -0.0968 0.0063 0.9176
C33 C 0.0236(2) -0.0025(3) 0.85416(18)
C34 C -0.0283(3) -0.0869(3) 0.8451(2)
H41 H -0.0234 -0.1149 0.8102
H42 H -0.0878 -0.0792 0.8466
H43 H -0.0071 -0.1209 0.8726
C35 C -0.0115(3) 0.0512(3) 0.8122(2)
H44 H 0.0236 0.1044 0.8168
H45 H -0.0697 0.0612 0.8161
H46 H -0.0109 0.0225 0.7769
C36 C 0.1655(2) -0.0576(3) 0.87320(18)
C37 C 0.3326(3) -0.0364(3) 0.94793(18)
C38 C 0.4030(3) -0.0725(2) 0.97995(18)
C39 C 0.4148(3) -0.0546(3) 1.03475(19)
H47 H 0.3776 -0.0215 1.0510
C40 C 0.4807(3) -0.0851(3) 1.06554(19)
H48 H 0.4873 -0.0729 1.1029
C41 C 0.5245(3) -0.1490(3) 0.9919(2)
H49 H 0.5635 -0.1813 0.9768
C42 C 0.4588(3) -0.1224(3) 0.95880(19)
H50 H 0.4518 -0.1381 0.9217
C43 C 0.1771(3) 0.1984(3) 1.01069(18)
C44 C 0.2091(3) 0.1618(3) 1.06128(19)
H51 H 0.2204 0.1041 1.0524
H52 H 0.1662 0.1634 1.0846
H53 H 0.2614 0.1942 1.0794
C45 C 0.1603(3) 0.2914(3) 1.0243(2)
H54 H 0.2124 0.3231 1.0431
H55 H 0.1162 0.2939 1.0467
H56 H 0.1416 0.3151 0.9915
C46 C 0.2519(3) 0.2328(3) 0.93447(19)
C47 C 0.2913(3) 0.1856(3) 0.82211(19)
C48 C 0.3028(3) 0.2089(3) 0.76926(19)
C49 C 0.3577(3) 0.2746(3) 0.76033(19)
H57 H 0.3926 0.3078 0.7893
C50 C 0.3612(3) 0.2909(3) 0.7096(2)
H58 H 0.3981 0.3369 0.7045
C51 C 0.2636(3) 0.1819(3) 0.6758(2)
H59 H 0.2305 0.1491 0.6460
C52 C 0.2548(3) 0.1605(3) 0.7244(2)
H60 H 0.2173 0.1141 0.7282
O9 O -0.06239(19) 0.57723(18) 0.59096(12)
O10 O -0.11181(19) 0.72402(18) 0.70258(13)
O11 O -0.02413(17) 0.95672(18) 0.63018(12)
O12 O -0.19830(19) 0.80857(18) 0.57495(12)
N17 N -0.1016(2) 0.6794(2) 0.54134(14)
H61 H -0.1453 0.7057 0.5297
N18 N -0.1771(2) 0.6456(2) 0.60562(16)
H62 H -0.2237 0.6351 0.5837
N19 N -0.1811(2) 0.6095(2) 0.65230(15)
H63 H -0.2060 0.5590 0.6510
N20 N -0.1550(4) 0.5372(3) 0.8409(2)
N21 N -0.0021(2) 0.8679(2) 0.69345(13)
H64 H -0.0274 0.8426 0.7163
N22 N -0.1352(2) 0.9036(2) 0.66755(15)
H65 H -0.1509 0.8545 0.6742
N23 N -0.1934(2) 0.9287(2) 0.62759(15)
H66 H -0.2108 0.9786 0.6318
N24 N -0.4064(2) 0.9547(2) 0.46323(15)
C53 C 0.0530(3) 0.7197(3) 0.56127(18)
C54 C 0.0394(3) 0.7717(2) 0.60491(17)
H67 H -0.0164 0.7854 0.6072
C55 C 0.1053(3) 0.8045(3) 0.64565(18)
C56 C 0.1851(3) 0.7854(3) 0.6398(2)
H68 H 0.2314 0.8088 0.6660
C57 C 0.2010(3) 0.7337(3) 0.5975(2)
H69 H 0.2568 0.7197 0.5956
C58 C 0.1335(3) 0.7014(3) 0.55679(19)
H70 H 0.1439 0.6673 0.5266
C59 C -0.0244(3) 0.6907(3) 0.51721(18)
C60 C -0.0134(3) 0.6095(3) 0.4838(2)
H71 H -0.0020 0.5663 0.5070
H72 H 0.0341 0.6186 0.4645
H73 H -0.0652 0.5919 0.4584
C61 C -0.0369(3) 0.7603(3) 0.48220(18)
H74 H -0.0884 0.7458 0.4561
H75 H 0.0119 0.7679 0.4639
H76 H -0.0422 0.8120 0.5042
C62 C -0.1088(3) 0.6313(3) 0.58008(17)
C63 C -0.1470(3) 0.6523(3) 0.69914(19)
C64 C -0.1537(3) 0.6107(3) 0.74727(19)
C65 C -0.1081(4) 0.6508(3) 0.7944(2)
H77 H -0.0767 0.7031 0.7955
C66 C -0.1098(4) 0.6130(4) 0.8389(3)
H78 H -0.0778 0.6403 0.8710
C67 C -0.1981(3) 0.5023(4) 0.7953(2)
H79 H -0.2308 0.4509 0.7951
C68 C -0.1992(3) 0.5348(3) 0.7479(2)
H80 H -0.2307 0.5058 0.7162
C69 C 0.0885(3) 0.8586(2) 0.69490(17)
C70 C 0.1140(3) 0.8140(3) 0.74283(17)
H81 H 0.1030 0.8471 0.7747
H82 H 0.1743 0.8063 0.7463
H83 H 0.0810 0.7597 0.7385
C71 C 0.1391(3) 0.9436(3) 0.70219(18)
H84 H 0.1230 0.9726 0.6712
H85 H 0.1997 0.9365 0.7061
H86 H 0.1273 0.9763 0.7339
C72 C -0.0505(3) 0.9114(3) 0.66059(18)
C73 C -0.2229(3) 0.8786(3) 0.58333(18)
C74 C -0.2873(3) 0.9084(3) 0.54287(18)
C75 C -0.3023(3) 0.8653(3) 0.49269(18)
H87 H -0.2724 0.8187 0.4847
C76 C -0.3607(3) 0.8906(3) 0.45464(19)
H88 H -0.3693 0.8611 0.4201
C77 C -0.3915(3) 0.9953(3) 0.51215(19)
H89 H -0.4233 1.0408 0.5192
C78 C -0.3333(3) 0.9759(3) 0.55288(19)
H90 H -0.3247 1.0074 0.5868
O13 O 0.42100(17) 0.39772(17) 0.87156(12)
O14 O 0.27609(18) 0.48372(19) 0.79408(13)
O15 O 0.36585(16) 0.78408(16) 0.84572(11)
O16 O 0.32394(18) 0.64718(17) 0.92441(11)
N25 N 0.4466(2) 0.5242(2) 0.92295(14)
H91 H 0.4259 0.5543 0.9475
N26 N 0.3113(2) 0.4643(2) 0.89820(14)
H92 H 0.2954 0.4995 0.9223
N27 N 0.2524(2) 0.4110(2) 0.86170(16)
H93 H 0.2244 0.3687 0.8722
N28 N 0.0573(2) 0.2579(2) 0.70091(17)
N29 N 0.3154(2) 0.6678(2) 0.78600(13)
H94 H 0.2738 0.6278 0.7777
N30 N 0.2356(2) 0.7160(2) 0.84640(13)
H95 H 0.1887 0.6933 0.8261
N31 N 0.2374(2) 0.7437(2) 0.89965(13)
H96 H 0.2079 0.7844 0.9091
N32 N 0.3060(3) 0.8000(2) 1.10042(15)
C79 C 0.5331(3) 0.5714(3) 0.8595(2)
C80 C 0.4645(3) 0.6053(3) 0.83340(19)
H97 H 0.4169 0.6116 0.8508
C81 C 0.4613(3) 0.6301(3) 0.7840(2)
C82 C 0.5220(5) 0.6057(5) 0.7525(4)
H98 H 0.5160 0.6149 0.7163
C83 C 0.5912(6) 0.5678(6) 0.7758(4)
H99 H 0.6362 0.5570 0.7568
C84 C 0.5939(6) 0.5466(6) 0.8250(4)
H100 H 0.6372 0.5141 0.8381
C85 C 0.5342(3) 0.5482(3) 0.9155(2)
C86 C 0.5907(3) 0.4810(3) 0.9284(2)
H101 H 0.5857 0.4661 0.9638
H102 H 0.6495 0.5012 0.9275
H103 H 0.5738 0.4320 0.9023
C87 C 0.5628(3) 0.6264(3) 0.9553(2)
H104 H 0.5244 0.6692 0.9479
H105 H 0.6204 0.6474 0.9518
H106 H 0.5619 0.6125 0.9914
C88 C 0.3954(3) 0.4587(2) 0.89452(18)
C89 C 0.2390(3) 0.4249(3) 0.8105(2)
C90 C 0.1759(2) 0.3640(3) 0.77350(19)
C91 C 0.1705(3) 0.3676(3) 0.72026(19)
H107 H 0.2068 0.4069 0.7074
C92 C 0.1112(3) 0.3130(3) 0.68475(19)
H108 H 0.1093 0.3152 0.6478
C93 C 0.0635(3) 0.2552(3) 0.7531(2)
H109 H 0.0261 0.2159 0.7652
C94 C 0.1213(2) 0.3064(3) 0.79081(19)
H110 H 0.1233 0.3020 0.8275
C95 C 0.3841(3) 0.6661(3) 0.75412(18)
C96 C 0.3460(4) 0.6078(3) 0.7038(2)
H111 H 0.3253 0.5542 0.7137
H112 H 0.3895 0.5995 0.6814
H113 H 0.2990 0.6326 0.6843
C97 C 0.4092(3) 0.7514(3) 0.73841(19)
H114 H 0.3584 0.7751 0.7226
H115 H 0.4481 0.7459 0.7127
H116 H 0.4370 0.7881 0.7699
C98 C 0.3108(3) 0.7257(3) 0.82695(17)
C99 C 0.2843(3) 0.7077(2) 0.93576(18)
C100 C 0.2898(3) 0.7413(2) 0.99299(17)
C101 C 0.2326(3) 0.7923(3) 1.01152(18)
H117 H 0.1871 0.8086 0.9879
C102 C 0.2433(3) 0.8189(3) 1.0654(2)
H118 H 0.2032 0.8528 1.0779
C103 C 0.3612(3) 0.7510(3) 1.08224(19)
H119 H 0.4067 0.7366 1.1066
C104 C 0.3543(3) 0.7205(2) 1.02919(17)
H120 H 0.3942 0.6854 1.0179
O17 O 0.5666(3) 0.8620(2) 0.63486(16)
H124 H 0.5598 0.9128 0.6394
C108 C 0.5026(4) 0.8211(4) 0.5936(3)
H125 H 0.5124 0.8385 0.5591
H126 H 0.4463 0.8365 0.6000
C109 C 0.5053(4) 0.7292(4) 0.5926(3)
H127 H 0.5025 0.7138 0.6286
H128 H 0.4547 0.7010 0.5687
C110 C 0.5825(4) 0.6985(4) 0.5746(3)
H129 H 0.6334 0.7294 0.5966
H130 H 0.5830 0.7092 0.5374
C111 C 0.5852(4) 0.6048(4) 0.5785(3)
H131 H 0.5398 0.5735 0.5525
H132 H 0.5774 0.5931 0.6142
H133 H 0.6400 0.5880 0.5713
O18 O 0.5161(3) 1.0179(2) 0.62986(16)
H134 H 0.4743 1.0166 0.6058
C112 C 0.5123(4) 1.0838(4) 0.6705(2)
H135 H 0.4685 1.1193 0.6572
H136 H 0.5673 1.1183 0.6778
C113 C 0.4923(4) 1.0550(4) 0.7226(3)
H137 H 0.5428 1.0305 0.7391
H138 H 0.4862 1.1054 0.7463
C114 C 0.4217(5) 0.9981(5) 0.7229(3)
H139 H 0.4314 0.9434 0.7054
H140 H 0.3713 1.0172 0.7021
C115 C 0.4040(4) 0.9883(5) 0.7782(3)
H141 H 0.3483 0.9578 0.7761
H142 H 0.4049 1.0433 0.7980
H143 H 0.4475 0.9575 0.7964
O19 O 0.7147(2) 0.8112(3) 0.69028(18)
H144 H 0.6740 0.8276 0.6708
C116 C 0.6852(5) 0.7729(5) 0.7300(3)
H145 H 0.7298 0.7389 0.7443
H146 H 0.6361 0.7336 0.7130
C117 C 0.6591(9) 0.8196(7) 0.7755(4)
H147 H 0.6011 0.8339 0.7637
H148 H 0.6548 0.7806 0.8023
C118 C 0.7072(7) 0.8955(6) 0.8031(4)
H149 H 0.7242 0.9299 0.7762
H150 H 0.7597 0.8800 0.8237
C119 C 0.6647(6) 0.9467(6) 0.8391(4)
H151 H 0.6267 0.9802 0.8186
H152 H 0.7071 0.9835 0.8642
H153 H 0.6319 0.9109 0.8585
O20 O 0.2414(3) 0.3037(3) 0.57374(18)
H161 H 0.2657 0.2881 0.6018
C123 C 0.3036(5) 0.3573(4) 0.5508(3)
H162 H 0.3591 0.3345 0.5524
H163 H 0.2819 0.3662 0.5139
C124 C 0.2623(7) 0.5027(7) 0.5669(5)
H164 H 0.2085 0.4675 0.5544
H165 H 0.2577 0.5407 0.5987
C125 C 0.2961(11) 0.5500(10) 0.5209(6)
H166 H 0.2991 0.5095 0.4904
H167 H 0.3525 0.5784 0.5343
H168 H 0.2572 0.5908 0.5101
C126 C 0.3433(9) 0.4497(6) 0.5751(8)
H169 H 0.3879 0.4701 0.5556
H170 H 0.3673 0.4519 0.6130
C105? C 0.6134(10) 0.5848(10) 0.8470(7)
H121? H 0.6616 0.5674 0.8676
C106? C 0.6192(12) 0.6252(11) 0.8025(8)
H122? H 0.6732 0.6377 0.7928
C107? C 0.5481(10) 0.6476(10) 0.7720(7)
H123? H 0.5550 0.6755 0.7421
C120? C 0.608(2) 0.887(2) 0.8349(9)
H154? H 0.5470 0.8730 0.8270
H155? H 0.6211 0.9387 0.8592
H156? H 0.6352 0.8421 0.8514
C121? C 0.6412(10) 0.8986(10) 0.7856(6)
H157? H 0.5903 0.8925 0.7580
H158? H 0.6628 0.9580 0.7896
C122? C 0.7042(18) 0.8551(19) 0.761(2)
H159? H 0.7515 0.8502 0.7895
H160? H 0.7266 0.8927 0.7372
H171? H 0.2650 0.2902 0.6027
C127? C 0.3074(8) 0.4340(6) 0.5883(4)
H172? H 0.3479 0.4302 0.6208
H173? H 0.2510 0.4405 0.5984
C128? C 0.2581(7) 0.5224(8) 0.5148(4)
H174? H 0.2542 0.4775 0.4858
H175? H 0.2662 0.5761 0.5011
H176? H 0.2058 0.5195 0.5300
C129? C 0.3373(7) 0.5130(8) 0.5599(5)
H177? H 0.3884 0.5028 0.5440
H178? H 0.3499 0.5636 0.5857
loop_
_geom_bond_atom_site_label_1
_geom_bond_atom_site_label_2
_geom_bond_site_symmetry_1
_geom_bond_site_symmetry_2
O1 C10 1_555 1_555
O2 C11 1_555 1_555
O3 C20 1_555 1_555
O4 C21 1_555 1_555
N1 H1 1_555 1_555
N2 H2 1_555 1_555
N3 N2 1_555 1_555
H3 N3 1_555 1_555
N4 C14 1_555 1_555
N5 H4 1_555 1_555
N6 H5 1_555 1_555
N7 N6 1_555 1_555
H6 N7 1_555 1_555
N8 C24 1_555 1_555
C1 C2 1_555 1_555
C2 H7 1_555 1_555
C3 C2 1_555 1_555
C4 C3 1_555 1_555
H8 C4 1_555 1_555
C5 C4 1_555 1_555
H9 C5 1_555 1_555
C6 C1 1_555 1_555
H10 C6 1_555 1_555
C7 N1 1_555 1_555
C8 C7 1_555 1_555
H11 C8 1_555 1_555
H12 C8 1_555 1_555
H13 C8 1_555 1_555
C9 C7 1_555 1_555
H14 C9 1_555 1_555
H15 C9 1_555 1_555
H16 C9 1_555 1_555
C10 N1 1_555 1_555
C11 N3 1_555 1_555
C12 C11 1_555 1_555
C13 C12 1_555 1_555
H17 C13 1_555 1_555
C14 C13 1_555 1_555
H18 C14 1_555 1_555
C15 N4 1_555 1_555
H19 C15 1_555 1_555
C16 C12 1_555 1_555
H20 C16 1_555 1_555
C17 N5 1_555 1_555
C18 C17 1_555 1_555
H21 C18 1_555 1_555
H22 C18 1_555 1_555
H23 C18 1_555 1_555
C19 C17 1_555 1_555
H24 C19 1_555 1_555
H25 C19 1_555 1_555
H26 C19 1_555 1_555
C20 N5 1_555 1_555
C21 N7 1_555 1_555
C22 C21 1_555 1_555
C23 C22 1_555 1_555
H27 C23 1_555 1_555
C24 C23 1_555 1_555
H28 C24 1_555 1_555
C25 N8 1_555 1_555
H29 C25 1_555 1_555
C26 C22 1_555 1_555
H30 C26 1_555 1_555
O5 C36 1_555 1_555
O6 C37 1_555 1_555
O7 C46 1_555 1_555
O8 C47 1_555 1_555
N9 H31 1_555 1_555
N10 H32 1_555 1_555
N11 N10 1_555 1_555
H33 N11 1_555 1_555
N12 C40 1_555 1_555
N13 H34 1_555 1_555
N14 H35 1_555 1_555
N15 N14 1_555 1_555
H36 N15 1_555 1_555
N16 C50 1_555 1_555
C27 C28 1_555 1_555
C28 H37 1_555 1_555
C29 C28 1_555 1_555
C30 C29 1_555 1_555
H38 C30 1_555 1_555
C31 C30 1_555 1_555
H39 C31 1_555 1_555
C32 C27 1_555 1_555
H40 C32 1_555 1_555
C33 N9 1_555 1_555
C34 C33 1_555 1_555
H41 C34 1_555 1_555
H42 C34 1_555 1_555
H43 C34 1_555 1_555
C35 C33 1_555 1_555
H44 C35 1_555 1_555
H45 C35 1_555 1_555
H46 C35 1_555 1_555
C36 N9 1_555 1_555
C37 N11 1_555 1_555
C38 C37 1_555 1_555
C39 C38 1_555 1_555
H47 C39 1_555 1_555
C40 C39 1_555 1_555
H48 C40 1_555 1_555
C41 N12 1_555 1_555
H49 C41 1_555 1_555
C42 C38 1_555 1_555
H50 C42 1_555 1_555
C43 N13 1_555 1_555
C44 C43 1_555 1_555
H51 C44 1_555 1_555
H52 C44 1_555 1_555
H53 C44 1_555 1_555
C45 C43 1_555 1_555
H54 C45 1_555 1_555
H55 C45 1_555 1_555
H56 C45 1_555 1_555
C46 N13 1_555 1_555
C47 N15 1_555 1_555
C48 C47 1_555 1_555
C49 C48 1_555 1_555
H57 C49 1_555 1_555
C50 C49 1_555 1_555
H58 C50 1_555 1_555
C51 N16 1_555 1_555
H59 C51 1_555 1_555
C52 C48 1_555 1_555
H60 C52 1_555 1_555
O9 C62 1_555 1_555
O10 C63 1_555 1_555
O11 C72 1_555 1_555
O12 C73 1_555 1_555
N17 H61 1_555 1_555
N18 H62 1_555 1_555
N19 N18 1_555 1_555
H63 N19 1_555 1_555
N20 C66 1_555 1_555
N21 H64 1_555 1_555
N22 H65 1_555 1_555
N23 N22 1_555 1_555
H66 N23 1_555 1_555
N24 C76 1_555 1_555
C53 C54 1_555 1_555
C54 H67 1_555 1_555
C55 C54 1_555 1_555
C56 C55 1_555 1_555
H68 C56 1_555 1_555
C57 C56 1_555 1_555
H69 C57 1_555 1_555
C58 C53 1_555 1_555
H70 C58 1_555 1_555
C59 N17 1_555 1_555
C60 C59 1_555 1_555
H71 C60 1_555 1_555
H72 C60 1_555 1_555
H73 C60 1_555 1_555
C61 C59 1_555 1_555
H74 C61 1_555 1_555
H75 C61 1_555 1_555
H76 C61 1_555 1_555
C62 N17 1_555 1_555
C63 N19 1_555 1_555
C64 C63 1_555 1_555
C65 C64 1_555 1_555
H77 C65 1_555 1_555
C66 C65 1_555 1_555
H78 C66 1_555 1_555
C67 N20 1_555 1_555
H79 C67 1_555 1_555
C68 C64 1_555 1_555
H80 C68 1_555 1_555
C69 N21 1_555 1_555
C70 C69 1_555 1_555
H81 C70 1_555 1_555
H82 C70 1_555 1_555
H83 C70 1_555 1_555
C71 C69 1_555 1_555
H84 C71 1_555 1_555
H85 C71 1_555 1_555
H86 C71 1_555 1_555
C72 N21 1_555 1_555
C73 N23 1_555 1_555
C74 C73 1_555 1_555
C75 C74 1_555 1_555
H87 C75 1_555 1_555
C76 C75 1_555 1_555
H88 C76 1_555 1_555
C77 N24 1_555 1_555
H89 C77 1_555 1_555
C78 C74 1_555 1_555
H90 C78 1_555 1_555
O13 C88 1_555 1_555
O14 C89 1_555 1_555
O15 C98 1_555 1_555
O16 C99 1_555 1_555
N25 H91 1_555 1_555
N26 H92 1_555 1_555
N27 N26 1_555 1_555
H93 N27 1_555 1_555
N28 C92 1_555 1_555
N29 H94 1_555 1_555
N30 H95 1_555 1_555
N31 N30 1_555 1_555
H96 N31 1_555 1_555
N32 C102 1_555 1_555
C79 C80 1_555 1_555
C80 H97 1_555 1_555
C81 C80 1_555 1_555
C82 C81 1_555 1_555
H98 C82 1_555 1_555
C83 C82 1_555 1_555
H99 C83 1_555 1_555
C84 C79 1_555 1_555
H100 C84 1_555 1_555
C85 N25 1_555 1_555
C86 C85 1_555 1_555
H101 C86 1_555 1_555
H102 C86 1_555 1_555
H103 C86 1_555 1_555
C87 C85 1_555 1_555
H104 C87 1_555 1_555
H105 C87 1_555 1_555
H106 C87 1_555 1_555
C88 N25 1_555 1_555
C89 N27 1_555 1_555
C90 C89 1_555 1_555
C91 C90 1_555 1_555
H107 C91 1_555 1_555
C92 C91 1_555 1_555
H108 C92 1_555 1_555
C93 N28 1_555 1_555
H109 C93 1_555 1_555
C94 C90 1_555 1_555
H110 C94 1_555 1_555
C95 N29 1_555 1_555
C96 C95 1_555 1_555
H111 C96 1_555 1_555
H112 C96 1_555 1_555
H113 C96 1_555 1_555
C97 C95 1_555 1_555
H114 C97 1_555 1_555
H115 C97 1_555 1_555
H116 C97 1_555 1_555
C98 N29 1_555 1_555
C99 N31 1_555 1_555
C100 C99 1_555 1_555
C101 C100 1_555 1_555
H117 C101 1_555 1_555
C102 C101 1_555 1_555
H118 C102 1_555 1_555
C103 N32 1_555 1_555
H119 C103 1_555 1_555
C104 C100 1_555 1_555
H120 C104 1_555 1_555
O17 H124 1_555 1_555
C108 O17 1_555 1_555
H125 C108 1_555 1_555
H126 C108 1_555 1_555
C109 C108 1_555 1_555
H127 C109 1_555 1_555
H128 C109 1_555 1_555
C110 C109 1_555 1_555
H129 C110 1_555 1_555
H130 C110 1_555 1_555
C111 C110 1_555 1_555
H131 C111 1_555 1_555
H132 C111 1_555 1_555
H133 C111 1_555 1_555
O18 H134 1_555 1_555
C112 O18 1_555 1_555
H135 C112 1_555 1_555
H136 C112 1_555 1_555
C113 C112 1_555 1_555
H137 C113 1_555 1_555
H138 C113 1_555 1_555
C114 C113 1_555 1_555
H139 C114 1_555 1_555
H140 C114 1_555 1_555
C115 C114 1_555 1_555
H141 C115 1_555 1_555
H142 C115 1_555 1_555
H143 C115 1_555 1_555
O19 H144 1_555 1_555
C116 O19 1_555 1_555
H145 C116 1_555 1_555
H146 C116 1_555 1_555
C117 C116 1_555 1_555
H147 C117 1_555 1_555
H148 C117 1_555 1_555
C118 C117 1_555 1_555
H149 C118 1_555 1_555
H150 C118 1_555 1_555
C119 C118 1_555 1_555
H151 C119 1_555 1_555
H152 C119 1_555 1_555
H153 C119 1_555 1_555
O20 H161 1_555 1_555
C123 O20 1_555 1_555
H162 C123 1_555 1_555
H163 C123 1_555 1_555
C124 H164 1_555 1_555
H165 C124 1_555 1_555
C125 C124 1_555 1_555
H166 C125 1_555 1_555
H167 C125 1_555 1_555
H168 C125 1_555 1_555
C126 C123 1_555 1_555
H169 C126 1_555 1_555
H170 C126 1_555 1_555
N2 C10 1_555 1_555
N6 C20 1_555 1_555
C1 C7 1_555 1_555
C3 C17 1_555 1_555
C5 C6 1_555 1_555
C15 C16 1_555 1_555
C25 C26 1_555 1_555
N10 C36 1_555 1_555
N14 C46 1_555 1_555
C27 C33 1_555 1_555
C29 C43 1_555 1_555
C31 C32 1_555 1_555
C41 C42 1_555 1_555
C51 C52 1_555 1_555
N18 C62 1_555 1_555
N22 C72 1_555 1_555
C53 C59 1_555 1_555
C55 C69 1_555 1_555
C57 C58 1_555 1_555
C67 C68 1_555 1_555
C77 C78 1_555 1_555
N26 C88 1_555 1_555
N30 C98 1_555 1_555
C79 C85 1_555 1_555
C81 C95 1_555 1_555
C83 C84 1_555 1_555
C93 C94 1_555 1_555
C103 C104 1_555 1_555
C124 C126 1_555 1_555

#END
