
#######################################################################
#
#                 Cambridge Crystallographic Data Centre
#                                CCDC 
#
#######################################################################
#
# If this CIF has been generated from an entry in the Cambridge 
# Structural Database, then it will include bibliographic, chemical, 
# crystal, experimental, refinement or atomic coordinate data resulting 
# from the CCDC's data processing and validation procedures.
#
#######################################################################

data_CESVII
_chemical_formula_moiety         'C26 H30 N8 O4,H2 O1'
_chemical_name_systematic        
"N,N'-[1,3-phenylenebis(propane-2,2-diyl)]bis[2-(pyridine-4-carbonyl)hydrazine-1-carboxamide] monohydrate"
_symmetry_cell_setting           orthorhombic
_symmetry_space_group_name_H-M   'P 21 21 21'
_symmetry_Int_Tables_number      19
_space_group_name_Hall           'P 2ac 2ab'
loop_
_symmetry_equiv_pos_site_id
_symmetry_equiv_pos_as_xyz
1 x,y,z
2 1/2-x,-y,1/2+z
3 1/2+x,1/2-y,-z
4 -x,1/2+y,1/2-z
_cell_length_a                   9.0337(7)
_cell_length_b                   14.7317(14)
_cell_length_c                   19.8607(15)
_cell_angle_alpha                90
_cell_angle_beta                 90
_cell_angle_gamma                90
_cell_volume                     2643.1
_exptl_crystal_colour            colorless
_exptl_crystal_description       prism
_cell_formula_units_Z            4
loop_
_atom_site_label
_atom_site_type_symbol
_atom_site_fract_x
_atom_site_fract_y
_atom_site_fract_z
O1 O 0.7375(3) 0.39604(19) 0.51371(12)
O2 O 0.6629(3) 0.61239(18) 0.44428(12)
O3 O 0.6497(3) 0.50672(18) 0.78145(13)
O4 O 1.0201(3) 0.54578(19) 0.73471(12)
N1 N 0.5210(4) 0.1879(2) 0.33926(16)
N2 N 0.8202(3) 0.4609(2) 0.41759(15)
H1 H 0.829007 0.458038 0.374538
N3 N 0.8806(3) 0.5329(2) 0.45309(16)
H2 H 0.942361 0.515681 0.479625
N4 N 0.8256(3) 0.6454(2) 0.52874(15)
H3 H 0.891728 0.620407 0.550441
N5 N 0.6324(3) 0.4172(2) 0.68907(16)
H4 H 0.680738 0.379853 0.666290
N6 N 0.8345(4) 0.4045(2) 0.75856(16)
H5 H 0.923016 0.428078 0.850137
H6 H 0.883626 0.373728 0.727377
N7 N 0.9232(3) 0.4444(2) 0.80822(15)
N8 N 1.3258(4) 0.6101(3) 0.93907(19)
C1 C 0.5104(5) 0.1946(3) 0.4066(2)
H7 H 0.449460 0.152579 0.429945
C2 C 0.5850(5) 0.2608(3) 0.44349(19)
H8 H 0.573912 0.263836 0.491000
C3 C 0.6755(4) 0.3219(2) 0.41033(18)
C4 C 0.6920(4) 0.3130(2) 0.34092(18)
H9 H 0.756358 0.351942 0.316486
C5 C 0.6120(5) 0.2460(3) 0.3087(2)
H10 H 0.622515 0.240949 0.261211
C6 C 0.7473(4) 0.3951(2) 0.45167(18)
C7 C 0.7775(4) 0.5988(2) 0.47510(17)
C8 C 0.7406(4) 0.7162(2) 0.56409(18)
C9 C 0.7031(4) 0.7934(3) 0.51508(19)
H11 H 0.794245 0.815686 0.494022
H12 H 0.655305 0.843032 0.539710
H13 H 0.635830 0.770777 0.480197
C10 C 0.8458(5) 0.7523(3) 0.61919(19)
H14 H 0.871411 0.702833 0.650083
H15 H 0.796730 0.801026 0.644248
H16 H 0.936195 0.775849 0.598206
C11 C 0.6042(4) 0.6773(3) 0.59936(17)
C12 C 0.4904(4) 0.7338(3) 0.62123(19)
H17 H 0.493110 0.796781 0.611013
C13 C 0.3728(4) 0.6983(3) 0.6580(2)
H18 H 0.295000 0.737206 0.672298
C14 C 0.3680(4) 0.6067(3) 0.67412(19)
H19 H 0.286803 0.583273 0.699099
C15 C 0.4813(4) 0.5489(2) 0.65387(17)
C16 C 0.5974(4) 0.5850(2) 0.61585(17)
H20 H 0.673903 0.545704 0.600741
C17 C 0.4805(4) 0.4472(3) 0.67108(18)
C18 C 0.3753(4) 0.4228(3) 0.72928(19)
H21 H 0.387650 0.358565 0.740956
H22 H 0.272780 0.433739 0.715390
H23 H 0.398569 0.460400 0.768570
C19 C 0.4353(4) 0.3921(3) 0.60880(19)
H24 H 0.504278 0.404795 0.571893
H25 H 0.334829 0.409239 0.595162
H26 H 0.437911 0.327246 0.619566
C20 C 0.7024(4) 0.4483(2) 0.74450(18)
C21 C 1.0133(4) 0.5137(3) 0.79183(18)
C22 C 1.1142(4) 0.5481(3) 0.84638(18)
C23 C 1.2006(5) 0.6241(3) 0.8329(2)
H27 H 1.188454 0.656836 0.792027
C24 C 1.3047(5) 0.6515(3) 0.8801(2)
H28 H 1.364499 0.702714 0.869867
C25 C 1.2386(4) 0.5397(3) 0.9523(2)
H29 H 1.249160 0.510823 0.994813
C26 C 1.1330(4) 0.5054(3) 0.9083(2)
H30 H 1.074965 0.454039 0.920168
O5 O 1.0647(3) 0.5444(2) 0.59401(13)
H31 H 1.144788 0.571907 0.603441
H32 H 1.024073 0.534927 0.631995
loop_
_geom_bond_atom_site_label_1
_geom_bond_atom_site_label_2
_geom_bond_site_symmetry_1
_geom_bond_site_symmetry_2
O1 C6 1_555 1_555
O2 C7 1_555 1_555
O3 C20 1_555 1_555
O4 C21 1_555 1_555
N1 C1 1_555 1_555
N2 H1 1_555 1_555
N3 N2 1_555 1_555
H2 N3 1_555 1_555
N4 H3 1_555 1_555
N5 H4 1_555 1_555
N6 H6 1_555 1_555
H5 N7 1_555 1_555
N7 N6 1_555 1_555
N8 C24 1_555 1_555
C1 H7 1_555 1_555
C2 C1 1_555 1_555
H8 C2 1_555 1_555
C3 C2 1_555 1_555
C4 C3 1_555 1_555
H9 C4 1_555 1_555
C5 N1 1_555 1_555
H10 C5 1_555 1_555
C6 N2 1_555 1_555
C7 N3 1_555 1_555
C8 N4 1_555 1_555
C9 C8 1_555 1_555
H11 C9 1_555 1_555
H12 C9 1_555 1_555
H13 C9 1_555 1_555
C10 C8 1_555 1_555
H14 C10 1_555 1_555
H15 C10 1_555 1_555
H16 C10 1_555 1_555
C11 C8 1_555 1_555
C12 C11 1_555 1_555
H17 C12 1_555 1_555
C13 C12 1_555 1_555
H18 C13 1_555 1_555
C14 C13 1_555 1_555
H19 C14 1_555 1_555
C15 C14 1_555 1_555
C16 C11 1_555 1_555
H20 C16 1_555 1_555
C17 N5 1_555 1_555
C18 C17 1_555 1_555
H21 C18 1_555 1_555
H22 C18 1_555 1_555
H23 C18 1_555 1_555
C19 C17 1_555 1_555
H24 C19 1_555 1_555
H25 C19 1_555 1_555
H26 C19 1_555 1_555
C20 N5 1_555 1_555
C21 N7 1_555 1_555
C22 C21 1_555 1_555
C23 C22 1_555 1_555
H27 C23 1_555 1_555
C24 C23 1_555 1_555
H28 C24 1_555 1_555
C25 N8 1_555 1_555
H29 C25 1_555 1_555
C26 C22 1_555 1_555
H30 C26 1_555 1_555
O5 H31 1_555 1_555
H32 O5 1_555 1_555
N4 C7 1_555 1_555
N6 C20 1_555 1_555
C3 C6 1_555 1_555
C4 C5 1_555 1_555
C15 C16 1_555 1_555
C15 C17 1_555 1_555
C25 C26 1_555 1_555

#END
