
#######################################################################
#
#                 Cambridge Crystallographic Data Centre
#                                CCDC 
#
#######################################################################
#
# If this CIF has been generated from an entry in the Cambridge 
# Structural Database, then it will include bibliographic, chemical, 
# crystal, experimental, refinement or atomic coordinate data resulting 
# from the CCDC's data processing and validation procedures.
#
#######################################################################

data_CESVUU
_chemical_formula_moiety         'C26 H30 N8 O4,2(C3 H8 O1)'
_chemical_name_systematic        
"N,N'-[1,3-phenylenebis(propane-2,2-diyl)]bis[2-(pyridine-4-carbonyl)hydrazine-1-carboxamide] propan-2-ol solvate"
_symmetry_cell_setting           orthorhombic
_symmetry_space_group_name_H-M   'P b c a'
_symmetry_Int_Tables_number      61
_space_group_name_Hall           '-P 2ac 2ab'
loop_
_symmetry_equiv_pos_site_id
_symmetry_equiv_pos_as_xyz
1 x,y,z
2 1/2-x,-y,1/2+z
3 1/2+x,1/2-y,-z
4 -x,1/2+y,1/2-z
5 -x,-y,-z
6 1/2+x,y,1/2-z
7 1/2-x,1/2+y,z
8 x,1/2-y,1/2+z
_cell_length_a                   17.306(2)
_cell_length_b                   16.8727(19)
_cell_length_c                   23.268(3)
_cell_angle_alpha                90
_cell_angle_beta                 90
_cell_angle_gamma                90
_cell_volume                     6794.23
_exptl_crystal_colour            colorless
_exptl_crystal_description       needle
_cell_formula_units_Z            8
loop_
_atom_site_label
_atom_site_type_symbol
_atom_site_fract_x
_atom_site_fract_y
_atom_site_fract_z
O1 O 0.64376(15) 0.65641(15) 0.46331(12)
O2 O 0.54615(15) 0.84650(14) 0.43395(11)
O3 O 0.88175(15) 0.77696(15) 0.46891(11)
O4 O 0.76356(15) 0.84360(15) 0.57644(11)
N1 N 0.9632(2) 0.87422(19) 0.73039(14)
N2 N 0.82584(18) 0.72589(17) 0.56983(13)
H1 H 0.854899 0.689268 0.588025
N3 N 0.79196(18) 0.70559(17) 0.51787(13)
H2 H 0.747945 0.684972 0.525851
N4 N 0.78969(17) 0.70843(17) 0.41951(12)
H3 H 0.745731 0.684791 0.429518
N5 N 0.62642(17) 0.89758(16) 0.50251(12)
H4 H 0.660122 0.875036 0.528367
N6 N 0.56894(18) 0.77714(17) 0.51603(13)
H5 H 0.600719 0.763179 0.542216
N7 N 0.53167(18) 0.71097(17) 0.49308(13)
H6 H 0.478481 0.706391 0.500493
N8 N 0.4571(2) 0.44630(18) 0.40391(14)
C1 C 0.8927(3) 0.9046(2) 0.72191(17)
H7 H 0.876696 0.946649 0.746305
C2 C 0.8417(2) 0.8793(2) 0.68042(16)
H8 H 0.792215 0.903195 0.676864
C3 C 0.8638(2) 0.8181(2) 0.64370(15)
C4 C 0.9363(2) 0.7846(2) 0.65196(16)
H9 H 0.953674 0.742031 0.628553
C5 C 0.9826(3) 0.8151(2) 0.69537(17)
H10 H 1.032101 0.791795 0.700518
C6 C 0.8124(2) 0.7970(2) 0.59435(16)
C7 C 0.8240(2) 0.7335(2) 0.46850(16)
C8 C 0.7989(2) 0.7478(2) 0.36336(16)
C9 C 0.8838(2) 0.7401(2) 0.34342(17)
H11 H 0.917161 0.771430 0.368772
H12 H 0.888629 0.759619 0.303913
H13 H 0.899553 0.684315 0.344932
C10 C 0.7465(3) 0.7031(2) 0.32184(17)
H14 H 0.762888 0.647636 0.319588
H15 H 0.749790 0.727383 0.283651
H16 H 0.692992 0.705680 0.335594
C11 C 0.7712(2) 0.8338(2) 0.36564(16)
C12 C 0.7835(2) 0.8856(2) 0.31974(16)
H17 H 0.813775 0.869175 0.287831
C13 C 0.7517(3) 0.9603(2) 0.32069(17)
H18 H 0.760272 0.994989 0.289176
C14 C 0.7074(2) 0.9860(2) 0.36687(16)
H19 H 0.685308 1.037504 0.366467
C15 C 0.6955(2) 0.9364(2) 0.41351(15)
C16 C 0.7278(2) 0.8609(2) 0.41165(15)
H20 H 0.719751 0.826349 0.443340
C17 C 0.6550(2) 0.9651(2) 0.46809(15)
C18 C 0.7169(2) 1.0049(2) 0.50548(16)
H21 H 0.692412 1.028983 0.539209
H22 H 0.743244 1.046057 0.483104
H23 H 0.754603 0.965167 0.518010
C19 C 0.5889(2) 1.0231(2) 0.45626(16)
H24 H 0.550768 0.997928 0.431072
H25 H 0.609429 1.070709 0.437511
H26 H 0.564253 1.037942 0.492618
C20 C 0.5791(2) 0.8410(2) 0.48037(16)
C21 C 0.5725(2) 0.6535(2) 0.46765(15)
C22 C 0.5291(2) 0.5831(2) 0.44546(15)
C23 C 0.4510(2) 0.5698(2) 0.45467(15)
H27 H 0.420514 0.607028 0.475307
C24 C 0.4186(2) 0.5011(2) 0.43302(16)
H28 H 0.365094 0.492488 0.439492
C25 C 0.5319(3) 0.4601(2) 0.39441(18)
H29 H 0.560552 0.422066 0.373147
C26 C 0.5699(2) 0.5271(2) 0.41399(16)
H30 H 0.623234 0.534587 0.405997
O5 O 0.36086(19) 0.31040(16) 0.39177(12)
H31 H 0.393334 0.347394 0.392253
C27 C 0.3480(3) 0.2855(2) 0.33353(18)
H32 H 0.290868 0.282354 0.327661
C28 C 0.3803(3) 0.2029(3) 0.32531(19)
H33 H 0.358719 0.167462 0.354597
H34 H 0.436669 0.204298 0.328995
H35 H 0.366311 0.183358 0.287027
C29 C 0.3787(3) 0.3437(3) 0.29110(19)
H36 H 0.434759 0.348827 0.296032
H37 H 0.354189 0.395342 0.297290
H38 H 0.367486 0.325200 0.252062
O6 O 0.91369(16) 0.59379(15) 0.60645(11)
H39 H 0.957599 0.601712 0.592180
C30 C 0.9194(2) 0.5355(2) 0.65098(17)
H40 H 0.939325 0.485137 0.633897
C31 C 0.9741(3) 0.5620(3) 0.6971(2)
H41 H 0.953267 0.609266 0.716135
H42 H 1.024328 0.574639 0.679990
H43 H 0.980413 0.519509 0.725437
C32 C 0.8387(3) 0.5214(3) 0.67275(18)
H44 H 0.806837 0.499672 0.641708
H45 H 0.816451 0.571648 0.685925
H46 H 0.840255 0.483768 0.704792
loop_
_geom_bond_atom_site_label_1
_geom_bond_atom_site_label_2
_geom_bond_site_symmetry_1
_geom_bond_site_symmetry_2
O1 C21 1_555 1_555
O2 C20 1_555 1_555
O3 C7 1_555 1_555
O4 C6 1_555 1_555
N1 C1 1_555 1_555
N2 H1 1_555 1_555
N3 N2 1_555 1_555
H2 N3 1_555 1_555
N4 H3 1_555 1_555
N5 H4 1_555 1_555
N6 H5 1_555 1_555
N7 N6 1_555 1_555
H6 N7 1_555 1_555
N8 C24 1_555 1_555
C1 H7 1_555 1_555
C2 C1 1_555 1_555
H8 C2 1_555 1_555
C3 C2 1_555 1_555
C4 C3 1_555 1_555
H9 C4 1_555 1_555
C5 N1 1_555 1_555
H10 C5 1_555 1_555
C6 N2 1_555 1_555
C7 N3 1_555 1_555
C8 N4 1_555 1_555
C9 C8 1_555 1_555
H11 C9 1_555 1_555
H12 C9 1_555 1_555
H13 C9 1_555 1_555
C10 C8 1_555 1_555
H14 C10 1_555 1_555
H15 C10 1_555 1_555
H16 C10 1_555 1_555
C11 C8 1_555 1_555
C12 C11 1_555 1_555
H17 C12 1_555 1_555
C13 C12 1_555 1_555
H18 C13 1_555 1_555
C14 C13 1_555 1_555
H19 C14 1_555 1_555
C15 C14 1_555 1_555
C16 C11 1_555 1_555
H20 C16 1_555 1_555
C17 N5 1_555 1_555
C18 C17 1_555 1_555
H21 C18 1_555 1_555
H22 C18 1_555 1_555
H23 C18 1_555 1_555
C19 C17 1_555 1_555
H24 C19 1_555 1_555
H25 C19 1_555 1_555
H26 C19 1_555 1_555
C20 N5 1_555 1_555
C21 N7 1_555 1_555
C22 C21 1_555 1_555
C23 C22 1_555 1_555
H27 C23 1_555 1_555
C24 C23 1_555 1_555
H28 C24 1_555 1_555
C25 N8 1_555 1_555
H29 C25 1_555 1_555
C26 C22 1_555 1_555
H30 C26 1_555 1_555
O5 H31 1_555 1_555
C27 O5 1_555 1_555
H32 C27 1_555 1_555
C28 C27 1_555 1_555
H33 C28 1_555 1_555
H34 C28 1_555 1_555
H35 C28 1_555 1_555
C29 C27 1_555 1_555
H36 C29 1_555 1_555
H37 C29 1_555 1_555
H38 C29 1_555 1_555
O6 H39 1_555 1_555
C30 O6 1_555 1_555
H40 C30 1_555 1_555
C31 C30 1_555 1_555
H41 C31 1_555 1_555
H42 C31 1_555 1_555
H43 C31 1_555 1_555
C32 C30 1_555 1_555
H44 C32 1_555 1_555
H45 C32 1_555 1_555
H46 C32 1_555 1_555
N4 C7 1_555 1_555
N6 C20 1_555 1_555
C3 C6 1_555 1_555
C4 C5 1_555 1_555
C15 C16 1_555 1_555
C15 C17 1_555 1_555
C25 C26 1_555 1_555

#END
