
#######################################################################
#
#                 Cambridge Crystallographic Data Centre
#                                CCDC 
#
#######################################################################
#
# If this CIF has been generated from an entry in the Cambridge 
# Structural Database, then it will include bibliographic, chemical, 
# crystal, experimental, refinement or atomic coordinate data resulting 
# from the CCDC's data processing and validation procedures.
#
#######################################################################

data_CESXAZ
_chemical_formula_moiety         'C19 H21 N1 O4 S2'
_chemical_name_systematic        
5-Anilino-4-ethoxycarbonyl-3-oxo-2,3-dihydrothiophene-2-spiro-3'-(4,5-dimethyl-1-oxo-1-thiacyclohex-4-ene)
_symmetry_cell_setting           monoclinic
_symmetry_space_group_name_H-M   'P 21/c'
_symmetry_Int_Tables_number      14
_space_group_name_Hall           '-P 2ybc'
loop_
_symmetry_equiv_pos_site_id
_symmetry_equiv_pos_as_xyz
1 x,y,z
2 -x,1/2+y,1/2-z
3 -x,-y,-z
4 x,1/2-y,1/2+z
_cell_length_a                   11.360(2)
_cell_length_b                   12.210(2)
_cell_length_c                   13.974(2)
_cell_angle_alpha                90
_cell_angle_beta                 99.91(1)
_cell_angle_gamma                90
_cell_volume                     1909.35
_exptl_crystal_colour            colorless
_chemical_melting_point          200-202deg.C
_cell_formula_units_Z            4
loop_
_atom_site_label
_atom_site_type_symbol
_atom_site_fract_x
_atom_site_fract_y
_atom_site_fract_z
S1 S 0.47620 0.01880 0.36660
S2 S 0.34830 0.07960 0.16510
O1 O 0.49850 0.13790 0.38300
O2 O 0.66420 -0.04250 0.24540
O3 O 0.65470 0.18480 0.01120
O4 O 0.76840 0.06790 0.10930
N1 N 0.42120 0.20250 0.02980
C1 C 0.32280 -0.00360 0.37830
C2 C 0.25690 -0.09640 0.32180
C3 C 0.29840 -0.15410 0.25400
C4 C 0.41840 -0.13100 0.22490
C5 C 0.45540 -0.01090 0.23600
C6 C 0.57740 0.00820 0.20410
C7 C 0.56970 0.08570 0.12660
C8 C 0.45490 0.13020 0.09980
C9 C 0.13680 -0.11470 0.35140
C10 C 0.23180 -0.24770 0.19820
C11 C 0.66610 0.11820 0.07650
C12 C 0.30060 0.24220 0.00390
C13 C 0.25390 0.30930 0.06730
C14 C 0.13900 0.34910 0.04090
C15 C 0.07180 0.32160 -0.04770
C16 C 0.11950 0.25560 -0.10970
C17 C 0.23510 0.21390 -0.08490
C18 C 0.86770 0.09340 0.06070
C19 C 0.98030 0.06240 0.12720
H1 H 0.48770 0.23350 -0.00990
H2 H 0.27480 0.07060 0.35480
H3 H 0.32050 -0.01740 0.45430
H4 H 0.48510 -0.18000 0.27010
H5 H 0.41400 -0.15410 0.14980
H6 H 0.08550 -0.18150 0.31460
H7 H 0.08700 -0.03940 0.33740
H8 H 0.15450 -0.13040 0.42860
H9 H 0.16910 -0.28380 0.23910
H10 H 0.29650 -0.30850 0.18570
H11 H 0.18430 -0.21830 0.12940
H12 H 0.30640 0.33060 0.13670
H13 H 0.10160 0.40190 0.09000
H14 H -0.01810 0.35240 -0.06790
H15 H 0.06690 0.23500 -0.17940
H16 H 0.27260 0.16100 -0.13380
H17 H 0.86000 0.04810 -0.00640
H18 H 0.86830 0.18010 0.04540
H19 H 1.05950 0.08240 0.09770
H20 H 0.97480 -0.02530 0.13560
H21 H 0.98470 0.10150 0.19700
loop_
_geom_bond_atom_site_label_1
_geom_bond_atom_site_label_2
_geom_bond_site_symmetry_1
_geom_bond_site_symmetry_2
S1 O1 1_555 1_555
S2 C5 1_555 1_555
O2 C6 1_555 1_555
O3 C11 1_555 1_555
O4 C11 1_555 1_555
N1 C8 1_555 1_555
C1 S1 1_555 1_555
C2 C1 1_555 1_555
C3 C2 1_555 1_555
C4 C3 1_555 1_555
C5 S1 1_555 1_555
C6 C5 1_555 1_555
C7 C6 1_555 1_555
C8 S2 1_555 1_555
C9 C2 1_555 1_555
C10 C3 1_555 1_555
C11 C7 1_555 1_555
C12 N1 1_555 1_555
C13 C12 1_555 1_555
C14 C13 1_555 1_555
C15 C14 1_555 1_555
C16 C15 1_555 1_555
C17 C12 1_555 1_555
C18 O4 1_555 1_555
C19 C18 1_555 1_555
H1 N1 1_555 1_555
H2 C1 1_555 1_555
H3 C1 1_555 1_555
H4 C4 1_555 1_555
H5 C4 1_555 1_555
H6 C9 1_555 1_555
H7 C9 1_555 1_555
H8 C9 1_555 1_555
H9 C10 1_555 1_555
H10 C10 1_555 1_555
H11 C10 1_555 1_555
H12 C13 1_555 1_555
H13 C14 1_555 1_555
H14 C15 1_555 1_555
H15 C16 1_555 1_555
H16 C17 1_555 1_555
H17 C18 1_555 1_555
H18 C18 1_555 1_555
H19 C19 1_555 1_555
H20 C19 1_555 1_555
H21 C19 1_555 1_555
C4 C5 1_555 1_555
C7 C8 1_555 1_555
C16 C17 1_555 1_555

#END
