
#######################################################################
#
#                 Cambridge Crystallographic Data Centre
#                                CCDC 
#
#######################################################################
#
# If this CIF has been generated from an entry in the Cambridge 
# Structural Database, then it will include bibliographic, chemical, 
# crystal, experimental, refinement or atomic coordinate data resulting 
# from the CCDC's data processing and validation procedures.
#
#######################################################################

data_CESXUV
_chemical_formula_moiety         'C9 H16 B10'
_chemical_name_systematic        
1,2-(2-Methylenephenyl)-1,2-dicarba-closo-dodecaborane
_symmetry_cell_setting           orthorhombic
_symmetry_space_group_name_H-M   'P 21 21 21'
_symmetry_Int_Tables_number      19
_space_group_name_Hall           'P 2ac 2ab'
loop_
_symmetry_equiv_pos_site_id
_symmetry_equiv_pos_as_xyz
1 x,y,z
2 1/2-x,-y,1/2+z
3 -x,1/2+y,1/2-z
4 1/2+x,1/2-y,-z
_cell_length_a                   7.0660(15)
_cell_length_b                   8.4442(17)
_cell_length_c                   22.582(5)
_cell_angle_alpha                90
_cell_angle_beta                 90
_cell_angle_gamma                90
_cell_volume                     1347.39
_exptl_crystal_colour            colorless
_exptl_crystal_description       block
_cell_formula_units_Z            4
loop_
_atom_site_label
_atom_site_type_symbol
_atom_site_fract_x
_atom_site_fract_y
_atom_site_fract_z
C1 C 0.1553(3) 0.9300(3) 0.10823(10)
C2 C 0.2636(4) 1.0006(3) 0.16663(11)
C3 C 0.0253(3) 1.0597(3) 0.08994(11)
C4 C -0.0942(4) 1.0614(3) 0.04205(12)
H1 H -0.1016 0.9747 0.0168
C5 C -0.2038(4) 1.1952(3) 0.03217(14)
H2 H -0.2857 1.1986 -0.0001
C6 C -0.1920(4) 1.3214(3) 0.06938(15)
H3 H -0.2666 1.4101 0.0624
C7 C -0.0709(4) 1.3200(3) 0.11752(14)
H4 H -0.0649 1.4067 0.1428
C8 C 0.0414(4) 1.1883(3) 0.12774(12)
C9 C 0.1834(4) 1.1655(3) 0.17653(12)
H5 H 0.1229 1.1728 0.2150
H6 H 0.2826 1.2446 0.1742
B1 B 0.0964(5) 0.8543(3) 0.17691(13)
H7 H -0.0402 0.8709 0.1994
B2 B 0.1181(5) 0.7313(4) 0.11360(14)
H8 H -0.0041 0.6679 0.0949
B3 B 0.2987(5) 0.8118(4) 0.06767(14)
H9 H 0.2926 0.7996 0.0192
B4 B 0.3882(4) 0.9849(4) 0.10163(14)
H10 H 0.4398 1.0859 0.0754
B5 B 0.3117(5) 0.8547(4) 0.21618(14)
H11 H 0.3153 0.8711 0.2645
B6 B 0.2258(5) 0.6790(4) 0.18232(14)
H12 H 0.1746 0.5782 0.2087
B7 B 0.3502(5) 0.6510(4) 0.11547(14)
H13 H 0.3796 0.5317 0.0982
B8 B 0.5159(5) 0.8082(5) 0.10788(14)
H14 H 0.6531 0.7917 0.0857
B9 B 0.4903(5) 0.9344(4) 0.17016(15)
H15 H 0.6089 1.0024 0.1888
B10 B 0.4699(5) 0.7270(4) 0.17824(16)
H16 H 0.5778 0.6575 0.2019
loop_
_geom_bond_atom_site_label_1
_geom_bond_atom_site_label_2
_geom_bond_site_symmetry_1
_geom_bond_site_symmetry_2
C1 C2 1_555 1_555
C2 C9 1_555 1_555
C3 C1 1_555 1_555
C4 C3 1_555 1_555
H1 C4 1_555 1_555
C5 C4 1_555 1_555
H2 C5 1_555 1_555
C6 C5 1_555 1_555
H3 C6 1_555 1_555
C7 C6 1_555 1_555
H4 C7 1_555 1_555
C8 C3 1_555 1_555
C9 C8 1_555 1_555
H5 C9 1_555 1_555
H6 C9 1_555 1_555
B1 C1 1_555 1_555
H7 B1 1_555 1_555
B2 C1 1_555 1_555
H8 B2 1_555 1_555
B3 C1 1_555 1_555
H9 B3 1_555 1_555
B4 C1 1_555 1_555
H10 B4 1_555 1_555
B5 C2 1_555 1_555
H11 B5 1_555 1_555
B6 B1 1_555 1_555
H12 B6 1_555 1_555
B7 B2 1_555 1_555
H13 B7 1_555 1_555
B8 B3 1_555 1_555
H14 B8 1_555 1_555
B9 C2 1_555 1_555
H15 B9 1_555 1_555
B10 B5 1_555 1_555
H16 B10 1_555 1_555
C2 B1 1_555 1_555
C2 B4 1_555 1_555
C7 C8 1_555 1_555
B1 B2 1_555 1_555
B1 B5 1_555 1_555
B2 B3 1_555 1_555
B2 B6 1_555 1_555
B3 B4 1_555 1_555
B3 B7 1_555 1_555
B4 B8 1_555 1_555
B4 B9 1_555 1_555
B5 B6 1_555 1_555
B5 B9 1_555 1_555
B6 B7 1_555 1_555
B6 B10 1_555 1_555
B7 B8 1_555 1_555
B7 B10 1_555 1_555
B8 B9 1_555 1_555
B8 B10 1_555 1_555
B9 B10 1_555 1_555

#END
