
#######################################################################
#
#                 Cambridge Crystallographic Data Centre
#                                CCDC 
#
#######################################################################
#
# If this CIF has been generated from an entry in the Cambridge 
# Structural Database, then it will include bibliographic, chemical, 
# crystal, experimental, refinement or atomic coordinate data resulting 
# from the CCDC's data processing and validation procedures.
#
#######################################################################

data_CESZEF
_chemical_formula_moiety         'C14 H12 Cl6'
_chemical_name_systematic        
5,6,7,8,9,9-Hexachloro-1,4,4a,5,8,8a-hexahydro-endo-endo-1,4-propano-5,8-dimethanonaphthalene
_symmetry_cell_setting           monoclinic
_symmetry_space_group_name_H-M   'P 21/c'
_symmetry_Int_Tables_number      14
_space_group_name_Hall           '-P 2ybc'
loop_
_symmetry_equiv_pos_site_id
_symmetry_equiv_pos_as_xyz
1 x,y,z
2 -x,1/2+y,1/2-z
3 -x,-y,-z
4 x,1/2-y,1/2+z
_cell_length_a                   9.42(2)
_cell_length_b                   12.30(4)
_cell_length_c                   27.84(10)
_cell_angle_alpha                90
_cell_angle_beta                 97.27(6)
_cell_angle_gamma                90
_cell_volume                     3199.78
_exptl_crystal_colour            colorless
_cell_formula_units_Z            8
loop_
_atom_site_label
_atom_site_type_symbol
_atom_site_fract_x
_atom_site_fract_y
_atom_site_fract_z
Cl1 Cl 0.40740 0.30160 0.22720
Cl2 Cl 0.28320 0.12510 0.31150
Cl3 Cl 0.35000 0.23310 0.42030
Cl4 Cl 0.51730 0.47580 0.41160
Cl5 Cl 0.55510 0.52080 0.29680
Cl6 Cl 0.22560 0.40060 0.28950
C1 C 0.39030 0.33050 0.28880
C2 C 0.40900 0.23010 0.32270
C3 C 0.40950 0.28900 0.37060
C4 C 0.47560 0.38180 0.36690
C5 C 0.51950 0.38960 0.31680
C6 C 0.64130 0.30660 0.31140
C7 C 0.56630 0.19530 0.31590
C8 C 0.64510 0.12150 0.35620
C9 C 0.69580 0.18590 0.40120
C10 C 0.75920 0.27860 0.39700
C11 C 0.77930 0.31940 0.34740
C12 C 0.77600 0.06840 0.33560
C13 C 0.86020 0.14390 0.30720
C14 C 0.90250 0.25550 0.32790
H1 H 0.68500 0.31800 0.27800
H2 H 0.56600 0.14300 0.28500
H3 H 0.57200 0.06000 0.36600
H4 H 0.67900 0.15500 0.43600
H5 H 0.79800 0.32500 0.42900
H6 H 0.80500 0.40500 0.35000
H7 H 0.73700 0.00200 0.31200
H8 H 0.84800 0.03700 0.36600
H9 H 0.79700 0.15700 0.27300
H10 H 0.95800 0.10200 0.30200
H11 H 0.98700 0.24500 0.35700
H12 H 0.94200 0.30300 0.30000
Cl7 Cl 0.92630 0.37410 0.18590
Cl8 Cl 1.03930 0.10410 0.19150
Cl9 Cl 0.89920 -0.02210 0.09150
Cl10 Cl 0.69310 0.15810 0.02050
Cl11 Cl 0.71000 0.39750 0.07480
Cl12 Cl 0.70380 0.21620 0.16920
C15 C 0.85900 0.26690 0.14680
C16 C 0.97090 0.17860 0.13900
C17 C 0.88310 0.11300 0.09970
C18 C 0.80390 0.18340 0.07240
C19 C 0.83850 0.29590 0.09230
C20 C 0.99240 0.32670 0.08400
C21 C 1.08630 0.24610 0.11740
C22 C 1.19500 0.18370 0.09060
C23 C 1.12990 0.14420 0.04240
C24 C 1.04900 0.21150 0.01380
C25 C 1.02660 0.32400 0.03050
C26 C 1.32410 0.25920 0.08460
C27 C 1.29060 0.36160 0.06970
C28 C 1.16350 0.39150 0.02720
H13 H 1.01300 0.41100 0.09300
H14 H 1.16000 0.28400 0.14500
H15 H 1.22900 0.11300 0.11200
H16 H 1.14900 0.06200 0.03100
H17 H 1.00000 0.18500 -0.02100
H18 H 0.93600 0.35800 0.00800
H19 H 1.38600 0.22400 0.06000
H20 H 1.39000 0.26600 0.12000
H21 H 1.38500 0.39700 0.05900
H22 H 1.26200 0.40500 0.10200
H23 H 1.20000 0.37800 -0.00800
H24 H 1.13700 0.47900 0.02900
loop_
_geom_bond_atom_site_label_1
_geom_bond_atom_site_label_2
_geom_bond_site_symmetry_1
_geom_bond_site_symmetry_2
Cl1 C1 1_555 1_555
Cl2 C2 1_555 1_555
Cl3 C3 1_555 1_555
Cl4 C4 1_555 1_555
Cl5 C5 1_555 1_555
Cl6 C1 1_555 1_555
C1 C2 1_555 1_555
C2 C3 1_555 1_555
C3 C4 1_555 1_555
C4 C5 1_555 1_555
C5 C1 1_555 1_555
C6 C5 1_555 1_555
C7 C2 1_555 1_555
C8 C7 1_555 1_555
C9 C8 1_555 1_555
C10 C9 1_555 1_555
C11 C6 1_555 1_555
C12 C8 1_555 1_555
C13 C12 1_555 1_555
C14 C11 1_555 1_555
H1 C6 1_555 1_555
H2 C7 1_555 1_555
H3 C8 1_555 1_555
H4 C9 1_555 1_555
H5 C10 1_555 1_555
H6 C11 1_555 1_555
H7 C12 1_555 1_555
H8 C12 1_555 1_555
H9 C13 1_555 1_555
H10 C13 1_555 1_555
H11 C14 1_555 1_555
H12 C14 1_555 1_555
Cl7 C15 1_555 1_555
Cl8 C16 1_555 1_555
Cl9 C17 1_555 1_555
Cl10 C18 1_555 1_555
Cl11 C19 1_555 1_555
Cl12 C15 1_555 1_555
C15 C16 1_555 1_555
C16 C17 1_555 1_555
C17 C18 1_555 1_555
C18 C19 1_555 1_555
C19 C15 1_555 1_555
C20 C19 1_555 1_555
C21 C16 1_555 1_555
C22 C21 1_555 1_555
C23 C22 1_555 1_555
C24 C23 1_555 1_555
C25 C20 1_555 1_555
C26 C22 1_555 1_555
C27 C26 1_555 1_555
C28 C25 1_555 1_555
H13 C20 1_555 1_555
H14 C21 1_555 1_555
H15 C22 1_555 1_555
H16 C23 1_555 1_555
H17 C24 1_555 1_555
H18 C25 1_555 1_555
H19 C26 1_555 1_555
H20 C26 1_555 1_555
H21 C27 1_555 1_555
H22 C27 1_555 1_555
H23 C28 1_555 1_555
H24 C28 1_555 1_555
C6 C7 1_555 1_555
C10 C11 1_555 1_555
C13 C14 1_555 1_555
C20 C21 1_555 1_555
C24 C25 1_555 1_555
C27 C28 1_555 1_555

#END
