
#######################################################################
#
#                 Cambridge Crystallographic Data Centre
#                                CCDC 
#
#######################################################################
#
# If this CIF has been generated from an entry in the Cambridge 
# Structural Database, then it will include bibliographic, chemical, 
# crystal, experimental, refinement or atomic coordinate data resulting 
# from the CCDC's data processing and validation procedures.
#
#######################################################################

data_CESZAB
_chemical_formula_moiety         'C13 H10 Cl6'
_chemical_name_systematic        
5,6,7,8,9,9-Hexachloro-1,4,4a,5,8,8a-hexahydro-endo-endo-1,4-ethano-5,8-dimethanonaphthalene
_symmetry_cell_setting           orthorhombic
_symmetry_space_group_name_H-M   'P b c a'
_symmetry_Int_Tables_number      61
_space_group_name_Hall           '-P 2ac 2ab'
loop_
_symmetry_equiv_pos_site_id
_symmetry_equiv_pos_as_xyz
1 x,y,z
2 1/2-x,-y,1/2+z
3 1/2+x,1/2-y,-z
4 -x,1/2+y,1/2-z
5 -x,-y,-z
6 1/2+x,y,1/2-z
7 1/2-x,1/2+y,z
8 x,1/2-y,1/2+z
_cell_length_a                   15.01(4)
_cell_length_b                   13.27(3)
_cell_length_c                   15.0(4)
_cell_angle_alpha                90
_cell_angle_beta                 90
_cell_angle_gamma                90
_cell_volume                     2987.74
_exptl_crystal_colour            colorless
_cell_formula_units_Z            8
loop_
_atom_site_label
_atom_site_type_symbol
_atom_site_fract_x
_atom_site_fract_y
_atom_site_fract_z
Cl1 Cl 0.31710 0.45480 0.24730
Cl2 Cl 0.35330 0.29510 0.42320
Cl3 Cl 0.22520 0.46860 0.51460
Cl4 Cl 0.07190 0.54400 0.36140
Cl5 Cl 0.10220 0.41680 0.17590
Cl6 Cl 0.27920 0.25090 0.20400
C1 C 0.24720 0.35040 0.27590
C2 C 0.24960 0.32360 0.37730
C3 C 0.20610 0.41930 0.41160
C4 C 0.14630 0.44880 0.35350
C5 C 0.14780 0.37450 0.27660
C6 C 0.11060 0.27100 0.30750
C7 C 0.18070 0.23620 0.37820
C8 C 0.13250 0.20770 0.46620
C9 C 0.07120 0.29020 0.49660
C10 C 0.01100 0.31950 0.43730
C11 C 0.01590 0.26540 0.34960
C12 C 0.07090 0.11890 0.44010
C13 C 0.00250 0.15350 0.37080
H1 H 0.10200 0.22500 0.24900
H2 H 0.21700 0.16700 0.36600
H3 H 0.18100 0.19300 0.51800
H4 H 0.07500 0.32200 0.56300
H5 H -0.03700 0.37800 0.45100
H6 H -0.03200 0.29900 0.30500
H7 H 0.03700 0.09100 0.49900
H8 H 0.11100 0.05900 0.41200
H9 H 0.01000 0.11000 0.31000
H10 H -0.06400 0.14200 0.39800
loop_
_geom_bond_atom_site_label_1
_geom_bond_atom_site_label_2
_geom_bond_site_symmetry_1
_geom_bond_site_symmetry_2
Cl1 C1 1_555 1_555
Cl2 C2 1_555 1_555
Cl3 C3 1_555 1_555
Cl4 C4 1_555 1_555
Cl5 C5 1_555 1_555
Cl6 C1 1_555 1_555
C1 C2 1_555 1_555
C2 C3 1_555 1_555
C3 C4 1_555 1_555
C4 C5 1_555 1_555
C5 C1 1_555 1_555
C6 C5 1_555 1_555
C7 C2 1_555 1_555
C8 C7 1_555 1_555
C9 C8 1_555 1_555
C10 C9 1_555 1_555
C11 C6 1_555 1_555
C12 C8 1_555 1_555
C13 C11 1_555 1_555
H1 C6 1_555 1_555
H2 C7 1_555 1_555
H3 C8 1_555 1_555
H4 C9 1_555 1_555
H5 C10 1_555 1_555
H6 C11 1_555 1_555
H7 C12 1_555 1_555
H8 C12 1_555 1_555
H9 C13 1_555 1_555
H10 C13 1_555 1_555
C6 C7 1_555 1_555
C10 C11 1_555 1_555
C12 C13 1_555 1_555

#END
