
#######################################################################
#
#                 Cambridge Crystallographic Data Centre
#                                CCDC 
#
#######################################################################
#
# If this CIF has been generated from an entry in the Cambridge 
# Structural Database, then it will include bibliographic, chemical, 
# crystal, experimental, refinement or atomic coordinate data resulting 
# from the CCDC's data processing and validation procedures.
#
#######################################################################

data_CETRID
_chemical_formula_moiety         'C48 H38 N2 O4 S2,3(C7 H8)'
_chemical_name_systematic        
'2,8-bis[2,6-bis(1-methylethyl)phenyl]-3a,12c,12d,12h-tetrahydro-5,11-dithia-2,8-diazadibenzo[cd,lm]dicyclopenta[ghi,pqr]perylene-1,3,7,9(2H,8H)-tetrone toluene clathrate'
_symmetry_cell_setting           triclinic
_symmetry_space_group_name_H-M   'P -1'
_symmetry_Int_Tables_number      2
_space_group_name_Hall           '-P 1'
loop_
_symmetry_equiv_pos_site_id
_symmetry_equiv_pos_as_xyz
1 x,y,z
2 -x,-y,-z
_cell_length_a                   8.264(2)
_cell_length_b                   11.438(3)
_cell_length_c                   15.204(4)
_cell_angle_alpha                101.119(4)
_cell_angle_beta                 100.521(4)
_cell_angle_gamma                91.278(4)
_cell_volume                     1383.99
_exptl_crystal_colour            orange-red
_cell_formula_units_Z            1
loop_
_atom_site_label
_atom_site_type_symbol
_atom_site_fract_x
_atom_site_fract_y
_atom_site_fract_z
N1 N 0.82503(19) 0.41072(13) 0.71899(10)
S1 S 0.28598(7) 0.17767(4) 0.34328(3)
O1 O 0.6872(2) 0.52503(12) 0.62694(10)
O2 O 0.95886(19) 0.30412(13) 0.81887(10)
C1 C 0.1990(2) -0.08159(17) 0.28690(13)
H1 H 0.1238 -0.0754 0.2347
C2 C 0.2838(3) 0.02222(17) 0.34395(13)
C3 C 0.3908(3) 0.00588(18) 0.42044(15)
C4 C 0.4700(3) 0.11009(18) 0.47714(15)
C5 C 0.4317(3) 0.21407(17) 0.44776(13)
C6 C 0.5113(2) 0.32097(16) 0.50286(12)
H2 H 0.4896 0.3938 0.4859
C7 C 0.6233(2) 0.31656(15) 0.58335(12)
C8 C 0.6601(2) 0.20803(16) 0.61227(13)
C9 C 0.4196(3) -0.10548(18) 0.44282(15)
C10 C 0.7092(2) 0.42602(16) 0.64199(12)
C11 C 0.8606(2) 0.30263(16) 0.74913(12)
C12 C 0.2277(2) -0.19367(16) 0.30859(12)
C13 C 0.9193(2) 0.51817(16) 0.77194(13)
C14 C 0.8673(2) 0.58053(17) 0.84856(14)
C15 C 0.9598(3) 0.68354(19) 0.89649(16)
H3 H 0.9290 0.7265 0.9487
C16 C 1.0963(3) 0.7231(2) 0.86812(17)
H4 H 1.1563 0.7926 0.9007
C17 C 1.1438(3) 0.6600(2) 0.79179(17)
H5 H 1.2358 0.6880 0.7730
C18 C 1.0581(3) 0.55522(19) 0.74176(14)
C19 C 1.1188(3) 0.4826(2) 0.66124(17)
H6 H 1.0266 0.4291 0.6243
C20 C 1.1769(6) 0.5580(4) 0.6007(3)
H7 H 1.0891 0.6050 0.5791
H8 H 1.2092 0.5072 0.5496
H9 H 1.2694 0.6099 0.6348
C21 C 1.2562(5) 0.4053(4) 0.6947(3)
H10 H 1.2179 0.3576 0.7331
H11 H 1.3502 0.4556 0.7287
H12 H 1.2867 0.3540 0.6432
C22 C 0.7160(3) 0.5406(2) 0.88058(15)
H13 H 0.6669 0.4676 0.8381
C23 C 0.7587(4) 0.5122(3) 0.97545(19)
H14 H 0.8387 0.4526 0.9757
H15 H 0.6609 0.4827 0.9918
H16 H 0.8033 0.5832 1.0187
C24 C 0.5879(3) 0.6358(3) 0.8780(2)
H17 H 0.5615 0.6518 0.8174
H18 H 0.6323 0.7078 0.9202
H19 H 0.4899 0.6073 0.8946
N1A N 0.17497(19) -0.41072(13) 0.28101(10)
S1A S 0.71402(7) -0.17767(4) 0.65672(3)
O1A O 0.3128(2) -0.52503(12) 0.37306(10)
O2A O 0.04114(19) -0.30412(13) 0.18113(10)
C1A C 0.8010(2) 0.08159(17) 0.71310(13)
H1A H 0.8762 0.0754 0.7653
C2A C 0.7162(3) -0.02222(17) 0.65605(13)
C3A C 0.6092(3) -0.00588(18) 0.57956(15)
C4A C 0.5300(3) -0.11009(18) 0.52286(15)
C5A C 0.5683(3) -0.21407(17) 0.55224(13)
C6A C 0.4887(2) -0.32097(16) 0.49714(12)
H2A H 0.5104 -0.3938 0.5141
C7A C 0.3767(2) -0.31656(15) 0.41665(12)
C8A C 0.3399(2) -0.20803(16) 0.38773(13)
C9A C 0.5804(3) 0.10548(18) 0.55718(15)
C10A C 0.2908(2) -0.42602(16) 0.35801(12)
C11A C 0.1394(2) -0.30263(16) 0.25087(12)
C12A C 0.7723(2) 0.19367(16) 0.69141(12)
C13A C 0.0807(2) -0.51817(16) 0.22806(13)
C14A C 0.1327(2) -0.58053(17) 0.15144(14)
C15A C 0.0402(3) -0.68354(19) 0.10351(16)
H3A H 0.0710 -0.7265 0.0513
C16A C -0.0963(3) -0.7231(2) 0.13188(17)
H4A H -0.1563 -0.7926 0.0993
C17A C -0.1438(3) -0.6600(2) 0.20821(17)
H5A H -0.2358 -0.6880 0.2270
C18A C -0.0581(3) -0.55522(19) 0.25824(14)
C19A C -0.1188(3) -0.4826(2) 0.33876(17)
H6A H -0.0266 -0.4291 0.3757
C20A C -0.1769(6) -0.5580(4) 0.3993(3)
H7A H -0.0891 -0.6050 0.4209
H8A H -0.2092 -0.5072 0.4504
H9A H -0.2694 -0.6099 0.3652
C21A C -0.2562(5) -0.4053(4) 0.3053(3)
H10A H -0.2179 -0.3576 0.2669
H11A H -0.3502 -0.4556 0.2713
H12A H -0.2867 -0.3540 0.3568
C22A C 0.2840(3) -0.5406(2) 0.11942(15)
H13A H 0.3331 -0.4676 0.1619
C23A C 0.2413(4) -0.5122(3) 0.02455(19)
H14A H 0.1613 -0.4526 0.0243
H15A H 0.3391 -0.4827 0.0082
H16A H 0.1967 -0.5832 -0.0187
C24A C 0.4121(3) -0.6358(3) 0.1220(2)
H17A H 0.4385 -0.6518 0.1826
H18A H 0.3677 -0.7078 0.0798
H19A H 0.5101 -0.6073 0.1054
C25 C 0.2282(5) 1.0080(4) 0.0770(3)
H20 H 0.2475 1.0925 0.0831
H21 H 0.1543 0.9931 0.1160
H22 H 0.1801 0.9732 0.0147
C26 C 0.3869(4) 0.9539(3) 0.10332(19)
C27 C 0.5319(5) 1.0227(3) 0.1307(3)
H23 H 0.5315 1.1048 0.1343
C28 C 0.6776(5) 0.9707(4) 0.1530(3)
H24 H 0.7755 1.0182 0.1703
C29 C 0.6823(5) 0.8519(4) 0.1502(3)
H25 H 0.7820 0.8180 0.1660
C30 C 0.5389(5) 0.7828(3) 0.1241(2)
H26 H 0.5408 0.7010 0.1222
C31 C 0.3913(4) 0.8326(3) 0.1005(2)
H27 H 0.2941 0.7844 0.0826
C32? C 1.1187(9) 0.0640(7) 0.5736(5)
H28? H 1.1999 0.1064 0.6201
C33? C 1.0224(9) 0.1193(5) 0.5139(5)
H29? H 1.0329 0.2022 0.5249
C34? C 0.9096(8) 0.0625(6) 0.4380(4)
H30? H 0.8532 0.1059 0.3953
C35? C 0.813(2) 0.1229(13) 0.3746(11)
H31? H 0.7417 0.0658 0.3285
H32? H 0.8848 0.1648 0.3465
H33? H 0.7479 0.1788 0.4063
loop_
_geom_bond_atom_site_label_1
_geom_bond_atom_site_label_2
_geom_bond_site_symmetry_1
_geom_bond_site_symmetry_2
N1 C10 1_555 1_555
S1 C2 1_555 1_555
O1 C10 1_555 1_555
O2 C11 1_555 1_555
C1 H1 1_555 1_555
C2 C1 1_555 1_555
C3 C2 1_555 1_555
C4 C3 1_555 1_555
C5 S1 1_555 1_555
C6 C5 1_555 1_555
H2 C6 1_555 1_555
C7 C6 1_555 1_555
C8 C7 1_555 1_555
C9 C3 1_555 1_555
C10 C7 1_555 1_555
C11 N1 1_555 1_555
C12 C1 1_555 1_555
C13 N1 1_555 1_555
C14 C13 1_555 1_555
C15 C14 1_555 1_555
H3 C15 1_555 1_555
C16 C15 1_555 1_555
H4 C16 1_555 1_555
C17 C16 1_555 1_555
H5 C17 1_555 1_555
C18 C13 1_555 1_555
C19 C18 1_555 1_555
H6 C19 1_555 1_555
C20 C19 1_555 1_555
H7 C20 1_555 1_555
H8 C20 1_555 1_555
H9 C20 1_555 1_555
C21 C19 1_555 1_555
H10 C21 1_555 1_555
H11 C21 1_555 1_555
H12 C21 1_555 1_555
C22 C14 1_555 1_555
H13 C22 1_555 1_555
C23 C22 1_555 1_555
H14 C23 1_555 1_555
H15 C23 1_555 1_555
H16 C23 1_555 1_555
C24 C22 1_555 1_555
H17 C24 1_555 1_555
H18 C24 1_555 1_555
H19 C24 1_555 1_555
C25 H20 1_555 1_555
H21 C25 1_555 1_555
H22 C25 1_555 1_555
C26 C25 1_555 1_555
C27 C26 1_555 1_555
H23 C27 1_555 1_555
C28 C27 1_555 1_555
H24 C28 1_555 1_555
C29 C28 1_555 1_555
H25 C29 1_555 1_555
C30 C29 1_555 1_555
H26 C30 1_555 1_555
C31 C26 1_555 1_555
H27 C31 1_555 1_555
N1A C10A 1_555 1_555
S1A C2A 1_555 1_555
O1A C10A 1_555 1_555
O2A C11A 1_555 1_555
C1A H1A 1_555 1_555
C2A C1A 1_555 1_555
C3A C2A 1_555 1_555
C4A C9 1_555 1_555
C5A S1A 1_555 1_555
C6A C5A 1_555 1_555
H2A C6A 1_555 1_555
C7A C6A 1_555 1_555
C8A C9 1_555 1_555
C9A C4 1_555 1_555
C10A C7A 1_555 1_555
C11A C12 1_555 1_555
C12A C8 1_555 1_555
C13A N1A 1_555 1_555
C14A C13A 1_555 1_555
C15A C14A 1_555 1_555
H3A C15A 1_555 1_555
C16A C15A 1_555 1_555
H4A C16A 1_555 1_555
C17A C16A 1_555 1_555
H5A C17A 1_555 1_555
C18A C13A 1_555 1_555
C19A C18A 1_555 1_555
H6A C19A 1_555 1_555
C20A C19A 1_555 1_555
H7A C20A 1_555 1_555
H8A C20A 1_555 1_555
H9A C20A 1_555 1_555
C21A C19A 1_555 1_555
H10A C21A 1_555 1_555
H11A C21A 1_555 1_555
H12A C21A 1_555 1_555
C22A C14A 1_555 1_555
H13A C22A 1_555 1_555
C23A C22A 1_555 1_555
H14A C23A 1_555 1_555
H15A C23A 1_555 1_555
H16A C23A 1_555 1_555
C24A C22A 1_555 1_555
H17A C24A 1_555 1_555
H18A C24A 1_555 1_555
H19A C24A 1_555 1_555
C4 C5 1_555 1_555
C8 C9A 1_555 1_555
C11 C12A 1_555 1_555
C12 C8A 1_555 1_555
C17 C18 1_555 1_555
C30 C31 1_555 1_555
N1A C11A 1_555 1_555
C1A C12A 1_555 1_555
C3A C4A 1_555 1_555
C3A C9A 1_555 1_555
C4A C5A 1_555 1_555
C7A C8A 1_555 1_555
C17A C18A 1_555 1_555

#END
