
#######################################################################
#
#                 Cambridge Crystallographic Data Centre
#                                CCDC 
#
#######################################################################
#
# If this CIF has been generated from an entry in the Cambridge 
# Structural Database, then it will include bibliographic, chemical, 
# crystal, experimental, refinement or atomic coordinate data resulting 
# from the CCDC's data processing and validation procedures.
#
#######################################################################

data_CETREZ
_chemical_formula_moiety         'C48 H38 N2 O4 S2,3(C6 H6)'
_chemical_name_systematic        
'2,8-bis[2,6-bis(1-methylethyl)phenyl]-3a,12c,12d,12h-tetrahydro-5,11-dithia-2,8-diazadibenzo[cd,lm]dicyclopenta[ghi,pqr]perylene-1,3,7,9(2H,8H)-tetrone benzene clathrate'
_symmetry_cell_setting           triclinic
_symmetry_space_group_name_H-M   'P -1'
_symmetry_Int_Tables_number      2
_space_group_name_Hall           '-P 1'
loop_
_symmetry_equiv_pos_site_id
_symmetry_equiv_pos_as_xyz
1 x,y,z
2 -x,-y,-z
_cell_length_a                   8.317(3)
_cell_length_b                   11.425(4)
_cell_length_c                   15.518(5)
_cell_angle_alpha                106.441(5)
_cell_angle_beta                 104.475(6)
_cell_angle_gamma                94.316(6)
_cell_volume                     1352.33
_exptl_crystal_colour            orange-red
_cell_formula_units_Z            1
loop_
_atom_site_label
_atom_site_type_symbol
_atom_site_fract_x
_atom_site_fract_y
_atom_site_fract_z
S1 S 0.57128(14) 0.71997(8) -0.16389(7)
N1 N 0.3709(4) 0.7277(2) 0.22542(17)
O1 O 0.4305(3) 0.5546(2) 0.13035(16)
O2 O 0.3229(4) 0.8974(2) 0.32893(17)
C1 C 0.6035(5) 0.9439(3) -0.2233(2)
H1 H 0.6291 0.9036 -0.2781
C2 C 0.5722(5) 0.8768(3) -0.1637(2)
C3 C 0.5346(6) 0.9425(3) -0.0835(3)
C4 C 0.5096(6) 0.8750(3) -0.0240(3)
C5 C 0.5222(5) 0.7511(3) -0.0554(2)
C6 C 0.4952(4) 0.6810(3) 0.0035(2)
H2 H 0.5031 0.5972 -0.0136
C7 C 0.4568(4) 0.7366(3) 0.0871(2)
C8 C 0.4449(5) 0.8646(3) 0.1175(2)
C9 C 0.5271(6) 1.0688(3) -0.0599(3)
C10 C 0.4219(4) 0.6642(3) 0.1465(2)
C11 C 0.3633(5) 0.8556(3) 0.2581(2)
C12 C 0.5960(5) 1.0705(3) -0.1999(2)
C13 C 0.3172(5) 0.6490(3) 0.2758(2)
C14 C 0.1498(5) 0.5898(3) 0.2432(2)
C15 C 0.1029(6) 0.5092(4) 0.2878(3)
H3 H -0.0076 0.4691 0.2682
C16 C 0.2160(7) 0.4874(4) 0.3601(3)
H4 H 0.1825 0.4318 0.3883
C17 C 0.3783(6) 0.5474(4) 0.3911(3)
H5 H 0.4537 0.5320 0.4405
C18 C 0.4333(5) 0.6308(3) 0.3504(2)
C19 C 0.6149(6) 0.6963(4) 0.3884(3)
H6 H 0.6329 0.7451 0.3480
C20 C 0.7386(7) 0.6026(5) 0.3850(4)
H7 H 0.8500 0.6448 0.3968
H8 H 0.7059 0.5415 0.3242
H9 H 0.7372 0.5631 0.4318
C21 C 0.6481(7) 0.7847(5) 0.4869(3)
H10 H 0.5776 0.8474 0.4858
H11 H 0.7640 0.8227 0.5099
H12 H 0.6237 0.7400 0.5272
C22 C 0.0228(5) 0.6132(4) 0.1636(3)
H13 H 0.0855 0.6464 0.1277
C23 C -0.0787(7) 0.7126(6) 0.2031(4)
H14 H -0.1473 0.6806 0.2353
H15 H -0.1491 0.7343 0.1526
H16 H -0.0027 0.7846 0.2461
C24 C -0.0930(7) 0.4970(6) 0.0968(4)
H17 H -0.0280 0.4322 0.0815
H18 H -0.1517 0.5129 0.0407
H19 H -0.1729 0.4721 0.1260
S1A S 0.42872(14) 1.28003(8) 0.16389(7)
N1A N 0.6291(4) 1.2723(2) -0.22542(17)
O1A O 0.5695(3) 1.4454(2) -0.13035(16)
O2A O 0.6771(4) 1.1026(2) -0.32893(17)
C1A C 0.3965(5) 1.0561(3) 0.2233(2)
H1A H 0.3709 1.0964 0.2781
C2A C 0.4278(5) 1.1232(3) 0.1637(2)
C3A C 0.4654(6) 1.0575(3) 0.0835(3)
C4A C 0.4904(6) 1.1250(3) 0.0240(3)
C5A C 0.4778(5) 1.2489(3) 0.0554(2)
C6A C 0.5048(4) 1.3190(3) -0.0035(2)
H2A H 0.4969 1.4028 0.0136
C7A C 0.5432(4) 1.2634(3) -0.0871(2)
C8A C 0.5551(5) 1.1354(3) -0.1175(2)
C9A C 0.4729(6) 0.9312(3) 0.0599(3)
C10A C 0.5781(4) 1.3358(3) -0.1465(2)
C11A C 0.6367(5) 1.1444(3) -0.2581(2)
C12A C 0.4040(5) 0.9295(3) 0.1999(2)
C13A C 0.6828(5) 1.3510(3) -0.2758(2)
C14A C 0.8502(5) 1.4102(3) -0.2432(2)
C15A C 0.8971(6) 1.4908(4) -0.2878(3)
H3A H 1.0076 1.5309 -0.2682
C16A C 0.7840(7) 1.5126(4) -0.3601(3)
H4A H 0.8175 1.5682 -0.3883
C17A C 0.6217(6) 1.4526(4) -0.3911(3)
H5A H 0.5463 1.4680 -0.4405
C18A C 0.5667(5) 1.3692(3) -0.3504(2)
C19A C 0.3851(6) 1.3037(4) -0.3884(3)
H6A H 0.3671 1.2549 -0.3480
C20A C 0.2614(7) 1.3974(5) -0.3850(4)
H7A H 0.1500 1.3552 -0.3968
H8A H 0.2941 1.4585 -0.3242
H9A H 0.2628 1.4369 -0.4318
C21A C 0.3519(7) 1.2153(5) -0.4869(3)
H10A H 0.4224 1.1526 -0.4858
H11A H 0.2360 1.1773 -0.5099
H12A H 0.3763 1.2600 -0.5272
C22A C 0.9772(5) 1.3868(4) -0.1636(3)
H13A H 0.9145 1.3536 -0.1277
C23A C 1.0787(7) 1.2874(6) -0.2031(4)
H14A H 1.1473 1.3194 -0.2353
H15A H 1.1491 1.2657 -0.1526
H16A H 1.0027 1.2154 -0.2461
C24A C 1.0930(7) 1.5030(6) -0.0968(4)
H17A H 1.0280 1.5678 -0.0815
H18A H 1.1517 1.4871 -0.0407
H19A H 1.1729 1.5279 -0.1260
C25 C 0.2028(7) 0.9108(8) 0.5499(4)
H20 H 0.2350 0.9443 0.5076
C26 C 0.1402(7) 0.9829(4) 0.6186(6)
H21 H 0.1305 1.0646 0.6223
C27 C 0.0921(6) 0.9328(7) 0.6819(4)
H22 H 0.0502 0.9810 0.7279
C28 C 0.1066(7) 0.8107(8) 0.6765(4)
H23 H 0.0744 0.7772 0.7189
C29 C 0.1692(7) 0.7386(4) 0.6078(6)
H24 H 0.1789 0.6569 0.6041
C30 C 0.2173(6) 0.7887(8) 0.5445(4)
H25 H 0.2592 0.7405 0.4985
C37 C 0.9465(11) 0.9763(14) 0.0675(6)
H32 H 0.9073 0.9609 0.1150
C38 C 0.9925(11) 0.8864(9) 0.0103(9)
H33 H 0.9885 0.8084 0.0179
C39 C 0.9543(11) 1.0925(12) 0.0596(7)
H34 H 0.9234 1.1559 0.1019
C37A C 1.0535(11) 1.0237(14) -0.0675(6)
H32A H 1.0927 1.0391 -0.1150
C38A C 1.0075(11) 1.1136(9) -0.0103(9)
H33A H 1.0115 1.1916 -0.0179
C39A C 1.0457(11) 0.9075(12) -0.0596(7)
H34A H 1.0766 0.8441 -0.1019
C31? C 0.0877(6) 0.9549(5) 0.6534(5)
H26? H 0.0417 1.0235 0.6791
C32? C 0.0908(7) 0.8567(9) 0.6897(3)
H27? H 0.0467 0.8596 0.7397
C33? C 0.1596(8) 0.7541(6) 0.6514(6)
H28? H 0.1616 0.6884 0.6757
C34? C 0.2254(7) 0.7497(5) 0.5767(6)
H29? H 0.2715 0.6811 0.5511
C35? C 0.2224(6) 0.8480(9) 0.5404(3)
H30? H 0.2664 0.8451 0.4905
C36? C 0.1535(7) 0.9505(6) 0.5788(5)
H31? H 0.1515 1.0163 0.5545
loop_
_geom_bond_atom_site_label_1
_geom_bond_atom_site_label_2
_geom_bond_site_symmetry_1
_geom_bond_site_symmetry_2
S1 C2 1_555 1_555
N1 C10 1_555 1_555
O1 C10 1_555 1_555
O2 C11 1_555 1_555
C1 H1 1_555 1_555
C2 C1 1_555 1_555
C3 C2 1_555 1_555
C4 C3 1_555 1_555
C5 S1 1_555 1_555
C6 C5 1_555 1_555
H2 C6 1_555 1_555
C7 C6 1_555 1_555
C8 C7 1_555 1_555
C9 C3 1_555 1_555
C10 C7 1_555 1_555
C11 N1 1_555 1_555
C12 C1 1_555 1_555
C13 N1 1_555 1_555
C14 C13 1_555 1_555
C15 C14 1_555 1_555
H3 C15 1_555 1_555
C16 C15 1_555 1_555
H4 C16 1_555 1_555
C17 C16 1_555 1_555
H5 C17 1_555 1_555
C18 C13 1_555 1_555
C19 C18 1_555 1_555
H6 C19 1_555 1_555
C20 C19 1_555 1_555
H7 C20 1_555 1_555
H8 C20 1_555 1_555
H9 C20 1_555 1_555
C21 C19 1_555 1_555
H10 C21 1_555 1_555
H11 C21 1_555 1_555
H12 C21 1_555 1_555
C22 C14 1_555 1_555
H13 C22 1_555 1_555
C23 C22 1_555 1_555
H14 C23 1_555 1_555
H15 C23 1_555 1_555
H16 C23 1_555 1_555
C24 C22 1_555 1_555
H17 C24 1_555 1_555
H18 C24 1_555 1_555
H19 C24 1_555 1_555
C25 H20 1_555 1_555
C26 C25 1_555 1_555
H21 C26 1_555 1_555
C27 C26 1_555 1_555
H22 C27 1_555 1_555
C28 C27 1_555 1_555
H23 C28 1_555 1_555
C29 C28 1_555 1_555
H24 C29 1_555 1_555
C30 C25 1_555 1_555
H25 C30 1_555 1_555
C37 H32 1_555 1_555
C38 C37 1_555 1_555
H33 C38 1_555 1_555
C39 C37 1_555 1_555
H34 C39 1_555 1_555
S1A C2A 1_555 1_555
N1A C10A 1_555 1_555
O1A C10A 1_555 1_555
O2A C11A 1_555 1_555
C1A H1A 1_555 1_555
C2A C1A 1_555 1_555
C3A C2A 1_555 1_555
C4A C9 1_555 1_555
C5A S1A 1_555 1_555
C6A C5A 1_555 1_555
H2A C6A 1_555 1_555
C7A C6A 1_555 1_555
C8A C9 1_555 1_555
C9A C4 1_555 1_555
C10A C7A 1_555 1_555
C11A C12 1_555 1_555
C12A C8 1_555 1_555
C13A N1A 1_555 1_555
C14A C13A 1_555 1_555
C15A C14A 1_555 1_555
H3A C15A 1_555 1_555
C16A C15A 1_555 1_555
H4A C16A 1_555 1_555
C17A C16A 1_555 1_555
H5A C17A 1_555 1_555
C18A C13A 1_555 1_555
C19A C18A 1_555 1_555
H6A C19A 1_555 1_555
C20A C19A 1_555 1_555
H7A C20A 1_555 1_555
H8A C20A 1_555 1_555
H9A C20A 1_555 1_555
C21A C19A 1_555 1_555
H10A C21A 1_555 1_555
H11A C21A 1_555 1_555
H12A C21A 1_555 1_555
C22A C14A 1_555 1_555
H13A C22A 1_555 1_555
C23A C22A 1_555 1_555
H14A C23A 1_555 1_555
H15A C23A 1_555 1_555
H16A C23A 1_555 1_555
C24A C22A 1_555 1_555
H17A C24A 1_555 1_555
H18A C24A 1_555 1_555
H19A C24A 1_555 1_555
C37A H32A 1_555 1_555
C38A C39 1_555 1_555
H33A C38A 1_555 1_555
C39A C38 1_555 1_555
H34A C39A 1_555 1_555
C4 C5 1_555 1_555
C8 C9A 1_555 1_555
C11 C12A 1_555 1_555
C12 C8A 1_555 1_555
C17 C18 1_555 1_555
C29 C30 1_555 1_555
N1A C11A 1_555 1_555
C1A C12A 1_555 1_555
C3A C4A 1_555 1_555
C3A C9A 1_555 1_555
C4A C5A 1_555 1_555
C7A C8A 1_555 1_555
C17A C18A 1_555 1_555
C37A C38A 1_555 1_555
C37A C39A 1_555 1_555

#END
