
#######################################################################
#
#                 Cambridge Crystallographic Data Centre
#                                CCDC 
#
#######################################################################
#
# If this CIF has been generated from an entry in the Cambridge 
# Structural Database, then it will include bibliographic, chemical, 
# crystal, experimental, refinement or atomic coordinate data resulting 
# from the CCDC's data processing and validation procedures.
#
#######################################################################

data_CETROJ
_chemical_formula_moiety         'C48 H38 N2 O4 S2,2(C16 H10),3(C1 H2 Cl2)'
_chemical_name_systematic        
'2,8-bis[2,6-bis(1-methylethyl)phenyl]-3a,12c,12d,12h-tetrahydro-5,11-dithia-2,8-diazadibenzo[cd,lm]dicyclopenta[ghi,pqr]perylene-1,3,7,9(2H,8H)-tetrone pyrene clathrate dichloromethane solvate'
_symmetry_cell_setting           triclinic
_symmetry_space_group_name_H-M   'P -1'
_symmetry_Int_Tables_number      2
_space_group_name_Hall           '-P 1'
loop_
_symmetry_equiv_pos_site_id
_symmetry_equiv_pos_as_xyz
1 x,y,z
2 -x,-y,-z
_cell_length_a                   10.435(2)
_cell_length_b                   17.055(3)
_cell_length_c                   20.962(4)
_cell_angle_alpha                108.740(3)
_cell_angle_beta                 101.183(3)
_cell_angle_gamma                94.073(2)
_cell_volume                     3429.85
_exptl_crystal_colour            red-black
_exptl_crystal_description       block
_cell_formula_units_Z            2
loop_
_atom_site_label
_atom_site_type_symbol
_atom_site_fract_x
_atom_site_fract_y
_atom_site_fract_z
S1 S 0.58814(5) 0.72683(3) 0.54563(2)
N1 N 0.37443(15) 0.46518(9) 0.22312(8)
O1 O 0.43461(14) 0.60444(8) 0.24734(7)
O2 O 0.32392(14) 0.32339(8) 0.19154(7)
C1 C 0.61235(17) 0.67096(11) 0.66691(10)
H1 H 0.6413 0.7253 0.7004
C2 C 0.58283(18) 0.65979(11) 0.59533(9)
C3 C 0.54137(17) 0.57871(11) 0.55016(9)
C4 C 0.51421(18) 0.56919(11) 0.47976(9)
C5 C 0.53185(18) 0.64295(11) 0.46580(10)
C6 C 0.50272(18) 0.63541(11) 0.39483(10)
H2 H 0.5123 0.6838 0.3821
C7 C 0.45974(17) 0.55637(11) 0.34350(9)
C8 C 0.44454(16) 0.48155(11) 0.35945(9)
C9 C 0.52670(17) 0.50928(11) 0.57094(9)
C10 C 0.42504(18) 0.54680(11) 0.26970(10)
C11 C 0.36414(17) 0.38966(11) 0.23846(10)
C12 C 0.59842(17) 0.60084(11) 0.68806(9)
C13 C 0.32098(18) 0.45591(11) 0.15127(9)
C14 C 0.40161(19) 0.43561(12) 0.10399(10)
C15 C 0.3430(2) 0.42072(13) 0.03484(11)
H3 H 0.3945 0.4059 0.0012
C16 C 0.2106(2) 0.42703(13) 0.01402(11)
H4 H 0.1720 0.4155 -0.0336
C17 C 0.1350(2) 0.45014(13) 0.06250(11)
H5 H 0.0451 0.4556 0.0479
C18 C 0.18826(19) 0.46555(12) 0.13229(10)
C19 C 0.1046(2) 0.49115(13) 0.18527(11)
H6 H 0.1656 0.5106 0.2322
C20 C 0.0309(3) 0.56344(17) 0.17913(18)
H7 H 0.0940 0.6106 0.1821
H8 H -0.0152 0.5808 0.2168
H9 H -0.0333 0.5453 0.1345
C21 C 0.0087(3) 0.41710(15) 0.18076(14)
H10 H 0.0574 0.3712 0.1848
H11 H -0.0557 0.3984 0.1362
H12 H -0.0376 0.4339 0.2184
C22 C 0.54793(19) 0.43374(13) 0.12694(11)
H13 H 0.5672 0.4424 0.1775
C23 C 0.5900(2) 0.35093(16) 0.09079(15)
H14 H 0.5369 0.3056 0.0973
H15 H 0.6835 0.3517 0.1104
H16 H 0.5768 0.3419 0.0412
C24 C 0.6285(2) 0.50546(17) 0.11777(18)
H17 H 0.7227 0.5033 0.1328
H18 H 0.6067 0.5588 0.1457
H19 H 0.6081 0.5006 0.0689
S1A S 0.41186(5) 0.27317(3) 0.45437(2)
N1A N 0.62557(15) 0.53482(9) 0.77688(8)
O1A O 0.56539(14) 0.39556(8) 0.75266(7)
O2A O 0.67608(14) 0.67661(8) 0.80846(7)
C1A C 0.38765(17) 0.32904(11) 0.33309(10)
H1A H 0.3587 0.2747 0.2996
C2A C 0.41717(18) 0.34021(11) 0.40467(9)
C3A C 0.45863(17) 0.42129(11) 0.44984(9)
C4A C 0.48579(18) 0.43081(11) 0.52024(9)
C5A C 0.46815(18) 0.35705(11) 0.53420(10)
C6A C 0.49728(18) 0.36459(11) 0.60517(10)
H2A H 0.4877 0.3162 0.6179
C7A C 0.54026(17) 0.44363(11) 0.65650(9)
C8A C 0.55546(16) 0.51845(11) 0.64055(9)
C9A C 0.47330(17) 0.49072(11) 0.42906(9)
C10A C 0.57496(18) 0.45320(11) 0.73030(10)
C11A C 0.63586(17) 0.61034(11) 0.76154(10)
C12A C 0.40158(17) 0.39916(11) 0.31194(9)
C13A C 0.67902(18) 0.54409(11) 0.84873(9)
C14A C 0.59839(19) 0.56439(12) 0.89601(10)
C15A C 0.6570(2) 0.57928(13) 0.96516(11)
H3A H 0.6055 0.5941 0.9988
C16A C 0.7894(2) 0.57297(13) 0.98598(11)
H4A H 0.8280 0.5845 1.0336
C17A C 0.8650(2) 0.54986(13) 0.93750(11)
H5A H 0.9549 0.5444 0.9521
C18A C 0.81174(19) 0.53445(12) 0.86771(10)
C19A C 0.8954(2) 0.50885(13) 0.81473(11)
H6A H 0.8344 0.4894 0.7678
C20A C 0.9691(3) 0.43656(17) 0.82087(18)
H7A H 0.9060 0.3894 0.8179
H8A H 1.0152 0.4192 0.7832
H9A H 1.0333 0.4547 0.8655
C21A C 0.9913(3) 0.58290(15) 0.81924(14)
H10A H 0.9426 0.6288 0.8152
H11A H 1.0557 0.6016 0.8638
H12A H 1.0376 0.5661 0.7816
C22A C 0.45207(19) 0.56626(13) 0.87306(11)
H13A H 0.4328 0.5576 0.8225
C23A C 0.4100(2) 0.64907(16) 0.90921(15)
H14A H 0.4631 0.6944 0.9027
H15A H 0.3165 0.6483 0.8896
H16A H 0.4232 0.6581 0.9588
C24A C 0.3715(2) 0.49454(17) 0.88223(18)
H17A H 0.2773 0.4967 0.8672
H18A H 0.3933 0.4412 0.8543
H19A H 0.3919 0.4994 0.9311
S2 S 1.02297(5) 1.22830(3) 1.04970(2)
N2 N 0.82599(15) 0.96963(10) 0.72605(8)
O3 O 0.84453(15) 1.11113(9) 0.75370(7)
O4 O 0.80856(14) 0.82727(8) 0.69177(7)
C25 C 1.09832(18) 1.16954(12) 1.16845(10)
H20 H 1.1187 1.2239 1.2026
C26 C 1.05396(18) 1.15930(11) 1.09762(10)
C27 C 1.02746(17) 1.07840(11) 1.05118(9)
C28 C 0.98684(17) 1.07042(11) 0.98155(10)
C29 C 0.97713(18) 1.14510(11) 0.96897(10)
C30 C 0.93562(18) 1.13907(12) 0.89909(10)
H21 H 0.9282 1.1883 0.8875
C31 C 0.90546(17) 1.06045(11) 0.84691(9)
C32 C 0.91658(17) 0.98458(11) 0.86083(9)
C33 C 1.04177(17) 1.00755(11) 1.07008(9)
C34 C 0.85873(18) 1.05240(12) 0.77406(10)
C35 C 0.83944(18) 0.89377(12) 0.73944(10)
C36 C 1.11195(17) 1.09789(11) 1.18782(9)
C37 C 0.76409(18) 0.96000(11) 0.65510(9)
C38 C 0.84087(18) 0.94859(12) 0.60602(10)
C39 C 0.7759(2) 0.93610(13) 0.53830(11)
H22 H 0.8254 0.9283 0.5037
C40 C 0.6410(2) 0.93482(13) 0.52004(11)
H23 H 0.5985 0.9251 0.4733
C41 C 0.5681(2) 0.94768(12) 0.56998(11)
H24 H 0.4756 0.9474 0.5572
C42 C 0.62757(18) 0.96107(11) 0.63854(10)
C43 C 0.54604(19) 0.97545(13) 0.69279(11)
H25 H 0.6074 0.9843 0.7383
C44 C 0.4803(3) 1.05422(15) 0.69945(14)
H26 H 0.5478 1.1022 0.7095
H27 H 0.4340 1.0645 0.7372
H28 H 0.4170 1.0464 0.6560
C45 C 0.4445(2) 0.89893(15) 0.67716(14)
H29 H 0.4895 0.8496 0.6732
H30 H 0.3810 0.8900 0.6335
H31 H 0.3980 0.9080 0.7147
C46 C 0.9886(2) 0.94970(14) 0.62529(11)
H32 H 1.0138 0.9612 0.6763
C47 C 1.0267(3) 0.86556(19) 0.5903(2)
H33 H 1.1227 0.8681 0.6037
H34 H 0.9989 0.8507 0.5400
H35 H 0.9833 0.8232 0.6045
C48 C 1.0636(3) 1.01820(18) 0.61120(18)
H36 H 1.1585 1.0166 0.6244
H37 H 1.0432 1.0724 0.6382
H38 H 1.0383 1.0104 0.5618
S2A S 0.97703(5) 0.77170(3) 0.95030(2)
N2A N 1.17401(15) 1.03037(10) 1.27395(8)
O3A O 1.15547(15) 0.88887(9) 1.24630(7)
O4A O 1.19144(14) 1.17273(8) 1.30823(7)
C25A C 0.90168(18) 0.83046(12) 0.83155(10)
H20A H 0.8813 0.7761 0.7974
C26A C 0.94604(18) 0.84070(11) 0.90238(10)
C27A C 0.97254(17) 0.92160(11) 0.94882(9)
C28A C 1.01316(17) 0.92958(11) 1.01845(10)
C29A C 1.02287(18) 0.85490(11) 1.03103(10)
C30A C 1.06438(18) 0.86093(12) 1.10091(10)
H21A H 1.0718 0.8117 1.1125
C31A C 1.09454(17) 0.93955(11) 1.15309(9)
C32A C 1.08342(17) 1.01542(11) 1.13917(9)
C33A C 0.95823(17) 0.99245(11) 0.92992(9)
C34A C 1.14127(18) 0.94760(12) 1.22594(10)
C35A C 1.16056(18) 1.10623(12) 1.26056(10)
C36A C 0.88805(17) 0.90211(11) 0.81218(9)
C37A C 1.23591(18) 1.04000(11) 1.34490(9)
C38A C 1.15913(18) 1.05141(12) 1.39398(10)
C39A C 1.2241(2) 1.06390(13) 1.46170(11)
H22A H 1.1746 1.0717 1.4963
C40A C 1.3590(2) 1.06518(13) 1.47996(11)
H23A H 1.4015 1.0749 1.5267
C41A C 1.4319(2) 1.05232(12) 1.43002(11)
H24A H 1.5244 1.0526 1.4428
C42A C 1.37243(18) 1.03893(11) 1.36146(10)
C43A C 1.45396(19) 1.02455(13) 1.30721(11)
H25A H 1.3926 1.0157 1.2617
C44A C 1.5197(3) 0.94578(15) 1.30055(14)
H26A H 1.4522 0.8978 1.2905
H27A H 1.5660 0.9355 1.2628
H28A H 1.5830 0.9536 1.3440
C45A C 1.5555(2) 1.10107(15) 1.32284(14)
H29A H 1.5105 1.1504 1.3268
H30A H 1.6190 1.1100 1.3665
H31A H 1.6020 1.0920 1.2853
C46A C 1.0114(2) 1.05030(14) 1.37471(11)
H32A H 0.9862 1.0388 1.3237
C47A C 0.9733(3) 1.13444(19) 1.4097(2)
H33A H 0.8773 1.1319 1.3963
H34A H 1.0011 1.1493 1.4600
H35A H 1.0167 1.1768 1.3955
C48A C 0.9364(3) 0.98180(18) 1.38880(18)
H36A H 0.8415 0.9834 1.3756
H37A H 0.9568 0.9276 1.3618
H38A H 0.9617 0.9896 1.4382
C49 C 0.7824(2) 0.9204(2) 0.18855(17)
H39 H 0.8064 0.9026 0.2273
C50 C 0.7478(2) 0.86159(19) 0.12240(17)
H40 H 0.7479 0.8039 0.1163
C51 C 0.7125(2) 0.88608(16) 0.06394(14)
C52 C 0.6781(2) 0.82863(16) -0.00482(15)
H41 H 0.6787 0.7707 -0.0124
C53 C 0.6441(2) 0.85414(15) -0.06033(14)
H42 H 0.6224 0.8139 -0.1057
C54 C 0.64083(19) 0.94079(14) -0.05111(12)
C55 C 0.6051(2) 0.96976(17) -0.10659(13)
H43 H 0.5804 0.9309 -0.1525
C56 C 0.6052(2) 1.05408(18) -0.09545(14)
H44 H 0.5802 1.0724 -0.1338
C57 C 0.6414(2) 1.11234(17) -0.02892(14)
H45 H 0.6419 1.1702 -0.0221
C58 C 0.6771(2) 1.08650(14) 0.02802(13)
C59 C 0.7158(2) 1.14454(16) 0.09808(14)
H46 H 0.7173 1.2027 0.1061
C60 C 0.7491(2) 1.11886(17) 0.15168(14)
H47 H 0.7744 1.1591 0.1970
C61 C 0.7480(2) 1.03176(17) 0.14288(13)
C62 C 0.7824(2) 1.0043(2) 0.19872(14)
H48 H 0.8061 1.0438 0.2444
C63 C 0.71214(19) 0.97283(14) 0.07467(12)
C64 C 0.67703(18) 0.99996(13) 0.01683(11)
C65 C 0.7270(2) 0.3590(2) 0.27869(14)
H49 H 0.7042 0.3272 0.2307
C66 C 0.7581(2) 0.44470(19) 0.30014(13)
H50 H 0.7560 0.4713 0.2666
C67 C 0.7925(2) 0.49298(16) 0.37021(13)
C68 C 0.8260(2) 0.58233(16) 0.39455(15)
H51 H 0.8245 0.6105 0.3620
C69 C 0.8599(2) 0.62748(16) 0.46362(15)
H52 H 0.8815 0.6866 0.4782
C70 C 0.8636(2) 0.58831(15) 0.51446(13)
C71 C 0.8975(2) 0.63297(16) 0.58465(14)
H53 H 0.9185 0.6921 0.6000
C72 C 0.9016(2) 0.59319(17) 0.63313(14)
H54 H 0.9259 0.6252 0.6811
C73 C 0.8706(2) 0.50772(16) 0.61198(12)
H55 H 0.8741 0.4811 0.6456
C74 C 0.8339(2) 0.45914(15) 0.54135(12)
C75 C 0.7997(2) 0.37033(15) 0.51715(14)
H56 H 0.8008 0.3425 0.5499
C76 C 0.7658(2) 0.32463(15) 0.44870(13)
H57 H 0.7440 0.2656 0.4346
C77 C 0.7623(2) 0.36351(15) 0.39700(13)
C78 C 0.7288(2) 0.31878(17) 0.32692(14)
H58 H 0.7066 0.2597 0.3114
C79 C 0.79535(19) 0.45285(14) 0.41991(12)
C80 C 0.83026(19) 0.49919(14) 0.49202(12)
C81 C 0.3178(3) 0.6735(2) 0.12415(18)
H59 H 0.3330 0.6174 0.1256
H60 H 0.2885 0.7039 0.1664
Cl1 Cl 0.19368(6) 0.66244(4) 0.05125(3)
Cl2 Cl 0.46697(6) 0.72837(5) 0.12325(4)
C82 C 0.3087(3) 0.24975(16) 0.71812(13)
H61 H 0.3510 0.2078 0.7351
H62 H 0.3742 0.3009 0.7334
Cl7 Cl 0.26371(7) 0.21023(4) 0.62714(3)
Cl8 Cl 0.17245(8) 0.27362(5) 0.75433(4)
C83 C 0.2005(12) 0.8277(6) 0.3691(3)
H63 H 0.2360 0.8834 0.3696
H64 H 0.1085 0.8140 0.3412
Cl3 Cl 0.2928(3) 0.75407(18) 0.3264(2)
Cl4 Cl 0.1962(5) 0.83597(19) 0.45244(16)
C84? C 0.2186(19) 0.8328(7) 0.3680(5)
H65? H 0.2681 0.8822 0.3643
H66? H 0.1229 0.8346 0.3545
Cl5? Cl 0.2613(15) 0.7402(7) 0.3166(5)
Cl6? Cl 0.2620(17) 0.8295(3) 0.4508(3)
loop_
_geom_bond_atom_site_label_1
_geom_bond_atom_site_label_2
_geom_bond_site_symmetry_1
_geom_bond_site_symmetry_2
S1 C2 1_555 1_555
S2 C26 1_555 1_555
N1 C10 1_555 1_555
N2 C34 1_555 1_555
O1 C10 1_555 1_555
O2 C11 1_555 1_555
O3 C34 1_555 1_555
O4 C35 1_555 1_555
C1 H1 1_555 1_555
C2 C1 1_555 1_555
C3 C2 1_555 1_555
C4 C3 1_555 1_555
C5 S1 1_555 1_555
C6 C5 1_555 1_555
H2 C6 1_555 1_555
C7 C6 1_555 1_555
C8 C7 1_555 1_555
C9 C3 1_555 1_555
C10 C7 1_555 1_555
C11 N1 1_555 1_555
C12 C1 1_555 1_555
C13 N1 1_555 1_555
C14 C13 1_555 1_555
C15 C14 1_555 1_555
H3 C15 1_555 1_555
C16 C15 1_555 1_555
H4 C16 1_555 1_555
C17 C16 1_555 1_555
H5 C17 1_555 1_555
C18 C13 1_555 1_555
C19 C18 1_555 1_555
H6 C19 1_555 1_555
C20 C19 1_555 1_555
H7 C20 1_555 1_555
H8 C20 1_555 1_555
H9 C20 1_555 1_555
C21 C19 1_555 1_555
H10 C21 1_555 1_555
H11 C21 1_555 1_555
H12 C21 1_555 1_555
C22 C14 1_555 1_555
H13 C22 1_555 1_555
C23 C22 1_555 1_555
H14 C23 1_555 1_555
H15 C23 1_555 1_555
H16 C23 1_555 1_555
C24 C22 1_555 1_555
H17 C24 1_555 1_555
H18 C24 1_555 1_555
H19 C24 1_555 1_555
C25 H20 1_555 1_555
C26 C25 1_555 1_555
C27 C26 1_555 1_555
C28 C27 1_555 1_555
C29 S2 1_555 1_555
C30 C29 1_555 1_555
H21 C30 1_555 1_555
C31 C30 1_555 1_555
C32 C31 1_555 1_555
C33 C27 1_555 1_555
C34 C31 1_555 1_555
C35 N2 1_555 1_555
C36 C25 1_555 1_555
C37 N2 1_555 1_555
C38 C37 1_555 1_555
C39 C38 1_555 1_555
H22 C39 1_555 1_555
C40 C39 1_555 1_555
H23 C40 1_555 1_555
C41 C40 1_555 1_555
H24 C41 1_555 1_555
C42 C37 1_555 1_555
C43 C42 1_555 1_555
H25 C43 1_555 1_555
C44 C43 1_555 1_555
H26 C44 1_555 1_555
H27 C44 1_555 1_555
H28 C44 1_555 1_555
C45 C43 1_555 1_555
H29 C45 1_555 1_555
H30 C45 1_555 1_555
H31 C45 1_555 1_555
C46 C38 1_555 1_555
H32 C46 1_555 1_555
C47 C46 1_555 1_555
H33 C47 1_555 1_555
H34 C47 1_555 1_555
H35 C47 1_555 1_555
C48 C46 1_555 1_555
H36 C48 1_555 1_555
H37 C48 1_555 1_555
H38 C48 1_555 1_555
C49 H39 1_555 1_555
C50 C49 1_555 1_555
H40 C50 1_555 1_555
C51 C50 1_555 1_555
C52 C51 1_555 1_555
H41 C52 1_555 1_555
C53 C52 1_555 1_555
H42 C53 1_555 1_555
C54 C53 1_555 1_555
C55 C54 1_555 1_555
H43 C55 1_555 1_555
C56 C55 1_555 1_555
H44 C56 1_555 1_555
C57 C56 1_555 1_555
H45 C57 1_555 1_555
C58 C57 1_555 1_555
C59 C58 1_555 1_555
H46 C59 1_555 1_555
C60 C59 1_555 1_555
H47 C60 1_555 1_555
C61 C60 1_555 1_555
C62 C49 1_555 1_555
H48 C62 1_555 1_555
C63 C51 1_555 1_555
C64 C54 1_555 1_555
C65 H49 1_555 1_555
C66 C65 1_555 1_555
H50 C66 1_555 1_555
C67 C66 1_555 1_555
C68 C67 1_555 1_555
H51 C68 1_555 1_555
C69 C68 1_555 1_555
H52 C69 1_555 1_555
C70 C69 1_555 1_555
C71 C70 1_555 1_555
H53 C71 1_555 1_555
C72 C71 1_555 1_555
H54 C72 1_555 1_555
C73 C72 1_555 1_555
H55 C73 1_555 1_555
C74 C73 1_555 1_555
C75 C74 1_555 1_555
H56 C75 1_555 1_555
C76 C75 1_555 1_555
H57 C76 1_555 1_555
C77 C76 1_555 1_555
C78 C65 1_555 1_555
H58 C78 1_555 1_555
C79 C67 1_555 1_555
C80 C70 1_555 1_555
C81 H59 1_555 1_555
H60 C81 1_555 1_555
C82 H61 1_555 1_555
H62 C82 1_555 1_555
Cl1 C81 1_555 1_555
Cl2 C81 1_555 1_555
C83 H63 1_555 1_555
H64 C83 1_555 1_555
Cl3 C83 1_555 1_555
Cl4 C83 1_555 1_555
Cl7 C82 1_555 1_555
Cl8 C82 1_555 1_555
S1A C2A 1_555 1_555
S2A C26A 1_555 1_555
N1A C10A 1_555 1_555
N2A C34A 1_555 1_555
O1A C10A 1_555 1_555
O2A C11A 1_555 1_555
O3A C34A 1_555 1_555
O4A C35A 1_555 1_555
C1A H1A 1_555 1_555
C2A C1A 1_555 1_555
C3A C2A 1_555 1_555
C4A C9 1_555 1_555
C5A S1A 1_555 1_555
C6A C5A 1_555 1_555
H2A C6A 1_555 1_555
C7A C6A 1_555 1_555
C8A C9 1_555 1_555
C9A C4 1_555 1_555
C10A C7A 1_555 1_555
C11A C12 1_555 1_555
C12A C8 1_555 1_555
C13A N1A 1_555 1_555
C14A C13A 1_555 1_555
C15A C14A 1_555 1_555
H3A C15A 1_555 1_555
C16A C15A 1_555 1_555
H4A C16A 1_555 1_555
C17A C16A 1_555 1_555
H5A C17A 1_555 1_555
C18A C13A 1_555 1_555
C19A C18A 1_555 1_555
H6A C19A 1_555 1_555
C20A C19A 1_555 1_555
H7A C20A 1_555 1_555
H8A C20A 1_555 1_555
H9A C20A 1_555 1_555
C21A C19A 1_555 1_555
H10A C21A 1_555 1_555
H11A C21A 1_555 1_555
H12A C21A 1_555 1_555
C22A C14A 1_555 1_555
H13A C22A 1_555 1_555
C23A C22A 1_555 1_555
H14A C23A 1_555 1_555
H15A C23A 1_555 1_555
H16A C23A 1_555 1_555
C24A C22A 1_555 1_555
H17A C24A 1_555 1_555
H18A C24A 1_555 1_555
H19A C24A 1_555 1_555
C25A H20A 1_555 1_555
C26A C25A 1_555 1_555
C27A C26A 1_555 1_555
C28A C33 1_555 1_555
C29A S2A 1_555 1_555
C30A C29A 1_555 1_555
H21A C30A 1_555 1_555
C31A C30A 1_555 1_555
C32A C33 1_555 1_555
C33A C28 1_555 1_555
C34A C31A 1_555 1_555
C35A C36 1_555 1_555
C36A C32 1_555 1_555
C37A N2A 1_555 1_555
C38A C37A 1_555 1_555
C39A C38A 1_555 1_555
H22A C39A 1_555 1_555
C40A C39A 1_555 1_555
H23A C40A 1_555 1_555
C41A C40A 1_555 1_555
H24A C41A 1_555 1_555
C42A C37A 1_555 1_555
C43A C42A 1_555 1_555
H25A C43A 1_555 1_555
C44A C43A 1_555 1_555
H26A C44A 1_555 1_555
H27A C44A 1_555 1_555
H28A C44A 1_555 1_555
C45A C43A 1_555 1_555
H29A C45A 1_555 1_555
H30A C45A 1_555 1_555
H31A C45A 1_555 1_555
C46A C38A 1_555 1_555
H32A C46A 1_555 1_555
C47A C46A 1_555 1_555
H33A C47A 1_555 1_555
H34A C47A 1_555 1_555
H35A C47A 1_555 1_555
C48A C46A 1_555 1_555
H36A C48A 1_555 1_555
H37A C48A 1_555 1_555
H38A C48A 1_555 1_555
C4 C5 1_555 1_555
C8 C9A 1_555 1_555
C11 C12A 1_555 1_555
C12 C8A 1_555 1_555
C17 C18 1_555 1_555
C28 C29 1_555 1_555
C32 C33A 1_555 1_555
C35 C36A 1_555 1_555
C36 C32A 1_555 1_555
C41 C42 1_555 1_555
C58 C64 1_555 1_555
C61 C62 1_555 1_555
C61 C63 1_555 1_555
C63 C64 1_555 1_555
C74 C80 1_555 1_555
C77 C78 1_555 1_555
C77 C79 1_555 1_555
C79 C80 1_555 1_555
N1A C11A 1_555 1_555
N2A C35A 1_555 1_555
C1A C12A 1_555 1_555
C3A C4A 1_555 1_555
C3A C9A 1_555 1_555
C4A C5A 1_555 1_555
C7A C8A 1_555 1_555
C17A C18A 1_555 1_555
C25A C36A 1_555 1_555
C27A C28A 1_555 1_555
C27A C33A 1_555 1_555
C28A C29A 1_555 1_555
C31A C32A 1_555 1_555
C41A C42A 1_555 1_555

#END
