
#######################################################################
#
#                 Cambridge Crystallographic Data Centre
#                                CCDC 
#
#######################################################################
#
# If this CIF has been generated from an entry in the Cambridge 
# Structural Database, then it will include bibliographic, chemical, 
# crystal, experimental, refinement or atomic coordinate data resulting 
# from the CCDC's data processing and validation procedures.
#
#######################################################################

data_CETWIJ
_chemical_formula_moiety         'C17 H14 N3 O1 1+,C6 H2 N3 O7 1-,C2 H6 O1 S1'
_chemical_name_systematic        
'4-((2-(Naphthalen-1-ylmethylidene)hydrazinyl)carbonyl)pyridinium 2,4,6-trinitrophenolate dimethylsulfoxide solvate'
_symmetry_cell_setting           triclinic
_symmetry_space_group_name_H-M   'P -1'
_symmetry_Int_Tables_number      2
_space_group_name_Hall           '-P 1'
loop_
_symmetry_equiv_pos_site_id
_symmetry_equiv_pos_as_xyz
1 x,y,z
2 -x,-y,-z
_cell_length_a                   9.772(11)
_cell_length_b                   9.924(11)
_cell_length_c                   15.482(17)
_cell_angle_alpha                100.249(10)
_cell_angle_beta                 102.860(11)
_cell_angle_gamma                109.539(10)
_cell_volume                     1326.39
_exptl_crystal_colour            yellow
_exptl_crystal_description       block
_cell_formula_units_Z            2
loop_
_atom_site_label
_atom_site_type_symbol
_atom_site_fract_x
_atom_site_fract_y
_atom_site_fract_z
C1 C 0.0306(4) 0.4665(4) 1.2949(2)
H1 H 0.0160 0.4292 1.3447
C2 C 0.0836(4) 0.3996(4) 1.2328(2)
H2 H 0.1046 0.3168 1.2400
C3 C 0.1057(3) 0.4554(3) 1.1594(2)
C4 C 0.0725(4) 0.5783(4) 1.1511(2)
H3 H 0.0863 0.6183 1.1022
C5 C 0.0194(4) 0.6403(4) 1.2153(2)
H4 H -0.0033 0.7229 1.2101
C6 C 0.1627(4) 0.3771(4) 1.0917(2)
C7 C 0.3297(4) 0.4771(4) 0.9265(2)
H5 H 0.3329 0.5735 0.9386
C8 C 0.3934(3) 0.4263(4) 0.8546(2)
C9 C 0.4194(4) 0.2995(4) 0.8492(2)
H6 H 0.3953 0.2451 0.8906
C10 C 0.4812(4) 0.2474(4) 0.7835(2)
H7 H 0.4981 0.1603 0.7819
C11 C 0.5168(4) 0.3264(4) 0.7216(2)
H8 H 0.5591 0.2937 0.6781
C12 C 0.4887(4) 0.4568(4) 0.7243(2)
C13 C 0.5199(5) 0.5379(6) 0.6608(3)
H9 H 0.5624 0.5055 0.6174
C14 C 0.4909(6) 0.6600(7) 0.6601(4)
H10 H 0.5090 0.7089 0.6153
C15 C 0.4333(5) 0.7136(6) 0.7269(3)
H11 H 0.4168 0.8007 0.7273
C16 C 0.4005(4) 0.6427(4) 0.7915(3)
H12 H 0.3609 0.6803 0.8351
C17 C 0.4274(4) 0.5094(4) 0.7920(2)
H13 H -0.038(5) 0.634(5) 1.322(3)
H14 H 0.228(3) 0.538(3) 1.0347(17)
N1 N -0.0001(3) 0.5837(3) 1.28521(19)
N2 N 0.2186(3) 0.4555(3) 1.03690(18)
N3 N 0.2717(3) 0.3925(3) 0.97132(18)
O1 O 0.1549(3) 0.2520(3) 1.08829(19)
C18 C 0.8347(4) 0.9883(4) 0.3801(2)
C19 C 0.7748(4) 1.0621(4) 0.4339(2)
H15 H 0.7591 1.1452 0.4218
C20 C 0.7382(4) 1.0118(4) 0.5061(2)
C21 C 0.7584(4) 0.8885(4) 0.5241(2)
H16 H 0.7332 0.8565 0.5735
C22 C 0.8160(3) 0.8124(4) 0.4691(2)
C23 C 0.8604(3) 0.8578(4) 0.3925(2)
N4 N 0.8741(4) 1.0484(3) 0.3056(2)
N5 N 0.8377(4) 0.6858(4) 0.4930(2)
N6 N 0.6822(4) 1.0958(4) 0.5661(2)
O2 O 0.9736(4) 1.0291(4) 0.2785(2)
O3 O 0.8029(4) 1.1160(4) 0.2720(2)
O4 O 0.6686(4) 1.2068(4) 0.5505(2)
O5 O 0.6524(4) 1.0501(4) 0.6314(2)
O6 O 0.7872(5) 0.6425(4) 0.5525(2)
O7 O 0.9032(4) 0.6223(4) 0.4543(2)
O8 O 0.9100(3) 0.7901(3) 0.34077(17)
C24 C 0.1979(6) 0.9579(5) 0.1270(3)
H17 H 0.0909 0.9146 0.0942
H18 H 0.2310 1.0640 0.1475
H19 H 0.2163 0.9198 0.1793
C25 C 0.2275(6) 0.9798(5) -0.0372(3)
H20 H 0.2656 0.9560 -0.0875
H21 H 0.2597 1.0857 -0.0159
H22 H 0.1182 0.9341 -0.0576
O9 O 0.2318(3) 0.7461(3) 0.01691(18)
S1 S 0.29959(13) 0.91276(12) 0.05375(7)
loop_
_geom_bond_atom_site_label_1
_geom_bond_atom_site_label_2
_geom_bond_site_symmetry_1
_geom_bond_site_symmetry_2
C1 H1 1_555 1_555
C2 C1 1_555 1_555
H2 C2 1_555 1_555
C3 C2 1_555 1_555
C4 C3 1_555 1_555
H3 C4 1_555 1_555
C5 C4 1_555 1_555
H4 C5 1_555 1_555
C6 C3 1_555 1_555
C7 H5 1_555 1_555
C8 C7 1_555 1_555
C9 C8 1_555 1_555
H6 C9 1_555 1_555
C10 C9 1_555 1_555
H7 C10 1_555 1_555
C11 C10 1_555 1_555
H8 C11 1_555 1_555
C12 C11 1_555 1_555
C13 C12 1_555 1_555
H9 C13 1_555 1_555
C14 C13 1_555 1_555
H10 C14 1_555 1_555
C15 C14 1_555 1_555
H11 C15 1_555 1_555
C16 C15 1_555 1_555
H12 C16 1_555 1_555
C17 C8 1_555 1_555
H13 N1 1_555 1_555
H14 N2 1_555 1_555
N1 C1 1_555 1_555
N2 C6 1_555 1_555
N3 C7 1_555 1_555
O1 C6 1_555 1_555
C18 C19 1_555 1_555
C19 H15 1_555 1_555
C20 C19 1_555 1_555
C21 C20 1_555 1_555
H16 C21 1_555 1_555
C22 C21 1_555 1_555
C23 C18 1_555 1_555
N4 C18 1_555 1_555
N5 C22 1_555 1_555
N6 C20 1_555 1_555
O2 N4 1_555 1_555
O3 N4 1_555 1_555
O4 N6 1_555 1_555
O5 N6 1_555 1_555
O6 N5 1_555 1_555
O7 N5 1_555 1_555
O8 C23 1_555 1_555
C24 H17 1_555 1_555
H18 C24 1_555 1_555
H19 C24 1_555 1_555
C25 H20 1_555 1_555
H21 C25 1_555 1_555
H22 C25 1_555 1_555
O9 S1 1_555 1_555
S1 C24 1_555 1_555
C5 N1 1_555 1_555
C12 C17 1_555 1_555
C16 C17 1_555 1_555
N2 N3 1_555 1_555
C22 C23 1_555 1_555
C25 S1 1_555 1_555

#END
