
#######################################################################
#
#                 Cambridge Crystallographic Data Centre
#                                CCDC 
#
#######################################################################
#
# If this CIF has been generated from an entry in the Cambridge 
# Structural Database, then it will include bibliographic, chemical, 
# crystal, experimental, refinement or atomic coordinate data resulting 
# from the CCDC's data processing and validation procedures.
#
#######################################################################

data_CEVFAM
_chemical_formula_moiety         'C23 H28 N2 O6 S2'
_chemical_name_systematic        
2-Cyclohexyl-1-((2-nitrophenyl)sulfonyl)-3-(phenylsulfonyl)piperidine
_symmetry_cell_setting           monoclinic
_symmetry_space_group_name_H-M   'P 21/n'
_symmetry_Int_Tables_number      14
_space_group_name_Hall           '-P 2yn'
loop_
_symmetry_equiv_pos_site_id
_symmetry_equiv_pos_as_xyz
1 x,y,z
2 1/2-x,1/2+y,1/2-z
3 -x,-y,-z
4 1/2+x,1/2-y,1/2+z
_cell_length_a                   7.9241(16)
_cell_length_b                   28.865(6)
_cell_length_c                   11.814(2)
_cell_angle_alpha                90
_cell_angle_beta                 104.44(3)
_cell_angle_gamma                90
_cell_volume                     2616.84
_exptl_crystal_colour            colorless
_exptl_crystal_description       block
_cell_formula_units_Z            4
loop_
_atom_site_label
_atom_site_type_symbol
_atom_site_fract_x
_atom_site_fract_y
_atom_site_fract_z
S1 S 0.36846(10) 0.14371(3) 0.30700(7)
S2 S 0.80017(9) 0.14068(2) 0.59938(6)
O1 O 0.3828(3) 0.09577(8) 0.3374(2)
O2 O 0.3204(3) 0.17597(8) 0.3862(2)
O3 O 0.7379(3) 0.18278(7) 0.63800(19)
O4 O 0.9698(3) 0.12386(8) 0.6557(2)
O5 O 0.9270(4) 0.02593(11) 0.5770(3)
O6 O 0.9461(5) 0.02320(16) 0.7621(3)
N1 N 0.7875(3) 0.14573(7) 0.4615(2)
N2 N 0.8704(4) 0.03235(10) 0.6613(3)
C1 C 0.2133(4) 0.15023(13) 0.1711(3)
C2 C 0.1650(6) 0.11217(18) 0.1023(4)
H1 H 0.2111 0.0830 0.1248
C3 C 0.0370(7) 0.1198(2) -0.0083(5)
H2 H 0.0014 0.0956 -0.0607
C4 C -0.0297(6) 0.1636(2) -0.0336(5)
H3 H -0.1139 0.1682 -0.1031
C5 C 0.0201(5) 0.19923(19) 0.0362(4)
H4 H -0.0281 0.2283 0.0149
C6 C 0.1420(4) 0.19374(14) 0.1394(3)
H5 H 0.1773 0.2190 0.1884
C7 C 0.6928(3) 0.18414(9) 0.3902(2)
H6 H 0.6219 0.1998 0.4359
C8 C 0.5690(4) 0.16466(10) 0.2782(3)
H7 H 0.5365 0.1910 0.2248
C9 C 0.6562(5) 0.12927(12) 0.2143(3)
H8 H 0.5671 0.1138 0.1550
H9 H 0.7327 0.1455 0.1751
C10 C 0.7616(5) 0.09291(12) 0.2959(3)
H10 H 0.6825 0.0722 0.3220
H11 H 0.8283 0.0747 0.2535
C11 C 0.8848(4) 0.11474(11) 0.4017(3)
H12 H 0.9416 0.0907 0.4550
H13 H 0.9741 0.1322 0.3771
C12 C 0.6500(4) 0.09700(9) 0.6178(2)
C13 C 0.6906(4) 0.05058(10) 0.6425(3)
C14 C 0.5664(5) 0.01875(12) 0.6525(4)
H14 H 0.5959 -0.0123 0.6670
C15 C 0.3970(5) 0.03344(13) 0.6407(4)
H15 H 0.3111 0.0121 0.6459
C16 C 0.3555(4) 0.07893(13) 0.6215(3)
H16 H 0.2421 0.0888 0.6166
C17 C 0.4800(4) 0.11049(11) 0.6094(3)
H17 H 0.4492 0.1414 0.5953
C18 C 0.8196(4) 0.22040(10) 0.3595(3)
H18 H 0.8836 0.2056 0.3082
C19 C 0.7183(4) 0.26165(11) 0.2945(3)
H19 H 0.6450 0.2511 0.2205
H20 H 0.6430 0.2742 0.3403
C20 C 0.8390(5) 0.29979(13) 0.2717(4)
H21 H 0.9041 0.2883 0.2181
H22 H 0.7693 0.3258 0.2347
C21 C 0.9638(5) 0.31595(13) 0.3812(4)
H23 H 0.9001 0.3304 0.4320
H24 H 1.0423 0.3388 0.3623
C22 C 1.0679(4) 0.27524(13) 0.4437(3)
H25 H 1.1438 0.2859 0.5167
H26 H 1.1405 0.2630 0.3957
C23 C 0.9502(4) 0.23681(11) 0.4690(3)
H27 H 1.0217 0.2108 0.5044
H28 H 0.8880 0.2481 0.5246
loop_
_geom_bond_atom_site_label_1
_geom_bond_atom_site_label_2
_geom_bond_site_symmetry_1
_geom_bond_site_symmetry_2
S1 O1 1_555 1_555
S2 O3 1_555 1_555
O2 S1 1_555 1_555
O4 S2 1_555 1_555
O5 N2 1_555 1_555
O6 N2 1_555 1_555
N1 S2 1_555 1_555
N2 C13 1_555 1_555
C1 S1 1_555 1_555
C2 C1 1_555 1_555
H1 C2 1_555 1_555
C3 C2 1_555 1_555
H2 C3 1_555 1_555
C4 C3 1_555 1_555
H3 C4 1_555 1_555
C5 C4 1_555 1_555
H4 C5 1_555 1_555
C6 C1 1_555 1_555
H5 C6 1_555 1_555
C7 N1 1_555 1_555
H6 C7 1_555 1_555
C8 S1 1_555 1_555
H7 C8 1_555 1_555
C9 C8 1_555 1_555
H8 C9 1_555 1_555
H9 C9 1_555 1_555
C10 C9 1_555 1_555
H10 C10 1_555 1_555
H11 C10 1_555 1_555
C11 N1 1_555 1_555
H12 C11 1_555 1_555
H13 C11 1_555 1_555
C12 S2 1_555 1_555
C13 C12 1_555 1_555
C14 C13 1_555 1_555
H14 C14 1_555 1_555
C15 C14 1_555 1_555
H15 C15 1_555 1_555
C16 C15 1_555 1_555
H16 C16 1_555 1_555
C17 C12 1_555 1_555
H17 C17 1_555 1_555
C18 C7 1_555 1_555
H18 C18 1_555 1_555
C19 C18 1_555 1_555
H19 C19 1_555 1_555
H20 C19 1_555 1_555
C20 C19 1_555 1_555
H21 C20 1_555 1_555
H22 C20 1_555 1_555
C21 C20 1_555 1_555
H23 C21 1_555 1_555
H24 C21 1_555 1_555
C22 C21 1_555 1_555
H25 C22 1_555 1_555
H26 C22 1_555 1_555
C23 C18 1_555 1_555
H27 C23 1_555 1_555
H28 C23 1_555 1_555
C5 C6 1_555 1_555
C7 C8 1_555 1_555
C10 C11 1_555 1_555
C16 C17 1_555 1_555
C22 C23 1_555 1_555

#END
