
#######################################################################
#
#                 Cambridge Crystallographic Data Centre
#                                CCDC 
#
#######################################################################
#
# If this CIF has been generated from an entry in the Cambridge 
# Structural Database, then it will include bibliographic, chemical, 
# crystal, experimental, refinement or atomic coordinate data resulting 
# from the CCDC's data processing and validation procedures.
#
#######################################################################

data_CEVFIU
_chemical_formula_moiety         'C32 H42 N2 O4 S3'
_chemical_name_systematic        
N-(4-(1-(Mesitylsulfonyl)pyrrolidin-2-yl)-4-(phenylsulfanyl)butyl)-2,4,6-trimethylbenzenesulfonamide
_symmetry_cell_setting           triclinic
_symmetry_space_group_name_H-M   'P -1'
_symmetry_Int_Tables_number      2
_space_group_name_Hall           '-P 1'
loop_
_symmetry_equiv_pos_site_id
_symmetry_equiv_pos_as_xyz
1 x,y,z
2 -x,-y,-z
_cell_length_a                   8.0445(19)
_cell_length_b                   12.391(2)
_cell_length_c                   16.379(3)
_cell_angle_alpha                72.0740(8)
_cell_angle_beta                 89.626(8)
_cell_angle_gamma                84.373(8)
_cell_volume                     1545.42
_exptl_crystal_colour            colorless
_exptl_crystal_description       plate
_cell_formula_units_Z            2
loop_
_atom_site_label
_atom_site_type_symbol
_atom_site_fract_x
_atom_site_fract_y
_atom_site_fract_z
S1 S 0.53399(12) 0.68538(9) 0.10950(7)
S2 S 0.62736(12) 0.03743(9) 0.36488(7)
S3 S 0.23549(15) 0.54523(11) 0.38722(9)
O1 O 0.4416(4) 0.7966(3) 0.0862(2)
O2 O 0.6818(4) 0.6750(3) 0.0625(2)
O3 O 0.7902(4) 0.0620(3) 0.3350(2)
O4 O 0.6105(4) -0.0679(3) 0.43151(19)
N1 N 0.5932(4) 0.6413(3) 0.2118(2)
N2 N 0.5529(5) 0.1367(3) 0.4030(2)
H1 H 0.5121 0.1169 0.4549
C1 C 0.732(2) 0.7137(18) 0.2186(14)
H2 H 0.8437 0.6771 0.2114
H3 H 0.7150 0.7912 0.1767
C2 C 0.7068(14) 0.7155(15) 0.3092(8)
H4 H 0.7496 0.7843 0.3165
H5 H 0.7694 0.6475 0.3497
C3 C 0.5214(7) 0.7162(4) 0.3282(3)
H6 H 0.4322 0.7741 0.3342
H7 H 0.5584 0.6661 0.3862
C4 C 0.4575(5) 0.6455(4) 0.2738(3)
H8 H 0.3544 0.6880 0.2409
C5 C 0.3986(5) 0.5817(4) 0.1064(2)
C6 C 0.4715(5) 0.4697(4) 0.1165(3)
C7 C 0.3674(5) 0.3870(4) 0.1179(3)
H9 H 0.4160 0.3115 0.1253
C8 C 0.1947(5) 0.4094(4) 0.1088(3)
C9 C 0.1268(5) 0.5213(4) 0.0979(3)
H10 H 0.0089 0.5383 0.0914
C10 C 0.2238(5) 0.6094(4) 0.0962(3)
C11 C 0.6572(5) 0.4337(4) 0.1263(3)
H11 H 0.6766 0.3503 0.1444
H12 H 0.7051 0.4623 0.1696
H13 H 0.7104 0.4653 0.0712
C12 C 0.0869(5) 0.3172(4) 0.1100(3)
H14 H 0.1222 0.2828 0.0654
H15 H -0.0299 0.3496 0.0991
H16 H 0.0978 0.2587 0.1663
C13 C 0.1326(5) 0.7249(4) 0.0840(3)
H17 H 0.0121 0.7203 0.0804
H18 H 0.1682 0.7787 0.0309
H19 H 0.1579 0.7511 0.1328
C14 C 0.4189(5) 0.5247(4) 0.3240(3)
H20 H 0.3856 0.4862 0.2820
C15 C 0.5661(6) 0.4514(4) 0.3789(3)
H21 H 0.6659 0.4580 0.3426
H22 H 0.5887 0.4840 0.4253
C16 C 0.5470(5) 0.3254(4) 0.4197(3)
H23 H 0.4402 0.3178 0.4503
H24 H 0.6385 0.2916 0.4628
C17 C 0.5495(6) 0.2582(4) 0.3559(3)
H25 H 0.4489 0.2832 0.3177
H26 H 0.6494 0.2721 0.3200
C18 C 0.5003(5) 0.0416(4) 0.2753(3)
C19 C 0.3315(5) 0.0173(4) 0.2912(3)
C20 C 0.2345(5) 0.0167(4) 0.2207(3)
H27 H 0.1212 0.0016 0.2297
C21 C 0.2938(6) 0.0367(4) 0.1393(3)
C22 C 0.4590(6) 0.0601(4) 0.1263(3)
H28 H 0.5010 0.0755 0.0700
C23 C 0.5655(5) 0.0618(4) 0.1923(3)
C24 C 0.2520(6) -0.0084(5) 0.3771(3)
H29 H 0.2565 0.0564 0.3991
H30 H 0.3121 -0.0766 0.4170
H31 H 0.1352 -0.0217 0.3712
C25 C 0.1859(6) 0.0349(4) 0.0648(3)
H32 H 0.2338 -0.0248 0.0413
H33 H 0.1808 0.1091 0.0202
H34 H 0.0729 0.0192 0.0846
C26 C 0.7425(6) 0.0845(6) 0.1676(3)
H35 H 0.8182 0.0161 0.1950
H36 H 0.7730 0.1478 0.1866
H37 H 0.7513 0.1045 0.1051
C27 C 0.1358(5) 0.4188(4) 0.4046(3)
C28 C 0.0931(6) 0.3599(5) 0.4874(3)
H38 H 0.1174 0.3879 0.5334
C29 C 0.0166(7) 0.2619(5) 0.5037(4)
H39 H -0.0140 0.2239 0.5607
C30 C -0.0167(6) 0.2178(5) 0.4395(4)
H40 H -0.0656 0.1480 0.4517
C31 C 0.0222(7) 0.2767(6) 0.3567(4)
H41 H -0.0026 0.2472 0.3115
C32 C 0.0954(6) 0.3764(6) 0.3375(4)
H42 H 0.1187 0.4164 0.2798
C33? C 0.7429(19) 0.6853(16) 0.2418(12)
H43? H 0.8126 0.6234 0.2843
H44? H 0.8126 0.7222 0.1930
C34? C 0.6607(17) 0.7707(13) 0.2819(9)
H45? H 0.7396 0.7873 0.3215
H46? H 0.6208 0.8428 0.2373
loop_
_geom_bond_atom_site_label_1
_geom_bond_atom_site_label_2
_geom_bond_site_symmetry_1
_geom_bond_site_symmetry_2
S1 O1 1_555 1_555
S2 O3 1_555 1_555
S3 C14 1_555 1_555
O2 S1 1_555 1_555
O4 S2 1_555 1_555
N1 S1 1_555 1_555
N2 S2 1_555 1_555
H1 N2 1_555 1_555
C1 N1 1_555 1_555
H2 C1 1_555 1_555
H3 C1 1_555 1_555
C2 C1 1_555 1_555
H4 C2 1_555 1_555
H5 C2 1_555 1_555
C3 C2 1_555 1_555
H6 C3 1_555 1_555
H7 C3 1_555 1_555
C4 N1 1_555 1_555
H8 C4 1_555 1_555
C5 S1 1_555 1_555
C6 C5 1_555 1_555
C7 C6 1_555 1_555
H9 C7 1_555 1_555
C8 C7 1_555 1_555
C9 C8 1_555 1_555
H10 C9 1_555 1_555
C10 C5 1_555 1_555
C11 C6 1_555 1_555
H11 C11 1_555 1_555
H12 C11 1_555 1_555
H13 C11 1_555 1_555
C12 C8 1_555 1_555
H14 C12 1_555 1_555
H15 C12 1_555 1_555
H16 C12 1_555 1_555
C13 C10 1_555 1_555
H17 C13 1_555 1_555
H18 C13 1_555 1_555
H19 C13 1_555 1_555
C14 C4 1_555 1_555
H20 C14 1_555 1_555
C15 C14 1_555 1_555
H21 C15 1_555 1_555
H22 C15 1_555 1_555
C16 C15 1_555 1_555
H23 C16 1_555 1_555
H24 C16 1_555 1_555
C17 N2 1_555 1_555
H25 C17 1_555 1_555
H26 C17 1_555 1_555
C18 S2 1_555 1_555
C19 C18 1_555 1_555
C20 C19 1_555 1_555
H27 C20 1_555 1_555
C21 C20 1_555 1_555
C22 C21 1_555 1_555
H28 C22 1_555 1_555
C23 C18 1_555 1_555
C24 C19 1_555 1_555
H29 C24 1_555 1_555
H30 C24 1_555 1_555
H31 C24 1_555 1_555
C25 C21 1_555 1_555
H32 C25 1_555 1_555
H33 C25 1_555 1_555
H34 C25 1_555 1_555
C26 C23 1_555 1_555
H35 C26 1_555 1_555
H36 C26 1_555 1_555
H37 C26 1_555 1_555
C27 S3 1_555 1_555
C28 C27 1_555 1_555
H38 C28 1_555 1_555
C29 C28 1_555 1_555
H39 C29 1_555 1_555
C30 C29 1_555 1_555
H40 C30 1_555 1_555
C31 C30 1_555 1_555
H41 C31 1_555 1_555
C32 C27 1_555 1_555
H42 C32 1_555 1_555
C3 C4 1_555 1_555
C9 C10 1_555 1_555
C16 C17 1_555 1_555
C22 C23 1_555 1_555
C31 C32 1_555 1_555

#END
