
#######################################################################
#
#                 Cambridge Crystallographic Data Centre
#                                CCDC 
#
#######################################################################
#
# If this CIF has been generated from an entry in the Cambridge 
# Structural Database, then it will include bibliographic, chemical, 
# crystal, experimental, refinement or atomic coordinate data resulting 
# from the CCDC's data processing and validation procedures.
#
#######################################################################

data_CEVGES
_chemical_formula_moiety         'C17 H14 Cl1 N1 O5'
_chemical_name_systematic        
'4-(nitromethyl)-3,4-dihydro-2H-1-benzopyran-2-yl 3-chlorobenzoate'
_symmetry_cell_setting           orthorhombic
_symmetry_space_group_name_H-M   'P 21 21 21'
_symmetry_Int_Tables_number      19
_space_group_name_Hall           'P 2ac 2ab'
loop_
_symmetry_equiv_pos_site_id
_symmetry_equiv_pos_as_xyz
1 x,y,z
2 1/2-x,-y,1/2+z
3 -x,1/2+y,1/2-z
4 1/2+x,1/2-y,-z
_cell_length_a                   7.5946(3)
_cell_length_b                   13.4938(6)
_cell_length_c                   15.8269(7)
_cell_angle_alpha                90
_cell_angle_beta                 90
_cell_angle_gamma                90
_cell_volume                     1621.94
_exptl_crystal_colour            white
_exptl_crystal_description       BLOCK
_cell_formula_units_Z            4
loop_
_atom_site_label
_atom_site_type_symbol
_atom_site_fract_x
_atom_site_fract_y
_atom_site_fract_z
Cl1 Cl 0.57988(12) 0.71042(9) 0.66988(6)
O1 O 0.2120(2) 0.50755(16) 0.44797(11)
O2 O -0.0723(3) 0.5517(2) 0.46429(14)
O3 O 0.1211(3) 0.48326(19) 0.30957(12)
N1 N 0.6454(4) 0.3860(3) 0.47342(19)
O4 O 0.7560(4) 0.3231(2) 0.4562(2)
C1 C 0.0791(4) 0.5618(2) 0.48319(17)
C2 C 0.4720(4) 0.4018(2) 0.34004(17)
H1 H 0.5389 0.3469 0.3152
C3 C 0.0216(4) 0.7018(2) 0.57888(19)
H2 H -0.0949 0.6992 0.5609
C4 C 0.1430(4) 0.6356(2) 0.54626(16)
C5 C 0.3160(4) 0.6369(2) 0.57489(17)
H3 H 0.3980 0.5915 0.5547
C6 C 0.1582(4) 0.4346(2) 0.38610(17)
H4 H 0.0515 0.4012 0.4061
C7 C 0.4309(4) 0.4752(2) 0.27098(16)
C8 C 0.3033(4) 0.3600(2) 0.37771(18)
H5 H 0.2625 0.3059 0.3424
H6 H 0.3293 0.3331 0.4331
C9 C 0.2631(4) 0.5122(2) 0.26099(18)
C10 C 0.0715(5) 0.7711(3) 0.6373(2)
H7 H -0.0105 0.8160 0.6582
C11 C 0.3627(4) 0.7067(2) 0.63370(19)
C12 C 0.5901(4) 0.4545(3) 0.40431(18)
H8 H 0.6938 0.4800 0.3758
H9 H 0.5270 0.5102 0.4284
C13 C 0.2446(4) 0.7744(2) 0.66538(19)
H10 H 0.2799 0.8214 0.7048
C14 C 0.5600(5) 0.5092(3) 0.21599(19)
H11 H 0.6743 0.4852 0.2210
C15 C 0.2244(6) 0.5804(3) 0.1976(2)
H12 H 0.1100 0.6037 0.1911
C16 C 0.3548(9) 0.6130(3) 0.1450(2)
H13 H 0.3295 0.6591 0.1030
O5 O 0.5812(4) 0.3974(4) 0.54166(18)
C17 C 0.5217(8) 0.5778(3) 0.1542(2)
H14 H 0.6104 0.6002 0.1185
loop_
_geom_bond_atom_site_label_1
_geom_bond_atom_site_label_2
_geom_bond_site_symmetry_1
_geom_bond_site_symmetry_2
Cl1 C11 1_555 1_555
O1 C1 1_555 1_555
O2 C1 1_555 1_555
O3 C6 1_555 1_555
N1 O4 1_555 1_555
C1 C4 1_555 1_555
C2 H1 1_555 1_555
C3 H2 1_555 1_555
C4 C3 1_555 1_555
C5 C4 1_555 1_555
H3 C5 1_555 1_555
C6 O1 1_555 1_555
H4 C6 1_555 1_555
C7 C2 1_555 1_555
C8 C2 1_555 1_555
H5 C8 1_555 1_555
H6 C8 1_555 1_555
C9 O3 1_555 1_555
C10 C3 1_555 1_555
H7 C10 1_555 1_555
C11 C5 1_555 1_555
C12 N1 1_555 1_555
H8 C12 1_555 1_555
H9 C12 1_555 1_555
C13 C10 1_555 1_555
H10 C13 1_555 1_555
C14 C7 1_555 1_555
H11 C14 1_555 1_555
C15 C9 1_555 1_555
H12 C15 1_555 1_555
C16 C15 1_555 1_555
H13 C16 1_555 1_555
O5 N1 1_555 1_555
C17 C14 1_555 1_555
H14 C17 1_555 1_555
C2 C12 1_555 1_555
C6 C8 1_555 1_555
C7 C9 1_555 1_555
C11 C13 1_555 1_555
C16 C17 1_555 1_555

#END
