
#######################################################################
#
#                 Cambridge Crystallographic Data Centre
#                                CCDC 
#
#######################################################################
#
# If this CIF has been generated from an entry in the Cambridge 
# Structural Database, then it will include bibliographic, chemical, 
# crystal, experimental, refinement or atomic coordinate data resulting 
# from the CCDC's data processing and validation procedures.
#
#######################################################################

data_CEVHAP
_chemical_formula_moiety         'C36 H35 N3'
_chemical_name_systematic        
4-(2-(4-(6-phenyl-2,2'-bipyridin-4-yl)phenyl)vinyl)-N,N-dipropylaniline
_symmetry_cell_setting           monoclinic
_symmetry_space_group_name_H-M   'P 21/c'
_symmetry_Int_Tables_number      14
_space_group_name_Hall           '-P 2ybc'
loop_
_symmetry_equiv_pos_site_id
_symmetry_equiv_pos_as_xyz
1 x,y,z
2 -x,1/2+y,1/2-z
3 -x,-y,-z
4 x,1/2-y,1/2+z
_cell_length_a                   11.401(5)
_cell_length_b                   12.131(6)
_cell_length_c                   20.955(10)
_cell_angle_alpha                90
_cell_angle_beta                 97.285(5)
_cell_angle_gamma                90
_cell_volume                     2874.8
_exptl_crystal_colour            yellow
_exptl_crystal_description       prism
_cell_formula_units_Z            4
loop_
_atom_site_label
_atom_site_type_symbol
_atom_site_fract_x
_atom_site_fract_y
_atom_site_fract_z
N1 N 0.26877(15) 0.51116(15) 0.00736(8)
C1 C 0.26685(19) 0.53624(18) 0.14056(10)
C2 C 0.34481(18) 0.57973(17) 0.04200(10)
C3 C 0.19076(18) 0.45575(17) 0.03843(10)
C4 C 0.34555(19) 0.59462(19) 0.10781(10)
H1 H 0.3987 0.6437 0.1300
C5 C 0.2688(2) 0.54538(18) 0.21123(10)
C6 C 0.18853(19) 0.46535(18) 0.10436(10)
H2 H 0.1346 0.4244 0.1243
C7 C 0.10755(19) 0.38118(18) -0.00169(10)
C8 C 0.42962(18) 0.63967(18) 0.00574(10)
C9 C 0.2196(2) 0.50460(19) 0.52306(11)
C10 C 0.2349(2) 0.48029(19) 0.65944(11)
N2 N 0.2429(2) 0.46710(18) 0.72538(9)
C11 C 0.3740(2) 0.5640(2) 0.25151(11)
H3 H 0.4435 0.5741 0.2333
C12 C 0.1661(2) 0.5326(2) 0.24063(11)
H4 H 0.0940 0.5217 0.2153
C13 C 0.4342(2) 0.6204(2) -0.05887(12)
H5 H 0.3834 0.5693 -0.0809
C14 C 0.1509(2) 0.4236(2) 0.61705(11)
H6 H 0.0987 0.3758 0.6337
C15 C 0.3778(2) 0.5677(2) 0.31722(12)
H7 H 0.4497 0.5808 0.3424
N3 N 0.50341(19) 0.71252(19) 0.03874(11)
C16 C 0.2771(2) 0.5525(2) 0.34697(11)
C17 C 0.0046(2) 0.34563(19) 0.02051(12)
H8 H -0.0130 0.3682 0.0606
C18 C 0.2862(2) 0.5525(2) 0.41768(12)
H9 H 0.3531 0.5853 0.4398
C19 C 0.1437(2) 0.4367(2) 0.55157(11)
H10 H 0.0855 0.3985 0.5254
C20 C 0.3034(2) 0.5610(2) 0.56460(12)
H11 H 0.3562 0.6073 0.5473
C21 C 0.1703(2) 0.5357(2) 0.30681(12)
H12 H 0.1008 0.5266 0.3252
C22 C 0.2094(2) 0.5110(2) 0.45238(12)
H13 H 0.1406 0.4823 0.4299
C23 C 0.3111(2) 0.5509(2) 0.63102(12)
H14 H 0.3676 0.5914 0.6571
C24 C 0.5142(2) 0.6772(3) -0.09070(13)
H15 H 0.5177 0.6642 -0.1342
C25 C 0.5879(2) 0.7524(2) -0.05839(14)
H16 H 0.6415 0.7923 -0.0792
C26 C 0.5807(2) 0.7672(2) 0.00572(15)
H17 H 0.6317 0.8178 0.0281
C27 C -0.0716(2) 0.2766(2) -0.01705(15)
H18 H -0.1406 0.2531 -0.0018
C28 C 0.1312(2) 0.3466(2) -0.06141(12)
H19 H 0.1997 0.3701 -0.0771
C29 C -0.0479(3) 0.2423(2) -0.07588(14)
H20 H -0.1002 0.1958 -0.1006
C30 C 0.3029(3) 0.5484(2) 0.76887(13)
H21 H 0.3802 0.5624 0.7559
H22 H 0.3152 0.5170 0.8118
C31 C 0.0532(3) 0.2768(3) -0.09824(13)
H23 H 0.0700 0.2534 -0.1384
C32 C 0.1804(3) 0.3783(2) 0.75296(13)
H24 H 0.0983 0.3800 0.7340
H25 H 0.1825 0.3916 0.7987
C33 C 0.2290(4) 0.2650(3) 0.74357(18)
H26 H 0.1782 0.2109 0.7604
H27 H 0.2273 0.2513 0.6979
C34 C 0.2412(4) 0.6550(3) 0.7721(2)
H28 H 0.2902 0.7029 0.8015
H29 H 0.2341 0.6890 0.7299
C35 C 0.3501(4) 0.2502(4) 0.7751(3)
H30 H 0.4043 0.2843 0.7497
H31 H 0.3674 0.1729 0.7795
H32 H 0.3579 0.2837 0.8170
C36 C 0.1235(5) 0.6499(4) 0.7928(4)
H33 H 0.0681 0.6218 0.7583
H34 H 0.0997 0.7225 0.8041
H35 H 0.1254 0.6022 0.8294
loop_
_geom_bond_atom_site_label_1
_geom_bond_atom_site_label_2
_geom_bond_site_symmetry_1
_geom_bond_site_symmetry_2
N1 C2 1_555 1_555
C1 C4 1_555 1_555
C2 C4 1_555 1_555
C3 N1 1_555 1_555
C4 H1 1_555 1_555
C5 C1 1_555 1_555
C6 C1 1_555 1_555
H2 C6 1_555 1_555
C7 C3 1_555 1_555
C8 C2 1_555 1_555
C9 C19 1_555 1_555
C10 N2 1_555 1_555
N2 C30 1_555 1_555
C11 C5 1_555 1_555
H3 C11 1_555 1_555
C12 C5 1_555 1_555
H4 C12 1_555 1_555
C13 C8 1_555 1_555
H5 C13 1_555 1_555
C14 C10 1_555 1_555
H6 C14 1_555 1_555
C15 C11 1_555 1_555
H7 C15 1_555 1_555
N3 C8 1_555 1_555
C16 C15 1_555 1_555
C17 C7 1_555 1_555
H8 C17 1_555 1_555
C18 C16 1_555 1_555
H9 C18 1_555 1_555
C19 C14 1_555 1_555
H10 C19 1_555 1_555
C20 C9 1_555 1_555
H11 C20 1_555 1_555
C21 C12 1_555 1_555
H12 C21 1_555 1_555
C22 C9 1_555 1_555
H13 C22 1_555 1_555
C23 C10 1_555 1_555
H14 C23 1_555 1_555
C24 C13 1_555 1_555
H15 C24 1_555 1_555
C25 C24 1_555 1_555
H16 C25 1_555 1_555
C26 N3 1_555 1_555
H17 C26 1_555 1_555
C27 C17 1_555 1_555
H18 C27 1_555 1_555
C28 C7 1_555 1_555
H19 C28 1_555 1_555
C29 C27 1_555 1_555
H20 C29 1_555 1_555
C30 H21 1_555 1_555
H22 C30 1_555 1_555
C31 C28 1_555 1_555
H23 C31 1_555 1_555
C32 N2 1_555 1_555
H24 C32 1_555 1_555
H25 C32 1_555 1_555
C33 C32 1_555 1_555
H26 C33 1_555 1_555
H27 C33 1_555 1_555
C34 C30 1_555 1_555
H28 C34 1_555 1_555
H29 C34 1_555 1_555
C35 C33 1_555 1_555
H30 C35 1_555 1_555
H31 C35 1_555 1_555
H32 C35 1_555 1_555
C36 C34 1_555 1_555
H33 C36 1_555 1_555
H34 C36 1_555 1_555
H35 C36 1_555 1_555
C3 C6 1_555 1_555
C16 C21 1_555 1_555
C18 C22 1_555 1_555
C20 C23 1_555 1_555
C25 C26 1_555 1_555
C29 C31 1_555 1_555

#END
