
#######################################################################
#
#                 Cambridge Crystallographic Data Centre
#                                CCDC 
#
#######################################################################
#
# If this CIF has been generated from an entry in the Cambridge 
# Structural Database, then it will include bibliographic, chemical, 
# crystal, experimental, refinement or atomic coordinate data resulting 
# from the CCDC's data processing and validation procedures.
#
#######################################################################

data_CEVHET
_chemical_formula_moiety         'C28 H29 N3'
_chemical_name_systematic        
4-(6-phenyl-2,2'-bipyridin-4-yl)-N,N-dipropylaniline
_symmetry_cell_setting           monoclinic
_symmetry_space_group_name_H-M   'P 21/n'
_symmetry_Int_Tables_number      14
_space_group_name_Hall           '-P 2yn'
loop_
_symmetry_equiv_pos_site_id
_symmetry_equiv_pos_as_xyz
1 x,y,z
2 1/2-x,1/2+y,1/2-z
3 -x,-y,-z
4 1/2+x,1/2-y,1/2+z
_cell_length_a                   9.7012(12)
_cell_length_b                   15.2517(18)
_cell_length_c                   15.9105(19)
_cell_angle_alpha                90
_cell_angle_beta                 99.164(2)
_cell_angle_gamma                90
_cell_volume                     2324.07
_exptl_crystal_colour            yellow
_exptl_crystal_description       block
_cell_formula_units_Z            4
loop_
_atom_site_label
_atom_site_type_symbol
_atom_site_fract_x
_atom_site_fract_y
_atom_site_fract_z
C1 C 0.6916(7) 1.0752(4) 0.8341(4)
H1 H 0.5937 1.0795 0.8125
H2 H 0.7265 1.1318 0.8537
H3 H 0.7060 1.0344 0.8806
C2 C 0.7664(7) 1.0447(4) 0.7660(4)
H4 H 0.7697 1.0937 0.7275
H5 H 0.8619 1.0330 0.7921
C3 C 0.7233(7) 0.9757(4) 0.7184(3)
H6 H 0.6382 0.9930 0.6816
H7 H 0.6973 0.9311 0.7565
C4 C 0.7943(4) 0.9438(2) 0.5780(2)
C5 C 0.7608(3) 0.9641(2) 0.39750(18)
C6 C 0.6973(5) 1.0169(3) 0.4487(2)
H8 H 0.6406 1.0620 0.4236
C7 C 0.7126(5) 1.0071(3) 0.5356(2)
H9 H 0.6651 1.0452 0.5665
C8 C 0.7471(3) 0.9751(2) 0.30440(18)
C9 C 0.8168(3) 0.92020(19) 0.25514(18)
H10 H 0.8718 0.8748 0.2811
C10 C 0.8053(3) 0.93230(19) 0.16761(18)
C11 C 0.6563(3) 1.04891(19) 0.17313(18)
C12 C 0.6649(3) 1.0404(2) 0.26052(18)
H11 H 0.6153 1.0786 0.2901
C13 C 0.5645(3) 1.11616(19) 0.12475(18)
C14 C 0.5442(4) 1.1184(2) 0.0368(2)
H12 H 0.5914 1.0794 0.0065
C15 C 0.4533(4) 1.1791(3) -0.0057(2)
H13 H 0.4382 1.1814 -0.0649
C16 C 0.3859(4) 1.2357(2) 0.0400(2)
H14 H 0.3237 1.2770 0.0129
C17 C 0.4122(4) 1.2299(2) 0.1270(3)
H15 H 0.3663 1.2690 0.1579
C18 C 0.8826(3) 0.8760(2) 0.11424(18)
C19 C 0.9336(4) 0.7939(2) 0.1414(2)
H16 H 0.9184 0.7726 0.1939
C20 C 1.0064(4) 0.7439(2) 0.0914(2)
H17 H 1.0391 0.6889 0.1104
C21 C 1.0313(5) 0.7739(3) 0.0142(3)
H18 H 1.0812 0.7400 -0.0190
C22 C 0.9814(5) 0.8553(3) -0.0135(3)
H19 H 0.9974 0.8764 -0.0659
C23 C 0.9079(4) 0.9054(2) 0.0362(2)
H20 H 0.8748 0.9601 0.0168
N1 N 0.8107(4) 0.9331(2) 0.66481(18)
N2 N 0.7259(3) 0.99591(16) 0.12657(15)
N3 N 0.4993(3) 1.17216(19) 0.17036(17)
C24 C 1.078(3) 0.7678(13) 0.7604(13)
H21 H 1.0176 0.7410 0.7953
H22 H 1.1649 0.7832 0.7951
H23 H 1.0953 0.7273 0.7171
C25 C 0.8567(8) 0.8444(6) 0.7017(4)
H24 H 0.8178 0.8338 0.7533
H25 H 0.8254 0.7983 0.6611
C26 C 1.0123(11) 0.8459(9) 0.7209(6)
H26 H 1.0479 0.8560 0.6681
H27 H 1.0404 0.8954 0.7580
C27 C 0.8939(11) 0.9114(8) 0.5323(6)
H28 H 0.9723 0.8827 0.5605
C28 C 0.8768(11) 0.9217(8) 0.4459(6)
H29 H 0.9455 0.8995 0.4172
C29? C 1.063(3) 0.754(2) 0.7710(18)
H30? H 1.1395 0.7658 0.7412
H31? H 1.0466 0.6922 0.7722
H32? H 1.0848 0.7760 0.8282
C30? C 0.9509(11) 0.8966(6) 0.7130(5)
H33? H 1.0254 0.9066 0.6801
H34? H 0.9750 0.9255 0.7676
C31? C 0.9315(15) 0.8001(7) 0.7254(6)
H35? H 0.9037 0.7729 0.6702
H36? H 0.8564 0.7916 0.7581
C32? C 0.8218(10) 0.8742(5) 0.5213(5)
H37? H 0.8495 0.8198 0.5443
C33? C 0.8086(9) 0.8854(5) 0.4355(5)
H38? H 0.8318 0.8396 0.4017
loop_
_geom_bond_atom_site_label_1
_geom_bond_atom_site_label_2
_geom_bond_site_symmetry_1
_geom_bond_site_symmetry_2
C1 H1 1_555 1_555
H2 C1 1_555 1_555
H3 C1 1_555 1_555
C2 C1 1_555 1_555
H4 C2 1_555 1_555
H5 C2 1_555 1_555
C3 C2 1_555 1_555
H6 C3 1_555 1_555
H7 C3 1_555 1_555
C4 C7 1_555 1_555
C5 C6 1_555 1_555
C6 H8 1_555 1_555
C7 C6 1_555 1_555
H9 C7 1_555 1_555
C8 C5 1_555 1_555
C9 C8 1_555 1_555
H10 C9 1_555 1_555
C10 C9 1_555 1_555
C11 C12 1_555 1_555
C12 C8 1_555 1_555
H11 C12 1_555 1_555
C13 C11 1_555 1_555
C14 C13 1_555 1_555
H12 C14 1_555 1_555
C15 C14 1_555 1_555
H13 C15 1_555 1_555
C16 C15 1_555 1_555
H14 C16 1_555 1_555
C17 C16 1_555 1_555
H15 C17 1_555 1_555
C18 C10 1_555 1_555
C19 C18 1_555 1_555
H16 C19 1_555 1_555
C20 C19 1_555 1_555
H17 C20 1_555 1_555
C21 C20 1_555 1_555
H18 C21 1_555 1_555
C22 C21 1_555 1_555
H19 C22 1_555 1_555
C23 C18 1_555 1_555
H20 C23 1_555 1_555
N1 C3 1_555 1_555
N2 C10 1_555 1_555
N3 C13 1_555 1_555
C24 H21 1_555 1_555
H22 C24 1_555 1_555
H23 C24 1_555 1_555
C25 N1 1_555 1_555
H24 C25 1_555 1_555
H25 C25 1_555 1_555
C26 C24 1_555 1_555
H26 C26 1_555 1_555
H27 C26 1_555 1_555
C27 C4 1_555 1_555
H28 C27 1_555 1_555
C28 C5 1_555 1_555
H29 C28 1_555 1_555
C4 N1 1_555 1_555
C11 N2 1_555 1_555
C17 N3 1_555 1_555
C22 C23 1_555 1_555
C25 C26 1_555 1_555
C27 C28 1_555 1_555

#END
