
#######################################################################
#
#                 Cambridge Crystallographic Data Centre
#                                CCDC 
#
#######################################################################
#
# If this CIF has been generated from an entry in the Cambridge 
# Structural Database, then it will include bibliographic, chemical, 
# crystal, experimental, refinement or atomic coordinate data resulting 
# from the CCDC's data processing and validation procedures.
#
#######################################################################

data_CEVHUI
_chemical_formula_moiety         'C20 H22 N4 O2 S1'
_chemical_name_systematic        
'Methyl 8-(butylamino)-2-(methylsulfanyl)-4-phenylpyrido[3,2-d]pyrimidine-6-carboxylate'
_symmetry_cell_setting           triclinic
_symmetry_space_group_name_H-M   'P -1'
_symmetry_Int_Tables_number      2
_space_group_name_Hall           '-P 1'
loop_
_symmetry_equiv_pos_site_id
_symmetry_equiv_pos_as_xyz
1 x,y,z
2 -x,-y,-z
_cell_length_a                   7.8181(10)
_cell_length_b                   10.9830(13)
_cell_length_c                   11.1607(15)
_cell_angle_alpha                89.577(15)
_cell_angle_beta                 79.907(15)
_cell_angle_gamma                80.382(15)
_cell_volume                     929.997
_exptl_crystal_colour            yellow
_exptl_crystal_description       prism
_cell_formula_units_Z            2
loop_
_atom_site_label
_atom_site_type_symbol
_atom_site_fract_x
_atom_site_fract_y
_atom_site_fract_z
S1 S 0.40323(11) 0.21894(6) 0.23050(6)
O1 O 0.2052(3) -0.04219(16) 0.95937(15)
O2 O 0.0891(3) -0.19644(15) 0.88964(15)
N1 N 0.2451(3) 0.05441(18) 0.72902(18)
N2 N 0.1748(3) -0.16096(18) 0.43654(18)
N3 N 0.2965(3) 0.05545(18) 0.39358(18)
N4 N 0.3827(3) 0.23760(17) 0.46595(18)
C1 C 0.1885(4) -0.0528(3) 0.7465(3)
C2 C 0.1595(4) -0.1301(3) 0.6539(3)
C3 C 0.1955(4) -0.0943(3) 0.5341(3)
C4 C 0.2591(4) 0.0207(3) 0.5115(3)
C5 C 0.3546(4) 0.1615(3) 0.3778(3)
C6 C 0.3474(4) 0.2047(3) 0.5814(3)
C7 C 0.2820(4) 0.0911(3) 0.6116(3)
C8 C 0.1631(4) -0.0937(3) 0.8770(3)
C9 C 0.0626(5) -0.2436(3) 1.0115(3)
C10 C 0.1299(4) -0.2843(3) 0.4472(3)
C11 C 0.1212(4) -0.3362(3) 0.3225(3)
C12 C 0.0848(4) -0.4689(3) 0.3278(3)
C13 C 0.0620(4) -0.5168(3) 0.2045(3)
C14 C 0.3584(4) 0.0970(3) 0.1388(3)
C15 C 0.3753(4) 0.2960(3) 0.6734(3)
C16 C 0.3906(4) 0.4157(3) 0.6342(3)
C17 C 0.4127(4) 0.5068(3) 0.7139(3)
C18 C 0.4216(4) 0.4783(3) 0.8342(3)
C19 C 0.4103(4) 0.3593(3) 0.8740(3)
C20 C 0.3869(4) 0.2680(3) 0.7947(3)
H1 H 0.205(5) -0.135(3) 0.3709(19)
H2 H 0.11471 -0.20755 0.67407
H3 H 0.17427 -0.25829 1.04040
H4 H -0.02185 -0.18327 1.06537
H5 H 0.01749 -0.31970 1.01039
H6 H 0.22035 -0.33879 0.48256
H7 H 0.01545 -0.28079 0.50031
H8 H 0.02684 -0.28384 0.28948
H9 H 0.23421 -0.33462 0.26826
H10 H 0.18411 -0.52270 0.35441
H11 H -0.02306 -0.47196 0.38692
H12 H -0.03760 -0.46323 0.17779
H13 H 0.16957 -0.51397 0.14528
H14 H 0.03830 -0.60177 0.20787
H15 H 0.43727 0.02051 0.14914
H16 H 0.23592 0.08530 0.16372
H17 H 0.37792 0.11971 0.05440
H18 H 0.38464 0.43607 0.54903
H19 H 0.42185 0.59049 0.68485
H20 H 0.43669 0.54196 0.89083
H21 H 0.41786 0.33927 0.95872
H22 H 0.37778 0.18457 0.82443
loop_
_geom_bond_atom_site_label_1
_geom_bond_atom_site_label_2
_geom_bond_site_symmetry_1
_geom_bond_site_symmetry_2
S1 C5 1_555 1_555
O1 C8 1_555 1_555
O2 C8 1_555 1_555
N1 C1 1_555 1_555
N2 C3 1_555 1_555
N3 C4 1_555 1_555
N4 C5 1_555 1_555
C1 C2 1_555 1_555
C2 C3 1_555 1_555
C3 C4 1_555 1_555
C4 C7 1_555 1_555
C5 N3 1_555 1_555
C6 N4 1_555 1_555
C7 N1 1_555 1_555
C8 C1 1_555 1_555
C9 O2 1_555 1_555
C10 N2 1_555 1_555
C11 C10 1_555 1_555
C12 C11 1_555 1_555
C13 C12 1_555 1_555
C14 S1 1_555 1_555
C15 C6 1_555 1_555
C16 C15 1_555 1_555
C17 C16 1_555 1_555
C18 C17 1_555 1_555
C19 C18 1_555 1_555
C20 C15 1_555 1_555
H1 N2 1_555 1_555
H2 C2 1_555 1_555
H3 C9 1_555 1_555
H4 C9 1_555 1_555
H5 C9 1_555 1_555
H6 C10 1_555 1_555
H7 C10 1_555 1_555
H8 C11 1_555 1_555
H9 C11 1_555 1_555
H10 C12 1_555 1_555
H11 C12 1_555 1_555
H12 C13 1_555 1_555
H13 C13 1_555 1_555
H14 C13 1_555 1_555
H15 C14 1_555 1_555
H16 C14 1_555 1_555
H17 C14 1_555 1_555
H18 C16 1_555 1_555
H19 C17 1_555 1_555
H20 C18 1_555 1_555
H21 C19 1_555 1_555
H22 C20 1_555 1_555
C6 C7 1_555 1_555
C19 C20 1_555 1_555

#END
