
#######################################################################
#
#                 Cambridge Crystallographic Data Centre
#                                CCDC 
#
#######################################################################
#
# If this CIF has been generated from an entry in the Cambridge 
# Structural Database, then it will include bibliographic, chemical, 
# crystal, experimental, refinement or atomic coordinate data resulting 
# from the CCDC's data processing and validation procedures.
#
#######################################################################

data_CEVJEU
_chemical_compound_source        
'seeds of an Indian mangrove, Xylocarpus moluccensis'
_chemical_name_common            'Moluccensin V'
_chemical_formula_moiety         'C28 H32 O8,0.5(C3 H6 O1),0.5(H2 O1)'
_chemical_name_systematic        
'6-(3-Furyl)-1,5,15-trimethyl-8,18,21-trioxo-7,17-dioxapentacyclo[11.7.1.0^2,11^.0^5,10^.0^15,20^]henicos-11-en-14-yl acetate acetone solvate hemihydrate'
_symmetry_cell_setting           monoclinic
_symmetry_space_group_name_H-M   'P 21'
_symmetry_Int_Tables_number      4
_space_group_name_Hall           'P 2yb'
loop_
_symmetry_equiv_pos_site_id
_symmetry_equiv_pos_as_xyz
1 x,y,z
2 -x,1/2+y,-z
_cell_length_a                   11.2839(2)
_cell_length_b                   10.5826(2)
_cell_length_c                   22.4195(4)
_cell_angle_alpha                90
_cell_angle_beta                 95.031(2)
_cell_angle_gamma                90
_cell_volume                     2666.87
_exptl_crystal_colour            colorless
_exptl_crystal_description       block
_chemical_melting_point          '224-226 deg.C'
_cell_formula_units_Z            4
loop_
_atom_site_label
_atom_site_type_symbol
_atom_site_fract_x
_atom_site_fract_y
_atom_site_fract_z
C1 C 0.1925(2) -0.0376(3) 0.46811(12)
C2 C 0.3228(2) -0.0324(3) 0.45815(11)
H1 H 0.3499 -0.1181 0.4499
C3 C 0.3977(2) 0.0185(3) 0.51466(12)
H2 H 0.4352 -0.0528 0.5369
C4 C 0.3217(2) 0.0931(3) 0.55595(11)
C5 C 0.2288(2) 0.1730(3) 0.51856(11)
H3 H 0.2733 0.2270 0.4929
C6 C 0.1664(3) 0.2622(3) 0.55988(13)
H4 H 0.1285 0.3288 0.5354
H5 H 0.1037 0.2149 0.5768
C7 C 0.2407(3) 0.3227(4) 0.61014(15)
C8 C 0.2453(2) 0.1244(3) 0.37926(11)
C9 C 0.1328(2) 0.1491(3) 0.41024(11)
H6 H 0.0685 0.1036 0.3871
C10 C 0.1401(2) 0.0931(3) 0.47538(12)
C11 C 0.0987(2) 0.2892(3) 0.40739(13)
H7 H 0.0204 0.2995 0.4215
H8 H 0.1549 0.3367 0.4339
C12 C 0.0975(2) 0.3426(3) 0.34461(13)
H9 H 0.0812 0.4324 0.3463
H10 H 0.0326 0.3037 0.3199
C13 C 0.2128(2) 0.3236(3) 0.31399(11)
C14 C 0.2467(2) 0.1828(3) 0.31714(11)
H11 H 0.1857 0.1382 0.2914
C15 C 0.3628(3) 0.1645(3) 0.28873(12)
H12 H 0.3867 0.0766 0.2927
H13 H 0.3501 0.1836 0.2463
C16 C 0.4604(3) 0.2455(3) 0.31612(12)
C17 C 0.3137(2) 0.3992(3) 0.34836(12)
H14 H 0.3053 0.3879 0.3912
C18 C 0.1905(3) 0.3662(3) 0.24862(12)
H15 H 0.1696 0.4541 0.2473
H16 H 0.1266 0.3176 0.2291
H17 H 0.2613 0.3535 0.2286
C19 C 0.0134(2) 0.0812(3) 0.49515(15)
H18 H -0.0344 0.0316 0.4664
H19 H -0.0210 0.1638 0.4978
H20 H 0.0165 0.0408 0.5336
C20 C 0.3132(3) 0.5389(3) 0.33636(13)
C21 C 0.2708(4) 0.6308(4) 0.36985(16)
H21 H 0.2352 0.6168 0.4051
C22 C 0.3591(3) 0.6021(3) 0.28743(15)
H22 H 0.3947 0.5648 0.2559
C23 C 0.4035(3) 0.1851(3) 0.59280(13)
H23 H 0.4631 0.1369 0.6169
H24 H 0.4445 0.2374 0.5656
C24 C 0.2674(3) 0.0004(3) 0.59871(13)
H25 H 0.2200 0.0463 0.6249
H26 H 0.3299 -0.0434 0.6220
H27 H 0.2182 -0.0595 0.5759
C25 C 0.3306(2) 0.0472(3) 0.40259(11)
H28 H 0.4000 0.0418 0.3832
C26 C 0.5933(2) 0.0485(3) 0.48302(12)
C27 C 0.6737(2) 0.1425(3) 0.45854(14)
H29 H 0.7468 0.1020 0.4506
H30 H 0.6900 0.2092 0.4871
H31 H 0.6363 0.1770 0.4220
O1 O 0.13570(17) -0.13369(19) 0.46649(10)
O2 O 0.2080(3) 0.4140(3) 0.63606(12)
O3 O 0.3418(2) 0.2664(3) 0.63191(9)
O4 O 0.48961(15) 0.10025(18) 0.49461(8)
O5 O 0.6151(2) -0.0612(2) 0.49218(12)
O6 O 0.56484(18) 0.2161(3) 0.31918(10)
O7 O 0.43423(16) 0.3585(2) 0.33750(9)
O8 O 0.2863(3) 0.7466(3) 0.34588(14)
C28 C 0.3415(4) 0.7246(4) 0.29531(17)
H32 H 0.3639 0.7875 0.2696
C29 C -0.1951(2) 0.1498(3) 0.01606(12)
C30 C -0.3232(2) 0.1535(3) 0.03108(13)
H33 H -0.3493 0.0670 0.0386
C31 C -0.4062(2) 0.2104(3) -0.02104(13)
H34 H -0.4491 0.1417 -0.0429
C32 C -0.3369(2) 0.2870(3) -0.06508(12)
C33 C -0.2383(2) 0.3637(3) -0.02984(11)
H35 H -0.2777 0.4159 -0.0014
C34 C -0.1825(3) 0.4552(3) -0.07231(12)
H36 H -0.1449 0.5228 -0.0483
H37 H -0.1198 0.4103 -0.0904
C35 C -0.2615(3) 0.5146(3) -0.12177(14)
C36 C -0.2325(2) 0.3023(3) 0.10983(11)
C37 C -0.1265(2) 0.3314(3) 0.07440(11)
H38 H -0.0587 0.2853 0.0941
C38 C -0.1439(2) 0.2806(3) 0.00855(11)
C39 C -0.0935(2) 0.4717(3) 0.07783(12)
H39 H -0.0184 0.4838 0.0605
H40 H -0.1537 0.5198 0.0541
C40 C -0.0823(2) 0.5223(3) 0.14181(12)
H41 H -0.0684 0.6127 0.1406
H42 H -0.0134 0.4838 0.1635
C41 C -0.1919(2) 0.4977(3) 0.17636(11)
C42 C -0.2208(3) 0.3556(3) 0.17298(12)
H43 H -0.1537 0.3118 0.1947
C43 C -0.3292(3) 0.3305(4) 0.20726(14)
H44 H -0.3521 0.2426 0.2021
H45 H -0.3078 0.3446 0.2496
C44 C -0.4334(3) 0.4120(3) 0.18744(13)
C45 C -0.2993(2) 0.5703(3) 0.14728(11)
H46 H -0.3015 0.5574 0.1039
C46 C -0.1606(3) 0.5398(4) 0.24220(12)
H47 H -0.0934 0.4925 0.2592
H48 H -0.2275 0.5248 0.2649
H49 H -0.1417 0.6283 0.2432
C47 C -0.0224(2) 0.2694(3) -0.01649(13)
H50 H 0.0291 0.2178 0.0097
H51 H 0.0118 0.3520 -0.0194
H52 H -0.0320 0.2314 -0.0555
C48 C -0.2984(2) 0.7094(3) 0.15845(13)
C49 C -0.2646(3) 0.8012(4) 0.12140(17)
H53 H -0.2370 0.7867 0.0841
C50 C -0.3349(3) 0.7747(4) 0.20946(16)
H54 H -0.3640 0.7389 0.2431
C51 C -0.3187(4) 0.8983(4) 0.1990(2)
H55 H -0.3349 0.9625 0.2255
C52 C -0.4218(3) 0.3816(4) -0.09751(15)
H56 H -0.4868 0.3358 -0.1189
H57 H -0.4553 0.4349 -0.0681
C53 C -0.2901(3) 0.1944(4) -0.11038(14)
H58 H -0.2466 0.2402 -0.1383
H59 H -0.3559 0.1515 -0.1316
H60 H -0.2387 0.1336 -0.0895
C54 C -0.3204(2) 0.2277(3) 0.08907(12)
H61 H -0.3853 0.2201 0.1117
C55 C -0.5912(2) 0.2401(3) 0.02117(13)
C56 C -0.6644(3) 0.3321(4) 0.05201(15)
H62 H -0.7345 0.2907 0.0637
H63 H -0.6872 0.4005 0.0253
H64 H -0.6190 0.3644 0.0869
O9 O -0.13871(18) 0.0530(2) 0.01600(10)
O10 O -0.2292(2) 0.6041(3) -0.14936(12)
O11 O -0.3657(2) 0.4607(3) -0.13943(10)
O12 O -0.49168(16) 0.2931(2) 0.00440(10)
O13 O -0.6159(2) 0.1313(2) 0.01161(12)
O14 O -0.5348(2) 0.3821(3) 0.19221(11)
O15 O -0.41388(17) 0.5277(2) 0.16666(10)
O16 O -0.2766(3) 0.9173(3) 0.14600(16)
O17 O 0.1795(3) 0.6703(4) 0.6765(2)
O18 O -0.0300(5) 0.3283(4) -0.18130(19)
C57 C -0.0250(5) 0.3738(7) -0.2836(3)
H65 H -0.0483 0.2868 -0.2881
H66 H 0.0493 0.3864 -0.3005
H67 H -0.0849 0.4266 -0.3039
C58 C -0.0108(4) 0.4082(6) -0.2166(3)
C59 C 0.0262(5) 0.5366(6) -0.2020(3)
H68 H 0.0361 0.5466 -0.1593
H69 H -0.0333 0.5946 -0.2187
H70 H 0.1003 0.5537 -0.2184
loop_
_geom_bond_atom_site_label_1
_geom_bond_atom_site_label_2
_geom_bond_site_symmetry_1
_geom_bond_site_symmetry_2
C1 C2 1_555 1_555
C2 H1 1_555 1_555
C3 C2 1_555 1_555
H2 C3 1_555 1_555
C4 C3 1_555 1_555
C5 C4 1_555 1_555
H3 C5 1_555 1_555
C6 C5 1_555 1_555
H4 C6 1_555 1_555
H5 C6 1_555 1_555
C7 C6 1_555 1_555
C8 C9 1_555 1_555
C9 H6 1_555 1_555
C10 C1 1_555 1_555
C11 C9 1_555 1_555
H7 C11 1_555 1_555
H8 C11 1_555 1_555
C12 C11 1_555 1_555
H9 C12 1_555 1_555
H10 C12 1_555 1_555
C13 C12 1_555 1_555
C14 C8 1_555 1_555
H11 C14 1_555 1_555
C15 C14 1_555 1_555
H12 C15 1_555 1_555
H13 C15 1_555 1_555
C16 C15 1_555 1_555
C17 C13 1_555 1_555
H14 C17 1_555 1_555
C18 C13 1_555 1_555
H15 C18 1_555 1_555
H16 C18 1_555 1_555
H17 C18 1_555 1_555
C19 C10 1_555 1_555
H18 C19 1_555 1_555
H19 C19 1_555 1_555
H20 C19 1_555 1_555
C20 C17 1_555 1_555
C21 C20 1_555 1_555
H21 C21 1_555 1_555
C22 C20 1_555 1_555
H22 C22 1_555 1_555
C23 C4 1_555 1_555
H23 C23 1_555 1_555
H24 C23 1_555 1_555
C24 C4 1_555 1_555
H25 C24 1_555 1_555
H26 C24 1_555 1_555
H27 C24 1_555 1_555
C25 C2 1_555 1_555
H28 C25 1_555 1_555
C26 C27 1_555 1_555
C27 H29 1_555 1_555
H30 C27 1_555 1_555
H31 C27 1_555 1_555
O1 C1 1_555 1_555
O2 C7 1_555 1_555
O3 C7 1_555 1_555
O4 C3 1_555 1_555
O5 C26 1_555 1_555
O6 C16 1_555 1_555
O7 C16 1_555 1_555
O8 C21 1_555 1_555
C28 C22 1_555 1_555
H32 C28 1_555 1_555
C29 C30 1_555 1_555
C30 H33 1_555 1_555
C31 C30 1_555 1_555
H34 C31 1_555 1_555
C32 C31 1_555 1_555
C33 C32 1_555 1_555
H35 C33 1_555 1_555
C34 C33 1_555 1_555
H36 C34 1_555 1_555
H37 C34 1_555 1_555
C35 C34 1_555 1_555
C36 C37 1_555 1_555
C37 H38 1_555 1_555
C38 C29 1_555 1_555
C39 C37 1_555 1_555
H39 C39 1_555 1_555
H40 C39 1_555 1_555
C40 C39 1_555 1_555
H41 C40 1_555 1_555
H42 C40 1_555 1_555
C41 C40 1_555 1_555
C42 C36 1_555 1_555
H43 C42 1_555 1_555
C43 C42 1_555 1_555
H44 C43 1_555 1_555
H45 C43 1_555 1_555
C44 C43 1_555 1_555
C45 C41 1_555 1_555
H46 C45 1_555 1_555
C46 C41 1_555 1_555
H47 C46 1_555 1_555
H48 C46 1_555 1_555
H49 C46 1_555 1_555
C47 C38 1_555 1_555
H50 C47 1_555 1_555
H51 C47 1_555 1_555
H52 C47 1_555 1_555
C48 C45 1_555 1_555
C49 C48 1_555 1_555
H53 C49 1_555 1_555
C50 C48 1_555 1_555
H54 C50 1_555 1_555
C51 C50 1_555 1_555
H55 C51 1_555 1_555
C52 C32 1_555 1_555
H56 C52 1_555 1_555
H57 C52 1_555 1_555
C53 C32 1_555 1_555
H58 C53 1_555 1_555
H59 C53 1_555 1_555
H60 C53 1_555 1_555
C54 C30 1_555 1_555
H61 C54 1_555 1_555
C55 C56 1_555 1_555
C56 H62 1_555 1_555
H63 C56 1_555 1_555
H64 C56 1_555 1_555
O9 C29 1_555 1_555
O10 C35 1_555 1_555
O11 C35 1_555 1_555
O12 C31 1_555 1_555
O13 C55 1_555 1_555
O14 C44 1_555 1_555
O15 C44 1_555 1_555
O16 C49 1_555 1_555
O18 C58 1_555 1_555
C57 H65 1_555 1_555
H66 C57 1_555 1_555
H67 C57 1_555 1_555
C58 C57 1_555 1_555
C59 C58 1_555 1_555
H68 C59 1_555 1_555
H69 C59 1_555 1_555
H70 C59 1_555 1_555
C5 C10 1_555 1_555
C8 C25 1_555 1_555
C9 C10 1_555 1_555
C13 C14 1_555 1_555
C17 O7 1_555 1_555
C23 O3 1_555 1_555
C26 O4 1_555 1_555
O8 C28 1_555 1_555
C33 C38 1_555 1_555
C36 C54 1_555 1_555
C37 C38 1_555 1_555
C41 C42 1_555 1_555
C45 O15 1_555 1_555
C51 O16 1_555 1_555
C52 O11 1_555 1_555
C55 O12 1_555 1_555

#END
