
#######################################################################
#
#                 Cambridge Crystallographic Data Centre
#                                CCDC 
#
#######################################################################
#
# If this CIF has been generated from an entry in the Cambridge 
# Structural Database, then it will include bibliographic, chemical, 
# crystal, experimental, refinement or atomic coordinate data resulting 
# from the CCDC's data processing and validation procedures.
#
#######################################################################

data_CEVLUM
_chemical_formula_moiety         'C20 H20 O1'
_chemical_name_systematic        
2,4,5-Trimethyl-2,3-diphenylcyclopent-3-en-1-one
_symmetry_cell_setting           monoclinic
_symmetry_space_group_name_H-M   'P 21/c'
_symmetry_Int_Tables_number      14
_space_group_name_Hall           '-P 2ybc'
loop_
_symmetry_equiv_pos_site_id
_symmetry_equiv_pos_as_xyz
1 x,y,z
2 -x,1/2+y,1/2-z
3 -x,-y,-z
4 x,1/2-y,1/2+z
_cell_length_a                   10.998(2)
_cell_length_b                   13.506(3)
_cell_length_c                   10.615(2)
_cell_angle_alpha                90
_cell_angle_beta                 104.76(3)
_cell_angle_gamma                90
_cell_volume                     1524.71
_exptl_crystal_colour            colorless
_exptl_crystal_description       block
_cell_formula_units_Z            4
loop_
_atom_site_label
_atom_site_type_symbol
_atom_site_fract_x
_atom_site_fract_y
_atom_site_fract_z
O1 O 0.99890(12) 0.15213(9) 0.75693(12)
C1 C 0.90381(15) 0.12513(12) 0.67961(15)
C2 C 0.84855(14) 0.01962(11) 0.67374(15)
C3 C 0.76242(14) 0.01948(12) 0.53571(15)
C4 C 0.75189(15) 0.10886(12) 0.47978(15)
C5 C 0.82462(16) 0.18743(12) 0.56965(16)
H1 H 0.7640 0.2272 0.6049
C6 C 0.95343(15) -0.05757(13) 0.68929(17)
H2 H 0.9183 -0.1239 0.6926
H3 H 1.0180 -0.0449 0.7702
H4 H 0.9910 -0.0533 0.6151
C7 C 0.77826(14) 0.01494(11) 0.78142(15)
C8 C 0.83209(15) -0.02784(12) 0.90198(15)
H5 H 0.9112 -0.0600 0.9161
C9 C 0.77170(17) -0.02415(13) 1.00191(16)
H6 H 0.8093 -0.0545 1.0832
C10 C 0.65753(17) 0.02328(14) 0.98387(17)
H7 H 0.6173 0.0270 1.0530
C11 C 0.60189(16) 0.06552(14) 0.86384(17)
H8 H 0.5225 0.0973 0.8501
C12 C 0.66198(15) 0.06145(12) 0.76394(16)
H9 H 0.6233 0.0908 0.6822
C13 C 0.70986(15) -0.07528(12) 0.47321(15)
C14 C 0.62268(17) -0.13030(13) 0.51815(17)
H10 H 0.5917 -0.1058 0.5879
C15 C 0.58053(19) -0.22109(14) 0.46157(19)
H11 H 0.5206 -0.2581 0.4926
C16 C 0.62547(18) -0.25760(14) 0.36057(19)
H12 H 0.5974 -0.3200 0.3230
C17 C 0.71096(18) -0.20344(15) 0.3145(2)
H13 H 0.7415 -0.2283 0.2446
C18 C 0.75249(17) -0.11283(13) 0.36989(18)
H14 H 0.8110 -0.0757 0.3370
C19 C 0.67836(19) 0.13492(14) 0.34446(17)
H15 H 0.7365 0.1496 0.2906
H16 H 0.6261 0.1931 0.3476
H17 H 0.6245 0.0790 0.3067
C20 C 0.90311(19) 0.25854(13) 0.51047(19)
H18 H 0.9556 0.2205 0.4658
H19 H 0.9570 0.2984 0.5798
H20 H 0.8471 0.3022 0.4479
loop_
_geom_bond_atom_site_label_1
_geom_bond_atom_site_label_2
_geom_bond_site_symmetry_1
_geom_bond_site_symmetry_2
O1 C1 1_555 1_555
C1 C2 1_555 1_555
C2 C3 1_555 1_555
C3 C4 1_555 1_555
C4 C5 1_555 1_555
C5 C1 1_555 1_555
H1 C5 1_555 1_555
C6 C2 1_555 1_555
H2 C6 1_555 1_555
H3 C6 1_555 1_555
H4 C6 1_555 1_555
C7 C2 1_555 1_555
C8 C7 1_555 1_555
H5 C8 1_555 1_555
C9 C8 1_555 1_555
H6 C9 1_555 1_555
C10 C9 1_555 1_555
H7 C10 1_555 1_555
C11 C10 1_555 1_555
H8 C11 1_555 1_555
C12 C7 1_555 1_555
H9 C12 1_555 1_555
C13 C3 1_555 1_555
C14 C13 1_555 1_555
H10 C14 1_555 1_555
C15 C14 1_555 1_555
H11 C15 1_555 1_555
C16 C15 1_555 1_555
H12 C16 1_555 1_555
C17 C16 1_555 1_555
H13 C17 1_555 1_555
C18 C13 1_555 1_555
H14 C18 1_555 1_555
C19 C4 1_555 1_555
H15 C19 1_555 1_555
H16 C19 1_555 1_555
H17 C19 1_555 1_555
C20 C5 1_555 1_555
H18 C20 1_555 1_555
H19 C20 1_555 1_555
H20 C20 1_555 1_555
C11 C12 1_555 1_555
C17 C18 1_555 1_555

#END
