
#######################################################################
#
#                 Cambridge Crystallographic Data Centre
#                                CCDC 
#
#######################################################################
#
# If this CIF has been generated from an entry in the Cambridge 
# Structural Database, then it will include bibliographic, chemical, 
# crystal, experimental, refinement or atomic coordinate data resulting 
# from the CCDC's data processing and validation procedures.
#
#######################################################################

data_CEVQUS
_chemical_formula_moiety         'C13 H9 F3 O4 S1'
_chemical_name_systematic        
'dimethyl 5-(trifluoromethyl)-1-benzothiophene-2,3-dicarboxylate'
_symmetry_cell_setting           monoclinic
_symmetry_space_group_name_H-M   'P 21/c'
_symmetry_Int_Tables_number      14
_space_group_name_Hall           '-P 2ybc'
loop_
_symmetry_equiv_pos_site_id
_symmetry_equiv_pos_as_xyz
1 x,y,z
2 -x,1/2+y,1/2-z
3 -x,-y,-z
4 x,1/2-y,1/2+z
_cell_length_a                   13.1925(12)
_cell_length_b                   13.3019(12)
_cell_length_c                   7.7183(7)
_cell_angle_alpha                90
_cell_angle_beta                 100.7570(10)
_cell_angle_gamma                90
_cell_volume                     1330.65
_exptl_crystal_colour            colorless
_exptl_crystal_description       block
_cell_formula_units_Z            4
loop_
_atom_site_label
_atom_site_type_symbol
_atom_site_fract_x
_atom_site_fract_y
_atom_site_fract_z
S1 S 0.25118(4) 0.60935(4) 0.14251(8)
C1 C 0.53546(17) 0.77789(18) 0.3820(3)
C2 C 0.44664(16) 0.82677(17) 0.3067(3)
H1 H 0.4442 0.8966 0.3046
C3 C 0.35981(15) 0.77035(16) 0.2332(3)
C4 C 0.25967(15) 0.80365(16) 0.1459(3)
C5 C 0.19478(16) 0.72533(16) 0.0898(3)
C6 C 0.36560(15) 0.66449(16) 0.2422(3)
C7 C 0.45551(18) 0.61605(17) 0.3231(3)
H2 H 0.4580 0.5463 0.3308
C8 C 0.54011(16) 0.67272(18) 0.3911(3)
H3 H 0.6011 0.6413 0.4437
C9 C 0.62954(18) 0.8388(2) 0.4478(3)
C10 C 0.23538(17) 0.91290(17) 0.1263(3)
C11 C 0.1190(3) 1.0397(2) 0.1691(5)
H4 H 0.1693 1.0794 0.2455
H5 H 0.0530 1.0473 0.2027
H6 H 0.1147 1.0617 0.0495
C12 C 0.08993(17) 0.72999(18) -0.0155(3)
C13 C -0.0594(2) 0.6368(3) -0.1248(5)
H7 H -0.1048 0.6830 -0.0815
H8 H -0.0861 0.5698 -0.1224
H9 H -0.0547 0.6543 -0.2437
F1 F 0.61004(15) 0.92454(17) 0.5257(3)
F2 F 0.67514(14) 0.87094(16) 0.3187(2)
F3 F 0.69886(16) 0.79262(17) 0.5628(4)
O1 O 0.29024(16) 0.97264(13) 0.0745(3)
O2 O 0.14933(13) 0.93527(13) 0.1833(2)
O3 O 0.05342(14) 0.80177(14) -0.0973(3)
O4 O 0.04142(12) 0.64177(14) -0.0151(2)
loop_
_geom_bond_atom_site_label_1
_geom_bond_atom_site_label_2
_geom_bond_site_symmetry_1
_geom_bond_site_symmetry_2
S1 C5 1_555 1_555
C1 C2 1_555 1_555
C2 H1 1_555 1_555
C3 C2 1_555 1_555
C4 C3 1_555 1_555
C5 C4 1_555 1_555
C6 S1 1_555 1_555
C7 C6 1_555 1_555
H2 C7 1_555 1_555
C8 C1 1_555 1_555
H3 C8 1_555 1_555
C9 C1 1_555 1_555
C10 C4 1_555 1_555
C11 H4 1_555 1_555
H5 C11 1_555 1_555
H6 C11 1_555 1_555
C12 C5 1_555 1_555
C13 H7 1_555 1_555
H8 C13 1_555 1_555
H9 C13 1_555 1_555
F1 C9 1_555 1_555
F2 C9 1_555 1_555
F3 C9 1_555 1_555
O1 C10 1_555 1_555
O2 C10 1_555 1_555
O3 C12 1_555 1_555
O4 C12 1_555 1_555
C3 C6 1_555 1_555
C7 C8 1_555 1_555
C11 O2 1_555 1_555
C13 O4 1_555 1_555

#END
