
#######################################################################
#
#                 Cambridge Crystallographic Data Centre
#                                CCDC 
#
#######################################################################
#
# If this CIF has been generated from an entry in the Cambridge 
# Structural Database, then it will include bibliographic, chemical, 
# crystal, experimental, refinement or atomic coordinate data resulting 
# from the CCDC's data processing and validation procedures.
#
#######################################################################

data_CEVQIF
_chemical_formula_moiety         'C22 H15 N5'
_chemical_name_systematic        
4-(4-Cyanophenyl)-2,3,5a,6-tetrahydropyrrolo[3',2':2,3]cyclopenta[1,2-b]indole-5,5(1H)-dicarbonitrile
_symmetry_cell_setting           orthorhombic
_symmetry_space_group_name_H-M   'P b c a'
_symmetry_Int_Tables_number      61
_space_group_name_Hall           '-P 2ac 2ab'
loop_
_symmetry_equiv_pos_site_id
_symmetry_equiv_pos_as_xyz
1 x,y,z
2 1/2-x,-y,1/2+z
3 1/2+x,1/2-y,-z
4 -x,1/2+y,1/2-z
5 -x,-y,-z
6 1/2+x,y,1/2-z
7 1/2-x,1/2+y,z
8 x,1/2-y,1/2+z
_cell_length_a                   16.283(8)
_cell_length_b                   10.980(6)
_cell_length_c                   19.477(10)
_cell_angle_alpha                90
_cell_angle_beta                 90
_cell_angle_gamma                90
_cell_volume                     3482.24
_exptl_crystal_colour            yellow
_exptl_crystal_description       block
_cell_formula_units_Z            8
loop_
_atom_site_label
_atom_site_type_symbol
_atom_site_fract_x
_atom_site_fract_y
_atom_site_fract_z
N1 N 0.6160(3) 0.1449(4) 0.4484(2)
N2 N 0.7664(2) 0.2095(4) 0.6307(2)
N3 N 0.6246(2) -0.0339(3) 0.6446(2)
H1 H 0.653(3) -0.079(4) 0.618(2)
N4 N 0.4553(2) 0.2963(4) 0.6926(2)
H2 H 0.425(3) 0.356(3) 0.680(2)
N5 N 0.6429(4) 0.8540(5) 0.4715(3)
C1 C 0.6188(2) 0.1742(4) 0.5823(2)
C2 C 0.5719(2) 0.0593(4) 0.6158(2)
H3 H 0.5315 0.0246 0.5841
C3 C 0.5301(2) 0.1194(4) 0.6780(2)
C4 C 0.5176(2) 0.2502(4) 0.6560(2)
C5 C 0.5677(2) 0.2866(4) 0.6045(2)
C6 C 0.6191(3) 0.1581(4) 0.5064(3)
C7 C 0.7034(3) 0.1878(4) 0.6076(2)
C8 C 0.6489(3) 0.0048(4) 0.7104(2)
C9 C 0.7111(3) -0.0382(5) 0.7513(2)
H4 H 0.7437 -0.1032 0.7374
C10 C 0.7238(3) 0.0190(6) 0.8144(3)
H5 H 0.7652 -0.0090 0.8432
C11 C 0.6758(4) 0.1167(5) 0.8350(3)
H6 H 0.6869 0.1553 0.8764
C12 C 0.6118(3) 0.1571(4) 0.7946(2)
H7 H 0.5792 0.2221 0.8087
C13 C 0.5970(3) 0.0990(4) 0.7325(2)
C14 C 0.4441(3) 0.0817(5) 0.7016(3)
H8 H 0.4467 0.0188 0.7365
H9 H 0.4111 0.0529 0.6634
C15 C 0.4096(3) 0.2018(4) 0.7311(3)
H10 H 0.3510 0.2084 0.7230
H11 H 0.4201 0.2080 0.7800
C16 C 0.5825(3) 0.4067(4) 0.5746(2)
C17 C 0.5313(3) 0.5081(4) 0.5904(2)
H12 H 0.4875 0.4974 0.6205
C18 C 0.5448(3) 0.6209(4) 0.5625(2)
H13 H 0.5103 0.6853 0.5741
C19 C 0.6097(3) 0.6403(4) 0.5170(2)
C20 C 0.6598(3) 0.5431(4) 0.5009(2)
H14 H 0.7033 0.5549 0.4707
C21 C 0.6471(3) 0.4292(4) 0.5283(2)
H15 H 0.6820 0.3657 0.5160
C22 C 0.6259(3) 0.7588(5) 0.4912(3)
loop_
_geom_bond_atom_site_label_1
_geom_bond_atom_site_label_2
_geom_bond_site_symmetry_1
_geom_bond_site_symmetry_2
N1 C6 1_555 1_555
N2 C7 1_555 1_555
N3 H1 1_555 1_555
N4 H2 1_555 1_555
N5 C22 1_555 1_555
C1 C2 1_555 1_555
C2 N3 1_555 1_555
H3 C2 1_555 1_555
C3 C2 1_555 1_555
C4 N4 1_555 1_555
C5 C1 1_555 1_555
C6 C1 1_555 1_555
C7 C1 1_555 1_555
C8 N3 1_555 1_555
C9 C8 1_555 1_555
H4 C9 1_555 1_555
C10 C9 1_555 1_555
H5 C10 1_555 1_555
C11 C10 1_555 1_555
H6 C11 1_555 1_555
C12 C11 1_555 1_555
H7 C12 1_555 1_555
C13 C3 1_555 1_555
C14 C3 1_555 1_555
H8 C14 1_555 1_555
H9 C14 1_555 1_555
C15 N4 1_555 1_555
H10 C15 1_555 1_555
H11 C15 1_555 1_555
C16 C5 1_555 1_555
C17 C16 1_555 1_555
H12 C17 1_555 1_555
C18 C17 1_555 1_555
H13 C18 1_555 1_555
C19 C18 1_555 1_555
C20 C19 1_555 1_555
H14 C20 1_555 1_555
C21 C16 1_555 1_555
H15 C21 1_555 1_555
C22 C19 1_555 1_555
C3 C4 1_555 1_555
C4 C5 1_555 1_555
C8 C13 1_555 1_555
C12 C13 1_555 1_555
C14 C15 1_555 1_555
C20 C21 1_555 1_555

#END
