
#######################################################################
#
#                 Cambridge Crystallographic Data Centre
#                                CCDC 
#
#######################################################################
#
# If this CIF has been generated from an entry in the Cambridge 
# Structural Database, then it will include bibliographic, chemical, 
# crystal, experimental, refinement or atomic coordinate data resulting 
# from the CCDC's data processing and validation procedures.
#
#######################################################################

data_CEVREC
_chemical_formula_moiety         'C19 H14 O4'
_chemical_name_systematic        
21-Methyl-9,17,18-trioxapentacyclo[8.7.4.0^1,10^.0^3,8^.0^11,16^]henicosa-3,5,7,11,13,15,20-heptaen-2-one
_symmetry_cell_setting           orthorhombic
_symmetry_space_group_name_H-M   'P b c a'
_symmetry_Int_Tables_number      61
_space_group_name_Hall           '-P 2ac 2ab'
loop_
_symmetry_equiv_pos_site_id
_symmetry_equiv_pos_as_xyz
1 x,y,z
2 1/2+x,1/2-y,-z
3 -x,1/2+y,1/2-z
4 1/2-x,-y,1/2+z
5 -x,-y,-z
6 1/2-x,1/2+y,z
7 x,1/2-y,1/2+z
8 1/2+x,y,1/2-z
_cell_length_a                   11.8949(7)
_cell_length_b                   8.9065(5)
_cell_length_c                   28.0405(16)
_cell_angle_alpha                90
_cell_angle_beta                 90
_cell_angle_gamma                90
_cell_volume                     2970.66
_exptl_crystal_colour            colorless
_exptl_crystal_description       prism
_cell_formula_units_Z            8
loop_
_atom_site_label
_atom_site_type_symbol
_atom_site_fract_x
_atom_site_fract_y
_atom_site_fract_z
O1 O 0.31869(7) 0.54623(11) 0.37816(3)
O2 O 0.60995(8) 0.53403(11) 0.33969(4)
O3 O 0.50984(9) 0.74696(11) 0.31969(4)
O4 O 0.60782(10) 0.77098(13) 0.40784(4)
C1 C 0.28572(16) 0.5824(2) 0.50608(6)
H1 H 0.2315 0.5592 0.5298
C2 C 0.26602(14) 0.5410(2) 0.45907(5)
H2 H 0.1994 0.4888 0.4505
C3 C 0.34587(12) 0.57757(17) 0.42476(5)
C4 C 0.41006(11) 0.51475(15) 0.34574(5)
C5 C 0.46734(11) 0.36740(15) 0.35628(4)
C6 C 0.42513(12) 0.22771(16) 0.36807(5)
H3 H 0.3468 0.2129 0.3726
C7 C 0.50055(13) 0.10916(16) 0.37320(5)
H4 H 0.4735 0.0124 0.3817
C8 C 0.61453(13) 0.13100(16) 0.36606(5)
H5 H 0.6643 0.0483 0.3694
C9 C 0.58164(11) 0.38674(15) 0.34996(5)
C10 C 0.51099(12) 0.62519(15) 0.34997(5)
C11 C 0.49782(17) 0.70655(19) 0.27013(6)
H6 H 0.5688 0.6609 0.2587
H7 H 0.4840 0.7984 0.2511
C12 C 0.40467(15) 0.59980(17) 0.26239(5)
H8 H 0.3756 0.5905 0.2310
C13 C 0.35890(12) 0.51604(16) 0.29632(5)
C14 C 0.44464(12) 0.65086(16) 0.43699(5)
C15 C 0.46290(15) 0.6906(2) 0.48496(6)
H9 H 0.5302 0.7407 0.4938
C16 C 0.38384(17) 0.6573(2) 0.51886(6)
H10 H 0.3960 0.6853 0.5511
C17 C 0.52756(12) 0.69014(16) 0.40054(5)
C18 C 0.25959(14) 0.41639(19) 0.28796(6)
H11 H 0.2378 0.4214 0.2543
H12 H 0.1967 0.4498 0.3079
H13 H 0.2792 0.3127 0.2962
C19 C 0.65786(12) 0.27089(16) 0.35416(5)
H14 H 0.7360 0.2860 0.3492
loop_
_geom_bond_atom_site_label_1
_geom_bond_atom_site_label_2
_geom_bond_site_symmetry_1
_geom_bond_site_symmetry_2
O1 C3 1_555 1_555
O2 C9 1_555 1_555
O3 C10 1_555 1_555
O4 C17 1_555 1_555
C1 H1 1_555 1_555
C2 C1 1_555 1_555
H2 C2 1_555 1_555
C3 C2 1_555 1_555
C4 O1 1_555 1_555
C5 C4 1_555 1_555
C6 C5 1_555 1_555
H3 C6 1_555 1_555
C7 C6 1_555 1_555
H4 C7 1_555 1_555
C8 C7 1_555 1_555
H5 C8 1_555 1_555
C9 C5 1_555 1_555
C10 O2 1_555 1_555
C11 O3 1_555 1_555
H6 C11 1_555 1_555
H7 C11 1_555 1_555
C12 C11 1_555 1_555
H8 C12 1_555 1_555
C13 C4 1_555 1_555
C14 C3 1_555 1_555
C15 C14 1_555 1_555
H9 C15 1_555 1_555
C16 C1 1_555 1_555
H10 C16 1_555 1_555
C17 C10 1_555 1_555
C18 C13 1_555 1_555
H11 C18 1_555 1_555
H12 C18 1_555 1_555
H13 C18 1_555 1_555
C19 C8 1_555 1_555
H14 C19 1_555 1_555
C4 C10 1_555 1_555
C9 C19 1_555 1_555
C12 C13 1_555 1_555
C14 C17 1_555 1_555
C15 C16 1_555 1_555

#END
