
#######################################################################
#
#                 Cambridge Crystallographic Data Centre
#                                CCDC 
#
#######################################################################
#
# If this CIF has been generated from an entry in the Cambridge 
# Structural Database, then it will include bibliographic, chemical, 
# crystal, experimental, refinement or atomic coordinate data resulting 
# from the CCDC's data processing and validation procedures.
#
#######################################################################

data_CEVSEE
_chemical_formula_moiety         'C32 H23 N1 O2'
_chemical_name_systematic        
(2-phenyl-5,6-dihydropyrrolo[2,1-a]isoquinoline-1,3-diyl)bis(phenylmethanone)
_symmetry_cell_setting           triclinic
_symmetry_space_group_name_H-M   'P -1'
_symmetry_Int_Tables_number      2
_space_group_name_Hall           '-P 1'
loop_
_symmetry_equiv_pos_site_id
_symmetry_equiv_pos_as_xyz
1 x,y,z
2 -x,-y,-z
_cell_length_a                   8.1795(14)
_cell_length_b                   11.924(7)
_cell_length_c                   14.235(2)
_cell_angle_alpha                108.1050(16)
_cell_angle_beta                 96.2450(16)
_cell_angle_gamma                108.7120(15)
_cell_volume                     1215.91
_exptl_crystal_colour            colorless
_exptl_crystal_description       block
_cell_formula_units_Z            2
loop_
_atom_site_label
_atom_site_type_symbol
_atom_site_fract_x
_atom_site_fract_y
_atom_site_fract_z
N1 N 0.28691(19) 0.91982(14) 0.55823(10)
O1 O 0.38835(18) 0.76262(14) 0.78285(11)
C1 C 0.3767(2) 1.03982(17) 0.63293(13)
C2 C 0.3206(2) 0.83053(17) 0.58921(13)
C3 C 0.4309(2) 0.89232(17) 0.68550(13)
C4 C 0.4947(3) 0.83248(18) 0.75184(13)
C5 C 0.6875(2) 0.85896(16) 0.77860(13)
C6 C 0.4687(2) 1.02418(17) 0.71313(13)
O2 O 0.3438(2) 1.15719(14) 0.53209(11)
C7 C 0.5914(2) 1.12433(17) 0.80798(14)
C8 C 0.2516(2) 0.69749(18) 0.51894(14)
C9 C 0.3818(3) 1.26526(19) 0.70603(16)
C10 C 0.3671(3) 1.15402(19) 0.61770(15)
C11 C 0.7953(3) 0.89181(18) 0.71521(15)
H1 H 0.7493 0.9033 0.6578
C12 C 0.1746(3) 0.8871(2) 0.45874(14)
H2 H 0.2466 0.8903 0.4091
H3 H 0.1181 0.9480 0.4626
C13 C 0.5787(3) 1.11559(19) 0.90165(14)
H4 H 0.4893 1.0464 0.9053
C14 C 0.7260(3) 1.22930(19) 0.80587(16)
H5 H 0.7376 1.2383 0.7441
C15 C 0.7577(3) 0.84341(19) 0.86437(15)
H6 H 0.6853 0.8205 0.9067
C16 C 0.3226(3) 0.60971(19) 0.53157(16)
H7 H 0.4161 0.6349 0.5866
C17 C 0.1130(3) 0.6594(2) 0.43591(16)
C18 C 0.3134(3) 1.2545(2) 0.78889(16)
H8 H 0.2620 1.1746 0.7925
C19 C 0.6957(4) 1.2073(2) 0.98976(16)
H9 H 0.6840 1.1996 1.0519
C20 C 1.0398(3) 0.8923(2) 0.8234(2)
H10 H 1.1586 0.9029 0.8382
C21 C 0.9717(3) 0.9074(2) 0.7377(2)
H11 H 1.0442 0.9282 0.6948
C22 C 0.0344(3) 0.7545(2) 0.42626(16)
H12 H -0.0518 0.7563 0.4679
H13 H -0.0272 0.7279 0.3562
C23 C 0.8433(3) 1.3207(2) 0.8947(2)
H14 H 0.9331 1.3905 0.8922
C24 C 0.2544(3) 0.4853(2) 0.46268(19)
H15 H 0.3015 0.4271 0.4718
C25 C 0.0469(3) 0.5335(2) 0.36705(18)
H16 H -0.0457 0.5074 0.3112
C26 C 0.9346(4) 0.8618(2) 0.88727(19)
H17 H 0.9824 0.8535 0.9459
C27 C 0.8280(4) 1.3090(2) 0.9865(2)
H18 H 0.9076 1.3701 1.0460
C28 C 0.4652(5) 1.4904(3) 0.7790(3)
H19 H 0.5169 1.5705 0.7758
C29 C 0.4577(3) 1.3855(2) 0.7022(2)
H20 H 0.5036 1.3943 0.6468
C30 C 0.1173(4) 0.4482(2) 0.3811(2)
H21 H 0.0718 0.3646 0.3349
C31 C 0.3973(5) 1.4793(3) 0.8610(3)
H22 H 0.4030 1.5516 0.9132
C32 C 0.3208(4) 1.3611(3) 0.86618(19)
H23 H 0.2742 1.3532 0.9216
loop_
_geom_bond_atom_site_label_1
_geom_bond_atom_site_label_2
_geom_bond_site_symmetry_1
_geom_bond_site_symmetry_2
N1 C1 1_555 1_555
O1 C4 1_555 1_555
C1 C6 1_555 1_555
C2 N1 1_555 1_555
C3 C2 1_555 1_555
C4 C3 1_555 1_555
C5 C4 1_555 1_555
C6 C3 1_555 1_555
O2 C10 1_555 1_555
C7 C6 1_555 1_555
C8 C2 1_555 1_555
C9 C10 1_555 1_555
C10 C1 1_555 1_555
C11 C5 1_555 1_555
H1 C11 1_555 1_555
C12 N1 1_555 1_555
H2 C12 1_555 1_555
H3 C12 1_555 1_555
C13 C7 1_555 1_555
H4 C13 1_555 1_555
C14 C7 1_555 1_555
H5 C14 1_555 1_555
C15 C5 1_555 1_555
H6 C15 1_555 1_555
C16 C8 1_555 1_555
H7 C16 1_555 1_555
C17 C8 1_555 1_555
C18 C9 1_555 1_555
H8 C18 1_555 1_555
C19 C13 1_555 1_555
H9 C19 1_555 1_555
C20 H10 1_555 1_555
C21 C11 1_555 1_555
H11 C21 1_555 1_555
C22 C12 1_555 1_555
H12 C22 1_555 1_555
H13 C22 1_555 1_555
C23 C14 1_555 1_555
H14 C23 1_555 1_555
C24 C16 1_555 1_555
H15 C24 1_555 1_555
C25 C17 1_555 1_555
H16 C25 1_555 1_555
C26 C15 1_555 1_555
H17 C26 1_555 1_555
C27 C19 1_555 1_555
H18 C27 1_555 1_555
C28 H19 1_555 1_555
C29 C9 1_555 1_555
H20 C29 1_555 1_555
C30 C24 1_555 1_555
H21 C30 1_555 1_555
C31 C28 1_555 1_555
H22 C31 1_555 1_555
C32 C18 1_555 1_555
H23 C32 1_555 1_555
C17 C22 1_555 1_555
C20 C21 1_555 1_555
C20 C26 1_555 1_555
C23 C27 1_555 1_555
C25 C30 1_555 1_555
C28 C29 1_555 1_555
C31 C32 1_555 1_555

#END
