
#######################################################################
#
#                 Cambridge Crystallographic Data Centre
#                                CCDC 
#
#######################################################################
#
# If this CIF has been generated from an entry in the Cambridge 
# Structural Database, then it will include bibliographic, chemical, 
# crystal, experimental, refinement or atomic coordinate data resulting 
# from the CCDC's data processing and validation procedures.
#
#######################################################################

data_CEVTUU
_chemical_formula_moiety         'C15 H10 O2'
_chemical_name_systematic        3-Phenyl-1H-isochromen-1-one
_symmetry_cell_setting           triclinic
_symmetry_space_group_name_H-M   'P -1'
_symmetry_Int_Tables_number      2
_space_group_name_Hall           '-P 1'
loop_
_symmetry_equiv_pos_site_id
_symmetry_equiv_pos_as_xyz
1 x,y,z
2 -x,-y,-z
_cell_length_a                   7.5014(3)
_cell_length_b                   11.7780(5)
_cell_length_c                   16.6978(6)
_cell_angle_alpha                109.783(2)
_cell_angle_beta                 96.555(2)
_cell_angle_gamma                95.722(2)
_cell_volume                     1363.95
_exptl_crystal_colour            colorless
_exptl_crystal_description       prism
_chemical_melting_point          '89-91 deg.C'
_cell_formula_units_Z            5
loop_
_atom_site_label
_atom_site_type_symbol
_atom_site_fract_x
_atom_site_fract_y
_atom_site_fract_z
C1 C 0.2649(5) 1.0150(3) 0.1643(2)
C2 C 0.3575(5) 1.1333(3) 0.1712(2)
C3 C 0.4327(5) 1.2195(3) 0.2523(2)
H1 H 0.4236 1.2007 0.3029
C4 C 0.5195(5) 1.3314(4) 0.2585(3)
H2 H 0.5699 1.3901 0.3135
C5 C 0.5338(5) 1.3586(3) 0.1848(3)
H3 H 0.5931 1.4363 0.1897
C6 C 0.4628(5) 1.2741(3) 0.1042(3)
H4 H 0.4755 1.2934 0.0542
C7 C 0.3720(5) 1.1600(3) 0.0961(2)
C8 C 0.2971(5) 1.0683(3) 0.0146(2)
H5 H 0.3057 1.0855 -0.0366
C9 C 0.2152(5) 0.9589(3) 0.0086(2)
C10 C 0.1356(5) 0.8547(3) -0.0696(2)
C11 C 0.1401(5) 0.8636(3) -0.1512(2)
H6 H 0.1937 0.9376 -0.1553
C12 C 0.0676(5) 0.7661(3) -0.2256(2)
H7 H 0.0720 0.7735 -0.2803
C13 C -0.0109(5) 0.6585(3) -0.2206(2)
H8 H -0.0615 0.5918 -0.2718
C14 C -0.0159(5) 0.6478(3) -0.1409(3)
H9 H -0.0700 0.5736 -0.1374
C15 C 0.0577(5) 0.7449(3) -0.0662(2)
H10 H 0.0548 0.7362 -0.0118
O1 O 0.2397(4) 0.9816(2) 0.22405(16)
O2 O 0.1996(3) 0.9329(2) 0.08303(15)
C16 C 0.7258(5) 1.1028(3) 0.4305(2)
C17 C 0.7012(5) 1.1908(3) 0.5129(2)
C18 C 0.6674(5) 1.3069(3) 0.5173(3)
H11 H 0.6594 1.3282 0.4672
C19 C 0.6455(6) 1.3911(4) 0.5958(3)
H12 H 0.6227 1.4705 0.5996
C20 C 0.6571(6) 1.3588(4) 0.6685(3)
H13 H 0.6423 1.4169 0.7220
C21 C 0.6895(5) 1.2444(4) 0.6648(3)
H14 H 0.6967 1.2239 0.7153
C22 C 0.7120(5) 1.1581(3) 0.5863(2)
C23 C 0.7449(5) 1.0367(3) 0.5780(2)
H15 H 0.7512 1.0129 0.6271
C24 C 0.7665(5) 0.9574(3) 0.5023(2)
C25 C 0.8008(5) 0.8299(3) 0.4825(2)
C26 C 0.8139(5) 0.7565(3) 0.3995(2)
H16 H 0.8042 0.7889 0.3545
C27 C 0.8408(5) 0.6369(3) 0.3813(3)
H17 H 0.8479 0.5872 0.3239
C28 C 0.8575(5) 0.5891(4) 0.4462(3)
H18 H 0.8757 0.5066 0.4334
C29 C 0.8477(6) 0.6611(4) 0.5296(3)
H19 H 0.8607 0.6284 0.5744
C30 C 0.8189(5) 0.7816(4) 0.5481(3)
H20 H 0.8115 0.8310 0.6055
O3 O 0.7225(4) 1.1205(2) 0.36304(17)
O4 O 0.7572(3) 0.9896(2) 0.42930(14)
C31? C 0.8221(9) 0.5537(6) 0.0357(5)
C32? C 0.7712(5) 0.6555(3) 0.1001(3)
C33? C 0.8847(5) 0.7576(4) 0.1594(3)
H21? H 1.0125 0.7597 0.1649
C34? C 0.8136(5) 0.8546(3) 0.2096(2)
H22? H 0.8918 0.9237 0.2499
C35? C 0.6272(5) 0.8518(3) 0.2018(2)
H23? H 0.5780 0.9192 0.2369
C36? C 0.5120(5) 0.7516(3) 0.1431(2)
H24? H 0.3845 0.7511 0.1377
C37? C 0.5829(5) 0.6515(3) 0.0921(2)
C38? C 0.4665(6) 0.5457(3) 0.0279(2)
O5? O 0.9782(7) 0.5405(5) 0.0297(3)
O6? O 0.6939(6) 0.4610(4) -0.0242(3)
loop_
_geom_bond_atom_site_label_1
_geom_bond_atom_site_label_2
_geom_bond_site_symmetry_1
_geom_bond_site_symmetry_2
C1 C2 1_555 1_555
C2 C3 1_555 1_555
C3 H1 1_555 1_555
C4 C3 1_555 1_555
H2 C4 1_555 1_555
C5 C4 1_555 1_555
H3 C5 1_555 1_555
C6 C5 1_555 1_555
H4 C6 1_555 1_555
C7 C2 1_555 1_555
C8 C7 1_555 1_555
H5 C8 1_555 1_555
C9 C8 1_555 1_555
C10 C9 1_555 1_555
C11 C10 1_555 1_555
H6 C11 1_555 1_555
C12 C11 1_555 1_555
H7 C12 1_555 1_555
C13 C12 1_555 1_555
H8 C13 1_555 1_555
C14 C13 1_555 1_555
H9 C14 1_555 1_555
C15 C10 1_555 1_555
H10 C15 1_555 1_555
O1 C1 1_555 1_555
O2 C1 1_555 1_555
C16 C17 1_555 1_555
C17 C18 1_555 1_555
C18 H11 1_555 1_555
C19 C18 1_555 1_555
H12 C19 1_555 1_555
C20 C19 1_555 1_555
H13 C20 1_555 1_555
C21 C20 1_555 1_555
H14 C21 1_555 1_555
C22 C17 1_555 1_555
C23 C22 1_555 1_555
H15 C23 1_555 1_555
C24 C23 1_555 1_555
C25 C24 1_555 1_555
C26 C25 1_555 1_555
H16 C26 1_555 1_555
C27 C26 1_555 1_555
H17 C27 1_555 1_555
C28 C27 1_555 1_555
H18 C28 1_555 1_555
C29 C28 1_555 1_555
H19 C29 1_555 1_555
C30 C25 1_555 1_555
H20 C30 1_555 1_555
O3 C16 1_555 1_555
O4 C16 1_555 1_555
C6 C7 1_555 1_555
C9 O2 1_555 1_555
C14 C15 1_555 1_555
C21 C22 1_555 1_555
C24 O4 1_555 1_555
C29 C30 1_555 1_555

#END
