
#######################################################################
#
#                 Cambridge Crystallographic Data Centre
#                                CCDC 
#
#######################################################################
#
# If this CIF has been generated from an entry in the Cambridge 
# Structural Database, then it will include bibliographic, chemical, 
# crystal, experimental, refinement or atomic coordinate data resulting 
# from the CCDC's data processing and validation procedures.
#
#######################################################################

data_CEVTIJ
_chemical_formula_moiety         'C22 H17 B1 F2 N4 O2,H2 O1'
_chemical_name_systematic        
'difluoro{4-[(4-methoxyphenyl)diazenyl]-2-[(1H-pyrrol-2-yl)(2H-pyrrol-2-ylidene)methyl]phenolato}boron monohydrate'
_symmetry_cell_setting           monoclinic
_symmetry_space_group_name_H-M   'P 21/c'
_symmetry_Int_Tables_number      14
_space_group_name_Hall           '-P 2ybc'
loop_
_symmetry_equiv_pos_site_id
_symmetry_equiv_pos_as_xyz
1 x,y,z
2 -x,1/2+y,1/2-z
3 -x,-y,-z
4 x,1/2-y,1/2+z
_cell_length_a                   6.3281(8)
_cell_length_b                   10.0875(13)
_cell_length_c                   31.947(4)
_cell_angle_alpha                90
_cell_angle_beta                 90.08
_cell_angle_gamma                90
_cell_volume                     2039.33
_exptl_crystal_colour            green
_exptl_crystal_description       Needle
_cell_formula_units_Z            4
loop_
_atom_site_label
_atom_site_type_symbol
_atom_site_fract_x
_atom_site_fract_y
_atom_site_fract_z
B1 B 0.6823(3) 0.13615(16) 0.55501(6)
F1 F 0.77192(18) 0.07858(10) 0.51944(3)
F2 F 0.57848(17) 0.03784(10) 0.57751(4)
C1 C 0.3595(3) 0.23587(16) 0.51639(5)
H1 H 0.323345 0.158381 0.501071
C2 C 0.2481(3) 0.35543(17) 0.51496(5)
H2 H 0.125765 0.373601 0.498669
C3 C 0.3495(2) 0.44214(15) 0.54173(5)
H3 H 0.309881 0.531271 0.547234
C4 C 0.5227(2) 0.37425(13) 0.55940(4)
C5 C 0.6769(2) 0.41539(13) 0.58792(4)
C6 C 0.8425(2) 0.32973(13) 0.59887(4)
C7 C 1.0175(2) 0.34817(14) 0.62549(5)
H4 H 1.048877 0.425529 0.641280
C8 C 1.1350(2) 0.23298(15) 0.62440(5)
H5 H 1.262763 0.216262 0.639149
C9 C 1.0303(2) 0.14553(15) 0.59745(5)
H6 H 1.076891 0.058415 0.590933
C10 C 0.6539(2) 0.54835(13) 0.60763(4)
C11 C 0.4763(2) 0.57324(14) 0.63205(4)
H7 H 0.375448 0.504824 0.636324
C12 C 0.4442(2) 0.69726(15) 0.65034(4)
C13 C 0.5908(2) 0.79746(14) 0.64317(5)
H8 H 0.568130 0.882818 0.654897
C14 C 0.7688(2) 0.77476(14) 0.61927(5)
H9 H 0.867336 0.844287 0.614687
C15 C 0.8042(2) 0.64994(14) 0.60183(4)
C16 C -0.0255(2) 0.67641(15) 0.71134(4)
C17 C -0.1744(2) 0.57924(14) 0.71989(5)
H10 H -0.161653 0.494768 0.706996
C18 C -0.3421(2) 0.60309(15) 0.74698(5)
H11 H -0.442642 0.535551 0.752698
C19 C -0.3605(2) 0.72734(15) 0.76561(4)
C20 C -0.2111(3) 0.82555(15) 0.75729(5)
H12 H -0.223509 0.909838 0.770326
C21 C -0.0454(2) 0.80136(15) 0.73032(5)
H13 H 0.054909 0.869024 0.724594
C22 C -0.6661(3) 0.66381(17) 0.80438(5)
H14 H -0.739532 0.631187 0.779395
H15 H -0.769197 0.701618 0.823887
H16 H -0.591663 0.590232 0.817962
N1 N 0.5253(2) 0.24637(12) 0.54258(4)
N2 N 0.85443(19) 0.20240(11) 0.58210(4)
N3 N 0.2712(2) 0.73221(12) 0.67647(4)
N4 N 0.1439(2) 0.63957(12) 0.68424(4)
O1 O 0.97818(16) 0.62351(10) 0.57867(3)
H17 H 1.053369 0.691936 0.577031
O2 O -0.51768(19) 0.76326(11) 0.79261(4)
O3 O 1.2288(2) 0.83520(13) 0.56378(4)
H18 H 1.348068 0.863026 0.574133
H19 H 1.228094 0.864500 0.538202
loop_
_geom_bond_atom_site_label_1
_geom_bond_atom_site_label_2
_geom_bond_site_symmetry_1
_geom_bond_site_symmetry_2
B1 F1 1_555 1_555
F2 B1 1_555 1_555
C1 H1 1_555 1_555
C2 C1 1_555 1_555
H2 C2 1_555 1_555
C3 C2 1_555 1_555
H3 C3 1_555 1_555
C4 C3 1_555 1_555
C5 C4 1_555 1_555
C6 C5 1_555 1_555
C7 C6 1_555 1_555
H4 C7 1_555 1_555
C8 C7 1_555 1_555
H5 C8 1_555 1_555
C9 C8 1_555 1_555
H6 C9 1_555 1_555
C10 C5 1_555 1_555
C11 C10 1_555 1_555
H7 C11 1_555 1_555
C12 C11 1_555 1_555
C13 C12 1_555 1_555
H8 C13 1_555 1_555
C14 C13 1_555 1_555
H9 C14 1_555 1_555
C15 C10 1_555 1_555
C16 C17 1_555 1_555
C17 H10 1_555 1_555
C18 C17 1_555 1_555
H11 C18 1_555 1_555
C19 C18 1_555 1_555
C20 C19 1_555 1_555
H12 C20 1_555 1_555
C21 C16 1_555 1_555
H13 C21 1_555 1_555
C22 H14 1_555 1_555
H15 C22 1_555 1_555
H16 C22 1_555 1_555
N1 B1 1_555 1_555
N2 B1 1_555 1_555
N3 C12 1_555 1_555
N4 C16 1_555 1_555
O1 C15 1_555 1_555
H17 O1 1_555 1_555
O2 C19 1_555 1_555
O3 H18 1_555 1_555
H19 O3 1_555 1_555
C1 N1 1_555 1_555
C4 N1 1_555 1_555
C6 N2 1_555 1_555
C9 N2 1_555 1_555
C14 C15 1_555 1_555
C20 C21 1_555 1_555
C22 O2 1_555 1_555
N3 N4 1_555 1_555

#END
