
#######################################################################
#
#                 Cambridge Crystallographic Data Centre
#                                CCDC 
#
#######################################################################
#
# If this CIF has been generated from an entry in the Cambridge 
# Structural Database, then it will include bibliographic, chemical, 
# crystal, experimental, refinement or atomic coordinate data resulting 
# from the CCDC's data processing and validation procedures.
#
#######################################################################

data_CEVTUV
_chemical_formula_moiety         'C22 H17 B1 F2 N4 O2'
_chemical_name_systematic        
difluoro{2-[(4-methoxyphenyl)diazenyl]-6-[(1H-pyrrol-2-yl)(2H-pyrrol-2-ylidene)methyl]phenolato}boron
_symmetry_cell_setting           triclinic
_symmetry_space_group_name_H-M   'P -1'
_symmetry_Int_Tables_number      2
_space_group_name_Hall           '-P 1'
loop_
_symmetry_equiv_pos_site_id
_symmetry_equiv_pos_as_xyz
1 x,y,z
2 -x,-y,-z
_cell_length_a                   7.2565(5)
_cell_length_b                   7.8314(5)
_cell_length_c                   17.8401(11)
_cell_angle_alpha                101.755(2)
_cell_angle_beta                 93.007(2)
_cell_angle_gamma                101.674(2)
_cell_volume                     967.382
_exptl_crystal_colour            green
_exptl_crystal_description       Needle
_cell_formula_units_Z            2
_exptl_crystal_recrystallization_method dichloromethane/hexane
loop_
_atom_site_label
_atom_site_type_symbol
_atom_site_fract_x
_atom_site_fract_y
_atom_site_fract_z
F1 F 0.86481(13) 0.85485(13) 0.09856(6)
O1 O 0.67985(14) 1.34840(16) 0.31006(6)
H1 H 0.7195(8) 1.424(2) 0.3497(7)
N1 N 0.47951(19) 1.58578(17) 0.40579(7)
N2 N 0.53029(17) 0.82693(16) 0.10082(7)
N3 N 0.73300(17) 1.10017(17) 0.07843(7)
N4 N 0.65168(19) 1.59282(17) 0.42485(7)
C1 C 0.49652(19) 1.34498(19) 0.29209(8)
C2 C 0.40147(19) 1.22684(19) 0.22563(8)
F2 F 0.69242(15) 0.82131(15) -0.01389(5)
C3 C 0.7375(2) 1.7258(2) 0.49015(8)
C4 C 0.64619(19) 1.20021(19) 0.13370(8)
C5 C 0.3981(2) 1.45660(19) 0.33935(8)
O2 O 1.0124(2) 2.11064(17) 0.67765(7)
C6 C 0.44435(19) 0.93163(19) 0.15460(8)
C7 C 0.2095(2) 1.2143(2) 0.20927(8)
H2 H 0.1450(2) 1.1325(2) 0.16597(8)
C8 C 0.50318(19) 1.11691(19) 0.17160(8)
C9 C 0.9305(3) 1.9803(2) 0.61537(9)
C10 C 0.9256(2) 1.7362(2) 0.51067(9)
H3 H 0.9880(2) 1.6569(2) 0.48179(9)
C11 C 0.7131(2) 1.3812(2) 0.13346(9)
H4 H 0.6799(2) 1.4778(2) 0.16520(9)
C12 C 0.7416(3) 1.9720(2) 0.59472(10)
H5 H 0.6802(3) 2.0530(2) 0.62308(10)
C13 C 0.2071(2) 1.4425(2) 0.31966(9)
H6 H 0.1424(2) 1.5169(2) 0.35018(9)
C14 C 0.6444(3) 1.8463(2) 0.53327(9)
H7 H 0.5173(3) 1.8409(2) 0.52020(9)
C15 C 0.3023(2) 0.8167(2) 0.18226(9)
H8 H 0.2225(2) 0.8503(2) 0.21896(9)
C16 C 0.1122(2) 1.3212(2) 0.25620(9)
H9 H -0.0166(2) 1.3107(2) 0.24471(9)
C17 C 1.0235(3) 1.8618(2) 0.57316(9)
H10 H 1.1503(3) 1.8666(2) 0.58665(9)
C18 C 0.4439(2) 0.6567(2) 0.09586(10)
H11 H 0.4742(2) 0.5590(2) 0.06371(10)
C19 C 0.8456(2) 1.2154(3) 0.04550(10)
H12 H 0.9197(2) 1.1831(3) 0.00631(10)
C20 C 1.1993(3) 2.1138(3) 0.70711(11)
H13 H 1.2389(3) 2.2120(3) 0.75068(11)
H14 H 1.2017(3) 2.0037(3) 0.72260(11)
H15 H 1.2834(3) 2.1277(3) 0.66795(11)
B1 B 0.7094(2) 0.8959(3) 0.06322(10)
C21 C 0.8359(2) 1.3896(2) 0.07806(10)
H16 H 0.9007(2) 1.4926(2) 0.06475(10)
C22 C 0.3034(3) 0.6458(2) 0.14506(11)
H17 H 0.2242(3) 0.5418(2) 0.15169(11)
loop_
_geom_bond_atom_site_label_1
_geom_bond_atom_site_label_2
_geom_bond_site_symmetry_1
_geom_bond_site_symmetry_2
F1 B1 1_555 1_555
O1 H1 1_555 1_555
N1 N4 1_555 1_555
N2 C6 1_555 1_555
N3 C4 1_555 1_555
N4 C3 1_555 1_555
C1 O1 1_555 1_555
C2 C1 1_555 1_555
F2 B1 1_555 1_555
C3 C10 1_555 1_555
C4 C8 1_555 1_555
C5 N1 1_555 1_555
O2 C9 1_555 1_555
C6 C8 1_555 1_555
C7 C2 1_555 1_555
H2 C7 1_555 1_555
C8 C2 1_555 1_555
C9 C12 1_555 1_555
C10 H3 1_555 1_555
C11 C4 1_555 1_555
H4 C11 1_555 1_555
C12 H5 1_555 1_555
C13 C5 1_555 1_555
H6 C13 1_555 1_555
C14 C3 1_555 1_555
H7 C14 1_555 1_555
C15 C6 1_555 1_555
H8 C15 1_555 1_555
C16 C7 1_555 1_555
H9 C16 1_555 1_555
C17 C9 1_555 1_555
H10 C17 1_555 1_555
C18 N2 1_555 1_555
H11 C18 1_555 1_555
C19 N3 1_555 1_555
H12 C19 1_555 1_555
C20 O2 1_555 1_555
H13 C20 1_555 1_555
H14 C20 1_555 1_555
H15 C20 1_555 1_555
B1 N2 1_555 1_555
C21 C11 1_555 1_555
H16 C21 1_555 1_555
C22 C15 1_555 1_555
H17 C22 1_555 1_555
N3 B1 1_555 1_555
C1 C5 1_555 1_555
C10 C17 1_555 1_555
C12 C14 1_555 1_555
C13 C16 1_555 1_555
C18 C22 1_555 1_555
C19 C21 1_555 1_555

#END
