
#######################################################################
#
#                 Cambridge Crystallographic Data Centre
#                                CCDC 
#
#######################################################################
#
# If this CIF has been generated from an entry in the Cambridge 
# Structural Database, then it will include bibliographic, chemical, 
# crystal, experimental, refinement or atomic coordinate data resulting 
# from the CCDC's data processing and validation procedures.
#
#######################################################################

data_CEVVAC
_chemical_formula_moiety         'C13 H9 N1 O2'
_chemical_name_systematic        3-Methyl-1H-pyrano[4,3-b]quinolin-1-one
_symmetry_cell_setting           monoclinic
_symmetry_space_group_name_H-M   'P 21'
_symmetry_Int_Tables_number      4
_space_group_name_Hall           'P 2yb'
loop_
_symmetry_equiv_pos_site_id
_symmetry_equiv_pos_as_xyz
1 x,y,z
2 -x,1/2+y,-z
_cell_length_a                   7.2300(3)
_cell_length_b                   11.8600(4)
_cell_length_c                   11.2760(5)
_cell_angle_alpha                90
_cell_angle_beta                 96.494(2)
_cell_angle_gamma                90
_cell_volume                     960.688
_exptl_crystal_colour            colorless
_exptl_crystal_description       prism
_chemical_melting_point          '198-200 deg.C'
_cell_formula_units_Z            4
loop_
_atom_site_label
_atom_site_type_symbol
_atom_site_fract_x
_atom_site_fract_y
_atom_site_fract_z
C1 C 0.6370(6) 0.8807(4) 0.0534(4)
C2 C 0.6891(6) 0.8116(4) 0.1574(4)
C3 C 0.7739(6) 0.8567(4) 0.2650(4)
C4 C 0.7921(6) 0.9792(4) 0.2696(4)
H1 H 0.8459 1.0140 0.3412
C5 C 0.7349(6) 1.0431(4) 0.1754(4)
C6 C 0.7449(7) 1.1687(5) 0.1611(4)
H2 H 0.6885 1.1899 0.0811
H3 H 0.8754 1.1928 0.1718
H4 H 0.6774 1.2054 0.2211
C7 C 0.6609(6) 0.6962(4) 0.1516(4)
H5 H 0.6004 0.6625 0.0812
C8 C 0.8117(7) 0.6855(5) 0.3522(4)
C9 C 0.7228(6) 0.6295(4) 0.2512(4)
C10 C 0.6990(6) 0.5097(4) 0.2507(4)
H6 H 0.6344 0.4728 0.1836
C11 C 0.7712(7) 0.4491(5) 0.3488(4)
H7 H 0.7610 0.3692 0.3484
C12 C 0.8598(7) 0.5045(4) 0.4496(4)
H8 H 0.9047 0.4619 0.5182
C13 C 0.8826(6) 0.6197(5) 0.4503(4)
H9 H 0.9474 0.6552 0.5183
N1 N 0.8356(5) 0.7978(4) 0.3591(3)
O1 O 0.5772(4) 0.8467(4) -0.0455(2)
O2 O 0.6564(4) 0.9960(3) 0.0666(3)
C14 C 0.6331(7) 0.1550(4) 0.5523(4)
C15 C 0.6870(6) 0.2291(5) 0.6574(3)
C16 C 0.7731(6) 0.1767(5) 0.7654(4)
C17 C 0.7347(6) -0.0039(5) 0.6745(4)
C18 C 0.6566(6) 0.3409(4) 0.6503(4)
H10 H 0.5943 0.3734 0.5799
C19 C 0.7184(6) 0.4086(5) 0.7488(4)
C20 C 0.8123(6) 0.3553(4) 0.8531(4)
C21 C 0.8813(6) 0.4218(4) 0.9535(3)
H11 H 0.9407 0.3870 1.0236
C22 C 0.8612(6) 0.5354(5) 0.9479(4)
H12 H 0.9129 0.5804 1.0131
C23 C 0.7651(7) 0.5877(5) 0.8472(4)
H13 H 0.7468 0.6671 0.8472
C24 C 0.6987(6) 0.5268(5) 0.7507(4)
H14 H 0.6375 0.5642 0.6827
N2 N 0.8347(5) 0.2395(3) 0.8613(3)
O3 O 0.5768(4) 0.1868(4) 0.4556(2)
C25 C 0.7893(6) 0.0584(5) 0.7690(4)
H15 H 0.8404 0.0228 0.8408
C26 C 0.7445(7) -0.1273(5) 0.6705(4)
H16 H 0.6972 -0.1537 0.5904
H17 H 0.6688 -0.1594 0.7289
H18 H 0.8741 -0.1515 0.6894
O4 O 0.6596(4) 0.0421(3) 0.5689(3)
loop_
_geom_bond_atom_site_label_1
_geom_bond_atom_site_label_2
_geom_bond_site_symmetry_1
_geom_bond_site_symmetry_2
C1 C2 1_555 1_555
C2 C3 1_555 1_555
C3 C4 1_555 1_555
C4 H1 1_555 1_555
C5 C4 1_555 1_555
C6 C5 1_555 1_555
H2 C6 1_555 1_555
H3 C6 1_555 1_555
H4 C6 1_555 1_555
C7 C2 1_555 1_555
H5 C7 1_555 1_555
C8 C9 1_555 1_555
C9 C7 1_555 1_555
C10 C9 1_555 1_555
H6 C10 1_555 1_555
C11 C10 1_555 1_555
H7 C11 1_555 1_555
C12 C11 1_555 1_555
H8 C12 1_555 1_555
C13 C8 1_555 1_555
H9 C13 1_555 1_555
N1 C3 1_555 1_555
O1 C1 1_555 1_555
O2 C1 1_555 1_555
C14 C15 1_555 1_555
C15 C16 1_555 1_555
C16 N2 1_555 1_555
C17 C25 1_555 1_555
C18 C15 1_555 1_555
H10 C18 1_555 1_555
C19 C18 1_555 1_555
C20 C19 1_555 1_555
C21 C20 1_555 1_555
H11 C21 1_555 1_555
C22 C21 1_555 1_555
H12 C22 1_555 1_555
C23 C22 1_555 1_555
H13 C23 1_555 1_555
C24 C19 1_555 1_555
H14 C24 1_555 1_555
N2 C20 1_555 1_555
O3 C14 1_555 1_555
C25 C16 1_555 1_555
H15 C25 1_555 1_555
C26 C17 1_555 1_555
H16 C26 1_555 1_555
H17 C26 1_555 1_555
H18 C26 1_555 1_555
O4 C14 1_555 1_555
C5 O2 1_555 1_555
C8 N1 1_555 1_555
C12 C13 1_555 1_555
C17 O4 1_555 1_555
C23 C24 1_555 1_555

#END
