
#######################################################################
#
#                 Cambridge Crystallographic Data Centre
#                                CCDC 
#
#######################################################################
#
# If this CIF has been generated from an entry in the Cambridge 
# Structural Database, then it will include bibliographic, chemical, 
# crystal, experimental, refinement or atomic coordinate data resulting 
# from the CCDC's data processing and validation procedures.
#
#######################################################################

data_CEVVEG
_chemical_formula_moiety         'C19 H15 N1 O2'
_chemical_name_systematic        
5-Phenyl-3,4-dihydrophenanthridine-1,6(2H,5H)-dione
_symmetry_cell_setting           monoclinic
_symmetry_space_group_name_H-M   'C c'
_symmetry_Int_Tables_number      9
_space_group_name_Hall           'C -2yc'
loop_
_symmetry_equiv_pos_site_id
_symmetry_equiv_pos_as_xyz
1 x,y,z
2 x,-y,1/2+z
3 1/2+x,1/2+y,z
4 1/2+x,1/2-y,1/2+z
_cell_length_a                   13.7031(6)
_cell_length_b                   11.5870(6)
_cell_length_c                   9.2497(6)
_cell_angle_alpha                90
_cell_angle_beta                 103.610(2)
_cell_angle_gamma                90
_cell_volume                     1427.41
_exptl_crystal_colour            colorless
_exptl_crystal_description       prism
_chemical_melting_point          '187-189 deg.C'
_cell_formula_units_Z            4
loop_
_atom_site_label
_atom_site_type_symbol
_atom_site_fract_x
_atom_site_fract_y
_atom_site_fract_z
C1 C 0.6041(4) 0.6748(5) 0.3019(6)
C2 C 0.5855(4) 0.5506(4) 0.3019(6)
C3 C 0.5096(4) 0.5066(5) 0.1866(6)
H1 H 0.4745 0.5554 0.1125
C4 C 0.4871(4) 0.3905(5) 0.1832(7)
H2 H 0.4373 0.3602 0.1065
C5 C 0.5395(5) 0.3198(5) 0.2952(7)
H3 H 0.5238 0.2417 0.2939
C6 C 0.6137(5) 0.3622(5) 0.4072(7)
H4 H 0.6464 0.3125 0.4819
C7 C 0.6422(4) 0.4791(4) 0.4135(5)
C8 C 0.7248(4) 0.5298(4) 0.5263(6)
C9 C 0.7983(5) 0.4588(5) 0.6318(6)
C10 C 0.8845(5) 0.5179(5) 0.7348(7)
H5 H 0.9401 0.5235 0.6868
H6 H 0.9064 0.4716 0.8238
C11 C 0.8578(4) 0.6373(5) 0.7783(6)
H7 H 0.8069 0.6322 0.8353
H8 H 0.9167 0.6741 0.8399
C12 C 0.8190(4) 0.7082(5) 0.6401(6)
H9 H 0.7917 0.7801 0.6674
H10 H 0.8743 0.7269 0.5954
C13 C 0.7394(4) 0.6467(4) 0.5281(5)
C14 C 0.6950(4) 0.8415(4) 0.4226(6)
C15 C 0.6385(4) 0.9128(5) 0.4904(6)
H11 H 0.5893 0.8825 0.5337
C16 C 0.6564(5) 1.0308(5) 0.4928(7)
H12 H 0.6177 1.0804 0.5353
C17 C 0.7310(5) 1.0743(5) 0.4327(8)
H13 H 0.7448 1.1530 0.4382
C18 C 0.7854(5) 1.0017(5) 0.3644(6)
H14 H 0.8346 1.0320 0.3212
C19 C 0.7681(4) 0.8848(4) 0.3589(6)
H15 H 0.8054 0.8360 0.3128
N1 N 0.6787(3) 0.7166(3) 0.4218(4)
O1 O 0.5583(3) 0.7431(3) 0.2086(4)
O2 O 0.7933(4) 0.3536(4) 0.6346(5)
loop_
_geom_bond_atom_site_label_1
_geom_bond_atom_site_label_2
_geom_bond_site_symmetry_1
_geom_bond_site_symmetry_2
C1 C2 1_555 1_555
C2 C3 1_555 1_555
C3 H1 1_555 1_555
C4 C3 1_555 1_555
H2 C4 1_555 1_555
C5 C4 1_555 1_555
H3 C5 1_555 1_555
C6 C5 1_555 1_555
H4 C6 1_555 1_555
C7 C2 1_555 1_555
C8 C7 1_555 1_555
C9 C8 1_555 1_555
C10 C9 1_555 1_555
H5 C10 1_555 1_555
H6 C10 1_555 1_555
C11 C10 1_555 1_555
H7 C11 1_555 1_555
H8 C11 1_555 1_555
C12 C11 1_555 1_555
H9 C12 1_555 1_555
H10 C12 1_555 1_555
C13 C8 1_555 1_555
C14 C15 1_555 1_555
C15 H11 1_555 1_555
C16 C15 1_555 1_555
H12 C16 1_555 1_555
C17 C16 1_555 1_555
H13 C17 1_555 1_555
C18 C17 1_555 1_555
H14 C18 1_555 1_555
C19 C14 1_555 1_555
H15 C19 1_555 1_555
N1 C1 1_555 1_555
O1 C1 1_555 1_555
O2 C9 1_555 1_555
C6 C7 1_555 1_555
C12 C13 1_555 1_555
C13 N1 1_555 1_555
C14 N1 1_555 1_555
C18 C19 1_555 1_555

#END
