
#######################################################################
#
#                 Cambridge Crystallographic Data Centre
#                                CCDC 
#
#######################################################################
#
# If this CIF has been generated from an entry in the Cambridge 
# Structural Database, then it will include bibliographic, chemical, 
# crystal, experimental, refinement or atomic coordinate data resulting 
# from the CCDC's data processing and validation procedures.
#
#######################################################################

data_CEVWEG
_chemical_formula_moiety         'C28 H23 N1 O2 S1,0.5(C3 H7 N1 O1)'
_chemical_name_systematic        
'7,7-Dimethyl-5-phenyl-10-(2-thienyl)-7,8-dihydro-5H-indeno(1,2-b)quinoline-9,11(6H,10H)-dione dimethylformamide solvate'
_symmetry_cell_setting           monoclinic
_symmetry_space_group_name_H-M   'P 21/c'
_symmetry_Int_Tables_number      14
_space_group_name_Hall           '-P 2ybc'
loop_
_symmetry_equiv_pos_site_id
_symmetry_equiv_pos_as_xyz
1 x,y,z
2 -x,1/2+y,1/2-z
3 -x,-y,-z
4 x,1/2-y,1/2+z
_cell_length_a                   15.081(2)
_cell_length_b                   9.4381(14)
_cell_length_c                   35.102(6)
_cell_angle_alpha                90
_cell_angle_beta                 92.041(3)
_cell_angle_gamma                90
_cell_volume                     4993.11
_exptl_crystal_colour            red
_exptl_crystal_description       block
_chemical_melting_point          '503-505 K'
_cell_formula_units_Z            8
loop_
_atom_site_label
_atom_site_type_symbol
_atom_site_fract_x
_atom_site_fract_y
_atom_site_fract_z
N1 N 0.6521(2) -0.1038(3) 0.18642(9)
O1 O 0.5218(2) 0.1266(4) 0.28988(9)
O2 O 0.8553(2) -0.1043(4) 0.29224(10)
S1 S 0.70408(13) 0.2610(2) 0.21163(6)
C3 C 0.5801(2) -0.0350(4) 0.20346(11)
C4 C 0.4947(3) -0.0310(4) 0.18049(12)
H3 H 0.4677 -0.1242 0.1809
H4 H 0.5074 -0.0092 0.1542
C5 C 0.4285(3) 0.0775(5) 0.19480(13)
C6 C 0.4249(3) 0.0620(5) 0.23791(13)
H5 H 0.3857 0.1341 0.2475
H6 H 0.3996 -0.0297 0.2437
C7 C 0.5134(3) 0.0749(5) 0.25808(13)
C8 C 0.5905(3) 0.0203(4) 0.23883(11)
C9 C 0.6801(3) 0.0349(4) 0.25895(11)
H7 H 0.6740 0.0222 0.2864
C10 C 0.7389(3) -0.0792(4) 0.24392(11)
C11 C 0.8224(3) -0.1301(5) 0.26049(13)
C12 C 0.8622(3) -0.2214(5) 0.23059(12)
C13 C 0.9412(3) -0.2930(5) 0.23103(15)
H8 H 0.9793 -0.2910 0.2525
C14 C 0.9634(3) -0.3683(6) 0.19890(17)
H9 H 1.0172 -0.4163 0.1985
C15 C 0.9065(3) -0.3723(5) 0.16784(15)
H10 H 0.9221 -0.4245 0.1466
C16 C 0.8257(3) -0.3007(5) 0.16689(13)
H11 H 0.7876 -0.3049 0.1455
C17 C 0.8039(3) -0.2233(4) 0.19857(12)
C18 C 0.7270(3) -0.1322(4) 0.20868(11)
C19 C 0.6484(3) -0.1448(5) 0.14693(11)
C20 C 0.6921(3) -0.0622(5) 0.12115(12)
H12 H 0.7195 0.0213 0.1292
C21 C 0.6952(4) -0.1023(7) 0.08382(14)
H13 H 0.7250 -0.0471 0.0664
C22 C 0.6538(4) -0.2253(7) 0.07238(14)
H14 H 0.6563 -0.2539 0.0471
C23 C 0.6090(3) -0.3062(6) 0.09744(15)
H15 H 0.5804 -0.3884 0.0891
C24 C 0.6058(3) -0.2661(5) 0.13546(13)
H16 H 0.5754 -0.3208 0.1528
C25 C 0.3376(3) 0.0492(6) 0.17597(16)
H17 H 0.3409 0.0595 0.1489
H18 H 0.2954 0.1157 0.1854
H19 H 0.3191 -0.0454 0.1818
C26 C 0.4564(3) 0.2287(5) 0.18443(15)
H20 H 0.4588 0.2372 0.1572
H21 H 0.5138 0.2486 0.1959
H22 H 0.4139 0.2950 0.1937
C27 C 0.7215(3) 0.1785(5) 0.25132(12)
C28 C 0.79673(18) 0.2541(3) 0.27748(8)
H23 H 0.8221 0.2276 0.3009
C29 C 0.8141(4) 0.3807(7) 0.2528(3)
H24 H 0.8541 0.4511 0.2604
C30 C 0.7702(4) 0.3868(6) 0.2200(2)
H25 H 0.7775 0.4606 0.2029
N2 N 0.0807(2) 0.1273(4) 0.08188(9)
O3 O 0.2964(2) 0.3737(3) 0.01359(9)
O4 O 0.1601(2) -0.1505(3) -0.02383(9)
C2 C 0.30029(17) -0.0857(3) 0.07044(8)
H2 H 0.2528 -0.1301 0.0817
C31 C 0.1360(3) 0.2449(4) 0.07601(10)
C32 C 0.1205(3) 0.3715(4) 0.10033(11)
H26 H 0.1125 0.3400 0.1263
H27 H 0.0659 0.4170 0.0915
C33 C 0.1951(3) 0.4805(5) 0.10047(11)
C34 C 0.2205(3) 0.5062(5) 0.05943(12)
H28 H 0.1718 0.5535 0.0459
H29 H 0.2715 0.5688 0.0594
C35 C 0.2422(3) 0.3728(5) 0.03885(12)
C36 C 0.1953(3) 0.2431(4) 0.04826(10)
C37 C 0.2176(3) 0.1104(4) 0.02594(11)
H30 H 0.2256 0.1364 -0.0007
C38 C 0.1407(3) 0.0123(4) 0.02789(11)
C39 C 0.1215(3) -0.1105(5) 0.00422(12)
C40 C 0.0437(3) -0.1812(5) 0.02147(12)
C41 C -0.0008(3) -0.3029(5) 0.01026(13)
H31 H 0.0158 -0.3534 -0.0111
C42 C -0.0706(3) -0.3474(5) 0.03163(15)
H32 H -0.1011 -0.4299 0.0249
C43 C -0.0953(3) -0.2719(5) 0.06240(14)
H33 H -0.1424 -0.3041 0.0764
C44 C -0.0525(3) -0.1487(5) 0.07343(13)
H34 H -0.0715 -0.0971 0.0942
C45 C 0.0185(3) -0.1033(4) 0.05337(11)
C46 C 0.0815(3) 0.0184(4) 0.05587(11)
C47 C 0.0243(3) 0.1215(4) 0.11417(11)
C48 C -0.0548(3) 0.1941(5) 0.11302(12)
H35 H -0.0719 0.2473 0.0917
C49 C -0.1085(3) 0.1869(5) 0.14394(14)
H36 H -0.1617 0.2368 0.1437
C50 C -0.0837(4) 0.1069(6) 0.17495(15)
H37 H -0.1202 0.1028 0.1958
C51 C -0.0060(4) 0.0328(6) 0.17561(13)
H38 H 0.0097 -0.0233 0.1966
C52 C 0.0497(3) 0.0413(5) 0.14497(12)
H39 H 0.1034 -0.0071 0.1455
C53 C 0.1621(4) 0.6175(5) 0.11846(14)
H40 H 0.1467 0.5994 0.1443
H41 H 0.1107 0.6511 0.1042
H42 H 0.2080 0.6878 0.1181
C54 C 0.2757(3) 0.4257(6) 0.12348(13)
H43 H 0.2597 0.4091 0.1493
H44 H 0.3225 0.4947 0.1231
H45 H 0.2957 0.3387 0.1125
C55 C 0.3014(3) 0.0392(5) 0.04145(11)
S4 S 0.40043(14) 0.0928(3) 0.03361(9)
C57 C 0.4504(4) -0.0282(8) 0.0566(2)
H47 H 0.5118 -0.0375 0.0571
C58 C 0.3999(4) -0.1142(7) 0.07501(18)
H48 H 0.4228 -0.1880 0.0899
N3 N 0.6516(6) 0.3355(6) 0.0651(2)
O5 O 0.7734(6) 0.4287(8) 0.0983(3)
C59 C 0.7336(9) 0.4002(11) 0.0656(3)
H49 H 0.7601 0.4232 0.0429
C60 C 0.6102(7) 0.3010(9) 0.0999(3)
H50 H 0.5539 0.2567 0.0942
H51 H 0.6013 0.3859 0.1143
H52 H 0.6474 0.2370 0.1145
C61 C 0.6156(7) 0.3099(10) 0.0280(3)
H53 H 0.5588 0.2649 0.0296
H54 H 0.6549 0.2493 0.0145
H55 H 0.6088 0.3982 0.0146
S2? S 0.30029(17) -0.0857(3) 0.07044(8)
C1? C 0.70408(13) 0.2610(2) 0.21163(6)
H1? H 0.6670 0.2408 0.1906
S3? S 0.79673(18) 0.2541(3) 0.27748(8)
C56? C 0.40043(14) 0.0928(3) 0.03361(9)
H46? H 0.4212 0.1697 0.0200
loop_
_geom_bond_atom_site_label_1
_geom_bond_atom_site_label_2
_geom_bond_site_symmetry_1
_geom_bond_site_symmetry_2
N1 C3 1_555 1_555
N2 C31 1_555 1_555
N3 C59 1_555 1_555
O1 C7 1_555 1_555
O2 C11 1_555 1_555
O3 C35 1_555 1_555
O4 C39 1_555 1_555
O5 C59 1_555 1_555
S1 C27 1_555 1_555
C2 H2 1_555 1_555
C3 C4 1_555 1_555
C4 H3 1_555 1_555
H4 C4 1_555 1_555
C5 C4 1_555 1_555
C6 C5 1_555 1_555
H5 C6 1_555 1_555
H6 C6 1_555 1_555
C7 C6 1_555 1_555
C8 C3 1_555 1_555
C9 C8 1_555 1_555
H7 C9 1_555 1_555
C10 C9 1_555 1_555
C11 C10 1_555 1_555
C12 C11 1_555 1_555
C13 C12 1_555 1_555
H8 C13 1_555 1_555
C14 C13 1_555 1_555
H9 C14 1_555 1_555
C15 C14 1_555 1_555
H10 C15 1_555 1_555
C16 C15 1_555 1_555
H11 C16 1_555 1_555
C17 C12 1_555 1_555
C18 N1 1_555 1_555
C19 N1 1_555 1_555
C20 C19 1_555 1_555
H12 C20 1_555 1_555
C21 C20 1_555 1_555
H13 C21 1_555 1_555
C22 C21 1_555 1_555
H14 C22 1_555 1_555
C23 C22 1_555 1_555
H15 C23 1_555 1_555
C24 C19 1_555 1_555
H16 C24 1_555 1_555
C25 C5 1_555 1_555
H17 C25 1_555 1_555
H18 C25 1_555 1_555
H19 C25 1_555 1_555
C26 C5 1_555 1_555
H20 C26 1_555 1_555
H21 C26 1_555 1_555
H22 C26 1_555 1_555
C27 C9 1_555 1_555
C28 C27 1_555 1_555
H23 C28 1_555 1_555
C29 C28 1_555 1_555
H24 C29 1_555 1_555
C30 S1 1_555 1_555
H25 C30 1_555 1_555
C31 C32 1_555 1_555
C32 H26 1_555 1_555
H27 C32 1_555 1_555
C33 C32 1_555 1_555
C34 C33 1_555 1_555
H28 C34 1_555 1_555
H29 C34 1_555 1_555
C35 C34 1_555 1_555
C36 C31 1_555 1_555
C37 C36 1_555 1_555
H30 C37 1_555 1_555
C38 C37 1_555 1_555
C39 C38 1_555 1_555
C40 C39 1_555 1_555
C41 C40 1_555 1_555
H31 C41 1_555 1_555
C42 C41 1_555 1_555
H32 C42 1_555 1_555
C43 C42 1_555 1_555
H33 C43 1_555 1_555
C44 C43 1_555 1_555
H34 C44 1_555 1_555
C45 C40 1_555 1_555
C46 N2 1_555 1_555
C47 N2 1_555 1_555
C48 C47 1_555 1_555
H35 C48 1_555 1_555
C49 C48 1_555 1_555
H36 C49 1_555 1_555
C50 C49 1_555 1_555
H37 C50 1_555 1_555
C51 C50 1_555 1_555
H38 C51 1_555 1_555
C52 C47 1_555 1_555
H39 C52 1_555 1_555
C53 C33 1_555 1_555
H40 C53 1_555 1_555
H41 C53 1_555 1_555
H42 C53 1_555 1_555
C54 C33 1_555 1_555
H43 C54 1_555 1_555
H44 C54 1_555 1_555
H45 C54 1_555 1_555
C55 C2 1_555 1_555
S4 C55 1_555 1_555
C57 S4 1_555 1_555
H47 C57 1_555 1_555
C58 C2 1_555 1_555
H48 C58 1_555 1_555
C59 H49 1_555 1_555
C60 N3 1_555 1_555
H50 C60 1_555 1_555
H51 C60 1_555 1_555
H52 C60 1_555 1_555
C61 N3 1_555 1_555
H53 C61 1_555 1_555
H54 C61 1_555 1_555
H55 C61 1_555 1_555
C7 C8 1_555 1_555
C10 C18 1_555 1_555
C16 C17 1_555 1_555
C17 C18 1_555 1_555
C23 C24 1_555 1_555
C29 C30 1_555 1_555
C35 C36 1_555 1_555
C37 C55 1_555 1_555
C38 C46 1_555 1_555
C44 C45 1_555 1_555
C45 C46 1_555 1_555
C51 C52 1_555 1_555
C57 C58 1_555 1_555

#END
