
#######################################################################
#
#                 Cambridge Crystallographic Data Centre
#                                CCDC 
#
#######################################################################
#
# If this CIF has been generated from an entry in the Cambridge 
# Structural Database, then it will include bibliographic, chemical, 
# crystal, experimental, refinement or atomic coordinate data resulting 
# from the CCDC's data processing and validation procedures.
#
#######################################################################

data_CEWBAJ
_chemical_formula_moiety         'C18 H9 Cl1 N2 O4'
_chemical_name_systematic        
(3-Chloro-1,4-dioxo-1,4-dihydronaphthalen-2-yl)(2-nitrophenyl)acetonitrile
_symmetry_cell_setting           triclinic
_symmetry_space_group_name_H-M   'P -1'
_symmetry_Int_Tables_number      2
_space_group_name_Hall           '-P 1'
loop_
_symmetry_equiv_pos_site_id
_symmetry_equiv_pos_as_xyz
1 x,y,z
2 -x,-y,-z
_cell_length_a                   7.6788(4)
_cell_length_b                   8.7641(4)
_cell_length_c                   11.9364(6)
_cell_angle_alpha                92.082(4)
_cell_angle_beta                 93.645(4)
_cell_angle_gamma                110.502(5)
_cell_volume                     749.414
_exptl_crystal_colour            brown
_exptl_crystal_description       plate
_cell_formula_units_Z            2
loop_
_atom_site_label
_atom_site_type_symbol
_atom_site_fract_x
_atom_site_fract_y
_atom_site_fract_z
N1 N 0.1570(2) 0.72394(18) 0.58608(13)
C1 C 0.2761(2) 0.68641(18) 0.62162(13)
C2 C 0.4388(2) 0.64661(18) 0.66544(13)
H1 H 0.546 0.7123 0.6236
C3 C 0.4731(2) 0.70052(19) 0.99660(13)
O1 O 0.40331(17) 0.62180(15) 1.07449(10)
C4 C 0.4064(2) 0.63597(18) 0.87715(14)
Cl1 Cl 0.21805(6) 0.45772(5) 0.86346(4)
C5 C 0.4876(2) 0.71108(17) 0.78837(13)
C6 C 0.6296(2) 0.87939(18) 0.80448(14)
O2 O 0.68281(18) 0.95704(14) 0.72238(10)
C7 C 0.6983(2) 0.94946(18) 0.92099(13)
C8 C 0.8361(2) 1.10364(19) 0.93796(14)
H2 H 0.8824 1.165 0.8754
C9 C 0.9057(2) 1.1677(2) 1.04632(15)
H3 H 0.9998 1.2728 1.0579
C10 C 0.8378(2) 1.0781(2) 1.13822(15)
H4 H 0.8876 1.1216 1.2122
C11 C 0.6981(2) 0.9261(2) 1.12231(14)
H5 H 0.6506 0.8664 1.1853
C12 C 0.6270(2) 0.86051(18) 1.01316(13)
C13 C 0.4117(2) 0.46796(18) 0.63754(13)
C14 C 0.5510(2) 0.3997(2) 0.65388(13)
N2 N 0.7395(2) 0.49538(19) 0.70442(12)
O3 O 0.77878(17) 0.64177(16) 0.72664(11)
O4 O 0.8491(2) 0.42447(19) 0.72084(14)
C15 C 0.5206(3) 0.2370(2) 0.62162(14)
H6 H 0.6171 0.194 0.6349
C16 C 0.3498(3) 0.1391(2) 0.57043(15)
H7 H 0.328 0.0283 0.5483
C17 C 0.2105(3) 0.2032(2) 0.55152(16)
H8 H 0.0932 0.1367 0.5152
C18 C 0.2411(2) 0.3640(2) 0.58525(15)
H9 H 0.1428 0.405 0.5724
loop_
_geom_bond_atom_site_label_1
_geom_bond_atom_site_label_2
_geom_bond_site_symmetry_1
_geom_bond_site_symmetry_2
N1 C1 1_555 1_555
C1 C2 1_555 1_555
C2 H1 1_555 1_555
C3 O1 1_555 1_555
C4 C3 1_555 1_555
Cl1 C4 1_555 1_555
C5 C2 1_555 1_555
C6 C5 1_555 1_555
O2 C6 1_555 1_555
C7 C6 1_555 1_555
C8 C7 1_555 1_555
H2 C8 1_555 1_555
C9 C8 1_555 1_555
H3 C9 1_555 1_555
C10 C9 1_555 1_555
H4 C10 1_555 1_555
C11 C10 1_555 1_555
H5 C11 1_555 1_555
C12 C3 1_555 1_555
C13 C2 1_555 1_555
C14 C13 1_555 1_555
N2 C14 1_555 1_555
O3 N2 1_555 1_555
O4 N2 1_555 1_555
C15 C14 1_555 1_555
H6 C15 1_555 1_555
C16 C15 1_555 1_555
H7 C16 1_555 1_555
C17 C16 1_555 1_555
H8 C17 1_555 1_555
C18 C13 1_555 1_555
H9 C18 1_555 1_555
C4 C5 1_555 1_555
C7 C12 1_555 1_555
C11 C12 1_555 1_555
C17 C18 1_555 1_555

#END
