
#######################################################################
#
#                 Cambridge Crystallographic Data Centre
#                                CCDC 
#
#######################################################################
#
# If this CIF has been generated from an entry in the Cambridge 
# Structural Database, then it will include bibliographic, chemical, 
# crystal, experimental, refinement or atomic coordinate data resulting 
# from the CCDC's data processing and validation procedures.
#
#######################################################################

data_CEWCIQ10
_chemical_formula_moiety         'C38 H48 N8 O8,6(H2 O1)'
_chemical_name_systematic        
'cyclo-bis(D-Alanyl-glycyl-L-prolyl-L-phenylalanine) hexahydrate'
_symmetry_cell_setting           orthorhombic
_symmetry_space_group_name_H-M   'P 21 21 21'
_symmetry_Int_Tables_number      19
_space_group_name_Hall           'P 2ac 2ab'
loop_
_symmetry_equiv_pos_site_id
_symmetry_equiv_pos_as_xyz
1 x,y,z
2 1/2+x,1/2-y,-z
3 -x,1/2+y,1/2-z
4 1/2-x,-y,1/2+z
_cell_length_a                   32.166(2)
_cell_length_b                   16.896(2)
_cell_length_c                   8.156(1)
_cell_angle_alpha                90
_cell_angle_beta                 90
_cell_angle_gamma                90
_cell_volume                     4432.6
_cell_formula_units_Z            4
loop_
_atom_site_label
_atom_site_type_symbol
_atom_site_fract_x
_atom_site_fract_y
_atom_site_fract_z
N1 N 0.9704(1) 0.0195(2) 0.8292(6)
C1 C 0.9856(2) -0.0600(3) 0.7927(7)
C2 C 0.9978(2) -0.0651(4) 0.6162(9)
C3 C 0.9526(2) -0.1207(3) 0.8343(7)
O1 O 0.91544(9) -0.1033(2) 0.8487(5)
N2 N 0.9665(1) -0.1938(3) 0.8537(7)
C4 C 0.9388(2) -0.2607(3) 0.8812(8)
C5 C 0.9241(2) -0.2967(3) 0.7215(8)
O2 O 0.9308(1) -0.2666(2) 0.5881(5)
N3 N 0.9024(1) -0.3652(2) 0.7371(6)
C6 C 0.8940(2) -0.4131(3) 0.5907(9)
C7 C 0.8833(2) -0.4938(3) 0.661(1)
C8 C 0.8660(3) -0.4766(4) 0.822(1)
C9 C 0.8923(2) -0.4067(4) 0.889(1)
C10 C 0.8598(2) -0.3809(3) 0.4787(8)
O3 O 0.8557(1) -0.4081(2) 0.3411(6)
N4 N 0.8354(1) -0.3236(2) 0.5418(6)
C11 C 0.8022(1) -0.2895(3) 0.4457(7)
C12 C 0.7662(2) -0.2637(3) 0.5598(8)
C13 C 0.7513(2) -0.3294(3) 0.6716(8)
C14 C 0.7300(2) -0.3944(3) 0.6106(9)
C15 C 0.7157(2) -0.4536(4) 0.718(1)
C16 C 0.7230(2) -0.4484(4) 0.881(1)
C17 C 0.7439(3) -0.3858(5) 0.940(1)
C18 C 0.7583(2) -0.3253(4) 0.8368(9)
C19 C 0.8158(2) -0.2183(3) 0.3472(7)
O4 O 0.7905(1) -0.1812(2) 0.2641(5)
N5 N 0.8557(1) -0.1958(2) 0.3576(5)
C20 C 0.8706(2) -0.1255(3) 0.2729(6)
C21 C 0.9182(2) -0.1242(3) 0.2778(8)
C22 C 0.8534(2) -0.0496(3) 0.3459(6)
O5 O 0.8483(1) 0.0092(3) 0.2594(5)
N6 N 0.8452(1) -0.0482(2) 0.5066(5)
C23 C 0.8336(2) 0.0257(3) 0.5850(6)
C24 C 0.8711(1) 0.0816(3) 0.5958(6)
O6 O 0.9064(1) 0.0613(2) 0.5607(5)
N7 N 0.8620(1) 0.1552(2) 0.6495(5)
C25 C 0.8939(2) 0.2182(3) 0.6461(6)
C26 C 0.8684(2) 0.2922(3) 0.6861(9)
C27 C 0.8295(2) 0.2630(3) 0.763(1)
C28 C 0.8210(2) 0.1848(3) 0.6950(8)
C29 C 0.9289(2) 0.2076(3) 0.7622(7)
O7 O 0.9592(1) 0.2514(3) 0.7475(7)
N8 N 0.9265(1) 0.1538(2) 0.8802(5)
C30 C 0.9599(2) 0.1383(3) 0.9968(7)
C31 C 0.9451(2) 0.1471(3) 1.1763(7)
C32 C 0.9312(2) 0.2295(3) 1.2074(6)
C33 C 0.9594(2) 0.2880(4) 1.2426(9)
C34 C 0.9473(3) 0.3664(4) 1.269(1)
C35 C 0.9050(3) 0.3844(5) 1.260(1)
C36 C 0.8781(2) 0.3254(5) 1.227(1)
C37 C 0.8895(2) 0.2497(4) 1.2018(8)
C38 C 0.9795(2) 0.0569(3) 0.9692(7)
O8 O 1.0036(1) 0.0292(3) 1.0703(6)
H1 H 0.9534 0.0459 0.7493
H2 H 1.0078 -0.0820 0.8886
H3 H 1.0078 -0.1250 0.5839
H4 H 1.0156 -0.0273 0.5820
H5 H 0.9785 -0.0566 0.5292
H6 H 1.000 -0.2089 0.8339
H7 H 0.9101 -0.2363 0.9453
H8 H 0.9550 -0.3066 0.9453
H9 H 0.9179 -0.4148 0.5155
H10 H 0.8632 -0.5273 0.5839
H11 H 0.9179 -0.5156 0.6406
H12 H 0.8632 -0.5273 0.8906
H13 H 0.8339 -0.4453 0.8339
H14 H 0.9257 -0.4179 0.9453
H15 H 0.8730 -0.3613 0.9453
H16 H 0.8496 -0.3066 0.6406
H17 H 0.7890 -0.3339 0.3613
H18 H 0.7734 -0.2089 0.6406
H19 H 0.7441 -0.2363 0.4726
H20 H 0.7248 -0.3990 0.4924
H21 H 0.7001 -0.4982 0.6762
H22 H 0.7050 -0.4863 0.9726
H23 H 0.7489 -0.3831 1.0605
H24 H 0.7743 -0.2808 0.8872
H25 H 0.8789 -0.2226 0.4179
H26 H 0.8652 -0.1250 0.1406
H27 H 0.9257 -0.1250 0.4179
H28 H 0.9335 -0.1816 0.2226
H29 H 0.9335 -0.0703 0.2500
H30 H 0.8496 -0.0976 0.5839
H31 H 0.8105 0.0566 0.5292
H32 H 0.8261 0.0136 0.6953
H33 H 0.9003 0.2226 0.5293
H34 H 0.8769 0.3476 0.6953
H35 H 0.8632 0.3203 0.5566
H36 H 0.8372 0.2938 0.8619
H37 H 0.8105 0.3066 0.7793
H38 H 0.8027 0.1543 0.7792
H39 H 0.8027 0.1953 0.6113
H40 H 0.9003 0.1250 0.8906
H41 H 0.9843 0.1816 0.9453
H42 H 0.9160 0.1113 1.1953
H43 H 0.9687 0.1250 1.2500
H44 H 0.9892 0.2742 1.2513
H45 H 0.9672 0.4097 1.2846
H46 H 0.8925 0.4453 1.2792
H47 H 0.8475 0.3391 1.2219
H48 H 0.8710 0.1953 1.1679
O9 O 0.7607(2) 0.0479(3) 0.9406(8)
O10 O 0.7781(1) -0.1127(2) 0.9494(5)
H49 H 0.7656 -0.0566 0.9454
H50 H 0.7812 -0.1250 1.0839
O11 O 0.8695(1) 0.0277(2) 0.9412(4)
H51 H 0.8867 -0.0156 0.9180
H52 H 0.8632 0.0293 1.0566
O12 O 0.8436(1) -0.1791(2) 0.7667(5)
H53 H 0.8730 -0.1679 0.8339
H54 H 0.8496 -0.2089 0.8613
O13 O 0.7096(2) -0.1257(3) 0.7128(8)
O14 O 0.0524(4) 0.1183(8) 0.281(2)
H55 H 0.0527 0.1660 0.2500
H56 H 0.0527 0.0820 0.3320
loop_
_geom_bond_atom_site_label_1
_geom_bond_atom_site_label_2
_geom_bond_site_symmetry_1
_geom_bond_site_symmetry_2
N1 C1 1_555 1_555
C1 C2 1_555 1_555
C2 H3 1_555 1_555
C3 C1 1_555 1_555
O1 C3 1_555 1_555
N2 C3 1_555 1_555
C4 N2 1_555 1_555
C5 C4 1_555 1_555
O2 C5 1_555 1_555
N3 C5 1_555 1_555
C6 N3 1_555 1_555
C7 C6 1_555 1_555
C8 C7 1_555 1_555
C9 N3 1_555 1_555
C10 C6 1_555 1_555
O3 C10 1_555 1_555
N4 C10 1_555 1_555
C11 N4 1_555 1_555
C12 C11 1_555 1_555
C13 C12 1_555 1_555
C14 C13 1_555 1_555
C15 C14 1_555 1_555
C16 C15 1_555 1_555
C17 C16 1_555 1_555
C18 C13 1_555 1_555
C19 C11 1_555 1_555
O4 C19 1_555 1_555
N5 C19 1_555 1_555
C20 N5 1_555 1_555
C21 C20 1_555 1_555
C22 C20 1_555 1_555
O5 C22 1_555 1_555
N6 C22 1_555 1_555
C23 N6 1_555 1_555
C24 C23 1_555 1_555
O6 C24 1_555 1_555
N7 C24 1_555 1_555
C25 N7 1_555 1_555
C26 C25 1_555 1_555
C27 C26 1_555 1_555
C28 N7 1_555 1_555
C29 C25 1_555 1_555
O7 C29 1_555 1_555
N8 C29 1_555 1_555
C30 N8 1_555 1_555
C31 C30 1_555 1_555
C32 C31 1_555 1_555
C33 C32 1_555 1_555
C34 C33 1_555 1_555
C35 C34 1_555 1_555
C36 C35 1_555 1_555
C37 C32 1_555 1_555
C38 N1 1_555 1_555
O8 C38 1_555 1_555
O10 H49 1_555 1_555
O11 H51 1_555 1_555
O12 H53 1_555 1_555
O14 H55 1_555 1_555
H1 N1 1_555 1_555
H2 C1 1_555 1_555
H4 C2 1_555 1_555
H5 C2 1_555 1_555
H6 N2 1_555 1_555
H7 C4 1_555 1_555
H8 C4 1_555 1_555
H9 C6 1_555 1_555
H10 C7 1_555 1_555
H11 C7 1_555 1_555
H12 C8 1_555 1_555
H13 C8 1_555 1_555
H14 C9 1_555 1_555
H15 C9 1_555 1_555
H16 N4 1_555 1_555
H17 C11 1_555 1_555
H18 C12 1_555 1_555
H19 C12 1_555 1_555
H20 C14 1_555 1_555
H21 C15 1_555 1_555
H22 C16 1_555 1_555
H23 C17 1_555 1_555
H24 C18 1_555 1_555
H25 N5 1_555 1_555
H26 C20 1_555 1_555
H27 C21 1_555 1_555
H28 C21 1_555 1_555
H29 C21 1_555 1_555
H30 N6 1_555 1_555
H31 C23 1_555 1_555
H32 C23 1_555 1_555
H33 C25 1_555 1_555
H34 C26 1_555 1_555
H35 C26 1_555 1_555
H36 C27 1_555 1_555
H37 C27 1_555 1_555
H38 C28 1_555 1_555
H39 C28 1_555 1_555
H40 N8 1_555 1_555
H41 C30 1_555 1_555
H42 C31 1_555 1_555
H43 C31 1_555 1_555
H44 C33 1_555 1_555
H45 C34 1_555 1_555
H46 C35 1_555 1_555
H47 C36 1_555 1_555
H48 C37 1_555 1_555
H50 O10 1_555 1_555
H52 O11 1_555 1_555
H54 O12 1_555 1_555
H56 O14 1_555 1_555
C8 C9 1_555 1_555
C17 C18 1_555 1_555
C27 C28 1_555 1_555
C30 C38 1_555 1_555
C36 C37 1_555 1_555

#END
