
#######################################################################
#
#                 Cambridge Crystallographic Data Centre
#                                CCDC 
#
#######################################################################
#
# If this CIF has been generated from an entry in the Cambridge 
# Structural Database, then it will include bibliographic, chemical, 
# crystal, experimental, refinement or atomic coordinate data resulting 
# from the CCDC's data processing and validation procedures.
#
#######################################################################

data_CEWFIU
_chemical_formula_moiety         'C88 H80 O4,2(C7 H8)'
_chemical_name_systematic        
'5,11,17,23-tetrakis(2-Biphenyl)-25,26,27,28-tetra-n-propoxycalix(4)arene toluene clathrate toluene solvate'
_symmetry_cell_setting           monoclinic
_symmetry_space_group_name_H-M   'P 21'
_symmetry_Int_Tables_number      4
_space_group_name_Hall           'P 2yb'
loop_
_symmetry_equiv_pos_site_id
_symmetry_equiv_pos_as_xyz
1 x,y,z
2 -x,1/2+y,-z
_cell_length_a                   18.4007(19)
_cell_length_b                   23.644(3)
_cell_length_c                   19.1697(19)
_cell_angle_alpha                90
_cell_angle_beta                 105.871(9)
_cell_angle_gamma                90
_cell_volume                     8022.16
_exptl_crystal_colour            colorless
_exptl_crystal_description       prism
_chemical_melting_point          178-186deg.C
_cell_formula_units_Z            4
_exptl_crystal_recrystallization_method pentane/toluene
loop_
_atom_site_label
_atom_site_type_symbol
_atom_site_fract_x
_atom_site_fract_y
_atom_site_fract_z
O1 O 0.22997(18) 0.40518(13) 0.57600(18)
O2 O 0.38525(17) 0.42337(13) 0.68001(18)
O3 O 0.36322(18) 0.39714(14) 0.49617(19)
O4 O 0.21147(18) 0.41052(13) 0.38726(18)
C1 C 0.1152(2) 0.35210(19) 0.5400(3)
C2 C 0.1778(2) 0.36978(19) 0.5953(3)
C3 C 0.1921(2) 0.3504(2) 0.6663(3)
C4 C 0.1387(3) 0.3153(2) 0.6838(3)
C5 C 0.0726(3) 0.2994(2) 0.6305(3)
C6 C 0.0625(3) 0.3179(2) 0.5607(3)
C7 C 0.2666(2) 0.3635(2) 0.7215(3)
C8 C 0.0121(3) 0.2655(2) 0.6490(3)
C9 C -0.0608(3) 0.2915(2) 0.6326(3)
C10 C -0.1213(3) 0.2640(3) 0.6455(3)
C11 C -0.1125(3) 0.2101(3) 0.6736(4)
C12 C -0.0414(3) 0.1835(3) 0.6917(3)
C13 C 0.0215(3) 0.2115(2) 0.6787(3)
C14 C 0.0949(3) 0.1804(2) 0.6978(3)
C15 C 0.1196(3) 0.1523(2) 0.7641(3)
C16 C 0.1842(3) 0.1210(2) 0.7818(3)
C17 C 0.2275(3) 0.1171(2) 0.7337(3)
C18 C 0.2053(3) 0.1446(2) 0.6680(3)
C19 C 0.1387(3) 0.1756(2) 0.6488(3)
C20 C 0.2260(3) 0.4635(2) 0.5953(3)
C21 C 0.1712(3) 0.4978(3) 0.5398(4)
C22 C 0.1827(4) 0.5603(3) 0.5565(4)
C23 C 0.3310(2) 0.3339(2) 0.7003(2)
C24 C 0.3845(2) 0.3648(2) 0.6762(3)
C25 C 0.4377(2) 0.3371(2) 0.6482(3)
C26 C 0.4404(3) 0.2791(2) 0.6505(3)
C27 C 0.3924(3) 0.2473(2) 0.6799(3)
C28 C 0.3358(2) 0.2762(2) 0.7026(2)
C29 C 0.4910(3) 0.3707(2) 0.6149(3)
C30 C 0.4045(3) 0.1857(2) 0.6907(3)
C31 C 0.4002(3) 0.1504(2) 0.6316(3)
C32 C 0.4107(3) 0.0937(2) 0.6387(3)
C33 C 0.4272(3) 0.0696(2) 0.7067(3)
C34 C 0.4326(3) 0.1031(2) 0.7673(3)
C35 C 0.4208(2) 0.1617(2) 0.7609(3)
C36 C 0.4266(3) 0.1960(2) 0.8271(3)
C37 C 0.3893(3) 0.1789(2) 0.8783(3)
C38 C 0.3957(3) 0.2099(2) 0.9405(3)
C39 C 0.4395(3) 0.2575(2) 0.9546(3)
C40 C 0.4767(3) 0.2756(2) 0.9052(3)
C41 C 0.4704(3) 0.2452(2) 0.8422(3)
C42 C 0.4377(3) 0.4436(2) 0.7453(3)
C43 C 0.4484(3) 0.5058(2) 0.7383(3)
C44 C 0.5023(3) 0.5295(2) 0.8070(3)
C45 C 0.4834(3) 0.35109(19) 0.5387(3)
C46 C 0.4179(3) 0.3630(2) 0.4815(3)
C47 C 0.4054(2) 0.33794(19) 0.4145(3)
C48 C 0.4618(3) 0.30306(19) 0.4010(3)
C49 C 0.5295(3) 0.2934(2) 0.4544(3)
C50 C 0.5381(3) 0.31778(19) 0.5234(3)
C51 C 0.3311(3) 0.3452(2) 0.3561(3)
C52 C 0.5918(3) 0.2584(2) 0.4412(3)
C53 C 0.6644(3) 0.2816(2) 0.4598(3)
C54 C 0.7262(3) 0.2521(3) 0.4483(3)
C55 C 0.7145(3) 0.1993(3) 0.4168(3)
C56 C 0.6429(3) 0.1753(2) 0.3988(3)
C57 C 0.5807(3) 0.2042(2) 0.4114(3)
C58 C 0.5069(3) 0.17416(19) 0.3940(3)
C59 C 0.4766(3) 0.1498(2) 0.3273(3)
C60 C 0.4097(3) 0.1199(2) 0.3118(3)
C61 C 0.3720(3) 0.1135(2) 0.3648(3)
C62 C 0.4004(3) 0.1379(2) 0.4317(3)
C63 C 0.4673(3) 0.1685(2) 0.4468(3)
C64 C 0.3664(5) 0.4539(4) 0.4824(6)
C65 C 0.4228(8) 0.4902(6) 0.4927(9)
C66 C 0.4173(5) 0.5497(4) 0.4699(5)
C67 C 0.2652(2) 0.3193(2) 0.3799(3)
C68 C 0.2119(2) 0.35304(19) 0.4001(3)
C69 C 0.1589(2) 0.3283(2) 0.4312(2)
C70 C 0.1559(2) 0.2710(2) 0.4352(3)
C71 C 0.2041(3) 0.2354(2) 0.4097(3)
C72 C 0.2605(3) 0.2613(2) 0.3848(3)
C73 C 0.1069(3) 0.3655(2) 0.4617(3)
C74 C 0.1951(3) 0.1732(2) 0.4104(3)
C75 C 0.2050(3) 0.1457(2) 0.4775(3)
C76 C 0.1988(4) 0.0880(3) 0.4827(4)
C77 C 0.1793(4) 0.0562(2) 0.4195(4)
C78 C 0.1686(3) 0.0824(2) 0.3534(3)
C79 C 0.1764(3) 0.1408(2) 0.3459(3)
C80 C 0.1657(3) 0.1657(2) 0.2731(3)
C81 C 0.1965(3) 0.1391(2) 0.2228(3)
C82 C 0.1883(3) 0.1607(3) 0.1545(3)
C83 C 0.1493(3) 0.2108(3) 0.1338(3)
C84 C 0.1178(3) 0.2385(2) 0.1827(3)
C85 C 0.1256(3) 0.2159(2) 0.2511(3)
C86 C 0.1617(3) 0.4255(3) 0.3181(3)
C87 C 0.1799(4) 0.4824(3) 0.2951(4)
C88 C 0.1738(6) 0.5280(3) 0.3406(5)
H1 H 0.1469 0.3023 0.7311
H2 H 0.0189 0.3073 0.5256
H3 H 0.2648 0.3508 0.7691
H4 H 0.2751 0.4041 0.7237
H5 H -0.0672 0.3277 0.6128
H6 H -0.1682 0.2817 0.6354
H7 H -0.1541 0.1910 0.6808
H8 H -0.0359 0.1476 0.7122
H9 H 0.0911 0.1551 0.7972
H10 H 0.1989 0.1023 0.8261
H11 H 0.2717 0.0959 0.7456
H12 H 0.2353 0.1425 0.6361
H13 H 0.1232 0.1931 0.6037
H14 H 0.2757 0.4802 0.6036
H15 H 0.2121 0.4655 0.6405
H16 H 0.1201 0.4872 0.5391
H17 H 0.1779 0.4901 0.4923
H18 H 0.1736 0.5681 0.6026
H19 H 0.1480 0.5817 0.5194
H20 H 0.2335 0.5706 0.5581
H21 H 0.4754 0.2605 0.6318
H22 H 0.3011 0.2556 0.7194
H23 H 0.4788 0.4107 0.6146
H24 H 0.5427 0.3657 0.6439
H25 H 0.3898 0.1662 0.5855
H26 H 0.4068 0.0712 0.5980
H27 H 0.4347 0.0307 0.7120
H28 H 0.4442 0.0865 0.8129
H29 H 0.3599 0.1463 0.8702
H30 H 0.3699 0.1983 0.9735
H31 H 0.4442 0.2775 0.9974
H32 H 0.5059 0.3083 0.9142
H33 H 0.4957 0.2576 0.8093
H34 H 0.4857 0.4242 0.7529
H35 H 0.4183 0.4360 0.7866
H36 H 0.4000 0.5248 0.7293
H37 H 0.4685 0.5130 0.6973
H38 H 0.4816 0.5235 0.8473
H39 H 0.5092 0.5693 0.8011
H40 H 0.5502 0.5106 0.8160
H41 H 0.4540 0.2861 0.3558
H42 H 0.5824 0.3110 0.5598
H43 H 0.3347 0.3270 0.3118
H44 H 0.3216 0.3851 0.3461
H45 H 0.6719 0.3175 0.4803
H46 H 0.7743 0.2679 0.4617
H47 H 0.7547 0.1796 0.4076
H48 H 0.6358 0.1395 0.3780
H49 H 0.5019 0.1537 0.2917
H50 H 0.3900 0.1041 0.2661
H51 H 0.3275 0.0927 0.3550
H52 H 0.3747 0.1339 0.4670
H53 H 0.4860 0.1853 0.4921
H54 H 0.3409 0.4574 0.4311
H55 H 0.3326 0.4709 0.5073
H56 H 0.4593 0.4731 0.4711
H57 H 0.4462 0.4906 0.5446
H58 H 0.4115 0.5517 0.4186
H59 H 0.4624 0.5694 0.4952
H60 H 0.3744 0.5668 0.4807
H61 H 0.1205 0.2546 0.4556
H62 H 0.2958 0.2388 0.3711
H63 H 0.1190 0.4049 0.4569
H64 H 0.0548 0.3594 0.4340
H65 H 0.2161 0.1673 0.5197
H66 H 0.2075 0.0706 0.5277
H67 H 0.1735 0.0173 0.4219
H68 H 0.1555 0.0603 0.3118
H69 H 0.2234 0.1057 0.2359
H70 H 0.2091 0.1416 0.1221
H71 H 0.1441 0.2258 0.0878
H72 H 0.0916 0.2722 0.1695
H73 H 0.1036 0.2344 0.2830
H74 H 0.1100 0.4251 0.3211
H75 H 0.1662 0.3978 0.2822
H76 H 0.2312 0.4816 0.2908
H77 H 0.1467 0.4898 0.2472
H78 H 0.1239 0.5286 0.3472
H79 H 0.1830 0.5628 0.3188
H80 H 0.2103 0.5235 0.3868
O5 O 0.84269(17) 0.01411(13) 0.98370(18)
O6 O 0.85274(18) 0.00028(13) 1.17851(18)
O7 O 0.70349(17) 0.02994(13) 1.07965(18)
O8 O 0.68415(17) 0.01919(13) 0.88816(18)
C89 C 0.8817(2) 0.08416(19) 0.9108(3)
C90 C 0.8947(2) 0.05404(19) 0.9761(3)
C91 C 0.9568(2) 0.06580(19) 1.0344(3)
C92 C 1.0117(2) 0.1022(2) 1.0224(3)
C93 C 1.0042(3) 0.12915(19) 0.9574(3)
C94 C 0.9375(2) 0.12092(19) 0.9016(3)
C95 C 0.9625(3) 0.0428(2) 1.1096(3)
C96 C 1.0678(2) 0.1650(2) 0.9468(3)
C97 C 1.1396(3) 0.1388(2) 0.9632(3)
C98 C 1.2021(3) 0.1694(2) 0.9566(3)
C99 C 1.1945(3) 0.2239(2) 0.9331(3)
C100 C 1.1248(3) 0.2498(2) 0.9162(3)
C101 C 1.0603(3) 0.2208(2) 0.9226(3)
C102 C 0.9877(3) 0.2528(2) 0.9063(3)
C103 C 0.9451(3) 0.2557(2) 0.9566(3)
C104 C 0.8803(3) 0.2885(2) 0.9423(3)
C105 C 0.8566(3) 0.3178(2) 0.8784(3)
C106 C 0.8974(3) 0.3152(2) 0.8286(3)
C107 C 0.9628(3) 0.2824(2) 0.8425(3)
C108 C 0.8474(3) -0.0383(2) 0.9464(3)
C109 C 0.9010(3) -0.0807(2) 0.9914(3)
C110 C 0.9039(4) -0.1336(2) 0.9482(4)
C111 C 0.9189(2) 0.0806(2) 1.1482(3)
C112 C 0.8624(2) 0.0578(2) 1.1774(3)
C113 C 0.8163(2) 0.0944(2) 1.2045(3)
C114 C 0.8333(3) 0.1508(2) 1.2112(3)
C115 C 0.8939(3) 0.1737(2) 1.1893(3)
C116 C 0.9327(3) 0.1376(2) 1.1550(3)
C117 C 0.7460(2) 0.0729(2) 1.2237(3)
C118 C 0.9166(3) 0.2342(2) 1.2024(3)
C119 C 0.9136(3) 0.2685(2) 1.1425(3)
C120 C 0.9350(3) 0.3244(2) 1.1507(4)
C121 C 0.9592(3) 0.3469(2) 1.2198(4)
C122 C 0.9408(3) 0.2569(2) 1.2714(3)
C123 C 0.9623(3) 0.3136(3) 1.2783(4)
C124 C 0.9485(3) 0.2230(2) 1.3388(3)
C125 C 0.9191(3) 0.2423(3) 1.3944(4)
C126 C 0.9311(4) 0.2116(3) 1.4594(3)
C127 C 0.9714(4) 0.1628(3) 1.4695(4)
C128 C 0.9997(3) 0.1427(3) 1.4154(3)
C129 C 0.9883(3) 0.1719(2) 1.3507(3)
C130 C 0.8856(3) -0.0240(3) 1.2494(3)
C131 C 0.9687(3) -0.0294(3) 1.2706(4)
C132 C 0.9983(4) -0.0457(3) 1.3502(4)
C133 C 0.6745(2) 0.09286(19) 1.1663(3)
C134 C 0.6570(2) 0.07028(18) 1.0969(3)
C135 C 0.5959(2) 0.09032(19) 1.0423(2)
C136 C 0.5496(2) 0.13065(19) 1.0600(3)
C137 C 0.5643(2) 0.15329(19) 1.1300(3)
C138 C 0.6287(2) 0.1347(2) 1.1825(3)
C139 C 0.5852(2) 0.07162(19) 0.9645(2)
C140 C 0.5105(2) 0.1945(2) 1.1469(3)
C141 C 0.4338(3) 0.1798(2) 1.1291(3)
C142 C 0.3802(3) 0.2154(2) 1.1453(3)
C143 C 0.4017(3) 0.2650(3) 1.1805(3)
C144 C 0.4782(3) 0.2810(2) 1.1984(3)
C145 C 0.5331(3) 0.2465(2) 1.1813(3)
C146 C 0.6112(3) 0.2695(2) 1.1971(3)
C147 C 0.6471(3) 0.2921(2) 1.2641(3)
C148 C 0.7173(3) 0.3170(3) 1.2771(3)
C149 C 0.7534(3) 0.3190(2) 1.2226(3)
C150 C 0.7182(3) 0.2966(2) 1.1555(3)
C151 C 0.6486(3) 0.2718(2) 1.1424(3)
C152 C 0.6806(3) -0.0272(2) 1.0880(3)
C153 C 0.7205(3) -0.0649(2) 1.0472(3)
C154 C 0.7061(5) -0.1268(3) 1.0545(5)
C155 C 0.6390(2) 0.10446(19) 0.9308(2)
C156 C 0.6893(2) 0.07706(19) 0.9000(3)
C157 C 0.7447(2) 0.1082(2) 0.8784(3)
C158 C 0.7424(2) 0.1661(2) 0.8798(3)
C159 C 0.6869(2) 0.19495(19) 0.9033(3)
C160 C 0.6387(2) 0.16296(19) 0.9321(3)
C161 C 0.8066(2) 0.0790(2) 0.8529(3)
C162 C 0.6754(2) 0.25684(19) 0.8945(3)
C163 C 0.6773(3) 0.2906(2) 0.9534(3)
C164 C 0.6642(3) 0.3480(2) 0.9482(3)
C165 C 0.6483(3) 0.3733(2) 0.8799(3)
C166 C 0.6466(3) 0.3405(2) 0.8200(3)
C167 C 0.6587(2) 0.2824(2) 0.8247(3)
C168 C 0.6532(3) 0.2489(2) 0.7574(3)
C169 C 0.6907(3) 0.2669(2) 0.7065(3)
C170 C 0.6850(3) 0.2365(3) 0.6446(3)
C171 C 0.6429(3) 0.1873(3) 0.6295(3)
C172 C 0.6048(3) 0.1696(2) 0.6792(3)
C173 C 0.6107(3) 0.1994(2) 0.7421(3)
C174 C 0.6259(3) 0.0059(2) 0.8235(3)
C175 C 0.6269(3) -0.0556(2) 0.8071(3)
C176 C 0.5647(3) -0.0708(3) 0.7395(3)
H81 H 1.0552 0.1085 1.0599
H82 H 0.9305 0.1402 0.8580
H83 H 1.0151 0.0410 1.1374
H84 H 0.9419 0.0047 1.1057
H85 H 1.1451 0.1013 0.9783
H86 H 1.2494 0.1523 0.9683
H87 H 1.2366 0.2438 0.9285
H88 H 1.1204 0.2871 0.9003
H89 H 0.9604 0.2356 0.9999
H90 H 0.8526 0.2905 0.9762
H91 H 0.8129 0.3395 0.8689
H92 H 0.8815 0.3354 0.7855
H93 H 0.9898 0.2805 0.8081
H94 H 0.8634 -0.0299 0.9033
H95 H 0.7975 -0.0550 0.9308
H96 H 0.8846 -0.0903 1.0340
H97 H 0.9511 -0.0643 1.0076
H98 H 0.8545 -0.1504 0.9335
H99 H 0.9389 -0.1599 0.9776
H100 H 0.9199 -0.1241 0.9061
H101 H 0.8039 0.1747 1.2308
H102 H 0.9698 0.1527 1.1359
H103 H 0.7454 0.0870 1.2710
H104 H 0.7468 0.0319 1.2257
H105 H 0.8969 0.2533 1.0961
H106 H 0.9331 0.3468 1.1104
H107 H 0.9734 0.3847 1.2262
H108 H 0.9794 0.3292 1.3245
H109 H 0.8914 0.2757 1.3884
H110 H 0.9110 0.2248 1.4959
H111 H 0.9798 0.1432 1.5130
H112 H 1.0269 0.1091 1.4222
H113 H 1.0074 0.1571 1.3144
H114 H 0.8640 -0.0613 1.2508
H115 H 0.8712 -0.0009 1.2853
H116 H 0.9910 0.0063 1.2623
H117 H 0.9834 -0.0579 1.2408
H118 H 0.9902 -0.0150 1.3800
H119 H 1.0514 -0.0537 1.3612
H120 H 0.9720 -0.0786 1.3596
H121 H 0.5074 0.1431 1.0244
H122 H 0.6410 0.1506 1.2286
H123 H 0.5333 0.0783 0.9367
H124 H 0.5952 0.0314 0.9632
H125 H 0.4183 0.1455 1.1060
H126 H 0.3295 0.2051 1.1319
H127 H 0.3662 0.2883 1.1926
H128 H 0.4928 0.3151 1.2222
H129 H 0.6234 0.2904 1.3011
H130 H 0.7403 0.3325 1.3224
H131 H 0.8011 0.3353 1.2312
H132 H 0.7421 0.2983 1.1186
H133 H 0.6260 0.2564 1.0970
H134 H 0.6263 -0.0310 1.0686
H135 H 0.6943 -0.0376 1.1389
H136 H 0.7045 -0.0547 0.9962
H137 H 0.7744 -0.0580 1.0645
H138 H 0.6528 -0.1333 1.0445
H139 H 0.7308 -0.1390 1.1029
H140 H 0.7256 -0.1478 1.0207
H141 H 0.7785 0.1867 0.8647
H142 H 0.6052 0.1815 0.9530
H143 H 0.7940 0.0394 0.8434
H144 H 0.8107 0.0963 0.8082
H145 H 0.6878 0.2739 0.9990
H146 H 0.6659 0.3694 0.9893
H147 H 0.6390 0.4119 0.8749
H148 H 0.6369 0.3579 0.7748
H149 H 0.7196 0.2998 0.7151
H150 H 0.7103 0.2492 0.6117
H151 H 0.6400 0.1668 0.5875
H152 H 0.5751 0.1372 0.6697
H153 H 0.5858 0.1862 0.7751
H154 H 0.6335 0.0276 0.7832
H155 H 0.5770 0.0161 0.8300
H156 H 0.6203 -0.0772 0.8480
H157 H 0.6755 -0.0655 0.8000
H158 H 0.5164 -0.0657 0.7487
H159 H 0.5702 -0.1096 0.7270
H160 H 0.5681 -0.0468 0.7002
C177 C 0.9689(4) 0.5185(3) 1.2093(5)
C178 C 0.9184(2) 0.49074(17) 1.1443(2)
C179 C 0.8495(2) 0.46782(19) 1.1462(2)
C180 C 0.80393(17) 0.44104(19) 1.0853(2)
C181 C 0.8274(2) 0.4372(2) 1.0224(2)
C182 C 0.8964(2) 0.4601(2) 1.02045(19)
C183 C 0.94190(17) 0.48687(18) 1.0814(2)
H161 H 1.0054 0.4916 1.2355
H162 H 0.9393 0.5321 1.2401
H163 H 0.9945 0.5497 1.1944
H164 H 0.8338 0.4704 1.1883
H165 H 0.7578 0.4257 1.0866
H166 H 0.7969 0.4192 0.9816
H167 H 0.9121 0.4575 0.9784
H168 H 0.9881 0.5022 1.0801
C184 C 0.3574(5) 0.0430(3) 1.9874(5)
C185 C 0.3892(2) -0.00178(17) 1.9495(3)
C186 C 0.4457(3) -0.0368(2) 1.9902(2)
C187 C 0.4740(3) -0.08047(19) 1.9567(4)
C188 C 0.4458(4) -0.0891(2) 1.8825(4)
C189 C 0.3893(4) -0.0540(3) 1.8418(3)
C190 C 0.3610(3) -0.0104(3) 1.8753(2)
H169 H 0.3882 0.0764 1.9924
H170 H 0.3568 0.0298 2.0345
H171 H 0.3069 0.0518 1.9596
H172 H 0.4646 -0.0311 2.0399
H173 H 0.5118 -0.1039 1.9839
H174 H 0.4647 -0.1183 1.8600
H175 H 0.3704 -0.0598 1.7921
H176 H 0.3232 0.0131 1.8481
C191 C 0.6828(10) 0.4348(8) 1.6173(9)
C192 C 0.7196(4) 0.4495(3) 1.6859(3)
C193 C 0.6798(3) 0.4784(3) 1.7268(4)
C194 C 0.7167(4) 0.4969(3) 1.7963(4)
C195 C 0.7935(4) 0.4865(4) 1.8249(3)
C196 C 0.8333(3) 0.4576(3) 1.7840(4)
C197 C 0.7964(4) 0.4391(3) 1.7145(4)
H177 H 0.6499 0.4034 1.6182
H178 H 0.7188 0.4241 1.5917
H179 H 0.6535 0.4663 1.5933
H180 H 0.6284 0.4854 1.7077
H181 H 0.6900 0.5162 1.8237
H182 H 0.8181 0.4988 1.8714
H183 H 0.8846 0.4506 1.8032
H184 H 0.8230 0.4198 1.6872
C198 C 0.6822(9) 0.4387(8) 1.4027(10)
C199 C 0.7577(3) 0.4399(3) 1.4106(4)
C200 C 0.7770(4) 0.4801(3) 1.3657(4)
C201 C 0.8524(5) 0.4888(3) 1.3684(4)
C202 C 0.9085(3) 0.4574(4) 1.4158(5)
C203 C 0.8892(4) 0.4172(3) 1.4607(4)
C204 C 0.8138(4) 0.4085(3) 1.4580(4)
H185 H 0.6567 0.4609 1.3614
H186 H 0.6718 0.4538 1.4455
H187 H 0.6645 0.4003 1.3958
H188 H 0.7394 0.5011 1.3340
H189 H 0.8653 0.5156 1.3384
H190 H 0.9590 0.4632 1.4176
H191 H 0.9268 0.3962 1.4924
H192 H 0.8009 0.3816 1.4880
loop_
_geom_bond_atom_site_label_1
_geom_bond_atom_site_label_2
_geom_bond_site_symmetry_1
_geom_bond_site_symmetry_2
O1 C2 1_555 1_555
O2 C24 1_555 1_555
O3 C46 1_555 1_555
O4 C68 1_555 1_555
C1 C2 1_555 1_555
C2 C3 1_555 1_555
C3 C4 1_555 1_555
C4 C5 1_555 1_555
C5 C6 1_555 1_555
C6 C1 1_555 1_555
C7 C3 1_555 1_555
C8 C5 1_555 1_555
C9 C8 1_555 1_555
C10 C9 1_555 1_555
C11 C10 1_555 1_555
C12 C11 1_555 1_555
C13 C8 1_555 1_555
C14 C13 1_555 1_555
C15 C14 1_555 1_555
C16 C15 1_555 1_555
C17 C16 1_555 1_555
C18 C17 1_555 1_555
C19 C14 1_555 1_555
C20 O1 1_555 1_555
C21 C20 1_555 1_555
C22 C21 1_555 1_555
C23 C7 1_555 1_555
C24 C23 1_555 1_555
C25 C24 1_555 1_555
C26 C25 1_555 1_555
C27 C26 1_555 1_555
C28 C23 1_555 1_555
C29 C25 1_555 1_555
C30 C27 1_555 1_555
C31 C30 1_555 1_555
C32 C31 1_555 1_555
C33 C32 1_555 1_555
C34 C33 1_555 1_555
C35 C30 1_555 1_555
C36 C35 1_555 1_555
C37 C36 1_555 1_555
C38 C37 1_555 1_555
C39 C38 1_555 1_555
C40 C39 1_555 1_555
C41 C36 1_555 1_555
C42 O2 1_555 1_555
C43 C42 1_555 1_555
C44 C43 1_555 1_555
C45 C29 1_555 1_555
C46 C45 1_555 1_555
C47 C46 1_555 1_555
C48 C47 1_555 1_555
C49 C48 1_555 1_555
C50 C45 1_555 1_555
C51 C47 1_555 1_555
C52 C49 1_555 1_555
C53 C52 1_555 1_555
C54 C53 1_555 1_555
C55 C54 1_555 1_555
C56 C55 1_555 1_555
C57 C52 1_555 1_555
C58 C57 1_555 1_555
C59 C58 1_555 1_555
C60 C59 1_555 1_555
C61 C60 1_555 1_555
C62 C61 1_555 1_555
C63 C58 1_555 1_555
C64 O3 1_555 1_555
C65 C64 1_555 1_555
C66 C65 1_555 1_555
C67 C51 1_555 1_555
C68 C67 1_555 1_555
C69 C68 1_555 1_555
C70 C69 1_555 1_555
C71 C70 1_555 1_555
C72 C67 1_555 1_555
C73 C1 1_555 1_555
C74 C71 1_555 1_555
C75 C74 1_555 1_555
C76 C75 1_555 1_555
C77 C76 1_555 1_555
C78 C77 1_555 1_555
C79 C74 1_555 1_555
C80 C79 1_555 1_555
C81 C80 1_555 1_555
C82 C81 1_555 1_555
C83 C82 1_555 1_555
C84 C83 1_555 1_555
C85 C80 1_555 1_555
C86 O4 1_555 1_555
C87 C86 1_555 1_555
C88 C87 1_555 1_555
O5 C90 1_555 1_555
O6 C112 1_555 1_555
O7 C134 1_555 1_555
O8 C156 1_555 1_555
C89 C90 1_555 1_555
C90 C91 1_555 1_555
C91 C92 1_555 1_555
C92 C93 1_555 1_555
C93 C94 1_555 1_555
C94 C89 1_555 1_555
C95 C91 1_555 1_555
C96 C93 1_555 1_555
C97 C96 1_555 1_555
C98 C97 1_555 1_555
C99 C98 1_555 1_555
C100 C99 1_555 1_555
C101 C96 1_555 1_555
C102 C101 1_555 1_555
C103 C102 1_555 1_555
C104 C103 1_555 1_555
C105 C104 1_555 1_555
C106 C105 1_555 1_555
C107 C102 1_555 1_555
C108 O5 1_555 1_555
C109 C108 1_555 1_555
C110 C109 1_555 1_555
C111 C95 1_555 1_555
C112 C111 1_555 1_555
C113 C112 1_555 1_555
C114 C113 1_555 1_555
C115 C114 1_555 1_555
C116 C111 1_555 1_555
C117 C113 1_555 1_555
C118 C115 1_555 1_555
C119 C118 1_555 1_555
C120 C119 1_555 1_555
C121 C120 1_555 1_555
C122 C118 1_555 1_555
C123 C121 1_555 1_555
C124 C122 1_555 1_555
C125 C124 1_555 1_555
C126 C125 1_555 1_555
C127 C126 1_555 1_555
C128 C127 1_555 1_555
C129 C124 1_555 1_555
C130 O6 1_555 1_555
C131 C130 1_555 1_555
C132 C131 1_555 1_555
C133 C117 1_555 1_555
C134 C133 1_555 1_555
C135 C134 1_555 1_555
C136 C135 1_555 1_555
C137 C136 1_555 1_555
C138 C133 1_555 1_555
C139 C135 1_555 1_555
C140 C137 1_555 1_555
C141 C140 1_555 1_555
C142 C141 1_555 1_555
C143 C142 1_555 1_555
C144 C143 1_555 1_555
C145 C140 1_555 1_555
C146 C145 1_555 1_555
C147 C146 1_555 1_555
C148 C147 1_555 1_555
C149 C148 1_555 1_555
C150 C149 1_555 1_555
C151 C146 1_555 1_555
C152 O7 1_555 1_555
C153 C152 1_555 1_555
C154 C153 1_555 1_555
C155 C139 1_555 1_555
C156 C155 1_555 1_555
C157 C156 1_555 1_555
C158 C157 1_555 1_555
C159 C158 1_555 1_555
C160 C155 1_555 1_555
C161 C89 1_555 1_555
C162 C159 1_555 1_555
C163 C162 1_555 1_555
C164 C163 1_555 1_555
C165 C164 1_555 1_555
C166 C165 1_555 1_555
C167 C162 1_555 1_555
C168 C167 1_555 1_555
C169 C168 1_555 1_555
C170 C169 1_555 1_555
C171 C170 1_555 1_555
C172 C171 1_555 1_555
C173 C168 1_555 1_555
C174 O8 1_555 1_555
C175 C174 1_555 1_555
C176 C175 1_555 1_555
C177 C178 1_555 1_555
C178 C179 1_555 1_555
C179 C180 1_555 1_555
C180 C181 1_555 1_555
C181 C182 1_555 1_555
C182 C183 1_555 1_555
C183 C178 1_555 1_555
C184 C185 1_555 1_555
C185 C186 1_555 1_555
C186 C187 1_555 1_555
C187 C188 1_555 1_555
C188 C189 1_555 1_555
C189 C190 1_555 1_555
C190 C185 1_555 1_555
C191 C192 1_555 1_555
C192 C193 1_555 1_555
C193 C194 1_555 1_555
C194 C195 1_555 1_555
C195 C196 1_555 1_555
C196 C197 1_555 1_555
C197 C192 1_555 1_555
C198 C199 1_555 1_555
C199 C200 1_555 1_555
C200 C201 1_555 1_555
C201 C202 1_555 1_555
C202 C203 1_555 1_555
C203 C204 1_555 1_555
C204 C199 1_555 1_555
H1 C4 1_555 1_555
H2 C6 1_555 1_555
H3 C7 1_555 1_555
H4 C7 1_555 1_555
H5 C9 1_555 1_555
H6 C10 1_555 1_555
H7 C11 1_555 1_555
H8 C12 1_555 1_555
H9 C15 1_555 1_555
H10 C16 1_555 1_555
H11 C17 1_555 1_555
H12 C18 1_555 1_555
H13 C19 1_555 1_555
H14 C20 1_555 1_555
H15 C20 1_555 1_555
H16 C21 1_555 1_555
H17 C21 1_555 1_555
H18 C22 1_555 1_555
H19 C22 1_555 1_555
H20 C22 1_555 1_555
H21 C26 1_555 1_555
H22 C28 1_555 1_555
H23 C29 1_555 1_555
H24 C29 1_555 1_555
H25 C31 1_555 1_555
H26 C32 1_555 1_555
H27 C33 1_555 1_555
H28 C34 1_555 1_555
H29 C37 1_555 1_555
H30 C38 1_555 1_555
H31 C39 1_555 1_555
H32 C40 1_555 1_555
H33 C41 1_555 1_555
H34 C42 1_555 1_555
H35 C42 1_555 1_555
H36 C43 1_555 1_555
H37 C43 1_555 1_555
H38 C44 1_555 1_555
H39 C44 1_555 1_555
H40 C44 1_555 1_555
H41 C48 1_555 1_555
H42 C50 1_555 1_555
H43 C51 1_555 1_555
H44 C51 1_555 1_555
H45 C53 1_555 1_555
H46 C54 1_555 1_555
H47 C55 1_555 1_555
H48 C56 1_555 1_555
H49 C59 1_555 1_555
H50 C60 1_555 1_555
H51 C61 1_555 1_555
H52 C62 1_555 1_555
H53 C63 1_555 1_555
H54 C64 1_555 1_555
H55 C64 1_555 1_555
H56 C65 1_555 1_555
H57 C65 1_555 1_555
H58 C66 1_555 1_555
H59 C66 1_555 1_555
H60 C66 1_555 1_555
H61 C70 1_555 1_555
H62 C72 1_555 1_555
H63 C73 1_555 1_555
H64 C73 1_555 1_555
H65 C75 1_555 1_555
H66 C76 1_555 1_555
H67 C77 1_555 1_555
H68 C78 1_555 1_555
H69 C81 1_555 1_555
H70 C82 1_555 1_555
H71 C83 1_555 1_555
H72 C84 1_555 1_555
H73 C85 1_555 1_555
H74 C86 1_555 1_555
H75 C86 1_555 1_555
H76 C87 1_555 1_555
H77 C87 1_555 1_555
H78 C88 1_555 1_555
H79 C88 1_555 1_555
H80 C88 1_555 1_555
H81 C92 1_555 1_555
H82 C94 1_555 1_555
H83 C95 1_555 1_555
H84 C95 1_555 1_555
H85 C97 1_555 1_555
H86 C98 1_555 1_555
H87 C99 1_555 1_555
H88 C100 1_555 1_555
H89 C103 1_555 1_555
H90 C104 1_555 1_555
H91 C105 1_555 1_555
H92 C106 1_555 1_555
H93 C107 1_555 1_555
H94 C108 1_555 1_555
H95 C108 1_555 1_555
H96 C109 1_555 1_555
H97 C109 1_555 1_555
H98 C110 1_555 1_555
H99 C110 1_555 1_555
H100 C110 1_555 1_555
H101 C114 1_555 1_555
H102 C116 1_555 1_555
H103 C117 1_555 1_555
H104 C117 1_555 1_555
H105 C119 1_555 1_555
H106 C120 1_555 1_555
H107 C121 1_555 1_555
H108 C123 1_555 1_555
H109 C125 1_555 1_555
H110 C126 1_555 1_555
H111 C127 1_555 1_555
H112 C128 1_555 1_555
H113 C129 1_555 1_555
H114 C130 1_555 1_555
H115 C130 1_555 1_555
H116 C131 1_555 1_555
H117 C131 1_555 1_555
H118 C132 1_555 1_555
H119 C132 1_555 1_555
H120 C132 1_555 1_555
H121 C136 1_555 1_555
H122 C138 1_555 1_555
H123 C139 1_555 1_555
H124 C139 1_555 1_555
H125 C141 1_555 1_555
H126 C142 1_555 1_555
H127 C143 1_555 1_555
H128 C144 1_555 1_555
H129 C147 1_555 1_555
H130 C148 1_555 1_555
H131 C149 1_555 1_555
H132 C150 1_555 1_555
H133 C151 1_555 1_555
H134 C152 1_555 1_555
H135 C152 1_555 1_555
H136 C153 1_555 1_555
H137 C153 1_555 1_555
H138 C154 1_555 1_555
H139 C154 1_555 1_555
H140 C154 1_555 1_555
H141 C158 1_555 1_555
H142 C160 1_555 1_555
H143 C161 1_555 1_555
H144 C161 1_555 1_555
H145 C163 1_555 1_555
H146 C164 1_555 1_555
H147 C165 1_555 1_555
H148 C166 1_555 1_555
H149 C169 1_555 1_555
H150 C170 1_555 1_555
H151 C171 1_555 1_555
H152 C172 1_555 1_555
H153 C173 1_555 1_555
H154 C174 1_555 1_555
H155 C174 1_555 1_555
H156 C175 1_555 1_555
H157 C175 1_555 1_555
H158 C176 1_555 1_555
H159 C176 1_555 1_555
H160 C176 1_555 1_555
H161 C177 1_555 1_555
H162 C177 1_555 1_555
H163 C177 1_555 1_555
H164 C179 1_555 1_555
H165 C180 1_555 1_555
H166 C181 1_555 1_555
H167 C182 1_555 1_555
H168 C183 1_555 1_555
H169 C184 1_555 1_555
H170 C184 1_555 1_555
H171 C184 1_555 1_555
H172 C186 1_555 1_555
H173 C187 1_555 1_555
H174 C188 1_555 1_555
H175 C189 1_555 1_555
H176 C190 1_555 1_555
H177 C191 1_555 1_555
H178 C191 1_555 1_555
H179 C191 1_555 1_555
H180 C193 1_555 1_555
H181 C194 1_555 1_555
H182 C195 1_555 1_555
H183 C196 1_555 1_555
H184 C197 1_555 1_555
H185 C198 1_555 1_555
H186 C198 1_555 1_555
H187 C198 1_555 1_555
H188 C200 1_555 1_555
H189 C201 1_555 1_555
H190 C202 1_555 1_555
H191 C203 1_555 1_555
H192 C204 1_555 1_555
C12 C13 1_555 1_555
C18 C19 1_555 1_555
C27 C28 1_555 1_555
C34 C35 1_555 1_555
C40 C41 1_555 1_555
C49 C50 1_555 1_555
C56 C57 1_555 1_555
C62 C63 1_555 1_555
C69 C73 1_555 1_555
C71 C72 1_555 1_555
C78 C79 1_555 1_555
C84 C85 1_555 1_555
C100 C101 1_555 1_555
C106 C107 1_555 1_555
C115 C116 1_555 1_555
C122 C123 1_555 1_555
C128 C129 1_555 1_555
C137 C138 1_555 1_555
C144 C145 1_555 1_555
C150 C151 1_555 1_555
C157 C161 1_555 1_555
C159 C160 1_555 1_555
C166 C167 1_555 1_555
C172 C173 1_555 1_555

#END
