
#######################################################################
#
#                 Cambridge Crystallographic Data Centre
#                                CCDC 
#
#######################################################################
#
# If this CIF has been generated from an entry in the Cambridge 
# Structural Database, then it will include bibliographic, chemical, 
# crystal, experimental, refinement or atomic coordinate data resulting 
# from the CCDC's data processing and validation procedures.
#
#######################################################################

data_CEWFOA
_chemical_formula_moiety         'C52 H56 O4'
_chemical_name_systematic        
5-(2-Biphenyl)-25,26,27,28-tetra-n-propoxycalix(4)arene
_symmetry_cell_setting           orthorhombic
_symmetry_space_group_name_H-M   'P n a 21'
_symmetry_Int_Tables_number      33
_space_group_name_Hall           'P 2c -2n'
loop_
_symmetry_equiv_pos_site_id
_symmetry_equiv_pos_as_xyz
1 x,y,z
2 -x,-y,1/2+z
3 1/2+x,1/2-y,z
4 1/2-x,1/2+y,1/2+z
_cell_length_a                   20.253(4)
_cell_length_b                   14.889(3)
_cell_length_c                   28.256(5)
_cell_angle_alpha                90
_cell_angle_beta                 90
_cell_angle_gamma                90
_cell_volume                     8520.51
_chemical_melting_point          169-171deg.C
_cell_formula_units_Z            8
_exptl_crystal_recrystallization_method toluene/pentane
loop_
_atom_site_label
_atom_site_type_symbol
_atom_site_fract_x
_atom_site_fract_y
_atom_site_fract_z
C1 C 0.6668(2) 0.6317(2) 0.90685(17)
C2 C 0.61560(19) 0.6222(2) 0.87445(18)
C3 C 0.60342(19) 0.5391(3) 0.85373(17)
H1 H 0.5688 0.5327 0.8318
C4 C 0.6424(2) 0.4656(2) 0.86541(19)
C5 C 0.6936(2) 0.4751(2) 0.89781(19)
H2 H 0.7200 0.4253 0.9057
C6 C 0.70577(19) 0.5581(3) 0.91853(16)
C7 C 0.6216(2) 0.3739(3) 0.8469(2)
C8 C 0.5573(2) 0.3453(4) 0.8553(2)
H3 H 0.5276 0.3828 0.8715
C9 C 0.5369(2) 0.2612(4) 0.8397(3)
H4 H 0.4935 0.2418 0.8454
O1 O 0.6767(2) 0.7123(3) 0.9294(2)
C10 C 0.5809(3) 0.2057(3) 0.8158(3)
H5 H 0.5671 0.1488 0.8052
C11 C 0.6451(3) 0.2343(4) 0.8074(2)
H6 H 0.6748 0.1968 0.7912
O2 O 0.6072(2) 0.8946(3) 0.8709(2)
O3 O 0.7675(2) 0.9027(4) 0.9068(2)
C12 C 0.6655(2) 0.3184(4) 0.8229(2)
O4 O 0.8332(2) 0.7372(4) 0.9778(2)
C13 C 0.7340(2) 0.3455(5) 0.8098(2)
C14 C 0.7853(4) 0.2851(5) 0.8172(3)
H7 H 0.7768 0.2291 0.8313
C15 C 0.8492(3) 0.3074(8) 0.8036(3)
H8 H 0.8839 0.2666 0.8086
C16 C 0.8618(3) 0.3901(8) 0.7827(3)
H9 H 0.9050 0.4052 0.7735
C17 C 0.8104(5) 0.4505(6) 0.7753(3)
H10 H 0.8189 0.5065 0.7612
C18 C 0.7466(4) 0.4282(5) 0.7889(2)
H11 H 0.7118 0.4690 0.7840
C38 C 0.7703(4) 0.5750(6) 0.9453(3)
H25 H 0.7908 0.5173 0.9534
H26 H 0.7607 0.6069 0.9749
C39 C 0.8186(2) 0.6309(3) 0.91536(17)
C40 C 0.8309(2) 0.6043(3) 0.86904(19)
H27 H 0.8142 0.5494 0.8578
C41 C 0.8681(3) 0.6589(4) 0.83933(15)
H28 H 0.8765 0.6409 0.8080
C42 C 0.8929(2) 0.7400(3) 0.85594(19)
H29 H 0.9181 0.7769 0.8358
C43 C 0.8805(2) 0.7666(3) 0.9022(2)
C44 C 0.8434(2) 0.7120(3) 0.93196(15)
C45 C 0.8798(6) 0.7000(9) 1.0107(4)
H30 H 0.9245 0.7201 1.0026
H31 H 0.8787 0.6343 1.0089
C46 C 0.8632(10) 0.7293(17) 1.0591(5)
H32 H 0.8204 0.7027 1.0671
H33 H 0.8958 0.7023 1.0804
C47 C 0.8601(14) 0.8089(16) 1.0689(7)
H34 H 0.8485 0.8158 1.1020
H35 H 0.8267 0.8375 1.0494
H36 H 0.9026 0.8369 1.0630
C48 C 0.9035(4) 0.8600(6) 0.9175(4)
H37 H 0.9519 0.8613 0.9184
H38 H 0.8872 0.8723 0.9495
C49 C 0.8786(2) 0.9337(4) 0.88363(19)
C50 C 0.92265(17) 0.9765(4) 0.8534(2)
H39 H 0.9684 0.9691 0.8577
C51 C 0.8991(2) 1.0304(4) 0.8170(2)
H40 H 0.9289 1.0594 0.7965
C52 C 0.8315(3) 1.0414(4) 0.8107(2)
H41 H 0.8156 1.0778 0.7860
C53 C 0.78747(18) 0.9985(4) 0.8409(2)
C54 C 0.8110(2) 0.9446(4) 0.87735(18)
C55 C 0.7129(4) 0.9942(5) 0.8295(3)
H42 H 0.6874 1.0108 0.8577
H43 H 0.7024 1.0372 0.8043
C56 C 0.6938(2) 0.8996(2) 0.81375(18)
C57 C 0.7313(2) 0.8577(3) 0.77897(18)
H44 H 0.7647 0.8897 0.7633
C58 C 0.7192(2) 0.7684(3) 0.76739(18)
H45 H 0.7446 0.7401 0.7439
C59 C 0.6697(2) 0.7211(2) 0.7906(2)
H46 H 0.6616 0.6607 0.7827
C60 C 0.6322(2) 0.7630(3) 0.82536(18)
C61 C 0.6442(2) 0.8522(3) 0.83695(16)
C62 C 0.6214(7) 0.7364(7) 0.9656(5)
H47 H 0.6159 0.8017 0.9675
H48 H 0.5793 0.7098 0.9558
C63 C 0.6409(6) 0.7019(8) 1.0097(5)
H49 H 0.6827 0.7288 1.0199
H50 H 0.6463 0.6365 1.0081
C64 C 0.5812(5) 0.7287(9) 1.0459(4)
H51 H 0.5916 0.7069 1.0774
H52 H 0.5403 0.7017 1.0351
H53 H 0.5764 0.7935 1.0467
C65 C 0.5490(4) 0.9393(6) 0.8524(4)
H54 H 0.5168 0.8945 0.8418
H55 H 0.5613 0.9764 0.8251
C66 C 0.5194(5) 0.9965(8) 0.8895(5)
H56 H 0.5517 1.0421 0.8989
H57 H 0.4812 1.0279 0.8761
C67 C 0.4984(6) 0.9484(9) 0.9311(5)
H58 H 0.4798 0.9903 0.9537
H59 H 0.5360 0.9182 0.9451
H60 H 0.4652 0.9044 0.9224
C68 C 0.7523(10) 0.9478(15) 0.9497(7)
H61 H 0.7939 0.9418 0.9672
H62 H 0.7514 1.0106 0.9394
C69 C 0.7172(15) 0.9483(17) 0.9776(9)
H63 H 0.7147 0.8835 0.9834
H64 H 0.6775 0.9612 0.9589
C70 C 0.6950(5) 0.9789(8) 1.0220(4)
H65 H 0.6473 0.9733 1.0236
H66 H 0.7074 1.0414 1.0260
H67 H 0.7150 0.9431 1.0468
C71 C 0.5828(3) 0.7064(5) 0.8538(3)
H68 H 0.5646 0.7428 0.8796
H69 H 0.5462 0.6885 0.8332
O5 O 0.5561(2) 0.2080(3) 1.0704(2)
C19 C 0.5656(3) 0.1251(5) 1.0920(3)
O6 O 0.4003(3) 0.2361(4) 1.0172(2)
C20 C 0.5221(3) 0.0550(5) 1.0820(3)
O7 O 0.4677(2) 0.3987(4) 1.0947(2)
C21 C 0.5334(3) -0.0285(5) 1.1026(3)
H12 H 0.5055 -0.0768 1.0950
O8 O 0.6234(2) 0.3882(4) 1.1322(2)
C22 C 0.5850(3) -0.0422(5) 1.1342(3)
C23 C 0.6234(3) 0.0322(5) 1.1469(3)
H13 H 0.6567 0.0250 1.1697
C24 C 0.6137(3) 0.1165(5) 1.1269(3)
C25 C 0.5975(2) -0.1324(3) 1.15638(19)
C26 C 0.6600(2) -0.1691(3) 1.1500(2)
H14 H 0.6929 -0.1360 1.1343
C27 C 0.6738(2) -0.2548(4) 1.1669(3)
H15 H 0.7160 -0.2797 1.1626
C28 C 0.6251(3) -0.3038(3) 1.1901(2)
H16 H 0.6345 -0.3617 1.2015
C29 C 0.5627(3) -0.2670(3) 1.1964(2)
H17 H 0.5298 -0.3001 1.2121
C30 C 0.54887(19) -0.1813(3) 1.1796(2)
C31 C 0.4814(2) -0.1443(4) 1.1908(2)
C32 C 0.4260(3) -0.1955(5) 1.1798(2)
H18 H 0.4310 -0.2519 1.1653
C33 C 0.3633(2) -0.1632(7) 1.1903(3)
H19 H 0.3259 -0.1978 1.1829
C34 C 0.3559(3) -0.0798(7) 1.2118(3)
H20 H 0.3135 -0.0580 1.2189
C35 C 0.4112(4) -0.0287(5) 1.2228(3)
H21 H 0.4062 0.0277 1.2373
C36 C 0.4740(3) -0.0609(4) 1.2123(2)
H22 H 0.5114 -0.0263 1.2197
C37 C 0.5162(4) 0.4864(6) 1.1750(4)
H23 H 0.5237 0.5268 1.2018
H24 H 0.5447 0.5062 1.1489
C72 C 0.5981(2) 0.2544(3) 1.17666(18)
C73 C 0.5602(2) 0.2106(2) 1.21059(19)
H70 H 0.5686 0.1500 1.2178
C74 C 0.5100(2) 0.2564(3) 1.23389(18)
H71 H 0.4844 0.2268 1.2568
C75 C 0.4976(2) 0.3460(3) 1.22326(19)
H72 H 0.4637 0.3770 1.2390
C76 C 0.5355(2) 0.3898(2) 1.1893(2)
C77 C 0.5857(2) 0.3440(3) 1.16603(17)
C78 C 0.44365(18) 0.4934(4) 1.1594(2)
C79 C 0.3981(3) 0.5398(4) 1.18695(19)
H73 H 0.4126 0.5751 1.2125
C80 C 0.3311(2) 0.5340(4) 1.1767(2)
H74 H 0.3003 0.5654 1.1953
C81 C 0.30967(17) 0.4817(4) 1.1389(2)
H75 H 0.2644 0.4778 1.1320
C82 C 0.3552(2) 0.4353(4) 1.11144(19)
C83 C 0.4222(2) 0.4411(4) 1.12169(19)
C84 C 0.3522(2) 0.2688(3) 1.09259(17)
C85 C 0.3893(2) 0.2127(3) 1.06365(13)
C86 C 0.4123(2) 0.1311(3) 1.08095(16)
C87 C 0.3983(2) 0.1056(3) 1.12719(18)
H76 H 0.4139 0.0505 1.1389
C88 C 0.3612(2) 0.1618(4) 1.15614(14)
H77 H 0.3517 0.1445 1.1874
C89 C 0.3381(2) 0.2433(3) 1.13884(16)
H78 H 0.3130 0.2813 1.1584
C90 C 0.6476(3) 0.1997(5) 1.1476(3)
H79 H 0.6845 0.1813 1.1678
H80 H 0.6653 0.2368 1.1219
C91 C 0.4609(3) 0.0735(6) 1.0521(3)
H81 H 0.4399 0.0167 1.0431
H82 H 0.4734 0.1053 1.0231
C92 C 0.3320(4) 0.3632(6) 1.0765(4)
H83 H 0.2838 0.3660 1.0735
H84 H 0.3511 0.3752 1.0452
C93 C 0.6805(4) 0.4308(6) 1.1514(4)
H85 H 0.7132 0.3853 1.1605
H86 H 0.6684 0.4649 1.1798
C94 C 0.7092(5) 0.4926(7) 1.1149(4)
H87 H 0.6764 0.5387 1.1072
H88 H 0.7476 0.5230 1.1286
C95 C 0.7299(5) 0.4473(8) 1.0703(5)
H89 H 0.7476 0.4915 1.0485
H90 H 0.6921 0.4179 1.0561
H91 H 0.7636 0.4029 1.0774
C96 C 0.6064(5) 0.2317(7) 1.0376(4)
H92 H 0.6484 0.2060 1.0481
H93 H 0.6112 0.2972 1.0372
C97 C 0.5922(5) 0.2000(8) 0.9890(4)
H94 H 0.5499 0.2248 0.9784
H95 H 0.5886 0.1344 0.9890
C98 C 0.6473(5) 0.2292(9) 0.9542(4)
H96 H 0.6368 0.2079 0.9227
H97 H 0.6891 0.2037 0.9643
H98 H 0.6506 0.2941 0.9539
C99 C 0.3545(5) 0.1958(8) 0.9842(4)
H99 H 0.3095 0.2165 0.9910
H100 H 0.3555 0.1302 0.9875
C100 C 0.3736(7) 0.2217(9) 0.9350(4)
H101 H 0.4196 0.2046 0.9292
H102 H 0.3459 0.1892 0.9123
C101 C 0.3660(8) 0.3200(10) 0.9274(5)
H103 H 0.3795 0.3351 0.8954
H104 H 0.3933 0.3522 0.9499
H105 H 0.3201 0.3367 0.9319
C103 C 0.5038(11) 0.4546(13) 1.0617(6)
C104 C 0.5266(10) 0.4674(17) 1.0324(8)
C105 C 0.5373(6) 0.4850(8) 0.9806(4)
H106 H 0.5781 0.5180 0.9762
H107 H 0.5007 0.5200 0.9683
H108 H 0.5399 0.4283 0.9638
C102? C 0.4756(8) 0.4281(16) 1.0301(13)
loop_
_geom_bond_atom_site_label_1
_geom_bond_atom_site_label_2
_geom_bond_site_symmetry_1
_geom_bond_site_symmetry_2
C1 C2 1_555 1_555
C2 C3 1_555 1_555
C3 H1 1_555 1_555
C4 C3 1_555 1_555
C5 C4 1_555 1_555
H2 C5 1_555 1_555
C6 C1 1_555 1_555
C7 C4 1_555 1_555
C8 C7 1_555 1_555
H3 C8 1_555 1_555
C9 C8 1_555 1_555
H4 C9 1_555 1_555
O1 C1 1_555 1_555
C10 C9 1_555 1_555
H5 C10 1_555 1_555
C11 C10 1_555 1_555
H6 C11 1_555 1_555
O2 C61 1_555 1_555
O3 C54 1_555 1_555
C12 C7 1_555 1_555
O4 C44 1_555 1_555
C13 C12 1_555 1_555
C14 C13 1_555 1_555
H7 C14 1_555 1_555
C15 C14 1_555 1_555
H8 C15 1_555 1_555
C16 C15 1_555 1_555
H9 C16 1_555 1_555
C17 C16 1_555 1_555
H10 C17 1_555 1_555
C18 C13 1_555 1_555
H11 C18 1_555 1_555
O5 C19 1_555 1_555
C19 C20 1_555 1_555
O6 C85 1_555 1_555
C20 C21 1_555 1_555
O7 C83 1_555 1_555
C21 H12 1_555 1_555
O8 C77 1_555 1_555
C22 C21 1_555 1_555
C23 C22 1_555 1_555
H13 C23 1_555 1_555
C24 C19 1_555 1_555
C25 C22 1_555 1_555
C26 C25 1_555 1_555
H14 C26 1_555 1_555
C27 C26 1_555 1_555
H15 C27 1_555 1_555
C28 C27 1_555 1_555
H16 C28 1_555 1_555
C29 C28 1_555 1_555
H17 C29 1_555 1_555
C30 C25 1_555 1_555
C31 C30 1_555 1_555
C32 C31 1_555 1_555
H18 C32 1_555 1_555
C33 C32 1_555 1_555
H19 C33 1_555 1_555
C34 C33 1_555 1_555
H20 C34 1_555 1_555
C35 C34 1_555 1_555
H21 C35 1_555 1_555
C36 C31 1_555 1_555
H22 C36 1_555 1_555
C37 H23 1_555 1_555
H24 C37 1_555 1_555
C38 C6 1_555 1_555
H25 C38 1_555 1_555
H26 C38 1_555 1_555
C39 C38 1_555 1_555
C40 C39 1_555 1_555
H27 C40 1_555 1_555
C41 C40 1_555 1_555
H28 C41 1_555 1_555
C42 C41 1_555 1_555
H29 C42 1_555 1_555
C43 C42 1_555 1_555
C44 C39 1_555 1_555
C45 O4 1_555 1_555
H30 C45 1_555 1_555
H31 C45 1_555 1_555
C46 C45 1_555 1_555
H32 C46 1_555 1_555
H33 C46 1_555 1_555
C47 C46 1_555 1_555
H34 C47 1_555 1_555
H35 C47 1_555 1_555
H36 C47 1_555 1_555
C48 C43 1_555 1_555
H37 C48 1_555 1_555
H38 C48 1_555 1_555
C49 C48 1_555 1_555
C50 C49 1_555 1_555
H39 C50 1_555 1_555
C51 C50 1_555 1_555
H40 C51 1_555 1_555
C52 C51 1_555 1_555
H41 C52 1_555 1_555
C53 C52 1_555 1_555
C54 C49 1_555 1_555
C55 C53 1_555 1_555
H42 C55 1_555 1_555
H43 C55 1_555 1_555
C56 C55 1_555 1_555
C57 C56 1_555 1_555
H44 C57 1_555 1_555
C58 C57 1_555 1_555
H45 C58 1_555 1_555
C59 C58 1_555 1_555
H46 C59 1_555 1_555
C60 C59 1_555 1_555
C61 C56 1_555 1_555
C62 O1 1_555 1_555
H47 C62 1_555 1_555
H48 C62 1_555 1_555
C63 C62 1_555 1_555
H49 C63 1_555 1_555
H50 C63 1_555 1_555
C64 C63 1_555 1_555
H51 C64 1_555 1_555
H52 C64 1_555 1_555
H53 C64 1_555 1_555
C65 O2 1_555 1_555
H54 C65 1_555 1_555
H55 C65 1_555 1_555
C66 C65 1_555 1_555
H56 C66 1_555 1_555
H57 C66 1_555 1_555
C67 C66 1_555 1_555
H58 C67 1_555 1_555
H59 C67 1_555 1_555
H60 C67 1_555 1_555
C68 O3 1_555 1_555
H61 C68 1_555 1_555
H62 C68 1_555 1_555
C69 C68 1_555 1_555
H63 C69 1_555 1_555
H64 C69 1_555 1_555
C70 C69 1_555 1_555
H65 C70 1_555 1_555
H66 C70 1_555 1_555
H67 C70 1_555 1_555
C71 C2 1_555 1_555
H68 C71 1_555 1_555
H69 C71 1_555 1_555
C72 C73 1_555 1_555
C73 H70 1_555 1_555
C74 C73 1_555 1_555
H71 C74 1_555 1_555
C75 C74 1_555 1_555
H72 C75 1_555 1_555
C76 C37 1_555 1_555
C77 C72 1_555 1_555
C78 C37 1_555 1_555
C79 C78 1_555 1_555
H73 C79 1_555 1_555
C80 C79 1_555 1_555
H74 C80 1_555 1_555
C81 C80 1_555 1_555
H75 C81 1_555 1_555
C82 C81 1_555 1_555
C83 C78 1_555 1_555
C84 C85 1_555 1_555
C85 C86 1_555 1_555
C86 C87 1_555 1_555
C87 H76 1_555 1_555
C88 C87 1_555 1_555
H77 C88 1_555 1_555
C89 C84 1_555 1_555
H78 C89 1_555 1_555
C90 C24 1_555 1_555
H79 C90 1_555 1_555
H80 C90 1_555 1_555
C91 C20 1_555 1_555
H81 C91 1_555 1_555
H82 C91 1_555 1_555
C92 C82 1_555 1_555
H83 C92 1_555 1_555
H84 C92 1_555 1_555
C93 O8 1_555 1_555
H85 C93 1_555 1_555
H86 C93 1_555 1_555
C94 C93 1_555 1_555
H87 C94 1_555 1_555
H88 C94 1_555 1_555
C95 C94 1_555 1_555
H89 C95 1_555 1_555
H90 C95 1_555 1_555
H91 C95 1_555 1_555
C96 O5 1_555 1_555
H92 C96 1_555 1_555
H93 C96 1_555 1_555
C97 C96 1_555 1_555
H94 C97 1_555 1_555
H95 C97 1_555 1_555
C98 C97 1_555 1_555
H96 C98 1_555 1_555
H97 C98 1_555 1_555
H98 C98 1_555 1_555
C99 O6 1_555 1_555
H99 C99 1_555 1_555
H100 C99 1_555 1_555
C100 C99 1_555 1_555
H101 C100 1_555 1_555
H102 C100 1_555 1_555
C101 C100 1_555 1_555
H103 C101 1_555 1_555
H104 C101 1_555 1_555
H105 C101 1_555 1_555
C103 O7 1_555 1_555
C104 C103 1_555 1_555
C105 C104 1_555 1_555
H106 C105 1_555 1_555
H107 C105 1_555 1_555
H108 C105 1_555 1_555
C5 C6 1_555 1_555
C11 C12 1_555 1_555
C17 C18 1_555 1_555
C23 C24 1_555 1_555
C29 C30 1_555 1_555
C35 C36 1_555 1_555
C43 C44 1_555 1_555
C53 C54 1_555 1_555
C60 C61 1_555 1_555
C60 C71 1_555 1_555
C72 C90 1_555 1_555
C75 C76 1_555 1_555
C76 C77 1_555 1_555
C82 C83 1_555 1_555
C84 C92 1_555 1_555
C86 C91 1_555 1_555
C88 C89 1_555 1_555

#END
