
#######################################################################
#
#                 Cambridge Crystallographic Data Centre
#                                CCDC 
#
#######################################################################
#
# If this CIF has been generated from an entry in the Cambridge 
# Structural Database, then it will include bibliographic, chemical, 
# crystal, experimental, refinement or atomic coordinate data resulting 
# from the CCDC's data processing and validation procedures.
#
#######################################################################

data_CEWFEQ
_chemical_formula_moiety         'C160 H128 O4,2.91(C1 H2 Cl2)'
_chemical_name_systematic        
'5,11,17,23-tetrakis((2,3,4,5-Tetraphenyl)phenyl)-25,26,27,28-tetra-n-propoxycalix(4)arene tris(dichloromethane) clathrate'
_symmetry_cell_setting           monoclinic
_symmetry_space_group_name_H-M   'C 2/c'
_symmetry_Int_Tables_number      15
_space_group_name_Hall           '-C 2yn'
loop_
_symmetry_equiv_pos_site_id
_symmetry_equiv_pos_as_xyz
1 x,y,z
2 1/2+x,1/2+y,z
3 -x,y,1/2-z
4 1/2-x,1/2+y,1/2-z
5 -x,-y,-z
6 1/2-x,1/2-y,-z
7 x,-y,1/2+z
8 1/2+x,1/2-y,1/2+z
_cell_length_a                   20.3689(8)
_cell_length_b                   26.8405(10)
_cell_length_c                   28.3061(11)
_cell_angle_alpha                90
_cell_angle_beta                 103.768(1)
_cell_angle_gamma                90
_cell_volume                     15030.6
_exptl_crystal_colour            colorless
_exptl_crystal_description       prism
_chemical_melting_point          'above 320deg.C'
_cell_formula_units_Z            4
_exptl_crystal_recrystallization_method methanol/dichloromethane
loop_
_atom_site_label
_atom_site_type_symbol
_atom_site_fract_x
_atom_site_fract_y
_atom_site_fract_z
O1 O -0.43753(10) 0.11812(7) -0.19565(8)
O2 O -0.60728(10) 0.12915(7) -0.20404(7)
C1 C -0.50840(14) 0.08091(10) -0.12749(10)
H1 H -0.5141 0.1172 -0.1331
H2 H -0.5179 0.0732 -0.0956
C2 C -0.43688(14) 0.06611(10) -0.12706(10)
C3 C -0.40530(14) 0.08320(10) -0.16269(10)
C4 C -0.34386(14) 0.06365(10) -0.16761(10)
C5 C -0.31119(15) 0.02950(10) -0.13293(10)
H3 H -0.2690 0.0162 -0.1355
C6 C -0.33826(15) 0.01437(10) -0.09482(10)
C7 C -0.40252(15) 0.03145(10) -0.09356(10)
H4 H -0.4233 0.0191 -0.0692
C8 C -0.29858(16) -0.01661(11) -0.05379(10)
C9 C -0.23616(16) 0.00114(12) -0.02629(11)
C10 C -0.20050(16) -0.02760(13) 0.01362(11)
C11 C -0.22620(16) -0.07269(12) 0.02597(11)
C12 C -0.28914(16) -0.08975(12) -0.00111(11)
C13 C -0.32372(17) -0.06121(11) -0.04096(11)
H5 H -0.3659 -0.0730 -0.0598
C14 C -0.55770(14) 0.05289(10) -0.16746(10)
C15 C -0.60260(14) 0.07756(10) -0.20529(10)
C16 C -0.64230(14) 0.05090(10) -0.24399(10)
C17 C -0.64119(14) -0.00048(10) -0.24197(10)
H6 H -0.6695 -0.0188 -0.2676
C18 C -0.55674(14) 0.00099(10) -0.16785(10)
H7 H -0.5255 -0.0161 -0.1428
C19 C -0.59991(14) -0.02638(10) -0.20350(10)
C20 C -0.60401(14) -0.08191(10) -0.20190(10)
C21 C -0.61039(15) -0.10815(10) -0.16056(10)
C22 C -0.61718(16) -0.16062(11) -0.16182(11)
C23 C -0.61686(15) -0.18685(10) -0.20499(10)
C24 C -0.61124(15) -0.16039(10) -0.24706(10)
C25 C -0.60458(15) -0.10877(10) -0.24408(11)
H8 H -0.6002 -0.0910 -0.2722
C26 C -0.31634(15) 0.07676(10) -0.21104(10)
H9 H -0.2685 0.0662 -0.2052
H10 H -0.3183 0.1133 -0.2160
C27 C -0.21171(16) 0.04992(13) -0.03912(11)
C28 C -0.16106(18) 0.05249(15) -0.06465(13)
H11 H -0.1373 0.0232 -0.0694
C29 C -0.1452(2) 0.09795(19) -0.08328(15)
H12 H -0.1113 0.0993 -0.1012
C30 C -0.1786(3) 0.14088(18) -0.07565(16)
H13 H -0.1678 0.1717 -0.0885
C31 C -0.2277(2) 0.13909(15) -0.04934(15)
H14 H -0.2502 0.1687 -0.0437
C32 C -0.24416(19) 0.09341(13) -0.03099(12)
H15 H -0.2778 0.0922 -0.0129
C33 C -0.13624(18) -0.00765(16) 0.04475(14)
C34 C -0.0748(2) -0.0196(2) 0.0336(2)
H16 H -0.0743 -0.0392 0.0057
C35 C -0.0161(3) -0.0033(3) 0.0625(3)
H17 H 0.0256 -0.0117 0.0550
C36 C -0.0161(4) 0.0253(4) 0.1027(3)
H18 H 0.0256 0.0361 0.1229
C37 C -0.0772(4) 0.0390(3) 0.1145(2)
H19 H -0.0772 0.0597 0.1418
C38 C -0.1380(3) 0.0212(2) 0.08481(16)
H20 H -0.1799 0.0290 0.0922
C39 C -0.18655(17) -0.10127(13) 0.06937(12)
C40 C -0.20844(17) -0.10433(12) 0.11170(12)
H21 H -0.2496 -0.0888 0.1137
C41 C -0.17055(19) -0.13007(14) 0.15151(13)
H22 H -0.1859 -0.1319 0.1806
C42 C -0.1112(2) -0.15287(15) 0.14924(15)
H23 H -0.0857 -0.1705 0.1766
C43 C -0.0890(2) -0.15019(16) 0.10747(16)
H24 H -0.0477 -0.1657 0.1058
C44 C -0.12712(19) -0.12471(15) 0.06726(14)
H25 H -0.1119 -0.1235 0.0381
C45 C -0.32245(18) -0.13635(11) 0.01079(11)
C46 C -0.39024(19) -0.13582(13) 0.01113(13)
H26 H -0.4144 -0.1053 0.0049
C47 C -0.4239(2) -0.17791(14) 0.02011(14)
H27 H -0.4706 -0.1765 0.0197
C48 C -0.3883(3) -0.22254(15) 0.02984(14)
H28 H -0.4107 -0.2519 0.0362
C49 C -0.3207(3) -0.22398(13) 0.03020(13)
H29 H -0.2965 -0.2544 0.0371
C50 C -0.2875(2) -0.18176(12) 0.02071(12)
H30 H -0.2409 -0.1833 0.0209
C51 C -0.61129(15) -0.07957(10) -0.11503(10)
C52 C -0.55947(17) -0.08427(11) -0.07358(11)
H31 H -0.5254 -0.1088 -0.0723
C53 C -0.5570(2) -0.05357(12) -0.03404(12)
H32 H -0.5211 -0.0568 -0.0058
C54 C -0.6068(2) -0.01816(13) -0.03561(12)
H33 H -0.6044 0.0037 -0.0088
C55 C -0.65987(19) -0.01459(12) -0.07592(13)
H34 H -0.6950 0.0088 -0.0765
C56 C -0.66196(17) -0.04507(11) -0.11543(12)
H35 H -0.6986 -0.0424 -0.1433
C57 C -0.62517(19) -0.18735(11) -0.11705(12)
C58 C -0.6811(2) -0.17788(15) -0.09883(15)
H36 H -0.7156 -0.1561 -0.1156
C59 C -0.6865(4) -0.20068(19) -0.0552(2)
H37 H -0.7251 -0.1944 -0.0428
C60 C -0.6378(4) -0.2314(2) -0.03071(19)
H38 H -0.6414 -0.2461 -0.0009
C61 C -0.5833(3) -0.24094(17) -0.04927(17)
H39 H -0.5490 -0.2627 -0.0322
C62 C -0.5766(2) -0.21981(12) -0.09224(13)
H40 H -0.5385 -0.2276 -0.1048
C63 C -0.62272(16) -0.24255(11) -0.20548(10)
C64 C -0.68117(18) -0.26523(12) -0.19924(12)
H41 H -0.7178 -0.2453 -0.1949
C65 C -0.6868(2) -0.31645(13) -0.19930(13)
H42 H -0.7269 -0.3316 -0.1947
C66 C -0.6345(2) -0.34553(12) -0.20601(13)
H43 H -0.6386 -0.3808 -0.2065
C67 C -0.5757(2) -0.32346(12) -0.21208(12)
H44 H -0.5391 -0.3435 -0.2164
C68 C -0.57045(17) -0.27233(11) -0.21179(11)
H45 H -0.5300 -0.2573 -0.2160
C69 C -0.61619(16) -0.18293(10) -0.29556(11)
C70 C -0.66711(18) -0.21668(12) -0.31634(12)
H46 H -0.6962 -0.2292 -0.2974
C71 C -0.6758(2) -0.23212(14) -0.36392(13)
H47 H -0.7108 -0.2550 -0.3775
C72 C -0.6344(2) -0.21477(14) -0.39163(13)
H48 H -0.6412 -0.2250 -0.4246
C73 C -0.5821(2) -0.18213(12) -0.37177(12)
H49 H -0.5526 -0.1706 -0.3908
C74 C -0.57339(17) -0.16658(11) -0.32421(11)
H50 H -0.5376 -0.1443 -0.3107
C75 C -0.4278(3) 0.16835(14) -0.1801(2)
H51 H -0.4603 0.1883 -0.2044
H52 H -0.4427 0.1705 -0.1494
C76 C -0.3695(4) 0.1922(3) -0.1725(4)
H53 H -0.3559 0.1939 -0.2038
H54 H -0.3352 0.1718 -0.1500
C77 C -0.3670(5) 0.2450(2) -0.1517(5)
H55 H -0.3785 0.2440 -0.1200
H56 H -0.3995 0.2661 -0.1740
H57 H -0.3214 0.2586 -0.1478
C78 C -0.65556(18) 0.14503(12) -0.17736(14)
H58 H -0.6405 0.1343 -0.1430
H59 H -0.7001 0.1296 -0.1914
C79 C -0.6618(2) 0.20068(14) -0.17987(16)
H60 H -0.6785 0.2105 -0.2143
H61 H -0.6961 0.2110 -0.1623
C80 C -0.5990(2) 0.22787(15) -0.15956(17)
H62 H -0.5672 0.2226 -0.1802
H63 H -0.5790 0.2157 -0.1266
H64 H -0.6088 0.2635 -0.1583
O1B O -0.56247(10) 0.11812(7) -0.30435(8)
O2B O -0.39272(10) 0.12915(7) -0.29596(7)
C1B C -0.49160(14) 0.08091(10) -0.37251(10)
H1B H -0.4859 0.1172 -0.3669
H2B H -0.4821 0.0732 -0.4044
C2B C -0.56312(14) 0.06611(10) -0.37294(10)
C3B C -0.59470(14) 0.08320(10) -0.33731(10)
C4B C -0.65614(14) 0.06365(10) -0.33239(10)
C5B C -0.68881(15) 0.02950(10) -0.36707(10)
H3B H -0.7310 0.0162 -0.3645
C6B C -0.66174(15) 0.01437(10) -0.40518(10)
C7B C -0.59748(15) 0.03145(10) -0.40644(10)
H4B H -0.5767 0.0191 -0.4308
C8B C -0.70142(16) -0.01661(11) -0.44621(10)
C9B C -0.76384(16) 0.00114(12) -0.47371(11)
C10B C -0.79950(16) -0.02760(13) -0.51362(11)
C11B C -0.77380(16) -0.07269(12) -0.52597(11)
C12B C -0.71086(16) -0.08975(12) -0.49889(11)
C13B C -0.67628(17) -0.06121(11) -0.45904(11)
H5B H -0.6341 -0.0730 -0.4402
C14B C -0.44230(14) 0.05289(10) -0.33254(10)
C15B C -0.39740(14) 0.07756(10) -0.29471(10)
C16B C -0.35770(14) 0.05090(10) -0.25601(10)
C17B C -0.35881(14) -0.00048(10) -0.25803(10)
H6B H -0.3305 -0.0188 -0.2324
C18B C -0.44326(14) 0.00099(10) -0.33215(10)
H7B H -0.4745 -0.0161 -0.3572
C19B C -0.40009(14) -0.02638(10) -0.29650(10)
C20B C -0.39599(14) -0.08191(10) -0.29810(10)
C21B C -0.38961(15) -0.10815(10) -0.33944(10)
C22B C -0.38282(16) -0.16062(11) -0.33818(11)
C23B C -0.38314(15) -0.18685(10) -0.29501(10)
C24B C -0.38876(15) -0.16039(10) -0.25294(10)
C25B C -0.39542(15) -0.10877(10) -0.25592(11)
H8B H -0.3998 -0.0910 -0.2278
C26B C -0.68366(15) 0.07676(10) -0.28896(10)
H9B H -0.7315 0.0662 -0.2948
H10B H -0.6817 0.1133 -0.2840
C27B C -0.78829(16) 0.04992(13) -0.46088(11)
C28B C -0.83894(18) 0.05249(15) -0.43535(13)
H11B H -0.8627 0.0232 -0.4306
C29B C -0.8548(2) 0.09795(19) -0.41672(15)
H12B H -0.8887 0.0993 -0.3988
C30B C -0.8214(3) 0.14088(18) -0.42435(16)
H13B H -0.8322 0.1717 -0.4115
C31B C -0.7723(2) 0.13909(15) -0.45066(15)
H14B H -0.7498 0.1687 -0.4563
C32B C -0.75584(19) 0.09341(13) -0.46901(12)
H15B H -0.7222 0.0922 -0.4871
C33B C -0.86376(18) -0.00765(16) -0.54475(14)
C34B C -0.9252(2) -0.0196(2) -0.5336(2)
H16B H -0.9257 -0.0392 -0.5057
C35B C -0.9839(3) -0.0033(3) -0.5625(3)
H17B H -1.0256 -0.0117 -0.5550
C36B C -0.9839(4) 0.0253(4) -0.6027(3)
H18B H -1.0256 0.0361 -0.6229
C37B C -0.9228(4) 0.0390(3) -0.6145(2)
H19B H -0.9228 0.0597 -0.6418
C38B C -0.8620(3) 0.0212(2) -0.58481(16)
H20B H -0.8201 0.0290 -0.5922
C39B C -0.81345(17) -0.10127(13) -0.56937(12)
C40B C -0.79156(17) -0.10433(12) -0.61170(12)
H21B H -0.7504 -0.0888 -0.6137
C41B C -0.82945(19) -0.13007(14) -0.65151(13)
H22B H -0.8141 -0.1319 -0.6806
C42B C -0.8888(2) -0.15287(15) -0.64924(15)
H23B H -0.9143 -0.1705 -0.6766
C43B C -0.9110(2) -0.15019(16) -0.60747(16)
H24B H -0.9523 -0.1657 -0.6058
C44B C -0.87288(19) -0.12471(15) -0.56726(14)
H25B H -0.8881 -0.1235 -0.5381
C45B C -0.67755(18) -0.13635(11) -0.51079(11)
C46B C -0.60976(19) -0.13582(13) -0.51113(13)
H26B H -0.5856 -0.1053 -0.5049
C47B C -0.5761(2) -0.17791(14) -0.52011(14)
H27B H -0.5294 -0.1765 -0.5197
C48B C -0.6117(3) -0.22254(15) -0.52984(14)
H28B H -0.5893 -0.2519 -0.5362
C49B C -0.6793(3) -0.22398(13) -0.53020(13)
H29B H -0.7035 -0.2544 -0.5371
C50B C -0.7125(2) -0.18176(12) -0.52071(12)
H30B H -0.7591 -0.1833 -0.5209
C51B C -0.38871(15) -0.07957(10) -0.38497(10)
C52B C -0.44053(17) -0.08427(11) -0.42642(11)
H31B H -0.4746 -0.1088 -0.4277
C53B C -0.4430(2) -0.05357(12) -0.46596(12)
H32B H -0.4789 -0.0568 -0.4942
C54B C -0.3932(2) -0.01816(13) -0.46439(12)
H33B H -0.3956 0.0037 -0.4912
C55B C -0.34013(19) -0.01459(12) -0.42408(13)
H34B H -0.3050 0.0088 -0.4235
C56B C -0.33804(17) -0.04507(11) -0.38457(12)
H35B H -0.3014 -0.0424 -0.3567
C57B C -0.37483(19) -0.18735(11) -0.38295(12)
C58B C -0.3189(2) -0.17788(15) -0.40117(15)
H36B H -0.2844 -0.1561 -0.3844
C59B C -0.3135(4) -0.20068(19) -0.4448(2)
H37B H -0.2749 -0.1944 -0.4572
C60B C -0.3622(4) -0.2314(2) -0.46929(19)
H38B H -0.3586 -0.2461 -0.4991
C61B C -0.4167(3) -0.24094(17) -0.45073(17)
H39B H -0.4510 -0.2627 -0.4678
C62B C -0.4234(2) -0.21981(12) -0.40776(13)
H40B H -0.4615 -0.2276 -0.3952
C63B C -0.37728(16) -0.24255(11) -0.29452(10)
C64B C -0.31883(18) -0.26523(12) -0.30076(12)
H41B H -0.2822 -0.2453 -0.3051
C65B C -0.3132(2) -0.31645(13) -0.30070(13)
H42B H -0.2731 -0.3316 -0.3053
C66B C -0.3655(2) -0.34553(12) -0.29399(13)
H43B H -0.3614 -0.3808 -0.2935
C67B C -0.4243(2) -0.32346(12) -0.28792(12)
H44B H -0.4609 -0.3435 -0.2836
C68B C -0.42955(17) -0.27233(11) -0.28821(11)
H45B H -0.4700 -0.2573 -0.2840
C69B C -0.38381(16) -0.18293(10) -0.20444(11)
C70B C -0.33289(18) -0.21668(12) -0.18366(12)
H46B H -0.3038 -0.2292 -0.2026
C71B C -0.3242(2) -0.23212(14) -0.13608(13)
H47B H -0.2892 -0.2550 -0.1225
C72B C -0.3656(2) -0.21477(14) -0.10837(13)
H48B H -0.3588 -0.2250 -0.0754
C73B C -0.4179(2) -0.18213(12) -0.12823(12)
H49B H -0.4474 -0.1706 -0.1092
C74B C -0.42661(17) -0.16658(11) -0.17579(11)
H50B H -0.4624 -0.1443 -0.1893
C75B C -0.5722(3) 0.16835(14) -0.3199(2)
H51B H -0.5397 0.1883 -0.2956
H52B H -0.5573 0.1705 -0.3506
C76B C -0.6305(4) 0.1922(3) -0.3275(4)
H53B H -0.6441 0.1939 -0.2962
H54B H -0.6648 0.1718 -0.3500
C77B C -0.6330(5) 0.2450(2) -0.3483(5)
H55B H -0.6215 0.2440 -0.3800
H56B H -0.6005 0.2661 -0.3260
H57B H -0.6786 0.2586 -0.3522
C78B C -0.34444(18) 0.14503(12) -0.32264(14)
H58B H -0.3595 0.1343 -0.3570
H59B H -0.2999 0.1296 -0.3086
C79B C -0.3382(2) 0.20068(14) -0.32013(16)
H60B H -0.3215 0.2105 -0.2857
H61B H -0.3039 0.2110 -0.3377
C80B C -0.4010(2) 0.22787(15) -0.34044(17)
H62B H -0.4328 0.2226 -0.3198
H63B H -0.4210 0.2157 -0.3734
H64B H -0.3912 0.2635 -0.3417
C81 C -0.0654(3) 0.1358(3) 0.0341(2)
Cl1 Cl -0.0481(4) 0.18137(17) 0.07961(14)
Cl2 Cl 0.00234(13) 0.14284(11) 0.00219(15)
C82 C 0.3881(2) 0.4793(2) 0.22493(18)
H65 H 0.4021 0.5094 0.2096
H66 H 0.3984 0.4498 0.2069
Cl5 Cl 0.43444(8) 0.47570(7) 0.28555(6)
Cl6 Cl 0.30169(6) 0.48177(5) 0.22053(5)
C83 C -0.2270(3) 0.88941(18) -0.1250(2)
H67 H -0.2580 0.9067 -0.1082
H68 H -0.2545 0.8673 -0.1501
Cl7 Cl -0.17103(14) 0.85447(9) -0.08414(9)
Cl8 Cl -0.18538(9) 0.93363(6) -0.15304(7)
C84 C 0.2026(4) 0.1240(3) 0.2715(2)
H69 H 0.2523 0.1230 0.2836
H70 H 0.1902 0.0948 0.2498
Cl9 Cl 0.18582(14) 0.17161(8) 0.23826(10)
Cl10 Cl 0.16936(12) 0.11390(8) 0.32046(9)
Cl3? Cl 0.0157(2) 0.1439(2) 0.0473(3)
Cl4? Cl -0.1073(4) 0.1636(2) 0.0762(2)
loop_
_geom_bond_atom_site_label_1
_geom_bond_atom_site_label_2
_geom_bond_site_symmetry_1
_geom_bond_site_symmetry_2
O1 C3 1_555 1_555
O2 C15 1_555 1_555
C1 H1 1_555 1_555
H2 C1 1_555 1_555
C2 C1 1_555 1_555
C3 C2 1_555 1_555
C4 C3 1_555 1_555
C5 C4 1_555 1_555
H3 C5 1_555 1_555
C6 C5 1_555 1_555
C7 C2 1_555 1_555
H4 C7 1_555 1_555
C8 C6 1_555 1_555
C9 C8 1_555 1_555
C10 C9 1_555 1_555
C11 C10 1_555 1_555
C12 C11 1_555 1_555
C13 C8 1_555 1_555
H5 C13 1_555 1_555
C14 C1 1_555 1_555
C15 C14 1_555 1_555
C16 C15 1_555 1_555
C17 C16 1_555 1_555
H6 C17 1_555 1_555
C18 C14 1_555 1_555
H7 C18 1_555 1_555
C19 C17 1_555 1_555
C20 C19 1_555 1_555
C21 C20 1_555 1_555
C22 C21 1_555 1_555
C23 C22 1_555 1_555
C24 C23 1_555 1_555
C25 C20 1_555 1_555
H8 C25 1_555 1_555
C26 C4 1_555 1_555
H9 C26 1_555 1_555
H10 C26 1_555 1_555
C27 C9 1_555 1_555
C28 C27 1_555 1_555
H11 C28 1_555 1_555
C29 C28 1_555 1_555
H12 C29 1_555 1_555
C30 C29 1_555 1_555
H13 C30 1_555 1_555
C31 C30 1_555 1_555
H14 C31 1_555 1_555
C32 C27 1_555 1_555
H15 C32 1_555 1_555
C33 C10 1_555 1_555
C34 C33 1_555 1_555
H16 C34 1_555 1_555
C35 C34 1_555 1_555
H17 C35 1_555 1_555
C36 C35 1_555 1_555
H18 C36 1_555 1_555
C37 C36 1_555 1_555
H19 C37 1_555 1_555
C38 C33 1_555 1_555
H20 C38 1_555 1_555
C39 C11 1_555 1_555
C40 C39 1_555 1_555
H21 C40 1_555 1_555
C41 C40 1_555 1_555
H22 C41 1_555 1_555
C42 C41 1_555 1_555
H23 C42 1_555 1_555
C43 C42 1_555 1_555
H24 C43 1_555 1_555
C44 C39 1_555 1_555
H25 C44 1_555 1_555
C45 C12 1_555 1_555
C46 C45 1_555 1_555
H26 C46 1_555 1_555
C47 C46 1_555 1_555
H27 C47 1_555 1_555
C48 C47 1_555 1_555
H28 C48 1_555 1_555
C49 C48 1_555 1_555
H29 C49 1_555 1_555
C50 C45 1_555 1_555
H30 C50 1_555 1_555
C51 C21 1_555 1_555
C52 C51 1_555 1_555
H31 C52 1_555 1_555
C53 C52 1_555 1_555
H32 C53 1_555 1_555
C54 C53 1_555 1_555
H33 C54 1_555 1_555
C55 C54 1_555 1_555
H34 C55 1_555 1_555
C56 C51 1_555 1_555
H35 C56 1_555 1_555
C57 C22 1_555 1_555
C58 C57 1_555 1_555
H36 C58 1_555 1_555
C59 C58 1_555 1_555
H37 C59 1_555 1_555
C60 C59 1_555 1_555
H38 C60 1_555 1_555
C61 C60 1_555 1_555
H39 C61 1_555 1_555
C62 C57 1_555 1_555
H40 C62 1_555 1_555
C63 C23 1_555 1_555
C64 C63 1_555 1_555
H41 C64 1_555 1_555
C65 C64 1_555 1_555
H42 C65 1_555 1_555
C66 C65 1_555 1_555
H43 C66 1_555 1_555
C67 C66 1_555 1_555
H44 C67 1_555 1_555
C68 C63 1_555 1_555
H45 C68 1_555 1_555
C69 C24 1_555 1_555
C70 C69 1_555 1_555
H46 C70 1_555 1_555
C71 C70 1_555 1_555
H47 C71 1_555 1_555
C72 C71 1_555 1_555
H48 C72 1_555 1_555
C73 C72 1_555 1_555
H49 C73 1_555 1_555
C74 C69 1_555 1_555
H50 C74 1_555 1_555
C75 O1 1_555 1_555
H51 C75 1_555 1_555
H52 C75 1_555 1_555
C76 C75 1_555 1_555
H53 C76 1_555 1_555
H54 C76 1_555 1_555
C77 C76 1_555 1_555
H55 C77 1_555 1_555
H56 C77 1_555 1_555
H57 C77 1_555 1_555
C78 O2 1_555 1_555
H58 C78 1_555 1_555
H59 C78 1_555 1_555
C79 C78 1_555 1_555
H60 C79 1_555 1_555
H61 C79 1_555 1_555
C80 C79 1_555 1_555
H62 C80 1_555 1_555
H63 C80 1_555 1_555
H64 C80 1_555 1_555
C81 Cl1 1_555 1_555
Cl2 C81 1_555 1_555
C82 H65 1_555 1_555
H66 C82 1_555 1_555
Cl5 C82 1_555 1_555
Cl6 C82 1_555 1_555
C83 H67 1_555 1_555
H68 C83 1_555 1_555
Cl7 C83 1_555 1_555
Cl8 C83 1_555 1_555
C84 H69 1_555 1_555
H70 C84 1_555 1_555
Cl9 C84 1_555 1_555
Cl10 C84 1_555 1_555
O1B C3B 1_555 1_555
O2B C15B 1_555 1_555
C1B H1B 1_555 1_555
H2B C1B 1_555 1_555
C2B C1B 1_555 1_555
C3B C2B 1_555 1_555
C4B C3B 1_555 1_555
C5B C4B 1_555 1_555
H3B C5B 1_555 1_555
C6B C5B 1_555 1_555
C7B C2B 1_555 1_555
H4B C7B 1_555 1_555
C8B C6B 1_555 1_555
C9B C8B 1_555 1_555
C10B C9B 1_555 1_555
C11B C10B 1_555 1_555
C12B C11B 1_555 1_555
C13B C8B 1_555 1_555
H5B C13B 1_555 1_555
C14B C1B 1_555 1_555
C15B C14B 1_555 1_555
C16B C26 1_555 1_555
C17B C16B 1_555 1_555
H6B C17B 1_555 1_555
C18B C14B 1_555 1_555
H7B C18B 1_555 1_555
C19B C17B 1_555 1_555
C20B C19B 1_555 1_555
C21B C20B 1_555 1_555
C22B C21B 1_555 1_555
C23B C22B 1_555 1_555
C24B C23B 1_555 1_555
C25B C20B 1_555 1_555
H8B C25B 1_555 1_555
C26B C16 1_555 1_555
H9B C26B 1_555 1_555
H10B C26B 1_555 1_555
C27B C9B 1_555 1_555
C28B C27B 1_555 1_555
H11B C28B 1_555 1_555
C29B C28B 1_555 1_555
H12B C29B 1_555 1_555
C30B C29B 1_555 1_555
H13B C30B 1_555 1_555
C31B C30B 1_555 1_555
H14B C31B 1_555 1_555
C32B C27B 1_555 1_555
H15B C32B 1_555 1_555
C33B C10B 1_555 1_555
C34B C33B 1_555 1_555
H16B C34B 1_555 1_555
C35B C34B 1_555 1_555
H17B C35B 1_555 1_555
C36B C35B 1_555 1_555
H18B C36B 1_555 1_555
C37B C36B 1_555 1_555
H19B C37B 1_555 1_555
C38B C33B 1_555 1_555
H20B C38B 1_555 1_555
C39B C11B 1_555 1_555
C40B C39B 1_555 1_555
H21B C40B 1_555 1_555
C41B C40B 1_555 1_555
H22B C41B 1_555 1_555
C42B C41B 1_555 1_555
H23B C42B 1_555 1_555
C43B C42B 1_555 1_555
H24B C43B 1_555 1_555
C44B C39B 1_555 1_555
H25B C44B 1_555 1_555
C45B C12B 1_555 1_555
C46B C45B 1_555 1_555
H26B C46B 1_555 1_555
C47B C46B 1_555 1_555
H27B C47B 1_555 1_555
C48B C47B 1_555 1_555
H28B C48B 1_555 1_555
C49B C48B 1_555 1_555
H29B C49B 1_555 1_555
C50B C45B 1_555 1_555
H30B C50B 1_555 1_555
C51B C21B 1_555 1_555
C52B C51B 1_555 1_555
H31B C52B 1_555 1_555
C53B C52B 1_555 1_555
H32B C53B 1_555 1_555
C54B C53B 1_555 1_555
H33B C54B 1_555 1_555
C55B C54B 1_555 1_555
H34B C55B 1_555 1_555
C56B C51B 1_555 1_555
H35B C56B 1_555 1_555
C57B C22B 1_555 1_555
C58B C57B 1_555 1_555
H36B C58B 1_555 1_555
C59B C58B 1_555 1_555
H37B C59B 1_555 1_555
C60B C59B 1_555 1_555
H38B C60B 1_555 1_555
C61B C60B 1_555 1_555
H39B C61B 1_555 1_555
C62B C57B 1_555 1_555
H40B C62B 1_555 1_555
C63B C23B 1_555 1_555
C64B C63B 1_555 1_555
H41B C64B 1_555 1_555
C65B C64B 1_555 1_555
H42B C65B 1_555 1_555
C66B C65B 1_555 1_555
H43B C66B 1_555 1_555
C67B C66B 1_555 1_555
H44B C67B 1_555 1_555
C68B C63B 1_555 1_555
H45B C68B 1_555 1_555
C69B C24B 1_555 1_555
C70B C69B 1_555 1_555
H46B C70B 1_555 1_555
C71B C70B 1_555 1_555
H47B C71B 1_555 1_555
C72B C71B 1_555 1_555
H48B C72B 1_555 1_555
C73B C72B 1_555 1_555
H49B C73B 1_555 1_555
C74B C69B 1_555 1_555
H50B C74B 1_555 1_555
C75B O1B 1_555 1_555
H51B C75B 1_555 1_555
H52B C75B 1_555 1_555
C76B C75B 1_555 1_555
H53B C76B 1_555 1_555
H54B C76B 1_555 1_555
C77B C76B 1_555 1_555
H55B C77B 1_555 1_555
H56B C77B 1_555 1_555
H57B C77B 1_555 1_555
C78B O2B 1_555 1_555
H58B C78B 1_555 1_555
H59B C78B 1_555 1_555
C79B C78B 1_555 1_555
H60B C79B 1_555 1_555
H61B C79B 1_555 1_555
C80B C79B 1_555 1_555
H62B C80B 1_555 1_555
H63B C80B 1_555 1_555
H64B C80B 1_555 1_555
C6 C7 1_555 1_555
C12 C13 1_555 1_555
C18 C19 1_555 1_555
C24 C25 1_555 1_555
C31 C32 1_555 1_555
C37 C38 1_555 1_555
C43 C44 1_555 1_555
C49 C50 1_555 1_555
C55 C56 1_555 1_555
C61 C62 1_555 1_555
C67 C68 1_555 1_555
C73 C74 1_555 1_555
C4B C26B 1_555 1_555
C6B C7B 1_555 1_555
C12B C13B 1_555 1_555
C15B C16B 1_555 1_555
C18B C19B 1_555 1_555
C24B C25B 1_555 1_555
C31B C32B 1_555 1_555
C37B C38B 1_555 1_555
C43B C44B 1_555 1_555
C49B C50B 1_555 1_555
C55B C56B 1_555 1_555
C61B C62B 1_555 1_555
C67B C68B 1_555 1_555
C73B C74B 1_555 1_555

#END
