
#######################################################################
#
#                 Cambridge Crystallographic Data Centre
#                                CCDC 
#
#######################################################################
#
# If this CIF has been generated from an entry in the Cambridge 
# Structural Database, then it will include bibliographic, chemical, 
# crystal, experimental, refinement or atomic coordinate data resulting 
# from the CCDC's data processing and validation procedures.
#
#######################################################################

data_CEWGES
_chemical_formula_moiety         'C22 H19 N1 O3 S1'
_chemical_name_systematic        
2-Benzylidene-1-((4-methylphenyl)sulfonyl)indolin-3-ol
_symmetry_cell_setting           triclinic
_symmetry_space_group_name_H-M   'P -1'
_symmetry_Int_Tables_number      2
_space_group_name_Hall           '-P 1'
loop_
_symmetry_equiv_pos_site_id
_symmetry_equiv_pos_as_xyz
1 x,y,z
2 -x,-y,-z
_cell_length_a                   6.4296(10)
_cell_length_b                   11.576(2)
_cell_length_c                   13.443(3)
_cell_angle_alpha                88.587(11)
_cell_angle_beta                 77.275(9)
_cell_angle_gamma                75.406(10)
_cell_volume                     943.981
_exptl_crystal_colour            colorless
_exptl_crystal_description       needle
_cell_formula_units_Z            2
loop_
_atom_site_label
_atom_site_type_symbol
_atom_site_fract_x
_atom_site_fract_y
_atom_site_fract_z
S1 S 0.98863(9) 0.21988(5) 0.72060(5)
C1 C 1.0761(3) -0.06234(18) 0.78942(17)
H1 H 1.2029 -0.0351 0.7819
C2 C 0.8871(3) 0.02070(17) 0.80343(16)
C3 C 1.1081(3) -0.19157(18) 0.78449(16)
C4 C 0.6569(4) 0.20073(19) 0.87318(16)
C5 C 1.2857(4) -0.26193(19) 0.81914(18)
H2 H 1.3826 -0.2259 0.8408
C6 C 0.8157(4) 0.2399(2) 0.63428(17)
C7 C 0.5277(3) 0.1208(2) 0.88194(16)
C8 C 0.6555(3) 0.00585(19) 0.82600(17)
H3 H 0.6457 -0.0607 0.8718
C9 C 0.6526(4) 0.3436(2) 0.6389(2)
H4 H 0.6390 0.4053 0.6848
C10 C 0.3110(4) 0.1540(2) 0.93565(18)
H5 H 0.2220 0.1009 0.9420
C11 C 0.9728(4) -0.2485(2) 0.74848(18)
H6 H 0.8564 -0.2037 0.7223
C12 C 1.3205(4) -0.3842(2) 0.8219(2)
H7 H 1.4387 -0.4298 0.8464
C13 C 1.1813(4) -0.4391(2) 0.7885(2)
H8 H 1.2034 -0.5216 0.7912
C14 C 0.5782(5) 0.3135(2) 0.91829(19)
H9 H 0.6675 0.3663 0.9132
C15 C 1.0088(4) -0.3709(2) 0.7511(2)
H10 H 0.9155 -0.4077 0.7272
C16 C 0.3619(5) 0.3447(2) 0.9711(2)
H11 H 0.3041 0.4204 1.0020
C17 C 0.8350(4) 0.1497(2) 0.5664(2)
H12 H 0.9459 0.0795 0.5630
C18 C 0.2292(4) 0.2674(3) 0.97961(19)
H13 H 0.0832 0.2916 1.0152
C19 C 0.5259(4) 0.2652(3) 0.50633(19)
C20 C 0.5098(5) 0.3547(3) 0.5747(2)
H14 H 0.3992 0.4249 0.5777
C21 C 0.3638(6) 0.2789(4) 0.4385(3)
H15 H 0.4050 0.3264 0.3816
H16 H 0.2188 0.3175 0.4766
H17 H 0.3643 0.2016 0.4141
C22 C 0.6898(5) 0.1633(3) 0.5031(2)
H18 H 0.7035 0.1016 0.4571
N1 N 0.8762(3) 0.14587(15) 0.81684(14)
O1 O 0.5815(2) -0.01399(14) 0.73690(13)
H19 H 0.5197 0.0502 0.7168
O2 O 0.9765(3) 0.33347(15) 0.76195(16)
O3 O 1.1957(3) 0.14240(16) 0.67506(15)
loop_
_geom_bond_atom_site_label_1
_geom_bond_atom_site_label_2
_geom_bond_site_symmetry_1
_geom_bond_site_symmetry_2
S1 C6 1_555 1_555
C1 H1 1_555 1_555
C2 C1 1_555 1_555
C3 C1 1_555 1_555
C4 C7 1_555 1_555
C5 C3 1_555 1_555
H2 C5 1_555 1_555
C6 C9 1_555 1_555
C7 C8 1_555 1_555
C8 C2 1_555 1_555
H3 C8 1_555 1_555
C9 H4 1_555 1_555
C10 C7 1_555 1_555
H5 C10 1_555 1_555
C11 C3 1_555 1_555
H6 C11 1_555 1_555
C12 C5 1_555 1_555
H7 C12 1_555 1_555
C13 C12 1_555 1_555
H8 C13 1_555 1_555
C14 C4 1_555 1_555
H9 C14 1_555 1_555
C15 C11 1_555 1_555
H10 C15 1_555 1_555
C16 C14 1_555 1_555
H11 C16 1_555 1_555
C17 C6 1_555 1_555
H12 C17 1_555 1_555
C18 C10 1_555 1_555
H13 C18 1_555 1_555
C19 C20 1_555 1_555
C20 C9 1_555 1_555
H14 C20 1_555 1_555
C21 C19 1_555 1_555
H15 C21 1_555 1_555
H16 C21 1_555 1_555
H17 C21 1_555 1_555
C22 C17 1_555 1_555
H18 C22 1_555 1_555
N1 S1 1_555 1_555
O1 C8 1_555 1_555
H19 O1 1_555 1_555
O2 S1 1_555 1_555
O3 S1 1_555 1_555
C2 N1 1_555 1_555
C4 N1 1_555 1_555
C13 C15 1_555 1_555
C16 C18 1_555 1_555
C19 C22 1_555 1_555

#END
