
#######################################################################
#
#                 Cambridge Crystallographic Data Centre
#                                CCDC 
#
#######################################################################
#
# If this CIF has been generated from an entry in the Cambridge 
# Structural Database, then it will include bibliographic, chemical, 
# crystal, experimental, refinement or atomic coordinate data resulting 
# from the CCDC's data processing and validation procedures.
#
#######################################################################

data_CEWHUI
_chemical_formula_moiety         'C21 H27 N1 O9,H2 O1'
_chemical_name_systematic        
"(2R,3R,3aS,6R,6aR,3'R,3a'S,6'R,6'aR,5''R)-Spiro[6,3',6'-trihydroxyoctahydro[2,3']bi(furo[3,2-b]furan)]-3,2''-[5''-phenoxymethyl-1'',3''-oxazolidine] monohydrate"
_symmetry_cell_setting           monoclinic
_symmetry_space_group_name_H-M   'P 21'
_symmetry_Int_Tables_number      4
_space_group_name_Hall           'P 2yb'
loop_
_symmetry_equiv_pos_site_id
_symmetry_equiv_pos_as_xyz
1 x,y,z
2 -x,1/2+y,-z
_cell_length_a                   8.9722(18)
_cell_length_b                   6.2857(13)
_cell_length_c                   19.233(4)
_cell_angle_alpha                90
_cell_angle_beta                 98.77(3)
_cell_angle_gamma                90
_cell_volume                     1071.99
_exptl_crystal_colour            colorless
_exptl_crystal_description       prismatic
_chemical_melting_point          121-123deg.C
_cell_formula_units_Z            2
loop_
_atom_site_label
_atom_site_type_symbol
_atom_site_fract_x
_atom_site_fract_y
_atom_site_fract_z
O1 O 0.6121(4) 0.5412(7) -0.2614(3)
O2 O 0.3061(4) 0.3176(6) -0.2720(2)
H1 H 0.2410 0.3701 -0.3016
O3 O 0.8602(5) 0.2721(9) -0.2275(3)
O4 O 0.5107(4) 0.1609(6) -0.1715(2)
O5 O 0.3180(4) 0.7302(7) -0.1383(2)
O6 O 0.1898(4) 0.8698(6) -0.2793(2)
O7 O 0.2628(10) 0.8400(18) -0.0021(4)
H2 H 0.3099 0.7294 -0.0050
O8 O -0.0366(5) 0.7297(9) -0.1454(3)
O9 O 0.1599(5) 0.6978(7) -0.4190(2)
N1 N 0.0159(5) 0.5964(8) -0.2814(3)
C1 C 0.4628(6) 0.6275(9) -0.2685(4)
H3 H 0.4169 0.6304 -0.3175
H4 H 0.4650 0.7712 -0.2500
C2 C 0.2309(6) 0.6555(11) -0.4767(4)
C3 C 0.3750(6) 0.4807(8) -0.2263(3)
C4 C 0.2297(8) 0.7903(13) -0.5316(4)
H5 H 0.1802 0.9204 -0.5321
C5 C 0.5008(6) 0.3921(10) -0.1681(3)
H6 H 0.4876 0.4413 -0.1210
C6 C 0.3026(9) 0.7327(16) -0.5871(4)
H7 H 0.3043 0.8257 -0.6246
C7 C 0.6488(6) 0.4761(9) -0.1899(4)
H8 H 0.6913 0.5935 -0.1597
C8 C 0.3727(9) 0.5382(17) -0.5870(4)
H9 H 0.4204 0.4980 -0.6246
C9 C 0.7518(6) 0.2815(10) -0.1819(4)
H10 H 0.8008 0.2680 -0.1330
C10 C 0.3717(7) 0.4036(13) -0.5308(4)
H11 H 0.4191 0.2720 -0.5302
C11 C 0.3008(7) 0.4630(11) -0.4754(4)
H12 H 0.3006 0.3723 -0.4372
C12 C 0.6407(7) 0.1033(10) -0.2001(4)
H13 H 0.6169 0.0865 -0.2507
H14 H 0.6817 -0.0297 -0.1799
C13 C 0.2527(6) 0.5852(9) -0.1912(3)
H15 H 0.2028 0.4728 -0.1680
C14 C 0.1277(5) 0.7197(8) -0.2355(3)
C15 C 0.0666(6) 0.8467(10) -0.1789(3)
H16 H 0.0229 0.9820 -0.1973
C16 C 0.2069(7) 0.8820(12) -0.1250(4)
H17 H 0.2450 1.0269 -0.1289
C17 C 0.1531(9) 0.853(2) -0.0554(4)
H18 H 0.1100 0.9931 -0.0480
C18 C 0.0197(14) 0.723(2) -0.0722(5)
H19 H 0.0435 0.5774 -0.0582
H20 H -0.0575 0.7736 -0.0460
C19 C -0.0595(6) 0.7607(12) -0.3294(4)
H21 H -0.1413 0.8270 -0.3097
H22 H -0.0994 0.6998 -0.3748
C20 C 0.0661(6) 0.9230(10) -0.3364(3)
H23 H 0.0295 1.0670 -0.3292
C21 C 0.1270(8) 0.9140(10) -0.4051(4)
H24 H 0.0530 0.9699 -0.4427
H25 H 0.2177 0.9995 -0.4022
H26 H 0.100(7) 0.503(10) -0.308(4)
H27 H 0.889(5) 0.391(10) -0.242(3)
O10 O 0.5419(14) 1.022(3) -0.0283(5)
loop_
_geom_bond_atom_site_label_1
_geom_bond_atom_site_label_2
_geom_bond_site_symmetry_1
_geom_bond_site_symmetry_2
O1 C1 1_555 1_555
O2 H1 1_555 1_555
O3 C9 1_555 1_555
O4 C5 1_555 1_555
O5 C13 1_555 1_555
O6 C14 1_555 1_555
O7 H2 1_555 1_555
O8 C15 1_555 1_555
O9 C2 1_555 1_555
N1 C14 1_555 1_555
C1 H3 1_555 1_555
H4 C1 1_555 1_555
C2 C4 1_555 1_555
C3 O2 1_555 1_555
C4 H5 1_555 1_555
C5 C3 1_555 1_555
H6 C5 1_555 1_555
C6 C4 1_555 1_555
H7 C6 1_555 1_555
C7 O1 1_555 1_555
H8 C7 1_555 1_555
C8 C6 1_555 1_555
H9 C8 1_555 1_555
C9 C7 1_555 1_555
H10 C9 1_555 1_555
C10 C8 1_555 1_555
H11 C10 1_555 1_555
C11 C2 1_555 1_555
H12 C11 1_555 1_555
C12 O4 1_555 1_555
H13 C12 1_555 1_555
H14 C12 1_555 1_555
C13 C3 1_555 1_555
H15 C13 1_555 1_555
C14 C13 1_555 1_555
C15 C14 1_555 1_555
H16 C15 1_555 1_555
C16 O5 1_555 1_555
H17 C16 1_555 1_555
C17 O7 1_555 1_555
H18 C17 1_555 1_555
C18 O8 1_555 1_555
H19 C18 1_555 1_555
H20 C18 1_555 1_555
C19 N1 1_555 1_555
H21 C19 1_555 1_555
H22 C19 1_555 1_555
C20 O6 1_555 1_555
H23 C20 1_555 1_555
C21 O9 1_555 1_555
H24 C21 1_555 1_555
H25 C21 1_555 1_555
H26 N1 1_555 1_555
H27 O3 1_555 1_555
C1 C3 1_555 1_555
C5 C7 1_555 1_555
C9 C12 1_555 1_555
C10 C11 1_555 1_555
C15 C16 1_555 1_555
C16 C17 1_555 1_555
C17 C18 1_555 1_555
C19 C20 1_555 1_555
C20 C21 1_555 1_555

#END
