
#######################################################################
#
#                 Cambridge Crystallographic Data Centre
#                                CCDC 
#
#######################################################################
#
# If this CIF has been generated from an entry in the Cambridge 
# Structural Database, then it will include bibliographic, chemical, 
# crystal, experimental, refinement or atomic coordinate data resulting 
# from the CCDC's data processing and validation procedures.
#
#######################################################################

data_CEWHOC
_chemical_formula_moiety         'C14 H21 N1 O8,H2 O1'
_chemical_name_systematic        
"(2R,3R,3aS,6R,6aR,3'R,3a'S,6'R,6'aR)-Spiro[6,3',6'-trihydroxyoctahydro[2,3']bi(furo[3,2-b]furan)]-3,2''-[1'',3''-oxazolidine] monohydrate"
_symmetry_cell_setting           orthorhombic
_symmetry_space_group_name_H-M   'P 21 21 21'
_symmetry_Int_Tables_number      19
_space_group_name_Hall           'P 2ac 2ab'
loop_
_symmetry_equiv_pos_site_id
_symmetry_equiv_pos_as_xyz
1 x,y,z
2 1/2-x,-y,1/2+z
3 -x,1/2+y,1/2-z
4 1/2+x,1/2-y,-z
_cell_length_a                   7.9647(16)
_cell_length_b                   8.6633(17)
_cell_length_c                   22.744(5)
_cell_angle_alpha                90
_cell_angle_beta                 90
_cell_angle_gamma                90
_cell_volume                     1569.35
_exptl_crystal_colour            colorless
_exptl_crystal_description       prismatic
_chemical_melting_point          97-98deg.C
_cell_formula_units_Z            4
_exptl_crystal_recrystallization_method isopropanol
loop_
_atom_site_label
_atom_site_type_symbol
_atom_site_fract_x
_atom_site_fract_y
_atom_site_fract_z
O1 O 1.50235(17) 0.80296(15) 0.31673(5)
O2 O 1.39079(19) 0.83921(18) 0.46998(6)
O3 O 1.5886(2) 1.0580(2) 0.25698(9)
O4 O 1.3776(2) 1.08420(17) 0.39565(6)
O5 O 1.20487(16) 0.62320(15) 0.35174(6)
O6 O 1.43837(15) 0.47358(17) 0.43688(6)
O7 O 0.9246(2) 0.5403(2) 0.28457(8)
O8 O 0.98216(16) 0.42669(17) 0.43652(6)
C1 C 1.5274(2) 0.7625(2) 0.37690(8)
H1 H 1.6217 0.8194 0.3930
H2 H 1.5507 0.6530 0.3804
C2 C 1.3665(2) 0.8034(2) 0.40987(8)
C3 C 1.3046(2) 0.9437(2) 0.37345(8)
H3 H 1.1817 0.9495 0.3731
C4 C 1.3739(2) 0.9199(2) 0.31198(8)
H4 H 1.2858 0.8902 0.2841
C5 C 1.4520(3) 1.0754(2) 0.29612(9)
H5 H 1.3669 1.1430 0.2787
C6 C 1.5036(3) 1.1367(2) 0.35537(10)
H6 H 1.6131 1.0971 0.3664
H7 H 1.5083 1.2486 0.3548
C7 C 1.2342(2) 0.6759(2) 0.41059(8)
H8 H 1.1293 0.7206 0.4253
C8 C 1.2701(2) 0.5283(2) 0.44625(8)
C9 C 1.1526(2) 0.4124(2) 0.41628(9)
H9 H 1.1939 0.3065 0.4206
C10 C 1.1532(2) 0.4629(2) 0.35224(9)
H10 H 1.2265 0.3980 0.3280
C11 C 0.9695(2) 0.4505(3) 0.33379(9)
H11 H 0.9458 0.3421 0.3246
C12 C 0.8808(3) 0.4904(3) 0.39075(10)
H12 H 0.8713 0.6015 0.3952
H13 H 0.7691 0.4459 0.3915
N1 N 1.2450(2) 0.5442(2) 0.50908(7)
C13 C 1.5001(3) 0.4125(4) 0.49089(10)
H14 H 1.5976 0.4701 0.5040
H15 H 1.5316 0.3050 0.4862
C14 C 1.3583(3) 0.4279(3) 0.53462(9)
H16 H 1.3007 0.3301 0.5397
H17 H 1.4003 0.4618 0.5725
H18 H 0.930(5) 0.628(4) 0.2925(16)
H19 H 1.579(4) 1.125(4) 0.2316(15)
H21 H 1.466(4) 0.908(3) 0.4759(12)
H23 H 1.283(3) 0.634(3) 0.5168(10)
O9 O 1.8830(3) 0.8666(3) 0.30277(9)
H20 H 1.943(5) 0.951(5) 0.2828(18)
H22 H 1.775(5) 0.896(4) 0.2903(16)
loop_
_geom_bond_atom_site_label_1
_geom_bond_atom_site_label_2
_geom_bond_site_symmetry_1
_geom_bond_site_symmetry_2
O1 C1 1_555 1_555
O2 C2 1_555 1_555
O3 C5 1_555 1_555
O4 C3 1_555 1_555
O5 C7 1_555 1_555
O6 C8 1_555 1_555
O7 C11 1_555 1_555
O8 C9 1_555 1_555
O9 H20 1_555 1_555
C1 H1 1_555 1_555
H2 C1 1_555 1_555
C2 C1 1_555 1_555
C3 C2 1_555 1_555
H3 C3 1_555 1_555
C4 O1 1_555 1_555
H4 C4 1_555 1_555
C5 C4 1_555 1_555
H5 C5 1_555 1_555
C6 O4 1_555 1_555
H6 C6 1_555 1_555
H7 C6 1_555 1_555
C7 C2 1_555 1_555
H8 C7 1_555 1_555
C8 C7 1_555 1_555
C9 C8 1_555 1_555
H9 C9 1_555 1_555
C10 O5 1_555 1_555
H10 C10 1_555 1_555
C11 C10 1_555 1_555
H11 C11 1_555 1_555
C12 O8 1_555 1_555
H12 C12 1_555 1_555
H13 C12 1_555 1_555
N1 C8 1_555 1_555
C13 O6 1_555 1_555
H14 C13 1_555 1_555
H15 C13 1_555 1_555
C14 N1 1_555 1_555
H16 C14 1_555 1_555
H17 C14 1_555 1_555
H18 O7 1_555 1_555
H19 O3 1_555 1_555
H21 O2 1_555 1_555
H22 O9 1_555 1_555
H23 N1 1_555 1_555
C3 C4 1_555 1_555
C5 C6 1_555 1_555
C9 C10 1_555 1_555
C11 C12 1_555 1_555
C13 C14 1_555 1_555

#END
