
#######################################################################
#
#                 Cambridge Crystallographic Data Centre
#                                CCDC 
#
#######################################################################
#
# If this CIF has been generated from an entry in the Cambridge 
# Structural Database, then it will include bibliographic, chemical, 
# crystal, experimental, refinement or atomic coordinate data resulting 
# from the CCDC's data processing and validation procedures.
#
#######################################################################

data_CEWLUO
_chemical_formula_moiety         'C18 H22 Cl1 N3 O5'
_chemical_name_systematic        
3-{[2-(3-chlorophenyl)ethyl]amino}-9,9-dimethoxy-4-nitro-2-azabicyclo[3.3.1]non-3-en-7-one
_symmetry_cell_setting           monoclinic
_symmetry_space_group_name_H-M   'P 21/n'
_symmetry_Int_Tables_number      14
_space_group_name_Hall           '-P 2yn'
loop_
_symmetry_equiv_pos_site_id
_symmetry_equiv_pos_as_xyz
1 x,y,z
2 1/2-x,1/2+y,1/2-z
3 -x,-y,-z
4 1/2+x,1/2-y,1/2+z
_cell_length_a                   7.372(2)
_cell_length_b                   19.312(6)
_cell_length_c                   13.785(4)
_cell_angle_alpha                90
_cell_angle_beta                 105.509(3)
_cell_angle_gamma                90
_cell_volume                     1891.08
_exptl_crystal_colour            colorless
_exptl_crystal_description       block
_cell_formula_units_Z            4
loop_
_atom_site_label
_atom_site_type_symbol
_atom_site_fract_x
_atom_site_fract_y
_atom_site_fract_z
Cl1 Cl 1.2872(3) 0.20497(17) 0.5969(2)
N1 N 0.3123(8) 0.4150(3) 0.5808(5)
N2 N 0.8157(8) 0.4166(3) 0.6268(5)
H1 H 0.8997 0.4174 0.5939
N3 N 0.5913(9) 0.4197(3) 0.4729(5)
H2 H 0.4743 0.4240 0.4414
C1 C 0.6358(9) 0.4178(3) 0.5745(5)
O1 O 0.2455(7) 0.4168(3) 0.4846(4)
O2 O 0.1920(8) 0.4112(3) 0.6339(4)
C2 C 0.8797(10) 0.4141(4) 0.7371(5)
H3 H 1.0035 0.4363 0.7582
C3 C 0.4962(10) 0.4176(3) 0.6291(6)
C4 C 0.5496(10) 0.4203(3) 0.7407(5)
H4 H 0.4559 0.4482 0.7617
O3 O 0.7140(7) 0.5241(3) 0.7425(4)
C5 C 0.7438(10) 0.4562(4) 0.7787(6)
C6 C 0.9001(12) 0.3402(4) 0.7777(7)
H5 H 0.9607 0.3127 0.7365
H6 H 0.9837 0.3411 0.8453
O4 O 0.8214(8) 0.4530(3) 0.8841(4)
C7 C 0.5588(13) 0.3477(4) 0.7912(7)
H7 H 0.5671 0.3539 0.8621
H8 H 0.4429 0.3229 0.7611
O5 O 0.7166(11) 0.2426(3) 0.7867(6)
C8 C 0.9222(12) 0.1849(4) 0.5901(6)
H9 H 0.9646 0.1505 0.6380
C9 C 0.7961(11) 0.2877(4) 0.4460(6)
C10 C 1.0459(11) 0.2228(4) 0.5517(7)
C11 C 0.7254(11) 0.4150(4) 0.4124(6)
H10 H 0.8501 0.4264 0.4539
H11 H 0.6921 0.4485 0.3582
C12 C 0.7219(12) 0.3043(4) 0.7815(6)
C13 C 0.9873(12) 0.2730(4) 0.4823(7)
H12 H 1.0748 0.2978 0.4586
C14 C 0.7331(14) 0.2001(5) 0.5547(8)
H13 H 0.6469 0.1746 0.5784
C15 C 0.6688(11) 0.2511(4) 0.4862(6)
H14 H 0.5411 0.2616 0.4662
C16 C 0.7293(13) 0.3424(4) 0.3676(6)
H15 H 0.6037 0.3306 0.3276
H16 H 0.8114 0.3430 0.3231
C17 C 0.8767(14) 0.5661(4) 0.7533(7)
H17 H 0.8393 0.6117 0.7279
H18 H 0.9565 0.5460 0.7161
H19 H 0.9439 0.5691 0.8232
C18 C 0.7095(16) 0.4862(5) 0.9438(7)
H20 H 0.6688 0.5309 0.9160
H21 H 0.7845 0.4914 1.0120
H22 H 0.6015 0.4581 0.9427
loop_
_geom_bond_atom_site_label_1
_geom_bond_atom_site_label_2
_geom_bond_site_symmetry_1
_geom_bond_site_symmetry_2
Cl1 C10 1_555 1_555
N1 O1 1_555 1_555
N2 H1 1_555 1_555
N3 H2 1_555 1_555
C1 N2 1_555 1_555
O2 N1 1_555 1_555
C2 N2 1_555 1_555
H3 C2 1_555 1_555
C3 N1 1_555 1_555
C4 C3 1_555 1_555
H4 C4 1_555 1_555
O3 C5 1_555 1_555
C5 C2 1_555 1_555
C6 C2 1_555 1_555
H5 C6 1_555 1_555
H6 C6 1_555 1_555
O4 C5 1_555 1_555
C7 C4 1_555 1_555
H7 C7 1_555 1_555
H8 C7 1_555 1_555
O5 C12 1_555 1_555
C8 H9 1_555 1_555
C9 C13 1_555 1_555
C10 C8 1_555 1_555
C11 N3 1_555 1_555
H10 C11 1_555 1_555
H11 C11 1_555 1_555
C12 C6 1_555 1_555
C13 C10 1_555 1_555
H12 C13 1_555 1_555
C14 C8 1_555 1_555
H13 C14 1_555 1_555
C15 C9 1_555 1_555
H14 C15 1_555 1_555
C16 C9 1_555 1_555
H15 C16 1_555 1_555
H16 C16 1_555 1_555
C17 O3 1_555 1_555
H17 C17 1_555 1_555
H18 C17 1_555 1_555
H19 C17 1_555 1_555
C18 O4 1_555 1_555
H20 C18 1_555 1_555
H21 C18 1_555 1_555
H22 C18 1_555 1_555
N3 C1 1_555 1_555
C1 C3 1_555 1_555
C4 C5 1_555 1_555
C7 C12 1_555 1_555
C11 C16 1_555 1_555
C14 C15 1_555 1_555

#END
