
#######################################################################
#
#                 Cambridge Crystallographic Data Centre
#                                CCDC 
#
#######################################################################
#
# If this CIF has been generated from an entry in the Cambridge 
# Structural Database, then it will include bibliographic, chemical, 
# crystal, experimental, refinement or atomic coordinate data resulting 
# from the CCDC's data processing and validation procedures.
#
#######################################################################

data_CEWNEA
_chemical_formula_moiety         'C24 H25 F2 N3 O5'
_chemical_name_systematic        
2-[(4-fluorophenyl)methyl]-3-{[(4-fluorophenyl)methyl]amino}-9,9-dimethoxy-4-nitro-2-azabicyclo[3.3.1]non-3-en-7-one
_symmetry_cell_setting           triclinic
_symmetry_space_group_name_H-M   'P -1'
_symmetry_Int_Tables_number      2
_space_group_name_Hall           '-P 1'
loop_
_symmetry_equiv_pos_site_id
_symmetry_equiv_pos_as_xyz
1 x,y,z
2 -x,-y,-z
_cell_length_a                   8.3233(15)
_cell_length_b                   8.3363(15)
_cell_length_c                   17.223(3)
_cell_angle_alpha                102.674(2)
_cell_angle_beta                 97.734(2)
_cell_angle_gamma                98.563(2)
_cell_volume                     1135.46
_exptl_crystal_colour            colorless
_exptl_crystal_description       block
_cell_formula_units_Z            2
loop_
_atom_site_label
_atom_site_type_symbol
_atom_site_fract_x
_atom_site_fract_y
_atom_site_fract_z
F1 F 1.1523(3) 0.5910(2) 0.07952(12)
N1 N 0.8541(2) 0.1326(2) 0.30079(10)
N2 N 0.6493(3) -0.2537(3) 0.34149(14)
C1 C 1.1180(4) 0.5017(4) 0.13456(18)
C2 C 0.9718(4) 0.3935(4) 0.11999(17)
H1 H 0.8953 0.3813 0.0735
C3 C 0.9396(3) 0.3020(4) 0.17599(15)
H2 H 0.8403 0.2272 0.1666
C4 C 1.0519(3) 0.3194(3) 0.24560(14)
C5 C 1.1976(3) 0.4349(3) 0.25931(17)
H3 H 1.2729 0.4512 0.3067
C6 C 1.2324(4) 0.5262(4) 0.20334(19)
H4 H 1.3308 0.6022 0.2122
C7 C 1.0269(3) 0.2134(3) 0.30512(14)
H5 H 1.0933 0.1270 0.2962
H6 H 1.0674 0.2832 0.3593
C8 C 0.7530(3) 0.2470(3) 0.33983(13)
H7 H 0.8153 0.3615 0.3514
C9 C 0.5876(3) 0.2390(3) 0.28653(15)
H8 H 0.5487 0.3423 0.3054
H9 H 0.6070 0.2345 0.2319
C10 C 0.4524(3) 0.0960(3) 0.28339(16)
C11 C 0.4461(3) 0.0358(4) 0.35918(17)
H10 H 0.3801 -0.0758 0.3460
H11 H 0.3945 0.1092 0.3959
C12 C 0.6216(3) 0.0332(3) 0.40033(14)
H12 H 0.6149 -0.0029 0.4504
C13 C 0.7263(3) 0.2071(3) 0.42066(13)
C14 C 0.8923(4) 0.1811(4) 0.54180(16)
H13 H 0.8089 0.2272 0.5681
H14 H 0.9989 0.2295 0.5741
H15 H 0.8731 0.0621 0.5353
C15 C 0.7187(4) 0.4872(4) 0.49230(18)
H16 H 0.8287 0.4926 0.5195
H17 H 0.6585 0.5466 0.5292
H18 H 0.7235 0.5371 0.4473
C16 C 0.8190(3) -0.0325(3) 0.30020(13)
C17 C 0.7031(3) -0.0858(3) 0.34642(14)
C18 C 0.9441(3) -0.1245(4) 0.17778(15)
H19 H 1.0208 -0.1989 0.1645
H20 H 1.0014 -0.0110 0.1839
C19 C 0.8014(3) -0.1647(3) 0.10854(15)
C20 C 0.8260(4) -0.1312(5) 0.03735(19)
H21 H 0.9318 -0.0829 0.0333
C21 C 0.7045(6) -0.1641(6) -0.0292(2)
N3 N 0.8962(3) -0.1395(3) 0.25519(12)
H22 H 0.9192 -0.2233 0.2732
O1 O 0.88622(19) 0.2178(2) 0.46420(9)
O2 O 0.6378(2) 0.3165(2) 0.46405(10)
O3 O 0.3483(2) 0.0366(3) 0.22385(13)
O4 O 0.7164(3) -0.3667(2) 0.30311(13)
O5 O 0.5356(3) -0.2944(3) 0.37816(14)
H23 H 0.725(5) -0.135(5) -0.076(3)
C22 C 0.556(3) -0.244(5) -0.0213(18)
C23 C 0.5108(10) -0.2033(16) 0.0521(5)
C24 C 0.6362(9) -0.1878(12) 0.1172(4)
H24 H 0.400(4) -0.224(9) 0.057(4)
H25 H 0.602(7) -0.208(8) 0.165(2)
F2 F 0.4395(13) -0.3232(12) -0.0937(6)
C25? C 0.557(4) -0.219(5) -0.0224(18)
C26? C 0.5390(11) -0.3327(17) 0.0398(6)
C27? C 0.6654(12) -0.2873(12) 0.1052(6)
H26? H 0.448(7) -0.411(8) 0.041(5)
H27? H 0.639(9) -0.334(10) 0.147(3)
F3? F 0.4275(11) -0.2090(13) -0.0813(5)
loop_
_geom_bond_atom_site_label_1
_geom_bond_atom_site_label_2
_geom_bond_site_symmetry_1
_geom_bond_site_symmetry_2
F1 C1 1_555 1_555
N1 C7 1_555 1_555
N2 C17 1_555 1_555
C1 C2 1_555 1_555
C2 H1 1_555 1_555
C3 C2 1_555 1_555
H2 C3 1_555 1_555
C4 C3 1_555 1_555
C5 C4 1_555 1_555
H3 C5 1_555 1_555
C6 C1 1_555 1_555
H4 C6 1_555 1_555
C7 C4 1_555 1_555
H5 C7 1_555 1_555
H6 C7 1_555 1_555
C8 N1 1_555 1_555
H7 C8 1_555 1_555
C9 C8 1_555 1_555
H8 C9 1_555 1_555
H9 C9 1_555 1_555
C10 C9 1_555 1_555
C11 C10 1_555 1_555
H10 C11 1_555 1_555
H11 C11 1_555 1_555
C12 C11 1_555 1_555
H12 C12 1_555 1_555
C13 C8 1_555 1_555
C14 H13 1_555 1_555
H14 C14 1_555 1_555
H15 C14 1_555 1_555
C15 H16 1_555 1_555
H17 C15 1_555 1_555
H18 C15 1_555 1_555
C16 N1 1_555 1_555
C17 C12 1_555 1_555
C18 H19 1_555 1_555
H20 C18 1_555 1_555
C19 C18 1_555 1_555
C20 C19 1_555 1_555
H21 C20 1_555 1_555
C21 C20 1_555 1_555
N3 C16 1_555 1_555
H22 N3 1_555 1_555
O1 C13 1_555 1_555
O2 C13 1_555 1_555
O3 C10 1_555 1_555
O4 N2 1_555 1_555
O5 N2 1_555 1_555
H23 C21 1_555 1_555
C22 C21 1_555 1_555
C23 C22 1_555 1_555
C24 C19 1_555 1_555
H24 C23 1_555 1_555
H25 C24 1_555 1_555
F2 C22 1_555 1_555
C5 C6 1_555 1_555
C12 C13 1_555 1_555
C14 O1 1_555 1_555
C15 O2 1_555 1_555
C16 C17 1_555 1_555
C18 N3 1_555 1_555
C23 C24 1_555 1_555

#END
