
#######################################################################
#
#                 Cambridge Crystallographic Data Centre
#                                CCDC 
#
#######################################################################
#
# If this CIF has been generated from an entry in the Cambridge 
# Structural Database, then it will include bibliographic, chemical, 
# crystal, experimental, refinement or atomic coordinate data resulting 
# from the CCDC's data processing and validation procedures.
#
#######################################################################

data_CEWPAY
_chemical_formula_moiety         'C14 H20 O3'
_chemical_name_systematic        
5-hydroxy-3,5-dimethyl-1-(2-methylbutanoyl)bicyclo[4.1.0]hept-3-en-2-one
_symmetry_cell_setting           tetragonal
_symmetry_space_group_name_H-M   'P 41'
_symmetry_Int_Tables_number      76
_space_group_name_Hall           'P 4w'
loop_
_symmetry_equiv_pos_site_id
_symmetry_equiv_pos_as_xyz
1 x,y,z
2 -x,-y,1/2+z
3 -y,x,1/4+z
4 y,-x,3/4+z
_cell_length_a                   13.4241(6)
_cell_length_b                   13.4241(6)
_cell_length_c                   7.2863(4)
_cell_angle_alpha                90
_cell_angle_beta                 90
_cell_angle_gamma                90
_cell_volume                     1313.04
_exptl_crystal_colour            white
_exptl_crystal_description       needle
_cell_formula_units_Z            4
loop_
_atom_site_label
_atom_site_type_symbol
_atom_site_fract_x
_atom_site_fract_y
_atom_site_fract_z
O1 O 0.0435(3) 0.8878(3) 0.7645(5)
H1 H 0.001(5) 0.905(5) 0.673(9)
O2 O 0.1706(3) 0.6220(3) 0.2556(5)
O3 O 0.3339(3) 0.8706(3) 0.2698(7)
C1 C 0.1472(3) 0.6817(3) 0.3734(7)
C2 C 0.1727(3) 0.8466(3) 0.5496(6)
H2 H 0.2266 0.8906 0.5900
C3 C 0.1079(4) 0.8082(4) 0.7010(6)
C4 C 0.1322(4) 0.8699(4) 0.3650(7)
H3 H 0.1594 0.9271 0.3010
H4 H 0.0618 0.8582 0.3441
C5 C 0.0460(4) 0.7198(3) 0.6443(6)
H5 H -0.0093 0.7049 0.7164
C6 C 0.0632(3) 0.6606(3) 0.4997(7)
C7 C 0.1995(3) 0.7789(3) 0.3889(6)
C8 C 0.3757(4) 0.7018(4) 0.3289(7)
H6 H 0.3415 0.6446 0.3837
C9 C 0.0035(4) 0.5691(4) 0.4602(9)
H7 H -0.0292 0.5763 0.3437
H8 H -0.0456 0.5601 0.5546
H9 H 0.0468 0.5123 0.4568
C10 C 0.3045(4) 0.7889(4) 0.3214(7)
C11 C 0.1685(4) 0.7775(5) 0.8674(8)
H10 H 0.2140 0.7255 0.8336
H11 H 0.1245 0.7538 0.9617
H12 H 0.2052 0.8338 0.9123
C12 C 0.4668(5) 0.7269(6) 0.4443(9)
H13 H 0.5171 0.6763 0.4237
H14 H 0.4938 0.7899 0.4026
C13 C 0.4065(5) 0.6752(6) 0.1341(11)
H15 H 0.3483 0.6610 0.0623
H16 H 0.4489 0.6177 0.1365
H17 H 0.4418 0.7302 0.0805
C14 C 0.4469(6) 0.7338(6) 0.6457(10)
H18 H 0.3924 0.7787 0.6669
H19 H 0.5053 0.7581 0.7072
H20 H 0.4302 0.6690 0.6924
loop_
_geom_bond_atom_site_label_1
_geom_bond_atom_site_label_2
_geom_bond_site_symmetry_1
_geom_bond_site_symmetry_2
O1 H1 1_555 1_555
O2 C1 1_555 1_555
O3 C10 1_555 1_555
C1 C6 1_555 1_555
C2 H2 1_555 1_555
C3 O1 1_555 1_555
C4 C2 1_555 1_555
H3 C4 1_555 1_555
H4 C4 1_555 1_555
C5 C3 1_555 1_555
H5 C5 1_555 1_555
C6 C5 1_555 1_555
C7 C1 1_555 1_555
C8 H6 1_555 1_555
C9 C6 1_555 1_555
H7 C9 1_555 1_555
H8 C9 1_555 1_555
H9 C9 1_555 1_555
C10 C7 1_555 1_555
C11 C3 1_555 1_555
H10 C11 1_555 1_555
H11 C11 1_555 1_555
H12 C11 1_555 1_555
C12 C8 1_555 1_555
H13 C12 1_555 1_555
H14 C12 1_555 1_555
C13 C8 1_555 1_555
H15 C13 1_555 1_555
H16 C13 1_555 1_555
H17 C13 1_555 1_555
C14 C12 1_555 1_555
H18 C14 1_555 1_555
H19 C14 1_555 1_555
H20 C14 1_555 1_555
C2 C3 1_555 1_555
C2 C7 1_555 1_555
C4 C7 1_555 1_555
C8 C10 1_555 1_555

#END
