
#######################################################################
#
#                 Cambridge Crystallographic Data Centre
#                                CCDC 
#
#######################################################################
#
# If this CIF has been generated from an entry in the Cambridge 
# Structural Database, then it will include bibliographic, chemical, 
# crystal, experimental, refinement or atomic coordinate data resulting 
# from the CCDC's data processing and validation procedures.
#
#######################################################################

data_CEWXUY
_chemical_formula_moiety         'C28 H18 N4'
_chemical_name_systematic        
1-Methyl-2-(9-anthryl)imidazo(4,5-f)(1,10)phenanthroline
_symmetry_cell_setting           monoclinic
_symmetry_space_group_name_H-M   'P 21/c'
_symmetry_Int_Tables_number      14
_space_group_name_Hall           '-P 2ybc'
loop_
_symmetry_equiv_pos_site_id
_symmetry_equiv_pos_as_xyz
1 x,y,z
2 -x,1/2+y,1/2-z
3 -x,-y,-z
4 x,1/2-y,1/2+z
_cell_length_a                   15.005(11)
_cell_length_b                   7.110(5)
_cell_length_c                   19.023(14)
_cell_angle_alpha                90
_cell_angle_beta                 102.047(19)
_cell_angle_gamma                90
_cell_volume                     1984.78
_exptl_crystal_colour            yellow
_exptl_crystal_description       'thin plate'
_cell_formula_units_Z            4
_exptl_crystal_preparation       luminescent
loop_
_atom_site_label
_atom_site_type_symbol
_atom_site_fract_x
_atom_site_fract_y
_atom_site_fract_z
C1 C 0.4439(6) 0.3853(10) 0.3896(4)
H1 H 0.4078 0.3786 0.4237
C2 C 0.5378(6) 0.3881(11) 0.4145(4)
H2 H 0.5632 0.3816 0.4634
C3 C 0.5926(5) 0.4011(10) 0.3640(4)
H3 H 0.6557 0.4056 0.3786
C4 C 0.5513(5) 0.4073(10) 0.2907(4)
C5 C 0.5995(5) 0.4102(11) 0.2321(4)
C6 C 0.5558(5) 0.4210(11) 0.1626(4)
C7 C 0.4580(5) 0.4169(11) 0.1398(4)
C8 C 0.4093(5) 0.4237(10) 0.0692(4)
H4 H 0.4398 0.4273 0.0313
C9 C 0.3169(5) 0.4249(11) 0.0559(4)
H5 H 0.2833 0.4313 0.0090
C10 C 0.2730(5) 0.4164(11) 0.1133(4)
H6 H 0.2097 0.4194 0.1027
C11 C 0.4086(5) 0.4092(11) 0.1957(4)
C12 C 0.4554(5) 0.3999(11) 0.2716(4)
C13 C 0.6979(5) 0.4366(10) 0.1609(3)
C14 C 0.7855(5) 0.4547(11) 0.1380(3)
C15 C 0.8210(5) 0.7610(10) 0.2007(3)
H7 H 0.7652 0.7593 0.2147
C16 C 0.8790(5) 0.9046(13) 0.2214(4)
H8 H 0.8643 0.9954 0.2523
C17 C 0.9617(6) 0.9208(12) 0.1972(4)
H9 H 0.9991 1.0250 0.2099
C18 C 0.9865(5) 0.7819(11) 0.1549(4)
H10 H 1.0418 0.7903 0.1402
C19 C 0.9281(5) 0.6254(11) 0.1333(4)
C20 C 0.9490(5) 0.4790(12) 0.0886(4)
H11 H 1.0036 0.4860 0.0728
C21 C 0.8936(5) 0.3291(11) 0.0677(4)
C22 C 0.9136(6) 0.1869(11) 0.0187(4)
H12 H 0.9663 0.1992 0.0006
C23 C 0.8592(6) 0.0376(12) -0.0017(4)
H13 H 0.8740 -0.0512 -0.0333
C24 C 0.7794(6) 0.0186(11) 0.0256(4)
H14 H 0.7423 -0.0858 0.0128
C25 C 0.7556(5) 0.1488(11) 0.0702(4)
H15 H 0.7026 0.1312 0.0873
C26 C 0.8095(5) 0.3126(11) 0.0916(4)
C27 C 0.8439(5) 0.6107(11) 0.1575(3)
C28 C 0.7695(4) 0.4017(10) 0.2927(3)
H16 H 0.8253 0.4164 0.2762
H17 H 0.7680 0.2793 0.3138
H18 H 0.7659 0.4963 0.3280
N1 N 0.3144(4) 0.4043(9) 0.1825(3)
N2 N 0.4016(4) 0.3913(8) 0.3207(3)
N3 N 0.6920(4) 0.4215(8) 0.2319(3)
N4 N 0.6179(4) 0.4314(8) 0.1172(3)
loop_
_geom_bond_atom_site_label_1
_geom_bond_atom_site_label_2
_geom_bond_site_symmetry_1
_geom_bond_site_symmetry_2
C1 H1 1_555 1_555
C2 C1 1_555 1_555
H2 C2 1_555 1_555
C3 C2 1_555 1_555
H3 C3 1_555 1_555
C4 C3 1_555 1_555
C5 C4 1_555 1_555
C6 C5 1_555 1_555
C7 C6 1_555 1_555
C8 C7 1_555 1_555
H4 C8 1_555 1_555
C9 C8 1_555 1_555
H5 C9 1_555 1_555
C10 C9 1_555 1_555
H6 C10 1_555 1_555
C11 C7 1_555 1_555
C12 C4 1_555 1_555
C13 C14 1_555 1_555
C14 C26 1_555 1_555
C15 H7 1_555 1_555
C16 C15 1_555 1_555
H8 C16 1_555 1_555
C17 C16 1_555 1_555
H9 C17 1_555 1_555
C18 C17 1_555 1_555
H10 C18 1_555 1_555
C19 C18 1_555 1_555
C20 C19 1_555 1_555
H11 C20 1_555 1_555
C21 C20 1_555 1_555
C22 C21 1_555 1_555
H12 C22 1_555 1_555
C23 C22 1_555 1_555
H13 C23 1_555 1_555
C24 C23 1_555 1_555
H14 C24 1_555 1_555
C25 C24 1_555 1_555
H15 C25 1_555 1_555
C26 C21 1_555 1_555
C27 C14 1_555 1_555
C28 H16 1_555 1_555
H17 C28 1_555 1_555
H18 C28 1_555 1_555
N1 C10 1_555 1_555
N2 C1 1_555 1_555
N3 C5 1_555 1_555
N4 C6 1_555 1_555
C11 C12 1_555 1_555
C11 N1 1_555 1_555
C12 N2 1_555 1_555
C13 N3 1_555 1_555
C13 N4 1_555 1_555
C15 C27 1_555 1_555
C19 C27 1_555 1_555
C25 C26 1_555 1_555
C28 N3 1_555 1_555

#END
