
#######################################################################
#
#                 Cambridge Crystallographic Data Centre
#                                CCDC 
#
#######################################################################
#
# If this CIF has been generated from an entry in the Cambridge 
# Structural Database, then it will include bibliographic, chemical, 
# crystal, experimental, refinement or atomic coordinate data resulting 
# from the CCDC's data processing and validation procedures.
#
#######################################################################

data_CEWXAG
_chemical_formula_moiety         'C28 H17 N5,C1 H2 Cl2'
_chemical_name_systematic        
"2,2'-(2-t-butylbenzo[1,2]indolizino[6,5,4,3-ija]quinoline-4,11-diylidene)dipropanedinitrile dichloromethane solvate"
_symmetry_cell_setting           monoclinic
_symmetry_space_group_name_H-M   'P 21/n'
_symmetry_Int_Tables_number      14
_space_group_name_Hall           '-P 2yn'
loop_
_symmetry_equiv_pos_site_id
_symmetry_equiv_pos_as_xyz
1 x,y,z
2 1/2-x,1/2+y,1/2-z
3 -x,-y,-z
4 1/2+x,1/2-y,1/2+z
_cell_length_a                   7.1712(5)
_cell_length_b                   34.461(3)
_cell_length_c                   10.3979(6)
_cell_angle_alpha                90
_cell_angle_beta                 105.356(5)
_cell_angle_gamma                90
_cell_volume                     2477.86
_exptl_crystal_colour            brown
_exptl_crystal_description       plate
_cell_formula_units_Z            4
_exptl_crystal_recrystallization_method dichloromethane/hexane
loop_
_atom_site_label
_atom_site_type_symbol
_atom_site_fract_x
_atom_site_fract_y
_atom_site_fract_z
C1 C 0.2492(6) 0.27899(12) 0.5980(4)
C2 C 0.1944(6) 0.23811(12) 0.5796(4)
C3 C 0.0265(6) 0.21935(13) 0.5268(4)
H1 H -0.0882 0.2340 0.4923
C4 C 0.0177(6) 0.17801(13) 0.5216(4)
C5 C 0.1969(5) 0.15634(12) 0.5844(4)
C6 C 0.2093(6) 0.11598(13) 0.5954(4)
H2 H 0.0970 0.1010 0.5576
C7 C 0.3793(6) 0.09682(13) 0.6595(4)
C8 C 0.5425(6) 0.11938(13) 0.7117(4)
H3 H 0.6588 0.1065 0.7563
C9 C 0.5460(6) 0.15925(13) 0.7027(4)
C10 C 0.7168(5) 0.18368(13) 0.7542(4)
C11 C 0.6949(6) 0.22478(13) 0.7421(4)
H4 H 0.8035 0.2412 0.7752
C12 C 0.5204(6) 0.24056(12) 0.6838(4)
C13 C 0.4506(6) 0.28029(12) 0.6603(4)
C14 C 0.5467(6) 0.31551(12) 0.6901(4)
H5 H 0.6819 0.3164 0.7305
C15 C 0.4385(7) 0.34932(14) 0.6592(4)
H6 H 0.5001 0.3738 0.6799
C16 C 0.2414(7) 0.34774(14) 0.5984(4)
H7 H 0.1709 0.3713 0.5769
C17 C 0.1447(7) 0.31250(13) 0.5682(4)
H8 H 0.0094 0.3118 0.5278
C18 C 0.3673(5) 0.17762(12) 0.6389(4)
N1 N 0.3618(4) 0.21717(10) 0.6324(3)
C19 C -0.1602(6) 0.16061(13) 0.4605(4)
C20 C -0.3296(6) 0.18347(14) 0.4131(4)
N2 N -0.4701(5) 0.20088(13) 0.3765(4)
C21 C -0.1979(6) 0.12025(16) 0.4330(4)
N3 N -0.2349(6) 0.08834(14) 0.4081(5)
C22 C 0.3928(6) 0.05278(13) 0.6782(5)
C23 C 0.2061(8) 0.03252(15) 0.6001(6)
H9 H 0.1787 0.0395 0.5056
H10 H 0.0984 0.0408 0.6352
H11 H 0.2222 0.0043 0.6099
C24 C 0.4266(7) 0.04367(15) 0.8264(5)
H12 H 0.3211 0.0546 0.8585
H13 H 0.5497 0.0550 0.8764
H14 H 0.4308 0.0155 0.8393
C25 C 0.5622(8) 0.03734(14) 0.6308(5)
H15 H 0.5445 0.0443 0.5369
H16 H 0.5684 0.0090 0.6403
H17 H 0.6828 0.0488 0.6846
C26 C 0.9022(6) 0.16888(13) 0.8140(4)
C27 C 0.9572(6) 0.12950(15) 0.8371(4)
N4 N 1.0097(6) 0.09805(14) 0.8575(5)
C28 C 1.0627(6) 0.19471(14) 0.8573(4)
N5 N 1.1957(6) 0.21455(13) 0.8906(4)
C29 C 0.1614(9) 0.03759(18) 0.1076(6)
H18 H 0.1253 0.0459 0.0131
H19 H 0.2069 0.0104 0.1108
Cl1 Cl -0.0400(3) 0.03949(6) 0.1676(2)
Cl2 Cl 0.3494(3) 0.06664(6) 0.1970(2)
loop_
_geom_bond_atom_site_label_1
_geom_bond_atom_site_label_2
_geom_bond_site_symmetry_1
_geom_bond_site_symmetry_2
C1 C2 1_555 1_555
C2 C3 1_555 1_555
C3 H1 1_555 1_555
C4 C3 1_555 1_555
C5 C4 1_555 1_555
C6 C5 1_555 1_555
H2 C6 1_555 1_555
C7 C6 1_555 1_555
C8 C7 1_555 1_555
H3 C8 1_555 1_555
C9 C8 1_555 1_555
C10 C9 1_555 1_555
C11 C10 1_555 1_555
H4 C11 1_555 1_555
C12 C11 1_555 1_555
C13 C1 1_555 1_555
C14 C13 1_555 1_555
H5 C14 1_555 1_555
C15 C14 1_555 1_555
H6 C15 1_555 1_555
C16 C15 1_555 1_555
H7 C16 1_555 1_555
C17 C1 1_555 1_555
H8 C17 1_555 1_555
C18 C5 1_555 1_555
N1 C2 1_555 1_555
C19 C4 1_555 1_555
C20 C19 1_555 1_555
N2 C20 1_555 1_555
C21 C19 1_555 1_555
N3 C21 1_555 1_555
C22 C7 1_555 1_555
C23 C22 1_555 1_555
H9 C23 1_555 1_555
H10 C23 1_555 1_555
H11 C23 1_555 1_555
C24 C22 1_555 1_555
H12 C24 1_555 1_555
H13 C24 1_555 1_555
H14 C24 1_555 1_555
C25 C22 1_555 1_555
H15 C25 1_555 1_555
H16 C25 1_555 1_555
H17 C25 1_555 1_555
C26 C10 1_555 1_555
C27 C26 1_555 1_555
N4 C27 1_555 1_555
C28 C26 1_555 1_555
N5 C28 1_555 1_555
C29 H18 1_555 1_555
H19 C29 1_555 1_555
Cl1 C29 1_555 1_555
Cl2 C29 1_555 1_555
C9 C18 1_555 1_555
C12 C13 1_555 1_555
C12 N1 1_555 1_555
C16 C17 1_555 1_555
C18 N1 1_555 1_555

#END
