
#######################################################################
#
#                 Cambridge Crystallographic Data Centre
#                                CCDC 
#
#######################################################################
#
# If this CIF has been generated from an entry in the Cambridge 
# Structural Database, then it will include bibliographic, chemical, 
# crystal, experimental, refinement or atomic coordinate data resulting 
# from the CCDC's data processing and validation procedures.
#
#######################################################################

data_CEWYAF
_chemical_formula_moiety         'C31 H26'
_chemical_name_systematic        9,9-Diethyl-2-(biphenyl-4-ethynyl)fluorene
_symmetry_cell_setting           triclinic
_symmetry_space_group_name_H-M   'P -1'
_symmetry_Int_Tables_number      2
_space_group_name_Hall           '-P 1'
loop_
_symmetry_equiv_pos_site_id
_symmetry_equiv_pos_as_xyz
1 x,y,z
2 -x,-y,-z
_cell_length_a                   10.505(3)
_cell_length_b                   15.530(5)
_cell_length_c                   15.743(5)
_cell_angle_alpha                112.326(6)
_cell_angle_beta                 97.295(6)
_cell_angle_gamma                96.990(7)
_cell_volume                     2315.83
_exptl_crystal_colour            colorless
_exptl_crystal_description       plate
_cell_formula_units_Z            4
_exptl_crystal_recrystallization_method dichloromethane/hexane
loop_
_atom_site_label
_atom_site_type_symbol
_atom_site_fract_x
_atom_site_fract_y
_atom_site_fract_z
C1 C 0.9028(2) 0.19458(17) 0.42272(17)
C2 C 0.9962(2) 0.16886(17) 0.47549(17)
H1 H 1.0355 0.1169 0.4458
C3 C 1.0307(2) 0.21941(16) 0.57092(16)
C4 C 0.9731(2) 0.29740(15) 0.61472(17)
C5 C 0.8791(2) 0.32202(17) 0.56321(19)
H2 H 0.8389 0.3734 0.5931
C6 C 0.8442(2) 0.27109(18) 0.46791(19)
H3 H 0.7802 0.2881 0.4330
C7 C 1.1283(2) 0.20398(16) 0.64140(16)
C8 C 1.1197(2) 0.28477(17) 0.73123(17)
C9 C 1.1876(3) 0.30892(19) 0.82125(18)
H4 H 1.2457 0.2715 0.8330
C10 C 1.1687(3) 0.3884(2) 0.89306(19)
H5 H 1.2147 0.4054 0.9541
C11 C 1.0830(3) 0.44346(19) 0.8764(2)
H6 H 1.0717 0.4976 0.9262
C12 C 1.0133(3) 0.42022(17) 0.78740(19)
H7 H 0.9553 0.4579 0.7762
C13 C 1.0317(2) 0.33913(16) 0.71483(17)
C14 C 1.0866(3) 0.10625(17) 0.64475(18)
H8 H 1.0970 0.0567 0.5862
H9 H 1.1461 0.1021 0.6957
C15 C 0.9479(3) 0.08591(19) 0.6586(2)
H10 H 0.9306 0.0237 0.6600
H11 H 0.8876 0.0877 0.6075
H12 H 0.9368 0.1334 0.7173
C16 C 1.2675(2) 0.21174(18) 0.62008(17)
H13 H 1.3266 0.2043 0.6693
H14 H 1.2680 0.1590 0.5610
C17 C 1.3213(3) 0.3038(2) 0.61302(19)
H15 H 1.4085 0.3020 0.5991
H16 H 1.3247 0.3566 0.6720
H17 H 1.2650 0.3114 0.5636
C18 C 0.8697(2) 0.14430(18) 0.3224(2)
C19 C 0.8453(2) 0.10392(18) 0.2390(2)
C20 C 0.8150(2) 0.05575(17) 0.13920(17)
C21 C 0.8766(2) -0.01782(17) 0.09149(18)
H18 H 0.9404 -0.0362 0.1252
C22 C 0.8452(2) -0.06379(17) -0.00418(18)
H19 H 0.8886 -0.1131 -0.0346
C23 C 0.7510(2) -0.03970(16) -0.05777(16)
C24 C 0.6902(2) 0.03464(17) -0.00978(17)
H20 H 0.6266 0.0531 -0.0436
C25 C 0.7217(2) 0.08158(17) 0.08630(18)
H21 H 0.6799 0.1318 0.1167
C26 C 0.7144(2) -0.09097(17) -0.16078(17)
C27 C 0.8018(3) -0.13545(18) -0.21448(19)
H22 H 0.8868 -0.1325 -0.1849
C28 C 0.7660(3) -0.1837(2) -0.3100(2)
H23 H 0.8270 -0.2123 -0.3449
C29 C 0.6415(4) -0.1903(2) -0.3547(2)
H24 H 0.6172 -0.2239 -0.4199
C30 C 0.5525(3) -0.1474(2) -0.3036(2)
H25 H 0.4673 -0.1516 -0.3337
C31 C 0.5892(3) -0.09844(19) -0.20828(19)
H26 H 0.5280 -0.0691 -0.1740
C32 C 0.5817(2) 0.31210(17) 0.10140(16)
C33 C 0.4753(2) 0.23676(18) 0.06384(18)
H27 H 0.4253 0.2226 0.1039
C34 C 0.4427(2) 0.18300(17) -0.03120(18)
H28 H 0.3708 0.1326 -0.0558
C35 C 0.5168(2) 0.20379(15) -0.09028(16)
C36 C 0.6220(2) 0.28036(16) -0.05376(16)
C37 C 0.6550(2) 0.33431(16) 0.04175(16)
H29 H 0.7259 0.3854 0.0662
C38 C 0.6890(2) 0.28898(16) -0.13049(15)
C39 C 0.6073(2) 0.20643(16) -0.21612(16)
C40 C 0.5096(2) 0.15684(16) -0.19139(16)
C41 C 0.4285(2) 0.07545(17) -0.25792(19)
H30 H 0.3628 0.0417 -0.2412
C42 C 0.4467(3) 0.04527(19) -0.3494(2)
H31 H 0.3931 -0.0101 -0.3952
C43 C 0.5419(3) 0.0947(2) -0.37492(19)
H32 H 0.5520 0.0732 -0.4377
C44 C 0.6229(3) 0.17625(18) -0.30824(17)
H33 H 0.6874 0.2104 -0.3255
C45 C 0.6860(2) 0.38502(17) -0.13830(17)
H34 H 0.7455 0.4347 -0.0842
H35 H 0.7191 0.3828 -0.1944
C46 C 0.5519(3) 0.41216(19) -0.14318(19)
H36 H 0.5585 0.4730 -0.1479
H37 H 0.5190 0.4164 -0.0871
H38 H 0.4926 0.3644 -0.1976
C47 C 0.8318(2) 0.27506(16) -0.11606(16)
H39 H 0.8693 0.2766 -0.1695
H40 H 0.8813 0.3287 -0.0601
C48 C 0.8510(2) 0.18418(18) -0.10532(18)
H41 H 0.9434 0.1818 -0.0964
H42 H 0.8051 0.1302 -0.1611
H43 H 0.8166 0.1824 -0.0515
C49 C 0.6193(2) 0.36318(18) 0.20092(19)
C50 C 0.6534(3) 0.40283(18) 0.28436(19)
C51 C 0.6947(2) 0.44969(17) 0.38369(17)
C52 C 0.8111(3) 0.51516(19) 0.42275(18)
H44 H 0.8631 0.5287 0.3833
C53 C 0.8513(2) 0.56028(18) 0.51795(18)
H45 H 0.9297 0.6048 0.5423
C54 C 0.7786(2) 0.54184(17) 0.57955(16)
C55 C 0.6623(2) 0.47560(18) 0.53951(17)
H46 H 0.6112 0.4610 0.5788
C56 C 0.6205(2) 0.43105(18) 0.44403(17)
H47 H 0.5410 0.3877 0.4194
C57 C 0.8242(2) 0.58814(16) 0.68308(17)
C58 C 0.9547(3) 0.62796(19) 0.72206(19)
H48 H 1.0148 0.6263 0.6823
C59 C 0.9985(3) 0.6700(2) 0.8179(2)
H49 H 1.0873 0.6966 0.8426
C60 C 0.9114(4) 0.6727(2) 0.8773(2)
H50 H 0.9406 0.7008 0.9424
C61 C 0.7815(3) 0.6339(2) 0.8403(2)
H51 H 0.7218 0.6352 0.8803
C62 C 0.7387(3) 0.59309(19) 0.74462(18)
H52 H 0.6495 0.5680 0.7205
loop_
_geom_bond_atom_site_label_1
_geom_bond_atom_site_label_2
_geom_bond_site_symmetry_1
_geom_bond_site_symmetry_2
C1 C2 1_555 1_555
C2 H1 1_555 1_555
C3 C2 1_555 1_555
C4 C3 1_555 1_555
C5 C4 1_555 1_555
H2 C5 1_555 1_555
C6 C1 1_555 1_555
H3 C6 1_555 1_555
C7 C3 1_555 1_555
C8 C7 1_555 1_555
C9 C8 1_555 1_555
H4 C9 1_555 1_555
C10 C9 1_555 1_555
H5 C10 1_555 1_555
C11 C10 1_555 1_555
H6 C11 1_555 1_555
C12 C11 1_555 1_555
H7 C12 1_555 1_555
C13 C4 1_555 1_555
C14 C7 1_555 1_555
H8 C14 1_555 1_555
H9 C14 1_555 1_555
C15 C14 1_555 1_555
H10 C15 1_555 1_555
H11 C15 1_555 1_555
H12 C15 1_555 1_555
C16 C7 1_555 1_555
H13 C16 1_555 1_555
H14 C16 1_555 1_555
C17 C16 1_555 1_555
H15 C17 1_555 1_555
H16 C17 1_555 1_555
H17 C17 1_555 1_555
C18 C1 1_555 1_555
C19 C18 1_555 1_555
C20 C19 1_555 1_555
C21 C20 1_555 1_555
H18 C21 1_555 1_555
C22 C21 1_555 1_555
H19 C22 1_555 1_555
C23 C22 1_555 1_555
C24 C23 1_555 1_555
H20 C24 1_555 1_555
C25 C20 1_555 1_555
H21 C25 1_555 1_555
C26 C23 1_555 1_555
C27 C26 1_555 1_555
H22 C27 1_555 1_555
C28 C27 1_555 1_555
H23 C28 1_555 1_555
C29 C28 1_555 1_555
H24 C29 1_555 1_555
C30 C29 1_555 1_555
H25 C30 1_555 1_555
C31 C26 1_555 1_555
H26 C31 1_555 1_555
C32 C33 1_555 1_555
C33 H27 1_555 1_555
C34 C33 1_555 1_555
H28 C34 1_555 1_555
C35 C34 1_555 1_555
C36 C35 1_555 1_555
C37 C32 1_555 1_555
H29 C37 1_555 1_555
C38 C36 1_555 1_555
C39 C38 1_555 1_555
C40 C35 1_555 1_555
C41 C40 1_555 1_555
H30 C41 1_555 1_555
C42 C41 1_555 1_555
H31 C42 1_555 1_555
C43 C42 1_555 1_555
H32 C43 1_555 1_555
C44 C39 1_555 1_555
H33 C44 1_555 1_555
C45 C38 1_555 1_555
H34 C45 1_555 1_555
H35 C45 1_555 1_555
C46 C45 1_555 1_555
H36 C46 1_555 1_555
H37 C46 1_555 1_555
H38 C46 1_555 1_555
C47 C38 1_555 1_555
H39 C47 1_555 1_555
H40 C47 1_555 1_555
C48 C47 1_555 1_555
H41 C48 1_555 1_555
H42 C48 1_555 1_555
H43 C48 1_555 1_555
C49 C32 1_555 1_555
C50 C49 1_555 1_555
C51 C50 1_555 1_555
C52 C51 1_555 1_555
H44 C52 1_555 1_555
C53 C52 1_555 1_555
H45 C53 1_555 1_555
C54 C53 1_555 1_555
C55 C54 1_555 1_555
H46 C55 1_555 1_555
C56 C51 1_555 1_555
H47 C56 1_555 1_555
C57 C54 1_555 1_555
C58 C57 1_555 1_555
H48 C58 1_555 1_555
C59 C58 1_555 1_555
H49 C59 1_555 1_555
C60 C59 1_555 1_555
H50 C60 1_555 1_555
C61 C60 1_555 1_555
H51 C61 1_555 1_555
C62 C57 1_555 1_555
H52 C62 1_555 1_555
C5 C6 1_555 1_555
C8 C13 1_555 1_555
C12 C13 1_555 1_555
C24 C25 1_555 1_555
C30 C31 1_555 1_555
C36 C37 1_555 1_555
C39 C40 1_555 1_555
C43 C44 1_555 1_555
C55 C56 1_555 1_555
C61 C62 1_555 1_555

#END
