
#######################################################################
#
#                 Cambridge Crystallographic Data Centre
#                                CCDC 
#
#######################################################################
#
# If this CIF has been generated from an entry in the Cambridge 
# Structural Database, then it will include bibliographic, chemical, 
# crystal, experimental, refinement or atomic coordinate data resulting 
# from the CCDC's data processing and validation procedures.
#
#######################################################################

data_CEWZEL
_chemical_formula_moiety         'C28 H27 Cl1 N1 O5 P1 S1,0.17(C3 H6 O1)'
_chemical_name_systematic        
'4-Chloro-2-(1-(((4-methylphenyl)sulfonyl)amino)ethyl)phenyl (2-methoxyphenyl)phenylphosphinate  acetone solvate'
_symmetry_cell_setting           triclinic
_symmetry_space_group_name_H-M   'P 1'
_symmetry_Int_Tables_number      1
_space_group_name_Hall           'P 1'
loop_
_symmetry_equiv_pos_site_id
_symmetry_equiv_pos_as_xyz
1 x,y,z
_cell_length_a                   11.1407(16)
_cell_length_b                   16.183(2)
_cell_length_c                   24.973(3)
_cell_angle_alpha                72.512(2)
_cell_angle_beta                 82.413(2)
_cell_angle_gamma                78.799(2)
_cell_volume                     4199.41
_cell_formula_units_Z            6
loop_
_atom_site_label
_atom_site_type_symbol
_atom_site_fract_x
_atom_site_fract_y
_atom_site_fract_z
Cl1 Cl 0.3670(2) -0.02598(19) -0.02798(10)
S1 S 0.5340(2) 0.12153(14) 0.13855(8)
P1 P 0.98218(16) -0.07141(12) 0.03033(8)
O1 O 0.4276(6) 0.1754(4) 0.1567(2)
O2 O 0.5369(5) 0.0291(3) 0.1498(2)
O3 O 1.0382(5) 0.1076(3) 0.0185(2)
O4 O 0.9743(4) -0.1657(3) 0.05259(19)
O5 O 0.8547(4) -0.0062(3) 0.02871(18)
N1 N 0.5563(6) 0.1629(4) 0.0717(2)
H1 H 0.5049 0.2074 0.0530
C1 C 1.1470(7) 0.0698(5) 0.1020(3)
H2 H 1.1638 0.1278 0.0942
C2 C 1.1864(8) 0.0058(6) 0.1498(3)
H3 H 1.2309 0.0200 0.1748
C3 C 0.7410(6) -0.0139(5) 0.0138(3)
C4 C 1.1622(7) -0.0787(6) 0.1617(3)
H4 H 1.1871 -0.1219 0.1953
C5 C 0.6433(6) 0.0504(5) 0.0220(3)
C6 C 1.1837(7) -0.1033(5) -0.1106(3)
H5 H 1.2365 -0.1502 -0.1213
C7 C 1.0823(7) 0.0481(5) 0.0657(3)
C8 C 1.1638(7) -0.0215(5) -0.1489(3)
H6 H 1.2028 -0.0121 -0.1859
C9 C 0.6643(8) 0.1354(6) 0.1672(4)
C10 C 0.6784(11) 0.2191(7) 0.1624(4)
H7 H 0.6162 0.2673 0.1484
C11 C 1.0491(10) 0.1981(6) 0.0085(4)
H8 H 1.0113 0.2333 -0.0262
H9 H 1.1361 0.2037 0.0047
H10 H 1.0074 0.2191 0.0402
C12 C 0.7168(7) 0.1942(5) -0.0045(3)
H11 H 0.7895 0.1685 -0.0243
H12 H 0.7390 0.2372 0.0113
H13 H 0.6535 0.2232 -0.0309
C13 C 1.0319(7) 0.0359(5) -0.0794(3)
H14 H 0.9824 0.0843 -0.0690
C14 C 0.6679(6) 0.1226(5) 0.0425(3)
H15 H 0.7317 0.0970 0.0702
C15 C 0.6094(7) -0.0832(5) -0.0211(3)
H16 H 0.5971 -0.1286 -0.0356
C16 C 1.1007(7) -0.0992(5) 0.1238(3)
H17 H 1.0856 -0.1575 0.1312
C17 C 1.0502(6) -0.0475(5) -0.0403(3)
C18 C 1.1270(7) -0.1175(5) -0.0563(3)
H18 H 1.1400 -0.1742 -0.0301
C19 C 1.0609(7) -0.0364(5) 0.0754(3)
C20 C 0.7268(7) -0.0800(5) -0.0087(3)
H19 H 0.7952 -0.1219 -0.0154
C21 C 0.5132(7) -0.0217(6) -0.0126(3)
C22 C 0.5282(7) 0.0454(6) 0.0086(3)
H20 H 0.4596 0.0881 0.0139
C23 C 0.7522(9) 0.0655(7) 0.1871(4)
H21 H 0.7406 0.0076 0.1900
C24 C 1.0872(8) 0.0465(5) -0.1334(3)
H22 H 1.0720 0.1021 -0.1606
C25 C 0.8608(9) 0.0802(8) 0.2035(4)
H23 H 0.9224 0.0316 0.2176
C26 C 0.8790(12) 0.1626(10) 0.1995(5)
C27 C 0.9957(11) 0.1788(10) 0.2177(5)
H24 H 0.9773 0.2314 0.2310
H25 H 1.0576 0.1872 0.1857
H26 H 1.0271 0.1281 0.2483
C28 C 0.7870(14) 0.2320(8) 0.1787(5)
H27 H 0.7981 0.2901 0.1755
Cl2 Cl 0.4805(2) 0.62387(16) 0.63398(10)
S2 S 0.56124(18) 0.81381(12) 0.80824(8)
P2 P 1.06069(17) 0.60467(12) 0.71866(8)
O6 O 0.6273(5) 0.7321(3) 0.8394(2)
O7 O 1.0959(5) 0.7892(3) 0.7117(2)
O8 O 0.4290(4) 0.8299(3) 0.8138(2)
O9 O 0.9283(4) 0.6646(3) 0.71659(18)
O10 O 1.0605(4) 0.5086(3) 0.74054(19)
N2 N 0.6017(5) 0.8246(4) 0.7424(2)
H28 H 0.5482 0.8524 0.7174
C29 C 0.5653(8) 1.0437(5) 0.8371(3)
H29 H 0.5084 1.0957 0.8370
C30 C 1.1735(7) 0.7339(5) 0.5568(3)
H30 H 1.1643 0.7921 0.5323
C31 C 0.8271(6) 0.5852(5) 0.6717(3)
H31 H 0.9005 0.5449 0.6690
C32 C 1.2056(7) 0.7514(5) 0.7946(4)
H32 H 1.2168 0.8104 0.7883
C33 C 0.7685(8) 0.9613(5) 0.8466(3)
H33 H 0.8517 0.9569 0.8535
C34 C 1.1199(7) 0.7168(5) 0.6108(3)
H34 H 1.0752 0.7642 0.6240
C35 C 0.5262(7) 0.9741(5) 0.8261(3)
H35 H 0.4430 0.9782 0.8193
C36 C 1.2330(7) 0.6000(5) 0.8515(3)
H36 H 1.2606 0.5565 0.8845
C37 C 0.7845(7) 0.8621(5) 0.6803(3)
H37 H 0.7900 0.9077 0.6979
H38 H 0.7341 0.8877 0.6481
H39 H 0.8669 0.8379 0.6673
C38 C 1.1956(7) 0.5621(5) 0.6283(3)
H40 H 1.2032 0.5038 0.6525
C39 C 1.1466(7) 0.7282(5) 0.7576(3)
C40 C 0.7204(7) 0.5763(5) 0.6526(3)
H41 H 0.7192 0.5293 0.6374
C41 C 0.6858(8) 1.0386(5) 0.8482(3)
C42 C 0.6154(7) 0.6369(5) 0.6560(3)
C43 C 0.6091(7) 0.8997(5) 0.8251(3)
C44 C 1.2422(7) 0.6638(5) 0.5384(3)
H42 H 1.2830 0.6746 0.5017
C45 C 1.2506(8) 0.5790(6) 0.5736(3)
H43 H 1.2946 0.5317 0.5603
C46 C 1.1771(6) 0.5781(5) 0.8128(3)
H44 H 1.1689 0.5187 0.8185
C47 C 0.7323(7) 0.8926(5) 0.8353(3)
H45 H 0.7894 0.8410 0.8343
C48 C 1.1292(6) 0.6316(5) 0.6471(3)
C49 C 1.1323(6) 0.6424(4) 0.7653(3)
C50 C 0.7255(6) 0.7888(4) 0.7234(3)
H46 H 0.7762 0.7645 0.7565
C51 C 0.7200(6) 0.7144(5) 0.6979(3)
C52 C 0.6153(7) 0.7053(5) 0.6781(3)
H47 H 0.5424 0.7464 0.6797
C53 C 0.8252(6) 0.6535(5) 0.6946(3)
C54 C 1.2484(7) 0.6861(5) 0.8414(4)
H48 H 1.2894 0.7010 0.8674
C55 C 0.7248(8) 1.1126(5) 0.8619(3)
H49 H 0.6764 1.1683 0.8420
H50 H 0.8121 1.1136 0.8500
H51 H 0.7115 1.1047 0.9026
C56 C 1.1022(9) 0.8805(5) 0.7027(4)
H52 H 1.0620 0.9158 0.6686
H53 H 1.1883 0.8884 0.6982
H54 H 1.0605 0.8995 0.7351
Cl3 Cl 1.08840(18) 0.11013(14) 0.69743(8)
S3 S 0.96531(17) -0.02822(12) 0.50616(8)
P3 P 0.50256(17) 0.07298(13) 0.63875(8)
O11 O 0.9296(5) -0.0818(3) 0.5605(2)
O12 O 0.6363(4) 0.0868(3) 0.60954(18)
O13 O 1.0853(4) -0.0495(3) 0.4798(2)
O14 O 0.4996(4) -0.0042(3) 0.68826(19)
O15 O 0.4899(5) 0.1874(3) 0.51856(19)
N3 N 0.9536(5) 0.0701(4) 0.5100(2)
H55 H 1.0147 0.0998 0.4971
C57 C 0.4374(6) 0.1706(5) 0.6580(3)
C58 C 0.7397(7) 0.0905(5) 0.6895(3)
H56 H 0.6677 0.0843 0.7143
C59 C 0.8055(7) 0.2053(5) 0.5033(3)
H57 H 0.7915 0.2096 0.4645
H58 H 0.8731 0.2363 0.5029
H59 H 0.7308 0.2320 0.5213
C60 C 0.3144(7) 0.0287(5) 0.5011(4)
H60 H 0.2726 0.0183 0.4735
C61 C 0.3128(8) -0.0278(6) 0.5544(4)
H61 H 0.2727 -0.0775 0.5632
C62 C 0.8478(7) 0.0966(5) 0.7090(3)
H62 H 0.8499 0.0955 0.7471
C63 C 0.3755(7) 0.1011(5) 0.4859(3)
H63 H 0.3782 0.1386 0.4485
C64 C 0.4514(7) 0.2555(5) 0.6250(3)
H64 H 0.4953 0.2637 0.5890
C65 C 0.3699(6) 0.1609(5) 0.7101(3)
H65 H 0.3596 0.1037 0.7330
C66 C 0.9526(6) 0.1049(4) 0.6179(3)
H66 H 1.0260 0.1090 0.5939
C67 C 0.8377(6) 0.1104(5) 0.5355(3)
H67 H 0.7708 0.0794 0.5322
C68 C 0.3705(7) -0.0117(5) 0.5953(3)
H68 H 0.3689 -0.0503 0.6324
C69 C 0.8445(6) 0.0996(4) 0.5977(3)
C70 C 0.4304(6) 0.0601(5) 0.5826(3)
C71 C 0.7373(6) 0.0935(4) 0.6344(3)
C72 C 0.6525(8) -0.0337(7) 0.4447(5)
H69 H 0.5723 -0.0449 0.4592
C73 C 0.4956(8) 0.2459(5) 0.4625(3)
H70 H 0.5402 0.2930 0.4615
H71 H 0.4122 0.2714 0.4515
H72 H 0.5382 0.2133 0.4363
C74 C 0.8894(7) -0.0037(5) 0.4032(3)
H73 H 0.9709 0.0051 0.3891
C75 C 0.3186(7) 0.2314(6) 0.7288(3)
H74 H 0.2726 0.2229 0.7643
C76 C 0.9515(7) 0.1041(4) 0.6728(3)
C77 C 0.4021(8) 0.3271(5) 0.6442(3)
H75 H 0.4150 0.3842 0.6221
C78 C 0.8567(6) -0.0256(5) 0.4601(3)
C79 C 0.4330(6) 0.1167(5) 0.5282(3)
C80 C 0.3329(8) 0.3161(6) 0.6963(4)
H76 H 0.2963 0.3655 0.7092
C81 C 0.7403(8) -0.0418(5) 0.4814(4)
H77 H 0.7202 -0.0584 0.5209
C82 C 0.5844(10) 0.0015(7) 0.3453(5)
H78 H 0.6162 -0.0345 0.3196
H79 H 0.5661 0.0633 0.3235
H80 H 0.5093 -0.0175 0.3664
C83 C 0.8006(8) 0.0052(5) 0.3668(4)
H81 H 0.8217 0.0216 0.3273
C84 C 0.6813(9) -0.0092(6) 0.3866(5)
Cl4 Cl 0.49067(18) 0.28470(14) 0.30246(9)
S4 S 0.57446(17) 0.48109(12) 0.47729(8)
P4 P 1.06196(17) 0.28165(12) 0.39122(8)
O16 O 0.6233(5) 0.3923(3) 0.5064(2)
O17 O 1.0918(5) 0.4694(3) 0.3774(2)
O18 O 0.4468(4) 0.5142(3) 0.4876(2)
O19 O 1.0622(4) 0.1863(3) 0.41562(19)
O20 O 0.9289(4) 0.3416(3) 0.38388(19)
N4 N 0.5987(5) 0.4932(4) 0.4105(2)
H82 H 0.5392 0.5183 0.3881
C85 C 0.8055(9) 0.6608(6) 0.5110(3)
C86 C 1.1867(7) 0.2973(6) 0.5320(3)
H83 H 1.2060 0.2571 0.5674
C87 C 0.6842(9) 0.6909(6) 0.4982(3)
H84 H 0.6490 0.7500 0.4964
C88 C 1.2454(7) 0.3183(5) 0.2127(3)
H85 H 1.2823 0.3236 0.1755
C89 C 1.2177(6) 0.2330(4) 0.3088(3)
H86 H 1.2361 0.1795 0.3375
C90 C 1.1368(6) 0.3030(5) 0.3215(3)
C91 C 0.7223(6) 0.4617(4) 0.3874(3)
H87 H 0.7770 0.4400 0.4191
C92 C 0.7731(7) 0.5374(4) 0.3443(3)
H88 H 0.7764 0.5833 0.3621
H89 H 0.7199 0.5615 0.3131
H90 H 0.8560 0.5164 0.3299
C93 C 0.6135(8) 0.6358(5) 0.4880(3)
H91 H 0.5313 0.6574 0.4783
C94 C 1.1642(7) 0.3887(5) 0.2256(3)
H92 H 1.1446 0.4420 0.1968
C95 C 0.6239(7) 0.3010(5) 0.3245(3)
C96 C 1.0762(8) 0.5618(5) 0.3684(3)
H93 H 1.0520 0.5920 0.3301
H94 H 1.1537 0.5780 0.3731
H95 H 1.0123 0.5791 0.3957
C97 C 1.2709(7) 0.2409(5) 0.2552(3)
H96 H 1.3259 0.1926 0.2471
C98 C 1.1266(6) 0.4162(5) 0.4281(3)
C99 C 0.6184(6) 0.3725(5) 0.3453(3)
H97 H 0.5438 0.4123 0.3462
C100 C 1.1189(6) 0.3268(5) 0.4389(3)
C101 C 0.7841(7) 0.5177(5) 0.5053(3)
H98 H 0.8184 0.4580 0.5086
C102 C 1.1125(6) 0.3812(5) 0.2799(3)
H99 H 1.0600 0.4300 0.2886
C103 C 1.1483(6) 0.2691(5) 0.4904(3)
H100 H 1.1422 0.2089 0.4977
C104 C 0.6639(7) 0.5500(5) 0.4920(3)
C105 C 0.7312(7) 0.2440(5) 0.3216(3)
H101 H 0.7348 0.1969 0.3058
C106 C 0.7211(6) 0.3852(4) 0.3647(3)
C107 C 0.8298(6) 0.3255(5) 0.3617(3)
C108 C 0.8814(10) 0.7208(6) 0.5226(4)
H102 H 0.8762 0.7757 0.4920
H103 H 0.9672 0.6919 0.5250
H104 H 0.8499 0.7337 0.5582
C109 C 1.1674(8) 0.4448(6) 0.4690(4)
H105 H 1.1755 0.5046 0.4618
C110 C 1.1959(8) 0.3849(7) 0.5203(4)
H106 H 1.2224 0.4047 0.5483
C111 C 0.8527(8) 0.5750(6) 0.5135(3)
H107 H 0.9362 0.5539 0.5212
C112 C 0.8338(7) 0.2558(5) 0.3418(3)
H108 H 0.9076 0.2149 0.3419
Cl5 Cl 1.12846(19) 0.39856(16) 1.04000(9)
S5 S 0.98012(16) 0.30740(12) 0.83791(8)
P5 P 0.52142(16) 0.41895(12) 0.97964(8)
O21 O 0.5271(4) 0.5062(3) 0.85595(19)
O22 O 0.9115(4) 0.2570(3) 0.88565(19)
O23 O 1.1079(4) 0.2775(3) 0.8262(2)
O24 O 0.5122(4) 0.3527(3) 1.03512(19)
O25 O 0.6576(4) 0.4246(3) 0.95142(19)
N5 N 0.9699(5) 0.4037(3) 0.8463(2)
H109 H 1.0311 0.4334 0.8340
C113 C 0.4610(8) 0.6820(5) 0.9638(3)
H110 H 0.4972 0.7320 0.9434
C114 C 0.7300(9) 0.3378(6) 0.6299(3)
H111 H 0.6630 0.3879 0.6227
H112 H 0.6970 0.2834 0.6365
H113 H 0.7902 0.3442 0.5971
C115 C 0.4709(6) 0.4343(5) 0.8700(3)
C116 C 0.7917(8) 0.3344(5) 0.6814(4)
C117 C 0.3618(6) 0.5334(5) 1.0271(3)
H114 H 0.3290 0.4826 1.0491
C118 C 0.8834(7) 0.4111(5) 1.0495(3)
H115 H 0.8892 0.4072 1.0878
C119 C 0.7790(7) 0.3227(5) 0.7812(3)
H116 H 0.7311 0.3206 0.8159
C120 C 0.9175(7) 0.3345(5) 0.6779(3)
H117 H 0.9646 0.3392 0.6428
C121 C 0.4259(7) 0.4046(6) 0.8306(3)
H118 H 0.4382 0.4319 0.7913
C122 C 0.3632(7) 0.6899(5) 1.0033(3)
H119 H 0.3299 0.7457 1.0087
C123 C 0.7235(8) 0.3287(5) 0.7327(3)
H120 H 0.6377 0.3289 0.7350
C124 C 0.8572(6) 0.4418(4) 0.8745(3)
H121 H 0.7878 0.4137 0.8704
C125 C 0.7694(7) 0.4147(5) 1.0310(3)
H122 H 0.6973 0.4115 1.0561
C126 C 0.3136(7) 0.6156(6) 1.0350(3)
H123 H 0.2466 0.6210 1.0622
C127 C 0.9827(6) 0.4192(5) 0.9575(3)
H124 H 1.0560 0.4186 0.9333
C128 C 0.5068(7) 0.6011(5) 0.9538(3)
H125 H 0.5703 0.5965 0.9249
C129 C 0.8286(7) 0.5406(5) 0.8449(3)
H126 H 0.8189 0.5495 0.8050
H127 H 0.8962 0.5690 0.8482
H128 H 0.7525 0.5662 0.8626
C130 C 0.4588(6) 0.5272(5) 0.9863(3)
C131 C 0.3467(8) 0.2895(6) 0.9068(4)
H129 H 0.3046 0.2405 0.9193
C132 C 0.7661(6) 0.4230(4) 0.9739(3)
C133 C 0.3941(7) 0.3190(5) 0.9440(3)
H130 H 0.3838 0.2895 0.9830
C134 C 0.4578(6) 0.3916(5) 0.9272(3)
C135 C 0.9860(7) 0.4132(5) 1.0137(3)
C136 C 0.8682(6) 0.4261(4) 0.9369(3)
C137 C 0.3625(8) 0.3337(6) 0.8505(4)
H131 H 0.3285 0.3150 0.8240
C138 C 0.9750(7) 0.3275(4) 0.7264(3)
H132 H 1.0607 0.3282 0.7241
C139 C 0.9059(6) 0.3198(4) 0.7778(3)
C140 C 0.5388(7) 0.5563(5) 0.7971(3)
H133 H 0.5785 0.6069 0.7935
H134 H 0.4571 0.5768 0.7830
H135 H 0.5886 0.5189 0.7752
Cl6 Cl 1.0715(2) 0.80297(17) 0.32953(10)
S6 S 0.95703(17) 0.61779(12) 0.17163(8)
P6 P 0.48315(17) 0.73055(12) 0.30481(8)
O26 O 0.4993(4) 0.6660(3) 0.36107(19)
O27 O 0.4496(5) 0.8052(3) 0.1794(2)
O28 O 1.0531(4) 0.6080(3) 0.1283(2)
O29 O 0.9817(4) 0.5807(3) 0.22934(19)
O30 O 0.6074(4) 0.7508(3) 0.26805(19)
N6 N 0.9131(5) 0.7215(4) 0.1596(2)
H136 H 0.9573 0.7583 0.1359
C141 C 0.3419(7) 0.6913(6) 0.1723(4)
H137 H 0.3346 0.7179 0.1332
C142 C 0.7604(8) 0.6120(5) 0.1181(3)
H138 H 0.7801 0.6635 0.0905
C143 C 0.7214(7) 0.7757(5) 0.3373(3)
H139 H 0.6512 0.7754 0.3634
C144 C 0.8151(6) 0.7642(4) 0.2461(3)
C145 C 0.9320(7) 0.7867(5) 0.3128(3)
C146 C 0.7973(6) 0.7552(5) 0.1888(3)
H140 H 0.7372 0.7143 0.1939
C147 C 0.3305(7) 0.9875(5) 0.2803(3)
H141 H 0.3296 1.0414 0.2513
C148 C 0.3038(8) 0.5764(6) 0.2551(4)
H142 H 0.2702 0.5242 0.2729
C149 C 0.8050(7) 0.4964(5) 0.2032(3)
H143 H 0.8549 0.4689 0.2337
C150 C 0.7037(8) 0.4616(6) 0.1972(3)
H144 H 0.6852 0.4092 0.2242
C151 C 0.4025(6) 0.7291(5) 0.2027(3)
C152 C 0.4529(8) 0.8413(6) 0.1190(3)
H145 H 0.4807 0.8983 0.1081
H146 H 0.3705 0.8488 0.1066
H147 H 0.5097 0.8011 0.1011
C153 C 0.2940(8) 0.6177(6) 0.1986(4)
H148 H 0.2524 0.5936 0.1774
C154 C 0.9259(6) 0.7757(5) 0.2603(3)
H149 H 0.9965 0.7760 0.2345
C155 C 0.6297(7) 0.5015(5) 0.1531(3)
C156 C 0.2642(7) 0.9865(6) 0.3303(4)
H150 H 0.2178 1.0394 0.3359
C157 C 0.6586(7) 0.5755(5) 0.1134(4)
H151 H 0.6097 0.6024 0.0824
C158 C 0.3987(7) 0.9120(5) 0.2709(3)
H152 H 0.4445 0.9139 0.2358
C159 C 0.3636(7) 0.6127(5) 0.2855(3)
H153 H 0.3722 0.5843 0.3243
C160 C 0.8316(7) 0.7883(5) 0.3509(3)
H154 H 0.8377 0.7979 0.3861
C161 C 0.4006(6) 0.8328(5) 0.3128(3)
C162 C 0.3336(7) 0.8323(5) 0.3640(3)
H155 H 0.3356 0.7787 0.3933
C163 C 0.2641(7) 0.9081(6) 0.3731(4)
H156 H 0.2172 0.9069 0.4079
C164 C 0.8303(6) 0.5728(5) 0.1627(3)
C165 C 0.4115(6) 0.6902(5) 0.2603(3)
C166 C 0.7138(7) 0.7637(4) 0.2859(3)
C167 C 0.7456(7) 0.8449(5) 0.1510(3)
H157 H 0.7303 0.8389 0.1147
H158 H 0.8048 0.8850 0.1449
H159 H 0.6685 0.8684 0.1690
C168 C 0.5180(7) 0.4623(6) 0.1485(4)
H160 H 0.4458 0.5085 0.1424
H161 H 0.5028 0.4163 0.1833
H162 H 0.5340 0.4370 0.1166
C169 C 0.8005(9) 0.6625(7) 0.9600(4)
O31 O 0.9477(12) 0.7531(12) 0.8973(7)
C170 C 0.945(2) 0.6787(15) 0.9374(8)
C171 C 1.0222(12) 0.6563(8) 0.9732(8)
C172? C 0.9130(18) 0.6571(13) 0.9879(10)
O32? O 0.8773(10) 0.7353(6) 1.0036(4)
loop_
_geom_bond_atom_site_label_1
_geom_bond_atom_site_label_2
_geom_bond_site_symmetry_1
_geom_bond_site_symmetry_2
Cl1 C21 1_555 1_555
S1 O1 1_555 1_555
P1 O4 1_555 1_555
O2 S1 1_555 1_555
O3 C7 1_555 1_555
O5 P1 1_555 1_555
N1 S1 1_555 1_555
H1 N1 1_555 1_555
C1 H2 1_555 1_555
C2 C1 1_555 1_555
H3 C2 1_555 1_555
C3 O5 1_555 1_555
C4 C2 1_555 1_555
H4 C4 1_555 1_555
C5 C3 1_555 1_555
C6 H5 1_555 1_555
C7 C1 1_555 1_555
C8 C6 1_555 1_555
H6 C8 1_555 1_555
C9 S1 1_555 1_555
C10 C9 1_555 1_555
H7 C10 1_555 1_555
C11 O3 1_555 1_555
H8 C11 1_555 1_555
H9 C11 1_555 1_555
H10 C11 1_555 1_555
C12 H11 1_555 1_555
H12 C12 1_555 1_555
H13 C12 1_555 1_555
C13 H14 1_555 1_555
C14 N1 1_555 1_555
H15 C14 1_555 1_555
C15 H16 1_555 1_555
C16 C4 1_555 1_555
H17 C16 1_555 1_555
C17 P1 1_555 1_555
C18 C6 1_555 1_555
H18 C18 1_555 1_555
C19 P1 1_555 1_555
C20 C3 1_555 1_555
H19 C20 1_555 1_555
C21 C15 1_555 1_555
C22 C5 1_555 1_555
H20 C22 1_555 1_555
C23 C9 1_555 1_555
H21 C23 1_555 1_555
C24 C8 1_555 1_555
H22 C24 1_555 1_555
C25 C23 1_555 1_555
H23 C25 1_555 1_555
C26 C25 1_555 1_555
C27 C26 1_555 1_555
H24 C27 1_555 1_555
H25 C27 1_555 1_555
H26 C27 1_555 1_555
C28 C10 1_555 1_555
H27 C28 1_555 1_555
Cl2 C42 1_555 1_555
S2 O6 1_555 1_555
P2 O9 1_555 1_555
O7 C39 1_555 1_555
O8 S2 1_555 1_555
O9 C53 1_555 1_555
O10 P2 1_555 1_555
N2 S2 1_555 1_555
H28 N2 1_555 1_555
C29 H29 1_555 1_555
C30 H30 1_555 1_555
C31 H31 1_555 1_555
C32 H32 1_555 1_555
C33 H33 1_555 1_555
C34 C30 1_555 1_555
H34 C34 1_555 1_555
C35 C29 1_555 1_555
H35 C35 1_555 1_555
C36 H36 1_555 1_555
C37 H37 1_555 1_555
H38 C37 1_555 1_555
H39 C37 1_555 1_555
C38 H40 1_555 1_555
C39 C32 1_555 1_555
C40 C31 1_555 1_555
H41 C40 1_555 1_555
C41 C29 1_555 1_555
C42 C40 1_555 1_555
C43 S2 1_555 1_555
C44 C30 1_555 1_555
H42 C44 1_555 1_555
C45 C38 1_555 1_555
H43 C45 1_555 1_555
C46 C36 1_555 1_555
H44 C46 1_555 1_555
C47 C33 1_555 1_555
H45 C47 1_555 1_555
C48 P2 1_555 1_555
C49 P2 1_555 1_555
C50 N2 1_555 1_555
H46 C50 1_555 1_555
C51 C50 1_555 1_555
C52 C42 1_555 1_555
H47 C52 1_555 1_555
C53 C31 1_555 1_555
C54 C32 1_555 1_555
H48 C54 1_555 1_555
C55 C41 1_555 1_555
H49 C55 1_555 1_555
H50 C55 1_555 1_555
H51 C55 1_555 1_555
C56 O7 1_555 1_555
H52 C56 1_555 1_555
H53 C56 1_555 1_555
H54 C56 1_555 1_555
Cl3 C76 1_555 1_555
S3 O11 1_555 1_555
P3 O12 1_555 1_555
O12 C71 1_555 1_555
O13 S3 1_555 1_555
O14 P3 1_555 1_555
O15 C73 1_555 1_555
N3 S3 1_555 1_555
H55 N3 1_555 1_555
C57 P3 1_555 1_555
C58 H56 1_555 1_555
C59 H57 1_555 1_555
H58 C59 1_555 1_555
H59 C59 1_555 1_555
C60 H60 1_555 1_555
C61 C60 1_555 1_555
H61 C61 1_555 1_555
C62 C58 1_555 1_555
H62 C62 1_555 1_555
C63 C60 1_555 1_555
H63 C63 1_555 1_555
C64 C57 1_555 1_555
H64 C64 1_555 1_555
C65 C57 1_555 1_555
H65 C65 1_555 1_555
C66 H66 1_555 1_555
C67 N3 1_555 1_555
H67 C67 1_555 1_555
C68 C61 1_555 1_555
H68 C68 1_555 1_555
C69 C66 1_555 1_555
C70 P3 1_555 1_555
C71 C58 1_555 1_555
C72 H69 1_555 1_555
C73 H70 1_555 1_555
H71 C73 1_555 1_555
H72 C73 1_555 1_555
C74 H73 1_555 1_555
C75 C65 1_555 1_555
H74 C75 1_555 1_555
C76 C62 1_555 1_555
C77 C64 1_555 1_555
H75 C77 1_555 1_555
C78 S3 1_555 1_555
C79 O15 1_555 1_555
C80 C75 1_555 1_555
H76 C80 1_555 1_555
C81 C72 1_555 1_555
H77 C81 1_555 1_555
C82 H78 1_555 1_555
H79 C82 1_555 1_555
H80 C82 1_555 1_555
C83 C74 1_555 1_555
H81 C83 1_555 1_555
C84 C72 1_555 1_555
Cl4 C95 1_555 1_555
S4 O16 1_555 1_555
P4 O19 1_555 1_555
O17 C96 1_555 1_555
O18 S4 1_555 1_555
O20 P4 1_555 1_555
N4 S4 1_555 1_555
H82 N4 1_555 1_555
C85 C87 1_555 1_555
C86 H83 1_555 1_555
C87 H84 1_555 1_555
C88 H85 1_555 1_555
C89 H86 1_555 1_555
C90 P4 1_555 1_555
C91 N4 1_555 1_555
H87 C91 1_555 1_555
C92 C91 1_555 1_555
H88 C92 1_555 1_555
H89 C92 1_555 1_555
H90 C92 1_555 1_555
C93 C87 1_555 1_555
H91 C93 1_555 1_555
C94 C88 1_555 1_555
H92 C94 1_555 1_555
C95 C99 1_555 1_555
C96 H93 1_555 1_555
H94 C96 1_555 1_555
H95 C96 1_555 1_555
C97 C88 1_555 1_555
H96 C97 1_555 1_555
C98 O17 1_555 1_555
C99 H97 1_555 1_555
C100 P4 1_555 1_555
C101 H98 1_555 1_555
C102 C90 1_555 1_555
H99 C102 1_555 1_555
C103 C86 1_555 1_555
H100 C103 1_555 1_555
C104 S4 1_555 1_555
C105 C95 1_555 1_555
H101 C105 1_555 1_555
C106 C91 1_555 1_555
C107 O20 1_555 1_555
C108 C85 1_555 1_555
H102 C108 1_555 1_555
H103 C108 1_555 1_555
H104 C108 1_555 1_555
C109 C98 1_555 1_555
H105 C109 1_555 1_555
C110 C86 1_555 1_555
H106 C110 1_555 1_555
C111 C85 1_555 1_555
H107 C111 1_555 1_555
C112 C105 1_555 1_555
H108 C112 1_555 1_555
Cl5 C135 1_555 1_555
S5 O22 1_555 1_555
P5 O24 1_555 1_555
O21 C115 1_555 1_555
O23 S5 1_555 1_555
O25 P5 1_555 1_555
N5 S5 1_555 1_555
H109 N5 1_555 1_555
C113 H110 1_555 1_555
C114 H111 1_555 1_555
H112 C114 1_555 1_555
H113 C114 1_555 1_555
C115 C121 1_555 1_555
C116 C114 1_555 1_555
C117 H114 1_555 1_555
C118 H115 1_555 1_555
C119 H116 1_555 1_555
C120 C116 1_555 1_555
H117 C120 1_555 1_555
C121 H118 1_555 1_555
C122 C113 1_555 1_555
H119 C122 1_555 1_555
C123 C116 1_555 1_555
H120 C123 1_555 1_555
C124 N5 1_555 1_555
H121 C124 1_555 1_555
C125 C118 1_555 1_555
H122 C125 1_555 1_555
C126 C117 1_555 1_555
H123 C126 1_555 1_555
C127 H124 1_555 1_555
C128 C113 1_555 1_555
H125 C128 1_555 1_555
C129 C124 1_555 1_555
H126 C129 1_555 1_555
H127 C129 1_555 1_555
H128 C129 1_555 1_555
C130 P5 1_555 1_555
C131 H129 1_555 1_555
C132 O25 1_555 1_555
C133 C131 1_555 1_555
H130 C133 1_555 1_555
C134 P5 1_555 1_555
C135 C118 1_555 1_555
C136 C124 1_555 1_555
C137 C121 1_555 1_555
H131 C137 1_555 1_555
C138 C120 1_555 1_555
H132 C138 1_555 1_555
C139 S5 1_555 1_555
C140 O21 1_555 1_555
H133 C140 1_555 1_555
H134 C140 1_555 1_555
H135 C140 1_555 1_555
Cl6 C145 1_555 1_555
S6 O28 1_555 1_555
P6 O26 1_555 1_555
O27 C151 1_555 1_555
O29 S6 1_555 1_555
O30 P6 1_555 1_555
N6 S6 1_555 1_555
H136 N6 1_555 1_555
C141 H137 1_555 1_555
C142 H138 1_555 1_555
C143 H139 1_555 1_555
C144 C146 1_555 1_555
C145 C154 1_555 1_555
C146 N6 1_555 1_555
H140 C146 1_555 1_555
C147 H141 1_555 1_555
C148 H142 1_555 1_555
C149 H143 1_555 1_555
C150 C149 1_555 1_555
H144 C150 1_555 1_555
C151 C141 1_555 1_555
C152 O27 1_555 1_555
H145 C152 1_555 1_555
H146 C152 1_555 1_555
H147 C152 1_555 1_555
C153 C141 1_555 1_555
H148 C153 1_555 1_555
C154 C144 1_555 1_555
H149 C154 1_555 1_555
C155 C150 1_555 1_555
C156 C147 1_555 1_555
H150 C156 1_555 1_555
C157 C142 1_555 1_555
H151 C157 1_555 1_555
C158 C147 1_555 1_555
H152 C158 1_555 1_555
C159 C148 1_555 1_555
H153 C159 1_555 1_555
C160 C143 1_555 1_555
H154 C160 1_555 1_555
C161 P6 1_555 1_555
C162 C161 1_555 1_555
H155 C162 1_555 1_555
C163 C156 1_555 1_555
H156 C163 1_555 1_555
C164 S6 1_555 1_555
C165 P6 1_555 1_555
C166 O30 1_555 1_555
C167 C146 1_555 1_555
H157 C167 1_555 1_555
H158 C167 1_555 1_555
H159 C167 1_555 1_555
C168 C155 1_555 1_555
H160 C168 1_555 1_555
H161 C168 1_555 1_555
H162 C168 1_555 1_555
C169 C170 1_555 1_555
O31 C170 1_555 1_555
C170 C171 1_555 1_555
C5 C14 1_555 1_555
C7 C19 1_555 1_555
C12 C14 1_555 1_555
C13 C17 1_555 1_555
C13 C24 1_555 1_555
C15 C20 1_555 1_555
C16 C19 1_555 1_555
C17 C18 1_555 1_555
C21 C22 1_555 1_555
C26 C28 1_555 1_555
C33 C41 1_555 1_555
C34 C48 1_555 1_555
C35 C43 1_555 1_555
C36 C54 1_555 1_555
C37 C50 1_555 1_555
C38 C48 1_555 1_555
C39 C49 1_555 1_555
C43 C47 1_555 1_555
C44 C45 1_555 1_555
C46 C49 1_555 1_555
C51 C52 1_555 1_555
C51 C53 1_555 1_555
C59 C67 1_555 1_555
C63 C79 1_555 1_555
C66 C76 1_555 1_555
C67 C69 1_555 1_555
C68 C70 1_555 1_555
C69 C71 1_555 1_555
C70 C79 1_555 1_555
C74 C78 1_555 1_555
C77 C80 1_555 1_555
C78 C81 1_555 1_555
C82 C84 1_555 1_555
C83 C84 1_555 1_555
C89 C90 1_555 1_555
C89 C97 1_555 1_555
C93 C104 1_555 1_555
C94 C102 1_555 1_555
C98 C100 1_555 1_555
C99 C106 1_555 1_555
C100 C103 1_555 1_555
C101 C104 1_555 1_555
C101 C111 1_555 1_555
C106 C107 1_555 1_555
C107 C112 1_555 1_555
C109 C110 1_555 1_555
C115 C134 1_555 1_555
C117 C130 1_555 1_555
C119 C123 1_555 1_555
C119 C139 1_555 1_555
C122 C126 1_555 1_555
C125 C132 1_555 1_555
C127 C135 1_555 1_555
C127 C136 1_555 1_555
C128 C130 1_555 1_555
C131 C137 1_555 1_555
C132 C136 1_555 1_555
C133 C134 1_555 1_555
C138 C139 1_555 1_555
C142 C164 1_555 1_555
C143 C166 1_555 1_555
C144 C166 1_555 1_555
C145 C160 1_555 1_555
C148 C153 1_555 1_555
C149 C164 1_555 1_555
C151 C165 1_555 1_555
C155 C157 1_555 1_555
C158 C161 1_555 1_555
C159 C165 1_555 1_555
C162 C163 1_555 1_555

#END
