
#######################################################################
#
#                 Cambridge Crystallographic Data Centre
#                                CCDC 
#
#######################################################################
#
# If this CIF has been generated from an entry in the Cambridge 
# Structural Database, then it will include bibliographic, chemical, 
# crystal, experimental, refinement or atomic coordinate data resulting 
# from the CCDC's data processing and validation procedures.
#
#######################################################################

data_CEWZOV
_chemical_formula_moiety         'C21 H19 Cl1 N1 O4 P1 S1'
_chemical_name_systematic        
'6-Chloro-4-methyl-3-((4-methylphenyl)sulfonyl)-2-phenyl-3,4-dihydro-2H-1,3,2-benzoxazaphosphinine 2-oxide'
_symmetry_cell_setting           trigonal
_symmetry_space_group_name_H-M   'P 31'
_symmetry_Int_Tables_number      144
_space_group_name_Hall           'P 31'
loop_
_symmetry_equiv_pos_site_id
_symmetry_equiv_pos_as_xyz
1 x,y,z
2 -y,x-y,1/3+z
3 -x+y,-x,2/3+z
_cell_length_a                   16.5110(17)
_cell_length_b                   16.5110(17)
_cell_length_c                   26.801(3)
_cell_angle_alpha                90
_cell_angle_beta                 90
_cell_angle_gamma                120
_cell_volume                     6327.45
_cell_formula_units_Z            12
loop_
_atom_site_label
_atom_site_type_symbol
_atom_site_fract_x
_atom_site_fract_y
_atom_site_fract_z
S1 S 0.68483(9) 0.43238(9) 0.01101(5)
P1 P 0.65598(10) 0.48651(10) 0.10974(5)
Cl1 Cl 1.09191(10) 0.60138(11) 0.18681(6)
O1 O 0.6922(2) 0.4701(3) 0.16225(12)
O2 O 0.6085(3) 0.4488(3) 0.00445(14)
O3 O 0.6772(3) 0.3465(2) -0.00569(13)
O4 O 0.6818(2) 0.5832(2) 0.09927(13)
C1 C 0.7851(4) 0.5241(4) -0.01654(19)
N1 N 0.7058(3) 0.4421(3) 0.07154(15)
C2 C 0.8209(4) 0.6140(4) 0.00212(19)
H1 H 0.7958 0.6246 0.0317
C3 C 0.5340(4) 0.4086(4) 0.11305(19)
C4 C 0.7756(4) 0.4153(3) 0.08915(19)
H2 H 0.8185 0.4233 0.0609
C5 C 0.7880(4) 0.5036(4) 0.16739(18)
C6 C 0.4758(4) 0.4474(4) 0.11858(19)
H3 H 0.5024 0.5133 0.1208
C7 C 0.9284(4) 0.5112(4) 0.13688(19)
H4 H 0.9612 0.4962 0.1129
C8 C 0.8331(4) 0.5569(4) 0.2085(2)
H5 H 0.8001 0.5717 0.2325
C9 C 0.4947(4) 0.3131(4) 0.1104(2)
H6 H 0.5337 0.2865 0.1064
C10 C 0.8231(4) 0.5075(4) -0.05880(19)
H7 H 0.8000 0.4455 -0.0705
C11 C 0.3414(4) 0.2937(4) 0.11755(19)
H8 H 0.2754 0.2541 0.1181
C12 C 0.3798(4) 0.3898(4) 0.12073(19)
H9 H 0.3404 0.4161 0.1244
C13 C 0.9312(4) 0.6732(4) -0.0668(2)
C14 C 0.8952(4) 0.5823(4) -0.0838(2)
H10 H 0.9204 0.5710 -0.1131
C15 C 0.7277(4) 0.3136(4) 0.1067(2)
H11 H 0.6860 0.2729 0.0804
H12 H 0.6914 0.3066 0.1369
H13 H 0.7752 0.2962 0.1139
C16 C 0.3984(4) 0.2553(4) 0.1135(2)
H14 H 0.3719 0.1893 0.1129
C17 C 1.0054(4) 0.7554(4) -0.0954(2)
H15 H 1.0477 0.8036 -0.0719
H16 H 0.9759 0.7812 -0.1170
H17 H 1.0411 0.7350 -0.1159
C18 C 0.9736(4) 0.5644(4) 0.1783(2)
C19 C 0.8326(4) 0.4798(4) 0.13106(19)
C20 C 0.8942(4) 0.6885(4) -0.0230(2)
H18 H 0.9194 0.7502 -0.0103
C21 C 0.9281(4) 0.5888(4) 0.2145(2)
H19 H 0.9614 0.6262 0.2424
P2 P 1.51577(10) 0.83783(10) 0.01450(5)
S2 S 1.57104(10) 0.81473(10) 0.11398(5)
Cl2 Cl 1.39803(11) 0.39547(11) -0.04619(7)
C22 C 1.5534(4) 1.0184(4) 0.00511(19)
H20 H 1.4875 0.9918 0.0028
N2 N 1.5628(3) 0.7918(3) 0.05378(15)
O5 O 1.5311(3) 0.7975(3) -0.03675(13)
O6 O 1.6571(3) 0.8223(3) 0.13132(13)
C23 C 1.7068(4) 1.1534(4) 0.00620(19)
H21 H 1.7457 1.2193 0.0041
C24 C 1.5923(4) 0.9598(4) 0.0095(2)
O7 O 1.5540(3) 0.8909(3) 0.11930(15)
C25 C 1.4979(4) 0.7008(4) -0.0398(2)
C26 C 1.4216(4) 0.6031(4) 0.2085(2)
H22 H 1.4331 0.5756 0.2368
C27 C 1.4379(4) 0.5141(4) -0.0447(2)
C28 C 1.7467(4) 1.0975(4) 0.0114(2)
H23 H 1.8126 1.1249 0.0140
C29 C 1.4783(4) 0.7147(4) 0.14217(19)
C30 C 1.6105(4) 1.1139(4) 0.0041(2)
H24 H 1.5838 1.1530 0.0019
C31 C 1.5248(4) 0.6608(4) -0.00278(18)
C32 C 1.3878(4) 0.6812(4) 0.1253(2)
H25 H 1.3764 0.7080 0.0967
O8 O 1.4187(2) 0.8114(3) 0.02546(15)
C33 C 1.4125(4) 0.5555(4) -0.0818(2)
H26 H 1.3746 0.5190 -0.1088
C34 C 1.2480(4) 0.4985(4) 0.2223(2)
H27 H 1.1937 0.4659 0.2002
H28 H 1.2331 0.5288 0.2494
H29 H 1.2638 0.4533 0.2364
C35 C 1.5918(4) 0.7224(4) 0.03681(19)
H30 H 1.5878 0.6826 0.0659
C36 C 1.6894(4) 1.0007(4) 0.0127(2)
H31 H 1.7166 0.9620 0.0158
C37 C 1.3296(4) 0.5710(4) 0.1932(2)
C38 C 1.6920(4) 0.7725(4) 0.0173(2)
H32 H 1.7117 0.7266 0.0106
H33 H 1.7334 0.8173 0.0424
H34 H 1.6952 0.8059 -0.0135
C39 C 1.4956(4) 0.6739(4) 0.1834(2)
H35 H 1.5580 0.6949 0.1939
C40 C 1.4934(4) 0.5662(4) -0.0053(2)
H36 H 1.5101 0.5369 0.0200
C41 C 1.3140(4) 0.6082(4) 0.1504(2)
H37 H 1.2520 0.5834 0.1381
C42 C 1.4419(4) 0.6488(4) -0.0795(2)
H38 H 1.4244 0.6776 -0.1047
P3 P 0.65513(10) 0.66350(10) 0.35034(5)
S3 S 0.67716(10) 0.74452(10) 0.44883(5)
Cl3 Cl 1.09193(10) 0.99331(11) 0.27873(6)
O9 O 0.6930(2) 0.7175(2) 0.29834(13)
C43 C 0.5334(4) 0.6197(4) 0.3454(2)
O10 O 0.6588(3) 0.8170(3) 0.46409(13)
O11 O 0.6055(3) 0.6484(3) 0.45463(14)
C44 C 0.7803(4) 0.7650(4) 0.47815(19)
N3 N 0.7019(3) 0.7566(3) 0.38867(15)
O12 O 0.6815(3) 0.5932(3) 0.36153(14)
C45 C 0.3993(4) 0.6382(4) 0.3450(2)
H39 H 0.3728 0.6777 0.3460
C46 C 0.8157(4) 0.8282(4) 0.5167(2)
H40 H 0.7865 0.8631 0.5260
C47 C 0.9248(4) 0.9148(4) 0.3261(2)
H41 H 0.9554 0.9620 0.3507
C48 C 0.8231(4) 0.7147(4) 0.4632(2)
H42 H 0.7984 0.6714 0.4364
C49 C 0.8309(4) 0.8496(4) 0.33067(19)
C50 C 0.9026(4) 0.7291(4) 0.4883(2)
H43 H 0.9329 0.6957 0.4781
C51 C 0.9734(4) 0.9104(4) 0.2856(2)
C52 C 0.8366(4) 0.7759(4) 0.2541(2)
H44 H 0.8056 0.7280 0.2299
C53 C 0.9300(4) 0.8406(4) 0.2492(2)
H45 H 0.9647 0.8381 0.2215
C54 C 0.7888(4) 0.7817(4) 0.29487(19)
C55 C 0.4754(4) 0.5230(4) 0.3416(2)
H46 H 0.5023 0.4839 0.3397
C56 C 0.4942(4) 0.6768(4) 0.3466(2)
H47 H 0.5333 0.7428 0.3485
C57 C 0.3410(4) 0.5421(4) 0.34176(19)
H48 H 0.2751 0.5161 0.3405
C58 C 0.7702(4) 0.8544(4) 0.37129(19)
H49 H 0.8112 0.8898 0.4001
C59 C 0.7197(4) 0.9053(4) 0.3537(2)
H50 H 0.6808 0.9071 0.3808
H51 H 0.6800 0.8722 0.3250
H52 H 0.7658 0.9693 0.3439
C60 C 0.3798(4) 0.4837(4) 0.3404(2)
H53 H 0.3405 0.4177 0.3387
C61 C 1.0260(4) 0.8088(4) 0.5558(2)
H54 H 1.0542 0.7768 0.5384
H55 H 1.0095 0.7845 0.5899
H56 H 1.0709 0.8761 0.5569
C62 C 0.9394(4) 0.7920(4) 0.5285(2)
C63 C 0.8945(4) 0.8405(4) 0.5420(2)
H57 H 0.9181 0.8831 0.5692
S4 S 1.17561(10) 0.92662(10) 0.01524(5)
P4 P 1.15870(10) 0.98574(10) 0.11462(5)
Cl4 Cl 1.60279(11) 1.09939(11) 0.16914(7)
O13 O 1.1569(3) 0.8360(3) -0.00091(13)
O14 O 1.1041(3) 0.9512(3) 0.01093(15)
C64 C 0.9006(4) 0.7548(4) 0.1203(2)
H58 H 0.8737 0.6888 0.1196
O15 O 1.2005(3) 0.9713(3) 0.16571(14)
C65 C 1.3147(4) 0.9823(4) -0.0528(2)
H59 H 1.2877 0.9179 -0.0610
C66 C 1.2777(4) 1.0107(4) -0.01514(19)
C67 C 0.9781(4) 0.9470(4) 0.12282(19)
H60 H 1.0045 1.0130 0.1235
N4 N 1.2014(3) 0.9368(3) 0.07504(15)
C68 C 1.3340(4) 0.9736(4) 0.12994(19)
C69 C 1.0362(4) 0.9091(4) 0.1201(2)
C70 C 1.4457(4) 1.0888(4) 0.2078(2)
H61 H 1.4836 1.1274 0.2343
C71 C 0.9969(4) 0.8113(4) 0.1189(2)
H62 H 1.0360 0.7844 0.1171
C72 C 0.8434(4) 0.7931(4) 0.1226(2)
H63 H 0.7774 0.7535 0.1228
C73 C 1.3174(4) 1.1042(4) -0.0016(2)
H64 H 1.2915 1.1224 0.0248
C74 C 1.4299(4) 1.0038(4) 0.1308(2)
H65 H 1.4574 0.9856 0.1052
O16 O 1.1847(3) 1.0824(3) 0.10319(15)
C75 C 1.3932(4) 1.0505(5) -0.0788(2)
H66 H 1.4190 1.0324 -0.1053
C76 C 1.4839(4) 1.0611(4) 0.1697(2)
C77 C 0.8818(4) 0.8896(4) 0.1246(2)
H67 H 0.8424 0.9160 0.1272
C78 C 1.2199(4) 0.8061(4) 0.1117(2)
H68 H 1.1739 0.7639 0.0873
H69 H 1.1880 0.8037 0.1430
H70 H 1.2662 0.7866 0.1179
C79 C 1.4326(4) 1.1428(4) -0.0662(2)
C80 C 1.2693(4) 0.9065(4) 0.09126(19)
H71 H 1.3075 0.9093 0.0617
C81 C 1.3947(4) 1.1697(4) -0.0270(2)
H72 H 1.4229 1.2338 -0.0180
C82 C 1.2965(4) 1.0031(4) 0.1677(2)
C83 C 1.3509(4) 1.0587(4) 0.2061(2)
H73 H 1.3233 1.0766 0.2318
C84 C 1.5176(4) 1.2162(4) -0.0947(2)
H74 H 1.5189 1.1924 -0.1280
H75 H 1.5747 1.2300 -0.0765
H76 H 1.5139 1.2734 -0.0978
loop_
_geom_bond_atom_site_label_1
_geom_bond_atom_site_label_2
_geom_bond_site_symmetry_1
_geom_bond_site_symmetry_2
S1 O2 1_555 1_555
P1 O1 1_555 1_555
Cl1 C18 1_555 1_555
O1 C5 1_555 1_555
O3 S1 1_555 1_555
O4 P1 1_555 1_555
C1 S1 1_555 1_555
N1 S1 1_555 1_555
C2 C1 1_555 1_555
H1 C2 1_555 1_555
C3 P1 1_555 1_555
C4 N1 1_555 1_555
H2 C4 1_555 1_555
C5 C8 1_555 1_555
C6 C3 1_555 1_555
H3 C6 1_555 1_555
C7 H4 1_555 1_555
C8 H5 1_555 1_555
C9 C3 1_555 1_555
H6 C9 1_555 1_555
C10 C1 1_555 1_555
H7 C10 1_555 1_555
C11 H8 1_555 1_555
C12 C6 1_555 1_555
H9 C12 1_555 1_555
C13 C14 1_555 1_555
C14 C10 1_555 1_555
H10 C14 1_555 1_555
C15 C4 1_555 1_555
H11 C15 1_555 1_555
H12 C15 1_555 1_555
H13 C15 1_555 1_555
C16 C9 1_555 1_555
H14 C16 1_555 1_555
C17 C13 1_555 1_555
H15 C17 1_555 1_555
H16 C17 1_555 1_555
H17 C17 1_555 1_555
C18 C7 1_555 1_555
C19 C4 1_555 1_555
C20 C2 1_555 1_555
H18 C20 1_555 1_555
C21 C8 1_555 1_555
H19 C21 1_555 1_555
P2 N2 1_555 1_555
S2 N2 1_555 1_555
Cl2 C27 1_555 1_555
C22 H20 1_555 1_555
N2 C35 1_555 1_555
O5 P2 1_555 1_555
O6 S2 1_555 1_555
C23 H21 1_555 1_555
C24 P2 1_555 1_555
O7 S2 1_555 1_555
C25 O5 1_555 1_555
C26 H22 1_555 1_555
C27 C33 1_555 1_555
C28 C23 1_555 1_555
H23 C28 1_555 1_555
C29 S2 1_555 1_555
C30 C22 1_555 1_555
H24 C30 1_555 1_555
C31 C25 1_555 1_555
C32 C29 1_555 1_555
H25 C32 1_555 1_555
O8 P2 1_555 1_555
C33 H26 1_555 1_555
C34 H27 1_555 1_555
H28 C34 1_555 1_555
H29 C34 1_555 1_555
C35 C31 1_555 1_555
H30 C35 1_555 1_555
C36 C24 1_555 1_555
H31 C36 1_555 1_555
C37 C26 1_555 1_555
C38 C35 1_555 1_555
H32 C38 1_555 1_555
H33 C38 1_555 1_555
H34 C38 1_555 1_555
C39 C26 1_555 1_555
H35 C39 1_555 1_555
C40 C27 1_555 1_555
H36 C40 1_555 1_555
C41 C32 1_555 1_555
H37 C41 1_555 1_555
C42 C25 1_555 1_555
H38 C42 1_555 1_555
P3 O9 1_555 1_555
S3 O10 1_555 1_555
Cl3 C51 1_555 1_555
O9 C54 1_555 1_555
C43 P3 1_555 1_555
O11 S3 1_555 1_555
C44 S3 1_555 1_555
N3 P3 1_555 1_555
O12 P3 1_555 1_555
C45 H39 1_555 1_555
C46 C44 1_555 1_555
H40 C46 1_555 1_555
C47 H41 1_555 1_555
C48 C44 1_555 1_555
H42 C48 1_555 1_555
C49 C47 1_555 1_555
C50 C48 1_555 1_555
H43 C50 1_555 1_555
C51 C47 1_555 1_555
C52 H44 1_555 1_555
C53 C51 1_555 1_555
H45 C53 1_555 1_555
C54 C49 1_555 1_555
C55 C43 1_555 1_555
H46 C55 1_555 1_555
C56 C43 1_555 1_555
H47 C56 1_555 1_555
C57 C45 1_555 1_555
H48 C57 1_555 1_555
C58 N3 1_555 1_555
H49 C58 1_555 1_555
C59 C58 1_555 1_555
H50 C59 1_555 1_555
H51 C59 1_555 1_555
H52 C59 1_555 1_555
C60 C55 1_555 1_555
H53 C60 1_555 1_555
C61 H54 1_555 1_555
H55 C61 1_555 1_555
H56 C61 1_555 1_555
C62 C50 1_555 1_555
C63 C46 1_555 1_555
H57 C63 1_555 1_555
S4 O13 1_555 1_555
P4 O15 1_555 1_555
Cl4 C76 1_555 1_555
O14 S4 1_555 1_555
C64 H58 1_555 1_555
O15 C82 1_555 1_555
C65 H59 1_555 1_555
C66 S4 1_555 1_555
C67 H60 1_555 1_555
N4 S4 1_555 1_555
C68 C74 1_555 1_555
C69 P4 1_555 1_555
C70 H61 1_555 1_555
C71 C64 1_555 1_555
H62 C71 1_555 1_555
C72 C64 1_555 1_555
H63 C72 1_555 1_555
C73 C66 1_555 1_555
H64 C73 1_555 1_555
C74 H65 1_555 1_555
O16 P4 1_555 1_555
C75 C65 1_555 1_555
H66 C75 1_555 1_555
C76 C70 1_555 1_555
C77 C67 1_555 1_555
H67 C77 1_555 1_555
C78 H68 1_555 1_555
H69 C78 1_555 1_555
H70 C78 1_555 1_555
C79 C75 1_555 1_555
C80 N4 1_555 1_555
H71 C80 1_555 1_555
C81 C73 1_555 1_555
H72 C81 1_555 1_555
C82 C68 1_555 1_555
C83 C70 1_555 1_555
H73 C83 1_555 1_555
C84 C79 1_555 1_555
H74 C84 1_555 1_555
H75 C84 1_555 1_555
H76 C84 1_555 1_555
P1 N1 1_555 1_555
C5 C19 1_555 1_555
C7 C19 1_555 1_555
C11 C12 1_555 1_555
C11 C16 1_555 1_555
C13 C20 1_555 1_555
C18 C21 1_555 1_555
C22 C24 1_555 1_555
C23 C30 1_555 1_555
C28 C36 1_555 1_555
C29 C39 1_555 1_555
C31 C40 1_555 1_555
C33 C42 1_555 1_555
C34 C37 1_555 1_555
C37 C41 1_555 1_555
S3 N3 1_555 1_555
C45 C56 1_555 1_555
C49 C58 1_555 1_555
C52 C53 1_555 1_555
C52 C54 1_555 1_555
C57 C60 1_555 1_555
C61 C62 1_555 1_555
C62 C63 1_555 1_555
P4 N4 1_555 1_555
C65 C66 1_555 1_555
C67 C69 1_555 1_555
C68 C80 1_555 1_555
C69 C71 1_555 1_555
C72 C77 1_555 1_555
C74 C76 1_555 1_555
C78 C80 1_555 1_555
C79 C81 1_555 1_555
C82 C83 1_555 1_555

#END
