
#######################################################################
#
#                 Cambridge Crystallographic Data Centre
#                                CCDC 
#
#######################################################################
#
# If this CIF has been generated from an entry in the Cambridge 
# Structural Database, then it will include bibliographic, chemical, 
# crystal, experimental, refinement or atomic coordinate data resulting 
# from the CCDC's data processing and validation procedures.
#
#######################################################################

data_CEXFEQ
_chemical_formula_moiety         'C14 H20 O3'
_chemical_name_systematic        
2,5,9-Trimethyl-4-oxatricyclo(6.3.1.0^1,5^)dodeca-3,12-dione
_symmetry_cell_setting           orthorhombic
_symmetry_space_group_name_H-M   'P 21 21 21'
_symmetry_Int_Tables_number      19
_space_group_name_Hall           'P 2ac 2ab'
loop_
_symmetry_equiv_pos_site_id
_symmetry_equiv_pos_as_xyz
1 x,y,z
2 1/2+x,1/2-y,-z
3 -x,1/2+y,1/2-z
4 1/2-x,-y,1/2+z
_cell_length_a                   16.997
_cell_length_b                   10.298
_cell_length_c                   7.394
_cell_angle_alpha                90
_cell_angle_beta                 90
_cell_angle_gamma                90
_cell_volume                     1294.21
_cell_formula_units_Z            4
loop_
_atom_site_label
_atom_site_type_symbol
_atom_site_fract_x
_atom_site_fract_y
_atom_site_fract_z
O1 O 0.36500 0.52520 0.21720
O2 O 0.44630 0.54280 0.45120
O3 O 0.41640 0.22130 0.27560
C1 C 0.36740 0.48220 0.02460
C2 C 0.43670 0.37870 0.03660
C3 C 0.39990 0.25780 0.12440
C4 C 0.33560 0.19370 0.01150
C5 C 0.26620 0.29330 0.03080
C6 C 0.28700 0.42880 -0.02570
C7 C 0.38640 0.60070 -0.09030
C8 C 0.47250 0.33870 -0.14790
C9 C 0.40980 0.27540 -0.27380
C10 C 0.36740 0.16180 -0.18340
C11 C 0.49330 0.45010 0.16470
C12 C 0.56120 0.37470 0.24860
C13 C 0.43560 0.50860 0.29760
C14 C 0.30120 0.10960 -0.30480
H1 H 0.31410 0.07880 0.06010
H2 H 0.28030 0.43660 -0.15820
H3 H 0.24940 0.49580 0.02420
H4 H 0.50270 0.41990 -0.20630
H5 H 0.53650 0.27570 -0.12160
H6 H 0.37080 0.34240 -0.33780
H7 H 0.43580 0.24840 -0.37600
H8 H 0.56420 0.32970 0.35880
H9 H 0.60940 0.41850 0.23710
H10 H 0.58620 0.30910 0.19040
H11 H 0.24010 0.28850 0.18420
H12 H 0.20450 0.25230 -0.03470
H13 H 0.40380 0.05970 -0.19550
H14 H 0.53340 0.52840 0.08540
H15 H 0.34320 0.67340 -0.10540
H16 H 0.41780 0.59820 -0.17210
H17 H 0.41680 0.67510 -0.05200
H18 H 0.31340 0.01830 -0.33420
H19 H 0.30120 0.12420 -0.39480
H20 H 0.23470 0.10630 -0.28560
loop_
_geom_bond_atom_site_label_1
_geom_bond_atom_site_label_2
_geom_bond_site_symmetry_1
_geom_bond_site_symmetry_2
O1 C1 1_555 1_555
O2 C13 1_555 1_555
O3 C3 1_555 1_555
C1 C2 1_555 1_555
C2 C3 1_555 1_555
C3 C4 1_555 1_555
C4 C5 1_555 1_555
C5 C6 1_555 1_555
C6 C1 1_555 1_555
C7 C1 1_555 1_555
C8 C2 1_555 1_555
C9 C8 1_555 1_555
C10 C4 1_555 1_555
C11 C2 1_555 1_555
C12 C11 1_555 1_555
C13 O1 1_555 1_555
C14 C10 1_555 1_555
H1 C4 1_555 1_555
H2 C6 1_555 1_555
H3 C6 1_555 1_555
H4 C8 1_555 1_555
H5 C8 1_555 1_555
H6 C9 1_555 1_555
H7 C9 1_555 1_555
H8 C12 1_555 1_555
H9 C12 1_555 1_555
H10 C12 1_555 1_555
H11 C5 1_555 1_555
H12 C5 1_555 1_555
H13 C10 1_555 1_555
H14 C11 1_555 1_555
H15 C7 1_555 1_555
H16 C7 1_555 1_555
H17 C7 1_555 1_555
H18 C14 1_555 1_555
H19 C14 1_555 1_555
H20 C14 1_555 1_555
C9 C10 1_555 1_555
C11 C13 1_555 1_555

#END
