
#######################################################################
#
#                 Cambridge Crystallographic Data Centre
#                                CCDC 
#
#######################################################################
#
# If this CIF has been generated from an entry in the Cambridge 
# Structural Database, then it will include bibliographic, chemical, 
# crystal, experimental, refinement or atomic coordinate data resulting 
# from the CCDC's data processing and validation procedures.
#
#######################################################################

data_CEXGER
_chemical_compound_source        'Aconitum coreanum (Levl.) Raipaics'
_chemical_formula_moiety         'C27 H36 N1 O7 1+,I1 1-'
_chemical_name_systematic        'Guan-fu base G methiodide'
_symmetry_cell_setting           orthorhombic
_symmetry_space_group_name_H-M   'P 21 21 21'
_symmetry_Int_Tables_number      19
_space_group_name_Hall           'P 2ac 2ab'
loop_
_symmetry_equiv_pos_site_id
_symmetry_equiv_pos_as_xyz
1 x,y,z
2 1/2+x,1/2-y,-z
3 -x,1/2+y,1/2-z
4 1/2-x,-y,1/2+z
_cell_length_a                   16.87
_cell_length_b                   16.93
_cell_length_c                   10.09
_cell_angle_alpha                90
_cell_angle_beta                 90
_cell_angle_gamma                90
_cell_volume                     2881.8
_exptl_crystal_colour            colorless
_chemical_melting_point          292deg.C
_cell_formula_units_Z            4
loop_
_atom_site_label
_atom_site_type_symbol
_atom_site_fract_x
_atom_site_fract_y
_atom_site_fract_z
I1 I 0.09910 0.34760 0.47820
O1 O 0.42850 0.19580 0.71380
O2 O 0.67520 0.52560 0.46000
O3 O 0.57420 0.44950 0.50560
O4 O 0.52610 0.45500 1.19560
O5 O 0.66750 0.24570 0.90810
O6 O 0.58180 0.31960 0.79480
O7 O 0.52710 0.44740 0.97520
N1 N 0.39230 0.33380 0.53710
C1 C 0.50780 0.48290 0.71150
C2 C 0.52880 0.51230 0.57540
C3 C 0.45970 0.53720 0.49260
C4 C 0.38880 0.47730 0.49660
C5 C 0.36740 0.45050 0.63770
C6 C 0.32150 0.36900 0.61720
C7 C 0.30230 0.32240 0.73460
C8 C 0.37380 0.31240 0.82690
C9 C 0.40990 0.39790 0.85330
C10 C 0.44020 0.42080 0.71630
C11 C 0.46160 0.39000 0.97570
C12 C 0.49590 0.30350 0.98660
C13 C 0.51780 0.27340 0.84830
C14 C 0.44610 0.27690 0.75250
C15 C 0.35500 0.26360 0.94880
C16 C 0.42730 0.25130 1.03470
C17 C 0.43710 0.20130 1.13380
C18 C 0.32040 0.51810 0.42410
C19 C 0.41110 0.39570 0.42840
C20 C 0.45790 0.33730 0.64240
C21 C 0.65590 0.29770 0.83140
C22 C 0.71710 0.35010 0.76310
C23 C 0.54980 0.47380 1.09120
C24 C 0.61580 0.53460 1.07480
C25 C 0.37630 0.25530 0.47150
C26 C 0.64460 0.46240 0.44840
C27 C 0.67670 0.38980 0.37900
loop_
_geom_bond_atom_site_label_1
_geom_bond_atom_site_label_2
_geom_bond_site_symmetry_1
_geom_bond_site_symmetry_2
O1 C14 1_555 1_555
O2 C26 1_555 1_555
O3 C2 1_555 1_555
O4 C23 1_555 1_555
O5 C21 1_555 1_555
O6 C13 1_555 1_555
O7 C11 1_555 1_555
N1 C6 1_555 1_555
C1 C2 1_555 1_555
C2 C3 1_555 1_555
C3 C4 1_555 1_555
C4 C5 1_555 1_555
C5 C6 1_555 1_555
C6 C7 1_555 1_555
C7 C8 1_555 1_555
C8 C9 1_555 1_555
C9 C10 1_555 1_555
C10 C1 1_555 1_555
C11 C9 1_555 1_555
C12 C11 1_555 1_555
C13 C12 1_555 1_555
C14 C8 1_555 1_555
C15 C8 1_555 1_555
C16 C12 1_555 1_555
C17 C16 1_555 1_555
C18 C4 1_555 1_555
C19 N1 1_555 1_555
C20 N1 1_555 1_555
C21 O6 1_555 1_555
C22 C21 1_555 1_555
C23 O7 1_555 1_555
C24 C23 1_555 1_555
C25 N1 1_555 1_555
C26 O3 1_555 1_555
C27 C26 1_555 1_555
C4 C19 1_555 1_555
C5 C10 1_555 1_555
C10 C20 1_555 1_555
C13 C14 1_555 1_555
C14 C20 1_555 1_555
C15 C16 1_555 1_555

#END
