
#######################################################################
#
#                 Cambridge Crystallographic Data Centre
#                                CCDC 
#
#######################################################################
#
# If this CIF has been generated from an entry in the Cambridge 
# Structural Database, then it will include bibliographic, chemical, 
# crystal, experimental, refinement or atomic coordinate data resulting 
# from the CCDC's data processing and validation procedures.
#
#######################################################################

data_CEXJOG
_chemical_formula_moiety         'C22 H18 F1 N1 O1'
_chemical_name_systematic        
5-Fluoro-2-methyl-trans-3,4-diphenyl-3,4-dihydroisoquinolin-1(2H)-one
_symmetry_cell_setting           monoclinic
_symmetry_space_group_name_H-M   'P 21/n'
_symmetry_Int_Tables_number      14
_space_group_name_Hall           '-P 2yn'
loop_
_symmetry_equiv_pos_site_id
_symmetry_equiv_pos_as_xyz
1 x,y,z
2 1/2-x,1/2+y,1/2-z
3 -x,-y,-z
4 1/2+x,1/2-y,1/2+z
_cell_length_a                   9.2425(18)
_cell_length_b                   10.615(2)
_cell_length_c                   17.323(4)
_cell_angle_alpha                90
_cell_angle_beta                 96.45(3)
_cell_angle_gamma                90
_cell_volume                     1688.79
_exptl_crystal_colour            colorless
_exptl_crystal_description       block
_cell_formula_units_Z            4
loop_
_atom_site_label
_atom_site_type_symbol
_atom_site_fract_x
_atom_site_fract_y
_atom_site_fract_z
F1 F 0.68261(12) 0.16329(13) 0.83329(9)
O1 O 1.26932(16) 0.39558(14) 0.85242(8)
N1 N 1.20001(15) 0.22433(14) 0.77964(8)
C1 C 1.17354(19) 0.32086(16) 0.82648(10)
C2 C 1.0218(2) 0.33270(16) 0.84736(10)
C3 C 0.9856(3) 0.43896(18) 0.88864(11)
H1 H 1.0561 0.5029 0.9015
C4 C 0.8471(3) 0.4511(2) 0.91077(14)
H2 H 0.8223 0.5237 0.9385
C5 C 0.7453(3) 0.3580(2) 0.89268(15)
H3 H 0.6503 0.3651 0.9083
C6 C 0.7833(2) 0.25456(19) 0.85147(13)
C7 C 0.92010(19) 0.23882(16) 0.82739(10)
C8 C 0.95761(17) 0.12284(15) 0.78355(10)
H4 H 0.8708 0.1027 0.7457
C9 C 0.98285(19) 0.00982(16) 0.83787(10)
C10 C 1.1022(2) 0.0015(2) 0.89386(13)
H5 H 1.1727 0.0671 0.8985
C11 C 1.1196(3) -0.1018(2) 0.94320(14)
H6 H 1.2022 -0.1065 0.9810
C12 C 1.0189(2) -0.19675(19) 0.93788(12)
H7 H 1.0309 -0.2669 0.9720
C13 C 0.9005(2) -0.18964(18) 0.88278(13)
H8 H 0.8302 -0.2553 0.8787
C14 C 0.8827(2) -0.08716(16) 0.83299(11)
H9 H 0.8004 -0.0836 0.7949
C15 C 1.08476(17) 0.15042(15) 0.73563(9)
H10 H 1.1284 0.0674 0.7238
C16 C 1.03175(18) 0.21165(15) 0.65782(10)
C17 C 1.0125(2) 0.34078(17) 0.64853(11)
H11 H 1.0374 0.3955 0.6914
C18 C 0.9573(2) 0.39046(19) 0.57711(12)
H12 H 0.9444 0.4789 0.5712
C19 C 0.9212(2) 0.3112(2) 0.51463(11)
H13 H 0.8833 0.3452 0.4658
C20 C 0.9400(2) 0.1831(2) 0.52292(11)
H14 H 0.9146 0.1286 0.4800
C21 C 0.99608(19) 0.13394(18) 0.59406(10)
H15 H 1.0104 0.0456 0.5993
C22 C 1.3447(2) 0.2121(2) 0.75452(13)
H16 H 1.4159 0.2552 0.7916
H17 H 1.3452 0.2502 0.7030
H18 H 1.3703 0.1227 0.7520
loop_
_geom_bond_atom_site_label_1
_geom_bond_atom_site_label_2
_geom_bond_site_symmetry_1
_geom_bond_site_symmetry_2
F1 C6 1_555 1_555
O1 C1 1_555 1_555
N1 C1 1_555 1_555
C1 C2 1_555 1_555
C2 C3 1_555 1_555
C3 H1 1_555 1_555
C4 C3 1_555 1_555
H2 C4 1_555 1_555
C5 C4 1_555 1_555
H3 C5 1_555 1_555
C6 C5 1_555 1_555
C7 C2 1_555 1_555
C8 C7 1_555 1_555
H4 C8 1_555 1_555
C9 C8 1_555 1_555
C10 C9 1_555 1_555
H5 C10 1_555 1_555
C11 C10 1_555 1_555
H6 C11 1_555 1_555
C12 C11 1_555 1_555
H7 C12 1_555 1_555
C13 C12 1_555 1_555
H8 C13 1_555 1_555
C14 C9 1_555 1_555
H9 C14 1_555 1_555
C15 N1 1_555 1_555
H10 C15 1_555 1_555
C16 C15 1_555 1_555
C17 C16 1_555 1_555
H11 C17 1_555 1_555
C18 C17 1_555 1_555
H12 C18 1_555 1_555
C19 C18 1_555 1_555
H13 C19 1_555 1_555
C20 C19 1_555 1_555
H14 C20 1_555 1_555
C21 C16 1_555 1_555
H15 C21 1_555 1_555
C22 N1 1_555 1_555
H16 C22 1_555 1_555
H17 C22 1_555 1_555
H18 C22 1_555 1_555
C6 C7 1_555 1_555
C8 C15 1_555 1_555
C13 C14 1_555 1_555
C20 C21 1_555 1_555

#END
