
#######################################################################
#
#                 Cambridge Crystallographic Data Centre
#                                CCDC 
#
#######################################################################
#
# If this CIF has been generated from an entry in the Cambridge 
# Structural Database, then it will include bibliographic, chemical, 
# crystal, experimental, refinement or atomic coordinate data resulting 
# from the CCDC's data processing and validation procedures.
#
#######################################################################

data_CEXKEX
_chemical_formula_moiety         'C32 H23 Cl1 N2 O4'
_chemical_name_systematic        
'4-(Benzoyl(4-methoxyphenyl)amino)-6-(4-chlorophenyl)pyridin-3-yl benzoate'
_symmetry_cell_setting           triclinic
_symmetry_space_group_name_H-M   'P -1'
_symmetry_Int_Tables_number      2
_space_group_name_Hall           '-P 1'
loop_
_symmetry_equiv_pos_site_id
_symmetry_equiv_pos_as_xyz
1 x,y,z
2 -x,-y,-z
_cell_length_a                   10.985(2)
_cell_length_b                   11.022(2)
_cell_length_c                   11.542(2)
_cell_angle_alpha                77.49(3)
_cell_angle_beta                 76.30(3)
_cell_angle_gamma                82.60(3)
_cell_volume                     1321.04
_exptl_crystal_colour            colorless
_exptl_crystal_description       block
_cell_formula_units_Z            2
loop_
_atom_site_label
_atom_site_type_symbol
_atom_site_fract_x
_atom_site_fract_y
_atom_site_fract_z
Cl1 Cl 0.22416(7) 0.51520(7) 0.54972(6)
O1 O 0.93960(14) 0.71975(15) 0.61011(13)
O2 O 0.53890(13) 0.95691(13) 1.14792(13)
O3 O 0.45242(12) 0.73070(12) 1.27214(12)
O4 O 0.27569(13) 0.84786(13) 1.33874(13)
N1 N 0.61125(14) 0.79996(15) 1.04049(14)
N2 N 0.26721(15) 0.64331(15) 1.08348(15)
C1 C 0.9942(3) 0.8199(3) 0.5201(2)
H1 H 1.0502 0.7866 0.4526
H2 H 1.0424 0.8651 0.5560
H3 H 0.9275 0.8769 0.4899
C2 C 0.86489(17) 0.74842(19) 0.71535(18)
C3 C 0.83046(18) 0.86756(19) 0.73789(18)
H4 H 0.8633 0.9374 0.6801
C4 C 0.74726(18) 0.88459(18) 0.84592(18)
H5 H 0.7202 0.9665 0.8601
C5 C 0.70417(17) 0.78314(18) 0.93222(17)
C6 C 0.74336(18) 0.66314(18) 0.91165(18)
H6 H 0.7160 0.5931 0.9724
C7 C 0.82189(19) 0.64577(19) 0.80310(19)
H7 H 0.8467 0.5638 0.7881
C8 C 0.62674(18) 0.88940(18) 1.10463(17)
C9 C 0.75723(18) 0.89063(19) 1.12201(18)
C10 C 0.80070(19) 1.0027(2) 1.12460(19)
H8 H 0.7504 1.0787 1.1086
C11 C 0.9176(2) 1.0037(2) 1.1505(2)
H9 H 0.9478 1.0805 1.1511
C12 C 0.9904(2) 0.8930(2) 1.1756(2)
H10 H 1.0699 0.8938 1.1944
C13 C 0.9475(2) 0.7812(2) 1.1734(2)
H11 H 0.9976 0.7053 1.1904
C14 C 0.8312(2) 0.7798(2) 1.1463(2)
H12 H 0.8021 0.7029 1.1444
C15 C 0.37872(18) 0.80163(18) 1.35037(17)
C16 C 0.44169(19) 0.81218(18) 1.44672(17)
C17 C 0.56657(19) 0.76747(19) 1.44526(19)
H13 H 0.6122 0.7243 1.3834
C18 C 0.6240(2) 0.7859(2) 1.5339(2)
H14 H 0.7090 0.7556 1.5332
C19 C 0.5565(2) 0.8491(2) 1.62385(19)
H15 H 0.5962 0.8629 1.6840
C20 C 0.4330(2) 0.8919(2) 1.6267(2)
H16 H 0.3874 0.9342 1.6892
C21 C 0.3749(2) 0.87350(19) 1.53895(19)
H17 H 0.2893 0.9027 1.5414
C22 C 0.30136(19) 0.67131(19) 1.17715(19)
H18 H 0.2458 0.6555 1.2545
C23 C 0.41311(18) 0.72222(17) 1.16880(17)
C24 C 0.49302(17) 0.75394(17) 1.05542(17)
C25 C 0.45604(18) 0.72666(18) 0.95728(18)
H19 H 0.5063 0.7480 0.8778
C26 C 0.34643(18) 0.66863(18) 0.97415(18)
C27 C 0.31498(18) 0.62885(18) 0.87061(18)
C28 C 0.1911(2) 0.6311(2) 0.8610(2)
H20 H 0.1249 0.6574 0.9222
C29 C 0.1632(2) 0.5954(2) 0.7628(2)
H21 H 0.0783 0.5979 0.7562
C30 C 0.2592(2) 0.5562(2) 0.6750(2)
C31 C 0.3829(2) 0.54938(19) 0.6839(2)
H22 H 0.4484 0.5202 0.6239
C32 C 0.4099(2) 0.58588(19) 0.78201(19)
H23 H 0.4949 0.5815 0.7889
loop_
_geom_bond_atom_site_label_1
_geom_bond_atom_site_label_2
_geom_bond_site_symmetry_1
_geom_bond_site_symmetry_2
Cl1 C30 1_555 1_555
O1 C1 1_555 1_555
O2 C8 1_555 1_555
O3 C15 1_555 1_555
O4 C15 1_555 1_555
N1 C5 1_555 1_555
N2 C22 1_555 1_555
C1 H1 1_555 1_555
H2 C1 1_555 1_555
H3 C1 1_555 1_555
C2 O1 1_555 1_555
C3 C2 1_555 1_555
H4 C3 1_555 1_555
C4 C3 1_555 1_555
H5 C4 1_555 1_555
C5 C4 1_555 1_555
C6 C5 1_555 1_555
H6 C6 1_555 1_555
C7 C2 1_555 1_555
H7 C7 1_555 1_555
C8 N1 1_555 1_555
C9 C8 1_555 1_555
C10 C9 1_555 1_555
H8 C10 1_555 1_555
C11 C10 1_555 1_555
H9 C11 1_555 1_555
C12 C11 1_555 1_555
H10 C12 1_555 1_555
C13 C12 1_555 1_555
H11 C13 1_555 1_555
C14 C9 1_555 1_555
H12 C14 1_555 1_555
C15 C16 1_555 1_555
C16 C17 1_555 1_555
C17 H13 1_555 1_555
C18 C17 1_555 1_555
H14 C18 1_555 1_555
C19 C18 1_555 1_555
H15 C19 1_555 1_555
C20 C19 1_555 1_555
H16 C20 1_555 1_555
C21 C16 1_555 1_555
H17 C21 1_555 1_555
C22 H18 1_555 1_555
C23 O3 1_555 1_555
C24 N1 1_555 1_555
C25 C24 1_555 1_555
H19 C25 1_555 1_555
C26 N2 1_555 1_555
C27 C26 1_555 1_555
C28 C27 1_555 1_555
H20 C28 1_555 1_555
C29 C28 1_555 1_555
H21 C29 1_555 1_555
C30 C29 1_555 1_555
C31 C30 1_555 1_555
H22 C31 1_555 1_555
C32 C27 1_555 1_555
H23 C32 1_555 1_555
C6 C7 1_555 1_555
C13 C14 1_555 1_555
C20 C21 1_555 1_555
C22 C23 1_555 1_555
C23 C24 1_555 1_555
C25 C26 1_555 1_555
C31 C32 1_555 1_555

#END
