
#######################################################################
#
#                 Cambridge Crystallographic Data Centre
#                                CCDC 
#
#######################################################################
#
# If this CIF has been generated from an entry in the Cambridge 
# Structural Database, then it will include bibliographic, chemical, 
# crystal, experimental, refinement or atomic coordinate data resulting 
# from the CCDC's data processing and validation procedures.
#
#######################################################################

data_CEXKIB
_chemical_formula_moiety         'C25 H20 N2 O3'
_chemical_name_systematic        
'4-((4-Methoxyphenyl)amino)-6-phenylpyridin-3-yl benzoate'
_symmetry_cell_setting           triclinic
_symmetry_space_group_name_H-M   'P -1'
_symmetry_Int_Tables_number      2
_space_group_name_Hall           '-P 1'
loop_
_symmetry_equiv_pos_site_id
_symmetry_equiv_pos_as_xyz
1 x,y,z
2 -x,-y,-z
_cell_length_a                   7.3246(15)
_cell_length_b                   8.8640(18)
_cell_length_c                   15.446(3)
_cell_angle_alpha                82.46(3)
_cell_angle_beta                 84.33(3)
_cell_angle_gamma                74.63(3)
_cell_volume                     956.455
_exptl_crystal_colour            colorless
_exptl_crystal_description       block
_cell_formula_units_Z            2
loop_
_atom_site_label
_atom_site_type_symbol
_atom_site_fract_x
_atom_site_fract_y
_atom_site_fract_z
O1 O 0.26501(18) 0.47571(14) 0.36177(7)
O2 O -0.07653(17) 0.28700(15) 0.08283(8)
O3 O 0.21587(16) 0.12271(13) 0.09446(7)
N1 N 0.3213(2) 0.41106(17) 0.00530(9)
H1 H 0.3019 0.4997 -0.0297
N2 N 0.2720(2) 0.04687(16) -0.13356(9)
C1 C 0.1160(3) 0.5955(2) 0.39680(12)
H2 H 0.1352 0.6991 0.3739
H3 H 0.1165 0.5825 0.4608
H4 H -0.0062 0.5874 0.3798
C2 C 0.2731(2) 0.46927(19) 0.27292(10)
C3 C 0.1617(2) 0.5805(2) 0.21527(11)
H5 H 0.0750 0.6709 0.2357
C4 C 0.1781(2) 0.5583(2) 0.12701(11)
H6 H 0.1003 0.6333 0.0874
C5 C 0.3065(2) 0.42804(19) 0.09620(11)
C6 C 0.4248(2) 0.32135(19) 0.15387(11)
H7 H 0.5183 0.2352 0.1328
C7 C 0.4059(2) 0.34106(19) 0.24182(11)
H8 H 0.4842 0.2664 0.2814
C8 C 0.0318(2) 0.18292(19) 0.22506(10)
C9 C -0.1119(2) 0.2877(2) 0.26863(11)
H9 H -0.2013 0.3673 0.2364
C10 C -0.1246(3) 0.2759(2) 0.35920(12)
H10 H -0.2229 0.3473 0.3892
C11 C 0.0060(3) 0.1601(2) 0.40599(11)
H11 H -0.0021 0.1528 0.4681
C12 C 0.1484(3) 0.0548(2) 0.36280(12)
H12 H 0.2368 -0.0253 0.3953
C13 C 0.1623(2) 0.0659(2) 0.27222(11)
H13 H 0.2605 -0.0059 0.2425
C14 C 0.0446(2) 0.20514(18) 0.12803(10)
C15 C 0.2542(2) 0.15091(19) 0.00370(10)
C16 C 0.3076(2) 0.28567(19) -0.03528(11)
C17 C 0.3442(2) 0.29271(19) -0.12639(11)
H14 H 0.3848 0.3797 -0.1568
C18 C 0.3228(2) 0.17648(18) -0.17322(10)
C19 C 0.2417(2) 0.03782(19) -0.04681(11)
H15 H 0.2089 -0.0536 -0.0177
C20 C 0.3496(2) 0.18749(18) -0.27071(10)
C21 C 0.4239(2) 0.3039(2) -0.31977(11)
H16 H 0.4631 0.3768 -0.2906
C22 C 0.4415(3) 0.3147(2) -0.41045(11)
H17 H 0.4919 0.3952 -0.4426
C23 C 0.3866(3) 0.2095(2) -0.45466(11)
H18 H 0.3971 0.2180 -0.5168
C24 C 0.3161(3) 0.0918(2) -0.40660(11)
H19 H 0.2803 0.0175 -0.4361
C25 C 0.2971(2) 0.0808(2) -0.31593(11)
H20 H 0.2476 -0.0005 -0.2841
loop_
_geom_bond_atom_site_label_1
_geom_bond_atom_site_label_2
_geom_bond_site_symmetry_1
_geom_bond_site_symmetry_2
O1 C1 1_555 1_555
O2 C14 1_555 1_555
O3 C14 1_555 1_555
N1 H1 1_555 1_555
N2 C18 1_555 1_555
C1 H2 1_555 1_555
H3 C1 1_555 1_555
H4 C1 1_555 1_555
C2 O1 1_555 1_555
C3 C2 1_555 1_555
H5 C3 1_555 1_555
C4 C3 1_555 1_555
H6 C4 1_555 1_555
C5 N1 1_555 1_555
C6 C5 1_555 1_555
H7 C6 1_555 1_555
C7 C2 1_555 1_555
H8 C7 1_555 1_555
C8 C9 1_555 1_555
C9 H9 1_555 1_555
C10 C9 1_555 1_555
H10 C10 1_555 1_555
C11 C10 1_555 1_555
H11 C11 1_555 1_555
C12 C11 1_555 1_555
H12 C12 1_555 1_555
C13 C8 1_555 1_555
H13 C13 1_555 1_555
C14 C8 1_555 1_555
C15 O3 1_555 1_555
C16 N1 1_555 1_555
C17 C16 1_555 1_555
H14 C17 1_555 1_555
C18 C17 1_555 1_555
C19 N2 1_555 1_555
H15 C19 1_555 1_555
C20 C18 1_555 1_555
C21 C20 1_555 1_555
H16 C21 1_555 1_555
C22 C21 1_555 1_555
H17 C22 1_555 1_555
C23 C22 1_555 1_555
H18 C23 1_555 1_555
C24 C23 1_555 1_555
H19 C24 1_555 1_555
C25 C20 1_555 1_555
H20 C25 1_555 1_555
C4 C5 1_555 1_555
C6 C7 1_555 1_555
C12 C13 1_555 1_555
C15 C16 1_555 1_555
C15 C19 1_555 1_555
C24 C25 1_555 1_555

#END
