
#######################################################################
#
#                 Cambridge Crystallographic Data Centre
#                                CCDC 
#
#######################################################################
#
# If this CIF has been generated from an entry in the Cambridge 
# Structural Database, then it will include bibliographic, chemical, 
# crystal, experimental, refinement or atomic coordinate data resulting 
# from the CCDC's data processing and validation procedures.
#
#######################################################################

data_CEXNUO
_chemical_compound_source        'Cordalis ambigua'
_chemical_formula_moiety         'C22 H24 N1 O4 1+,Cl1 1-,4.5(H2 O1)'
_chemical_name_systematic        'Dehydrocrydaline hydrochloride hydrate'
_symmetry_cell_setting           orthorhombic
_symmetry_space_group_name_H-M   'P b c n'
_symmetry_Int_Tables_number      60
_space_group_name_Hall           '-P 2n 2ab'
loop_
_symmetry_equiv_pos_site_id
_symmetry_equiv_pos_as_xyz
1 x,y,z
2 1/2-x,1/2-y,1/2+z
3 1/2+x,1/2-y,-z
4 -x,y,1/2-z
5 -x,-y,-z
6 1/2+x,1/2+y,1/2-z
7 1/2-x,1/2+y,z
8 x,-y,1/2+z
_cell_length_a                   8.52(6)
_cell_length_b                   23.31(7)
_cell_length_c                   24.79(8)
_cell_angle_alpha                90
_cell_angle_beta                 90
_cell_angle_gamma                90
_cell_volume                     4923.32
_exptl_crystal_colour            'dark red'
_cell_formula_units_Z            8
loop_
_atom_site_label
_atom_site_type_symbol
_atom_site_fract_x
_atom_site_fract_y
_atom_site_fract_z
C1 C 0.88180 0.40480 0.50250
C2 C 0.80030 0.45610 0.51160
C3 C 0.71840 0.46570 0.56060
C4 C 0.63370 0.51460 0.56760
C5 C 0.63430 0.55700 0.52710
C6 C 0.71520 0.54870 0.47970
C7 C 0.79820 0.49740 0.46970
C8 C 0.87550 0.48480 0.41990
C9 C 0.95870 0.43490 0.41390
C10 C 1.04720 0.41600 0.36560
C11 C 1.11940 0.45590 0.33140
C12 C 1.19440 0.43780 0.28490
C13 C 1.20240 0.37940 0.27270
C14 C 1.13650 0.34010 0.30740
C15 C 1.05960 0.35840 0.35390
C16 C 0.99590 0.31610 0.39410
C17 C 1.03380 0.33900 0.45000
C18 C 0.59800 0.39150 0.61280
C19 C 0.48850 0.57490 0.62780
C20 C 0.85290 0.52670 0.37400
C21 C 1.27390 0.53320 0.26180
C22 C 1.29780 0.30640 0.21390
N1 N 0.95630 0.39520 0.45650
O1 O 0.73670 0.42490 0.60040
O2 O 0.55210 0.51990 0.61460
O3 O 1.26850 0.47360 0.24910
O4 O 1.28040 0.36590 0.22630
H1 H 0.88600 0.36800 0.52900
H2 H 0.56700 0.59400 0.53400
H3 H 1.11700 0.49600 0.34100
H4 H 1.14100 0.30100 0.30100
H5 H 0.87300 0.31400 0.39000
H6 H 1.05200 0.27900 0.39000
H7 H 1.15400 0.35200 0.45300
H8 H 0.99300 0.31400 0.48300
H9 H 0.64700 0.35700 0.63900
H10 H 0.56000 0.36600 0.57700
H11 H 0.51000 0.41800 0.62600
H12 H 0.58800 0.60400 0.63100
H13 H 0.44500 0.56800 0.66100
H14 H 0.39600 0.58800 0.60200
H15 H 1.15400 0.54500 0.26100
H16 H 1.36200 0.54600 0.23200
H17 H 1.35100 0.53600 0.30000
H18 H 1.36500 0.30900 0.17600
H19 H 1.19100 0.29200 0.20800
H20 H 1.38000 0.29400 0.24300
H21 H 0.73100 0.53500 0.37300
H22 H 0.92400 0.54900 0.37300
H23 H 0.86400 0.50100 0.33700
H24 H 0.71400 0.57900 0.45600
Cl1 Cl 0.60000 0.30340 0.47940
O5 O 0.33900 0.22660 0.42370
O6 O 0.79750 0.19340 0.44230
O7 O 0.77770 0.16630 0.33070
O8 O 0.41780 0.18410 0.32190
O9 O 1.00000 0.18840 0.25000
loop_
_geom_bond_atom_site_label_1
_geom_bond_atom_site_label_2
_geom_bond_site_symmetry_1
_geom_bond_site_symmetry_2
C1 C2 1_555 1_555
C2 C3 1_555 1_555
C3 C4 1_555 1_555
C4 C5 1_555 1_555
C5 C6 1_555 1_555
C6 C7 1_555 1_555
C7 C2 1_555 1_555
C8 C7 1_555 1_555
C9 C8 1_555 1_555
C10 C9 1_555 1_555
C11 C10 1_555 1_555
C12 C11 1_555 1_555
C13 C12 1_555 1_555
C14 C13 1_555 1_555
C15 C10 1_555 1_555
C16 C15 1_555 1_555
C17 C16 1_555 1_555
C18 O1 1_555 1_555
C19 O2 1_555 1_555
C20 C8 1_555 1_555
C21 O3 1_555 1_555
C22 O4 1_555 1_555
N1 C1 1_555 1_555
O1 C3 1_555 1_555
O2 C4 1_555 1_555
O3 C12 1_555 1_555
O4 C13 1_555 1_555
H1 C1 1_555 1_555
H2 C5 1_555 1_555
H3 C11 1_555 1_555
H4 C14 1_555 1_555
H5 C16 1_555 1_555
H6 C16 1_555 1_555
H7 C17 1_555 1_555
H8 C17 1_555 1_555
H9 C18 1_555 1_555
H10 C18 1_555 1_555
H11 C18 1_555 1_555
H12 C19 1_555 1_555
H13 C19 1_555 1_555
H14 C19 1_555 1_555
H15 C21 1_555 1_555
H16 C21 1_555 1_555
H17 C21 1_555 1_555
H18 C22 1_555 1_555
H19 C22 1_555 1_555
H20 C22 1_555 1_555
H21 C20 1_555 1_555
H22 C20 1_555 1_555
H23 C20 1_555 1_555
H24 C6 1_555 1_555
C9 N1 1_555 1_555
C14 C15 1_555 1_555
C17 N1 1_555 1_555

#END
