
#######################################################################
#
#                 Cambridge Crystallographic Data Centre
#                                CCDC 
#
#######################################################################
#
# If this CIF has been generated from an entry in the Cambridge 
# Structural Database, then it will include bibliographic, chemical, 
# crystal, experimental, refinement or atomic coordinate data resulting 
# from the CCDC's data processing and validation procedures.
#
#######################################################################

data_CEXPAW
_chemical_formula_moiety         'C11 H12 F1 N1 O3'
_chemical_name_systematic        N-Fluoroacetyl-(S)-phenylalanine
_symmetry_cell_setting           orthorhombic
_symmetry_space_group_name_H-M   'P 21 21 2'
_symmetry_Int_Tables_number      18
_space_group_name_Hall           'P 2 2ab'
loop_
_symmetry_equiv_pos_site_id
_symmetry_equiv_pos_as_xyz
1 x,y,z
2 -x,-y,z
3 1/2-x,1/2+y,-z
4 1/2+x,1/2-y,-z
_cell_length_a                   9.366(1)
_cell_length_b                   16.003(2)
_cell_length_c                   7.598(1)
_cell_angle_alpha                90
_cell_angle_beta                 90
_cell_angle_gamma                90
_cell_volume                     1138.82
_exptl_crystal_colour            colorless
_cell_formula_units_Z            4
loop_
_atom_site_label
_atom_site_type_symbol
_atom_site_fract_x
_atom_site_fract_y
_atom_site_fract_z
O1 O 0.65370(9) 0.25432(7) 0.68072(12)
H1 H 0.6298(22) 0.2359(14) 0.7906(32)
O2 O 0.44713(9) 0.19043(6) 0.61178(12)
O3 O 0.61149(10) 0.22398(6) 0.01670(11)
F1 F 0.30211(9) 0.10674(6) 0.11709(11)
N1 N 0.48669(11) 0.20849(6) 0.26932(13)
H2 H 0.4145(19) 0.1904(11) 0.3137(22)
C1 C 0.55473(12) 0.22759(8) 0.56989(15)
C2 C 0.59053(12) 0.25087(7) 0.38107(15)
H3 H 0.6891(15) 0.2296(9) 0.3570(18)
C3 C 0.59253(14) 0.34667(8) 0.3556(2)
H4 H 0.6212(17) 0.3557(11) 0.2308(25)
H5 H 0.6641(18) 0.3690(10) 0.4278(23)
C4 C 0.50633(12) 0.19693(8) 0.0979(2)
C5 C 0.39109(14) 0.14939(9) 0.0008(2)
H6 H 0.3337(19) 0.1915(11) -0.0651(24)
H7 H 0.4373(18) 0.1100(11) -0.0797(25)
C6 C 0.4575(4) 0.3883(4) 0.4240(5)
C7 C 0.4304(4) 0.4057(2) 0.6017(5)
H8 H 0.4984(4) 0.3897(2) 0.6880(5)
C8 C 0.3051(4) 0.4462(2) 0.6545(6)
H9 H 0.2897(4) 0.4572(2) 0.7759(6)
C9 C 0.2028(4) 0.4707(2) 0.5324(7)
H10 H 0.1186(4) 0.4990(2) 0.5689(7)
C10 C 0.2268(4) 0.4527(3) 0.3542(8)
H11 H 0.1576(4) 0.4681(3) 0.2688(8)
C11 C 0.3498(4) 0.4129(2) 0.3024(5)
H12 H 0.3635(4) 0.4014(2) 0.1810(5)
C12? C 0.4483(4) 0.3900(4) 0.3641(5)
C13? C 0.3939(4) 0.4103(2) 0.5244(5)
H13? H 0.4447(4) 0.3963(2) 0.6286(5)
C14? C 0.2611(4) 0.4523(2) 0.5349(6)
H14? H 0.2208(4) 0.4669(2) 0.6454(6)
C15? C 0.1924(4) 0.4713(2) 0.3808(8)
H15? H 0.1027(4) 0.4989(2) 0.3868(8)
C16? C 0.2469(4) 0.4524(2) 0.2194(6)
H16? H 0.1968(4) 0.4672(2) 0.1153(6)
C17? C 0.3770(4) 0.4113(2) 0.2099(5)
H17? H 0.4172(4) 0.3977(2) 0.0987(5)
loop_
_geom_bond_atom_site_label_1
_geom_bond_atom_site_label_2
_geom_bond_site_symmetry_1
_geom_bond_site_symmetry_2
O1 H1 1_555 1_555
O2 C1 1_555 1_555
O3 C4 1_555 1_555
F1 C5 1_555 1_555
N1 H2 1_555 1_555
C1 O1 1_555 1_555
C2 N1 1_555 1_555
H3 C2 1_555 1_555
C3 C2 1_555 1_555
H4 C3 1_555 1_555
H5 C3 1_555 1_555
C4 N1 1_555 1_555
C5 C4 1_555 1_555
H6 C5 1_555 1_555
H7 C5 1_555 1_555
C6 C3 1_555 1_555
C7 C6 1_555 1_555
H8 C7 1_555 1_555
C8 C7 1_555 1_555
H9 C8 1_555 1_555
C9 C8 1_555 1_555
H10 C9 1_555 1_555
C10 C9 1_555 1_555
H11 C10 1_555 1_555
C11 C6 1_555 1_555
H12 C11 1_555 1_555
C1 C2 1_555 1_555
C10 C11 1_555 1_555

#END
