
#######################################################################
#
#                 Cambridge Crystallographic Data Centre
#                                CCDC 
#
#######################################################################
#
# If this CIF has been generated from an entry in the Cambridge 
# Structural Database, then it will include bibliographic, chemical, 
# crystal, experimental, refinement or atomic coordinate data resulting 
# from the CCDC's data processing and validation procedures.
#
#######################################################################

data_CEXPUR
_chemical_name_common            bis(dimethylphosphorylmethyl)durene
_chemical_formula_moiety         'C16 H28 O6 P2'
_chemical_name_systematic        
'tetramethyl (2,3,5,6-tetramethyl-p-phenylenedimethylene)diphosphonate'
_symmetry_cell_setting           monoclinic
_symmetry_space_group_name_H-M   'P 21/c'
_symmetry_Int_Tables_number      14
_space_group_name_Hall           '-P 2ybc'
loop_
_symmetry_equiv_pos_site_id
_symmetry_equiv_pos_as_xyz
1 x,y,z
2 -x,1/2+y,1/2-z
3 -x,-y,-z
4 x,1/2-y,1/2+z
_cell_length_a                   5.8561(4)
_cell_length_b                   19.6347(14)
_cell_length_c                   8.2554(6)
_cell_angle_alpha                90
_cell_angle_beta                 105.7920(10)
_cell_angle_gamma                90
_cell_volume                     913.401
_exptl_crystal_colour            colorless
_exptl_crystal_description       plate
_cell_formula_units_Z            2
_exptl_crystal_recrystallization_method acetone
loop_
_atom_site_label
_atom_site_type_symbol
_atom_site_fract_x
_atom_site_fract_y
_atom_site_fract_z
P1 P 0.50620(7) 0.34138(2) 0.81296(5)
O1 O 0.5928(2) 0.40134(6) 0.94390(15)
O2 O 0.6422(2) 0.27515(6) 0.89694(16)
O3 O 0.2500(2) 0.32859(7) 0.76660(17)
C1 C 0.7179(3) 0.49022(9) 0.62184(19)
C2 C 0.6299(3) 0.36483(9) 0.6442(2)
H1 H 0.8050 0.3626 0.6860
H2 H 0.5795 0.3308 0.5530
C3 C 0.3429(3) 0.44521(9) 0.4496(2)
C4 C 0.9532(3) 0.48101(9) 0.7527(2)
H3 H 1.0820 0.4821 0.6979
H4 H 0.9545 0.4371 0.8094
H5 H 0.9756 0.5179 0.8357
C5 C 0.1692(3) 0.38711(9) 0.3941(2)
H6 H 0.2451 0.3442 0.4407
H7 H 0.0291 0.3950 0.4349
H8 H 0.1211 0.3845 0.2709
C6 C 0.5607(3) 0.43519(8) 0.5704(2)
C7 C 0.8926(3) 0.27751(10) 0.9854(3)
H9 H 0.9845 0.2883 0.9056
H10 H 0.9427 0.2332 1.0375
H11 H 0.9199 0.3127 1.0728
C8 C 0.4968(3) 0.40612(11) 1.0874(2)
H12 H 0.3230 0.4052 1.0488
H13 H 0.5490 0.4488 1.1476
H14 H 0.5531 0.3675 1.1631
P1B P 0.49380(7) 0.65862(2) 0.18704(5)
O1B O 0.4072(2) 0.59866(6) 0.05610(15)
O2B O 0.3578(2) 0.72485(6) 0.10306(16)
O3B O 0.7500(2) 0.67141(7) 0.23340(17)
C1B C 0.2821(3) 0.50978(9) 0.37816(19)
C2B C 0.3701(3) 0.63517(9) 0.3558(2)
H1B H 0.1950 0.6374 0.3140
H2B H 0.4205 0.6692 0.4470
C3B C 0.6571(3) 0.55479(9) 0.5504(2)
C4B C 0.0468(3) 0.51899(9) 0.2473(2)
H3B H -0.0820 0.5179 0.3021
H4B H 0.0455 0.5629 0.1906
H5B H 0.0244 0.4821 0.1643
C5B C 0.8308(3) 0.61289(9) 0.6059(2)
H6B H 0.7549 0.6558 0.5593
H7B H 0.9709 0.6050 0.5651
H8B H 0.8789 0.6155 0.7291
C6B C 0.4393(3) 0.56481(8) 0.4296(2)
C7B C 0.1074(3) 0.72249(10) 0.0146(3)
H9B H 0.0155 0.7117 0.0944
H10B H 0.0573 0.7668 -0.0375
H11B H 0.0801 0.6873 -0.0728
C8B C 0.5032(3) 0.59388(11) -0.0874(2)
H12B H 0.6770 0.5948 -0.0488
H13B H 0.4510 0.5512 -0.1476
H14B H 0.4469 0.6325 -0.1631
loop_
_geom_bond_atom_site_label_1
_geom_bond_atom_site_label_2
_geom_bond_site_symmetry_1
_geom_bond_site_symmetry_2
P1 O1 1_555 1_555
O1 C8 1_555 1_555
O2 P1 1_555 1_555
O3 P1 1_555 1_555
C1 C4 1_555 1_555
C2 P1 1_555 1_555
H1 C2 1_555 1_555
H2 C2 1_555 1_555
C3 C5 1_555 1_555
C4 H3 1_555 1_555
H4 C4 1_555 1_555
H5 C4 1_555 1_555
C5 H6 1_555 1_555
H7 C5 1_555 1_555
H8 C5 1_555 1_555
C6 C1 1_555 1_555
C7 O2 1_555 1_555
H9 C7 1_555 1_555
H10 C7 1_555 1_555
H11 C7 1_555 1_555
C8 H12 1_555 1_555
H13 C8 1_555 1_555
H14 C8 1_555 1_555
P1B O1B 1_555 1_555
O1B C8B 1_555 1_555
O2B P1B 1_555 1_555
O3B P1B 1_555 1_555
C1B C3 1_555 1_555
C2B P1B 1_555 1_555
H1B C2B 1_555 1_555
H2B C2B 1_555 1_555
C3B C1 1_555 1_555
C4B C1B 1_555 1_555
H3B C4B 1_555 1_555
H4B C4B 1_555 1_555
H5B C4B 1_555 1_555
C5B C3B 1_555 1_555
H6B C5B 1_555 1_555
H7B C5B 1_555 1_555
H8B C5B 1_555 1_555
C6B C1B 1_555 1_555
C7B O2B 1_555 1_555
H9B C7B 1_555 1_555
H10B C7B 1_555 1_555
H11B C7B 1_555 1_555
C8B H12B 1_555 1_555
H13B C8B 1_555 1_555
H14B C8B 1_555 1_555
C2 C6 1_555 1_555
C3 C6 1_555 1_555
C2B C6B 1_555 1_555
C3B C6B 1_555 1_555

#END
