
#######################################################################
#
#                 Cambridge Crystallographic Data Centre
#                                CCDC 
#
#######################################################################
#
# If this CIF has been generated from an entry in the Cambridge 
# Structural Database, then it will include bibliographic, chemical, 
# crystal, experimental, refinement or atomic coordinate data resulting 
# from the CCDC's data processing and validation procedures.
#
#######################################################################

data_CEXQAX
_chemical_formula_moiety         
'C60 H68 N12 Na1 O4 1+,Cl1 1-,2(C2 H3 N1),H2 O1'
_chemical_name_systematic        
"(S)-(1,4,7,10-tetrakis(1-(4-Quinolyl)ethylaminocarbonylmethyl)-1,4,7,10-tetra-azacyclododecane-N,N',N'',N''',O,O',O'',O''')-sodium chloride acetonitrile solvate monohydrate"
_symmetry_cell_setting           orthorhombic
_symmetry_space_group_name_H-M   'P 21 21 21'
_symmetry_Int_Tables_number      19
_space_group_name_Hall           'P 2ac 2ab'
loop_
_symmetry_equiv_pos_site_id
_symmetry_equiv_pos_as_xyz
1 x,y,z
2 1/2-x,-y,1/2+z
3 -x,1/2+y,1/2-z
4 1/2+x,1/2-y,-z
_cell_length_a                   12.0573(14)
_cell_length_b                   14.6746(17)
_cell_length_c                   34.231(4)
_cell_angle_alpha                90
_cell_angle_beta                 90
_cell_angle_gamma                90
_cell_volume                     6056.7
_exptl_crystal_colour            colorless
_exptl_crystal_description       block
_cell_formula_units_Z            4
loop_
_atom_site_label
_atom_site_type_symbol
_atom_site_fract_x
_atom_site_fract_y
_atom_site_fract_z
Na1 Na 0.0742(2) 0.01017(18) 0.87805(8)
O1 O 0.1613(5) -0.0580(4) 0.93594(17)
O2 O 0.1630(5) 0.1431(4) 0.90505(17)
O3 O 0.1592(5) 0.0739(4) 0.82052(16)
O4 O 0.1619(5) -0.1267(4) 0.85237(17)
N1 N -0.0578(6) -0.0008(4) 0.94045(18)
N2 N -0.0583(6) 0.1571(4) 0.88452(19)
N3 N -0.0675(6) 0.0295(4) 0.81686(19)
N4 N -0.0662(6) -0.1281(5) 0.8719(2)
N5 N 0.1698(6) -0.0724(5) 1.0010(2)
H1 H 0.1400 -0.0631 1.0241
N6 N 0.1789(6) 0.2963(4) 0.9110(2)
H2 H 0.1481 0.3502 0.9079
N7 N 0.1562(6) 0.1065(5) 0.7556(2)
H3 H 0.1168 0.1095 0.7340
N8 N 0.1463(7) -0.2744(5) 0.8361(2)
H4 H 0.1044 -0.3235 0.8355
N9 N 0.2344(9) -0.3752(6) 0.9348(3)
N10 N 0.2887(10) 0.1315(7) 1.0354(2)
N11 N 0.2995(8) 0.3867(6) 0.8275(3)
N12 N 0.2780(8) -0.0948(6) 0.7182(2)
C1 C -0.1429(7) 0.0699(6) 0.9394(3)
H5 H -0.1729 0.0782 0.9661
H6 H -0.2044 0.0491 0.9225
C2 C -0.1025(8) 0.1599(6) 0.9248(3)
H7 H -0.1645 0.2040 0.9257
H8 H -0.0436 0.1823 0.9425
C3 C -0.1496(7) 0.1578(6) 0.8565(2)
H9 H -0.1784 0.2207 0.8538
H10 H -0.2105 0.1188 0.8663
C4 C -0.1113(7) 0.1225(6) 0.8156(2)
H11 H -0.1750 0.1245 0.7974
H12 H -0.0534 0.1638 0.8053
C5 C -0.1561(7) -0.0363(5) 0.8190(2)
H13 H -0.1903 -0.0427 0.7928
H14 H -0.2138 -0.0136 0.8371
C6 C -0.1161(7) -0.1296(6) 0.8329(3)
H15 H -0.1798 -0.1722 0.8331
H16 H -0.0609 -0.1533 0.8141
C7 C -0.1511(7) -0.1229(6) 0.9018(2)
H17 H -0.1870 -0.1832 0.9043
H18 H -0.2085 -0.0787 0.8934
C8 C -0.1066(8) -0.0943(6) 0.9413(3)
H19 H -0.1675 -0.0960 0.9607
H20 H -0.0491 -0.1382 0.9498
C9 C 0.0168(7) 0.0117(6) 0.9737(3)
H21 H -0.0207 -0.0080 0.9980
H22 H 0.0357 0.0771 0.9764
C10 C 0.1193(7) -0.0418(5) 0.9681(2)
C11 C 0.2743(7) -0.1209(6) 0.9971(3)
H23 H 0.3293 -0.0811 0.9834
C12 C 0.3175(11) -0.1428(8) 1.0396(3)
H24 H 0.3258 -0.0859 1.0543
H25 H 0.3894 -0.1737 1.0380
H26 H 0.2642 -0.1825 1.0529
C13 C 0.2625(7) -0.2089(6) 0.9753(3)
C14 C 0.0155(7) 0.2341(6) 0.8776(3)
H27 H -0.0197 0.2911 0.8867
H28 H 0.0308 0.2400 0.8493
C15 C 0.1244(7) 0.2176(5) 0.8999(2)
C16 C 0.2883(7) 0.2872(6) 0.9278(2)
H29 H 0.3375 0.2561 0.9084
C17 C 0.3344(9) 0.3822(7) 0.9357(3)
H30 H 0.3366 0.4169 0.9113
H31 H 0.4095 0.3771 0.9464
H32 H 0.2866 0.4136 0.9546
C18 C 0.2859(8) 0.2322(6) 0.9641(2)
C19 C 0.0039(7) 0.0168(6) 0.7839(2)
H33 H -0.0338 0.0386 0.7600
H34 H 0.0199 -0.0489 0.7806
C20 C 0.1116(7) 0.0685(6) 0.7894(3)
C21 C 0.2680(8) 0.1408(6) 0.7566(3)
H35 H 0.3159 0.0919 0.7680
C22 C 0.3089(9) 0.1585(8) 0.7153(3)
H36 H 0.3001 0.1031 0.6996
H37 H 0.3873 0.1759 0.7161
H38 H 0.2655 0.2080 0.7037
C23 C 0.2800(8) 0.2246(6) 0.7825(3)
C24 C 0.0073(8) -0.2079(5) 0.8766(3)
H39 H -0.0324 -0.2634 0.8679
H40 H 0.0260 -0.2154 0.9045
C25 C 0.1106(8) -0.1981(6) 0.8538(3)
C26 C 0.2581(8) -0.2745(6) 0.8175(3)
H41 H 0.3144 -0.2549 0.8372
C27 C 0.2855(10) -0.3721(7) 0.8041(4)
H42 H 0.3593 -0.3732 0.7921
H43 H 0.2302 -0.3923 0.7850
H44 H 0.2844 -0.4131 0.8267
C28 C 0.2632(8) -0.2120(6) 0.7837(3)
C29 C 0.1708(9) -0.2623(6) 0.9798(3)
H45 H 0.1142 -0.2445 0.9975
C30 C 0.1594(10) -0.3439(6) 0.9582(4)
H46 H 0.0927 -0.3777 0.9611
C31 C 0.3272(8) -0.3245(7) 0.9291(3)
C32 C 0.4089(11) -0.3619(8) 0.9053(4)
H47 H 0.3991 -0.4213 0.8948
C33 C 0.5054(12) -0.3128(9) 0.8966(4)
H48 H 0.5566 -0.3354 0.8778
C34 C 0.5270(10) -0.2250(9) 0.9169(4)
H49 H 0.5942 -0.1926 0.9128
C35 C 0.4475(8) -0.1920(7) 0.9417(3)
H50 H 0.4590 -0.1354 0.9545
C36 C 0.3475(8) -0.2417(6) 0.9485(3)
C37 C 0.1997(9) 0.2354(7) 0.9892(3)
H51 H 0.1364 0.2712 0.9831
C38 C 0.2032(12) 0.1843(9) 1.0257(3)
H52 H 0.1423 0.1888 1.0432
C39 C 0.3767(10) 0.1264(6) 1.0104(3)
C40 C 0.4683(15) 0.0709(9) 1.0208(5)
H53 H 0.4701 0.0404 1.0453
C41 C 0.5519(16) 0.0623(9) 0.9955(6)
H54 H 0.6109 0.0225 1.0023
C42 C 0.5585(10) 0.1069(9) 0.9605(4)
H55 H 0.6222 0.1009 0.9444
C43 C 0.4729(9) 0.1594(8) 0.9494(3)
H56 H 0.4757 0.1869 0.9243
C44 C 0.3766(8) 0.1763(6) 0.9736(3)
C45 C 0.1962(8) 0.2901(7) 0.7842(3)
H57 H 0.1287 0.2814 0.7704
C46 C 0.2135(9) 0.3697(7) 0.8069(3)
H58 H 0.1563 0.4143 0.8068
C47 C 0.3848(8) 0.3216(6) 0.8267(3)
C48 C 0.4786(9) 0.3387(7) 0.8491(3)
H59 H 0.4826 0.3923 0.8646
C49 C 0.5641(10) 0.2794(9) 0.8489(4)
H60 H 0.6274 0.2912 0.8646
C50 C 0.5608(9) 0.2015(8) 0.8260(4)
H61 H 0.6227 0.1615 0.8255
C51 C 0.4696(8) 0.1820(7) 0.8043(3)
H62 H 0.4671 0.1282 0.7889
C52 C 0.3767(8) 0.2437(7) 0.8048(3)
C53 C 0.1782(10) -0.1977(7) 0.7577(3)
H63 H 0.1094 -0.2274 0.7624
C54 C 0.1869(9) -0.1440(8) 0.7259(3)
H64 H 0.1261 -0.1408 0.7083
C55 C 0.3628(8) -0.1038(6) 0.7425(3)
C56 C 0.4609(9) -0.0509(7) 0.7334(3)
H65 H 0.4631 -0.0132 0.7108
C57 C 0.5513(9) -0.0565(7) 0.7581(3)
H66 H 0.6157 -0.0217 0.7523
C58 C 0.5506(9) -0.1112(6) 0.7909(3)
H67 H 0.6129 -0.1126 0.8079
C59 C 0.4567(8) -0.1648(7) 0.7990(3)
H68 H 0.4578 -0.2049 0.8207
C60 C 0.3609(8) -0.1601(6) 0.7754(3)
Cl1 Cl 0.0173(2) 0.05676(19) 0.67648(8)
O5 O 0.1002(7) 0.4807(4) 0.8983(2)
C61 C 0.3761(8) 0.0035(7) 0.8742(3)
H69 H 0.3456 0.0018 0.9007
H70 H 0.3482 -0.0487 0.8593
H71 H 0.3534 0.0602 0.8613
N13 N 0.5884(7) -0.0036(6) 0.8777(3)
C62 C 0.4915(9) -0.0004(6) 0.8759(3)
N14 N 0.3791(9) -0.0140(7) 0.5788(3)
C63 C 0.326(2) 0.0003(17) 0.6063(6)
C64 C 0.2640(19) 0.0067(18) 0.6433(6)
N15? N 0.3791(9) -0.0140(7) 0.5788(3)
C65? C 0.310(2) -0.041(2) 0.5993(8)
C66? C 0.220(2) -0.042(2) 0.6278(8)
loop_
_geom_bond_atom_site_label_1
_geom_bond_atom_site_label_2
_geom_bond_site_symmetry_1
_geom_bond_site_symmetry_2
Na1 O1 1_555 1_555
O1 C10 1_555 1_555
O2 Na1 1_555 1_555
O3 Na1 1_555 1_555
O4 Na1 1_555 1_555
N1 Na1 1_555 1_555
N2 Na1 1_555 1_555
N3 Na1 1_555 1_555
N4 Na1 1_555 1_555
N5 H1 1_555 1_555
N6 H2 1_555 1_555
N7 H3 1_555 1_555
N8 H4 1_555 1_555
N9 C30 1_555 1_555
N10 C38 1_555 1_555
N11 C46 1_555 1_555
N12 C54 1_555 1_555
C1 N1 1_555 1_555
H5 C1 1_555 1_555
H6 C1 1_555 1_555
C2 N2 1_555 1_555
H7 C2 1_555 1_555
H8 C2 1_555 1_555
C3 N2 1_555 1_555
H9 C3 1_555 1_555
H10 C3 1_555 1_555
C4 N3 1_555 1_555
H11 C4 1_555 1_555
H12 C4 1_555 1_555
C5 N3 1_555 1_555
H13 C5 1_555 1_555
H14 C5 1_555 1_555
C6 N4 1_555 1_555
H15 C6 1_555 1_555
H16 C6 1_555 1_555
C7 N4 1_555 1_555
H17 C7 1_555 1_555
H18 C7 1_555 1_555
C8 N1 1_555 1_555
H19 C8 1_555 1_555
H20 C8 1_555 1_555
C9 N1 1_555 1_555
H21 C9 1_555 1_555
H22 C9 1_555 1_555
C10 N5 1_555 1_555
C11 N5 1_555 1_555
H23 C11 1_555 1_555
C12 C11 1_555 1_555
H24 C12 1_555 1_555
H25 C12 1_555 1_555
H26 C12 1_555 1_555
C13 C11 1_555 1_555
C14 N2 1_555 1_555
H27 C14 1_555 1_555
H28 C14 1_555 1_555
C15 O2 1_555 1_555
C16 N6 1_555 1_555
H29 C16 1_555 1_555
C17 C16 1_555 1_555
H30 C17 1_555 1_555
H31 C17 1_555 1_555
H32 C17 1_555 1_555
C18 C16 1_555 1_555
C19 N3 1_555 1_555
H33 C19 1_555 1_555
H34 C19 1_555 1_555
C20 O3 1_555 1_555
C21 N7 1_555 1_555
H35 C21 1_555 1_555
C22 C21 1_555 1_555
H36 C22 1_555 1_555
H37 C22 1_555 1_555
H38 C22 1_555 1_555
C23 C21 1_555 1_555
C24 N4 1_555 1_555
H39 C24 1_555 1_555
H40 C24 1_555 1_555
C25 O4 1_555 1_555
C26 N8 1_555 1_555
H41 C26 1_555 1_555
C27 C26 1_555 1_555
H42 C27 1_555 1_555
H43 C27 1_555 1_555
H44 C27 1_555 1_555
C28 C26 1_555 1_555
C29 C13 1_555 1_555
H45 C29 1_555 1_555
C30 C29 1_555 1_555
H46 C30 1_555 1_555
C31 N9 1_555 1_555
C32 C31 1_555 1_555
H47 C32 1_555 1_555
C33 C32 1_555 1_555
H48 C33 1_555 1_555
C34 C33 1_555 1_555
H49 C34 1_555 1_555
C35 C34 1_555 1_555
H50 C35 1_555 1_555
C36 C13 1_555 1_555
C37 C18 1_555 1_555
H51 C37 1_555 1_555
C38 C37 1_555 1_555
H52 C38 1_555 1_555
C39 N10 1_555 1_555
C40 C39 1_555 1_555
H53 C40 1_555 1_555
C41 C40 1_555 1_555
H54 C41 1_555 1_555
C42 C41 1_555 1_555
H55 C42 1_555 1_555
C43 C42 1_555 1_555
H56 C43 1_555 1_555
C44 C18 1_555 1_555
C45 C23 1_555 1_555
H57 C45 1_555 1_555
C46 C45 1_555 1_555
H58 C46 1_555 1_555
C47 N11 1_555 1_555
C48 C47 1_555 1_555
H59 C48 1_555 1_555
C49 C48 1_555 1_555
H60 C49 1_555 1_555
C50 C49 1_555 1_555
H61 C50 1_555 1_555
C51 C50 1_555 1_555
H62 C51 1_555 1_555
C52 C23 1_555 1_555
C53 C28 1_555 1_555
H63 C53 1_555 1_555
C54 C53 1_555 1_555
H64 C54 1_555 1_555
C55 N12 1_555 1_555
C56 C55 1_555 1_555
H65 C56 1_555 1_555
C57 C56 1_555 1_555
H66 C57 1_555 1_555
C58 C57 1_555 1_555
H67 C58 1_555 1_555
C59 C58 1_555 1_555
H68 C59 1_555 1_555
C60 C28 1_555 1_555
C61 H69 1_555 1_555
H70 C61 1_555 1_555
H71 C61 1_555 1_555
N13 C62 1_555 1_555
C62 C61 1_555 1_555
N14 C63 1_555 1_555
C63 C64 1_555 1_555
N6 C15 1_555 1_555
N7 C20 1_555 1_555
N8 C25 1_555 1_555
C1 C2 1_555 1_555
C3 C4 1_555 1_555
C5 C6 1_555 1_555
C7 C8 1_555 1_555
C9 C10 1_555 1_555
C14 C15 1_555 1_555
C19 C20 1_555 1_555
C24 C25 1_555 1_555
C31 C36 1_555 1_555
C35 C36 1_555 1_555
C39 C44 1_555 1_555
C43 C44 1_555 1_555
C47 C52 1_555 1_555
C51 C52 1_555 1_555
C55 C60 1_555 1_555
C59 C60 1_555 1_555

#END
