
#######################################################################
#
#                 Cambridge Crystallographic Data Centre
#                                CCDC 
#
#######################################################################
#
# If this CIF has been generated from an entry in the Cambridge 
# Structural Database, then it will include bibliographic, chemical, 
# crystal, experimental, refinement or atomic coordinate data resulting 
# from the CCDC's data processing and validation procedures.
#
#######################################################################

data_CEXQUR
_chemical_formula_moiety         'C18 H20 O6'
_chemical_name_systematic        
6,13-Dihydroxy-2,3:9,10-dibenzo-1,4,8,11-tetraoxacyclotetradeca-2,9-diene
_symmetry_cell_setting           monoclinic
_symmetry_space_group_name_H-M   'C 2/c'
_symmetry_Int_Tables_number      15
_space_group_name_Hall           '-C 2yn'
loop_
_symmetry_equiv_pos_site_id
_symmetry_equiv_pos_as_xyz
1 x,y,z
2 1/2+x,1/2+y,z
3 -x,y,1/2-z
4 1/2-x,1/2+y,1/2-z
5 -x,-y,-z
6 1/2-x,1/2-y,-z
7 x,-y,1/2+z
8 1/2+x,1/2-y,1/2+z
_cell_length_a                   33.139(8)
_cell_length_b                   5.0640(10)
_cell_length_c                   20.155(3)
_cell_angle_alpha                90
_cell_angle_beta                 108.30(2)
_cell_angle_gamma                90
_cell_volume                     3211.27
_exptl_crystal_colour            colorless
_exptl_crystal_description       block
_cell_formula_units_Z            8
_exptl_crystal_recrystallization_method acetonitrile
loop_
_atom_site_label
_atom_site_type_symbol
_atom_site_fract_x
_atom_site_fract_y
_atom_site_fract_z
O1 O 0.13050(6) -0.1562(4) 0.15499(9)
C1 C 0.09980(8) -0.3453(5) 0.15879(14)
H1 H 0.11196(8) -0.4654(5) 0.19665(14)
H2 H 0.07581(8) -0.2578(5) 0.16596(14)
C2 C 0.08606(9) -0.4943(5) 0.09028(14)
H3 H 0.11186(9) -0.5409(5) 0.08105(14)
O2 O 0.06112(6) -0.7135(4) 0.09804(11)
H4 H 0.08813(6) -0.8868(4) 0.11138(11)
C3 C 0.05986(8) -0.3385(5) 0.02741(14)
H5 H 0.03721(8) -0.2478(5) 0.03806(14)
H6 H 0.04819(8) -0.4551(5) -0.01145(14)
O3 O 0.08755(6) -0.1536(4) 0.01117(9)
C4 C 0.07254(8) -0.0007(5) -0.04774(13)
C5 C 0.03264(8) -0.0190(6) -0.09570(14)
H7 H 0.01282(8) -0.1485(6) -0.08999(14)
C6 C 0.02126(10) 0.1504(7) -0.1528(2)
H8 H -0.00659(10) 0.1375(7) -0.1864(2)
C7 C 0.04896(10) 0.3345(7) -0.16162(15)
H9 H 0.04064(10) 0.4505(7) -0.20127(15)
C8 C 0.08949(9) 0.3549(6) -0.11307(14)
H10 H 0.10901(9) 0.4861(6) -0.11886(14)
C9 C 0.10136(8) 0.1864(5) -0.05683(12)
O4 O 0.14028(5) 0.1867(4) -0.00616(8)
C10 C 0.16999(8) 0.3870(6) -0.00791(13)
H11 H 0.17489(8) 0.3855(6) -0.05238(13)
H12 H 0.15931(8) 0.5569(6) -0.00038(13)
C11 C 0.21105(8) 0.3284(6) 0.04957(14)
H13 H 0.23099(8) 0.4566(6) 0.04365(14)
O5 O 0.22442(6) 0.0651(4) 0.04159(10)
H14 H 0.20007(6) -0.0369(4) 0.05339(10)
C12 C 0.21073(8) 0.3737(6) 0.12370(13)
H15 H 0.19946(8) 0.5456(6) 0.12760(13)
H16 H 0.23909(8) 0.3603(6) 0.15559(13)
O6 O 0.18450(5) 0.1752(4) 0.13894(8)
C13 C 0.18085(8) 0.1689(5) 0.20460(13)
C14 C 0.20299(8) 0.3253(6) 0.25974(14)
H17 H 0.22330(8) 0.4510(6) 0.25393(14)
C15 C 0.19606(9) 0.3002(6) 0.32423(14)
H18 H 0.21184(9) 0.4077(6) 0.36291(14)
C16 C 0.16693(10) 0.1231(6) 0.33228(15)
H19 H 0.16225(10) 0.1065(6) 0.37676(15)
C17 C 0.14413(9) -0.0324(6) 0.27701(14)
H20 H 0.12338(9) -0.1548(6) 0.28283(14)
C18 C 0.15107(8) -0.0121(5) 0.21340(13)
loop_
_geom_bond_atom_site_label_1
_geom_bond_atom_site_label_2
_geom_bond_site_symmetry_1
_geom_bond_site_symmetry_2
O1 C1 1_555 1_555
C1 H1 1_555 1_555
H2 C1 1_555 1_555
C2 C1 1_555 1_555
H3 C2 1_555 1_555
O2 C2 1_555 1_555
H4 O2 1_555 1_555
C3 C2 1_555 1_555
H5 C3 1_555 1_555
H6 C3 1_555 1_555
O3 C3 1_555 1_555
C4 O3 1_555 1_555
C5 C4 1_555 1_555
H7 C5 1_555 1_555
C6 C5 1_555 1_555
H8 C6 1_555 1_555
C7 C6 1_555 1_555
H9 C7 1_555 1_555
C8 C7 1_555 1_555
H10 C8 1_555 1_555
C9 C4 1_555 1_555
O4 C9 1_555 1_555
C10 O4 1_555 1_555
H11 C10 1_555 1_555
H12 C10 1_555 1_555
C11 C10 1_555 1_555
H13 C11 1_555 1_555
O5 C11 1_555 1_555
H14 O5 1_555 1_555
C12 C11 1_555 1_555
H15 C12 1_555 1_555
H16 C12 1_555 1_555
O6 C12 1_555 1_555
C13 O6 1_555 1_555
C14 C13 1_555 1_555
H17 C14 1_555 1_555
C15 C14 1_555 1_555
H18 C15 1_555 1_555
C16 C15 1_555 1_555
H19 C16 1_555 1_555
C17 C16 1_555 1_555
H20 C17 1_555 1_555
C18 O1 1_555 1_555
C8 C9 1_555 1_555
C13 C18 1_555 1_555
C17 C18 1_555 1_555

#END
