
#######################################################################
#
#                 Cambridge Crystallographic Data Centre
#                                CCDC 
#
#######################################################################
#
# If this CIF has been generated from an entry in the Cambridge 
# Structural Database, then it will include bibliographic, chemical, 
# crystal, experimental, refinement or atomic coordinate data resulting 
# from the CCDC's data processing and validation procedures.
#
#######################################################################

data_CEXQOL
_chemical_name_common            sym-(Hydroxy)(methyl)-dibenzo-14-crown-4
_chemical_formula_moiety         'C19 H22 O5'
_chemical_name_systematic        
6-Hydroxy-6-methyl-2,3:9,10-dibenzo-1,4,8,11-tetraoxacyclotetradeca-2,9-diene
_symmetry_cell_setting           orthorhombic
_symmetry_space_group_name_H-M   'C m c 21'
_symmetry_Int_Tables_number      36
_space_group_name_Hall           'C 2n -2'
loop_
_symmetry_equiv_pos_site_id
_symmetry_equiv_pos_as_xyz
1 x,y,z
2 -x,y,z
3 x,-y,1/2+z
4 -x,-y,1/2+z
5 1/2+x,1/2+y,z
6 1/2-x,1/2+y,z
7 1/2+x,1/2-y,1/2+z
8 1/2-x,1/2-y,1/2+z
_cell_length_a                   17.060(7)
_cell_length_b                   17.922(5)
_cell_length_c                   5.552(2)
_cell_angle_alpha                90
_cell_angle_beta                 90
_cell_angle_gamma                90
_cell_volume                     1697.52
_exptl_crystal_colour            colorless
_exptl_crystal_description       plate
_chemical_melting_point          146-147deg.C
_cell_formula_units_Z            4
_exptl_crystal_recrystallization_method acetonitrile
loop_
_atom_site_label
_atom_site_type_symbol
_atom_site_fract_x
_atom_site_fract_y
_atom_site_fract_z
C1 C 0.0000 0.4005(3) 0.6975(14)
H1 H 0.0000 0.4376(3) 0.8708(14)
H2 H 0.0000 0.3390(3) 0.7518(14)
C2 C 0.0746(2) 0.4135(2) 0.5556(13)
H3 H 0.1184(2) 0.4142(2) 0.6639(13)
H4 H 0.0716(2) 0.4602(2) 0.4715(13)
O1 O 0.0836(2) 0.35442(15) 0.3891
C3 C 0.1442(2) 0.3578(2) 0.2286(12)
C4 C 0.2028(3) 0.4096(3) 0.2322(13)
H5 H 0.2027(3) 0.4482(3) 0.3522(13)
C5 C 0.2633(3) 0.4065(3) 0.0616(14)
H6 H 0.3047(3) 0.4428(3) 0.0651(14)
C6 C 0.2632(3) 0.3508(3) -0.1125(14)
H7 H 0.3046(3) 0.3484(3) -0.2293(14)
C7 C 0.2032(3) 0.2986(3) -0.1159(13)
H8 H 0.2030(3) 0.2600(3) -0.2355(13)
C8 C 0.1444(3) 0.3018(3) 0.0502(12)
O2 O 0.0814(2) 0.2545(2) 0.0609(10)
C9 C 0.0737(3) 0.1974(3) -0.1182(13)
H9 H 0.0687(3) 0.2197(3) -0.2747(13)
H10 H 0.1189(3) 0.1655(3) -0.1155(13)
C10 C 0.0000 0.1532(5) -0.0586(17)
C11 C 0.0000 0.0815(4) -0.2087(23)
H11 H 0.0000 0.0980(4) -0.3668(23)
H12 H 0.0582 0.0684(4) -0.1886(23)
O3 O 0.0000 0.1334(4) 0.1934(15)
H13 H 0.0000 0.1924(4) 0.3136(15)
C9A C -0.0737(3) 0.1974(3) -0.1182(13)
O2A O -0.0814(2) 0.2545(2) 0.0609(10)
C8A C -0.1444(3) 0.3018(3) 0.0502(12)
C3A C -0.1442(2) 0.3578(2) 0.2286(12)
O1A O -0.0836(2) 0.35442(15) 0.3891
C2A C -0.0746(2) 0.4135(2) 0.5556(13)
H3A H -0.1184(2) 0.4142(2) 0.6639(13)
H4A H -0.0716(2) 0.4602(2) 0.4715(13)
C4A C -0.2028(3) 0.4096(3) 0.2322(13)
H5A H -0.2027(3) 0.4482(3) 0.3522(13)
C5A C -0.2633(3) 0.4065(3) 0.0616(14)
H6A H -0.3047(3) 0.4428(3) 0.0651(14)
C6A C -0.2632(3) 0.3508(3) -0.1125(14)
H7A H -0.3046(3) 0.3484(3) -0.2293(14)
C7A C -0.2032(3) 0.2986(3) -0.1159(13)
H8A H -0.2030(3) 0.2600(3) -0.2355(13)
H9A H -0.0687(3) 0.2197(3) -0.2747(13)
H10A H -0.1189(3) 0.1655(3) -0.1155(13)
H12A H -0.0582 0.0684(4) -0.1886(23)
loop_
_geom_bond_atom_site_label_1
_geom_bond_atom_site_label_2
_geom_bond_site_symmetry_1
_geom_bond_site_symmetry_2
C1 H1 1_555 1_555
H2 C1 1_555 1_555
C2 C1 1_555 1_555
H3 C2 1_555 1_555
H4 C2 1_555 1_555
O1 C2 1_555 1_555
C3 O1 1_555 1_555
C4 C3 1_555 1_555
H5 C4 1_555 1_555
C5 C4 1_555 1_555
H6 C5 1_555 1_555
C6 C5 1_555 1_555
H7 C6 1_555 1_555
C7 C6 1_555 1_555
H8 C7 1_555 1_555
C8 C3 1_555 1_555
O2 C8 1_555 1_555
C9 O2 1_555 1_555
H9 C9 1_555 1_555
H10 C9 1_555 1_555
C10 C9 1_555 1_555
C11 C10 1_555 1_555
H11 C11 1_555 1_555
H12 C11 1_555 1_555
O3 C10 1_555 1_555
H13 O3 1_555 1_555
C9A C10 1_555 1_555
O2A C9A 1_555 1_555
C8A O2A 1_555 1_555
C3A C8A 1_555 1_555
O1A C3A 1_555 1_555
C2A C1 1_555 1_555
H3A C2A 1_555 1_555
H4A C2A 1_555 1_555
C4A C3A 1_555 1_555
H5A C4A 1_555 1_555
C5A C4A 1_555 1_555
H6A C5A 1_555 1_555
C6A C5A 1_555 1_555
H7A C6A 1_555 1_555
C7A C8A 1_555 1_555
H8A C7A 1_555 1_555
H9A C9A 1_555 1_555
H10A C9A 1_555 1_555
H12A C11 1_555 1_555
C7 C8 1_555 1_555
O1A C2A 1_555 1_555
C6A C7A 1_555 1_555

#END
