
#######################################################################
#
#                 Cambridge Crystallographic Data Centre
#                                CCDC 
#
#######################################################################
#
# If this CIF has been generated from an entry in the Cambridge 
# Structural Database, then it will include bibliographic, chemical, 
# crystal, experimental, refinement or atomic coordinate data resulting 
# from the CCDC's data processing and validation procedures.
#
#######################################################################

data_CEYBAM
_chemical_formula_moiety         'C11 H11 Br1 S3 Si1'
_chemical_name_systematic        
(2-bromobisthieno[2,3-b:2',3'-d]thiophen-6-yl)(trimethyl)silane
_symmetry_cell_setting           orthorhombic
_symmetry_space_group_name_H-M   'P n m a'
_symmetry_Int_Tables_number      62
_space_group_name_Hall           '-P 2ac 2n'
loop_
_symmetry_equiv_pos_site_id
_symmetry_equiv_pos_as_xyz
1 x,y,z
2 1/2-x,-y,1/2+z
3 -x,1/2+y,-z
4 1/2+x,1/2-y,1/2-z
5 -x,-y,-z
6 1/2+x,y,1/2-z
7 x,1/2-y,z
8 1/2-x,1/2+y,1/2+z
_cell_length_a                   12.594(5)
_cell_length_b                   7.353(3)
_cell_length_c                   15.175(6)
_cell_angle_alpha                90
_cell_angle_beta                 90
_cell_angle_gamma                90
_cell_volume                     1405.26
_exptl_crystal_colour            colorless
_exptl_crystal_description       rod
_cell_formula_units_Z            4
loop_
_atom_site_label
_atom_site_type_symbol
_atom_site_fract_x
_atom_site_fract_y
_atom_site_fract_z
Br1 Br 0.18351(4) 0.2500 1.27668(3)
Si1 Si 0.00519(8) 0.2500 0.65256(6)
S1 S 0.16710(8) 0.2500 1.07192(6)
S2 S -0.15959(8) 0.2500 1.02538(7)
S3 S -0.14321(8) 0.2500 0.81778(6)
C1 C 0.1028(3) 0.2500 1.1727(2)
C2 C -0.0059(3) 0.2500 1.1684(2)
H1 H -0.0522 0.2500 1.2162
C3 C -0.0356(3) 0.2500 1.0771(2)
C4 C 0.0462(3) 0.2500 1.0184(2)
C5 C 0.0131(3) 0.2500 0.9276(2)
C6 C -0.0970(3) 0.2500 0.9234(2)
C7 C 0.0593(3) 0.2500 0.8416(2)
H2 H 0.1321 0.2500 0.8317
C8 C -0.0148(3) 0.2500 0.7749(2)
C9 C -0.1275(3) 0.2500 0.5990(3)
H3 H -0.1189 0.2500 0.5361
H4 H -0.1661 0.3566 0.6166
C10 C 0.0817(3) 0.0427(4) 0.62071(19)
H5 H 0.0922 0.0418 0.5581
H6 H 0.0428 -0.0639 0.6379
H7 H 0.1493 0.0436 0.6498
H4F H -0.1661 0.1434 0.6166
C10F C 0.0817(3) 0.4573(4) 0.62071(19)
H5F H 0.0922 0.4582 0.5581
H6F H 0.0428 0.5639 0.6379
H7F H 0.1493 0.4564 0.6498
H8? H -0.1661 0.3566 0.6166
loop_
_geom_bond_atom_site_label_1
_geom_bond_atom_site_label_2
_geom_bond_site_symmetry_1
_geom_bond_site_symmetry_2
Br1 C1 1_555 1_555
Si1 C8 1_555 1_555
S1 C1 1_555 1_555
S2 C3 1_555 1_555
S3 C6 1_555 1_555
C1 C2 1_555 1_555
C2 H1 1_555 1_555
C3 C2 1_555 1_555
C4 S1 1_555 1_555
C5 C4 1_555 1_555
C6 S2 1_555 1_555
C7 C5 1_555 1_555
H2 C7 1_555 1_555
C8 S3 1_555 1_555
C9 Si1 1_555 1_555
H3 C9 1_555 1_555
H4 C9 1_555 1_555
C10 Si1 1_555 1_555
H5 C10 1_555 1_555
H6 C10 1_555 1_555
H7 C10 1_555 1_555
H4F C9 1_555 1_555
C10F Si1 1_555 1_555
H5F C10F 1_555 1_555
H6F C10F 1_555 1_555
H7F C10F 1_555 1_555
C3 C4 1_555 1_555
C5 C6 1_555 1_555
C7 C8 1_555 1_555

#END
