
#######################################################################
#
#                 Cambridge Crystallographic Data Centre
#                                CCDC 
#
#######################################################################
#
# If this CIF has been generated from an entry in the Cambridge 
# Structural Database, then it will include bibliographic, chemical, 
# crystal, experimental, refinement or atomic coordinate data resulting 
# from the CCDC's data processing and validation procedures.
#
#######################################################################

data_CEYBEQ
_chemical_formula_moiety         'C22 H20 S7 Si2'
_chemical_name_systematic        
(bisthieno[2'',3'':4',5']thieno[3',2':4,5]thieno[2,3-b:3',2'-d]thiene-2,10-diyl)bis(trimethylsilane)
_symmetry_cell_setting           monoclinic
_symmetry_space_group_name_H-M   'P 21/c'
_symmetry_Int_Tables_number      14
_space_group_name_Hall           '-P 2ybc'
loop_
_symmetry_equiv_pos_site_id
_symmetry_equiv_pos_as_xyz
1 x,y,z
2 -x,1/2+y,1/2-z
3 -x,-y,-z
4 x,1/2-y,1/2+z
_cell_length_a                   19.710(4)
_cell_length_b                   13.215(3)
_cell_length_c                   10.489(2)
_cell_angle_alpha                90
_cell_angle_beta                 103.753(3)
_cell_angle_gamma                90
_cell_volume                     2653.72
_exptl_crystal_colour            yellow
_exptl_crystal_description       block
_cell_formula_units_Z            4
loop_
_atom_site_label
_atom_site_type_symbol
_atom_site_fract_x
_atom_site_fract_y
_atom_site_fract_z
S1 S 0.31964(3) 0.47153(5) 0.05617(6)
S2 S 0.30452(4) 0.22822(6) -0.20189(8)
S3 S 0.15300(4) 0.26272(6) -0.36420(8)
S4 S 0.03122(4) 0.41410(6) -0.38639(7)
S5 S -0.01784(4) 0.58951(6) -0.23601(7)
S6 S 0.01788(4) 0.68581(6) 0.04326(7)
S7 S 0.19767(4) 0.52081(6) 0.20628(7)
Si1 Si 0.47816(4) 0.45913(6) 0.21814(7)
Si2 Si 0.24453(5) 0.60272(7) 0.49621(8)
C1 C 0.40146(13) 0.4143(2) 0.0881(3)
C2 C 0.39988(14) 0.3304(2) 0.0113(3)
H1 H 0.4384 0.2889 0.0144
C3 C 0.33336(14) 0.3133(2) -0.0735(3)
C4 C 0.28202(13) 0.38192(19) -0.0589(2)
C5 C 0.21509(13) 0.36427(19) -0.1505(2)
C6 C 0.22277(14) 0.2845(2) -0.2329(3)
C7 C 0.14539(13) 0.40757(19) -0.1916(2)
C8 C 0.11008(14) 0.3610(2) -0.3079(3)
C9 C 0.10141(13) 0.4874(2) -0.1571(2)
C10 C 0.04209(13) 0.5003(2) -0.2595(3)
C11 C 0.09535(13) 0.55163(19) -0.0472(2)
C12 C 0.03465(14) 0.6099(2) -0.0803(3)
C13 C 0.12848(13) 0.5696(2) 0.0893(3)
C14 C 0.09342(14) 0.6400(2) 0.1490(3)
C15 C 0.12393(14) 0.6570(2) 0.2842(3)
H2 H 0.1067 0.7034 0.3353
C16 C 0.18135(15) 0.5980(2) 0.3310(3)
C17 C 0.47570(18) 0.3955(3) 0.3754(3)
H3 H 0.5148 0.4174 0.4430
H4 H 0.4779 0.3235 0.3648
H5 H 0.4331 0.4128 0.3994
C18 C 0.55892(16) 0.4169(3) 0.1681(3)
H6 H 0.5995 0.4375 0.2334
H7 H 0.5600 0.4469 0.0853
H8 H 0.5586 0.3445 0.1600
C19 C 0.4746(2) 0.5981(3) 0.2340(4)
H9 H 0.5136 0.6206 0.3013
H10 H 0.4319 0.6168 0.2568
H11 H 0.4763 0.6290 0.1520
C20 C 0.3110(3) 0.6992(5) 0.4921(5)
H12 H 0.2887 0.7634 0.4690
H13 H 0.3364 0.6807 0.4282
H14 H 0.3426 0.7040 0.5770
C21 C 0.2861(3) 0.4757(4) 0.5352(5)
H15 H 0.3108 0.4579 0.4698
H16 H 0.2506 0.4261 0.5361
H17 H 0.3182 0.4779 0.6198
C22 C 0.1953(3) 0.6329(5) 0.6214(4)
H18 H 0.1735 0.6979 0.6027
H19 H 0.2268 0.6341 0.7067
H20 H 0.1602 0.5822 0.6196
loop_
_geom_bond_atom_site_label_1
_geom_bond_atom_site_label_2
_geom_bond_site_symmetry_1
_geom_bond_site_symmetry_2
S1 C1 1_555 1_555
S2 C3 1_555 1_555
S3 C6 1_555 1_555
S4 C8 1_555 1_555
S5 C10 1_555 1_555
S6 C12 1_555 1_555
S7 C13 1_555 1_555
Si1 C1 1_555 1_555
Si2 C16 1_555 1_555
C1 C2 1_555 1_555
C2 H1 1_555 1_555
C3 C2 1_555 1_555
C4 S1 1_555 1_555
C5 C4 1_555 1_555
C6 S2 1_555 1_555
C7 C5 1_555 1_555
C8 S3 1_555 1_555
C9 C7 1_555 1_555
C10 S4 1_555 1_555
C11 C9 1_555 1_555
C12 S5 1_555 1_555
C13 C11 1_555 1_555
C14 S6 1_555 1_555
C15 C14 1_555 1_555
H2 C15 1_555 1_555
C16 S7 1_555 1_555
C17 Si1 1_555 1_555
H3 C17 1_555 1_555
H4 C17 1_555 1_555
H5 C17 1_555 1_555
C18 Si1 1_555 1_555
H6 C18 1_555 1_555
H7 C18 1_555 1_555
H8 C18 1_555 1_555
C19 Si1 1_555 1_555
H9 C19 1_555 1_555
H10 C19 1_555 1_555
H11 C19 1_555 1_555
C20 Si2 1_555 1_555
H12 C20 1_555 1_555
H13 C20 1_555 1_555
H14 C20 1_555 1_555
C21 Si2 1_555 1_555
H15 C21 1_555 1_555
H16 C21 1_555 1_555
H17 C21 1_555 1_555
C22 Si2 1_555 1_555
H18 C22 1_555 1_555
H19 C22 1_555 1_555
H20 C22 1_555 1_555
C3 C4 1_555 1_555
C5 C6 1_555 1_555
C7 C8 1_555 1_555
C9 C10 1_555 1_555
C11 C12 1_555 1_555
C13 C14 1_555 1_555
C15 C16 1_555 1_555

#END
