
#######################################################################
#
#                 Cambridge Crystallographic Data Centre
#                                CCDC 
#
#######################################################################
#
# If this CIF has been generated from an entry in the Cambridge 
# Structural Database, then it will include bibliographic, chemical, 
# crystal, experimental, refinement or atomic coordinate data resulting 
# from the CCDC's data processing and validation procedures.
#
#######################################################################

data_CEYDUI
_chemical_name_common            
'18-([2-(2-hydroxyphenyl)ethenyl]-4-oxoquinazolin-3-yl)benzo-18-crown-6 acetonitrile solvate'
_chemical_formula_moiety         'C32 H34 N2 O8,2(C2 H3 N1)'
_chemical_name_systematic        
'(E)-3-(2,3,5,6,8,9,11,12,14,15-decahydro-1,4,7,10,13,16-benzohexaoxacyclooctadecin-18-yl)-2-[2-(2-hydroxyphenyl)ethenyl]quinazolin-4(3H)-one acetonitrile solvate'
_symmetry_cell_setting           triclinic
_symmetry_space_group_name_H-M   'P -1'
_symmetry_Int_Tables_number      2
_space_group_name_Hall           '-P 1'
loop_
_symmetry_equiv_pos_site_id
_symmetry_equiv_pos_as_xyz
1 x,y,z
2 -x,-y,-z
_cell_length_a                   10.2056(10)
_cell_length_b                   11.6549(10)
_cell_length_c                   15.2521(17)
_cell_angle_alpha                104.333(9)
_cell_angle_beta                 93.940(9)
_cell_angle_gamma                105.066(8)
_cell_volume                     1680.03
_exptl_crystal_colour            yellow
_exptl_crystal_description       prism
_cell_formula_units_Z            2
_exptl_crystal_recrystallization_method acetonitrile
_exptl_crystal_preparation       Luminescent
loop_
_atom_site_label
_atom_site_type_symbol
_atom_site_fract_x
_atom_site_fract_y
_atom_site_fract_z
O1 O 0.1458(2) 0.12884(17) 0.08691(14)
N1 N 0.0852(3) 0.5416(2) -0.15551(19)
C1 C 0.0133(3) 0.1378(3) 0.1066(2)
H1 H -0.0550 0.0923 0.0536
H2 H 0.0128 0.2235 0.1224
O2 O 0.0768(2) 0.15754(18) 0.26258(15)
C2 C -0.0185(3) 0.0847(3) 0.1849(2)
H3 H -0.1107 0.0840 0.1971
H4 H -0.0131 0.0003 0.1701
O3 O 0.2095(2) 0.3023(2) 0.43687(16)
C3 C 0.0421(3) 0.1242(3) 0.3431(2)
H5 H 0.0103 0.0349 0.3299
H6 H -0.0316 0.1572 0.3645
O4 O 0.4945(2) 0.3218(2) 0.42399(17)
C4 C 0.1633(4) 0.1735(3) 0.4151(2)
H7 H 0.1393 0.1485 0.4694
H8 H 0.2361 0.1392 0.3939
C5 C 0.3168(4) 0.3568(3) 0.5127(3)
H9 H 0.2792 0.3446 0.5675
H10 H 0.3474 0.4452 0.5202
O5 O 0.4013(2) 0.1557(2) 0.09045(16)
C6 C 0.4402(4) 0.3075(3) 0.5054(3)
H11 H 0.5094 0.3524 0.5582
H12 H 0.4135 0.2209 0.5041
O6 O 0.1066(2) 0.18919(19) -0.24890(15)
C7 C 0.6085(4) 0.2764(3) 0.4143(3)
H13 H 0.5829 0.1911 0.4166
H14 H 0.6801 0.3238 0.4652
O7 O 0.2257(3) 0.9127(3) 0.07889(18)
C8 C 0.6626(4) 0.2830(4) 0.3284(3)
H15 H 0.7566 0.2794 0.3315
H16 H 0.6575 0.3575 0.3126
C9 C 0.3495(3) 0.2126(3) 0.0343(2)
C10 C 0.2073(3) 0.1958(3) 0.0313(2)
C11 C 0.1427(3) 0.2454(2) -0.0243(2)
H17 H 0.0485 0.2329 -0.0276
C12 C 0.2165(3) 0.3140(3) -0.0757(2)
C13 C 0.3552(3) 0.3329(3) -0.0721(2)
H18 H 0.4042 0.3801 -0.1065
C14 C 0.4220(3) 0.2817(3) -0.0172(2)
H19 H 0.5161 0.2938 -0.0149
C15 C 0.0423(3) 0.4803(3) -0.2470(2)
C16 C -0.0110(3) 0.5388(3) -0.3037(3)
C17 C -0.0549(4) 0.4795(4) -0.3936(3)
C18 C -0.0503(4) 0.3598(4) -0.4312(3)
C19 C 0.0017(3) 0.3012(4) -0.3758(3)
C20 C 0.0479(3) 0.3595(3) -0.2836(2)
C21 C 0.1015(3) 0.2958(3) -0.2253(2)
N2 N 0.1477(2) 0.3672(2) -0.13447(18)
C22 C 0.1356(3) 0.4865(3) -0.1028(2)
C23 C 0.1813(3) 0.5470(3) -0.0062(3)
C24 C 0.1954(3) 0.6664(3) 0.0294(2)
H20 H 0.1773 0.7097 -0.0114
C25 C 0.2360(3) 0.7376(3) 0.1249(2)
C26 C 0.2487(3) 0.8636(3) 0.1486(3)
C27 C 0.2812(3) 0.9336(3) 0.2392(3)
H21 H 0.2890 1.0177 0.2543
C28 C 0.3019(3) 0.8781(3) 0.3068(3)
H22 H 0.3222 0.9244 0.3677
C29 C 0.2926(3) 0.7545(3) 0.2844(3)
H23 H 0.3084 0.7176 0.3300
C30 C 0.2597(3) 0.6849(3) 0.1941(3)
H24 H 0.249(5) 0.986(4) 0.087(3)
H25 H -0.003(2) 0.222(2) -0.3983(18)
H26 H 0.253(3) 0.595(3) 0.1811(18)
H27 H 0.208(3) 0.502(3) 0.037(2)
H28 H -0.008(3) 0.620(2) -0.2803(18)
H29 H -0.082(3) 0.323(2) -0.499(2)
H30 H -0.089(3) 0.521(2) -0.4267(19)
O8 O 0.5781(8) 0.2160(5) 0.2504(5)
C31 C 0.6233(6) 0.2326(6) 0.1705(5)
H31 H 0.7169 0.2280 0.1706
H32 H 0.6220 0.3136 0.1653
C32 C 0.5338(7) 0.1358(7) 0.0918(5)
H33 H 0.5640 0.1488 0.0359
H34 H 0.5398 0.0568 0.0967
C35 C 0.4602(4) 0.4702(3) 0.2525(2)
C36 C 0.3351(3) 0.3840(3) 0.2609(2)
H39 H 0.3517 0.3065 0.2607
H40 H 0.2665 0.3716 0.2105
H41 H 0.3038 0.4163 0.3172
N3 N 0.5581(3) 0.5371(3) 0.2458(2)
N4 N 0.7247(6) 0.0110(4) 0.4473(3)
C37 C 0.6871(5) -0.0367(4) 0.3737(4)
C38 C 0.6411(4) -0.0951(4) 0.2782(4)
H42 H 0.6520 -0.0332 0.2457
H43 H 0.5461 -0.1412 0.2696
H44 H 0.6942 -0.1500 0.2555
O9? O 0.5651(13) 0.1672(8) 0.2608(8)
C33? C 0.5959(9) 0.1294(9) 0.1718(7)
H35? H 0.5464 0.0428 0.1459
H36? H 0.6930 0.1362 0.1757
C34? C 0.5616(11) 0.2019(11) 0.1050(9)
H37? H 0.5983 0.1801 0.0482
H38? H 0.5954 0.2906 0.1322
loop_
_geom_bond_atom_site_label_1
_geom_bond_atom_site_label_2
_geom_bond_site_symmetry_1
_geom_bond_site_symmetry_2
O1 C1 1_555 1_555
N1 C15 1_555 1_555
C1 H1 1_555 1_555
H2 C1 1_555 1_555
O2 C2 1_555 1_555
C2 C1 1_555 1_555
H3 C2 1_555 1_555
H4 C2 1_555 1_555
O3 C4 1_555 1_555
C3 O2 1_555 1_555
H5 C3 1_555 1_555
H6 C3 1_555 1_555
O4 C6 1_555 1_555
C4 C3 1_555 1_555
H7 C4 1_555 1_555
H8 C4 1_555 1_555
C5 O3 1_555 1_555
H9 C5 1_555 1_555
H10 C5 1_555 1_555
O5 C9 1_555 1_555
C6 C5 1_555 1_555
H11 C6 1_555 1_555
H12 C6 1_555 1_555
O6 C21 1_555 1_555
C7 O4 1_555 1_555
H13 C7 1_555 1_555
H14 C7 1_555 1_555
O7 C26 1_555 1_555
C8 C7 1_555 1_555
H15 C8 1_555 1_555
H16 C8 1_555 1_555
C9 C10 1_555 1_555
C10 O1 1_555 1_555
C11 C10 1_555 1_555
H17 C11 1_555 1_555
C12 C11 1_555 1_555
C13 C12 1_555 1_555
H18 C13 1_555 1_555
C14 C9 1_555 1_555
H19 C14 1_555 1_555
C15 C16 1_555 1_555
C16 C17 1_555 1_555
C17 C18 1_555 1_555
C18 C19 1_555 1_555
C19 C20 1_555 1_555
C20 C15 1_555 1_555
C21 C20 1_555 1_555
N2 C12 1_555 1_555
C22 N1 1_555 1_555
C23 C22 1_555 1_555
C24 C23 1_555 1_555
H20 C24 1_555 1_555
C25 C24 1_555 1_555
C26 C25 1_555 1_555
C27 C26 1_555 1_555
H21 C27 1_555 1_555
C28 C27 1_555 1_555
H22 C28 1_555 1_555
C29 C28 1_555 1_555
H23 C29 1_555 1_555
C30 C25 1_555 1_555
H24 O7 1_555 1_555
H25 C19 1_555 1_555
H26 C30 1_555 1_555
H27 C23 1_555 1_555
H28 C16 1_555 1_555
H29 C18 1_555 1_555
H30 C17 1_555 1_555
O8 C8 1_555 1_555
C31 O8 1_555 1_555
H31 C31 1_555 1_555
H32 C31 1_555 1_555
C32 O5 1_555 1_555
H33 C32 1_555 1_555
H34 C32 1_555 1_555
C35 C36 1_555 1_555
C36 H39 1_555 1_555
H40 C36 1_555 1_555
H41 C36 1_555 1_555
N3 C35 1_555 1_555
N4 C37 1_555 1_555
C37 C38 1_555 1_555
C38 H42 1_555 1_555
H43 C38 1_555 1_555
H44 C38 1_555 1_555
C13 C14 1_555 1_555
C21 N2 1_555 1_555
N2 C22 1_555 1_555
C29 C30 1_555 1_555
C31 C32 1_555 1_555

#END
