
#######################################################################
#
#                 Cambridge Crystallographic Data Centre
#                                CCDC 
#
#######################################################################
#
# If this CIF has been generated from an entry in the Cambridge 
# Structural Database, then it will include bibliographic, chemical, 
# crystal, experimental, refinement or atomic coordinate data resulting 
# from the CCDC's data processing and validation procedures.
#
#######################################################################

data_CEYHIA
_chemical_formula_moiety         'C24 H17 Cl1 N2 O2'
_chemical_name_systematic        
6-[3-(benzenecarbonyl)-5-oxo-5-phenylpent-1-en-2-yl]-2-chloropyridine-3-carbonitrile
_symmetry_cell_setting           monoclinic
_symmetry_space_group_name_H-M   'P 21/n'
_symmetry_Int_Tables_number      14
_space_group_name_Hall           '-P 2yn'
loop_
_symmetry_equiv_pos_site_id
_symmetry_equiv_pos_as_xyz
1 x,y,z
2 1/2-x,1/2+y,1/2-z
3 -x,-y,-z
4 1/2+x,1/2-y,1/2+z
_cell_length_a                   12.1108(8)
_cell_length_b                   10.7019(7)
_cell_length_c                   16.0950(11)
_cell_angle_alpha                90
_cell_angle_beta                 112.10
_cell_angle_gamma                90
_cell_volume                     1932.78
_exptl_crystal_colour            colorless
_exptl_crystal_description       block
_cell_formula_units_Z            4
loop_
_atom_site_label
_atom_site_type_symbol
_atom_site_fract_x
_atom_site_fract_y
_atom_site_fract_z
Cl1 Cl 0.48676(4) 0.36650(4) 0.82022(3)
C1 C 0.58949(13) 0.48369(15) 0.87163(10)
O1 O 0.65901(10) 0.89101(11) 0.59903(8)
N1 N 0.61225(11) 0.56258(12) 0.81763(8)
N2 N 0.59401(14) 0.32356(16) 1.06399(11)
O2 O 0.54298(9) 0.64755(11) 0.51249(7)
C2 C 0.64230(13) 0.48720(15) 0.96493(10)
C3 C 0.74923(13) 0.66638(14) 0.94757(10)
H1 H 0.8045 0.7322 0.9725
C4 C 0.72353(13) 0.58347(15) 1.00257(10)
H2 H 0.7607 0.5914 1.0659
C5 C 0.72034(13) 0.73662(14) 0.79108(10)
C6 C 0.69362(13) 0.65363(14) 0.85452(10)
C7 C 0.64583(13) 0.72173(14) 0.69099(9)
H3 H 0.5712 0.6750 0.6837
C8 C 0.64610(13) 0.61386(14) 0.55047(10)
C9 C 0.71659(13) 0.64701(14) 0.64765(10)
H4 H 0.7876 0.6959 0.6512
H5 H 0.7449 0.5690 0.6821
C10 C 0.81140(14) 0.81662(15) 0.81842(10)
H6 H 0.8612 0.8214 0.8802
H7 H 0.8265 0.8689 0.7762
C11 C 0.70722(13) 0.53642(14) 0.50339(10)
C12 C 0.82491(14) 0.49590(15) 0.54687(11)
H8 H 0.8690 0.5211 0.6069
C13 C 0.87741(15) 0.41943(16) 0.50301(12)
H9 H 0.9572 0.3917 0.5328
C14 C 0.81311(17) 0.38348(16) 0.41534(12)
H10 H 0.8487 0.3301 0.3853
C15 C 0.69723(16) 0.42476(17) 0.37107(11)
H11 H 0.6544 0.4009 0.3106
C16 C 0.64389(14) 0.50039(16) 0.41462(10)
H12 H 0.5642 0.5280 0.3843
C17 C 0.61243(13) 0.85017(14) 0.64819(10)
C18 C 0.52413(13) 0.92743(14) 0.67012(10)
C19 C 0.47069(14) 0.88610(15) 0.72824(10)
H13 H 0.4888 0.8054 0.7545
C20 C 0.39121(14) 0.96252(17) 0.74769(11)
H14 H 0.3548 0.9341 0.7872
C21 C 0.36481(15) 1.08024(17) 0.70959(11)
H15 H 0.3108 1.1326 0.7235
C22 C 0.41662(15) 1.12205(16) 0.65125(12)
H16 H 0.3978 1.2026 0.6249
C23 C 0.49569(14) 1.04601(15) 0.63171(11)
H17 H 0.5312 1.0746 0.5917
C24 C 0.61496(14) 0.39573(16) 1.01947(11)
loop_
_geom_bond_atom_site_label_1
_geom_bond_atom_site_label_2
_geom_bond_site_symmetry_1
_geom_bond_site_symmetry_2
Cl1 C1 1_555 1_555
C1 N1 1_555 1_555
O1 C17 1_555 1_555
N1 C6 1_555 1_555
N2 C24 1_555 1_555
O2 C8 1_555 1_555
C2 C1 1_555 1_555
C3 H1 1_555 1_555
C4 C2 1_555 1_555
H2 C4 1_555 1_555
C5 C6 1_555 1_555
C6 C3 1_555 1_555
C7 C5 1_555 1_555
H3 C7 1_555 1_555
C8 C9 1_555 1_555
C9 C7 1_555 1_555
H4 C9 1_555 1_555
H5 C9 1_555 1_555
C10 C5 1_555 1_555
H6 C10 1_555 1_555
H7 C10 1_555 1_555
C11 C8 1_555 1_555
C12 C11 1_555 1_555
H8 C12 1_555 1_555
C13 C12 1_555 1_555
H9 C13 1_555 1_555
C14 C13 1_555 1_555
H10 C14 1_555 1_555
C15 C14 1_555 1_555
H11 C15 1_555 1_555
C16 C11 1_555 1_555
H12 C16 1_555 1_555
C17 C7 1_555 1_555
C18 C17 1_555 1_555
C19 C18 1_555 1_555
H13 C19 1_555 1_555
C20 C19 1_555 1_555
H14 C20 1_555 1_555
C21 C20 1_555 1_555
H15 C21 1_555 1_555
C22 C21 1_555 1_555
H16 C22 1_555 1_555
C23 C18 1_555 1_555
H17 C23 1_555 1_555
C24 C2 1_555 1_555
C3 C4 1_555 1_555
C15 C16 1_555 1_555
C22 C23 1_555 1_555

#END
