
#######################################################################
#
#                 Cambridge Crystallographic Data Centre
#                                CCDC 
#
#######################################################################
#
# If this CIF has been generated from an entry in the Cambridge 
# Structural Database, then it will include bibliographic, chemical, 
# crystal, experimental, refinement or atomic coordinate data resulting 
# from the CCDC's data processing and validation procedures.
#
#######################################################################

data_CEYVUY
_chemical_formula_moiety         'C27 H18 F2'
_chemical_name_systematic        
2',7'-bis(p-Fluorophenyl)spiro(cyclopropane-1,9'-fluorene)
_symmetry_cell_setting           monoclinic
_symmetry_space_group_name_H-M   'P 21/c'
_symmetry_Int_Tables_number      14
_space_group_name_Hall           '-P 2ybc'
loop_
_symmetry_equiv_pos_site_id
_symmetry_equiv_pos_as_xyz
1 x,y,z
2 -x,1/2+y,1/2-z
3 -x,-y,-z
4 x,1/2-y,1/2+z
_cell_length_a                   9.6523(19)
_cell_length_b                   12.673(3)
_cell_length_c                   31.887(7)
_cell_angle_alpha                90
_cell_angle_beta                 95.230(9)
_cell_angle_gamma                90
_cell_volume                     3884.29
_exptl_crystal_colour            colorless
_exptl_crystal_description       block
_chemical_melting_point          '206 deg.C'
_cell_formula_units_Z            8
_exptl_crystal_recrystallization_method dichloromethane/hexane
loop_
_atom_site_label
_atom_site_type_symbol
_atom_site_fract_x
_atom_site_fract_y
_atom_site_fract_z
F1 F 1.54447(10) 0.08685(8) -0.04031(3)
F2 F 0.20816(10) 0.79276(9) 0.19346(3)
C1 C 0.98966(14) 0.42028(12) 0.06381(4)
C2 C 1.05242(16) 0.47649(12) 0.09849(4)
C3 C 0.94622(14) 0.53919(12) 0.11663(5)
C4 C 0.95283(17) 0.60570(12) 0.15128(5)
C5 C 0.83281(17) 0.65298(12) 0.16258(5)
C6 C 0.70387(16) 0.63485(12) 0.14020(5)
C7 C 0.69880(14) 0.56793(12) 0.10519(4)
C8 C 0.81807(16) 0.52118(12) 0.09339(4)
C9 C 0.83877(13) 0.44591(11) 0.05887(4)
C10 C 0.75551(14) 0.45121(12) 0.01615(4)
C11 C 0.73046(14) 0.36344(12) 0.04495(4)
C12 C 1.06752(14) 0.35289(12) 0.04151(4)
C13 C 1.20982(16) 0.33944(12) 0.05316(5)
C14 C 1.27000(16) 0.39693(12) 0.08772(5)
C15 C 1.19321(16) 0.46449(12) 0.11010(5)
C16 C 1.29607(14) 0.26930(12) 0.02890(5)
C17 C 1.40967(17) 0.21582(12) 0.04817(5)
C18 C 1.49345(17) 0.15437(13) 0.02521(6)
C19 C 1.46202(19) 0.14621(13) -0.01711(6)
C20 C 1.35037(18) 0.19632(13) -0.03755(5)
C21 C 1.26775(16) 0.25782(12) -0.01415(5)
C22 C 0.57490(17) 0.68076(12) 0.15404(5)
C23 C 0.56103(17) 0.70110(12) 0.19604(5)
C24 C 0.43886(19) 0.73854(12) 0.20968(5)
C25 C 0.33078(19) 0.75633(13) 0.18050(6)
C26 C 0.33829(19) 0.73995(14) 0.13857(6)
C27 C 0.46072(18) 0.70254(13) 0.12580(5)
H1 H 1.0423 0.6190 0.1675
H2 H 0.8372 0.7004 0.1869
H3 H 0.6095 0.5536 0.0891
H4 H 0.6858 0.5059 0.0107
H5 H 0.8009 0.4380 -0.0093
H6 H 0.7594 0.2925 0.0383
H7 H 0.6442 0.3603 0.0583
H8 H 1.0232 0.3136 0.0175
H9 H 1.3694 0.3870 0.0961
H10 H 1.2370 0.5043 0.1341
H11 H 1.4301 0.2223 0.0787
H12 H 1.5749 0.1177 0.0388
H13 H 1.3295 0.1871 -0.0680
H14 H 1.1884 0.2962 -0.0282
H15 H 0.6412 0.6878 0.2165
H16 H 0.4298 0.7522 0.2396
H17 H 0.2568 0.7534 0.1186
H18 H 0.4685 0.6912 0.0957
F3 F 1.17156(10) -0.20041(8) 0.03403(3)
F4 F -0.13539(10) 0.53047(8) 0.27554(3)
C28 C 0.63369(12) 0.12890(11) 0.14545(4)
C29 C 0.67980(12) 0.23218(11) 0.15330(4)
C30 C 0.57143(12) 0.29078(11) 0.17223(4)
C31 C 0.56529(13) 0.39447(11) 0.18531(4)
C32 C 0.44756(13) 0.42972(12) 0.20275(4)
C33 C 0.33464(12) 0.36334(12) 0.20779(4)
C34 C 0.34189(12) 0.25895(11) 0.19421(4)
C35 C 0.45879(12) 0.22283(11) 0.17654(4)
C36 C 0.49216(12) 0.11734(11) 0.15992(4)
C37 C 0.38235(14) 0.04603(12) 0.13811(5)
C38 C 0.44647(14) 0.01578(12) 0.17984(5)
C39 C 0.71637(12) 0.05717(12) 0.12685(4)
C40 C 0.84873(13) 0.08709(12) 0.11615(4)
C41 C 0.89385(13) 0.18986(12) 0.12479(4)
C42 C 0.81052(13) 0.26292(11) 0.14292(4)
C43 C 0.93844(13) 0.01137(12) 0.09553(4)
C44 C 1.02523(14) 0.04518(12) 0.06582(5)
C45 C 1.10588(16) -0.02507(16) 0.04542(5)
C46 C 1.09574(17) -0.12956(16) 0.05480(6)
C47 C 1.01362(16) -0.16668(13) 0.08391(6)
C48 C 0.93625(14) -0.09518(12) 0.10465(5)
C49 C 0.20996(13) 0.40529(12) 0.22692(4)
C50 C 0.21761(16) 0.49563(13) 0.25132(5)
C51 C 0.10225(17) 0.53809(13) 0.26796(5)
C52 C -0.02067(18) 0.48793(16) 0.26010(5)
C53 C -0.03460(16) 0.39869(14) 0.23686(6)
C54 C 0.08252(14) 0.35738(12) 0.22024(5)
H19 H 0.6435 0.4422 0.1820
H20 H 0.4422 0.5034 0.2118
H21 H 0.2632 0.2114 0.1970
H22 H 0.2861 0.0690 0.1346
H23 H 0.4035 0.0060 0.1136
H24 H 0.5096 -0.0438 0.1829
H25 H 0.3922 0.0192 0.2040
H26 H 0.6824 -0.0146 0.1207
H27 H 0.9869 0.2106 0.1179
H28 H 0.8428 0.3353 0.1485
H29 H 1.0293 0.1208 0.0597
H30 H 1.1683 -0.0008 0.0248
H31 H 1.0104 -0.2425 0.0898
H32 H 0.8783 -0.1194 0.1264
H33 H 0.3083 0.5300 0.2571
H34 H 0.1086 0.6027 0.2849
H35 H -0.1254 0.3639 0.2323
H36 H 0.0742 0.2932 0.2031
loop_
_geom_bond_atom_site_label_1
_geom_bond_atom_site_label_2
_geom_bond_site_symmetry_1
_geom_bond_site_symmetry_2
F1 C19 1_555 1_555
F2 C25 1_555 1_555
F3 C46 1_555 1_555
F4 C52 1_555 1_555
C1 C2 1_555 1_555
C2 C3 1_555 1_555
C3 C4 1_555 1_555
C4 C5 1_555 1_555
C5 C6 1_555 1_555
C6 C7 1_555 1_555
C7 C8 1_555 1_555
C8 C3 1_555 1_555
C9 C1 1_555 1_555
C10 C9 1_555 1_555
C11 C9 1_555 1_555
C12 C1 1_555 1_555
C13 C12 1_555 1_555
C14 C13 1_555 1_555
C15 C2 1_555 1_555
C16 C13 1_555 1_555
C17 C16 1_555 1_555
C18 C17 1_555 1_555
C19 C18 1_555 1_555
C20 C19 1_555 1_555
C21 C16 1_555 1_555
C22 C6 1_555 1_555
C23 C22 1_555 1_555
C24 C23 1_555 1_555
C25 C24 1_555 1_555
C26 C25 1_555 1_555
C27 C22 1_555 1_555
C28 C29 1_555 1_555
C29 C30 1_555 1_555
C30 C31 1_555 1_555
C31 C32 1_555 1_555
C32 C33 1_555 1_555
C33 C34 1_555 1_555
C34 C35 1_555 1_555
C35 C30 1_555 1_555
C36 C28 1_555 1_555
C37 C36 1_555 1_555
C38 C36 1_555 1_555
C39 C28 1_555 1_555
C40 C39 1_555 1_555
C41 C40 1_555 1_555
C42 C29 1_555 1_555
C43 C40 1_555 1_555
C44 C43 1_555 1_555
C45 C44 1_555 1_555
C46 C45 1_555 1_555
C47 C46 1_555 1_555
C48 C43 1_555 1_555
C49 C33 1_555 1_555
C50 C49 1_555 1_555
C51 C50 1_555 1_555
C52 C51 1_555 1_555
C53 C52 1_555 1_555
C54 C49 1_555 1_555
H1 C4 1_555 1_555
H2 C5 1_555 1_555
H3 C7 1_555 1_555
H4 C10 1_555 1_555
H5 C10 1_555 1_555
H6 C11 1_555 1_555
H7 C11 1_555 1_555
H8 C12 1_555 1_555
H9 C14 1_555 1_555
H10 C15 1_555 1_555
H11 C17 1_555 1_555
H12 C18 1_555 1_555
H13 C20 1_555 1_555
H14 C21 1_555 1_555
H15 C23 1_555 1_555
H16 C24 1_555 1_555
H17 C26 1_555 1_555
H18 C27 1_555 1_555
H19 C31 1_555 1_555
H20 C32 1_555 1_555
H21 C34 1_555 1_555
H22 C37 1_555 1_555
H23 C37 1_555 1_555
H24 C38 1_555 1_555
H25 C38 1_555 1_555
H26 C39 1_555 1_555
H27 C41 1_555 1_555
H28 C42 1_555 1_555
H29 C44 1_555 1_555
H30 C45 1_555 1_555
H31 C47 1_555 1_555
H32 C48 1_555 1_555
H33 C50 1_555 1_555
H34 C51 1_555 1_555
H35 C53 1_555 1_555
H36 C54 1_555 1_555
C8 C9 1_555 1_555
C10 C11 1_555 1_555
C14 C15 1_555 1_555
C20 C21 1_555 1_555
C26 C27 1_555 1_555
C35 C36 1_555 1_555
C37 C38 1_555 1_555
C41 C42 1_555 1_555
C47 C48 1_555 1_555
C53 C54 1_555 1_555

#END
