
#######################################################################
#
#                 Cambridge Crystallographic Data Centre
#                                CCDC 
#
#######################################################################
#
# If this CIF has been generated from an entry in the Cambridge 
# Structural Database, then it will include bibliographic, chemical, 
# crystal, experimental, refinement or atomic coordinate data resulting 
# from the CCDC's data processing and validation procedures.
#
#######################################################################

data_CEYVIO
_chemical_formula_moiety         'C21 H20 N2 O1'
_chemical_name_systematic        
2-methyl-3-phenyl-N-(quinolin-8-yl)pent-4-enamide
_symmetry_cell_setting           orthorhombic
_symmetry_space_group_name_H-M   'P b c a'
_symmetry_Int_Tables_number      61
_space_group_name_Hall           '-P 2ac 2ab'
loop_
_symmetry_equiv_pos_site_id
_symmetry_equiv_pos_as_xyz
1 x,y,z
2 1/2-x,-y,1/2+z
3 -x,1/2+y,1/2-z
4 1/2+x,1/2-y,-z
5 -x,-y,-z
6 1/2+x,y,1/2-z
7 x,1/2-y,1/2+z
8 1/2-x,1/2+y,z
_cell_length_a                   13.6466(3)
_cell_length_b                   9.3168(2)
_cell_length_c                   27.5704(7)
_cell_angle_alpha                90
_cell_angle_beta                 90
_cell_angle_gamma                90
_cell_volume                     3505.37
_exptl_crystal_colour            colorless
_exptl_crystal_description       block
_cell_formula_units_Z            8
loop_
_atom_site_label
_atom_site_type_symbol
_atom_site_fract_x
_atom_site_fract_y
_atom_site_fract_z
O1 O 0.45634(9) 0.16703(12) 0.25474(4)
N1 N 0.54133(9) -0.01970(12) 0.28652(4)
C1 C 0.53345(10) 0.00461(14) 0.19894(5)
H1 H 0.5723 -0.0832 0.2026
C2 C 0.53526(10) 0.01058(14) 0.33609(5)
N2 N 0.66727(10) -0.15575(13) 0.34444(5)
C3 C 0.50598(10) 0.05981(14) 0.24912(5)
C4 C 0.62122(11) 0.07674(15) 0.12207(5)
C5 C 0.60365(11) -0.06431(14) 0.36614(5)
C6 C 0.44024(13) -0.03113(19) 0.17111(6)
H2 H 0.4047 -0.1046 0.1880
H3 H 0.4570 -0.0646 0.1392
H4 H 0.4002 0.0533 0.1685
C7 C 0.60225(13) -0.04039(18) 0.41713(6)
C8 C 0.59735(11) 0.12036(15) 0.17357(5)
H5 H 0.5588 0.2089 0.1721
C9 C 0.68700(14) -0.0318(2) 0.11158(7)
H6 H 0.7202 -0.0771 0.1367
C10 C 0.68764(12) 0.15122(18) 0.20318(6)
H7 H 0.7350 0.0796 0.2046
C11 C 0.72925(14) -0.2250(2) 0.37258(8)
H8 H 0.7735 -0.2878 0.3581
C12 C 0.53535(18) 0.0582(2) 0.43656(7)
H9 H 0.5350 0.0759 0.4698
C13 C 0.73236(17) -0.2095(3) 0.42317(8)
H10 H 0.7773 -0.2615 0.4414
C14 C 0.57431(16) 0.1424(2) 0.08353(6)
H11 H 0.5308 0.2172 0.0894
C15 C 0.47110(18) 0.1279(2) 0.40729(7)
H12 H 0.4271 0.1928 0.4208
C16 C 0.70525(15) 0.2681(2) 0.22685(7)
H13 H 0.6599 0.3426 0.2265
H14 H 0.7633 0.2777 0.2442
C17 C 0.66979(16) -0.1190(2) 0.44498(7)
H15 H 0.6712 -0.1082 0.4785
C18 C 0.6553(2) -0.0095(3) 0.02679(8)
H16 H 0.6659 -0.0392 -0.0050
C19 C 0.5911(2) 0.0983(3) 0.03622(7)
H17 H 0.5582 0.1429 0.0108
C20 C 0.70417(17) -0.0741(3) 0.06395(9)
H18 H 0.7491 -0.1467 0.0575
C21 C 0.46957(14) 0.10402(19) 0.35673(6)
H19 H 0.4241 0.1516 0.3374
H20 H 0.5787(13) -0.094(2) 0.2803(6)
loop_
_geom_bond_atom_site_label_1
_geom_bond_atom_site_label_2
_geom_bond_site_symmetry_1
_geom_bond_site_symmetry_2
O1 C3 1_555 1_555
N1 C2 1_555 1_555
C1 H1 1_555 1_555
C2 C5 1_555 1_555
N2 C5 1_555 1_555
C3 N1 1_555 1_555
C4 C8 1_555 1_555
C5 C7 1_555 1_555
C6 C1 1_555 1_555
H2 C6 1_555 1_555
H3 C6 1_555 1_555
H4 C6 1_555 1_555
C7 C12 1_555 1_555
C8 C1 1_555 1_555
H5 C8 1_555 1_555
C9 C4 1_555 1_555
H6 C9 1_555 1_555
C10 C8 1_555 1_555
H7 C10 1_555 1_555
C11 N2 1_555 1_555
H8 C11 1_555 1_555
C12 H9 1_555 1_555
C13 C11 1_555 1_555
H10 C13 1_555 1_555
C14 C4 1_555 1_555
H11 C14 1_555 1_555
C15 C12 1_555 1_555
H12 C15 1_555 1_555
C16 C10 1_555 1_555
H13 C16 1_555 1_555
H14 C16 1_555 1_555
C17 C7 1_555 1_555
H15 C17 1_555 1_555
C18 H16 1_555 1_555
C19 C14 1_555 1_555
H17 C19 1_555 1_555
C20 C9 1_555 1_555
H18 C20 1_555 1_555
C21 C2 1_555 1_555
H19 C21 1_555 1_555
H20 N1 1_555 1_555
C1 C3 1_555 1_555
C13 C17 1_555 1_555
C15 C21 1_555 1_555
C18 C19 1_555 1_555
C18 C20 1_555 1_555

#END
