
#######################################################################
#
#                 Cambridge Crystallographic Data Centre
#                                CCDC 
#
#######################################################################
#
# If this CIF has been generated from an entry in the Cambridge 
# Structural Database, then it will include bibliographic, chemical, 
# crystal, experimental, refinement or atomic coordinate data resulting 
# from the CCDC's data processing and validation procedures.
#
#######################################################################

data_CEYVEK
_chemical_formula_moiety         'C15 H12 O4,C4 H8 O2'
_chemical_name_systematic        
"2H,2'H-3,3'-spirobi[[1]benzofuran]-4,4'-diol ethyl acetate solvate"
_symmetry_cell_setting           orthorhombic
_symmetry_space_group_name_H-M   'P 21 21 21'
_symmetry_Int_Tables_number      19
_space_group_name_Hall           'P 2ac 2ab'
loop_
_symmetry_equiv_pos_site_id
_symmetry_equiv_pos_as_xyz
1 x,y,z
2 1/2-x,-y,1/2+z
3 -x,1/2+y,1/2-z
4 1/2+x,1/2-y,-z
_cell_length_a                   7.0820(6)
_cell_length_b                   10.1905(8)
_cell_length_c                   22.8339(18)
_cell_angle_alpha                90
_cell_angle_beta                 90
_cell_angle_gamma                90
_cell_volume                     1647.9
_exptl_crystal_colour            colorless
_exptl_crystal_description       block
_cell_formula_units_Z            4
loop_
_atom_site_label
_atom_site_type_symbol
_atom_site_fract_x
_atom_site_fract_y
_atom_site_fract_z
O1 O 0.29826(18) 0.18588(14) 0.55982(5)
O2 O 0.62876(18) 0.59391(13) 0.58809(5)
O3 O 0.88549(18) 0.33122(14) 0.62410(6)
H1 H 0.9853 0.3050 0.6402
O4 O 0.23572(17) 0.29799(12) 0.68523(5)
H2 H 0.1766 0.2871 0.7168
C1 C 0.7739(3) 0.22605(18) 0.61094(7)
C2 C 0.8357(3) 0.0963(2) 0.61470(8)
H3 H 0.9618 0.0778 0.6263
C3 C 0.7133(3) -0.0053(2) 0.60156(8)
H4 H 0.7572 -0.0930 0.6048
C4 C 0.5279(3) 0.0167(2) 0.58382(8)
H5 H 0.4437 -0.0536 0.5757
C5 C 0.4732(3) 0.14637(19) 0.57865(7)
C6 C 0.5909(2) 0.25019(18) 0.59183(7)
C7 C 0.4855(2) 0.37760(17) 0.58262(7)
C8 C 0.3117(2) 0.3256(2) 0.54872(7)
H6 H 0.1957 0.3705 0.5622
H7 H 0.3269 0.3421 0.5063
C9 C 0.5934(3) 0.48508(19) 0.54870(8)
H8 H 0.7145 0.4497 0.5338
H9 H 0.5176 0.5151 0.5148
C10 C 0.4420(2) 0.44936(17) 0.63933(7)
C11 C 0.5333(2) 0.56966(18) 0.63919(7)
C12 C 0.5270(2) 0.65600(18) 0.68594(8)
H10 H 0.5906 0.7380 0.6849
C13 C 0.4233(2) 0.61685(18) 0.73436(7)
H11 H 0.4180 0.6726 0.7677
C14 C 0.3269(2) 0.49822(19) 0.73548(7)
H12 H 0.2559 0.4744 0.7691
C15 C 0.3338(2) 0.41405(17) 0.68752(7)
O5 O 0.02744(19) 0.26019(13) 0.78177(6)
O6 O -0.14363(17) 0.31350(13) 0.86009(5)
C16 C -0.1817(3) 0.4457(2) 0.77651(9)
H13 H -0.2731 0.4141 0.7475
H14 H -0.0864 0.5000 0.7570
H15 H -0.2472 0.4980 0.8062
C17 C -0.0881(2) 0.33168(18) 0.80503(8)
C18 C -0.0702(3) 0.19643(19) 0.88897(8)
H16 H 0.0696 0.1980 0.8894
H17 H -0.1123 0.1165 0.8681
C19 C -0.1458(4) 0.1973(2) 0.95050(9)
H18 H -0.2840 0.2011 0.9495
H19 H -0.0968 0.2741 0.9714
H20 H -0.1057 0.1172 0.9708
loop_
_geom_bond_atom_site_label_1
_geom_bond_atom_site_label_2
_geom_bond_site_symmetry_1
_geom_bond_site_symmetry_2
O1 C5 1_555 1_555
O2 C9 1_555 1_555
O3 H1 1_555 1_555
O4 H2 1_555 1_555
C1 O3 1_555 1_555
C2 C1 1_555 1_555
H3 C2 1_555 1_555
C3 C2 1_555 1_555
H4 C3 1_555 1_555
C4 C3 1_555 1_555
H5 C4 1_555 1_555
C5 C4 1_555 1_555
C6 C1 1_555 1_555
C7 C6 1_555 1_555
C8 O1 1_555 1_555
H6 C8 1_555 1_555
H7 C8 1_555 1_555
C9 C7 1_555 1_555
H8 C9 1_555 1_555
H9 C9 1_555 1_555
C10 C7 1_555 1_555
C11 O2 1_555 1_555
C12 C11 1_555 1_555
H10 C12 1_555 1_555
C13 C12 1_555 1_555
H11 C13 1_555 1_555
C14 C13 1_555 1_555
H12 C14 1_555 1_555
C15 O4 1_555 1_555
O5 C17 1_555 1_555
O6 C17 1_555 1_555
C16 H13 1_555 1_555
H14 C16 1_555 1_555
H15 C16 1_555 1_555
C17 C16 1_555 1_555
C18 O6 1_555 1_555
H16 C18 1_555 1_555
H17 C18 1_555 1_555
C19 C18 1_555 1_555
H18 C19 1_555 1_555
H19 C19 1_555 1_555
H20 C19 1_555 1_555
C5 C6 1_555 1_555
C7 C8 1_555 1_555
C10 C11 1_555 1_555
C10 C15 1_555 1_555
C14 C15 1_555 1_555

#END
