
#######################################################################
#
#                 Cambridge Crystallographic Data Centre
#                                CCDC 
#
#######################################################################
#
# If this CIF has been generated from an entry in the Cambridge 
# Structural Database, then it will include bibliographic, chemical, 
# crystal, experimental, refinement or atomic coordinate data resulting 
# from the CCDC's data processing and validation procedures.
#
#######################################################################

data_CEYWAF
_chemical_formula_moiety         'C27 H20'
_chemical_name_systematic        
2',7'-Diphenylspiro(cyclopropane-1,9'-fluorene)
_symmetry_cell_setting           orthorhombic
_symmetry_space_group_name_H-M   'P c a 21'
_symmetry_Int_Tables_number      29
_space_group_name_Hall           'P 2c -2ac'
loop_
_symmetry_equiv_pos_site_id
_symmetry_equiv_pos_as_xyz
1 x,y,z
2 -x,-y,1/2+z
3 1/2+x,-y,z
4 1/2-x,y,1/2+z
_cell_length_a                   30.526(5)
_cell_length_b                   15.261(2)
_cell_length_c                   8.2354(13)
_cell_angle_alpha                90
_cell_angle_beta                 90
_cell_angle_gamma                90
_cell_volume                     3836.52
_exptl_crystal_colour            yellow
_chemical_melting_point          '205.0 deg.C'
_cell_formula_units_Z            8
_exptl_crystal_recrystallization_method dichloromethane/hexane
loop_
_atom_site_label
_atom_site_type_symbol
_atom_site_fract_x
_atom_site_fract_y
_atom_site_fract_z
C1 C 0.9773(2) 0.0609(4) 0.4614(11)
C2 C 0.9589(3) 0.1503(4) 0.4771(9)
C3 C 0.9158(3) 0.1802(5) 0.4650(10)
H1 H 0.8931 0.1412 0.4432
C4 C 0.9072(3) 0.2674(5) 0.4857(11)
C5 C 0.9400(3) 0.3278(5) 0.5222(11)
H2 H 0.9335 0.3868 0.5377
C6 C 0.9846(3) 0.2958(5) 0.5354(10)
H3 H 1.0071 0.3341 0.5621
C7 C 0.9933(3) 0.2097(4) 0.5085(9)
C8 C 1.0337(3) 0.1628(4) 0.5011(9)
C9 C 1.0764(3) 0.1909(5) 0.5245(11)
H4 H 1.0817 0.2496 0.5478
C10 C 1.1112(3) 0.1331(5) 0.5139(10)
H5 H 1.1397 0.1529 0.5290
C11 C 1.1032(2) 0.0456(5) 0.4806(10)
C12 C 1.0596(2) 0.0140(5) 0.4637(10)
H6 H 1.0538 -0.0454 0.4500
C13 C 1.0262(3) 0.0751(4) 0.4685(10)
C14 C 0.9570(3) -0.0205(5) 0.5482(10)
H7 H 0.9768 -0.0629 0.5960
H8 H 0.9295 -0.0127 0.6057
C15 C 0.9566(3) -0.0117(5) 0.3652(12)
H9 H 0.9759 -0.0498 0.3037
H10 H 0.9287 0.0003 0.3134
C16 C 0.8613(3) 0.3016(5) 0.4669(11)
C17 C 0.8451(3) 0.3720(6) 0.5549(12)
H11 H 0.8623 0.3987 0.6339
C18 C 0.8043(4) 0.4015(6) 0.5252(17)
H12 H 0.7935 0.4458 0.5914
C19 C 0.7781(4) 0.3713(6) 0.4067(16)
H13 H 0.7503 0.3943 0.3887
C20 C 0.7945(4) 0.3055(6) 0.3151(12)
H14 H 0.7770 0.2830 0.2327
C21 C 0.8347(3) 0.2703(5) 0.3356(14)
H15 H 0.8449 0.2267 0.2662
C22 C 1.1405(2) -0.0217(5) 0.4779(11)
C23 C 1.1736(3) -0.0155(5) 0.5807(12)
H16 H 1.1731 0.0293 0.6572
C24 C 1.2089(3) -0.0722(7) 0.5806(15)
H17 H 1.2305 -0.0672 0.6596
C25 C 1.2119(4) -0.1375(6) 0.4605(19)
H18 H 1.2363 -0.1740 0.4528
C26 C 1.1759(4) -0.1452(7) 0.3514(15)
H19 H 1.1756 -0.1886 0.2722
C27 C 1.1420(3) -0.0877(6) 0.3650(13)
H20 H 1.1185 -0.0936 0.2939
C28 C 0.5199(2) 0.3149(4) 0.4619(10)
C29 C 0.4709(2) 0.3250(4) 0.4288(9)
C30 C 0.4378(3) 0.2685(5) 0.4510(10)
H21 H 0.4433 0.2130 0.4929
C31 C 0.3950(3) 0.2934(5) 0.4107(9)
C32 C 0.3891(3) 0.3781(5) 0.3546(10)
H22 H 0.3607 0.3964 0.3311
C33 C 0.4241(3) 0.4390(6) 0.3306(12)
H23 H 0.4189 0.4953 0.2916
C34 C 0.4667(2) 0.4101(4) 0.3685(10)
C35 C 0.5077(2) 0.4536(4) 0.3593(9)
C36 C 0.5190(2) 0.5356(5) 0.3006(12)
H24 H 0.4982 0.5715 0.2518
C37 C 0.5622(3) 0.5629(5) 0.3163(11)
H25 H 0.5698 0.6186 0.2800
C38 C 0.5942(3) 0.5110(5) 0.3832(10)
C39 C 0.5845(3) 0.4282(5) 0.4327(9)
H26 H 0.6060 0.3909 0.4729
C40 C 0.5375(3) 0.3996(5) 0.4195(9)
C41 C 0.5367(3) 0.2536(5) 0.5966(12)
H27 H 0.5151 0.2217 0.6596
H28 H 0.5623 0.2721 0.6572
C42 C 0.5434(3) 0.2259(4) 0.4137(10)
H29 H 0.5255 0.1787 0.3714
H30 H 0.5728 0.2292 0.3690
C43 C 0.3573(3) 0.2314(6) 0.4329(13)
C44 C 0.3227(3) 0.2356(5) 0.3271(12)
H31 H 0.3233 0.2766 0.2435
C45 C 0.2882(3) 0.1822(6) 0.3414(14)
H32 H 0.2651 0.1866 0.2680
C46 C 0.2865(4) 0.1207(7) 0.464(2)
H33 H 0.2625 0.0834 0.4730
C47 C 0.3204(4) 0.1150(6) 0.5717(15)
H34 H 0.3201 0.0731 0.6537
C48 C 0.3557(3) 0.1729(7) 0.5575(14)
H35 H 0.3782 0.1714 0.6336
C49 C 0.6407(2) 0.5407(5) 0.4109(11)
C50 C 0.6570(3) 0.6081(6) 0.3032(11)
H36 H 0.6407 0.6267 0.2143
C51 C 0.6974(4) 0.6435(7) 0.3362(17)
H37 H 0.7074 0.6901 0.2737
C52 C 0.7219(3) 0.6134(7) 0.4532(17)
H38 H 0.7502 0.6348 0.4649
C53 C 0.7074(3) 0.5531(6) 0.5558(14)
H39 H 0.7249 0.5367 0.6433
C54 C 0.6680(3) 0.5151(5) 0.5358(11)
H40 H 0.6590 0.4712 0.6068
loop_
_geom_bond_atom_site_label_1
_geom_bond_atom_site_label_2
_geom_bond_site_symmetry_1
_geom_bond_site_symmetry_2
C1 C2 1_555 1_555
C2 C3 1_555 1_555
C3 H1 1_555 1_555
C4 C3 1_555 1_555
C5 C4 1_555 1_555
H2 C5 1_555 1_555
C6 C5 1_555 1_555
H3 C6 1_555 1_555
C7 C2 1_555 1_555
C8 C7 1_555 1_555
C9 C8 1_555 1_555
H4 C9 1_555 1_555
C10 C9 1_555 1_555
H5 C10 1_555 1_555
C11 C10 1_555 1_555
C12 C11 1_555 1_555
H6 C12 1_555 1_555
C13 C1 1_555 1_555
C14 C1 1_555 1_555
H7 C14 1_555 1_555
H8 C14 1_555 1_555
C15 C1 1_555 1_555
H9 C15 1_555 1_555
H10 C15 1_555 1_555
C16 C4 1_555 1_555
C17 C16 1_555 1_555
H11 C17 1_555 1_555
C18 C17 1_555 1_555
H12 C18 1_555 1_555
C19 C18 1_555 1_555
H13 C19 1_555 1_555
C20 C19 1_555 1_555
H14 C20 1_555 1_555
C21 C16 1_555 1_555
H15 C21 1_555 1_555
C22 C11 1_555 1_555
C23 C22 1_555 1_555
H16 C23 1_555 1_555
C24 C23 1_555 1_555
H17 C24 1_555 1_555
C25 C24 1_555 1_555
H18 C25 1_555 1_555
C26 C25 1_555 1_555
H19 C26 1_555 1_555
C27 C22 1_555 1_555
H20 C27 1_555 1_555
C28 C29 1_555 1_555
C29 C30 1_555 1_555
C30 H21 1_555 1_555
C31 C30 1_555 1_555
C32 C31 1_555 1_555
H22 C32 1_555 1_555
C33 C32 1_555 1_555
H23 C33 1_555 1_555
C34 C29 1_555 1_555
C35 C34 1_555 1_555
C36 C35 1_555 1_555
H24 C36 1_555 1_555
C37 C36 1_555 1_555
H25 C37 1_555 1_555
C38 C37 1_555 1_555
C39 C38 1_555 1_555
H26 C39 1_555 1_555
C40 C28 1_555 1_555
C41 C28 1_555 1_555
H27 C41 1_555 1_555
H28 C41 1_555 1_555
C42 C28 1_555 1_555
H29 C42 1_555 1_555
H30 C42 1_555 1_555
C43 C31 1_555 1_555
C44 C43 1_555 1_555
H31 C44 1_555 1_555
C45 C44 1_555 1_555
H32 C45 1_555 1_555
C46 C45 1_555 1_555
H33 C46 1_555 1_555
C47 C46 1_555 1_555
H34 C47 1_555 1_555
C48 C43 1_555 1_555
H35 C48 1_555 1_555
C49 C38 1_555 1_555
C50 C49 1_555 1_555
H36 C50 1_555 1_555
C51 C50 1_555 1_555
H37 C51 1_555 1_555
C52 C51 1_555 1_555
H38 C52 1_555 1_555
C53 C52 1_555 1_555
H39 C53 1_555 1_555
C54 C49 1_555 1_555
H40 C54 1_555 1_555
C6 C7 1_555 1_555
C8 C13 1_555 1_555
C12 C13 1_555 1_555
C14 C15 1_555 1_555
C20 C21 1_555 1_555
C26 C27 1_555 1_555
C33 C34 1_555 1_555
C35 C40 1_555 1_555
C39 C40 1_555 1_555
C41 C42 1_555 1_555
C47 C48 1_555 1_555
C53 C54 1_555 1_555

#END
