
#######################################################################
#
#                 Cambridge Crystallographic Data Centre
#                                CCDC 
#
#######################################################################
#
# If this CIF has been generated from an entry in the Cambridge 
# Structural Database, then it will include bibliographic, chemical, 
# crystal, experimental, refinement or atomic coordinate data resulting 
# from the CCDC's data processing and validation procedures.
#
#######################################################################

data_CEYZUC
_chemical_formula_moiety         'C40 H42 N10 O18,C1 H1 Cl3,C1 H4 O1'
_chemical_name_systematic        
"(+-)-trans-15b,15c,17b,17c-tetrakis(Ethoxycarbonyl)-4,13-dimethoxy-1,10-dinitro-5,9,14,15b,15c,17b,17c,18-octahydro-5a,6a,7a,8a,14a,15a,16a,17a-octa-azabenzo(5,6)cyclohepta(1,2,3-cd)benzo(5'',6'')cyclohepta(1'',2'',3'':3',4')pentaleno(1',6':5,6,7)cyclo-octa(1,2,3-gh)pentalene-6,8,15,17-tetrone chloroform methanol solvate"
_chemical_properties_biological  'good herbicidal and antifungal activity'
_symmetry_cell_setting           monoclinic
_symmetry_space_group_name_H-M   'P 21/n'
_symmetry_Int_Tables_number      14
_space_group_name_Hall           '-P 2yn'
loop_
_symmetry_equiv_pos_site_id
_symmetry_equiv_pos_as_xyz
1 x,y,z
2 1/2-x,1/2+y,1/2-z
3 -x,-y,-z
4 1/2+x,1/2-y,1/2+z
_cell_length_a                   21.9719(9)
_cell_length_b                   13.9240(6)
_cell_length_c                   34.5399(14)
_cell_angle_alpha                90.00
_cell_angle_beta                 105.9280(10)
_cell_angle_gamma                90.00
_cell_volume                     10161.3
_cell_formula_units_Z            8
loop_
_atom_site_label
_atom_site_type_symbol
_atom_site_fract_x
_atom_site_fract_y
_atom_site_fract_z
C1 C 0.7498(4) 0.2739(5) 0.2473(2)
H1 H 0.7869 0.3113 0.2484
H2 H 0.7540 0.2116 0.2364
H3 H 0.7450 0.2670 0.2740
C2 C 0.6754(3) 0.4027(4) 0.23613(16)
C3 C 0.7085(3) 0.4498(4) 0.27080(17)
H4 H 0.7476 0.4267 0.2857
C4 C 0.6835(3) 0.5304(4) 0.28306(17)
H5 H 0.7063 0.5634 0.3058
C5 C 0.6252(3) 0.5626(4) 0.26189(15)
C6 C 0.5903(2) 0.5187(3) 0.22635(14)
C7 C 0.6166(2) 0.4384(3) 0.21300(14)
C8 C 0.5828(2) 0.3882(3) 0.17385(14)
H6 H 0.6071 0.3319 0.1707
H7 H 0.5418 0.3664 0.1757
C9 C 0.5272(2) 0.5577(3) 0.20065(14)
H8 H 0.4954 0.5077 0.1969
H9 H 0.5139 0.6106 0.2147
C10 C 0.5552(2) 0.6779(3) 0.15583(15)
C11 C 0.6161(2) 0.4534(3) 0.11610(13)
C12 C 0.5274(2) 0.5247(3) 0.12881(14)
C13 C 0.4585(3) 0.4871(4) 0.11343(15)
C14 C 0.3910(3) 0.3567(5) 0.0911(2)
H10 H 0.3645 0.3755 0.1081
H11 H 0.3722 0.3811 0.0642
C15 C 0.3959(4) 0.2533(6) 0.0902(3)
H12 H 0.4239 0.2355 0.0743
H13 H 0.3548 0.2263 0.0784
H14 H 0.4123 0.2295 0.1171
C16 C 0.5483(2) 0.5878(3) 0.09702(14)
C17 C 0.4977(3) 0.5902(4) 0.05580(17)
C18 C 0.4280(6) 0.6859(8) 0.0066(3)
H15 H 0.4068 0.6248 -0.0005
H16 H 0.3971 0.7324 0.0101
C19 C 0.4522(6) 0.7144(10) -0.0224(3)
H17 H 0.4741 0.7741 -0.0149
H18 H 0.4187 0.7230 -0.0468
H19 H 0.4812 0.6667 -0.0267
C20 C 0.5902(2) 0.7589(3) 0.10288(15)
H20 H 0.5723 0.8178 0.1100
H21 H 0.5798 0.7560 0.0737
C21 C 0.6366(2) 0.5553(3) 0.06239(14)
H22 H 0.6061 0.5625 0.0363
H23 H 0.6639 0.5015 0.0608
C22 C 0.6884(2) 0.8494(3) 0.12607(13)
C23 C 0.6965(2) 0.6893(3) 0.04291(14)
C24 C 0.7000(2) 0.6874(3) 0.11060(13)
C25 C 0.7180(2) 0.6158(3) 0.14618(14)
C26 C 0.7848(3) 0.4839(4) 0.17207(17)
H24 H 0.7517 0.4428 0.1765
H25 H 0.8039 0.5184 0.1968
C27 C 0.8326(3) 0.4262(4) 0.1604(2)
H26 H 0.8139 0.3962 0.1348
H27 H 0.8485 0.3777 0.1803
H28 H 0.8668 0.4669 0.1582
C28 C 0.7567(2) 0.7488(3) 0.10513(13)
C29 C 0.8236(2) 0.7058(3) 0.12186(15)
C30 C 0.9108(3) 0.6948(4) 0.17982(18)
H29 H 0.9157 0.6256 0.1791
H30 H 0.9387 0.7242 0.1658
C31 C 0.9265(3) 0.7283(6) 0.2213(2)
H31 H 0.9265 0.7972 0.2218
H32 H 0.9676 0.7050 0.2357
H33 H 0.8956 0.7046 0.2340
C32 C 0.7747(2) 0.8177(3) 0.04115(14)
H34 H 0.7664 0.7963 0.0135
H35 H 0.8197 0.8108 0.0538
C33 C 0.7869(2) 0.9204(3) 0.11786(14)
H36 H 0.8295 0.8990 0.1195
H37 H 0.7896 0.9665 0.1393
C34 C 0.7568(2) 0.9235(3) 0.04147(14)
C35 C 0.7352(3) 0.9775(3) 0.00676(15)
C36 C 0.7153(3) 1.0722(4) 0.00680(17)
H38 H 0.7002 1.1051 -0.0174
C37 C 0.7181(3) 1.1169(4) 0.04237(16)
H39 H 0.7047 1.1802 0.0426
C38 C 0.7409(2) 1.0674(3) 0.07803(15)
C39 C 0.7605(2) 0.9707(3) 0.07792(14)
C40 C 0.7215(3) 1.1999(4) 0.1169(2)
H40 H 0.7409 1.2463 0.1035
H41 H 0.7286 1.2179 0.1446
H42 H 0.6769 1.1975 0.1041
N1 N 0.6011(3) 0.6448(3) 0.27994(14)
N2 N 0.53135(18) 0.5904(2) 0.16173(11)
N3 N 0.57367(17) 0.4484(2) 0.13805(11)
N4 N 0.56143(18) 0.6793(2) 0.11699(12)
N5 N 0.60352(17) 0.5353(2) 0.09227(11)
N6 N 0.67504(17) 0.6432(2) 0.07200(10)
N7 N 0.65856(18) 0.7623(2) 0.11904(11)
N8 N 0.74036(18) 0.7571(2) 0.06192(10)
N9 N 0.75010(18) 0.8377(2) 0.12481(11)
N10 N 0.7350(3) 0.9378(4) -0.03243(16)
O2 O 0.69583(19) 0.3208(3) 0.22246(11)
O3 O 0.6389(3) 0.7040(3) 0.29772(15)
O4 O 0.5442(2) 0.6488(3) 0.27706(13)
O5 O 0.56657(18) 0.7435(2) 0.17931(11)
O6 O 0.65841(16) 0.3967(2) 0.11689(10)
O7 O 0.41543(19) 0.5435(3) 0.10787(15)
O8 O 0.45467(16) 0.3961(2) 0.10706(10)
O9 O 0.4791(2) 0.5183(3) 0.03746(12)
O10 O 0.4790(2) 0.6760(3) 0.04440(16)
O11 O 0.66535(17) 0.9251(2) 0.13229(11)
O12 O 0.67973(18) 0.6735(2) 0.00707(10)
O13 O 0.69941(17) 0.6206(2) 0.17549(10)
O14 O 0.75825(16) 0.5518(2) 0.13934(9)
O15 O 0.85086(18) 0.6660(2) 0.10094(11)
O16 O 0.84517(15) 0.7219(2) 0.16067(10)
O17 O 0.74859(18) 1.1079(2) 0.11469(11)
O18 O 0.7797(3) 0.8923(4) -0.03537(15)
O19 O 0.6888(4) 0.9553(4) -0.06046(16)
C41 C 0.2725(4) 1.1946(6) 0.2503(2)
H43 H 0.2746 1.2076 0.2779
H44 H 0.2795 1.2530 0.2374
H45 H 0.3044 1.1485 0.2491
C42 C 0.1902(3) 1.0786(4) 0.24557(15)
C43 C 0.2267(3) 1.0277(4) 0.27880(17)
H46 H 0.2683 1.0463 0.2908
C44 C 0.2022(3) 0.9517(4) 0.29351(16)
H47 H 0.2272 0.9174 0.3152
C45 C 0.1402(3) 0.9244(4) 0.27672(15)
C46 C 0.1023(2) 0.9707(3) 0.24269(13)
C47 C 0.1281(2) 1.0475(3) 0.22726(14)
C48 C 0.0910(2) 1.0987(3) 0.18903(14)
H48 H 0.0516 1.1224 0.1928
H49 H 0.1152 1.1537 0.1844
C49 C 0.0363(2) 0.9360(4) 0.22016(14)
H50 H 0.0236 0.8851 0.2355
H51 H 0.0065 0.9885 0.2178
C50 C 0.1140(2) 1.0339(3) 0.12762(13)
C51 C 0.0616(2) 0.8153(3) 0.17513(14)
C52 C 0.0292(2) 0.9634(3) 0.14683(13)
C53 C -0.0363(2) 1.0134(3) 0.13372(15)
C54 C -0.0965(3) 1.1227(5) 0.0861(2)
H52 H -0.1317 1.0905 0.0925
H53 H -0.1058 1.1264 0.0570
C55 C -0.0908(5) 1.2186(6) 0.1024(3)
H54 H -0.0498 1.2439 0.1034
H55 H -0.0960 1.2169 0.1291
H56 H -0.1229 1.2588 0.0856
C56 C 0.0456(2) 0.8993(3) 0.11360(13)
C57 C -0.0132(2) 0.8751(3) 0.07954(15)
C58 C -0.0579(3) 0.8513(6) 0.00936(18)
H57 H -0.0728 0.7880 0.0141
H58 H -0.0927 0.8963 0.0060
C59 C -0.0360(4) 0.8503(6) -0.0261(2)
H59 H -0.0162 0.9106 -0.0285
H60 H -0.0712 0.8404 -0.0493
H61 H -0.0059 0.7993 -0.0241
C60 C 0.1267(2) 0.9333(3) 0.07210(13)
H62 H 0.1580 0.9829 0.0729
H63 H 0.0962 0.9355 0.0458
C61 C 0.0868(2) 0.7271(3) 0.11963(15)
H64 H 0.0675 0.7270 0.0908
H65 H 0.0714 0.6712 0.1308
C62 C 0.1813(2) 0.6308(3) 0.12815(13)
C63 C 0.1743(2) 0.7988(3) 0.04491(15)
C64 C 0.1922(2) 0.7943(3) 0.11463(13)
C65 C 0.2181(2) 0.8676(3) 0.14937(15)
C66 C 0.2871(3) 0.9968(4) 0.17062(19)
H66 H 0.2559 1.0390 0.1769
H67 H 0.3083 0.9619 0.1949
C67 C 0.3317(4) 1.0520(6) 0.1576(2)
H68 H 0.3619 1.0100 0.1508
H69 H 0.3533 1.0947 0.1787
H70 H 0.3103 1.0888 0.1343
C68 C 0.2439(2) 0.7330(3) 0.10249(14)
C69 C 0.3125(3) 0.7710(4) 0.1146(2)
C70 C 0.4047(3) 0.7799(5) 0.1683(2)
H71 H 0.4116 0.8467 0.1628
H72 H 0.4301 0.7400 0.1557
C71 C 0.4213(4) 0.7620(7) 0.2126(3)
H73 H 0.3944 0.7999 0.2243
H74 H 0.4647 0.7793 0.2246
H75 H 0.4154 0.6951 0.2175
C72 C 0.2709(2) 0.5585(3) 0.10881(14)
H76 H 0.2753 0.5092 0.1293
H77 H 0.3132 0.5777 0.1084
C73 C 0.2471(3) 0.6720(3) 0.03335(16)
H78 H 0.2929 0.6757 0.0424
H79 H 0.2337 0.6972 0.0061
C74 C 0.2272(3) 0.5675(3) 0.03271(15)
C75 C 0.1974(3) 0.5200(4) -0.00320(16)
C76 C 0.1761(3) 0.4260(4) -0.00345(18)
H80 H 0.1547 0.3969 -0.0276
C77 C 0.1868(3) 0.3768(4) 0.03173(17)
H81 H 0.1731 0.3135 0.0315
C78 C 0.2173(2) 0.4191(3) 0.06736(15)
C79 C 0.2376(2) 0.5152(3) 0.06838(14)
C80 C 0.2043(4) 0.2824(4) 0.10620(19)
H82 H 0.1590 0.2867 0.0962
H83 H 0.2154 0.2617 0.1338
H84 H 0.2199 0.2368 0.0904
N11 N 0.1162(3) 0.8477(3) 0.29725(14)
N12 N 0.07730(17) 1.0370(2) 0.15388(10)
N13 N 0.03380(18) 0.9003(2) 0.18006(11)
N14 N 0.09431(17) 0.9540(2) 0.10248(11)
N15 N 0.06740(18) 0.8120(2) 0.13655(11)
N16 N 0.15482(17) 0.7201(2) 0.12740(11)
N17 N 0.15818(17) 0.8396(2) 0.07724(10)
N18 N 0.23925(17) 0.6413(2) 0.12048(11)
N19 N 0.22043(19) 0.7326(3) 0.05954(11)
N20 N 0.1884(4) 0.5659(4) -0.04202(18)
O20 O 0.21040(19) 1.1564(3) 0.22993(11)
O21 O 0.1525(3) 0.7853(3) 0.31367(15)
O22 O 0.0619(3) 0.8536(3) 0.29952(14)
O23 O 0.15501(16) 1.0892(2) 0.12586(10)
O24 O 0.07668(17) 0.7515(2) 0.19965(11)
O25 O -0.07594(17) 1.0063(3) 0.15135(11)
O26 O -0.03955(16) 1.0668(2) 0.10164(11)
O27 O -0.06177(19) 0.8496(3) 0.08649(12)
O28 O -0.00453(18) 0.8803(3) 0.04376(11)
O29 O 0.15857(16) 0.5553(2) 0.13472(10)
O30 O 0.1502(2) 0.8183(3) 0.00982(11)
O31 O 0.20492(19) 0.8639(3) 0.18071(11)
O32 O 0.25547(16) 0.9288(2) 0.13894(10)
O33 O 0.33801(19) 0.8077(3) 0.09233(14)
O34 O 0.33741(16) 0.7551(2) 0.15317(13)
O35 O 0.23138(19) 0.3732(2) 0.10364(11)
O36 O 0.1371(4) 0.5549(4) -0.06709(17)
O37 O 0.2309(4) 0.6124(4) -0.04794(15)
C81 C 0.5789(5) -0.0006(9) 0.1846(4)
H85 H 0.600(5) -0.052(7) 0.173(3)
Cl1 Cl 0.6253(3) 0.0985(3) 0.19150(18)
Cl2 Cl 0.5683(4) -0.0385(3) 0.22822(15)
Cl3 Cl 0.5065(3) 0.0155(6) 0.1543(2)
C82 C 0.9279(7) 0.5374(10) 0.8189(4)
Cl4 Cl 0.9389(3) 0.4879(3) 0.77648(19)
Cl5 Cl 0.8779(3) 0.6318(3) 0.80563(19)
Cl6 Cl 0.9939(6) 0.576(2) 0.8434(7)
O38 O 0.0441(7) 0.543(3) 0.0295(10)
H94 H 0.0251 0.5889 0.0352
C84 C 0.006(2) 0.451(2) 0.0303(14)
H95 H 0.0261 0.4147 0.0540
H96 H 0.0045 0.4136 0.0068
H97 H -0.0361 0.4680 0.0307
O1? O 0.5514(8) 0.9780(8) -0.0044(9)
H86? H 0.5638 1.0290 -0.0115
C83? C 0.5338(11) 0.9927(10) 0.0355(4)
H87? H 0.5504 0.9406 0.0535
H88? H 0.4886 0.9945 0.0302
H89? H 0.5514 1.0522 0.0476
Cl7? Cl 1.0013(6) 0.5123(8) 0.8569(3)
H90? H 0.5317 0.7041 0.2719
H91? H 0.7737 0.8352 -0.0321
H92? H 0.0394 0.8162 0.2835
H93? H 0.2570 0.6237 -0.0264
loop_
_geom_bond_atom_site_label_1
_geom_bond_atom_site_label_2
_geom_bond_site_symmetry_1
_geom_bond_site_symmetry_2
C1 H1 1_555 1_555
H2 C1 1_555 1_555
H3 C1 1_555 1_555
C2 C3 1_555 1_555
C3 H4 1_555 1_555
C4 C3 1_555 1_555
H5 C4 1_555 1_555
C5 C4 1_555 1_555
C6 C5 1_555 1_555
C7 C2 1_555 1_555
C8 C7 1_555 1_555
H6 C8 1_555 1_555
H7 C8 1_555 1_555
C9 C6 1_555 1_555
H8 C9 1_555 1_555
H9 C9 1_555 1_555
C10 N2 1_555 1_555
C11 N3 1_555 1_555
C12 C13 1_555 1_555
C13 O7 1_555 1_555
C14 H10 1_555 1_555
H11 C14 1_555 1_555
C15 C14 1_555 1_555
H12 C15 1_555 1_555
H13 C15 1_555 1_555
H14 C15 1_555 1_555
C16 C12 1_555 1_555
C17 C16 1_555 1_555
C18 H15 1_555 1_555
H16 C18 1_555 1_555
C19 C18 1_555 1_555
H17 C19 1_555 1_555
H18 C19 1_555 1_555
H19 C19 1_555 1_555
C20 H20 1_555 1_555
H21 C20 1_555 1_555
C21 H22 1_555 1_555
H23 C21 1_555 1_555
C22 N7 1_555 1_555
C23 N6 1_555 1_555
C24 C25 1_555 1_555
C25 O13 1_555 1_555
C26 H24 1_555 1_555
H25 C26 1_555 1_555
C27 C26 1_555 1_555
H26 C27 1_555 1_555
H27 C27 1_555 1_555
H28 C27 1_555 1_555
C28 C24 1_555 1_555
C29 C28 1_555 1_555
C30 H29 1_555 1_555
H30 C30 1_555 1_555
C31 C30 1_555 1_555
H31 C31 1_555 1_555
H32 C31 1_555 1_555
H33 C31 1_555 1_555
C32 H34 1_555 1_555
H35 C32 1_555 1_555
C33 H36 1_555 1_555
H37 C33 1_555 1_555
C34 C32 1_555 1_555
C35 C34 1_555 1_555
C36 C35 1_555 1_555
H38 C36 1_555 1_555
C37 C36 1_555 1_555
H39 C37 1_555 1_555
C38 C37 1_555 1_555
C39 C33 1_555 1_555
C40 H40 1_555 1_555
H41 C40 1_555 1_555
H42 C40 1_555 1_555
C41 H43 1_555 1_555
H44 C41 1_555 1_555
H45 C41 1_555 1_555
C42 C43 1_555 1_555
C43 H46 1_555 1_555
C44 C43 1_555 1_555
H47 C44 1_555 1_555
C45 C44 1_555 1_555
C46 C45 1_555 1_555
C47 C42 1_555 1_555
C48 C47 1_555 1_555
H48 C48 1_555 1_555
H49 C48 1_555 1_555
C49 C46 1_555 1_555
H50 C49 1_555 1_555
H51 C49 1_555 1_555
C50 N12 1_555 1_555
C51 N13 1_555 1_555
C52 C53 1_555 1_555
C53 O25 1_555 1_555
C54 H52 1_555 1_555
H53 C54 1_555 1_555
C55 C54 1_555 1_555
H54 C55 1_555 1_555
H55 C55 1_555 1_555
H56 C55 1_555 1_555
C56 C52 1_555 1_555
C57 C56 1_555 1_555
C58 H57 1_555 1_555
H58 C58 1_555 1_555
C59 C58 1_555 1_555
H59 C59 1_555 1_555
H60 C59 1_555 1_555
H61 C59 1_555 1_555
C60 H62 1_555 1_555
H63 C60 1_555 1_555
C61 H64 1_555 1_555
H65 C61 1_555 1_555
C62 N16 1_555 1_555
C63 N17 1_555 1_555
C64 C65 1_555 1_555
C65 O31 1_555 1_555
C66 H66 1_555 1_555
H67 C66 1_555 1_555
C67 C66 1_555 1_555
H68 C67 1_555 1_555
H69 C67 1_555 1_555
H70 C67 1_555 1_555
C68 C64 1_555 1_555
C69 C68 1_555 1_555
C70 H71 1_555 1_555
H72 C70 1_555 1_555
C71 C70 1_555 1_555
H73 C71 1_555 1_555
H74 C71 1_555 1_555
H75 C71 1_555 1_555
C72 H76 1_555 1_555
H77 C72 1_555 1_555
C73 H78 1_555 1_555
H79 C73 1_555 1_555
C74 C73 1_555 1_555
C75 C74 1_555 1_555
C76 C75 1_555 1_555
H80 C76 1_555 1_555
C77 C76 1_555 1_555
H81 C77 1_555 1_555
C78 C77 1_555 1_555
C79 C72 1_555 1_555
C80 H82 1_555 1_555
H83 C80 1_555 1_555
H84 C80 1_555 1_555
C81 H85 1_555 1_555
C82 Cl4 1_555 1_555
Cl1 C81 1_555 1_555
Cl2 C81 1_555 1_555
Cl3 C81 1_555 1_555
Cl5 C82 1_555 1_555
Cl6 C82 1_555 1_555
N1 C5 1_555 1_555
N2 C9 1_555 1_555
N3 C8 1_555 1_555
N4 C10 1_555 1_555
N5 C11 1_555 1_555
N6 C21 1_555 1_555
N7 C20 1_555 1_555
N8 C23 1_555 1_555
N9 C22 1_555 1_555
N10 C35 1_555 1_555
N11 C45 1_555 1_555
N12 C48 1_555 1_555
N13 C49 1_555 1_555
N14 C50 1_555 1_555
N15 C51 1_555 1_555
N16 C61 1_555 1_555
N17 C60 1_555 1_555
N18 C62 1_555 1_555
N19 C63 1_555 1_555
N20 C75 1_555 1_555
O2 C1 1_555 1_555
O3 N1 1_555 1_555
O4 N1 1_555 1_555
O5 C10 1_555 1_555
O6 C11 1_555 1_555
O8 C13 1_555 1_555
O9 C17 1_555 1_555
O10 C17 1_555 1_555
O11 C22 1_555 1_555
O12 C23 1_555 1_555
O14 C25 1_555 1_555
O15 C29 1_555 1_555
O16 C29 1_555 1_555
O17 C38 1_555 1_555
O18 N10 1_555 1_555
O19 N10 1_555 1_555
O20 C41 1_555 1_555
O21 N11 1_555 1_555
O22 N11 1_555 1_555
O23 C50 1_555 1_555
O24 C51 1_555 1_555
O26 C53 1_555 1_555
O27 C57 1_555 1_555
O28 C57 1_555 1_555
O29 C62 1_555 1_555
O30 C63 1_555 1_555
O32 C65 1_555 1_555
O33 C69 1_555 1_555
O34 C69 1_555 1_555
O35 C78 1_555 1_555
O36 N20 1_555 1_555
O37 N20 1_555 1_555
O38 H94 1_555 1_555
C84 O38 1_555 1_555
H95 C84 1_555 1_555
H96 C84 1_555 1_555
H97 C84 1_555 1_555
C2 O2 1_555 1_555
C6 C7 1_555 1_555
C12 N2 1_555 1_555
C12 N3 1_555 1_555
C14 O8 1_555 1_555
C16 N4 1_555 1_555
C16 N5 1_555 1_555
C18 O10 1_555 1_555
C20 N4 1_555 1_555
C21 N5 1_555 1_555
C24 N6 1_555 1_555
C24 N7 1_555 1_555
C26 O14 1_555 1_555
C28 N8 1_555 1_555
C28 N9 1_555 1_555
C30 O16 1_555 1_555
C32 N8 1_555 1_555
C33 N9 1_555 1_555
C34 C39 1_555 1_555
C38 C39 1_555 1_555
C40 O17 1_555 1_555
C42 O20 1_555 1_555
C46 C47 1_555 1_555
C52 N12 1_555 1_555
C52 N13 1_555 1_555
C54 O26 1_555 1_555
C56 N14 1_555 1_555
C56 N15 1_555 1_555
C58 O28 1_555 1_555
C60 N14 1_555 1_555
C61 N15 1_555 1_555
C64 N16 1_555 1_555
C64 N17 1_555 1_555
C66 O32 1_555 1_555
C68 N18 1_555 1_555
C68 N19 1_555 1_555
C70 O34 1_555 1_555
C72 N18 1_555 1_555
C73 N19 1_555 1_555
C74 C79 1_555 1_555
C78 C79 1_555 1_555
C80 O35 1_555 1_555

#END
