
#######################################################################
#
#                 Cambridge Crystallographic Data Centre
#                                CCDC 
#
#######################################################################
#
# If this CIF has been generated from an entry in the Cambridge 
# Structural Database, then it will include bibliographic, chemical, 
# crystal, experimental, refinement or atomic coordinate data resulting 
# from the CCDC's data processing and validation procedures.
#
#######################################################################

data_CEZBAL
_chemical_formula_moiety         'C40 H42 N10 O18,C2 H4 Cl2'
_chemical_name_systematic        
"(+-)-cis-15b,15c,17b,17c-tetrakis(Ethoxycarbonyl)-4,13-dimethoxy-1,10-dinitro-5,9,14,15b,15c,17b,17c,18-octahydro-5a,6a,7a,8a,14a,15a,16a,17a-octa-azabenzo(5,6)cyclohepta(1,2,3-cd)benzo(5'',6'')cyclohepta(1'',2'',3'':3',4')pentaleno(1',6':5,6,7)cyclo-octa(1,2,3-gh)pentalene-6,8,15,17-tetrone 1,2-dichloroethane solvate"
_chemical_properties_biological  'herbicidal and antifungal activity'
_symmetry_cell_setting           monoclinic
_symmetry_space_group_name_H-M   'C 2/c'
_symmetry_Int_Tables_number      15
_space_group_name_Hall           '-C 2yn'
loop_
_symmetry_equiv_pos_site_id
_symmetry_equiv_pos_as_xyz
1 x,y,z
2 1/2+x,1/2+y,z
3 -x,y,1/2-z
4 1/2-x,1/2+y,1/2-z
5 -x,-y,-z
6 1/2-x,1/2-y,-z
7 x,-y,1/2+z
8 1/2+x,1/2-y,1/2+z
_cell_length_a                   49.125(2)
_cell_length_b                   15.0270(7)
_cell_length_c                   13.9103(6)
_cell_angle_alpha                90
_cell_angle_beta                 96.1470(10)
_cell_angle_gamma                90
_cell_volume                     10209.6
_exptl_crystal_colour            colorless
_exptl_crystal_description       irregular
_cell_formula_units_Z            8
loop_
_atom_site_label
_atom_site_type_symbol
_atom_site_fract_x
_atom_site_fract_y
_atom_site_fract_z
C1 C 0.27958(7) 0.7766(3) 0.9470(2)
H1 H 0.2970 0.7888 0.9243
H2 H 0.2816 0.7300 0.9944
H3 H 0.2730 0.8294 0.9757
C2 C 0.25528(5) 0.80517(19) 0.79170(19)
C3 C 0.26599(6) 0.8900(2) 0.7886(2)
H4 H 0.2770 0.9126 0.8414
C4 C 0.26026(6) 0.9402(2) 0.7075(2)
H5 H 0.2671 0.9978 0.7056
C5 C 0.24432(5) 0.90631(18) 0.6281(2)
C6 C 0.23233(5) 0.82214(16) 0.62885(18)
C7 C 0.23772(5) 0.77169(17) 0.71299(18)
C8 C 0.22548(5) 0.68019(16) 0.72256(18)
H6 H 0.2319 0.6415 0.6738
H7 H 0.2321 0.6560 0.7854
C9 C 0.21297(5) 0.78706(17) 0.54449(17)
H8 H 0.2118 0.8305 0.4926
H9 H 0.2206 0.7329 0.5205
C10 C 0.17968(4) 0.68840(15) 0.61982(16)
C11 C 0.18328(5) 0.60498(16) 0.55800(18)
C12 C 0.17611(7) 0.5437(2) 0.4025(2)
H10 H 0.1659 0.4926 0.4219
H11 H 0.1952 0.5272 0.4042
C13 C 0.16546(9) 0.5721(3) 0.3048(2)
H12 H 0.1463 0.5856 0.3033
H13 H 0.1680 0.5252 0.2597
H14 H 0.1751 0.6242 0.2875
C14 C 0.18011(5) 0.67342(15) 0.78708(17)
C15 C 0.16742(5) 0.83526(16) 0.58461(16)
C16 C 0.14984(4) 0.70513(15) 0.64842(15)
C17 C 0.12749(5) 0.64816(17) 0.59063(17)
C18 C 0.11395(7) 0.5010(2) 0.5495(3)
H15 H 0.0957 0.5044 0.5698
H16 H 0.1129 0.5164 0.4815
C19 C 0.12487(10) 0.4107(2) 0.5647(3)
H17 H 0.1432 0.4085 0.5464
H18 H 0.1135 0.3696 0.5259
H19 H 0.1251 0.3951 0.6316
C20 C 0.13177(5) 0.65815(19) 0.81011(19)
H20 H 0.1327 0.5942 0.8196
H21 H 0.1351 0.6862 0.8731
C21 C 0.12971(5) 0.85766(16) 0.68238(18)
H22 H 0.1392 0.8634 0.7468
H23 H 0.1289 0.9163 0.6530
C22 C 0.09404(5) 0.77148(17) 0.76591(17)
C23 C 0.09856(6) 0.8082(2) 0.87092(19)
C24 C 0.12042(9) 0.9148(3) 0.9791(3)
H24 H 0.1249 0.9775 0.9757
H25 H 0.1044 0.9092 1.0139
C25 C 0.14348(10) 0.8669(4) 1.0316(3)
H26 H 0.1386 0.8056 1.0387
H27 H 0.1477 0.8931 1.0944
H28 H 0.1592 0.8707 0.9962
C26 C 0.08460(6) 0.61743(19) 0.75234(19)
C27 C 0.08194(5) 0.83678(18) 0.61361(19)
C28 C 0.06283(5) 0.75476(18) 0.73283(18)
C29 C 0.04279(6) 0.7987(2) 0.7974(2)
C30 C 0.02978(11) 0.9389(3) 0.8575(5)
H29 H 0.0286 0.9986 0.8308
H30 H 0.0115 0.9138 0.8509
C31 C 0.03953(13) 0.9438(5) 0.9565(6)
H31 H 0.0380 0.8865 0.9858
H32 H 0.0289 0.9863 0.9879
H33 H 0.0584 0.9621 0.9633
C32 C 0.03636(6) 0.6156(2) 0.6825(2)
H34 H 0.0199 0.6449 0.6987
H35 H 0.0358 0.5546 0.7051
C33 C 0.03449(6) 0.7815(3) 0.5716(2)
H36 H 0.0333 0.8290 0.5242
H37 H 0.0187 0.7863 0.6078
C34 C 0.03612(6) 0.6148(3) 0.5730(2)
C35 C 0.03344(6) 0.6933(3) 0.5197(2)
C36 C 0.03089(8) 0.6847(5) 0.4186(3)
C37 C 0.03716(7) 0.5299(4) 0.5271(3)
C38 C 0.04157(10) 0.3723(4) 0.5437(5)
H38 H 0.0262 0.3619 0.4963
H39 H 0.0418 0.3280 0.5936
H40 H 0.0582 0.3690 0.5135
N1 N 0.24145(5) 0.96200(18) 0.5418(2)
N2 N 0.19571(4) 0.67927(13) 0.71221(14)
N3 N 0.18544(4) 0.76837(13) 0.56940(13)
N4 N 0.15304(4) 0.68521(13) 0.75076(13)
N5 N 0.14558(4) 0.79882(13) 0.62569(14)
N6 N 0.10499(4) 0.68180(14) 0.76699(15)
N7 N 0.10217(4) 0.82811(14) 0.69054(14)
N8 N 0.06006(4) 0.66001(15) 0.73450(15)
N9 N 0.05939(4) 0.79295(18) 0.63773(16)
N10 N 0.02627(12) 0.7634(7) 0.3558(4)
O1 O 0.26035(4) 0.74931(15) 0.86711(14)
O2 O 0.23836(7) 1.04169(17) 0.5526(2)
O3 O 0.24309(5) 0.92679(18) 0.46303(18)
O4 O 0.18785(4) 0.65914(13) 0.87134(12)
O5 O 0.17018(4) 0.91302(12) 0.56401(13)
O6 O 0.19418(4) 0.53872(12) 0.58937(15)
O7 O 0.17305(4) 0.61873(12) 0.46793(12)
O8 O 0.10907(4) 0.67859(14) 0.53840(15)
O9 O 0.13232(4) 0.56269(12) 0.60655(13)
O10 O 0.08830(4) 0.53799(14) 0.75571(17)
O11 O 0.08402(4) 0.87744(14) 0.54012(14)
O12 O 0.08890(5) 0.76930(16) 0.93414(14)
O13 O 0.11404(5) 0.87928(15) 0.88021(14)
O14 O 0.02558(4) 0.75883(17) 0.83408(17)
O15 O 0.04734(5) 0.88478(16) 0.8020(2)
O16 O 0.03920(6) 0.4589(2) 0.5853(3)
O17 O 0.03027(10) 0.7579(6) 0.2745(3)
O18 O 0.01189(13) 0.8271(5) 0.3859(4)
C43 C 0.03586(10) 0.5268(5) 0.4267(4)
H45 H 0.0371 0.4723 0.3957
C44 C 0.03290(11) 0.6020(6) 0.3741(4)
H46 H 0.0322 0.5989 0.3071
Cl1 Cl 0.19150(2) -0.10570(7) 0.83136(8)
Cl2 Cl 0.18744(4) 0.17493(9) 0.77861(11)
C39 C 0.18090(11) 0.0155(5) 0.8313(4)
H41 H 0.1616 0.0226 0.8095
H42 H 0.1848 0.0418 0.8950
C40 C 0.19639(11) 0.0504(5) 0.7694(4)
H43 H 0.1916 0.0278 0.7045
H44 H 0.2157 0.0396 0.7886
Cl3 Cl 0.09487(5) 0.33316(18) 0.7919(2)
Cl4 Cl 0.09816(8) 0.05764(18) 0.7474(3)
C41 C 0.09996(19) 0.2218(7) 0.8215(7)
C42 C 0.0916(3) 0.1865(13) 0.7194(10)
Cl5? Cl 0.0979(3) 0.2734(5) 0.7289(13)
C45? C 0.1207(5) 0.1870(15) 0.8337(13)
C46? C 0.0895(6) 0.1130(18) 0.8178(13)
Cl6? Cl 0.0890(7) 0.0786(13) 0.7050(11)
loop_
_geom_bond_atom_site_label_1
_geom_bond_atom_site_label_2
_geom_bond_site_symmetry_1
_geom_bond_site_symmetry_2
C1 H1 1_555 1_555
H2 C1 1_555 1_555
H3 C1 1_555 1_555
C2 C3 1_555 1_555
C3 H4 1_555 1_555
C4 C3 1_555 1_555
H5 C4 1_555 1_555
C5 C4 1_555 1_555
C6 C5 1_555 1_555
C7 C2 1_555 1_555
C8 C7 1_555 1_555
H6 C8 1_555 1_555
H7 C8 1_555 1_555
C9 C6 1_555 1_555
H8 C9 1_555 1_555
H9 C9 1_555 1_555
C10 C11 1_555 1_555
C11 O6 1_555 1_555
C12 H10 1_555 1_555
H11 C12 1_555 1_555
C13 C12 1_555 1_555
H12 C13 1_555 1_555
H13 C13 1_555 1_555
H14 C13 1_555 1_555
C14 N2 1_555 1_555
C15 N3 1_555 1_555
C16 C10 1_555 1_555
C17 C16 1_555 1_555
C18 H15 1_555 1_555
H16 C18 1_555 1_555
C19 C18 1_555 1_555
H17 C19 1_555 1_555
H18 C19 1_555 1_555
H19 C19 1_555 1_555
C20 H20 1_555 1_555
H21 C20 1_555 1_555
C21 H22 1_555 1_555
H23 C21 1_555 1_555
C22 C23 1_555 1_555
C23 O12 1_555 1_555
C24 H24 1_555 1_555
H25 C24 1_555 1_555
C25 C24 1_555 1_555
H26 C25 1_555 1_555
H27 C25 1_555 1_555
H28 C25 1_555 1_555
C26 N6 1_555 1_555
C27 N7 1_555 1_555
C28 C22 1_555 1_555
C29 C28 1_555 1_555
C30 H29 1_555 1_555
H30 C30 1_555 1_555
C31 C30 1_555 1_555
H31 C31 1_555 1_555
H32 C31 1_555 1_555
H33 C31 1_555 1_555
C32 H34 1_555 1_555
H35 C32 1_555 1_555
C33 H36 1_555 1_555
H37 C33 1_555 1_555
C34 C32 1_555 1_555
C35 C33 1_555 1_555
C36 C35 1_555 1_555
C37 C34 1_555 1_555
C38 H38 1_555 1_555
H39 C38 1_555 1_555
H40 C38 1_555 1_555
N1 C5 1_555 1_555
N2 C8 1_555 1_555
N3 C9 1_555 1_555
N4 C14 1_555 1_555
N5 C15 1_555 1_555
N6 C20 1_555 1_555
N7 C21 1_555 1_555
N8 C26 1_555 1_555
N9 C27 1_555 1_555
N10 C36 1_555 1_555
O1 C1 1_555 1_555
O2 N1 1_555 1_555
O3 N1 1_555 1_555
O4 C14 1_555 1_555
O5 C15 1_555 1_555
O7 C11 1_555 1_555
O8 C17 1_555 1_555
O9 C17 1_555 1_555
O10 C26 1_555 1_555
O11 C27 1_555 1_555
O13 C23 1_555 1_555
O14 C29 1_555 1_555
O15 C29 1_555 1_555
O16 C37 1_555 1_555
O17 N10 1_555 1_555
O18 N10 1_555 1_555
Cl1 C39 1_555 1_555
Cl2 C40 1_555 1_555
Cl3 C41 1_555 1_555
Cl4 C42 1_555 1_555
C39 H41 1_555 1_555
H42 C39 1_555 1_555
C40 C39 1_555 1_555
H43 C40 1_555 1_555
H44 C40 1_555 1_555
C41 C42 1_555 1_555
C43 C37 1_555 1_555
H45 C43 1_555 1_555
C44 C36 1_555 1_555
H46 C44 1_555 1_555
C2 O1 1_555 1_555
C6 C7 1_555 1_555
C10 N2 1_555 1_555
C10 N3 1_555 1_555
C12 O7 1_555 1_555
C16 N4 1_555 1_555
C16 N5 1_555 1_555
C18 O9 1_555 1_555
C20 N4 1_555 1_555
C21 N5 1_555 1_555
C22 N6 1_555 1_555
C22 N7 1_555 1_555
C24 O13 1_555 1_555
C28 N8 1_555 1_555
C28 N9 1_555 1_555
C30 O15 1_555 1_555
C32 N8 1_555 1_555
C33 N9 1_555 1_555
C34 C35 1_555 1_555
C38 O16 1_555 1_555
C43 C44 1_555 1_555

#END
