
#######################################################################
#
#                 Cambridge Crystallographic Data Centre
#                                CCDC 
#
#######################################################################
#
# If this CIF has been generated from an entry in the Cambridge 
# Structural Database, then it will include bibliographic, chemical, 
# crystal, experimental, refinement or atomic coordinate data resulting 
# from the CCDC's data processing and validation procedures.
#
#######################################################################

data_CEZGEV
_chemical_formula_moiety         'C20 H23 N1 O3 S1'
_chemical_name_systematic        
N-(2-Isopropoxy-1,2-dihydronaphthalen-1-yl)-4-methylbenzenesulfonamide
_symmetry_cell_setting           monoclinic
_symmetry_space_group_name_H-M   'P 21/c'
_symmetry_Int_Tables_number      14
_space_group_name_Hall           '-P 2ybc'
loop_
_symmetry_equiv_pos_site_id
_symmetry_equiv_pos_as_xyz
1 x,y,z
2 -x,1/2+y,1/2-z
3 -x,-y,-z
4 x,1/2-y,1/2+z
_cell_length_a                   9.807(5)
_cell_length_b                   13.026(6)
_cell_length_c                   14.561(7)
_cell_angle_alpha                90
_cell_angle_beta                 96.029(8)
_cell_angle_gamma                90
_cell_volume                     1849.82
_cell_formula_units_Z            4
loop_
_atom_site_label
_atom_site_type_symbol
_atom_site_fract_x
_atom_site_fract_y
_atom_site_fract_z
S1 S 0.4771(2) 0.35165(15) 0.08248(13)
O1 O 0.1681(5) 0.4748(3) 0.2233(3)
O2 O 0.4463(4) 0.2452(3) 0.0928(3)
O3 O 0.5810(4) 0.3848(3) 0.0132(3)
N1 N 0.3410(5) 0.4093(3) 0.0605(3)
H1 H 0.3425 0.4654 0.0294
C1 C 0.0066(10) 0.2195(6) -0.1187(6)
H2 H -0.0461 0.1824 -0.1640
C2 C 0.1453(9) 0.2225(6) -0.1268(5)
H3 H 0.1879 0.1905 -0.1732
C3 C 0.2077(8) 0.2763(5) -0.0603(5)
H4 H 0.3022 0.2848 -0.0579
C4 C 0.1344(7) 0.3238(5) 0.0110(4)
C5 C -0.0085(8) 0.3215(5) 0.0201(5)
C6 C -0.0686(8) 0.2672(5) -0.0480(5)
H5 H -0.1631 0.2585 -0.0518
C7 C -0.0846(7) 0.3734(5) 0.0946(5)
H6 H -0.1763 0.3571 0.0976
C8 C -0.0294(8) 0.4356(5) 0.1505(5)
H7 H -0.0745 0.4656 0.1968
C9 C 0.1185(8) 0.4586(5) 0.1369(4)
H8 H 0.1222 0.5229 0.1023
C10 C 0.2011(7) 0.3736(5) 0.0887(4)
H9 H 0.2219 0.3199 0.1352
C11 C 0.1340(12) 0.5762(6) 0.2627(6)
H10 H 0.0576 0.6103 0.2260
C12 C 0.5252(7) 0.3969(5) 0.1886(4)
C13 C 0.5852(7) 0.4908(5) 0.1933(5)
H11 H 0.5925 0.5298 0.1405
C14 C 0.6319(7) 0.5237(6) 0.2742(5)
H12 H 0.6718 0.5883 0.2819
C15 C 0.6206(8) 0.4598(7) 0.3494(5)
C16 C 0.5144(7) 0.3330(5) 0.2627(5)
H13 H 0.4756 0.2680 0.2544
C17 C 0.5599(8) 0.3657(7) 0.3450(5)
H14 H 0.5514 0.3269 0.3977
C18 C 0.6782(8) 0.4943(6) 0.4382(4)
H15 H 0.6371 0.4574 0.4853
H16 H 0.6610 0.5664 0.4442
H17 H 0.7753 0.4822 0.4448
C19 C 0.2550(12) 0.6302(8) 0.2629(8)
H18 H 0.2896 0.6229 0.2040
H19 H 0.3210 0.6037 0.3103
H20 H 0.2387 0.7014 0.2745
C20 C 0.1053(14) 0.5591(7) 0.3622(6)
H21 H 0.1870 0.5724 0.4028
H22 H 0.0770 0.4893 0.3698
H23 H 0.0338 0.6047 0.3769
loop_
_geom_bond_atom_site_label_1
_geom_bond_atom_site_label_2
_geom_bond_site_symmetry_1
_geom_bond_site_symmetry_2
S1 O2 1_555 1_555
O1 C9 1_555 1_555
O3 S1 1_555 1_555
N1 S1 1_555 1_555
H1 N1 1_555 1_555
C1 H2 1_555 1_555
C2 C1 1_555 1_555
H3 C2 1_555 1_555
C3 C2 1_555 1_555
H4 C3 1_555 1_555
C4 C3 1_555 1_555
C5 C4 1_555 1_555
C6 C1 1_555 1_555
H5 C6 1_555 1_555
C7 C5 1_555 1_555
H6 C7 1_555 1_555
C8 C7 1_555 1_555
H7 C8 1_555 1_555
C9 C8 1_555 1_555
H8 C9 1_555 1_555
C10 N1 1_555 1_555
H9 C10 1_555 1_555
C11 O1 1_555 1_555
H10 C11 1_555 1_555
C12 S1 1_555 1_555
C13 C12 1_555 1_555
H11 C13 1_555 1_555
C14 C13 1_555 1_555
H12 C14 1_555 1_555
C15 C14 1_555 1_555
C16 C12 1_555 1_555
H13 C16 1_555 1_555
C17 C15 1_555 1_555
H14 C17 1_555 1_555
C18 C15 1_555 1_555
H15 C18 1_555 1_555
H16 C18 1_555 1_555
H17 C18 1_555 1_555
C19 C11 1_555 1_555
H18 C19 1_555 1_555
H19 C19 1_555 1_555
H20 C19 1_555 1_555
C20 C11 1_555 1_555
H21 C20 1_555 1_555
H22 C20 1_555 1_555
H23 C20 1_555 1_555
C4 C10 1_555 1_555
C5 C6 1_555 1_555
C9 C10 1_555 1_555
C16 C17 1_555 1_555

#END
