
#######################################################################
#
#                 Cambridge Crystallographic Data Centre
#                                CCDC 
#
#######################################################################
#
# If this CIF has been generated from an entry in the Cambridge 
# Structural Database, then it will include bibliographic, chemical, 
# crystal, experimental, refinement or atomic coordinate data resulting 
# from the CCDC's data processing and validation procedures.
#
#######################################################################

data_CEZHAT
_chemical_formula_moiety         'C42 H40 N4,2(C2 H3 N1)'
_chemical_name_systematic        
'5,5,10,15,15,20-hexamethyl-10,20-bis(phenylethynyl)-5,10,15,20,22,24-hexahydroporphyrin acetonitrile solvate'
_symmetry_cell_setting           monoclinic
_symmetry_space_group_name_H-M   'P 21/c'
_symmetry_Int_Tables_number      14
_space_group_name_Hall           '-P 2ybc'
loop_
_symmetry_equiv_pos_site_id
_symmetry_equiv_pos_as_xyz
1 x,y,z
2 -x,1/2+y,1/2-z
3 -x,-y,-z
4 x,1/2-y,1/2+z
_cell_length_a                   11.270(2)
_cell_length_b                   14.844(3)
_cell_length_c                   12.708(3)
_cell_angle_alpha                90
_cell_angle_beta                 114.23(3)
_cell_angle_gamma                90
_cell_volume                     1938.66
_exptl_crystal_colour            colorless
_exptl_crystal_description       plate
_cell_formula_units_Z            2
loop_
_atom_site_label
_atom_site_type_symbol
_atom_site_fract_x
_atom_site_fract_y
_atom_site_fract_z
C1 C 0.43851(13) 0.70608(11) 0.00270(11)
C2 C 0.49778(15) 0.76938(12) -0.03807(13)
C3 C 0.63308(15) 0.75050(12) 0.01033(13)
C4 C 0.65331(13) 0.67618(11) 0.07866(11)
C5 C 0.77792(13) 0.62425(11) 0.14502(12)
C6 C 0.78556(12) 0.54032(11) 0.07992(11)
C7 C 0.84880(14) 0.52572(12) 0.00923(13)
C8 C 0.82232(14) 0.43637(12) -0.03161(13)
C9 C 0.74452(13) 0.39737(11) 0.01470(11)
C10 C 0.29877(13) 0.69890(12) -0.01180(12)
C11 C 0.20935(17) 0.74469(15) -0.12534(18)
C12 C 0.28454(17) 0.74863(15) 0.08933(18)
C13 C 0.89528(15) 0.68521(13) 0.16171(16)
C14 C 0.78570(13) 0.59906(12) 0.26031(12)
C15 C 0.79575(15) 0.57932(12) 0.35483(12)
C16 C 0.80906(16) 0.55637(12) 0.46911(12)
C17 C 0.92684(18) 0.57340(14) 0.56448(14)
C18 C 0.9392(2) 0.55454(16) 0.67507(15)
C19 C 0.8347(3) 0.51844(15) 0.69071(16)
C20 C 0.7183(3) 0.50107(15) 0.59763(18)
C21 C 0.7056(2) 0.51978(13) 0.48653(15)
N1 N 0.53434(11) 0.64908(9) 0.07425(10)
N2 N 0.72262(11) 0.46190(9) 0.08297(10)
H1 H 0.5241(17) 0.6008(15) 0.1089(15)
H2 H 0.6704(17) 0.4554(13) 0.1238(15)
H3 H 0.4512(16) 0.8212(14) -0.0884(15)
H4 H 0.7007(17) 0.7881(13) -0.0013(14)
H5 H 0.8920(19) 0.7387(16) 0.2054(17)
H6 H 0.8948(19) 0.7052(15) 0.0816(17)
H7 H 0.9770(18) 0.6518(14) 0.2102(15)
H8 H 0.9004(17) 0.5713(14) -0.0123(15)
H9 H 0.8572(17) 0.4045(14) -0.0805(15)
H10 H 1.007(2) 0.6048(17) 0.5501(19)
H11 H 1.026(2) 0.5703(18) 0.745(2)
H12 H 0.838(2) 0.5049(18) 0.768(2)
H13 H 0.642(2) 0.4801(17) 0.6013(19)
H14 H 0.6275(18) 0.5100(15) 0.4265(16)
H15 H 0.341(2) 0.7194(15) 0.1713(18)
H16 H 0.1916(19) 0.7488(14) 0.0819(16)
H17 H 0.309(2) 0.8158(17) 0.0936(18)
H18 H 0.117(2) 0.7381(15) -0.1304(18)
H19 H 0.2212(17) 0.7163(14) -0.1941(17)
H20 H 0.237(2) 0.8101(18) -0.1274(19)
C1B C 0.56149(13) 0.29392(11) -0.00270(11)
C2B C 0.50222(15) 0.23062(12) 0.03807(13)
C3B C 0.36692(15) 0.24950(12) -0.01033(13)
C4B C 0.34669(13) 0.32382(11) -0.07866(11)
C5B C 0.22208(13) 0.37575(11) -0.14502(12)
C6B C 0.21444(12) 0.45968(11) -0.07992(11)
C7B C 0.15120(14) 0.47428(12) -0.00923(13)
C8B C 0.17768(14) 0.56363(12) 0.03161(13)
C9B C 0.25548(13) 0.60263(11) -0.01470(11)
C10B C 0.70123(13) 0.30110(12) 0.01180(12)
C11B C 0.79065(17) 0.25531(15) 0.12534(18)
C12B C 0.71546(17) 0.25137(15) -0.08933(18)
C13B C 0.10472(15) 0.31479(13) -0.16171(16)
C14B C 0.21430(13) 0.40094(12) -0.26031(12)
C15B C 0.20425(15) 0.42068(12) -0.35483(12)
C16B C 0.19094(16) 0.44363(12) -0.46911(12)
C17B C 0.07316(18) 0.42660(14) -0.56448(14)
C18B C 0.0608(2) 0.44546(16) -0.67507(15)
C19B C 0.1653(3) 0.48156(15) -0.69071(16)
C20B C 0.2817(3) 0.49893(15) -0.59763(18)
C21B C 0.2944(2) 0.48022(13) -0.48653(15)
N1B N 0.46566(11) 0.35092(9) -0.07425(10)
N2B N 0.27738(11) 0.53810(9) -0.08297(10)
H1B H 0.4759(17) 0.3992(15) -0.1089(15)
H2B H 0.3296(17) 0.5446(13) -0.1238(15)
H3B H 0.5488(16) 0.1788(14) 0.0884(15)
H4B H 0.2993(17) 0.2119(13) 0.0013(14)
H5B H 0.1080(19) 0.2613(16) -0.2054(17)
H6B H 0.1052(19) 0.2948(15) -0.0816(17)
H7B H 0.0230(18) 0.3482(14) -0.2102(15)
H8B H 0.0996(17) 0.4287(14) 0.0123(15)
H9B H 0.1428(17) 0.5955(14) 0.0805(15)
H10B H -0.007(2) 0.3952(17) -0.5501(19)
H11B H -0.026(2) 0.4297(18) -0.745(2)
H12B H 0.162(2) 0.4951(18) -0.768(2)
H13B H 0.358(2) 0.5199(17) -0.6013(19)
H14B H 0.3725(18) 0.4900(15) -0.4265(16)
H15B H 0.659(2) 0.2806(15) -0.1713(18)
H16B H 0.8084(19) 0.2512(14) -0.0819(16)
H17B H 0.691(2) 0.1842(17) -0.0936(18)
H18B H 0.883(2) 0.2619(15) 0.1304(18)
H19B H 0.7788(17) 0.2837(14) 0.1941(17)
H20B H 0.763(2) 0.1899(18) 0.1274(19)
C22 C 0.37944(17) 0.33689(14) 0.23579(15)
C23 C 0.44954(14) 0.40570(12) 0.20248(12)
N3 N 0.50610(13) 0.46011(11) 0.17900(11)
H21 H 0.290(2) 0.3386(16) 0.1837(19)
H22 H 0.396(2) 0.3448(18) 0.319(2)
H23 H 0.409(2) 0.275(2) 0.222(2)
loop_
_geom_bond_atom_site_label_1
_geom_bond_atom_site_label_2
_geom_bond_site_symmetry_1
_geom_bond_site_symmetry_2
C1 C2 1_555 1_555
C2 C3 1_555 1_555
C3 C4 1_555 1_555
C4 C5 1_555 1_555
C5 C6 1_555 1_555
C6 C7 1_555 1_555
C7 C8 1_555 1_555
C8 C9 1_555 1_555
C9 N2 1_555 1_555
C10 C1 1_555 1_555
C11 C10 1_555 1_555
C12 C10 1_555 1_555
C13 C5 1_555 1_555
C14 C5 1_555 1_555
C15 C14 1_555 1_555
C16 C15 1_555 1_555
C17 C16 1_555 1_555
C18 C17 1_555 1_555
C19 C18 1_555 1_555
C20 C19 1_555 1_555
C21 C16 1_555 1_555
N1 C1 1_555 1_555
N2 C6 1_555 1_555
H1 N1 1_555 1_555
H2 N2 1_555 1_555
H3 C2 1_555 1_555
H4 C3 1_555 1_555
H5 C13 1_555 1_555
H6 C13 1_555 1_555
H7 C13 1_555 1_555
H8 C7 1_555 1_555
H9 C8 1_555 1_555
H10 C17 1_555 1_555
H11 C18 1_555 1_555
H12 C19 1_555 1_555
H13 C20 1_555 1_555
H14 C21 1_555 1_555
H15 C12 1_555 1_555
H16 C12 1_555 1_555
H17 C12 1_555 1_555
H18 C11 1_555 1_555
H19 C11 1_555 1_555
H20 C11 1_555 1_555
C22 C23 1_555 1_555
C23 N3 1_555 1_555
H21 C22 1_555 1_555
H22 C22 1_555 1_555
H23 C22 1_555 1_555
C1B C2B 1_555 1_555
C2B C3B 1_555 1_555
C3B C4B 1_555 1_555
C4B C5B 1_555 1_555
C5B C6B 1_555 1_555
C6B C7B 1_555 1_555
C7B C8B 1_555 1_555
C8B C9B 1_555 1_555
C9B C10 1_555 1_555
C10B C9 1_555 1_555
C11B C10B 1_555 1_555
C12B C10B 1_555 1_555
C13B C5B 1_555 1_555
C14B C5B 1_555 1_555
C15B C14B 1_555 1_555
C16B C15B 1_555 1_555
C17B C16B 1_555 1_555
C18B C17B 1_555 1_555
C19B C18B 1_555 1_555
C20B C19B 1_555 1_555
C21B C16B 1_555 1_555
N1B C1B 1_555 1_555
N2B C6B 1_555 1_555
H1B N1B 1_555 1_555
H2B N2B 1_555 1_555
H3B C2B 1_555 1_555
H4B C3B 1_555 1_555
H5B C13B 1_555 1_555
H6B C13B 1_555 1_555
H7B C13B 1_555 1_555
H8B C7B 1_555 1_555
H9B C8B 1_555 1_555
H10B C17B 1_555 1_555
H11B C18B 1_555 1_555
H12B C19B 1_555 1_555
H13B C20B 1_555 1_555
H14B C21B 1_555 1_555
H15B C12B 1_555 1_555
H16B C12B 1_555 1_555
H17B C12B 1_555 1_555
H18B C11B 1_555 1_555
H19B C11B 1_555 1_555
H20B C11B 1_555 1_555
C4 N1 1_555 1_555
C20 C21 1_555 1_555
C1B C10B 1_555 1_555
C4B N1B 1_555 1_555
C9B N2B 1_555 1_555
C20B C21B 1_555 1_555

#END
