
#######################################################################
#
#                 Cambridge Crystallographic Data Centre
#                                CCDC 
#
#######################################################################
#
# If this CIF has been generated from an entry in the Cambridge 
# Structural Database, then it will include bibliographic, chemical, 
# crystal, experimental, refinement or atomic coordinate data resulting 
# from the CCDC's data processing and validation procedures.
#
#######################################################################

data_CEZJIC
_chemical_formula_moiety         'C32 H25 N3 O2'
_chemical_name_systematic        
(4,5-Diphenyl-4,5-dihydro-1,3-oxazol-2-yl)(4,5-diphenyl-1,3-oxazolidin-2-ylidene)acetonitrile
_symmetry_cell_setting           monoclinic
_symmetry_space_group_name_H-M   'P 21'
_symmetry_Int_Tables_number      4
_space_group_name_Hall           'P 2yb'
loop_
_symmetry_equiv_pos_site_id
_symmetry_equiv_pos_as_xyz
1 x,y,z
2 -x,1/2+y,-z
_cell_length_a                   13.225(2)
_cell_length_b                   7.0486(12)
_cell_length_c                   13.942(2)
_cell_angle_alpha                90
_cell_angle_beta                 98.218(2)
_cell_angle_gamma                90
_cell_volume                     1286.3
_exptl_crystal_colour            colorless
_exptl_crystal_description       Plate
_cell_formula_units_Z            2
loop_
_atom_site_label
_atom_site_type_symbol
_atom_site_fract_x
_atom_site_fract_y
_atom_site_fract_z
O1 O 0.48172(10) 0.1528(2) 0.66047(9)
O2 O 0.32957(10) -0.0454(2) 0.34703(9)
C1 C 0.52375(14) 0.0249(3) 0.82391(14)
N1 N 0.31786(12) 0.0473(2) 0.64446(11)
C2 C 0.49975(14) 0.0923(3) 0.46715(13)
N2 N 0.24200(12) -0.0975(2) 0.46863(11)
N3 N 0.57535(12) 0.1172(3) 0.43697(12)
C3 C 0.32720(14) -0.0267(3) 0.44249(14)
C4 C 0.39750(14) 0.0833(3) 0.60416(13)
C5 C 0.40648(14) 0.0577(3) 0.50316(13)
C6 C 0.45720(14) 0.1596(3) 0.75937(14)
H1 H 0.4668 0.2890 0.7848
C7 C 0.12072(14) -0.3498(3) 0.40065(13)
C8 C 0.34134(14) 0.1069(3) 0.74680(13)
H2 H 0.3312 -0.0005 0.7891
C9 C 0.28146(16) 0.4455(3) 0.72415(15)
H3 H 0.3319 0.4650 0.6851
C10 C 0.21598(16) 0.5927(3) 0.73974(15)
H4 H 0.2234 0.7108 0.7118
C11 C 0.53955(17) -0.1594(4) 0.79325(16)
H5 H 0.5121 -0.1974 0.7311
C12 C 0.02153(15) -0.3803(3) 0.35470(14)
H6 H -0.0125 -0.2852 0.3166
C13 C 0.13947(15) 0.5642(3) 0.79687(14)
H7 H 0.0949 0.6622 0.8063
C14 C 0.17075(15) -0.4911(3) 0.45835(15)
H8 H 0.2373 -0.4720 0.4886
C15 C 0.19570(14) 0.2418(3) 0.82477(14)
H9 H 0.1888 0.1245 0.8537
C16 C 0.24622(14) -0.1738(3) 0.30893(14)
H10 H 0.2728 -0.3033 0.3069
C17 C 0.62075(17) -0.0490(4) 0.97943(16)
H11 H 0.6475 -0.0123 1.0420
C18 C 0.17187(14) -0.1629(3) 0.38550(13)
H12 H 0.1199 -0.0656 0.3665
C19 C 0.27195(14) 0.2689(3) 0.76670(13)
C20 C 0.16012(16) 0.0669(4) 0.19086(16)
H13 H 0.1667 0.1568 0.2402
C21 C 0.19874(15) -0.1156(3) 0.20884(15)
C22 C 0.63627(17) -0.2310(4) 0.94819(17)
H14 H 0.6738 -0.3166 0.9897
C23 C 0.12986(16) 0.3893(3) 0.83963(15)
H15 H 0.0792 0.3702 0.8785
C24 C 0.02277(17) -0.6924(3) 0.42327(16)
H16 H -0.0097 -0.8075 0.4304
C25 C 0.18933(17) -0.2485(4) 0.13404(16)
H17 H 0.2154 -0.3704 0.1450
C26 C 0.56484(15) 0.0796(4) 0.91701(15)
H18 H 0.5550 0.2028 0.9378
C27 C 0.1402(2) -0.1964(6) 0.04225(17)
H19 H 0.1342 -0.2842 -0.0081
C28 C 0.11169(17) 0.1140(5) 0.09891(18)
H20 H 0.0863 0.2361 0.0869
C29 C 0.59622(18) -0.2866(4) 0.85533(17)
H21 H 0.6072 -0.4093 0.8345
C30 C -0.02669(17) -0.5515(3) 0.36543(15)
H22 H -0.0925 -0.5719 0.3337
C31 C 0.10080(19) -0.0176(5) 0.02550(18)
H23 H 0.0668 0.0145 -0.0354
C32 C 0.12116(16) -0.6614(3) 0.47075(16)
H24 H 0.1539 -0.7548 0.5109
H25 H 0.2309 -0.0885 0.5283
loop_
_geom_bond_atom_site_label_1
_geom_bond_atom_site_label_2
_geom_bond_site_symmetry_1
_geom_bond_site_symmetry_2
O1 C4 1_555 1_555
O2 C3 1_555 1_555
C1 C6 1_555 1_555
N1 C4 1_555 1_555
C2 N3 1_555 1_555
N2 C3 1_555 1_555
C3 C5 1_555 1_555
C4 C5 1_555 1_555
C5 C2 1_555 1_555
C6 O1 1_555 1_555
H1 C6 1_555 1_555
C7 C12 1_555 1_555
C8 N1 1_555 1_555
H2 C8 1_555 1_555
C9 H3 1_555 1_555
C10 C9 1_555 1_555
H4 C10 1_555 1_555
C11 C1 1_555 1_555
H5 C11 1_555 1_555
C12 H6 1_555 1_555
C13 C10 1_555 1_555
H7 C13 1_555 1_555
C14 C7 1_555 1_555
H8 C14 1_555 1_555
C15 H9 1_555 1_555
C16 O2 1_555 1_555
H10 C16 1_555 1_555
C17 H11 1_555 1_555
C18 N2 1_555 1_555
H12 C18 1_555 1_555
C19 C8 1_555 1_555
C20 H13 1_555 1_555
C21 C16 1_555 1_555
C22 C17 1_555 1_555
H14 C22 1_555 1_555
C23 C13 1_555 1_555
H15 C23 1_555 1_555
C24 H16 1_555 1_555
C25 C21 1_555 1_555
H17 C25 1_555 1_555
C26 C1 1_555 1_555
H18 C26 1_555 1_555
C27 C25 1_555 1_555
H19 C27 1_555 1_555
C28 C20 1_555 1_555
H20 C28 1_555 1_555
C29 C11 1_555 1_555
H21 C29 1_555 1_555
C30 C12 1_555 1_555
H22 C30 1_555 1_555
C31 C27 1_555 1_555
H23 C31 1_555 1_555
C32 C14 1_555 1_555
H24 C32 1_555 1_555
H25 N2 1_555 1_555
C6 C8 1_555 1_555
C7 C18 1_555 1_555
C9 C19 1_555 1_555
C15 C19 1_555 1_555
C15 C23 1_555 1_555
C16 C18 1_555 1_555
C17 C26 1_555 1_555
C20 C21 1_555 1_555
C22 C29 1_555 1_555
C24 C30 1_555 1_555
C24 C32 1_555 1_555
C28 C31 1_555 1_555

#END
