
#######################################################################
#
#                 Cambridge Crystallographic Data Centre
#                                CCDC 
#
#######################################################################
#
# If this CIF has been generated from an entry in the Cambridge 
# Structural Database, then it will include bibliographic, chemical, 
# crystal, experimental, refinement or atomic coordinate data resulting 
# from the CCDC's data processing and validation procedures.
#
#######################################################################

data_CEZMAY
_chemical_formula_moiety         'C28 H23 N1 O3'
_chemical_name_systematic        
'methyl 2^4^-(benzenecarbonyl)-2^6^-cyano-2^2^,2^3^,2^4^,2^5^-tetrahydro[1^1^,2^1^:2^3^,3^1^-terphenyl]-2^4^-carboxylate'
_symmetry_cell_setting           monoclinic
_symmetry_space_group_name_H-M   'P 21/n'
_symmetry_Int_Tables_number      14
_space_group_name_Hall           '-P 2yn'
loop_
_symmetry_equiv_pos_site_id
_symmetry_equiv_pos_as_xyz
1 x,y,z
2 1/2-x,1/2+y,1/2-z
3 -x,-y,-z
4 1/2+x,1/2-y,1/2+z
_cell_length_a                   14.4604(3)
_cell_length_b                   9.43285(16)
_cell_length_c                   17.3708(4)
_cell_angle_alpha                90
_cell_angle_beta                 110.080(2)
_cell_angle_gamma                90
_cell_volume                     2225.4
_exptl_crystal_colour            colorless
_exptl_crystal_description       block
_chemical_melting_point          '155.6-158.4 deg.C'
_cell_formula_units_Z            4
loop_
_atom_site_label
_atom_site_type_symbol
_atom_site_fract_x
_atom_site_fract_y
_atom_site_fract_z
O1 O 0.07441(6) 0.66603(9) 0.00041(5)
O2 O 0.09815(6) 0.90095(9) 0.01863(5)
O3 O 0.02379(6) 0.59063(9) -0.19649(5)
N1 N 0.02513(7) 1.16677(11) -0.31540(6)
C1 C 0.19189(8) 0.73003(12) -0.10584(7)
C2 C 0.07802(8) 0.94307(12) -0.14709(7)
C3 C 0.10095(8) 0.94806(12) -0.22588(7)
C4 C 0.17926(9) 0.85959(12) -0.32419(7)
C5 C 0.05927(8) 1.06768(12) -0.27766(7)
C6 C -0.22453(9) 0.84832(13) -0.13251(7)
C7 C 0.00511(8) 0.69348(12) -0.16255(7)
C8 C 0.08778(8) 0.79727(12) -0.02354(7)
C9 C 0.27556(9) 0.84408(13) -0.32403(8)
C10 C -0.12652(8) 0.82982(12) -0.12496(7)
C11 C -0.09934(8) 0.72387(12) -0.16922(7)
C12 C 0.08938(8) 0.79271(12) -0.11102(7)
C13 C -0.17268(9) 0.63645(13) -0.22108(7)
C14 C 0.31125(9) 0.73616(13) 0.03900(7)
C15 C 0.27523(8) 0.80083(13) -0.03795(7)
C16 C 0.10304(9) 0.87398(13) -0.39937(7)
C17 C 0.15941(8) 0.85434(12) -0.24580(7)
C18 C 0.42440(9) 0.92824(15) 0.09288(8)
C19 C 0.20611(9) 0.73368(13) -0.18953(7)
C20 C -0.27024(9) 0.65546(14) -0.22833(8)
C21 C 0.31689(8) 0.92968(13) -0.04822(8)
C22 C 0.21798(12) 0.85659(14) -0.47109(9)
C23 C 0.12234(11) 0.87261(14) -0.47221(8)
C24 C -0.29656(9) 0.76147(14) -0.18434(8)
C25 C 0.38472(9) 0.79914(15) 0.10357(8)
C26 C 0.39052(9) 0.99259(14) 0.01673(9)
C27 C 0.29411(11) 0.84304(14) -0.39718(9)
C28 C 0.07364(11) 0.65486(16) 0.08331(8)
H1 H 0.29470(8) 0.97500(13) -0.10021(8)
H2 H 0.41782(9) 1.08063(14) 0.00873(9)
H3 H 0.47422(9) 0.97199(15) 0.13727(8)
H4 H 0.40800(9) 0.75352(15) 0.15545(8)
H5 H 0.28493(9) 0.64747(13) 0.04722(7)
H6 H -0.15539(9) 0.56368(13) -0.25145(7)
H7 H -0.31951(9) 0.59560(14) -0.26364(8)
H8 H -0.36365(9) 0.77444(14) -0.18974(8)
H9 H -0.24226(9) 0.92060(13) -0.10210(7)
H10 H -0.07753(8) 0.88972(12) -0.08938(7)
H11 H 0.03723(9) 0.88482(13) -0.40060(7)
H12 H 0.06988(11) 0.88268(14) -0.52296(8)
H13 H 0.23116(12) 0.85492(14) -0.52102(9)
H14 H 0.35976(11) 0.83292(14) -0.39646(9)
H15 H 0.32847(9) 0.83423(13) -0.27355(8)
H16 H 0.19173(8) 0.62794(12) -0.09038(7)
H17 H 0.12291(8) 1.00812(12) -0.10654(7)
H18 H 0.00974(8) 0.97623(12) -0.15803(7)
H19 H 0.27770(9) 0.73548(13) -0.17972(7)
H20 H 0.17996(9) 0.64403(13) -0.21846(7)
H21 H 0.0287(6) 0.7259(7) 0.0919(2)
H22 H 0.0515(7) 0.5599(4) 0.0920(2)
H23 H 0.14021(19) 0.6712(11) 0.12222(8)
loop_
_geom_bond_atom_site_label_1
_geom_bond_atom_site_label_2
_geom_bond_site_symmetry_1
_geom_bond_site_symmetry_2
O1 C8 1_555 1_555
O2 C8 1_555 1_555
O3 C7 1_555 1_555
N1 C5 1_555 1_555
C1 C12 1_555 1_555
C2 C3 1_555 1_555
C3 C5 1_555 1_555
C4 C9 1_555 1_555
C6 C10 1_555 1_555
C7 C11 1_555 1_555
C8 C12 1_555 1_555
C9 C27 1_555 1_555
C10 C11 1_555 1_555
C11 C13 1_555 1_555
C12 C2 1_555 1_555
C13 C20 1_555 1_555
C14 C15 1_555 1_555
C15 C1 1_555 1_555
C16 C4 1_555 1_555
C17 C3 1_555 1_555
C18 C25 1_555 1_555
C19 C1 1_555 1_555
C20 C24 1_555 1_555
C21 C15 1_555 1_555
C22 C23 1_555 1_555
C23 C16 1_555 1_555
C24 C6 1_555 1_555
C25 C14 1_555 1_555
C26 C18 1_555 1_555
C27 C22 1_555 1_555
C28 O1 1_555 1_555
H1 C21 1_555 1_555
H2 C26 1_555 1_555
H3 C18 1_555 1_555
H4 C25 1_555 1_555
H5 C14 1_555 1_555
H6 C13 1_555 1_555
H7 C20 1_555 1_555
H8 C24 1_555 1_555
H9 C6 1_555 1_555
H10 C10 1_555 1_555
H11 C16 1_555 1_555
H12 C23 1_555 1_555
H13 C22 1_555 1_555
H14 C27 1_555 1_555
H15 C9 1_555 1_555
H16 C1 1_555 1_555
H17 C2 1_555 1_555
H18 C2 1_555 1_555
H19 C19 1_555 1_555
H20 C19 1_555 1_555
H21 C28 1_555 1_555
H22 C28 1_555 1_555
H23 C28 1_555 1_555
C4 C17 1_555 1_555
C7 C12 1_555 1_555
C17 C19 1_555 1_555
C21 C26 1_555 1_555

#END
