
#######################################################################
#
#                 Cambridge Crystallographic Data Centre
#                                CCDC 
#
#######################################################################
#
# If this CIF has been generated from an entry in the Cambridge 
# Structural Database, then it will include bibliographic, chemical, 
# crystal, experimental, refinement or atomic coordinate data resulting 
# from the CCDC's data processing and validation procedures.
#
#######################################################################

data_CEZPIH
_chemical_formula_moiety         'C19 H13 F2 N1 O1'
_chemical_name_systematic        
(2RS,3SR)-syn-3-(2,6-Difluorophenyl)-3-hydroxy-2-(2-naphthyl)propanenitrile
_symmetry_cell_setting           monoclinic
_symmetry_space_group_name_H-M   'P 21/c'
_symmetry_Int_Tables_number      14
_space_group_name_Hall           '-P 2ybc'
loop_
_symmetry_equiv_pos_site_id
_symmetry_equiv_pos_as_xyz
1 x,y,z
2 -x,1/2+y,1/2-z
3 -x,-y,-z
4 x,1/2-y,1/2+z
_cell_length_a                   14.375(2)
_cell_length_b                   13.899(5)
_cell_length_c                   7.2983(12)
_cell_angle_alpha                90
_cell_angle_beta                 90.609(13)
_cell_angle_gamma                90
_cell_volume                     1458.1
_exptl_crystal_colour            colorless
_exptl_crystal_description       needle
_chemical_melting_point          '156.7-157.9 deg.C'
_cell_formula_units_Z            4
_exptl_crystal_recrystallization_method dichloromethane/hexane
loop_
_atom_site_label
_atom_site_type_symbol
_atom_site_fract_x
_atom_site_fract_y
_atom_site_fract_z
F1 F 0.11305(6) 0.57378(5) 0.22415(11)
F2 F 0.09932(6) 0.23739(5) 0.14990(11)
O1 O 0.23089(7) 0.35475(8) -0.03104(13)
H1 H 0.2250(14) 0.3926(14) -0.126(3)
N1 N 0.24403(8) 0.43242(9) 0.60395(16)
C1 C 0.11138(9) 0.40566(10) 0.18203(17)
C2 C 0.06370(10) 0.48948(10) 0.22555(18)
C3 C -0.02861(10) 0.49384(11) 0.27068(18)
H2 H -0.0576 0.5534 0.2988
C4 C -0.07809(10) 0.40832(11) 0.27386(19)
H3 H -0.1421 0.4091 0.3046
C5 C -0.03527(10) 0.32158(11) 0.23273(19)
H4 H -0.0692 0.2629 0.2351
C6 C 0.05741(10) 0.32272(10) 0.18852(19)
C7 C 0.21349(9) 0.40584(10) 0.13421(17)
H5 H 0.2350 0.4738 0.1201
C8 C 0.27443(9) 0.35520(10) 0.28239(16)
H6 H 0.2562 0.2858 0.2869
C9 C 0.25628(9) 0.39838(10) 0.4632(2)
C10 C 0.37731(9) 0.36099(10) 0.23944(17)
C11 C 0.42559(10) 0.28066(10) 0.18759(17)
H7 H 0.3944 0.2205 0.1819
C12 C 0.52105(9) 0.28545(10) 0.14223(17)
C13 C 0.57239(10) 0.20315(10) 0.09092(17)
H8 H 0.5423 0.1424 0.0849
C14 C 0.66460(10) 0.20989(11) 0.04991(17)
H9 H 0.6982 0.1538 0.0165
C15 C 0.71023(10) 0.29929(11) 0.05671(17)
H10 H 0.7743 0.3035 0.0269
C16 C 0.66256(10) 0.38010(11) 0.10608(17)
H11 H 0.6941 0.4402 0.1100
C17 C 0.56728(9) 0.37612(10) 0.15139(17)
C18 C 0.51587(10) 0.45813(10) 0.20590(17)
H12 H 0.5458 0.5190 0.2125
C19 C 0.42397(10) 0.45089(10) 0.24909(18)
H13 H 0.3909 0.5066 0.2860
loop_
_geom_bond_atom_site_label_1
_geom_bond_atom_site_label_2
_geom_bond_site_symmetry_1
_geom_bond_site_symmetry_2
F1 C2 1_555 1_555
F2 C6 1_555 1_555
O1 H1 1_555 1_555
N1 C9 1_555 1_555
C1 C2 1_555 1_555
C2 C3 1_555 1_555
C3 H2 1_555 1_555
C4 C3 1_555 1_555
H3 C4 1_555 1_555
C5 C4 1_555 1_555
H4 C5 1_555 1_555
C6 C1 1_555 1_555
C7 O1 1_555 1_555
H5 C7 1_555 1_555
C8 C7 1_555 1_555
H6 C8 1_555 1_555
C9 C8 1_555 1_555
C10 C8 1_555 1_555
C11 C10 1_555 1_555
H7 C11 1_555 1_555
C12 C11 1_555 1_555
C13 C12 1_555 1_555
H8 C13 1_555 1_555
C14 C13 1_555 1_555
H9 C14 1_555 1_555
C15 C14 1_555 1_555
H10 C15 1_555 1_555
C16 C15 1_555 1_555
H11 C16 1_555 1_555
C17 C12 1_555 1_555
C18 C17 1_555 1_555
H12 C18 1_555 1_555
C19 C10 1_555 1_555
H13 C19 1_555 1_555
C1 C7 1_555 1_555
C5 C6 1_555 1_555
C16 C17 1_555 1_555
C18 C19 1_555 1_555

#END
