
#######################################################################
#
#                 Cambridge Crystallographic Data Centre
#                                CCDC 
#
#######################################################################
#
# If this CIF has been generated from an entry in the Cambridge 
# Structural Database, then it will include bibliographic, chemical, 
# crystal, experimental, refinement or atomic coordinate data resulting 
# from the CCDC's data processing and validation procedures.
#
#######################################################################

data_CEZPAZ
_chemical_formula_moiety         'C21 H25 N1 O1'
_chemical_name_systematic        
(2RS,3RS)-anti-3-Hydroxy-2,3-bis(mesityl)propanenitrile
_symmetry_cell_setting           monoclinic
_symmetry_space_group_name_H-M   'P 21/n'
_symmetry_Int_Tables_number      14
_space_group_name_Hall           '-P 2yn'
loop_
_symmetry_equiv_pos_site_id
_symmetry_equiv_pos_as_xyz
1 x,y,z
2 1/2-x,1/2+y,1/2-z
3 -x,-y,-z
4 1/2+x,1/2-y,1/2+z
_cell_length_a                   8.4972(7)
_cell_length_b                   13.9255(14)
_cell_length_c                   14.9265(15)
_cell_angle_alpha                90
_cell_angle_beta                 98.785(4)
_cell_angle_gamma                90
_cell_volume                     1745.5
_exptl_crystal_colour            colorless
_exptl_crystal_description       bar
_chemical_melting_point          '167.3-168.7 deg.C'
_cell_formula_units_Z            4
loop_
_atom_site_label
_atom_site_type_symbol
_atom_site_fract_x
_atom_site_fract_y
_atom_site_fract_z
O1 O 0.38544(13) 0.63217(8) 0.10747(7)
H1 H 0.4255 0.6290 0.0587
C1 C 0.50547(19) 0.60811(12) 0.18104(10)
H2 H 0.6116 0.6233 0.1634
C2 C 0.49973(19) 0.49815(12) 0.20194(10)
H3 H 0.4018 0.4872 0.2301
N1 N 0.46664(17) 0.39704(11) 0.05266(9)
C3 C 0.48058(19) 0.44103(12) 0.11715(11)
C4 C 0.48680(19) 0.66636(12) 0.26513(10)
C5 C 0.6210(2) 0.70825(13) 0.31637(11)
C6 C 0.6041(2) 0.75792(12) 0.39520(11)
H4 H 0.6964 0.7835 0.4312
C7 C 0.4577(2) 0.77138(13) 0.42303(11)
C8 C 0.3262(2) 0.73158(12) 0.37051(11)
H5 H 0.2244 0.7410 0.3880
C9 C 0.33699(19) 0.67807(13) 0.29287(10)
C10 C 0.78523(19) 0.70413(13) 0.28983(11)
H6 H 0.8585 0.7433 0.3319
H7 H 0.7813 0.7290 0.2281
H8 H 0.8225 0.6374 0.2922
C11 C 0.4439(2) 0.82850(15) 0.50717(11)
H9 H 0.3336 0.8403 0.5104
H10 H 0.4908 0.7929 0.5596
H11 H 0.4988 0.8886 0.5055
C12 C 0.18402(19) 0.63576(14) 0.24401(11)
H15 H 0.1649 0.5749 0.2706
H16 H 0.0971 0.6784 0.2493
H17 H 0.1931 0.6268 0.1812
C13 C 0.6399(2) 0.46160(12) 0.26951(10)
C14 C 0.79480(19) 0.45636(13) 0.24782(10)
C15 C 0.9178(2) 0.42306(12) 0.31249(11)
H21 H 1.0218 0.4184 0.2969
C16 C 0.8940(2) 0.39625(13) 0.39914(11)
C17 C 0.7398(2) 0.40230(13) 0.41925(11)
H22 H 0.7213 0.3850 0.4783
C18 C 0.6121(2) 0.43254(13) 0.35661(11)
C19 C 0.8386(2) 0.48822(13) 0.15759(10)
H23 H 0.9428 0.4617 0.1505
H24 H 0.8431 0.5585 0.1557
H25 H 0.7581 0.4650 0.1082
C20 C 1.0306(2) 0.36323(15) 0.46833(12)
H26 H 1.1209 0.3460 0.4379
H27 H 0.9978 0.3071 0.5005
H28 H 1.0621 0.4151 0.5117
C21 C 0.4480(2) 0.43328(14) 0.38345(11)
H29 H 0.4544 0.4112 0.4462
H30 H 0.3779 0.3904 0.3433
H31 H 0.4050 0.4987 0.3782
H12? H 0.3821 0.7920 0.5439
H13? H 0.3863 0.8865 0.4897
H14? H 0.5473 0.8427 0.5401
H18? H 0.2066 0.5766 0.2155
H19? H 0.1370 0.6792 0.1976
H20? H 0.1113 0.6243 0.2862
loop_
_geom_bond_atom_site_label_1
_geom_bond_atom_site_label_2
_geom_bond_site_symmetry_1
_geom_bond_site_symmetry_2
O1 H1 1_555 1_555
C1 O1 1_555 1_555
H2 C1 1_555 1_555
C2 C1 1_555 1_555
H3 C2 1_555 1_555
N1 C3 1_555 1_555
C3 C2 1_555 1_555
C4 C1 1_555 1_555
C5 C4 1_555 1_555
C6 C5 1_555 1_555
H4 C6 1_555 1_555
C7 C6 1_555 1_555
C8 C7 1_555 1_555
H5 C8 1_555 1_555
C9 C4 1_555 1_555
C10 C5 1_555 1_555
H6 C10 1_555 1_555
H7 C10 1_555 1_555
H8 C10 1_555 1_555
C11 C7 1_555 1_555
H9 C11 1_555 1_555
H10 C11 1_555 1_555
H11 C11 1_555 1_555
C12 C9 1_555 1_555
H15 C12 1_555 1_555
H16 C12 1_555 1_555
H17 C12 1_555 1_555
C13 C2 1_555 1_555
C14 C13 1_555 1_555
C15 C14 1_555 1_555
H21 C15 1_555 1_555
C16 C15 1_555 1_555
C17 C16 1_555 1_555
H22 C17 1_555 1_555
C18 C13 1_555 1_555
C19 C14 1_555 1_555
H23 C19 1_555 1_555
H24 C19 1_555 1_555
H25 C19 1_555 1_555
C20 C16 1_555 1_555
H26 C20 1_555 1_555
H27 C20 1_555 1_555
H28 C20 1_555 1_555
C21 C18 1_555 1_555
H29 C21 1_555 1_555
H30 C21 1_555 1_555
H31 C21 1_555 1_555
C8 C9 1_555 1_555
C17 C18 1_555 1_555

#END
