
#######################################################################
#
#                 Cambridge Crystallographic Data Centre
#                                CCDC 
#
#######################################################################
#
# If this CIF has been generated from an entry in the Cambridge 
# Structural Database, then it will include bibliographic, chemical, 
# crystal, experimental, refinement or atomic coordinate data resulting 
# from the CCDC's data processing and validation procedures.
#
#######################################################################

data_CEZQII
_chemical_formula_moiety         'C19 H21 N1 O2'
_chemical_name_systematic        
(2RS,3RS)-anti-3-(Acetoxy)-4,4-dimethyl-2-(1-naphthyl)pentanenitrile
_symmetry_cell_setting           monoclinic
_symmetry_space_group_name_H-M   'P 21/n'
_symmetry_Int_Tables_number      14
_space_group_name_Hall           '-P 2yn'
loop_
_symmetry_equiv_pos_site_id
_symmetry_equiv_pos_as_xyz
1 x,y,z
2 1/2-x,1/2+y,1/2-z
3 -x,-y,-z
4 1/2+x,1/2-y,1/2+z
_cell_length_a                   11.637(2)
_cell_length_b                   8.2270(10)
_cell_length_c                   17.298(4)
_cell_angle_alpha                90
_cell_angle_beta                 96.720(10)
_cell_angle_gamma                90
_cell_volume                     1644.69
_exptl_crystal_colour            colorless
_exptl_crystal_description       prism
_cell_formula_units_Z            4
loop_
_atom_site_label
_atom_site_type_symbol
_atom_site_fract_x
_atom_site_fract_y
_atom_site_fract_z
O1 O 0.51883(10) 0.29644(15) 0.14663(7)
C1 C 0.46062(15) 0.4516(2) 0.14307(10)
H1 H 0.4542 0.4902 0.0885
C2 C 0.33690(15) 0.4209(2) 0.16399(9)
H2 H 0.2992 0.5280 0.1677
C3 C 0.33610(15) 0.3396(2) 0.23915(11)
N1 N 0.33049(15) 0.2738(2) 0.29651(9)
O2 O 0.51852(14) 0.28789(18) 0.01686(8)
C4 C 0.54384(16) 0.2289(2) 0.07954(11)
C5 C 0.6069(2) 0.0726(3) 0.09446(15)
H3 H 0.6683 0.0653 0.0612
H4 H 0.5536 -0.0173 0.0834
H5 H 0.6400 0.0680 0.1485
C6 C 0.53544(16) 0.5741(2) 0.19365(10)
C7 C 0.56603(19) 0.5183(3) 0.27785(11)
H6 H 0.6226 0.5919 0.3044
H7 H 0.5980 0.4093 0.2784
H8 H 0.4968 0.5181 0.3041
C8 C 0.64745(18) 0.5969(3) 0.15671(12)
H9 H 0.6953 0.6778 0.1858
H10 H 0.6292 0.6327 0.1033
H11 H 0.6889 0.4945 0.1577
C9 C 0.47209(19) 0.7358(3) 0.19260(13)
H12 H 0.5242 0.8189 0.2160
H13 H 0.4063 0.7261 0.2219
H14 H 0.4454 0.7656 0.1393
C10 C 0.26336(14) 0.3227(2) 0.10154(10)
C11 C 0.25115(17) 0.1582(2) 0.10972(11)
H15 H 0.2900 0.1059 0.1535
C12 C 0.18180(18) 0.0663(3) 0.05405(12)
H16 H 0.1747 -0.0465 0.0607
C13 C 0.12525(17) 0.1400(3) -0.00914(11)
H17 H 0.0790 0.0775 -0.0461
C14 C 0.13436(15) 0.3091(2) -0.02057(10)
C15 C 0.07121(16) 0.3868(3) -0.08431(11)
H18 H 0.0236 0.3248 -0.1208
C16 C 0.07806(17) 0.5501(3) -0.09387(11)
H19 H 0.0347 0.6006 -0.1365
C17 C 0.14940(17) 0.6428(3) -0.04057(11)
H20 H 0.1543 0.7557 -0.0479
C18 C 0.21222(15) 0.5723(2) 0.02207(10)
H21 H 0.2603 0.6370 0.0571
C19 C 0.20582(14) 0.4031(2) 0.03487(10)
loop_
_geom_bond_atom_site_label_1
_geom_bond_atom_site_label_2
_geom_bond_site_symmetry_1
_geom_bond_site_symmetry_2
O1 C1 1_555 1_555
C1 H1 1_555 1_555
C2 C1 1_555 1_555
H2 C2 1_555 1_555
C3 C2 1_555 1_555
N1 C3 1_555 1_555
O2 C4 1_555 1_555
C4 O1 1_555 1_555
C5 C4 1_555 1_555
H3 C5 1_555 1_555
H4 C5 1_555 1_555
H5 C5 1_555 1_555
C6 C1 1_555 1_555
C7 C6 1_555 1_555
H6 C7 1_555 1_555
H7 C7 1_555 1_555
H8 C7 1_555 1_555
C8 C6 1_555 1_555
H9 C8 1_555 1_555
H10 C8 1_555 1_555
H11 C8 1_555 1_555
C9 C6 1_555 1_555
H12 C9 1_555 1_555
H13 C9 1_555 1_555
H14 C9 1_555 1_555
C10 C2 1_555 1_555
C11 C10 1_555 1_555
H15 C11 1_555 1_555
C12 C11 1_555 1_555
H16 C12 1_555 1_555
C13 C12 1_555 1_555
H17 C13 1_555 1_555
C14 C13 1_555 1_555
C15 C14 1_555 1_555
H18 C15 1_555 1_555
C16 C15 1_555 1_555
H19 C16 1_555 1_555
C17 C16 1_555 1_555
H20 C17 1_555 1_555
C18 C17 1_555 1_555
H21 C18 1_555 1_555
C19 C10 1_555 1_555
C14 C19 1_555 1_555
C18 C19 1_555 1_555

#END
