
#######################################################################
#
#                 Cambridge Crystallographic Data Centre
#                                CCDC 
#
#######################################################################
#
# If this CIF has been generated from an entry in the Cambridge 
# Structural Database, then it will include bibliographic, chemical, 
# crystal, experimental, refinement or atomic coordinate data resulting 
# from the CCDC's data processing and validation procedures.
#
#######################################################################

data_CEZQUW
_chemical_formula_moiety         'C13 H11 N1 O5'
_chemical_name_systematic        
'dimethyl 4-oxo-1,4-dihydroquinoline-2,3-dicarboxylate'
_symmetry_cell_setting           orthorhombic
_symmetry_space_group_name_H-M   'P b c a'
_symmetry_Int_Tables_number      61
_space_group_name_Hall           '-P 2ac 2ab'
loop_
_symmetry_equiv_pos_site_id
_symmetry_equiv_pos_as_xyz
1 x,y,z
2 1/2-x,-y,1/2+z
3 -x,1/2+y,1/2-z
4 1/2+x,1/2-y,-z
5 -x,-y,-z
6 1/2+x,y,1/2-z
7 x,1/2-y,1/2+z
8 1/2-x,1/2+y,z
_cell_length_a                   12.9576(17)
_cell_length_b                   10.1079(13)
_cell_length_c                   18.321(2)
_cell_angle_alpha                90
_cell_angle_beta                 90
_cell_angle_gamma                90
_cell_volume                     2399.58
_exptl_crystal_colour            colorless
_exptl_crystal_description       Block
_cell_formula_units_Z            8
loop_
_atom_site_label
_atom_site_type_symbol
_atom_site_fract_x
_atom_site_fract_y
_atom_site_fract_z
C1 C 0.27191(9) 0.52916(13) 0.28244(6)
C2 C 0.31145(12) 0.44933(17) 0.33844(9)
H1 H 0.3814 0.4515 0.3497
C3 C 0.24612(14) 0.36807(18) 0.37645(9)
H2 H 0.2722 0.3149 0.4136
C4 C 0.14103(13) 0.36402(18) 0.36017(9)
H3 H 0.0976 0.3082 0.3864
C5 C 0.10146(10) 0.44187(15) 0.30576(8)
H4 H 0.0313 0.4387 0.2953
C6 C 0.16605(9) 0.52664(12) 0.26551(6)
C7 C 0.12588(8) 0.60602(12) 0.20586(6)
C8 C 0.20184(8) 0.68230(12) 0.16597(6)
C9 C 0.30367(9) 0.68071(12) 0.18621(6)
C10 C 0.16342(9) 0.75175(13) 0.09947(7)
C11 C 0.1137(2) 0.9539(2) 0.04916(13)
H5 H 0.1748 0.9879 0.0261
H6 H 0.0703 1.0261 0.0637
H7 H 0.0772 0.8983 0.0154
C12 C 0.38902(9) 0.75116(13) 0.14633(7)
C13 C 0.42970(13) 0.88179(18) 0.04391(10)
H8 H 0.4557 0.9582 0.0690
H9 H 0.3976 0.9088 -0.0009
H10 H 0.4856 0.8225 0.0334
N1 N 0.33756(7) 0.60839(11) 0.24289(6)
H11 H 0.4017 0.6118 0.2547
O1 O 0.03304(7) 0.60719(11) 0.18790(5)
O2 O 0.15025(10) 0.69774(12) 0.04227(6)
O3 O 0.14221(9) 0.87803(11) 0.11235(6)
O4 O 0.35487(8) 0.81560(13) 0.08925(7)
O5 O 0.47708(8) 0.74442(16) 0.16444(8)
loop_
_geom_bond_atom_site_label_1
_geom_bond_atom_site_label_2
_geom_bond_site_symmetry_1
_geom_bond_site_symmetry_2
C1 C2 1_555 1_555
C2 H1 1_555 1_555
C3 C2 1_555 1_555
H2 C3 1_555 1_555
C4 C3 1_555 1_555
H3 C4 1_555 1_555
C5 C4 1_555 1_555
H4 C5 1_555 1_555
C6 C1 1_555 1_555
C7 C6 1_555 1_555
C8 C7 1_555 1_555
C9 C8 1_555 1_555
C10 C8 1_555 1_555
C11 H5 1_555 1_555
H6 C11 1_555 1_555
H7 C11 1_555 1_555
C12 C9 1_555 1_555
C13 H8 1_555 1_555
H9 C13 1_555 1_555
H10 C13 1_555 1_555
N1 C1 1_555 1_555
H11 N1 1_555 1_555
O1 C7 1_555 1_555
O2 C10 1_555 1_555
O3 C10 1_555 1_555
O4 C12 1_555 1_555
O5 C12 1_555 1_555
C5 C6 1_555 1_555
C9 N1 1_555 1_555
C11 O3 1_555 1_555
C13 O4 1_555 1_555

#END
