
#######################################################################
#
#                 Cambridge Crystallographic Data Centre
#                                CCDC 
#
#######################################################################
#
# If this CIF has been generated from an entry in the Cambridge 
# Structural Database, then it will include bibliographic, chemical, 
# crystal, experimental, refinement or atomic coordinate data resulting 
# from the CCDC's data processing and validation procedures.
#
#######################################################################

data_CEZQEE
_chemical_formula_moiety         'C14 H19 N1 O2'
_chemical_name_systematic        
(2RS,3RS)-anti-3-Hydroxy-2-(2-methoxyphenyl)-4,4-dimethylpentanenitrile
_symmetry_cell_setting           monoclinic
_symmetry_space_group_name_H-M   'P 21/c'
_symmetry_Int_Tables_number      14
_space_group_name_Hall           '-P 2ybc'
loop_
_symmetry_equiv_pos_site_id
_symmetry_equiv_pos_as_xyz
1 x,y,z
2 -x,1/2+y,1/2-z
3 -x,-y,-z
4 x,1/2-y,1/2+z
_cell_length_a                   9.2580(10)
_cell_length_b                   28.609(2)
_cell_length_c                   10.6890(10)
_cell_angle_alpha                90
_cell_angle_beta                 106.060(10)
_cell_angle_gamma                90
_cell_volume                     2720.62
_exptl_crystal_colour            colorless
_exptl_crystal_description       rhombus
_cell_formula_units_Z            8
loop_
_atom_site_label
_atom_site_type_symbol
_atom_site_fract_x
_atom_site_fract_y
_atom_site_fract_z
O1 O -0.13090(18) 0.09294(6) 0.30502(14)
H1 H -0.1059 0.1051 0.3992
O3 O -0.63339(17) 0.05392(6) 0.27403(16)
N2 N -0.1259(3) -0.02356(8) 0.3648(2)
C1 C -0.2835(2) 0.08398(8) 0.24301(19)
H3 H -0.3418 0.1106 0.2606
C2 C -0.3363(2) 0.03956(7) 0.30260(19)
H4 H -0.4203 0.0259 0.2358
C3 C -0.2162(2) 0.00450(8) 0.3369(2)
C4 C -0.3049(3) 0.08216(9) 0.0955(2)
C5 C -0.4714(3) 0.07755(14) 0.0254(3)
H5 H -0.5261 0.1021 0.0531
H6 H -0.5074 0.0478 0.0457
H7 H -0.4857 0.0798 -0.0669
C6 C -0.2194(3) 0.04151(12) 0.0580(2)
H8 H -0.1151 0.0437 0.1050
H9 H -0.2297 0.0426 -0.0338
H10 H -0.2596 0.0126 0.0793
C7 C -0.2475(5) 0.12810(13) 0.0547(3)
H11 H -0.1406 0.1301 0.0918
H12 H -0.2952 0.1538 0.0852
H13 H -0.2705 0.1293 -0.0385
C8 C -0.3928(2) 0.05137(6) 0.41893(19)
C9 C -0.5464(2) 0.05959(7) 0.3988(2)
C10 C -0.6011(3) 0.07275(8) 0.5008(3)
H14 H -0.7032 0.0784 0.4869
C11 C -0.5054(3) 0.07741(9) 0.6219(3)
H15 H -0.5432 0.0862 0.6904
C12 C -0.3534(3) 0.06933(9) 0.6455(2)
H16 H -0.2890 0.0728 0.7288
C13 C -0.2978(3) 0.05594(8) 0.5426(2)
H17 H -0.1957 0.0500 0.5574
C14 C -0.7928(3) 0.05417(11) 0.2497(3)
H18 H -0.8221 0.0301 0.3003
H19 H -0.8391 0.0485 0.1589
H20 H -0.8246 0.0840 0.2735
O2 O 0.01698(16) 0.11783(5) 0.57117(12)
H2 H 0.0491 0.0825 0.5888
O4 O 0.40491(16) 0.20668(6) 0.62190(16)
N1 N -0.1770(3) 0.21608(10) 0.4552(2)
C15 C 0.1217(2) 0.15071(6) 0.64604(17)
H21 H 0.2226 0.1383 0.6546
C16 C 0.1047(2) 0.19567(7) 0.56240(18)
H22 H 0.1497 0.2215 0.6203
C17 C -0.0542(3) 0.20698(8) 0.5038(2)
C18 C 0.1060(2) 0.15729(7) 0.78499(19)
C19 C 0.1127(3) 0.10929(8) 0.8492(2)
H23 H 0.1150 0.1131 0.9390
H24 H 0.2016 0.0932 0.8437
H25 H 0.0256 0.0915 0.8053
C20 C 0.2394(3) 0.18619(9) 0.8632(2)
H26 H 0.2354 0.2168 0.8257
H27 H 0.3314 0.1711 0.8614
H28 H 0.2351 0.1888 0.9517
C21 C -0.0417(3) 0.18076(10) 0.7856(2)
H29 H -0.0441 0.2119 0.7514
H30 H -0.0497 0.1821 0.8731
H31 H -0.1242 0.1631 0.7326
C22 C 0.1863(2) 0.19216(6) 0.45757(19)
C23 C 0.3421(2) 0.19771(7) 0.4933(2)
C24 C 0.4212(3) 0.19432(8) 0.3998(3)
H32 H 0.5252 0.1977 0.4235
C25 C 0.3435(4) 0.18597(9) 0.2721(3)
H33 H 0.3959 0.1837 0.2096
C26 C 0.1913(4) 0.18101(9) 0.2356(2)
H34 H 0.1402 0.1757 0.1488
C27 C 0.1132(3) 0.18387(8) 0.3283(2)
H35 H 0.0094 0.1801 0.3032
C28 C 0.5635(3) 0.21348(13) 0.6660(3)
H36 H 0.6136 0.1869 0.6426
H37 H 0.5935 0.2171 0.7589
H38 H 0.5902 0.2410 0.6263
loop_
_geom_bond_atom_site_label_1
_geom_bond_atom_site_label_2
_geom_bond_site_symmetry_1
_geom_bond_site_symmetry_2
O1 H1 1_555 1_555
O2 H2 1_555 1_555
O3 C9 1_555 1_555
O4 C23 1_555 1_555
N1 C17 1_555 1_555
N2 C3 1_555 1_555
C1 O1 1_555 1_555
H3 C1 1_555 1_555
C2 C1 1_555 1_555
H4 C2 1_555 1_555
C3 C2 1_555 1_555
C4 C1 1_555 1_555
C5 C4 1_555 1_555
H5 C5 1_555 1_555
H6 C5 1_555 1_555
H7 C5 1_555 1_555
C6 C4 1_555 1_555
H8 C6 1_555 1_555
H9 C6 1_555 1_555
H10 C6 1_555 1_555
C7 C4 1_555 1_555
H11 C7 1_555 1_555
H12 C7 1_555 1_555
H13 C7 1_555 1_555
C8 C2 1_555 1_555
C9 C8 1_555 1_555
C10 C9 1_555 1_555
H14 C10 1_555 1_555
C11 C10 1_555 1_555
H15 C11 1_555 1_555
C12 C11 1_555 1_555
H16 C12 1_555 1_555
C13 C8 1_555 1_555
H17 C13 1_555 1_555
C14 O3 1_555 1_555
H18 C14 1_555 1_555
H19 C14 1_555 1_555
H20 C14 1_555 1_555
C15 O2 1_555 1_555
H21 C15 1_555 1_555
C16 C15 1_555 1_555
H22 C16 1_555 1_555
C17 C16 1_555 1_555
C18 C15 1_555 1_555
C19 C18 1_555 1_555
H23 C19 1_555 1_555
H24 C19 1_555 1_555
H25 C19 1_555 1_555
C20 C18 1_555 1_555
H26 C20 1_555 1_555
H27 C20 1_555 1_555
H28 C20 1_555 1_555
C21 C18 1_555 1_555
H29 C21 1_555 1_555
H30 C21 1_555 1_555
H31 C21 1_555 1_555
C22 C16 1_555 1_555
C23 C22 1_555 1_555
C24 C23 1_555 1_555
H32 C24 1_555 1_555
C25 C24 1_555 1_555
H33 C25 1_555 1_555
C26 C25 1_555 1_555
H34 C26 1_555 1_555
C27 C22 1_555 1_555
H35 C27 1_555 1_555
C28 O4 1_555 1_555
H36 C28 1_555 1_555
H37 C28 1_555 1_555
H38 C28 1_555 1_555
C12 C13 1_555 1_555
C26 C27 1_555 1_555

#END
