
#######################################################################
#
#                 Cambridge Crystallographic Data Centre
#                                CCDC 
#
#######################################################################
#
# If this CIF has been generated from an entry in the Cambridge 
# Structural Database, then it will include bibliographic, chemical, 
# crystal, experimental, refinement or atomic coordinate data resulting 
# from the CCDC's data processing and validation procedures.
#
#######################################################################

data_CEZXUD
_chemical_formula_moiety         'C27 H33 N3 O6'
_chemical_name_systematic        
3,3',3''-[1,3,5-triazine-2,4,6-triyltris(oxy)]tris(5,5-dimethylcyclohex-2-en-1-one)
_symmetry_cell_setting           monoclinic
_symmetry_space_group_name_H-M   'P 21/c'
_symmetry_Int_Tables_number      14
_space_group_name_Hall           '-P 2ybc'
loop_
_symmetry_equiv_pos_site_id
_symmetry_equiv_pos_as_xyz
1 x,y,z
2 -x,1/2+y,1/2-z
3 -x,-y,-z
4 x,1/2-y,1/2+z
_cell_length_a                   18.084(2)
_cell_length_b                   7.3858(10)
_cell_length_c                   20.614(3)
_cell_angle_alpha                90
_cell_angle_beta                 104.725(5)
_cell_angle_gamma                90
_cell_volume                     2662.88
_exptl_crystal_colour            colorless
_exptl_crystal_description       block
_cell_formula_units_Z            4
loop_
_atom_site_label
_atom_site_type_symbol
_atom_site_fract_x
_atom_site_fract_y
_atom_site_fract_z
C1 C 0.24163(12) 0.5010(3) 0.78577(11)
C2 C 0.13024(12) 0.6221(3) 0.74190(12)
C3 C 0.16639(12) 0.3837(3) 0.69484(12)
C4 C 0.36056(12) 0.3650(3) 0.83435(12)
C5 C 0.41371(13) 0.3863(3) 0.80154(13)
H1 H 0.414886 0.490563 0.776511
C6 C 0.47069(14) 0.2444(3) 0.80498(14)
C7 C 0.47343(13) 0.0961(4) 0.85502(14)
H2 H 0.504492 0.135622 0.898256
H3 H 0.498106 -0.008829 0.841457
C8 C 0.39470(13) 0.0401(3) 0.86274(13)
C9 C 0.34874(15) -0.0466(4) 0.79846(14)
H4 H 0.300597 -0.087701 0.804551
H5 H 0.376563 -0.147656 0.787322
H6 H 0.339957 0.040625 0.762789
C10 C 0.40348(17) -0.0952(4) 0.91991(15)
H7 H 0.353844 -0.130632 0.924139
H8 H 0.431630 -0.040324 0.960993
H9 H 0.430498 -0.199987 0.910640
C11 C 0.35337(14) 0.2092(3) 0.87747(13)
H10 H 0.299616 0.181148 0.871222
H11 H 0.373899 0.242978 0.924046
C12 C 0.08311(12) 0.8590(3) 0.79663(12)
C13 C 0.09560(14) 1.0324(3) 0.79119(13)
H12 H 0.102783 1.077750 0.751140
C14 C 0.09837(14) 1.1550(3) 0.84702(13)
C15 C 0.07422(14) 1.0778(3) 0.90568(13)
H13 H 0.019044 1.086247 0.897016
H14 H 0.096344 1.150036 0.945123
C16 C 0.09812(14) 0.8803(3) 0.92030(13)
C17 C 0.0646(2) 0.8065(4) 0.97584(16)
H15 H 0.010036 0.819671 0.962993
H16 H 0.085256 0.872627 1.016510
H17 H 0.077532 0.680699 0.982980
C18 C 0.18568(15) 0.8686(4) 0.94248(15)
H18 H 0.200952 0.743947 0.948294
H19 H 0.203935 0.931994 0.984139
H20 H 0.206908 0.922596 0.908869
C19 C 0.06780(14) 0.7700(3) 0.85618(13)
H21 H 0.091580 0.651387 0.861718
H22 H 0.013106 0.753238 0.848962
C20 C 0.20769(13) 0.1412(3) 0.63687(11)
C21 C 0.27721(14) 0.2252(3) 0.62347(13)
H23 H 0.314724 0.246081 0.665677
H24 H 0.263836 0.341455 0.601772
C22 C 0.31233(14) 0.1041(3) 0.57862(12)
C23 C 0.26205(16) 0.1060(4) 0.50692(13)
H25 H 0.283448 0.026626 0.479581
H26 H 0.259545 0.226814 0.489336
H27 H 0.211536 0.065647 0.506731
C24 C 0.39175(16) 0.1760(4) 0.57940(16)
H28 H 0.414793 0.098988 0.552510
H29 H 0.422971 0.177397 0.624662
H30 H 0.387400 0.296629 0.561525
C25 C 0.31926(15) -0.0878(3) 0.60713(14)
H31 H 0.334273 -0.167835 0.575397
H32 H 0.360003 -0.089323 0.648135
C26 C 0.24829(15) -0.1627(4) 0.62219(12)
C27 C 0.19336(14) -0.0336(3) 0.63526(13)
H33 H 0.147559 -0.074862 0.642567
N1 N 0.19417(10) 0.6328(2) 0.78932(9)
N2 N 0.11151(10) 0.5028(3) 0.69217(10)
N3 N 0.23251(10) 0.3701(2) 0.74050(9)
O1 O 0.30770(9) 0.5048(2) 0.83405(8)
O2 O 0.07577(9) 0.7480(2) 0.73984(8)
O3 O 0.14991(9) 0.2578(2) 0.64567(9)
O4 O 0.51468(12) 0.2482(3) 0.76883(12)
O5 O 0.11854(13) 1.3113(2) 0.84562(11)
O6 O 0.23846(13) -0.3247(3) 0.62492(11)
loop_
_geom_bond_atom_site_label_1
_geom_bond_atom_site_label_2
_geom_bond_site_symmetry_1
_geom_bond_site_symmetry_2
C1 N1 1_555 1_555
C2 N1 1_555 1_555
C3 N2 1_555 1_555
C4 C5 1_555 1_555
C5 H1 1_555 1_555
C6 C5 1_555 1_555
C7 C6 1_555 1_555
H2 C7 1_555 1_555
H3 C7 1_555 1_555
C8 C7 1_555 1_555
C9 C8 1_555 1_555
H4 C9 1_555 1_555
H5 C9 1_555 1_555
H6 C9 1_555 1_555
C10 C8 1_555 1_555
H7 C10 1_555 1_555
H8 C10 1_555 1_555
H9 C10 1_555 1_555
C11 C4 1_555 1_555
H10 C11 1_555 1_555
H11 C11 1_555 1_555
C12 C13 1_555 1_555
C13 H12 1_555 1_555
C14 C13 1_555 1_555
C15 C14 1_555 1_555
H13 C15 1_555 1_555
H14 C15 1_555 1_555
C16 C15 1_555 1_555
C17 C16 1_555 1_555
H15 C17 1_555 1_555
H16 C17 1_555 1_555
H17 C17 1_555 1_555
C18 C16 1_555 1_555
H18 C18 1_555 1_555
H19 C18 1_555 1_555
H20 C18 1_555 1_555
C19 C12 1_555 1_555
H21 C19 1_555 1_555
H22 C19 1_555 1_555
C20 C21 1_555 1_555
C21 H23 1_555 1_555
H24 C21 1_555 1_555
C22 C21 1_555 1_555
C23 C22 1_555 1_555
H25 C23 1_555 1_555
H26 C23 1_555 1_555
H27 C23 1_555 1_555
C24 C22 1_555 1_555
H28 C24 1_555 1_555
H29 C24 1_555 1_555
H30 C24 1_555 1_555
C25 C22 1_555 1_555
H31 C25 1_555 1_555
H32 C25 1_555 1_555
C26 C25 1_555 1_555
C27 C20 1_555 1_555
H33 C27 1_555 1_555
N2 C2 1_555 1_555
N3 C1 1_555 1_555
O1 C1 1_555 1_555
O2 C2 1_555 1_555
O3 C3 1_555 1_555
O4 C6 1_555 1_555
O5 C14 1_555 1_555
O6 C26 1_555 1_555
C3 N3 1_555 1_555
C4 O1 1_555 1_555
C8 C11 1_555 1_555
C12 O2 1_555 1_555
C16 C19 1_555 1_555
C20 O3 1_555 1_555
C26 C27 1_555 1_555

#END
