
#######################################################################
#
#                 Cambridge Crystallographic Data Centre
#                                CCDC 
#
#######################################################################
#
# If this CIF has been generated from an entry in the Cambridge 
# Structural Database, then it will include bibliographic, chemical, 
# crystal, experimental, refinement or atomic coordinate data resulting 
# from the CCDC's data processing and validation procedures.
#
#######################################################################

data_CFDAMZ01
_chemical_formula_moiety         'C10 H14 N6'
_chemical_name_systematic        
2,3-bis(Dimethylcarbonohydrazonoyl)but-2-enedinitrile
_symmetry_cell_setting           monoclinic
_symmetry_space_group_name_H-M   'P 21/c'
_symmetry_Int_Tables_number      14
_space_group_name_Hall           '-P 2ybc'
loop_
_symmetry_equiv_pos_site_id
_symmetry_equiv_pos_as_xyz
1 x,y,z
2 -x,1/2+y,1/2-z
3 -x,-y,-z
4 x,1/2-y,1/2+z
_cell_length_a                   14.514(5)
_cell_length_b                   11.219(4)
_cell_length_c                   7.357(2)
_cell_angle_alpha                90
_cell_angle_beta                 101.164(5)
_cell_angle_gamma                90
_cell_volume                     1175.29
_exptl_crystal_colour            colorless
_exptl_crystal_description       Prism
_cell_formula_units_Z            4
loop_
_atom_site_label
_atom_site_type_symbol
_atom_site_fract_x
_atom_site_fract_y
_atom_site_fract_z
N1 N 0.78607(8) 0.53906(11) 0.90825(17)
N2 N 0.73842(8) 1.06273(12) 0.88456(17)
N3 N 0.95633(7) 0.74429(10) 1.10803(14)
N4 N 1.03599(7) 0.78683(10) 1.20526(15)
N5 N 0.56711(8) 0.85030(11) 0.69943(15)
N6 N 0.48755(8) 0.80130(12) 0.60564(16)
C1 C 0.79462(9) 0.64061(13) 0.92648(17)
C2 C 0.80120(9) 0.76813(12) 0.94490(17)
C3 C 0.72383(9) 0.83327(12) 0.86286(17)
C4 C 0.73039(9) 0.96107(13) 0.87503(18)
C5 C 0.88661(9) 0.81657(12) 1.04911(17)
H1 H 0.8923 0.8995 1.0747
C6 C 1.10829(9) 0.70048(13) 1.27542(19)
H2 H 1.1080 0.6843 1.4062
H3 H 1.1697 0.7323 1.2633
H4 H 1.0961 0.6264 1.2042
C7 C 1.04573(10) 0.90912(12) 1.26872(19)
H5 H 1.0367 0.9628 1.1616
H6 H 1.1086 0.9211 1.3437
H7 H 0.9985 0.9263 1.3438
C8 C 0.63757(9) 0.78115(13) 0.76619(17)
H8 H 0.6321 0.6972 0.7512
C9 C 0.40556(10) 0.87849(15) 0.5820(2)
H9 H 0.3757 0.8712 0.6900
H10 H 0.3609 0.8550 0.4702
H11 H 0.4249 0.9613 0.5698
C10 C 0.47311(10) 0.67377(14) 0.6034(2)
H12 H 0.5195 0.6350 0.5425
H13 H 0.4097 0.6554 0.5354
H14 H 0.4803 0.6444 0.7309
loop_
_geom_bond_atom_site_label_1
_geom_bond_atom_site_label_2
_geom_bond_site_symmetry_1
_geom_bond_site_symmetry_2
N1 C1 1_555 1_555
N2 C4 1_555 1_555
N3 N4 1_555 1_555
N4 C6 1_555 1_555
N5 N6 1_555 1_555
N6 C9 1_555 1_555
C1 C2 1_555 1_555
C2 C3 1_555 1_555
C3 C4 1_555 1_555
C5 N3 1_555 1_555
H1 C5 1_555 1_555
C6 H2 1_555 1_555
H3 C6 1_555 1_555
H4 C6 1_555 1_555
C7 N4 1_555 1_555
H5 C7 1_555 1_555
H6 C7 1_555 1_555
H7 C7 1_555 1_555
C8 N5 1_555 1_555
H8 C8 1_555 1_555
C9 H9 1_555 1_555
H10 C9 1_555 1_555
H11 C9 1_555 1_555
C10 N6 1_555 1_555
H12 C10 1_555 1_555
H13 C10 1_555 1_555
H14 C10 1_555 1_555
C2 C5 1_555 1_555
C3 C8 1_555 1_555

#END
