
#######################################################################
#
#                 Cambridge Crystallographic Data Centre
#                                CCDC 
#
#######################################################################
#
# If this CIF has been generated from an entry in the Cambridge 
# Structural Database, then it will include bibliographic, chemical, 
# crystal, experimental, refinement or atomic coordinate data resulting 
# from the CCDC's data processing and validation procedures.
#
#######################################################################

data_CHXBQU
_chemical_formula_moiety         'C18 H20 O2'
_chemical_name_systematic        
1,4,4a,5,8,8a,9a,10a-Octahydro-1,4;5,8-diethanoanthracene-9,10-dione
_symmetry_cell_setting           monoclinic
_symmetry_space_group_name_H-M   'P 21/c'
_symmetry_Int_Tables_number      14
_space_group_name_Hall           '-P 2ybc'
loop_
_symmetry_equiv_pos_site_id
_symmetry_equiv_pos_as_xyz
1 x,y,z
2 -x,1/2+y,1/2-z
3 -x,-y,-z
4 x,1/2-y,1/2+z
_cell_length_a                   12.029(5)
_cell_length_b                   6.6447(2)
_cell_length_c                   17.49(1)
_cell_angle_alpha                90
_cell_angle_beta                 90.23(7)
_cell_angle_gamma                90
_cell_volume                     1397.95
_exptl_crystal_colour            colorless
_chemical_melting_point          196-8deg.C
_cell_formula_units_Z            4
loop_
_atom_site_label
_atom_site_type_symbol
_atom_site_fract_x
_atom_site_fract_y
_atom_site_fract_z
C1 C 0.20298 0.69005 0.40081
C2 C 0.22529 0.49923 0.44421
C3 C 0.16541 0.34370 0.42126
C4 C 0.08794 0.38694 0.35632
C5 C 0.15674 0.46483 0.28842
C6 C 0.27113 0.39305 0.11498
C7 C 0.20163 0.58159 0.11369
C8 C 0.25488 0.74411 0.13636
C9 C 0.37369 0.71329 0.15809
C10 C 0.38340 0.55100 0.22264
C11 C 0.34910 0.63074 0.29943
C12 C 0.22660 0.65022 0.31543
C13 C 0.22705 0.30122 0.25226
C14 C 0.31793 0.36066 0.19803
C15 C 0.43315 0.62111 0.08758
C16 C 0.37236 0.42692 0.06327
C17 C 0.00920 0.56050 0.38000
C18 C 0.07852 0.74206 0.40726
O1 O 0.41874 0.68174 0.34566
O2 O 0.20805 0.12584 0.26528
H1 H 0.25580 0.79930 0.41870
H2 H 0.28400 0.49290 0.48590
H3 H 0.16820 0.20450 0.44470
H4 H 0.04270 0.27070 0.33790
H5 H 0.10240 0.51440 0.24530
H6 H 0.22700 0.26350 0.09920
H7 H 0.12430 0.57820 0.09730
H8 H 0.21730 0.87470 0.14050
H9 H 0.41870 0.83620 0.17560
H10 H 0.46530 0.51670 0.22660
H11 H 0.20210 0.76330 0.28630
H12 H 0.37070 0.25190 0.19570
H13 H 0.51210 0.59990 0.10200
H14 H 0.43720 0.72030 0.04290
H15 H 0.42840 0.31270 0.06940
H16 H 0.34590 0.44890 0.00940
H17 H -0.04150 0.59830 0.33630
H18 H -0.03620 0.50980 0.42050
H19 H 0.06360 0.86420 0.37450
loop_
_geom_bond_atom_site_label_1
_geom_bond_atom_site_label_2
_geom_bond_site_symmetry_1
_geom_bond_site_symmetry_2
C1 C2 1_555 1_555
C2 C3 1_555 1_555
C3 C4 1_555 1_555
C4 C5 1_555 1_555
C5 C12 1_555 1_555
C6 C7 1_555 1_555
C7 C8 1_555 1_555
C8 C9 1_555 1_555
C9 C10 1_555 1_555
C10 C11 1_555 1_555
C11 C12 1_555 1_555
C12 C1 1_555 1_555
C13 C5 1_555 1_555
C14 C6 1_555 1_555
C15 C9 1_555 1_555
C16 C6 1_555 1_555
C17 C4 1_555 1_555
C18 C1 1_555 1_555
O1 C11 1_555 1_555
O2 C13 1_555 1_555
H1 C1 1_555 1_555
H2 C2 1_555 1_555
H3 C3 1_555 1_555
H4 C4 1_555 1_555
H5 C5 1_555 1_555
H6 C6 1_555 1_555
H7 C7 1_555 1_555
H8 C8 1_555 1_555
H9 C9 1_555 1_555
H10 C10 1_555 1_555
H11 C12 1_555 1_555
H12 C14 1_555 1_555
H13 C15 1_555 1_555
H14 C15 1_555 1_555
H15 C16 1_555 1_555
H16 C16 1_555 1_555
H17 C17 1_555 1_555
H18 C17 1_555 1_555
H19 C18 1_555 1_555
C10 C14 1_555 1_555
C13 C14 1_555 1_555
C15 C16 1_555 1_555
C17 C18 1_555 1_555

#END
