
#######################################################################
#
#                 Cambridge Crystallographic Data Centre
#                                CCDC 
#
#######################################################################
#
# If this CIF has been generated from an entry in the Cambridge 
# Structural Database, then it will include bibliographic, chemical, 
# crystal, experimental, refinement or atomic coordinate data resulting 
# from the CCDC's data processing and validation procedures.
#
#######################################################################

data_CIBJAB
_chemical_formula_moiety         'C15 H17 N5 O1'
_chemical_name_systematic        
2-[1-(3-ethylpyrazin-2-yl)ethylidene]-N-phenylhydrazine-1-carboxamide
_symmetry_cell_setting           triclinic
_symmetry_space_group_name_H-M   'P -1'
_symmetry_Int_Tables_number      2
_space_group_name_Hall           '-P 1'
loop_
_symmetry_equiv_pos_site_id
_symmetry_equiv_pos_as_xyz
1 x,y,z
2 -x,-y,-z
_cell_length_a                   7.3928(15)
_cell_length_b                   14.285(3)
_cell_length_c                   15.295(3)
_cell_angle_alpha                68.372(3)
_cell_angle_beta                 80.883(3)
_cell_angle_gamma                79.671(4)
_cell_volume                     1469.64
_exptl_crystal_colour            colorless
_exptl_crystal_description       plate
_cell_formula_units_Z            4
loop_
_atom_site_label
_atom_site_type_symbol
_atom_site_fract_x
_atom_site_fract_y
_atom_site_fract_z
N1 N 0.1296(3) 0.37231(16) 0.73851(14)
H1 H 0.0807 0.3479 0.7958
C1 C 0.3894(4) 0.1693(2) 0.59262(19)
O1 O 0.0258(3) 0.53342(14) 0.72930(13)
C2 C 0.2463(4) 0.2135(2) 0.73977(18)
N2 N 0.1795(3) 0.50183(17) 0.59857(15)
H2 H 0.2341 0.4529 0.5801
C3 C 0.2217(4) 0.6065(2) 0.43628(19)
H3 H 0.2505 0.5474 0.4218
N3 N 0.4316(4) 0.05666(18) 0.75045(16)
N4 N 0.2309(3) 0.30893(17) 0.69492(15)
C4 C 0.5501(4) 0.0114(2) 0.6170(2)
H4 H 0.6142 -0.0379 0.5933
C5 C 0.1369(4) 0.6876(2) 0.5500(2)
H5 H 0.1089 0.6845 0.6124
C6 C 0.1810(4) 0.7866(2) 0.3855(2)
H6 H 0.1812 0.8496 0.3372
C7 C 0.1379(4) 0.7805(2) 0.4778(2)
H7 H 0.1090 0.8398 0.4919
N5 N 0.4817(3) 0.09970(18) 0.55733(17)
C8 C 0.3247(4) 0.2705(2) 0.52099(18)
H8 H 0.3966 0.3206 0.5221
H9 H 0.1967 0.2909 0.5399
C9 C 0.1773(4) 0.5997(2) 0.52964(18)
C10 C 0.2237(4) 0.6992(2) 0.3647(2)
H10 H 0.2540 0.7027 0.3023
C11 C 0.1069(4) 0.4741(2) 0.69063(18)
C12 C 0.3592(4) 0.1462(2) 0.69134(19)
C13 C 0.3396(4) 0.2721(2) 0.42080(19)
H11 H 0.2959 0.3391 0.3800
H12 H 0.2661 0.2244 0.4183
H13 H 0.4663 0.2540 0.4004
C14 C 0.1553(4) 0.1641(2) 0.83783(19)
H14 H 0.2098 0.1805 0.8824
H15 H 0.1726 0.0917 0.8535
H16 H 0.0256 0.1885 0.8401
C15 C 0.5292(5) -0.0095(2) 0.7122(2)
H17 H 0.5843 -0.0713 0.7516
O2 O -0.0017(3) 0.32790(14) 0.93454(12)
C16 C -0.0967(4) 0.3832(2) 0.97420(18)
C17 C -0.4177(3) 0.6984(2) 0.97941(18)
C18 C -0.1281(4) 0.2557(2) 1.13698(19)
C19 C -0.4388(4) 0.5547(2) 1.14218(17)
H18 H -0.3066 0.5361 1.1453
H19 H -0.4800 0.5116 1.1150
C20 C -0.5478(5) 0.8593(2) 0.9698(2)
H20 H -0.5765 0.9277 0.9344
C21 C -0.1817(4) 0.1539(3) 1.3004(2)
H21 H -0.2354 0.1482 1.3611
C22 C -0.3127(3) 0.6356(2) 0.92447(17)
C23 C -0.0042(5) 0.0801(2) 1.1942(2)
H22 H 0.0643 0.0237 1.1827
C24 C -0.0804(5) 0.0711(3) 1.2839(2)
H23 H -0.0634 0.0092 1.3333
C25 C -0.2045(4) 0.2451(2) 1.22793(19)
H24 H -0.2727 0.3011 1.2402
C26 C -0.2868(4) 0.6825(2) 0.81903(17)
H25 H -0.3881 0.7347 0.7975
H26 H -0.2825 0.6313 0.7918
H27 H -0.1731 0.7115 0.8001
C27 C -0.4748(4) 0.6631(2) 1.07762(18)
C28 C -0.0273(4) 0.1720(2) 1.1200(2)
H28 H 0.0248 0.1772 1.0592
C29 C -0.5990(5) 0.8254(3) 1.0643(2)
H29 H -0.6601 0.8720 1.0920
C30 C -0.5331(4) 0.5335(2) 1.24223(19)
H30 H -0.5036 0.4630 1.2790
H31 H -0.6645 0.5498 1.2403
H32 H -0.4908 0.5744 1.2705
N6 N -0.2507(3) 0.54343(17) 0.97167(14)
N7 N -0.1497(3) 0.48284(17) 0.92459(15)
H33 H -0.1202 0.5075 0.8646
N8 N -0.1566(3) 0.35224(17) 1.06737(14)
H34 H -0.2216 0.3985 1.0867
N9 N -0.4567(3) 0.79578(18) 0.92690(16)
N10 N -0.5654(3) 0.7285(2) 1.11870(17)
loop_
_geom_bond_atom_site_label_1
_geom_bond_atom_site_label_2
_geom_bond_site_symmetry_1
_geom_bond_site_symmetry_2
N1 H1 1_555 1_555
C1 N5 1_555 1_555
O1 C11 1_555 1_555
C2 N4 1_555 1_555
N2 H2 1_555 1_555
C3 H3 1_555 1_555
N3 C12 1_555 1_555
N4 N1 1_555 1_555
C4 H4 1_555 1_555
C5 H5 1_555 1_555
C6 H6 1_555 1_555
C7 C5 1_555 1_555
H7 C7 1_555 1_555
N5 C4 1_555 1_555
C8 C1 1_555 1_555
H8 C8 1_555 1_555
H9 C8 1_555 1_555
C9 N2 1_555 1_555
C10 C3 1_555 1_555
H10 C10 1_555 1_555
C11 N1 1_555 1_555
C12 C1 1_555 1_555
C13 C8 1_555 1_555
H11 C13 1_555 1_555
H12 C13 1_555 1_555
H13 C13 1_555 1_555
C14 C2 1_555 1_555
H14 C14 1_555 1_555
H15 C14 1_555 1_555
H16 C14 1_555 1_555
C15 N3 1_555 1_555
H17 C15 1_555 1_555
O2 C16 1_555 1_555
C16 N7 1_555 1_555
C17 C22 1_555 1_555
C18 C25 1_555 1_555
C19 H18 1_555 1_555
H19 C19 1_555 1_555
C20 H20 1_555 1_555
C21 H21 1_555 1_555
C22 C26 1_555 1_555
C23 H22 1_555 1_555
C24 C21 1_555 1_555
H23 C24 1_555 1_555
C25 C21 1_555 1_555
H24 C25 1_555 1_555
C26 H25 1_555 1_555
H26 C26 1_555 1_555
H27 C26 1_555 1_555
C27 C17 1_555 1_555
C28 C18 1_555 1_555
H28 C28 1_555 1_555
C29 C20 1_555 1_555
H29 C29 1_555 1_555
C30 C19 1_555 1_555
H30 C30 1_555 1_555
H31 C30 1_555 1_555
H32 C30 1_555 1_555
N6 C22 1_555 1_555
N7 N6 1_555 1_555
H33 N7 1_555 1_555
N8 C16 1_555 1_555
H34 N8 1_555 1_555
N9 C17 1_555 1_555
N10 C27 1_555 1_555
C2 C12 1_555 1_555
N2 C11 1_555 1_555
C3 C9 1_555 1_555
C4 C15 1_555 1_555
C5 C9 1_555 1_555
C6 C7 1_555 1_555
C6 C10 1_555 1_555
C18 N8 1_555 1_555
C19 C27 1_555 1_555
C20 N9 1_555 1_555
C23 C24 1_555 1_555
C23 C28 1_555 1_555
C29 N10 1_555 1_555

#END
