
#######################################################################
#
#                 Cambridge Crystallographic Data Centre
#                                CCDC 
#
#######################################################################
#
# If this CIF has been generated from an entry in the Cambridge 
# Structural Database, then it will include bibliographic, chemical, 
# crystal, experimental, refinement or atomic coordinate data resulting 
# from the CCDC's data processing and validation procedures.
#
#######################################################################

data_CIBJIG
_chemical_formula_moiety         'C9 H9 N3 O1'
_chemical_name_systematic        5-Amino-2,4-dihydro-2-phenyl-3H-pyrazol-3-one
_symmetry_cell_setting           monoclinic
_symmetry_space_group_name_H-M   'P 21/a'
_symmetry_Int_Tables_number      14
_space_group_name_Hall           '-P 2yab'
loop_
_symmetry_equiv_pos_site_id
_symmetry_equiv_pos_as_xyz
1 x,y,z
2 1/2-x,1/2+y,-z
3 -x,-y,-z
4 1/2+x,1/2-y,z
_cell_length_a                   10.187(5)
_cell_length_b                   11.481(4)
_cell_length_c                   7.392(4)
_cell_angle_alpha                90
_cell_angle_beta                 102.43(5)
_cell_angle_gamma                90
_cell_volume                     844.281
_cell_formula_units_Z            4
loop_
_atom_site_label
_atom_site_type_symbol
_atom_site_fract_x
_atom_site_fract_y
_atom_site_fract_z
N1 N 1.03430 0.30950 0.71000
N2 N 0.96820 0.41990 0.70660
C1 C 0.83280 0.41320 0.63710
C2 C 0.80630 0.28780 0.57930
C3 C 0.94300 0.23580 0.63880
O1 O 0.75080 0.49180 0.62440
N3 N 0.96680 0.12130 0.62320
C4 C 1.04790 0.51680 0.77790
C5 C 1.18570 0.50050 0.84040
C6 C 1.26570 0.59430 0.91500
C7 C 1.21080 0.70320 0.92380
C8 C 1.07520 0.71870 0.85930
C9 C 0.99160 0.62650 0.78530
H1 H 0.77700 0.28200 0.42800
H2 H 0.73300 0.24700 0.65700
H3 H 0.91000 0.08100 0.56100
H4 H 1.05600 0.09600 0.63800
H5 H 1.23200 0.41900 0.81600
H6 H 1.37500 0.58100 0.95700
H7 H 1.27500 0.77100 0.97600
H8 H 1.03100 0.79800 0.87100
H9 H 0.88300 0.64000 0.75200
loop_
_geom_bond_atom_site_label_1
_geom_bond_atom_site_label_2
_geom_bond_site_symmetry_1
_geom_bond_site_symmetry_2
N1 N2 1_555 1_555
N2 C1 1_555 1_555
C1 C2 1_555 1_555
C2 C3 1_555 1_555
C3 N1 1_555 1_555
O1 C1 1_555 1_555
N3 C3 1_555 1_555
C4 N2 1_555 1_555
C5 C4 1_555 1_555
C6 C5 1_555 1_555
C7 C6 1_555 1_555
C8 C7 1_555 1_555
C9 C4 1_555 1_555
H1 C2 1_555 1_555
H2 C2 1_555 1_555
H3 N3 1_555 1_555
H4 N3 1_555 1_555
H5 C5 1_555 1_555
H6 C6 1_555 1_555
H7 C7 1_555 1_555
H8 C8 1_555 1_555
H9 C9 1_555 1_555
C8 C9 1_555 1_555

#END
