
#######################################################################
#
#                 Cambridge Crystallographic Data Centre
#                                CCDC 
#
#######################################################################
#
# If this CIF has been generated from an entry in the Cambridge 
# Structural Database, then it will include bibliographic, chemical, 
# crystal, experimental, refinement or atomic coordinate data resulting 
# from the CCDC's data processing and validation procedures.
#
#######################################################################

data_CIBQOV
_chemical_formula_moiety         'C62 H50 N2 O2 P2,3(C1 H2 Cl2)'
_chemical_name_systematic        
"3,3'-bis(((1-(2-(diphenylphosphino)phenyl)ethyl)imino)methyl)-1,1'-binaphthalene-2,2'-diol dichloromethane solvate"
_symmetry_cell_setting           trigonal
_symmetry_space_group_name_H-M   'P 31 2 1'
_symmetry_Int_Tables_number      152
_space_group_name_Hall           'P 31 2"'
loop_
_symmetry_equiv_pos_site_id
_symmetry_equiv_pos_as_xyz
1 x,y,z
2 -y,x-y,1/3+z
3 -x+y,-x,2/3+z
4 y,x,-z
5 x-y,-y,2/3-z
6 -x,-x+y,1/3-z
_cell_length_a                   12.3200(18)
_cell_length_b                   12.3200(18)
_cell_length_c                   34.510(5)
_cell_angle_alpha                90
_cell_angle_beta                 90
_cell_angle_gamma                120
_cell_volume                     4536.25
_exptl_crystal_colour            colorless
_exptl_crystal_description       block
_cell_formula_units_Z            3
loop_
_atom_site_label
_atom_site_type_symbol
_atom_site_fract_x
_atom_site_fract_y
_atom_site_fract_z
P1 P 0.22707(12) 0.55056(12) 0.13283(3)
O1 O 0.1550(3) 0.1051(3) 0.04338(8)
H1 H 0.1891 0.1380 0.0639
N1 N 0.1912(4) 0.2380(4) 0.10653(10)
C1 C 0.0337(4) 0.0754(4) 0.04455(11)
C2 C -0.0461(4) 0.0029(4) 0.01592(11)
C3 C -0.1751(4) -0.0310(4) 0.01698(12)
C4 C -0.2608(5) -0.1060(5) -0.01182(14)
H2 H -0.2331 -0.1325 -0.0329
C5 C -0.3844(6) -0.1400(6) -0.00887(18)
H3 H -0.4405 -0.1928 -0.0275
C6 C -0.4280(5) -0.0977(6) 0.02125(17)
H4 H -0.5121 -0.1204 0.0223
C7 C -0.3480(5) -0.0236(5) 0.04900(16)
H5 H -0.3779 0.0041 0.0692
C8 C -0.2195(4) 0.0125(4) 0.04777(12)
C9 C -0.1324(5) 0.0904(4) 0.07609(12)
H6 H -0.1600 0.1215 0.0960
C10 C -0.0099(4) 0.1216(4) 0.07534(11)
C11 C 0.0757(5) 0.2041(4) 0.10553(12)
H7 H 0.0436 0.2328 0.1248
C12 C 0.2703(5) 0.3228(4) 0.13786(11)
H8 H 0.2192 0.3464 0.1536
C13 C 0.3155(6) 0.2530(6) 0.16325(15)
H9 H 0.2452 0.1856 0.1762
H10 H 0.3735 0.3095 0.1821
H11 H 0.3562 0.2198 0.1475
C14 C 0.3761(4) 0.4404(4) 0.11942(11)
C15 C 0.4797(5) 0.4401(5) 0.10423(15)
H12 H 0.4841 0.3670 0.1055
C16 C 0.5769(6) 0.5453(7) 0.08728(17)
H13 H 0.6448 0.5419 0.0768
C17 C 0.5736(5) 0.6559(6) 0.08581(16)
H14 H 0.6404 0.7281 0.0754
C18 C 0.4694(5) 0.6575(5) 0.10002(14)
H15 H 0.4658 0.7310 0.0983
C19 C 0.3689(4) 0.5509(4) 0.11701(12)
C20 C 0.2542(5) 0.7045(5) 0.11892(14)
C21 C 0.2095(6) 0.7155(7) 0.08298(19)
H16 H 0.1690 0.6463 0.0667
C22 C 0.2263(8) 0.8323(10) 0.0715(3)
H17 H 0.1995 0.8412 0.0471
C23 C 0.2817(8) 0.9329(8) 0.0959(3)
H18 H 0.2886 1.0088 0.0887
C24 C 0.3256(7) 0.9225(7) 0.1298(3)
H19 H 0.3660 0.9922 0.1458
C25 C 0.3124(5) 0.8102(5) 0.14163(19)
H20 H 0.3437 0.8054 0.1657
C26 C 0.2484(4) 0.5654(4) 0.18562(12)
C27 C 0.1440(6) 0.5338(6) 0.20831(16)
H21 H 0.0670 0.5065 0.1963
C28 C 0.1507(7) 0.5415(7) 0.24769(17)
H22 H 0.0801 0.5251 0.2620
C29 C 0.2608(7) 0.5734(6) 0.26619(15)
H23 H 0.2653 0.5746 0.2931
C30 C 0.3655(6) 0.6037(5) 0.24374(16)
H24 H 0.4418 0.6279 0.2558
C31 C 0.3582(5) 0.5986(5) 0.20458(14)
H25 H 0.4295 0.6181 0.1902
P1C P 0.55056(12) 0.22707(12) -0.13283(3)
O1C O 0.1051(3) 0.1550(3) -0.04338(8)
H1C H 0.1380 0.1891 -0.0639
N1C N 0.2380(4) 0.1912(4) -0.10653(10)
C1C C 0.0754(4) 0.0337(4) -0.04455(11)
C2C C 0.0029(4) -0.0461(4) -0.01592(11)
C3C C -0.0310(4) -0.1751(4) -0.01698(12)
C4C C -0.1060(5) -0.2608(5) 0.01182(14)
H2C H -0.1325 -0.2331 0.0329
C5C C -0.1400(6) -0.3844(6) 0.00887(18)
H3C H -0.1928 -0.4405 0.0275
C6C C -0.0977(6) -0.4280(5) -0.02125(17)
H4C H -0.1204 -0.5121 -0.0223
C7C C -0.0236(5) -0.3480(5) -0.04900(16)
H5C H 0.0041 -0.3779 -0.0692
C8C C 0.0125(4) -0.2195(4) -0.04777(12)
C9C C 0.0904(4) -0.1324(5) -0.07609(12)
H6C H 0.1215 -0.1600 -0.0960
C10C C 0.1216(4) -0.0099(4) -0.07534(11)
C11C C 0.2041(4) 0.0757(5) -0.10553(12)
H7C H 0.2328 0.0436 -0.1248
C12C C 0.3228(4) 0.2703(5) -0.13786(11)
H8C H 0.3464 0.2192 -0.1536
C13C C 0.2530(6) 0.3155(6) -0.16325(15)
H9C H 0.1856 0.2452 -0.1762
H10C H 0.3095 0.3735 -0.1821
H11C H 0.2198 0.3562 -0.1475
C14C C 0.4404(4) 0.3761(4) -0.11942(11)
C15C C 0.4401(5) 0.4797(5) -0.10423(15)
H12C H 0.3670 0.4841 -0.1055
C16C C 0.5453(7) 0.5769(6) -0.08728(17)
H13C H 0.5419 0.6448 -0.0768
C17C C 0.6559(6) 0.5736(5) -0.08581(16)
H14C H 0.7281 0.6404 -0.0754
C18C C 0.6575(5) 0.4694(5) -0.10002(14)
H15C H 0.7310 0.4658 -0.0983
C19C C 0.5509(4) 0.3689(4) -0.11701(12)
C20C C 0.7045(5) 0.2542(5) -0.11892(14)
C21C C 0.7155(7) 0.2095(6) -0.08298(19)
H16C H 0.6463 0.1690 -0.0667
C22C C 0.8323(10) 0.2263(8) -0.0715(3)
H17C H 0.8412 0.1995 -0.0471
C23C C 0.9329(8) 0.2817(8) -0.0959(3)
H18C H 1.0088 0.2886 -0.0887
C24C C 0.9225(7) 0.3256(7) -0.1298(3)
H19C H 0.9922 0.3660 -0.1458
C25C C 0.8102(5) 0.3124(5) -0.14163(19)
H20C H 0.8054 0.3437 -0.1657
C26C C 0.5654(4) 0.2484(4) -0.18562(12)
C27C C 0.5338(6) 0.1440(6) -0.20831(16)
H21C H 0.5065 0.0670 -0.1963
C28C C 0.5415(7) 0.1507(7) -0.24769(17)
H22C H 0.5251 0.0801 -0.2620
C29C C 0.5734(6) 0.2608(7) -0.26619(15)
H23C H 0.5746 0.2653 -0.2931
C30C C 0.6037(5) 0.3655(6) -0.24374(16)
H24C H 0.6279 0.4418 -0.2558
C31C C 0.5986(5) 0.3582(5) -0.20458(14)
H25C H 0.6181 0.4295 -0.1902
Cl1 Cl 0.0836(3) 0.4271(3) 0.00580(7)
Cl2 Cl 0.3402(3) 0.5136(4) -0.00057(12)
C32 C 0.2059(9) 0.4019(7) 0.0172(2)
H26 H 0.2126 0.3990 0.0451
H27 H 0.1885 0.3216 0.0068
C33 C 1.0000 0.7903(11) 0.1667
H28 H 0.9340 0.7112 0.1768
Cl3 Cl 0.9424(5) 0.8421(7) 0.13073(14)
H28E H 1.0660 0.7772 0.1565
Cl3E Cl 1.0576(5) 0.8997(9) 0.20260(14)
H29? H 0.9340 0.7112 0.1768
loop_
_geom_bond_atom_site_label_1
_geom_bond_atom_site_label_2
_geom_bond_site_symmetry_1
_geom_bond_site_symmetry_2
P1 C19 1_555 1_555
O1 H1 1_555 1_555
N1 C11 1_555 1_555
C1 O1 1_555 1_555
C2 C1 1_555 1_555
C3 C2 1_555 1_555
C4 C3 1_555 1_555
H2 C4 1_555 1_555
C5 C4 1_555 1_555
H3 C5 1_555 1_555
C6 C5 1_555 1_555
H4 C6 1_555 1_555
C7 C6 1_555 1_555
H5 C7 1_555 1_555
C8 C3 1_555 1_555
C9 C8 1_555 1_555
H6 C9 1_555 1_555
C10 C1 1_555 1_555
C11 C10 1_555 1_555
H7 C11 1_555 1_555
C12 N1 1_555 1_555
H8 C12 1_555 1_555
C13 C12 1_555 1_555
H9 C13 1_555 1_555
H10 C13 1_555 1_555
H11 C13 1_555 1_555
C14 C12 1_555 1_555
C15 C14 1_555 1_555
H12 C15 1_555 1_555
C16 C15 1_555 1_555
H13 C16 1_555 1_555
C17 C16 1_555 1_555
H14 C17 1_555 1_555
C18 C17 1_555 1_555
H15 C18 1_555 1_555
C19 C14 1_555 1_555
C20 P1 1_555 1_555
C21 C20 1_555 1_555
H16 C21 1_555 1_555
C22 C21 1_555 1_555
H17 C22 1_555 1_555
C23 C22 1_555 1_555
H18 C23 1_555 1_555
C24 C23 1_555 1_555
H19 C24 1_555 1_555
C25 C20 1_555 1_555
H20 C25 1_555 1_555
C26 P1 1_555 1_555
C27 C26 1_555 1_555
H21 C27 1_555 1_555
C28 C27 1_555 1_555
H22 C28 1_555 1_555
C29 C28 1_555 1_555
H23 C29 1_555 1_555
C30 C29 1_555 1_555
H24 C30 1_555 1_555
C31 C26 1_555 1_555
H25 C31 1_555 1_555
Cl1 C32 1_555 1_555
Cl2 C32 1_555 1_555
C32 H26 1_555 1_555
H27 C32 1_555 1_555
C33 H28 1_555 1_555
Cl3 C33 1_555 1_555
P1C C19C 1_555 1_555
O1C H1C 1_555 1_555
N1C C11C 1_555 1_555
C1C O1C 1_555 1_555
C2C C2 1_555 1_555
C3C C2C 1_555 1_555
C4C C3C 1_555 1_555
H2C C4C 1_555 1_555
C5C C4C 1_555 1_555
H3C C5C 1_555 1_555
C6C C5C 1_555 1_555
H4C C6C 1_555 1_555
C7C C6C 1_555 1_555
H5C C7C 1_555 1_555
C8C C3C 1_555 1_555
C9C C8C 1_555 1_555
H6C C9C 1_555 1_555
C10C C1C 1_555 1_555
C11C C10C 1_555 1_555
H7C C11C 1_555 1_555
C12C N1C 1_555 1_555
H8C C12C 1_555 1_555
C13C C12C 1_555 1_555
H9C C13C 1_555 1_555
H10C C13C 1_555 1_555
H11C C13C 1_555 1_555
C14C C12C 1_555 1_555
C15C C14C 1_555 1_555
H12C C15C 1_555 1_555
C16C C15C 1_555 1_555
H13C C16C 1_555 1_555
C17C C16C 1_555 1_555
H14C C17C 1_555 1_555
C18C C17C 1_555 1_555
H15C C18C 1_555 1_555
C19C C14C 1_555 1_555
C20C P1C 1_555 1_555
C21C C20C 1_555 1_555
H16C C21C 1_555 1_555
C22C C21C 1_555 1_555
H17C C22C 1_555 1_555
C23C C22C 1_555 1_555
H18C C23C 1_555 1_555
C24C C23C 1_555 1_555
H19C C24C 1_555 1_555
C25C C20C 1_555 1_555
H20C C25C 1_555 1_555
C26C P1C 1_555 1_555
C27C C26C 1_555 1_555
H21C C27C 1_555 1_555
C28C C27C 1_555 1_555
H22C C28C 1_555 1_555
C29C C28C 1_555 1_555
H23C C29C 1_555 1_555
C30C C29C 1_555 1_555
H24C C30C 1_555 1_555
C31C C26C 1_555 1_555
H25C C31C 1_555 1_555
H28E C33 1_555 1_555
Cl3E C33 1_555 1_555
C7 C8 1_555 1_555
C9 C10 1_555 1_555
C18 C19 1_555 1_555
C24 C25 1_555 1_555
C30 C31 1_555 1_555
C1C C2C 1_555 1_555
C7C C8C 1_555 1_555
C9C C10C 1_555 1_555
C18C C19C 1_555 1_555
C24C C25C 1_555 1_555
C30C C31C 1_555 1_555

#END
