
#######################################################################
#
#                 Cambridge Crystallographic Data Centre
#                                CCDC 
#
#######################################################################
#
# If this CIF has been generated from an entry in the Cambridge 
# Structural Database, then it will include bibliographic, chemical, 
# crystal, experimental, refinement or atomic coordinate data resulting 
# from the CCDC's data processing and validation procedures.
#
#######################################################################

data_CIBTOX
_chemical_formula_moiety         'C26 H26 O4 S1'
_chemical_name_systematic        
'p-Tolyl 2-O-benzyl-3,5-O-benzylidene-1-thio-\a-D-arabinofuranoside'
_symmetry_cell_setting           monoclinic
_symmetry_space_group_name_H-M   'P 21'
_symmetry_Int_Tables_number      4
_space_group_name_Hall           'P 2yb'
loop_
_symmetry_equiv_pos_site_id
_symmetry_equiv_pos_as_xyz
1 x,y,z
2 -x,1/2+y,-z
_cell_length_a                   4.7318(5)
_cell_length_b                   11.6928(13)
_cell_length_c                   20.242(2)
_cell_angle_alpha                90
_cell_angle_beta                 90.192(2)
_cell_angle_gamma                90
_cell_volume                     1119.94
_exptl_crystal_colour            colorless
_exptl_crystal_description       needle
_chemical_melting_point          '120 deg.C'
_cell_formula_units_Z            2
_exptl_crystal_recrystallization_method 't-butyl methyl ether'
loop_
_atom_site_label
_atom_site_type_symbol
_atom_site_fract_x
_atom_site_fract_y
_atom_site_fract_z
S1 S 0.18483(13) 0.35571(6) 0.61221(3)
O1 O -0.0609(3) 0.26026(13) 0.72004(7)
O2 O 0.3228(3) 0.41160(12) 0.84394(7)
O3 O 0.3327(3) 0.21777(13) 0.87420(8)
O4 O -0.0586(3) 0.55423(13) 0.73390(8)
C1 C 0.5169(4) 0.3573(2) 0.94788(10)
C2 C 0.1049(5) 0.4532(2) 0.73341(11)
H1 H 0.2985 0.4703 0.7194
C3 C -0.0331(5) 0.36714(19) 0.68528(10)
H2 H -0.2212 0.3949 0.6727
C4 C -0.0541(5) 0.2912(2) 0.55544(12)
C5 C 0.1086(4) 0.38517(17) 0.79678(10)
H3 H -0.0767 0.3911 0.8180
C6 C 0.1466(5) 0.26562(18) 0.77084(11)
H4 H 0.3351 0.2581 0.7514
C7 C -0.1529(5) 0.3522(2) 0.50317(11)
H5 H -0.0953 0.4276 0.4976
C8 C 0.2969(5) 0.33153(19) 0.89655(11)
H6 H 0.1091 0.3392 0.9164
C9 C 0.6159(5) 0.2738(2) 0.98958(13)
H7 H 0.5543 0.1988 0.9842
C10 C 0.6103(5) 0.4688(2) 0.95769(12)
H8 H 0.5429 0.5273 0.9308
C11 C -0.1406(6) 0.1789(2) 0.56276(13)
H9 H -0.0761 0.1356 0.5983
C12 C -0.4266(5) 0.1918(2) 0.46432(12)
C13 C 0.1186(6) 0.1837(2) 0.82770(12)
H10 H -0.0677 0.1891 0.8473
H11 H 0.1493 0.1056 0.8132
C14 C -0.3374(6) 0.3039(2) 0.45808(13)
H12 H -0.4030 0.3477 0.4229
C15 C 0.8052(6) 0.2993(3) 1.03934(14)
H13 H 0.8702 0.2415 1.0671
C16 C 0.8985(6) 0.4095(3) 1.04827(13)
H14 H 1.0256 0.4268 1.0820
C17 C 0.0544(7) 0.6365(2) 0.77808(14)
H15 H 0.2576 0.6414 0.7725
H16 H 0.0164 0.6138 0.8233
C18 C -0.0787(6) 0.7517(2) 0.76436(15)
C19 C -0.3233(6) 0.1315(2) 0.51703(14)
H17 H -0.3783 0.0557 0.5223
C20 C 0.8024(6) 0.4930(2) 1.00713(14)
H18 H 0.8671 0.5675 1.0124
C21 C -0.3002(9) 0.9647(3) 0.7408(2)
H19 H -0.3755 1.0368 0.7327
C22 C -0.0016(8) 0.8130(3) 0.71115(17)
H20 H 0.1283 0.7817 0.6819
C23 C -0.2712(7) 0.7980(3) 0.80635(15)
H21 H -0.3277 0.7569 0.8434
C24 C -0.3831(7) 0.9041(3) 0.79496(19)
H22 H -0.5148 0.9348 0.8240
C25 C -0.1074(9) 0.9193(3) 0.6986(2)
H23 H -0.0484 0.9602 0.6618
C26 C -0.6233(6) 0.1397(3) 0.41475(13)
H24 H -0.8138 0.1621 0.4245
H25 H -0.6082 0.0579 0.4166
H26 H -0.5741 0.1657 0.3713
loop_
_geom_bond_atom_site_label_1
_geom_bond_atom_site_label_2
_geom_bond_site_symmetry_1
_geom_bond_site_symmetry_2
S1 C3 1_555 1_555
O1 C3 1_555 1_555
O2 C5 1_555 1_555
O3 C8 1_555 1_555
O4 C2 1_555 1_555
C1 C8 1_555 1_555
C2 H1 1_555 1_555
C3 C2 1_555 1_555
H2 C3 1_555 1_555
C4 S1 1_555 1_555
C5 C2 1_555 1_555
H3 C5 1_555 1_555
C6 O1 1_555 1_555
H4 C6 1_555 1_555
C7 C4 1_555 1_555
H5 C7 1_555 1_555
C8 O2 1_555 1_555
H6 C8 1_555 1_555
C9 C1 1_555 1_555
H7 C9 1_555 1_555
C10 C1 1_555 1_555
H8 C10 1_555 1_555
C11 C4 1_555 1_555
H9 C11 1_555 1_555
C12 C14 1_555 1_555
C13 O3 1_555 1_555
H10 C13 1_555 1_555
H11 C13 1_555 1_555
C14 C7 1_555 1_555
H12 C14 1_555 1_555
C15 C9 1_555 1_555
H13 C15 1_555 1_555
C16 C15 1_555 1_555
H14 C16 1_555 1_555
C17 O4 1_555 1_555
H15 C17 1_555 1_555
H16 C17 1_555 1_555
C18 C17 1_555 1_555
C19 C11 1_555 1_555
H17 C19 1_555 1_555
C20 C10 1_555 1_555
H18 C20 1_555 1_555
C21 H19 1_555 1_555
C22 C18 1_555 1_555
H20 C22 1_555 1_555
C23 C18 1_555 1_555
H21 C23 1_555 1_555
C24 C21 1_555 1_555
H22 C24 1_555 1_555
C25 C21 1_555 1_555
H23 C25 1_555 1_555
C26 C12 1_555 1_555
H24 C26 1_555 1_555
H25 C26 1_555 1_555
H26 C26 1_555 1_555
C5 C6 1_555 1_555
C6 C13 1_555 1_555
C12 C19 1_555 1_555
C16 C20 1_555 1_555
C22 C25 1_555 1_555
C23 C24 1_555 1_555

#END
