
#######################################################################
#
#                 Cambridge Crystallographic Data Centre
#                                CCDC 
#
#######################################################################
#
# If this CIF has been generated from an entry in the Cambridge 
# Structural Database, then it will include bibliographic, chemical, 
# crystal, experimental, refinement or atomic coordinate data resulting 
# from the CCDC's data processing and validation procedures.
#
#######################################################################

data_CIBVER
_chemical_formula_moiety         '2(C2 H5 N4 1+),C8 N12 O8 2-'
_chemical_name_systematic        
"bis(4-amino-4H-1,2,4-triazol-1-ium) 4,4'-((5,5'-bi(1,2,4-oxadiazole))-3,3'-diyl)bis(1,2,5-oxadiazol-3-nitramide)"
_symmetry_cell_setting           monoclinic
_symmetry_space_group_name_H-M   'P 21/c'
_symmetry_Int_Tables_number      14
_space_group_name_Hall           '-P 2ybc'
loop_
_symmetry_equiv_pos_site_id
_symmetry_equiv_pos_as_xyz
1 x,y,z
2 -x,1/2+y,1/2-z
3 -x,-y,-z
4 x,1/2-y,1/2+z
_cell_length_a                   8.0298(9)
_cell_length_b                   16.004(2)
_cell_length_c                   8.3865(11)
_cell_angle_alpha                90
_cell_angle_beta                 105.225(4)
_cell_angle_gamma                90
_cell_volume                     1039.91
_exptl_crystal_description       block
_cell_formula_units_Z            2
_chemical_properties_physical    explosive
loop_
_atom_site_label
_atom_site_type_symbol
_atom_site_fract_x
_atom_site_fract_y
_atom_site_fract_z
C1 C 0.6893(3) 0.92861(15) 0.0152(3)
C2 C 0.9217(3) 0.98347(15) 0.0155(3)
C3 C 0.4023(3) 0.86281(15) 0.0482(3)
C4 C 0.5253(3) 0.88526(15) -0.0427(3)
N1 N 0.7456(2) 0.95483(13) 0.1673(3)
N2 N 0.7959(2) 0.94570(12) -0.0863(2)
N3 N 0.2690(3) 0.82736(13) -0.0566(3)
N4 N 0.4702(3) 0.86271(14) -0.1960(3)
N5 N 0.4401(2) 0.87713(13) 0.2148(3)
N6 N 0.3110(3) 0.86347(12) 0.2849(3)
O1 O 0.9046(2) 0.99238(11) 0.1692(2)
O2 O 0.3123(2) 0.82676(12) -0.2089(2)
O3 O 0.3497(2) 0.86841(12) 0.4393(2)
O4 O 0.1600(2) 0.84963(11) 0.2039(2)
C1B C 1.3107(3) 1.07139(15) -0.0152(3)
C2B C 1.0783(3) 1.01653(15) -0.0155(3)
C3B C 1.5977(3) 1.13719(15) -0.0482(3)
C4B C 1.4747(3) 1.11474(15) 0.0427(3)
N1B N 1.2544(2) 1.04517(13) -0.1673(3)
N2B N 1.2041(2) 1.05430(12) 0.0863(2)
N3B N 1.7310(3) 1.17264(13) 0.0566(3)
N4B N 1.5298(3) 1.13729(14) 0.1960(3)
N5B N 1.5599(2) 1.12287(13) -0.2148(3)
N6B N 1.6890(3) 1.13653(12) -0.2849(3)
O1B O 1.0954(2) 1.00762(11) -0.1692(2)
O2B O 1.6877(2) 1.17324(12) 0.2089(2)
O3B O 1.6503(2) 1.13159(12) -0.4393(2)
O4B O 1.8400(2) 1.15037(11) -0.2039(2)
C5 C -0.2555(3) 0.68953(17) 0.0386(4)
H1 H -0.3672 0.6932 0.0566
C6 C -0.0228(3) 0.63666(16) -0.0019(3)
H2 H 0.0631 0.5990 -0.0175
N7 N -0.0154(3) 0.71786(15) -0.0011(3)
H3 H 0.064(4) 0.7483(18) -0.010(4)
N8 N -0.1604(3) 0.75346(14) 0.0255(3)
N9 N -0.1742(2) 0.61703(13) 0.0232(3)
N10 N -0.2333(3) 0.53422(14) 0.0265(3)
H4 H -0.325(3) 0.5282(17) -0.062(3)
H5 H -0.275(3) 0.5299(17) 0.117(3)
loop_
_geom_bond_atom_site_label_1
_geom_bond_atom_site_label_2
_geom_bond_site_symmetry_1
_geom_bond_site_symmetry_2
C1 C4 1_555 1_555
C2 N2 1_555 1_555
C3 C4 1_555 1_555
C4 N4 1_555 1_555
N1 C1 1_555 1_555
N2 C1 1_555 1_555
N3 C3 1_555 1_555
N4 O2 1_555 1_555
N5 C3 1_555 1_555
N6 N5 1_555 1_555
O1 C2 1_555 1_555
O2 N3 1_555 1_555
O3 N6 1_555 1_555
O4 N6 1_555 1_555
C5 H1 1_555 1_555
C6 H2 1_555 1_555
N7 C6 1_555 1_555
H3 N7 1_555 1_555
N8 C5 1_555 1_555
N9 C5 1_555 1_555
N10 N9 1_555 1_555
H4 N10 1_555 1_555
H5 N10 1_555 1_555
C1B C4B 1_555 1_555
C2B C2 1_555 1_555
C3B C4B 1_555 1_555
C4B N4B 1_555 1_555
N1B C1B 1_555 1_555
N2B C1B 1_555 1_555
N3B C3B 1_555 1_555
N4B O2B 1_555 1_555
N5B C3B 1_555 1_555
N6B N5B 1_555 1_555
O1B C2B 1_555 1_555
O2B N3B 1_555 1_555
O3B N6B 1_555 1_555
O4B N6B 1_555 1_555
N1 O1 1_555 1_555
C6 N9 1_555 1_555
N7 N8 1_555 1_555
C2B N2B 1_555 1_555
N1B O1B 1_555 1_555

#END
