
#######################################################################
#
#                 Cambridge Crystallographic Data Centre
#                                CCDC 
#
#######################################################################
#
# If this CIF has been generated from an entry in the Cambridge 
# Structural Database, then it will include bibliographic, chemical, 
# crystal, experimental, refinement or atomic coordinate data resulting 
# from the CCDC's data processing and validation procedures.
#
#######################################################################

data_CIBVAN
_chemical_formula_moiety         'C8 H2 N12 O8,3(C4 H8 O2)'
_chemical_name_systematic        
"4,4'-((5,5'-bi-1,2,4-oxadiazole)-3,3'-diyl)bis(N-nitro-1,2,5-oxadiazol-3-amine) 1,4-dioxane solvate"
_symmetry_cell_setting           triclinic
_symmetry_space_group_name_H-M   'P -1'
_symmetry_Int_Tables_number      2
_space_group_name_Hall           '-P 1'
loop_
_symmetry_equiv_pos_site_id
_symmetry_equiv_pos_as_xyz
1 x,y,z
2 -x,-y,-z
_cell_length_a                   6.6528(7)
_cell_length_b                   8.9943(9)
_cell_length_c                   12.9685(14)
_cell_angle_alpha                91.548(4)
_cell_angle_beta                 102.237(4)
_cell_angle_gamma                105.854(3)
_cell_volume                     726.539
_exptl_crystal_description       sheet
_cell_formula_units_Z            1
_chemical_properties_physical    explosive
loop_
_atom_site_label
_atom_site_type_symbol
_atom_site_fract_x
_atom_site_fract_y
_atom_site_fract_z
C1 C 0.3308(4) 0.8019(3) 0.3158(2)
C2 C 0.4450(4) 0.9539(3) 0.4500(2)
C3 C 0.2040(5) 0.6579(3) 0.1274(2)
C4 C 0.3103(4) 0.6782(3) 0.2363(2)
N1 N 0.2133(4) 0.8971(2) 0.29798(17)
N2 N 0.4808(3) 0.8325(2) 0.41130(16)
N3 N 0.2346(4) 0.5374(3) 0.08197(18)
N4 N 0.4029(4) 0.5682(3) 0.25717(18)
N5 N 0.1019(4) 0.7548(3) 0.06871(19)
H1 H 0.113(5) 0.763(3) 0.001(2)
N6 N -0.1028(4) 0.7487(3) 0.0809(2)
O1 O 0.2882(3) 1.0009(2) 0.38975(14)
O2 O 0.3579(3) 0.4803(2) 0.16143(15)
O3 O -0.1616(3) 0.6847(2) 0.15576(17)
O4 O -0.2033(4) 0.8145(3) 0.01708(18)
C1A C 0.6692(4) 1.1981(3) 0.6842(2)
C2A C 0.5550(4) 1.0461(3) 0.5500(2)
C3A C 0.7960(5) 1.3421(3) 0.8726(2)
C4A C 0.6897(4) 1.3218(3) 0.7637(2)
N1A N 0.7867(4) 1.1029(2) 0.70202(17)
N2A N 0.5192(3) 1.1675(2) 0.58870(16)
N3A N 0.7654(4) 1.4626(3) 0.91803(18)
N4A N 0.5971(4) 1.4318(3) 0.74283(18)
N5A N 0.8981(4) 1.2452(3) 0.93129(19)
H1A H 0.887(5) 1.237(3) 0.999(2)
N6A N 1.1028(4) 1.2513(3) 0.9191(2)
O1A O 0.7118(3) 0.9991(2) 0.61025(14)
O2A O 0.6421(3) 1.5197(2) 0.83857(15)
O3A O 1.1616(3) 1.3153(2) 0.84424(17)
O4A O 1.2033(4) 1.1855(3) 0.98292(18)
C5 C 0.4319(6) 0.7990(4) -0.2230(3)
H2 H 0.5337 0.8750 -0.1660
H3 H 0.5145 0.7415 -0.2548
C6 C 0.2723(6) 0.6892(4) -0.1771(3)
H4 H 0.1782 0.6075 -0.2327
H5 H 0.3471 0.6386 -0.1205
C7 C 0.0459(5) 0.8511(4) -0.2119(3)
H6 H -0.0350 0.9092 -0.1793
H7 H -0.0570 0.7766 -0.2695
C8 C 0.2080(6) 0.9605(4) -0.2567(3)
H8 H 0.1354 1.0146 -0.3118
H9 H 0.3048 1.0396 -0.2002
O5 O 0.3313(3) 0.8800(2) -0.30233(17)
O6 O 0.1452(3) 0.7686(2) -0.13424(16)
C9 C 0.1999(5) 0.4896(4) 0.4912(3)
H10 H 0.2976 0.5754 0.5429
H11 H 0.2887 0.4370 0.4600
C10 C 0.0589(6) 0.3766(4) 0.5470(3)
H12 H -0.0319 0.2872 0.4964
H13 H 0.1490 0.3373 0.6044
O7 O 0.0741(4) 0.5510(3) 0.40961(17)
C9A C -0.1999(5) 0.5104(4) 0.5088(3)
H10A H -0.2976 0.4246 0.4571
H11A H -0.2887 0.5630 0.5400
C10A C -0.0589(6) 0.6234(4) 0.4530(3)
H12A H 0.0319 0.7128 0.5036
H13A H -0.1490 0.6627 0.3956
O7A O -0.0741(4) 0.4490(3) 0.59039(17)
loop_
_geom_bond_atom_site_label_1
_geom_bond_atom_site_label_2
_geom_bond_site_symmetry_1
_geom_bond_site_symmetry_2
C1 C4 1_555 1_555
C2 N2 1_555 1_555
C3 C4 1_555 1_555
C4 N4 1_555 1_555
N1 C1 1_555 1_555
N2 C1 1_555 1_555
N3 C3 1_555 1_555
N4 O2 1_555 1_555
N5 C3 1_555 1_555
H1 N5 1_555 1_555
N6 N5 1_555 1_555
O1 C2 1_555 1_555
O2 N3 1_555 1_555
O3 N6 1_555 1_555
O4 N6 1_555 1_555
C5 H2 1_555 1_555
H3 C5 1_555 1_555
C6 C5 1_555 1_555
H4 C6 1_555 1_555
H5 C6 1_555 1_555
C7 H6 1_555 1_555
H7 C7 1_555 1_555
C8 C7 1_555 1_555
H8 C8 1_555 1_555
H9 C8 1_555 1_555
O5 C5 1_555 1_555
O6 C6 1_555 1_555
C9 H10 1_555 1_555
H11 C9 1_555 1_555
C10 C9 1_555 1_555
H12 C10 1_555 1_555
H13 C10 1_555 1_555
O7 C9 1_555 1_555
C1A C4A 1_555 1_555
C2A C2 1_555 1_555
C3A C4A 1_555 1_555
C4A N4A 1_555 1_555
N1A C1A 1_555 1_555
N2A C1A 1_555 1_555
N3A C3A 1_555 1_555
N4A O2A 1_555 1_555
N5A C3A 1_555 1_555
H1A N5A 1_555 1_555
N6A N5A 1_555 1_555
O1A C2A 1_555 1_555
O2A N3A 1_555 1_555
O3A N6A 1_555 1_555
O4A N6A 1_555 1_555
C9A H10A 1_555 1_555
H11A C9A 1_555 1_555
C10A O7 1_555 1_555
H12A C10A 1_555 1_555
H13A C10A 1_555 1_555
O7A C10 1_555 1_555
N1 O1 1_555 1_555
C7 O6 1_555 1_555
C8 O5 1_555 1_555
C2A N2A 1_555 1_555
N1A O1A 1_555 1_555
C9A C10A 1_555 1_555
C9A O7A 1_555 1_555

#END
