
#######################################################################
#
#                 Cambridge Crystallographic Data Centre
#                                CCDC 
#
#######################################################################
#
# If this CIF has been generated from an entry in the Cambridge 
# Structural Database, then it will include bibliographic, chemical, 
# crystal, experimental, refinement or atomic coordinate data resulting 
# from the CCDC's data processing and validation procedures.
#
#######################################################################

data_CIBZUK
_chemical_formula_moiety         'C43 H58 N2 O8 Si1'
_chemical_name_systematic        
"Di-t-butyl 3-(2-((t-butyl(dimethyl)silyl)oxy)-1-((4-methoxybenzyl)oxy)ethyl)-2-methoxy-2,3-dihydro-1H,1'H-3,3'-biindole-1,1'-dicarboxylate"
_symmetry_cell_setting           orthorhombic
_symmetry_space_group_name_H-M   'P 21 21 21'
_symmetry_Int_Tables_number      19
_space_group_name_Hall           'P 2ac 2ab'
loop_
_symmetry_equiv_pos_site_id
_symmetry_equiv_pos_as_xyz
1 x,y,z
2 1/2-x,-y,1/2+z
3 1/2+x,1/2-y,-z
4 -x,1/2+y,1/2-z
_cell_length_a                   11.2023(4)
_cell_length_b                   18.5234(6)
_cell_length_c                   20.9534(7)
_cell_angle_alpha                90
_cell_angle_beta                 90
_cell_angle_gamma                90
_cell_volume                     4347.93
_cell_formula_units_Z            4
loop_
_atom_site_label
_atom_site_type_symbol
_atom_site_fract_x
_atom_site_fract_y
_atom_site_fract_z
Si1 Si 0.88149(18) 0.86211(10) 0.07888(9)
O1 O 0.5330(3) 0.71448(16) 0.41051(15)
O2 O 0.7026(3) 0.84959(16) 0.40958(13)
O3 O 1.1171(3) 0.99780(16) 0.38559(16)
N1 N 0.7190(3) 0.72881(17) 0.37763(17)
O4 O 0.6707(3) 0.74165(15) 0.23998(14)
N2 N 0.9437(3) 0.99629(18) 0.33274(17)
O5 O 0.6622(3) 0.62044(17) 0.41817(19)
O6 O 0.8002(4) 0.8119(2) 0.12684(15)
C1 C 0.8332(4) 0.8975(2) 0.31166(18)
C2 C 0.8884(4) 0.7643(2) 0.3246(2)
C3 C 0.6927(4) 0.8026(2) 0.35717(18)
H1 H 0.6132 0.8057 0.3378
O7 O 1.0321(4) 1.1029(2) 0.3569(3)
O8 O 0.2147(4) 0.9473(3) 0.2396(2)
C4 C 0.7630(4) 0.9612(2) 0.29590(18)
C5 C 0.7926(4) 0.8190(2) 0.30668(18)
C6 C 0.7436(4) 0.8045(2) 0.23799(19)
H2 H 0.6933 0.8455 0.2257
C7 C 0.6385(4) 0.6823(2) 0.4037(2)
C8 C 0.3253(5) 0.8454(3) 0.2689(2)
H3 H 0.2807 0.8436 0.3063
C9 C 0.9389(4) 0.9212(2) 0.33279(19)
H4 H 1.0011 0.8914 0.3458
C10 C 1.0753(4) 0.7035(3) 0.3284(3)
H5 H 1.1552 0.7002 0.3166
C11 C 0.8345(4) 1.0213(2) 0.3082(2)
C12 C 0.4368(4) 0.6798(3) 0.4480(2)
C13 C 0.8391(4) 0.7120(2) 0.3636(2)
C14 C 1.2206(5) 1.0298(3) 0.4190(3)
C15 C 1.0066(4) 0.7597(2) 0.3067(2)
H6 H 1.0396 0.7945 0.2800
C16 C 0.6454(4) 0.9725(3) 0.2746(2)
H7 H 0.5940 0.9338 0.2679
C17 C 0.7979(5) 1.0914(2) 0.2977(3)
H8 H 0.8480 1.1305 0.3053
C18 C 0.4106(4) 0.7950(2) 0.2578(2)
H9 H 0.4217 0.7585 0.2877
C19 C 0.6083(5) 1.0425(3) 0.2640(3)
H10 H 0.5315 1.0508 0.2488
C20 C 0.4827(4) 0.7957(3) 0.2033(2)
C21 C 0.9077(5) 0.6549(2) 0.3862(3)
H11 H 0.8747 0.6200 0.4128
C22 C 1.0250(5) 0.6514(3) 0.3681(3)
H12 H 1.0722 0.6135 0.3827
C23 C 0.5781(5) 0.7403(3) 0.1924(2)
H13 H 0.5418 0.6928 0.1920
H14 H 0.6136 0.7484 0.1508
C24 C 0.3043(5) 0.8999(3) 0.2244(3)
C25 C 1.0344(5) 1.0393(3) 0.3585(3)
C26 C 0.4619(5) 0.8512(4) 0.1603(2)
H15 H 0.5076 0.8536 0.1233
C27 C 0.3412(5) 0.7375(3) 0.4494(3)
H16 H 0.3241 0.7529 0.4066
H17 H 0.3687 0.7779 0.4740
H18 H 0.2700 0.7182 0.4684
C28 C 0.8425(5) 0.7976(3) 0.1898(2)
H19 H 0.9058 0.8313 0.2003
H20 H 0.8753 0.7492 0.1915
C29 C 0.3744(6) 0.9034(4) 0.1709(3)
H21 H 0.3637 0.9406 0.1416
C30 C 0.6825(5) 1.1005(3) 0.2754(3)
H22 H 0.6543 1.1469 0.2678
C31 C 0.4801(6) 0.6640(4) 0.5148(3)
H23 H 0.4147 0.6468 0.5402
H24 H 0.5119 0.7072 0.5335
H25 H 0.5413 0.6277 0.5133
C32 C 0.3941(7) 0.6119(4) 0.4128(4)
H26 H 0.3831 0.6228 0.3684
H27 H 0.3198 0.5960 0.4308
H28 H 0.4527 0.5744 0.4172
C33 C 0.5966(5) 0.8817(3) 0.4306(4)
H29 H 0.5375 0.8787 0.3976
H30 H 0.6112 0.9315 0.4408
H31 H 0.5684 0.8570 0.4680
C34 C 1.2905(6) 0.9646(4) 0.4386(4)
H32 H 1.2461 0.9378 0.4699
H33 H 1.3654 0.9795 0.4566
H34 H 1.3048 0.9347 0.4020
C35 C 1.1750(8) 1.0657(5) 0.4789(4)
H35 H 1.1389 1.1111 0.4682
H36 H 1.2402 1.0736 0.5078
H37 H 1.1167 1.0351 0.4989
C36 C 1.2859(7) 1.0779(6) 0.3732(5)
H38 H 1.3419 1.0497 0.3491
H39 H 1.3278 1.1145 0.3965
H40 H 1.2298 1.1001 0.3447
C37 C 0.1965(9) 1.0089(5) 0.1994(4)
H41 H 0.1685 0.9932 0.1583
H42 H 0.2705 1.0344 0.1944
H43 H 0.1384 1.0403 0.2184
C38 C 0.8147(8) 0.8564(5) 0.0000(4)
C39 C 1.0352(10) 0.8297(6) 0.0798(6)
H44 H 1.0554 0.8138 0.1220
H45 H 1.0878 0.8682 0.0673
H46 H 1.0433 0.7902 0.0505
C40 C 0.8909(11) 0.9038(6) -0.0466(4)
H47 H 0.9467 0.9321 -0.0225
H48 H 0.8392 0.9353 -0.0703
H49 H 0.9336 0.8731 -0.0756
C41 C 0.6826(9) 0.8681(7) -0.0015(6)
H50 H 0.6559 0.8701 -0.0450
H51 H 0.6636 0.9126 0.0196
H52 H 0.6435 0.8289 0.0200
C42 C 0.8250(11) 0.7777(5) -0.0250(5)
H53 H 0.8875 0.7532 -0.0024
H54 H 0.8432 0.7784 -0.0698
H55 H 0.7508 0.7530 -0.0183
C43 C 0.8708(12) 0.9541(5) 0.1107(5)
H56 H 0.7886 0.9657 0.1187
H57 H 0.9031 0.9876 0.0802
H58 H 0.9151 0.9573 0.1498
loop_
_geom_bond_atom_site_label_1
_geom_bond_atom_site_label_2
_geom_bond_site_symmetry_1
_geom_bond_site_symmetry_2
Si1 O6 1_555 1_555
O1 C7 1_555 1_555
O2 C3 1_555 1_555
O3 C14 1_555 1_555
N1 C3 1_555 1_555
O4 C6 1_555 1_555
N2 C9 1_555 1_555
O5 C7 1_555 1_555
O6 C28 1_555 1_555
C1 C4 1_555 1_555
C2 C5 1_555 1_555
C3 H1 1_555 1_555
O7 C25 1_555 1_555
O8 C24 1_555 1_555
C4 C11 1_555 1_555
C5 C1 1_555 1_555
C6 C5 1_555 1_555
H2 C6 1_555 1_555
C7 N1 1_555 1_555
C8 H3 1_555 1_555
C9 C1 1_555 1_555
H4 C9 1_555 1_555
C10 H5 1_555 1_555
C11 N2 1_555 1_555
C12 O1 1_555 1_555
C13 N1 1_555 1_555
C14 C34 1_555 1_555
C15 C2 1_555 1_555
H6 C15 1_555 1_555
C16 C4 1_555 1_555
H7 C16 1_555 1_555
C17 C11 1_555 1_555
H8 C17 1_555 1_555
C18 C8 1_555 1_555
H9 C18 1_555 1_555
C19 C16 1_555 1_555
H10 C19 1_555 1_555
C20 C18 1_555 1_555
C21 C13 1_555 1_555
H11 C21 1_555 1_555
C22 C10 1_555 1_555
H12 C22 1_555 1_555
C23 O4 1_555 1_555
H13 C23 1_555 1_555
H14 C23 1_555 1_555
C24 C8 1_555 1_555
C25 O3 1_555 1_555
C26 C20 1_555 1_555
H15 C26 1_555 1_555
C27 C12 1_555 1_555
H16 C27 1_555 1_555
H17 C27 1_555 1_555
H18 C27 1_555 1_555
C28 C6 1_555 1_555
H19 C28 1_555 1_555
H20 C28 1_555 1_555
C29 C24 1_555 1_555
H21 C29 1_555 1_555
C30 C17 1_555 1_555
H22 C30 1_555 1_555
C31 C12 1_555 1_555
H23 C31 1_555 1_555
H24 C31 1_555 1_555
H25 C31 1_555 1_555
C32 C12 1_555 1_555
H26 C32 1_555 1_555
H27 C32 1_555 1_555
H28 C32 1_555 1_555
C33 O2 1_555 1_555
H29 C33 1_555 1_555
H30 C33 1_555 1_555
H31 C33 1_555 1_555
C34 H32 1_555 1_555
H33 C34 1_555 1_555
H34 C34 1_555 1_555
C35 C14 1_555 1_555
H35 C35 1_555 1_555
H36 C35 1_555 1_555
H37 C35 1_555 1_555
C36 C14 1_555 1_555
H38 C36 1_555 1_555
H39 C36 1_555 1_555
H40 C36 1_555 1_555
C37 O8 1_555 1_555
H41 C37 1_555 1_555
H42 C37 1_555 1_555
H43 C37 1_555 1_555
C38 Si1 1_555 1_555
C39 Si1 1_555 1_555
H44 C39 1_555 1_555
H45 C39 1_555 1_555
H46 C39 1_555 1_555
C40 C38 1_555 1_555
H47 C40 1_555 1_555
H48 C40 1_555 1_555
H49 C40 1_555 1_555
C41 C38 1_555 1_555
H50 C41 1_555 1_555
H51 C41 1_555 1_555
H52 C41 1_555 1_555
C42 C38 1_555 1_555
H53 C42 1_555 1_555
H54 C42 1_555 1_555
H55 C42 1_555 1_555
C43 Si1 1_555 1_555
H56 C43 1_555 1_555
H57 C43 1_555 1_555
H58 C43 1_555 1_555
N2 C25 1_555 1_555
C2 C13 1_555 1_555
C3 C5 1_555 1_555
C10 C15 1_555 1_555
C19 C30 1_555 1_555
C20 C23 1_555 1_555
C21 C22 1_555 1_555
C26 C29 1_555 1_555

#END
