
#######################################################################
#
#                 Cambridge Crystallographic Data Centre
#                                CCDC 
#
#######################################################################
#
# If this CIF has been generated from an entry in the Cambridge 
# Structural Database, then it will include bibliographic, chemical, 
# crystal, experimental, refinement or atomic coordinate data resulting 
# from the CCDC's data processing and validation procedures.
#
#######################################################################

data_CICLEG
_chemical_formula_moiety         'C15 H18 N2 O3'
_chemical_name_systematic        1,3-bis(2-Aminophenoxy)-2-propanol
_symmetry_cell_setting           monoclinic
_symmetry_space_group_name_H-M   'P 21/c'
_symmetry_Int_Tables_number      14
_space_group_name_Hall           '-P 2ybc'
loop_
_symmetry_equiv_pos_site_id
_symmetry_equiv_pos_as_xyz
1 x,y,z
2 -x,1/2+y,1/2-z
3 -x,-y,-z
4 x,1/2-y,1/2+z
_cell_length_a                   14.069(2)
_cell_length_b                   5.8636(9)
_cell_length_c                   17.112(3)
_cell_angle_alpha                90
_cell_angle_beta                 103.418(7)
_cell_angle_gamma                90
_cell_volume                     1373.12
_exptl_crystal_colour            yellow
_exptl_crystal_description       prism
_cell_formula_units_Z            4
_exptl_crystal_recrystallization_method ethanol/dichloromethane
loop_
_atom_site_label
_atom_site_type_symbol
_atom_site_fract_x
_atom_site_fract_y
_atom_site_fract_z
C1 C 0.81149(16) -0.0370(4) 1.01642(11)
C2 C 0.74359(18) -0.1889(4) 1.03225(13)
H1 H 0.7647 -0.3147 1.0648
C3 C 0.64443(19) -0.1577(5) 1.00061(14)
H2 H 0.5997 -0.2624 1.0117
C4 C 0.61236(18) 0.0277(5) 0.95297(15)
H3 H 0.5458 0.0506 0.9328
C5 C 0.67907(16) 0.1809(4) 0.93479(13)
H4 H 0.6573 0.3060 0.9021
C6 C 0.77767(14) 0.1480(4) 0.96517(11)
C7 C 0.82321(10) 0.4514(2) 0.88735(8)
H5 H 0.7834 0.5690 0.9037
H6 H 0.7856 0.3803 0.8388
C8 C 0.91478(10) 0.5536(2) 0.87210(8)
H7 H 0.9573 0.5919 0.9244
C9 C 0.89298(15) 0.7733(3) 0.82454(12)
H8 H 0.8643 0.8836 0.8545
H9 H 0.9530 0.8371 0.8153
C10 C 0.74699(14) 0.8723(3) 0.72770(11)
C11 C 0.65635(15) 0.7980(4) 0.73339(13)
H10 H 0.6497 0.6563 0.7560
C12 C 0.57499(18) 0.9325(5) 0.70570(15)
H11 H 0.5135 0.8825 0.7096
C13 C 0.58582(18) 1.1407(5) 0.67236(14)
H12 H 0.5312 1.2317 0.6532
C14 C 0.67606(17) 1.2160(4) 0.66696(13)
H13 H 0.6819 1.3580 0.6443
C15 C 0.75904(14) 1.0847(3) 0.69467(10)
N1 N 0.91044(15) -0.0606(4) 1.04645(13)
H14 H 0.9328 -0.1746 1.0768
H15 H 0.9500 0.0387 1.0349
N2 N 0.85195(13) 1.1623(3) 0.69122(10)
H16 H 0.8587 1.2946 0.6715
H17 H 0.9023 1.0777 0.7088
O1 O 0.85053(10) 0.2843(2) 0.94980(8)
O2 O 0.96575(9) 0.3940(2) 0.83438(8)
H18 H 1.0155 0.4535 0.8266
O3 O 0.82630(10) 0.7260(2) 0.74908(7)
loop_
_geom_bond_atom_site_label_1
_geom_bond_atom_site_label_2
_geom_bond_site_symmetry_1
_geom_bond_site_symmetry_2
C1 C2 1_555 1_555
C2 H1 1_555 1_555
C3 C2 1_555 1_555
H2 C3 1_555 1_555
C4 C3 1_555 1_555
H3 C4 1_555 1_555
C5 C4 1_555 1_555
H4 C5 1_555 1_555
C6 C1 1_555 1_555
C7 H5 1_555 1_555
H6 C7 1_555 1_555
C8 C7 1_555 1_555
H7 C8 1_555 1_555
C9 C8 1_555 1_555
H8 C9 1_555 1_555
H9 C9 1_555 1_555
C10 C11 1_555 1_555
C11 H10 1_555 1_555
C12 C11 1_555 1_555
H11 C12 1_555 1_555
C13 C12 1_555 1_555
H12 C13 1_555 1_555
C14 C13 1_555 1_555
H13 C14 1_555 1_555
C15 C10 1_555 1_555
N1 C1 1_555 1_555
H14 N1 1_555 1_555
H15 N1 1_555 1_555
N2 C15 1_555 1_555
H16 N2 1_555 1_555
H17 N2 1_555 1_555
O1 C6 1_555 1_555
O2 C8 1_555 1_555
H18 O2 1_555 1_555
O3 C9 1_555 1_555
C5 C6 1_555 1_555
C7 O1 1_555 1_555
C10 O3 1_555 1_555
C14 C15 1_555 1_555

#END
