
#######################################################################
#
#                 Cambridge Crystallographic Data Centre
#                                CCDC 
#
#######################################################################
#
# If this CIF has been generated from an entry in the Cambridge 
# Structural Database, then it will include bibliographic, chemical, 
# crystal, experimental, refinement or atomic coordinate data resulting 
# from the CCDC's data processing and validation procedures.
#
#######################################################################

data_CICNOS
_chemical_formula_moiety         'C7 H8 Cl2 N4 S1'
_chemical_name_systematic        
6-Dichloromethyl-3-n-propyl-1,2,4-triazolo(3,4-b)(1,3,4)thiadiazole
_symmetry_cell_setting           monoclinic
_symmetry_space_group_name_H-M   'C 2/c'
_symmetry_Int_Tables_number      15
_space_group_name_Hall           '-C 2yn'
loop_
_symmetry_equiv_pos_site_id
_symmetry_equiv_pos_as_xyz
1 x,y,z
2 1/2+x,1/2+y,z
3 -x,y,1/2-z
4 1/2-x,1/2+y,1/2-z
5 -x,-y,-z
6 1/2-x,1/2-y,-z
7 x,-y,1/2+z
8 1/2+x,1/2-y,1/2+z
_cell_length_a                   21.116(4)
_cell_length_b                   5.1836(9)
_cell_length_c                   19.781(3)
_cell_angle_alpha                90
_cell_angle_beta                 103.440(3)
_cell_angle_gamma                90
_cell_volume                     2105.87
_exptl_crystal_colour            colorless
_exptl_crystal_description       Rod
_chemical_melting_point          340-341K
_cell_formula_units_Z            8
_exptl_crystal_recrystallization_method 'absolute alcohol'
loop_
_atom_site_label
_atom_site_type_symbol
_atom_site_fract_x
_atom_site_fract_y
_atom_site_fract_z
S1 S 0.19565(3) 0.03777(12) 0.90696(3)
Cl1 Cl 0.17703(4) 0.25892(16) 0.72291(3)
Cl2 Cl 0.09661(4) 0.4437(2) 0.81287(4)
N1 N 0.28183(9) 0.3513(4) 0.87479(10)
N2 N 0.31298(9) 0.1848(4) 0.92536(10)
N3 N 0.31385(10) -0.1427(4) 0.99590(11)
N4 N 0.37773(11) -0.0510(4) 1.00200(12)
C1 C 0.17588(12) 0.4254(5) 0.80105(13)
H1 H 0.1920 0.6011 0.7976
C2 C 0.22106(11) 0.2914(4) 0.86033(12)
C3 C 0.27697(12) 0.0023(5) 0.94926(12)
C4 C 0.37629(12) 0.1447(5) 0.96000(12)
C5 C 0.43185(12) 0.2989(5) 0.94811(13)
H2 H 0.4706 0.2527 0.9830
H3 H 0.4231 0.4801 0.9542
C6 C 0.44528(14) 0.2615(6) 0.87671(16)
H4 H 0.4586 0.0845 0.8722
H5 H 0.4055 0.2914 0.8416
C7 C 0.49772(15) 0.4413(7) 0.86391(18)
H6 H 0.4853 0.6167 0.8696
H7 H 0.5031 0.4170 0.8175
H8 H 0.5380 0.4044 0.8965
loop_
_geom_bond_atom_site_label_1
_geom_bond_atom_site_label_2
_geom_bond_site_symmetry_1
_geom_bond_site_symmetry_2
S1 C2 1_555 1_555
Cl1 C1 1_555 1_555
Cl2 C1 1_555 1_555
N1 N2 1_555 1_555
N2 C3 1_555 1_555
N3 N4 1_555 1_555
N4 C4 1_555 1_555
C1 H1 1_555 1_555
C2 N1 1_555 1_555
C3 S1 1_555 1_555
C4 N2 1_555 1_555
C5 C4 1_555 1_555
H2 C5 1_555 1_555
H3 C5 1_555 1_555
C6 C5 1_555 1_555
H4 C6 1_555 1_555
H5 C6 1_555 1_555
C7 C6 1_555 1_555
H6 C7 1_555 1_555
H7 C7 1_555 1_555
H8 C7 1_555 1_555
N3 C3 1_555 1_555
C1 C2 1_555 1_555

#END
