
#######################################################################
#
#                 Cambridge Crystallographic Data Centre
#                                CCDC 
#
#######################################################################
#
# If this CIF has been generated from an entry in the Cambridge 
# Structural Database, then it will include bibliographic, chemical, 
# crystal, experimental, refinement or atomic coordinate data resulting 
# from the CCDC's data processing and validation procedures.
#
#######################################################################

data_CICPEM
_chemical_formula_moiety         'C17 H14 B1 F1 N2'
_chemical_name_systematic        
6-fluoro-6-phenyl-6,11-dihydro-5,6-pyrido[1,2-b][2,4,1]benzodiazaborinine
_symmetry_cell_setting           monoclinic
_symmetry_space_group_name_H-M   'P 21/n'
_symmetry_Int_Tables_number      14
_space_group_name_Hall           '-P 2yn'
loop_
_symmetry_equiv_pos_site_id
_symmetry_equiv_pos_as_xyz
1 x,y,z
2 1/2-x,1/2+y,1/2-z
3 -x,-y,-z
4 1/2+x,1/2-y,1/2+z
_cell_length_a                   9.1839(14)
_cell_length_b                   11.2820(14)
_cell_length_c                   14.148(3)
_cell_angle_alpha                90
_cell_angle_beta                 101.510(17)
_cell_angle_gamma                90
_cell_volume                     1436.43
_exptl_crystal_description       block
_cell_formula_units_Z            4
loop_
_atom_site_label
_atom_site_type_symbol
_atom_site_fract_x
_atom_site_fract_y
_atom_site_fract_z
F1 F 0.35585(14) 0.14558(11) 0.66632(9)
N1 N 0.20031(19) 0.31415(15) 0.60442(13)
N2 N 0.2349(2) 0.45136(16) 0.73055(13)
H1 H 0.1950(2) 0.50251(16) 0.76259(13)
C1 C 0.4576(2) 0.34652(18) 0.71468(14)
C2 C 0.4384(2) 0.26081(19) 0.53596(14)
C3 C 0.3884(2) 0.43228(19) 0.76072(14)
C4 C 0.4826(3) 0.3534(2) 0.38905(18)
H2 H 0.4672(3) 0.4168(2) 0.34619(18)
C5 C 0.6108(3) 0.3364(2) 0.74661(16)
H3 H 0.6614(3) 0.2799(2) 0.71775(16)
C6 C 0.1441(2) 0.3975(2) 0.65641(16)
C7 C 0.5251(2) 0.1666(2) 0.51610(16)
H4 H 0.5408(2) 0.1025(2) 0.55824(16)
C8 C -0.0982(3) 0.3732(3) 0.5587(2)
H5 H -0.1990(3) 0.3911(3) 0.5446(2)
C9 C 0.5675(3) 0.2587(3) 0.37199(17)
H6 H 0.6104(3) 0.2579(3) 0.31775(17)
C10 C -0.0080(3) 0.4274(2) 0.63327(19)
H7 H -0.0461(3) 0.4843(2) 0.66928(19)
B1 B 0.3682(3) 0.2655(2) 0.63120(18)
C11 C 0.5888(2) 0.1657(2) 0.43500(17)
H8 H 0.6462(2) 0.1014(2) 0.42352(17)
C12 C 0.4664(3) 0.5028(2) 0.83474(16)
H9 H 0.4164(3) 0.5586(2) 0.86473(16)
C13 C 0.4196(3) 0.3542(2) 0.47076(17)
H10 H 0.3632(3) 0.4192(2) 0.48199(17)
C14 C 0.6907(3) 0.4056(3) 0.81862(17)
H11 H 0.7930(3) 0.3964(3) 0.83731(17)
C15 C 0.1059(3) 0.2638(2) 0.52770(17)
H12 H 0.1444(3) 0.2083(2) 0.49066(17)
C16 C -0.0403(3) 0.2905(2) 0.50305(19)
H13 H -0.1007(3) 0.2546(2) 0.45024(19)
C17 C 0.6166(3) 0.4894(2) 0.86297(17)
H14 H 0.6692(3) 0.5365(2) 0.91205(17)
loop_
_geom_bond_atom_site_label_1
_geom_bond_atom_site_label_2
_geom_bond_site_symmetry_1
_geom_bond_site_symmetry_2
F1 B1 1_555 1_555
N1 C6 1_555 1_555
N2 H1 1_555 1_555
C1 C3 1_555 1_555
C2 C7 1_555 1_555
C3 N2 1_555 1_555
C4 H2 1_555 1_555
C5 C1 1_555 1_555
H3 C5 1_555 1_555
C6 N2 1_555 1_555
C7 H4 1_555 1_555
C8 H5 1_555 1_555
C9 C4 1_555 1_555
H6 C9 1_555 1_555
C10 C6 1_555 1_555
H7 C10 1_555 1_555
B1 N1 1_555 1_555
C11 C7 1_555 1_555
H8 C11 1_555 1_555
C12 C3 1_555 1_555
H9 C12 1_555 1_555
C13 C2 1_555 1_555
H10 C13 1_555 1_555
C14 C5 1_555 1_555
H11 C14 1_555 1_555
C15 N1 1_555 1_555
H12 C15 1_555 1_555
C16 C8 1_555 1_555
H13 C16 1_555 1_555
C17 C12 1_555 1_555
H14 C17 1_555 1_555
C1 B1 1_555 1_555
C2 B1 1_555 1_555
C4 C13 1_555 1_555
C8 C10 1_555 1_555
C9 C11 1_555 1_555
C14 C17 1_555 1_555
C15 C16 1_555 1_555

#END
