
#######################################################################
#
#                 Cambridge Crystallographic Data Centre
#                                CCDC 
#
#######################################################################
#
# If this CIF has been generated from an entry in the Cambridge 
# Structural Database, then it will include bibliographic, chemical, 
# crystal, experimental, refinement or atomic coordinate data resulting 
# from the CCDC's data processing and validation procedures.
#
#######################################################################

data_CICQAJ
_chemical_formula_moiety         'C22 H18 F2 O2 S1'
_chemical_name_systematic        
'ethyl difluoro[2-(phenylsulfanyl)-1,2-dihydroacenaphthylen-1-yl]acetate'
_symmetry_cell_setting           orthorhombic
_symmetry_space_group_name_H-M   'P n a 21'
_symmetry_Int_Tables_number      33
_space_group_name_Hall           'P 2c -2n'
loop_
_symmetry_equiv_pos_site_id
_symmetry_equiv_pos_as_xyz
1 x,y,z
2 -x,-y,1/2+z
3 1/2-x,1/2+y,1/2+z
4 1/2+x,1/2-y,z
_cell_length_a                   19.1333(10)
_cell_length_b                   10.4014(6)
_cell_length_c                   18.5449(11)
_cell_angle_alpha                90
_cell_angle_beta                 90
_cell_angle_gamma                90
_cell_volume                     3690.68
_exptl_crystal_description       block
_cell_formula_units_Z            8
loop_
_atom_site_label
_atom_site_type_symbol
_atom_site_fract_x
_atom_site_fract_y
_atom_site_fract_z
S1 S 0.61335(7) 0.87153(13) 0.58480(8)
F1 F 0.70145(15) 0.6885(3) 0.78341(16)
F2 F 0.75526(16) 0.5612(3) 0.7095(2)
O1 O 0.58131(19) 0.6037(4) 0.7319(2)
O2 O 0.63893(17) 0.5043(4) 0.6434(2)
C1 C 0.5468(3) 0.9861(5) 0.6001(3)
C2 C 0.4419(3) 1.1669(6) 0.6156(4)
C3 C 0.6584(2) 0.8651(4) 0.6711(3)
C4 C 0.6964(2) 0.9866(5) 0.6907(3)
C5 C 0.6744(3) 1.1090(5) 0.7042(3)
C6 C 0.8185(3) 1.0506(6) 0.7122(3)
C7 C 0.7927(4) 1.1769(6) 0.7246(3)
C8 C 0.5364(3) 1.0783(5) 0.5487(3)
C9 C 0.7236(4) 1.2029(6) 0.7204(3)
C10 C 0.8886(3) 1.0058(8) 0.7134(3)
C11 C 0.8520(3) 0.7895(7) 0.6834(3)
C12 C 0.7026(2) 0.6482(5) 0.7135(3)
C13 C 0.7685(3) 0.9584(5) 0.6950(3)
C14 C 0.4836(3) 1.1659(5) 0.5562(4)
C15 C 0.5761(3) 0.4416(6) 0.6181(3)
C16 C 0.5443(3) 0.5167(6) 0.5599(4)
C17 C 0.6325(3) 0.5817(5) 0.6990(3)
C18 C 0.7834(2) 0.8296(5) 0.6813(3)
C19 C 0.9027(3) 0.8824(8) 0.7001(4)
C20 C 0.7158(3) 0.7600(5) 0.6639(4)
C21 C 0.5034(3) 0.9835(6) 0.6590(3)
C22 C 0.4518(3) 1.0764(7) 0.6664(4)
H1 H 0.5086(3) 0.9199(6) 0.6938(3)
H2 H 0.4235(3) 1.0759(7) 0.7071(4)
H3 H 0.4073(3) 1.2290(6) 0.6210(4)
H4 H 0.4761(3) 1.2260(5) 0.5199(4)
H5 H 0.5653(3) 1.0814(5) 0.5085(3)
H6 H 0.8238(4) 1.2426(6) 0.7359(3)
H7 H 0.7084(4) 1.2866(6) 0.7286(3)
H8 H 0.6271(3) 1.1293(5) 0.7026(3)
H9 H 0.9248(3) 1.0626(8) 0.7234(3)
H10 H 0.9491(3) 0.8562(8) 0.7021(4)
H11 H 0.8642(3) 0.7045(7) 0.6742(3)
H12 H 0.6255(2) 0.8419(4) 0.7094(3)
H13 H 0.5874(3) 0.3562(6) 0.6006(3)
H14 H 0.5432(3) 0.4329(6) 0.6576(3)
H15 H 0.5782(8) 0.531(4) 0.5226(12)
H16 H 0.5052(15) 0.470(2) 0.5405(17)
H17 H 0.529(2) 0.5978(19) 0.5786(7)
H18 H 0.7173(3) 0.7293(5) 0.6139(4)
C23 C 0.4678(3) 0.7505(4) 0.4066(3)
C24 C 0.5190(3) 0.9487(5) 0.3750(3)
C25 C 0.4476(3) 0.9766(5) 0.3794(3)
C26 C 0.4092(3) 0.8551(5) 0.3982(3)
C27 C 0.5700(4) 1.0400(7) 0.3592(3)
F3 F 0.45329(16) 0.6774(3) 0.28817(17)
F4 F 0.50800(16) 0.5530(3) 0.36275(19)
O3 O 0.33351(18) 0.5888(4) 0.3417(2)
C28 C 0.4542(3) 0.6382(5) 0.3577(3)
O4 O 0.39414(19) 0.4886(4) 0.4269(2)
C29 C 0.3860(3) 0.5691(5) 0.3732(3)
C30 C 0.2813(3) 1.0571(5) 0.5248(3)
C31 C 0.5351(2) 0.8201(5) 0.3917(3)
C32 C 0.2958(3) 0.9737(5) 0.4691(3)
C33 C 0.5471(5) 1.1623(7) 0.3458(3)
C34 C 0.4770(5) 1.1910(6) 0.3496(4)
C35 C 0.2565(3) 0.9818(6) 0.4071(4)
C36 C 0.4262(4) 1.0984(6) 0.3656(3)
C37 C 0.2054(3) 1.0725(7) 0.3995(3)
C38 C 0.1908(3) 1.1537(6) 0.4556(4)
C39 C 0.2282(3) 1.1459(6) 0.5175(3)
C40 C 0.6402(4) 0.9952(9) 0.3581(3)
C41 C 0.6033(3) 0.7806(7) 0.3925(3)
C42 C 0.3319(3) 0.4209(7) 0.4533(4)
C43 C 0.3064(4) 0.4816(9) 0.5159(5)
S2 S 0.36265(8) 0.86013(14) 0.48438(8)
C44 C 0.6553(3) 0.8711(9) 0.3748(4)
H19 H 0.6149(3) 0.6965(7) 0.4045(3)
H20 H 0.7018(3) 0.8449(9) 0.3745(4)
H21 H 0.6761(4) 1.0515(9) 0.3459(3)
H22 H 0.3790(4) 1.1198(6) 0.3667(3)
H23 H 0.4627(5) 1.2751(6) 0.3412(4)
H24 H 0.5790(5) 1.2263(7) 0.3341(3)
H25 H 0.2649(3) 0.9242(6) 0.3697(4)
H26 H 0.1808(3) 1.0791(7) 0.3565(3)
H27 H 0.1551(3) 1.2140(6) 0.4512(4)
H28 H 0.2180(3) 1.2012(6) 0.5554(3)
H29 H 0.3072(3) 1.0536(5) 0.5672(3)
H30 H 0.4682(3) 0.7201(4) 0.4567(3)
H31 H 0.3771(3) 0.8314(5) 0.3593(3)
H32 H 0.2960(3) 0.4213(7) 0.4163(4)
H33 H 0.3436(3) 0.3323(7) 0.4640(4)
H34 H 0.295(3) 0.570(2) 0.5052(10)
H35 H 0.265(2) 0.438(4) 0.532(2)
H36 H 0.3415(14) 0.479(6) 0.5529(12)
loop_
_geom_bond_atom_site_label_1
_geom_bond_atom_site_label_2
_geom_bond_site_symmetry_1
_geom_bond_site_symmetry_2
S1 C1 1_555 1_555
F1 C12 1_555 1_555
F2 C12 1_555 1_555
O1 C17 1_555 1_555
O2 C15 1_555 1_555
C1 C8 1_555 1_555
C2 C14 1_555 1_555
C3 S1 1_555 1_555
C4 C3 1_555 1_555
C5 C4 1_555 1_555
C6 C7 1_555 1_555
C7 C9 1_555 1_555
C8 C14 1_555 1_555
C9 C5 1_555 1_555
C10 C6 1_555 1_555
C11 C18 1_555 1_555
C12 C17 1_555 1_555
C13 C4 1_555 1_555
C14 H4 1_555 1_555
C15 C16 1_555 1_555
C16 H15 1_555 1_555
C17 O2 1_555 1_555
C18 C13 1_555 1_555
C19 C10 1_555 1_555
C20 C3 1_555 1_555
C21 C1 1_555 1_555
C22 C2 1_555 1_555
H1 C21 1_555 1_555
H2 C22 1_555 1_555
H3 C2 1_555 1_555
H5 C8 1_555 1_555
H6 C7 1_555 1_555
H7 C9 1_555 1_555
H8 C5 1_555 1_555
H9 C10 1_555 1_555
H10 C19 1_555 1_555
H11 C11 1_555 1_555
H12 C3 1_555 1_555
H13 C15 1_555 1_555
H14 C15 1_555 1_555
H16 C16 1_555 1_555
H17 C16 1_555 1_555
H18 C20 1_555 1_555
C23 C26 1_555 1_555
C24 C25 1_555 1_555
C25 C26 1_555 1_555
C26 S2 1_555 1_555
C27 C24 1_555 1_555
F3 C28 1_555 1_555
F4 C28 1_555 1_555
O3 C29 1_555 1_555
C28 C23 1_555 1_555
O4 C29 1_555 1_555
C29 C28 1_555 1_555
C30 C32 1_555 1_555
C31 C23 1_555 1_555
C32 C35 1_555 1_555
C33 C27 1_555 1_555
C34 C33 1_555 1_555
C35 C37 1_555 1_555
C36 C25 1_555 1_555
C37 C38 1_555 1_555
C38 C39 1_555 1_555
C39 C30 1_555 1_555
C40 C27 1_555 1_555
C41 C31 1_555 1_555
C42 O4 1_555 1_555
C43 C42 1_555 1_555
S2 C32 1_555 1_555
C44 C40 1_555 1_555
H19 C41 1_555 1_555
H20 C44 1_555 1_555
H21 C40 1_555 1_555
H22 C36 1_555 1_555
H23 C34 1_555 1_555
H24 C33 1_555 1_555
H25 C35 1_555 1_555
H26 C37 1_555 1_555
H27 C38 1_555 1_555
H28 C39 1_555 1_555
H29 C30 1_555 1_555
H30 C23 1_555 1_555
H31 C26 1_555 1_555
H32 C42 1_555 1_555
H33 C42 1_555 1_555
H34 C43 1_555 1_555
H35 C43 1_555 1_555
H36 C43 1_555 1_555
C6 C13 1_555 1_555
C11 C19 1_555 1_555
C12 C20 1_555 1_555
C18 C20 1_555 1_555
C21 C22 1_555 1_555
C24 C31 1_555 1_555
C34 C36 1_555 1_555
C41 C44 1_555 1_555

#END
