
#######################################################################
#
#                 Cambridge Crystallographic Data Centre
#                                CCDC 
#
#######################################################################
#
# If this CIF has been generated from an entry in the Cambridge 
# Structural Database, then it will include bibliographic, chemical, 
# crystal, experimental, refinement or atomic coordinate data resulting 
# from the CCDC's data processing and validation procedures.
#
#######################################################################

data_CICQIQ02
_chemical_formula_moiety         'C10 H10 I1 N2 1+,F6 P1 1-'
_chemical_name_systematic        'bis(pyridine)iodonium hexafluorophosphate'
_symmetry_cell_setting           monoclinic
_symmetry_space_group_name_H-M   'C 2/m'
_symmetry_Int_Tables_number      12
_space_group_name_Hall           '-C 2y'
loop_
_symmetry_equiv_pos_site_id
_symmetry_equiv_pos_as_xyz
1 x,y,z
2 1/2+x,1/2+y,z
3 -x,y,-z
4 1/2-x,1/2+y,-z
5 -x,-y,-z
6 1/2-x,1/2-y,-z
7 x,-y,z
8 1/2+x,1/2-y,z
_cell_length_a                   13.6291(6)
_cell_length_b                   6.6689(2)
_cell_length_c                   8.3311(4)
_cell_angle_alpha                90
_cell_angle_beta                 105.743(4)
_cell_angle_gamma                90
_cell_volume                     728.818
_exptl_crystal_colour            colorless
_exptl_crystal_description       needle
_cell_formula_units_Z            2
loop_
_atom_site_label
_atom_site_type_symbol
_atom_site_fract_x
_atom_site_fract_y
_atom_site_fract_z
I1 I 1.0000 0.0000 0.5000
N1 N 0.8529(6) 0.0000 0.5745(8)
C1 C 0.7633(6) 0.000000(7) 0.4537(10)
C2 C 0.6713(6) 0.000000(7) 0.4918(11)
C3 C 0.6710(7) 0.000000(7) 0.6589(13)
C4 C 0.7625(8) 0.000000(7) 0.7811(13)
C5 C 0.8533(7) 0.000000(7) 0.7357(10)
H1 H 0.7638 0.0000 0.3420
H2 H 0.6102 0.0000 0.4069
H3 H 0.6098 0.0000 0.6880
H4 H 0.7634 0.0000 0.8935
H5 H 0.9153 0.0000 0.8179
N1D N 1.1471(6) 0.0000 0.4255(8)
C1D C 1.2367(6) 0.000000(7) 0.5463(10)
C2D C 1.3287(6) 0.000000(7) 0.5082(11)
C3D C 1.3290(7) 0.000000(7) 0.3411(13)
C4D C 1.2375(8) 0.000000(7) 0.2189(13)
C5D C 1.1467(7) 0.000000(7) 0.2643(10)
H1D H 1.2362 0.0000 0.6580
H2D H 1.3898 0.0000 0.5931
H3D H 1.3902 0.0000 0.3120
H4D H 1.2366 0.0000 0.1065
H5D H 1.0847 0.0000 0.1821
P1 P 0.5000 0.0000 1.0000
F1 F 0.6201(5) 0.0000 1.0841(8)
F2 F 0.4856(4) 0.1675(8) 1.1281(6)
F1D F 0.3799(5) 0.0000 0.9159(8)
F2D F 0.5144(4) -0.1675(8) 0.8719(6)
F2B F 0.5144(4) 0.1675(8) 0.8719(6)
F2F F 0.4856(4) -0.1675(8) 1.1281(6)
loop_
_geom_bond_atom_site_label_1
_geom_bond_atom_site_label_2
_geom_bond_site_symmetry_1
_geom_bond_site_symmetry_2
I1 N1 1_555 1_555
N1 C1 1_555 1_555
C1 C2 1_555 1_555
C2 C3 1_555 1_555
C3 C4 1_555 1_555
C4 C5 1_555 1_555
C5 N1 1_555 1_555
H1 C1 1_555 1_555
H2 C2 1_555 1_555
H3 C3 1_555 1_555
H4 C4 1_555 1_555
H5 C5 1_555 1_555
P1 F1 1_555 1_555
F2 P1 1_555 1_555
N1D I1 1_555 1_555
C1D N1D 1_555 1_555
C2D C1D 1_555 1_555
C3D C2D 1_555 1_555
C4D C3D 1_555 1_555
C5D N1D 1_555 1_555
H1D C1D 1_555 1_555
H2D C2D 1_555 1_555
H3D C3D 1_555 1_555
H4D C4D 1_555 1_555
H5D C5D 1_555 1_555
F1D P1 1_555 1_555
F2D P1 1_555 1_555
F2B P1 1_555 1_555
F2F P1 1_555 1_555
C4D C5D 1_555 1_555

#END
