
#######################################################################
#
#                 Cambridge Crystallographic Data Centre
#                                CCDC 
#
#######################################################################
#
# If this CIF has been generated from an entry in the Cambridge 
# Structural Database, then it will include bibliographic, chemical, 
# crystal, experimental, refinement or atomic coordinate data resulting 
# from the CCDC's data processing and validation procedures.
#
#######################################################################

data_CICQOW01
_chemical_name_common            'bis(collidine)iodanium hexafluorophosphate'
_chemical_formula_moiety         'C16 H22 I1 N2 1+,F6 P1 1-'
_chemical_name_systematic        
'bis(2,4,6-trimethylpyridine)iodanium hexafluorophosphate'
_symmetry_cell_setting           triclinic
_symmetry_space_group_name_H-M   'P -1'
_symmetry_Int_Tables_number      2
_space_group_name_Hall           '-P 1'
loop_
_symmetry_equiv_pos_site_id
_symmetry_equiv_pos_as_xyz
1 x,y,z
2 -x,-y,-z
_cell_length_a                   8.0754(2)
_cell_length_b                   8.3550(3)
_cell_length_c                   15.6634(7)
_cell_angle_alpha                99.537(3)
_cell_angle_beta                 98.842(3)
_cell_angle_gamma                98.269(3)
_cell_volume                     1014.16
_exptl_crystal_colour            colorless
_exptl_crystal_description       plate
_cell_formula_units_Z            2
loop_
_atom_site_label
_atom_site_type_symbol
_atom_site_fract_x
_atom_site_fract_y
_atom_site_fract_z
I1 I 0.48038(3) 0.52009(3) 0.224666(14)
N1 N 0.3518(4) 0.5395(4) 0.0853(2)
C1 C 0.2656(6) 0.4033(5) 0.0285(3)
C2 C 0.1760(6) 0.4145(6) -0.0522(3)
C3 C 0.1728(6) 0.5644(6) -0.0770(3)
C4 C 0.2645(6) 0.7022(6) -0.0184(3)
C5 C 0.3539(6) 0.6893(5) 0.0621(3)
C6 C 0.2685(8) 0.2384(6) 0.0551(3)
C7 C 0.0745(7) 0.5753(8) -0.1653(3)
C8 C 0.4540(8) 0.8399(6) 0.1250(4)
N2 N 0.6061(4) 0.4963(4) 0.3617(2)
C9 C 0.6541(6) 0.6307(5) 0.4272(3)
C10 C 0.7378(6) 0.6171(6) 0.5083(3)
C11 C 0.7787(6) 0.4687(6) 0.5242(3)
C12 C 0.7267(6) 0.3335(6) 0.4568(3)
C13 C 0.6391(5) 0.3478(5) 0.3756(3)
C14 C 0.6141(8) 0.7927(6) 0.4096(4)
C15 C 0.8771(8) 0.4553(9) 0.6126(4)
C16 C 0.5807(7) 0.1989(6) 0.3038(4)
H1 H 0.2224 0.1501 0.0067
H2 H 0.2062 0.2288 0.1029
H3 H 0.3849 0.2266 0.0765
H4 H 0.1150 0.3208 -0.0904
H5 H 0.2646 0.8070 -0.0331
H6 H 0.5712 0.8304 0.1388
H7 H 0.4100 0.8577 0.1787
H8 H 0.4431 0.9352 0.0981
H9 H 0.1232 0.5256 -0.2117
H10 H 0.0735 0.6891 -0.1686
H11 H -0.0407 0.5202 -0.1716
H12 H 0.6458 0.8711 0.4639
H13 H 0.4955 0.7832 0.3888
H14 H 0.6770 0.8272 0.3664
H15 H 0.7652 0.7101 0.5525
H16 H 0.8904 0.3412 0.6136
H17 H 0.9898 0.5211 0.6243
H18 H 0.8201 0.4901 0.6598
H19 H 0.7512 0.2301 0.4652
H20 H 0.6395 0.2086 0.2555
H21 H 0.4587 0.1808 0.2815
H22 H 0.6083 0.1027 0.3254
P1 P 0.03725(16) -0.01929(16) 0.26893(9)
F1 F -0.0458(8) 0.0879(9) 0.3347(5)
F2 F -0.1080(8) -0.0023(9) 0.1931(5)
F3 F 0.1495(7) 0.1434(7) 0.2583(4)
F4 F 0.1820(9) -0.0323(8) 0.3436(5)
F5 F -0.0799(8) -0.1818(7) 0.2757(5)
F6 F 0.1178(8) -0.1274(11) 0.2045(6)
loop_
_geom_bond_atom_site_label_1
_geom_bond_atom_site_label_2
_geom_bond_site_symmetry_1
_geom_bond_site_symmetry_2
I1 N1 1_555 1_555
N1 C1 1_555 1_555
C1 C2 1_555 1_555
C2 C3 1_555 1_555
C3 C4 1_555 1_555
C4 C5 1_555 1_555
C5 N1 1_555 1_555
C6 C1 1_555 1_555
C7 C3 1_555 1_555
C8 C5 1_555 1_555
N2 I1 1_555 1_555
C9 N2 1_555 1_555
C10 C9 1_555 1_555
C11 C10 1_555 1_555
C12 C11 1_555 1_555
C13 N2 1_555 1_555
C14 C9 1_555 1_555
C15 C11 1_555 1_555
C16 C13 1_555 1_555
H1 C6 1_555 1_555
H2 C6 1_555 1_555
H3 C6 1_555 1_555
H4 C2 1_555 1_555
H5 C4 1_555 1_555
H6 C8 1_555 1_555
H7 C8 1_555 1_555
H8 C8 1_555 1_555
H9 C7 1_555 1_555
H10 C7 1_555 1_555
H11 C7 1_555 1_555
H12 C14 1_555 1_555
H13 C14 1_555 1_555
H14 C14 1_555 1_555
H15 C10 1_555 1_555
H16 C15 1_555 1_555
H17 C15 1_555 1_555
H18 C15 1_555 1_555
H19 C12 1_555 1_555
H20 C16 1_555 1_555
H21 C16 1_555 1_555
H22 C16 1_555 1_555
P1 F1 1_555 1_555
F2 P1 1_555 1_555
F3 P1 1_555 1_555
F4 P1 1_555 1_555
F5 P1 1_555 1_555
F6 P1 1_555 1_555
C12 C13 1_555 1_555

#END
