
#######################################################################
#
#                 Cambridge Crystallographic Data Centre
#                                CCDC 
#
#######################################################################
#
# If this CIF has been generated from an entry in the Cambridge 
# Structural Database, then it will include bibliographic, chemical, 
# crystal, experimental, refinement or atomic coordinate data resulting 
# from the CCDC's data processing and validation procedures.
#
#######################################################################

data_CICQIQ01
_chemical_formula_moiety         'C10 H10 I1 N2 1+,F6 P1 1-'
_chemical_name_systematic        'bis(pyridine)iodonium hexafluorophosphate'
_symmetry_cell_setting           monoclinic
_symmetry_space_group_name_H-M   'C 2/m'
_symmetry_Int_Tables_number      12
_space_group_name_Hall           '-C 2y'
loop_
_symmetry_equiv_pos_site_id
_symmetry_equiv_pos_as_xyz
1 x,y,z
2 1/2+x,1/2+y,z
3 -x,y,-z
4 1/2-x,1/2+y,-z
5 -x,-y,-z
6 1/2-x,1/2-y,-z
7 x,-y,z
8 1/2+x,1/2-y,z
_cell_length_a                   13.6186(6)
_cell_length_b                   6.8104(2)
_cell_length_c                   8.4412(4)
_cell_angle_alpha                90
_cell_angle_beta                 106.491(4)
_cell_angle_gamma                90
_cell_volume                     750.7
_exptl_crystal_colour            colorless
_exptl_crystal_description       needle
_cell_formula_units_Z            2
loop_
_atom_site_label
_atom_site_type_symbol
_atom_site_fract_x
_atom_site_fract_y
_atom_site_fract_z
I1 I 1.0000 0.0000 0.5000
N1 N 0.8544(4) 0.0000 0.5778(6)
C1 C 0.7637(5) 0.000000(7) 0.4604(8)
C2 C 0.6728(5) 0.000000(7) 0.5028(10)
C3 C 0.6761(7) 0.000000(7) 0.6653(13)
C4 C 0.7679(9) 0.000000(7) 0.7830(12)
C5 C 0.8582(6) 0.000000(7) 0.7354(8)
H1 H 0.7624 0.0000 0.3485
H2 H 0.6105 0.0000 0.4200
H3 H 0.6150 0.0000 0.6950
H4 H 0.7709 0.0000 0.8951
H5 H 0.9216 0.0000 0.8151
N1D N 1.1456(4) 0.0000 0.4222(6)
C1D C 1.2363(5) 0.000000(7) 0.5396(8)
C2D C 1.3272(5) 0.000000(7) 0.4972(10)
C3D C 1.3239(7) 0.000000(7) 0.3347(13)
C4D C 1.2321(9) 0.000000(7) 0.2170(12)
C5D C 1.1418(6) 0.000000(7) 0.2646(8)
H1D H 1.2376 0.0000 0.6515
H2D H 1.3895 0.0000 0.5800
H3D H 1.3850 0.0000 0.3050
H4D H 1.2291 0.0000 0.1049
H5D H 1.0784 0.0000 0.1849
P1 P 0.5000 0.0000 1.0000
F1 F 0.6197(5) 0.0000 1.0816(10)
F2 F 0.4847(5) 0.1613(9) 1.1241(8)
F1D F 0.3803(5) 0.0000 0.9184(10)
F2D F 0.5153(5) -0.1613(9) 0.8759(8)
F2F F 0.4847(5) -0.1613(9) 1.1241(8)
F2B F 0.5153(5) 0.1613(9) 0.8759(8)
loop_
_geom_bond_atom_site_label_1
_geom_bond_atom_site_label_2
_geom_bond_site_symmetry_1
_geom_bond_site_symmetry_2
I1 N1 1_555 1_555
N1 C1 1_555 1_555
C1 C2 1_555 1_555
C2 C3 1_555 1_555
C3 C4 1_555 1_555
C4 C5 1_555 1_555
C5 N1 1_555 1_555
H1 C1 1_555 1_555
H2 C2 1_555 1_555
H3 C3 1_555 1_555
H4 C4 1_555 1_555
H5 C5 1_555 1_555
P1 F1 1_555 1_555
F2 P1 1_555 1_555
N1D I1 1_555 1_555
C1D N1D 1_555 1_555
C2D C1D 1_555 1_555
C3D C2D 1_555 1_555
C4D C3D 1_555 1_555
C5D N1D 1_555 1_555
H1D C1D 1_555 1_555
H2D C2D 1_555 1_555
H3D C3D 1_555 1_555
H4D C4D 1_555 1_555
H5D C5D 1_555 1_555
F1D P1 1_555 1_555
F2D P1 1_555 1_555
F2F P1 1_555 1_555
F2B P1 1_555 1_555
C4D C5D 1_555 1_555

#END
