
#######################################################################
#
#                 Cambridge Crystallographic Data Centre
#                                CCDC 
#
#######################################################################
#
# If this CIF has been generated from an entry in the Cambridge 
# Structural Database, then it will include bibliographic, chemical, 
# crystal, experimental, refinement or atomic coordinate data resulting 
# from the CCDC's data processing and validation procedures.
#
#######################################################################

data_CICRUC
_chemical_formula_moiety         'C14 H12 N2 O2'
_chemical_name_systematic        N,N'-bis(4-Hydroxybenzylidene)hydrazine
_symmetry_cell_setting           monoclinic
_symmetry_space_group_name_H-M   'P 21/c'
_symmetry_Int_Tables_number      14
_space_group_name_Hall           '-P 2ybc'
loop_
_symmetry_equiv_pos_site_id
_symmetry_equiv_pos_as_xyz
1 x,y,z
2 -x,1/2+y,1/2-z
3 -x,-y,-z
4 x,1/2-y,1/2+z
_cell_length_a                   12.587(3)
_cell_length_b                   8.5349(17)
_cell_length_c                   11.897(2)
_cell_angle_alpha                90
_cell_angle_beta                 114.12(3)
_cell_angle_gamma                90
_cell_volume                     1166.49
_exptl_crystal_colour            colorless
_chemical_melting_point          '528 K'
_cell_formula_units_Z            4
loop_
_atom_site_label
_atom_site_type_symbol
_atom_site_fract_x
_atom_site_fract_y
_atom_site_fract_z
O1 O 0.72875(8) 0.61870(12) 0.87357(10)
H1 H 0.7962 0.6248 0.8759
O2 O -0.04201(10) -0.33486(15) -0.09068(12)
H2 H -0.1107 -0.3454 -0.0975
N1 N 0.36829(10) 0.16168(14) 0.46180(12)
N2 N 0.32543(10) 0.06609(15) 0.35537(12)
C1 C 0.66180(12) 0.52650(16) 0.77724(13)
C2 C 0.54791(11) 0.48685(16) 0.75810(13)
H3 H 0.5150 0.5274 0.8111
C3 C 0.48322(12) 0.38881(16) 0.66218(14)
H4 H 0.4062 0.3614 0.6502
C4 C 0.52981(12) 0.32924(16) 0.58232(13)
C5 C 0.64248(12) 0.37493(17) 0.60033(14)
H5 H 0.6743 0.3385 0.5452
C6 C 0.70851(12) 0.47210(18) 0.69680(14)
H6 H 0.7850 0.5014 0.7080
C7 C 0.46655(12) 0.22489(16) 0.47989(14)
H7 H 0.4999 0.2022 0.4231
C8 C 0.21725(12) 0.03528(17) 0.31936(14)
H8 H 0.1770 0.0776 0.3647
C9 C 0.15253(12) -0.06125(17) 0.21241(14)
C10 C 0.03306(13) -0.07915(18) 0.17746(15)
H9 H -0.0030 -0.0285 0.2239
C11 C -0.03409(12) -0.16936(18) 0.07641(15)
H10 H -0.1155 -0.1793 0.0533
C12 C 0.01847(13) -0.24519(18) 0.00911(14)
C13 C 0.13789(13) -0.22885(19) 0.04311(15)
H11 H 0.1738 -0.2808 -0.0029
C14 C 0.20428(12) -0.13778(18) 0.14312(15)
H12 H 0.2855 -0.1269 0.1652
loop_
_geom_bond_atom_site_label_1
_geom_bond_atom_site_label_2
_geom_bond_site_symmetry_1
_geom_bond_site_symmetry_2
O1 H1 1_555 1_555
O2 H2 1_555 1_555
N1 N2 1_555 1_555
N2 C8 1_555 1_555
C1 O1 1_555 1_555
C2 C1 1_555 1_555
H3 C2 1_555 1_555
C3 C2 1_555 1_555
H4 C3 1_555 1_555
C4 C3 1_555 1_555
C5 C4 1_555 1_555
H5 C5 1_555 1_555
C6 C1 1_555 1_555
H6 C6 1_555 1_555
C7 N1 1_555 1_555
H7 C7 1_555 1_555
C8 H8 1_555 1_555
C9 C8 1_555 1_555
C10 C9 1_555 1_555
H9 C10 1_555 1_555
C11 C10 1_555 1_555
H10 C11 1_555 1_555
C12 O2 1_555 1_555
C13 C12 1_555 1_555
H11 C13 1_555 1_555
C14 C9 1_555 1_555
H12 C14 1_555 1_555
C4 C7 1_555 1_555
C5 C6 1_555 1_555
C11 C12 1_555 1_555
C13 C14 1_555 1_555

#END
