
#######################################################################
#
#                 Cambridge Crystallographic Data Centre
#                                CCDC 
#
#######################################################################
#
# If this CIF has been generated from an entry in the Cambridge 
# Structural Database, then it will include bibliographic, chemical, 
# crystal, experimental, refinement or atomic coordinate data resulting 
# from the CCDC's data processing and validation procedures.
#
#######################################################################

data_CICVUF
_chemical_name_common            
'18-Crown-6 bis(2-(2-benzimidazolyl)-guanidine)'
_chemical_formula_moiety         'C12 H24 O6,2(C8 H9 N5)'
_chemical_name_systematic        
'1,4,7,10,13,16-Hexaoxacyclo-octadecane bis(2-(2-benzimidazolyl)-guanidine) clathrate'
_symmetry_cell_setting           monoclinic
_symmetry_space_group_name_H-M   'C 2/c'
_symmetry_Int_Tables_number      15
_space_group_name_Hall           '-C 2yn'
loop_
_symmetry_equiv_pos_site_id
_symmetry_equiv_pos_as_xyz
1 x,y,z
2 1/2+x,1/2+y,z
3 -x,y,1/2-z
4 1/2-x,1/2+y,1/2-z
5 -x,-y,-z
6 1/2-x,1/2-y,-z
7 x,-y,1/2+z
8 1/2+x,1/2-y,1/2+z
_cell_length_a                   20.894(4)
_cell_length_b                   8.399(1)
_cell_length_c                   18.330(3)
_cell_angle_alpha                90
_cell_angle_beta                 93.09(2)
_cell_angle_gamma                90
_cell_volume                     3212.03
_cell_formula_units_Z            4
loop_
_atom_site_label
_atom_site_type_symbol
_atom_site_fract_x
_atom_site_fract_y
_atom_site_fract_z
O1 O 0.41040 0.14410 -0.10380
C1 C 0.44070 0.20130 -0.16660
C2 C 0.49850 0.29400 -0.14200
O2 O 0.54310 0.18530 -0.10930
C3 C 0.60270 0.25130 -0.09250
C4 C 0.64780 0.13730 -0.05620
O3 O 0.62860 0.09600 0.01290
C5 C 0.67340 0.00270 0.05440
C6 C 0.35670 0.05040 -0.12320
H6 H 0.45400 0.10300 -0.20100
H7 H 0.40800 0.27900 -0.19700
H8 H 0.51900 0.35000 -0.18900
H9 H 0.48600 0.38400 -0.10300
H10 H 0.62300 0.29400 -0.14200
H11 H 0.59700 0.35000 -0.05600
H12 H 0.65000 0.03100 -0.08900
H13 H 0.69500 0.19000 -0.05000
H14 H 0.68700 -0.10000 0.02300
H15 H 0.71500 0.07400 0.06800
H16 H 0.32300 0.12000 -0.15600
H17 H 0.37100 -0.05200 -0.15400
C6D C 0.64330 -0.05040 0.12320
C5D C 0.32660 -0.00270 -0.05440
O1D O 0.58960 -0.14410 0.10380
H16D H 0.67700 -0.12000 0.15600
H17D H 0.62900 0.05200 0.15400
O3D O 0.37140 -0.09600 -0.01290
H14D H 0.31300 0.10000 -0.02300
H15D H 0.28500 -0.07400 -0.06800
C1D C 0.55930 -0.20130 0.16660
C4D C 0.35220 -0.13730 0.05620
C2D C 0.50150 -0.29400 0.14200
H6D H 0.54600 -0.10300 0.20100
H7D H 0.59200 -0.27900 0.19700
C3D C 0.39730 -0.25130 0.09250
H12D H 0.35000 -0.03100 0.08900
H13D H 0.30500 -0.19000 0.05000
O2D O 0.45690 -0.18530 0.10930
H8D H 0.48100 -0.35000 0.18900
H9D H 0.51400 -0.38400 0.10300
H10D H 0.37700 -0.29400 0.14200
H11D H 0.40300 -0.35000 0.05600
N1 N 0.39900 0.31120 0.04590
N2 N 0.49420 0.17730 0.04820
C7 C 0.44830 0.24600 0.08480
N3 N 0.45540 0.24770 0.15720
C8 C 0.41050 0.31800 0.19760
N4 N 0.35770 0.39820 0.17680
C9 C 0.33240 0.44940 0.24210
C10 C 0.27940 0.54370 0.25370
C11 C 0.26570 0.57720 0.32550
C12 C 0.30360 0.51910 0.38420
C13 C 0.35760 0.42780 0.37390
C14 C 0.37090 0.39520 0.30190
N5 N 0.42010 0.31090 0.27230
H1 H 0.40000 0.29300 -0.00200
H2 H 0.36800 0.35200 0.07300
H3 H 0.52300 0.13000 0.07200
H4 H 0.48900 0.16800 0.00100
H5 H 0.45500 0.28000 0.29300
H18 H 0.24900 0.58700 0.20800
H19 H 0.22500 0.65100 0.33600
H20 H 0.29100 0.54500 0.43900
H21 H 0.38800 0.38300 0.41900
loop_
_geom_bond_atom_site_label_1
_geom_bond_atom_site_label_2
_geom_bond_site_symmetry_1
_geom_bond_site_symmetry_2
O1 C1 1_555 1_555
C1 C2 1_555 1_555
C2 O2 1_555 1_555
O2 C3 1_555 1_555
C3 C4 1_555 1_555
C4 O3 1_555 1_555
O3 C5 1_555 1_555
C5 H14 1_555 1_555
C6 O1 1_555 1_555
N1 C7 1_555 1_555
N2 C7 1_555 1_555
C7 N3 1_555 1_555
N3 C8 1_555 1_555
C8 N4 1_555 1_555
N4 C9 1_555 1_555
C9 C10 1_555 1_555
C10 C11 1_555 1_555
C11 C12 1_555 1_555
C12 C13 1_555 1_555
C13 C14 1_555 1_555
C14 C9 1_555 1_555
N5 C8 1_555 1_555
H1 N1 1_555 1_555
H2 N1 1_555 1_555
H3 N2 1_555 1_555
H4 N2 1_555 1_555
H5 N5 1_555 1_555
H6 C1 1_555 1_555
H7 C1 1_555 1_555
H8 C2 1_555 1_555
H9 C2 1_555 1_555
H10 C3 1_555 1_555
H11 C3 1_555 1_555
H12 C4 1_555 1_555
H13 C4 1_555 1_555
H15 C5 1_555 1_555
H16 C6 1_555 1_555
H17 C6 1_555 1_555
H18 C10 1_555 1_555
H19 C11 1_555 1_555
H20 C12 1_555 1_555
H21 C13 1_555 1_555
C6D C5 1_555 1_555
C5D C6 1_555 1_555
O1D C6D 1_555 1_555
H16D C6D 1_555 1_555
H17D C6D 1_555 1_555
O3D C5D 1_555 1_555
H14D C5D 1_555 1_555
H15D C5D 1_555 1_555
C1D O1D 1_555 1_555
C4D O3D 1_555 1_555
C2D C1D 1_555 1_555
H6D C1D 1_555 1_555
H7D C1D 1_555 1_555
C3D C4D 1_555 1_555
H12D C4D 1_555 1_555
H13D C4D 1_555 1_555
O2D C2D 1_555 1_555
H8D C2D 1_555 1_555
H9D C2D 1_555 1_555
H10D C3D 1_555 1_555
H11D C3D 1_555 1_555
C14 N5 1_555 1_555
C3D O2D 1_555 1_555

#END
