
#######################################################################
#
#                 Cambridge Crystallographic Data Centre
#                                CCDC 
#
#######################################################################
#
# If this CIF has been generated from an entry in the Cambridge 
# Structural Database, then it will include bibliographic, chemical, 
# crystal, experimental, refinement or atomic coordinate data resulting 
# from the CCDC's data processing and validation procedures.
#
#######################################################################

data_CICYIW
_chemical_formula_moiety         'C8 H4 N2 S1'
_chemical_name_systematic        2-Thienylmethylene-malononitrile
_symmetry_cell_setting           monoclinic
_symmetry_space_group_name_H-M   'P 21/c'
_symmetry_Int_Tables_number      14
_space_group_name_Hall           '-P 2ybc'
loop_
_symmetry_equiv_pos_site_id
_symmetry_equiv_pos_as_xyz
1 x,y,z
2 -x,1/2+y,1/2-z
3 -x,-y,-z
4 x,1/2-y,1/2+z
_cell_length_a                   5.701(2)
_cell_length_b                   18.613(4)
_cell_length_c                   7.473(3)
_cell_angle_alpha                90
_cell_angle_beta                 97.57(3)
_cell_angle_gamma                90
_cell_volume                     786.069
_cell_formula_units_Z            4
loop_
_atom_site_label
_atom_site_type_symbol
_atom_site_fract_x
_atom_site_fract_y
_atom_site_fract_z
S1 S 0.40530 0.35740 0.16230
N1 N 0.93790 0.09430 0.37810
N2 N 0.28150 0.18520 0.11300
C1 C 0.43600 0.44720 0.19020
C2 C 0.64480 0.46610 0.28670
C3 C 0.79650 0.40980 0.34300
C4 C 0.68180 0.34280 0.28390
C5 C 0.78710 0.27450 0.32110
C6 C 0.69870 0.20810 0.28160
C7 C 0.83380 0.14470 0.33410
C8 C 0.46590 0.19550 0.18780
H1 H 0.31200 0.48100 0.13800
H2 H 0.68900 0.50800 0.31700
H3 H 0.94500 0.41300 0.41100
H4 H 0.95000 0.27700 0.38900
loop_
_geom_bond_atom_site_label_1
_geom_bond_atom_site_label_2
_geom_bond_site_symmetry_1
_geom_bond_site_symmetry_2
S1 C1 1_555 1_555
N1 C7 1_555 1_555
N2 C8 1_555 1_555
C1 C2 1_555 1_555
C2 C3 1_555 1_555
C3 C4 1_555 1_555
C4 S1 1_555 1_555
C5 C4 1_555 1_555
C6 C5 1_555 1_555
C7 C6 1_555 1_555
C8 C6 1_555 1_555
H1 C1 1_555 1_555
H2 C2 1_555 1_555
H3 C3 1_555 1_555
H4 C5 1_555 1_555

#END
