
#######################################################################
#
#                 Cambridge Crystallographic Data Centre
#                                CCDC 
#
#######################################################################
#
# If this CIF has been generated from an entry in the Cambridge 
# Structural Database, then it will include bibliographic, chemical, 
# crystal, experimental, refinement or atomic coordinate data resulting 
# from the CCDC's data processing and validation procedures.
#
#######################################################################

data_CIDGUS
_chemical_formula_moiety         'C14 H18 Cl2 O2'
_chemical_name_systematic        
(4RS,5RS)-syn-5-(2,6-Dichlorophenyl)-5-hydroxy-2,2,4-trimethylpentan-3-one
_symmetry_cell_setting           monoclinic
_symmetry_space_group_name_H-M   'P 21/c'
_symmetry_Int_Tables_number      14
_space_group_name_Hall           '-P 2ybc'
loop_
_symmetry_equiv_pos_site_id
_symmetry_equiv_pos_as_xyz
1 x,y,z
2 -x,1/2+y,1/2-z
3 -x,-y,-z
4 x,1/2-y,1/2+z
_cell_length_a                   14.5012(4)
_cell_length_b                   16.6918(4)
_cell_length_c                   12.0839(3)
_cell_angle_alpha                90
_cell_angle_beta                 106.741(3)
_cell_angle_gamma                90
_cell_volume                     2800.95
_exptl_crystal_colour            colorless
_exptl_crystal_description       prism
_chemical_melting_point          '64.0-67.0 deg.C'
_cell_formula_units_Z            8
_exptl_crystal_recrystallization_method dichloromethane/hexane
loop_
_atom_site_label
_atom_site_type_symbol
_atom_site_fract_x
_atom_site_fract_y
_atom_site_fract_z
Cl1 Cl 0.31268(4) 0.53883(3) 0.17510(4)
Cl2 Cl 0.10815(4) 0.44835(3) 0.47022(4)
O1 O 0.37377(9) 0.44574(8) 0.40690(11)
H1 H 0.3835 0.4645 0.4738
O2 O 0.11506(10) 0.31769(9) 0.27620(12)
C1 C 0.22492(14) 0.55287(11) 0.24609(16)
C2 C 0.21129(13) 0.49651(11) 0.32518(15)
C3 C 0.13632(14) 0.51398(11) 0.37238(16)
C4 C 0.08025(15) 0.58202(12) 0.34574(17)
H2 H 0.0302 0.5914 0.3805
C5 C 0.09773(15) 0.63618(13) 0.26805(18)
H3 H 0.0602 0.6836 0.2496
C6 C 0.17016(15) 0.62134(12) 0.21684(18)
H4 H 0.1819 0.6579 0.1622
C7 C 0.27520(13) 0.42288(11) 0.36253(16)
H5 H 0.2556 0.3959 0.4261
C8 C 0.26817(13) 0.36131(11) 0.26652(16)
H6 H 0.2929 0.3856 0.2049
C9 C 0.16455(14) 0.33359(11) 0.21356(17)
C10 C 0.12440(14) 0.32502(12) 0.08241(17)
C11 C 0.32830(15) 0.28740(12) 0.31587(17)
H7 H 0.3027 0.2623 0.3742
H8 H 0.3953 0.3034 0.3515
H9 H 0.3254 0.2491 0.2535
C12 C 0.0850(2) 0.40615(14) 0.0370(2)
H10 H 0.1377 0.4452 0.0529
H11 H 0.0372 0.4231 0.0753
H12 H 0.0547 0.4028 -0.0465
C13 C 0.20041(19) 0.2983(2) 0.0259(2)
H13 H 0.1707 0.2915 -0.0573
H14 H 0.2283 0.2473 0.0596
H15 H 0.2512 0.3390 0.0389
C14 C 0.0440(2) 0.26377(16) 0.0549(2)
H16 H -0.0090 0.2830 0.0832
H17 H 0.0682 0.2129 0.0926
H18 H 0.0207 0.2558 -0.0289
Cl3 Cl 0.35019(4) 0.64494(3) 0.50335(4)
Cl4 Cl 0.55020(4) 0.60309(3) 0.95754(4)
O3 O 0.45690(9) 0.50060(8) 0.63137(11)
H19 H 0.5152 0.5105 0.6393
O4 O 0.33705(11) 0.53645(9) 0.90538(12)
C15 C 0.40983(13) 0.68010(12) 0.64140(16)
C16 C 0.44536(13) 0.62657(11) 0.73291(16)
C17 C 0.49473(13) 0.66197(12) 0.83786(16)
C18 C 0.50458(14) 0.74397(12) 0.85289(17)
H20 H 0.5374 0.7655 0.9265
C19 C 0.46668(14) 0.79406(12) 0.76092(18)
H21 H 0.4727 0.8505 0.7709
C20 C 0.41981(14) 0.76242(12) 0.65392(17)
H22 H 0.3947 0.7967 0.5896
C21 C 0.42887(14) 0.53664(11) 0.72361(16)
H23 H 0.4688 0.5121 0.7973
C22 C 0.32332(14) 0.51375(11) 0.70919(17)
H24 H 0.2818 0.5336 0.6330
C23 C 0.29095(14) 0.55129(11) 0.80677(17)
C24 C 0.20028(14) 0.60237(12) 0.78419(16)
C25 C 0.31426(15) 0.42232(11) 0.71539(18)
H25 H 0.3344 0.3975 0.6526
H26 H 0.2471 0.4081 0.7076
H27 H 0.3554 0.4030 0.7899
C26 C 0.17470(17) 0.64801(14) 0.67028(19)
H28 H 0.1644 0.6100 0.6061
H29 H 0.2275 0.6844 0.6693
H30 H 0.1157 0.6790 0.6622
C27 C 0.11929(17) 0.54470(16) 0.7824(3)
H31 H 0.1146 0.5045 0.7219
H32 H 0.0585 0.5742 0.7665
H33 H 0.1324 0.5180 0.8575
C28 C 0.2136(2) 0.66261(17) 0.8817(2)
H34 H 0.1541 0.6933 0.8709
H35 H 0.2664 0.6992 0.8812
H36 H 0.2290 0.6342 0.9557
loop_
_geom_bond_atom_site_label_1
_geom_bond_atom_site_label_2
_geom_bond_site_symmetry_1
_geom_bond_site_symmetry_2
Cl1 C1 1_555 1_555
Cl2 C3 1_555 1_555
O1 H1 1_555 1_555
O2 C9 1_555 1_555
C1 C2 1_555 1_555
C2 C3 1_555 1_555
C3 C4 1_555 1_555
C4 H2 1_555 1_555
C5 C4 1_555 1_555
H3 C5 1_555 1_555
C6 C1 1_555 1_555
H4 C6 1_555 1_555
C7 O1 1_555 1_555
H5 C7 1_555 1_555
C8 C7 1_555 1_555
H6 C8 1_555 1_555
C9 C8 1_555 1_555
C10 C9 1_555 1_555
C11 C8 1_555 1_555
H7 C11 1_555 1_555
H8 C11 1_555 1_555
H9 C11 1_555 1_555
C12 C10 1_555 1_555
H10 C12 1_555 1_555
H11 C12 1_555 1_555
H12 C12 1_555 1_555
C13 C10 1_555 1_555
H13 C13 1_555 1_555
H14 C13 1_555 1_555
H15 C13 1_555 1_555
C14 C10 1_555 1_555
H16 C14 1_555 1_555
H17 C14 1_555 1_555
H18 C14 1_555 1_555
Cl3 C15 1_555 1_555
Cl4 C17 1_555 1_555
O3 H19 1_555 1_555
O4 C23 1_555 1_555
C15 C16 1_555 1_555
C16 C17 1_555 1_555
C17 C18 1_555 1_555
C18 H20 1_555 1_555
C19 C18 1_555 1_555
H21 C19 1_555 1_555
C20 C15 1_555 1_555
H22 C20 1_555 1_555
C21 O3 1_555 1_555
H23 C21 1_555 1_555
C22 C21 1_555 1_555
H24 C22 1_555 1_555
C23 C22 1_555 1_555
C24 C23 1_555 1_555
C25 C22 1_555 1_555
H25 C25 1_555 1_555
H26 C25 1_555 1_555
H27 C25 1_555 1_555
C26 C24 1_555 1_555
H28 C26 1_555 1_555
H29 C26 1_555 1_555
H30 C26 1_555 1_555
C27 C24 1_555 1_555
H31 C27 1_555 1_555
H32 C27 1_555 1_555
H33 C27 1_555 1_555
C28 C24 1_555 1_555
H34 C28 1_555 1_555
H35 C28 1_555 1_555
H36 C28 1_555 1_555
C2 C7 1_555 1_555
C5 C6 1_555 1_555
C16 C21 1_555 1_555
C19 C20 1_555 1_555

#END
