
#######################################################################
#
#                 Cambridge Crystallographic Data Centre
#                                CCDC 
#
#######################################################################
#
# If this CIF has been generated from an entry in the Cambridge 
# Structural Database, then it will include bibliographic, chemical, 
# crystal, experimental, refinement or atomic coordinate data resulting 
# from the CCDC's data processing and validation procedures.
#
#######################################################################

data_CIDGOM
_chemical_formula_moiety         'C19 H13 Cl2 N1 O1'
_chemical_name_systematic        
(2RS,3SR)-syn-3-(2,6-Dichlorophenyl)-3-hydroxy-2-(2-naphthyl)propanenitrile
_symmetry_cell_setting           monoclinic
_symmetry_space_group_name_H-M   'P 21/c'
_symmetry_Int_Tables_number      14
_space_group_name_Hall           '-P 2ybc'
loop_
_symmetry_equiv_pos_site_id
_symmetry_equiv_pos_as_xyz
1 x,y,z
2 -x,1/2+y,1/2-z
3 -x,-y,-z
4 x,1/2-y,1/2+z
_cell_length_a                   14.244(4)
_cell_length_b                   14.943(4)
_cell_length_c                   7.233(3)
_cell_angle_alpha                90
_cell_angle_beta                 90.25(3)
_cell_angle_gamma                90
_cell_volume                     1539.52
_exptl_crystal_colour            colorless
_exptl_crystal_description       needle
_chemical_melting_point          '173.2-175.6 deg.C'
_cell_formula_units_Z            4
_exptl_crystal_recrystallization_method dichloromethane/hexane
loop_
_atom_site_label
_atom_site_type_symbol
_atom_site_fract_x
_atom_site_fract_y
_atom_site_fract_z
Cl1 Cl 0.36134(9) 0.41101(8) 0.24525(17)
Cl2 Cl 0.39281(9) 0.77118(8) 0.12873(16)
O1 O 0.2550(2) 0.6415(2) -0.0238(4)
H1 H 0.2582 0.6069 -0.1150
N1 N 0.2445(3) 0.5565(3) 0.6121(6)
C1 C 0.4390(3) 0.6660(3) 0.1742(6)
C2 C 0.5349(3) 0.6620(3) 0.2105(6)
H2 H 0.5720 0.7148 0.2060
C3 C 0.5757(4) 0.5812(3) 0.2529(7)
H3 H 0.6414 0.5780 0.2754
C4 C 0.5216(3) 0.5043(3) 0.2630(7)
H4 H 0.5496 0.4486 0.2939
C5 C 0.4257(3) 0.5096(3) 0.2275(6)
C6 C 0.3814(3) 0.5903(3) 0.1812(6)
C7 C 0.2759(3) 0.5933(3) 0.1408(6)
H5 H 0.2524 0.5306 0.1268
C8 C 0.2195(3) 0.6401(3) 0.2971(6)
H6 H 0.2436 0.7026 0.3112
C9 C 0.2348(3) 0.5920(3) 0.4740(7)
C10 C 0.1158(3) 0.6445(3) 0.2512(6)
C11 C 0.0742(3) 0.7244(3) 0.2144(6)
H7 H 0.1100 0.7778 0.2252
C12 C -0.0215(3) 0.7300(3) 0.1602(6)
C13 C -0.0655(4) 0.8126(4) 0.1196(6)
H8 H -0.0310 0.8668 0.1299
C14 C -0.1574(4) 0.8146(4) 0.0658(7)
H9 H -0.1866 0.8703 0.0394
C15 C -0.2088(4) 0.7357(4) 0.0490(7)
H10 H -0.2725 0.7383 0.0099
C16 C -0.1691(4) 0.6551(4) 0.0879(7)
H11 H -0.2055 0.6021 0.0773
C17 C -0.0739(3) 0.6495(3) 0.1441(6)
C18 C -0.0301(4) 0.5676(3) 0.1866(7)
H12 H -0.0653 0.5137 0.1792
C19 C 0.0624(4) 0.5643(3) 0.2385(7)
H13 H 0.0909 0.5084 0.2661
loop_
_geom_bond_atom_site_label_1
_geom_bond_atom_site_label_2
_geom_bond_site_symmetry_1
_geom_bond_site_symmetry_2
Cl1 C5 1_555 1_555
Cl2 C1 1_555 1_555
O1 H1 1_555 1_555
N1 C9 1_555 1_555
C1 C2 1_555 1_555
C2 H2 1_555 1_555
C3 C2 1_555 1_555
H3 C3 1_555 1_555
C4 C3 1_555 1_555
H4 C4 1_555 1_555
C5 C4 1_555 1_555
C6 C1 1_555 1_555
C7 O1 1_555 1_555
H5 C7 1_555 1_555
C8 C7 1_555 1_555
H6 C8 1_555 1_555
C9 C8 1_555 1_555
C10 C8 1_555 1_555
C11 C10 1_555 1_555
H7 C11 1_555 1_555
C12 C11 1_555 1_555
C13 C12 1_555 1_555
H8 C13 1_555 1_555
C14 C13 1_555 1_555
H9 C14 1_555 1_555
C15 C14 1_555 1_555
H10 C15 1_555 1_555
C16 C15 1_555 1_555
H11 C16 1_555 1_555
C17 C12 1_555 1_555
C18 C17 1_555 1_555
H12 C18 1_555 1_555
C19 C10 1_555 1_555
H13 C19 1_555 1_555
C5 C6 1_555 1_555
C6 C7 1_555 1_555
C16 C17 1_555 1_555
C18 C19 1_555 1_555

#END
