
#######################################################################
#
#                 Cambridge Crystallographic Data Centre
#                                CCDC 
#
#######################################################################
#
# If this CIF has been generated from an entry in the Cambridge 
# Structural Database, then it will include bibliographic, chemical, 
# crystal, experimental, refinement or atomic coordinate data resulting 
# from the CCDC's data processing and validation procedures.
#
#######################################################################

data_CIDMUX
_chemical_formula_moiety         
'C24 H60 N8 O3 6+,F1 1-,5(Cl1 O4 1-),0.5(H2 O1)'
_chemical_name_systematic        
'7,19,30-Trioxa-1,13-diaza-4,10,16,22,27,33-hexa-azoniabicyclo(11.11.11)pentacontane fluoride pentachlorate hemihydrate'
_symmetry_cell_setting           monoclinic
_symmetry_space_group_name_H-M   'P 21/c'
_symmetry_Int_Tables_number      14
_space_group_name_Hall           '-P 2ybc'
loop_
_symmetry_equiv_pos_site_id
_symmetry_equiv_pos_as_xyz
1 x,y,z
2 -x,1/2+y,1/2-z
3 -x,-y,-z
4 x,1/2-y,1/2+z
_cell_length_a                   21.026(9)
_cell_length_b                   12.611(6)
_cell_length_c                   34.916(13)
_cell_angle_alpha                90
_cell_angle_beta                 93.67(9)
_cell_angle_gamma                90
_cell_volume                     9239.3
_chemical_melting_point          200deg.C.(dec.)
_cell_formula_units_Z            8
loop_
_atom_site_label
_atom_site_type_symbol
_atom_site_fract_x
_atom_site_fract_y
_atom_site_fract_z
N1 N 0.65750 0.29210 0.43840
C1 C 0.67040 0.24930 0.47950
C2 C 0.62370 0.17510 0.48730
N2 N 0.63050 0.08630 0.45710
C3 C 0.67830 -0.01390 0.46780
C4 C 0.68180 -0.07830 0.44390
O1 O 0.61570 -0.13600 0.45050
C5 C 0.61050 -0.22430 0.47380
C6 C 0.52920 -0.24800 0.47010
N3 N 0.51030 -0.24770 0.43080
C7 C 0.54010 -0.32010 0.40350
C8 C 0.50180 -0.33150 0.36320
C9 C 0.70710 0.36750 0.42840
C10 C 0.76520 0.28210 0.42110
N4 N 0.75760 0.23000 0.38370
C11 C 0.81830 0.14710 0.37900
C12 C 0.80870 0.09730 0.34560
O2 O 0.75860 0.01190 0.34860
C13 C 0.74030 -0.04580 0.31050
C14 C 0.68390 -0.10700 0.32520
N5 N 0.63260 -0.03870 0.32910
C15 C 0.57710 -0.09070 0.34920
C16 C 0.54780 -0.19090 0.32910
C17 C 0.59810 0.35960 0.43810
C18 C 0.57070 0.37790 0.39430
N6 N 0.55320 0.26970 0.37670
C19 C 0.53030 0.28700 0.34180
C20 C 0.51910 0.19380 0.31780
O3 O 0.47070 0.12040 0.33010
C21 C 0.41060 0.11670 0.30710
C22 C 0.37070 0.03920 0.32950
N7 N 0.39960 -0.05610 0.33740
C23 C 0.41020 -0.12100 0.30350
C24 C 0.43210 -0.22470 0.31600
N8 N 0.49090 -0.22260 0.34630
F1 F 0.64320 0.11240 0.38230
N9 N -0.04860 0.78030 0.35240
C25 C 0.02180 0.78590 0.34020
C26 C 0.05660 0.68880 0.35560
N10 N 0.13020 0.70170 0.34630
C27 C 0.13010 0.70030 0.30240
C28 C 0.21010 0.69450 0.29990
O4 O 0.21350 0.58550 0.31120
C29 C 0.27950 0.55380 0.31470
C30 C 0.28870 0.44830 0.33310
N11 N 0.27340 0.42690 0.36960
C31 C 0.27720 0.31080 0.38220
C32 C 0.26440 0.29290 0.42050
C33 C -0.06040 0.86050 0.37900
C34 C -0.03590 0.85800 0.41620
N12 N -0.05120 0.76050 0.43620
C35 C -0.03260 0.74340 0.47610
C36 C 0.04140 0.75900 0.48340
O5 O 0.07100 0.68940 0.45420
C37 C 0.14410 0.68970 0.45360
C38 C 0.17160 0.62270 0.47570
N13 N 0.15130 0.51570 0.45790
C39 C 0.18440 0.42420 0.48210
C40 C 0.17240 0.30540 0.46400
C41 C -0.09360 0.76920 0.31750
C42 C -0.09110 0.65970 0.30060
N14 N -0.11010 0.57170 0.32850
C43 C -0.10530 0.46670 0.31260
C44 C -0.04610 0.42290 0.29110
O6 O 0.00020 0.44860 0.31620
C45 C 0.07050 0.39750 0.31120
C46 C 0.08110 0.30900 0.33070
N15 N 0.07660 0.33910 0.36970
C47 C 0.07920 0.24180 0.39100
C48 C 0.15930 0.21760 0.40440
N16 N 0.18380 0.30630 0.42460
F2 F 0.15190 0.51190 0.38310
O7 O 0.14700 0.90360 0.38420
Cl1 Cl -0.04200 0.45570 0.43060
O8 O 0.01920 0.42150 0.44720
O9 O -0.04060 0.53950 0.40410
O10 O -0.06200 0.36850 0.40900
O11 O -0.07180 0.46980 0.46120
Cl2 Cl 0.44170 0.47790 0.27100
O12 O 0.43450 0.49130 0.30800
O13 O 0.49920 0.51590 0.26490
O14 O 0.40480 0.53650 0.24560
O15 O 0.45530 0.38710 0.26310
Cl3 Cl 0.44790 0.05540 0.43440
O16 O 0.44750 0.02050 0.47200
O17 O 0.49010 0.14220 0.43740
O18 O 0.39210 0.09360 0.41540
O19 O 0.47560 -0.02060 0.41250
Cl4 Cl 0.14230 0.49180 0.00910
O20 O 0.15650 0.41780 0.03230
O21 O 0.15960 0.59450 0.02130
O22 O 0.08590 0.48100 -0.01350
O23 O 0.17380 0.48380 -0.02400
Cl5 Cl 0.70070 0.28510 0.09280
O24 O 0.62900 0.27270 0.08780
O25 O 0.72780 0.19350 0.10090
O26 O 0.72360 0.33130 0.06010
O27 O 0.71260 0.34070 0.12810
Cl6 Cl 0.69930 0.33390 0.29300
O28 O 0.72690 0.32850 0.25910
O29 O 0.67290 0.23060 0.29910
O30 O 0.74240 0.36120 0.32320
O31 O 0.66690 0.40640 0.28340
loop_
_geom_bond_atom_site_label_1
_geom_bond_atom_site_label_2
_geom_bond_site_symmetry_1
_geom_bond_site_symmetry_2
N1 C1 1_555 1_555
C1 C2 1_555 1_555
C2 N2 1_555 1_555
N2 C3 1_555 1_555
C3 C4 1_555 1_555
C4 O1 1_555 1_555
O1 C5 1_555 1_555
C5 C6 1_555 1_555
C6 N3 1_555 1_555
N3 C7 1_555 1_555
C7 C8 1_555 1_555
C8 N8 1_555 1_555
C9 N1 1_555 1_555
C10 C9 1_555 1_555
N4 C10 1_555 1_555
C11 N4 1_555 1_555
C12 C11 1_555 1_555
O2 C12 1_555 1_555
C13 O2 1_555 1_555
C14 C13 1_555 1_555
N5 C14 1_555 1_555
C15 N5 1_555 1_555
C16 C15 1_555 1_555
C17 N1 1_555 1_555
C18 C17 1_555 1_555
N6 C18 1_555 1_555
C19 N6 1_555 1_555
C20 C19 1_555 1_555
O3 C20 1_555 1_555
C21 O3 1_555 1_555
C22 C21 1_555 1_555
N7 C22 1_555 1_555
C23 N7 1_555 1_555
C24 C23 1_555 1_555
N8 C16 1_555 1_555
N9 C25 1_555 1_555
C25 C26 1_555 1_555
C26 N10 1_555 1_555
N10 C27 1_555 1_555
C27 C28 1_555 1_555
C28 O4 1_555 1_555
O4 C29 1_555 1_555
C29 C30 1_555 1_555
C30 N11 1_555 1_555
N11 C31 1_555 1_555
C31 C32 1_555 1_555
C32 N16 1_555 1_555
C33 N9 1_555 1_555
C34 C33 1_555 1_555
N12 C34 1_555 1_555
C35 N12 1_555 1_555
C36 C35 1_555 1_555
O5 C36 1_555 1_555
C37 O5 1_555 1_555
C38 C37 1_555 1_555
N13 C38 1_555 1_555
C39 N13 1_555 1_555
C40 C39 1_555 1_555
C41 N9 1_555 1_555
C42 C41 1_555 1_555
N14 C42 1_555 1_555
C43 N14 1_555 1_555
C44 C43 1_555 1_555
O6 C44 1_555 1_555
C45 O6 1_555 1_555
C46 C45 1_555 1_555
N15 C46 1_555 1_555
C47 N15 1_555 1_555
C48 C47 1_555 1_555
N16 C40 1_555 1_555
Cl1 O8 1_555 1_555
O9 Cl1 1_555 1_555
O10 Cl1 1_555 1_555
O11 Cl1 1_555 1_555
Cl2 O12 1_555 1_555
O13 Cl2 1_555 1_555
O14 Cl2 1_555 1_555
O15 Cl2 1_555 1_555
Cl3 O16 1_555 1_555
O17 Cl3 1_555 1_555
O18 Cl3 1_555 1_555
O19 Cl3 1_555 1_555
Cl4 O20 1_555 1_555
O21 Cl4 1_555 1_555
O22 Cl4 1_555 1_555
O23 Cl4 1_555 1_555
Cl5 O24 1_555 1_555
O25 Cl5 1_555 1_555
O26 Cl5 1_555 1_555
O27 Cl5 1_555 1_555
Cl6 O28 1_555 1_555
O29 Cl6 1_555 1_555
O30 Cl6 1_555 1_555
O31 Cl6 1_555 1_555
C24 N8 1_555 1_555
C48 N16 1_555 1_555

#END
