
#######################################################################
#
#                 Cambridge Crystallographic Data Centre
#                                CCDC 
#
#######################################################################
#
# If this CIF has been generated from an entry in the Cambridge 
# Structural Database, then it will include bibliographic, chemical, 
# crystal, experimental, refinement or atomic coordinate data resulting 
# from the CCDC's data processing and validation procedures.
#
#######################################################################

data_CIDNUB
_chemical_formula_moiety         'C19 H14 Br1 N1 O3'
_chemical_name_systematic        
'methyl 6-bromo-3-(4-methylbenzoyl)quinoline-4-carboxylate'
_symmetry_cell_setting           orthorhombic
_symmetry_space_group_name_H-M   'P b c a'
_symmetry_Int_Tables_number      61
_space_group_name_Hall           '-P 2ac 2ab'
loop_
_symmetry_equiv_pos_site_id
_symmetry_equiv_pos_as_xyz
1 x,y,z
2 1/2-x,-y,1/2+z
3 -x,1/2+y,1/2-z
4 1/2+x,1/2-y,-z
5 -x,-y,-z
6 1/2+x,y,1/2-z
7 x,1/2-y,1/2+z
8 1/2-x,1/2+y,z
_cell_length_a                   20.0386(17)
_cell_length_b                   7.8722(7)
_cell_length_c                   20.8181(17)
_cell_angle_alpha                90
_cell_angle_beta                 90
_cell_angle_gamma                90
_cell_volume                     3284.01
_exptl_crystal_colour            colorless
_exptl_crystal_description       block
_cell_formula_units_Z            8
loop_
_atom_site_label
_atom_site_type_symbol
_atom_site_fract_x
_atom_site_fract_y
_atom_site_fract_z
N1 N 0.80304(12) 0.5134(3) 1.00769(11)
O1 O 0.97121(10) 0.7397(3) 0.84478(10)
O2 O 0.87623(9) 0.8848(2) 0.82918(8)
O3 O 0.71709(9) 0.6982(3) 0.84325(10)
Br1 Br 1.075412(15) 0.78791(4) 1.076152(14)
C1 C 0.99059(13) 0.7026(3) 1.05143(13)
C2 C 0.95304(15) 0.6146(4) 1.09795(13)
H1 H 0.9700 0.5977 1.1390
C3 C 0.89172(15) 0.5547(4) 1.08205(13)
H2 H 0.8664 0.4983 1.1128
C4 C 0.86579(13) 0.5767(3) 1.01970(12)
C5 C 0.90454(13) 0.6617(3) 0.97299(12)
C6 C 0.96793(12) 0.7259(3) 0.99055(12)
H3 H 0.9939 0.7836 0.9606
C7 C 0.87587(13) 0.6815(3) 0.91043(12)
C8 C 0.81281(12) 0.6196(3) 0.89908(12)
C9 C 0.77926(14) 0.5360(4) 0.95001(14)
H4 H 0.7368 0.4939 0.9416
C10 C 0.91436(13) 0.7702(4) 0.85828(12)
C11 C 0.90458(17) 0.9666(5) 0.77330(14)
H5 H 0.9464 1.0180 0.7846
H6 H 0.8745 1.0524 0.7580
H7 H 0.9117 0.8837 0.7402
C12 C 0.77380(13) 0.6421(4) 0.83788(12)
C13 C 0.80110(12) 0.5934(3) 0.77460(12)
C14 C 0.76906(13) 0.6506(4) 0.71938(12)
H8 H 0.7322 0.7216 0.7231
C15 C 0.79125(14) 0.6036(4) 0.65938(13)
H9 H 0.7691 0.6432 0.6231
C16 C 0.84632(14) 0.4977(4) 0.65226(13)
C17 C 0.87896(13) 0.4433(4) 0.70715(13)
H10 H 0.9164 0.3742 0.7033
C18 C 0.85699(12) 0.4898(3) 0.76766(12)
H11 H 0.8797 0.4517 0.8039
C19 C 0.86908(17) 0.4434(5) 0.58633(13)
H12 H 0.9158 0.4163 0.5876
H13 H 0.8617 0.5343 0.5564
H14 H 0.8443 0.3452 0.5731
loop_
_geom_bond_atom_site_label_1
_geom_bond_atom_site_label_2
_geom_bond_site_symmetry_1
_geom_bond_site_symmetry_2
N1 C4 1_555 1_555
O1 C10 1_555 1_555
O2 C10 1_555 1_555
O3 C12 1_555 1_555
Br1 C1 1_555 1_555
C1 C2 1_555 1_555
C2 H1 1_555 1_555
C3 C2 1_555 1_555
H2 C3 1_555 1_555
C4 C3 1_555 1_555
C5 C4 1_555 1_555
C6 C1 1_555 1_555
H3 C6 1_555 1_555
C7 C5 1_555 1_555
C8 C7 1_555 1_555
C9 N1 1_555 1_555
H4 C9 1_555 1_555
C10 C7 1_555 1_555
C11 O2 1_555 1_555
H5 C11 1_555 1_555
H6 C11 1_555 1_555
H7 C11 1_555 1_555
C12 C8 1_555 1_555
C13 C12 1_555 1_555
C14 C13 1_555 1_555
H8 C14 1_555 1_555
C15 C14 1_555 1_555
H9 C15 1_555 1_555
C16 C15 1_555 1_555
C17 C16 1_555 1_555
H10 C17 1_555 1_555
C18 C13 1_555 1_555
H11 C18 1_555 1_555
C19 C16 1_555 1_555
H12 C19 1_555 1_555
H13 C19 1_555 1_555
H14 C19 1_555 1_555
C5 C6 1_555 1_555
C8 C9 1_555 1_555
C17 C18 1_555 1_555

#END
