
#######################################################################
#
#                 Cambridge Crystallographic Data Centre
#                                CCDC 
#
#######################################################################
#
# If this CIF has been generated from an entry in the Cambridge 
# Structural Database, then it will include bibliographic, chemical, 
# crystal, experimental, refinement or atomic coordinate data resulting 
# from the CCDC's data processing and validation procedures.
#
#######################################################################

data_CIDROZ
_chemical_formula_moiety         'C19 H27 N1 O3'
_chemical_name_systematic        
't-butyl 3-[4,5-dimethyl-2-(morpholin-4-yl)phenyl]prop-2-enoate'
_symmetry_cell_setting           orthorhombic
_symmetry_space_group_name_H-M   'P c a 21'
_symmetry_Int_Tables_number      29
_space_group_name_Hall           'P 2c -2ac'
loop_
_symmetry_equiv_pos_site_id
_symmetry_equiv_pos_as_xyz
1 x,y,z
2 -x,-y,1/2+z
3 1/2+x,-y,z
4 1/2-x,y,1/2+z
_cell_length_a                   10.6864(7)
_cell_length_b                   14.5792(10)
_cell_length_c                   23.2392(16)
_cell_angle_alpha                90
_cell_angle_beta                 90
_cell_angle_gamma                90
_cell_volume                     3620.65
_exptl_crystal_colour            colorless
_exptl_crystal_description       prism
_cell_formula_units_Z            8
_exptl_crystal_recrystallization_method 'diethyl ether'
_exptl_crystal_preparation       Luminescent
loop_
_atom_site_label
_atom_site_type_symbol
_atom_site_fract_x
_atom_site_fract_y
_atom_site_fract_z
O1 O 0.24034(18) -0.01054(12) 0.27154(9)
O2 O 0.08444(17) 0.05164(13) 0.32504(8)
O3 O -0.04099(18) 0.10867(13) 0.57272(9)
N1 N 0.18829(19) 0.15223(14) 0.51711(10)
C1 C 0.3173(2) 0.16208(17) 0.50365(13)
C2 C 0.3603(2) 0.12997(17) 0.45000(12)
C3 C 0.1931(3) 0.02941(18) 0.31889(13)
C4 C 0.5299(3) 0.20916(19) 0.52818(14)
C5 C 0.4031(2) 0.20241(18) 0.54121(13)
H1 H 0.373993 0.226044 0.576879
C6 C 0.1386(3) 0.20947(19) 0.56358(13)
H2 H 0.162703 0.274288 0.557400
H3 H 0.173083 0.189194 0.601008
C7 C 0.2702(3) 0.09759(18) 0.40697(12)
H4 H 0.185776 0.116316 0.412175
C8 C 0.2934(2) 0.04492(18) 0.36147(12)
H5 H 0.373387 0.017674 0.356445
C9 C -0.0018(3) 0.2006(2) 0.56380(17)
C10 C 0.4883(2) 0.13464(18) 0.43833(13)
H6 H 0.517950 0.110808 0.402814
C11 C 0.0084(2) 0.05137(19) 0.52851(13)
H7 H -0.026669 0.070448 0.490936
H8 H -0.017326 -0.012870 0.535647
C12 C 0.1660(3) -0.01841(19) 0.21802(12)
C13 C 0.0525(2) -0.0790(2) 0.22682(13)
H9 H 0.078740 -0.137517 0.243722
H10 H 0.011944 -0.090282 0.189679
H11 H -0.006509 -0.048431 0.252773
C14 C 0.5742(3) 0.17263(19) 0.47639(13)
C15 C 0.1490(2) 0.05662(17) 0.52615(13)
H12 H 0.184872 0.033309 0.562609
H13 H 0.180520 0.017861 0.494307
C16 C 0.6183(3) 0.2548(2) 0.56996(14)
H14 H 0.652470 0.310644 0.552508
H15 H 0.686854 0.212676 0.579244
H16 H 0.573027 0.270733 0.605241
C17 C 0.1313(3) 0.07658(19) 0.19707(13)
H17 H 0.070719 0.104076 0.223634
H18 H 0.094119 0.072235 0.158616
H19 H 0.206517 0.114911 0.195412
C18 C 0.2583(3) -0.0636(2) 0.17751(13)
H20 H 0.330561 -0.023214 0.171955
H21 H 0.217798 -0.074984 0.140355
H22 H 0.286283 -0.121997 0.194026
C19 C 0.7108(2) 0.1763(2) 0.46092(15)
H23 H 0.736128 0.240229 0.455272
H24 H 0.724971 0.141712 0.425338
H25 H 0.760337 0.149180 0.492090
H26 H -0.033(3) 0.2370(19) 0.5966(13)
H27 H -0.036(3) 0.225(2) 0.5247(14)
O4 O 0.28418(16) 0.48794(12) 0.51872(8)
O5 O 0.44192(17) 0.44705(13) 0.57902(8)
O6 O 0.55413(17) 0.36664(13) 0.82133(9)
N2 N 0.3162(2) 0.34231(14) 0.77000(10)
C20 C 0.3323(3) 0.45994(19) 0.56929(13)
C21 C 0.1872(3) 0.34172(18) 0.75565(13)
C22 C 0.1521(2) 0.37118(17) 0.70049(12)
C23 C -0.0317(3) 0.31411(18) 0.77954(13)
C24 C 0.0949(2) 0.31327(17) 0.79421(13)
H28 H 0.118899 0.292811 0.831421
C25 C 0.0245(2) 0.37167(17) 0.68653(12)
H29 H -0.000053 0.392244 0.649425
C26 C 0.2466(2) 0.39600(18) 0.65785(12)
H30 H 0.328886 0.373565 0.664309
C27 C 0.3642(3) 0.5031(2) 0.46800(12)
C28 C 0.2296(3) 0.44661(18) 0.61104(12)
H31 H 0.150635 0.474540 0.604296
C29 C 0.3570(2) 0.28442(18) 0.81772(13)
H32 H 0.320062 0.222445 0.813945
H33 H 0.328840 0.311122 0.854691
C30 C 0.5119(2) 0.42547(19) 0.77630(14)
H34 H 0.540322 0.400853 0.738808
H35 H 0.549405 0.487049 0.781321
C31 C 0.3719(2) 0.43379(17) 0.77599(13)
H36 H 0.343143 0.462453 0.812278
H37 H 0.345064 0.473247 0.743576
C32 C -0.0672(2) 0.34325(18) 0.72483(13)
C33 C -0.1279(2) 0.28530(19) 0.82326(14)
H38 H -0.167263 0.227899 0.810879
H39 H -0.191786 0.333181 0.826771
H40 H -0.087191 0.276070 0.860611
C34 C 0.4979(2) 0.27815(19) 0.81668(15)
H41 H 0.526557 0.239148 0.848971
H42 H 0.524964 0.248860 0.780320
C35 C 0.4553(3) 0.5802(2) 0.47946(14)
H43 H 0.410164 0.632961 0.495265
H44 H 0.496288 0.597867 0.443409
H45 H 0.518579 0.559643 0.507143
C36 C 0.4293(3) 0.41418(19) 0.45137(14)
H46 H 0.491319 0.398315 0.480791
H47 H 0.471216 0.422062 0.414197
H48 H 0.367263 0.364893 0.448414
C37 C -0.2023(2) 0.3420(2) 0.70636(14)
H49 H -0.232881 0.278669 0.705981
H50 H -0.209600 0.368282 0.667680
H51 H -0.252278 0.378363 0.733384
C38 C 0.2701(3) 0.5309(2) 0.42304(14)
H52 H 0.209725 0.481112 0.417348
H53 H 0.313326 0.543536 0.386707
H54 H 0.225919 0.586197 0.435803
loop_
_geom_bond_atom_site_label_1
_geom_bond_atom_site_label_2
_geom_bond_site_symmetry_1
_geom_bond_site_symmetry_2
O1 C3 1_555 1_555
O2 C3 1_555 1_555
O3 C9 1_555 1_555
N1 C1 1_555 1_555
C1 C2 1_555 1_555
C2 C7 1_555 1_555
C3 C8 1_555 1_555
C4 C5 1_555 1_555
C5 C1 1_555 1_555
H1 C5 1_555 1_555
C6 N1 1_555 1_555
H2 C6 1_555 1_555
H3 C6 1_555 1_555
C7 H4 1_555 1_555
C8 C7 1_555 1_555
H5 C8 1_555 1_555
C9 C6 1_555 1_555
C10 C2 1_555 1_555
H6 C10 1_555 1_555
C11 O3 1_555 1_555
H7 C11 1_555 1_555
H8 C11 1_555 1_555
C12 O1 1_555 1_555
C13 C12 1_555 1_555
H9 C13 1_555 1_555
H10 C13 1_555 1_555
H11 C13 1_555 1_555
C14 C4 1_555 1_555
C15 N1 1_555 1_555
H12 C15 1_555 1_555
H13 C15 1_555 1_555
C16 C4 1_555 1_555
H14 C16 1_555 1_555
H15 C16 1_555 1_555
H16 C16 1_555 1_555
C17 C12 1_555 1_555
H17 C17 1_555 1_555
H18 C17 1_555 1_555
H19 C17 1_555 1_555
C18 C12 1_555 1_555
H20 C18 1_555 1_555
H21 C18 1_555 1_555
H22 C18 1_555 1_555
C19 C14 1_555 1_555
H23 C19 1_555 1_555
H24 C19 1_555 1_555
H25 C19 1_555 1_555
H26 C9 1_555 1_555
H27 C9 1_555 1_555
O4 C20 1_555 1_555
O5 C20 1_555 1_555
O6 C30 1_555 1_555
N2 C21 1_555 1_555
C20 C28 1_555 1_555
C21 C22 1_555 1_555
C22 C25 1_555 1_555
C23 C24 1_555 1_555
C24 C21 1_555 1_555
H28 C24 1_555 1_555
C25 H29 1_555 1_555
C26 C22 1_555 1_555
H30 C26 1_555 1_555
C27 O4 1_555 1_555
C28 C26 1_555 1_555
H31 C28 1_555 1_555
C29 N2 1_555 1_555
H32 C29 1_555 1_555
H33 C29 1_555 1_555
C30 H34 1_555 1_555
H35 C30 1_555 1_555
C31 N2 1_555 1_555
H36 C31 1_555 1_555
H37 C31 1_555 1_555
C32 C23 1_555 1_555
C33 C23 1_555 1_555
H38 C33 1_555 1_555
H39 C33 1_555 1_555
H40 C33 1_555 1_555
C34 O6 1_555 1_555
H41 C34 1_555 1_555
H42 C34 1_555 1_555
C35 C27 1_555 1_555
H43 C35 1_555 1_555
H44 C35 1_555 1_555
H45 C35 1_555 1_555
C36 C27 1_555 1_555
H46 C36 1_555 1_555
H47 C36 1_555 1_555
H48 C36 1_555 1_555
C37 C32 1_555 1_555
H49 C37 1_555 1_555
H50 C37 1_555 1_555
H51 C37 1_555 1_555
C38 C27 1_555 1_555
H52 C38 1_555 1_555
H53 C38 1_555 1_555
H54 C38 1_555 1_555
C10 C14 1_555 1_555
C11 C15 1_555 1_555
C25 C32 1_555 1_555
C29 C34 1_555 1_555
C30 C31 1_555 1_555

#END
