
#######################################################################
#
#                 Cambridge Crystallographic Data Centre
#                                CCDC 
#
#######################################################################
#
# If this CIF has been generated from an entry in the Cambridge 
# Structural Database, then it will include bibliographic, chemical, 
# crystal, experimental, refinement or atomic coordinate data resulting 
# from the CCDC's data processing and validation procedures.
#
#######################################################################

data_CIDTIV
_chemical_formula_moiety         'C39 H49 N1 O9'
_chemical_name_systematic        
2,3,8,9,13,14-hexamethoxy-5-({[5-methyl-2-(propan-2-yl)cyclohexyl]oxy}acetyl)-11,16-dihydrotribenzo[b,e,h]azecin-6(5H)-one
_symmetry_cell_setting           monoclinic
_symmetry_space_group_name_H-M   'P 21'
_symmetry_Int_Tables_number      4
_space_group_name_Hall           'P 2yb'
loop_
_symmetry_equiv_pos_site_id
_symmetry_equiv_pos_as_xyz
1 x,y,z
2 -x,1/2+y,-z
_cell_length_a                   10.981(7)
_cell_length_b                   13.592(3)
_cell_length_c                   13.130(5)
_cell_angle_alpha                90
_cell_angle_beta                 113.07(4)
_cell_angle_gamma                90
_cell_volume                     1802.98
_exptl_crystal_colour            colorless
_exptl_crystal_description       block
_cell_formula_units_Z            2
loop_
_atom_site_label
_atom_site_type_symbol
_atom_site_fract_x
_atom_site_fract_y
_atom_site_fract_z
C1 C 0.6823(4) 0.5500(4) -0.0255(4)
C2 C 0.5697(5) 0.5147(4) -0.1265(4)
C3 C 0.5896(6) 0.5046(5) -0.2253(5)
H1 H 0.669180 0.527693 -0.229468
C4 C 0.4942(6) 0.4613(4) -0.3155(5)
C5 C 0.3765(6) 0.4282(5) -0.3086(6)
C6 C 0.3570(5) 0.4398(4) -0.2126(5)
H2 H 0.276858 0.417319 -0.209030
C7 C 0.4541(5) 0.4848(4) -0.1186(5)
C8 C 0.4244(5) 0.4980(5) -0.0158(4)
H3 H 0.504030 0.524433 0.044783
H4 H 0.404172 0.433110 0.008030
C9 C 0.3086(5) 0.5672(4) -0.0353(5)
C10 C 0.1830(6) 0.5247(5) -0.0714(5)
H5 H 0.174841 0.455394 -0.080457
C11 C 0.0703(7) 0.5806(6) -0.0943(9)
C12 C 0.0834(8) 0.6817(7) -0.0760(15)
C13 C 0.2066(6) 0.7250(5) -0.0412(6)
H6 H 0.214518 0.794193 -0.030326
C14 C 0.3217(5) 0.6678(4) -0.0213(5)
C15 C 0.4532(4) 0.7212(4) 0.0134(4)
H7 H 0.449178 0.781893 0.053565
H8 H 0.523559 0.678807 0.065319
C16 C 0.4903(5) 0.7482(4) -0.0821(4)
C17 C 0.4075(6) 0.8126(4) -0.1636(5)
H9 H 0.329699 0.836802 -0.157070
C18 C 0.4351(5) 0.8414(4) -0.2518(4)
C19 C 0.5492(6) 0.8053(4) -0.2645(5)
C20 C 0.6335(5) 0.7446(4) -0.1846(4)
H10 H 0.712097 0.721465 -0.190626
C21 C 0.6042(4) 0.7163(4) -0.0938(4)
C22 C 0.6168(7) 0.4791(6) -0.4310(6)
H11 H 0.694817 0.444194 -0.379650
H12 H 0.627664 0.549906 -0.416135
H13 H 0.607154 0.466359 -0.507275
C23 C 0.1757(7) 0.3393(7) -0.3953(7)
H14 H 0.125415 0.388663 -0.373504
H15 H 0.203671 0.286579 -0.340018
H16 H 0.119879 0.311817 -0.467564
C24 C -0.0655(7) 0.4437(6) -0.1775(8)
H17 H 0.006171 0.402127 -0.127945
H18 H -0.058936 0.448176 -0.249653
H19 H -0.151006 0.414880 -0.186830
C25 C -0.0260(8) 0.8376(6) -0.0954(8)
H20 H 0.006100 0.859143 -0.151693
H21 H 0.035348 0.859919 -0.022318
H22 H -0.113868 0.865583 -0.111702
C26 C 0.2470(7) 0.9458(6) -0.3208(6)
H23 H 0.274580 0.979403 -0.249234
H24 H 0.183884 0.893529 -0.324595
H25 H 0.204815 0.993195 -0.380593
C27 C 0.6756(7) 0.7997(6) -0.3747(5)
H26 H 0.676404 0.727628 -0.373522
H27 H 0.755866 0.824640 -0.315366
H28 H 0.672599 0.822895 -0.446329
C28 C 0.8055(4) 0.6969(4) 0.0733(4)
C29 C 0.9198(6) 0.6346(6) 0.1450(6)
H29 H 0.889813 0.588485 0.188774
H30 H 0.953173 0.595438 0.097836
N1 N 0.6987(6) 0.6509(4) -0.0138(5)
O1 O 0.7524(5) 0.4911(4) 0.0429(4)
O2 O 0.5023(4) 0.4455(3) -0.4165(4)
O3 O 0.2885(4) 0.3839(4) -0.4022(4)
O4 O -0.0547(5) 0.5404(4) -0.1305(4)
O5 O -0.0340(5) 0.7331(4) -0.0962(4)
O6 O 0.3594(4) 0.9043(3) -0.3324(4)
O7 O 0.5633(4) 0.8342(3) -0.3587(3)
O8 O 0.8007(4) 0.7832(4) 0.0849(4)
O9 O 1.0216(3) 0.6939(3) 0.2165(3)
C30 C 1.1015(5) 0.6462(5) 0.3175(4)
H31 H 1.100525 0.573774 0.303833
C31 C 1.0449(5) 0.6651(5) 0.4058(5)
H32 H 1.037169 0.737016 0.413549
H33 H 0.954605 0.637008 0.379547
C32 C 1.1248(8) 0.6232(6) 0.5166(6)
H34 H 1.127183 0.550147 0.508394
C33 C 1.2691(6) 0.6620(6) 0.5546(5)
H35 H 1.269609 0.733816 0.567319
H36 H 1.324347 0.630523 0.625754
C34 C 1.3284(6) 0.6421(6) 0.4723(5)
H37 H 1.338536 0.570190 0.466937
H38 H 1.417778 0.671864 0.498983
C35 C 1.2438(6) 0.6836(4) 0.3538(4)
H39 H 1.240850 0.756778 0.360838
C36 C 1.3011(7) 0.6624(5) 0.2677(5)
H40 H 1.244470 0.697043 0.197979
C37 C 1.3080(9) 0.5586(5) 0.2402(8)
H41 H 1.218266 0.531564 0.206242
H42 H 1.358681 0.521832 0.307767
H43 H 1.351628 0.553008 0.188045
C38 C 1.4447(7) 0.7031(7) 0.3033(7)
H44 H 1.502385 0.671692 0.372601
H45 H 1.444360 0.774432 0.314212
H46 H 1.477530 0.688827 0.245391
C39 C 1.0704(14) 0.6439(10) 0.6019(9)
H47 H 0.979400 0.619237 0.576319
H48 H 1.070899 0.715037 0.614257
H49 H 1.125000 0.611097 0.671294
C40? C 0.685(2) 0.7239(16) -0.0119(17)
C41? C 0.575(2) 0.768(2) -0.1086(16)
C42? C 0.598(3) 0.787(2) -0.207(2)
H50? H 0.679746 0.769724 -0.210447
C43? C 0.500(3) 0.830(2) -0.295(2)
C44? C 0.384(3) 0.858(3) -0.285(2)
C45? C 0.360(3) 0.840(2) -0.193(2)
H51? H 0.276313 0.857020 -0.191642
C46? C 0.460(2) 0.796(2) -0.099(2)
C47? C 0.427(2) 0.775(2) 0.0018(18)
H52? H 0.504657 0.746391 0.061631
H53? H 0.404816 0.837937 0.029542
C48? C 0.310(3) 0.7053(19) -0.027(3)
C49? C 0.186(3) 0.748(3) -0.060(4)
H54? H 0.177956 0.817803 -0.063681
C50? C 0.073(3) 0.690(3) -0.089(8)
C51? C 0.084(3) 0.588(3) -0.075(6)
C52? C 0.209(3) 0.546(2) -0.041(3)
H55? H 0.217791 0.476315 -0.032531
C53? C 0.323(2) 0.604(2) -0.019(3)
C54? C 0.456(2) 0.547(2) 0.0150(18)
H56? H 0.527111 0.585707 0.071754
H57? H 0.449094 0.483187 0.048022
C55? C 0.493(2) 0.530(2) -0.0831(18)
C56? C 0.406(3) 0.473(2) -0.171(2)
H58? H 0.325914 0.450438 -0.167057
C57? C 0.432(2) 0.449(2) -0.262(2)
C58? C 0.547(3) 0.484(2) -0.271(2)
C59? C 0.633(2) 0.543(2) -0.1881(18)
H59? H 0.709168 0.570764 -0.194832
C60? C 0.606(2) 0.5617(19) -0.0932(18)
C61? C 0.618(3) 0.827(3) -0.418(3)
H60? H 0.623502 0.754895 -0.416876
H61? H 0.698602 0.854179 -0.361399
H62? H 0.608390 0.851112 -0.491105
C62? C 0.168(4) 0.936(4) -0.374(3)
H63? H 0.117462 0.972635 -0.441967
H64? H 0.180715 0.977278 -0.309591
H65? H 0.118187 0.876641 -0.371158
C63? C -0.038(5) 0.837(3) -0.159(4)
H66? H -0.003648 0.842500 -0.217287
H67? H 0.023080 0.869089 -0.091583
H68? H -0.125001 0.868199 -0.183381
C64? C -0.044(4) 0.436(2) -0.110(3)
H69? H 0.011530 0.399274 -0.043455
H70? H -0.014897 0.420939 -0.170184
H71? H -0.136438 0.415561 -0.132055
C65? C 0.250(3) 0.336(3) -0.338(3)
H72? H 0.266070 0.324553 -0.260169
H73? H 0.239322 0.273188 -0.376664
H74? H 0.170199 0.375960 -0.372720
C66? C 0.671(3) 0.506(3) -0.381(3)
H75? H 0.748969 0.463996 -0.354013
H76? H 0.690455 0.568803 -0.340686
H77? H 0.645601 0.519231 -0.460418
C67? C 0.7994(19) 0.5658(16) 0.0735(17)
C68? C 0.909(4) 0.619(3) 0.161(4)
H78? H 0.944155 0.669984 0.125927
H79? H 0.873625 0.652809 0.210441
N2? N 0.702(3) 0.6224(18) -0.009(3)
O10? O 0.753(2) 0.786(2) 0.053(3)
O11? O 0.506(2) 0.8565(19) -0.3961(17)
O12? O 0.293(2) 0.9085(19) -0.3739(19)
O13? O -0.050(3) 0.733(3) -0.136(3)
O14? O -0.032(3) 0.539(2) -0.087(2)
O15? O 0.359(2) 0.3869(18) -0.344(2)
O16? O 0.564(2) 0.4586(16) -0.3652(17)
O17? O 0.798(2) 0.4787(19) 0.077(2)
O18? O 1.0108(17) 0.5578(15) 0.2234(14)
C69? C 1.097(2) 0.575(2) 0.3316(18)
H80? H 1.159249 0.517905 0.352504
C70? C 1.032(3) 0.575(3) 0.414(2)
H81? H 0.962541 0.626326 0.393449
H82? H 0.989266 0.510481 0.412221
C71? C 1.132(4) 0.594(3) 0.528(3)
H83? H 1.188521 0.533925 0.551882
C72? C 1.227(4) 0.681(3) 0.532(3)
H84? H 1.175702 0.743414 0.516231
H85? H 1.296186 0.686225 0.607772
C73? C 1.293(3) 0.672(3) 0.452(2)
H86? H 1.351366 0.613339 0.469696
H87? H 1.348359 0.730865 0.455978
C74? C 1.177(3) 0.662(2) 0.326(2)
H88? H 1.122669 0.722782 0.300279
C75? C 1.243(3) 0.628(2) 0.249(2)
H89? H 1.205317 0.662720 0.176186
C76? C 1.275(5) 0.527(3) 0.235(5)
H90? H 1.316573 0.524036 0.181101
H91? H 1.335886 0.500484 0.305926
H92? H 1.193527 0.487470 0.207545
C77? C 1.387(3) 0.665(3) 0.321(3)
H93? H 1.383027 0.735065 0.338490
H94? H 1.423191 0.627238 0.389608
H95? H 1.443186 0.657254 0.279310
C78? C 1.061(7) 0.605(5) 0.602(4)
H96? H 1.125168 0.617378 0.677904
H97? H 0.998863 0.659539 0.577299
H98? H 1.013030 0.543750 0.601143
loop_
_geom_bond_atom_site_label_1
_geom_bond_atom_site_label_2
_geom_bond_site_symmetry_1
_geom_bond_site_symmetry_2
C1 C2 1_555 1_555
C2 C3 1_555 1_555
C3 H1 1_555 1_555
C4 C3 1_555 1_555
C5 C4 1_555 1_555
C6 C5 1_555 1_555
H2 C6 1_555 1_555
C7 C2 1_555 1_555
C8 C7 1_555 1_555
H3 C8 1_555 1_555
H4 C8 1_555 1_555
C9 C8 1_555 1_555
C10 C9 1_555 1_555
H5 C10 1_555 1_555
C11 C10 1_555 1_555
C12 C11 1_555 1_555
C13 C12 1_555 1_555
H6 C13 1_555 1_555
C14 C9 1_555 1_555
C15 C14 1_555 1_555
H7 C15 1_555 1_555
H8 C15 1_555 1_555
C16 C15 1_555 1_555
C17 C16 1_555 1_555
H9 C17 1_555 1_555
C18 C17 1_555 1_555
C19 C18 1_555 1_555
C20 C19 1_555 1_555
H10 C20 1_555 1_555
C21 C16 1_555 1_555
C22 H11 1_555 1_555
H12 C22 1_555 1_555
H13 C22 1_555 1_555
C23 H14 1_555 1_555
H15 C23 1_555 1_555
H16 C23 1_555 1_555
C24 H17 1_555 1_555
H18 C24 1_555 1_555
H19 C24 1_555 1_555
C25 H20 1_555 1_555
H21 C25 1_555 1_555
H22 C25 1_555 1_555
C26 H23 1_555 1_555
H24 C26 1_555 1_555
H25 C26 1_555 1_555
C27 H26 1_555 1_555
H27 C27 1_555 1_555
H28 C27 1_555 1_555
C28 C29 1_555 1_555
C29 H29 1_555 1_555
H30 C29 1_555 1_555
N1 C1 1_555 1_555
O1 C1 1_555 1_555
O2 C4 1_555 1_555
O3 C5 1_555 1_555
O4 C11 1_555 1_555
O5 C12 1_555 1_555
O6 C18 1_555 1_555
O7 C19 1_555 1_555
O8 C28 1_555 1_555
O9 C29 1_555 1_555
C30 O9 1_555 1_555
H31 C30 1_555 1_555
C31 C30 1_555 1_555
H32 C31 1_555 1_555
H33 C31 1_555 1_555
C32 C31 1_555 1_555
H34 C32 1_555 1_555
C33 C32 1_555 1_555
H35 C33 1_555 1_555
H36 C33 1_555 1_555
C34 C33 1_555 1_555
H37 C34 1_555 1_555
H38 C34 1_555 1_555
C35 C30 1_555 1_555
H39 C35 1_555 1_555
C36 C35 1_555 1_555
H40 C36 1_555 1_555
C37 C36 1_555 1_555
H41 C37 1_555 1_555
H42 C37 1_555 1_555
H43 C37 1_555 1_555
C38 C36 1_555 1_555
H44 C38 1_555 1_555
H45 C38 1_555 1_555
H46 C38 1_555 1_555
C39 C32 1_555 1_555
H47 C39 1_555 1_555
H48 C39 1_555 1_555
H49 C39 1_555 1_555
C6 C7 1_555 1_555
C13 C14 1_555 1_555
C20 C21 1_555 1_555
C21 N1 1_555 1_555
C22 O2 1_555 1_555
C23 O3 1_555 1_555
C24 O4 1_555 1_555
C25 O5 1_555 1_555
C26 O6 1_555 1_555
C27 O7 1_555 1_555
C28 N1 1_555 1_555
C34 C35 1_555 1_555

#END
