
#######################################################################
#
#                 Cambridge Crystallographic Data Centre
#                                CCDC 
#
#######################################################################
#
# If this CIF has been generated from an entry in the Cambridge 
# Structural Database, then it will include bibliographic, chemical, 
# crystal, experimental, refinement or atomic coordinate data resulting 
# from the CCDC's data processing and validation procedures.
#
#######################################################################

data_CIFDIH
_chemical_formula_moiety         'C16 H22 F3 N1 O5'
_chemical_name_systematic        
'ethyl 9,9-diethoxy-7-oxo-3-(trifluoromethyl)-2-azabicyclo[3.3.1]non-3-ene-4-carboxylate'
_symmetry_cell_setting           monoclinic
_symmetry_space_group_name_H-M   'P 21/c'
_symmetry_Int_Tables_number      14
_space_group_name_Hall           '-P 2ybc'
loop_
_symmetry_equiv_pos_site_id
_symmetry_equiv_pos_as_xyz
1 x,y,z
2 -x,1/2+y,1/2-z
3 -x,-y,-z
4 x,1/2-y,1/2+z
_cell_length_a                   8.7813(11)
_cell_length_b                   8.4703(11)
_cell_length_c                   24.136(3)
_cell_angle_alpha                90
_cell_angle_beta                 93.158(2)
_cell_angle_gamma                90
_cell_volume                     1792.52
_exptl_crystal_colour            colorless
_exptl_crystal_description       block
_cell_formula_units_Z            4
loop_
_atom_site_label
_atom_site_type_symbol
_atom_site_fract_x
_atom_site_fract_y
_atom_site_fract_z
F1 F 0.1232(2) 0.5637(2) 0.72430(7)
F2 F 0.02299(18) 0.4699(3) 0.64922(9)
F3 F 0.1019(2) 0.3163(2) 0.71403(10)
O1 O 0.42173(19) 0.32439(18) 0.55776(7)
O2 O 0.68011(18) 0.31079(19) 0.58590(7)
O3 O 0.1632(2) 0.7483(2) 0.63687(10)
O4 O 0.3825(2) 0.8197(2) 0.60592(11)
O5 O 0.6603(3) 0.5260(3) 0.75576(10)
N1 N 0.3543(2) 0.2950(2) 0.67045(9)
H1 H 0.302823 0.221937 0.685621
C1 C 0.1349(3) 0.4499(3) 0.68737(13)
C2 C 0.2903(3) 0.4404(3) 0.66337(10)
C3 C 0.5065(3) 0.2586(3) 0.65330(10)
H2 H 0.512441 0.145742 0.644816
C4 C 0.5328(3) 0.3531(3) 0.60090(10)
C5 C 0.4096(4) 0.1645(3) 0.53867(14)
H3 H 0.384671 0.095867 0.569043
H4 H 0.506294 0.130319 0.525174
C6 C 0.2905(4) 0.1543(4) 0.49407(14)
H5 H 0.322917 0.209415 0.462009
H6 H 0.198506 0.201420 0.506080
H7 H 0.271891 0.045560 0.484830
C7 C 0.7325(4) 0.3873(4) 0.53752(14)
H8 H 0.750215 0.498441 0.545198
H9 H 0.655571 0.378906 0.507260
C8 C 0.8745(4) 0.3128(4) 0.52161(15)
H10 H 0.910800 0.365704 0.489730
H11 H 0.855685 0.203739 0.512854
H12 H 0.949893 0.320206 0.551849
C9 C 0.5166(3) 0.5277(3) 0.61539(10)
H13 H 0.527795 0.590212 0.581691
C10 C 0.3595(2) 0.5586(3) 0.63641(10)
C11 C 0.3045(3) 0.7204(3) 0.62558(11)
C12 C 0.1068(4) 0.9082(4) 0.6286(2)
H14 H 0.165061 0.979640 0.653025
H15 H 0.120092 0.940513 0.590657
C13 C -0.0471(5) 0.9171(5) 0.6397(2)
H16 H -0.103973 0.842552 0.616886
H17 H -0.084178 1.021784 0.631797
H18 H -0.059183 0.893149 0.678106
C14 C 0.6415(3) 0.5775(3) 0.65889(12)
H19 H 0.739963 0.572794 0.642585
H20 H 0.624107 0.685871 0.669920
C15 C 0.6440(3) 0.4730(3) 0.70931(13)
C16 C 0.6279(3) 0.2991(3) 0.69922(11)
H21 H 0.601357 0.248134 0.733364
H22 H 0.725312 0.257056 0.689179
loop_
_geom_bond_atom_site_label_1
_geom_bond_atom_site_label_2
_geom_bond_site_symmetry_1
_geom_bond_site_symmetry_2
F1 C1 1_555 1_555
F2 C1 1_555 1_555
F3 C1 1_555 1_555
O1 C4 1_555 1_555
O2 C4 1_555 1_555
O3 C11 1_555 1_555
O4 C11 1_555 1_555
O5 C15 1_555 1_555
N1 H1 1_555 1_555
C1 C2 1_555 1_555
C2 N1 1_555 1_555
C3 N1 1_555 1_555
H2 C3 1_555 1_555
C4 C3 1_555 1_555
C5 O1 1_555 1_555
H3 C5 1_555 1_555
H4 C5 1_555 1_555
C6 C5 1_555 1_555
H5 C6 1_555 1_555
H6 C6 1_555 1_555
H7 C6 1_555 1_555
C7 O2 1_555 1_555
H8 C7 1_555 1_555
H9 C7 1_555 1_555
C8 C7 1_555 1_555
H10 C8 1_555 1_555
H11 C8 1_555 1_555
H12 C8 1_555 1_555
C9 C4 1_555 1_555
H13 C9 1_555 1_555
C10 C2 1_555 1_555
C11 C10 1_555 1_555
C12 O3 1_555 1_555
H14 C12 1_555 1_555
H15 C12 1_555 1_555
C13 C12 1_555 1_555
H16 C13 1_555 1_555
H17 C13 1_555 1_555
H18 C13 1_555 1_555
C14 C9 1_555 1_555
H19 C14 1_555 1_555
H20 C14 1_555 1_555
C15 C14 1_555 1_555
C16 C3 1_555 1_555
H21 C16 1_555 1_555
H22 C16 1_555 1_555
C9 C10 1_555 1_555
C15 C16 1_555 1_555

#END
