
#######################################################################
#
#                 Cambridge Crystallographic Data Centre
#                                CCDC 
#
#######################################################################
#
# If this CIF has been generated from an entry in the Cambridge 
# Structural Database, then it will include bibliographic, chemical, 
# crystal, experimental, refinement or atomic coordinate data resulting 
# from the CCDC's data processing and validation procedures.
#
#######################################################################

data_CIFDON
_chemical_formula_moiety         'C14 H19 N1 O4,H2 O1'
_chemical_name_systematic        
'6-hydroxy-3,3-dimethoxy-2,3,6,8,9,10-hexahydro-2,6-methano-1-benzazocin-7(1H)-one monohydrate'
_symmetry_cell_setting           monoclinic
_symmetry_space_group_name_H-M   'P 21/n'
_symmetry_Int_Tables_number      14
_space_group_name_Hall           '-P 2yn'
loop_
_symmetry_equiv_pos_site_id
_symmetry_equiv_pos_as_xyz
1 x,y,z
2 1/2-x,1/2+y,1/2-z
3 -x,-y,-z
4 1/2+x,1/2-y,1/2+z
_cell_length_a                   10.275(2)
_cell_length_b                   9.5886(18)
_cell_length_c                   14.718(3)
_cell_angle_alpha                90
_cell_angle_beta                 97.405(3)
_cell_angle_gamma                90
_cell_volume                     1437.97
_exptl_crystal_colour            colorless
_exptl_crystal_description       block
_cell_formula_units_Z            4
loop_
_atom_site_label
_atom_site_type_symbol
_atom_site_fract_x
_atom_site_fract_y
_atom_site_fract_z
O1 O 0.00832(14) 0.35621(17) 0.23890(9)
H1 H -0.0525 0.3042 0.2470
O2 O 0.41018(13) 0.41115(16) 0.11895(10)
O3 O 0.38077(13) 0.21344(16) 0.02520(9)
O4 O -0.16307(15) 0.15594(18) 0.19451(11)
N1 N 0.11243(15) 0.29517(17) -0.02025(10)
H2 H 0.1324 0.2821 -0.0746
C1 C 0.06973(18) 0.3070(2) 0.16261(12)
C2 C 0.17856(19) 0.2065(2) 0.19467(13)
H3 H 0.1656 0.1433 0.2405
C3 C 0.29204(19) 0.2037(2) 0.16082(13)
H4 H 0.3548 0.1386 0.1841
C4 C 0.32403(18) 0.3005(2) 0.08666(13)
C5 C 0.20100(18) 0.3802(2) 0.04321(13)
H5 H 0.2295 0.4605 0.0096
C6 C 0.12670(19) 0.4336(2) 0.11873(13)
H6 H 0.0568 0.4959 0.0936
H7 H 0.1854 0.4843 0.1640
C7 C -0.02777(18) 0.2377(2) 0.09041(13)
C8 C -0.14061(19) 0.1667(2) 0.11317(15)
C9 C -0.2344(2) 0.1008(3) 0.03822(16)
H8 H -0.3233 0.1109 0.0531
H9 H -0.2155 0.0019 0.0357
C10 C -0.2266(2) 0.1650(3) -0.05552(15)
H10 H -0.2792 0.1107 -0.1023
H11 H -0.2613 0.2592 -0.0572
C11 C -0.08481(19) 0.1678(2) -0.07489(14)
H12 H -0.0548 0.0731 -0.0826
H13 H -0.0794 0.2179 -0.1315
C12 C 0.00203(18) 0.2365(2) 0.00140(13)
C13 C 0.5337(2) 0.3705(3) 0.16755(17)
H14 H 0.5813 0.3163 0.1280
H15 H 0.5193 0.3155 0.2199
H16 H 0.5834 0.4521 0.1875
C14 C 0.4243(2) 0.2806(3) -0.05241(16)
H17 H 0.3496 0.3125 -0.0930
H18 H 0.4734 0.2156 -0.0841
H19 H 0.4789 0.3587 -0.0322
O5 O 0.64353(17) 0.0973(2) 0.30380(11)
H20 H 0.5947 0.0298 0.2833
H21 H 0.6946 0.1099 0.2635
loop_
_geom_bond_atom_site_label_1
_geom_bond_atom_site_label_2
_geom_bond_site_symmetry_1
_geom_bond_site_symmetry_2
O1 H1 1_555 1_555
O2 C4 1_555 1_555
O3 C4 1_555 1_555
O4 C8 1_555 1_555
N1 H2 1_555 1_555
C1 O1 1_555 1_555
C2 C1 1_555 1_555
H3 C2 1_555 1_555
C3 C2 1_555 1_555
H4 C3 1_555 1_555
C4 C3 1_555 1_555
C5 N1 1_555 1_555
H5 C5 1_555 1_555
C6 C1 1_555 1_555
H6 C6 1_555 1_555
H7 C6 1_555 1_555
C7 C1 1_555 1_555
C8 C7 1_555 1_555
C9 C8 1_555 1_555
H8 C9 1_555 1_555
H9 C9 1_555 1_555
C10 C9 1_555 1_555
H10 C10 1_555 1_555
H11 C10 1_555 1_555
C11 C10 1_555 1_555
H12 C11 1_555 1_555
H13 C11 1_555 1_555
C12 N1 1_555 1_555
C13 O2 1_555 1_555
H14 C13 1_555 1_555
H15 C13 1_555 1_555
H16 C13 1_555 1_555
C14 O3 1_555 1_555
H17 C14 1_555 1_555
H18 C14 1_555 1_555
H19 C14 1_555 1_555
O5 H20 1_555 1_555
H21 O5 1_555 1_555
C4 C5 1_555 1_555
C5 C6 1_555 1_555
C7 C12 1_555 1_555
C11 C12 1_555 1_555

#END
