
#######################################################################
#
#                 Cambridge Crystallographic Data Centre
#                                CCDC 
#
#######################################################################
#
# If this CIF has been generated from an entry in the Cambridge 
# Structural Database, then it will include bibliographic, chemical, 
# crystal, experimental, refinement or atomic coordinate data resulting 
# from the CCDC's data processing and validation procedures.
#
#######################################################################

data_CIFGEE
_chemical_formula_moiety         'C8 H6 Cl1 N1 O3,0.2(H2 O1)'
_chemical_name_systematic        
'endo-(R,R,R)-8-Chloro-4-hydroxy-3-oxo-2-oxabicyclo(2.2.2)oct-5-ene-8-carbonitrile hydrate'
_symmetry_cell_setting           triclinic
_symmetry_space_group_name_H-M   'P 1'
_symmetry_Int_Tables_number      1
_space_group_name_Hall           'P 1'
loop_
_symmetry_equiv_pos_site_id
_symmetry_equiv_pos_as_xyz
1 x,y,z
_cell_length_a                   6.44440(10)
_cell_length_b                   10.9410(2)
_cell_length_c                   16.0581(3)
_cell_angle_alpha                70.9653(10)
_cell_angle_beta                 89.3442(10)
_cell_angle_gamma                89.8008(10)
_cell_volume                     1070.25
_exptl_crystal_colour            colorless
_exptl_crystal_description       acicular
_cell_formula_units_Z            5
_exptl_crystal_recrystallization_method chloroform
loop_
_atom_site_label
_atom_site_type_symbol
_atom_site_fract_x
_atom_site_fract_y
_atom_site_fract_z
Cl1 Cl 0.06422(15) 0.16125(10) 0.21301(6)
O1 O -0.2548(3) 0.1952(3) 0.06443(19)
O2 O 0.2842(3) 0.1793(2) 0.00551(16)
O3 O 0.0474(4) 0.0240(2) 0.04797(19)
N1 N -0.1965(6) 0.4634(4) 0.1355(3)
C1 C 0.0512(4) 0.2926(3) 0.10995(19)
C2 C -0.0554(4) 0.2401(3) 0.0399(2)
C3 C -0.0471(5) 0.3479(3) -0.0466(2)
C4 C 0.1415(5) 0.3894(3) -0.0734(2)
C5 C 0.3066(4) 0.3192(3) -0.0111(2)
C6 C 0.2711(5) 0.3406(3) 0.0769(2)
C7 C -0.0873(5) 0.3904(3) 0.1247(2)
C8 C 0.0944(5) 0.1353(3) 0.0316(2)
H1 H -0.1676 0.3833 -0.0792
H2 H 0.1698 0.4569 -0.1271
H3 H 0.4407 0.3481 -0.0342
H4 H 0.2829 0.4300 0.0697
H5 H 0.3709 0.2934 0.1181
H6 H -0.245(5) 0.118(3) 0.094(2)
Cl2 Cl 1.04074(14) 0.73549(9) 0.88504(7)
O4 O 0.7656(4) 0.8338(2) 0.72987(15)
O5 O 0.8454(4) 1.0657(2) 0.84280(18)
O6 O 0.9982(5) 1.0484(3) 0.7224(2)
N2 N 0.5289(6) 0.5996(3) 0.9220(3)
C9 C 0.7822(4) 0.7956(3) 0.8866(2)
C10 C 0.7300(5) 0.8938(3) 0.79355(19)
C11 C 0.5127(5) 0.9396(3) 0.8001(2)
C12 C 0.4871(6) 0.9980(4) 0.8598(3)
C13 C 0.6845(6) 1.0039(4) 0.9079(3)
C14 C 0.7608(6) 0.8672(3) 0.9552(2)
C15 C 0.8724(5) 1.0092(3) 0.7812(2)
C16 C 0.6401(6) 0.6854(3) 0.9055(2)
H7 H 0.4030 0.9280 0.7644
H8 H 0.3582 1.0322 0.8713
H9 H 0.6631 1.0499 0.9482
H10 H 0.8918 0.8705 0.9809
H11 H 0.6640 0.8232 0.9999
H12 H 0.715(6) 0.883(3) 0.682(2)
Cl3 Cl 0.27948(16) 0.72181(10) 0.08709(7)
O7 O 0.6063(4) 0.6128(3) 0.23332(19)
O8 O 0.0719(4) 0.5436(2) 0.30125(17)
O9 O 0.2979(4) 0.4272(2) 0.25333(19)
N3 N 0.5488(7) 0.9499(3) 0.1616(3)
C17 C 0.2990(5) 0.7541(3) 0.1893(2)
C18 C 0.4088(4) 0.6360(3) 0.2582(2)
C19 C 0.4105(5) 0.6655(3) 0.3439(2)
C20 C 0.2235(6) 0.6822(3) 0.3734(2)
C21 C 0.0548(5) 0.6693(3) 0.3148(2)
C22 C 0.0815(5) 0.7724(3) 0.2249(2)
C23 C 0.2572(5) 0.5235(3) 0.2701(2)
C24 C 0.4365(6) 0.8675(3) 0.1728(2)
H13 H 0.5344 0.6715 0.3738
H14 H 0.1996 0.7007 0.4266
H15 H -0.0768 0.6775 0.3397
H16 H 0.0711 0.8558 0.2307
H17 H -0.0223 0.7628 0.1859
H18 H 0.594(6) 0.587(4) 0.195(2)
Cl4 Cl 0.45459(19) 0.62295(12) 0.65643(11)
O10 O 0.8782(4) 0.5656(3) 0.74734(17)
O11 O 0.8813(6) 0.5764(3) 0.52115(18)
O12 O 0.9650(5) 0.7274(3) 0.5784(2)
N4 N 0.5035(8) 0.3081(4) 0.8096(3)
C25 C 0.6151(6) 0.4836(3) 0.6679(2)
C26 C 0.8485(5) 0.5212(3) 0.6781(2)
C27 C 0.9736(7) 0.4033(4) 0.6855(3)
C28 C 0.9551(8) 0.3613(4) 0.6164(4)
C29 C 0.8150(9) 0.4417(4) 0.5484(3)
C30 C 0.5944(8) 0.4378(5) 0.5871(3)
C31 C 0.9052(6) 0.6206(3) 0.5896(2)
C32 C 0.5517(7) 0.3812(4) 0.7505(3)
H19 H 1.0586 0.3617 0.7346
H20 H 1.0247 0.2871 0.6117
H21 H 0.8140 0.4117 0.4992
H22 H 0.5056 0.4940 0.5447
H23 H 0.5404 0.3524 0.6045
H24 H 0.906(15) 0.658(5) 0.735(6)
Cl5 Cl 0.29911(14) -0.01476(9) 0.41347(6)
O13 O 0.5813(4) -0.0381(2) 0.56929(15)
O14 O 0.5195(4) 0.2926(2) 0.43173(17)
O15 O 0.3553(5) 0.1820(3) 0.5553(2)
N5 N 0.8072(6) -0.1232(4) 0.3792(3)
C33 C 0.5586(4) 0.0468(3) 0.40698(19)
C34 C 0.6113(4) 0.0694(3) 0.49626(19)
C35 C 0.8358(5) 0.1141(3) 0.4866(2)
C36 C 0.8678(5) 0.2199(3) 0.4188(2)
C37 C 0.6753(5) 0.2740(3) 0.3690(2)
C38 C 0.5798(5) 0.1776(3) 0.3311(2)
C39 C 0.4802(5) 0.1851(3) 0.4986(2)
C40 C 0.6982(5) -0.0503(3) 0.3930(2)
H25 H 0.9426 0.0703 0.5252
H26 H 1.0008 0.2583 0.4032
H27 H 0.7042 0.3534 0.3238
H28 H 0.6665 0.1673 0.2856
H29 H 0.4468 0.2069 0.3079
H30 H 0.474(5) -0.038(5) 0.588(3)
O16 O 0.2080(4) 0.8953(3) 0.6368(2)
H31 H 0.121(7) 0.915(5) 0.666(3)
H32 H 0.144(7) 0.853(7) 0.612(5)
loop_
_geom_bond_atom_site_label_1
_geom_bond_atom_site_label_2
_geom_bond_site_symmetry_1
_geom_bond_site_symmetry_2
Cl1 C1 1_555 1_555
O1 C2 1_555 1_555
O2 C5 1_555 1_555
O3 C8 1_555 1_555
N1 C7 1_555 1_555
C1 C2 1_555 1_555
C2 C3 1_555 1_555
C3 C4 1_555 1_555
C4 C5 1_555 1_555
C5 C6 1_555 1_555
C6 C1 1_555 1_555
C7 C1 1_555 1_555
C8 O2 1_555 1_555
H1 C3 1_555 1_555
H2 C4 1_555 1_555
H3 C5 1_555 1_555
H4 C6 1_555 1_555
H5 C6 1_555 1_555
H6 O1 1_555 1_555
Cl2 C9 1_555 1_555
O4 C10 1_555 1_555
O5 C13 1_555 1_555
O6 C15 1_555 1_555
N2 C16 1_555 1_555
C9 C10 1_555 1_555
C10 C11 1_555 1_555
C11 C12 1_555 1_555
C12 C13 1_555 1_555
C13 C14 1_555 1_555
C14 C9 1_555 1_555
C15 O5 1_555 1_555
C16 C9 1_555 1_555
H7 C11 1_555 1_555
H8 C12 1_555 1_555
H9 C13 1_555 1_555
H10 C14 1_555 1_555
H11 C14 1_555 1_555
H12 O4 1_555 1_555
Cl3 C17 1_555 1_555
O7 C18 1_555 1_555
O8 C21 1_555 1_555
O9 C23 1_555 1_555
N3 C24 1_555 1_555
C17 C18 1_555 1_555
C18 C19 1_555 1_555
C19 C20 1_555 1_555
C20 C21 1_555 1_555
C21 C22 1_555 1_555
C22 C17 1_555 1_555
C23 O8 1_555 1_555
C24 C17 1_555 1_555
H13 C19 1_555 1_555
H14 C20 1_555 1_555
H15 C21 1_555 1_555
H16 C22 1_555 1_555
H17 C22 1_555 1_555
H18 O7 1_555 1_555
Cl4 C25 1_555 1_555
O10 C26 1_555 1_555
O11 C29 1_555 1_555
O12 C31 1_555 1_555
N4 C32 1_555 1_555
C25 C26 1_555 1_555
C26 C27 1_555 1_555
C27 C28 1_555 1_555
C28 C29 1_555 1_555
C29 C30 1_555 1_555
C30 C25 1_555 1_555
C31 O11 1_555 1_555
C32 C25 1_555 1_555
H19 C27 1_555 1_555
H20 C28 1_555 1_555
H21 C29 1_555 1_555
H22 C30 1_555 1_555
H23 C30 1_555 1_555
H24 O10 1_555 1_555
Cl5 C33 1_555 1_555
O13 C34 1_555 1_555
O14 C37 1_555 1_555
O15 C39 1_555 1_555
N5 C40 1_555 1_555
C33 C34 1_555 1_555
C34 C35 1_555 1_555
C35 C36 1_555 1_555
C36 C37 1_555 1_555
C37 C38 1_555 1_555
C38 C33 1_555 1_555
C39 O14 1_555 1_555
C40 C33 1_555 1_555
H25 C35 1_555 1_555
H26 C36 1_555 1_555
H27 C37 1_555 1_555
H28 C38 1_555 1_555
H29 C38 1_555 1_555
H30 O13 1_555 1_555
O16 H31 1_555 1_555
H32 O16 1_555 1_555
C2 C8 1_555 1_555
C10 C15 1_555 1_555
C18 C23 1_555 1_555
C26 C31 1_555 1_555
C34 C39 1_555 1_555

#END
