
#######################################################################
#
#                 Cambridge Crystallographic Data Centre
#                                CCDC 
#
#######################################################################
#
# If this CIF has been generated from an entry in the Cambridge 
# Structural Database, then it will include bibliographic, chemical, 
# crystal, experimental, refinement or atomic coordinate data resulting 
# from the CCDC's data processing and validation procedures.
#
#######################################################################

data_CIFKEJ
_chemical_formula_moiety         'C32 H25 N1 O2'
_chemical_name_systematic        
7-Methoxy-1-(phenyl(2-phenyl-1H-indol-3-yl)methyl)-2-naphthol
_symmetry_cell_setting           orthorhombic
_symmetry_space_group_name_H-M   'P 21 21 21'
_symmetry_Int_Tables_number      19
_space_group_name_Hall           'P 2ac 2ab'
loop_
_symmetry_equiv_pos_site_id
_symmetry_equiv_pos_as_xyz
1 x,y,z
2 1/2-x,-y,1/2+z
3 -x,1/2+y,1/2-z
4 1/2+x,1/2-y,-z
_cell_length_a                   8.084(3)
_cell_length_b                   9.107(3)
_cell_length_c                   32.836(12)
_cell_angle_alpha                90
_cell_angle_beta                 90
_cell_angle_gamma                90
_cell_volume                     2417.42
_exptl_crystal_colour            colorless
_exptl_crystal_description       block
_cell_formula_units_Z            4
loop_
_atom_site_label
_atom_site_type_symbol
_atom_site_fract_x
_atom_site_fract_y
_atom_site_fract_z
N1 N 0.2778(2) 0.69199(19) 0.16625(5)
H1 H 0.2959 0.7851 0.1662
O1 O 0.2313(2) 0.01889(17) 0.16427(5)
H2 H 0.3056 0.0657 0.1752
O2 O 0.1767(3) 0.6003(2) 0.01029(5)
C1 C 0.2444(3) 0.2201(2) 0.11508(6)
C2 C 0.1884(3) 0.0855(2) 0.12837(7)
C3 C 0.0760(3) 0.0019(3) 0.10575(8)
H3 H 0.0435 -0.0900 0.1151
C4 C 0.0149(3) 0.0537(3) 0.07059(9)
H4 H -0.0585 -0.0036 0.0557
C5 C -0.0097(4) 0.2502(4) 0.02011(8)
H5 H -0.0858 0.1942 0.0056
C6 C 0.0310(4) 0.3840(3) 0.00613(8)
H6 H -0.0174 0.4207 -0.0175
C7 C 0.1466(3) 0.4671(3) 0.02753(7)
C8 C 0.2178(3) 0.4155(3) 0.06209(7)
H7 H 0.2957 0.4729 0.0755
C9 C 0.1761(3) 0.2762(2) 0.07810(6)
C10 C 0.0597(3) 0.1922(3) 0.05603(8)
C11 C 0.2907(5) 0.6940(3) 0.03015(8)
H8 H 0.2528 0.7137 0.0573
H9 H 0.2995 0.7846 0.0154
H10 H 0.3970 0.6473 0.0313
C12 C 0.3770(3) 0.3114(2) 0.13660(6)
H11 H 0.4510 0.3435 0.1147
C13 C 0.4879(3) 0.2259(2) 0.16556(7)
C14 C 0.4728(3) 0.2354(3) 0.20741(7)
H12 H 0.3957 0.2992 0.2188
C15 C 0.5716(3) 0.1505(3) 0.23249(8)
H13 H 0.5587 0.1561 0.2606
C16 C 0.6885(3) 0.0583(3) 0.21631(9)
H14 H 0.7550 0.0020 0.2333
C17 C 0.7064(4) 0.0498(3) 0.17541(9)
H15 H 0.7860 -0.0123 0.1643
C18 C 0.6073(3) 0.1327(3) 0.15001(8)
H16 H 0.6210 0.1258 0.1220
C19 C 0.3107(3) 0.4520(2) 0.15463(6)
C20 C 0.3812(3) 0.5877(2) 0.14963(6)
C21 C 0.5324(3) 0.6307(2) 0.12838(7)
C22 C 0.6686(3) 0.5384(3) 0.12715(7)
H17 H 0.6676 0.4520 0.1423
C23 C 0.8048(3) 0.5720(3) 0.10412(8)
H18 H 0.8945 0.5081 0.1034
C24 C 0.8085(4) 0.6996(3) 0.08222(8)
H19 H 0.8991 0.7214 0.0659
C25 C 0.6781(4) 0.7952(3) 0.08448(7)
H20 H 0.6823 0.8835 0.0703
C26 C 0.5417(3) 0.7623(3) 0.10731(7)
H21 H 0.4544 0.8286 0.1087
C27 C 0.0353(3) 0.3817(3) 0.19140(7)
H22 H 0.0415 0.2807 0.1874
C28 C -0.0944(3) 0.4412(3) 0.21215(7)
H23 H -0.1759 0.3796 0.2225
C29 C -0.1075(4) 0.5926(3) 0.21822(8)
H24 H -0.1978 0.6304 0.2323
C30 C 0.0110(3) 0.6854(3) 0.20367(7)
H25 H 0.0035 0.7863 0.2077
C31 C 0.1420(3) 0.6249(2) 0.18284(6)
C32 C 0.1580(3) 0.4735(2) 0.17622(6)
loop_
_geom_bond_atom_site_label_1
_geom_bond_atom_site_label_2
_geom_bond_site_symmetry_1
_geom_bond_site_symmetry_2
N1 H1 1_555 1_555
O1 H2 1_555 1_555
O2 C7 1_555 1_555
C1 C2 1_555 1_555
C2 O1 1_555 1_555
C3 C2 1_555 1_555
H3 C3 1_555 1_555
C4 C3 1_555 1_555
H4 C4 1_555 1_555
C5 H5 1_555 1_555
C6 C5 1_555 1_555
H6 C6 1_555 1_555
C7 C6 1_555 1_555
C8 C7 1_555 1_555
H7 C8 1_555 1_555
C9 C1 1_555 1_555
C10 C4 1_555 1_555
C11 O2 1_555 1_555
H8 C11 1_555 1_555
H9 C11 1_555 1_555
H10 C11 1_555 1_555
C12 C1 1_555 1_555
H11 C12 1_555 1_555
C13 C12 1_555 1_555
C14 C13 1_555 1_555
H12 C14 1_555 1_555
C15 C14 1_555 1_555
H13 C15 1_555 1_555
C16 C15 1_555 1_555
H14 C16 1_555 1_555
C17 C16 1_555 1_555
H15 C17 1_555 1_555
C18 C13 1_555 1_555
H16 C18 1_555 1_555
C19 C12 1_555 1_555
C20 N1 1_555 1_555
C21 C20 1_555 1_555
C22 C21 1_555 1_555
H17 C22 1_555 1_555
C23 C22 1_555 1_555
H18 C23 1_555 1_555
C24 C23 1_555 1_555
H19 C24 1_555 1_555
C25 C24 1_555 1_555
H20 C25 1_555 1_555
C26 C21 1_555 1_555
H21 C26 1_555 1_555
C27 H22 1_555 1_555
C28 C27 1_555 1_555
H23 C28 1_555 1_555
C29 C28 1_555 1_555
H24 C29 1_555 1_555
C30 C29 1_555 1_555
H25 C30 1_555 1_555
C31 N1 1_555 1_555
C32 C19 1_555 1_555
C5 C10 1_555 1_555
C8 C9 1_555 1_555
C9 C10 1_555 1_555
C17 C18 1_555 1_555
C19 C20 1_555 1_555
C25 C26 1_555 1_555
C27 C32 1_555 1_555
C30 C31 1_555 1_555
C31 C32 1_555 1_555

#END
