
#######################################################################
#
#                 Cambridge Crystallographic Data Centre
#                                CCDC 
#
#######################################################################
#
# If this CIF has been generated from an entry in the Cambridge 
# Structural Database, then it will include bibliographic, chemical, 
# crystal, experimental, refinement or atomic coordinate data resulting 
# from the CCDC's data processing and validation procedures.
#
#######################################################################

data_CIFLEJ
_chemical_formula_moiety         'C18 H15 N1 O3'
_chemical_name_systematic        
2-(2-oxo-4-phenyloxazol-3-yl)-4-methylbenzofuran
_symmetry_cell_setting           monoclinic
_symmetry_space_group_name_H-M   'P 21'
_symmetry_Int_Tables_number      4
_space_group_name_Hall           'P 2yb'
loop_
_symmetry_equiv_pos_site_id
_symmetry_equiv_pos_as_xyz
1 x,y,z
2 -x,1/2+y,-z
_cell_length_a                   9.4600(18)
_cell_length_b                   6.0405(12)
_cell_length_c                   13.586(3)
_cell_angle_alpha                90
_cell_angle_beta                 108.872(3)
_cell_angle_gamma                90
_cell_volume                     734.613
_exptl_crystal_colour            colorless
_exptl_crystal_description       block
_chemical_melting_point          130-133deg.C
_cell_formula_units_Z            2
loop_
_atom_site_label
_atom_site_type_symbol
_atom_site_fract_x
_atom_site_fract_y
_atom_site_fract_z
O1 O 0.21271(17) 0.4779(3) 0.50041(11)
O2 O 0.02699(18) 0.2350(3) 0.43255(12)
O3 O 0.06550(15) 0.7397(3) 0.19839(11)
N1 N 0.05677(19) 0.5054(4) 0.33041(13)
C1 C 0.1102(2) 0.4148(4) 0.42795(17)
C2 C -0.0842(3) 0.1950(4) 0.33322(18)
H1 H -0.1851 0.1910 0.3403
H2 H -0.0654 0.0516 0.3043
C3 C -0.0724(2) 0.3880(4) 0.26107(17)
H3 H -0.0477 0.3285 0.1999
C4 C -0.2129(2) 0.5289(4) 0.22385(15)
C5 C -0.2969(3) 0.5337(5) 0.12036(17)
H4 H -0.2671 0.4480 0.0718
C6 C -0.4253(3) 0.6629(5) 0.08601(18)
H5 H -0.4826 0.6660 0.0143
C7 C -0.4688(3) 0.7864(4) 0.15647(19)
H6 H -0.5560 0.8758 0.1332
C8 C -0.3864(2) 0.7804(4) 0.26035(18)
H7 H -0.4175 0.8640 0.3089
C9 C -0.2578(2) 0.6525(4) 0.29462(17)
H8 H -0.2007 0.6495 0.3664
C10 C 0.1221(2) 0.6901(4) 0.30234(16)
C11 C 0.2295(2) 0.8313(4) 0.35602(17)
H9 H 0.2842 0.8269 0.4282
C12 C 0.2438(2) 0.9898(4) 0.28110(16)
C13 C 0.1423(2) 0.9280(4) 0.18598(16)
C14 C 0.1199(2) 1.0391(5) 0.09390(17)
H10 H 0.0486 0.9921 0.0305
C15 C 0.2091(3) 1.2253(5) 0.10011(18)
H11 H 0.1994 1.3083 0.0389
C16 C 0.3124(2) 1.2927(4) 0.19410(19)
H12 H 0.3700 1.4219 0.1949
C17 C 0.3342(2) 1.1785(4) 0.28642(17)
C18 C 0.4481(3) 1.2505(5) 0.38668(18)
H13 H 0.4475 1.1474 0.4422
H14 H 0.4238 1.3997 0.4045
H15 H 0.5474 1.2512 0.3787
H16? H 0.4983 1.3848 0.3747
H17? H 0.5220 1.1325 0.4125
H18? H 0.3984 1.2810 0.4383
loop_
_geom_bond_atom_site_label_1
_geom_bond_atom_site_label_2
_geom_bond_site_symmetry_1
_geom_bond_site_symmetry_2
O1 C1 1_555 1_555
O2 C1 1_555 1_555
O3 C10 1_555 1_555
N1 C1 1_555 1_555
C2 O2 1_555 1_555
H1 C2 1_555 1_555
H2 C2 1_555 1_555
C3 N1 1_555 1_555
H3 C3 1_555 1_555
C4 C3 1_555 1_555
C5 C4 1_555 1_555
H4 C5 1_555 1_555
C6 C5 1_555 1_555
H5 C6 1_555 1_555
C7 C6 1_555 1_555
H6 C7 1_555 1_555
C8 C7 1_555 1_555
H7 C8 1_555 1_555
C9 C4 1_555 1_555
H8 C9 1_555 1_555
C10 N1 1_555 1_555
C11 C10 1_555 1_555
H9 C11 1_555 1_555
C12 C11 1_555 1_555
C13 O3 1_555 1_555
C14 C13 1_555 1_555
H10 C14 1_555 1_555
C15 C14 1_555 1_555
H11 C15 1_555 1_555
C16 C15 1_555 1_555
H12 C16 1_555 1_555
C17 C12 1_555 1_555
C18 C17 1_555 1_555
H13 C18 1_555 1_555
H14 C18 1_555 1_555
H15 C18 1_555 1_555
C2 C3 1_555 1_555
C8 C9 1_555 1_555
C12 C13 1_555 1_555
C16 C17 1_555 1_555

#END
