
#######################################################################
#
#                 Cambridge Crystallographic Data Centre
#                                CCDC 
#
#######################################################################
#
# If this CIF has been generated from an entry in the Cambridge 
# Structural Database, then it will include bibliographic, chemical, 
# crystal, experimental, refinement or atomic coordinate data resulting 
# from the CCDC's data processing and validation procedures.
#
#######################################################################

data_CIFLAF
_chemical_formula_moiety         'C6 H3 N2 O7 S1 1-,C14 H20 N1 O7 S1 1+'
_chemical_name_systematic        
'(3aR,5R,6S,7R,7aR)-5-(acetoxymethyl)-6,7-diacetoxy-2-methyl-5,6,7,7a-tetrahydro-3aH-pyrano(3,2-d)thiazolium 2,4-dinitrobenzenesulfonate'
_symmetry_cell_setting           monoclinic
_symmetry_space_group_name_H-M   'P 21'
_symmetry_Int_Tables_number      4
_space_group_name_Hall           'P 2yb'
loop_
_symmetry_equiv_pos_site_id
_symmetry_equiv_pos_as_xyz
1 x,y,z
2 -x,1/2+y,-z
_cell_length_a                   7.9893(14)
_cell_length_b                   27.158(5)
_cell_length_c                   11.724(2)
_cell_angle_alpha                90
_cell_angle_beta                 93.637(3)
_cell_angle_gamma                90
_cell_volume                     2538.67
_exptl_crystal_colour            colorless
_exptl_crystal_description       rod
_cell_formula_units_Z            4
loop_
_atom_site_label
_atom_site_type_symbol
_atom_site_fract_x
_atom_site_fract_y
_atom_site_fract_z
S1 S -0.15121(17) 0.23106(9) 0.88327(14)
N1 N 0.1376(5) 0.26633(16) 0.8656(4)
H1 H 0.2199 0.2819 0.8345
O1 O 0.0475(5) 0.16320(19) 0.9924(3)
C1 C 0.0105(8) 0.2144(3) 0.9968(5)
H2 H -0.0339 0.2220 1.0727
C2 C 0.1586(7) 0.2469(2) 0.9806(5)
H3 H 0.1593 0.2747 1.0366
C3 C 0.3257(6) 0.21858(19) 0.9956(4)
H4 H 0.4216 0.2406 0.9793
C4 C 0.3266(6) 0.17246(18) 0.9203(4)
H5 H 0.4082 0.1478 0.9543
C5 C 0.1515(7) 0.1489(2) 0.8998(4)
H6 H 0.0982 0.1604 0.8250
C6 C 0.1640(9) 0.0944(2) 0.9003(5)
H7 H 0.2454 0.0836 0.8453
H8 H 0.2035 0.0827 0.9774
O2 O 0.0010(7) 0.07415(17) 0.8690(4)
O3 O 0.0710(7) 0.0057(2) 0.9494(7)
C7 C -0.0312(8) 0.02953(19) 0.9007(6)
C8 C -0.1995(8) 0.0121(2) 0.8570(8)
H9 H -0.1971 0.0043 0.7755
H10 H -0.2825 0.0380 0.8675
H11 H -0.2297 -0.0174 0.8990
O4 O 0.3812(4) 0.19012(12) 0.8125(3)
O5 O 0.5334(5) 0.12147(14) 0.7906(3)
C9 C 0.4878(6) 0.16073(18) 0.7562(4)
C10 C 0.5380(7) 0.1866(2) 0.6514(5)
H12 H 0.6317 0.1690 0.6199
H13 H 0.5724 0.2203 0.6710
H14 H 0.4427 0.1874 0.5946
O6 O 0.3375(5) 0.20369(15) 1.1138(3)
O7 O 0.6188(5) 0.20805(15) 1.1129(3)
C11 C 0.4946(8) 0.1994(2) 1.1638(5)
C12 C 0.4892(9) 0.1841(2) 1.2851(5)
H15 H 0.4606 0.1491 1.2888
H16 H 0.4042 0.2035 1.3218
H17 H 0.5992 0.1897 1.3249
C13 C -0.0054(6) 0.2601(2) 0.8099(4)
C14 C -0.0357(7) 0.2789(2) 0.6920(5)
H18 H 0.0658 0.2952 0.6682
H19 H -0.1284 0.3026 0.6895
H20 H -0.0645 0.2515 0.6403
S2 S 0.37918(14) 0.34228(5) 0.27424(10)
N2 N 0.6718(5) 0.30582(15) 0.3063(3)
H21 H 0.7590 0.2915 0.3419
O8 O 0.5730(4) 0.41028(13) 0.1773(3)
C15 C 0.5307(6) 0.36047(19) 0.1690(4)
H22 H 0.4787 0.3541 0.0905
C16 C 0.6811(6) 0.32555(19) 0.1900(4)
H23 H 0.6714 0.2979 0.1337
C17 C 0.8470(6) 0.35246(18) 0.1783(4)
H24 H 0.9427 0.3297 0.1980
C18 C 0.8627(5) 0.39824(18) 0.2533(3)
H25 H 0.9385 0.4226 0.2187
C19 C 0.6913(5) 0.42251(17) 0.2710(4)
H26 H 0.6481 0.4109 0.3446
C20 C 0.7042(6) 0.4778(2) 0.2717(5)
H27 H 0.8025 0.4878 0.3221
H28 H 0.7225 0.4895 0.1934
O9 O 0.5571(5) 0.50059(14) 0.3104(4)
O10 O 0.6850(5) 0.50756(18) 0.4854(4)
C21 C 0.5632(8) 0.5146(2) 0.4206(7)
C22 C 0.4037(9) 0.5393(3) 0.4492(9)
H29 H 0.4132 0.5502 0.5290
H30 H 0.3103 0.5161 0.4380
H31 H 0.3832 0.5679 0.3991
O11 O 0.9372(4) 0.38159(12) 0.3605(2)
O12 O 1.0867(5) 0.45169(18) 0.3823(4)
C23 C 1.0559(6) 0.4112(2) 0.4152(4)
C24 C 1.1363(7) 0.3849(2) 0.5158(4)
H32 H 1.2477 0.3989 0.5347
H33 H 1.1473 0.3499 0.4977
H34 H 1.0669 0.3887 0.5813
O13 O 0.8449(4) 0.36548(12) 0.0588(2)
O14 O 1.1262(4) 0.37218(14) 0.0750(3)
C25 C 0.9964(5) 0.37507(17) 0.0171(4)
C26 C 0.9753(5) 0.39170(16) -0.1035(3)
H35 H 0.9391 0.4262 -0.1058
H36 H 0.8906 0.3713 -0.1449
H37 H 1.0823 0.3886 -0.1393
C27 C 0.5312(6) 0.31021(18) 0.3544(4)
C28 C 0.5008(6) 0.28968(18) 0.4671(4)
H38 H 0.5939 0.2679 0.4922
H39 H 0.3959 0.2709 0.4621
H40 H 0.4923 0.3165 0.5222
S3 S 0.48614(12) 0.33854(4) 0.80358(8)
O15 O 0.6328(6) 0.32241(17) 0.7535(6)
O16 O 0.4588(8) 0.32447(14) 0.9156(3)
O17 O 0.3446(6) 0.33046(15) 0.7269(4)
N3 N 0.6478(6) 0.40861(18) 0.6247(4)
O18 O 0.8068(8) 0.4086(3) 0.6249(7)
O20 O 0.5470(6) 0.40379(17) 0.5437(4)
N4 N 0.5905(6) 0.55726(19) 0.8422(5)
O21 O 0.6937(6) 0.57649(17) 0.7854(6)
O22 O 0.5072(5) 0.57956(15) 0.9068(4)
C29 C 0.5139(5) 0.40383(16) 0.8111(3)
C30 C 0.5898(6) 0.43093(19) 0.7273(4)
C31 C 0.6171(6) 0.4808(2) 0.7382(5)
H41 H 0.6703 0.4987 0.6811
C32 C 0.5659(6) 0.5033(2) 0.8324(5)
C33 C 0.4908(7) 0.4790(2) 0.9170(5)
H42 H 0.4573 0.4961 0.9824
C34 C 0.4645(6) 0.42937(17) 0.9055(4)
H43 H 0.4113 0.4121 0.9636
S4 S 1.01389(16) 0.22185(4) 0.38378(10)
O23 O 1.1620(4) 0.22385(14) 0.4599(4)
O24 O 1.0301(7) 0.24265(16) 0.2717(4)
O25 O 0.8629(4) 0.23959(12) 0.4342(2)
N5 N 1.0708(6) 0.13383(15) 0.5584(4)
O26 O 1.2047(7) 0.11561(16) 0.5953(4)
O27 O 0.9795(6) 0.15889(15) 0.6126(3)
N6 N 0.9159(7) 0.0069(2) 0.2807(5)
O28 O 1.0135(13) -0.0233(4) 0.3371(9)
O30 O 0.8129(10) -0.0149(3) 0.2235(7)
C35 C 0.9772(5) 0.15760(18) 0.3598(4)
C36 C 1.0148(6) 0.12086(17) 0.4395(4)
C37 C 0.9970(7) 0.0716(2) 0.4151(5)
H44 H 1.0269 0.0471 0.4704
C38 C 0.9340(6) 0.0596(2) 0.3071(5)
C39 C 0.8906(8) 0.0936(3) 0.2263(5)
H45 H 0.8452 0.0839 0.1528
C40 C 0.9138(9) 0.1420(3) 0.2531(5)
H46 H 0.8853 0.1661 0.1964
O19? O 0.7361(9) 0.3721(3) 0.6148(7)
O29? O 0.8547(14) -0.0186(4) 0.3508(9)
O31? O 0.8848(11) 0.0022(3) 0.1705(6)
loop_
_geom_bond_atom_site_label_1
_geom_bond_atom_site_label_2
_geom_bond_site_symmetry_1
_geom_bond_site_symmetry_2
S1 C1 1_555 1_555
N1 H1 1_555 1_555
O1 C1 1_555 1_555
C1 H2 1_555 1_555
C2 N1 1_555 1_555
H3 C2 1_555 1_555
C3 C2 1_555 1_555
H4 C3 1_555 1_555
C4 C3 1_555 1_555
H5 C4 1_555 1_555
C5 O1 1_555 1_555
H6 C5 1_555 1_555
C6 C5 1_555 1_555
H7 C6 1_555 1_555
H8 C6 1_555 1_555
O2 C6 1_555 1_555
O3 C7 1_555 1_555
C7 O2 1_555 1_555
C8 C7 1_555 1_555
H9 C8 1_555 1_555
H10 C8 1_555 1_555
H11 C8 1_555 1_555
O4 C4 1_555 1_555
O5 C9 1_555 1_555
C9 O4 1_555 1_555
C10 C9 1_555 1_555
H12 C10 1_555 1_555
H13 C10 1_555 1_555
H14 C10 1_555 1_555
O6 C3 1_555 1_555
O7 C11 1_555 1_555
C11 O6 1_555 1_555
C12 C11 1_555 1_555
H15 C12 1_555 1_555
H16 C12 1_555 1_555
H17 C12 1_555 1_555
C13 S1 1_555 1_555
C14 C13 1_555 1_555
H18 C14 1_555 1_555
H19 C14 1_555 1_555
H20 C14 1_555 1_555
S2 C15 1_555 1_555
N2 H21 1_555 1_555
O8 C15 1_555 1_555
C15 H22 1_555 1_555
C16 N2 1_555 1_555
H23 C16 1_555 1_555
C17 C16 1_555 1_555
H24 C17 1_555 1_555
C18 C17 1_555 1_555
H25 C18 1_555 1_555
C19 O8 1_555 1_555
H26 C19 1_555 1_555
C20 C19 1_555 1_555
H27 C20 1_555 1_555
H28 C20 1_555 1_555
O9 C20 1_555 1_555
O10 C21 1_555 1_555
C21 O9 1_555 1_555
C22 C21 1_555 1_555
H29 C22 1_555 1_555
H30 C22 1_555 1_555
H31 C22 1_555 1_555
O11 C18 1_555 1_555
O12 C23 1_555 1_555
C23 O11 1_555 1_555
C24 C23 1_555 1_555
H32 C24 1_555 1_555
H33 C24 1_555 1_555
H34 C24 1_555 1_555
O13 C17 1_555 1_555
O14 C25 1_555 1_555
C25 O13 1_555 1_555
C26 C25 1_555 1_555
H35 C26 1_555 1_555
H36 C26 1_555 1_555
H37 C26 1_555 1_555
C27 S2 1_555 1_555
C28 C27 1_555 1_555
H38 C28 1_555 1_555
H39 C28 1_555 1_555
H40 C28 1_555 1_555
S3 O15 1_555 1_555
O16 S3 1_555 1_555
O17 S3 1_555 1_555
N3 O18 1_555 1_555
O20 N3 1_555 1_555
N4 O21 1_555 1_555
O22 N4 1_555 1_555
C29 S3 1_555 1_555
C30 N3 1_555 1_555
C31 C30 1_555 1_555
H41 C31 1_555 1_555
C32 N4 1_555 1_555
C33 C32 1_555 1_555
H42 C33 1_555 1_555
C34 C29 1_555 1_555
H43 C34 1_555 1_555
S4 O23 1_555 1_555
O24 S4 1_555 1_555
O25 S4 1_555 1_555
N5 O26 1_555 1_555
O27 N5 1_555 1_555
N6 O28 1_555 1_555
O30 N6 1_555 1_555
C35 S4 1_555 1_555
C36 N5 1_555 1_555
C37 C36 1_555 1_555
H44 C37 1_555 1_555
C38 N6 1_555 1_555
C39 C38 1_555 1_555
H45 C39 1_555 1_555
C40 C35 1_555 1_555
H46 C40 1_555 1_555
N1 C13 1_555 1_555
C1 C2 1_555 1_555
C4 C5 1_555 1_555
N2 C27 1_555 1_555
C15 C16 1_555 1_555
C18 C19 1_555 1_555
C29 C30 1_555 1_555
C31 C32 1_555 1_555
C33 C34 1_555 1_555
C35 C36 1_555 1_555
C37 C38 1_555 1_555
C39 C40 1_555 1_555

#END
