
#######################################################################
#
#                 Cambridge Crystallographic Data Centre
#                                CCDC 
#
#######################################################################
#
# If this CIF has been generated from an entry in the Cambridge 
# Structural Database, then it will include bibliographic, chemical, 
# crystal, experimental, refinement or atomic coordinate data resulting 
# from the CCDC's data processing and validation procedures.
#
#######################################################################

data_CIFLUZ
_chemical_formula_moiety         'C15 H26 N2 O3'
_chemical_name_systematic        
1,3-di-t-butyl-4-(2-(methoxycarbonyl)ethenyl)imidazolidin-2-one
_symmetry_cell_setting           triclinic
_symmetry_space_group_name_H-M   'P -1'
_symmetry_Int_Tables_number      2
_space_group_name_Hall           '-P 1'
loop_
_symmetry_equiv_pos_site_id
_symmetry_equiv_pos_as_xyz
1 x,y,z
2 -x,-y,-z
_cell_length_a                   6.6652(3)
_cell_length_b                   10.3560(5)
_cell_length_c                   12.7813(6)
_cell_angle_alpha                109.931(2)
_cell_angle_beta                 91.021(3)
_cell_angle_gamma                104.591(3)
_cell_volume                     797.406
_exptl_crystal_colour            colorless
_exptl_crystal_description       rods
_cell_formula_units_Z            2
loop_
_atom_site_label
_atom_site_type_symbol
_atom_site_fract_x
_atom_site_fract_y
_atom_site_fract_z
O1 O 0.4072(3) 0.4135(2) 0.14782(16)
O2 O -0.3680(4) 0.0748(3) 0.3751(2)
O3 O -0.6588(3) 0.1470(2) 0.36844(18)
N1 N 0.0940(3) 0.4409(2) 0.21315(18)
N2 N 0.0872(3) 0.2585(2) 0.05315(17)
C1 C 0.2157(4) 0.3755(3) 0.1389(2)
C2 C -0.1263(4) 0.2694(3) 0.0601(2)
H1 H -0.2273 0.1738 0.0382
H2 H -0.1612 0.3193 0.0116
C3 C -0.1255(4) 0.3571(3) 0.1848(2)
H3 H -0.2175 0.4219 0.1927
C4 C 0.1821(4) 0.5605(3) 0.3206(2)
C5 C 0.3080(6) 0.5122(4) 0.3950(2)
H4 H 0.4228 0.4818 0.3561
H5 H 0.2166 0.4323 0.4107
H6 H 0.3648 0.5919 0.4655
C6 C 0.3219(5) 0.6854(3) 0.2955(3)
H7 H 0.2399 0.7155 0.2484
H8 H 0.4366 0.6555 0.2561
H9 H 0.3788 0.7653 0.3659
C7 C 0.0040(5) 0.6093(3) 0.3816(3)
H10 H -0.0755 0.6408 0.3345
H11 H 0.0617 0.6887 0.4522
H12 H -0.0883 0.5297 0.3973
C8 C 0.1564(4) 0.2070(3) -0.0604(2)
C9 C 0.3498(4) 0.1561(3) -0.0541(2)
H13 H 0.4635 0.2360 -0.0056
H14 H 0.3916 0.1200 -0.1293
H15 H 0.3187 0.0796 -0.0231
C10 C 0.2022(5) 0.3281(3) -0.1077(2)
H16 H 0.3144 0.4086 -0.0587
H17 H 0.0761 0.3594 -0.1118
H18 H 0.2452 0.2935 -0.1829
C11 C -0.0183(4) 0.0813(3) -0.1364(2)
H19 H -0.0463 0.0041 -0.1061
H20 H 0.0241 0.0468 -0.2117
H21 H -0.1448 0.1121 -0.1401
C12 C -0.1950(4) 0.2617(3) 0.2520(2)
H22 H -0.0986 0.2203 0.2751
C13 C -0.3880(4) 0.2349(3) 0.2791(2)
H23 H -0.4825 0.2770 0.2552
C14 C -0.4637(4) 0.1429(3) 0.3447(2)
C15 C -0.7555(5) 0.0645(4) 0.4343(3)
H24 H -0.8963 0.0754 0.4455
H25 H -0.6720 0.0987 0.5072
H26 H -0.7639 -0.0364 0.3949
loop_
_geom_bond_atom_site_label_1
_geom_bond_atom_site_label_2
_geom_bond_site_symmetry_1
_geom_bond_site_symmetry_2
O1 C1 1_555 1_555
O2 C14 1_555 1_555
O3 C14 1_555 1_555
N1 C1 1_555 1_555
N2 C1 1_555 1_555
C2 N2 1_555 1_555
H1 C2 1_555 1_555
H2 C2 1_555 1_555
C3 N1 1_555 1_555
H3 C3 1_555 1_555
C4 N1 1_555 1_555
C5 C4 1_555 1_555
H4 C5 1_555 1_555
H5 C5 1_555 1_555
H6 C5 1_555 1_555
C6 C4 1_555 1_555
H7 C6 1_555 1_555
H8 C6 1_555 1_555
H9 C6 1_555 1_555
C7 C4 1_555 1_555
H10 C7 1_555 1_555
H11 C7 1_555 1_555
H12 C7 1_555 1_555
C8 N2 1_555 1_555
C9 C8 1_555 1_555
H13 C9 1_555 1_555
H14 C9 1_555 1_555
H15 C9 1_555 1_555
C10 C8 1_555 1_555
H16 C10 1_555 1_555
H17 C10 1_555 1_555
H18 C10 1_555 1_555
C11 C8 1_555 1_555
H19 C11 1_555 1_555
H20 C11 1_555 1_555
H21 C11 1_555 1_555
C12 C3 1_555 1_555
H22 C12 1_555 1_555
C13 C12 1_555 1_555
H23 C13 1_555 1_555
C14 C13 1_555 1_555
C15 O3 1_555 1_555
H24 C15 1_555 1_555
H25 C15 1_555 1_555
H26 C15 1_555 1_555
C2 C3 1_555 1_555

#END
