
#######################################################################
#
#                 Cambridge Crystallographic Data Centre
#                                CCDC 
#
#######################################################################
#
# If this CIF has been generated from an entry in the Cambridge 
# Structural Database, then it will include bibliographic, chemical, 
# crystal, experimental, refinement or atomic coordinate data resulting 
# from the CCDC's data processing and validation procedures.
#
#######################################################################

data_CIFMUA
_chemical_formula_moiety         'C36 H66 O11 S1 Si2'
_chemical_name_systematic        
'methyl (4-([t-butyl(dimethyl)silyl]oxy)-6-[5-([t-butyl(dimethyl)silyl]oxy)-1,2,4-dihydroxy-4-methoxy-7-(phenylsulfonyl)heptyl]-6-hydroxy-3,5-dimethyltetrahydro-2H-pyran-2-yl)acetate'
_symmetry_cell_setting           orthorhombic
_symmetry_space_group_name_H-M   'P 21 21 21'
_symmetry_Int_Tables_number      19
_space_group_name_Hall           'P 2ac 2ab'
loop_
_symmetry_equiv_pos_site_id
_symmetry_equiv_pos_as_xyz
1 x,y,z
2 1/2-x,-y,1/2+z
3 -x,1/2+y,1/2-z
4 1/2+x,1/2-y,-z
_cell_length_a                   11.0209(2)
_cell_length_b                   12.2273(2)
_cell_length_c                   31.3304(4)
_cell_angle_alpha                90
_cell_angle_beta                 90
_cell_angle_gamma                90
_cell_volume                     4221.95
_exptl_crystal_description       needle
_chemical_melting_point          125.4-128.4deg.C
_cell_formula_units_Z            4
loop_
_atom_site_label
_atom_site_type_symbol
_atom_site_fract_x
_atom_site_fract_y
_atom_site_fract_z
S1 S 0.90457(4) 0.80173(4) 0.602953(15)
Si1 Si 1.42836(5) 0.78290(5) 0.580556(17)
Si2 Si 1.11824(5) 0.68567(5) 0.932736(18)
O1 O 1.27201(12) 0.61568(11) 0.76668(4)
O2 O 1.41699(14) 0.55927(11) 0.81605(5)
O3 O 1.15375(13) 0.73107(11) 0.88434(4)
O4 O 1.23793(14) 0.36995(13) 0.73233(5)
O5 O 1.15750(15) 0.47056(14) 0.68003(5)
O6 O 1.50423(15) 0.62357(13) 0.73859(5)
O7 O 1.53812(14) 0.84801(13) 0.72239(5)
O8 O 1.25951(14) 0.97856(12) 0.69878(4)
O9 O 1.32079(13) 0.76945(11) 0.61722(4)
O10 O 0.87041(14) 0.90380(12) 0.62220(5)
O11 O 0.86080(14) 0.77568(13) 0.56093(4)
C1 C 1.36499(18) 0.64979(16) 0.79531(6)
C2 C 1.31227(18) 0.72351(16) 0.83056(6)
C3 C 1.20634(19) 0.66239(16) 0.85179(6)
C4 C 1.10994(19) 0.62882(16) 0.81920(6)
C5 C 1.17559(19) 0.55592(16) 0.78691(7)
C6 C 1.46228(18) 0.70538(17) 0.76749(6)
C7 C 1.42996(18) 0.81101(17) 0.74377(6)
C8 C 1.33264(19) 0.79692(17) 0.70934(6)
C9 C 1.32176(19) 0.89055(16) 0.67813(6)
C10 C 1.25670(18) 0.85695(17) 0.63682(6)
C11 C 1.12597(18) 0.82206(18) 0.64357(6)
C12 C 1.06561(18) 0.79693(17) 0.60104(6)
C13 C 1.4079(2) 0.75850(19) 0.86317(7)
C14 C 1.0434(2) 0.72524(19) 0.79896(7)
C15 C 1.0984(2) 0.51485(18) 0.75003(6)
C16 C 1.1725(2) 0.44386(17) 0.72080(7)
C17 C 1.2272(3) 0.4052(3) 0.64984(8)
C18 C 1.2662(2) 1.07901(18) 0.67558(7)
C19 C 1.4686(2) 0.63746(19) 0.56767(7)
C20 C 1.3557(3) 0.5777(2) 0.55172(10)
C21 C 1.5669(3) 0.6351(2) 0.53258(9)
C22 C 1.5162(3) 0.5810(2) 0.60776(9)
C23 C 1.5609(2) 0.8594(2) 0.60178(9)
C24 C 1.3656(3) 0.8574(2) 0.53396(8)
C25 C 0.86364(18) 0.69561(17) 0.63826(6)
C26 C 0.82703(19) 0.72054(18) 0.67944(6)
C27 C 0.7969(2) 0.6369(2) 0.70676(7)
C28 C 0.8042(2) 0.5287(2) 0.69345(8)
C29 C 0.8402(2) 0.50507(19) 0.65235(8)
C30 C 0.8700(2) 0.58855(18) 0.62454(7)
C31 C 1.1013(2) 0.81216(18) 0.96686(7)
C32 C 1.2167(2) 0.8817(2) 0.96406(8)
C33 C 1.0814(3) 0.7788(2) 1.01394(7)
C34 C 0.9922(2) 0.8803(2) 0.95172(8)
C35 C 0.9716(2) 0.6095(2) 0.93080(8)
C36 C 1.2407(2) 0.5959(2) 0.95333(7)
H1 H 1.2791 0.7909 0.8168
H2 H 1.2389 0.5948 0.8657
H3 H 1.0484 0.5828 0.8343
H4 H 1.2109 0.4917 0.8023
H5 H 1.439(3) 0.516(2) 0.7962(9)
H6 H 1.4031 0.8676 0.7648
H7 H 1.4053 0.9159 0.6706
H8 H 1.2574 0.9208 0.6169
H9 H 1.552(4) 0.656(3) 0.7213(11)
H10 H 1.5318 0.7232 0.7868
H11 H 1.586(3) 0.857(2) 0.7392(8)
H12 H 1.3504 0.7293 0.6931
H13 H 1.2532 0.7867 0.7236
H14 H 1.3483 1.0883 0.6641
H15 H 1.2471 1.1401 0.6947
H16 H 1.2077 1.0775 0.6520
H17 H 1.3753 0.5006 0.5466
H18 H 1.3279 0.6113 0.5251
H19 H 1.2914 0.5829 0.5732
H20 H 1.6415 0.6687 0.5434
H21 H 1.5383 0.6759 0.5076
H22 H 1.5833 0.5591 0.5244
H23 H 1.5375 0.5051 0.6010
H24 H 1.4534 0.5821 0.6299
H25 H 1.5884 0.6196 0.6181
H26 H 1.5375 0.9355 0.6073
H27 H 1.6269 0.8578 0.5808
H28 H 1.5883 0.8255 0.6284
H29 H 1.2964 0.8168 0.5224
H30 H 1.4284 0.8643 0.5120
H31 H 1.3390 0.9303 0.5429
H32 H 1.0810 0.8812 0.6582
H33 H 1.1236 0.7563 0.6620
H34 H 1.0910 0.7232 0.5916
H35 H 1.0945 0.8502 0.5795
H36 H 0.8228 0.7945 0.6887
H37 H 0.7709 0.6532 0.7350
H38 H 0.7843 0.4712 0.7126
H39 H 0.8446 0.4312 0.6431
H40 H 0.8947 0.5724 0.5962
H41 H 1.3691 0.8012 0.8859
H42 H 1.4697 0.8033 0.8490
H43 H 1.4462 0.6934 0.8755
H44 H 1.2292 0.9053 0.9345
H45 H 1.2865 0.8383 0.9735
H46 H 1.2083 0.9461 0.9824
H47 H 1.1532 0.7400 1.0244
H48 H 1.0104 0.7309 1.0160
H49 H 1.0680 0.8445 1.0313
H50 H 0.9885 0.9486 0.9680
H51 H 0.9173 0.8386 0.9562
H52 H 1.0013 0.8970 0.9213
H53 H 0.9071 0.6586 0.9210
H54 H 0.9519 0.5821 0.9594
H55 H 0.9789 0.5479 0.9110
H56 H 1.2427 0.5280 0.9367
H57 H 1.2252 0.5788 0.9834
H58 H 1.3189 0.6335 0.9507
H59 H 1.0983 0.7638 0.7795
H60 H 1.0162 0.7755 0.8214
H61 H 0.9730 0.6984 0.7830
H62 H 1.0289 0.4724 0.7613
H63 H 1.0658 0.5779 0.7338
H64 H 1.3140 0.4133 0.6559
H65 H 1.2102 0.4301 0.6207
H66 H 1.2042 0.3281 0.6527
loop_
_geom_bond_atom_site_label_1
_geom_bond_atom_site_label_2
_geom_bond_site_symmetry_1
_geom_bond_site_symmetry_2
S1 O10 1_555 1_555
Si1 O9 1_555 1_555
Si2 O3 1_555 1_555
O1 C1 1_555 1_555
O2 C1 1_555 1_555
O3 C3 1_555 1_555
O4 C16 1_555 1_555
O5 C16 1_555 1_555
O6 C6 1_555 1_555
O7 C7 1_555 1_555
O8 C9 1_555 1_555
O9 C10 1_555 1_555
O11 S1 1_555 1_555
C1 C2 1_555 1_555
C2 C3 1_555 1_555
C3 C4 1_555 1_555
C4 C5 1_555 1_555
C5 O1 1_555 1_555
C6 C1 1_555 1_555
C7 C6 1_555 1_555
C8 C7 1_555 1_555
C9 C8 1_555 1_555
C10 C9 1_555 1_555
C11 C10 1_555 1_555
C12 S1 1_555 1_555
C13 C2 1_555 1_555
C14 C4 1_555 1_555
C15 C5 1_555 1_555
C16 C15 1_555 1_555
C17 O5 1_555 1_555
C18 O8 1_555 1_555
C19 Si1 1_555 1_555
C20 C19 1_555 1_555
C21 C19 1_555 1_555
C22 C19 1_555 1_555
C23 Si1 1_555 1_555
C24 Si1 1_555 1_555
C25 S1 1_555 1_555
C26 C25 1_555 1_555
C27 C26 1_555 1_555
C28 C27 1_555 1_555
C29 C28 1_555 1_555
C30 C25 1_555 1_555
C31 Si2 1_555 1_555
C32 C31 1_555 1_555
C33 C31 1_555 1_555
C34 C31 1_555 1_555
C35 Si2 1_555 1_555
C36 Si2 1_555 1_555
H1 C2 1_555 1_555
H2 C3 1_555 1_555
H3 C4 1_555 1_555
H4 C5 1_555 1_555
H5 O2 1_555 1_555
H6 C7 1_555 1_555
H7 C9 1_555 1_555
H8 C10 1_555 1_555
H9 O6 1_555 1_555
H10 C6 1_555 1_555
H11 O7 1_555 1_555
H12 C8 1_555 1_555
H13 C8 1_555 1_555
H14 C18 1_555 1_555
H15 C18 1_555 1_555
H16 C18 1_555 1_555
H17 C20 1_555 1_555
H18 C20 1_555 1_555
H19 C20 1_555 1_555
H20 C21 1_555 1_555
H21 C21 1_555 1_555
H22 C21 1_555 1_555
H23 C22 1_555 1_555
H24 C22 1_555 1_555
H25 C22 1_555 1_555
H26 C23 1_555 1_555
H27 C23 1_555 1_555
H28 C23 1_555 1_555
H29 C24 1_555 1_555
H30 C24 1_555 1_555
H31 C24 1_555 1_555
H32 C11 1_555 1_555
H33 C11 1_555 1_555
H34 C12 1_555 1_555
H35 C12 1_555 1_555
H36 C26 1_555 1_555
H37 C27 1_555 1_555
H38 C28 1_555 1_555
H39 C29 1_555 1_555
H40 C30 1_555 1_555
H41 C13 1_555 1_555
H42 C13 1_555 1_555
H43 C13 1_555 1_555
H44 C32 1_555 1_555
H45 C32 1_555 1_555
H46 C32 1_555 1_555
H47 C33 1_555 1_555
H48 C33 1_555 1_555
H49 C33 1_555 1_555
H50 C34 1_555 1_555
H51 C34 1_555 1_555
H52 C34 1_555 1_555
H53 C35 1_555 1_555
H54 C35 1_555 1_555
H55 C35 1_555 1_555
H56 C36 1_555 1_555
H57 C36 1_555 1_555
H58 C36 1_555 1_555
H59 C14 1_555 1_555
H60 C14 1_555 1_555
H61 C14 1_555 1_555
H62 C15 1_555 1_555
H63 C15 1_555 1_555
H64 C17 1_555 1_555
H65 C17 1_555 1_555
H66 C17 1_555 1_555
C11 C12 1_555 1_555
C29 C30 1_555 1_555

#END
