
#######################################################################
#
#                 Cambridge Crystallographic Data Centre
#                                CCDC 
#
#######################################################################
#
# If this CIF has been generated from an entry in the Cambridge 
# Structural Database, then it will include bibliographic, chemical, 
# crystal, experimental, refinement or atomic coordinate data resulting 
# from the CCDC's data processing and validation procedures.
#
#######################################################################

data_CIFNIR
_chemical_formula_moiety         'C17 H13 N1 O1'
_chemical_name_systematic        
([1,1'-biphenyl]-2-yl)(1H-pyrrol-1-yl)methanone
_symmetry_cell_setting           triclinic
_symmetry_space_group_name_H-M   'P -1'
_symmetry_Int_Tables_number      2
_space_group_name_Hall           '-P 1'
loop_
_symmetry_equiv_pos_site_id
_symmetry_equiv_pos_as_xyz
1 x,y,z
2 -x,-y,-z
_cell_length_a                   9.2826(2)
_cell_length_b                   11.5379(3)
_cell_length_c                   11.9866(3)
_cell_angle_alpha                80.9590(10)
_cell_angle_beta                 89.9960(10)
_cell_angle_gamma                82.1240(10)
_cell_volume                     1255.57
_exptl_crystal_colour            colorless
_exptl_crystal_description       block
_cell_formula_units_Z            4
loop_
_atom_site_label
_atom_site_type_symbol
_atom_site_fract_x
_atom_site_fract_y
_atom_site_fract_z
O1 O 1.00231(9) 0.72097(7) 0.31166(7)
N1 N 0.82817(10) 0.87531(8) 0.24728(8)
C1 C 0.70824(12) 0.95940(10) 0.25909(10)
H1 H 0.642236 0.954865 0.317462
C2 C 0.70474(13) 1.04912(10) 0.17031(10)
H2 H 0.636251 1.116853 0.157163
C3 C 0.82563(14) 1.02035(11) 0.10082(10)
H3 H 0.849401 1.066077 0.034153
C4 C 0.89972(13) 0.91440(11) 0.14933(10)
H4 H 0.983248 0.875110 0.121944
C5 C 0.88049(12) 0.77111(9) 0.32181(9)
C6 C 0.77747(11) 0.72397(9) 0.40786(9)
C7 C 0.63494(12) 0.71634(10) 0.37496(10)
H5 H 0.601250 0.749538 0.302327
C8 C 0.54330(12) 0.65945(10) 0.45013(10)
H6 H 0.447701 0.656651 0.428707
C9 C 0.59537(12) 0.60678(10) 0.55745(10)
H7 H 0.535024 0.567251 0.607441
C10 C 0.73720(12) 0.61300(10) 0.59025(9)
H8 H 0.771316 0.576310 0.661841
C11 C 0.82966(11) 0.67346(9) 0.51753(9)
C12 C 0.97504(11) 0.68812(9) 0.56099(9)
C13 C 1.01205(12) 0.80148(10) 0.56026(9)
H9 H 0.948334 0.867508 0.527801
C14 C 1.14372(13) 0.81624(11) 0.60781(10)
H10 H 1.166667 0.892092 0.608562
C15 C 1.24115(12) 0.71795(11) 0.65422(10)
H11 H 1.329637 0.727852 0.685224
C16 C 1.20545(12) 0.60459(11) 0.65399(10)
H12 H 1.270913 0.538616 0.683926
C17 C 1.07209(12) 0.58969(10) 0.60909(9)
H13 H 1.047606 0.513886 0.611172
O2 O 0.59621(9) 0.71361(7) 0.80942(7)
N2 N 0.71412(10) 0.87023(8) 0.74527(8)
C18 C 0.62937(12) 0.90841(11) 0.64720(10)
H14 H 0.561092 0.867767 0.619230
C19 C 0.66411(13) 1.01571(11) 0.59953(10)
H15 H 0.624032 1.061204 0.533001
C20 C 0.77316(13) 1.04632(10) 0.66971(10)
H16 H 0.816251 1.115260 0.657182
C21 C 0.80235(12) 0.95640(10) 0.75795(10)
H17 H 0.869310 0.952832 0.816520
C22 C 0.69948(12) 0.76551(10) 0.81968(9)
C23 C 0.81827(12) 0.72115(9) 0.90624(9)
C24 C 0.96380(12) 0.71612(10) 0.87462(10)
H18 H 0.986463 0.747578 0.801510
C25 C 1.07461(12) 0.66440(10) 0.95182(10)
H19 H 1.171300 0.662765 0.931017
C26 C 1.04047(12) 0.61514(10) 1.06017(10)
H20 H 1.114414 0.579229 1.111611
C27 C 0.89614(12) 0.61936(10) 1.09196(9)
H21 H 0.874455 0.585656 1.164602
C28 C 0.78315(11) 0.67338(9) 1.01658(9)
C29 C 0.63178(11) 0.68605(10) 1.05896(9)
C30 C 0.56660(12) 0.58671(10) 1.10219(9)
H22 H 0.615149 0.511227 1.099259
C31 C 0.42958(13) 0.59976(11) 1.14961(10)
H23 H 0.386520 0.533147 1.177354
C32 C 0.35696(12) 0.71233(12) 1.15556(10)
H24 H 0.266211 0.721174 1.188489
C33 C 0.42096(12) 0.81166(11) 1.11194(10)
H25 H 0.372522 0.887049 1.115478
C34 C 0.55704(12) 0.79873(10) 1.06307(9)
H26 H 0.598367 0.865535 1.033005
loop_
_geom_bond_atom_site_label_1
_geom_bond_atom_site_label_2
_geom_bond_site_symmetry_1
_geom_bond_site_symmetry_2
O1 C5 1_555 1_555
N1 C1 1_555 1_555
C1 H1 1_555 1_555
C2 C1 1_555 1_555
H2 C2 1_555 1_555
C3 C2 1_555 1_555
H3 C3 1_555 1_555
C4 N1 1_555 1_555
H4 C4 1_555 1_555
C5 N1 1_555 1_555
C6 C5 1_555 1_555
C7 C6 1_555 1_555
H5 C7 1_555 1_555
C8 C7 1_555 1_555
H6 C8 1_555 1_555
C9 C8 1_555 1_555
H7 C9 1_555 1_555
C10 C9 1_555 1_555
H8 C10 1_555 1_555
C11 C6 1_555 1_555
C12 C11 1_555 1_555
C13 C12 1_555 1_555
H9 C13 1_555 1_555
C14 C13 1_555 1_555
H10 C14 1_555 1_555
C15 C14 1_555 1_555
H11 C15 1_555 1_555
C16 C15 1_555 1_555
H12 C16 1_555 1_555
C17 C12 1_555 1_555
H13 C17 1_555 1_555
O2 C22 1_555 1_555
N2 C18 1_555 1_555
C18 H14 1_555 1_555
C19 C18 1_555 1_555
H15 C19 1_555 1_555
C20 C19 1_555 1_555
H16 C20 1_555 1_555
C21 N2 1_555 1_555
H17 C21 1_555 1_555
C22 N2 1_555 1_555
C23 C22 1_555 1_555
C24 C23 1_555 1_555
H18 C24 1_555 1_555
C25 C24 1_555 1_555
H19 C25 1_555 1_555
C26 C25 1_555 1_555
H20 C26 1_555 1_555
C27 C26 1_555 1_555
H21 C27 1_555 1_555
C28 C23 1_555 1_555
C29 C28 1_555 1_555
C30 C29 1_555 1_555
H22 C30 1_555 1_555
C31 C30 1_555 1_555
H23 C31 1_555 1_555
C32 C31 1_555 1_555
H24 C32 1_555 1_555
C33 C32 1_555 1_555
H25 C33 1_555 1_555
C34 C29 1_555 1_555
H26 C34 1_555 1_555
C3 C4 1_555 1_555
C10 C11 1_555 1_555
C16 C17 1_555 1_555
C20 C21 1_555 1_555
C27 C28 1_555 1_555
C33 C34 1_555 1_555

#END
