
#######################################################################
#
#                 Cambridge Crystallographic Data Centre
#                                CCDC 
#
#######################################################################
#
# If this CIF has been generated from an entry in the Cambridge 
# Structural Database, then it will include bibliographic, chemical, 
# crystal, experimental, refinement or atomic coordinate data resulting 
# from the CCDC's data processing and validation procedures.
#
#######################################################################

data_CIFNAH
_chemical_formula_moiety         'C38 H66 O12 S1 Si2'
_chemical_name_systematic        
'methyl (4-([t-butyl(dimethyl)silyl]oxy)-6-(5-[3-([t-butyl(dimethyl)silyl]oxy)-2-methoxy-5-(phenylsulfonyl)pentyl]-2-oxo-1,3-dioxolan-4-yl)-6-methoxy-3,5-dimethyltetrahydro-2H-pyran-2-yl)acetate'
_symmetry_cell_setting           monoclinic
_symmetry_space_group_name_H-M   'P 21'
_symmetry_Int_Tables_number      4
_space_group_name_Hall           'P 2yb'
loop_
_symmetry_equiv_pos_site_id
_symmetry_equiv_pos_as_xyz
1 x,y,z
2 -x,1/2+y,-z
_cell_length_a                   7.2920(4)
_cell_length_b                   17.7683(17)
_cell_length_c                   17.7243(11)
_cell_angle_alpha                90
_cell_angle_beta                 98.805(4)
_cell_angle_gamma                90
_cell_volume                     2269.41
_exptl_crystal_colour            yellow
_exptl_crystal_description       plate
_chemical_melting_point          141.0-145.0deg.C
_cell_formula_units_Z            2
loop_
_atom_site_label
_atom_site_type_symbol
_atom_site_fract_x
_atom_site_fract_y
_atom_site_fract_z
S1 S 0.7831(2) 0.06057(9) 0.95023(8)
Si1 Si 0.7695(2) -0.16295(10) 1.18297(8)
Si2 Si 0.4658(2) -0.33529(11) 0.52225(9)
O1 O 0.9186(6) -0.2564(2) 0.79455(19)
O2 O 1.0345(5) -0.3711(2) 0.7568(2)
O3 O 0.6650(6) -0.3911(2) 0.9460(2)
O4 O 0.7104(6) -0.5147(3) 0.9434(2)
O5 O 0.8733(5) -0.4369(2) 0.87956(19)
O6 O 0.5216(5) -0.3185(2) 0.6142(2)
O7 O 0.8910(9) -0.0362(3) 0.6606(4)
O8 O 1.1094(8) -0.1145(3) 0.6348(3)
O9 O 0.8019(5) -0.1628(2) 1.09260(19)
O10 O 0.9589(6) 0.0462(3) 0.9264(2)
O11 O 0.7594(7) 0.1312(3) 0.9876(2)
O12 O 0.4633(6) -0.2130(2) 0.9250(2)
C1 C 0.8880(8) -0.3353(3) 0.7864(3)
C2 C 0.7118(8) -0.3548(3) 0.7310(3)
C3 C 0.6996(8) -0.3071(3) 0.6567(3)
C4 C 0.7329(9) -0.2237(3) 0.6737(3)
C5 C 0.9241(8) -0.2175(3) 0.7239(3)
C6 C 1.2191(8) -0.3571(4) 0.7957(3)
C7 C 0.8867(8) -0.3567(3) 0.8714(3)
C8 C 0.7226(8) -0.3259(3) 0.9061(3)
C9 C 0.7474(8) -0.4537(3) 0.9251(3)
C10 C 0.7714(8) -0.2606(3) 0.9583(3)
C11 C 0.6080(8) -0.2244(3) 0.9882(3)
C12 C 0.6891(9) -0.4382(4) 0.7121(3)
C13 C 0.2098(8) -0.3500(4) 0.5099(3)
C14 C 0.1140(10) -0.2781(4) 0.5307(4)
C15 C 0.1650(10) -0.4145(4) 0.5625(4)
C16 C 0.1338(10) -0.3692(4) 0.4259(4)
C17 C 0.5280(12) -0.2529(6) 0.4655(4)
C18 C 0.5895(12) -0.4207(6) 0.4947(4)
C19 C 0.5765(10) -0.1858(4) 0.7081(4)
C20 C 0.9847(9) -0.1378(4) 0.7463(3)
C21 C 0.9848(10) -0.0889(4) 0.6775(4)
C22 C 1.1165(14) -0.0734(5) 0.5645(4)
C23 C 0.6610(8) -0.1486(3) 1.0291(3)
C24 C 0.7258(9) -0.0904(3) 0.9767(3)
C25 C 0.7311(9) -0.0129(3) 1.0122(3)
C26 C 1.0057(10) -0.1834(4) 1.2372(3)
C27 C 1.1453(11) -0.1279(5) 1.2131(5)
C28 C 1.0023(13) -0.1738(6) 1.3240(4)
C29 C 1.0658(11) -0.2632(4) 1.2210(4)
C30 C 0.6852(11) -0.0689(4) 1.2090(4)
C31 C 0.5971(10) -0.2362(5) 1.1983(4)
C32 C 0.6087(8) 0.0534(3) 0.8686(3)
C33 C 0.6619(9) 0.0441(4) 0.7976(3)
C34 C 0.5249(10) 0.0413(5) 0.7344(3)
C35 C 0.3406(10) 0.0455(4) 0.7416(3)
C36 C 0.2884(10) 0.0528(4) 0.8129(4)
C37 C 0.4241(9) 0.0580(4) 0.8770(3)
C38 C 0.2900(9) -0.1930(4) 0.9462(4)
H1 H 0.6039 -0.3399 0.7564
H2 H 0.7951 -0.3257 0.6262
H3 H 0.7417 -0.1980 0.6242
H4 H 1.0196 -0.2415 0.6969
H5 H 1.0047 -0.3388 0.9025
H6 H 0.6209 -0.3111 0.8643
H7 H 0.5622 -0.2596 1.0252
H8 H 0.5493 -0.1285 1.0488
H9 H 0.8513 -0.1040 0.9663
H10 H 0.6408 -0.0901 0.9275
H11 H 0.8256 -0.0126 1.0587
H12 H 0.6092 -0.0025 1.0280
H13 H 1.2665 -0.1355 1.2446
H14 H 1.1029 -0.0764 1.2198
H15 H 1.1563 -0.1363 1.1593
H16 H 1.1289 -0.1776 1.3518
H17 H 0.9252 -0.2134 1.3416
H18 H 0.9504 -0.1245 1.3335
H19 H 1.0643 -0.2694 1.1660
H20 H 0.9801 -0.2993 1.2387
H21 H 1.1916 -0.2721 1.2480
H22 H 0.7818 -0.0312 1.2059
H23 H 0.6563 -0.0706 1.2612
H24 H 0.5733 -0.0555 1.1736
H25 H 0.4802 -0.2266 1.1644
H26 H 0.5757 -0.2347 1.2515
H27 H 0.6446 -0.2859 1.1870
H28 H 1.2391 -0.3027 0.8012
H29 H 1.3095 -0.3785 0.7661
H30 H 1.2344 -0.3805 0.8464
H31 H 0.7892 0.0396 0.7924
H32 H 0.5591 0.0365 0.6850
H33 H 0.2487 0.0434 0.6975
H34 H 0.1607 0.0542 0.8181
H35 H 0.3899 0.0648 0.9262
H36 H 0.8331 -0.2219 0.9308
H37 H 0.8620 -0.2776 1.0023
H38 H 0.2684 -0.2230 0.9903
H39 H 0.1907 -0.2026 0.9034
H40 H 0.2909 -0.1394 0.9595
H41 H 0.7923 -0.4551 0.6868
H42 H 0.5716 -0.4464 0.6781
H43 H 0.6890 -0.4669 0.7593
H44 H 0.1392 -0.2373 0.4966
H45 H 0.1613 -0.2643 0.5836
H46 H -0.0202 -0.2867 0.5253
H47 H 0.2114 -0.4016 0.6158
H48 H 0.2249 -0.4609 0.5490
H49 H 0.0304 -0.4220 0.5563
H50 H -0.0014 -0.3744 0.4198
H51 H 0.1886 -0.4166 0.4119
H52 H 0.1661 -0.3288 0.3927
H53 H 0.4744 -0.2070 0.4836
H54 H 0.4788 -0.2606 0.4114
H55 H 0.6633 -0.2479 0.4716
H56 H 0.7216 -0.4170 0.5157
H57 H 0.5752 -0.4241 0.4389
H58 H 0.5367 -0.4657 0.5150
H59 H 0.5818 -0.2019 0.7612
H60 H 0.4566 -0.2002 0.6788
H61 H 0.5910 -0.1311 0.7062
H62 H 0.8996 -0.1162 0.7791
H63 H 1.1110 -0.1389 0.7762
H64 H 1.0049 -0.0844 0.5278
H65 H 1.2267 -0.0889 0.5429
H66 H 1.1229 -0.0193 0.5752
loop_
_geom_bond_atom_site_label_1
_geom_bond_atom_site_label_2
_geom_bond_site_symmetry_1
_geom_bond_site_symmetry_2
S1 O10 1_555 1_555
Si1 O9 1_555 1_555
Si2 O6 1_555 1_555
O1 C1 1_555 1_555
O2 C1 1_555 1_555
O3 C8 1_555 1_555
O4 C9 1_555 1_555
O5 C7 1_555 1_555
O6 C3 1_555 1_555
O7 C21 1_555 1_555
O8 C21 1_555 1_555
O9 C23 1_555 1_555
O11 S1 1_555 1_555
O12 C11 1_555 1_555
C1 C2 1_555 1_555
C2 C3 1_555 1_555
C3 C4 1_555 1_555
C4 C5 1_555 1_555
C5 O1 1_555 1_555
C6 O2 1_555 1_555
C7 C1 1_555 1_555
C8 C7 1_555 1_555
C9 O3 1_555 1_555
C10 C8 1_555 1_555
C11 C10 1_555 1_555
C12 C2 1_555 1_555
C13 Si2 1_555 1_555
C14 C13 1_555 1_555
C15 C13 1_555 1_555
C16 C13 1_555 1_555
C17 Si2 1_555 1_555
C18 Si2 1_555 1_555
C19 C4 1_555 1_555
C20 C5 1_555 1_555
C21 C20 1_555 1_555
C22 O8 1_555 1_555
C23 C11 1_555 1_555
C24 C23 1_555 1_555
C25 S1 1_555 1_555
C26 Si1 1_555 1_555
C27 C26 1_555 1_555
C28 C26 1_555 1_555
C29 C26 1_555 1_555
C30 Si1 1_555 1_555
C31 Si1 1_555 1_555
C32 S1 1_555 1_555
C33 C32 1_555 1_555
C34 C33 1_555 1_555
C35 C34 1_555 1_555
C36 C35 1_555 1_555
C37 C32 1_555 1_555
C38 O12 1_555 1_555
H1 C2 1_555 1_555
H2 C3 1_555 1_555
H3 C4 1_555 1_555
H4 C5 1_555 1_555
H5 C7 1_555 1_555
H6 C8 1_555 1_555
H7 C11 1_555 1_555
H8 C23 1_555 1_555
H9 C24 1_555 1_555
H10 C24 1_555 1_555
H11 C25 1_555 1_555
H12 C25 1_555 1_555
H13 C27 1_555 1_555
H14 C27 1_555 1_555
H15 C27 1_555 1_555
H16 C28 1_555 1_555
H17 C28 1_555 1_555
H18 C28 1_555 1_555
H19 C29 1_555 1_555
H20 C29 1_555 1_555
H21 C29 1_555 1_555
H22 C30 1_555 1_555
H23 C30 1_555 1_555
H24 C30 1_555 1_555
H25 C31 1_555 1_555
H26 C31 1_555 1_555
H27 C31 1_555 1_555
H28 C6 1_555 1_555
H29 C6 1_555 1_555
H30 C6 1_555 1_555
H31 C33 1_555 1_555
H32 C34 1_555 1_555
H33 C35 1_555 1_555
H34 C36 1_555 1_555
H35 C37 1_555 1_555
H36 C10 1_555 1_555
H37 C10 1_555 1_555
H38 C38 1_555 1_555
H39 C38 1_555 1_555
H40 C38 1_555 1_555
H41 C12 1_555 1_555
H42 C12 1_555 1_555
H43 C12 1_555 1_555
H44 C14 1_555 1_555
H45 C14 1_555 1_555
H46 C14 1_555 1_555
H47 C15 1_555 1_555
H48 C15 1_555 1_555
H49 C15 1_555 1_555
H50 C16 1_555 1_555
H51 C16 1_555 1_555
H52 C16 1_555 1_555
H53 C17 1_555 1_555
H54 C17 1_555 1_555
H55 C17 1_555 1_555
H56 C18 1_555 1_555
H57 C18 1_555 1_555
H58 C18 1_555 1_555
H59 C19 1_555 1_555
H60 C19 1_555 1_555
H61 C19 1_555 1_555
H62 C20 1_555 1_555
H63 C20 1_555 1_555
H64 C22 1_555 1_555
H65 C22 1_555 1_555
H66 C22 1_555 1_555
O5 C9 1_555 1_555
C24 C25 1_555 1_555
C36 C37 1_555 1_555

#END
