
#######################################################################
#
#                 Cambridge Crystallographic Data Centre
#                                CCDC 
#
#######################################################################
#
# If this CIF has been generated from an entry in the Cambridge 
# Structural Database, then it will include bibliographic, chemical, 
# crystal, experimental, refinement or atomic coordinate data resulting 
# from the CCDC's data processing and validation procedures.
#
#######################################################################

data_CIFNEN
_chemical_formula_moiety         'C24 H42 B1 Li1 O4'
_chemical_name_systematic        
(2-t-butyl-4,4,5,5-tetramethyl-2-phenyl-1,3,2\l^5^-dioxaborolane)-bis(triphenylphosphine)-lithium
_symmetry_cell_setting           monoclinic
_symmetry_space_group_name_H-M   'P 21/n'
_symmetry_Int_Tables_number      14
_space_group_name_Hall           '-P 2yn'
loop_
_symmetry_equiv_pos_site_id
_symmetry_equiv_pos_as_xyz
1 x,y,z
2 1/2-x,1/2+y,1/2-z
3 -x,-y,-z
4 1/2+x,1/2-y,1/2+z
_cell_length_a                   9.3874(6)
_cell_length_b                   19.1079(12)
_cell_length_c                   14.2909(8)
_cell_angle_alpha                90
_cell_angle_beta                 90.240(5)
_cell_angle_gamma                90
_cell_volume                     2563.39
_exptl_crystal_colour            colorless
_exptl_crystal_description       block
_cell_formula_units_Z            4
loop_
_atom_site_label
_atom_site_type_symbol
_atom_site_fract_x
_atom_site_fract_y
_atom_site_fract_z
O1 O 0.3197(3) 0.37201(12) 0.32283(14)
O2 O 0.3004(3) 0.46502(11) 0.21670(15)
O3 O 0.2667(3) 0.21190(12) 0.40985(18)
O4 O 0.2471(3) 0.32820(14) 0.54641(16)
C1 C 0.4586(4) 0.40243(18) 0.3124(2)
C2 C 0.4284(4) 0.47507(18) 0.2682(2)
C3 C 0.5487(4) 0.3549(2) 0.2512(3)
H1 H 0.5509 0.3078 0.2781
H2 H 0.6460 0.3734 0.2478
H3 H 0.5075 0.3530 0.1881
C4 C 0.5270(5) 0.4054(3) 0.4102(3)
H4 H 0.4646 0.4314 0.4527
H5 H 0.6195 0.4290 0.4064
H6 H 0.5406 0.3577 0.4339
C5 C 0.4008(5) 0.5318(2) 0.3416(3)
H7 H 0.3643 0.5739 0.3107
H8 H 0.4899 0.5429 0.3743
H9 H 0.3305 0.5148 0.3867
C6 C 0.5439(4) 0.5001(2) 0.2028(3)
H10 H 0.5518 0.4677 0.1499
H11 H 0.6349 0.5019 0.2365
H12 H 0.5198 0.5469 0.1795
C7 C 0.0639(4) 0.40783(19) 0.2733(3)
C8 C 0.0508(5) 0.4659(2) 0.3465(3)
H13 H -0.0489 0.4702 0.3659
H14 H 0.0827 0.5104 0.3195
H15 H 0.1101 0.4545 0.4010
C9 C 0.0008(5) 0.3413(2) 0.3144(3)
H16 H 0.0460 0.3315 0.3749
H17 H 0.0176 0.3022 0.2716
H18 H -0.1019 0.3476 0.3232
C10 C -0.0270(4) 0.4278(3) 0.1878(3)
H19 H -0.1219 0.4423 0.2084
H20 H -0.0358 0.3873 0.1461
H21 H 0.0186 0.4664 0.1542
C11 C 0.2449(4) 0.34463(18) 0.1510(2)
C12 C 0.2540(4) 0.3724(2) 0.0598(2)
H22 H 0.2536 0.4218 0.0519
C13 C 0.2635(5) 0.3303(3) -0.0182(3)
H23 H 0.2706 0.3509 -0.0785
C14 C 0.2628(5) 0.2592(3) -0.0092(3)
H24 H 0.2684 0.2303 -0.0632
C15 C 0.2538(5) 0.2292(2) 0.0789(3)
H25 H 0.2533 0.1797 0.0855
C16 C 0.2457(4) 0.2718(2) 0.1574(3)
H26 H 0.2405 0.2506 0.2174
C17 C 0.3137(7) 0.2846(3) 0.6148(3)
H27 H 0.4179 0.2828 0.6045
H28 H 0.2754 0.2364 0.6112
C18 C 0.2820(6) 0.3161(2) 0.7073(3)
H29 H 0.2657 0.2793 0.7549
H30 H 0.3611 0.3466 0.7285
C19 C 0.1517(6) 0.3571(3) 0.6907(3)
H31 H 0.1463 0.3973 0.7341
H32 H 0.0657 0.3277 0.6985
C20 C 0.1658(7) 0.3811(3) 0.5926(3)
H33 H 0.0709 0.3861 0.5629
H34 H 0.2155 0.4267 0.5900
B1 B 0.2322(4) 0.39792(19) 0.2407(2)
Li1 Li 0.2676(7) 0.3113(3) 0.4153(4)
C21 C 0.1565(10) 0.1621(5) 0.4289(13)
H35 H 0.1021 0.1513 0.3712
H36 H 0.0900 0.1806 0.4764
C22 C 0.2304(10) 0.0980(5) 0.4647(8)
H37 H 0.2415 0.1000 0.5336
H38 H 0.1764 0.0553 0.4479
C23 C 0.3699(10) 0.0988(5) 0.4186(9)
H39 H 0.3647 0.0775 0.3554
H40 H 0.4426 0.0738 0.4563
C24 C 0.4004(8) 0.1745(4) 0.4134(7)
H41 H 0.4561 0.1893 0.4690
H42 H 0.4571 0.1849 0.3568
C25? C 0.1367(12) 0.1773(6) 0.4361(15)
H43? H 0.0766 0.1680 0.3804
H44? H 0.0820 0.2062 0.4807
C26? C 0.1832(13) 0.1105(7) 0.4807(10)
H45? H 0.2004 0.1169 0.5486
H46? H 0.1110 0.0733 0.4716
C27? C 0.3153(14) 0.0934(6) 0.4320(10)
H47? H 0.2983 0.0553 0.3863
H48? H 0.3884 0.0775 0.4774
C28? C 0.3665(12) 0.1586(5) 0.3817(9)
H49? H 0.4646 0.1709 0.4013
H50? H 0.3644 0.1519 0.3130
loop_
_geom_bond_atom_site_label_1
_geom_bond_atom_site_label_2
_geom_bond_site_symmetry_1
_geom_bond_site_symmetry_2
O1 C1 1_555 1_555
O2 C2 1_555 1_555
O3 Li1 1_555 1_555
O4 C17 1_555 1_555
C1 C2 1_555 1_555
C2 C5 1_555 1_555
C3 C1 1_555 1_555
H1 C3 1_555 1_555
H2 C3 1_555 1_555
H3 C3 1_555 1_555
C4 C1 1_555 1_555
H4 C4 1_555 1_555
H5 C4 1_555 1_555
H6 C4 1_555 1_555
C5 H7 1_555 1_555
H8 C5 1_555 1_555
H9 C5 1_555 1_555
C6 C2 1_555 1_555
H10 C6 1_555 1_555
H11 C6 1_555 1_555
H12 C6 1_555 1_555
C7 C8 1_555 1_555
C8 H13 1_555 1_555
H14 C8 1_555 1_555
H15 C8 1_555 1_555
C9 C7 1_555 1_555
H16 C9 1_555 1_555
H17 C9 1_555 1_555
H18 C9 1_555 1_555
C10 C7 1_555 1_555
H19 C10 1_555 1_555
H20 C10 1_555 1_555
H21 C10 1_555 1_555
C11 C12 1_555 1_555
C12 H22 1_555 1_555
C13 C12 1_555 1_555
H23 C13 1_555 1_555
C14 C13 1_555 1_555
H24 C14 1_555 1_555
C15 C14 1_555 1_555
H25 C15 1_555 1_555
C16 C11 1_555 1_555
H26 C16 1_555 1_555
C17 H27 1_555 1_555
H28 C17 1_555 1_555
C18 C17 1_555 1_555
H29 C18 1_555 1_555
H30 C18 1_555 1_555
C19 C18 1_555 1_555
H31 C19 1_555 1_555
H32 C19 1_555 1_555
C20 O4 1_555 1_555
H33 C20 1_555 1_555
H34 C20 1_555 1_555
B1 O1 1_555 1_555
Li1 O1 1_555 1_555
C21 O3 1_555 1_555
H35 C21 1_555 1_555
H36 C21 1_555 1_555
C22 C21 1_555 1_555
H37 C22 1_555 1_555
H38 C22 1_555 1_555
C23 C22 1_555 1_555
H39 C23 1_555 1_555
H40 C23 1_555 1_555
C24 O3 1_555 1_555
H41 C24 1_555 1_555
H42 C24 1_555 1_555
O2 B1 1_555 1_555
O4 Li1 1_555 1_555
C7 B1 1_555 1_555
C11 B1 1_555 1_555
C15 C16 1_555 1_555
C19 C20 1_555 1_555
C23 C24 1_555 1_555

#END
