
#######################################################################
#
#                 Cambridge Crystallographic Data Centre
#                                CCDC 
#
#######################################################################
#
# If this CIF has been generated from an entry in the Cambridge 
# Structural Database, then it will include bibliographic, chemical, 
# crystal, experimental, refinement or atomic coordinate data resulting 
# from the CCDC's data processing and validation procedures.
#
#######################################################################

data_CIFNUD
_chemical_formula_moiety         'C18 H20 Br1 N1 O3 S1'
_chemical_name_systematic        
N-[4-(4-bromophenyl)-3-methyl-4-oxobutan-2-yl]-4-methylbenzene-1-sulfonamide
_symmetry_cell_setting           orthorhombic
_symmetry_space_group_name_H-M   'P 21 21 21'
_symmetry_Int_Tables_number      19
_space_group_name_Hall           'P 2ac 2ab'
loop_
_symmetry_equiv_pos_site_id
_symmetry_equiv_pos_as_xyz
1 x,y,z
2 1/2-x,-y,1/2+z
3 1/2+x,1/2-y,-z
4 -x,1/2+y,1/2-z
_cell_length_a                   5.2693(3)
_cell_length_b                   11.5391(7)
_cell_length_c                   30.1214(13)
_cell_angle_alpha                90
_cell_angle_beta                 90
_cell_angle_gamma                90
_cell_volume                     1831.47
_cell_formula_units_Z            4
loop_
_atom_site_label
_atom_site_type_symbol
_atom_site_fract_x
_atom_site_fract_y
_atom_site_fract_z
Br1 Br 0.0590(2) 0.75670(10) 0.04597(2)
C1 C 0.4359(13) 0.6903(6) 0.1629(2)
H1 H 0.5822 0.7164 0.1770
C2 C 0.3713(15) 0.7349(6) 0.1217(2)
H2 H 0.4710 0.7910 0.1081
C3 C 0.1557(16) 0.6936(6) 0.10167(19)
C4 C 0.0091(14) 0.6116(7) 0.12040(19)
H3 H -0.1331 0.5838 0.1055
C5 C 0.0712(13) 0.5684(6) 0.16218(19)
H4 H -0.0319 0.5134 0.1757
C6 C 0.2868(12) 0.6079(5) 0.18333(18)
C7 C 0.3687(12) 0.5661(5) 0.22880(18)
C8 C 0.1815(12) 0.4951(5) 0.25601(18)
H5 H 0.0087 0.5177 0.2477
C9 C 0.2171(11) 0.5170(5) 0.30578(18)
H6 H 0.3913 0.4962 0.3139
C10 C 0.2211(18) 0.3673(6) 0.2437(2)
H7 H 0.2105 0.3585 0.2121
H8 H 0.0923 0.3210 0.2576
H9 H 0.3852 0.3425 0.2537
C11 C 0.0344(13) 0.4444(6) 0.3338(2)
H10 H 0.0611 0.4611 0.3647
H11 H 0.0649 0.3636 0.3285
H12 H -0.1373 0.4631 0.3259
C12 C 0.2693(12) 0.6636(6) 0.4034(2)
C13 C 0.4047(15) 0.5766(6) 0.4239(2)
H13 H 0.5442 0.5438 0.4098
C14 C 0.3322(15) 0.5382(6) 0.4654(2)
H14 H 0.4281 0.4815 0.4796
C15 C 0.1192(15) 0.5828(6) 0.4865(2)
C16 C -0.0137(15) 0.6700(7) 0.4652(2)
H15 H -0.1547 0.7021 0.4791
C17 C 0.0568(13) 0.7107(6) 0.42377(19)
H16 H -0.0365 0.7687 0.4098
C18 C 0.0379(17) 0.5395(8) 0.5319(2)
H17 H 0.0884 0.4600 0.5354
H18 H -0.1432 0.5452 0.5346
H19 H 0.1170 0.5857 0.5545
N1 N 0.1812(10) 0.6428(5) 0.31393(16)
H20 H 0.030(7) 0.660(5) 0.3144(18)
O1 O 0.5806(8) 0.5855(5) 0.24199(14)
O2 O 0.2806(11) 0.8304(4) 0.34644(15)
O3 O 0.6100(8) 0.6791(4) 0.34274(14)
S1 S 0.3527(3) 0.71180(15) 0.34971(5)
loop_
_geom_bond_atom_site_label_1
_geom_bond_atom_site_label_2
_geom_bond_site_symmetry_1
_geom_bond_site_symmetry_2
Br1 C3 1_555 1_555
C1 H1 1_555 1_555
C2 C1 1_555 1_555
H2 C2 1_555 1_555
C3 C2 1_555 1_555
C4 C3 1_555 1_555
H3 C4 1_555 1_555
C5 C4 1_555 1_555
H4 C5 1_555 1_555
C6 C1 1_555 1_555
C7 C6 1_555 1_555
C8 C7 1_555 1_555
H5 C8 1_555 1_555
C9 C8 1_555 1_555
H6 C9 1_555 1_555
C10 C8 1_555 1_555
H7 C10 1_555 1_555
H8 C10 1_555 1_555
H9 C10 1_555 1_555
C11 C9 1_555 1_555
H10 C11 1_555 1_555
H11 C11 1_555 1_555
H12 C11 1_555 1_555
C12 C13 1_555 1_555
C13 H13 1_555 1_555
C14 C13 1_555 1_555
H14 C14 1_555 1_555
C15 C14 1_555 1_555
C16 C15 1_555 1_555
H15 C16 1_555 1_555
C17 C12 1_555 1_555
H16 C17 1_555 1_555
C18 C15 1_555 1_555
H17 C18 1_555 1_555
H18 C18 1_555 1_555
H19 C18 1_555 1_555
N1 C9 1_555 1_555
H20 N1 1_555 1_555
O1 C7 1_555 1_555
O2 S1 1_555 1_555
O3 S1 1_555 1_555
S1 C12 1_555 1_555
C5 C6 1_555 1_555
C16 C17 1_555 1_555
N1 S1 1_555 1_555

#END
