
#######################################################################
#
#                 Cambridge Crystallographic Data Centre
#                                CCDC 
#
#######################################################################
#
# If this CIF has been generated from an entry in the Cambridge 
# Structural Database, then it will include bibliographic, chemical, 
# crystal, experimental, refinement or atomic coordinate data resulting 
# from the CCDC's data processing and validation procedures.
#
#######################################################################

data_CIFSIV
_chemical_formula_moiety         'C19 H25 N1 O1'
_chemical_name_systematic        
3-(3-Methoxybenzyl)dodecahydro-3-azadicyclopenta[cd,gh]pentalene
_symmetry_cell_setting           triclinic
_symmetry_space_group_name_H-M   'P -1'
_symmetry_Int_Tables_number      2
_space_group_name_Hall           '-P 1'
loop_
_symmetry_equiv_pos_site_id
_symmetry_equiv_pos_as_xyz
1 x,y,z
2 -x,-y,-z
_cell_length_a                   7.6714(7)
_cell_length_b                   9.0100(9)
_cell_length_c                   11.2539(11)
_cell_angle_alpha                103.892(2)
_cell_angle_beta                 92.749(2)
_cell_angle_gamma                97.663(2)
_cell_volume                     745.776
_exptl_crystal_colour            colorless
_exptl_crystal_description       block
_cell_formula_units_Z            2
loop_
_atom_site_label
_atom_site_type_symbol
_atom_site_fract_x
_atom_site_fract_y
_atom_site_fract_z
C1 C 0.99038(14) 0.78913(12) 0.59824(10)
H1 H 1.0798(19) 0.7735(17) 0.5364(13)
C2 C 0.80067(14) 0.73399(12) 0.53760(10)
H2 H 0.7977(19) 0.6941(16) 0.4469(13)
C3 C 0.70100(14) 0.87384(12) 0.57154(10)
H3 H 0.6841(19) 0.9234(16) 0.5024(13)
C4 C 0.52459(14) 0.80959(13) 0.61226(10)
H4 H 0.4648(19) 0.8924(17) 0.6636(13)
H5 H 0.443(2) 0.7558(17) 0.5382(14)
C5 C 0.57600(14) 0.69122(13) 0.67982(11)
H6 H 0.4734(19) 0.6185(17) 0.6917(13)
H7 H 0.6334(19) 0.7459(17) 0.7626(14)
C6 C 0.71292(14) 0.61146(12) 0.60173(10)
H8 H 0.6514(19) 0.5217(17) 0.5395(13)
C7 C 0.86480(15) 0.56457(13) 0.67241(11)
H9 H 0.826(2) 0.5365(18) 0.7487(14)
H10 H 0.906(2) 0.4720(18) 0.6213(14)
C8 C 1.01683(14) 0.70110(12) 0.69926(10)
H11 H 1.133(2) 0.6619(17) 0.6940(13)
C9 C 1.02019(16) 0.82355(13) 0.82189(10)
H12 H 0.899(2) 0.8273(17) 0.8483(14)
H13 H 1.093(2) 0.7994(17) 0.8899(14)
C10 C 1.09097(15) 0.97618(13) 0.79189(11)
H14 H 1.223(2) 0.9855(17) 0.7867(14)
H15 H 1.066(2) 1.0699(18) 0.8529(14)
C11 C 0.99817(14) 0.96051(12) 0.66481(10)
H16 H 1.0627(19) 1.0341(17) 0.6223(13)
C12 C 0.78099(15) 1.14175(12) 0.69711(10)
H17 H 0.740(2) 1.1659(17) 0.6196(14)
H18 H 0.894(2) 1.2096(17) 0.7271(13)
C13 C 0.64848(14) 1.18481(12) 0.79011(10)
C14 C 0.52334(14) 1.27625(12) 0.76997(10)
H19 H 0.5113(19) 1.3091(16) 0.6932(13)
C15 C 0.40754(14) 1.32369(12) 0.85933(10)
C16 C 0.41929(14) 1.28286(12) 0.97038(10)
H20 H 0.3381(19) 1.3161(17) 1.0347(13)
C17 C 0.54410(15) 1.18946(13) 0.98963(10)
H21 H 0.5496(19) 1.1569(17) 1.0667(13)
C18 C 0.65609(15) 1.13901(12) 0.90038(10)
H22 H 0.740(2) 1.0731(17) 0.9116(13)
C19 C 0.16395(16) 1.45603(14) 0.91558(12)
H23 H 0.091(2) 1.363(2) 0.9333(15)
H24 H 0.085(2) 1.5131(19) 0.8762(15)
H25 H 0.227(2) 1.524(2) 0.9913(15)
N1 N 0.81190(12) 0.98145(10) 0.67479(8)
O1 O 0.28567(11) 1.40844(10) 0.82707(8)
loop_
_geom_bond_atom_site_label_1
_geom_bond_atom_site_label_2
_geom_bond_site_symmetry_1
_geom_bond_site_symmetry_2
C1 H1 1_555 1_555
C2 C1 1_555 1_555
H2 C2 1_555 1_555
C3 C2 1_555 1_555
H3 C3 1_555 1_555
C4 C3 1_555 1_555
H4 C4 1_555 1_555
H5 C4 1_555 1_555
C5 C4 1_555 1_555
H6 C5 1_555 1_555
H7 C5 1_555 1_555
C6 C2 1_555 1_555
H8 C6 1_555 1_555
C7 C6 1_555 1_555
H9 C7 1_555 1_555
H10 C7 1_555 1_555
C8 C1 1_555 1_555
H11 C8 1_555 1_555
C9 C8 1_555 1_555
H12 C9 1_555 1_555
H13 C9 1_555 1_555
C10 C9 1_555 1_555
H14 C10 1_555 1_555
H15 C10 1_555 1_555
C11 C1 1_555 1_555
H16 C11 1_555 1_555
C12 H17 1_555 1_555
H18 C12 1_555 1_555
C13 C12 1_555 1_555
C14 C13 1_555 1_555
H19 C14 1_555 1_555
C15 C14 1_555 1_555
C16 C15 1_555 1_555
H20 C16 1_555 1_555
C17 C16 1_555 1_555
H21 C17 1_555 1_555
C18 C13 1_555 1_555
H22 C18 1_555 1_555
C19 H23 1_555 1_555
H24 C19 1_555 1_555
H25 C19 1_555 1_555
N1 C3 1_555 1_555
O1 C15 1_555 1_555
C5 C6 1_555 1_555
C7 C8 1_555 1_555
C10 C11 1_555 1_555
C11 N1 1_555 1_555
C12 N1 1_555 1_555
C17 C18 1_555 1_555
C19 O1 1_555 1_555

#END
