
#######################################################################
#
#                 Cambridge Crystallographic Data Centre
#                                CCDC 
#
#######################################################################
#
# If this CIF has been generated from an entry in the Cambridge 
# Structural Database, then it will include bibliographic, chemical, 
# crystal, experimental, refinement or atomic coordinate data resulting 
# from the CCDC's data processing and validation procedures.
#
#######################################################################

data_CIFSUH
_chemical_formula_moiety         'C11 H10 O2'
_chemical_name_systematic        
3b,6a,7,7a-Tetrahydro-3H-cyclopenta[a]pentalene-3,4(3aH)-dione
_symmetry_cell_setting           monoclinic
_symmetry_space_group_name_H-M   'P 21/n'
_symmetry_Int_Tables_number      14
_space_group_name_Hall           '-P 2yn'
loop_
_symmetry_equiv_pos_site_id
_symmetry_equiv_pos_as_xyz
1 x,y,z
2 1/2-x,1/2+y,1/2-z
3 -x,-y,-z
4 1/2+x,1/2-y,1/2+z
_cell_length_a                   6.5876(12)
_cell_length_b                   10.4204(19)
_cell_length_c                   12.074(2)
_cell_angle_alpha                90
_cell_angle_beta                 95.201(4)
_cell_angle_gamma                90
_cell_volume                     825.412
_exptl_crystal_colour            colorless
_exptl_crystal_description       block
_cell_formula_units_Z            4
loop_
_atom_site_label
_atom_site_type_symbol
_atom_site_fract_x
_atom_site_fract_y
_atom_site_fract_z
C1 C 0.26026(18) 0.68678(11) 0.16879(10)
C2 C 0.43617(19) 0.61948(11) 0.12840(10)
H1 H 0.4390 0.5312 0.1089
C3 C 0.59086(18) 0.70138(11) 0.12337(10)
H2 H 0.7203 0.6776 0.1011
C4 C 0.53782(18) 0.83609(11) 0.15701(10)
H3 H 0.5109 0.8914 0.0896
C5 C 0.69051(18) 0.90131(12) 0.24161(10)
H4 H 0.6767 0.9958 0.2370
H5 H 0.8319 0.8776 0.2285
C6 C 0.63740(18) 0.85229(11) 0.35517(10)
H6 H 0.6619 0.9211 0.4125
C7 C 0.74357(19) 0.73034(12) 0.39463(10)
H7 H 0.8873 0.7196 0.3994
C8 C 0.61543(19) 0.63889(11) 0.42216(10)
H8 H 0.6550 0.5578 0.4528
C9 C 0.40420(19) 0.68256(11) 0.39789(10)
C10 C 0.40934(18) 0.81481(11) 0.34234(10)
H9 H 0.3278 0.8779 0.3823
C11 C 0.33931(17) 0.81625(11) 0.21403(10)
H10 H 0.2389 0.8865 0.1946
O1 O 0.08525(14) 0.64856(10) 0.16366(9)
O2 O 0.24974(14) 0.62536(9) 0.41764(8)
loop_
_geom_bond_atom_site_label_1
_geom_bond_atom_site_label_2
_geom_bond_site_symmetry_1
_geom_bond_site_symmetry_2
C1 C2 1_555 1_555
C2 H1 1_555 1_555
C3 C2 1_555 1_555
H2 C3 1_555 1_555
C4 C3 1_555 1_555
H3 C4 1_555 1_555
C5 C4 1_555 1_555
H4 C5 1_555 1_555
H5 C5 1_555 1_555
C6 C5 1_555 1_555
H6 C6 1_555 1_555
C7 C6 1_555 1_555
H7 C7 1_555 1_555
C8 C7 1_555 1_555
H8 C8 1_555 1_555
C9 C8 1_555 1_555
C10 C6 1_555 1_555
H9 C10 1_555 1_555
C11 C1 1_555 1_555
H10 C11 1_555 1_555
O1 C1 1_555 1_555
O2 C9 1_555 1_555
C4 C11 1_555 1_555
C9 C10 1_555 1_555
C10 C11 1_555 1_555

#END
