
#######################################################################
#
#                 Cambridge Crystallographic Data Centre
#                                CCDC 
#
#######################################################################
#
# If this CIF has been generated from an entry in the Cambridge 
# Structural Database, then it will include bibliographic, chemical, 
# crystal, experimental, refinement or atomic coordinate data resulting 
# from the CCDC's data processing and validation procedures.
#
#######################################################################

data_CIFZOJ
_chemical_formula_moiety         'C6 H12 N2,C1 H1 Br3'
_chemical_name_systematic        '1,4-diazabicyclo[2.2.2]octane tribromomethane'
_symmetry_cell_setting           monoclinic
_symmetry_space_group_name_H-M   'P 21/n'
_symmetry_Int_Tables_number      14
_space_group_name_Hall           '-P 2yn'
loop_
_symmetry_equiv_pos_site_id
_symmetry_equiv_pos_as_xyz
1 x,y,z
2 1/2-x,1/2+y,1/2-z
3 -x,-y,-z
4 1/2+x,1/2-y,1/2+z
_cell_length_a                   6.0754(3)
_cell_length_b                   15.7428(9)
_cell_length_c                   12.0401(7)
_cell_angle_alpha                90
_cell_angle_beta                 101.8849(19)
_cell_angle_gamma                90
_cell_volume                     1126.88
_exptl_crystal_colour            colorless
_exptl_crystal_description       rod
_cell_formula_units_Z            4
loop_
_atom_site_label
_atom_site_type_symbol
_atom_site_fract_x
_atom_site_fract_y
_atom_site_fract_z
Br1 Br 0.83463(3) 0.16452(2) 0.56191(2)
Br2 Br 1.27655(3) 0.26270(2) 0.52940(2)
Br3 Br 0.81392(3) 0.29181(2) 0.35399(2)
C1 C 0.9531(3) 0.26818(12) 0.51009(15)
H1 H 0.916068 0.316039 0.557705
C2 C 0.7435(3) 0.43741(12) 0.85586(16)
H2 H 0.581915 0.441035 0.858366
H3 H 0.826841 0.419258 0.931633
N1 N 0.8245(3) 0.52140(10) 0.82846(13)
C3 C 0.7771(3) 0.37104(12) 0.76569(16)
H4 H 0.876633 0.324922 0.802686
H5 H 0.630220 0.345717 0.730326
N2 N 0.8780(3) 0.41161(10) 0.67740(13)
C4 C 0.7287(4) 0.48055(13) 0.62513(16)
H6 H 0.579866 0.456872 0.589604
H7 H 0.792842 0.508065 0.564986
C5 C 1.0648(3) 0.51352(12) 0.82474(16)
H8 H 1.150391 0.494290 0.899538
H9 H 1.124289 0.569608 0.808124
C6 C 1.0959(3) 0.44885(13) 0.73186(17)
H10 H 1.163349 0.477827 0.673956
H11 H 1.199665 0.403178 0.766466
C7 C 0.7002(3) 0.54731(12) 0.71548(16)
H12 H 0.756662 0.603018 0.695305
H13 H 0.538618 0.553598 0.716850
loop_
_geom_bond_atom_site_label_1
_geom_bond_atom_site_label_2
_geom_bond_site_symmetry_1
_geom_bond_site_symmetry_2
Br1 C1 1_555 1_555
Br2 C1 1_555 1_555
Br3 C1 1_555 1_555
C1 H1 1_555 1_555
C2 H2 1_555 1_555
H3 C2 1_555 1_555
N1 C2 1_555 1_555
C3 C2 1_555 1_555
H4 C3 1_555 1_555
H5 C3 1_555 1_555
N2 C3 1_555 1_555
C4 N2 1_555 1_555
H6 C4 1_555 1_555
H7 C4 1_555 1_555
C5 N1 1_555 1_555
H8 C5 1_555 1_555
H9 C5 1_555 1_555
C6 N2 1_555 1_555
H10 C6 1_555 1_555
H11 C6 1_555 1_555
C7 N1 1_555 1_555
H12 C7 1_555 1_555
H13 C7 1_555 1_555
C4 C7 1_555 1_555
C5 C6 1_555 1_555

#END
