
#######################################################################
#
#                 Cambridge Crystallographic Data Centre
#                                CCDC 
#
#######################################################################
#
# If this CIF has been generated from an entry in the Cambridge 
# Structural Database, then it will include bibliographic, chemical, 
# crystal, experimental, refinement or atomic coordinate data resulting 
# from the CCDC's data processing and validation procedures.
#
#######################################################################

data_CIGBIF
_chemical_formula_moiety         'C42 H34 N4 O2,H2 O1'
_chemical_name_systematic        
"5-t-Butyl-N,N'-bis(4-(2-cyano-2-phenylvinyl)phenyl)isophthalamide monohydrate"
_symmetry_cell_setting           monoclinic
_symmetry_space_group_name_H-M   'P 21/c'
_symmetry_Int_Tables_number      14
_space_group_name_Hall           '-P 2ybc'
loop_
_symmetry_equiv_pos_site_id
_symmetry_equiv_pos_as_xyz
1 x,y,z
2 -x,1/2+y,1/2-z
3 -x,-y,-z
4 x,1/2-y,1/2+z
_cell_length_a                   20.669(8)
_cell_length_b                   6.745(2)
_cell_length_c                   24.891(11)
_cell_angle_alpha                90
_cell_angle_beta                 102.363(14)
_cell_angle_gamma                90
_cell_volume                     3389.64
_cell_formula_units_Z            4
loop_
_atom_site_label
_atom_site_type_symbol
_atom_site_fract_x
_atom_site_fract_y
_atom_site_fract_z
C1 C 0.6007(2) 1.3895(6) 0.3891(2)
H1 H 0.5629 1.3747 0.3613
C2 C 0.6402(2) 1.5548(6) 0.3894(2)
H2 H 0.6288 1.6496 0.3619
C3 C 0.6958(3) 1.5802(7) 0.4299(2)
H3 H 0.7219 1.6926 0.4303
C4 C 0.7124(3) 1.4395(8) 0.4694(2)
H4 H 0.7507 1.4548 0.4966
C5 C 0.6728(3) 1.2726(7) 0.46985(19)
H5 H 0.6845 1.1787 0.4976
C6 C 0.6165(2) 1.2456(6) 0.42946(18)
C7 C 0.5762(2) 1.0610(6) 0.4278(2)
C8 C 0.5895(3) 0.9479(7) 0.4779(2)
C9 C 0.5346(2) 0.9936(6) 0.3823(2)
H6 H 0.5313 1.0733 0.3514
C10 C 0.4938(2) 0.8150(6) 0.3740(2)
C11 C 0.4685(3) 0.7203(6) 0.4154(2)
H7 H 0.4769 0.7725 0.4508
C12 C 0.4312(3) 0.5502(7) 0.4037(2)
H8 H 0.4136 0.4917 0.4313
C13 C 0.4191(2) 0.4643(6) 0.35206(18)
C14 C 0.4430(2) 0.5559(6) 0.31095(18)
H9 H 0.4350 0.5015 0.2758
C15 C 0.4793(2) 0.7306(6) 0.32214(19)
H10 H 0.4943 0.7928 0.2938
C16 C 0.37496(19) 0.1577(6) 0.30314(17)
C17 C 0.32548(19) -0.0063(6) 0.30255(15)
C18 C 0.2958(2) -0.0466(7) 0.34613(16)
H11 H 0.3071 0.0269 0.3784
C19 C 0.2491(2) -0.1965(7) 0.34172(16)
C20 C 0.23430(19) -0.3100(6) 0.29439(15)
H12 H 0.2042 -0.4136 0.2924
C21 C 0.26300(18) -0.2740(6) 0.24984(15)
C22 C 0.30904(18) -0.1197(6) 0.25543(15)
H13 H 0.3294 -0.0924 0.2263
C23 C 0.2433(2) -0.3867(6) 0.19534(15)
C24 C 0.1960(3) -0.5571(7) 0.1984(2)
H14 H 0.2158 -0.6461 0.2273
H15 H 0.1868 -0.6270 0.1640
H16 H 0.1554 -0.5057 0.2057
C25 C 0.2083(3) -0.2378(8) 0.15144(18)
H17 H 0.1682 -0.1921 0.1609
H18 H 0.1979 -0.3017 0.1162
H19 H 0.2370 -0.1270 0.1499
C26 C 0.3041(2) -0.4678(8) 0.1780(2)
H20 H 0.3355 -0.3627 0.1781
H21 H 0.2916 -0.5222 0.1416
H22 H 0.3238 -0.5696 0.2031
C27 C 0.2105(2) -0.2398(8) 0.38520(17)
C28 C 0.1587(2) -0.0757(7) 0.45510(15)
C29 C 0.1580(2) 0.0993(7) 0.48378(16)
H23 H 0.1830 0.2068 0.4766
C30 C 0.1203(2) 0.1148(6) 0.52290(16)
H24 H 0.1198 0.2346 0.5413
C31 C 0.08281(17) -0.0439(5) 0.53603(14)
C32 C 0.0828(2) -0.2141(6) 0.50500(15)
H25 H 0.0569 -0.3211 0.5112
C33 C 0.1197(2) -0.2305(7) 0.46542(16)
H26 H 0.1184 -0.3474 0.4454
C34 C 0.04435(17) -0.0166(5) 0.57796(14)
H27 H 0.0372 0.1150 0.5862
C35 C 0.01732(18) -0.1500(5) 0.60696(14)
C36 C 0.0271(2) -0.3567(6) 0.60026(16)
C37 C -0.02215(19) -0.0994(5) 0.64821(14)
C38 C -0.0159(2) 0.0811(6) 0.67511(16)
H28 H 0.0136 0.1753 0.6672
C39 C -0.0531(3) 0.1224(8) 0.71355(19)
H29 H -0.0487 0.2447 0.7312
C40 C -0.0963(3) -0.0141(9) 0.7260(2)
H30 H -0.1205 0.0134 0.7526
C41 C -0.1039(3) -0.1906(9) 0.6992(2)
H31 H -0.1343 -0.2823 0.7068
C42 C -0.0672(2) -0.2352(7) 0.66101(18)
H32 H -0.0725 -0.3576 0.6434
N1 N 0.6026(3) 0.8648(7) 0.5186(2)
N2 N 0.38015(17) 0.2915(5) 0.34369(15)
H33 H 0.3567 0.2686 0.3677
N3 N 0.19742(18) -0.0809(6) 0.41462(14)
H34 H 0.2147 0.0298 0.4079
N4 N 0.0356(3) -0.5234(5) 0.59738(19)
O1 O 0.40760(16) 0.1683(5) 0.26786(12)
O2 O 0.19150(16) -0.4066(5) 0.39199(12)
O3 O 0.2732(2) 0.3002(6) 0.41330(19)
H35 H 0.3025 0.3330 0.4414
H36 H 0.2587 0.4059 0.3963
loop_
_geom_bond_atom_site_label_1
_geom_bond_atom_site_label_2
_geom_bond_site_symmetry_1
_geom_bond_site_symmetry_2
C1 H1 1_555 1_555
C2 C1 1_555 1_555
H2 C2 1_555 1_555
C3 C2 1_555 1_555
H3 C3 1_555 1_555
C4 C3 1_555 1_555
H4 C4 1_555 1_555
C5 C4 1_555 1_555
H5 C5 1_555 1_555
C6 C1 1_555 1_555
C7 C6 1_555 1_555
C8 C7 1_555 1_555
C9 C7 1_555 1_555
H6 C9 1_555 1_555
C10 C9 1_555 1_555
C11 C10 1_555 1_555
H7 C11 1_555 1_555
C12 C11 1_555 1_555
H8 C12 1_555 1_555
C13 C12 1_555 1_555
C14 C13 1_555 1_555
H9 C14 1_555 1_555
C15 C10 1_555 1_555
H10 C15 1_555 1_555
C16 C17 1_555 1_555
C17 C18 1_555 1_555
C18 H11 1_555 1_555
C19 C18 1_555 1_555
C20 C19 1_555 1_555
H12 C20 1_555 1_555
C21 C20 1_555 1_555
C22 C17 1_555 1_555
H13 C22 1_555 1_555
C23 C21 1_555 1_555
C24 C23 1_555 1_555
H14 C24 1_555 1_555
H15 C24 1_555 1_555
H16 C24 1_555 1_555
C25 C23 1_555 1_555
H17 C25 1_555 1_555
H18 C25 1_555 1_555
H19 C25 1_555 1_555
C26 C23 1_555 1_555
H20 C26 1_555 1_555
H21 C26 1_555 1_555
H22 C26 1_555 1_555
C27 C19 1_555 1_555
C28 C29 1_555 1_555
C29 H23 1_555 1_555
C30 C29 1_555 1_555
H24 C30 1_555 1_555
C31 C30 1_555 1_555
C32 C31 1_555 1_555
H25 C32 1_555 1_555
C33 C28 1_555 1_555
H26 C33 1_555 1_555
C34 C31 1_555 1_555
H27 C34 1_555 1_555
C35 C34 1_555 1_555
C36 C35 1_555 1_555
C37 C35 1_555 1_555
C38 C37 1_555 1_555
H28 C38 1_555 1_555
C39 C38 1_555 1_555
H29 C39 1_555 1_555
C40 C39 1_555 1_555
H30 C40 1_555 1_555
C41 C40 1_555 1_555
H31 C41 1_555 1_555
C42 C37 1_555 1_555
H32 C42 1_555 1_555
N1 C8 1_555 1_555
N2 C13 1_555 1_555
H33 N2 1_555 1_555
N3 C27 1_555 1_555
H34 N3 1_555 1_555
N4 C36 1_555 1_555
O1 C16 1_555 1_555
O2 C27 1_555 1_555
O3 H35 1_555 1_555
H36 O3 1_555 1_555
C5 C6 1_555 1_555
C14 C15 1_555 1_555
C16 N2 1_555 1_555
C21 C22 1_555 1_555
C28 N3 1_555 1_555
C32 C33 1_555 1_555
C41 C42 1_555 1_555

#END
