
#######################################################################
#
#                 Cambridge Crystallographic Data Centre
#                                CCDC 
#
#######################################################################
#
# If this CIF has been generated from an entry in the Cambridge 
# Structural Database, then it will include bibliographic, chemical, 
# crystal, experimental, refinement or atomic coordinate data resulting 
# from the CCDC's data processing and validation procedures.
#
#######################################################################

data_CIGBUR
_chemical_formula_moiety         'C17 H17 Br1 N4 O4 S1'
_chemical_name_systematic        
(+)-N-(5-(2-Bromophenyl)-1,3-dimethyl-4,5-dihydro-1H-pyrazol-4-yl)-4-nitrobenzenesulfonamide
_symmetry_cell_setting           monoclinic
_symmetry_space_group_name_H-M   'C 2'
_symmetry_Int_Tables_number      5
_space_group_name_Hall           'C 2y'
loop_
_symmetry_equiv_pos_site_id
_symmetry_equiv_pos_as_xyz
1 x,y,z
2 -x,y,-z
3 1/2+x,1/2+y,z
4 1/2-x,1/2+y,-z
_cell_length_a                   53.632(4)
_cell_length_b                   9.3905(6)
_cell_length_c                   16.7335(10)
_cell_angle_alpha                90
_cell_angle_beta                 102.327(2)
_cell_angle_gamma                90
_cell_volume                     8233.22
_exptl_crystal_colour            colorless
_cell_formula_units_Z            16
loop_
_atom_site_label
_atom_site_type_symbol
_atom_site_fract_x
_atom_site_fract_y
_atom_site_fract_z
Br1 Br 0.025861(15) 0.43786(9) 0.69145(5)
S1 S 0.03870(3) 1.00069(18) 0.76631(11)
N1 N 0.05101(9) 0.8508(5) 0.7959(3)
H1 H 0.0600 0.8094 0.7658
N2 N 0.05711(9) 0.5617(6) 0.9380(3)
N3 N 0.07691(10) 0.6573(7) 0.9717(3)
N4 N -0.07271(10) 0.9107(7) 0.6489(4)
O1 O 0.04890(9) 1.0383(6) 0.6952(3)
O2 O 0.04111(10) 1.0950(5) 0.8345(3)
O3 O -0.07997(9) 0.8083(6) 0.6005(3)
O4 O -0.08709(9) 0.9920(6) 0.6712(3)
C1 C 0.04824(10) 0.7791(6) 0.8701(3)
H2 H 0.0340 0.8217 0.8900
C2 C 0.04392(10) 0.6171(7) 0.8597(3)
H3 H 0.0527 0.5833 0.8176
C3 C 0.07204(12) 0.7811(7) 0.9379(4)
C4 C 0.08713(13) 0.9086(7) 0.9646(4)
H4 H 0.0981 0.8914 1.0170
H5 H 0.0759 0.9867 0.9688
H6 H 0.0973 0.9315 0.9256
C5 C 0.06705(14) 0.4213(8) 0.9347(5)
H7 H 0.0787 0.4202 0.8985
H8 H 0.0533 0.3564 0.9150
H9 H 0.0758 0.3929 0.9885
C6 C 0.01666(11) 0.5701(7) 0.8370(4)
C7 C 0.00023(13) 0.6035(11) 0.8888(4)
H10 H 0.0066 0.6500 0.9379
C8 C -0.02507(15) 0.5686(12) 0.8680(5)
H11 H -0.0357 0.5918 0.9033
C9 C -0.03509(14) 0.4995(9) 0.7955(6)
H12 H -0.0524 0.4776 0.7816
C10 C -0.01949(13) 0.4639(7) 0.7446(4)
H13 H -0.0263 0.4175 0.6957
C11 C 0.00592(11) 0.4946(7) 0.7635(3)
C12 C 0.00518(12) 0.9673(7) 0.7324(4)
C13 C -0.01166(15) 1.0735(7) 0.7427(5)
H14 H -0.0056 1.1584 0.7683
C14 C -0.03719(14) 1.0527(7) 0.7150(4)
H15 H -0.0486 1.1238 0.7217
C15 C -0.04586(11) 0.9298(7) 0.6782(3)
C16 C -0.02873(13) 0.8228(7) 0.6678(4)
H16 H -0.0347 0.7378 0.6420
C17 C -0.00328(12) 0.8440(7) 0.6957(4)
H17 H 0.0083 0.7732 0.6894
Br2 Br 0.836500(16) 0.41438(11) 0.36479(6)
S2 S 0.92052(4) 0.4185(2) 0.54861(11)
N5 N 0.90772(10) 0.5287(6) 0.4774(3)
H18 H 0.8975 0.5933 0.4879
N6 N 0.91776(10) 0.6852(6) 0.2978(3)
N7 N 0.89970(10) 0.5840(6) 0.2610(3)
N8 N 0.86573(17) -0.1263(9) 0.4551(5)
O5 O 0.94626(11) 0.3986(7) 0.5431(4)
O6 O 0.91466(13) 0.4687(7) 0.6232(3)
O7 O 0.87445(18) -0.2049(8) 0.4140(6)
O8 O 0.84665(17) -0.1467(8) 0.4833(5)
C18 C 0.91305(12) 0.5210(7) 0.3967(3)
H19 H 0.9244 0.4398 0.3949
C19 C 0.89053(11) 0.5092(7) 0.3260(3)
H20 H 0.8763 0.5636 0.3392
C20 C 0.92601(12) 0.6574(7) 0.3727(4)
C21 C 0.94697(13) 0.7312(10) 0.4281(4)
H21 H 0.9616 0.6695 0.4408
H22 H 0.9417 0.7563 0.4776
H23 H 0.9514 0.8159 0.4021
C22 C 0.88000(15) 0.6507(9) 0.1980(4)
H24 H 0.8703 0.7163 0.2233
H25 H 0.8689 0.5786 0.1695
H26 H 0.8879 0.7009 0.1601
C23 C 0.88118(12) 0.3604(6) 0.3004(4)
C24 C 0.89664(13) 0.2725(7) 0.2640(4)
H27 H 0.9122 0.3053 0.2554
C25 C 0.88829(17) 0.1343(9) 0.2406(4)
H28 H 0.8988 0.0735 0.2188
C26 C 0.86499(18) 0.0882(8) 0.2495(5)
H29 H 0.8593 -0.0015 0.2302
C27 C 0.84991(15) 0.1715(9) 0.2861(5)
H30 H 0.8342 0.1376 0.2930
C28 C 0.85797(12) 0.3075(7) 0.3134(4)
C29 C 0.90436(13) 0.2547(7) 0.5219(3)
C30 C 0.91416(14) 0.1586(8) 0.4779(5)
H31 H 0.9299 0.1748 0.4643
C31 C 0.90069(16) 0.0353(8) 0.4529(4)
H32 H 0.9066 -0.0309 0.4200
C32 C 0.87915(15) 0.0147(8) 0.4772(5)
C33 C 0.86924(15) 0.1085(9) 0.5228(5)
H33 H 0.8541 0.0897 0.5396
C34 C 0.88238(13) 0.2328(8) 0.5433(4)
H34 H 0.8758 0.3024 0.5725
Br3 Br 0.902711(12) 0.71880(8) 0.80064(4)
S3 S 0.84391(3) 0.68457(17) 0.95936(9)
N9 N 0.86640(8) 0.5736(5) 0.9542(3)
H35 H 0.8816 0.5934 0.9800
N10 N 0.87857(9) 0.2134(6) 0.9186(3)
N11 N 0.88020(9) 0.2679(5) 0.8409(3)
N12 N 0.81303(14) 0.9760(8) 0.6376(4)
O9 O 0.85479(8) 0.7870(5) 1.0177(2)
O10 O 0.82203(8) 0.6048(5) 0.9688(3)
O11 O 0.82262(13) 1.0909(7) 0.6277(3)
O12 O 0.79654(14) 0.9214(8) 0.5863(3)
C35 C 0.86217(9) 0.4414(6) 0.9080(3)
H36 H 0.8442 0.4382 0.8797
C36 C 0.87839(10) 0.4214(6) 0.8440(3)
H37 H 0.8954 0.4607 0.8654
C37 C 0.86813(11) 0.3070(7) 0.9556(3)
C38 C 0.86011(14) 0.2784(9) 1.0312(4)
H38 H 0.8592 0.1774 1.0389
H39 H 0.8436 0.3197 1.0288
H40 H 0.8722 0.3191 1.0761
C39 C 0.90347(16) 0.2174(11) 0.8183(6)
H41 H 0.9170 0.2139 0.8661
H42 H 0.9080 0.2813 0.7790
H43 H 0.9006 0.1239 0.7950
C40 C 0.86772(10) 0.4866(6) 0.7619(3)
C41 C 0.84803(11) 0.4143(7) 0.7100(3)
H44 H 0.8422 0.3286 0.7270
C42 C 0.83691(13) 0.4683(8) 0.6329(4)
H45 H 0.8235 0.4198 0.5997
C43 C 0.84581(13) 0.5938(10) 0.6056(4)
H46 H 0.8389 0.6281 0.5535
C44 C 0.86546(13) 0.6685(8) 0.6580(4)
H47 H 0.8713 0.7549 0.6420
C45 C 0.87593(11) 0.6104(7) 0.7344(3)
C46 C 0.83511(10) 0.7712(6) 0.8644(3)
C47 C 0.84690(11) 0.8993(6) 0.8519(4)
H48 H 0.8593 0.9397 0.8931
C48 C 0.83947(12) 0.9651(7) 0.7752(4)
H49 H 0.8470 1.0503 0.7646
C49 C 0.82180(12) 0.9055(7) 0.7182(4)
C50 C 0.80990(11) 0.7790(8) 0.7279(4)
H50 H 0.7974 0.7421 0.6857
C51 C 0.81675(11) 0.7090(8) 0.8003(4)
H51 H 0.8095 0.6214 0.8078
S4 S 0.79019(3) 0.2380(2) 0.84393(9)
N13 N 0.77282(9) 0.2722(5) 0.9072(3)
H52 H 0.7699 0.2053 0.9390
N14 N 0.74103(11) 0.5209(6) 1.0063(3)
N15 N 0.72474(10) 0.5340(6) 0.9258(4)
N16 N 0.72705(15) 0.0430(12) 0.5284(6)
O13 O 0.80249(9) 0.3669(6) 0.8276(3)
O14 O 0.80463(10) 0.1171(7) 0.8739(3)
O15 O 0.71506(17) -0.0642(13) 0.5296(4)
O16 O 0.72841(16) 0.1083(12) 0.4658(4)
C52 C 0.76160(11) 0.4108(7) 0.9139(3)
H53 H 0.7711 0.4819 0.8897
C53 C 0.73354(11) 0.4256(7) 0.8749(3)
H54 H 0.7246 0.3353 0.8778
C54 C 0.76146(12) 0.4552(7) 1.0003(4)
C55 C 0.78325(12) 0.4327(9) 1.0706(4)
H55 H 0.7795 0.4760 1.1186
H56 H 0.7983 0.4752 1.0587
H57 H 0.7860 0.3325 1.0797
C56 C 0.69811(14) 0.5165(13) 0.9331(6)
H58 H 0.6939 0.4170 0.9320
H59 H 0.6870 0.5639 0.8883
H60 H 0.6959 0.5572 0.9838
Br4 Br 0.69141(2) 0.25111(14) 0.74767(8)
C57 C 0.7292(2) 0.4791(14) 0.7829(5)
C58 C 0.74303(18) 0.5922(13) 0.7606(6)
H61 H 0.7551 0.6390 0.8001
C59 C 0.73879(19) 0.6355(11) 0.6794(7)
H62 H 0.7480 0.7113 0.6646
C60 C 0.7208(2) 0.5657(13) 0.6205(5)
H63 H 0.7179 0.5947 0.5661
C61 C 0.70696(19) 0.4525(12) 0.6427(5)
H64 H 0.6949 0.4058 0.6032
C62 C 0.7112(2) 0.4092(11) 0.7239(6)
C63 C 0.77034(10) 0.1890(6) 0.7491(4)
C64 C 0.75581(14) 0.0674(8) 0.7494(4)
H65 H 0.7563 0.0157 0.7972
C65 C 0.74016(14) 0.0248(8) 0.6743(5)
H66 H 0.7288 -0.0505 0.6724
C66 C 0.74193(13) 0.0943(9) 0.6062(4)
C67 C 0.75568(15) 0.2127(10) 0.6046(4)
H67 H 0.7553 0.2612 0.5559
C68 C 0.77107(13) 0.2625(7) 0.6800(4)
H68 H 0.7813 0.3429 0.6815
H69? H 0.7274 0.3294 0.8745
Br5? Br 0.74790(14) 0.7010(8) 0.8074(4)
C69? C 0.7230(6) 0.451(4) 0.7872(10)
C70? C 0.7323(5) 0.571(3) 0.7546(13)
C71? C 0.7260(5) 0.596(3) 0.6708(15)
H70? H 0.7322 0.6758 0.6490
C72? C 0.7104(5) 0.500(3) 0.6195(10)
H71? H 0.7062 0.5164 0.5635
C73? C 0.7011(6) 0.380(3) 0.6521(12)
H72? H 0.6907 0.3162 0.6178
C74? C 0.7074(7) 0.356(3) 0.7359(14)
H73? H 0.7012 0.2753 0.7577
loop_
_geom_bond_atom_site_label_1
_geom_bond_atom_site_label_2
_geom_bond_site_symmetry_1
_geom_bond_site_symmetry_2
Br1 C11 1_555 1_555
S1 N1 1_555 1_555
N1 H1 1_555 1_555
N2 N3 1_555 1_555
N3 C3 1_555 1_555
N4 O3 1_555 1_555
O1 S1 1_555 1_555
O2 S1 1_555 1_555
O4 N4 1_555 1_555
C1 N1 1_555 1_555
H2 C1 1_555 1_555
C2 N2 1_555 1_555
H3 C2 1_555 1_555
C3 C1 1_555 1_555
C4 C3 1_555 1_555
H4 C4 1_555 1_555
H5 C4 1_555 1_555
H6 C4 1_555 1_555
C5 N2 1_555 1_555
H7 C5 1_555 1_555
H8 C5 1_555 1_555
H9 C5 1_555 1_555
C6 C2 1_555 1_555
C7 C6 1_555 1_555
H10 C7 1_555 1_555
C8 C7 1_555 1_555
H11 C8 1_555 1_555
C9 C8 1_555 1_555
H12 C9 1_555 1_555
C10 C9 1_555 1_555
H13 C10 1_555 1_555
C11 C6 1_555 1_555
C12 S1 1_555 1_555
C13 C12 1_555 1_555
H14 C13 1_555 1_555
C14 C13 1_555 1_555
H15 C14 1_555 1_555
C15 N4 1_555 1_555
C16 C15 1_555 1_555
H16 C16 1_555 1_555
C17 C12 1_555 1_555
H17 C17 1_555 1_555
Br2 C28 1_555 1_555
S2 N5 1_555 1_555
N5 H18 1_555 1_555
N6 N7 1_555 1_555
N7 C19 1_555 1_555
N8 O7 1_555 1_555
O5 S2 1_555 1_555
O6 S2 1_555 1_555
O8 N8 1_555 1_555
C18 N5 1_555 1_555
H19 C18 1_555 1_555
C19 C18 1_555 1_555
H20 C19 1_555 1_555
C20 N6 1_555 1_555
C21 C20 1_555 1_555
H21 C21 1_555 1_555
H22 C21 1_555 1_555
H23 C21 1_555 1_555
C22 N7 1_555 1_555
H24 C22 1_555 1_555
H25 C22 1_555 1_555
H26 C22 1_555 1_555
C23 C19 1_555 1_555
C24 C23 1_555 1_555
H27 C24 1_555 1_555
C25 C24 1_555 1_555
H28 C25 1_555 1_555
C26 C25 1_555 1_555
H29 C26 1_555 1_555
C27 C26 1_555 1_555
H30 C27 1_555 1_555
C28 C23 1_555 1_555
C29 S2 1_555 1_555
C30 C29 1_555 1_555
H31 C30 1_555 1_555
C31 C30 1_555 1_555
H32 C31 1_555 1_555
C32 N8 1_555 1_555
C33 C32 1_555 1_555
H33 C33 1_555 1_555
C34 C29 1_555 1_555
H34 C34 1_555 1_555
Br3 C45 1_555 1_555
S3 N9 1_555 1_555
N9 H35 1_555 1_555
N10 N11 1_555 1_555
N11 C36 1_555 1_555
N12 O11 1_555 1_555
O9 S3 1_555 1_555
O10 S3 1_555 1_555
O12 N12 1_555 1_555
C35 N9 1_555 1_555
H36 C35 1_555 1_555
C36 C35 1_555 1_555
H37 C36 1_555 1_555
C37 N10 1_555 1_555
C38 C37 1_555 1_555
H38 C38 1_555 1_555
H39 C38 1_555 1_555
H40 C38 1_555 1_555
C39 N11 1_555 1_555
H41 C39 1_555 1_555
H42 C39 1_555 1_555
H43 C39 1_555 1_555
C40 C36 1_555 1_555
C41 C40 1_555 1_555
H44 C41 1_555 1_555
C42 C41 1_555 1_555
H45 C42 1_555 1_555
C43 C42 1_555 1_555
H46 C43 1_555 1_555
C44 C43 1_555 1_555
H47 C44 1_555 1_555
C45 C40 1_555 1_555
C46 S3 1_555 1_555
C47 C46 1_555 1_555
H48 C47 1_555 1_555
C48 C47 1_555 1_555
H49 C48 1_555 1_555
C49 N12 1_555 1_555
C50 C49 1_555 1_555
H50 C50 1_555 1_555
C51 C46 1_555 1_555
H51 C51 1_555 1_555
S4 N13 1_555 1_555
N13 H52 1_555 1_555
N14 N15 1_555 1_555
N15 C53 1_555 1_555
N16 O15 1_555 1_555
O13 S4 1_555 1_555
O14 S4 1_555 1_555
O16 N16 1_555 1_555
C52 N13 1_555 1_555
H53 C52 1_555 1_555
C53 C52 1_555 1_555
H54 C53 1_555 1_555
C54 N14 1_555 1_555
C55 C54 1_555 1_555
H55 C55 1_555 1_555
H56 C55 1_555 1_555
H57 C55 1_555 1_555
C56 N15 1_555 1_555
H58 C56 1_555 1_555
H59 C56 1_555 1_555
H60 C56 1_555 1_555
Br4 C62 1_555 1_555
C57 C53 1_555 1_555
C58 C57 1_555 1_555
H61 C58 1_555 1_555
C59 C58 1_555 1_555
H62 C59 1_555 1_555
C60 C59 1_555 1_555
H63 C60 1_555 1_555
C61 C60 1_555 1_555
H64 C61 1_555 1_555
C62 C57 1_555 1_555
C63 S4 1_555 1_555
C64 C63 1_555 1_555
H65 C64 1_555 1_555
C65 C64 1_555 1_555
H66 C65 1_555 1_555
C66 N16 1_555 1_555
C67 C66 1_555 1_555
H67 C67 1_555 1_555
C68 C63 1_555 1_555
H68 C68 1_555 1_555
C1 C2 1_555 1_555
C10 C11 1_555 1_555
C14 C15 1_555 1_555
C16 C17 1_555 1_555
C18 C20 1_555 1_555
C27 C28 1_555 1_555
C31 C32 1_555 1_555
C33 C34 1_555 1_555
C35 C37 1_555 1_555
C44 C45 1_555 1_555
C48 C49 1_555 1_555
C50 C51 1_555 1_555
C52 C54 1_555 1_555
C61 C62 1_555 1_555
C65 C66 1_555 1_555
C67 C68 1_555 1_555

#END
