
#######################################################################
#
#                 Cambridge Crystallographic Data Centre
#                                CCDC 
#
#######################################################################
#
# If this CIF has been generated from an entry in the Cambridge 
# Structural Database, then it will include bibliographic, chemical, 
# crystal, experimental, refinement or atomic coordinate data resulting 
# from the CCDC's data processing and validation procedures.
#
#######################################################################

data_CIGBIG
_chemical_formula_moiety         'C12 H24 Br1 N4 1+,C7 H4 N1 O3 S1 1-'
_chemical_name_systematic        
'bromobis(4-aza-1-azoniabicyclo(2.2.2)octane) saccharinate'
_symmetry_cell_setting           trigonal
_symmetry_space_group_name_H-M   'P 32 2 1'
_symmetry_Int_Tables_number      154
_space_group_name_Hall           'P 32 2"'
loop_
_symmetry_equiv_pos_site_id
_symmetry_equiv_pos_as_xyz
1 x,y,z
2 -y,x-y,2/3+z
3 -x+y,-x,1/3+z
4 y,x,-z
5 -x,-x+y,2/3-z
6 x-y,-y,1/3-z
_cell_length_a                   9.8558(5)
_cell_length_b                   9.8558(5)
_cell_length_c                   18.9035(11)
_cell_angle_alpha                90
_cell_angle_beta                 90
_cell_angle_gamma                120
_cell_volume                     1590.22
_exptl_crystal_colour            colorless
_exptl_crystal_description       block
_cell_formula_units_Z            3
loop_
_atom_site_label
_atom_site_type_symbol
_atom_site_fract_x
_atom_site_fract_y
_atom_site_fract_z
S1 S 0.3416(5) 0.3534(5) 0.5019(4)
O1 O 0.0782(5) 0.3178(4) 0.35715(19)
O2 O 0.4760(4) 0.3247(5) 0.4809(2)
O3 O 0.3694(6) 0.4469(4) 0.55720(18)
N3 N 0.2942(4) 0.4080(4) 0.42915(17)
C7 C 0.1488(5) 0.3007(5) 0.4074(2)
C8 C 0.1736(9) 0.1703(8) 0.5081(5)
C9 C 0.0771(8) 0.1573(7) 0.4518(4)
C10 C -0.0641(6) 0.0192(8) 0.4417(3)
H13 H -0.130077 0.010285 0.403177
C11 C -0.1088(8) -0.1059(8) 0.4878(4)
H14 H -0.205302 -0.200289 0.480877
C12 C -0.0123(9) -0.0929(6) 0.5441(3)
H15 H -0.042819 -0.178358 0.575663
C13 C 0.1289(8) 0.0452(8) 0.5543(4)
H16 H 0.194890 0.054148 0.592750
S1C S 0.3534(5) 0.3416(5) 0.4981(4)
O1C O 0.3178(4) 0.0782(5) 0.64285(19)
O2C O 0.3247(5) 0.4760(4) 0.5191(2)
O3C O 0.4469(4) 0.3694(6) 0.44280(18)
N3C N 0.4080(4) 0.2942(4) 0.57085(17)
C7C C 0.3007(5) 0.1488(5) 0.5926(2)
C8C C 0.1703(8) 0.1736(9) 0.4919(5)
C9C C 0.1573(7) 0.0771(8) 0.5482(4)
C10C C 0.0192(8) -0.0641(6) 0.5583(3)
H13C H 0.010285 -0.130077 0.596823
C11C C -0.1059(8) -0.1088(8) 0.5122(4)
H14C H -0.200289 -0.205302 0.519123
C12C C -0.0929(6) -0.0123(9) 0.4559(3)
H15C H -0.178358 -0.042819 0.424337
C13C C 0.0452(8) 0.1289(8) 0.4457(4)
H16C H 0.054148 0.194890 0.407250
N1 N 0.77338(13) 0.54626(15) 0.28610(7)
N2 N 0.503(6) 0.412(6) 0.229(3)
C1 C 0.6687(4) 0.3983(4) 0.3251(2)
H1 H 0.650679 0.422385 0.373905
H2 H 0.717271 0.331569 0.327708
C2 C 0.5121(8) 0.3128(8) 0.2844(3)
H3 H 0.501109 0.216378 0.262706
H4 H 0.424242 0.281589 0.317949
C3 C 0.7078(5) 0.6523(5) 0.2909(3)
H5 H 0.770243 0.746987 0.261725
H6 H 0.710006 0.685416 0.340578
C4 C 0.5379(11) 0.5613(10) 0.2638(5)
H7 H 0.465095 0.538064 0.304029
H8 H 0.520357 0.627273 0.229713
C5 C 0.7862(4) 0.5093(5) 0.21190(18)
H9 H 0.819566 0.429911 0.209299
H10 H 0.864306 0.604640 0.186663
C6 C 0.6211(12) 0.4445(9) 0.1779(5)
H11 H 0.624637 0.522061 0.143524
H12 H 0.593619 0.347159 0.151598
Br1 Br 1.000000 0.65905(2) 0.333333
N1D N 1.22662(13) 0.77288(20) 0.38057(7)
N2D N 1.497(6) 0.909(8) 0.438(3)
C1D C 1.3313(4) 0.7296(6) 0.3416(2)
H1D H 1.349321 0.771706 0.292762
H2D H 1.282729 0.614298 0.338959
C2D C 1.4879(8) 0.8007(11) 0.3823(3)
H3D H 1.498891 0.715269 0.403961
H4D H 1.575758 0.857347 0.348718
C3D C 1.2922(5) 0.9445(7) 0.3758(3)
H5D H 1.229757 0.976744 0.404942
H6D H 1.289994 0.975410 0.326089
C4D C 1.4621(11) 1.0234(15) 0.4029(5)
H7D H 1.534905 1.072969 0.362638
H8D H 1.479643 1.106916 0.436954
C5D C 1.2138(4) 0.7231(6) 0.45477(18)
H9D H 1.180434 0.610345 0.457368
H10D H 1.135694 0.740334 0.480004
C6D C 1.3789(12) 0.8234(15) 0.4888(5)
H11D H 1.375363 0.897424 0.523143
H12D H 1.406381 0.753540 0.515069
C14? C 0.6941(7) 0.3742(6) 0.2979(4)
H17? H 0.690414 0.352253 0.349212
H18? H 0.753914 0.330899 0.274309
C15? C 0.5258(13) 0.2954(13) 0.2678(6)
H19? H 0.508531 0.208892 0.235639
H20? H 0.448998 0.250849 0.306918
C16? C 0.6781(7) 0.6085(8) 0.3160(4)
H21? H 0.733495 0.723833 0.310600
H22? H 0.660774 0.583584 0.367104
C17? C 0.5164(16) 0.5334(15) 0.2764(7)
H23? H 0.429900 0.487830 0.311300
H24? H 0.508445 0.615011 0.249320
C18? C 0.7906(6) 0.5787(9) 0.2078(3)
H25? H 0.866147 0.550767 0.187595
H26? H 0.830851 0.691548 0.199105
C19? C 0.6285(16) 0.4801(14) 0.1721(8)
H27? H 0.608181 0.546886 0.139704
H28? H 0.626819 0.394383 0.144072
loop_
_geom_bond_atom_site_label_1
_geom_bond_atom_site_label_2
_geom_bond_site_symmetry_1
_geom_bond_site_symmetry_2
N1 C1 1_555 1_555
N2 C2 1_555 1_555
C1 H1 1_555 1_555
H2 C1 1_555 1_555
C2 C1 1_555 1_555
H3 C2 1_555 1_555
H4 C2 1_555 1_555
C3 N1 1_555 1_555
H5 C3 1_555 1_555
H6 C3 1_555 1_555
C4 N2 1_555 1_555
H7 C4 1_555 1_555
H8 C4 1_555 1_555
C5 N1 1_555 1_555
H9 C5 1_555 1_555
H10 C5 1_555 1_555
C6 N2 1_555 1_555
H11 C6 1_555 1_555
H12 C6 1_555 1_555
Br1 N1 1_555 1_555
S1 O2 1_555 1_555
O1 C7 1_555 1_555
O2 S1C 1_555 1_555
O3 S1 1_555 1_555
N3 S1 1_555 1_555
C7 N3 1_555 1_555
C8 S1 1_555 1_555
C9 C7 1_555 1_555
C10 C9 1_555 1_555
H13 C10 1_555 1_555
C11 C10 1_555 1_555
H14 C11 1_555 1_555
C12 C11 1_555 1_555
H15 C12 1_555 1_555
C13 C8 1_555 1_555
H16 C13 1_555 1_555
N1D Br1 1_555 1_555
N2D C2D 1_555 1_555
C1D N1D 1_555 1_555
H1D C1D 1_555 1_555
H2D C1D 1_555 1_555
C2D C1D 1_555 1_555
H3D C2D 1_555 1_555
H4D C2D 1_555 1_555
C3D N1D 1_555 1_555
H5D C3D 1_555 1_555
H6D C3D 1_555 1_555
C4D N2D 1_555 1_555
H7D C4D 1_555 1_555
H8D C4D 1_555 1_555
C5D N1D 1_555 1_555
H9D C5D 1_555 1_555
H10D C5D 1_555 1_555
C6D N2D 1_555 1_555
H11D C6D 1_555 1_555
H12D C6D 1_555 1_555
S1C O3 1_555 1_555
O1C C7C 1_555 1_555
O2C S1 1_555 1_555
O3C S1 1_555 1_555
N3C S1 1_555 1_555
C7C C13 1_555 1_555
C8C S1 1_555 1_555
C9C C8 1_555 1_555
C10C C11 1_555 1_555
H13C C12 1_555 1_555
C11C C10 1_555 1_555
H14C C11 1_555 1_555
C12C C9 1_555 1_555
H15C C10 1_555 1_555
C13C C7 1_555 1_555
H16C C7 1_555 1_555
C3 C4 1_555 1_555
C5 C6 1_555 1_555
O2 O3C 1_555 1_555
O2 N3C 1_555 1_555
O3 O2C 1_555 1_555
O3 N3C 1_555 1_555
N3 S1C 1_555 1_555
N3 O2C 1_555 1_555
N3 O3C 1_555 1_555
C8 C9 1_555 1_555
C8 S1C 1_555 1_555
C8 C13C 1_555 1_555
C9 C8C 1_555 1_555
C9 H16C 1_555 1_555
C10 C13C 1_555 1_555
H13 C12C 1_555 1_555
C11 C12C 1_555 1_555
H14 C11C 1_555 1_555
C12 C13 1_555 1_555
C12 C9C 1_555 1_555
C12 C11C 1_555 1_555
H15 C10C 1_555 1_555
C13 C8C 1_555 1_555
C13 C10C 1_555 1_555
H16 C7C 1_555 1_555
H16 C9C 1_555 1_555
C3D C4D 1_555 1_555
C5D C6D 1_555 1_555
S1C O2C 1_555 1_555
S1C O3C 1_555 1_555
S1C N3C 1_555 1_555
S1C C8C 1_555 1_555
N3C C7C 1_555 1_555
C7C C9C 1_555 1_555
C8C C9C 1_555 1_555
C8C C13C 1_555 1_555
C9C C10C 1_555 1_555
C10C H13C 1_555 1_555
C10C C11C 1_555 1_555
C11C H14C 1_555 1_555
C11C C12C 1_555 1_555
C12C H15C 1_555 1_555
C12C C13C 1_555 1_555
C13C H16C 1_555 1_555

#END
