
#######################################################################
#
#                 Cambridge Crystallographic Data Centre
#                                CCDC 
#
#######################################################################
#
# If this CIF has been generated from an entry in the Cambridge 
# Structural Database, then it will include bibliographic, chemical, 
# crystal, experimental, refinement or atomic coordinate data resulting 
# from the CCDC's data processing and validation procedures.
#
#######################################################################

data_CIGBAY
_chemical_formula_moiety         'C6 H12 Br4 N2,C1 H2 Cl2'
_chemical_name_systematic        
'1,4-bis(dibromo)-1,4-diazoniabicyclo[2.2.2]octane dichloromethane solvate'
_symmetry_cell_setting           monoclinic
_symmetry_space_group_name_H-M   'P 21/m'
_symmetry_Int_Tables_number      11
_space_group_name_Hall           '-P 2yb'
loop_
_symmetry_equiv_pos_site_id
_symmetry_equiv_pos_as_xyz
1 x,y,z
2 -x,1/2+y,-z
3 -x,-y,-z
4 x,1/2-y,z
_cell_length_a                   7.7632(3)
_cell_length_b                   7.4280(4)
_cell_length_c                   12.8269(6)
_cell_angle_alpha                90
_cell_angle_beta                 98.7339(15)
_cell_angle_gamma                90
_cell_volume                     731.087
_exptl_crystal_colour            yellow
_exptl_crystal_description       rod
_cell_formula_units_Z            2
loop_
_atom_site_label
_atom_site_type_symbol
_atom_site_fract_x
_atom_site_fract_y
_atom_site_fract_z
C1 C 0.3797(3) 0.750000 0.84171(18)
H1 H 0.454231 0.858056 0.855771
C2 C 0.2376(3) 0.750000 0.91417(18)
H2 H 0.249816 0.641914 0.959856
C3 C 0.1845(2) 0.5863(2) 0.70718(13)
H3 H 0.257589 0.477050 0.720295
H4 H 0.129847 0.586327 0.632237
C4 C 0.0418(2) 0.5865(2) 0.77962(13)
H5 H -0.075224 0.586353 0.736330
H6 H 0.052636 0.477365 0.824468
N1 N 0.2936(2) 0.750000 0.73043(16)
N2 N 0.0641(2) 0.750000 0.84655(15)
Br1 Br 0.50026(3) 0.750000 0.63436(2)
Br2 Br 0.74352(3) 0.750000 0.52383(2)
Br3 Br -0.13090(3) 0.750000 0.95061(2)
Br4 Br -0.35394(3) 0.750000 1.07605(2)
H1C H 0.454231 0.641944 0.855771
H2C H 0.249816 0.858086 0.959856
C3C C 0.1845(2) 0.9137(2) 0.70718(13)
H3C H 0.257589 1.022950 0.720295
H4C H 0.129847 0.913673 0.632237
C4C C 0.0418(2) 0.9135(2) 0.77962(13)
H5C H -0.075224 0.913647 0.736330
H6C H 0.052636 1.022635 0.824468
C5 C 0.3138(3) 0.750000 0.3691(2)
H9 H 0.375531 0.857800 0.401192
Cl1 Cl 0.31914(11) 0.750000 0.23181(6)
Cl2 Cl 0.09708(8) 0.750000 0.39699(5)
H9C H 0.375531 0.642200 0.401192
H7? H 0.454231 0.858056 0.855771
H8? H 0.249816 0.641914 0.959856
H10? H 0.375531 0.857800 0.401192
loop_
_geom_bond_atom_site_label_1
_geom_bond_atom_site_label_2
_geom_bond_site_symmetry_1
_geom_bond_site_symmetry_2
C1 H1 1_555 1_555
C2 C1 1_555 1_555
H2 C2 1_555 1_555
C3 H3 1_555 1_555
H4 C3 1_555 1_555
C4 C3 1_555 1_555
H5 C4 1_555 1_555
H6 C4 1_555 1_555
N1 C1 1_555 1_555
N2 C2 1_555 1_555
Br1 N1 1_555 1_555
Br2 Br1 1_555 1_555
Br3 N2 1_555 1_555
Br4 Br3 1_555 1_555
C5 H9 1_555 1_555
Cl1 C5 1_555 1_555
Cl2 C5 1_555 1_555
H1C C1 1_555 1_555
H2C C2 1_555 1_555
C3C N1 1_555 1_555
H3C C3C 1_555 1_555
H4C C3C 1_555 1_555
C4C N2 1_555 1_555
H5C C4C 1_555 1_555
H6C C4C 1_555 1_555
H9C C5 1_555 1_555
C3 N1 1_555 1_555
C4 N2 1_555 1_555
C3C C4C 1_555 1_555

#END
