
#######################################################################
#
#                 Cambridge Crystallographic Data Centre
#                                CCDC 
#
#######################################################################
#
# If this CIF has been generated from an entry in the Cambridge 
# Structural Database, then it will include bibliographic, chemical, 
# crystal, experimental, refinement or atomic coordinate data resulting 
# from the CCDC's data processing and validation procedures.
#
#######################################################################

data_CIGSIX
_chemical_formula_moiety         '2(K1 1+),C2 N8 O2 2-'
_chemical_name_systematic        
"bis(potassium) (1H,1'H-5,5'-bitetrazole-1,1'-diolate)"
_symmetry_cell_setting           monoclinic
_symmetry_space_group_name_H-M   'C 2/c'
_symmetry_Int_Tables_number      15
_space_group_name_Hall           '-C 2yn'
loop_
_symmetry_equiv_pos_site_id
_symmetry_equiv_pos_as_xyz
1 x,y,z
2 -x,y,1/2-z
3 1/2+x,1/2+y,z
4 1/2-x,1/2+y,1/2-z
5 -x,-y,-z
6 x,-y,1/2+z
7 1/2-x,1/2-y,-z
8 1/2+x,1/2-y,1/2+z
_cell_length_a                   12.752(2)
_cell_length_b                   10.6553(16)
_cell_length_c                   10.6486(16)
_cell_angle_alpha                90
_cell_angle_beta                 90.010(3)
_cell_angle_gamma                90
_cell_volume                     1446.89
_exptl_crystal_colour            colorless
_exptl_crystal_description       block
_cell_formula_units_Z            8
_exptl_crystal_recrystallization_method water
loop_
_atom_site_label
_atom_site_type_symbol
_atom_site_fract_x
_atom_site_fract_y
_atom_site_fract_z
K1 K 0.46779(11) 0.74946(16) 0.00004(14)
K2 K 0.5000 0.9977(2) 0.2500
C1 C 0.2513(8) 0.8091(10) 0.3519(9)
C2 C 0.2475(7) 0.9118(9) 0.4368(9)
N1 N 0.2455(11) 0.6610(14) 0.2060(14)
N2 N 0.1448(10) 0.6903(14) 0.2358(14)
N3 N 0.1475(8) 0.7827(16) 0.3242(16)
N4 N 0.3091(7) 0.7343(15) 0.2767(16)
N5 N 0.1471(8) 0.9444(12) 0.4719(12)
N6 N 0.1536(9) 1.0368(13) 0.5592(13)
N7 N 0.2561(10) 1.062(2) 0.577(2)
N8 N 0.3114(5) 0.9827(8) 0.5037(8)
O1 O 0.4101(6) 0.7527(10) 0.2773(9)
O2 O 0.4129(6) 0.9766(9) 0.4987(9)
K3 K 0.5000 0.4978(2) 0.2500
C3? C 0.2500(8) 0.8241(10) 0.1817(10)
C4? C 0.2483(7) 0.8979(10) 0.5609(10)
N9? N 0.2543(11) 0.6634(16) 0.2038(16)
N10? N 0.1484(8) 0.8013(18) 0.2101(16)
N11? N 0.3513(8) 0.7965(18) 0.2091(16)
N12? N 0.3554(10) 0.6857(15) 0.2372(16)
N13? N 0.1481(8) 0.7218(19) 0.3096(17)
N14? N 0.3499(8) 0.719(2) 0.3106(18)
N15? N 0.3546(8) 0.7807(18) 0.3232(17)
N16? N 0.2485(8) 0.6855(9) 0.3337(10)
N17? N 0.1920(7) 0.7353(15) 0.2775(15)
N18? N 0.3109(8) 0.7634(17) 0.2666(17)
N19? N 0.1875(8) 0.7647(17) 0.2662(17)
N20? N 0.3501(8) 0.9394(17) 0.4679(18)
N21? N 0.1483(7) 0.9264(18) 0.5256(18)
N22? N 0.3553(8) 1.0059(19) 0.4391(18)
N23? N 0.3514(10) 1.0381(15) 0.5482(16)
N24? N 0.1526(7) 1.0104(18) 0.4299(17)
N25? N 0.3506(7) 0.9210(19) 0.5334(18)
N26? N 0.2506(11) 1.066(2) 0.575(2)
N27? N 0.2553(7) 1.0380(11) 0.4107(10)
N28? N 0.1914(7) 0.9792(16) 0.5180(15)
N29? N 0.1901(8) 0.9734(19) 0.4871(18)
O3? O 0.0904(6) 0.7514(9) 0.2772(9)
O4? O 0.0914(6) 0.9710(9) 0.4971(9)
loop_
_geom_bond_atom_site_label_1
_geom_bond_atom_site_label_2
_geom_bond_site_symmetry_1
_geom_bond_site_symmetry_2
C1 C2 1_555 1_555
C2 N5 1_555 1_555
N1 N2 1_555 1_555
N2 N3 1_555 1_555
N3 C1 1_555 1_555
N4 C1 1_555 1_555
N5 N6 1_555 1_555
N6 N7 1_555 1_555
N7 N8 1_555 1_555
N8 C2 1_555 1_555
O1 N4 1_555 1_555
O2 N8 1_555 1_555
N1 N4 1_555 1_555

#END
