
#######################################################################
#
#                 Cambridge Crystallographic Data Centre
#                                CCDC 
#
#######################################################################
#
# If this CIF has been generated from an entry in the Cambridge 
# Structural Database, then it will include bibliographic, chemical, 
# crystal, experimental, refinement or atomic coordinate data resulting 
# from the CCDC's data processing and validation procedures.
#
#######################################################################

data_CIGSOC
_chemical_formula_moiety         'C21 H22 O6'
_chemical_name_systematic        
'Dimethyl 5-benzyl-2-(4-methylphenyl)-1,3-dioxolane-4,4-dicarboxylate'
_symmetry_cell_setting           monoclinic
_symmetry_space_group_name_H-M   'P 21/n'
_symmetry_Int_Tables_number      14
_space_group_name_Hall           '-P 2yn'
loop_
_symmetry_equiv_pos_site_id
_symmetry_equiv_pos_as_xyz
1 x,y,z
2 1/2-x,1/2+y,1/2-z
3 -x,-y,-z
4 1/2+x,1/2-y,1/2+z
_cell_length_a                   12.9507(4)
_cell_length_b                   8.4620(2)
_cell_length_c                   17.8426(5)
_cell_angle_alpha                90
_cell_angle_beta                 93.0030(10)
_cell_angle_gamma                90
_cell_volume                     1952.66
_exptl_crystal_colour            colorless
_exptl_crystal_description       block
_cell_formula_units_Z            4
loop_
_atom_site_label
_atom_site_type_symbol
_atom_site_fract_x
_atom_site_fract_y
_atom_site_fract_z
O1 O 0.87756(8) 0.79091(12) 0.05868(6)
O2 O 0.75162(8) 0.64302(12) 0.10547(6)
O3 O 0.71347(11) 0.94976(18) -0.06512(8)
O4 O 0.85910(9) 1.06730(16) -0.02529(7)
O5 O 0.85191(13) 0.98171(17) 0.17849(8)
O6 O 0.73934(10) 1.12975(14) 0.11016(7)
C1 C 0.52104(14) 0.5847(2) 0.16264(10)
H1 H 0.5722 0.5803 0.2011
C2 C 0.44337(17) 0.4725(2) 0.15905(12)
H2 H 0.4429 0.3930 0.1950
C3 C 0.36748(16) 0.4773(3) 0.10323(12)
H3 H 0.3149 0.4023 0.1012
C4 C 0.36949(16) 0.5929(3) 0.05064(12)
H4 H 0.3182 0.5965 0.0122
C5 C 0.44653(13) 0.7048(2) 0.05362(10)
H5 H 0.4468 0.7831 0.0171
C6 C 0.52327(11) 0.70263(18) 0.10994(9)
C7 C 0.60847(12) 0.8244(2) 0.11207(10)
H6 H 0.6320 0.8436 0.1638
H7 H 0.5817 0.9230 0.0913
C8 C 0.69876(11) 0.77059(18) 0.06804(9)
H8 H 0.6725 0.7344 0.0185
C9 C 0.78853(11) 0.88882(18) 0.05772(8)
C10 C 0.84525(12) 0.63046(18) 0.06980(9)
H9 H 0.8332 0.5785 0.0210
C11 C 0.92619(11) 0.54246(18) 0.11552(9)
C12 C 0.96301(13) 0.5990(2) 0.18469(9)
H10 H 0.9351 0.6907 0.2041
C13 C 1.04071(14) 0.5203(2) 0.22487(10)
H11 H 1.0642 0.5592 0.2714
C14 C 1.08459(14) 0.3844(2) 0.19749(11)
C15 C 1.04649(15) 0.3279(2) 0.12924(12)
H12 H 1.0738 0.2355 0.1102
C16 C 0.96813(14) 0.4059(2) 0.08836(10)
H13 H 0.9437 0.3657 0.0423
C17 C 1.17277(16) 0.3035(3) 0.24067(14)
H14 H 1.1934 0.2117 0.2136
H15 H 1.1509 0.2723 0.2891
H16 H 1.2301 0.3750 0.2468
C18 C 0.78007(12) 0.97267(19) -0.01809(9)
C19 C 0.86683(17) 1.1469(3) -0.09627(11)
H17 H 0.9273 1.2128 -0.0943
H18 H 0.8065 1.2109 -0.1063
H19 H 0.8719 1.0700 -0.1355
C20 C 0.79944(14) 1.0053(2) 0.12280(10)
C21 C 0.7355(2) 1.2426(2) 0.17139(13)
H20 H 0.6904 1.3284 0.1565
H21 H 0.8037 1.2828 0.1834
H22 H 0.7098 1.1912 0.2146
loop_
_geom_bond_atom_site_label_1
_geom_bond_atom_site_label_2
_geom_bond_site_symmetry_1
_geom_bond_site_symmetry_2
O1 C9 1_555 1_555
O2 C8 1_555 1_555
O3 C18 1_555 1_555
O4 C18 1_555 1_555
O5 C20 1_555 1_555
O6 C20 1_555 1_555
C1 H1 1_555 1_555
C2 C1 1_555 1_555
H2 C2 1_555 1_555
C3 C2 1_555 1_555
H3 C3 1_555 1_555
C4 C3 1_555 1_555
H4 C4 1_555 1_555
C5 C4 1_555 1_555
H5 C5 1_555 1_555
C6 C1 1_555 1_555
C7 C6 1_555 1_555
H6 C7 1_555 1_555
H7 C7 1_555 1_555
C8 C7 1_555 1_555
H8 C8 1_555 1_555
C9 C8 1_555 1_555
C10 O1 1_555 1_555
H9 C10 1_555 1_555
C11 C10 1_555 1_555
C12 C11 1_555 1_555
H10 C12 1_555 1_555
C13 C12 1_555 1_555
H11 C13 1_555 1_555
C14 C13 1_555 1_555
C15 C14 1_555 1_555
H12 C15 1_555 1_555
C16 C11 1_555 1_555
H13 C16 1_555 1_555
C17 C14 1_555 1_555
H14 C17 1_555 1_555
H15 C17 1_555 1_555
H16 C17 1_555 1_555
C18 C9 1_555 1_555
C19 O4 1_555 1_555
H17 C19 1_555 1_555
H18 C19 1_555 1_555
H19 C19 1_555 1_555
C20 C9 1_555 1_555
C21 O6 1_555 1_555
H20 C21 1_555 1_555
H21 C21 1_555 1_555
H22 C21 1_555 1_555
O2 C10 1_555 1_555
C5 C6 1_555 1_555
C15 C16 1_555 1_555

#END
