
#######################################################################
#
#                 Cambridge Crystallographic Data Centre
#                                CCDC 
#
#######################################################################
#
# If this CIF has been generated from an entry in the Cambridge 
# Structural Database, then it will include bibliographic, chemical, 
# crystal, experimental, refinement or atomic coordinate data resulting 
# from the CCDC's data processing and validation procedures.
#
#######################################################################

data_CIHDOP
_chemical_name_common            'lamivudine acesulfame'
_chemical_formula_moiety         'C8 H12 N3 O3 S1 1+,C4 H4 N1 O4 S1 1-'
_chemical_name_systematic        
'1-[2-(hydroxymethyl)-1,3-oxathiolan-5-yl]-2-oxo-2,3-dihydropyrimidin-4(1H)-iminium 6-methyl-2,2,4-trioxo-2H,4H-1,2,3-oxathiazin-3-ide'
_chemical_properties_biological  'Lamivudine is an antiretroviral drug.'
_symmetry_cell_setting           orthorhombic
_symmetry_space_group_name_H-M   'P 21 21 21'
_symmetry_Int_Tables_number      19
_space_group_name_Hall           'P 2ac 2ab'
loop_
_symmetry_equiv_pos_site_id
_symmetry_equiv_pos_as_xyz
1 x,y,z
2 1/2-x,-y,1/2+z
3 -x,1/2+y,1/2-z
4 1/2+x,1/2-y,-z
_cell_length_a                   5.4592(2)
_cell_length_b                   13.2238(6)
_cell_length_c                   21.9152(9)
_cell_angle_alpha                90
_cell_angle_beta                 90
_cell_angle_gamma                90
_cell_volume                     1582.09
_exptl_crystal_colour            white
_exptl_crystal_description       Blocks
_cell_formula_units_Z            4
loop_
_atom_site_label
_atom_site_type_symbol
_atom_site_fract_x
_atom_site_fract_y
_atom_site_fract_z
S1 S 0.77775(6) 0.52477(3) 0.107408(15)
O1 O 0.4125(2) 0.71349(8) 0.19044(5)
O2 O 1.00600(18) 0.60289(8) 0.09989(5)
O3 O 0.8845(2) 0.43327(9) 0.12848(5)
N1 N 0.6085(2) 0.57230(10) 0.15837(5)
O4 O 0.6643(2) 0.52210(9) 0.04827(5)
C1 C 0.5735(3) 0.67400(11) 0.15759(6)
C2 C 0.9371(3) 0.70375(11) 0.09388(6)
C3 C 0.7322(3) 0.73829(11) 0.12004(6)
C4 C 1.1128(3) 0.76277(14) 0.05666(7)
H1 H 0.679(4) 0.8121(16) 0.1178(9)
H2 H 1.135(4) 0.7344(17) 0.0201(10)
H3 H 1.051(5) 0.8377(19) 0.0520(10)
H4 H 1.272(5) 0.770(2) 0.0774(11)
S2 S 0.33653(6) 0.17382(3) 0.040050(15)
O5 O 0.63018(19) 0.12374(8) 0.13007(4)
N2 N -0.0836(2) 0.10342(9) 0.24758(5)
N3 N 0.2568(2) 0.11783(8) 0.18349(5)
O6 O 0.5233(2) -0.05072(8) 0.05014(5)
O7 O 0.0941(2) 0.25557(8) 0.23139(5)
C5 C 0.2516(3) 0.01564(11) 0.17466(6)
C6 C 0.0901(3) 0.16470(10) 0.22147(6)
N4 N -0.2809(3) -0.04742(10) 0.26409(6)
C7 C 0.3414(3) 0.25424(11) 0.10665(7)
C8 C 0.0817(3) -0.04415(11) 0.20132(6)
C9 C 0.4488(3) 0.18510(11) 0.15592(6)
C10 C -0.0994(3) 0.00234(11) 0.23884(6)
C11 C 0.6344(3) 0.12771(11) 0.06383(6)
C12 C 0.6992(3) 0.02509(12) 0.03796(6)
H5 H 0.719(3) 0.0328(13) -0.0063(8)
H6 H 0.087(4) -0.1168(15) 0.1964(9)
H7 H 0.455(3) 0.3140(14) 0.1007(7)
H8 H 0.846(4) 0.0063(15) 0.0555(8)
H9 H -0.274(5) -0.1187(17) 0.2636(9)
H10 H -0.384(4) -0.0175(16) 0.2877(9)
H11 H 0.758(4) 0.1750(14) 0.0525(7)
H12 H 0.377(4) -0.0082(16) 0.1508(9)
H13 H -0.187(4) 0.1339(17) 0.2711(10)
H14 H 0.524(3) 0.2257(13) 0.1914(7)
H15 H 0.181(4) 0.2787(15) 0.1153(9)
H16 H 0.428(5) -0.0458(19) 0.0269(11)
loop_
_geom_bond_atom_site_label_1
_geom_bond_atom_site_label_2
_geom_bond_site_symmetry_1
_geom_bond_site_symmetry_2
S1 O2 1_555 1_555
O1 C1 1_555 1_555
O2 C2 1_555 1_555
O3 S1 1_555 1_555
N1 S1 1_555 1_555
O4 S1 1_555 1_555
C1 N1 1_555 1_555
C2 C3 1_555 1_555
C3 C1 1_555 1_555
C4 C2 1_555 1_555
H1 C3 1_555 1_555
H2 C4 1_555 1_555
H3 C4 1_555 1_555
H4 C4 1_555 1_555
S2 C7 1_555 1_555
O5 C9 1_555 1_555
N2 C6 1_555 1_555
N3 C5 1_555 1_555
O6 C12 1_555 1_555
O7 C6 1_555 1_555
C5 C8 1_555 1_555
C6 N3 1_555 1_555
N4 C10 1_555 1_555
C7 C9 1_555 1_555
C8 C10 1_555 1_555
C9 N3 1_555 1_555
C10 N2 1_555 1_555
C11 S2 1_555 1_555
C12 C11 1_555 1_555
H5 C12 1_555 1_555
H6 C8 1_555 1_555
H7 C7 1_555 1_555
H8 C12 1_555 1_555
H9 N4 1_555 1_555
H10 N4 1_555 1_555
H11 C11 1_555 1_555
H12 C5 1_555 1_555
H13 N2 1_555 1_555
H14 C9 1_555 1_555
H15 C7 1_555 1_555
H16 O6 1_555 1_555
O5 C11 1_555 1_555

#END
