
#######################################################################
#
#                 Cambridge Crystallographic Data Centre
#                                CCDC 
#
#######################################################################
#
# If this CIF has been generated from an entry in the Cambridge 
# Structural Database, then it will include bibliographic, chemical, 
# crystal, experimental, refinement or atomic coordinate data resulting 
# from the CCDC's data processing and validation procedures.
#
#######################################################################

data_CIHDAZ
_chemical_formula_moiety         'C15 H17 Br2 N3 O4'
_chemical_name_systematic        
't-Butyl 2,3-bis(bromomethyl)quinoxalin-6-ylcarbamate 1,4-dioxide'
_symmetry_cell_setting           monoclinic
_symmetry_space_group_name_H-M   'P 21/n'
_symmetry_Int_Tables_number      14
_space_group_name_Hall           '-P 2yn'
loop_
_symmetry_equiv_pos_site_id
_symmetry_equiv_pos_as_xyz
1 x,y,z
2 1/2-x,1/2+y,1/2-z
3 -x,-y,-z
4 1/2+x,1/2-y,1/2+z
_cell_length_a                   14.181(2)
_cell_length_b                   6.9634(10)
_cell_length_c                   17.674(3)
_cell_angle_alpha                90
_cell_angle_beta                 106.362(9)
_cell_angle_gamma                90
_cell_volume                     1674.59
_exptl_crystal_colour            yellow
_exptl_crystal_description       needle
_chemical_melting_point          'above 180deg.C(dec.)'
_cell_formula_units_Z            4
_exptl_crystal_recrystallization_method 'ethyl acetate/petroleum ether (40-60)'
loop_
_atom_site_label
_atom_site_type_symbol
_atom_site_fract_x
_atom_site_fract_y
_atom_site_fract_z
C1 C 0.5848(6) 0.4916(12) 0.1321(5)
N1 N 0.5268(5) 0.3295(10) 0.1386(4)
O1 O 0.5702(4) 0.1773(8) 0.1732(4)
C2 C 0.4262(6) 0.3407(13) 0.1081(5)
C3 C 0.3828(6) 0.5081(13) 0.0675(5)
N2 N 0.4382(5) 0.6558(10) 0.0543(4)
O2 O 0.3975(4) 0.8042(8) 0.0126(3)
C4 C 0.5404(6) 0.6559(12) 0.0890(5)
C5 C 0.5959(6) 0.8151(12) 0.0808(5)
H1 H 0.5652 0.9218 0.0500
C6 C 0.6966(6) 0.8179(12) 0.1179(5)
N3 N 0.7487(5) 0.9802(10) 0.1090(4)
H2 H 0.713(5) 1.097(6) 0.086(4)
C7 C 0.7413(6) 0.6529(13) 0.1632(5)
H3 H 0.8096 0.6536 0.1896
C8 C 0.6860(7) 0.4954(13) 0.1687(5)
H4 H 0.7169 0.3868 0.1979
C9 C 0.3693(7) 0.1710(13) 0.1201(5)
H5 H 0.4124 0.0563 0.1300
H6 H 0.3147 0.1473 0.0719
Br1 Br 0.31616(6) 0.21304(14) 0.21022(5)
C10 C 0.2728(6) 0.5305(12) 0.0339(5)
H7 H 0.2401 0.4055 0.0352
H8 H 0.2572 0.5733 -0.0217
Br2 Br 0.22448(6) 0.72084(14) 0.09644(5)
C11 C 0.8494(6) 1.0132(13) 0.1382(5)
O3 O 0.9078(4) 0.8972(9) 0.1750(4)
O4 O 0.8696(4) 1.1935(8) 0.1192(3)
C12 C 0.9747(5) 1.2572(12) 0.1404(5)
C13 C 1.0183(6) 1.2609(14) 0.2299(5)
H9 H 1.0224 1.1295 0.2505
H10 H 0.9763 1.3382 0.2536
H11 H 1.0843 1.3173 0.2431
C14 C 1.0320(6) 1.1299(14) 0.0984(6)
H12 H 1.0006 1.1338 0.0414
H13 H 1.0324 0.9976 0.1173
H14 H 1.0997 1.1768 0.1096
C15 C 0.9676(6) 1.4618(13) 0.1073(5)
H15 H 0.9397 1.4580 0.0499
H16 H 1.0334 1.5191 0.1203
H17 H 0.9253 1.5392 0.1307
loop_
_geom_bond_atom_site_label_1
_geom_bond_atom_site_label_2
_geom_bond_site_symmetry_1
_geom_bond_site_symmetry_2
C1 N1 1_555 1_555
N1 O1 1_555 1_555
C2 N1 1_555 1_555
C3 C2 1_555 1_555
N2 C3 1_555 1_555
O2 N2 1_555 1_555
C4 C1 1_555 1_555
C5 C4 1_555 1_555
H1 C5 1_555 1_555
C6 C5 1_555 1_555
N3 C6 1_555 1_555
H2 N3 1_555 1_555
C7 C6 1_555 1_555
H3 C7 1_555 1_555
C8 C1 1_555 1_555
H4 C8 1_555 1_555
C9 C2 1_555 1_555
H5 C9 1_555 1_555
H6 C9 1_555 1_555
Br1 C9 1_555 1_555
C10 C3 1_555 1_555
H7 C10 1_555 1_555
H8 C10 1_555 1_555
Br2 C10 1_555 1_555
C11 N3 1_555 1_555
O3 C11 1_555 1_555
O4 C11 1_555 1_555
C12 O4 1_555 1_555
C13 C12 1_555 1_555
H9 C13 1_555 1_555
H10 C13 1_555 1_555
H11 C13 1_555 1_555
C14 C12 1_555 1_555
H12 C14 1_555 1_555
H13 C14 1_555 1_555
H14 C14 1_555 1_555
C15 C12 1_555 1_555
H15 C15 1_555 1_555
H16 C15 1_555 1_555
H17 C15 1_555 1_555
N2 C4 1_555 1_555
C7 C8 1_555 1_555

#END
