
#######################################################################
#
#                 Cambridge Crystallographic Data Centre
#                                CCDC 
#
#######################################################################
#
# If this CIF has been generated from an entry in the Cambridge 
# Structural Database, then it will include bibliographic, chemical, 
# crystal, experimental, refinement or atomic coordinate data resulting 
# from the CCDC's data processing and validation procedures.
#
#######################################################################

data_CIHDON
_chemical_formula_moiety         'C29 H31 Cl3 O1 Si2'
_chemical_name_systematic        
2-(2-Phenyl-1-(trimethylsilyl)-1H-inden-3-yl)-1-(2,4,6-trichlorophenyl)-2-(trimethylsilyl)ethenol
_symmetry_cell_setting           triclinic
_symmetry_space_group_name_H-M   'P -1'
_symmetry_Int_Tables_number      2
_space_group_name_Hall           '-P 1'
loop_
_symmetry_equiv_pos_site_id
_symmetry_equiv_pos_as_xyz
1 x,y,z
2 -x,-y,-z
_cell_length_a                   11.237(2)
_cell_length_b                   11.608(2)
_cell_length_c                   13.253(3)
_cell_angle_alpha                68.38(3)
_cell_angle_beta                 84.74(3)
_cell_angle_gamma                66.43(3)
_cell_volume                     1469.87
_exptl_crystal_colour            colorless
_exptl_crystal_description       block
_chemical_melting_point          199.6-200.2deg.C
_cell_formula_units_Z            2
loop_
_atom_site_label
_atom_site_type_symbol
_atom_site_fract_x
_atom_site_fract_y
_atom_site_fract_z
Cl1 Cl -0.03230(8) 1.01278(8) 0.34288(7)
Cl2 Cl 0.39796(8) 0.60989(8) 0.58702(7)
Cl3 Cl -0.07022(10) 0.59321(10) 0.67320(8)
Si1 Si 0.27601(9) 0.77253(8) 0.22758(7)
Si2 Si 0.48690(9) 1.22686(8) 0.18703(7)
O1 O 0.2918(2) 0.9424(2) 0.45259(18)
H1 H 0.340(4) 0.979(4) 0.418(3)
C1 C 0.3069(3) 0.8675(2) 0.3041(2)
C2 C 0.3989(3) 0.9350(3) 0.2541(2)
C3 C 0.3761(3) 1.0536(3) 0.1700(2)
C4 C 0.4987(3) 1.0800(3) 0.1468(2)
H2 H 0.5180 1.0967 0.0703
C5 C 0.5388(3) 0.8697(3) 0.2879(2)
C6 C 0.6105(3) 0.7476(3) 0.3695(2)
H3 H 0.5694 0.6944 0.4155
C7 C 0.7432(3) 0.7071(3) 0.3806(3)
H4 H 0.7920 0.6264 0.4353
C8 C 0.8043(3) 0.7842(3) 0.3120(3)
H5 H 0.8944 0.7536 0.3194
C9 C 0.7343(3) 0.9074(3) 0.2315(3)
H6 H 0.7765 0.9596 0.1860
C10 C 0.6005(3) 0.9510(3) 0.2205(2)
C11 C 0.2505(3) 1.1498(3) 0.1087(2)
C12 C 0.1373(3) 1.1880(3) 0.1616(3)
H7 H 0.1404 1.1516 0.2371
C13 C 0.0205(4) 1.2787(3) 0.1047(3)
H8 H -0.0545 1.3039 0.1414
C14 C 0.0155(5) 1.3322(4) -0.0078(4)
H9 H -0.0636 1.3924 -0.0466
C15 C 0.1261(5) 1.2973(4) -0.0626(3)
H10 H 0.1222 1.3351 -0.1381
C16 C 0.2438(4) 1.2054(3) -0.0048(3)
H11 H 0.3186 1.1807 -0.0419
C17 C 0.4292(4) 0.7065(4) 0.1608(3)
H12 H 0.4504 0.7803 0.1138
H13 H 0.4170 0.6596 0.1188
H14 H 0.4989 0.6456 0.2154
C18 C 0.1408(4) 0.8846(4) 0.1203(3)
H15 H 0.1582 0.9613 0.0739
H16 H 0.0606 0.9146 0.1538
H17 H 0.1341 0.8357 0.0779
C19 C 0.2402(4) 0.6251(3) 0.3175(3)
H18 H 0.3100 0.5662 0.3724
H19 H 0.2316 0.5772 0.2750
H20 H 0.1605 0.6561 0.3515
C20 C 0.3575(4) 1.3866(3) 0.0999(3)
H21 H 0.3800 1.4075 0.0255
H22 H 0.3495 1.4585 0.1230
H23 H 0.2762 1.3763 0.1062
C21 C 0.6444(3) 1.2479(4) 0.1693(3)
H24 H 0.6634 1.2696 0.0941
H25 H 0.7126 1.1654 0.2126
H26 H 0.6382 1.3194 0.1921
C22 C 0.4463(4) 1.1860(4) 0.3324(3)
H27 H 0.5138 1.1036 0.3767
H28 H 0.3651 1.1754 0.3402
H29 H 0.4393 1.2578 0.3552
C23 C 0.2634(3) 0.8724(3) 0.3998(2)
C24 C 0.1781(3) 0.8067(3) 0.4676(2)
C25 C 0.0436(3) 0.8606(3) 0.4491(2)
C26 C -0.0336(3) 0.7976(3) 0.5123(2)
H30 H -0.1233 0.8360 0.4977
C27 C 0.0242(3) 0.6777(3) 0.5969(2)
C28 C 0.1570(3) 0.6213(3) 0.6214(2)
H31 H 0.1953 0.5411 0.6802
C29 C 0.2312(3) 0.6861(3) 0.5571(2)
loop_
_geom_bond_atom_site_label_1
_geom_bond_atom_site_label_2
_geom_bond_site_symmetry_1
_geom_bond_site_symmetry_2
Cl1 C25 1_555 1_555
Cl2 C29 1_555 1_555
Cl3 C27 1_555 1_555
Si1 C1 1_555 1_555
Si2 C4 1_555 1_555
O1 H1 1_555 1_555
C1 C2 1_555 1_555
C2 C3 1_555 1_555
C3 C4 1_555 1_555
C4 H2 1_555 1_555
C5 C2 1_555 1_555
C6 C5 1_555 1_555
H3 C6 1_555 1_555
C7 C6 1_555 1_555
H4 C7 1_555 1_555
C8 C7 1_555 1_555
H5 C8 1_555 1_555
C9 C8 1_555 1_555
H6 C9 1_555 1_555
C10 C4 1_555 1_555
C11 C3 1_555 1_555
C12 C11 1_555 1_555
H7 C12 1_555 1_555
C13 C12 1_555 1_555
H8 C13 1_555 1_555
C14 C13 1_555 1_555
H9 C14 1_555 1_555
C15 C14 1_555 1_555
H10 C15 1_555 1_555
C16 C11 1_555 1_555
H11 C16 1_555 1_555
C17 Si1 1_555 1_555
H12 C17 1_555 1_555
H13 C17 1_555 1_555
H14 C17 1_555 1_555
C18 Si1 1_555 1_555
H15 C18 1_555 1_555
H16 C18 1_555 1_555
H17 C18 1_555 1_555
C19 Si1 1_555 1_555
H18 C19 1_555 1_555
H19 C19 1_555 1_555
H20 C19 1_555 1_555
C20 Si2 1_555 1_555
H21 C20 1_555 1_555
H22 C20 1_555 1_555
H23 C20 1_555 1_555
C21 Si2 1_555 1_555
H24 C21 1_555 1_555
H25 C21 1_555 1_555
H26 C21 1_555 1_555
C22 Si2 1_555 1_555
H27 C22 1_555 1_555
H28 C22 1_555 1_555
H29 C22 1_555 1_555
C23 O1 1_555 1_555
C24 C23 1_555 1_555
C25 C24 1_555 1_555
C26 C25 1_555 1_555
H30 C26 1_555 1_555
C27 C26 1_555 1_555
C28 C27 1_555 1_555
H31 C28 1_555 1_555
C29 C24 1_555 1_555
C1 C23 1_555 1_555
C5 C10 1_555 1_555
C9 C10 1_555 1_555
C15 C16 1_555 1_555
C28 C29 1_555 1_555

#END
