
#######################################################################
#
#                 Cambridge Crystallographic Data Centre
#                                CCDC 
#
#######################################################################
#
# If this CIF has been generated from an entry in the Cambridge 
# Structural Database, then it will include bibliographic, chemical, 
# crystal, experimental, refinement or atomic coordinate data resulting 
# from the CCDC's data processing and validation procedures.
#
#######################################################################

data_CIHDUV
_chemical_name_common            'caffeine bis(acesulfame)'
_chemical_formula_moiety         'C8 H10 N4 O2,2(C4 H5 N1 O4 S1)'
_chemical_name_systematic        
'1,3,7-trimethyl-3,7-dihydro-1H-purine-2,6-dione bis(4-hydroxy-6-methyl-2H-1,2,3-oxathiazine-2,2-dione)'
_symmetry_cell_setting           monoclinic
_symmetry_space_group_name_H-M   'C c'
_symmetry_Int_Tables_number      9
_space_group_name_Hall           'C -2yc'
loop_
_symmetry_equiv_pos_site_id
_symmetry_equiv_pos_as_xyz
1 x,y,z
2 x,-y,1/2+z
3 1/2+x,1/2+y,z
4 1/2+x,1/2-y,1/2+z
_cell_length_a                   12.2094(16)
_cell_length_b                   13.4920(18)
_cell_length_c                   13.2084(18)
_cell_angle_alpha                90
_cell_angle_beta                 91.920(2)
_cell_angle_gamma                90
_cell_volume                     2174.59
_exptl_crystal_colour            white
_exptl_crystal_description       Needles
_cell_formula_units_Z            4
loop_
_atom_site_label
_atom_site_type_symbol
_atom_site_fract_x
_atom_site_fract_y
_atom_site_fract_z
S1 S 0.66269(6) 0.17668(6) 0.02035(5)
O1 O 0.7614(2) -0.07571(17) 0.08547(17)
H1 H 0.7897 -0.0559 0.1407
C1 C 0.6234(3) 0.0448(3) -0.1180(2)
O2 O 0.7277(2) 0.2641(2) 0.0145(2)
O3 O 0.5584(2) 0.18621(19) 0.0616(2)
O4 O 0.6430(2) 0.14457(19) -0.09769(19)
C2 C 0.7162(2) -0.0006(2) 0.0368(2)
C3 C 0.6576(3) -0.0245(3) -0.0557(3)
N1 N 0.7314(2) 0.0894(2) 0.0726(2)
C4 C 0.5665(3) 0.0302(3) -0.2194(3)
H2 H 0.5637 -0.0406 -0.2354
H3 H 0.6069 0.0652 -0.2714
H4 H 0.4918 0.0566 -0.2175
H5 H 0.644(2) -0.083(2) -0.067(2)
S2 S 0.22931(5) 0.17564(6) 0.80090(5)
C5 C 0.2383(3) -0.0236(3) 0.8798(2)
O5 O 0.3357(2) 0.17856(17) 0.7600(2)
C6 C 0.1754(2) -0.0018(2) 0.7885(2)
N2 N 0.1574(2) 0.08695(19) 0.7531(2)
O6 O 0.24842(18) 0.14653(18) 0.92047(18)
O7 O 0.13160(19) -0.07781(16) 0.74188(18)
C7 C 0.3259(3) 0.0370(3) 1.0438(3)
H6 H 0.3275 -0.0334 1.0623
H7 H 0.2862 0.0743 1.0946
H8 H 0.4010 0.0621 1.0410
O8 O 0.1663(2) 0.26337(18) 0.8036(2)
C8 C 0.2702(2) 0.0489(2) 0.9441(2)
H9 H 0.247(4) -0.087(3) 0.906(3)
H10 H 0.085(4) -0.069(4) 0.680(4)
O9 O 0.86692(19) 0.03982(17) 0.75527(18)
C9 C 0.9054(2) 0.0856(2) 0.8292(3)
O10 O 0.9463(2) 0.33630(10) 0.9117(2)
N3 N 0.9089(2) 0.18843(19) 0.8329(2)
N4 N 0.9908(2) 0.19624(18) 0.9985(2)
C10 C 1.0278(3) 0.2515(3) 1.0876(3)
H11 H 1.0153 0.2121 1.1485
H12 H 0.9869 0.3139 1.0911
H13 H 1.1062 0.2659 1.0834
C11 C 0.9517(3) 0.04117(14) 0.9174(3)
C12 C 1.0171(2) -0.05650(18) 1.0373(2)
C13 C 0.9482(3) 0.24664(14) 0.9150(3)
N5 N 1.0337(2) 0.0354(2) 1.0726(2)
C14 C 0.9925(2) 0.0954(2) 0.9977(2)
C15 C 0.9319(3) -0.14535(18) 0.8885(2)
H14 H 0.9544 -0.2052 0.9258
H15 H 0.9653 -0.1452 0.8220
H16 H 0.8519 -0.1444 0.8795
N6 N 0.96807(15) -0.05726(14) 0.94578(15)
C16 C 0.8691(3) 0.2446(3) 0.7432(3)
H17 H 0.9135 0.2277 0.6852
H18 H 0.8751 0.3158 0.7571
H19 H 0.7923 0.2276 0.7278
H20 H 1.041(2) -0.117(2) 1.068(2)
loop_
_geom_bond_atom_site_label_1
_geom_bond_atom_site_label_2
_geom_bond_site_symmetry_1
_geom_bond_site_symmetry_2
S1 O2 1_555 1_555
O1 H1 1_555 1_555
C1 O4 1_555 1_555
O3 S1 1_555 1_555
O4 S1 1_555 1_555
C2 O1 1_555 1_555
C3 C1 1_555 1_555
N1 S1 1_555 1_555
C4 C1 1_555 1_555
H2 C4 1_555 1_555
H3 C4 1_555 1_555
H4 C4 1_555 1_555
H5 C3 1_555 1_555
S2 O5 1_555 1_555
C5 C6 1_555 1_555
C6 N2 1_555 1_555
N2 S2 1_555 1_555
O6 S2 1_555 1_555
O7 C6 1_555 1_555
C7 H6 1_555 1_555
H7 C7 1_555 1_555
H8 C7 1_555 1_555
O8 S2 1_555 1_555
C8 C5 1_555 1_555
H9 C5 1_555 1_555
H10 O7 1_555 1_555
O9 C9 1_555 1_555
C9 N3 1_555 1_555
O10 C13 1_555 1_555
N3 C13 1_555 1_555
N4 C10 1_555 1_555
C10 H11 1_555 1_555
H12 C10 1_555 1_555
H13 C10 1_555 1_555
C11 C9 1_555 1_555
C12 N5 1_555 1_555
C13 N4 1_555 1_555
N5 C14 1_555 1_555
C14 N4 1_555 1_555
C15 H14 1_555 1_555
H15 C15 1_555 1_555
H16 C15 1_555 1_555
N6 C11 1_555 1_555
C16 N3 1_555 1_555
H17 C16 1_555 1_555
H18 C16 1_555 1_555
H19 C16 1_555 1_555
H20 C12 1_555 1_555
C2 C3 1_555 1_555
C2 N1 1_555 1_555
O6 C8 1_555 1_555
C7 C8 1_555 1_555
C11 C14 1_555 1_555
C12 N6 1_555 1_555
C15 N6 1_555 1_555

#END
