
#######################################################################
#
#                 Cambridge Crystallographic Data Centre
#                                CCDC 
#
#######################################################################
#
# If this CIF has been generated from an entry in the Cambridge 
# Structural Database, then it will include bibliographic, chemical, 
# crystal, experimental, refinement or atomic coordinate data resulting 
# from the CCDC's data processing and validation procedures.
#
#######################################################################

data_CIHFAD
_chemical_name_common            'sildenafil acesulfame acetonitrile solvate'
_chemical_formula_moiety         
'C22 H31 N6 O4 S1 1+,C4 H4 N1 O4 S1 1-,C2 H3 N1'
_chemical_name_systematic        
'4-{[4-ethoxy-3-(1-methyl-7-oxo-3-propyl-6,7-dihydro-1H-pyrazolo[4,3-d]pyrimidin-5-yl)phenyl]sulfonyl}-1-methylpiperazin-1-ium 6-methyl-2,2,4-trioxo-2H,4H-1,2,3-oxathiazin-3-ide acetonitrile solvate'
_chemical_properties_biological  
'Sildenafil is a medication used to treat erectile dysfunction and pulmonary arterial hypertension.'
_symmetry_cell_setting           monoclinic
_symmetry_space_group_name_H-M   'P 21/c'
_symmetry_Int_Tables_number      14
_space_group_name_Hall           '-P 2ybc'
loop_
_symmetry_equiv_pos_site_id
_symmetry_equiv_pos_as_xyz
1 x,y,z
2 -x,1/2+y,1/2-z
3 -x,-y,-z
4 x,1/2-y,1/2+z
_cell_length_a                   13.2631(15)
_cell_length_b                   31.581(4)
_cell_length_c                   7.8723(9)
_cell_angle_alpha                90
_cell_angle_beta                 95.963(2)
_cell_angle_gamma                90
_cell_volume                     3279.57
_exptl_crystal_colour            white
_exptl_crystal_description       Blocks
_cell_formula_units_Z            4
loop_
_atom_site_label
_atom_site_type_symbol
_atom_site_fract_x
_atom_site_fract_y
_atom_site_fract_z
S1 S 0.02107(4) 0.187870(17) 0.11372(7)
O1 O -0.04681(12) -0.08370(5) 0.2537(2)
O2 O -0.18803(11) 0.02395(5) 0.0061(2)
N1 N -0.03919(14) -0.01260(6) 0.2027(2)
N2 N 0.08430(13) 0.03469(5) 0.3276(2)
N3 N 0.24324(14) 0.18552(6) -0.2802(2)
O3 O -0.04944(12) 0.22140(5) 0.0711(2)
O4 O 0.07789(13) 0.18678(5) 0.2788(2)
N4 N 0.10411(13) 0.18982(6) -0.0251(2)
C1 C -0.00132(17) 0.10312(7) 0.1587(3)
C2 C -0.14281(16) 0.06257(7) 0.0331(3)
C3 C -0.04951(15) 0.06394(6) 0.1360(3)
C4 C 0.12746(16) -0.00050(7) 0.4076(3)
C5 C -0.04450(16) 0.13955(7) 0.0842(3)
N5 N 0.23083(14) -0.04396(6) 0.5703(2)
C6 C 0.09013(16) -0.04159(7) 0.3876(3)
C7 C 0.00216(16) 0.02738(6) 0.2271(3)
C8 C 0.21562(16) -0.00366(7) 0.5239(3)
N6 N 0.15414(14) -0.06691(6) 0.4871(2)
C9 C -0.13698(17) 0.13776(7) -0.0141(3)
C10 C -0.00207(16) -0.05011(7) 0.2804(3)
C11 C 0.28294(18) 0.03181(8) 0.5918(3)
C12 C -0.18626(17) 0.09940(7) -0.0394(3)
C13 C 0.06533(18) 0.19471(8) -0.2066(3)
C14 C -0.3151(2) -0.02382(9) -0.1058(4)
C15 C 0.27562(18) 0.17753(8) -0.0952(3)
C16 C 0.19023(18) 0.15997(8) -0.0037(3)
C17 C 0.14960(18) 0.21256(7) -0.3002(3)
C18 C -0.28657(18) 0.02197(8) -0.0903(3)
C19 C 0.2338(2) 0.14622(8) -0.3854(4)
C20 C 0.1515(2) -0.11261(8) 0.5062(4)
C21 C 0.3928(2) 0.02003(10) 0.6357(5)
C22 C 0.4579(2) 0.05785(10) 0.6963(4)
H1 H 0.5295 0.0495 0.7088
H2 H 0.4387 0.0676 0.8066
H3 H 0.4474 0.0808 0.6124
H4 H 0.0427(17) 0.1676(8) -0.252(3)
H5 H 0.3301(19) 0.1569(8) -0.091(3)
H6 H 0.2982(17) 0.2033(8) -0.045(3)
H7 H 0.1713(17) 0.2398(8) -0.253(3)
H8 H 0.2791(19) 0.0543(8) 0.507(3)
H9 H 0.0096(17) 0.2146(7) -0.217(3)
H10 H -0.281(2) 0.0347(8) -0.208(4)
H11 H -0.338(2) 0.0382(8) -0.023(3)
H12 H 0.2128(19) 0.1570(8) 0.115(3)
H13 H -0.253(2) 0.0973(8) -0.106(3)
H14 H 0.1679(18) 0.1317(8) -0.046(3)
H15 H 0.259(2) 0.0439(9) 0.693(4)
H16 H -0.1665(19) 0.1627(8) -0.063(3)
H17 H -0.098(2) -0.0139(8) 0.131(3)
H18 H 0.1279(19) 0.2153(8) -0.418(4)
H19 H 0.0623(19) 0.1045(8) 0.223(3)
H20 H 0.292(2) 0.2033(9) -0.323(3)
H21 H 0.181(2) 0.1275(9) -0.343(4)
H22 H 0.298(2) 0.1335(9) -0.375(4)
H23 H 0.218(2) 0.1536(9) -0.502(4)
H24 H -0.321(2) -0.0363(10) 0.007(4)
H25 H 0.083(2) -0.1219(9) 0.476(4)
H26 H -0.266(2) -0.0400(9) -0.169(4)
H27 H 0.171(2) -0.1186(10) 0.623(4)
H28 H -0.384(3) -0.0274(10) -0.177(4)
H29 H 0.196(2) -0.1243(10) 0.441(4)
H30 H 0.417(2) 0.0083(11) 0.537(4)
H31 H 0.397(3) -0.0041(14) 0.718(5)
S2 S 0.59166(5) 0.17075(2) 0.77273(10)
O5 O 0.37837(13) 0.23882(6) 0.6166(3)
C23 C 0.46623(18) 0.22746(8) 0.6686(3)
O6 O 0.66323(15) 0.21117(7) 0.8290(3)
N7 N 0.48275(16) 0.18755(7) 0.7220(3)
C24 C 0.6403(2) 0.24981(9) 0.7564(4)
O7 O 0.59644(17) 0.14731(9) 0.9258(3)
C25 C 0.5494(2) 0.25761(10) 0.6800(4)
O8 O 0.63638(18) 0.15155(10) 0.6403(4)
C26 C 0.7277(2) 0.27949(12) 0.7863(5)
H32 H 0.7863 0.2677 0.7365
H33 H 0.7447 0.2835 0.9093
H34 H 0.7095 0.3068 0.7326
H35 H 0.536(2) 0.2845(11) 0.644(4)
N8 N 0.3695(3) 0.12075(11) 0.2682(4)
C27 C 0.5629(3) 0.10900(15) 0.2841(5)
H36 H 0.5882 0.1180 0.1773
H37 H 0.5770 0.0788 0.3027
H38 H 0.5967 0.1253 0.3794
C28 C 0.4541(3) 0.11615(10) 0.2737(4)
loop_
_geom_bond_atom_site_label_1
_geom_bond_atom_site_label_2
_geom_bond_site_symmetry_1
_geom_bond_site_symmetry_2
S1 O3 1_555 1_555
O1 C10 1_555 1_555
O2 C2 1_555 1_555
N1 C7 1_555 1_555
N2 C4 1_555 1_555
N3 C15 1_555 1_555
O4 S1 1_555 1_555
N4 S1 1_555 1_555
C1 C3 1_555 1_555
C2 C3 1_555 1_555
C3 C7 1_555 1_555
C4 C6 1_555 1_555
C5 S1 1_555 1_555
N5 C8 1_555 1_555
C6 N6 1_555 1_555
C7 N2 1_555 1_555
C8 C4 1_555 1_555
N6 N5 1_555 1_555
C9 C5 1_555 1_555
C10 N1 1_555 1_555
C11 C8 1_555 1_555
C12 C2 1_555 1_555
C13 N4 1_555 1_555
C14 C18 1_555 1_555
C15 C16 1_555 1_555
C16 N4 1_555 1_555
C17 N3 1_555 1_555
C18 O2 1_555 1_555
C19 N3 1_555 1_555
C20 N6 1_555 1_555
C21 C11 1_555 1_555
C22 C21 1_555 1_555
H1 C22 1_555 1_555
H2 C22 1_555 1_555
H3 C22 1_555 1_555
H4 C13 1_555 1_555
H5 C15 1_555 1_555
H6 C15 1_555 1_555
H7 C17 1_555 1_555
H8 C11 1_555 1_555
H9 C13 1_555 1_555
H10 C18 1_555 1_555
H11 C18 1_555 1_555
H12 C16 1_555 1_555
H13 C12 1_555 1_555
H14 C16 1_555 1_555
H15 C11 1_555 1_555
H16 C9 1_555 1_555
H17 N1 1_555 1_555
H18 C17 1_555 1_555
H19 C1 1_555 1_555
H20 N3 1_555 1_555
H21 C19 1_555 1_555
H22 C19 1_555 1_555
H23 C19 1_555 1_555
H24 C14 1_555 1_555
H25 C20 1_555 1_555
H26 C14 1_555 1_555
H27 C20 1_555 1_555
H28 C14 1_555 1_555
H29 C20 1_555 1_555
H30 C21 1_555 1_555
H31 C21 1_555 1_555
S2 O6 1_555 1_555
O5 C23 1_555 1_555
C23 N7 1_555 1_555
O6 C24 1_555 1_555
N7 S2 1_555 1_555
C24 C25 1_555 1_555
O7 S2 1_555 1_555
C25 C23 1_555 1_555
O8 S2 1_555 1_555
C26 C24 1_555 1_555
H32 C26 1_555 1_555
H33 C26 1_555 1_555
H34 C26 1_555 1_555
H35 C25 1_555 1_555
N8 C28 1_555 1_555
C27 H36 1_555 1_555
H37 C27 1_555 1_555
H38 C27 1_555 1_555
C28 C27 1_555 1_555
C1 C5 1_555 1_555
C6 C10 1_555 1_555
C9 C12 1_555 1_555
C13 C17 1_555 1_555

#END
