
#######################################################################
#
#                 Cambridge Crystallographic Data Centre
#                                CCDC 
#
#######################################################################
#
# If this CIF has been generated from an entry in the Cambridge 
# Structural Database, then it will include bibliographic, chemical, 
# crystal, experimental, refinement or atomic coordinate data resulting 
# from the CCDC's data processing and validation procedures.
#
#######################################################################

data_CIHFAA
_chemical_formula_moiety         'C16 H14 N2 O6 S1'
_chemical_name_systematic        Phthalylsulfacetamide
_chemical_properties_biological  'long-acting sulfa drug'
_symmetry_cell_setting           monoclinic
_symmetry_space_group_name_H-M   'P 21/c'
_symmetry_Int_Tables_number      14
_space_group_name_Hall           '-P 2ybc'
loop_
_symmetry_equiv_pos_site_id
_symmetry_equiv_pos_as_xyz
1 x,y,z
2 -x,1/2+y,1/2-z
3 -x,-y,-z
4 x,1/2-y,1/2+z
_cell_length_a                   7.980(3)
_cell_length_b                   12.784(2)
_cell_length_c                   18.064(7)
_cell_angle_alpha                90
_cell_angle_beta                 112.94(2)
_cell_angle_gamma                90
_cell_volume                     1697.08
_cell_formula_units_Z            4
loop_
_atom_site_label
_atom_site_type_symbol
_atom_site_fract_x
_atom_site_fract_y
_atom_site_fract_z
S1 S -0.23922 0.38558 0.30136
C1 C -0.00680 0.37540 0.36070
C2 C 0.05860 0.38810 0.44290
C3 C 0.24260 0.38110 0.48910
C4 C 0.36170 0.35690 0.45290
C5 C 0.29520 0.34730 0.36910
C6 C 0.11170 0.35610 0.32320
O1 O -0.32840 0.43060 0.34810
O2 O -0.26180 0.43040 0.22570
N1 N -0.31060 0.26380 0.27880
C7 C -0.31160 0.19120 0.33470
O3 O -0.27310 0.21540 0.40400
C8 C -0.35960 0.08270 0.30410
N2 N 0.54870 0.33980 0.49540
C9 C 0.63250 0.31200 0.57390
O4 O 0.56700 0.32380 0.62370
C10 C 0.82090 0.26980 0.59580
C11 C 0.96710 0.33490 0.63570
C12 C 1.14300 0.30170 0.65420
C13 C 1.17720 0.20190 0.63320
C14 C 1.03330 0.13470 0.59650
C15 C 0.85470 0.16700 0.57790
C16 C 0.70120 0.09350 0.54220
O5 O 0.74760 0.00190 0.52460
O6 O 0.54550 0.11750 0.53100
H1 H -0.02200 0.40400 0.46500
H2 H 0.27900 0.39500 0.54100
H3 H 0.38500 0.32600 0.34700
H4 H 0.07000 0.33600 0.26300
H5 H -0.32200 0.24100 0.23900
H6 H -0.40700 0.05400 0.33800
H7 H -0.40700 0.08500 0.25800
H8 H -0.25300 0.06700 0.29000
H9 H 0.59700 0.32600 0.46300
H10 H 0.94600 0.39000 0.65400
H11 H 1.24400 0.35100 0.68000
H12 H 1.29500 0.18500 0.63700
H13 H 1.05200 0.06400 0.58300
H14 H 0.64300 -0.04800 0.50200
loop_
_geom_bond_atom_site_label_1
_geom_bond_atom_site_label_2
_geom_bond_site_symmetry_1
_geom_bond_site_symmetry_2
S1 C1 1_555 1_555
C1 C2 1_555 1_555
C2 C3 1_555 1_555
C3 C4 1_555 1_555
C4 C5 1_555 1_555
C5 C6 1_555 1_555
C6 C1 1_555 1_555
O1 S1 1_555 1_555
O2 S1 1_555 1_555
N1 S1 1_555 1_555
C7 N1 1_555 1_555
O3 C7 1_555 1_555
C8 C7 1_555 1_555
N2 C4 1_555 1_555
C9 N2 1_555 1_555
O4 C9 1_555 1_555
C10 C9 1_555 1_555
C11 C10 1_555 1_555
C12 C11 1_555 1_555
C13 C12 1_555 1_555
C14 C13 1_555 1_555
C15 C10 1_555 1_555
C16 C15 1_555 1_555
O5 C16 1_555 1_555
O6 C16 1_555 1_555
H1 C2 1_555 1_555
H2 C3 1_555 1_555
H3 C5 1_555 1_555
H4 C6 1_555 1_555
H5 N1 1_555 1_555
H6 C8 1_555 1_555
H7 C8 1_555 1_555
H8 C8 1_555 1_555
H9 N2 1_555 1_555
H10 C11 1_555 1_555
H11 C12 1_555 1_555
H12 C13 1_555 1_555
H13 C14 1_555 1_555
H14 O5 1_555 1_555
C14 C15 1_555 1_555

#END
