
#######################################################################
#
#                 Cambridge Crystallographic Data Centre
#                                CCDC 
#
#######################################################################
#
# If this CIF has been generated from an entry in the Cambridge 
# Structural Database, then it will include bibliographic, chemical, 
# crystal, experimental, refinement or atomic coordinate data resulting 
# from the CCDC's data processing and validation procedures.
#
#######################################################################

data_CIHLOU
_chemical_formula_moiety         'C56 H52 Ba2 N8 O34'
_chemical_name_systematic        
tetrakis(\m~2~-3,5-Dinitrobenzoato-O,O')-bis(benzo-15-crown-5)-dibarium
_symmetry_cell_setting           triclinic
_symmetry_space_group_name_H-M   'P -1'
_symmetry_Int_Tables_number      2
_space_group_name_Hall           '-P 1'
loop_
_symmetry_equiv_pos_site_id
_symmetry_equiv_pos_as_xyz
1 x,y,z
2 -x,-y,-z
_cell_length_a                   13.694(7)
_cell_length_b                   14.183(7)
_cell_length_c                   9.781(5)
_cell_angle_alpha                105.64(4)
_cell_angle_beta                 100.97(4)
_cell_angle_gamma                109.36(4)
_cell_volume                     1642.1
_exptl_crystal_colour            'deep yellow'
_cell_formula_units_Z            1
loop_
_atom_site_label
_atom_site_type_symbol
_atom_site_fract_x
_atom_site_fract_y
_atom_site_fract_z
Ba1 Ba 0.01752 -0.12133 0.11241
O1 O -0.12870 -0.03550 0.14630
O2 O 0.15550 -0.08280 -0.04670
O3 O -0.52110 0.00650 -0.24640
O4 O -0.65390 -0.13810 -0.28000
O5 O -0.60390 -0.36750 -0.01420
O6 O -0.44590 -0.33620 0.11670
C1 C -0.30750 -0.06900 0.01620
C2 C -0.37640 -0.04360 -0.07630
C3 C -0.48590 -0.10520 -0.12820
C4 C -0.53110 -0.19450 -0.09180
C5 C -0.46080 -0.21770 -0.00040
C6 C -0.35060 -0.15870 0.05240
C7 C -0.18590 -0.00110 0.07550
N1 N -0.55950 -0.07730 -0.22720
N2 N -0.50710 -0.31520 0.03600
O7 O 0.13700 0.08990 0.20720
O8 O -0.12670 -0.23000 -0.15510
O9 O 0.31020 0.56450 0.60210
O10 O 0.47810 0.60270 0.70820
O11 O 0.60430 0.32530 0.66970
O12 O 0.50210 0.16520 0.51410
C8 C 0.26700 0.26180 0.35880
C9 C 0.28190 0.36650 0.43020
C10 C 0.37260 0.43190 0.54960
C11 C 0.45150 0.39900 0.59840
C12 C 0.43650 0.29650 0.52710
C13 C 0.34500 0.22670 0.40870
C14 C 0.16820 0.18690 0.22950
N3 N 0.38770 0.54230 0.62540
N4 N 0.52090 0.26030 0.57550
O13 O 0.11490 -0.28230 0.07050
C15 C 0.05730 -0.36680 -0.06370
C16 C -0.05400 -0.41350 -0.08740
O14 O -0.08540 -0.36700 0.02820
C17 C -0.19710 -0.40700 0.01920
C18 C -0.20180 -0.35800 0.16930
O15 O -0.15800 -0.24460 0.20810
C19 C -0.14050 -0.18540 0.36050
C20 C -0.03710 -0.17220 0.46270
O16 O 0.05050 -0.11560 0.41660
C21 C 0.15200 -0.10490 0.50210
C22 C 0.23740 -0.03970 0.44920
O17 O 0.22470 -0.09190 0.29690
C23 C 0.26800 -0.17080 0.27320
C24 C 0.23050 -0.23660 0.11320
C25 C 0.10300 -0.40290 -0.16840
C26 C 0.03450 -0.48850 -0.29860
C27 C -0.07430 -0.53390 -0.32250
C28 C -0.12020 -0.49710 -0.21550
H1 H -0.34600 0.02000 -0.10550
H2 H -0.61120 -0.23980 -0.13050
H3 H -0.30200 -0.18020 0.11620
H4 H 0.22690 0.39380 0.39470
H5 H 0.51850 0.44910 0.68410
H6 H 0.33500 0.15100 0.35910
H7 H -0.22770 -0.48670 -0.01120
H8 H -0.23900 -0.38650 -0.05450
H9 H -0.15810 -0.37720 0.24280
H10 H -0.27910 -0.38410 0.16990
H11 H -0.20260 -0.22440 0.39200
H12 H -0.13860 -0.11310 0.36860
H13 H -0.03760 -0.24370 0.45650
H14 H -0.02850 -0.13010 0.56770
H15 H 0.15350 -0.17690 0.48660
H16 H 0.16510 -0.06710 0.61060
H17 H 0.31090 -0.02730 0.51110
H18 H 0.23240 0.03060 0.46150
H19 H 0.24340 -0.21760 0.33090
H20 H 0.34930 -0.13480 0.30830
H21 H 0.25630 -0.19130 0.05440
H22 H 0.25830 -0.29450 0.09700
H23 H 0.18320 -0.36880 -0.15150
H24 H 0.06600 -0.51690 -0.37610
H25 H -0.12190 -0.59440 -0.41790
H26 H -0.20040 -0.53160 -0.23260
C7A C 0.18590 0.00110 -0.07550
O2A O -0.15550 0.08280 0.04670
C14A C -0.16820 -0.18690 -0.22950
O8A O 0.12670 0.23000 0.15510
O1A O 0.12870 0.03550 -0.14630
C1A C 0.30750 0.06900 -0.01620
Ba1A Ba -0.01752 0.12133 -0.11241
O7A O -0.13700 -0.08990 -0.20720
C8A C -0.26700 -0.26180 -0.35880
C2A C 0.37640 0.04360 0.07630
C6A C 0.35060 0.15870 -0.05240
O13A O -0.11490 0.28230 -0.07050
O14A O 0.08540 0.36700 -0.02820
O15A O 0.15800 0.24460 -0.20810
O16A O -0.05050 0.11560 -0.41660
O17A O -0.22470 0.09190 -0.29690
C9A C -0.28190 -0.36650 -0.43020
C13A C -0.34500 -0.22670 -0.40870
C3A C 0.48590 0.10520 0.12820
H1A H 0.34600 -0.02000 0.10550
C5A C 0.46080 0.21770 0.00040
H3A H 0.30200 0.18020 -0.11620
C15A C -0.05730 0.36680 0.06370
C24A C -0.23050 0.23660 -0.11320
C16A C 0.05400 0.41350 0.08740
C17A C 0.19710 0.40700 -0.01920
C18A C 0.20180 0.35800 -0.16930
C19A C 0.14050 0.18540 -0.36050
C20A C 0.03710 0.17220 -0.46270
C21A C -0.15200 0.10490 -0.50210
C22A C -0.23740 0.03970 -0.44920
C23A C -0.26800 0.17080 -0.27320
C10A C -0.37260 -0.43190 -0.54960
H4A H -0.22690 -0.39380 -0.39470
C12A C -0.43650 -0.29650 -0.52710
H6A H -0.33500 -0.15100 -0.35910
C4A C 0.53110 0.19450 0.09180
N1A N 0.55950 0.07730 0.22720
N2A N 0.50710 0.31520 -0.03600
C25A C -0.10300 0.40290 0.16840
H21A H -0.25630 0.19130 -0.05440
H22A H -0.25830 0.29450 -0.09700
C28A C 0.12020 0.49710 0.21550
H7A H 0.22770 0.48670 0.01120
H8A H 0.23900 0.38650 0.05450
H9A H 0.15810 0.37720 -0.24280
H10A H 0.27910 0.38410 -0.16990
H11A H 0.20260 0.22440 -0.39200
H12A H 0.13860 0.11310 -0.36860
H13A H 0.03760 0.24370 -0.45650
H14A H 0.02850 0.13010 -0.56770
H15A H -0.15350 0.17690 -0.48660
H16A H -0.16510 0.06710 -0.61060
H17A H -0.31090 0.02730 -0.51110
H18A H -0.23240 -0.03060 -0.46150
H19A H -0.24340 0.21760 -0.33090
H20A H -0.34930 0.13480 -0.30830
C11A C -0.45150 -0.39900 -0.59840
N3A N -0.38770 -0.54230 -0.62540
N4A N -0.52090 -0.26030 -0.57550
H2A H 0.61120 0.23980 0.13050
O3A O 0.52110 -0.00650 0.24640
O4A O 0.65390 0.13810 0.28000
O5A O 0.60390 0.36750 0.01420
O6A O 0.44590 0.33620 -0.11670
C26A C -0.03450 0.48850 0.29860
H23A H -0.18320 0.36880 0.15150
C27A C 0.07430 0.53390 0.32250
H26A H 0.20040 0.53160 0.23260
H5A H -0.51850 -0.44910 -0.68410
O9A O -0.31020 -0.56450 -0.60210
O10A O -0.47810 -0.60270 -0.70820
O11A O -0.60430 -0.32530 -0.66970
O12A O -0.50210 -0.16520 -0.51410
H24A H -0.06600 0.51690 0.37610
H25A H 0.12190 0.59440 0.41790
loop_
_geom_bond_atom_site_label_1
_geom_bond_atom_site_label_2
_geom_bond_site_symmetry_1
_geom_bond_site_symmetry_2
Ba1 O1 1_555 1_555
O1 C7 1_555 1_555
O2 Ba1 1_555 1_555
O3 N1 1_555 1_555
O4 N1 1_555 1_555
O5 N2 1_555 1_555
O6 N2 1_555 1_555
C1 C2 1_555 1_555
C2 C3 1_555 1_555
C3 C4 1_555 1_555
C4 C5 1_555 1_555
C5 C6 1_555 1_555
C6 C1 1_555 1_555
C7 C1 1_555 1_555
N1 C3 1_555 1_555
N2 C5 1_555 1_555
O7 Ba1 1_555 1_555
O8 Ba1 1_555 1_555
O9 N3 1_555 1_555
O10 N3 1_555 1_555
O11 N4 1_555 1_555
O12 N4 1_555 1_555
C8 C9 1_555 1_555
C9 C10 1_555 1_555
C10 C11 1_555 1_555
C11 C12 1_555 1_555
C12 C13 1_555 1_555
C13 C8 1_555 1_555
C14 O7 1_555 1_555
N3 C10 1_555 1_555
N4 C12 1_555 1_555
O13 Ba1 1_555 1_555
C15 O13 1_555 1_555
C16 C15 1_555 1_555
O14 Ba1 1_555 1_555
C17 O14 1_555 1_555
C18 C17 1_555 1_555
O15 Ba1 1_555 1_555
C19 O15 1_555 1_555
C20 C19 1_555 1_555
O16 Ba1 1_555 1_555
C21 O16 1_555 1_555
C22 C21 1_555 1_555
O17 Ba1 1_555 1_555
C23 O17 1_555 1_555
C24 O13 1_555 1_555
C25 C15 1_555 1_555
C26 C25 1_555 1_555
C27 C26 1_555 1_555
C28 C16 1_555 1_555
H1 C2 1_555 1_555
H2 C4 1_555 1_555
H3 C6 1_555 1_555
H4 C9 1_555 1_555
H5 C11 1_555 1_555
H6 C13 1_555 1_555
H7 C17 1_555 1_555
H8 C17 1_555 1_555
H9 C18 1_555 1_555
H10 C18 1_555 1_555
H11 C19 1_555 1_555
H12 C19 1_555 1_555
H13 C20 1_555 1_555
H14 C20 1_555 1_555
H15 C21 1_555 1_555
H16 C21 1_555 1_555
H17 C22 1_555 1_555
H18 C22 1_555 1_555
H19 C23 1_555 1_555
H20 C23 1_555 1_555
H21 C24 1_555 1_555
H22 C24 1_555 1_555
H23 C25 1_555 1_555
H24 C26 1_555 1_555
H25 C27 1_555 1_555
H26 C28 1_555 1_555
C7A O2 1_555 1_555
O2A C7 1_555 1_555
C14A O8 1_555 1_555
O8A C14 1_555 1_555
O1A C7A 1_555 1_555
C1A C7A 1_555 1_555
Ba1A O2A 1_555 1_555
O7A C14A 1_555 1_555
C8A C14A 1_555 1_555
C2A C1A 1_555 1_555
C6A C1A 1_555 1_555
O13A Ba1A 1_555 1_555
O14A Ba1A 1_555 1_555
O15A Ba1A 1_555 1_555
O16A Ba1A 1_555 1_555
O17A Ba1A 1_555 1_555
C9A C8A 1_555 1_555
C13A C8A 1_555 1_555
C3A C2A 1_555 1_555
H1A C2A 1_555 1_555
C5A C6A 1_555 1_555
H3A C6A 1_555 1_555
C15A O13A 1_555 1_555
C24A O13A 1_555 1_555
C16A O14A 1_555 1_555
C17A O14A 1_555 1_555
C18A O15A 1_555 1_555
C19A O15A 1_555 1_555
C20A O16A 1_555 1_555
C21A O16A 1_555 1_555
C22A O17A 1_555 1_555
C23A O17A 1_555 1_555
C10A C9A 1_555 1_555
H4A C9A 1_555 1_555
C12A C13A 1_555 1_555
H6A C13A 1_555 1_555
C4A C3A 1_555 1_555
N1A C3A 1_555 1_555
N2A C5A 1_555 1_555
C25A C15A 1_555 1_555
H21A C24A 1_555 1_555
H22A C24A 1_555 1_555
C28A C16A 1_555 1_555
H7A C17A 1_555 1_555
H8A C17A 1_555 1_555
H9A C18A 1_555 1_555
H10A C18A 1_555 1_555
H11A C19A 1_555 1_555
H12A C19A 1_555 1_555
H13A C20A 1_555 1_555
H14A C20A 1_555 1_555
H15A C21A 1_555 1_555
H16A C21A 1_555 1_555
H17A C22A 1_555 1_555
H18A C22A 1_555 1_555
H19A C23A 1_555 1_555
H20A C23A 1_555 1_555
C11A C10A 1_555 1_555
N3A C10A 1_555 1_555
N4A C12A 1_555 1_555
H2A C4A 1_555 1_555
O3A N1A 1_555 1_555
O4A N1A 1_555 1_555
O5A N2A 1_555 1_555
O6A N2A 1_555 1_555
C26A C25A 1_555 1_555
H23A C25A 1_555 1_555
C27A C28A 1_555 1_555
H26A C28A 1_555 1_555
H5A C11A 1_555 1_555
O9A N3A 1_555 1_555
O10A N3A 1_555 1_555
O11A N4A 1_555 1_555
O12A N4A 1_555 1_555
H24A C26A 1_555 1_555
H25A C27A 1_555 1_555
C8 C14 1_555 1_555
C16 O14 1_555 1_555
C18 O15 1_555 1_555
C20 O16 1_555 1_555
C22 O17 1_555 1_555
C23 C24 1_555 1_555
C27 C28 1_555 1_555
O8A Ba1A 1_555 1_555
O1A Ba1A 1_555 1_555
Ba1A O7A 1_555 1_555
C5A C4A 1_555 1_555
C15A C16A 1_555 1_555
C24A C23A 1_555 1_555
C17A C18A 1_555 1_555
C19A C20A 1_555 1_555
C21A C22A 1_555 1_555
C12A C11A 1_555 1_555
C26A C27A 1_555 1_555

#END
