
#######################################################################
#
#                 Cambridge Crystallographic Data Centre
#                                CCDC 
#
#######################################################################
#
# If this CIF has been generated from an entry in the Cambridge 
# Structural Database, then it will include bibliographic, chemical, 
# crystal, experimental, refinement or atomic coordinate data resulting 
# from the CCDC's data processing and validation procedures.
#
#######################################################################

data_CIHPIU
_chemical_formula_moiety         'C30 H18 Br1 N1 O3'
_chemical_name_systematic        
'2-(4-Cyano-2,5-diphenyl-3-furyl)phenyl 4-bromobenzoate'
_symmetry_cell_setting           monoclinic
_symmetry_space_group_name_H-M   'P 21/a'
_symmetry_Int_Tables_number      14
_space_group_name_Hall           '-P 2yab'
loop_
_symmetry_equiv_pos_site_id
_symmetry_equiv_pos_as_xyz
1 x,y,z
2 1/2-x,1/2+y,-z
3 -x,-y,-z
4 1/2+x,1/2-y,z
_cell_length_a                   16.8022(2)
_cell_length_b                   14.5818(2)
_cell_length_c                   19.7887(3)
_cell_angle_alpha                90
_cell_angle_beta                 93.4140(10)
_cell_angle_gamma                90
_cell_volume                     4839.75
_exptl_crystal_colour            colorless
_exptl_crystal_description       prism
_cell_formula_units_Z            8
loop_
_atom_site_label
_atom_site_type_symbol
_atom_site_fract_x
_atom_site_fract_y
_atom_site_fract_z
Br1 Br 0.60975(4) 0.18450(6) 0.33983(4)
O1 O 0.7102(3) 0.3768(3) 0.0403(2)
O2 O 0.6244(2) 0.4805(2) 0.07676(18)
O3 O 0.8190(2) 0.6949(2) 0.15467(18)
N1 N 0.5457(4) 0.6340(4) 0.1799(3)
C1 C 0.6662(3) 0.4009(4) 0.0823(3)
C2 C 0.6489(3) 0.3502(4) 0.1446(3)
C3 C 0.6841(4) 0.2650(4) 0.1550(3)
H1 H 0.7170 0.2416 0.1231
C4 C 0.6708(4) 0.2144(4) 0.2122(3)
H2 H 0.6938 0.1569 0.2189
C5 C 0.6227(3) 0.2515(4) 0.2587(3)
C6 C 0.5873(3) 0.3351(4) 0.2497(3)
H3 H 0.5546 0.3582 0.2819
C7 C 0.6005(3) 0.3846(4) 0.1927(3)
H4 H 0.5767 0.4418 0.1862
C8 C 0.6304(3) 0.5328(4) 0.0177(3)
C9 C 0.5895(3) 0.5063(4) -0.0417(3)
H5 H 0.5601 0.4522 -0.0432
C10 C 0.5925(3) 0.5601(5) -0.0988(3)
H6 H 0.5659 0.5419 -0.1392
C11 C 0.6347(4) 0.6404(5) -0.0957(3)
H7 H 0.6368 0.6768 -0.1342
C12 C 0.6742(3) 0.6679(4) -0.0361(3)
H8 H 0.7015 0.7234 -0.0346
C13 C 0.6739(3) 0.6135(4) 0.0224(2)
C14 C 0.7202(3) 0.6425(4) 0.0844(2)
C15 C 0.7977(3) 0.6674(3) 0.0896(2)
C16 C 0.8627(3) 0.6704(4) 0.0435(3)
C17 C 0.8691(4) 0.6049(4) -0.0068(3)
H9 H 0.8315 0.5582 -0.0119
C18 C 0.9311(4) 0.6091(5) -0.0490(3)
H10 H 0.9348 0.5655 -0.0830
C19 C 0.9869(4) 0.6763(5) -0.0417(3)
H11 H 1.0286 0.6783 -0.0705
C20 C 0.9822(4) 0.7408(5) 0.0077(3)
H12 H 1.0205 0.7868 0.0123
C21 C 0.9204(3) 0.7381(4) 0.0512(3)
H13 H 0.9178 0.7816 0.0854
C22 C 0.6918(3) 0.6546(4) 0.1518(3)
C23 C 0.6115(4) 0.6429(4) 0.1690(3)
C24 C 0.7545(4) 0.6861(4) 0.1927(3)
C25 C 0.7683(4) 0.7092(4) 0.2638(3)
C26 C 0.8400(5) 0.7476(5) 0.2871(3)
H14 H 0.8795 0.7588 0.2571
C27 C 0.8530(6) 0.7694(5) 0.3551(4)
H15 H 0.9012 0.7953 0.3708
C28 C 0.7950(7) 0.7526(5) 0.3989(3)
H16 H 0.8040 0.7669 0.4446
C29 C 0.7243(6) 0.7152(6) 0.3765(4)
H17 H 0.6850 0.7044 0.4068
C30 C 0.7105(5) 0.6932(5) 0.3098(3)
H18 H 0.6620 0.6672 0.2950
Br2 Br 0.86793(6) 0.47192(6) 0.16142(4)
O4 O 0.7792(3) 0.2351(3) 0.4484(2)
O5 O 0.8818(2) 0.1558(3) 0.40958(18)
O6 O 0.6655(2) -0.0498(3) 0.35321(18)
N2 N 0.9229(3) 0.0206(4) 0.2858(3)
C31 C 0.8262(3) 0.2237(4) 0.4061(3)
C32 C 0.8335(3) 0.2806(4) 0.3447(3)
C33 C 0.7856(3) 0.3565(4) 0.3337(3)
H19 H 0.7461 0.3691 0.3634
C34 C 0.7951(4) 0.4136(4) 0.2800(3)
H20 H 0.7629 0.4651 0.2732
C35 C 0.8531(4) 0.3933(4) 0.2362(3)
C36 C 0.9010(4) 0.3177(4) 0.2444(3)
H21 H 0.9390 0.3046 0.2136
C37 C 0.8916(3) 0.2617(4) 0.2993(3)
H22 H 0.9244 0.2107 0.3062
C38 C 0.8844(3) 0.0975(4) 0.4659(3)
C39 C 0.9401(4) 0.1164(5) 0.5186(3)
H23 H 0.9724 0.1680 0.5172
C40 C 0.9467(4) 0.0578(6) 0.5727(3)
H24 H 0.9827 0.0702 0.6090
C41 C 0.8999(4) -0.0193(5) 0.5733(3)
H25 H 0.9053 -0.0595 0.6098
C42 C 0.8454(3) -0.0381(4) 0.5206(3)
H26 H 0.8141 -0.0906 0.5220
C43 C 0.8365(3) 0.0207(4) 0.4653(3)
C44 C 0.7775(3) -0.0003(4) 0.4093(3)
C45 C 0.7001(3) -0.0263(4) 0.4159(3)
C46 C 0.6494(3) -0.0318(4) 0.4729(3)
C47 C 0.6569(3) 0.0330(4) 0.5244(3)
H27 H 0.6936 0.0805 0.5219
C48 C 0.6103(4) 0.0270(5) 0.5791(3)
H28 H 0.6167 0.0697 0.6139
C49 C 0.5545(4) -0.0411(5) 0.5828(3)
H29 H 0.5227 -0.0438 0.6197
C50 C 0.5454(4) -0.1060(5) 0.5315(4)
H30 H 0.5076 -0.1523 0.5338
C51 C 0.5932(3) -0.1013(4) 0.4769(3)
H31 H 0.5876 -0.1449 0.4427
C52 C 0.7902(3) -0.0090(4) 0.3382(3)
C53 C 0.8635(4) 0.0081(4) 0.3082(3)
C54 C 0.7208(3) -0.0395(4) 0.3059(3)
C55 C 0.6958(4) -0.0634(4) 0.2366(3)
C56 C 0.6175(4) -0.0887(5) 0.2203(3)
H32 H 0.5807 -0.0886 0.2536
C57 C 0.5937(5) -0.1141(5) 0.1550(4)
H33 H 0.5411 -0.1311 0.1446
C58 C 0.6470(5) -0.1145(5) 0.1056(3)
H34 H 0.6311 -0.1326 0.0618
C59 C 0.7236(5) -0.0883(5) 0.1210(3)
H35 H 0.7597 -0.0873 0.0871
C60 C 0.7486(4) -0.0631(5) 0.1860(3)
H36 H 0.8014 -0.0459 0.1957
loop_
_geom_bond_atom_site_label_1
_geom_bond_atom_site_label_2
_geom_bond_site_symmetry_1
_geom_bond_site_symmetry_2
Br1 C5 1_555 1_555
O1 C1 1_555 1_555
O2 C1 1_555 1_555
O3 C15 1_555 1_555
N1 C23 1_555 1_555
C1 C2 1_555 1_555
C2 C3 1_555 1_555
C3 H1 1_555 1_555
C4 C3 1_555 1_555
H2 C4 1_555 1_555
C5 C4 1_555 1_555
C6 C5 1_555 1_555
H3 C6 1_555 1_555
C7 C2 1_555 1_555
H4 C7 1_555 1_555
C8 O2 1_555 1_555
C9 C8 1_555 1_555
H5 C9 1_555 1_555
C10 C9 1_555 1_555
H6 C10 1_555 1_555
C11 C10 1_555 1_555
H7 C11 1_555 1_555
C12 C11 1_555 1_555
H8 C12 1_555 1_555
C13 C8 1_555 1_555
C14 C13 1_555 1_555
C15 C14 1_555 1_555
C16 C15 1_555 1_555
C17 C16 1_555 1_555
H9 C17 1_555 1_555
C18 C17 1_555 1_555
H10 C18 1_555 1_555
C19 C18 1_555 1_555
H11 C19 1_555 1_555
C20 C19 1_555 1_555
H12 C20 1_555 1_555
C21 C16 1_555 1_555
H13 C21 1_555 1_555
C22 C14 1_555 1_555
C23 C22 1_555 1_555
C24 O3 1_555 1_555
C25 C24 1_555 1_555
C26 C25 1_555 1_555
H14 C26 1_555 1_555
C27 C26 1_555 1_555
H15 C27 1_555 1_555
C28 C27 1_555 1_555
H16 C28 1_555 1_555
C29 C28 1_555 1_555
H17 C29 1_555 1_555
C30 C25 1_555 1_555
H18 C30 1_555 1_555
Br2 C35 1_555 1_555
O4 C31 1_555 1_555
O5 C31 1_555 1_555
O6 C45 1_555 1_555
N2 C53 1_555 1_555
C31 C32 1_555 1_555
C32 C33 1_555 1_555
C33 H19 1_555 1_555
C34 C33 1_555 1_555
H20 C34 1_555 1_555
C35 C34 1_555 1_555
C36 C35 1_555 1_555
H21 C36 1_555 1_555
C37 C32 1_555 1_555
H22 C37 1_555 1_555
C38 O5 1_555 1_555
C39 C38 1_555 1_555
H23 C39 1_555 1_555
C40 C39 1_555 1_555
H24 C40 1_555 1_555
C41 C40 1_555 1_555
H25 C41 1_555 1_555
C42 C41 1_555 1_555
H26 C42 1_555 1_555
C43 C38 1_555 1_555
C44 C43 1_555 1_555
C45 C44 1_555 1_555
C46 C45 1_555 1_555
C47 C46 1_555 1_555
H27 C47 1_555 1_555
C48 C47 1_555 1_555
H28 C48 1_555 1_555
C49 C48 1_555 1_555
H29 C49 1_555 1_555
C50 C49 1_555 1_555
H30 C50 1_555 1_555
C51 C46 1_555 1_555
H31 C51 1_555 1_555
C52 C44 1_555 1_555
C53 C52 1_555 1_555
C54 O6 1_555 1_555
C55 C54 1_555 1_555
C56 C55 1_555 1_555
H32 C56 1_555 1_555
C57 C56 1_555 1_555
H33 C57 1_555 1_555
C58 C57 1_555 1_555
H34 C58 1_555 1_555
C59 C58 1_555 1_555
H35 C59 1_555 1_555
C60 C55 1_555 1_555
H36 C60 1_555 1_555
C6 C7 1_555 1_555
C12 C13 1_555 1_555
C20 C21 1_555 1_555
C22 C24 1_555 1_555
C29 C30 1_555 1_555
C36 C37 1_555 1_555
C42 C43 1_555 1_555
C50 C51 1_555 1_555
C52 C54 1_555 1_555
C59 C60 1_555 1_555

#END
