
#######################################################################
#
#                 Cambridge Crystallographic Data Centre
#                                CCDC 
#
#######################################################################
#
# If this CIF has been generated from an entry in the Cambridge 
# Structural Database, then it will include bibliographic, chemical, 
# crystal, experimental, refinement or atomic coordinate data resulting 
# from the CCDC's data processing and validation procedures.
#
#######################################################################

data_CIHPAM
_chemical_formula_moiety         'C28 H22 Br1 N1 O3'
_chemical_name_systematic        
'2-(2-(4-Bromophenyl)-1-benzofuran-3-yl)-2-cyano-1-phenylvinyl pivalate'
_symmetry_cell_setting           triclinic
_symmetry_space_group_name_H-M   'P -1'
_symmetry_Int_Tables_number      2
_space_group_name_Hall           '-P 1'
loop_
_symmetry_equiv_pos_site_id
_symmetry_equiv_pos_as_xyz
1 x,y,z
2 -x,-y,-z
_cell_length_a                   12.4196(15)
_cell_length_b                   13.915(2)
_cell_length_c                   17.027(2)
_cell_angle_alpha                67.414(12)
_cell_angle_beta                 89.449(9)
_cell_angle_gamma                67.009(8)
_cell_volume                     2466.73
_exptl_crystal_colour            colorless
_exptl_crystal_description       prism
_cell_formula_units_Z            4
loop_
_atom_site_label
_atom_site_type_symbol
_atom_site_fract_x
_atom_site_fract_y
_atom_site_fract_z
C1 C 1.1926(6) 0.6421(7) 0.4905(5)
C2 C 1.1600(7) 0.6985(7) 0.5443(5)
H1 H 1.2150 0.7171 0.5669
C3 C 1.0473(7) 0.7276(7) 0.5649(5)
H2 H 1.0249 0.7669 0.6015
C4 C 0.9673(7) 0.7004(6) 0.5333(5)
C5 C 0.9992(7) 0.6444(7) 0.4784(5)
H3 H 0.9444 0.6261 0.4553
C6 C 1.1133(7) 0.6161(7) 0.4582(5)
H4 H 1.1361 0.5777 0.4211
C7 C 0.8445(7) 0.7368(7) 0.5513(5)
C8 C 0.7741(6) 0.8212(7) 0.5754(4)
C9 C 0.6614(6) 0.8129(7) 0.5819(5)
C10 C 0.5561(7) 0.8734(8) 0.6032(5)
H5 H 0.5475 0.9350 0.6179
C11 C 0.4641(8) 0.8417(9) 0.6025(6)
H6 H 0.3902 0.8831 0.6154
C12 C 0.4795(8) 0.7486(11) 0.5828(6)
H7 H 0.4151 0.7277 0.5836
C13 C 0.5839(9) 0.6858(9) 0.5624(6)
H8 H 0.5936 0.6226 0.5494
C14 C 0.6739(7) 0.7218(8) 0.5621(5)
C15 C 0.8042(6) 0.9059(7) 0.5877(5)
C16 C 0.8266(6) 0.9850(8) 0.5131(5)
C17 C 0.8074(6) 0.9127(7) 0.6653(5)
C18 C 0.8452(6) 0.9862(7) 0.6899(5)
C19 C 0.9271(7) 1.0241(7) 0.6531(5)
H9 H 0.9608 1.0033 0.6086
C20 C 0.9627(7) 1.0913(7) 0.6783(5)
H10 H 1.0184 1.1182 0.6507
C21 C 0.9166(8) 1.1186(8) 0.7435(6)
H11 H 0.9413 1.1640 0.7622
C22 C 0.8334(9) 1.0806(8) 0.7833(6)
H12 H 0.8013 1.1008 0.8284
C23 C 0.7979(7) 1.0143(8) 0.7575(5)
H13 H 0.7419 0.9876 0.7849
C24 C 0.8580(10) 0.7337(9) 0.7801(5)
C25 C 0.8125(9) 0.6615(9) 0.8504(6)
C26 C 0.7256(10) 0.6369(10) 0.8090(7)
H14 H 0.6554 0.7085 0.7772
H15 H 0.7019 0.5829 0.8537
H16 H 0.7628 0.6035 0.7691
C27 C 0.9158(12) 0.5463(12) 0.9015(8)
H17 H 0.9502 0.5098 0.8626
H18 H 0.8875 0.4969 0.9463
H19 H 0.9763 0.5580 0.9284
C28 C 0.788(3) 0.702(2) 0.9154(15)
H20 H 0.7586 0.6532 0.9605
H21 H 0.7269 0.7808 0.8908
H22 H 0.8600 0.6990 0.9405
O1 O 0.7847(5) 0.6745(5) 0.5428(3)
O2 O 0.7709(4) 0.8409(5) 0.7296(3)
O3 O 0.9576(6) 0.7084(6) 0.7666(4)
Br1 Br 1.34551(8) 0.60824(9) 0.46037(6)
N1 N 0.8405(5) 1.0480(6) 0.4501(5)
C30 C 0.6958(7) 0.6374(7) 1.2353(6)
C31 C 0.6651(7) 0.6927(7) 1.1480(5)
H26 H 0.7220 0.7088 1.1139
C32 C 0.5540(7) 0.7251(7) 1.1088(5)
H27 H 0.5342 0.7633 1.0477
C33 C 0.4686(7) 0.7024(6) 1.1581(5)
C34 C 0.5022(8) 0.6429(7) 1.2477(5)
H28 H 0.4468 0.6235 1.2820
C35 C 0.6123(9) 0.6125(8) 1.2864(5)
H29 H 0.6331 0.5746 1.3474
C36 C 0.3490(7) 0.7365(7) 1.1177(5)
C37 C 0.2838(7) 0.8160(7) 1.0413(5)
C38 C 0.1686(7) 0.8113(8) 1.0399(6)
C39 C 0.0621(8) 0.8730(8) 0.9790(6)
H30 H 0.0553 0.9314 0.9242
C40 C -0.0312(8) 0.8437(10) 1.0034(8)
H31 H -0.1045 0.8824 0.9652
C41 C -0.0180(10) 0.7586(11) 1.0830(10)
H32 H -0.0833 0.7392 1.0964
C42 C 0.0842(10) 0.6977(9) 1.1463(8)
H33 H 0.0896 0.6423 1.2022
C43 C 0.1761(8) 0.7276(8) 1.1178(6)
C44 C 0.3151(6) 0.9011(7) 0.9713(5)
C45 C 0.3336(7) 0.9844(7) 0.9944(5)
C46 C 0.3163(6) 0.9092(7) 0.8898(5)
C47 C 0.3502(7) 0.9840(7) 0.8177(5)
C48 C 0.4326(7) 1.0224(7) 0.8286(5)
H34 H 0.4704 0.9992 0.8851
C49 C 0.4615(7) 1.0946(8) 0.7585(6)
H35 H 0.5197 1.1195 0.7674
C50 C 0.4072(9) 1.1306(8) 0.6766(6)
H36 H 0.4259 1.1816 0.6287
C51 C 0.3236(9) 1.0910(9) 0.6642(6)
H37 H 0.2863 1.1139 0.6076
C52 C 0.2958(7) 1.0195(7) 0.7337(5)
H38 H 0.2386 0.9934 0.7249
C53 C 0.3648(8) 0.7301(8) 0.8839(5)
C54 C 0.3172(8) 0.6616(8) 0.8559(5)
C55 C 0.273(3) 0.599(3) 0.9310(13)
H39 H 0.2097 0.6542 0.9468
H40 H 0.3379 0.5488 0.9799
H41 H 0.2413 0.5528 0.9158
C56 C 0.4043(12) 0.5766(10) 0.8402(8)
H42 H 0.3690 0.5350 0.8221
H43 H 0.4625 0.5234 0.8929
H44 H 0.4437 0.6106 0.7945
C57 C 0.2273(11) 0.7385(10) 0.7731(7)
H45 H 0.1621 0.7993 0.7822
H46 H 0.1960 0.6928 0.7568
H47 H 0.2659 0.7728 0.7268
O4 O 0.2875(5) 0.6784(5) 1.1677(4)
O5 O 0.2790(5) 0.8352(5) 0.8723(3)
O6 O 0.4626(6) 0.7010(6) 0.9143(5)
Br2 Br 0.85041(9) 0.59436(11) 1.28975(7)
N2 N 0.3450(6) 1.0485(7) 1.0168(4)
C29? C 0.711(4) 0.745(3) 0.887(2)
H23? H 0.6813 0.6989 0.9334
H24? H 0.6456 0.8036 0.8405
H25? H 0.7469 0.7827 0.9104
C58? C 0.215(6) 0.650(6) 0.908(3)
H48? H 0.1635 0.7250 0.9071
H49? H 0.2489 0.5945 0.9675
H50? H 0.1684 0.6244 0.8813
loop_
_geom_bond_atom_site_label_1
_geom_bond_atom_site_label_2
_geom_bond_site_symmetry_1
_geom_bond_site_symmetry_2
C1 C2 1_555 1_555
C2 H1 1_555 1_555
C3 C2 1_555 1_555
H2 C3 1_555 1_555
C4 C3 1_555 1_555
C5 C4 1_555 1_555
H3 C5 1_555 1_555
C6 C1 1_555 1_555
H4 C6 1_555 1_555
C7 C4 1_555 1_555
C8 C7 1_555 1_555
C9 C8 1_555 1_555
C10 C9 1_555 1_555
H5 C10 1_555 1_555
C11 C10 1_555 1_555
H6 C11 1_555 1_555
C12 C11 1_555 1_555
H7 C12 1_555 1_555
C13 C12 1_555 1_555
H8 C13 1_555 1_555
C14 C9 1_555 1_555
C15 C8 1_555 1_555
C16 C15 1_555 1_555
C17 C15 1_555 1_555
C18 C17 1_555 1_555
C19 C18 1_555 1_555
H9 C19 1_555 1_555
C20 C19 1_555 1_555
H10 C20 1_555 1_555
C21 C20 1_555 1_555
H11 C21 1_555 1_555
C22 C21 1_555 1_555
H12 C22 1_555 1_555
C23 C18 1_555 1_555
H13 C23 1_555 1_555
C24 C25 1_555 1_555
C25 C26 1_555 1_555
C26 H14 1_555 1_555
H15 C26 1_555 1_555
H16 C26 1_555 1_555
C27 C25 1_555 1_555
H17 C27 1_555 1_555
H18 C27 1_555 1_555
H19 C27 1_555 1_555
C28 C25 1_555 1_555
H20 C28 1_555 1_555
H21 C28 1_555 1_555
H22 C28 1_555 1_555
O1 C7 1_555 1_555
O2 C17 1_555 1_555
O3 C24 1_555 1_555
Br1 C1 1_555 1_555
N1 C16 1_555 1_555
C30 C31 1_555 1_555
C31 H26 1_555 1_555
C32 C31 1_555 1_555
H27 C32 1_555 1_555
C33 C32 1_555 1_555
C34 C33 1_555 1_555
H28 C34 1_555 1_555
C35 C30 1_555 1_555
H29 C35 1_555 1_555
C36 C33 1_555 1_555
C37 C36 1_555 1_555
C38 C37 1_555 1_555
C39 C38 1_555 1_555
H30 C39 1_555 1_555
C40 C39 1_555 1_555
H31 C40 1_555 1_555
C41 C40 1_555 1_555
H32 C41 1_555 1_555
C42 C41 1_555 1_555
H33 C42 1_555 1_555
C43 C38 1_555 1_555
C44 C37 1_555 1_555
C45 C44 1_555 1_555
C46 C44 1_555 1_555
C47 C46 1_555 1_555
C48 C47 1_555 1_555
H34 C48 1_555 1_555
C49 C48 1_555 1_555
H35 C49 1_555 1_555
C50 C49 1_555 1_555
H36 C50 1_555 1_555
C51 C50 1_555 1_555
H37 C51 1_555 1_555
C52 C47 1_555 1_555
H38 C52 1_555 1_555
C53 C54 1_555 1_555
C54 C55 1_555 1_555
C55 H39 1_555 1_555
H40 C55 1_555 1_555
H41 C55 1_555 1_555
C56 C54 1_555 1_555
H42 C56 1_555 1_555
H43 C56 1_555 1_555
H44 C56 1_555 1_555
C57 C54 1_555 1_555
H45 C57 1_555 1_555
H46 C57 1_555 1_555
H47 C57 1_555 1_555
O4 C36 1_555 1_555
O5 C46 1_555 1_555
O6 C53 1_555 1_555
Br2 C30 1_555 1_555
N2 C45 1_555 1_555
C5 C6 1_555 1_555
C13 C14 1_555 1_555
C14 O1 1_555 1_555
C22 C23 1_555 1_555
C24 O2 1_555 1_555
C34 C35 1_555 1_555
C42 C43 1_555 1_555
C43 O4 1_555 1_555
C51 C52 1_555 1_555
C53 O5 1_555 1_555

#END
