
#######################################################################
#
#                 Cambridge Crystallographic Data Centre
#                                CCDC 
#
#######################################################################
#
# If this CIF has been generated from an entry in the Cambridge 
# Structural Database, then it will include bibliographic, chemical, 
# crystal, experimental, refinement or atomic coordinate data resulting 
# from the CCDC's data processing and validation procedures.
#
#######################################################################

data_CIHPEQ
_chemical_formula_moiety         'C35 H41 Br1 N1 O3 P1,C1 H1 Cl3'
_chemical_name_systematic        
'3-(2-((4-Bromobenzoyl)oxy)phenyl)-2-cyano-1-phenyl-3-(tributylphosphonio)prop-1-en-1-olate chloroform solvate'
_symmetry_cell_setting           monoclinic
_symmetry_space_group_name_H-M   'P 21/c'
_symmetry_Int_Tables_number      14
_space_group_name_Hall           '-P 2ybc'
loop_
_symmetry_equiv_pos_site_id
_symmetry_equiv_pos_as_xyz
1 x,y,z
2 -x,1/2+y,1/2-z
3 -x,-y,-z
4 x,1/2-y,1/2+z
_cell_length_a                   8.8458(2)
_cell_length_b                   27.2982(6)
_cell_length_c                   15.4284(3)
_cell_angle_alpha                90
_cell_angle_beta                 92.0790(10)
_cell_angle_gamma                90
_cell_volume                     3723.11
_exptl_crystal_colour            colorless
_exptl_crystal_description       prism
_cell_formula_units_Z            4
loop_
_atom_site_label
_atom_site_type_symbol
_atom_site_fract_x
_atom_site_fract_y
_atom_site_fract_z
C1 C 0.7544(7) 0.1609(2) 0.1552(4)
C2 C 0.7502(6) 0.1164(2) 0.0992(4)
C3 C 0.8341(7) 0.1175(2) 0.0246(4)
H1 H 0.8873 0.1464 0.0101
C4 C 0.8407(7) 0.0771(2) -0.0284(4)
H2 H 0.8996 0.0779 -0.0787
C5 C 0.7614(7) 0.0355(2) -0.0080(4)
C6 C 0.6722(8) 0.0341(2) 0.0646(4)
H3 H 0.6144 0.0058 0.0771
C7 C 0.6694(7) 0.0744(2) 0.1175(4)
H4 H 0.6107 0.0735 0.1678
C8 C 0.6800(6) 0.1906(2) 0.2913(4)
C9 C 0.8064(7) 0.2035(3) 0.3408(4)
H5 H 0.8994 0.1868 0.3338
C10 C 0.7973(7) 0.2405(3) 0.4005(4)
H6 H 0.8838 0.2494 0.4353
C11 C 0.6628(7) 0.2649(2) 0.4098(4)
H7 H 0.6562 0.2909 0.4504
C12 C 0.5363(6) 0.2511(2) 0.3591(4)
H8 H 0.4438 0.2682 0.3652
C13 C 0.5425(6) 0.2128(2) 0.2999(3)
C14 C 0.4034(6) 0.1937(2) 0.2489(3)
H9 H 0.4427 0.1662 0.2133
C15 C 0.2175(6) 0.1979(2) 0.0912(3)
H10 H 0.1513 0.1751 0.1222
H11 H 0.1517 0.2189 0.0536
C16 C 0.3213(7) 0.1680(2) 0.0338(4)
H12 H 0.3987 0.1901 0.0103
H13 H 0.3746 0.1430 0.0700
C17 C 0.2389(8) 0.1429(2) -0.0403(4)
H14 H 0.1837 0.1677 -0.0761
H15 H 0.1635 0.1200 -0.0172
C18 C 0.3458(9) 0.1147(3) -0.0971(5)
H16 H 0.2878 0.0989 -0.1446
H17 H 0.3991 0.0897 -0.0622
H18 H 0.4195 0.1374 -0.1209
C19 C 0.4556(7) 0.2701(2) 0.1110(4)
H19 H 0.5423 0.2482 0.1009
H20 H 0.4101 0.2788 0.0535
C20 C 0.5164(8) 0.3168(2) 0.1533(4)
H21 H 0.5689 0.3086 0.2092
H22 H 0.4311 0.3389 0.1654
C21 C 0.6271(8) 0.3431(3) 0.0941(5)
H23 H 0.6821 0.3684 0.1287
H24 H 0.7027 0.3190 0.0751
C22 C 0.5555(9) 0.3672(3) 0.0145(5)
H25 H 0.6342 0.3828 -0.0190
H26 H 0.4827 0.3920 0.0323
H27 H 0.5031 0.3424 -0.0213
C23 C 0.1866(6) 0.2777(2) 0.2180(4)
H28 H 0.1163 0.2587 0.2534
H29 H 0.2442 0.3000 0.2574
C24 C 0.0942(7) 0.3083(2) 0.1522(4)
H30 H 0.1611 0.3193 0.1060
H31 H 0.0141 0.2875 0.1250
C25 C 0.0221(8) 0.3525(3) 0.1926(5)
H32 H -0.0374 0.3705 0.1473
H33 H 0.1025 0.3747 0.2156
C26 C -0.0798(10) 0.3390(4) 0.2647(5)
H34 H -0.1218 0.3688 0.2896
H35 H -0.0216 0.3211 0.3097
H36 H -0.1623 0.3182 0.2417
C27 C 0.2821(6) 0.1703(2) 0.3025(3)
C28 C 0.2246(6) 0.1966(2) 0.3725(4)
C29 C 0.2325(6) 0.1227(2) 0.2794(3)
C30 C 0.1146(6) 0.0973(2) 0.3295(4)
C31 C -0.0011(7) 0.0733(2) 0.2842(4)
H37 H -0.0037 0.0735 0.2226
C32 C -0.1127(7) 0.0493(3) 0.3276(5)
H38 H -0.1931 0.0338 0.2956
C33 C -0.1085(8) 0.0474(3) 0.4171(5)
H39 H -0.1851 0.0306 0.4469
C34 C 0.0072(8) 0.0700(2) 0.4620(5)
H40 H 0.0127 0.0682 0.5236
C35 C 0.1163(7) 0.0955(2) 0.4192(4)
H41 H 0.1938 0.1122 0.4517
Br1 Br 0.77033(9) -0.02053(3) -0.08033(4)
N1 N 0.1821(5) 0.2200(2) 0.4290(3)
O1 O 0.6891(4) 0.15087(15) 0.2323(3)
O2 O 0.8061(6) 0.19923(19) 0.1359(3)
O3 O 0.2836(5) 0.09987(15) 0.2145(3)
P1 P 0.31692(16) 0.23590(6) 0.16942(9)
C36 C 0.3739(7) -0.0027(3) 0.3029(4)
H42 H 0.3414 0.0243 0.2626
Cl1 Cl 0.4690(3) 0.02304(11) 0.3906(2)
Cl2 Cl 0.2134(3) -0.03283(8) 0.33523(17)
Cl3 Cl 0.4923(3) -0.04150(9) 0.24789(16)
loop_
_geom_bond_atom_site_label_1
_geom_bond_atom_site_label_2
_geom_bond_site_symmetry_1
_geom_bond_site_symmetry_2
C1 C2 1_555 1_555
C2 C3 1_555 1_555
C3 H1 1_555 1_555
C4 C3 1_555 1_555
H2 C4 1_555 1_555
C5 C4 1_555 1_555
C6 C5 1_555 1_555
H3 C6 1_555 1_555
C7 C2 1_555 1_555
H4 C7 1_555 1_555
C8 C9 1_555 1_555
C9 H5 1_555 1_555
C10 C9 1_555 1_555
H6 C10 1_555 1_555
C11 C10 1_555 1_555
H7 C11 1_555 1_555
C12 C11 1_555 1_555
H8 C12 1_555 1_555
C13 C8 1_555 1_555
C14 C13 1_555 1_555
H9 C14 1_555 1_555
C15 H10 1_555 1_555
H11 C15 1_555 1_555
C16 C15 1_555 1_555
H12 C16 1_555 1_555
H13 C16 1_555 1_555
C17 C16 1_555 1_555
H14 C17 1_555 1_555
H15 C17 1_555 1_555
C18 C17 1_555 1_555
H16 C18 1_555 1_555
H17 C18 1_555 1_555
H18 C18 1_555 1_555
C19 H19 1_555 1_555
H20 C19 1_555 1_555
C20 C19 1_555 1_555
H21 C20 1_555 1_555
H22 C20 1_555 1_555
C21 C20 1_555 1_555
H23 C21 1_555 1_555
H24 C21 1_555 1_555
C22 C21 1_555 1_555
H25 C22 1_555 1_555
H26 C22 1_555 1_555
H27 C22 1_555 1_555
C23 H28 1_555 1_555
H29 C23 1_555 1_555
C24 C23 1_555 1_555
H30 C24 1_555 1_555
H31 C24 1_555 1_555
C25 C24 1_555 1_555
H32 C25 1_555 1_555
H33 C25 1_555 1_555
C26 C25 1_555 1_555
H34 C26 1_555 1_555
H35 C26 1_555 1_555
H36 C26 1_555 1_555
C27 C14 1_555 1_555
C28 C27 1_555 1_555
C29 C27 1_555 1_555
C30 C29 1_555 1_555
C31 C30 1_555 1_555
H37 C31 1_555 1_555
C32 C31 1_555 1_555
H38 C32 1_555 1_555
C33 C32 1_555 1_555
H39 C33 1_555 1_555
C34 C33 1_555 1_555
H40 C34 1_555 1_555
C35 C30 1_555 1_555
H41 C35 1_555 1_555
Br1 C5 1_555 1_555
N1 C28 1_555 1_555
O1 C1 1_555 1_555
O2 C1 1_555 1_555
O3 C29 1_555 1_555
P1 C14 1_555 1_555
C36 H42 1_555 1_555
Cl1 C36 1_555 1_555
Cl2 C36 1_555 1_555
Cl3 C36 1_555 1_555
C6 C7 1_555 1_555
C8 O1 1_555 1_555
C12 C13 1_555 1_555
C15 P1 1_555 1_555
C19 P1 1_555 1_555
C23 P1 1_555 1_555
C34 C35 1_555 1_555

#END
