
#######################################################################
#
#                 Cambridge Crystallographic Data Centre
#                                CCDC 
#
#######################################################################
#
# If this CIF has been generated from an entry in the Cambridge 
# Structural Database, then it will include bibliographic, chemical, 
# crystal, experimental, refinement or atomic coordinate data resulting 
# from the CCDC's data processing and validation procedures.
#
#######################################################################

data_CIHVIB
_chemical_formula_moiety         'C23 H22 N2 O5'
_chemical_name_systematic        
'diethyl 1-benzyl-7-methyl-2-oxo-1,2-dihydroimidazo[5,1,2-cd]indolizine-3,4-dicarboxylate'
_symmetry_cell_setting           monoclinic
_symmetry_space_group_name_H-M   'P 21/n'
_symmetry_Int_Tables_number      14
_space_group_name_Hall           '-P 2yn'
loop_
_symmetry_equiv_pos_site_id
_symmetry_equiv_pos_as_xyz
1 x,y,z
2 1/2-x,1/2+y,1/2-z
3 -x,-y,-z
4 1/2+x,1/2-y,1/2+z
_cell_length_a                   11.6239(6)
_cell_length_b                   7.5250(4)
_cell_length_c                   24.3931(17)
_cell_angle_alpha                90
_cell_angle_beta                 100.978(6)
_cell_angle_gamma                90
_cell_volume                     2094.62
_exptl_crystal_colour            colorless
_exptl_crystal_description       block
_cell_formula_units_Z            4
loop_
_atom_site_label
_atom_site_type_symbol
_atom_site_fract_x
_atom_site_fract_y
_atom_site_fract_z
C1 C 0.5035(2) 0.7761(3) 0.62425(9)
C2 C 0.45002(19) 0.6078(3) 0.60517(9)
C3 C 0.35502(19) 0.4921(3) 0.59905(9)
C4 C 0.3842(2) 0.3382(3) 0.57159(9)
C5 C 0.4982(2) 0.3599(3) 0.56050(9)
C6 C 0.5832(2) 0.2733(3) 0.53658(10)
H1 H 0.5686 0.1623 0.5200
C7 C 0.6887(2) 0.3571(3) 0.53838(10)
H2 H 0.7448 0.2972 0.5229
C8 C 0.7196(2) 0.5265(3) 0.56173(10)
C9 C 0.63428(19) 0.6116(3) 0.58354(9)
C10 C 0.2411(2) 0.5288(3) 0.61654(11)
C11 C 0.1450(11) 0.5357(14) 0.6920(4)
H3 H 0.0862 0.4551 0.6722
H4 H 0.1146 0.6560 0.6879
C12 C 0.1789(5) 0.4848(9) 0.7531(2)
H5 H 0.2079 0.3650 0.7561
H6 H 0.1114 0.4932 0.7704
H7 H 0.2388 0.5639 0.7715
C13 C 0.3153(2) 0.1777(3) 0.55780(11)
C14 C 0.1595(8) 0.0081(7) 0.5769(4)
H8 H 0.1443 -0.0244 0.5377
H9 H 0.2036 -0.0876 0.5978
C15 C 0.0548(8) 0.0304(14) 0.5948(4)
H10 H 0.0099 0.1219 0.5731
H11 H 0.0700 0.0638 0.6334
H12 H 0.0115 -0.0790 0.5902
C16 C 0.8390(2) 0.6026(4) 0.56101(12)
H13 H 0.8719 0.6487 0.5973
H14 H 0.8323 0.6965 0.5340
H15 H 0.8891 0.5110 0.5513
C17 C 0.6992(2) 0.9137(3) 0.62393(10)
H16 H 0.6562 1.0211 0.6289
H17 H 0.7390 0.9334 0.5929
C18 C 0.7901(2) 0.8820(3) 0.67607(10)
C19 C 0.8689(2) 1.0165(4) 0.69551(13)
H18 H 0.8648 1.1241 0.6765
C20 C 0.9546(3) 0.9910(5) 0.74370(15)
H19 H 1.0072 1.0815 0.7567
C21 C 0.9603(3) 0.8337(6) 0.77117(13)
H20 H 1.0176 0.8159 0.8029
C22 C 0.8842(3) 0.7045(5) 0.75294(12)
H21 H 0.8887 0.5976 0.7724
C23 C 0.7988(2) 0.7266(4) 0.70555(11)
H22 H 0.7467 0.6346 0.6936
N1 N 0.61670(16) 0.7698(3) 0.60970(8)
N2 N 0.53199(15) 0.5227(2) 0.58162(7)
O1 O 0.46884(15) 0.9016(2) 0.64815(7)
O2 O 0.15230(16) 0.5613(3) 0.58558(9)
O3 O 0.25361(15) 0.5214(3) 0.67109(8)
O4 O 0.33519(17) 0.0667(2) 0.52490(8)
O5 O 0.22712(16) 0.1681(2) 0.58462(9)
C24? C 0.162(4) 0.575(5) 0.7035(18)
H23? H 0.1119 0.6684 0.6844
H24? H 0.1967 0.6153 0.7407
C25? C 0.0929(18) 0.401(2) 0.7054(8)
H25? H 0.0632 0.3610 0.6680
H26? H 0.0287 0.4216 0.7242
H27? H 0.1438 0.3122 0.7251
C26? C 0.107(3) 0.036(4) 0.5513(17)
H28? H 0.0906 0.0492 0.5110
H29? H 0.1158 -0.0889 0.5613
C27? C 0.018(4) 0.128(6) 0.579(2)
H30? H -0.0105 0.2321 0.5577
H31? H 0.0534 0.1614 0.6160
H32? H -0.0466 0.0488 0.5799
loop_
_geom_bond_atom_site_label_1
_geom_bond_atom_site_label_2
_geom_bond_site_symmetry_1
_geom_bond_site_symmetry_2
C1 C2 1_555 1_555
C2 C3 1_555 1_555
C3 C4 1_555 1_555
C4 C5 1_555 1_555
C5 C6 1_555 1_555
C6 H1 1_555 1_555
C7 C6 1_555 1_555
H2 C7 1_555 1_555
C8 C7 1_555 1_555
C9 C8 1_555 1_555
C10 C3 1_555 1_555
C11 H3 1_555 1_555
H4 C11 1_555 1_555
C12 C11 1_555 1_555
H5 C12 1_555 1_555
H6 C12 1_555 1_555
H7 C12 1_555 1_555
C13 C4 1_555 1_555
C14 H8 1_555 1_555
H9 C14 1_555 1_555
C15 C14 1_555 1_555
H10 C15 1_555 1_555
H11 C15 1_555 1_555
H12 C15 1_555 1_555
C16 C8 1_555 1_555
H13 C16 1_555 1_555
H14 C16 1_555 1_555
H15 C16 1_555 1_555
C17 H16 1_555 1_555
H17 C17 1_555 1_555
C18 C17 1_555 1_555
C19 C18 1_555 1_555
H18 C19 1_555 1_555
C20 C19 1_555 1_555
H19 C20 1_555 1_555
C21 C20 1_555 1_555
H20 C21 1_555 1_555
C22 C21 1_555 1_555
H21 C22 1_555 1_555
C23 C18 1_555 1_555
H22 C23 1_555 1_555
N1 C1 1_555 1_555
N2 C2 1_555 1_555
O1 C1 1_555 1_555
O2 C10 1_555 1_555
O3 C10 1_555 1_555
O4 C13 1_555 1_555
O5 C13 1_555 1_555
C5 N2 1_555 1_555
C9 N1 1_555 1_555
C9 N2 1_555 1_555
C11 O3 1_555 1_555
C14 O5 1_555 1_555
C17 N1 1_555 1_555
C22 C23 1_555 1_555

#END
