
#######################################################################
#
#                 Cambridge Crystallographic Data Centre
#                                CCDC 
#
#######################################################################
#
# If this CIF has been generated from an entry in the Cambridge 
# Structural Database, then it will include bibliographic, chemical, 
# crystal, experimental, refinement or atomic coordinate data resulting 
# from the CCDC's data processing and validation procedures.
#
#######################################################################

data_CIJBAA
_chemical_formula_moiety         'C20 H12 N4 O4'
_chemical_name_systematic        6-Nitro-2-(2-nitrophenyl)-4-phenylquinazoline
_symmetry_cell_setting           monoclinic
_symmetry_space_group_name_H-M   'P 21/n'
_symmetry_Int_Tables_number      14
_space_group_name_Hall           '-P 2yn'
loop_
_symmetry_equiv_pos_site_id
_symmetry_equiv_pos_as_xyz
1 x,y,z
2 1/2-x,1/2+y,1/2-z
3 -x,-y,-z
4 1/2+x,1/2-y,1/2+z
_cell_length_a                   10.7619(5)
_cell_length_b                   7.9318(4)
_cell_length_c                   19.9964(10)
_cell_angle_alpha                90
_cell_angle_beta                 96.129(4)
_cell_angle_gamma                90
_cell_volume                     1697.16
_exptl_crystal_colour            brown
_exptl_crystal_description       rectangular
_cell_formula_units_Z            4
loop_
_atom_site_label
_atom_site_type_symbol
_atom_site_fract_x
_atom_site_fract_y
_atom_site_fract_z
N1 N 0.74004(13) 0.2706(2) 0.13151(8)
N2 N 0.55772(14) 0.2824(2) 0.05159(8)
C1 C 0.67965(16) 0.3383(2) 0.17913(9)
C2 C 0.55319(16) 0.3948(2) 0.16460(9)
C3 C 0.49523(16) 0.3600(2) 0.09917(10)
C4 C 0.67604(17) 0.2507(2) 0.06941(9)
N3 N 0.92227(17) 0.3814(2) 0.04988(9)
C5 C 0.75208(17) 0.3507(2) 0.24637(9)
C6 C 0.48690(17) 0.4877(2) 0.20939(10)
H1 H 0.5242 0.5166 0.2520
C7 C 0.74978(17) 0.1832(2) 0.01672(9)
C8 C 0.36700(18) 0.5342(3) 0.18885(11)
C9 C 0.70313(19) 0.0571(3) -0.02729(10)
H2 H 0.6239 0.0135 -0.0236
O1 O 0.85692(16) 0.5059(2) 0.05503(9)
C10 C 0.86931(18) 0.2406(2) 0.00882(10)
C11 C 0.87674(17) 0.3996(3) 0.25077(10)
H3 H 0.9123 0.4287 0.2120
C12 C 0.30700(19) 0.4969(3) 0.12531(12)
H4 H 0.2247 0.5300 0.1134
C13 C 0.37060(18) 0.4116(3) 0.08114(11)
H5 H 0.3317 0.3868 0.0385
C14 C 0.70099(19) 0.3058(3) 0.30506(10)
H6 H 0.6175 0.2739 0.3030
C15 C 0.93988(19) 0.1791(3) -0.03916(11)
H7 H 1.0201 0.2199 -0.0423
O2 O 0.35355(17) 0.6858(3) 0.28672(9)
N4 N 0.29753(19) 0.6322(3) 0.23505(11)
C16 C 0.7716(2) -0.0048(3) -0.07620(11)
H8 H 0.7379 -0.0884 -0.1053
C17 C 0.94809(19) 0.4054(3) 0.31235(11)
H9 H 1.0306 0.4417 0.3151
O3 O 1.02915(15) 0.3705(3) 0.07461(10)
C18 C 0.8969(2) 0.3570(3) 0.36998(12)
H10 H 0.9457 0.3575 0.4113
C19 C 0.7736(2) 0.3083(3) 0.36611(11)
H11 H 0.7391 0.2770 0.4050
C20 C 0.8897(2) 0.0562(3) -0.08240(11)
H12 H 0.9352 0.0144 -0.1157
O4 O 0.18744(18) 0.6566(4) 0.21953(12)
loop_
_geom_bond_atom_site_label_1
_geom_bond_atom_site_label_2
_geom_bond_site_symmetry_1
_geom_bond_site_symmetry_2
N1 C1 1_555 1_555
N2 C3 1_555 1_555
C1 C2 1_555 1_555
C2 C3 1_555 1_555
C3 C13 1_555 1_555
C4 N1 1_555 1_555
N3 O1 1_555 1_555
C5 C1 1_555 1_555
C6 C2 1_555 1_555
H1 C6 1_555 1_555
C7 C4 1_555 1_555
C8 C6 1_555 1_555
C9 C7 1_555 1_555
H2 C9 1_555 1_555
C10 N3 1_555 1_555
C11 C5 1_555 1_555
H3 C11 1_555 1_555
C12 C8 1_555 1_555
H4 C12 1_555 1_555
C13 C12 1_555 1_555
H5 C13 1_555 1_555
C14 C5 1_555 1_555
H6 C14 1_555 1_555
C15 C10 1_555 1_555
H7 C15 1_555 1_555
O2 N4 1_555 1_555
N4 C8 1_555 1_555
C16 C9 1_555 1_555
H8 C16 1_555 1_555
C17 C11 1_555 1_555
H9 C17 1_555 1_555
O3 N3 1_555 1_555
C18 C17 1_555 1_555
H10 C18 1_555 1_555
C19 C14 1_555 1_555
H11 C19 1_555 1_555
C20 C15 1_555 1_555
H12 C20 1_555 1_555
O4 N4 1_555 1_555
N2 C4 1_555 1_555
C7 C10 1_555 1_555
C16 C20 1_555 1_555
C18 C19 1_555 1_555

#END
