
#######################################################################
#
#                 Cambridge Crystallographic Data Centre
#                                CCDC 
#
#######################################################################
#
# If this CIF has been generated from an entry in the Cambridge 
# Structural Database, then it will include bibliographic, chemical, 
# crystal, experimental, refinement or atomic coordinate data resulting 
# from the CCDC's data processing and validation procedures.
#
#######################################################################

data_CIJCUV
_chemical_formula_moiety         'C17 H17 Br1 N4 O4 S1'
_chemical_name_systematic        
N-(5-(2-Bromophenyl)-1,3-dimethyl-4,5-dihydro-1H-pyrazol-4-yl)-4-nitrobenzenesulfonamide
_symmetry_cell_setting           triclinic
_symmetry_space_group_name_H-M   'P -1'
_symmetry_Int_Tables_number      2
_space_group_name_Hall           '-P 1'
loop_
_symmetry_equiv_pos_site_id
_symmetry_equiv_pos_as_xyz
1 x,y,z
2 -x,-y,-z
_cell_length_a                   7.5819(7)
_cell_length_b                   9.2830(9)
_cell_length_c                   13.8365(14)
_cell_angle_alpha                95.425(2)
_cell_angle_beta                 95.329(2)
_cell_angle_gamma                106.406(2)
_cell_volume                     922.697
_exptl_crystal_colour            colorless
_exptl_crystal_description       prism
_cell_formula_units_Z            2
loop_
_atom_site_label
_atom_site_type_symbol
_atom_site_fract_x
_atom_site_fract_y
_atom_site_fract_z
Br1 Br 0.38129(5) 0.23388(4) 0.35061(3)
S1 S 0.74592(10) 0.21633(10) 0.03915(5)
O1 O 0.9361(3) 0.2909(3) 0.03287(17)
O2 O 0.6277(3) 0.1306(3) -0.04609(16)
O3 O 0.5028(5) 0.7929(4) 0.2445(3)
O4 O 0.2342(5) 0.6294(4) 0.2072(3)
N1 N 0.7384(4) 0.1010(3) 0.11957(18)
N2 N 0.9402(4) -0.0004(3) 0.3281(2)
N3 N 0.8612(3) 0.1010(3) 0.37713(18)
N4 N 0.4010(5) 0.6686(4) 0.2083(3)
C1 C 0.8591(4) 0.1429(3) 0.2125(2)
H1 H 0.9581 0.2360 0.2092
C2 C 0.9441(4) 0.0217(3) 0.2391(3)
C3 C 0.7622(4) 0.1641(3) 0.3035(2)
H2 H 0.6321 0.1028 0.2908
C4 C 1.0416(6) -0.0527(5) 0.1694(3)
H3 H 1.0915 -0.1224 0.2016
H4 H 1.1405 0.0230 0.1485
H5 H 0.9554 -0.1064 0.1136
C5 C 0.7530(5) 0.0351(4) 0.4515(3)
H6 H 0.6517 -0.0499 0.4214
H7 H 0.7055 0.1095 0.4841
H8 H 0.8300 0.0021 0.4982
C6 C 0.7729(4) 0.3254(3) 0.3403(2)
C7 C 0.9490(5) 0.4361(4) 0.3558(2)
H9 H 1.0536 0.4086 0.3420
C8 C 0.9662(6) 0.5833(4) 0.3909(3)
H10 H 1.0823 0.6548 0.3998
C9 C 0.8143(7) 0.6260(4) 0.4128(3)
H11 H 0.8275 0.7263 0.4361
C10 C 0.6438(6) 0.5220(4) 0.4005(3)
H12 H 0.5411 0.5510 0.4161
C11 C 0.6232(5) 0.3718(4) 0.3643(2)
C12 C 0.6452(4) 0.3546(4) 0.0842(2)
C13 C 0.7568(4) 0.4954(4) 0.1283(3)
H13 H 0.8849 0.5198 0.1304
C14 C 0.6765(5) 0.5989(4) 0.1689(3)
H14 H 0.7493 0.6929 0.2001
C15 C 0.4871(5) 0.5600(4) 0.1623(2)
C16 C 0.3732(4) 0.4227(4) 0.1164(3)
H15 H 0.2450 0.4008 0.1119
C17 C 0.4539(4) 0.3188(4) 0.0772(3)
H16 H 0.3803 0.2249 0.0462
H17 H 0.639(3) 0.034(3) 0.123(3)
loop_
_geom_bond_atom_site_label_1
_geom_bond_atom_site_label_2
_geom_bond_site_symmetry_1
_geom_bond_site_symmetry_2
Br1 C11 1_555 1_555
S1 O1 1_555 1_555
O2 S1 1_555 1_555
O3 N4 1_555 1_555
O4 N4 1_555 1_555
N1 S1 1_555 1_555
N2 N3 1_555 1_555
N3 C3 1_555 1_555
N4 C15 1_555 1_555
C1 N1 1_555 1_555
H1 C1 1_555 1_555
C2 N2 1_555 1_555
C3 C1 1_555 1_555
H2 C3 1_555 1_555
C4 C2 1_555 1_555
H3 C4 1_555 1_555
H4 C4 1_555 1_555
H5 C4 1_555 1_555
C5 N3 1_555 1_555
H6 C5 1_555 1_555
H7 C5 1_555 1_555
H8 C5 1_555 1_555
C6 C3 1_555 1_555
C7 C6 1_555 1_555
H9 C7 1_555 1_555
C8 C7 1_555 1_555
H10 C8 1_555 1_555
C9 C8 1_555 1_555
H11 C9 1_555 1_555
C10 C9 1_555 1_555
H12 C10 1_555 1_555
C11 C6 1_555 1_555
C12 S1 1_555 1_555
C13 C12 1_555 1_555
H13 C13 1_555 1_555
C14 C13 1_555 1_555
H14 C14 1_555 1_555
C15 C14 1_555 1_555
C16 C15 1_555 1_555
H15 C16 1_555 1_555
C17 C12 1_555 1_555
H16 C17 1_555 1_555
H17 N1 1_555 1_555
C1 C2 1_555 1_555
C10 C11 1_555 1_555
C16 C17 1_555 1_555

#END
