
#######################################################################
#
#                 Cambridge Crystallographic Data Centre
#                                CCDC 
#
#######################################################################
#
# If this CIF has been generated from an entry in the Cambridge 
# Structural Database, then it will include bibliographic, chemical, 
# crystal, experimental, refinement or atomic coordinate data resulting 
# from the CCDC's data processing and validation procedures.
#
#######################################################################

data_CIJMIU
_chemical_name_common            
'(mu-Thiacalix[4]-bis-crown-5)-di-potassium diperchlorate acetonitrile solvate'
_chemical_formula_moiety         'C40 H44 K2 O10 S4 2+,2(C2 H3 N1),2(Cl1 O4 1-)'
_chemical_name_systematic        
'(\m-11,12,14,15,17,18,20,21,33,34,36,37,39,40,42,43-hexadecahydro-1,23:9,31-diepithiotetrabenzo-[n,q,f1,i1]-[1,4,7,10,13,19,22,25,28,31,16,34]-decaoxadithiacyclohexatriacontine)-di-potassium diperchlorate acetonitrile solvate'
_symmetry_cell_setting           orthorhombic
_symmetry_space_group_name_H-M   'P b c n'
_symmetry_Int_Tables_number      60
_space_group_name_Hall           '-P 2n 2ab'
loop_
_symmetry_equiv_pos_site_id
_symmetry_equiv_pos_as_xyz
1 x,y,z
2 1/2-x,1/2-y,1/2+z
3 -x,y,1/2-z
4 1/2+x,1/2-y,-z
5 -x,-y,-z
6 1/2+x,1/2+y,1/2-z
7 x,-y,1/2+z
8 1/2-x,1/2+y,z
_cell_length_a                   24.216(2)
_cell_length_b                   18.829(2)
_cell_length_c                   10.9476(8)
_cell_angle_alpha                90
_cell_angle_beta                 90
_cell_angle_gamma                90
_cell_volume                     4991.7
_exptl_crystal_colour            colorless
_exptl_crystal_description       block
_cell_formula_units_Z            4
loop_
_atom_site_label
_atom_site_type_symbol
_atom_site_fract_x
_atom_site_fract_y
_atom_site_fract_z
K1 K 0.09422(3) 0.23189(4) 0.13766(7)
S1 S 0.0000 0.02002(7) 0.2500
S2 S -0.06848(4) 0.23209(6) -0.06797(9)
S3 S 0.0000 0.44327(8) 0.2500
O1 O 0.01378(10) 0.32866(14) 0.0550(2)
O2 O 0.11459(11) 0.32582(16) -0.0629(2)
O3 O 0.18638(11) 0.21746(16) 0.0097(3)
O4 O 0.18250(13) 0.15698(19) 0.2442(3)
O5 O 0.07490(10) 0.14057(13) 0.3392(2)
C1 C 0.01051(15) 0.0781(2) 0.1252(3)
C2 C 0.05664(17) 0.0659(2) 0.0508(4)
H1 H 0.0816 0.0250 0.0694
C3 C 0.06481(17) 0.1044(3) -0.0539(4)
H2 H 0.0930 0.0886 -0.1147
C4 C 0.02761(17) 0.1574(2) -0.0846(4)
H3 H 0.0298 0.1791 -0.1678
C5 C -0.01893(16) 0.1709(2) -0.0126(3)
C6 C -0.02803(14) 0.1300(2) 0.0913(3)
C7 C -0.08035(15) 0.2906(2) 0.0557(3)
C8 C -0.03894(14) 0.3351(2) 0.1015(3)
C9 C -0.05095(15) 0.3840(2) 0.1931(3)
C10 C -0.10508(16) 0.3898(2) 0.2366(4)
H4 H -0.1153 0.4313 0.2888
C11 C -0.14637(16) 0.3476(2) 0.1884(4)
H5 H -0.1858 0.3618 0.2007
C12 C -0.13397(15) 0.2980(2) 0.1000(4)
H6 H -0.1649 0.2744 0.0551
C13 C 0.02808(17) 0.3825(2) -0.0343(4)
H7 H 0.0458 0.4235 0.0067
H8 H -0.0056 0.3996 -0.0762
C14 C 0.06685(17) 0.3507(3) -0.1249(4)
H9 H 0.0486 0.3108 -0.1678
H10 H 0.0775 0.3868 -0.1863
C15 C 0.15306(17) 0.2938(3) -0.1450(4)
H11 H 0.1640 0.3284 -0.2086
H12 H 0.1358 0.2524 -0.1857
C16 C 0.20276(16) 0.2704(3) -0.0751(4)
H13 H 0.2308 0.2510 -0.1317
H14 H 0.2191 0.3113 -0.0313
C17 C 0.23249(16) 0.1826(3) 0.0635(4)
H15 H 0.2544 0.2172 0.1114
H16 H 0.2565 0.1631 -0.0015
C18 C 0.21342(15) 0.1232(2) 0.1460(4)
H17 H 0.1896 0.0896 0.1005
H18 H 0.2455 0.0969 0.1792
C19 C 0.1736(3) 0.1194(5) 0.3542(8)
H19 H 0.1742 0.1524 0.4245
H20 H 0.2030 0.0834 0.3661
C20 C 0.1183(2) 0.0840(3) 0.3447(6)
H21 H 0.1121 0.0531 0.4165
H22 H 0.1168 0.0543 0.2702
S2B S 0.06848(4) 0.23209(6) 0.56797(9)
O1B O -0.01378(10) 0.32866(14) 0.4450(2)
O2B O -0.11459(11) 0.32582(16) 0.5629(2)
O3B O -0.18638(11) 0.21746(16) 0.4903(3)
O4B O -0.18250(13) 0.15698(19) 0.2558(3)
O5B O -0.07490(10) 0.14057(13) 0.1608(2)
C1B C -0.01051(15) 0.0781(2) 0.3748(3)
C2B C -0.05664(17) 0.0659(2) 0.4492(4)
H1B H -0.0816 0.0250 0.4306
C3B C -0.06481(17) 0.1044(3) 0.5539(4)
H2B H -0.0930 0.0886 0.6147
C4B C -0.02761(17) 0.1574(2) 0.5846(4)
H3B H -0.0298 0.1791 0.6678
C5B C 0.01893(16) 0.1709(2) 0.5126(3)
C6B C 0.02803(14) 0.1300(2) 0.4087(3)
C7B C 0.08035(15) 0.2906(2) 0.4443(3)
C8B C 0.03894(14) 0.3351(2) 0.3985(3)
C9B C 0.05095(15) 0.3840(2) 0.3069(3)
C10B C 0.10508(16) 0.3898(2) 0.2634(4)
H4B H 0.1153 0.4313 0.2112
C11B C 0.14637(16) 0.3476(2) 0.3116(4)
H5B H 0.1858 0.3618 0.2993
C12B C 0.13397(15) 0.2980(2) 0.4000(4)
H6B H 0.1649 0.2744 0.4449
C13B C -0.02808(17) 0.3825(2) 0.5343(4)
H7B H -0.0458 0.4235 0.4933
H8B H 0.0056 0.3996 0.5762
C14B C -0.06685(17) 0.3507(3) 0.6249(4)
H9B H -0.0486 0.3108 0.6678
H10B H -0.0775 0.3868 0.6863
C15B C -0.15306(17) 0.2938(3) 0.6450(4)
H11B H -0.1640 0.3284 0.7086
H12B H -0.1358 0.2524 0.6857
C16B C -0.20276(16) 0.2704(3) 0.5751(4)
H13B H -0.2308 0.2510 0.6317
H14B H -0.2191 0.3113 0.5313
C17B C -0.23249(16) 0.1826(3) 0.4365(4)
H15B H -0.2544 0.2172 0.3886
H16B H -0.2565 0.1631 0.5015
C18B C -0.21342(15) 0.1232(2) 0.3540(4)
H17B H -0.1896 0.0896 0.3995
H18B H -0.2455 0.0969 0.3208
C19B C -0.1736(3) 0.1194(5) 0.1458(8)
H19B H -0.1742 0.1524 0.0755
H20B H -0.2030 0.0834 0.1339
C20B C -0.1183(2) 0.0840(3) 0.1553(6)
H21B H -0.1121 0.0531 0.0835
H22B H -0.1168 0.0543 0.2298
K1B K -0.09422(3) 0.23189(4) 0.36234(7)
Cl1 Cl 0.30037(5) 0.41003(6) 0.20171(10)
O6 O 0.3013(2) 0.4229(4) 0.3264(4)
O7 O 0.3426(4) 0.4385(5) 0.1441(7)
O8 O 0.2507(3) 0.4476(4) 0.1687(8)
O9 O 0.2895(2) 0.3389(3) 0.1697(5)
N1 N 0.1258(2) 0.5559(3) 0.1035(5)
C21 C 0.1845(3) 0.4891(3) -0.0563(6)
C22 C 0.1521(2) 0.5271(3) 0.0335(5)
H23 H 0.196(3) 0.448(4) -0.024(6)
H24 H 0.162(4) 0.484(4) -0.140(7)
H25 H 0.209(3) 0.519(4) -0.088(7)
C23? C 0.1594(4) 0.0859(8) 0.3048(12)
H26? H 0.1398 0.0566 0.2437
H27? H 0.1899 0.0576 0.3405
C24? C 0.1215(4) 0.1105(6) 0.4002(10)
H28? H 0.1098 0.0702 0.4523
H29? H 0.1396 0.1465 0.4523
loop_
_geom_bond_atom_site_label_1
_geom_bond_atom_site_label_2
_geom_bond_site_symmetry_1
_geom_bond_site_symmetry_2
K1 O1 1_555 1_555
S1 C1 1_555 1_555
S2 C5 1_555 1_555
S3 C9 1_555 1_555
O1 C8 1_555 1_555
O2 K1 1_555 1_555
O3 K1 1_555 1_555
O4 K1 1_555 1_555
O5 K1 1_555 1_555
C1 C2 1_555 1_555
C2 H1 1_555 1_555
C3 C2 1_555 1_555
H2 C3 1_555 1_555
C4 C3 1_555 1_555
H3 C4 1_555 1_555
C5 C4 1_555 1_555
C6 C1 1_555 1_555
C7 S2 1_555 1_555
C8 C7 1_555 1_555
C9 C8 1_555 1_555
C10 C9 1_555 1_555
H4 C10 1_555 1_555
C11 C10 1_555 1_555
H5 C11 1_555 1_555
C12 C7 1_555 1_555
H6 C12 1_555 1_555
C13 O1 1_555 1_555
H7 C13 1_555 1_555
H8 C13 1_555 1_555
C14 O2 1_555 1_555
H9 C14 1_555 1_555
H10 C14 1_555 1_555
C15 O2 1_555 1_555
H11 C15 1_555 1_555
H12 C15 1_555 1_555
C16 O3 1_555 1_555
H13 C16 1_555 1_555
H14 C16 1_555 1_555
C17 O3 1_555 1_555
H15 C17 1_555 1_555
H16 C17 1_555 1_555
C18 O4 1_555 1_555
H17 C18 1_555 1_555
H18 C18 1_555 1_555
C19 O4 1_555 1_555
H19 C19 1_555 1_555
H20 C19 1_555 1_555
C20 O5 1_555 1_555
H21 C20 1_555 1_555
H22 C20 1_555 1_555
Cl1 O6 1_555 1_555
O7 Cl1 1_555 1_555
O8 Cl1 1_555 1_555
O9 Cl1 1_555 1_555
N1 C22 1_555 1_555
C21 C22 1_555 1_555
H23 C21 1_555 1_555
H24 C21 1_555 1_555
H25 C21 1_555 1_555
S2B C5B 1_555 1_555
O1B C8B 1_555 1_555
O2B C14B 1_555 1_555
O3B C16B 1_555 1_555
O4B C18B 1_555 1_555
O5B C6 1_555 1_555
C1B S1 1_555 1_555
C2B C1B 1_555 1_555
H1B C2B 1_555 1_555
C3B C2B 1_555 1_555
H2B C3B 1_555 1_555
C4B C3B 1_555 1_555
H3B C4B 1_555 1_555
C5B C4B 1_555 1_555
C6B O5 1_555 1_555
C7B S2B 1_555 1_555
C8B C7B 1_555 1_555
C9B S3 1_555 1_555
C10B C9B 1_555 1_555
H4B C10B 1_555 1_555
C11B C10B 1_555 1_555
H5B C11B 1_555 1_555
C12B C7B 1_555 1_555
H6B C12B 1_555 1_555
C13B O1B 1_555 1_555
H7B C13B 1_555 1_555
H8B C13B 1_555 1_555
C14B C13B 1_555 1_555
H9B C14B 1_555 1_555
H10B C14B 1_555 1_555
C15B O2B 1_555 1_555
H11B C15B 1_555 1_555
H12B C15B 1_555 1_555
C16B C15B 1_555 1_555
H13B C16B 1_555 1_555
H14B C16B 1_555 1_555
C17B O3B 1_555 1_555
H15B C17B 1_555 1_555
H16B C17B 1_555 1_555
C18B C17B 1_555 1_555
H17B C18B 1_555 1_555
H18B C18B 1_555 1_555
C19B O4B 1_555 1_555
H19B C19B 1_555 1_555
H20B C19B 1_555 1_555
C20B O5B 1_555 1_555
H21B C20B 1_555 1_555
H22B C20B 1_555 1_555
K1B O1B 1_555 1_555
C5 C6 1_555 1_555
C11 C12 1_555 1_555
C13 C14 1_555 1_555
C15 C16 1_555 1_555
C17 C18 1_555 1_555
C19 C20 1_555 1_555
O2B K1B 1_555 1_555
O3B K1B 1_555 1_555
O4B K1B 1_555 1_555
O5B K1B 1_555 1_555
C1B C6B 1_555 1_555
C5B C6B 1_555 1_555
C8B C9B 1_555 1_555
C11B C12B 1_555 1_555
C19B C20B 1_555 1_555

#END
