
#######################################################################
#
#                 Cambridge Crystallographic Data Centre
#                                CCDC 
#
#######################################################################
#
# If this CIF has been generated from an entry in the Cambridge 
# Structural Database, then it will include bibliographic, chemical, 
# crystal, experimental, refinement or atomic coordinate data resulting 
# from the CCDC's data processing and validation procedures.
#
#######################################################################

data_CIJMIS
_chemical_formula_moiety         'C22 H31 N1 O5 P2 S1'
_chemical_name_systematic        
'Diphenyl (diethoxythiophosphorylamino)cyclohexylphosphonate'
_symmetry_cell_setting           monoclinic
_symmetry_space_group_name_H-M   'P 21/n'
_symmetry_Int_Tables_number      14
_space_group_name_Hall           '-P 2yn'
loop_
_symmetry_equiv_pos_site_id
_symmetry_equiv_pos_as_xyz
1 x,y,z
2 1/2-x,1/2+y,1/2-z
3 -x,-y,-z
4 1/2+x,1/2-y,1/2+z
_cell_length_a                   11.271(4)
_cell_length_b                   12.522(5)
_cell_length_c                   18.022(7)
_cell_angle_alpha                90
_cell_angle_beta                 100.501(6)
_cell_angle_gamma                90
_cell_volume                     2500.94
_cell_formula_units_Z            4
loop_
_atom_site_label
_atom_site_type_symbol
_atom_site_fract_x
_atom_site_fract_y
_atom_site_fract_z
P1 P 0.42669(7) 0.49965(7) 0.17878(4)
P2 P 0.60192(7) 0.33092(6) 0.07427(4)
S1 S 0.46041(10) 0.43527(9) 0.27739(5)
O1 O 0.32481(19) 0.4441(2) 0.12060(13)
O2 O 0.3720(2) 0.6155(2) 0.17652(13)
O3 O 0.5203(2) 0.27395(17) 0.12471(11)
O4 O 0.54676(18) 0.34908(16) -0.00427(11)
O5 O 0.7139(2) 0.25259(19) 0.08687(12)
N1 N 0.5374(2) 0.51433(19) 0.13301(12)
H1 H 0.5307 0.5707 0.1053
C1 C 0.1283(10) 0.3876(10) 0.0826(6)
H2 H 0.0491 0.3799 0.0945
H3 H 0.1593 0.3186 0.0730
H4 H 0.1239 0.4316 0.0385
C2 C 0.2110(6) 0.4393(8) 0.1482(5)
H5 H 0.1830 0.5101 0.1585
H6 H 0.2182 0.3961 0.1935
C5 C 0.3970(12) 0.7011(8) 0.2281(7)
H12 H 0.4391 0.6757 0.2767
H13 H 0.3229 0.7358 0.2351
C6 C 0.4753(12) 0.7777(13) 0.1939(9)
H14 H 0.4965 0.8372 0.2274
H15 H 0.4319 0.8030 0.1464
H16 H 0.5473 0.7418 0.1863
C9 C 0.6471(3) 0.4516(2) 0.12893(15)
C10 C 0.7245(3) 0.4270(3) 0.20649(18)
H22 H 0.6760 0.3890 0.2372
H23 H 0.7911 0.3811 0.1999
C11 C 0.7741(4) 0.5292(4) 0.2473(2)
H24 H 0.7075 0.5716 0.2584
H25 H 0.8250 0.5103 0.2949
C12 C 0.8467(4) 0.5957(4) 0.2012(3)
H26 H 0.8710 0.6620 0.2274
H27 H 0.9190 0.5572 0.1952
C13 C 0.7723(4) 0.6200(3) 0.1242(2)
H28 H 0.8219 0.6580 0.0942
H29 H 0.7055 0.6661 0.1301
C14 C 0.7233(3) 0.5187(3) 0.08280(19)
H30 H 0.7902 0.4758 0.0726
H31 H 0.6739 0.5378 0.0348
C15 C 0.4431(3) 0.1868(2) 0.10638(19)
C16 C 0.4272(4) 0.1358(4) 0.0385(3)
H32 H 0.4687 0.1581 0.0012
C17 C 0.3486(5) 0.0504(4) 0.0261(3)
H33 H 0.3366 0.0156 -0.0203
C18 C 0.2892(4) 0.0171(3) 0.0798(3)
H34 H 0.2370 -0.0409 0.0708
C19 C 0.3053(4) 0.0680(4) 0.1476(3)
H35 H 0.2643 0.0449 0.1850
C20 C 0.3839(3) 0.1555(3) 0.1609(2)
H36 H 0.3949 0.1914 0.2069
C21 C 0.8032(3) 0.2325(2) 0.04423(16)
C22 C 0.8084(3) 0.2804(3) -0.02336(17)
H37 H 0.7506 0.3303 -0.0441
C23 C 0.9010(3) 0.2531(3) -0.0597(2)
H38 H 0.9053 0.2848 -0.1058
C24 C 0.9869(3) 0.1806(3) -0.0296(2)
H39 H 1.0494 0.1633 -0.0548
C25 C 0.9795(3) 0.1332(3) 0.0388(2)
H40 H 1.0375 0.0837 0.0599
C26 C 0.8876(3) 0.1588(3) 0.07535(19)
H41 H 0.8822 0.1265 0.1211
C3? C 0.1056(9) 0.4440(9) 0.0970(8)
H7? H 0.0356 0.4051 0.1049
H8? H 0.1040 0.4518 0.0438
H9? H 0.1059 0.5133 0.1198
C4? C 0.2170(7) 0.3844(8) 0.1320(7)
H10? H 0.2181 0.3751 0.1855
H11? H 0.2169 0.3142 0.1091
C7? C 0.4526(9) 0.6948(7) 0.2239(6)
H17? H 0.5363 0.6815 0.2207
H18? H 0.4440 0.6889 0.2764
C8? C 0.4153(12) 0.8049(8) 0.1941(8)
H19? H 0.4639 0.8576 0.2241
H20? H 0.3319 0.8165 0.1965
H21? H 0.4264 0.8104 0.1426
loop_
_geom_bond_atom_site_label_1
_geom_bond_atom_site_label_2
_geom_bond_site_symmetry_1
_geom_bond_site_symmetry_2
P1 S1 1_555 1_555
P2 O3 1_555 1_555
O1 P1 1_555 1_555
O2 P1 1_555 1_555
O3 C15 1_555 1_555
O4 P2 1_555 1_555
O5 P2 1_555 1_555
N1 P1 1_555 1_555
H1 N1 1_555 1_555
C1 H2 1_555 1_555
H3 C1 1_555 1_555
H4 C1 1_555 1_555
C2 O1 1_555 1_555
H5 C2 1_555 1_555
H6 C2 1_555 1_555
C5 O2 1_555 1_555
H12 C5 1_555 1_555
H13 C5 1_555 1_555
C6 C5 1_555 1_555
H14 C6 1_555 1_555
H15 C6 1_555 1_555
H16 C6 1_555 1_555
C9 P2 1_555 1_555
C10 C9 1_555 1_555
H22 C10 1_555 1_555
H23 C10 1_555 1_555
C11 C10 1_555 1_555
H24 C11 1_555 1_555
H25 C11 1_555 1_555
C12 C11 1_555 1_555
H26 C12 1_555 1_555
H27 C12 1_555 1_555
C13 C12 1_555 1_555
H28 C13 1_555 1_555
H29 C13 1_555 1_555
C14 C9 1_555 1_555
H30 C14 1_555 1_555
H31 C14 1_555 1_555
C15 C16 1_555 1_555
C16 H32 1_555 1_555
C17 C16 1_555 1_555
H33 C17 1_555 1_555
C18 C17 1_555 1_555
H34 C18 1_555 1_555
C19 C18 1_555 1_555
H35 C19 1_555 1_555
C20 C15 1_555 1_555
H36 C20 1_555 1_555
C21 O5 1_555 1_555
C22 C21 1_555 1_555
H37 C22 1_555 1_555
C23 C22 1_555 1_555
H38 C23 1_555 1_555
C24 C23 1_555 1_555
H39 C24 1_555 1_555
C25 C24 1_555 1_555
H40 C25 1_555 1_555
C26 C21 1_555 1_555
H41 C26 1_555 1_555
N1 C9 1_555 1_555
C1 C2 1_555 1_555
C13 C14 1_555 1_555
C19 C20 1_555 1_555
C25 C26 1_555 1_555

#END
