
#######################################################################
#
#                 Cambridge Crystallographic Data Centre
#                                CCDC 
#
#######################################################################
#
# If this CIF has been generated from an entry in the Cambridge 
# Structural Database, then it will include bibliographic, chemical, 
# crystal, experimental, refinement or atomic coordinate data resulting 
# from the CCDC's data processing and validation procedures.
#
#######################################################################

data_CIJMOY
_chemical_formula_moiety         'C24 H29 N1 O6 P2 S1'
_chemical_name_systematic        
'Diphenyl (diethoxythiophosphorylamino)(4-methoxyphenyl)methylphosphonate'
_symmetry_cell_setting           triclinic
_symmetry_space_group_name_H-M   'P -1'
_symmetry_Int_Tables_number      2
_space_group_name_Hall           '-P 1'
loop_
_symmetry_equiv_pos_site_id
_symmetry_equiv_pos_as_xyz
1 x,y,z
2 -x,-y,-z
_cell_length_a                   10.751(6)
_cell_length_b                   10.914(6)
_cell_length_c                   12.277(7)
_cell_angle_alpha                84.769(9)
_cell_angle_beta                 86.631(10)
_cell_angle_gamma                68.328(8)
_cell_volume                     1332.65
_cell_formula_units_Z            2
loop_
_atom_site_label
_atom_site_type_symbol
_atom_site_fract_x
_atom_site_fract_y
_atom_site_fract_z
P1 P 0.48722(9) 0.80046(8) 0.40644(7)
P2 P 0.75548(9) 0.69434(10) 0.65384(9)
N1 N 0.6268(3) 0.7768(3) 0.5794(2)
O1 O 0.4543(2) 0.9432(2) 0.39351(18)
O2 O 0.3732(2) 0.7504(2) 0.37894(18)
O3 O 0.6081(3) 0.7180(2) 0.3310(2)
O4 O 0.1072(3) 0.7443(3) 0.8420(2)
S1 S 0.81990(13) 0.50941(11) 0.63697(15)
O5 O 0.8543(3) 0.7693(3) 0.6317(3)
O6 O 0.7197(4) 0.7376(4) 0.7751(3)
C1 C 0.3120(3) 0.7875(3) 0.2761(3)
C2 C 0.3455(4) 0.6963(4) 0.2004(3)
H1 H 0.4087 0.6120 0.2155
C3 C 0.2832(5) 0.7317(5) 0.0995(3)
H2 H 0.3056 0.6710 0.0464
C4 C 0.1904(5) 0.8540(5) 0.0792(3)
H3 H 0.1482 0.8766 0.0123
C5 C 0.1583(4) 0.9441(5) 0.1552(4)
H4 H 0.0950 1.0283 0.1400
C6 C 0.2197(4) 0.9111(4) 0.2559(3)
H5 H 0.1979 0.9724 0.3084
C7 C 0.6855(4) 0.7655(3) 0.2559(3)
C8 C 0.6267(4) 0.8646(4) 0.1779(3)
H6 H 0.5340 0.9059 0.1756
C9 C 0.7099(5) 0.9018(4) 0.1018(3)
H7 H 0.6728 0.9695 0.0480
C10 C 0.8466(5) 0.8391(5) 0.1057(4)
H8 H 0.9016 0.8640 0.0543
C11 C 0.9013(4) 0.7411(5) 0.1843(4)
H9 H 0.9939 0.6996 0.1868
C12 C 0.8214(4) 0.7022(4) 0.2605(3)
H10 H 0.8591 0.6343 0.3140
C13 C 0.5334(3) 0.7216(3) 0.5420(3)
H11 H 0.5843 0.6277 0.5333
C14 C 0.4168(3) 0.7289(3) 0.6188(2)
C15 C 0.3380(4) 0.8447(3) 0.6660(3)
H12 H 0.3548 0.9219 0.6480
C16 C 0.2359(4) 0.8463(4) 0.7387(3)
H13 H 0.1839 0.9246 0.7692
C17 C 0.2095(3) 0.7328(4) 0.7673(3)
C18 C 0.2861(4) 0.6173(3) 0.7211(3)
H14 H 0.2695 0.5401 0.7395
C19 C 0.3878(3) 0.6177(3) 0.6474(3)
H15 H 0.4387 0.5397 0.6159
C20 C 0.0715(5) 0.6320(5) 0.8685(4)
H16 H 0.0481 0.6045 0.8031
H17 H -0.0036 0.6542 0.9191
H18 H 0.1460 0.5613 0.9012
C21 C 0.9574(10) 0.7287(12) 0.5471(9)
H19 H 0.9301 0.6844 0.4933
H20 H 1.0397 0.6670 0.5788
C22 C 0.980(2) 0.847(3) 0.493(2)
H21 H 1.0482 0.8202 0.4364
H22 H 1.0091 0.8897 0.5464
H23 H 0.8987 0.9080 0.4619
C23 C 0.6215(10) 0.7223(16) 0.8459(7)
H24 H 0.5723 0.6800 0.8093
H25 H 0.5592 0.8091 0.8630
C24 C 0.6724(16) 0.6438(17) 0.9488(8)
H26 H 0.5991 0.6347 0.9928
H27 H 0.7165 0.6877 0.9879
H28 H 0.7348 0.5579 0.9327
H39 H 0.601(3) 0.856(3) 0.577(3)
C25? C 0.8921(13) 0.7909(15) 0.5171(8)
H29? H 0.8247 0.8694 0.4835
H30? H 0.8985 0.7160 0.4773
C26? C 1.024(2) 0.807(4) 0.513(3)
H31? H 1.0500 0.8207 0.4376
H32? H 1.0900 0.7296 0.5461
H33? H 1.0165 0.8827 0.5510
C27? C 0.7090(13) 0.6525(15) 0.8640(8)
H34? H 0.7782 0.6410 0.9155
H35? H 0.7228 0.5666 0.8388
C28? C 0.5752(14) 0.705(2) 0.9204(11)
H36? H 0.5694 0.6428 0.9791
H37? H 0.5064 0.7186 0.8691
H38? H 0.5635 0.7875 0.9492
loop_
_geom_bond_atom_site_label_1
_geom_bond_atom_site_label_2
_geom_bond_site_symmetry_1
_geom_bond_site_symmetry_2
P1 O1 1_555 1_555
P2 N1 1_555 1_555
N1 C13 1_555 1_555
O2 P1 1_555 1_555
O3 P1 1_555 1_555
O4 C17 1_555 1_555
S1 P2 1_555 1_555
O5 P2 1_555 1_555
O6 P2 1_555 1_555
C1 O2 1_555 1_555
C2 C1 1_555 1_555
H1 C2 1_555 1_555
C3 C2 1_555 1_555
H2 C3 1_555 1_555
C4 C3 1_555 1_555
H3 C4 1_555 1_555
C5 C4 1_555 1_555
H4 C5 1_555 1_555
C6 C1 1_555 1_555
H5 C6 1_555 1_555
C7 O3 1_555 1_555
C8 C7 1_555 1_555
H6 C8 1_555 1_555
C9 C8 1_555 1_555
H7 C9 1_555 1_555
C10 C9 1_555 1_555
H8 C10 1_555 1_555
C11 C10 1_555 1_555
H9 C11 1_555 1_555
C12 C7 1_555 1_555
H10 C12 1_555 1_555
C13 P1 1_555 1_555
H11 C13 1_555 1_555
C14 C13 1_555 1_555
C15 C14 1_555 1_555
H12 C15 1_555 1_555
C16 C15 1_555 1_555
H13 C16 1_555 1_555
C17 C16 1_555 1_555
C18 C17 1_555 1_555
H14 C18 1_555 1_555
C19 C14 1_555 1_555
H15 C19 1_555 1_555
C20 O4 1_555 1_555
H16 C20 1_555 1_555
H17 C20 1_555 1_555
H18 C20 1_555 1_555
C21 O5 1_555 1_555
H19 C21 1_555 1_555
H20 C21 1_555 1_555
C22 C21 1_555 1_555
H21 C22 1_555 1_555
H22 C22 1_555 1_555
H23 C22 1_555 1_555
C23 O6 1_555 1_555
H24 C23 1_555 1_555
H25 C23 1_555 1_555
C24 C23 1_555 1_555
H26 C24 1_555 1_555
H27 C24 1_555 1_555
H28 C24 1_555 1_555
H39 N1 1_555 1_555
C5 C6 1_555 1_555
C11 C12 1_555 1_555
C18 C19 1_555 1_555

#END
