
#######################################################################
#
#                 Cambridge Crystallographic Data Centre
#                                CCDC 
#
#######################################################################
#
# If this CIF has been generated from an entry in the Cambridge 
# Structural Database, then it will include bibliographic, chemical, 
# crystal, experimental, refinement or atomic coordinate data resulting 
# from the CCDC's data processing and validation procedures.
#
#######################################################################

data_CIKDEG
_chemical_formula_moiety         'C12 H9 N2 1+,C7 H5 O5 S1 1-,2(H2 O1)'
_chemical_name_systematic        
'1,10-phenanthrolin-1-ium 4-carboxybenzenesulfonate dihydrate'
_symmetry_cell_setting           tetragonal
_symmetry_space_group_name_H-M   'P 41'
_symmetry_Int_Tables_number      76
_space_group_name_Hall           'P 4w'
loop_
_symmetry_equiv_pos_site_id
_symmetry_equiv_pos_as_xyz
1 x,y,z
2 -x,-y,1/2+z
3 -y,x,1/4+z
4 y,-x,3/4+z
_cell_length_a                   7.1807(6)
_cell_length_b                   7.1807(6)
_cell_length_c                   36.171(3)
_cell_angle_alpha                90
_cell_angle_beta                 90
_cell_angle_gamma                90
_cell_volume                     1865.07
_exptl_crystal_colour            colorless
_exptl_crystal_description       prism
_cell_formula_units_Z            4
loop_
_atom_site_label
_atom_site_type_symbol
_atom_site_fract_x
_atom_site_fract_y
_atom_site_fract_z
S1 S 0.68024(7) 0.71642(7) 0.397327(13)
O1 O 1.1848(3) 0.8081(3) 0.24149(4)
O2 O 1.3954(2) 0.8938(2) 0.28284(4)
O3 O 0.5662(2) 0.8832(3) 0.39467(5)
O4 O 0.5788(3) 0.5473(3) 0.38904(5)
O5 O 0.7784(2) 0.7071(3) 0.43204(4)
C1 C 1.2287(3) 0.8332(3) 0.27332(5)
C2 C 1.1013(3) 0.7981(3) 0.30504(5)
C3 C 0.9188(3) 0.7442(3) 0.29738(6)
H5 H 0.8814 0.7277 0.2730
C4 C 0.7939(3) 0.7152(3) 0.32552(5)
H6 H 0.6725 0.6789 0.3202
C5 C 0.8499(3) 0.7405(3) 0.36198(5)
C6 C 1.0315(3) 0.7901(3) 0.37011(5)
H7 H 1.0689 0.8037 0.3946
C7 C 1.1577(3) 0.8193(3) 0.34169(5)
H8 H 1.2798 0.8530 0.3471
H18 H 1.465(4) 0.918(5) 0.2641(6)
H1 H 0.978(2) 0.726(4) 0.2103(9)
H2 H 0.889(4) 0.604(3) 0.1870(7)
O6 O 0.8735(3) 0.6959(4) 0.20144(7)
H3 H 0.682(4) 0.847(3) 0.2161(8)
H4 H 0.614(4) 1.027(2) 0.2132(8)
O7 O 0.6064(3) 0.9260(3) 0.22518(5)
N1 N 0.2547(2) 0.3657(3) 0.36506(5)
N2 N 0.3836(3) 0.4006(3) 0.29415(5)
C8 C 0.2033(3) 0.3484(3) 0.40028(6)
H9 H 0.2851 0.3824 0.4190
C9 C 0.0292(3) 0.2802(3) 0.40900(7)
H10 H -0.0053 0.2630 0.4336
C10 C -0.0926(3) 0.2379(3) 0.38099(7)
H11 H -0.2115 0.1950 0.3866
C11 C -0.0394(3) 0.2590(3) 0.34404(6)
C12 C -0.1598(3) 0.2159(3) 0.31366(8)
H12 H -0.2808 0.1757 0.3182
C13 C -0.0991(4) 0.2330(3) 0.27843(8)
H13 H -0.1791 0.2039 0.2591
C14 C 0.0846(3) 0.2947(3) 0.27044(7)
C15 C 0.1549(5) 0.3147(4) 0.23409(7)
H14 H 0.0796 0.2882 0.2138
C16 C 0.3323(5) 0.3726(4) 0.22901(7)
H15 H 0.3808 0.3838 0.2053
C17 C 0.1414(3) 0.3215(2) 0.33640(5)
C18 C 0.4418(4) 0.4151(4) 0.25969(7)
H16 H 0.5629 0.4562 0.2556
C19 C 0.2081(3) 0.3401(3) 0.29933(6)
H17 H 0.362(2) 0.402(4) 0.3611(10)
loop_
_geom_bond_atom_site_label_1
_geom_bond_atom_site_label_2
_geom_bond_site_symmetry_1
_geom_bond_site_symmetry_2
S1 O3 1_555 1_555
O1 C1 1_555 1_555
O2 C1 1_555 1_555
O4 S1 1_555 1_555
O5 S1 1_555 1_555
H1 O6 1_555 1_555
H2 O6 1_555 1_555
H3 O7 1_555 1_555
H4 O7 1_555 1_555
C1 C2 1_555 1_555
C2 C3 1_555 1_555
C3 H5 1_555 1_555
C4 C3 1_555 1_555
H6 C4 1_555 1_555
C5 S1 1_555 1_555
C6 C5 1_555 1_555
H7 C6 1_555 1_555
C7 C2 1_555 1_555
H8 C7 1_555 1_555
N1 C8 1_555 1_555
N2 C18 1_555 1_555
C8 H9 1_555 1_555
C9 C8 1_555 1_555
H10 C9 1_555 1_555
C10 C9 1_555 1_555
H11 C10 1_555 1_555
C11 C10 1_555 1_555
C12 C11 1_555 1_555
H12 C12 1_555 1_555
C13 C12 1_555 1_555
H13 C13 1_555 1_555
C14 C13 1_555 1_555
C15 C14 1_555 1_555
H14 C15 1_555 1_555
C16 C15 1_555 1_555
H15 C16 1_555 1_555
C17 N1 1_555 1_555
C18 C16 1_555 1_555
H16 C18 1_555 1_555
C19 N2 1_555 1_555
H17 N1 1_555 1_555
H18 O2 1_555 1_555
C4 C5 1_555 1_555
C6 C7 1_555 1_555
C11 C17 1_555 1_555
C14 C19 1_555 1_555
C17 C19 1_555 1_555

#END
