
#######################################################################
#
#                 Cambridge Crystallographic Data Centre
#                                CCDC 
#
#######################################################################
#
# If this CIF has been generated from an entry in the Cambridge 
# Structural Database, then it will include bibliographic, chemical, 
# crystal, experimental, refinement or atomic coordinate data resulting 
# from the CCDC's data processing and validation procedures.
#
#######################################################################

data_CIKFEI
_chemical_formula_moiety         'C31 H28 N2 O6 S2'
_chemical_name_systematic        
'(E)-methyl 2-((1,4-di-p-tosyl-1,2,3,4-tetrahydroquinoxalin-2-ylidene)methyl)benzoate'
_symmetry_cell_setting           triclinic
_symmetry_space_group_name_H-M   'P -1'
_symmetry_Int_Tables_number      2
_space_group_name_Hall           '-P 1'
loop_
_symmetry_equiv_pos_site_id
_symmetry_equiv_pos_as_xyz
1 x,y,z
2 -x,-y,-z
_cell_length_a                   10.1431(7)
_cell_length_b                   11.7721(4)
_cell_length_c                   11.8879(9)
_cell_angle_alpha                101.0930(10)
_cell_angle_beta                 103.928(2)
_cell_angle_gamma                91.248(3)
_cell_volume                     1348.55
_exptl_crystal_colour            colorless
_exptl_crystal_description       block
_chemical_melting_point          '441 K'
_cell_formula_units_Z            2
_exptl_crystal_recrystallization_method 'chloroform/light petroleum'
loop_
_atom_site_label
_atom_site_type_symbol
_atom_site_fract_x
_atom_site_fract_y
_atom_site_fract_z
S1 S 0.08193(4) 0.27896(4) 0.10050(4)
S2 S 0.54542(4) 0.24880(4) 0.47822(4)
N1 N 0.22339(15) 0.23010(13) 0.18022(13)
N2 N 0.38448(15) 0.27713(12) 0.42298(13)
O1 O -0.02637(13) 0.19212(11) 0.07954(11)
O2 O 0.11751(13) 0.31297(11) 0.00200(11)
O3 O 0.54273(13) 0.18077(11) 0.56543(11)
O4 O 0.62193(13) 0.35885(11) 0.51281(11)
O5 O 0.54019(14) 0.22762(12) -0.01423(12)
O6 O 0.72143(13) 0.31911(11) -0.04071(11)
C1 C 0.09944(19) 0.51271(16) 0.18985(18)
H1 H 0.1476 0.5215 0.1343
C2 C 0.0770(2) 0.60805(17) 0.26909(18)
H2 H 0.1126 0.6810 0.2676
C3 C 0.0023(2) 0.59778(17) 0.35109(17)
C4 C -0.0489(2) 0.48755(17) 0.35234(17)
H3 H -0.1008 0.4792 0.4054
C5 C -0.02450(19) 0.39028(16) 0.27664(16)
H4 H -0.0567 0.3169 0.2805
C6 C 0.04909(18) 0.40359(16) 0.19437(16)
C7 C -0.0229(2) 0.70366(18) 0.43458(19)
H5 H -0.0810 0.6817 0.4808
H6 H -0.0659 0.7585 0.3900
H7 H 0.0623 0.7383 0.4862
C8 C 0.20792(18) 0.15653(15) 0.26057(16)
C9 C 0.12101(18) 0.05552(16) 0.21971(17)
H8 H 0.0762 0.0349 0.1399
C10 C 0.10067(19) -0.01407(16) 0.29600(18)
H9 H 0.0412 -0.0803 0.2676
C11 C 0.1686(2) 0.01447(17) 0.41483(18)
H10 H 0.1528 -0.0310 0.4668
C12 C 0.25986(19) 0.11074(16) 0.45551(17)
H11 H 0.3063 0.1292 0.5350
C13 C 0.28362(17) 0.18105(15) 0.37916(16)
C14 C 0.59961(17) 0.16309(15) 0.36214(15)
C15 C 0.56057(19) 0.04530(15) 0.32920(16)
H12 H 0.5078 0.0112 0.3695
C16 C 0.60124(19) -0.02064(16) 0.23567(17)
H13 H 0.5747 -0.0995 0.2128
C17 C 0.68126(18) 0.02893(16) 0.17495(16)
C18 C 0.71951(19) 0.14693(16) 0.21036(17)
H14 H 0.7734 0.1810 0.1710
C19 C 0.67901(18) 0.21473(16) 0.30302(17)
H15 H 0.7046 0.2938 0.3254
C20 C 0.7231(2) -0.04244(17) 0.07159(18)
H16 H 0.7495 -0.1161 0.0894
H17 H 0.7985 -0.0023 0.0567
H18 H 0.6480 -0.0545 0.0027
C21 C 0.36741(18) 0.36796(15) 0.35095(16)
H19 H 0.4498 0.4191 0.3739
H20 H 0.2932 0.4140 0.3666
C22 C 0.33779(17) 0.31632(15) 0.22057(16)
C23 C 0.40004(18) 0.34132(15) 0.14055(16)
H21 H 0.3733 0.2940 0.0655
C24 C 0.50588(18) 0.43464(15) 0.15655(15)
C25 C 0.50153(19) 0.54244(15) 0.22961(16)
H22 H 0.4343 0.5525 0.2711
C26 C 0.59472(19) 0.63431(16) 0.24160(16)
H23 H 0.5904 0.7046 0.2917
C27 C 0.69420(19) 0.62196(16) 0.17936(16)
H24 H 0.7565 0.6838 0.1869
C28 C 0.70038(18) 0.51690(16) 0.10582(16)
H25 H 0.7674 0.5087 0.0641
C29 C 0.60818(18) 0.42322(15) 0.09311(15)
C30 C 0.61616(18) 0.31296(16) 0.00907(16)
C31 C 0.7330(2) 0.21694(17) -0.12621(17)
H26 H 0.8216 0.2198 -0.1415
H27 H 0.6646 0.2142 -0.1985
H28 H 0.7204 0.1489 -0.0955
loop_
_geom_bond_atom_site_label_1
_geom_bond_atom_site_label_2
_geom_bond_site_symmetry_1
_geom_bond_site_symmetry_2
S1 N1 1_555 1_555
S2 N2 1_555 1_555
N1 C8 1_555 1_555
N2 C13 1_555 1_555
O1 S1 1_555 1_555
O2 S1 1_555 1_555
O3 S2 1_555 1_555
O4 S2 1_555 1_555
O5 C30 1_555 1_555
O6 C30 1_555 1_555
C1 H1 1_555 1_555
C2 C1 1_555 1_555
H2 C2 1_555 1_555
C3 C2 1_555 1_555
C4 C3 1_555 1_555
H3 C4 1_555 1_555
C5 C4 1_555 1_555
H4 C5 1_555 1_555
C6 S1 1_555 1_555
C7 C3 1_555 1_555
H5 C7 1_555 1_555
H6 C7 1_555 1_555
H7 C7 1_555 1_555
C8 C9 1_555 1_555
C9 H8 1_555 1_555
C10 C9 1_555 1_555
H9 C10 1_555 1_555
C11 C10 1_555 1_555
H10 C11 1_555 1_555
C12 C11 1_555 1_555
H11 C12 1_555 1_555
C13 C8 1_555 1_555
C14 S2 1_555 1_555
C15 C14 1_555 1_555
H12 C15 1_555 1_555
C16 C15 1_555 1_555
H13 C16 1_555 1_555
C17 C16 1_555 1_555
C18 C17 1_555 1_555
H14 C18 1_555 1_555
C19 C14 1_555 1_555
H15 C19 1_555 1_555
C20 C17 1_555 1_555
H16 C20 1_555 1_555
H17 C20 1_555 1_555
H18 C20 1_555 1_555
C21 N2 1_555 1_555
H19 C21 1_555 1_555
H20 C21 1_555 1_555
C22 N1 1_555 1_555
C23 C22 1_555 1_555
H21 C23 1_555 1_555
C24 C23 1_555 1_555
C25 C24 1_555 1_555
H22 C25 1_555 1_555
C26 C25 1_555 1_555
H23 C26 1_555 1_555
C27 C26 1_555 1_555
H24 C27 1_555 1_555
C28 C27 1_555 1_555
H25 C28 1_555 1_555
C29 C24 1_555 1_555
C30 C29 1_555 1_555
C31 O6 1_555 1_555
H26 C31 1_555 1_555
H27 C31 1_555 1_555
H28 C31 1_555 1_555
C1 C6 1_555 1_555
C5 C6 1_555 1_555
C12 C13 1_555 1_555
C18 C19 1_555 1_555
C21 C22 1_555 1_555
C28 C29 1_555 1_555

#END
