
#######################################################################
#
#                 Cambridge Crystallographic Data Centre
#                                CCDC 
#
#######################################################################
#
# If this CIF has been generated from an entry in the Cambridge 
# Structural Database, then it will include bibliographic, chemical, 
# crystal, experimental, refinement or atomic coordinate data resulting 
# from the CCDC's data processing and validation procedures.
#
#######################################################################

data_CIKFAE
_chemical_formula_moiety         'C30 H28 N2 O5 S2'
_chemical_name_systematic        
(E)-2-(2-methoxybenzylidene)-1,4-di-p-tosyl-1,2,3,4-tetrahydroquinoxaline
_symmetry_cell_setting           monoclinic
_symmetry_space_group_name_H-M   'P 21/c'
_symmetry_Int_Tables_number      14
_space_group_name_Hall           '-P 2ybc'
loop_
_symmetry_equiv_pos_site_id
_symmetry_equiv_pos_as_xyz
1 x,y,z
2 -x,1/2+y,1/2-z
3 -x,-y,-z
4 x,1/2-y,1/2+z
_cell_length_a                   10.4081(5)
_cell_length_b                   24.0202(11)
_cell_length_c                   10.2842(5)
_cell_angle_alpha                90
_cell_angle_beta                 93.314(10)
_cell_angle_gamma                90
_cell_volume                     2566.8
_exptl_crystal_colour            colorless
_exptl_crystal_description       block
_chemical_melting_point          '442 K'
_cell_formula_units_Z            4
_exptl_crystal_recrystallization_method 'chloroform/light petroleum'
loop_
_atom_site_label
_atom_site_type_symbol
_atom_site_fract_x
_atom_site_fract_y
_atom_site_fract_z
S1 S 0.62971(3) 0.305435(14) 0.24029(3)
S2 S 0.17251(3) 0.377587(14) 0.48384(3)
O1 O 0.65777(9) 0.24748(4) 0.25798(10)
O2 O 0.65163(9) 0.33134(4) 0.11846(9)
O3 O 0.11113(10) 0.34710(5) 0.58191(10)
O4 O 0.18676(10) 0.43673(4) 0.49690(10)
O5 O 0.27924(10) 0.45069(4) -0.01747(9)
N1 N 0.47210(11) 0.31503(5) 0.26630(11)
N2 N 0.32243(11) 0.35246(5) 0.47786(11)
C1 C 0.75481(13) 0.39671(6) 0.33998(14)
H1 H 0.7454 0.4114 0.2563
C2 C 0.81261(13) 0.42776(6) 0.44046(14)
H2 H 0.8422 0.4634 0.4238
C3 C 0.82709(13) 0.40621(6) 0.56645(14)
C4 C 0.78144(13) 0.35263(6) 0.58967(14)
H3 H 0.7902 0.3380 0.6734
C5 C 0.72344(13) 0.32094(6) 0.49043(13)
H4 H 0.6933 0.2853 0.5068
C6 C 0.71103(12) 0.34348(6) 0.36530(13)
C7 C 0.89080(15) 0.44016(6) 0.67470(14)
H5 H 0.9445 0.4680 0.6386
H6 H 0.9424 0.4163 0.7314
H7 H 0.8262 0.4579 0.7232
C8 C 0.40703(12) 0.27614(6) 0.34536(13)
C9 C 0.40765(13) 0.21966(6) 0.31317(14)
H8 H 0.4516 0.2078 0.2420
C10 C 0.34383(14) 0.18123(6) 0.38572(15)
H9 H 0.3445 0.1437 0.3631
C11 C 0.27876(14) 0.19864(6) 0.49226(15)
H10 H 0.2381 0.1726 0.5428
C12 C 0.27415(13) 0.25442(6) 0.52360(14)
H11 H 0.2301 0.2658 0.5952
C13 C 0.33505(13) 0.29413(6) 0.44883(13)
C14 C 0.09300(13) 0.36270(6) 0.33195(14)
C15 C 0.03889(14) 0.31029(6) 0.30990(15)
H12 H 0.0420 0.2837 0.3758
C16 C -0.01969(14) 0.29810(6) 0.18858(16)
H13 H -0.0548 0.2629 0.1733
C17 C -0.02683(13) 0.33776(6) 0.08912(15)
C18 C 0.02633(14) 0.39022(6) 0.11502(14)
H14 H 0.0205 0.4174 0.0504
C19 C 0.08752(14) 0.40287(6) 0.23433(14)
H15 H 0.1245 0.4377 0.2491
C20 C -0.08725(15) 0.32439(7) -0.04338(15)
H16 H -0.0227 0.3255 -0.1063
H17 H -0.1530 0.3513 -0.0662
H18 H -0.1247 0.2879 -0.0423
C21 C 0.41718(13) 0.38918(6) 0.41902(13)
H19 H 0.4984 0.3872 0.4700
H20 H 0.3870 0.4274 0.4212
C22 C 0.43789(12) 0.37299(5) 0.28065(13)
C23 C 0.42993(12) 0.40538(6) 0.17546(13)
H21 H 0.4363 0.3875 0.0959
C24 C 0.41222(13) 0.46625(6) 0.17024(13)
C25 C 0.47475(13) 0.50299(6) 0.25836(13)
H22 H 0.5235 0.4888 0.3295
C26 C 0.46544(14) 0.56034(6) 0.24173(14)
H23 H 0.5073 0.5842 0.3015
C27 C 0.39376(14) 0.58176(6) 0.13609(14)
H24 H 0.3884 0.6201 0.1244
C28 C 0.32938(13) 0.54639(6) 0.04694(14)
H25 H 0.2805 0.5610 -0.0235
C29 C 0.33861(13) 0.48906(6) 0.06398(13)
C30 C 0.21005(15) 0.47027(6) -0.13207(14)
H26 H 0.1745 0.4392 -0.1805
H27 H 0.2673 0.4904 -0.1848
H28 H 0.1417 0.4944 -0.1081
loop_
_geom_bond_atom_site_label_1
_geom_bond_atom_site_label_2
_geom_bond_site_symmetry_1
_geom_bond_site_symmetry_2
S1 O1 1_555 1_555
S2 O3 1_555 1_555
O2 S1 1_555 1_555
O4 S2 1_555 1_555
O5 C29 1_555 1_555
N1 S1 1_555 1_555
N2 S2 1_555 1_555
C1 H1 1_555 1_555
C2 C1 1_555 1_555
H2 C2 1_555 1_555
C3 C2 1_555 1_555
C4 C3 1_555 1_555
H3 C4 1_555 1_555
C5 C4 1_555 1_555
H4 C5 1_555 1_555
C6 S1 1_555 1_555
C7 C3 1_555 1_555
H5 C7 1_555 1_555
H6 C7 1_555 1_555
H7 C7 1_555 1_555
C8 N1 1_555 1_555
C9 C8 1_555 1_555
H8 C9 1_555 1_555
C10 C9 1_555 1_555
H9 C10 1_555 1_555
C11 C10 1_555 1_555
H10 C11 1_555 1_555
C12 C11 1_555 1_555
H11 C12 1_555 1_555
C13 N2 1_555 1_555
C14 S2 1_555 1_555
C15 C14 1_555 1_555
H12 C15 1_555 1_555
C16 C15 1_555 1_555
H13 C16 1_555 1_555
C17 C16 1_555 1_555
C18 C17 1_555 1_555
H14 C18 1_555 1_555
C19 C14 1_555 1_555
H15 C19 1_555 1_555
C20 C17 1_555 1_555
H16 C20 1_555 1_555
H17 C20 1_555 1_555
H18 C20 1_555 1_555
C21 N2 1_555 1_555
H19 C21 1_555 1_555
H20 C21 1_555 1_555
C22 N1 1_555 1_555
C23 C22 1_555 1_555
H21 C23 1_555 1_555
C24 C23 1_555 1_555
C25 C24 1_555 1_555
H22 C25 1_555 1_555
C26 C25 1_555 1_555
H23 C26 1_555 1_555
C27 C26 1_555 1_555
H24 C27 1_555 1_555
C28 C27 1_555 1_555
H25 C28 1_555 1_555
C29 C24 1_555 1_555
C30 O5 1_555 1_555
H26 C30 1_555 1_555
H27 C30 1_555 1_555
H28 C30 1_555 1_555
C1 C6 1_555 1_555
C5 C6 1_555 1_555
C8 C13 1_555 1_555
C12 C13 1_555 1_555
C18 C19 1_555 1_555
C21 C22 1_555 1_555
C28 C29 1_555 1_555

#END
