
#######################################################################
#
#                 Cambridge Crystallographic Data Centre
#                                CCDC 
#
#######################################################################
#
# If this CIF has been generated from an entry in the Cambridge 
# Structural Database, then it will include bibliographic, chemical, 
# crystal, experimental, refinement or atomic coordinate data resulting 
# from the CCDC's data processing and validation procedures.
#
#######################################################################

data_CIKLEO
_chemical_compound_source        'Digitalis lanata'
_chemical_name_common            Tigogenin
_chemical_formula_moiety         'C27 H44 O3,H2 O1'
_chemical_name_systematic        '(25R)-5\a-spirostan-3\b-ol monohydrate'
_symmetry_cell_setting           monoclinic
_symmetry_space_group_name_H-M   'P 21'
_symmetry_Int_Tables_number      4
_space_group_name_Hall           'P 2yb'
loop_
_symmetry_equiv_pos_site_id
_symmetry_equiv_pos_as_xyz
1 x,y,z
2 -x,1/2+y,-z
_cell_length_a                   10.283(7)
_cell_length_b                   7.374(5)
_cell_length_c                   16.637(11)
_cell_angle_alpha                90
_cell_angle_beta                 94.72(5)
_cell_angle_gamma                90
_cell_volume                     1257.25
_exptl_crystal_colour            colorless
_exptl_crystal_description       plate
_chemical_melting_point          '209-211 deg.C'
_cell_formula_units_Z            2
_exptl_crystal_recrystallization_method chloroform
loop_
_atom_site_label
_atom_site_type_symbol
_atom_site_fract_x
_atom_site_fract_y
_atom_site_fract_z
O1 O 0.3256(4) 0.3212(5) 0.2628(2)
C1 C 0.1696(6) 0.7009(7) 0.7248(3)
H1 H 0.2323 0.7968 0.7181
H2 H 0.0866 0.7393 0.6982
O2 O 0.2341(3) 0.4873(6) 0.15352(19)
C2 C 0.1541(6) 0.6767(8) 0.8149(3)
H3 H 0.2389 0.6540 0.8430
H4 H 0.1199 0.7877 0.8362
O3 O 0.0594(5) 0.5062(7) 0.9157(2)
C3 C 0.0640(6) 0.5223(8) 0.8303(3)
H5 H -0.0236 0.5517 0.8061
C4 C 0.1096(6) 0.3502(8) 0.7923(3)
H6 H 0.0479 0.2536 0.8003
H7 H 0.1935 0.3150 0.8187
C5 C 0.1223(6) 0.3752(7) 0.7016(3)
H8 H 0.0357 0.4133 0.6788
C6 C 0.1506(6) 0.2008(7) 0.6592(3)
H9 H 0.0875 0.1096 0.6721
H10 H 0.2366 0.1577 0.6786
C7 C 0.1447(6) 0.2256(7) 0.5676(3)
H11 H 0.1725 0.1143 0.5430
H12 H 0.0552 0.2491 0.5471
C8 C 0.2312(5) 0.3818(7) 0.5434(3)
H13 H 0.3225 0.3478 0.5567
C9 C 0.2031(5) 0.5565(7) 0.5899(3)
H14 H 0.1115 0.5866 0.5747
C10 C 0.2144(5) 0.5296(7) 0.6833(3)
C11 C 0.2833(6) 0.7163(8) 0.5611(3)
H15 H 0.3750 0.6950 0.5768
H16 H 0.2578 0.8262 0.5878
C12 C 0.2648(5) 0.7441(8) 0.4693(3)
H17 H 0.1756 0.7814 0.4545
H18 H 0.3220 0.8407 0.4542
C13 C 0.2939(4) 0.5734(7) 0.4232(3)
C14 C 0.2115(5) 0.4188(7) 0.4532(3)
H19 H 0.1206 0.4578 0.4430
C15 C 0.2304(6) 0.2673(8) 0.3925(3)
H20 H 0.3145 0.2085 0.4033
H21 H 0.1618 0.1771 0.3929
C16 C 0.2229(5) 0.3717(8) 0.3126(3)
H22 H 0.1372 0.3554 0.2831
C17 C 0.2481(5) 0.5748(8) 0.3321(3)
H23 H 0.1654 0.6409 0.3242
C18 C 0.4412(5) 0.5327(8) 0.4365(3)
H24 H 0.4607 0.4242 0.4080
H25 H 0.4650 0.5163 0.4931
H26 H 0.4897 0.6323 0.4168
C19 C 0.3554(5) 0.4867(10) 0.7141(3)
H27 H 0.3606 0.4704 0.7716
H28 H 0.4110 0.5852 0.7011
H29 H 0.3830 0.3775 0.6891
C20 C 0.3380(6) 0.6373(8) 0.2686(3)
H30 H 0.4253 0.6532 0.2960
C21 C 0.2997(7) 0.8165(8) 0.2279(4)
H31 H 0.3006 0.9106 0.2678
H32 H 0.2138 0.8063 0.2011
H33 H 0.3608 0.8456 0.1892
C22 C 0.3438(5) 0.4726(9) 0.2133(3)
C23 C 0.4676(6) 0.4500(11) 0.1725(4)
H34 H 0.5392 0.4272 0.2129
H35 H 0.4864 0.5615 0.1448
C24 C 0.4584(6) 0.2928(11) 0.1114(4)
H36 H 0.5354 0.2930 0.0814
H37 H 0.4565 0.1786 0.1403
C25 C 0.3375(7) 0.3076(10) 0.0530(4)
H38 H 0.3457 0.4161 0.0198
C26 C 0.3187(10) 0.1442(12) -0.0026(4)
H39 H 0.3941 0.1299 -0.0324
H40 H 0.2430 0.1625 -0.0395
H41 H 0.3070 0.0373 0.0289
C27 C 0.2208(6) 0.3314(9) 0.1014(3)
H42 H 0.1429 0.3448 0.0649
H43 H 0.2104 0.2237 0.1337
H44 H 0.007(7) 0.409(11) 0.921(4)
O4 O 0.1115(7) 0.7493(8) 1.0426(3)
H45 H 0.156(7) 0.664(11) 1.074(4)
H46 H 0.095(7) 0.688(10) 1.003(4)
loop_
_geom_bond_atom_site_label_1
_geom_bond_atom_site_label_2
_geom_bond_site_symmetry_1
_geom_bond_site_symmetry_2
O1 C16 1_555 1_555
C1 H1 1_555 1_555
H2 C1 1_555 1_555
O2 C22 1_555 1_555
C2 C1 1_555 1_555
H3 C2 1_555 1_555
H4 C2 1_555 1_555
O3 C3 1_555 1_555
C3 C2 1_555 1_555
H5 C3 1_555 1_555
C4 C3 1_555 1_555
H6 C4 1_555 1_555
H7 C4 1_555 1_555
C5 C4 1_555 1_555
H8 C5 1_555 1_555
C6 C5 1_555 1_555
H9 C6 1_555 1_555
H10 C6 1_555 1_555
C7 C6 1_555 1_555
H11 C7 1_555 1_555
H12 C7 1_555 1_555
C8 C7 1_555 1_555
H13 C8 1_555 1_555
C9 C8 1_555 1_555
H14 C9 1_555 1_555
C10 C1 1_555 1_555
C11 C9 1_555 1_555
H15 C11 1_555 1_555
H16 C11 1_555 1_555
C12 C11 1_555 1_555
H17 C12 1_555 1_555
H18 C12 1_555 1_555
C13 C12 1_555 1_555
C14 C8 1_555 1_555
H19 C14 1_555 1_555
C15 C14 1_555 1_555
H20 C15 1_555 1_555
H21 C15 1_555 1_555
C16 C15 1_555 1_555
H22 C16 1_555 1_555
C17 C13 1_555 1_555
H23 C17 1_555 1_555
C18 C13 1_555 1_555
H24 C18 1_555 1_555
H25 C18 1_555 1_555
H26 C18 1_555 1_555
C19 C10 1_555 1_555
H27 C19 1_555 1_555
H28 C19 1_555 1_555
H29 C19 1_555 1_555
C20 C17 1_555 1_555
H30 C20 1_555 1_555
C21 C20 1_555 1_555
H31 C21 1_555 1_555
H32 C21 1_555 1_555
H33 C21 1_555 1_555
C22 O1 1_555 1_555
C23 C22 1_555 1_555
H34 C23 1_555 1_555
H35 C23 1_555 1_555
C24 C23 1_555 1_555
H36 C24 1_555 1_555
H37 C24 1_555 1_555
C25 C24 1_555 1_555
H38 C25 1_555 1_555
C26 C25 1_555 1_555
H39 C26 1_555 1_555
H40 C26 1_555 1_555
H41 C26 1_555 1_555
C27 O2 1_555 1_555
H42 C27 1_555 1_555
H43 C27 1_555 1_555
H44 O3 1_555 1_555
O4 H45 1_555 1_555
H46 O4 1_555 1_555
C5 C10 1_555 1_555
C9 C10 1_555 1_555
C13 C14 1_555 1_555
C16 C17 1_555 1_555
C20 C22 1_555 1_555
C25 C27 1_555 1_555

#END
