
#######################################################################
#
#                 Cambridge Crystallographic Data Centre
#                                CCDC 
#
#######################################################################
#
# If this CIF has been generated from an entry in the Cambridge 
# Structural Database, then it will include bibliographic, chemical, 
# crystal, experimental, refinement or atomic coordinate data resulting 
# from the CCDC's data processing and validation procedures.
#
#######################################################################

data_CIKNAL
_chemical_formula_moiety         'C16 H26 N1 S1 1+,I1 1-,H2 O1'
_chemical_name_systematic        
'Trimethyl-(2,2-dimethyl-trans-6-phenyl-thian-4-yl)ammonium iodide monohydrate'
_symmetry_cell_setting           orthorhombic
_symmetry_space_group_name_H-M   'P b c a'
_symmetry_Int_Tables_number      61
_space_group_name_Hall           '-P 2ac 2ab'
loop_
_symmetry_equiv_pos_site_id
_symmetry_equiv_pos_as_xyz
1 x,y,z
2 1/2-x,-y,1/2+z
3 1/2+x,1/2-y,-z
4 -x,1/2+y,1/2-z
5 -x,-y,-z
6 1/2+x,y,1/2-z
7 1/2-x,1/2+y,z
8 x,1/2-y,1/2+z
_cell_length_a                   20.581(14)
_cell_length_b                   20.260(9)
_cell_length_c                   8.615(3)
_cell_angle_alpha                90
_cell_angle_beta                 90
_cell_angle_gamma                90
_cell_volume                     3592.21
_chemical_melting_point          251-252deg.C
_cell_formula_units_Z            8
loop_
_atom_site_label
_atom_site_type_symbol
_atom_site_fract_x
_atom_site_fract_y
_atom_site_fract_z
S1 S 0.39519 0.30259 0.4126
C1 C 0.4651 0.3489 0.4928
C2 C 0.4405 0.4024 0.6077
C3 C 0.3896 0.3766 0.7210
C4 C 0.3237 0.3645 0.6423
C5 C 0.3290 0.3566 0.4673
C6 C 0.5013 0.3828 0.3633
C7 C 0.5094 0.2991 0.5725
N1 N 0.3822 0.4221 0.8616
C8 C 0.3640 0.4909 0.8193
C9 C 0.3326 0.3940 0.9689
C10 C 0.4453 0.4236 0.9511
C11 C 0.2672 0.3303 0.3926
C12 C 0.2347 0.3686 0.2846
C13 C 0.1796 0.3456 0.2093
C14 C 0.1572 0.2828 0.2432
C15 C 0.1885 0.2443 0.3500
C16 C 0.2427 0.2681 0.4260
H1 H 0.422 0.441 0.554
H2 H 0.481 0.413 0.669
H3 H 0.400 0.331 0.762
H4 H 0.294 0.396 0.672
H5 H 0.312 0.321 0.679
H6 H 0.345 0.396 0.397
H7 H 0.518 0.349 0.276
H8 H 0.532 0.412 0.405
H9 H 0.474 0.417 0.316
H10 H 0.484 0.270 0.648
H11 H 0.521 0.261 0.500
H12 H 0.545 0.303 0.614
H13 H 0.359 0.515 0.917
H14 H 0.392 0.506 0.764
H15 H 0.317 0.493 0.760
H16 H 0.341 0.348 1.016
H17 H 0.292 0.405 0.914
H18 H 0.330 0.421 1.061
H19 H 0.483 0.454 0.890
H20 H 0.449 0.382 0.978
H21 H 0.434 0.447 1.050
H22 H 0.249 0.413 0.258
H23 H 0.156 0.376 0.145
H24 H 0.131 0.266 0.202
H25 H 0.173 0.206 0.367
H26 H 0.265 0.239 0.490
I1 I 0.14507 0.04080 0.30190
O1 O 0.5783 0.3557 0.9691
loop_
_geom_bond_atom_site_label_1
_geom_bond_atom_site_label_2
_geom_bond_site_symmetry_1
_geom_bond_site_symmetry_2
S1 C1 1_555 1_555
C1 C2 1_555 1_555
C2 C3 1_555 1_555
C3 C4 1_555 1_555
C4 C5 1_555 1_555
C5 S1 1_555 1_555
C6 C1 1_555 1_555
C7 C1 1_555 1_555
N1 C3 1_555 1_555
C8 N1 1_555 1_555
C9 N1 1_555 1_555
C10 N1 1_555 1_555
C11 C5 1_555 1_555
C12 C11 1_555 1_555
C13 C12 1_555 1_555
C14 C13 1_555 1_555
C15 C14 1_555 1_555
C16 C11 1_555 1_555
H1 C2 1_555 1_555
H2 C2 1_555 1_555
H3 C3 1_555 1_555
H4 C4 1_555 1_555
H5 C4 1_555 1_555
H6 C5 1_555 1_555
H7 C6 1_555 1_555
H8 C6 1_555 1_555
H9 C6 1_555 1_555
H10 C7 1_555 1_555
H11 C7 1_555 1_555
H12 C7 1_555 1_555
H13 C8 1_555 1_555
H14 C8 1_555 1_555
H15 C8 1_555 1_555
H16 C9 1_555 1_555
H17 C9 1_555 1_555
H18 C9 1_555 1_555
H19 C10 1_555 1_555
H20 C10 1_555 1_555
H21 C10 1_555 1_555
H22 C12 1_555 1_555
H23 C13 1_555 1_555
H24 C14 1_555 1_555
H25 C15 1_555 1_555
H26 C16 1_555 1_555
C15 C16 1_555 1_555

#END
