
#######################################################################
#
#                 Cambridge Crystallographic Data Centre
#                                CCDC 
#
#######################################################################
#
# If this CIF has been generated from an entry in the Cambridge 
# Structural Database, then it will include bibliographic, chemical, 
# crystal, experimental, refinement or atomic coordinate data resulting 
# from the CCDC's data processing and validation procedures.
#
#######################################################################

data_CIKPUK
_chemical_formula_moiety         'C30 H28 N2 O5'
_chemical_name_systematic        
"ethyl 2-(1',3'-dimethyl-2',4',6'-trioxo-1',3,3',3a,4',6'-hexahydro-2H,2'H-spiro[azulene-1,5'-pyrimidin]-2-ylidene)-3-(naphthalen-2-yl)propanoate"
_symmetry_cell_setting           triclinic
_symmetry_space_group_name_H-M   'P -1'
_symmetry_Int_Tables_number      2
_space_group_name_Hall           '-P 1'
loop_
_symmetry_equiv_pos_site_id
_symmetry_equiv_pos_as_xyz
1 x,y,z
2 -x,-y,-z
_cell_length_a                   8.710(4)
_cell_length_b                   9.855(4)
_cell_length_c                   15.220(7)
_cell_angle_alpha                103.508(4)
_cell_angle_beta                 95.551(6)
_cell_angle_gamma                99.99(3)
_cell_volume                     1238.12
_exptl_crystal_colour            colorless
_exptl_crystal_description       block
_cell_formula_units_Z            2
loop_
_atom_site_label
_atom_site_type_symbol
_atom_site_fract_x
_atom_site_fract_y
_atom_site_fract_z
O1 O 0.4768(2) 0.3208(2) 0.95808(12)
O2 O 0.55243(19) 0.43272(17) 0.69098(10)
O3 O 0.9611(2) 0.3337(2) 0.87180(12)
O4 O 0.65769(19) 0.15267(16) 0.71231(11)
O5 O 0.73281(19) 0.04594(16) 0.58107(11)
N1 N 0.5124(2) 0.3806(2) 0.82537(13)
N2 N 0.7219(2) 0.3363(2) 0.91940(12)
C1 C 0.7831(2) 0.4374(2) 0.79100(14)
C2 C 0.6072(3) 0.4126(2) 0.76184(14)
C3 C 0.5649(3) 0.3453(2) 0.90420(15)
C4 C 0.8312(3) 0.3604(2) 0.86132(15)
C5 C 0.3429(3) 0.3769(3) 0.8055(2)
H1 H 0.3264 0.4715 0.8083
H2 H 0.2889 0.3401 0.8497
H3 H 0.3026 0.3166 0.7455
C6 C 0.7732(4) 0.2924(3) 1.00139(17)
H4 H 0.7429 0.3514 1.0538
H5 H 0.8857 0.3024 1.0092
H6 H 0.7247 0.1947 0.9947
C7 C 0.8397(3) 0.5987(2) 0.83506(14)
C8 C 0.7992(3) 0.6732(3) 0.91163(15)
H7 H 0.7399 0.6237 0.9461
C9 C 0.8432(3) 0.8261(3) 0.94331(19)
H8 H 0.8599 0.8650 1.0061
C10 C 0.8623(3) 0.9181(3) 0.8902(2)
H9 H 0.8936 1.0144 0.9197
C11 C 0.8385(3) 0.8806(3) 0.79193(19)
H10 H 0.8001 0.9436 0.7629
C12 C 0.8678(3) 0.7613(3) 0.73939(17)
H11 H 0.8357 0.7380 0.6767
C13 C 0.9513(3) 0.6651(2) 0.77988(15)
H12 H 1.0471 0.7211 0.8201
C14 C 0.9916(3) 0.5412(2) 0.71171(15)
H13 H 0.9867 0.5591 0.6516
H14 H 1.0973 0.5297 0.7301
C15 C 0.8735(2) 0.4085(2) 0.70948(14)
C16 C 0.8552(2) 0.2842(2) 0.64700(14)
C17 C 0.9489(3) 0.2665(2) 0.56762(14)
H15 H 0.9900 0.1799 0.5620
H16 H 1.0379 0.3459 0.5803
C18 C 0.8510(3) 0.2592(2) 0.47715(15)
C19 C 0.7599(3) 0.3639(2) 0.47113(16)
H17 H 0.7615 0.4374 0.5225
C20 C 0.6698(3) 0.3586(3) 0.39107(16)
H18 H 0.6118 0.4288 0.3887
C21 C 0.6637(3) 0.2480(2) 0.31194(16)
C22 C 0.5692(3) 0.2373(3) 0.22843(16)
H19 H 0.5091 0.3055 0.2243
C23 C 0.5659(3) 0.1278(3) 0.15435(17)
H20 H 0.5024 0.1212 0.1002
C24 C 0.6571(3) 0.0248(3) 0.15856(18)
H21 H 0.6545 -0.0488 0.1072
C25 C 0.7493(3) 0.0323(3) 0.23758(17)
H22 H 0.8094 -0.0365 0.2396
C26 C 0.7552(3) 0.1427(2) 0.31653(16)
C27 C 0.8481(3) 0.1526(2) 0.40096(15)
H23 H 0.9085 0.0844 0.4043
C28 C 0.7377(3) 0.1573(2) 0.65190(14)
C29 C 0.6155(3) -0.0823(2) 0.57456(16)
H24 H 0.5100 -0.0641 0.5652
H25 H 0.6282 -0.1142 0.6300
C30 C 0.6428(4) -0.1926(3) 0.4943(2)
H26 H 0.6355 -0.1574 0.4407
H27 H 0.5646 -0.2782 0.4851
H28 H 0.7457 -0.2128 0.5060
loop_
_geom_bond_atom_site_label_1
_geom_bond_atom_site_label_2
_geom_bond_site_symmetry_1
_geom_bond_site_symmetry_2
O1 C3 1_555 1_555
O2 C2 1_555 1_555
O3 C4 1_555 1_555
O4 C28 1_555 1_555
O5 C28 1_555 1_555
N1 C2 1_555 1_555
N2 C3 1_555 1_555
C1 C2 1_555 1_555
C3 N1 1_555 1_555
C4 N2 1_555 1_555
C5 N1 1_555 1_555
H1 C5 1_555 1_555
H2 C5 1_555 1_555
H3 C5 1_555 1_555
C6 N2 1_555 1_555
H4 C6 1_555 1_555
H5 C6 1_555 1_555
H6 C6 1_555 1_555
C7 C1 1_555 1_555
C8 C7 1_555 1_555
H7 C8 1_555 1_555
C9 C8 1_555 1_555
H8 C9 1_555 1_555
C10 C9 1_555 1_555
H9 C10 1_555 1_555
C11 C10 1_555 1_555
H10 C11 1_555 1_555
C12 C11 1_555 1_555
H11 C12 1_555 1_555
C13 C7 1_555 1_555
H12 C13 1_555 1_555
C14 C13 1_555 1_555
H13 C14 1_555 1_555
H14 C14 1_555 1_555
C15 C1 1_555 1_555
C16 C15 1_555 1_555
C17 C16 1_555 1_555
H15 C17 1_555 1_555
H16 C17 1_555 1_555
C18 C17 1_555 1_555
C19 C18 1_555 1_555
H17 C19 1_555 1_555
C20 C19 1_555 1_555
H18 C20 1_555 1_555
C21 C20 1_555 1_555
C22 C21 1_555 1_555
H19 C22 1_555 1_555
C23 C22 1_555 1_555
H20 C23 1_555 1_555
C24 C23 1_555 1_555
H21 C24 1_555 1_555
C25 C24 1_555 1_555
H22 C25 1_555 1_555
C26 C21 1_555 1_555
C27 C18 1_555 1_555
H23 C27 1_555 1_555
C28 C16 1_555 1_555
C29 O5 1_555 1_555
H24 C29 1_555 1_555
H25 C29 1_555 1_555
C30 C29 1_555 1_555
H26 C30 1_555 1_555
H27 C30 1_555 1_555
H28 C30 1_555 1_555
C1 C4 1_555 1_555
C12 C13 1_555 1_555
C14 C15 1_555 1_555
C25 C26 1_555 1_555
C26 C27 1_555 1_555

#END
