
#######################################################################
#
#                 Cambridge Crystallographic Data Centre
#                                CCDC 
#
#######################################################################
#
# If this CIF has been generated from an entry in the Cambridge 
# Structural Database, then it will include bibliographic, chemical, 
# crystal, experimental, refinement or atomic coordinate data resulting 
# from the CCDC's data processing and validation procedures.
#
#######################################################################

data_CIKQAR
_chemical_formula_moiety         'C26 H24 F2 N2 O5'
_chemical_name_systematic        
"2,2-difluoroethyl 2-(1',3'-dimethyl-2',4',6'-trioxo-1',3,3',3a,4',6'-hexahydro-2H,2'H-spiro[azulene-1,5'-pyrimidin]-2-ylidene)-3-phenylpropanoate"
_symmetry_cell_setting           monoclinic
_symmetry_space_group_name_H-M   'P 21'
_symmetry_Int_Tables_number      4
_space_group_name_Hall           'P 2yb'
loop_
_symmetry_equiv_pos_site_id
_symmetry_equiv_pos_as_xyz
1 x,y,z
2 -x,1/2+y,-z
_cell_length_a                   7.5334(4)
_cell_length_b                   16.0037(7)
_cell_length_c                   9.6231(7)
_cell_angle_alpha                90
_cell_angle_beta                 94.188(6)
_cell_angle_gamma                90
_cell_volume                     1157.08
_cell_formula_units_Z            2
loop_
_atom_site_label
_atom_site_type_symbol
_atom_site_fract_x
_atom_site_fract_y
_atom_site_fract_z
O1 O -0.4128(2) -0.26446(11) -0.91625(19)
O2 O -0.4349(2) -0.43709(11) -0.77685(18)
O3 O -0.8688(2) -0.45795(11) -0.87018(19)
O4 O -0.4747(2) -0.49002(11) -1.20035(19)
O5 O -0.3606(3) -0.41603(12) -0.55068(19)
N1 N -0.6788(3) -0.47371(12) -1.0416(2)
N2 N -0.4466(3) -0.37453(13) -1.0653(2)
F1 F -0.0475(2) -0.56593(13) -0.41668(19)
C1 C -0.5003(3) -0.32328(15) -0.9602(3)
F2 F -0.0376(3) -0.43153(14) -0.3767(2)
C2 C -0.6287(4) -0.30514(16) -0.5075(3)
H1 H -0.5957 -0.3484 -0.4399
H2 H -0.7540 -0.2930 -0.5010
C3 C -0.7515(3) -0.42974(15) -0.9355(2)
C4 C -0.5302(3) -0.44815(14) -1.1081(2)
C5 C -0.4607(3) -0.40123(15) -0.6693(3)
C6 C -0.7552(4) -0.55550(16) -1.0831(3)
H3 H -0.8396 -0.5721 -1.0183
H4 H -0.6618 -0.5963 -1.0833
H5 H -0.8139 -0.5514 -1.1748
C7 C -0.3350(3) -0.08107(17) -0.3893(3)
H6 H -0.2724 -0.0328 -0.3630
C8 C -0.2751(4) -0.35655(18) -1.1234(3)
H7 H -0.1891 -0.3978 -1.0913
H8 H -0.2344 -0.3021 -1.0936
H9 H -0.2901 -0.3580 -1.2233
C9 C -0.8880(3) -0.21721(16) -0.9101(3)
H10 H -1.0160 -0.2101 -0.9331
C10 C -0.4482(4) -0.17639(18) -0.5680(3)
H11 H -0.4602 -0.1915 -0.6615
C11 C -0.8545(3) -0.28627(16) -1.1394(3)
H12 H -0.8213 -0.3335 -1.1875
C12 C -0.8189(4) -0.10270(17) -1.0695(3)
H13 H -0.7644 -0.0515 -1.0835
C13 C -0.7897(3) -0.13841(16) -0.9440(3)
H14 H -0.7089 -0.1147 -0.8777
C14 C -0.4995(3) -0.20264(16) -0.3297(3)
H15 H -0.5478 -0.2355 -0.2622
C15 C -0.2305(4) -0.48161(18) -0.5609(3)
H16 H -0.1402 -0.4649 -0.6222
H17 H -0.2870 -0.5323 -0.5974
C16 C -0.4069(4) -0.13074(18) -0.2895(3)
H18 H -0.3931 -0.1158 -0.1959
C17 C -0.8147(3) -0.28311(15) -1.0020(3)
C18 C -0.3570(4) -0.10375(18) -0.5277(3)
H19 H -0.3103 -0.0701 -0.5949
C19 C -0.6860(3) -0.34061(15) -0.9140(3)
C20 C -0.6033(3) -0.33874(16) -0.6522(3)
C21 C -0.1501(4) -0.4954(2) -0.4171(3)
H20 H -0.2432 -0.5014 -0.3519
C22 C -0.5217(3) -0.22668(16) -0.4687(3)
C23 C -0.8541(4) -0.24987(16) -0.7605(3)
H21 H -0.8204 -0.2044 -0.6973
H22 H -0.9603 -0.2764 -0.7298
C24 C -0.7042(3) -0.31264(15) -0.7643(3)
C25 C -0.9468(3) -0.21987(18) -1.2170(3)
H23 H -1.0232 -0.2344 -1.2934
C26 C -0.9282(4) -0.13741(18) -1.1845(3)
H24 H -0.9922 -0.0998 -1.2422
loop_
_geom_bond_atom_site_label_1
_geom_bond_atom_site_label_2
_geom_bond_site_symmetry_1
_geom_bond_site_symmetry_2
O1 C1 1_555 1_555
O2 C5 1_555 1_555
O3 C3 1_555 1_555
O4 C4 1_555 1_555
O5 C5 1_555 1_555
N1 C3 1_555 1_555
N2 C1 1_555 1_555
F1 C21 1_555 1_555
C1 C19 1_555 1_555
F2 C21 1_555 1_555
C2 H1 1_555 1_555
H2 C2 1_555 1_555
C3 C19 1_555 1_555
C4 N1 1_555 1_555
C5 C20 1_555 1_555
C6 N1 1_555 1_555
H3 C6 1_555 1_555
H4 C6 1_555 1_555
H5 C6 1_555 1_555
C7 H6 1_555 1_555
C8 N2 1_555 1_555
H7 C8 1_555 1_555
H8 C8 1_555 1_555
H9 C8 1_555 1_555
C9 H10 1_555 1_555
C10 H11 1_555 1_555
C11 H12 1_555 1_555
C12 H13 1_555 1_555
C13 C9 1_555 1_555
H14 C13 1_555 1_555
C14 H15 1_555 1_555
C15 O5 1_555 1_555
H16 C15 1_555 1_555
H17 C15 1_555 1_555
C16 C7 1_555 1_555
H18 C16 1_555 1_555
C17 C9 1_555 1_555
C18 C7 1_555 1_555
H19 C18 1_555 1_555
C19 C17 1_555 1_555
C20 C2 1_555 1_555
C21 C15 1_555 1_555
H20 C21 1_555 1_555
C22 C2 1_555 1_555
C23 C9 1_555 1_555
H21 C23 1_555 1_555
H22 C23 1_555 1_555
C24 C19 1_555 1_555
C25 C11 1_555 1_555
H23 C25 1_555 1_555
C26 C12 1_555 1_555
H24 C26 1_555 1_555
N2 C4 1_555 1_555
C10 C18 1_555 1_555
C10 C22 1_555 1_555
C11 C17 1_555 1_555
C12 C13 1_555 1_555
C14 C16 1_555 1_555
C14 C22 1_555 1_555
C20 C24 1_555 1_555
C23 C24 1_555 1_555
C25 C26 1_555 1_555

#END
