
#######################################################################
#
#                 Cambridge Crystallographic Data Centre
#                                CCDC 
#
#######################################################################
#
# If this CIF has been generated from an entry in the Cambridge 
# Structural Database, then it will include bibliographic, chemical, 
# crystal, experimental, refinement or atomic coordinate data resulting 
# from the CCDC's data processing and validation procedures.
#
#######################################################################

data_CIKQIY
_chemical_formula_moiety         'C4 H12 N1 O3 1+,C7 H5 O3 1-'
_chemical_name_systematic        
'1,3-Dihydroxy-2-(hydroxymethyl)propan-2-aminium 4-hydroxybenzoate'
_symmetry_cell_setting           orthorhombic
_symmetry_space_group_name_H-M   'P b c a'
_symmetry_Int_Tables_number      61
_space_group_name_Hall           '-P 2ac 2ab'
loop_
_symmetry_equiv_pos_site_id
_symmetry_equiv_pos_as_xyz
1 x,y,z
2 1/2-x,-y,1/2+z
3 -x,1/2+y,1/2-z
4 1/2+x,1/2-y,-z
5 -x,-y,-z
6 1/2+x,y,1/2-z
7 x,1/2-y,1/2+z
8 1/2-x,1/2+y,z
_cell_length_a                   9.960(2)
_cell_length_b                   11.070(2)
_cell_length_c                   22.440(5)
_cell_angle_alpha                90
_cell_angle_beta                 90
_cell_angle_gamma                90
_cell_volume                     2474.17
_cell_formula_units_Z            8
loop_
_atom_site_label
_atom_site_type_symbol
_atom_site_fract_x
_atom_site_fract_y
_atom_site_fract_z
O1 O 0.05707(15) 0.93002(13) 0.06921(8)
H1 H -0.0179 0.9033 0.0766
N1 N 0.17362(17) 0.72481(15) 0.01334(8)
H2 H 0.1481 0.6581 0.0323
H3 H 0.2248 0.7050 -0.0177
H4 H 0.1014 0.7646 0.0006
O2 O 0.38567(16) 0.98759(13) 0.04963(7)
H5 H 0.4588 0.9611 0.0602
O3 O 0.44233(16) 0.67036(14) 0.04682(7)
H6 H 0.4401 0.5970 0.0517
C1 C 0.2521(2) 0.80380(17) 0.05512(9)
C2 C 0.3178(2) 0.89935(18) 0.01557(9)
H7 H 0.3811 0.8605 -0.0111
H8 H 0.2495 0.9382 -0.0085
C3 C 0.1553(2) 0.86033(19) 0.09979(10)
H9 H 0.1116 0.7973 0.1227
H10 H 0.2046 0.9116 0.1272
C4 C 0.3544(2) 0.72697(19) 0.08803(10)
H11 H 0.4058 0.7773 0.1151
H12 H 0.3084 0.6659 0.1114
O4 O -0.37774(15) 0.95620(14) 0.10698(7)
O5 O -0.19394(15) 0.85035(15) 0.08731(7)
C5 C -0.1940(2) 0.9738(2) 0.17367(9)
O6 O -0.03347(18) 1.11015(15) 0.33046(7)
H13 H 0.0180 1.0618 0.3460
C6 C -0.2601(2) 0.92375(19) 0.11905(9)
C7 C -0.0817(2) 1.0629(2) 0.27871(10)
C8 C -0.0553(2) 0.9453(2) 0.26059(10)
H14 H -0.0011 0.8957 0.2838
C9 C -0.1098(2) 0.9019(2) 0.20793(10)
H15 H -0.0898 0.8239 0.1954
C10 C -0.2177(2) 1.0919(2) 0.19175(10)
H16 H -0.2721 1.1416 0.1687
C11 C -0.1616(3) 1.1365(2) 0.24354(11)
H17 H -0.1775 1.2161 0.2548
loop_
_geom_bond_atom_site_label_1
_geom_bond_atom_site_label_2
_geom_bond_site_symmetry_1
_geom_bond_site_symmetry_2
O1 H1 1_555 1_555
N1 H2 1_555 1_555
H3 N1 1_555 1_555
H4 N1 1_555 1_555
O2 H5 1_555 1_555
O3 H6 1_555 1_555
C1 N1 1_555 1_555
C2 O2 1_555 1_555
H7 C2 1_555 1_555
H8 C2 1_555 1_555
C3 O1 1_555 1_555
H9 C3 1_555 1_555
H10 C3 1_555 1_555
C4 O3 1_555 1_555
H11 C4 1_555 1_555
H12 C4 1_555 1_555
O4 C6 1_555 1_555
O5 C6 1_555 1_555
C5 C6 1_555 1_555
O6 H13 1_555 1_555
C7 O6 1_555 1_555
C8 C7 1_555 1_555
H14 C8 1_555 1_555
C9 C5 1_555 1_555
H15 C9 1_555 1_555
C10 C5 1_555 1_555
H16 C10 1_555 1_555
C11 C7 1_555 1_555
H17 C11 1_555 1_555
C1 C2 1_555 1_555
C1 C3 1_555 1_555
C1 C4 1_555 1_555
C8 C9 1_555 1_555
C10 C11 1_555 1_555

#END
