
#######################################################################
#
#                 Cambridge Crystallographic Data Centre
#                                CCDC 
#
#######################################################################
#
# If this CIF has been generated from an entry in the Cambridge 
# Structural Database, then it will include bibliographic, chemical, 
# crystal, experimental, refinement or atomic coordinate data resulting 
# from the CCDC's data processing and validation procedures.
#
#######################################################################

data_CIKSIY10
_chemical_formula_moiety         'C18 H18 Cl3 N1 O5 S1'
_chemical_name_systematic        
'(3S,8aS)-2,2,2-Trichloroethyl 2,3-dihydro-6-(4-methoxyphenyl)-2,2-dimethyl-5-oxo-5H,8aH-thiazolo(2,3-b)(1,3)oxazine-3-carboxylate'
_symmetry_cell_setting           orthorhombic
_symmetry_space_group_name_H-M   'P 21 21 21'
_symmetry_Int_Tables_number      19
_space_group_name_Hall           'P 2ac 2ab'
loop_
_symmetry_equiv_pos_site_id
_symmetry_equiv_pos_as_xyz
1 x,y,z
2 1/2+x,1/2-y,-z
3 -x,1/2+y,1/2-z
4 1/2-x,-y,1/2+z
_cell_length_a                   6.502(1)
_cell_length_b                   17.838(2)
_cell_length_c                   18.036(2)
_cell_angle_alpha                90
_cell_angle_beta                 90
_cell_angle_gamma                90
_cell_volume                     2091.86
_chemical_melting_point          '141-142 deg.C'
_cell_formula_units_Z            4
loop_
_atom_site_label
_atom_site_type_symbol
_atom_site_fract_x
_atom_site_fract_y
_atom_site_fract_z
S1 S -0.0602(2) 0.6752(1) 0.8384(1)
C1 C 0.2159(7) 0.6886(2) 0.8594(2)
C2 C 0.2977(6) 0.6078(2) 0.8677(2)
N1 N 0.1341(5) 0.5656(2) 0.9026(2)
C3 C -0.0732(6) 0.5853(2) 0.8829(2)
O1 O -0.1986(4) 0.5867(2) 0.9481(2)
C4 C -0.1820(7) 0.5205(2) 0.9851(2)
C5 C -0.0178(6) 0.4761(2) 0.9833(2)
C6 C 0.1702(6) 0.5051(2) 0.9469(2)
O2 O 0.3444(4) 0.4827(2) 0.9575(2)
C7 C -0.0091(6) 0.4042(2) 1.0246(2)
C8 C -0.1369(7) 0.3893(2) 1.0845(2)
C9 C -0.1295(7) 0.3220(2) 1.1217(2)
C10 C 0.0075(7) 0.2671(2) 1.1001(2)
C11 C 0.1336(7) 0.2801(2) 1.0412(2)
C12 C 0.1241(7) 0.3471(2) 1.0040(2)
O3 O 0.0021(5) 0.2022(2) 1.1406(2)
C13 C 0.1477(9) 0.1465(3) 1.1224(3)
C14 C 0.3660(7) 0.5716(2) 0.7959(2)
O4 O 0.5412(5) 0.5679(2) 0.7755(2)
O5 O 0.2068(5) 0.5460(2) 0.7560(2)
C15 C 0.2506(8) 0.5084(3) 0.6876(2)
C16 C 0.1382(7) 0.4346(2) 0.6876(2)
C17 C 0.2423(10) 0.7292(3) 0.9326(3)
C18 C 0.3154(8) 0.7309(2) 0.7954(3)
Cl1 Cl -0.1289(2) 0.4490(1) 0.6971(1)
Cl2 Cl 0.2247(3) 0.3771(1) 0.7590(1)
Cl3 Cl 0.1869(3) 0.3911(1) 0.6021(1)
H1 H 0.4211 0.6085 0.8969
H2 H -0.1344 0.5496 0.8499
H3 H -0.2971 0.5047 1.0146
H4 H -0.2328 0.4270 1.1003
H5 H -0.2201 0.3133 1.1628
H6 H 0.2295 0.2422 1.0257
H7 H 0.2129 0.3548 0.9622
H8 H 0.1334 0.1294 1.0722
H9 H 0.1243 0.1054 1.1557
H10 H 0.2839 0.1658 1.1297
H11 H 0.2049 0.5384 0.6467
H12 H 0.3959 0.4998 0.6835
H13 H 0.1817 0.7009 0.9722
H14 H 0.1743 0.7768 0.9285
H15 H 0.3857 0.7370 0.9426
H16 H 0.2845 0.7096 0.7478
H17 H 0.4616 0.7315 0.8027
H18 H 0.2633 0.7812 0.7977
loop_
_geom_bond_atom_site_label_1
_geom_bond_atom_site_label_2
_geom_bond_site_symmetry_1
_geom_bond_site_symmetry_2
S1 C1 1_555 1_555
C1 C2 1_555 1_555
C2 N1 1_555 1_555
N1 C3 1_555 1_555
C3 S1 1_555 1_555
O1 C3 1_555 1_555
C4 O1 1_555 1_555
C5 C4 1_555 1_555
C6 N1 1_555 1_555
O2 C6 1_555 1_555
C7 C5 1_555 1_555
C8 C7 1_555 1_555
C9 C8 1_555 1_555
C10 C9 1_555 1_555
C11 C10 1_555 1_555
C12 C7 1_555 1_555
O3 C10 1_555 1_555
C13 O3 1_555 1_555
C14 C2 1_555 1_555
O4 C14 1_555 1_555
O5 C14 1_555 1_555
C15 O5 1_555 1_555
C16 C15 1_555 1_555
C17 C1 1_555 1_555
C18 C1 1_555 1_555
Cl1 C16 1_555 1_555
Cl2 C16 1_555 1_555
Cl3 C16 1_555 1_555
H1 C2 1_555 1_555
H2 C3 1_555 1_555
H3 C4 1_555 1_555
H4 C8 1_555 1_555
H5 C9 1_555 1_555
H6 C11 1_555 1_555
H7 C12 1_555 1_555
H8 C13 1_555 1_555
H9 C13 1_555 1_555
H10 C13 1_555 1_555
H11 C15 1_555 1_555
H12 C15 1_555 1_555
H13 C17 1_555 1_555
H14 C17 1_555 1_555
H15 C17 1_555 1_555
H16 C18 1_555 1_555
H17 C18 1_555 1_555
H18 C18 1_555 1_555
C5 C6 1_555 1_555
C11 C12 1_555 1_555

#END
