
#######################################################################
#
#                 Cambridge Crystallographic Data Centre
#                                CCDC 
#
#######################################################################
#
# If this CIF has been generated from an entry in the Cambridge 
# Structural Database, then it will include bibliographic, chemical, 
# crystal, experimental, refinement or atomic coordinate data resulting 
# from the CCDC's data processing and validation procedures.
#
#######################################################################

data_CIKTUL
_chemical_compound_source        'Pogostemon plectranthoides (Desf.)'
_chemical_name_common            Stemonolone
_chemical_formula_moiety         'C15 H20 O2'
_chemical_name_systematic        5\a-Hydroxy-10\b-selina-1,4(15),7-trien-6-one
_symmetry_cell_setting           monoclinic
_symmetry_space_group_name_H-M   'P 21'
_symmetry_Int_Tables_number      4
_space_group_name_Hall           'P 2yb'
loop_
_symmetry_equiv_pos_site_id
_symmetry_equiv_pos_as_xyz
1 x,y,z
2 -x,1/2+y,-z
_cell_length_a                   11.762(2)
_cell_length_b                   5.961(2)
_cell_length_c                   19.363(3)
_cell_angle_alpha                90
_cell_angle_beta                 103.89(1)
_cell_angle_gamma                90
_cell_volume                     1317.9
_exptl_crystal_colour            white
_chemical_melting_point          112-114deg.C
_cell_formula_units_Z            4
loop_
_atom_site_label
_atom_site_type_symbol
_atom_site_fract_x
_atom_site_fract_y
_atom_site_fract_z
O1 O 0.6484(4) 0.3326(10) 0.4762(2)
O2 O 0.5972(4) -0.1212(11) 0.5370(3)
C1 C 0.7562(7) 0.2600(14) 0.3595(4)
C2 C 0.6526(8) 0.3136(15) 0.3193(4)
C3 C 0.5402(6) 0.2256(14) 0.3338(3)
C4 C 0.5616(6) 0.0487(14) 0.3905(4)
C5 C 0.6628(6) 0.1073(13) 0.4518(4)
C6 C 0.6797(6) -0.0312(14) 0.5201(4)
C7 C 0.7965(6) -0.0252(13) 0.5709(4)
C8 C 0.8840(5) 0.0817(12) 0.5530(3)
C9 C 0.8761(6) 0.1975(18) 0.4842(4)
C10 C 0.7763(6) 0.1085(15) 0.4242(4)
C11 C 0.8051(6) -0.1415(13) 0.6419(3)
C12 C 0.8155(9) -0.3904(19) 0.6345(5)
C13 C 0.9071(9) -0.0541(19) 0.6996(4)
C14 C 0.8041(6) -0.1287(14) 0.4024(4)
C15 C 0.5036(7) -0.1457(17) 0.3823(5)
H1 H 0.577 0.333 0.497
H2 H 0.828 0.329 0.347
H3 H 0.649 0.413 0.277
H4 H 0.491 0.158 0.289
H5 H 0.495 0.349 0.347
H6 H 0.963 0.066 0.588
H7 H 0.953 0.182 0.469
H8 H 0.864 0.361 0.490
H9 H 0.730 -0.110 0.659
H10 H 0.887 -0.424 0.619
H11 H 0.818 -0.470 0.681
H12 H 0.745 -0.449 0.598
H13 H 0.905 0.110 0.705
H14 H 0.913 -0.129 0.746
H15 H 0.982 -0.095 0.684
H16 H 0.817 -0.244 0.444
H17 H 0.739 -0.198 0.363
H18 H 0.878 -0.138 0.384
H19 H 0.527 -0.271 0.418
H20 H 0.437 -0.171 0.340
O3 O 0.3171(4) 0.2205(10) 0.9669(3)
O4 O 0.4406(5) 0.6516(12) 1.0274(3)
C16 C 0.1205(7) 0.3281(17) 0.8504(4)
C17 C 0.1882(8) 0.2593(17) 0.8091(4)
C18 C 0.3159(7) 0.3141(15) 0.8237(4)
C19 C 0.3504(6) 0.4906(15) 0.8813(4)
C20 C 0.2953(6) 0.4462(16) 0.9430(4)
C21 C 0.3402(6) 0.5823(14) 1.0103(4)
C22 C 0.2641(6) 0.6075(17) 1.0598(4)
C23 C 0.1586(7) 0.5183(17) 1.0427(4)
C24 C 0.1058(6) 0.3980(16) 0.9754(4)
C25 C 0.1612(5) 0.4710(12) 0.9159(3)
C26 C 0.3183(7) 0.7314(18) 1.1303(4)
C27 C 0.3789(16) 0.5931(38) 1.1829(10)
C28 C 0.2727(23) 0.9455(31) 1.1306(11)
C29 C 0.1296(6) 0.7203(14) 0.8949(4)
C30 C 0.4162(7) 0.6662(16) 0.8739(5)
H21 H 0.405 0.197 0.988
H22 H 0.035 0.292 0.844
H23 H 0.145 0.161 0.767
H24 H 0.342 0.360 0.781
H25 H 0.368 0.170 0.843
H26 H 0.110 0.536 1.080
H27 H 0.019 0.413 0.960
H28 H 0.119 0.225 0.982
H29 H 0.163 0.811 0.938
H30 H 0.168 0.758 0.856
H31 H 0.044 0.735 0.880
H32 H 0.435 0.784 0.912
H33 H 0.451 0.681 0.831
loop_
_geom_bond_atom_site_label_1
_geom_bond_atom_site_label_2
_geom_bond_site_symmetry_1
_geom_bond_site_symmetry_2
O1 C5 1_555 1_555
O2 C6 1_555 1_555
C1 C2 1_555 1_555
C2 C3 1_555 1_555
C3 C4 1_555 1_555
C4 C5 1_555 1_555
C5 C6 1_555 1_555
C6 C7 1_555 1_555
C7 C8 1_555 1_555
C8 C9 1_555 1_555
C9 C10 1_555 1_555
C10 C1 1_555 1_555
C11 C7 1_555 1_555
C12 C11 1_555 1_555
C13 C11 1_555 1_555
C14 C10 1_555 1_555
C15 C4 1_555 1_555
O3 C20 1_555 1_555
O4 C21 1_555 1_555
C16 C17 1_555 1_555
C17 C18 1_555 1_555
C18 C19 1_555 1_555
C19 C20 1_555 1_555
C20 C21 1_555 1_555
C21 C22 1_555 1_555
C22 C23 1_555 1_555
C23 C24 1_555 1_555
C24 C25 1_555 1_555
C25 C16 1_555 1_555
C26 C22 1_555 1_555
C27 C26 1_555 1_555
C28 C26 1_555 1_555
C29 C25 1_555 1_555
C30 C19 1_555 1_555
H1 O1 1_555 1_555
H2 C1 1_555 1_555
H3 C2 1_555 1_555
H4 C3 1_555 1_555
H5 C3 1_555 1_555
H6 C8 1_555 1_555
H7 C9 1_555 1_555
H8 C9 1_555 1_555
H9 C11 1_555 1_555
H10 C12 1_555 1_555
H11 C12 1_555 1_555
H12 C12 1_555 1_555
H13 C13 1_555 1_555
H14 C13 1_555 1_555
H15 C13 1_555 1_555
H16 C14 1_555 1_555
H17 C14 1_555 1_555
H18 C14 1_555 1_555
H19 C15 1_555 1_555
H20 C15 1_555 1_555
H21 O3 1_555 1_555
H22 C16 1_555 1_555
H23 C17 1_555 1_555
H24 C18 1_555 1_555
H25 C18 1_555 1_555
H26 C23 1_555 1_555
H27 C24 1_555 1_555
H28 C24 1_555 1_555
H29 C29 1_555 1_555
H30 C29 1_555 1_555
H31 C29 1_555 1_555
H32 C30 1_555 1_555
H33 C30 1_555 1_555
C5 C10 1_555 1_555
C20 C25 1_555 1_555

#END
