
#######################################################################
#
#                 Cambridge Crystallographic Data Centre
#                                CCDC 
#
#######################################################################
#
# If this CIF has been generated from an entry in the Cambridge 
# Structural Database, then it will include bibliographic, chemical, 
# crystal, experimental, refinement or atomic coordinate data resulting 
# from the CCDC's data processing and validation procedures.
#
#######################################################################

data_CIKVAU
_chemical_formula_moiety         'C18 H22 Cl1 N1 O6'
_chemical_name_systematic        
5'-Chloro-2',7'-dimethyl-6',8'-dioxo-4'-hydroxy-7'-propanoyloxy-4,4',5,6',7',8'-hexahydro-2'H,3H-spiro(furan-2,3'-isoquinoline)
_symmetry_cell_setting           triclinic
_symmetry_space_group_name_H-M   'P -1'
_symmetry_Int_Tables_number      2
_space_group_name_Hall           '-P 1'
loop_
_symmetry_equiv_pos_site_id
_symmetry_equiv_pos_as_xyz
1 x,y,z
2 -x,-y,-z
_cell_length_a                   11.7466(10)
_cell_length_b                   11.9119(10)
_cell_length_c                   14.2135(12)
_cell_angle_alpha                95.435(2)
_cell_angle_beta                 98.953(2)
_cell_angle_gamma                93.593(2)
_cell_volume                     1949.68
_exptl_crystal_colour            yellow
_exptl_crystal_description       prismatic
_cell_formula_units_Z            4
loop_
_atom_site_label
_atom_site_type_symbol
_atom_site_fract_x
_atom_site_fract_y
_atom_site_fract_z
Cl1 Cl 0.11135(11) 0.03660(11) 0.41887(11)
N1 N 0.4044(4) 0.3210(4) 0.2879(4)
O1 O 0.1863(3) 0.1223(3) 0.6207(3)
O2 O 0.4861(3) 0.3790(3) 0.5843(3)
O3 O 0.3577(3) 0.0750(3) 0.2996(3)
H1 H 0.3323 0.0229 0.2583
O4 O 0.3150(4) 0.2040(3) 0.1505(3)
O5 O 0.4620(3) 0.1443(3) 0.6498(3)
O6 O 0.3590(3) 0.2815(3) 0.7022(3)
C1 C 0.2139(4) 0.1476(4) 0.4632(4)
C2 C 0.2319(4) 0.1768(4) 0.5655(4)
C3 C 0.3077(4) 0.2862(4) 0.6048(4)
C4 C 0.3984(5) 0.3198(4) 0.5446(4)
C5 C 0.3689(4) 0.2858(4) 0.4440(4)
C6 C 0.2800(4) 0.1985(4) 0.4073(4)
C7 C 0.2743(4) 0.1565(4) 0.3032(4)
H3 H 0.1972 0.1194 0.2783
C8 C 0.2990(5) 0.2517(5) 0.2427(4)
C9 C 0.4301(4) 0.3382(4) 0.3813(4)
H4 H 0.4931 0.3887 0.4077
C10 C 0.1945(5) 0.3228(5) 0.2253(5)
H5 H 0.1434 0.3123 0.2718
H6 H 0.2189 0.4025 0.2284
C11 C 0.1367(8) 0.2771(9) 0.1261(6)
H7 H 0.0743 0.2208 0.1289
H8 H 0.1050 0.3376 0.0916
C12 C 0.2257(8) 0.2264(9) 0.0785(6)
H9 H 0.1939 0.1568 0.0396
H10 H 0.2548 0.2780 0.0373
C13 C 0.2237(5) 0.3801(4) 0.6080(4)
H11 H 0.1692 0.3627 0.6494
H12 H 0.1832 0.3850 0.5447
H13 H 0.2664 0.4510 0.6321
C14 C 0.4645(6) 0.3912(5) 0.2284(4)
H14 H 0.5329 0.4298 0.2666
H15 H 0.4143 0.4457 0.2035
H16 H 0.4856 0.3440 0.1763
C15 C 0.4392(5) 0.2057(5) 0.7158(5)
C16 C 0.4921(6) 0.2061(6) 0.8187(5)
H17 H 0.5589 0.2598 0.8441
C17 C 0.4094(15) 0.1809(15) 0.8822(12)
C18 C 0.3696(13) 0.0584(12) 0.8594(9)
Cl2 Cl 0.01078(13) 0.46795(12) 0.35341(14)
N2 N 0.3128(3) 0.8143(3) 0.5066(3)
O7 O -0.0178(4) 0.5376(4) 0.1596(4)
O8 O 0.2340(4) 0.8653(3) 0.2212(3)
O9 O 0.3014(3) 0.5626(3) 0.4689(3)
H2 H 0.3516 0.5991 0.4478
O10 O 0.2916(3) 0.7059(3) 0.6323(3)
O11 O 0.2434(4) 0.6060(4) 0.1402(4)
O12 O 0.0971(3) 0.7113(3) 0.0913(3)
C19 C 0.0729(5) 0.5906(4) 0.3165(5)
C20 C 0.0413(5) 0.6085(6) 0.2189(6)
C21 C 0.0783(5) 0.7226(5) 0.1903(4)
C22 C 0.1838(5) 0.7875(5) 0.2533(4)
C23 C 0.2097(4) 0.7573(4) 0.3490(4)
C24 C 0.1549(4) 0.6581(4) 0.3771(4)
C25 C 0.2052(4) 0.6289(4) 0.4751(4)
H18 H 0.1457 0.5818 0.4976
C26 C 0.2337(5) 0.7343(4) 0.5460(4)
C27 C 0.2921(4) 0.8254(4) 0.4146(4)
H19 H 0.3350 0.8822 0.3918
C28 C 0.1241(5) 0.7891(4) 0.5661(4)
H20 H 0.1104 0.8527 0.5290
H21 H 0.0571 0.7348 0.5509
C29 C 0.1488(6) 0.8273(5) 0.6705(5)
H22 H 0.0800 0.8169 0.6997
H23 H 0.1775 0.9063 0.6821
C30 C 0.2394(6) 0.7527(6) 0.7085(5)
H24 H 0.2974 0.7964 0.7562
H25 H 0.2045 0.6926 0.7387
C31 C -0.0236(5) 0.7953(6) 0.1907(5)
H26 H -0.0031 0.8682 0.1718
H27 H -0.0432 0.8043 0.2539
H28 H -0.0887 0.7594 0.1465
C32 C 0.3926(5) 0.8950(5) 0.5712(4)
H29 H 0.4460 0.9302 0.5362
H30 H 0.4344 0.8565 0.6204
H31 H 0.3504 0.9517 0.5999
C33 C 0.1878(6) 0.6501(6) 0.0788(5)
C34 C 0.2043(7) 0.6494(7) -0.0240(5)
H32 H 0.2045 0.7260 -0.0418
H33 H 0.1404 0.6045 -0.0648
C35 C 0.3191(12) 0.5997(12) -0.0395(10)
H34 H 0.3562 0.6442 -0.0816
H35 H 0.3705 0.6045 0.0214
C36 C 0.3023(12) 0.4921(11) -0.0776(9)
H36 H 0.2480 0.4522 -0.0463
H37 H 0.3743 0.4575 -0.0693
H38 H 0.2723 0.4891 -0.1447
C37? C 0.4845(17) 0.0938(17) 0.8602(13)
loop_
_geom_bond_atom_site_label_1
_geom_bond_atom_site_label_2
_geom_bond_site_symmetry_1
_geom_bond_site_symmetry_2
Cl1 C1 1_555 1_555
Cl2 C19 1_555 1_555
N1 C8 1_555 1_555
N2 C26 1_555 1_555
O1 C2 1_555 1_555
O2 C4 1_555 1_555
O3 H1 1_555 1_555
O4 C8 1_555 1_555
O5 C15 1_555 1_555
O6 C3 1_555 1_555
O7 C20 1_555 1_555
O8 C22 1_555 1_555
O9 H2 1_555 1_555
O10 C26 1_555 1_555
O11 C33 1_555 1_555
O12 C21 1_555 1_555
C1 C2 1_555 1_555
C2 C3 1_555 1_555
C3 C4 1_555 1_555
C4 C5 1_555 1_555
C5 C6 1_555 1_555
C6 C1 1_555 1_555
C7 O3 1_555 1_555
H3 C7 1_555 1_555
C8 C7 1_555 1_555
C9 N1 1_555 1_555
H4 C9 1_555 1_555
C10 C8 1_555 1_555
H5 C10 1_555 1_555
H6 C10 1_555 1_555
C11 C10 1_555 1_555
H7 C11 1_555 1_555
H8 C11 1_555 1_555
C12 O4 1_555 1_555
H9 C12 1_555 1_555
H10 C12 1_555 1_555
C13 C3 1_555 1_555
H11 C13 1_555 1_555
H12 C13 1_555 1_555
H13 C13 1_555 1_555
C14 N1 1_555 1_555
H14 C14 1_555 1_555
H15 C14 1_555 1_555
H16 C14 1_555 1_555
C15 O6 1_555 1_555
C16 C15 1_555 1_555
H17 C16 1_555 1_555
C17 C16 1_555 1_555
C18 C17 1_555 1_555
C19 C20 1_555 1_555
C20 C21 1_555 1_555
C21 C22 1_555 1_555
C22 C23 1_555 1_555
C23 C24 1_555 1_555
C24 C19 1_555 1_555
C25 O9 1_555 1_555
H18 C25 1_555 1_555
C26 C25 1_555 1_555
C27 N2 1_555 1_555
H19 C27 1_555 1_555
C28 C26 1_555 1_555
H20 C28 1_555 1_555
H21 C28 1_555 1_555
C29 C28 1_555 1_555
H22 C29 1_555 1_555
H23 C29 1_555 1_555
C30 O10 1_555 1_555
H24 C30 1_555 1_555
H25 C30 1_555 1_555
C31 C21 1_555 1_555
H26 C31 1_555 1_555
H27 C31 1_555 1_555
H28 C31 1_555 1_555
C32 N2 1_555 1_555
H29 C32 1_555 1_555
H30 C32 1_555 1_555
H31 C32 1_555 1_555
C33 O12 1_555 1_555
C34 C33 1_555 1_555
H32 C34 1_555 1_555
H33 C34 1_555 1_555
C35 C34 1_555 1_555
H34 C35 1_555 1_555
H35 C35 1_555 1_555
C36 C35 1_555 1_555
H36 C36 1_555 1_555
H37 C36 1_555 1_555
H38 C36 1_555 1_555
C5 C9 1_555 1_555
C6 C7 1_555 1_555
C11 C12 1_555 1_555
C23 C27 1_555 1_555
C24 C25 1_555 1_555
C29 C30 1_555 1_555

#END
