
#######################################################################
#
#                 Cambridge Crystallographic Data Centre
#                                CCDC 
#
#######################################################################
#
# If this CIF has been generated from an entry in the Cambridge 
# Structural Database, then it will include bibliographic, chemical, 
# crystal, experimental, refinement or atomic coordinate data resulting 
# from the CCDC's data processing and validation procedures.
#
#######################################################################

data_CIKYEA
_chemical_formula_moiety         'C15 H14 Br2 F1 N1 Si1'
_chemical_name_systematic        
2,8-Dibromo-5,10-dimethyl-10-fluoro-10,11-dihydro-5H-dibenz(b,f)(1,4)azasilepine
_symmetry_cell_setting           monoclinic
_symmetry_space_group_name_H-M   'P 21/c'
_symmetry_Int_Tables_number      14
_space_group_name_Hall           '-P 2ybc'
loop_
_symmetry_equiv_pos_site_id
_symmetry_equiv_pos_as_xyz
1 x,y,z
2 -x,1/2+y,1/2-z
3 -x,-y,-z
4 x,1/2-y,1/2+z
_cell_length_a                   8.869(2)
_cell_length_b                   9.934(5)
_cell_length_c                   18.392(8)
_cell_angle_alpha                90
_cell_angle_beta                 98.75
_cell_angle_gamma                90
_cell_volume                     1601.56
_cell_formula_units_Z            4
loop_
_atom_site_label
_atom_site_type_symbol
_atom_site_fract_x
_atom_site_fract_y
_atom_site_fract_z
Br1 Br -0.07455 0.93190 0.09917
Br2 Br 0.72497 0.22500 0.00439
Si1 Si 0.50048 0.56402 0.20374
C1 C 0.1367 0.7429 0.1754
C2 C 0.0120 0.7585 0.1214
C3 C -0.0551 0.6484 0.0830
C4 C 0.0100 0.5228 0.0980
N1 N 0.1988 0.3756 0.1669
C5 C 0.3218 0.2194 0.0912
C6 C 0.4376 0.1865 0.0545
C7 C 0.5614 0.2700 0.0559
C8 C 0.5700 0.3864 0.0973
C9 C 0.3356 0.6016 0.2513
C10 C 0.3229 0.3401 0.1303
C11 C 0.4528 0.4238 0.1370
C12 C 0.1977 0.6177 0.1926
C13 C 0.1347 0.5081 0.1517
C14 C 0.0856 0.2707 0.1755
C15 C 0.5742 0.7144 0.1647
F1 F 0.6361 0.5038 0.2634
H1 H 0.174 0.815 0.201
H2 H -0.124 0.663 0.045
H3 H -0.037 0.452 0.070
H4 H 0.241 0.154 0.091
H5 H 0.460 0.114 0.025
H6 H 0.645 0.429 0.102
H7 H 0.342 0.683 0.284
H8 H 0.323 0.527 0.274
H9 H 0.141 0.187 0.199
H10 H 0.027 0.249 0.127
H11 H 0.025 0.311 0.214
H12 H 0.660 0.766 0.197
H13 H 0.490 0.754 0.131
H14 H 0.638 0.691 0.138
loop_
_geom_bond_atom_site_label_1
_geom_bond_atom_site_label_2
_geom_bond_site_symmetry_1
_geom_bond_site_symmetry_2
Br1 C2 1_555 1_555
Br2 C7 1_555 1_555
Si1 C9 1_555 1_555
C1 C2 1_555 1_555
C2 C3 1_555 1_555
C3 C4 1_555 1_555
C4 C13 1_555 1_555
N1 C10 1_555 1_555
C5 C6 1_555 1_555
C6 C7 1_555 1_555
C7 C8 1_555 1_555
C8 C11 1_555 1_555
C9 C12 1_555 1_555
C10 C5 1_555 1_555
C11 Si1 1_555 1_555
C12 C1 1_555 1_555
C13 N1 1_555 1_555
C14 N1 1_555 1_555
C15 Si1 1_555 1_555
F1 Si1 1_555 1_555
H1 C1 1_555 1_555
H2 C3 1_555 1_555
H3 C4 1_555 1_555
H4 C5 1_555 1_555
H5 C6 1_555 1_555
H6 C8 1_555 1_555
H7 C9 1_555 1_555
H8 C9 1_555 1_555
H9 C14 1_555 1_555
H10 C14 1_555 1_555
H11 C14 1_555 1_555
H12 C15 1_555 1_555
H13 C15 1_555 1_555
H14 C15 1_555 1_555
C10 C11 1_555 1_555
C12 C13 1_555 1_555

#END
