
#######################################################################
#
#                 Cambridge Crystallographic Data Centre
#                                CCDC 
#
#######################################################################
#
# If this CIF has been generated from an entry in the Cambridge 
# Structural Database, then it will include bibliographic, chemical, 
# crystal, experimental, refinement or atomic coordinate data resulting 
# from the CCDC's data processing and validation procedures.
#
#######################################################################

data_CIKYUT
_chemical_formula_moiety         'C15 H16 O1'
_chemical_name_systematic        
phenyl(tricyclo[3.2.1.0^2,4^]octan-3-yl)methanone
_symmetry_cell_setting           monoclinic
_symmetry_space_group_name_H-M   'P 21/c'
_symmetry_Int_Tables_number      14
_space_group_name_Hall           '-P 2ybc'
loop_
_symmetry_equiv_pos_site_id
_symmetry_equiv_pos_as_xyz
1 x,y,z
2 -x,1/2+y,1/2-z
3 -x,-y,-z
4 x,1/2-y,1/2+z
_cell_length_a                   9.033(5)
_cell_length_b                   11.098(6)
_cell_length_c                   23.343(13)
_cell_angle_alpha                90
_cell_angle_beta                 93.620(9)
_cell_angle_gamma                90
_cell_volume                     2335.43
_exptl_crystal_colour            colorless
_exptl_crystal_description       block
_cell_formula_units_Z            8
loop_
_atom_site_label
_atom_site_type_symbol
_atom_site_fract_x
_atom_site_fract_y
_atom_site_fract_z
O1 O 0.32751(17) -0.03566(13) 0.42948(6)
C1 C 0.1136(2) 0.1741(2) 0.34041(8)
H1 H 0.0736 0.2222 0.3682
C2 C 0.0680(3) 0.1906(3) 0.28305(9)
H2 H -0.0034 0.2484 0.2728
C3 C 0.1274(3) 0.1228(3) 0.24200(9)
H3 H 0.0959 0.1325 0.2036
C4 C 0.2342(4) 0.0399(3) 0.25770(11)
H4 H 0.2781 -0.0049 0.2297
C5 C 0.2771(3) 0.0222(3) 0.31445(10)
H5 H 0.3488 -0.0356 0.3244
C6 C 0.2169(2) 0.08789(17) 0.35693(7)
C7 C 0.2624(2) 0.05957(17) 0.41821(8)
C8 C 0.22574(18) 0.14414(16) 0.46409(7)
H6 H 0.1887 0.2243 0.4529
C9 C 0.31745(18) 0.13211(16) 0.52064(7)
H7 H 0.3999 0.0746 0.5230
C10 C 0.3149(2) 0.23102(17) 0.56559(7)
H8 H 0.3953 0.2902 0.5648
C11 C 0.3044(2) 0.16333(19) 0.62293(8)
H9 H 0.3196 0.2176 0.6553
H10 H 0.3765 0.0986 0.6267
C12 C 0.1441(2) 0.11329(19) 0.61846(8)
H11 H 0.1437 0.0259 0.6200
H12 H 0.0869 0.1446 0.6490
C13 C 0.0824(2) 0.15910(17) 0.55921(7)
H13 H -0.0260 0.1600 0.5533
C14 C 0.16301(18) 0.08416(16) 0.51643(7)
H14 H 0.1484 -0.0033 0.5160
C15 C 0.1581(2) 0.28260(17) 0.55709(8)
H15 H 0.1401 0.3228 0.5204
H16 H 0.1328 0.3354 0.5881
O2 O 0.15842(17) 0.46356(13) 0.42967(6)
C16 C 0.3260(3) 0.6862(2) 0.34106(8)
H17 H 0.3382 0.7506 0.3664
C17 C 0.3680(3) 0.6982(3) 0.28507(9)
H18 H 0.4086 0.7704 0.2732
C18 C 0.3499(3) 0.6050(3) 0.24762(9)
H19 H 0.3773 0.6136 0.2101
C19 C 0.2918(4) 0.4985(3) 0.26500(10)
H20 H 0.2803 0.4343 0.2395
C20 C 0.2502(3) 0.4864(2) 0.32032(9)
H21 H 0.2100 0.4137 0.3318
C21 C 0.2666(2) 0.57980(18) 0.35927(7)
C22 C 0.2249(2) 0.55716(18) 0.41929(8)
C23 C 0.26967(18) 0.64327(16) 0.46538(7)
H22 H 0.3050 0.7230 0.4544
C24 C 0.34307(18) 0.58365(16) 0.51950(7)
H23 H 0.3569 0.4961 0.5198
C25 C 0.43261(19) 0.65903(17) 0.56360(7)
H24 H 0.5401 0.6594 0.5599
C26 C 0.3815(2) 0.6144(2) 0.62197(8)
H25 H 0.4443 0.6463 0.6537
H26 H 0.3819 0.5271 0.6240
C27 C 0.2217(2) 0.66498(19) 0.62249(7)
H27 H 0.1498 0.6005 0.6247
H28 H 0.2121 0.7195 0.6545
C28 C 0.2016(2) 0.73206(17) 0.56482(7)
H29 H 0.1216 0.7918 0.5623
C29 C 0.18908(18) 0.63277(16) 0.52007(7)
H30 H 0.1063 0.5758 0.5210
C30 C 0.3572(2) 0.78240(17) 0.55947(8)
H31 H 0.3887 0.8355 0.5909
H32 H 0.3687 0.8220 0.5230
loop_
_geom_bond_atom_site_label_1
_geom_bond_atom_site_label_2
_geom_bond_site_symmetry_1
_geom_bond_site_symmetry_2
O1 C7 1_555 1_555
C1 H1 1_555 1_555
C2 C1 1_555 1_555
H2 C2 1_555 1_555
C3 C2 1_555 1_555
H3 C3 1_555 1_555
C4 C3 1_555 1_555
H4 C4 1_555 1_555
C5 C4 1_555 1_555
H5 C5 1_555 1_555
C6 C1 1_555 1_555
C7 C6 1_555 1_555
C8 C7 1_555 1_555
H6 C8 1_555 1_555
C9 C8 1_555 1_555
H7 C9 1_555 1_555
C10 C9 1_555 1_555
H8 C10 1_555 1_555
C11 C10 1_555 1_555
H9 C11 1_555 1_555
H10 C11 1_555 1_555
C12 C11 1_555 1_555
H11 C12 1_555 1_555
H12 C12 1_555 1_555
C13 C12 1_555 1_555
H13 C13 1_555 1_555
C14 C8 1_555 1_555
H14 C14 1_555 1_555
C15 C10 1_555 1_555
H15 C15 1_555 1_555
H16 C15 1_555 1_555
O2 C22 1_555 1_555
C16 H17 1_555 1_555
C17 C16 1_555 1_555
H18 C17 1_555 1_555
C18 C17 1_555 1_555
H19 C18 1_555 1_555
C19 C18 1_555 1_555
H20 C19 1_555 1_555
C20 C19 1_555 1_555
H21 C20 1_555 1_555
C21 C16 1_555 1_555
C22 C21 1_555 1_555
C23 C22 1_555 1_555
H22 C23 1_555 1_555
C24 C23 1_555 1_555
H23 C24 1_555 1_555
C25 C24 1_555 1_555
H24 C25 1_555 1_555
C26 C25 1_555 1_555
H25 C26 1_555 1_555
H26 C26 1_555 1_555
C27 C26 1_555 1_555
H27 C27 1_555 1_555
H28 C27 1_555 1_555
C28 C27 1_555 1_555
H29 C28 1_555 1_555
C29 C23 1_555 1_555
H30 C29 1_555 1_555
C30 C25 1_555 1_555
H31 C30 1_555 1_555
H32 C30 1_555 1_555
C5 C6 1_555 1_555
C9 C14 1_555 1_555
C13 C14 1_555 1_555
C13 C15 1_555 1_555
C20 C21 1_555 1_555
C24 C29 1_555 1_555
C28 C29 1_555 1_555
C28 C30 1_555 1_555

#END
