
#######################################################################
#
#                 Cambridge Crystallographic Data Centre
#                                CCDC 
#
#######################################################################
#
# If this CIF has been generated from an entry in the Cambridge 
# Structural Database, then it will include bibliographic, chemical, 
# crystal, experimental, refinement or atomic coordinate data resulting 
# from the CCDC's data processing and validation procedures.
#
#######################################################################

data_CIKZUT
_chemical_formula_moiety         'C102 H36 O48,6(C1 H4 O1),C1 H2 Cl2'
_chemical_name_systematic        
'hexakis(1,3-bis(carboxymethoxy)-1,3-dioxopropane-2,2-diyl)-C60-fullerene dichloromethane methanol solvate'
_symmetry_cell_setting           rhombohedral
_symmetry_space_group_name_H-M   'R -3'
_symmetry_Int_Tables_number      148
_space_group_name_Hall           '-R 3'
loop_
_symmetry_equiv_pos_site_id
_symmetry_equiv_pos_as_xyz
1 x,y,z
2 -y,x-y,z
3 -x+y,-x,z
4 2/3+x,1/3+y,1/3+z
5 2/3-y,1/3+x-y,1/3+z
6 2/3-x+y,1/3-x,1/3+z
7 1/3+x,2/3+y,2/3+z
8 1/3-y,2/3+x-y,2/3+z
9 1/3-x+y,2/3-x,2/3+z
10 -x,-y,-z
11 y,-x+y,-z
12 x-y,x,-z
13 1/3-x,2/3-y,2/3-z
14 1/3+y,2/3-x+y,2/3-z
15 1/3+x-y,2/3+x,2/3-z
16 2/3-x,1/3-y,1/3-z
17 2/3+y,1/3-x+y,1/3-z
18 2/3+x-y,1/3+x,1/3-z
_cell_length_a                   15.0752(6)
_cell_length_b                   15.0752(6)
_cell_length_c                   33.4263(13)
_cell_angle_alpha                90
_cell_angle_beta                 90
_cell_angle_gamma                120
_cell_volume                     6578.78
_exptl_crystal_colour            yellow
_exptl_crystal_description       rhombohedron
_cell_formula_units_Z            3
_exptl_crystal_recrystallization_method dichloromethane/methanol
loop_
_atom_site_label
_atom_site_type_symbol
_atom_site_fract_x
_atom_site_fract_y
_atom_site_fract_z
C1 C 0.46646(16) -0.12812(15) 0.24294(5)
C2 C 0.40863(15) -0.22814(15) 0.26447(5)
C3 C 0.30227(15) -0.25960(15) 0.26338(5)
C4 C 0.28929(15) -0.18766(15) 0.23784(5)
C5 C 0.20273(15) -0.21961(15) 0.21440(5)
C6 C 0.21382(15) -0.18347(15) 0.17421(5)
C7 C 0.30936(15) -0.11072(15) 0.15992(5)
C8 C 0.39752(15) -0.07697(14) 0.18435(6)
C9 C 0.38719(15) -0.11338(14) 0.22321(5)
C10 C 0.57626(15) -0.04335(16) 0.25093(5)
C11 C 0.34047(15) -0.10730(15) 0.11725(5)
O1 O 0.6154(9) -0.1316(6) 0.3018(3)
C12 C 0.62113(17) -0.05418(16) 0.28949(6)
O2 O 0.6542(6) 0.0325(5) 0.3101(2)
C13 C 0.6869(7) 0.0300(9) 0.3503(2)
H1 H 0.7344 0.1005 0.3597
H2 H 0.7235 -0.0092 0.3511
C14 C 0.5932(6) -0.0206(7) 0.3778(2)
O3 O 0.5060(5) -0.0529(8) 0.36635(19)
O4 O 0.6202(5) -0.0237(9) 0.41429(18)
H3 H 0.5677 -0.0557 0.4286
O5 O 0.5518(9) 0.1008(10) 0.2489(5)
C15 C 0.60435(16) 0.06571(16) 0.24069(6)
O6 O 0.6962(7) 0.1119(8) 0.2228(4)
C16 C 0.7330(7) 0.2175(5) 0.21198(19)
H4 H 0.7952 0.2634 0.2275
H5 H 0.6800 0.2362 0.2176
C17 C 0.7572(7) 0.2274(6) 0.1673(2)
O7 O 0.7319(6) 0.1532(5) 0.1465(2)
O8 O 0.8043(6) 0.3218(5) 0.1553(2)
H6 H 0.8001 0.3235 0.1303
C1A C 0.12812(15) -0.40542(22) 0.24294(5)
C2A C 0.22814(15) -0.36323(21) 0.26447(5)
C3A C 0.25960(15) -0.43813(21) 0.26338(5)
C4A C 0.18766(15) -0.52305(21) 0.23784(5)
C5A C 0.21961(15) -0.57766(21) 0.21440(5)
C6A C 0.18347(15) -0.60271(21) 0.17421(5)
C7A C 0.11072(15) -0.57992(21) 0.15992(5)
C8A C 0.07697(14) -0.52551(21) 0.18435(6)
C9A C 0.11338(14) -0.49943(21) 0.22321(5)
C10A C 0.04335(16) -0.38039(22) 0.25093(5)
C11A C 0.10730(15) -0.55223(21) 0.11725(5)
O1A O 0.1316(6) -0.2530(11) 0.3018(3)
C12A C 0.05418(16) -0.32469(23) 0.28949(6)
O2A O -0.0325(5) -0.3783(8) 0.3101(2)
C13A C -0.0300(9) -0.3431(11) 0.3503(2)
H1A H -0.1005 -0.3661 0.3597
H2A H 0.0092 -0.2673 0.3511
C14A C 0.0206(7) -0.3862(9) 0.3778(2)
O3A O 0.0529(8) -0.4411(9) 0.36635(19)
O4A O 0.0237(9) -0.3561(10) 0.41429(18)
H3A H 0.0557 -0.3766 0.4286
O5A O -0.1008(10) -0.5490(13) 0.2489(5)
C15A C -0.06571(16) -0.46136(23) 0.24069(6)
O6A O -0.1119(8) -0.4157(11) 0.2228(4)
C16A C -0.2175(5) -0.4845(9) 0.21198(19)
H4A H -0.2634 -0.4682 0.2275
H5A H -0.2362 -0.5562 0.2176
C17A C -0.2274(6) -0.4702(9) 0.1673(2)
O7A O -0.1532(5) -0.4213(8) 0.1465(2)
O8A O -0.3218(5) -0.5175(8) 0.1553(2)
H6A H -0.3235 -0.5234 0.1303
C1B C 0.40542(22) -0.46646(16) 0.24294(5)
C2B C 0.36323(21) -0.40863(15) 0.26447(5)
C3B C 0.43813(21) -0.30227(15) 0.26338(5)
C4B C 0.52305(21) -0.28929(15) 0.23784(5)
C5B C 0.57766(21) -0.20273(15) 0.21440(5)
C6B C 0.60271(21) -0.21382(15) 0.17421(5)
C7B C 0.57992(21) -0.30936(15) 0.15992(5)
C8B C 0.52551(21) -0.39752(15) 0.18435(6)
C9B C 0.49943(21) -0.38719(15) 0.22321(5)
C10B C 0.38039(22) -0.57626(15) 0.25093(5)
C11B C 0.55223(21) -0.34047(15) 0.11725(5)
O1B O 0.2530(11) -0.6154(9) 0.3018(3)
C12B C 0.32469(23) -0.62113(17) 0.28949(6)
O2B O 0.3783(8) -0.6542(6) 0.3101(2)
C13B C 0.3431(11) -0.6869(7) 0.3503(2)
H1B H 0.3661 -0.7344 0.3597
H2B H 0.2673 -0.7235 0.3511
C14B C 0.3862(9) -0.5932(6) 0.3778(2)
O3B O 0.4411(9) -0.5060(5) 0.36635(19)
O4B O 0.3561(10) -0.6202(5) 0.41429(18)
H3B H 0.3766 -0.5677 0.4286
O5B O 0.5490(13) -0.5518(9) 0.2489(5)
C15B C 0.46136(23) -0.60435(16) 0.24069(6)
O6B O 0.4157(11) -0.6962(7) 0.2228(4)
C16B C 0.4845(9) -0.7330(7) 0.21198(19)
H4B H 0.4682 -0.7952 0.2275
H5B H 0.5562 -0.6800 0.2176
C17B C 0.4702(9) -0.7572(7) 0.1673(2)
O7B O 0.4213(8) -0.7319(6) 0.1465(2)
O8B O 0.5175(8) -0.8043(6) 0.1553(2)
H6B H 0.5234 -0.8001 0.1303
C1P C 0.53855(15) -0.26125(22) 0.09039(5)
C2P C 0.43853(15) -0.30344(21) 0.06886(5)
C3P C 0.40707(15) -0.22854(21) 0.06995(5)
C4P C 0.47901(15) -0.14362(21) 0.09549(5)
C5P C 0.44706(15) -0.08901(21) 0.11893(5)
C6P C 0.48320(15) -0.06396(21) 0.15912(5)
C7P C 0.55595(15) -0.08675(21) 0.17341(5)
C8P C 0.58970(14) -0.14116(21) 0.14898(6)
C9P C 0.55329(14) -0.16724(21) 0.11012(5)
C10P C 0.62332(16) -0.28628(22) 0.08240(5)
C11P C 0.55937(15) -0.11444(21) 0.21608(5)
O1P O 0.5351(6) -0.4137(11) 0.0315(3)
C12P C 0.61249(16) -0.34198(23) 0.04384(6)
O2P O 0.6992(5) -0.2884(8) 0.0232(2)
C13P C 0.6967(9) -0.3236(11) -0.0170(2)
H1P H 0.7672 -0.3006 -0.0264
H2P H 0.6575 -0.3994 -0.0178
C14P C 0.6461(7) -0.2805(9) -0.0445(2)
O3P O 0.6138(8) -0.2256(9) -0.03302(19)
O4P O 0.6430(9) -0.3106(10) -0.08096(18)
H3P H 0.6110 -0.2901 -0.0953
O5P O 0.7675(10) -0.1177(13) 0.0844(5)
C15P C 0.73238(16) -0.20531(23) 0.09264(6)
O6P O 0.7786(8) -0.2510(11) 0.1105(4)
C16P C 0.8842(5) -0.1822(9) 0.12135(19)
H4P H 0.9301 -0.1985 0.1058
H5P H 0.9029 -0.1105 0.1157
C17P C 0.8941(6) -0.1965(9) 0.1660(2)
O7P O 0.8199(5) -0.2454(8) 0.1868(2)
O8P O 0.9885(5) -0.1492(8) 0.1780(2)
H6P H 0.9902 -0.1433 0.2030
C1Q C 0.26125(22) -0.20021(16) 0.09039(5)
C2Q C 0.30344(21) -0.25804(15) 0.06886(5)
C3Q C 0.22854(21) -0.36440(15) 0.06995(5)
C4Q C 0.14362(21) -0.37738(15) 0.09549(5)
C5Q C 0.08901(21) -0.46394(15) 0.11893(5)
C6Q C 0.06396(21) -0.45285(15) 0.15912(5)
C7Q C 0.08675(21) -0.35731(15) 0.17341(5)
C8Q C 0.14116(21) -0.26915(15) 0.14898(6)
C9Q C 0.16724(21) -0.27948(15) 0.11012(5)
C10Q C 0.28628(22) -0.09041(15) 0.08240(5)
C11Q C 0.11444(21) -0.32620(15) 0.21608(5)
O1Q O 0.4137(11) -0.0513(9) 0.0315(3)
C12Q C 0.34198(23) -0.04554(17) 0.04384(6)
O2Q O 0.2884(8) -0.0125(6) 0.0232(2)
C13Q C 0.3236(11) 0.0202(7) -0.0170(2)
H1Q H 0.3006 0.0677 -0.0264
H2Q H 0.3994 0.0568 -0.0178
C14Q C 0.2805(9) -0.0735(6) -0.0445(2)
O3Q O 0.2256(9) -0.1607(5) -0.03302(19)
O4Q O 0.3106(10) -0.0465(5) -0.08096(18)
H3Q H 0.2901 -0.0990 -0.0953
O5Q O 0.1177(13) -0.1149(9) 0.0844(5)
C15Q C 0.20531(23) -0.06232(16) 0.09264(6)
O6Q O 0.2510(11) 0.0295(7) 0.1105(4)
C16Q C 0.1822(9) 0.0663(7) 0.12135(19)
H4Q H 0.1985 0.1285 0.1058
H5Q H 0.1105 0.0133 0.1157
C17Q C 0.1965(9) 0.0905(7) 0.1660(2)
O7Q O 0.2454(8) 0.0652(6) 0.1868(2)
O8Q O 0.1492(8) 0.1376(6) 0.1780(2)
H6Q H 0.1433 0.1334 0.2030
C1O C 0.20021(16) -0.53855(15) 0.09039(5)
C2O C 0.25804(15) -0.43853(15) 0.06886(5)
C3O C 0.36440(15) -0.40707(15) 0.06995(5)
C4O C 0.37738(15) -0.47901(15) 0.09549(5)
C5O C 0.46394(15) -0.44706(15) 0.11893(5)
C6O C 0.45285(15) -0.48320(15) 0.15912(5)
C7O C 0.35731(15) -0.55595(15) 0.17341(5)
C8O C 0.26915(15) -0.58970(14) 0.14898(6)
C9O C 0.27948(15) -0.55329(14) 0.11012(5)
C10O C 0.09041(15) -0.62332(16) 0.08240(5)
C11O C 0.32620(15) -0.55937(15) 0.21608(5)
O1O O 0.0513(9) -0.5351(6) 0.0315(3)
C12O C 0.04554(17) -0.61249(16) 0.04384(6)
O2O O 0.0125(6) -0.6992(5) 0.0232(2)
C13O C -0.0202(7) -0.6967(9) -0.0170(2)
H1O H -0.0677 -0.7672 -0.0264
H2O H -0.0568 -0.6575 -0.0178
C14O C 0.0735(6) -0.6461(7) -0.0445(2)
O3O O 0.1607(5) -0.6138(8) -0.03302(19)
O4O O 0.0465(5) -0.6430(9) -0.08096(18)
H3O H 0.0990 -0.6110 -0.0953
O5O O 0.1149(9) -0.7675(10) 0.0844(5)
C15O C 0.06232(16) -0.73238(16) 0.09264(6)
O6O O -0.0295(7) -0.7786(8) 0.1105(4)
C16O C -0.0663(7) -0.8842(5) 0.12135(19)
H4O H -0.1285 -0.9301 0.1058
H5O H -0.0133 -0.9029 0.1157
C17O C -0.0905(7) -0.8941(6) 0.1660(2)
O7O O -0.0652(6) -0.8199(5) 0.1868(2)
O8O O -0.1376(6) -0.9885(5) 0.1780(2)
H6O H -0.1334 -0.9902 0.2030
O9 O 0.8501(2) 0.3304(2) 0.07937(8)
H7 H 0.8286 0.2729 0.0685
C18 C 0.8247(4) 0.3918(4) 0.05510(17)
H8 H 0.7972 0.4256 0.0719
H9 H 0.7732 0.3484 0.0353
H10 H 0.8863 0.4437 0.0413
O9A O -0.3304(2) -0.4803(3) 0.07937(8)
H7A H -0.2729 -0.4443 0.0685
C18A C -0.3918(4) -0.5671(6) 0.05510(17)
H8A H -0.4256 -0.6284 0.0719
H9A H -0.3484 -0.5752 0.0353
H10A H -0.4437 -0.5574 0.0413
O9B O 0.4803(3) -0.8501(2) 0.07937(8)
H7B H 0.4443 -0.8286 0.0685
C18B C 0.5671(6) -0.8247(4) 0.05510(17)
H8B H 0.6284 -0.7972 0.0719
H9B H 0.5752 -0.7732 0.0353
H10B H 0.5574 -0.8863 0.0413
O9P O 0.9971(2) -0.1864(3) 0.25396(8)
H7P H 0.9396 -0.2224 0.2648
C18P C 1.0585(4) -0.0996(6) 0.27823(17)
H8P H 1.0923 -0.0383 0.2614
H9P H 1.0151 -0.0915 0.2980
H10P H 1.1104 -0.1093 0.2920
O9Q O 0.1864(3) 0.1834(2) 0.25396(8)
H7Q H 0.2224 0.1619 0.2648
C18Q C 0.0996(6) 0.1580(4) 0.27823(17)
H8Q H 0.0383 0.1305 0.2614
H9Q H 0.0915 0.1065 0.2980
H10Q H 0.1093 0.2196 0.2920
O9O O -0.1834(2) -0.9971(2) 0.25396(8)
H7O H -0.1619 -0.9396 0.2648
C18O C -0.1580(4) -1.0585(4) 0.27823(17)
H8O H -0.1305 -1.0923 0.2614
H9O H -0.1065 -1.0151 0.2980
H10O H -0.2196 -1.1104 0.2920
C32 C 0.6073(17) 0.279(2) 0.3075(7)
H27 H 0.5423 0.2131 0.3075
H28 H 0.6181 0.3085 0.2802
Cl2A Cl 0.6367(13) 0.2333(18) 0.3413(5)
Cl1B Cl 0.5495(9) 0.2913(8) 0.3197(2)
Cl1 Cl 0.7087(8) 0.2582(5) 0.3197(2)
C32A C 0.721(2) 0.3283(26) 0.3075(7)
H27A H 0.7869 0.3292 0.3075
H28A H 0.6915 0.3096 0.2802
Cl2B Cl 0.7667(18) 0.4034(13) 0.3413(5)
Cl2 Cl 0.5966(13) 0.3633(13) 0.3413(5)
Cl1A Cl 0.7418(5) 0.4505(9) 0.3197(2)
C32B C 0.6717(26) 0.3927(17) 0.3075(7)
H27B H 0.6708 0.4577 0.3075
H28B H 0.6904 0.3819 0.2802
C32L C 0.7260(17) 0.388(2) 0.3592(7)
H27L H 0.7910 0.4536 0.3592
H28L H 0.7152 0.3582 0.3865
Cl2M Cl 0.6966(13) 0.4334(18) 0.3254(5)
Cl1N Cl 0.7838(9) 0.3754(8) 0.3470(2)
Cl1L Cl 0.6246(8) 0.4085(5) 0.3470(2)
C32M C 0.612(2) 0.3384(26) 0.3592(7)
H27M H 0.5464 0.3375 0.3592
H28M H 0.6418 0.3571 0.3865
Cl2N Cl 0.5666(18) 0.2633(13) 0.3254(5)
Cl2L Cl 0.7367(13) 0.3034(13) 0.3254(5)
Cl1M Cl 0.5915(5) 0.2162(9) 0.3470(2)
C32N C 0.6616(26) 0.2740(17) 0.3592(7)
H27N H 0.6625 0.2090 0.3592
H28N H 0.6429 0.2848 0.3865
O10? O 0.610(2) -0.1343(14) 0.3019(8)
C19? C 0.62113(17) -0.05418(16) 0.28949(6)
O11? O 0.6763(17) 0.0328(13) 0.3109(6)
C20? C 0.693(2) 0.013(3) 0.3517(6)
H11? H 0.7552 0.0734 0.3625
H12? H 0.7046 -0.0463 0.3524
C21? C 0.600(2) -0.010(2) 0.3772(8)
O12? O 0.517(3) -0.028(3) 0.3650(11)
O13? O 0.623(3) -0.006(3) 0.4151(8)
H13? H 0.5693 -0.0313 0.4288
O14? O 0.5482(18) 0.099(2) 0.2469(11)
C22? C 0.60435(16) 0.06571(16) 0.24069(6)
O15? O 0.6977(16) 0.123(2) 0.2237(11)
C23? C 0.724(2) 0.2195(18) 0.2054(7)
H14? H 0.7755 0.2758 0.2223
H15? H 0.6625 0.2266 0.2040
C24? C 0.768(2) 0.229(2) 0.1637(8)
O16? O 0.746(4) 0.156(3) 0.1420(11)
O17? O 0.830(3) 0.324(2) 0.1522(10)
C25? C 0.8246(14) 0.3447(15) 0.1138(7)
H16? H 0.8632 0.3213 0.0975
H17? H 0.8541 0.4187 0.1103
H18? H 0.7529 0.3093 0.1051
O18? O 0.6547(14) -0.1105(13) 0.2945(6)
C26? C 0.62113(17) -0.05418(16) 0.28949(6)
O19? O 0.637(2) 0.0246(13) 0.3126(5)
C27? C 0.6618(17) 0.019(3) 0.3536(5)
H19? H 0.6917 0.0871 0.3661
H20? H 0.7133 -0.0037 0.3547
C28? C 0.5660(16) -0.0572(17) 0.3765(6)
O20? O 0.4796(15) -0.105(2) 0.3626(7)
O21? O 0.5894(19) -0.067(2) 0.4131(6)
H21? H 0.5406 -0.0783 0.4284
O22? O 0.557(2) 0.109(3) 0.2389(8)
C29? C 0.60435(16) 0.06571(16) 0.24069(6)
O23? O 0.7049(13) 0.1144(17) 0.2310(10)
C30? C 0.7547(13) 0.2203(12) 0.2178(5)
H22? H 0.8275 0.2558 0.2259
H23? H 0.7216 0.2555 0.2307
C31? C 0.7477(19) 0.2263(18) 0.1729(6)
O24? O 0.716(3) 0.1511(19) 0.1514(8)
O25? O 0.780(2) 0.3199(17) 0.1601(8)
H24? H 0.7837 0.3212 0.1350
O26? O 0.8195(10) 0.3573(10) 0.0834(5)
H25? H 0.774(2) 0.306(4) 0.0648(13)
H26? H 0.8842(15) 0.361(4) 0.079(2)
loop_
_geom_bond_atom_site_label_1
_geom_bond_atom_site_label_2
_geom_bond_site_symmetry_1
_geom_bond_site_symmetry_2
C1 C2 1_555 1_555
C2 C3 1_555 1_555
C3 C4 1_555 1_555
C4 C5 1_555 1_555
C5 C6 1_555 1_555
C6 C7 1_555 1_555
C7 C8 1_555 1_555
C8 C9 1_555 1_555
C9 C1 1_555 1_555
C10 C1 1_555 1_555
C11 C7 1_555 1_555
O1 C12 1_555 1_555
C12 C10 1_555 1_555
O2 C12 1_555 1_555
C13 O2 1_555 1_555
H1 C13 1_555 1_555
H2 C13 1_555 1_555
C14 C13 1_555 1_555
O3 C14 1_555 1_555
O4 C14 1_555 1_555
H3 O4 1_555 1_555
O5 C15 1_555 1_555
C15 C10 1_555 1_555
O6 C15 1_555 1_555
C16 O6 1_555 1_555
H4 C16 1_555 1_555
H5 C16 1_555 1_555
C17 C16 1_555 1_555
O7 C17 1_555 1_555
O8 C17 1_555 1_555
H6 O8 1_555 1_555
O9 H7 1_555 1_555
C18 O9 1_555 1_555
H8 C18 1_555 1_555
H9 C18 1_555 1_555
H10 C18 1_555 1_555
C32 H27 1_555 1_555
H28 C32 1_555 1_555
Cl1 C32A 1_555 1_555
Cl2 C32B 1_555 1_555
C1A C2A 1_555 1_555
C2A C3 1_555 1_555
C3A C2A 1_555 1_555
C4A C3A 1_555 1_555
C5A C4A 1_555 1_555
C6A C5A 1_555 1_555
C7A C6A 1_555 1_555
C8A C7A 1_555 1_555
C9A C1A 1_555 1_555
C10A C1A 1_555 1_555
C11A C7A 1_555 1_555
O1A C12A 1_555 1_555
C12A C10A 1_555 1_555
O2A C12A 1_555 1_555
C13A O2A 1_555 1_555
H1A C13A 1_555 1_555
H2A C13A 1_555 1_555
C14A C13A 1_555 1_555
O3A C14A 1_555 1_555
O4A C14A 1_555 1_555
H3A O4A 1_555 1_555
O5A C15A 1_555 1_555
C15A C10A 1_555 1_555
O6A C15A 1_555 1_555
C16A O6A 1_555 1_555
H4A C16A 1_555 1_555
H5A C16A 1_555 1_555
C17A C16A 1_555 1_555
O7A C17A 1_555 1_555
O8A C17A 1_555 1_555
H6A O8A 1_555 1_555
C1B C2B 1_555 1_555
C2B C3A 1_555 1_555
C3B C2 1_555 1_555
C4B C3B 1_555 1_555
C5B C4B 1_555 1_555
C6B C5B 1_555 1_555
C7B C6B 1_555 1_555
C8B C7B 1_555 1_555
C9B C1B 1_555 1_555
C10B C1B 1_555 1_555
C11B C7B 1_555 1_555
O1B C12B 1_555 1_555
C12B C10B 1_555 1_555
O2B C12B 1_555 1_555
C13B O2B 1_555 1_555
H1B C13B 1_555 1_555
H2B C13B 1_555 1_555
C14B C13B 1_555 1_555
O3B C14B 1_555 1_555
O4B C14B 1_555 1_555
H3B O4B 1_555 1_555
O5B C15B 1_555 1_555
C15B C10B 1_555 1_555
O6B C15B 1_555 1_555
C16B O6B 1_555 1_555
H4B C16B 1_555 1_555
H5B C16B 1_555 1_555
C17B C16B 1_555 1_555
O7B C17B 1_555 1_555
O8B C17B 1_555 1_555
H6B O8B 1_555 1_555
C1P C11B 1_555 1_555
C2P C1P 1_555 1_555
C3P C2P 1_555 1_555
C4P C3P 1_555 1_555
C5P C11 1_555 1_555
C6P C8 1_555 1_555
C7P C6P 1_555 1_555
C8P C6B 1_555 1_555
C9P C1P 1_555 1_555
C10P C11B 1_555 1_555
C11P C1 1_555 1_555
O1P C12P 1_555 1_555
C12P C10P 1_555 1_555
O2P C12P 1_555 1_555
C13P O2P 1_555 1_555
H1P C13P 1_555 1_555
H2P C13P 1_555 1_555
C14P C13P 1_555 1_555
O3P C14P 1_555 1_555
O4P C14P 1_555 1_555
H3P O4P 1_555 1_555
O5P C15P 1_555 1_555
C15P C10P 1_555 1_555
O6P C15P 1_555 1_555
C16P O6P 1_555 1_555
H4P C16P 1_555 1_555
H5P C16P 1_555 1_555
C17P C16P 1_555 1_555
O7P C17P 1_555 1_555
O8P C17P 1_555 1_555
H6P O8P 1_555 1_555
C1Q C11 1_555 1_555
C2Q C3P 1_555 1_555
C3Q C2Q 1_555 1_555
C4Q C3Q 1_555 1_555
C5Q C11A 1_555 1_555
C6Q C8A 1_555 1_555
C7Q C6Q 1_555 1_555
C8Q C6 1_555 1_555
C9Q C1Q 1_555 1_555
C10Q C11 1_555 1_555
C11Q C5 1_555 1_555
O1Q C12Q 1_555 1_555
C12Q C10Q 1_555 1_555
O2Q C12Q 1_555 1_555
C13Q O2Q 1_555 1_555
H1Q C13Q 1_555 1_555
H2Q C13Q 1_555 1_555
C14Q C13Q 1_555 1_555
O3Q C14Q 1_555 1_555
O4Q C14Q 1_555 1_555
H3Q O4Q 1_555 1_555
O5Q C15Q 1_555 1_555
C15Q C10Q 1_555 1_555
O6Q C15Q 1_555 1_555
C16Q O6Q 1_555 1_555
H4Q C16Q 1_555 1_555
H5Q C16Q 1_555 1_555
C17Q C16Q 1_555 1_555
O7Q C17Q 1_555 1_555
O8Q C17Q 1_555 1_555
H6Q O8Q 1_555 1_555
C1O C11A 1_555 1_555
C2O C3Q 1_555 1_555
C3O C2P 1_555 1_555
C4O C3O 1_555 1_555
C5O C11B 1_555 1_555
C6O C8B 1_555 1_555
C7O C6O 1_555 1_555
C8O C6A 1_555 1_555
C9O C1O 1_555 1_555
C10O C11A 1_555 1_555
C11O C5A 1_555 1_555
O1O C12O 1_555 1_555
C12O C10O 1_555 1_555
O2O C12O 1_555 1_555
C13O O2O 1_555 1_555
H1O C13O 1_555 1_555
H2O C13O 1_555 1_555
C14O C13O 1_555 1_555
O3O C14O 1_555 1_555
O4O C14O 1_555 1_555
H3O O4O 1_555 1_555
O5O C15O 1_555 1_555
C15O C10O 1_555 1_555
O6O C15O 1_555 1_555
C16O O6O 1_555 1_555
H4O C16O 1_555 1_555
H5O C16O 1_555 1_555
C17O C16O 1_555 1_555
O7O C17O 1_555 1_555
O8O C17O 1_555 1_555
H6O O8O 1_555 1_555
O9A H7A 1_555 1_555
C18A O9A 1_555 1_555
H8A C18A 1_555 1_555
H9A C18A 1_555 1_555
H10A C18A 1_555 1_555
O9B H7B 1_555 1_555
C18B O9B 1_555 1_555
H8B C18B 1_555 1_555
H9B C18B 1_555 1_555
H10B C18B 1_555 1_555
O9P H7P 1_555 1_555
C18P O9P 1_555 1_555
H8P C18P 1_555 1_555
H9P C18P 1_555 1_555
H10P C18P 1_555 1_555
O9Q H7Q 1_555 1_555
C18Q O9Q 1_555 1_555
H8Q C18Q 1_555 1_555
H9Q C18Q 1_555 1_555
H10Q C18Q 1_555 1_555
O9O H7O 1_555 1_555
C18O O9O 1_555 1_555
H8O C18O 1_555 1_555
H9O C18O 1_555 1_555
H10O C18O 1_555 1_555
Cl2A C32 1_555 1_555
Cl1B C32 1_555 1_555
C32A H27A 1_555 1_555
H28A C32A 1_555 1_555
Cl2B C32A 1_555 1_555
Cl1A C32B 1_555 1_555
C32B H27B 1_555 1_555
H28B C32B 1_555 1_555
C32L H27L 1_555 1_555
H28L C32L 1_555 1_555
Cl2M C32L 1_555 1_555
Cl1N C32L 1_555 1_555
Cl1L C32M 1_555 1_555
C32M H27M 1_555 1_555
H28M C32M 1_555 1_555
Cl2N C32M 1_555 1_555
Cl2L C32N 1_555 1_555
Cl1M C32N 1_555 1_555
C32N H27N 1_555 1_555
H28N C32N 1_555 1_555
C4 C9 1_555 1_555
C10 C11P 1_555 1_555
C1A C11Q 1_555 1_555
C4A C9A 1_555 1_555
C8A C9A 1_555 1_555
C10A C11Q 1_555 1_555
C1B C11O 1_555 1_555
C2B C3B 1_555 1_555
C4B C9B 1_555 1_555
C5B C11P 1_555 1_555
C8B C9B 1_555 1_555
C10B C11O 1_555 1_555
C1P C10P 1_555 1_555
C4P C5P 1_555 1_555
C4P C9P 1_555 1_555
C5P C6P 1_555 1_555
C7P C8P 1_555 1_555
C7P C11P 1_555 1_555
C8P C9P 1_555 1_555
C1Q C2Q 1_555 1_555
C1Q C10Q 1_555 1_555
C4Q C5Q 1_555 1_555
C4Q C9Q 1_555 1_555
C5Q C6Q 1_555 1_555
C7Q C8Q 1_555 1_555
C7Q C11Q 1_555 1_555
C8Q C9Q 1_555 1_555
C1O C2O 1_555 1_555
C1O C10O 1_555 1_555
C2O C3O 1_555 1_555
C4O C5O 1_555 1_555
C4O C9O 1_555 1_555
C5O C6O 1_555 1_555
C7O C8O 1_555 1_555
C7O C11O 1_555 1_555
C8O C9O 1_555 1_555

#END
