
#######################################################################
#
#                 Cambridge Crystallographic Data Centre
#                                CCDC 
#
#######################################################################
#
# If this CIF has been generated from an entry in the Cambridge 
# Structural Database, then it will include bibliographic, chemical, 
# crystal, experimental, refinement or atomic coordinate data resulting 
# from the CCDC's data processing and validation procedures.
#
#######################################################################

data_CILBEH
_chemical_formula_moiety         'C6 H6 F2 N1 1+,Cl1 O4 1-,C12 H24 O6'
_chemical_name_systematic        '3,4-difluoroanilinium perchlorate 18-crown-6'
_symmetry_cell_setting           orthorhombic
_symmetry_space_group_name_H-M   'P c a 21'
_symmetry_Int_Tables_number      29
_space_group_name_Hall           'P 2c -2ac'
loop_
_symmetry_equiv_pos_site_id
_symmetry_equiv_pos_as_xyz
1 x,y,z
2 -x,-y,1/2+z
3 1/2+x,-y,z
4 1/2-x,y,1/2+z
_cell_length_a                   14.558(5)
_cell_length_b                   11.247(4)
_cell_length_c                   14.392(5)
_cell_angle_alpha                90
_cell_angle_beta                 90
_cell_angle_gamma                90
_cell_volume                     2356.46
_exptl_crystal_colour            colorless
_exptl_crystal_description       block
_cell_formula_units_Z            4
loop_
_atom_site_label
_atom_site_type_symbol
_atom_site_fract_x
_atom_site_fract_y
_atom_site_fract_z
Cl1 Cl 0.2163(2) 0.2517(3) 0.8873(3)
O1 O 0.3108(7) 0.2360(10) 0.9098(9)
O2 O 0.2046(18) 0.3371(17) 0.8158(16)
O3 O 0.1819(14) 0.1365(14) 0.8654(15)
O4 O 0.1704(17) 0.298(2) 0.9676(15)
C1 C 0.0663(12) 0.6531(14) 0.5170(13)
H1 H 0.0111 0.6054 0.5108
H2 H 0.0963 0.6574 0.4569
C2 C 0.0980(11) 0.9731(11) 0.5783(13)
H3 H 0.0648 0.9758 0.6367
H4 H 0.0585 1.0048 0.5301
C3 C 0.1855(12) 1.0488(13) 0.5855(13)
H5 H 0.2177 1.0481 0.5265
H6 H 0.1693 1.1304 0.5999
C4 C 0.3793(12) 1.0224(15) 0.7451(11)
H7 H 0.4335 1.0712 0.7544
H8 H 0.3432 1.0235 0.8018
C5 C 0.0423(10) 0.7785(10) 0.5520(9)
H9 H -0.0021 0.8147 0.5104
H10 H 0.0147 0.7731 0.6132
C6 C 0.3233(11) 1.0693(12) 0.6647(13)
H11 H 0.3087 1.1523 0.6754
H12 H 0.3592 1.0642 0.6080
O8 O 0.2415(7) 1.0043(7) 0.6538(7)
O9 O 0.1222(6) 0.8503(9) 0.5564(7)
O10 O 0.1271(8) 0.6014(9) 0.5850(8)
C7 C 0.1657(12) 0.4904(15) 0.5449(13)
H13 H 0.2017 0.5083 0.4899
H14 H 0.1167 0.4364 0.5276
C8 C 0.2254(14) 0.4352(16) 0.6184(19)
H15 H 0.1898 0.4201 0.6741
H16 H 0.2504 0.3603 0.5964
O11 O 0.2984(8) 0.5179(8) 0.6378(8)
C9 C 0.4450(12) 0.5436(15) 0.7202(16)
H17 H 0.4826 0.5040 0.7665
H18 H 0.4824 0.5567 0.6654
O12 O 0.4148(6) 0.6524(9) 0.7550(7)
C10 C 0.4899(10) 0.7307(11) 0.7664(11)
H19 H 0.5213 0.7415 0.7076
H20 H 0.5332 0.6979 0.8107
O13 O 0.4049(6) 0.9045(9) 0.7226(7)
C11 C 0.4549(10) 0.8463(14) 0.8003(12)
H21 H 0.5055 0.8961 0.8206
H22 H 0.4138 0.8342 0.8526
C12 C 0.3658(14) 0.4679(15) 0.6963(18)
H23 H 0.3890 0.3965 0.6666
H24 H 0.3362 0.4438 0.7536
N1 N 0.7569(7) 0.2486(9) 0.1976(7)
H25 H 0.7542 0.1729 0.1776
H26 H 0.6990 0.2741 0.2067
H27 H 0.7844 0.2922 0.1532
F1 F 0.9528(10) 0.2689(15) 0.5278(9)
C13 C 0.9038(10) 0.2702(19) 0.4452(11)
C14 C 0.8846(13) 0.1623(18) 0.4090(12)
C15 C 0.8743(11) 0.3701(18) 0.4069(11)
H28 H 0.8860 0.4439 0.4335
C16 C 0.8085(8) 0.2485(12) 0.2853(9)
C17 C 0.8263(12) 0.3590(15) 0.3274(11)
H29 H 0.8040 0.4274 0.2991
C18 C 0.8383(11) 0.1459(15) 0.3246(11)
H30 H 0.8288 0.0715 0.2980
F2 F 0.9230(11) 0.0673(14) 0.4498(10)
O5? O 0.1969(17) 0.2036(19) 0.7942(14)
O6? O 0.1632(16) 0.187(2) 0.9570(14)
O7? O 0.1852(16) 0.3686(15) 0.8779(18)
loop_
_geom_bond_atom_site_label_1
_geom_bond_atom_site_label_2
_geom_bond_site_symmetry_1
_geom_bond_site_symmetry_2
Cl1 O1 1_555 1_555
O2 Cl1 1_555 1_555
O3 Cl1 1_555 1_555
O4 Cl1 1_555 1_555
C1 H1 1_555 1_555
H2 C1 1_555 1_555
C2 H3 1_555 1_555
H4 C2 1_555 1_555
C3 C2 1_555 1_555
H5 C3 1_555 1_555
H6 C3 1_555 1_555
C4 H7 1_555 1_555
H8 C4 1_555 1_555
C5 C1 1_555 1_555
H9 C5 1_555 1_555
H10 C5 1_555 1_555
C6 C4 1_555 1_555
H11 C6 1_555 1_555
H12 C6 1_555 1_555
O8 C3 1_555 1_555
O9 C2 1_555 1_555
O10 C1 1_555 1_555
C7 O10 1_555 1_555
H13 C7 1_555 1_555
H14 C7 1_555 1_555
C8 C7 1_555 1_555
H15 C8 1_555 1_555
H16 C8 1_555 1_555
O11 C8 1_555 1_555
C9 H17 1_555 1_555
H18 C9 1_555 1_555
O12 C9 1_555 1_555
C10 O12 1_555 1_555
H19 C10 1_555 1_555
H20 C10 1_555 1_555
O13 C4 1_555 1_555
C11 C10 1_555 1_555
H21 C11 1_555 1_555
H22 C11 1_555 1_555
C12 O11 1_555 1_555
H23 C12 1_555 1_555
H24 C12 1_555 1_555
N1 H25 1_555 1_555
H26 N1 1_555 1_555
H27 N1 1_555 1_555
F1 C13 1_555 1_555
C13 C14 1_555 1_555
C14 C18 1_555 1_555
C15 C13 1_555 1_555
H28 C15 1_555 1_555
C16 N1 1_555 1_555
C17 C15 1_555 1_555
H29 C17 1_555 1_555
C18 C16 1_555 1_555
H30 C18 1_555 1_555
F2 C14 1_555 1_555
C5 O9 1_555 1_555
C6 O8 1_555 1_555
C9 C12 1_555 1_555
O13 C11 1_555 1_555
C16 C17 1_555 1_555

#END
