
#######################################################################
#
#                 Cambridge Crystallographic Data Centre
#                                CCDC 
#
#######################################################################
#
# If this CIF has been generated from an entry in the Cambridge 
# Structural Database, then it will include bibliographic, chemical, 
# crystal, experimental, refinement or atomic coordinate data resulting 
# from the CCDC's data processing and validation procedures.
#
#######################################################################

data_CILHIO06
_chemical_formula_moiety         'C10 H8 S8 1+,C10 H8 S8,I3 1-'
_chemical_name_systematic        
'bis(bis(Ethylenedithio)tetrathiafulvalene) tri-iodide'
_symmetry_cell_setting           triclinic
_symmetry_space_group_name_H-M   'P -1'
_symmetry_Int_Tables_number      2
_space_group_name_Hall           '-P 1'
loop_
_symmetry_equiv_pos_site_id
_symmetry_equiv_pos_as_xyz
1 x,y,z
2 -x,-y,-z
_cell_length_a                   6.560(1)
_cell_length_b                   9.011(2)
_cell_length_c                   15.171(3)
_cell_angle_alpha                95.08(2)
_cell_angle_beta                 95.94(2)
_cell_angle_gamma                110.28(2)
_cell_volume                     829.209
_exptl_crystal_colour            black
_cell_formula_units_Z            1
loop_
_atom_site_label
_atom_site_type_symbol
_atom_site_fract_x
_atom_site_fract_y
_atom_site_fract_z
I1 I 0.0000 0.0000 0.0000
I2 I 0.4098(1) 0.2509(1) -0.0187(1)
I2A I -0.4098(1) -0.2509(1) 0.0187(1)
S1 S 0.4635(4) -0.2612(3) 0.4483(1)
S2 S 0.0952(4) -0.1454(3) 0.4311(1)
S3 S 0.2822(4) -0.4306(3) 0.6202(1)
S4 S -0.0852(4) -0.3140(3) 0.5983(1)
S5 S 0.6360(3) -0.1415(3) 0.2861(2)
S6 S 0.2055(3) 0.0070(3) 0.2697(2)
S7 S 0.1987(3) -0.5422(3) 0.7944(1)
S8 S -0.2393(4) -0.3972(3) 0.7691(1)
C1 C 0.2264(17) -0.2543(11) 0.4883(5)
C2 C 0.1495(16) -0.3269(10) 0.5592(5)
C3 C 0.4378(16) -0.1606(10) 0.3567(5)
C4 C 0.2717(16) -0.1046(10) 0.3494(5)
C5 C 0.1161(16) -0.4532(10) 0.7060(5)
C6 C -0.0500(16) -0.3995(10) 0.6961(5)
C7 C 0.6324(17) 0.0358(11) 0.2403(6)
C8 C 0.4066(18) 0.0195(12) 0.1945(6)
C9 C -0.0339(31) -0.5805(20) 0.8548(10)
C10 C -0.1010(32) -0.4367(21) 0.8707(11)
H1 H 0.7455 0.0613 0.1919
H2 H 0.6851 0.1339 0.2940
H3 H 0.4244 0.1222 0.1600
H4 H 0.3457 -0.0874 0.1466
H5 H 0.0082 -0.6144 0.9187
H6 H -0.1712 -0.6774 0.8166
H7 H -0.2112 -0.4576 0.9202
H8 H 0.0443 -0.3333 0.8953
loop_
_geom_bond_atom_site_label_1
_geom_bond_atom_site_label_2
_geom_bond_site_symmetry_1
_geom_bond_site_symmetry_2
S1 C1 1_555 1_555
S2 C1 1_555 1_555
S3 C2 1_555 1_555
S4 C2 1_555 1_555
S5 C3 1_555 1_555
S6 C4 1_555 1_555
S7 C5 1_555 1_555
S8 C6 1_555 1_555
C1 C2 1_555 1_555
C3 S1 1_555 1_555
C4 S2 1_555 1_555
C5 S3 1_555 1_555
C6 S4 1_555 1_555
C7 S5 1_555 1_555
C8 S6 1_555 1_555
C9 S7 1_555 1_555
C10 S8 1_555 1_555
H1 C7 1_555 1_555
H2 C7 1_555 1_555
H3 C8 1_555 1_555
H4 C8 1_555 1_555
H5 C9 1_555 1_555
H6 C9 1_555 1_555
H7 C10 1_555 1_555
H8 C10 1_555 1_555
I1 I2 1_555 1_555
I2A I1 1_555 1_555
C3 C4 1_555 1_555
C5 C6 1_555 1_555
C7 C8 1_555 1_555
C9 C10 1_555 1_555

#END
