
#######################################################################
#
#                 Cambridge Crystallographic Data Centre
#                                CCDC 
#
#######################################################################
#
# If this CIF has been generated from an entry in the Cambridge 
# Structural Database, then it will include bibliographic, chemical, 
# crystal, experimental, refinement or atomic coordinate data resulting 
# from the CCDC's data processing and validation procedures.
#
#######################################################################

data_CILHIO03
_chemical_formula_moiety         'C10 H8 S8 1+,C10 H8 S8,I3 1-'
_chemical_name_systematic        
'bis(bis(Ethylenedithio)-tetrathiofulvalene) tri-iodide'
_symmetry_cell_setting           triclinic
_symmetry_space_group_name_H-M   'P -1'
_symmetry_Int_Tables_number      2
_space_group_name_Hall           '-P 1'
loop_
_symmetry_equiv_pos_site_id
_symmetry_equiv_pos_as_xyz
1 x,y,z
2 -x,-y,-z
_cell_length_a                   6.561(1)
_cell_length_b                   9.010(2)
_cell_length_c                   15.173(2)
_cell_angle_alpha                95.09(1)
_cell_angle_beta                 95.95(1)
_cell_angle_gamma                110.27(1)
_cell_volume                     829.366
_cell_formula_units_Z            1
loop_
_atom_site_label
_atom_site_type_symbol
_atom_site_fract_x
_atom_site_fract_y
_atom_site_fract_z
I1 I 0.0000 0.0000 0.0000
I2 I 0.4111(2) 0.2506(1) -0.0189(5)
I2A I -0.4111(2) -0.2506(1) 0.0189(5)
S1 S 0.4636(5) -0.2610(3) 0.4481(2)
S2 S 0.0955(5) -0.1454(3) 0.4310(2)
S3 S 0.2822(5) -0.4396(3) 0.6202(2)
S4 S -0.0855(5) -0.3142(3) 0.5983(2)
S5 S 0.6357(6) -0.1414(4) 0.2861(2)
S6 S 0.2049(6) 0.0071(4) 0.2698(2)
S7 S 0.1988(5) -0.5423(3) 0.7943(2)
S8 S -0.2392(5) -0.3975(3) 0.7691(2)
C1 C 0.2269(20) -0.2549(13) 0.4881(6)
C2 C 0.1494(20) -0.3274(13) 0.5589(6)
C3 C 0.4377(20) -0.1601(12) 0.3564(6)
C4 C 0.2702(20) -0.1050(12) 0.3491(6)
C5 C 0.1166(20) -0.4531(12) 0.7060(6)
C6 C -0.0512(19) -0.3986(12) 0.6965(6)
C7 C 0.6337(20) 0.0358(13) 0.2400(7)
C8 C 0.4077(22) 0.0205(15) 0.1947(7)
C9 C -0.0320(37) -0.5854(23) 0.8544(12)
loop_
_geom_bond_atom_site_label_1
_geom_bond_atom_site_label_2
_geom_bond_site_symmetry_1
_geom_bond_site_symmetry_2
S1 C1 1_555 1_555
S2 C1 1_555 1_555
S3 C2 1_555 1_555
S4 C2 1_555 1_555
S5 C3 1_555 1_555
S6 C4 1_555 1_555
S7 C5 1_555 1_555
S8 C6 1_555 1_555
C1 C2 1_555 1_555
C3 S1 1_555 1_555
C4 S2 1_555 1_555
C5 S3 1_555 1_555
C6 S4 1_555 1_555
C7 S5 1_555 1_555
C8 S6 1_555 1_555
C9 S7 1_555 1_555
I1 I2 1_555 1_555
I2A I1 1_555 1_555
C3 C4 1_555 1_555
C5 C6 1_555 1_555
C7 C8 1_555 1_555

#END
