
#######################################################################
#
#                 Cambridge Crystallographic Data Centre
#                                CCDC 
#
#######################################################################
#
# If this CIF has been generated from an entry in the Cambridge 
# Structural Database, then it will include bibliographic, chemical, 
# crystal, experimental, refinement or atomic coordinate data resulting 
# from the CCDC's data processing and validation procedures.
#
#######################################################################

data_CILHIO36
_chemical_formula_moiety         'C10 H8 S8 1+,C10 H8 S8,I3 1-'
_chemical_name_systematic        
'bis(bis(Ethylenedithio)tetrathiafulvalene) triiodide'
_symmetry_cell_setting           triclinic
_symmetry_space_group_name_H-M   'P -1'
_symmetry_Int_Tables_number      2
_space_group_name_Hall           '-P 1'
loop_
_symmetry_equiv_pos_site_id
_symmetry_equiv_pos_as_xyz
1 x,y,z
2 -x,-y,-z
_cell_length_a                   6.6120(5)
_cell_length_b                   9.0987(9)
_cell_length_c                   15.2857(11)
_cell_angle_alpha                94.350(7)
_cell_angle_beta                 95.576(8)
_cell_angle_gamma                109.775(7)
_cell_volume                     855.449
_cell_formula_units_Z            1
loop_
_atom_site_label
_atom_site_type_symbol
_atom_site_fract_x
_atom_site_fract_y
_atom_site_fract_z
I1 I 0.5000 0.0000 0.0000
I2 I 0.09826(7) -0.25305(5) 0.01473(3)
I2A I 0.90174(7) 0.25305(5) -0.01473(3)
S1 S 0.0379(18) -0.73855(15) 0.55208(7)
S2 S -0.1396(2) -0.86293(19) 0.71073(10)
S3 S 0.2904(2) -1.00570(19) 0.72968(10)
S4 S 0.4030(2) -0.85291(15) 0.56945(8)
S5 S 0.21947(18) -0.56913(14) 0.38082(7)
S6 S 0.3017(2) -0.45959(17) 0.20706(8)
S7 S 0.7345(2) -0.60373(17) 0.23202(8)
S8 S 0.58151(18) -0.68690(14) 0.40176(7)
C1 C 0.2723(6) -0.7454(5) 0.5121(2)
C2 C 0.0601(7) -0.8426(5) 0.6415(3)
C3 C -0.1266(9) -1.0281(6) 0.7627(4)
C4 C 0.0910(9) -1.0205(8) 0.8017(4)
C5 C 0.2285(7) -0.8952(5) 0.6501(3)
C6 C 0.3491(7) -0.6739(5) 0.4410(2)
C7 C 0.3813(7) -0.5483(5) 0.2949(2)
C8 C 0.4897(14) -0.4702(15) 0.1339(5)
C9 C 0.6502(17) -0.5108(14) 0.1468(6)
C10 C 0.5465(6) -0.6034(5) 0.3046(2)
loop_
_geom_bond_atom_site_label_1
_geom_bond_atom_site_label_2
_geom_bond_site_symmetry_1
_geom_bond_site_symmetry_2
S1 C1 1_555 1_555
S2 C2 1_555 1_555
S3 C4 1_555 1_555
S4 C1 1_555 1_555
S5 C6 1_555 1_555
S6 C7 1_555 1_555
S7 C9 1_555 1_555
S8 C6 1_555 1_555
C1 C6 1_555 1_555
C2 S1 1_555 1_555
C3 S2 1_555 1_555
C4 C3 1_555 1_555
C5 S3 1_555 1_555
C7 S5 1_555 1_555
C8 S6 1_555 1_555
C9 C8 1_555 1_555
C10 S7 1_555 1_555
I1 I2 1_555 1_555
I2A I1 1_555 1_555
S4 C5 1_555 1_555
S8 C10 1_555 1_555
C2 C5 1_555 1_555
C7 C10 1_555 1_555

#END
