
#######################################################################
#
#                 Cambridge Crystallographic Data Centre
#                                CCDC 
#
#######################################################################
#
# If this CIF has been generated from an entry in the Cambridge 
# Structural Database, then it will include bibliographic, chemical, 
# crystal, experimental, refinement or atomic coordinate data resulting 
# from the CCDC's data processing and validation procedures.
#
#######################################################################

data_CILPES
_chemical_formula_moiety         'C17 H12 O2'
_chemical_name_systematic        Spiro(indan-1,2'-indan-1',3'-dione)
_symmetry_cell_setting           monoclinic
_symmetry_space_group_name_H-M   'P 21/n'
_symmetry_Int_Tables_number      14
_space_group_name_Hall           '-P 2yn'
loop_
_symmetry_equiv_pos_site_id
_symmetry_equiv_pos_as_xyz
1 x,y,z
2 1/2-x,1/2+y,1/2-z
3 -x,-y,-z
4 1/2+x,1/2-y,1/2+z
_cell_length_a                   12.544(2)
_cell_length_b                   7.507(1)
_cell_length_c                   13.480(2)
_cell_angle_alpha                90
_cell_angle_beta                 97.09(1)
_cell_angle_gamma                90
_cell_volume                     1259.68
_exptl_crystal_colour            colorless
_chemical_melting_point          131-133deg.C
_cell_formula_units_Z            4
loop_
_atom_site_label
_atom_site_type_symbol
_atom_site_fract_x
_atom_site_fract_y
_atom_site_fract_z
O1 O 0.3883(4) 0.1809(9) 0.4671(4)
O2 O 0.0363(4) 0.1978(8) 0.5495(4)
C1 C 0.3028(6) 0.1364(12) 0.4933(5)
C2 C 0.2855(5) -0.0130(10) 0.5600(4)
C3 C 0.1811(5) -0.0096(12) 0.5846(4)
C4 C 0.1235(5) 0.1443(12) 0.5354(6)
C5 C 0.1933(4) 0.2254(10) 0.4632(5)
C6 C 0.1521(5) 0.1739(11) 0.3566(5)
C7 C 0.1151(6) 0.3251(12) 0.2975(7)
C8 C 0.1295(7) 0.4857(11) 0.3535(8)
C9 C 0.1916(7) 0.4365(13) 0.4570(8)
C10 C 0.3571(6) -0.1420(13) 0.6004(6)
C11 C 0.3228(7) -0.2665(9) 0.6665(6)
C12 C 0.2173(6) -0.2626(11) 0.6865(5)
C13 C 0.1466(5) -0.1329(11) 0.6490(5)
C14 C 0.1443(5) 0.0069(11) 0.3158(5)
C15 C 0.1014(6) -0.0195(13) 0.2176(6)
C16 C 0.0677(7) 0.1237(17) 0.1632(7)
C17 C 0.0725(5) 0.2917(12) 0.1972(7)
loop_
_geom_bond_atom_site_label_1
_geom_bond_atom_site_label_2
_geom_bond_site_symmetry_1
_geom_bond_site_symmetry_2
O1 C1 1_555 1_555
O2 C4 1_555 1_555
C1 C2 1_555 1_555
C2 C3 1_555 1_555
C3 C4 1_555 1_555
C4 C5 1_555 1_555
C5 C1 1_555 1_555
C6 C5 1_555 1_555
C7 C6 1_555 1_555
C8 C7 1_555 1_555
C9 C5 1_555 1_555
C10 C2 1_555 1_555
C11 C10 1_555 1_555
C12 C11 1_555 1_555
C13 C3 1_555 1_555
C14 C6 1_555 1_555
C15 C14 1_555 1_555
C16 C15 1_555 1_555
C17 C7 1_555 1_555
C8 C9 1_555 1_555
C12 C13 1_555 1_555
C16 C17 1_555 1_555

#END
