
#######################################################################
#
#                 Cambridge Crystallographic Data Centre
#                                CCDC 
#
#######################################################################
#
# If this CIF has been generated from an entry in the Cambridge 
# Structural Database, then it will include bibliographic, chemical, 
# crystal, experimental, refinement or atomic coordinate data resulting 
# from the CCDC's data processing and validation procedures.
#
#######################################################################

data_CILSEY
_chemical_formula_moiety         'C57 H70 O12 S4,C7 H10 N2'
_chemical_name_systematic        
'24,49,54,56,58,60-hexamethoxy-6,12,18,31,37,43-hexaoxa-9,15,34,40-tetrathiaoctacyclo[51.2.2.2^23,26^.2^48,51^.0^3,30^.0^5,28^.0^19,46^.0^21,44^]henhexaconta-1(55),3(30),4,19(46),20,23,25,28,44,48,50,53,56,58,60-pentadecaene heptanedinitrile clathrate'
_symmetry_cell_setting           triclinic
_symmetry_space_group_name_H-M   'P -1'
_symmetry_Int_Tables_number      2
_space_group_name_Hall           '-P 1'
loop_
_symmetry_equiv_pos_site_id
_symmetry_equiv_pos_as_xyz
1 x,y,z
2 -x,-y,-z
_cell_length_a                   12.009(2)
_cell_length_b                   12.7374(19)
_cell_length_c                   21.510(3)
_cell_angle_alpha                93.681(8)
_cell_angle_beta                 90.495(9)
_cell_angle_gamma                108.968(8)
_cell_volume                     3103.65
_exptl_crystal_colour            colorless
_exptl_crystal_description       Plate
_cell_formula_units_Z            2
loop_
_atom_site_label
_atom_site_type_symbol
_atom_site_fract_x
_atom_site_fract_y
_atom_site_fract_z
O1 O 0.4952(2) -0.02523(18) 0.85630(9)
O2 O 0.0583(3) -0.2450(2) 0.92670(16)
O3 O -0.12402(17) -0.06611(16) 0.68990(10)
O4 O 0.21463(17) 0.04640(16) 0.51043(9)
O5 O 0.68584(19) 0.38802(18) 0.50382(10)
O6 O 0.7000(2) 0.4012(2) 0.78310(12)
O7 O 0.18298(18) -0.24197(17) 0.68184(10)
O8 O 0.59661(18) 0.08273(18) 0.62599(10)
O9 O -0.0117(2) 0.25214(18) 0.86123(10)
O10 O 0.07266(19) 0.34181(17) 0.61432(9)
O11 O 0.3923(3) 0.2972(2) 0.96877(10)
O12 O 0.36038(19) 0.55591(18) 0.77659(10)
S1 S 0.31158(12) -0.24484(9) 0.90102(5)
S2 S -0.22600(8) -0.28275(8) 0.82201(4)
S3 S 0.39016(7) 0.27667(7) 0.39633(4)
S4 S 0.90373(8) 0.54869(7) 0.64653(4)
C1 C 0.4945(3) -0.0447(3) 0.92105(15)
H1 H 0.4380 -0.0144 0.9428
H2 H 0.5738 -0.0079 0.9405
C2 C 0.4585(4) -0.1683(3) 0.92546(17)
H3 H 0.4699 -0.1829 0.9693
H4 H 0.5122 -0.1969 0.9001
C3 C 0.2345(4) -0.2509(4) 0.97297(17)
H5 H 0.2667 -0.2902 1.0030
H6 H 0.2474 -0.1743 0.9912
C4 C 0.1039(4) -0.3104(3) 0.96278(19)
H7 H 0.0900 -0.3846 0.9409
H8 H 0.0647 -0.3209 1.0033
C5 C -0.0545(4) -0.3022(4) 0.9001(2)
H9 H -0.1105 -0.3337 0.9328
H10 H -0.0515 -0.3637 0.8702
C6 C -0.0917(3) -0.2184(3) 0.86722(19)
H11 H -0.0286 -0.1794 0.8394
H12 H -0.1031 -0.1624 0.8983
C7 C -0.2186(3) -0.1700(3) 0.77350(16)
H13 H -0.2978 -0.1813 0.7551
H14 H -0.1943 -0.0989 0.7996
C8 C -0.1325(3) -0.1630(2) 0.72184(14)
H15 H -0.0543 -0.1579 0.7394
H16 H -0.1605 -0.2302 0.6927
C9 C 0.2462(3) 0.1524(2) 0.48411(13)
H17 H 0.2823 0.2134 0.5164
H18 H 0.1761 0.1643 0.4653
C10 C 0.3338(3) 0.1478(3) 0.43480(14)
H19 H 0.2954 0.0863 0.4032
H20 H 0.4005 0.1312 0.4544
C11 C 0.5443(3) 0.3196(3) 0.42068(15)
H21 H 0.5705 0.2534 0.4189
H22 H 0.5913 0.3714 0.3910
C12 C 0.5684(3) 0.3753(3) 0.48500(15)
H23 H 0.5574 0.4491 0.4855
H24 H 0.5128 0.3297 0.5142
C13 C 0.7217(3) 0.4548(3) 0.55964(15)
H25 H 0.6647 0.4256 0.5924
H26 H 0.7240 0.5318 0.5533
C14 C 0.8418(3) 0.4552(3) 0.58002(16)
H27 H 0.8957 0.4758 0.5449
H28 H 0.8366 0.3789 0.5898
C15 C 0.8439(6) 0.4566(6) 0.7133(3)
H29 H 0.8552 0.3837 0.7040
H30 H 0.8903 0.4914 0.7519
C16 C 0.7146(6) 0.4374(5) 0.7250(3)
H31 H 0.6959 0.5073 0.7229
H32 H 0.6639 0.3807 0.6941
C17 C 0.6521(3) 0.2936(3) 0.80013(15)
C18 C 0.6033(3) 0.2823(3) 0.85892(14)
C19 C 0.5530(3) 0.1757(3) 0.87833(14)
H33 H 0.5206 0.1665 0.9185
C20 C 0.5491(3) 0.0823(2) 0.84011(13)
C21 C 0.6497(3) 0.2008(3) 0.76280(14)
H34 H 0.6841 0.2101 0.7231
C22 C 0.5982(2) 0.0934(3) 0.78184(13)
C23 C 0.5935(3) -0.0076(3) 0.74035(14)
H35 H 0.5908 -0.0693 0.7666
H36 H 0.6665 0.0092 0.7164
C24 C 0.4881(2) -0.0450(2) 0.69524(13)
C25 C 0.3849(3) -0.1263(2) 0.71022(13)
H37 H 0.3807 -0.1584 0.7492
C26 C 0.2875(2) -0.1616(2) 0.66934(13)
C27 C 0.2920(2) -0.1160(2) 0.61168(13)
C28 C 0.3944(2) -0.0334(2) 0.59727(13)
H38 H 0.3983 -0.0008 0.5585
C29 C 0.4918(2) 0.0028(2) 0.63834(13)
C30 C 0.1704(3) -0.2807(3) 0.74281(15)
H39 H 0.0929 -0.3374 0.7456
H40 H 0.1775 -0.2183 0.7734
H41 H 0.2321 -0.3132 0.7514
C31 C 0.5975(3) 0.1467(3) 0.57443(15)
H42 H 0.6764 0.2005 0.5708
H43 H 0.5405 0.1865 0.5805
H44 H 0.5761 0.0974 0.5362
C32 C 0.1859(2) -0.1514(2) 0.56722(13)
H45 H 0.1398 -0.2304 0.5717
H46 H 0.2121 -0.1437 0.5237
C33 C 0.1093(2) -0.0789(2) 0.58160(12)
C34 C 0.0238(2) -0.1091(2) 0.62604(13)
H47 H 0.0091 -0.1781 0.6443
C35 C -0.0405(2) -0.0400(2) 0.64429(13)
C36 C -0.0232(2) 0.0602(2) 0.61625(12)
C37 C 0.0617(2) 0.0894(2) 0.57102(12)
H48 H 0.0744 0.1568 0.5514
C38 C 0.1281(2) 0.0213(2) 0.55417(12)
C39 C -0.0920(2) 0.1371(2) 0.63574(13)
H49 H -0.1709 0.0922 0.6490
H50 H -0.1030 0.1774 0.5995
C40 C -0.0298(2) 0.2210(2) 0.68879(13)
C41 C -0.0526(2) 0.1978(2) 0.75021(13)
H51 H -0.1096 0.1293 0.7591
C42 C 0.0058(3) 0.2723(2) 0.79908(13)
C43 C 0.0888(3) 0.3738(2) 0.78674(14)
C44 C 0.1112(3) 0.3975(2) 0.72518(14)
H52 H 0.1672 0.4665 0.7162
C45 C 0.0534(2) 0.3221(2) 0.67639(13)
C46 C -0.1055(3) 0.1557(3) 0.87535(16)
H53 H -0.1088 0.1508 0.9206
H54 H -0.0922 0.0893 0.8559
H55 H -0.1802 0.1605 0.8593
C47 C 0.1647(3) 0.4403(3) 0.60031(16)
H56 H 0.1690 0.4445 0.5550
H57 H 0.2400 0.4382 0.6172
H58 H 0.1484 0.5057 0.6191
C48 C 0.1542(3) 0.4566(2) 0.83936(14)
H59 H 0.1043 0.4469 0.8764
H60 H 0.1686 0.5331 0.8266
C49 C 0.2710(3) 0.4426(2) 0.85685(13)
C50 C 0.2806(3) 0.3800(2) 0.90593(14)
H61 H 0.2135 0.3483 0.9300
C51 C 0.3852(3) 0.3627(2) 0.92067(13)
C52 C 0.4843(3) 0.4065(2) 0.88619(14)
C53 C 0.4767(3) 0.4713(2) 0.83736(15)
H62 H 0.5441 0.5032 0.8135
C54 C 0.3722(3) 0.4897(2) 0.82336(14)
C55 C 0.3633(6) 0.3282(5) 1.02662(18)
H63 H 0.3710 0.2754 1.0562
H64 H 0.2818 0.3284 1.0254
H65 H 0.4162 0.4030 1.0398
C56 C 0.4632(3) 0.6131(3) 0.74584(17)
H66 H 0.4436 0.6569 0.7142
H67 H 0.4967 0.5594 0.7258
H68 H 0.5208 0.6630 0.7762
C57 C 0.5977(3) 0.3827(3) 0.89899(15)
H69 H 0.6030 0.3690 0.9435
H70 H 0.6656 0.4485 0.8904
N1 N 0.2157(7) 0.0367(5) 1.0188(3)
N2 N 0.4314(5) 0.3303(6) 0.6495(3)
C60 C 0.1966(7) 0.0404(5) 0.9700(4)
C61 C 0.1542(8) 0.0455(9) 0.9156(4)
H75 H 0.1186 0.1056 0.9189
H76 H 0.0889 -0.0250 0.9061
C62 C 0.2297(8) 0.0643(8) 0.8606(3)
H77 H 0.2677 0.0060 0.8598
H78 H 0.2933 0.1357 0.8710
C63 C 0.1926(6) 0.0689(5) 0.7930(3)
H79 H 0.1170 0.0842 0.7912
H80 H 0.1824 -0.0031 0.7694
C64 C 0.2899(5) 0.1621(5) 0.7650(2)
H81 H 0.2918 0.2341 0.7860
H82 H 0.3666 0.1519 0.7740
C65 C 0.2771(6) 0.1672(5) 0.7003(3)
H83 H 0.1983 0.1726 0.6910
H84 H 0.2803 0.0970 0.6791
C66 C 0.3679(6) 0.2624(6) 0.6737(3)
C58? C 0.8011(7) 0.5195(6) 0.7033(3)
H71? H 0.8325 0.5692 0.7412
H72? H 0.7290 0.5333 0.6887
C59? C 0.7709(8) 0.4002(7) 0.7188(3)
H73? H 0.8426 0.3797 0.7257
H74? H 0.7203 0.3487 0.6857
loop_
_geom_bond_atom_site_label_1
_geom_bond_atom_site_label_2
_geom_bond_site_symmetry_1
_geom_bond_site_symmetry_2
O1 C1 1_555 1_555
O2 C4 1_555 1_555
O3 C8 1_555 1_555
O4 C9 1_555 1_555
O5 C12 1_555 1_555
O6 C16 1_555 1_555
O7 C26 1_555 1_555
O8 C29 1_555 1_555
O9 C42 1_555 1_555
O10 C45 1_555 1_555
O11 C51 1_555 1_555
O12 C54 1_555 1_555
S1 C2 1_555 1_555
S2 C6 1_555 1_555
S3 C10 1_555 1_555
S4 C14 1_555 1_555
C1 H1 1_555 1_555
H2 C1 1_555 1_555
C2 C1 1_555 1_555
H3 C2 1_555 1_555
H4 C2 1_555 1_555
C3 S1 1_555 1_555
H5 C3 1_555 1_555
H6 C3 1_555 1_555
C4 C3 1_555 1_555
H7 C4 1_555 1_555
H8 C4 1_555 1_555
C5 O2 1_555 1_555
H9 C5 1_555 1_555
H10 C5 1_555 1_555
C6 C5 1_555 1_555
H11 C6 1_555 1_555
H12 C6 1_555 1_555
C7 S2 1_555 1_555
H13 C7 1_555 1_555
H14 C7 1_555 1_555
C8 C7 1_555 1_555
H15 C8 1_555 1_555
H16 C8 1_555 1_555
C9 H17 1_555 1_555
H18 C9 1_555 1_555
C10 C9 1_555 1_555
H19 C10 1_555 1_555
H20 C10 1_555 1_555
C11 S3 1_555 1_555
H21 C11 1_555 1_555
H22 C11 1_555 1_555
C12 C11 1_555 1_555
H23 C12 1_555 1_555
H24 C12 1_555 1_555
C13 O5 1_555 1_555
H25 C13 1_555 1_555
H26 C13 1_555 1_555
C14 C13 1_555 1_555
H27 C14 1_555 1_555
H28 C14 1_555 1_555
C15 S4 1_555 1_555
H29 C15 1_555 1_555
H30 C15 1_555 1_555
C16 C15 1_555 1_555
H31 C16 1_555 1_555
H32 C16 1_555 1_555
C17 O6 1_555 1_555
C18 C17 1_555 1_555
C19 C18 1_555 1_555
H33 C19 1_555 1_555
C20 O1 1_555 1_555
C21 C17 1_555 1_555
H34 C21 1_555 1_555
C22 C20 1_555 1_555
C23 C22 1_555 1_555
H35 C23 1_555 1_555
H36 C23 1_555 1_555
C24 C23 1_555 1_555
C25 C24 1_555 1_555
H37 C25 1_555 1_555
C26 C25 1_555 1_555
C27 C26 1_555 1_555
C28 C27 1_555 1_555
H38 C28 1_555 1_555
C29 C24 1_555 1_555
C30 O7 1_555 1_555
H39 C30 1_555 1_555
H40 C30 1_555 1_555
H41 C30 1_555 1_555
C31 O8 1_555 1_555
H42 C31 1_555 1_555
H43 C31 1_555 1_555
H44 C31 1_555 1_555
C32 C27 1_555 1_555
H45 C32 1_555 1_555
H46 C32 1_555 1_555
C33 C32 1_555 1_555
C34 C33 1_555 1_555
H47 C34 1_555 1_555
C35 O3 1_555 1_555
C36 C35 1_555 1_555
C37 C36 1_555 1_555
H48 C37 1_555 1_555
C38 O4 1_555 1_555
C39 C36 1_555 1_555
H49 C39 1_555 1_555
H50 C39 1_555 1_555
C40 C39 1_555 1_555
C41 C40 1_555 1_555
H51 C41 1_555 1_555
C42 C41 1_555 1_555
C43 C42 1_555 1_555
C44 C43 1_555 1_555
H52 C44 1_555 1_555
C45 C40 1_555 1_555
C46 O9 1_555 1_555
H53 C46 1_555 1_555
H54 C46 1_555 1_555
H55 C46 1_555 1_555
C47 O10 1_555 1_555
H56 C47 1_555 1_555
H57 C47 1_555 1_555
H58 C47 1_555 1_555
C48 C43 1_555 1_555
H59 C48 1_555 1_555
H60 C48 1_555 1_555
C49 C48 1_555 1_555
C50 C49 1_555 1_555
H61 C50 1_555 1_555
C51 C50 1_555 1_555
C52 C51 1_555 1_555
C53 C52 1_555 1_555
H62 C53 1_555 1_555
C54 C49 1_555 1_555
C55 O11 1_555 1_555
H63 C55 1_555 1_555
H64 C55 1_555 1_555
H65 C55 1_555 1_555
C56 O12 1_555 1_555
H66 C56 1_555 1_555
H67 C56 1_555 1_555
H68 C56 1_555 1_555
C57 C18 1_555 1_555
H69 C57 1_555 1_555
H70 C57 1_555 1_555
N1 C60 1_555 1_555
N2 C66 1_555 1_555
C60 C61 1_555 1_555
C61 H75 1_555 1_555
H76 C61 1_555 1_555
C62 C61 1_555 1_555
H77 C62 1_555 1_555
H78 C62 1_555 1_555
C63 C62 1_555 1_555
H79 C63 1_555 1_555
H80 C63 1_555 1_555
C64 C63 1_555 1_555
H81 C64 1_555 1_555
H82 C64 1_555 1_555
C65 C64 1_555 1_555
H83 C65 1_555 1_555
H84 C65 1_555 1_555
C66 C65 1_555 1_555
C19 C20 1_555 1_555
C21 C22 1_555 1_555
C28 C29 1_555 1_555
C33 C38 1_555 1_555
C34 C35 1_555 1_555
C37 C38 1_555 1_555
C44 C45 1_555 1_555
C52 C57 1_555 1_555
C53 C54 1_555 1_555

#END
