
#######################################################################
#
#                 Cambridge Crystallographic Data Centre
#                                CCDC 
#
#######################################################################
#
# If this CIF has been generated from an entry in the Cambridge 
# Structural Database, then it will include bibliographic, chemical, 
# crystal, experimental, refinement or atomic coordinate data resulting 
# from the CCDC's data processing and validation procedures.
#
#######################################################################

data_CILSAU
_chemical_formula_moiety         'C57 H70 O12 S4,C6 H8 N2,3(C1 H1 Cl3)'
_chemical_name_systematic        
'24,49,54,56,58,60-hexamethoxy-6,12,18,31,37,43-hexaoxa-9,15,34,40-tetrathiaoctacyclo[51.2.2.2^23,26^.2^48,51^.0^3,30^.0^5,28^.0^19,46^.0^21,44^]henhexaconta-1(55),3(30),4,19(46),20,23,25,28,44,48,50,53,56,58,60-pentadecaene hexanedinitrile clathrate chloroform solvate'
_symmetry_cell_setting           triclinic
_symmetry_space_group_name_H-M   'P -1'
_symmetry_Int_Tables_number      2
_space_group_name_Hall           '-P 1'
loop_
_symmetry_equiv_pos_site_id
_symmetry_equiv_pos_as_xyz
1 x,y,z
2 -x,-y,-z
_cell_length_a                   12.4907(4)
_cell_length_b                   16.6800(6)
_cell_length_c                   18.7501(7)
_cell_angle_alpha                78.087(2)
_cell_angle_beta                 86.591(2)
_cell_angle_gamma                73.121(2)
_cell_volume                     3657.68
_exptl_crystal_colour            colorless
_exptl_crystal_description       Plate
_cell_formula_units_Z            2
loop_
_atom_site_label
_atom_site_type_symbol
_atom_site_fract_x
_atom_site_fract_y
_atom_site_fract_z
O1 O -0.0950(4) 0.5587(4) 0.8869(3)
O2 O 0.0116(4) 0.4186(3) 0.6104(3)
O3 O 0.4294(4) 0.5363(3) 0.5840(3)
O4 O 0.3901(4) 0.8614(3) 0.6295(3)
O5 O 0.5485(7) 0.8851(5) 0.9621(4)
O6 O 0.2562(5) 0.6337(4) 0.9977(3)
O7 O 0.3158(4) 0.3920(3) 0.8444(3)
O8 O 0.5638(4) 0.6233(3) 0.8153(3)
O9 O 0.1078(5) 0.7726(4) 0.4887(4)
O10 O -0.0200(4) 1.0196(4) 0.6579(3)
O11 O -0.2111(5) 0.7789(4) 0.6596(3)
O12 O -0.1272(6) 0.8839(4) 0.9056(4)
S1 S -0.17785(16) 0.39257(13) 0.78913(12)
S2 S 0.28334(14) 0.40672(12) 0.48308(10)
S3 S 0.51712(19) 0.98583(13) 0.74772(12)
S4 S 0.3428(3) 0.7890(2) 1.09883(17)
C1 C -0.0721(6) 0.4821(5) 0.8577(4)
H1 H -0.0404 0.4309 0.8957
H2 H -0.0186 0.4834 0.8167
C2 C -0.1848(6) 0.4814(5) 0.8317(4)
H3 H -0.2168 0.5353 0.7965
H4 H -0.2363 0.4798 0.8739
C3 C -0.1331(6) 0.4285(5) 0.6974(4)
H5 H -0.1790 0.4157 0.6623
H6 H -0.1468 0.4912 0.6884
C4 C -0.0111(6) 0.3871(5) 0.6840(4)
H7 H 0.0365 0.4016 0.7168
H8 H 0.0046 0.3242 0.6931
C5 C 0.1263(6) 0.3903(5) 0.5927(4)
H9 H 0.1480 0.3287 0.5914
H10 H 0.1727 0.3991 0.6297
C6 C 0.1440(5) 0.4409(5) 0.5194(4)
H11 H 0.1276 0.5017 0.5231
H12 H 0.0898 0.4372 0.4847
C7 C 0.3681(5) 0.4322(4) 0.5448(4)
H13 H 0.3492 0.4096 0.5956
H14 H 0.4479 0.4035 0.5367
C8 C 0.3518(5) 0.5268(4) 0.5354(4)
H15 H 0.3670 0.5514 0.4844
H16 H 0.2741 0.5563 0.5478
C9 C 0.4646(6) 0.8708(5) 0.6807(4)
H17 H 0.5414 0.8607 0.6607
H18 H 0.4661 0.8292 0.7269
C10 C 0.4213(6) 0.9609(4) 0.6937(4)
H19 H 0.3482 0.9679 0.7190
H20 H 0.4093 1.0014 0.6463
C11 C 0.5168(9) 0.9130(5) 0.8330(5)
H21 H 0.4428 0.9019 0.8396
H22 H 0.5736 0.8580 0.8308
C12 C 0.5399(9) 0.9433(7) 0.8959(5)
H23 H 0.6108 0.9591 0.8873
H24 H 0.4796 0.9959 0.9002
C13 C 0.4500(11) 0.8690(7) 0.9875(6)
H25 H 0.4252 0.8375 0.9555
H26 H 0.3910 0.9235 0.9878
C14 C 0.4702(10) 0.8151(7) 1.0657(5)
H27 H 0.4919 0.8478 1.0980
H28 H 0.5317 0.7620 1.0656
C15 C 0.3569(11) 0.7016(6) 1.0584(6)
H29 H 0.4139 0.7006 1.0193
H30 H 0.3815 0.6480 1.0951
C16 C 0.2385(8) 0.7091(6) 1.0249(5)
H31 H 0.1798 0.7130 1.0630
H32 H 0.2157 0.7602 0.9853
C17 C 0.1647(6) 0.6173(6) 0.9710(4)
C18 C 0.1866(7) 0.5396(5) 0.9500(4)
C19 C 0.1007(6) 0.5192(5) 0.9222(4)
H33 H 0.1146 0.4654 0.9083
C20 C -0.0062(6) 0.5758(5) 0.9142(4)
C21 C -0.0293(7) 0.6543(5) 0.9364(4)
C22 C 0.0577(7) 0.6760(5) 0.9633(4)
H34 H 0.0448 0.7301 0.9764
C23 C 0.3040(6) 0.4764(5) 0.9588(4)
H35 H 0.3402 0.4825 1.0022
H36 H 0.2976 0.4174 0.9673
C24 C 0.3765(6) 0.4903(5) 0.8931(4)
C25 C 0.3787(6) 0.4493(5) 0.8353(4)
C26 C 0.4395(5) 0.4666(4) 0.7738(4)
H37 H 0.4394 0.4380 0.7350
C27 C 0.5019(5) 0.5255(4) 0.7664(4)
C28 C 0.5004(5) 0.5660(4) 0.8249(4)
C29 C 0.4388(5) 0.5489(5) 0.8867(4)
H38 H 0.4386 0.5775 0.9256
C30 C 0.3134(9) 0.3499(6) 0.7873(5)
H39 H 0.2656 0.3117 0.8010
H40 H 0.3894 0.3163 0.7777
H41 H 0.2834 0.3921 0.7433
C31 C 0.5522(7) 0.6750(5) 0.8682(4)
H42 H 0.6009 0.7125 0.8554
H43 H 0.5734 0.6385 0.9162
H44 H 0.4742 0.7099 0.8694
C32 C 0.5602(5) 0.5489(4) 0.6954(4)
H45 H 0.5802 0.5000 0.6701
H46 H 0.6302 0.5608 0.7058
C33 C 0.4862(5) 0.6266(4) 0.6463(3)
C34 C 0.4208(5) 0.6192(4) 0.5919(4)
C35 C 0.3540(5) 0.6913(4) 0.5485(4)
H47 H 0.3128 0.6848 0.5102
C36 C 0.3446(6) 0.7735(4) 0.5589(4)
C37 C 0.4072(6) 0.7800(4) 0.6163(4)
C38 C 0.4788(5) 0.7072(4) 0.6559(4)
H48 H 0.5251 0.7133 0.6917
C39 C 0.2676(6) 0.8508(4) 0.5124(4)
H49 H 0.2639 0.8392 0.4631
H50 H 0.2992 0.8996 0.5076
C40 C 0.1503(6) 0.8753(4) 0.5429(4)
C41 C 0.1189(6) 0.9379(4) 0.5844(4)
H51 H 0.1712 0.9667 0.5924
C42 C 0.0124(6) 0.9598(5) 0.6147(4)
C43 C -0.0648(6) 0.9184(5) 0.6036(5)
C44 C -0.0338(7) 0.8565(5) 0.5619(5)
H52 H -0.0865 0.8282 0.5536
C45 C 0.0722(7) 0.8340(5) 0.5315(5)
C46 C 0.0393(9) 0.7189(6) 0.4856(6)
H53 H 0.0738 0.6790 0.4534
H54 H -0.0346 0.7538 0.4667
H55 H 0.0314 0.6866 0.5347
C47 C 0.0578(8) 1.0642(6) 0.6672(6)
H56 H 0.0252 1.1048 0.6991
H57 H 0.0751 1.0951 0.6197
H58 H 0.1265 1.0232 0.6893
C48 C -0.1791(6) 0.9398(5) 0.6386(5)
H59 H -0.2020 1.0006 0.6431
H60 H -0.2344 0.9313 0.6074
C49 C -0.1777(6) 0.8841(5) 0.7129(5)
C50 C -0.1596(6) 0.9127(5) 0.7746(5)
H61 H -0.1536 0.9691 0.7698
C51 C -0.1502(7) 0.8603(6) 0.8428(6)
C52 C -0.1613(6) 0.7775(5) 0.8531(5)
C53 C -0.1805(6) 0.7504(5) 0.7922(5)
H62 H -0.1871 0.6942 0.7975
C54 C -0.1907(6) 0.8022(5) 0.7224(6)
C55 C -0.2061(8) 0.6916(6) 0.6657(5)
H63 H -0.2216 0.6817 0.6181
H64 H -0.2619 0.6773 0.7011
H65 H -0.1313 0.6556 0.6821
C56 C -0.1339(10) 0.9717(7) 0.9017(7)
H66 H -0.1161 0.9797 0.9495
H67 H -0.2097 1.0073 0.8875
H68 H -0.0803 0.9882 0.8655
C57 C -0.1444(6) 0.7181(5) 0.9272(5)
H69 H -0.1558 0.7527 0.9655
H70 H -0.2015 0.6866 0.9342
N1 N 0.1080(9) 0.5577(7) 0.6721(6)
C58 C 0.1300(10) 0.6018(9) 0.6996(8)
C59 C 0.177(2) 0.6566(13) 0.7534(11)
H71 H 0.1364 0.6569 0.8005
H72 H 0.2582 0.6338 0.7622
C60 C 0.157(2) 0.7126(12) 0.7215(15)
H73 H 0.0751 0.7387 0.7160
H74 H 0.1931 0.7125 0.6731
N2 N 0.2036(11) 0.9272(7) 0.8632(6)
C61 C 0.2212(10) 0.7610(9) 0.7810(8)
H75 H 0.2536 0.7184 0.8250
H76 H 0.2811 0.7832 0.7548
C62 C 0.1320(10) 0.8292(9) 0.8003(7)
H77 H 0.0803 0.8047 0.8339
H78 H 0.0895 0.8630 0.7558
C63 C 0.1717(11) 0.8867(8) 0.8355(7)
C64 C 0.8281(10) 0.8777(7) 0.1349(6)
H79 H 0.8315 0.9382 0.1258
Cl1 Cl 0.7366(3) 0.8664(2) 0.07385(19)
Cl2 Cl 0.9546(5) 0.8120(6) 0.1309(4)
Cl3 Cl 0.7784(5) 0.8472(3) 0.2279(2)
C65 C 0.6855(10) 0.2396(7) 0.7156(7)
H80 H 0.6882 0.2645 0.7594
Cl4 Cl 0.6074(13) 0.3188(8) 0.6482(8)
Cl5 Cl 0.6136(12) 0.1598(9) 0.7390(7)
Cl6 Cl 0.8109(6) 0.2111(6) 0.6827(8)
C66 C 0.611(2) 0.8323(16) 0.4760(12)
H81 H 0.6164 0.7839 0.5185
Cl7 Cl 0.5386(4) 0.8181(3) 0.4040(3)
Cl8 Cl 0.7472(4) 0.8336(4) 0.4447(4)
Cl9 Cl 0.5452(5) 0.9263(4) 0.5018(3)
H82? H 0.6419 0.2595 0.7583
Cl10? Cl 0.653(2) 0.3125(11) 0.6612(11)
Cl11? Cl 0.6660(12) 0.1418(8) 0.7229(9)
Cl12? Cl 0.8352(5) 0.2063(4) 0.7511(7)
C67? C 0.622(3) 0.8177(18) 0.4408(13)
H83? H 0.6216 0.7598 0.4688
Cl13? Cl 0.4805(5) 0.8840(6) 0.4317(4)
Cl14? Cl 0.6707(9) 0.8079(5) 0.3555(4)
Cl15? Cl 0.6965(9) 0.8591(6) 0.4888(6)
loop_
_geom_bond_atom_site_label_1
_geom_bond_atom_site_label_2
_geom_bond_site_symmetry_1
_geom_bond_site_symmetry_2
O1 C1 1_555 1_555
O2 C4 1_555 1_555
O3 C8 1_555 1_555
O4 C9 1_555 1_555
O5 C12 1_555 1_555
O6 C16 1_555 1_555
O7 C25 1_555 1_555
O8 C28 1_555 1_555
O9 C45 1_555 1_555
O10 C42 1_555 1_555
O11 C54 1_555 1_555
O12 C51 1_555 1_555
S1 C2 1_555 1_555
S2 C6 1_555 1_555
S3 C10 1_555 1_555
S4 C14 1_555 1_555
C1 H1 1_555 1_555
H2 C1 1_555 1_555
C2 C1 1_555 1_555
H3 C2 1_555 1_555
H4 C2 1_555 1_555
C3 S1 1_555 1_555
H5 C3 1_555 1_555
H6 C3 1_555 1_555
C4 C3 1_555 1_555
H7 C4 1_555 1_555
H8 C4 1_555 1_555
C5 O2 1_555 1_555
H9 C5 1_555 1_555
H10 C5 1_555 1_555
C6 C5 1_555 1_555
H11 C6 1_555 1_555
H12 C6 1_555 1_555
C7 S2 1_555 1_555
H13 C7 1_555 1_555
H14 C7 1_555 1_555
C8 C7 1_555 1_555
H15 C8 1_555 1_555
H16 C8 1_555 1_555
C9 H17 1_555 1_555
H18 C9 1_555 1_555
C10 C9 1_555 1_555
H19 C10 1_555 1_555
H20 C10 1_555 1_555
C11 S3 1_555 1_555
H21 C11 1_555 1_555
H22 C11 1_555 1_555
C12 C11 1_555 1_555
H23 C12 1_555 1_555
H24 C12 1_555 1_555
C13 O5 1_555 1_555
H25 C13 1_555 1_555
H26 C13 1_555 1_555
C14 C13 1_555 1_555
H27 C14 1_555 1_555
H28 C14 1_555 1_555
C15 S4 1_555 1_555
H29 C15 1_555 1_555
H30 C15 1_555 1_555
C16 C15 1_555 1_555
H31 C16 1_555 1_555
H32 C16 1_555 1_555
C17 O6 1_555 1_555
C18 C17 1_555 1_555
C19 C18 1_555 1_555
H33 C19 1_555 1_555
C20 O1 1_555 1_555
C21 C20 1_555 1_555
C22 C17 1_555 1_555
H34 C22 1_555 1_555
C23 C18 1_555 1_555
H35 C23 1_555 1_555
H36 C23 1_555 1_555
C24 C23 1_555 1_555
C25 C24 1_555 1_555
C26 C25 1_555 1_555
H37 C26 1_555 1_555
C27 C26 1_555 1_555
C28 C27 1_555 1_555
C29 C24 1_555 1_555
H38 C29 1_555 1_555
C30 O7 1_555 1_555
H39 C30 1_555 1_555
H40 C30 1_555 1_555
H41 C30 1_555 1_555
C31 O8 1_555 1_555
H42 C31 1_555 1_555
H43 C31 1_555 1_555
H44 C31 1_555 1_555
C32 C27 1_555 1_555
H45 C32 1_555 1_555
H46 C32 1_555 1_555
C33 C32 1_555 1_555
C34 O3 1_555 1_555
C35 C34 1_555 1_555
H47 C35 1_555 1_555
C36 C35 1_555 1_555
C37 O4 1_555 1_555
C38 C33 1_555 1_555
H48 C38 1_555 1_555
C39 C36 1_555 1_555
H49 C39 1_555 1_555
H50 C39 1_555 1_555
C40 C39 1_555 1_555
C41 C40 1_555 1_555
H51 C41 1_555 1_555
C42 C41 1_555 1_555
C43 C42 1_555 1_555
C44 C43 1_555 1_555
H52 C44 1_555 1_555
C45 C40 1_555 1_555
C46 O9 1_555 1_555
H53 C46 1_555 1_555
H54 C46 1_555 1_555
H55 C46 1_555 1_555
C47 O10 1_555 1_555
H56 C47 1_555 1_555
H57 C47 1_555 1_555
H58 C47 1_555 1_555
C48 C43 1_555 1_555
H59 C48 1_555 1_555
H60 C48 1_555 1_555
C49 C48 1_555 1_555
C50 C49 1_555 1_555
H61 C50 1_555 1_555
C51 C50 1_555 1_555
C52 C51 1_555 1_555
C53 C52 1_555 1_555
H62 C53 1_555 1_555
C54 C49 1_555 1_555
C55 O11 1_555 1_555
H63 C55 1_555 1_555
H64 C55 1_555 1_555
H65 C55 1_555 1_555
C56 O12 1_555 1_555
H66 C56 1_555 1_555
H67 C56 1_555 1_555
H68 C56 1_555 1_555
C57 C21 1_555 1_555
H69 C57 1_555 1_555
H70 C57 1_555 1_555
N1 C58 1_555 1_555
C58 C59 1_555 1_555
C59 H71 1_555 1_555
H72 C59 1_555 1_555
C60 C59 1_555 1_555
H73 C60 1_555 1_555
H74 C60 1_555 1_555
N2 C63 1_555 1_555
C61 C60 1_555 1_555
H75 C61 1_555 1_555
H76 C61 1_555 1_555
C62 C61 1_555 1_555
H77 C62 1_555 1_555
H78 C62 1_555 1_555
C63 C62 1_555 1_555
C64 H79 1_555 1_555
Cl1 C64 1_555 1_555
Cl2 C64 1_555 1_555
Cl3 C64 1_555 1_555
C65 H80 1_555 1_555
Cl4 C65 1_555 1_555
Cl5 C65 1_555 1_555
Cl6 C65 1_555 1_555
C66 H81 1_555 1_555
Cl7 C66 1_555 1_555
Cl8 C66 1_555 1_555
Cl9 C66 1_555 1_555
C19 C20 1_555 1_555
C21 C22 1_555 1_555
C28 C29 1_555 1_555
C33 C34 1_555 1_555
C36 C37 1_555 1_555
C37 C38 1_555 1_555
C44 C45 1_555 1_555
C52 C57 1_555 1_555
C53 C54 1_555 1_555

#END
