
#######################################################################
#
#                 Cambridge Crystallographic Data Centre
#                                CCDC 
#
#######################################################################
#
# If this CIF has been generated from an entry in the Cambridge 
# Structural Database, then it will include bibliographic, chemical, 
# crystal, experimental, refinement or atomic coordinate data resulting 
# from the CCDC's data processing and validation procedures.
#
#######################################################################

data_CILYUU
_chemical_formula_moiety         'C20 H13 N2 O3 P1'
_chemical_name_systematic        
'(phenylphosphoryl)bis(3,1-phenylene) dicyanate'
_symmetry_cell_setting           triclinic
_symmetry_space_group_name_H-M   'P -1'
_symmetry_Int_Tables_number      2
_space_group_name_Hall           '-P 1'
loop_
_symmetry_equiv_pos_site_id
_symmetry_equiv_pos_as_xyz
1 x,y,z
2 -x,-y,-z
_cell_length_a                   8.64360(10)
_cell_length_b                   8.76970(10)
_cell_length_c                   11.5636(2)
_cell_angle_alpha                89.1776(5)
_cell_angle_beta                 86.3327(6)
_cell_angle_gamma                88.7323(6)
_cell_volume                     874.459
_exptl_crystal_colour            colorless
_exptl_crystal_description       block
_cell_formula_units_Z            2
_exptl_crystal_recrystallization_method toluene
loop_
_atom_site_label
_atom_site_type_symbol
_atom_site_fract_x
_atom_site_fract_y
_atom_site_fract_z
P1 P 0.77823(5) 0.55292(5) 0.20456(4)
O1 O 0.2682(4) 0.8712(4) 0.1711(5)
C1 C 0.3456(4) 0.9909(4) 0.1892(4)
N1 N 0.4069(4) 1.1006(3) 0.2036(4)
O2 O 0.7258(4) 0.0001(3) 0.3656(3)
C2 C 0.6692(7) 0.0581(6) 0.4641(4)
N2 N 0.6224(9) 0.1075(7) 0.5521(5)
O3 O 0.88076(15) 0.64061(15) 0.12121(12)
C3 C 0.8262(2) 0.3512(2) 0.20480(17)
C4 C 0.7538(3) 0.2499(3) 0.2840(2)
H1 H 0.679471 0.285665 0.341966
C5 C 0.7922(3) 0.0970(3) 0.2764(2)
C6 C 0.9004(3) 0.0402(3) 0.1940(2)
H2 H 0.923633 -0.066008 0.189969
C7 C 0.9744(3) 0.1424(2) 0.11722(19)
H3 H 1.050834 0.106164 0.060945
C8 C 0.9373(2) 0.2973(2) 0.12220(17)
H4 H 0.987938 0.366433 0.069115
C9 C 0.5751(2) 0.5699(2) 0.17691(17)
C10 C 0.5064(3) 0.7143(3) 0.1802(3)
H5 H 0.563716 0.801014 0.198443
C11 C 0.3530(3) 0.7283(3) 0.1562(3)
C12 C 0.2637(2) 0.6078(3) 0.1292(2)
H6 H 0.158117 0.622483 0.112591
C13 C 0.3327(2) 0.4657(2) 0.12709(18)
H7 H 0.274071 0.379628 0.109486
C14 C 0.4880(2) 0.4460(2) 0.15048(17)
H8 H 0.534424 0.346855 0.148295
C15 C 0.7949(3) 0.6160(2) 0.35128(18)
C16 C 0.9354(3) 0.6693(4) 0.3787(2)
H9 H 1.019239 0.672823 0.321546
C17 C 0.9550(4) 0.7182(4) 0.4902(3)
H10 H 1.053296 0.754735 0.507856
C18 C 0.8403(4) 0.7157(4) 0.5740(2)
H11 H 0.856800 0.749732 0.649782
C19 C 0.7026(4) 0.6643(6) 0.5484(3)
H12 H 0.620685 0.660548 0.607123
C20 C 0.6768(4) 0.6158(5) 0.4366(3)
H13 H 0.576961 0.582557 0.419643
O4? O 0.2970(13) 0.8722(10) 0.0928(15)
C21? C 0.3874(14) 0.9901(10) 0.0845(15)
N3? N 0.4629(15) 1.0933(11) 0.0743(13)
O5? O 1.0608(10) 0.8110(11) 0.5203(7)
N4? N 1.2851(16) 0.8271(16) 0.3968(12)
C22? C 1.1725(14) 0.8146(13) 0.4599(10)
H14? H 0.742341 0.027868 0.329843
loop_
_geom_bond_atom_site_label_1
_geom_bond_atom_site_label_2
_geom_bond_site_symmetry_1
_geom_bond_site_symmetry_2
P1 O3 1_555 1_555
O1 C1 1_555 1_555
C1 N1 1_555 1_555
O2 C2 1_555 1_555
C2 N2 1_555 1_555
C3 P1 1_555 1_555
C4 C3 1_555 1_555
H1 C4 1_555 1_555
C5 O2 1_555 1_555
C6 C5 1_555 1_555
H2 C6 1_555 1_555
C7 C6 1_555 1_555
H3 C7 1_555 1_555
C8 C3 1_555 1_555
H4 C8 1_555 1_555
C9 P1 1_555 1_555
C10 C9 1_555 1_555
H5 C10 1_555 1_555
C11 O1 1_555 1_555
C12 C11 1_555 1_555
H6 C12 1_555 1_555
C13 C12 1_555 1_555
H7 C13 1_555 1_555
C14 C9 1_555 1_555
H8 C14 1_555 1_555
C15 P1 1_555 1_555
C16 C15 1_555 1_555
H9 C16 1_555 1_555
C17 C16 1_555 1_555
H10 C17 1_555 1_555
C18 C17 1_555 1_555
H11 C18 1_555 1_555
C19 C18 1_555 1_555
H12 C19 1_555 1_555
C20 C15 1_555 1_555
H13 C20 1_555 1_555
C4 C5 1_555 1_555
C7 C8 1_555 1_555
C10 C11 1_555 1_555
C13 C14 1_555 1_555
C19 C20 1_555 1_555

#END
