
#######################################################################
#
#                 Cambridge Crystallographic Data Centre
#                                CCDC 
#
#######################################################################
#
# If this CIF has been generated from an entry in the Cambridge 
# Structural Database, then it will include bibliographic, chemical, 
# crystal, experimental, refinement or atomic coordinate data resulting 
# from the CCDC's data processing and validation procedures.
#
#######################################################################

data_CILZAB
_chemical_formula_moiety         'C20 H13 N2 O3 P1,0.5(H2 O1)'
_chemical_name_systematic        
'((phenylphosphoryl)bis(4,1-phenylene) dicyanate) hemihydrate'
_symmetry_cell_setting           orthorhombic
_symmetry_space_group_name_H-M   'P b c a'
_symmetry_Int_Tables_number      61
_space_group_name_Hall           '-P 2ac 2ab'
loop_
_symmetry_equiv_pos_site_id
_symmetry_equiv_pos_as_xyz
1 x,y,z
2 1/2-x,-y,1/2+z
3 -x,1/2+y,1/2-z
4 1/2+x,1/2-y,-z
5 -x,-y,-z
6 1/2+x,y,1/2-z
7 x,1/2-y,1/2+z
8 1/2-x,1/2+y,z
_cell_length_a                   16.7279(18)
_cell_length_b                   12.1797(14)
_cell_length_c                   17.0155(18)
_cell_angle_alpha                90
_cell_angle_beta                 90
_cell_angle_gamma                90
_cell_volume                     3466.75
_exptl_crystal_colour            colorless
_exptl_crystal_description       plate
_cell_formula_units_Z            8
_exptl_crystal_recrystallization_method 'hexanes/ethyl acetate'
loop_
_atom_site_label
_atom_site_type_symbol
_atom_site_fract_x
_atom_site_fract_y
_atom_site_fract_z
P1 P 0.68753(2) 0.40709(3) 0.50279(2)
O1 O 0.94565(7) 0.51438(9) 0.73020(6)
O2 O 0.51167(6) 0.82756(8) 0.46860(6)
O3 O 0.64155(6) 0.31284(8) 0.53437(6)
N1 N 1.00022(8) 0.69552(13) 0.75265(8)
N2 N 0.45065(8) 0.91274(11) 0.58300(9)
C1 C 0.76718(8) 0.44723(11) 0.56817(7)
C2 C 0.79766(8) 0.55313(11) 0.57222(8)
H1 H 0.777004 0.608367 0.538441
C3 C 0.85786(8) 0.57915(11) 0.62496(8)
H2 H 0.879016 0.651405 0.628065
C4 C 0.88576(8) 0.49672(12) 0.67252(8)
C5 C 0.85880(9) 0.39090(12) 0.66955(9)
H3 H 0.880729 0.335870 0.702735
C6 C 0.79875(8) 0.36653(12) 0.61686(8)
H4 H 0.778703 0.293674 0.613805
C7 C 0.97295(9) 0.61200(14) 0.73979(8)
C8 C 0.63005(8) 0.53060(11) 0.48976(8)
C9 C 0.62943(9) 0.58899(12) 0.41973(8)
H5 H 0.657257 0.560992 0.375378
C10 C 0.58883(9) 0.68731(12) 0.41382(8)
H6 H 0.588401 0.727700 0.366055
C11 C 0.54923(8) 0.72481(11) 0.47881(8)
C12 C 0.54648(9) 0.66866(12) 0.54860(8)
H7 H 0.517155 0.696360 0.592111
C13 C 0.58749(9) 0.57095(12) 0.55372(8)
H8 H 0.586709 0.530626 0.601506
C14 C 0.47904(8) 0.87076(12) 0.52994(9)
C15 C 0.73193(8) 0.38027(11) 0.40891(8)
C16 C 0.79300(8) 0.44685(11) 0.38047(8)
H9 H 0.815285 0.502331 0.413026
C17 C 0.82126(9) 0.43230(12) 0.30490(9)
H10 H 0.862359 0.478450 0.285071
C18 C 0.78956(9) 0.35057(12) 0.25845(8)
H11 H 0.808703 0.340897 0.206345
C19 C 0.73015(9) 0.28250(12) 0.28695(9)
H12 H 0.709438 0.225422 0.254807
C20 C 0.70085(8) 0.29733(11) 0.36211(8)
H13 H 0.659686 0.251026 0.381619
O4 O 0.59107(15) 0.38259(19) 0.68861(14)
H14 H 0.605(3) 0.349(4) 0.6382(19)
H15 H 0.550(3) 0.333(4) 0.710(3)
loop_
_geom_bond_atom_site_label_1
_geom_bond_atom_site_label_2
_geom_bond_site_symmetry_1
_geom_bond_site_symmetry_2
P1 O3 1_555 1_555
O1 C4 1_555 1_555
O2 C11 1_555 1_555
N1 C7 1_555 1_555
N2 C14 1_555 1_555
C1 P1 1_555 1_555
C2 C1 1_555 1_555
H1 C2 1_555 1_555
C3 C2 1_555 1_555
H2 C3 1_555 1_555
C4 C3 1_555 1_555
C5 C4 1_555 1_555
H3 C5 1_555 1_555
C6 C1 1_555 1_555
H4 C6 1_555 1_555
C7 O1 1_555 1_555
C8 P1 1_555 1_555
C9 C8 1_555 1_555
H5 C9 1_555 1_555
C10 C9 1_555 1_555
H6 C10 1_555 1_555
C11 C10 1_555 1_555
C12 C11 1_555 1_555
H7 C12 1_555 1_555
C13 C8 1_555 1_555
H8 C13 1_555 1_555
C14 O2 1_555 1_555
C15 P1 1_555 1_555
C16 C15 1_555 1_555
H9 C16 1_555 1_555
C17 C16 1_555 1_555
H10 C17 1_555 1_555
C18 C17 1_555 1_555
H11 C18 1_555 1_555
C19 C18 1_555 1_555
H12 C19 1_555 1_555
C20 C15 1_555 1_555
H13 C20 1_555 1_555
O4 H14 1_555 1_555
H15 O4 1_555 1_555
C5 C6 1_555 1_555
C12 C13 1_555 1_555
C19 C20 1_555 1_555

#END
