
#######################################################################
#
#                 Cambridge Crystallographic Data Centre
#                                CCDC 
#
#######################################################################
#
# If this CIF has been generated from an entry in the Cambridge 
# Structural Database, then it will include bibliographic, chemical, 
# crystal, experimental, refinement or atomic coordinate data resulting 
# from the CCDC's data processing and validation procedures.
#
#######################################################################

data_CILZUS01
_chemical_formula_moiety         'C27 H28 O7'
_chemical_name_systematic        
2,3,7,8,12,13-Hexamethoxy-10,15-dihydro-5H-tribenzo[a,d,g][9]annulen-5-one
_symmetry_cell_setting           orthorhombic
_symmetry_space_group_name_H-M   'P 21 21 21'
_symmetry_Int_Tables_number      19
_space_group_name_Hall           'P 2ac 2ab'
loop_
_symmetry_equiv_pos_site_id
_symmetry_equiv_pos_as_xyz
1 x,y,z
2 1/2-x,-y,1/2+z
3 -x,1/2+y,1/2-z
4 1/2+x,1/2-y,-z
_cell_length_a                   7.7136(3)
_cell_length_b                   16.6352(6)
_cell_length_c                   18.5473(7)
_cell_angle_alpha                90
_cell_angle_beta                 90
_cell_angle_gamma                90
_cell_volume                     2379.94
_exptl_crystal_colour            colorless
_exptl_crystal_description       block
_cell_formula_units_Z            4
loop_
_atom_site_label
_atom_site_type_symbol
_atom_site_fract_x
_atom_site_fract_y
_atom_site_fract_z
C1 C -0.00510(18) 1.12203(8) 0.01313(7)
C2 C -0.10567(17) 1.08773(8) 0.07505(7)
C3 C -0.27414(18) 1.11985(8) 0.08514(7)
H1 H -0.3139 1.1619 0.0547
C4 C -0.38101(18) 1.09058(8) 0.13877(7)
C5 C -0.31947(18) 1.02973(8) 0.18550(7)
C6 C -0.15244(17) 1.00072(8) 0.17722(7)
H2 H -0.1101 0.9612 0.2097
C7 C -0.04418(17) 1.02876(8) 0.12159(7)
C8 C 0.13330(17) 0.99023(8) 0.11645(7)
H3 H 0.1938 0.9954 0.1633
H4 H 0.2030 1.0185 0.0795
C9 C 0.11810(17) 0.90203(8) 0.09661(7)
C10 C 0.19912(18) 0.84502(8) 0.14091(7)
H5 H 0.2605 0.8625 0.1825
C11 C 0.19127(18) 0.76348(9) 0.12512(7)
C12 C 0.09571(18) 0.73723(8) 0.06507(7)
C13 C 0.01620(18) 0.79366(8) 0.02088(7)
H6 H -0.0468 0.7760 -0.0202
C14 C 0.02696(17) 0.87637(8) 0.03561(7)
C15 C -0.05723(17) 0.93468(8) -0.01706(7)
H7 H -0.1185 0.9039 -0.0550
H8 H -0.1441 0.9676 0.0088
C16 C 0.07556(17) 0.98982(8) -0.05207(7)
C17 C 0.17868(18) 0.95321(8) -0.10527(7)
H9 H 0.1617 0.8978 -0.1155
C18 C 0.30363(18) 0.99481(8) -0.14318(7)
C19 C 0.32805(18) 1.07796(8) -0.12881(7)
C20 C 0.22716(18) 1.11492(8) -0.07745(7)
H10 H 0.2431 1.1706 -0.0682
C21 C 0.09994(18) 1.07189(8) -0.03801(7)
C22 C -0.61272(19) 1.17753(9) 0.10741(8)
H11 H -0.5467 1.2269 0.1160
H12 H -0.7351 1.1868 0.1188
H13 H -0.6017 1.1618 0.0567
C23 C -0.3723(2) 0.94321(10) 0.28489(8)
H14 H -0.3397 0.8955 0.2571
H15 H -0.4645 0.9292 0.3190
H16 H -0.2712 0.9631 0.3114
C24 C 0.4011(2) 0.72881(10) 0.21387(9)
H17 H 0.4871 0.7624 0.1893
H18 H 0.4583 0.6814 0.2343
H19 H 0.3464 0.7598 0.2526
C25 C 0.0107(2) 0.62753(9) -0.00921(8)
H20 H -0.1104 0.6453 -0.0103
H21 H 0.0151 0.5687 -0.0103
H22 H 0.0720 0.6491 -0.0512
C26 C 0.3804(2) 0.88136(8) -0.21457(7)
H23 H 0.3932 0.8474 -0.1717
H24 H 0.4663 0.8655 -0.2508
H25 H 0.2636 0.8748 -0.2344
C27 C 0.4920(3) 1.19567(10) -0.15360(10)
H26 H 0.3876 1.2286 -0.1594
H27 H 0.5825 1.2150 -0.1864
H28 H 0.5331 1.1996 -0.1037
O1 O -0.01231(16) 1.19499(6) 0.00311(6)
O2 O -0.54694(13) 1.11506(6) 0.15205(5)
O3 O -0.43323(13) 1.00452(6) 0.23678(5)
O4 O 0.27277(15) 0.70402(6) 0.16381(6)
O5 O 0.09132(14) 0.65595(6) 0.05505(6)
O6 O 0.40707(14) 0.96381(6) -0.19515(6)
O7 O 0.45252(15) 1.11411(6) -0.16994(6)
loop_
_geom_bond_atom_site_label_1
_geom_bond_atom_site_label_2
_geom_bond_site_symmetry_1
_geom_bond_site_symmetry_2
C1 C2 1_555 1_555
C2 C3 1_555 1_555
C3 H1 1_555 1_555
C4 C3 1_555 1_555
C5 C4 1_555 1_555
C6 C5 1_555 1_555
H2 C6 1_555 1_555
C7 C2 1_555 1_555
C8 C7 1_555 1_555
H3 C8 1_555 1_555
H4 C8 1_555 1_555
C9 C8 1_555 1_555
C10 C9 1_555 1_555
H5 C10 1_555 1_555
C11 C10 1_555 1_555
C12 C11 1_555 1_555
C13 C12 1_555 1_555
H6 C13 1_555 1_555
C14 C9 1_555 1_555
C15 C14 1_555 1_555
H7 C15 1_555 1_555
H8 C15 1_555 1_555
C16 C15 1_555 1_555
C17 C16 1_555 1_555
H9 C17 1_555 1_555
C18 C17 1_555 1_555
C19 C18 1_555 1_555
C20 C19 1_555 1_555
H10 C20 1_555 1_555
C21 C1 1_555 1_555
C22 H11 1_555 1_555
H12 C22 1_555 1_555
H13 C22 1_555 1_555
C23 H14 1_555 1_555
H15 C23 1_555 1_555
H16 C23 1_555 1_555
C24 H17 1_555 1_555
H18 C24 1_555 1_555
H19 C24 1_555 1_555
C25 H20 1_555 1_555
H21 C25 1_555 1_555
H22 C25 1_555 1_555
C26 H23 1_555 1_555
H24 C26 1_555 1_555
H25 C26 1_555 1_555
C27 H26 1_555 1_555
H27 C27 1_555 1_555
H28 C27 1_555 1_555
O1 C1 1_555 1_555
O2 C4 1_555 1_555
O3 C5 1_555 1_555
O4 C11 1_555 1_555
O5 C12 1_555 1_555
O6 C18 1_555 1_555
O7 C19 1_555 1_555
C6 C7 1_555 1_555
C13 C14 1_555 1_555
C16 C21 1_555 1_555
C20 C21 1_555 1_555
C22 O2 1_555 1_555
C23 O3 1_555 1_555
C24 O4 1_555 1_555
C25 O5 1_555 1_555
C26 O6 1_555 1_555
C27 O7 1_555 1_555

#END
