
#######################################################################
#
#                 Cambridge Crystallographic Data Centre
#                                CCDC 
#
#######################################################################
#
# If this CIF has been generated from an entry in the Cambridge 
# Structural Database, then it will include bibliographic, chemical, 
# crystal, experimental, refinement or atomic coordinate data resulting 
# from the CCDC's data processing and validation procedures.
#
#######################################################################

data_CIMBOR
_chemical_formula_moiety         'C60 Cl24'
_chemical_name_systematic        'tetracosachloro-C60graphene unknown solvate'
_symmetry_cell_setting           monoclinic
_symmetry_space_group_name_H-M   'C 2/c'
_symmetry_Int_Tables_number      15
_space_group_name_Hall           '-C 2yn'
loop_
_symmetry_equiv_pos_site_id
_symmetry_equiv_pos_as_xyz
1 x,y,z
2 -x,y,1/2-z
3 1/2+x,1/2+y,z
4 1/2-x,1/2+y,1/2-z
5 -x,-y,-z
6 x,-y,1/2+z
7 1/2-x,1/2-y,-z
8 1/2+x,1/2-y,1/2+z
_cell_length_a                   20.4128(7)
_cell_length_b                   22.9777(6)
_cell_length_c                   15.0794(5)
_cell_angle_alpha                90
_cell_angle_beta                 108.949(4)
_cell_angle_gamma                90
_cell_volume                     6689.54
_cell_formula_units_Z            4
loop_
_atom_site_label
_atom_site_type_symbol
_atom_site_fract_x
_atom_site_fract_y
_atom_site_fract_z
Cl1 Cl 0.16016(3) 0.36689(3) 0.95699(4)
Cl2 Cl 0.21383(3) 0.48062(3) 1.05147(4)
Cl3 Cl 0.31175(4) 0.68242(3) 1.22205(5)
Cl4 Cl 0.17085(4) 0.65212(3) 1.24576(4)
Cl5 Cl 0.01923(4) 0.32047(3) 0.96270(5)
Cl6 Cl 0.11756(4) 0.53651(3) 1.14942(4)
Cl7 Cl 0.31223(4) 0.91416(4) 1.23223(6)
Cl8 Cl 0.36421(4) 0.79634(4) 1.33200(5)
Cl9 Cl 0.21239(4) 0.91117(3) 1.02843(6)
Cl10 Cl -0.03649(4) 0.90313(3) 0.82785(5)
Cl11 Cl 0.06239(4) 0.89933(3) 1.03006(5)
Cl12 Cl -0.00483(4) 0.20324(3) 0.85277(6)
C1 C 0.04728(14) 0.42615(12) 0.84280(18)
C2 C 0.02450(13) 0.58654(11) 0.79564(18)
C3 C 0.11688(14) 0.80005(12) 0.98297(19)
C4 C 0.05094(13) 0.63995(12) 0.83955(18)
C5 C 0.09947(14) 0.74779(12) 0.93250(18)
C6 C 0.11369(13) 0.58733(12) 0.98445(18)
C7 C 0.01977(14) 0.80032(12) 0.79963(19)
C8 C 0.10866(14) 0.42811(12) 0.92264(18)
C9 C 0.20193(15) 0.74719(13) 1.11298(19)
C10 C 0.04897(13) 0.53272(12) 0.84182(18)
C11 C 0.21938(16) 0.85064(13) 1.0986(2)
C12 C 0.01641(13) 0.37181(12) 0.79920(18)
C13 C 0.12396(13) 0.69331(12) 0.97859(18)
C14 C 0.26541(15) 0.74626(14) 1.1875(2)
C15 C 0.00302(15) 0.26730(12) 0.7981(2)
C16 C 0.16460(14) 0.69417(12) 1.07432(19)
C17 C 0.02481(13) 0.47933(12) 0.79667(18)
C18 C 0.02643(13) 0.69315(12) 0.79471(18)
C19 C 0.17832(15) 0.80054(13) 1.06715(19)
C20 C 0.09822(14) 0.53284(12) 0.93409(18)
C21 C 0.27271(15) 0.85015(14) 1.1844(2)
C22 C 0.29562(15) 0.79778(15) 1.2288(2)
C23 C 0.02375(15) 0.84802(12) 0.8609(2)
C24 C 0.13345(13) 0.48016(13) 0.96583(18)
C25 C 0.09835(13) 0.64030(12) 0.93395(18)
C26 C 0.07039(15) 0.84689(12) 0.9520(2)
C27 C 0.13467(14) 0.59260(13) 1.08331(19)
C28 C 0.15865(14) 0.64453(13) 1.12701(19)
C29 C 0.04960(14) 0.74727(12) 0.84113(19)
C30 C 0.01534(14) 0.31904(13) 0.8466(2)
Cl1A Cl -0.16016(3) 0.36689(3) 0.54301(4)
Cl2A Cl -0.21383(3) 0.48062(3) 0.44853(4)
Cl3A Cl -0.31175(4) 0.68242(3) 0.27795(5)
Cl4A Cl -0.17085(4) 0.65212(3) 0.25424(4)
Cl5A Cl -0.01923(4) 0.32047(3) 0.53730(5)
Cl6A Cl -0.11756(4) 0.53651(3) 0.35058(4)
Cl7A Cl -0.31223(4) 0.91416(4) 0.26777(6)
Cl8A Cl -0.36421(4) 0.79634(4) 0.16800(5)
Cl9A Cl -0.21239(4) 0.91117(3) 0.47157(6)
Cl10A Cl 0.03649(4) 0.90313(3) 0.67215(5)
Cl11A Cl -0.06239(4) 0.89933(3) 0.46994(5)
Cl12A Cl 0.00483(4) 0.20324(3) 0.64723(6)
C1A C -0.04728(14) 0.42615(12) 0.65720(18)
C2A C -0.02450(13) 0.58654(11) 0.70436(18)
C3A C -0.11688(14) 0.80005(12) 0.51703(19)
C4A C -0.05094(13) 0.63995(12) 0.66045(18)
C5A C -0.09947(14) 0.74779(12) 0.56750(18)
C6A C -0.11369(13) 0.58733(12) 0.51555(18)
C7A C -0.01977(14) 0.80032(12) 0.70037(19)
C8A C -0.10866(14) 0.42811(12) 0.57736(18)
C9A C -0.20193(15) 0.74719(13) 0.38702(19)
C10A C -0.04897(13) 0.53272(12) 0.65818(18)
C11A C -0.21938(16) 0.85064(13) 0.4014(2)
C12A C -0.01641(13) 0.37181(12) 0.70080(18)
C13A C -0.12396(13) 0.69331(12) 0.52141(18)
C14A C -0.26541(15) 0.74626(14) 0.3125(2)
C15A C -0.00302(15) 0.26730(12) 0.7019(2)
C16A C -0.16460(14) 0.69417(12) 0.42568(19)
C17A C -0.02481(13) 0.47933(12) 0.70333(18)
C18A C -0.02643(13) 0.69315(12) 0.70529(18)
C19A C -0.17832(15) 0.80054(13) 0.43285(19)
C20A C -0.09822(14) 0.53284(12) 0.56591(18)
C21A C -0.27271(15) 0.85015(14) 0.3156(2)
C22A C -0.29562(15) 0.79778(15) 0.2712(2)
C23A C -0.02375(15) 0.84802(12) 0.6391(2)
C24A C -0.13345(13) 0.48016(13) 0.53417(18)
C25A C -0.09835(13) 0.64030(12) 0.56605(18)
C26A C -0.07039(15) 0.84689(12) 0.5480(2)
C27A C -0.13467(14) 0.59260(13) 0.41669(19)
C28A C -0.15865(14) 0.64453(13) 0.37299(19)
C29A C -0.04960(14) 0.74727(12) 0.65887(19)
C30A C -0.01534(14) 0.31904(13) 0.6534(2)
loop_
_geom_bond_atom_site_label_1
_geom_bond_atom_site_label_2
_geom_bond_site_symmetry_1
_geom_bond_site_symmetry_2
Cl1 C8 1_555 1_555
Cl2 C24 1_555 1_555
Cl3 C14 1_555 1_555
Cl4 C28 1_555 1_555
Cl5 C30 1_555 1_555
Cl6 C27 1_555 1_555
Cl7 C21 1_555 1_555
Cl8 C22 1_555 1_555
Cl9 C11 1_555 1_555
Cl10 C23 1_555 1_555
Cl11 C26 1_555 1_555
Cl12 C15 1_555 1_555
C1 C8 1_555 1_555
C2 C4 1_555 1_555
C3 C5 1_555 1_555
C4 C18 1_555 1_555
C5 C13 1_555 1_555
C6 C20 1_555 1_555
C7 C23 1_555 1_555
C8 C24 1_555 1_555
C9 C14 1_555 1_555
C10 C2 1_555 1_555
C11 C19 1_555 1_555
C12 C1 1_555 1_555
C13 C16 1_555 1_555
C14 C22 1_555 1_555
C15 C30 1_555 1_555
C16 C9 1_555 1_555
C17 C1 1_555 1_555
C18 C29 1_555 1_555
C19 C3 1_555 1_555
C20 C10 1_555 1_555
C21 C11 1_555 1_555
C22 C21 1_555 1_555
C23 C26 1_555 1_555
C24 C20 1_555 1_555
C25 C4 1_555 1_555
C26 C3 1_555 1_555
C27 C6 1_555 1_555
C28 C16 1_555 1_555
C29 C5 1_555 1_555
C30 C12 1_555 1_555
Cl1A C8A 1_555 1_555
Cl2A C24A 1_555 1_555
Cl3A C14A 1_555 1_555
Cl4A C28A 1_555 1_555
Cl5A C30A 1_555 1_555
Cl6A C27A 1_555 1_555
Cl7A C21A 1_555 1_555
Cl8A C22A 1_555 1_555
Cl9A C11A 1_555 1_555
Cl10A C23A 1_555 1_555
Cl11A C26A 1_555 1_555
Cl12A C15A 1_555 1_555
C1A C8A 1_555 1_555
C2A C2 1_555 1_555
C3A C5A 1_555 1_555
C4A C2A 1_555 1_555
C5A C13A 1_555 1_555
C6A C20A 1_555 1_555
C7A C7 1_555 1_555
C8A C24A 1_555 1_555
C9A C14A 1_555 1_555
C10A C2A 1_555 1_555
C11A C19A 1_555 1_555
C12A C12 1_555 1_555
C13A C16A 1_555 1_555
C14A C22A 1_555 1_555
C15A C15 1_555 1_555
C16A C9A 1_555 1_555
C17A C17 1_555 1_555
C18A C18 1_555 1_555
C19A C3A 1_555 1_555
C20A C10A 1_555 1_555
C21A C11A 1_555 1_555
C22A C21A 1_555 1_555
C23A C7A 1_555 1_555
C24A C20A 1_555 1_555
C25A C4A 1_555 1_555
C26A C3A 1_555 1_555
C27A C6A 1_555 1_555
C28A C16A 1_555 1_555
C29A C5A 1_555 1_555
C30A C12A 1_555 1_555
C6 C25 1_555 1_555
C7 C29 1_555 1_555
C9 C19 1_555 1_555
C10 C17 1_555 1_555
C13 C25 1_555 1_555
C27 C28 1_555 1_555
C1A C12A 1_555 1_555
C1A C17A 1_555 1_555
C4A C18A 1_555 1_555
C6A C25A 1_555 1_555
C7A C29A 1_555 1_555
C9A C19A 1_555 1_555
C10A C17A 1_555 1_555
C13A C25A 1_555 1_555
C15A C30A 1_555 1_555
C18A C29A 1_555 1_555
C23A C26A 1_555 1_555
C27A C28A 1_555 1_555

#END
