
#######################################################################
#
#                 Cambridge Crystallographic Data Centre
#                                CCDC 
#
#######################################################################
#
# If this CIF has been generated from an entry in the Cambridge 
# Structural Database, then it will include bibliographic, chemical, 
# crystal, experimental, refinement or atomic coordinate data resulting 
# from the CCDC's data processing and validation procedures.
#
#######################################################################

data_CIMBIL
_chemical_formula_moiety         'C96 H3 Cl27'
_chemical_name_systematic        'heptacosachloro-C96graphene unknown solvate'
_symmetry_cell_setting           monoclinic
_symmetry_space_group_name_H-M   'C 2/c'
_symmetry_Int_Tables_number      15
_space_group_name_Hall           '-C 2yn'
loop_
_symmetry_equiv_pos_site_id
_symmetry_equiv_pos_as_xyz
1 x,y,z
2 -x,y,1/2-z
3 1/2+x,1/2+y,z
4 1/2-x,1/2+y,1/2-z
5 -x,-y,-z
6 x,-y,1/2+z
7 1/2-x,1/2-y,-z
8 1/2+x,1/2-y,1/2+z
_cell_length_a                   36.715(4)
_cell_length_b                   22.1591(12)
_cell_length_c                   24.607(3)
_cell_angle_alpha                90
_cell_angle_beta                 116.242(14)
_cell_angle_gamma                90
_cell_volume                     17956.2
_cell_formula_units_Z            8
loop_
_atom_site_label
_atom_site_type_symbol
_atom_site_fract_x
_atom_site_fract_y
_atom_site_fract_z
Cl1 Cl 0.69200(5) 0.44838(6) 0.52514(9)
Cl2 Cl 0.53993(5) 0.45485(6) 0.49167(9)
Cl3 Cl 0.62208(6) 0.39142(7) 0.53577(10)
Cl4 Cl 0.83807(6) 0.48619(7) 0.30538(9)
Cl5 Cl 0.89226(6) 0.69388(8) 0.26566(9)
Cl6 Cl 0.55845(6) 1.21350(7) 0.32638(10)
Cl7 Cl 0.51581(6) 0.92713(7) 0.51267(10)
Cl8 Cl 0.44472(6) 0.71526(7) 0.49037(10)
Cl9 Cl 0.82586(6) 0.38759(7) 0.46668(10)
Cl10 Cl 0.44897(6) 0.84933(7) 0.51619(10)
Cl11 Cl 0.88472(5) 0.46839(7) 0.44348(9)
Cl12 Cl 0.49431(6) 1.00776(8) 0.35229(11)
Cl13 Cl 0.88755(6) 0.94740(8) 0.39382(10)
Cl14 Cl 0.49386(6) 0.48331(7) 0.35386(10)
Cl15 Cl 0.95390(5) 0.73739(9) 0.38880(10)
Cl16 Cl 0.95997(6) 0.87274(9) 0.40942(10)
Cl17 Cl 0.71776(6) 1.21471(8) 0.26831(11)
Cl18 Cl 0.62798(7) 1.24015(7) 0.45293(10)
Cl19 Cl 0.48618(6) 1.13758(8) 0.31427(11)
Cl20 Cl 0.88816(6) 0.55589(9) 0.25500(10)
Cl21 Cl 0.78986(7) 1.01225(9) 0.25282(11)
Cl22 Cl 0.41619(6) 0.68477(8) 0.35574(11)
Cl23 Cl 0.41482(7) 0.55344(9) 0.31957(12)
Cl24 Cl 0.77292(7) 1.14497(10) 0.22658(11)
Cl25 Cl 0.70013(8) 1.30626(8) 0.45054(12)
Cl26 Cl 0.74715(8) 0.43339(8) 0.45499(16)
C1 C 0.65990(18) 0.8346(2) 0.4277(3)
C2 C 0.78479(18) 0.7744(2) 0.4001(3)
C3 C 0.84327(18) 0.5864(3) 0.3733(3)
C4 C 0.70032(17) 0.6764(2) 0.4407(3)
C5 C 0.5615(2) 0.9248(2) 0.4349(3)
H1 H 0.5403 0.9459 0.4389
C6 C 0.60472(19) 0.6419(2) 0.4532(3)
C7 C 0.6098(2) 1.0531(2) 0.3916(3)
C8 C 0.73248(17) 0.6446(2) 0.4353(3)
C9 C 0.67117(17) 0.6436(2) 0.4526(3)
C10 C 0.72495(17) 0.7729(2) 0.4198(3)
C11 C 0.84621(19) 0.6487(3) 0.3798(3)
C12 C 0.75702(18) 0.7410(2) 0.4142(3)
C13 C 0.72018(17) 0.8352(2) 0.4092(3)
C14 C 0.7042(2) 1.0232(3) 0.3738(3)
C15 C 0.74739(19) 0.8680(3) 0.3925(3)
C16 C 0.66447(18) 0.7711(2) 0.4379(3)
C17 C 0.73549(19) 0.5814(2) 0.4423(3)
C18 C 0.69696(18) 0.7404(2) 0.4335(3)
C19 C 0.76052(18) 0.6787(3) 0.4211(3)
C20 C 0.5856(2) 0.9568(2) 0.4138(3)
C21 C 0.8684(2) 0.6827(3) 0.3556(3)
C22 C 0.5338(2) 0.6387(3) 0.4387(3)
C23 C 0.67548(19) 0.5797(2) 0.4625(3)
C24 C 0.57046(19) 0.6727(2) 0.4509(3)
C25 C 0.78030(19) 0.8377(3) 0.3896(3)
C26 C 0.63729(18) 0.6756(2) 0.4528(3)
C27 C 0.60708(19) 0.5774(2) 0.4585(3)
C28 C 0.5390(2) 1.0469(3) 0.3669(3)
C29 C 0.81881(18) 0.6806(3) 0.3980(3)
C30 C 0.73997(19) 0.9299(3) 0.3761(3)
C31 C 0.68731(18) 0.8665(2) 0.4127(3)
C32 C 0.62114(19) 0.9276(2) 0.4172(3)
C33 C 0.64382(19) 0.5475(2) 0.4723(3)
C34 C 0.4801(2) 0.8198(3) 0.4877(4)
C35 C 0.6495(2) 0.9609(2) 0.4043(3)
C36 C 0.62681(19) 0.8661(2) 0.4318(3)
C37 C 0.81597(19) 0.7429(3) 0.3932(3)
C38 C 0.6450(2) 1.0233(2) 0.3949(3)
C39 C 0.79146(18) 0.6471(2) 0.4129(3)
C40 C 0.7282(2) 1.0555(3) 0.3492(3)
C41 C 0.63496(19) 0.7384(2) 0.4482(3)
C42 C 0.8801(2) 0.6521(3) 0.3151(3)
C43 C 0.7024(2) 1.1509(3) 0.3697(4)
C44 C 0.80834(19) 0.8716(3) 0.3770(3)
C45 C 0.5716(2) 0.5462(2) 0.4521(3)
C46 C 0.5022(2) 0.7333(3) 0.4505(4)
C47 C 0.6732(2) 1.0548(3) 0.3801(3)
C48 C 0.68221(19) 0.9296(2) 0.4008(3)
C49 C 0.5354(2) 0.7669(3) 0.4538(3)
C50 C 0.6422(2) 1.1497(3) 0.3890(4)
C51 C 0.6716(2) 1.1195(3) 0.3776(3)
C52 C 0.59842(19) 0.8334(2) 0.4443(3)
C53 C 0.60151(19) 0.7689(2) 0.4493(3)
C54 C 0.7531(2) 1.0212(3) 0.3293(3)
C55 C 0.84576(19) 0.8414(3) 0.3827(3)
C56 C 0.5771(2) 1.0185(3) 0.3915(3)
C57 C 0.7660(2) 1.0518(3) 0.2910(4)
C58 C 0.70858(18) 0.9615(2) 0.3830(3)
C59 C 0.82546(18) 0.5533(3) 0.4081(3)
C60 C 0.64695(19) 0.4885(3) 0.4947(3)
C61 C 0.70743(19) 0.5524(3) 0.4571(3)
H2 H 0.7106 0.5102 0.4642
C62 C 0.5338(2) 1.1063(3) 0.3478(4)
C63 C 0.6058(2) 1.1163(3) 0.3811(3)
C64 C 0.83759(19) 0.4963(3) 0.4300(3)
C65 C 0.5669(2) 1.1414(3) 0.3548(4)
C66 C 0.4977(2) 0.6725(3) 0.4271(4)
C67 C 0.7232(2) 1.1176(3) 0.3399(4)
C68 C 0.4597(2) 0.5847(3) 0.3690(4)
C69 C 0.5775(2) 0.4882(3) 0.4776(4)
C70 C 0.5669(2) 0.8649(2) 0.4499(3)
C71 C 0.76923(19) 0.5488(3) 0.4376(3)
C72 C 0.8739(2) 0.5905(3) 0.3047(3)
C73 C 0.5379(2) 0.8308(3) 0.4645(3)
C74 C 0.7641(2) 0.9591(3) 0.3525(3)
C75 C 0.4956(2) 0.5513(3) 0.3879(4)
C76 C 0.7989(2) 0.9297(3) 0.3570(3)
H3 H 0.8170 0.9510 0.3457
C77 C 0.4763(2) 0.7590(3) 0.4718(3)
C78 C 0.5106(2) 0.8546(3) 0.4841(4)
C79 C 0.79542(18) 0.5829(2) 0.4196(3)
C80 C 0.6869(3) 1.2367(3) 0.4169(4)
C81 C 0.8542(2) 0.5579(3) 0.3316(3)
C82 C 0.5330(2) 0.5773(3) 0.4269(4)
C83 C 0.9110(2) 0.7761(3) 0.3811(4)
C84 C 0.7778(2) 0.4864(3) 0.4455(4)
C85 C 0.87507(19) 0.7451(3) 0.3705(3)
C86 C 0.6149(2) 0.4599(3) 0.4999(3)
C87 C 0.8453(2) 0.7772(3) 0.3811(3)
C88 C 0.5692(2) 0.7365(3) 0.4507(3)
C89 C 0.8126(2) 0.4612(2) 0.4467(3)
C90 C 0.7570(2) 1.1108(3) 0.2751(4)
C91 C 0.8808(2) 0.8701(3) 0.3877(3)
C92 C 0.7352(2) 1.1447(3) 0.2989(4)
C93 C 0.9146(2) 0.8363(3) 0.3922(3)
C94 C 0.7105(3) 1.2098(3) 0.3925(4)
C95 C 0.6527(3) 1.2080(3) 0.4143(4)
C96 C 0.4613(2) 0.6432(3) 0.3900(4)
Cl27 Cl 0.75542(7) 1.24467(9) 0.40320(12)
loop_
_geom_bond_atom_site_label_1
_geom_bond_atom_site_label_2
_geom_bond_site_symmetry_1
_geom_bond_site_symmetry_2
Cl1 C60 1_555 1_555
Cl2 C69 1_555 1_555
Cl3 C86 1_555 1_555
Cl4 C81 1_555 1_555
Cl5 C42 1_555 1_555
Cl6 C65 1_555 1_555
Cl7 C78 1_555 1_555
Cl8 C77 1_555 1_555
Cl9 C89 1_555 1_555
Cl10 C34 1_555 1_555
Cl11 C64 1_555 1_555
Cl12 C28 1_555 1_555
Cl13 C91 1_555 1_555
Cl14 C75 1_555 1_555
Cl15 C83 1_555 1_555
Cl16 C93 1_555 1_555
Cl17 C92 1_555 1_555
Cl18 C95 1_555 1_555
Cl19 C62 1_555 1_555
Cl20 C72 1_555 1_555
Cl21 C57 1_555 1_555
Cl22 C96 1_555 1_555
Cl23 C68 1_555 1_555
Cl24 C90 1_555 1_555
Cl25 C80 1_555 1_555
Cl26 C84 1_555 1_555
C1 C16 1_555 1_555
C2 C12 1_555 1_555
C3 C11 1_555 1_555
C4 C8 1_555 1_555
C5 H1 1_555 1_555
C6 C24 1_555 1_555
C7 C38 1_555 1_555
C8 C17 1_555 1_555
C9 C4 1_555 1_555
C10 C12 1_555 1_555
C11 C21 1_555 1_555
C12 C19 1_555 1_555
C13 C10 1_555 1_555
C14 C40 1_555 1_555
C15 C13 1_555 1_555
C16 C18 1_555 1_555
C17 C61 1_555 1_555
C18 C4 1_555 1_555
C19 C8 1_555 1_555
C20 C5 1_555 1_555
C21 C42 1_555 1_555
C22 C24 1_555 1_555
C23 C9 1_555 1_555
C24 C88 1_555 1_555
C25 C2 1_555 1_555
C26 C6 1_555 1_555
C27 C6 1_555 1_555
C28 C56 1_555 1_555
C29 C11 1_555 1_555
C30 C15 1_555 1_555
C31 C1 1_555 1_555
C32 C20 1_555 1_555
C33 C23 1_555 1_555
C34 C77 1_555 1_555
C35 C32 1_555 1_555
C36 C1 1_555 1_555
C37 C2 1_555 1_555
C38 C35 1_555 1_555
C39 C19 1_555 1_555
C40 C54 1_555 1_555
C41 C16 1_555 1_555
C42 C72 1_555 1_555
C43 C51 1_555 1_555
C44 C25 1_555 1_555
C45 C27 1_555 1_555
C46 C49 1_555 1_555
C47 C14 1_555 1_555
C48 C31 1_555 1_555
C49 C73 1_555 1_555
C50 C51 1_555 1_555
C51 C47 1_555 1_555
C52 C36 1_555 1_555
C53 C41 1_555 1_555
C54 C57 1_555 1_555
C55 C44 1_555 1_555
C56 C7 1_555 1_555
C57 C90 1_555 1_555
C58 C14 1_555 1_555
C59 C3 1_555 1_555
C60 C33 1_555 1_555
C61 C23 1_555 1_555
H2 C61 1_555 1_555
C62 C28 1_555 1_555
C63 C7 1_555 1_555
C64 C59 1_555 1_555
C65 C62 1_555 1_555
C66 C22 1_555 1_555
C67 C40 1_555 1_555
C68 C75 1_555 1_555
C69 C45 1_555 1_555
C70 C5 1_555 1_555
C71 C17 1_555 1_555
C72 C81 1_555 1_555
C73 C70 1_555 1_555
C74 C30 1_555 1_555
C75 C82 1_555 1_555
C76 C44 1_555 1_555
H3 C76 1_555 1_555
C77 C46 1_555 1_555
C78 C34 1_555 1_555
C79 C39 1_555 1_555
C80 C94 1_555 1_555
C81 C3 1_555 1_555
C82 C22 1_555 1_555
C83 C85 1_555 1_555
C84 C71 1_555 1_555
C85 C21 1_555 1_555
C86 C60 1_555 1_555
C87 C37 1_555 1_555
C88 C49 1_555 1_555
C89 C64 1_555 1_555
C90 C92 1_555 1_555
C91 C55 1_555 1_555
C92 C67 1_555 1_555
C93 C83 1_555 1_555
C94 C43 1_555 1_555
C95 C50 1_555 1_555
C96 C66 1_555 1_555
Cl27 C94 1_555 1_555
C9 C26 1_555 1_555
C10 C18 1_555 1_555
C13 C31 1_555 1_555
C15 C25 1_555 1_555
C20 C56 1_555 1_555
C26 C41 1_555 1_555
C27 C33 1_555 1_555
C29 C37 1_555 1_555
C29 C39 1_555 1_555
C30 C58 1_555 1_555
C32 C36 1_555 1_555
C35 C48 1_555 1_555
C38 C47 1_555 1_555
C43 C67 1_555 1_555
C45 C82 1_555 1_555
C46 C66 1_555 1_555
C48 C58 1_555 1_555
C50 C63 1_555 1_555
C52 C53 1_555 1_555
C52 C70 1_555 1_555
C53 C88 1_555 1_555
C54 C74 1_555 1_555
C55 C87 1_555 1_555
C59 C79 1_555 1_555
C63 C65 1_555 1_555
C68 C96 1_555 1_555
C69 C86 1_555 1_555
C71 C79 1_555 1_555
C73 C78 1_555 1_555
C74 C76 1_555 1_555
C80 C95 1_555 1_555
C84 C89 1_555 1_555
C85 C87 1_555 1_555
C91 C93 1_555 1_555

#END
