
#######################################################################
#
#                 Cambridge Crystallographic Data Centre
#                                CCDC 
#
#######################################################################
#
# If this CIF has been generated from an entry in the Cambridge 
# Structural Database, then it will include bibliographic, chemical, 
# crystal, experimental, refinement or atomic coordinate data resulting 
# from the CCDC's data processing and validation procedures.
#
#######################################################################

data_CIMCOS
_chemical_formula_moiety         'C19 H18 N1 O2 1+,C9 H11 O3 S1 1-'
_chemical_name_systematic        
'2-(2-(4-Hydroxy-3-methoxyphenyl)vinyl)-1-methylquinolinium 2,4,6-trimethylbenzenesulfonate'
_symmetry_cell_setting           monoclinic
_symmetry_space_group_name_H-M   'P n'
_symmetry_Int_Tables_number      7
_space_group_name_Hall           'P -2yac'
loop_
_symmetry_equiv_pos_site_id
_symmetry_equiv_pos_as_xyz
1 x,y,z
2 1/2+x,-y,1/2+z
_cell_length_a                   11.1192(3)
_cell_length_b                   7.9773(2)
_cell_length_c                   14.4921(4)
_cell_angle_alpha                90
_cell_angle_beta                 106.2569(9)
_cell_angle_gamma                90
_cell_volume                     1234.07
_exptl_crystal_colour            brown
_exptl_crystal_description       block
_cell_formula_units_Z            2
loop_
_atom_site_label
_atom_site_type_symbol
_atom_site_fract_x
_atom_site_fract_y
_atom_site_fract_z
S1 S 0.86589(4) 0.44064(6) 0.74659(3)
C1 C 0.79994(16) 0.5842(2) 0.64983(12)
C2 C 0.75896(18) 0.8690(2) 0.59208(15)
H1 H 0.7650 0.9837 0.6039
C3 C 0.81232(18) 0.7589(2) 0.66727(13)
C4 C 0.6439(3) 0.9354(3) 0.41987(19)
H2 H 0.6051 0.8746 0.3620
H3 H 0.7099 1.0043 0.4099
H4 H 0.5826 1.0050 0.4364
C5 C 0.68870(19) 0.6430(2) 0.48431(13)
H5 H 0.6482 0.6044 0.4229
C6 C 0.69740(18) 0.8134(2) 0.50044(14)
C7 C 0.73833(18) 0.5258(2) 0.55670(13)
C8 C 0.8858(3) 0.8350(3) 0.76184(16)
H6 H 0.9178 0.7473 0.8075
H7 H 0.8320 0.9067 0.7858
H8 H 0.9543 0.8993 0.7523
C9 C 0.7220(3) 0.3435(3) 0.52645(16)
H9 H 0.7589 0.2733 0.5808
H10 H 0.7624 0.3234 0.4770
H11 H 0.6343 0.3184 0.5024
O1 O 0.99740(18) 0.4390(4) 0.75792(18)
O2 O 0.8308(2) 0.5021(3) 0.82920(13)
O3 O 0.8105(2) 0.2779(2) 0.72016(14)
C10 C 0.5863(2) 0.2816(3) 0.86246(14)
H12 H 0.6401 0.2902 0.8237
C11 C 0.5733(2) 0.3559(3) 1.02665(16)
H13 H 0.4929 0.3974 0.9998
C12 C 0.40309(18) 0.2802(3) 0.71637(13)
C13 C 0.22092(18) 0.2278(3) 0.58267(14)
C14 C 0.40183(19) 0.3645(3) 0.55645(15)
H14 H 0.4423 0.4136 0.5152
C15 C 0.7470(2) 0.3028(3) 1.16455(15)
C16 C 0.9370(2) 0.1742(4) 1.14539(18)
H15 H 0.9829 0.1297 1.1065
C17 C 0.8224(2) 0.1352(3) 0.94517(17)
H16 H 0.9033 0.1001 0.9841
H17 H 0.8325 0.2103 0.8961
H18 H 0.7752 0.0389 0.9158
C18 C 0.63978(18) 0.2831(2) 0.96658(13)
C19 C 0.4629(2) 0.2684(3) 0.82029(14)
H19 H 0.4112 0.2503 0.8599
C20 C 0.9232(3) 0.2539(4) 1.30295(19)
H20 H 0.9611 0.2602 1.3688
C21 C 0.0383(2) 0.0921(3) 0.5999(2)
H21 H -0.0423 0.0542 0.5618
H22 H 0.0275 0.1727 0.6461
H23 H 0.0856 -0.0015 0.6327
C22 C 0.28060(19) 0.2190(3) 0.68015(14)
H24 H 0.2394 0.1724 0.7217
C23 C 0.81385(18) 0.2310(3) 1.10476(14)
C24 C 0.9883(3) 0.1849(4) 1.2420(2)
H25 H 1.0693 0.1453 1.2685
C25 C 0.28034(18) 0.3031(3) 0.51985(13)
C26 C 0.8043(3) 0.3115(4) 1.26530(17)
H26 H 0.7604 0.3566 1.3055
C27 C 0.46285(18) 0.3530(3) 0.65374(15)
H27 H 0.5440 0.3940 0.6773
C28 C 0.6253(2) 0.3657(3) 1.12286(16)
H28 H 0.5807 0.4139 1.1616
N1 N 0.75501(15) 0.2222(2) 1.00621(11)
O4 O 0.10310(15) 0.1671(3) 0.53953(12)
O5 O 0.21507(15) 0.3124(2) 0.42643(11)
H29 H 0.2567 0.3622 0.3965
loop_
_geom_bond_atom_site_label_1
_geom_bond_atom_site_label_2
_geom_bond_site_symmetry_1
_geom_bond_site_symmetry_2
S1 C1 1_555 1_555
C1 C3 1_555 1_555
C2 H1 1_555 1_555
C3 C2 1_555 1_555
C4 H2 1_555 1_555
H3 C4 1_555 1_555
H4 C4 1_555 1_555
C5 H5 1_555 1_555
C6 C2 1_555 1_555
C7 C1 1_555 1_555
C8 C3 1_555 1_555
H6 C8 1_555 1_555
H7 C8 1_555 1_555
H8 C8 1_555 1_555
C9 C7 1_555 1_555
H9 C9 1_555 1_555
H10 C9 1_555 1_555
H11 C9 1_555 1_555
O1 S1 1_555 1_555
O2 S1 1_555 1_555
O3 S1 1_555 1_555
C10 H12 1_555 1_555
C11 H13 1_555 1_555
C12 C19 1_555 1_555
C13 C22 1_555 1_555
C14 H14 1_555 1_555
C15 C23 1_555 1_555
C16 H15 1_555 1_555
C17 H16 1_555 1_555
H17 C17 1_555 1_555
H18 C17 1_555 1_555
C18 C10 1_555 1_555
C19 C10 1_555 1_555
H19 C19 1_555 1_555
C20 H20 1_555 1_555
C21 H21 1_555 1_555
H22 C21 1_555 1_555
H23 C21 1_555 1_555
C22 C12 1_555 1_555
H24 C22 1_555 1_555
C23 C16 1_555 1_555
C24 C16 1_555 1_555
H25 C24 1_555 1_555
C25 C13 1_555 1_555
C26 C15 1_555 1_555
H26 C26 1_555 1_555
C27 C12 1_555 1_555
H27 C27 1_555 1_555
C28 C11 1_555 1_555
H28 C28 1_555 1_555
N1 C17 1_555 1_555
O4 C13 1_555 1_555
O5 C25 1_555 1_555
H29 O5 1_555 1_555
C4 C6 1_555 1_555
C5 C6 1_555 1_555
C5 C7 1_555 1_555
C11 C18 1_555 1_555
C14 C25 1_555 1_555
C14 C27 1_555 1_555
C15 C28 1_555 1_555
C18 N1 1_555 1_555
C20 C24 1_555 1_555
C20 C26 1_555 1_555
C21 O4 1_555 1_555
C23 N1 1_555 1_555

#END
