
#######################################################################
#
#                 Cambridge Crystallographic Data Centre
#                                CCDC 
#
#######################################################################
#
# If this CIF has been generated from an entry in the Cambridge 
# Structural Database, then it will include bibliographic, chemical, 
# crystal, experimental, refinement or atomic coordinate data resulting 
# from the CCDC's data processing and validation procedures.
#
#######################################################################

data_CIMCAE
_chemical_formula_moiety         'C48 Cl18'
_chemical_name_systematic        octadecachloro-C48graphene
_symmetry_cell_setting           monoclinic
_symmetry_space_group_name_H-M   'C 2/c'
_symmetry_Int_Tables_number      15
_space_group_name_Hall           '-C 2yn'
loop_
_symmetry_equiv_pos_site_id
_symmetry_equiv_pos_as_xyz
1 x,y,z
2 -x,y,1/2-z
3 1/2+x,1/2+y,z
4 1/2-x,1/2+y,1/2-z
5 -x,-y,-z
6 x,-y,1/2+z
7 1/2-x,1/2-y,-z
8 1/2+x,1/2-y,1/2+z
_cell_length_a                   12.861(2)
_cell_length_b                   28.435(4)
_cell_length_c                   10.629(3)
_cell_angle_alpha                90
_cell_angle_beta                 97.155(18)
_cell_angle_gamma                90
_cell_volume                     3856.78
_cell_formula_units_Z            4
loop_
_atom_site_label
_atom_site_type_symbol
_atom_site_fract_x
_atom_site_fract_y
_atom_site_fract_z
Cl1 Cl 0.04028(14) 0.06062(6) 0.08741(19)
Cl2 Cl 0.12388(14) -0.14458(5) -0.13631(18)
Cl3 Cl 0.22540(14) -0.11742(5) 0.13437(17)
Cl4 Cl 0.12610(14) -0.02827(5) 0.21670(17)
Cl5 Cl 0.12255(16) 0.15158(6) -0.0006(2)
Cl6 Cl 0.53425(15) 0.19013(5) -0.10852(19)
Cl7 Cl 0.41132(17) -0.29183(5) -0.1699(2)
Cl8 Cl 0.33162(16) 0.19890(5) 0.0055(2)
Cl9 Cl 0.20791(16) -0.23822(5) -0.2094(2)
C1 C 0.2962(6) -0.0677(2) -0.0572(7)
C2 C 0.2568(6) -0.1507(2) -0.1389(7)
C3 C 0.4599(6) 0.0184(2) -0.2108(7)
C4 C 0.3009(6) 0.0183(2) -0.0454(7)
C5 C 0.3586(6) 0.1463(2) -0.0648(7)
C6 C 0.1961(6) -0.0255(2) 0.0873(7)
C7 C 0.3383(6) -0.0247(2) -0.0914(7)
C8 C 0.4102(6) -0.1104(2) -0.1846(7)
C9 C 0.2034(6) 0.1030(2) 0.0033(7)
C10 C 0.4226(6) 0.0617(2) -0.1650(6)
C11 C 0.4573(6) -0.0675(2) -0.2124(6)
C12 C 0.4178(6) -0.0246(2) -0.1731(6)
C13 C 0.2189(6) 0.0180(2) 0.0322(7)
C14 C 0.2948(6) -0.1928(2) -0.1748(7)
C15 C 0.3416(6) 0.0620(2) -0.0842(7)
C16 C 0.2366(6) -0.0668(2) 0.0470(7)
C17 C 0.4520(6) -0.1540(2) -0.2235(7)
C18 C 0.3207(6) -0.1101(2) -0.1215(7)
C19 C 0.4544(6) -0.2387(2) -0.2226(8)
C20 C 0.4663(5) 0.1045(2) -0.2009(7)
C21 C 0.1652(5) 0.0610(2) 0.0438(7)
C22 C 0.3005(6) 0.1049(2) -0.0459(8)
C23 C 0.4018(6) -0.1965(2) -0.1997(7)
C24 C 0.4445(6) 0.1452(2) -0.1288(8)
Cl1A Cl 0.95972(14) 0.06062(6) -0.58741(19)
Cl2A Cl 0.87612(14) -0.14458(5) -0.36369(18)
Cl3A Cl 0.77460(14) -0.11742(5) -0.63437(17)
Cl4A Cl 0.87390(14) -0.02827(5) -0.71670(17)
Cl5A Cl 0.87745(16) 0.15158(6) -0.4994(2)
Cl6A Cl 0.46575(15) 0.19013(5) -0.39148(19)
Cl7A Cl 0.58868(17) -0.29183(5) -0.3301(2)
Cl8A Cl 0.66838(16) 0.19890(5) -0.5055(2)
Cl9A Cl 0.79209(16) -0.23822(5) -0.2906(2)
C1A C 0.7038(6) -0.0677(2) -0.4428(7)
C2A C 0.7432(6) -0.1507(2) -0.3611(7)
C3A C 0.5401(6) 0.0184(2) -0.2892(7)
C4A C 0.6991(6) 0.0183(2) -0.4546(7)
C5A C 0.6414(6) 0.1463(2) -0.4352(7)
C6A C 0.8039(6) -0.0255(2) -0.5873(7)
C7A C 0.6617(6) -0.0247(2) -0.4086(7)
C8A C 0.5898(6) -0.1104(2) -0.3154(7)
C9A C 0.7966(6) 0.1030(2) -0.5033(7)
C10A C 0.5774(6) 0.0617(2) -0.3350(6)
C11A C 0.5427(6) -0.0675(2) -0.2876(6)
C12A C 0.5822(6) -0.0246(2) -0.3269(6)
C13A C 0.7811(6) 0.0180(2) -0.5322(7)
C14A C 0.7052(6) -0.1928(2) -0.3252(7)
C15A C 0.6584(6) 0.0620(2) -0.4158(7)
C16A C 0.7634(6) -0.0668(2) -0.5470(7)
C17A C 0.5480(6) -0.1540(2) -0.2765(7)
C18A C 0.6793(6) -0.1101(2) -0.3785(7)
C19A C 0.5456(6) -0.2387(2) -0.2774(8)
C20A C 0.5337(5) 0.1045(2) -0.2991(7)
C21A C 0.8348(5) 0.0610(2) -0.5438(7)
C22A C 0.6995(6) 0.1049(2) -0.4541(8)
C23A C 0.5982(6) -0.1965(2) -0.3003(7)
C24A C 0.5555(6) 0.1452(2) -0.3712(8)
loop_
_geom_bond_atom_site_label_1
_geom_bond_atom_site_label_2
_geom_bond_site_symmetry_1
_geom_bond_site_symmetry_2
Cl1 C21 1_555 1_555
Cl2 C2 1_555 1_555
Cl3 C16 1_555 1_555
Cl4 C6 1_555 1_555
Cl5 C9 1_555 1_555
Cl6 C24 1_555 1_555
Cl7 C19 1_555 1_555
Cl8 C5 1_555 1_555
Cl9 C14 1_555 1_555
C1 C7 1_555 1_555
C2 C14 1_555 1_555
C3 C10 1_555 1_555
C4 C7 1_555 1_555
C5 C22 1_555 1_555
C6 C13 1_555 1_555
C7 C12 1_555 1_555
C8 C11 1_555 1_555
C9 C21 1_555 1_555
C10 C15 1_555 1_555
C11 C12 1_555 1_555
C12 C3 1_555 1_555
C13 C4 1_555 1_555
C14 C23 1_555 1_555
C15 C4 1_555 1_555
C16 C1 1_555 1_555
C17 C8 1_555 1_555
C18 C1 1_555 1_555
C19 C23 1_555 1_555
C20 C10 1_555 1_555
C21 C13 1_555 1_555
C22 C9 1_555 1_555
C23 C17 1_555 1_555
C24 C5 1_555 1_555
Cl1A C21A 1_555 1_555
Cl2A C2A 1_555 1_555
Cl3A C16A 1_555 1_555
Cl4A C6A 1_555 1_555
Cl5A C9A 1_555 1_555
Cl6A C24A 1_555 1_555
Cl7A C19A 1_555 1_555
Cl8A C5A 1_555 1_555
Cl9A C14A 1_555 1_555
C1A C7A 1_555 1_555
C2A C14A 1_555 1_555
C3A C3 1_555 1_555
C4A C7A 1_555 1_555
C5A C22A 1_555 1_555
C6A C13A 1_555 1_555
C7A C12A 1_555 1_555
C8A C11A 1_555 1_555
C9A C21A 1_555 1_555
C10A C3A 1_555 1_555
C11A C11 1_555 1_555
C12A C3A 1_555 1_555
C13A C4A 1_555 1_555
C14A C23A 1_555 1_555
C15A C4A 1_555 1_555
C16A C1A 1_555 1_555
C17A C17 1_555 1_555
C18A C1A 1_555 1_555
C19A C19 1_555 1_555
C20A C20 1_555 1_555
C21A C13A 1_555 1_555
C22A C9A 1_555 1_555
C23A C17A 1_555 1_555
C24A C5A 1_555 1_555
C2 C18 1_555 1_555
C6 C16 1_555 1_555
C8 C18 1_555 1_555
C15 C22 1_555 1_555
C20 C24 1_555 1_555
C2A C18A 1_555 1_555
C6A C16A 1_555 1_555
C8A C17A 1_555 1_555
C8A C18A 1_555 1_555
C10A C15A 1_555 1_555
C10A C20A 1_555 1_555
C11A C12A 1_555 1_555
C15A C22A 1_555 1_555
C19A C23A 1_555 1_555
C20A C24A 1_555 1_555

#END
