
#######################################################################
#
#                 Cambridge Crystallographic Data Centre
#                                CCDC 
#
#######################################################################
#
# If this CIF has been generated from an entry in the Cambridge 
# Structural Database, then it will include bibliographic, chemical, 
# crystal, experimental, refinement or atomic coordinate data resulting 
# from the CCDC's data processing and validation procedures.
#
#######################################################################

data_CIMNUJ
_chemical_name_common            
'dapagliflozin (S)-propylene glycol solvate hydrate'
_chemical_formula_moiety         'C21 H25 Cl1 O6,C3 H8 O2,0.5(H2 O1)'
_chemical_name_systematic        
'2-(4-chloro-3-(4-ethylbenzyl)phenyl)-6-(hydroxymethyl)tetrahydro-2H-pyran-3,4,5-triol (S)-propylene glycol solvate hydrate'
_chemical_properties_biological  
'Possible use in selective inhibition of SGLT2 in diabetic patients'
_symmetry_cell_setting           orthorhombic
_symmetry_space_group_name_H-M   'P 21 21 21'
_symmetry_Int_Tables_number      19
_space_group_name_Hall           'P 2ac 2ab'
loop_
_symmetry_equiv_pos_site_id
_symmetry_equiv_pos_as_xyz
1 x,y,z
2 1/2-x,-y,1/2+z
3 -x,1/2+y,1/2-z
4 1/2+x,1/2-y,-z
_cell_length_a                   11.269
_cell_length_b                   4.809
_cell_length_c                   46.723
_cell_angle_alpha                90
_cell_angle_beta                 90
_cell_angle_gamma                90
_cell_volume                     2532.04
_cell_formula_units_Z            4
loop_
_atom_site_label
_atom_site_type_symbol
_atom_site_fract_x
_atom_site_fract_y
_atom_site_fract_z
Cl1 Cl 0.7313 0.4674 -0.2101
O1 O 0.8119 0.5766 -0.0701
O2 O 0.7202 0.5458 0.0056
O3 O 0.5115 0.3666 -0.0246
O4 O 0.9646 0.2671 -0.0316
O5 O 0.4895 0.5889 -0.0811
C1 C 0.6024 0.5045 -0.0697
C2 C 0.7946 0.4228 -0.1261
C3 C 0.8198 0.6301 -0.0398
O6 O 0.1633 0.2154 -0.2179
C4 C 0.6391 0.7665 -0.1320
C5 C 0.9425 0.5628 -0.0299
C6 C 0.5984 0.5441 -0.0373
C7 C 0.7059 0.6639 -0.0829
C8 C 0.7147 0.6097 -0.1148
C9 C 0.7190 0.4796 -0.0240
C10 C 0.7203 0.5412 -0.1732
C11 C 0.2586 0.3689 -0.2079
C12 C 0.4171 0.6835 -0.2198
C13 C 0.7959 0.3822 -0.1562
C14 C 0.6397 0.7259 -0.1622
C15 C 0.5535 0.8771 -0.1822
C16 C 0.4508 0.6852 -0.1907
C17 C 0.3841 0.5376 -0.1712
C18 C 0.2861 0.3765 -0.1788
C19 C 0.1012 0.0595 -0.1979
C20 C 0.3232 0.5239 -0.2279
C21 C 0.0030 -0.0944 -0.2137
H1 H 0.6171 0.2877 -0.0753
H2 H 0.8544 0.3092 -0.1123
H3 H 0.7993 0.8404 -0.0347
H4 H 0.5805 0.9176 -0.1225
H5 H 0.9563 0.6296 -0.0070
H6 H 1.0096 0.6774 -0.0422
H7 H 0.5776 0.7529 -0.0321
H8 H 0.6920 0.8863 -0.0793
H9 H 0.7271 0.2607 -0.0265
H10 H 0.4656 0.8069 -0.2353
H11 H 0.8552 0.2316 -0.1658
H12 H 0.5284 1.0619 -0.1717
H13 H 0.6093 0.9308 -0.2010
H14 H 0.4086 0.5437 -0.1488
H15 H 0.2335 0.2640 -0.1632
H16 H 0.1483 -0.1065 -0.1854
H17 H 0.0535 0.1811 -0.1804
H18 H 0.2987 0.5193 -0.2503
H19 H -0.0606 -0.2245 -0.2014
H20 H -0.0562 0.0572 -0.2256
H21 H 0.4362 0.4237 -0.0836
H22 H 0.4297 0.4310 -0.0299
H23 H 0.7387 0.3750 0.0172
H24 H 0.9827 0.1877 -0.0122
H25 H 0.0387 -0.2305 -0.2306
O7 O 0.3708 0.0977 -0.0854
O8 O 0.1294 0.2019 -0.0742
C22 C 0.1652 -0.0245 -0.0920
C23 C 0.2791 0.0335 -0.1051
C24 C 0.0645 -0.1005 -0.1124
H26 H 0.1809 -0.2154 -0.0792
H27 H 0.2662 0.215 -0.1200
H28 H 0.3059 -0.1396 -0.1196
H29 H 0.0875 -0.2595 -0.1270
H30 H -0.0137 -0.1453 -0.1008
H31 H 0.0462 0.0938 -0.1255
H32 H 0.4203 -0.0719 -0.0817
H33 H 0.0653 0.1382 -0.0608
O9 O 0.2722 0.4482 -0.0319
H34 H 0.2473 0.6301 -0.0234
H35 H 0.2108 0.3906 -0.0463
loop_
_geom_bond_atom_site_label_1
_geom_bond_atom_site_label_2
_geom_bond_site_symmetry_1
_geom_bond_site_symmetry_2
Cl1 C10 1_555 1_555
O1 C3 1_555 1_555
O2 C9 1_555 1_555
O3 C6 1_555 1_555
O4 C5 1_555 1_555
O5 C1 1_555 1_555
C1 C6 1_555 1_555
C2 C8 1_555 1_555
C3 C5 1_555 1_555
O6 C11 1_555 1_555
C4 C8 1_555 1_555
C5 H5 1_555 1_555
C6 C9 1_555 1_555
C7 O1 1_555 1_555
C8 C7 1_555 1_555
C9 C3 1_555 1_555
C10 C13 1_555 1_555
C11 C18 1_555 1_555
C12 C16 1_555 1_555
C13 C2 1_555 1_555
C14 C4 1_555 1_555
C15 C14 1_555 1_555
C16 C15 1_555 1_555
C17 C16 1_555 1_555
C18 C17 1_555 1_555
C19 O6 1_555 1_555
C20 C11 1_555 1_555
C21 C19 1_555 1_555
H1 C1 1_555 1_555
H2 C2 1_555 1_555
H3 C3 1_555 1_555
H4 C4 1_555 1_555
H6 C5 1_555 1_555
H7 C6 1_555 1_555
H8 C7 1_555 1_555
H9 C9 1_555 1_555
H10 C12 1_555 1_555
H11 C13 1_555 1_555
H12 C15 1_555 1_555
H13 C15 1_555 1_555
H14 C17 1_555 1_555
H15 C18 1_555 1_555
H16 C19 1_555 1_555
H17 C19 1_555 1_555
H18 C20 1_555 1_555
H19 C21 1_555 1_555
H20 C21 1_555 1_555
H21 O5 1_555 1_555
H22 O3 1_555 1_555
H23 O2 1_555 1_555
H24 O4 1_555 1_555
H25 C21 1_555 1_555
O7 C23 1_555 1_555
O8 C22 1_555 1_555
C22 C23 1_555 1_555
C23 H27 1_555 1_555
C24 C22 1_555 1_555
H26 C22 1_555 1_555
H28 C23 1_555 1_555
H29 C24 1_555 1_555
H30 C24 1_555 1_555
H31 C24 1_555 1_555
H32 O7 1_555 1_555
H33 O8 1_555 1_555
O9 H34 1_555 1_555
H35 O9 1_555 1_555
C1 C7 1_555 1_555
C10 C14 1_555 1_555
C12 C20 1_555 1_555

#END
