
#######################################################################
#
#                 Cambridge Crystallographic Data Centre
#                                CCDC 
#
#######################################################################
#
# If this CIF has been generated from an entry in the Cambridge 
# Structural Database, then it will include bibliographic, chemical, 
# crystal, experimental, refinement or atomic coordinate data resulting 
# from the CCDC's data processing and validation procedures.
#
#######################################################################

data_CIMPIZ
_chemical_formula_moiety         'C24 H17 N1 O3,1.5(C2 H6 O1 S1)'
_chemical_name_systematic        
'8-Methoxy-2,3-diphenylchromeno[4,3-b]pyrrol-4(1H)-one dimethylsulfoxide solvate'
_symmetry_cell_setting           triclinic
_symmetry_space_group_name_H-M   'P -1'
_symmetry_Int_Tables_number      2
_space_group_name_Hall           '-P 1'
loop_
_symmetry_equiv_pos_site_id
_symmetry_equiv_pos_as_xyz
1 x,y,z
2 -x,-y,-z
_cell_length_a                   10.474(7)
_cell_length_b                   10.492(7)
_cell_length_c                   11.959(8)
_cell_angle_alpha                83.130(11)
_cell_angle_beta                 71.200(10)
_cell_angle_gamma                72.255(10)
_cell_volume                     1184.57
_exptl_crystal_colour            colorless
_exptl_crystal_description       Block
_cell_formula_units_Z            2
loop_
_atom_site_label
_atom_site_type_symbol
_atom_site_fract_x
_atom_site_fract_y
_atom_site_fract_z
O1 O 0.1020(5) 0.4288(4) 0.7135(4)
O2 O 0.1546(5) 0.5885(5) 0.7761(4)
O3 O 0.0781(6) 0.1181(5) 0.3892(5)
N1 N 0.2688(5) 0.5504(5) 0.3760(4)
H1 H 0.276(7) 0.525(7) 0.304(3)
C1 C 0.0989(6) 0.3580(6) 0.6268(6)
C2 C 0.0390(7) 0.2524(6) 0.6633(6)
H2 H 0.0028 0.2331 0.7452
C3 C 0.0324(7) 0.1779(6) 0.5821(6)
H3 H -0.0090 0.1064 0.6075
C4 C 0.0849(7) 0.2036(6) 0.4626(6)
C5 C 0.1437(6) 0.3087(6) 0.4231(6)
H4 H 0.1787 0.3274 0.3410
C6 C 0.1503(6) 0.3869(6) 0.5071(6)
C7 C 0.2122(6) 0.4948(6) 0.4818(5)
C8 C 0.2269(6) 0.5593(6) 0.5691(5)
C9 C 0.1635(6) 0.5317(6) 0.6916(5)
C10 C 0.2984(6) 0.6562(5) 0.5140(5)
C11 C 0.3216(6) 0.6474(5) 0.3950(5)
C12 C 0.3956(6) 0.7179(6) 0.2952(5)
C13 C 0.3424(7) 0.7671(6) 0.2000(6)
H5 H 0.2559 0.7556 0.1999
C14 C 0.4178(8) 0.8335(7) 0.1046(6)
H6 H 0.3819 0.8664 0.0400
C15 C 0.5410(9) 0.8512(7) 0.1037(7)
H7 H 0.5905 0.8968 0.0388
C16 C 0.5957(7) 0.8028(7) 0.1976(7)
H8 H 0.6821 0.8154 0.1966
C17 C 0.5240(7) 0.7370(6) 0.2915(5)
H9 H 0.5620 0.7038 0.3550
C18 C 0.3453(5) 0.7416(5) 0.5701(5)
C19 C 0.3111(6) 0.8801(6) 0.5511(6)
H10 H 0.2523 0.9213 0.5031
C20 C 0.3618(7) 0.9565(6) 0.6009(7)
H11 H 0.3405 1.0502 0.5849
C21 C 0.4440(7) 0.8998(7) 0.6749(6)
H12 H 0.4776 0.9541 0.7102
C22 C 0.4761(6) 0.7632(6) 0.6963(6)
H13 H 0.5331 0.7233 0.7460
C23 C 0.4263(6) 0.6841(6) 0.6464(5)
H14 H 0.4469 0.5906 0.6636
C24 C 0.1362(11) 0.1348(8) 0.2700(8)
H15 H 0.0802 0.2180 0.2423
H16 H 0.1374 0.0590 0.2287
H17 H 0.2326 0.1393 0.2539
S1 S 0.21861(19) 0.52992(19) 0.07486(15)
O4 O 0.2867(7) 0.4586(6) 0.1673(5)
C25 C 0.1571(8) 0.4118(8) 0.0303(6)
H18 H 0.2296 0.3254 0.0188
H19 H 0.1357 0.4425 -0.0440
H20 H 0.0718 0.4018 0.0913
C26 C 0.3563(8) 0.5387(11) -0.0556(7)
H21 H 0.4112 0.5929 -0.0422
H22 H 0.3167 0.5797 -0.1196
H23 H 0.4175 0.4482 -0.0775
S2? S -0.079(2) 0.002(2) -0.012(2)
O5? O -0.075(3) 0.093(3) -0.112(2)
C27? C -0.097(7) 0.089(5) 0.111(3)
H24? H -0.1850 0.1620 0.1279
H25? H -0.0175 0.1271 0.0945
H26? H -0.0982 0.0281 0.1798
C28? C 0.086(4) -0.114(4) -0.028(4)
H27? H 0.1045 -0.1772 -0.0899
H28? H 0.0864 -0.1632 0.0465
H29? H 0.1585 -0.0673 -0.0511
S3? S 0.2331(14) 0.4704(14) 0.0212(11)
O6? O 0.280(4) 0.452(4) 0.130(3)
C29? C 0.354(4) 0.542(6) -0.086(4)
H30? H 0.4489 0.4796 -0.1023
H31? H 0.3538 0.6256 -0.0562
H32? H 0.3276 0.5616 -0.1589
C30? C 0.083(3) 0.614(4) 0.051(4)
H33? H 0.0524 0.6342 0.1350
H34? H 0.0070 0.5952 0.0310
H35? H 0.1080 0.6903 0.0034
S4? S 0.0270(8) 0.0531(7) -0.0281(6)
O7? O 0.152(2) 0.067(3) 0.002(2)
C31? C -0.080(4) 0.041(4) 0.1175(17)
H36? H -0.0210 -0.0016 0.1681
H37? H -0.1430 -0.0120 0.1196
H38? H -0.1360 0.1313 0.1459
C32? C 0.077(3) -0.117(2) -0.067(3)
H39? H 0.1611 -0.1666 -0.0445
H40? H 0.0975 -0.1225 -0.1528
H41? H 0.0001 -0.1567 -0.0261
loop_
_geom_bond_atom_site_label_1
_geom_bond_atom_site_label_2
_geom_bond_site_symmetry_1
_geom_bond_site_symmetry_2
O1 C1 1_555 1_555
O2 C9 1_555 1_555
O3 C4 1_555 1_555
N1 H1 1_555 1_555
C1 C2 1_555 1_555
C2 H2 1_555 1_555
C3 C2 1_555 1_555
H3 C3 1_555 1_555
C4 C3 1_555 1_555
C5 C4 1_555 1_555
H4 C5 1_555 1_555
C6 C1 1_555 1_555
C7 N1 1_555 1_555
C8 C7 1_555 1_555
C9 O1 1_555 1_555
C10 C8 1_555 1_555
C11 N1 1_555 1_555
C12 C11 1_555 1_555
C13 C12 1_555 1_555
H5 C13 1_555 1_555
C14 C13 1_555 1_555
H6 C14 1_555 1_555
C15 C14 1_555 1_555
H7 C15 1_555 1_555
C16 C15 1_555 1_555
H8 C16 1_555 1_555
C17 C12 1_555 1_555
H9 C17 1_555 1_555
C18 C10 1_555 1_555
C19 C18 1_555 1_555
H10 C19 1_555 1_555
C20 C19 1_555 1_555
H11 C20 1_555 1_555
C21 C20 1_555 1_555
H12 C21 1_555 1_555
C22 C21 1_555 1_555
H13 C22 1_555 1_555
C23 C18 1_555 1_555
H14 C23 1_555 1_555
C24 O3 1_555 1_555
H15 C24 1_555 1_555
H16 C24 1_555 1_555
H17 C24 1_555 1_555
S1 O4 1_555 1_555
C25 S1 1_555 1_555
H18 C25 1_555 1_555
H19 C25 1_555 1_555
H20 C25 1_555 1_555
C26 S1 1_555 1_555
H21 C26 1_555 1_555
H22 C26 1_555 1_555
H23 C26 1_555 1_555
C5 C6 1_555 1_555
C6 C7 1_555 1_555
C8 C9 1_555 1_555
C10 C11 1_555 1_555
C16 C17 1_555 1_555
C22 C23 1_555 1_555

#END
