
#######################################################################
#
#                 Cambridge Crystallographic Data Centre
#                                CCDC 
#
#######################################################################
#
# If this CIF has been generated from an entry in the Cambridge 
# Structural Database, then it will include bibliographic, chemical, 
# crystal, experimental, refinement or atomic coordinate data resulting 
# from the CCDC's data processing and validation procedures.
#
#######################################################################

data_CIMROH
_chemical_formula_moiety         'C12 H14 O4'
_chemical_name_systematic        
5-Methoxy-4-(4-methoxyphenyl)dihydrofuran-2(3H)-one
_symmetry_cell_setting           monoclinic
_symmetry_space_group_name_H-M   'P 21/c'
_symmetry_Int_Tables_number      14
_space_group_name_Hall           '-P 2ybc'
loop_
_symmetry_equiv_pos_site_id
_symmetry_equiv_pos_as_xyz
1 x,y,z
2 -x,1/2+y,1/2-z
3 -x,-y,-z
4 x,1/2-y,1/2+z
_cell_length_a                   10.2390(6)
_cell_length_b                   13.9488(8)
_cell_length_c                   8.8741(5)
_cell_angle_alpha                90
_cell_angle_beta                 117.372(2)
_cell_angle_gamma                90
_cell_volume                     1125.52
_exptl_crystal_colour            colorless
_exptl_crystal_description       chunk
_cell_formula_units_Z            4
loop_
_atom_site_label
_atom_site_type_symbol
_atom_site_fract_x
_atom_site_fract_y
_atom_site_fract_z
C1 C 0.6564(2) 0.33548(12) 0.7003(2)
H1 H 0.6912 0.2720 0.7498
C2 C 0.6878(2) 0.40374(13) 0.8481(2)
H2 H 0.7839 0.3899 0.9441
C3 C 0.4540(2) 0.34380(13) 0.7590(2)
C4 C 0.4895(2) 0.33182(14) 0.6146(2)
H3 H 0.4474 0.3833 0.5327
H4 H 0.4536 0.2709 0.5577
C5 C 0.7187(3) 0.56661(17) 0.9297(3)
H5 H 0.6454 0.5657 0.9687
H6 H 0.7232 0.6294 0.8882
H7 H 0.8127 0.5506 1.0219
C6 C 0.7319(2) 0.35842(11) 0.5925(2)
C7 C 0.6583(2) 0.39919(12) 0.4320(2)
H8 H 0.5595 0.4154 0.3893
C8 C 0.7298(2) 0.41595(13) 0.3349(2)
H9 H 0.6788 0.4432 0.2277
C9 C 0.8769(2) 0.39244(13) 0.3962(2)
C10 C 0.9527(2) 0.35321(14) 0.5561(2)
H10 H 1.0520 0.3382 0.5997
C11 C 0.8785(2) 0.33654(14) 0.6509(2)
H11 H 0.9298 0.3095 0.7582
C12 C 1.0872(3) 0.38998(18) 0.3454(3)
H12 H 1.1443 0.4256 0.4474
H13 H 1.1150 0.4084 0.2598
H14 H 1.1050 0.3227 0.3683
O1 O 0.57003(15) 0.38436(10) 0.89236(16)
O2 O 0.68113(14) 0.49809(9) 0.79587(15)
O3 O 0.34442(17) 0.32270(11) 0.76877(19)
O4 O 0.93542(16) 0.40953(11) 0.28725(18)
loop_
_geom_bond_atom_site_label_1
_geom_bond_atom_site_label_2
_geom_bond_site_symmetry_1
_geom_bond_site_symmetry_2
C1 H1 1_555 1_555
C2 C1 1_555 1_555
H2 C2 1_555 1_555
C3 C4 1_555 1_555
C4 C1 1_555 1_555
H3 C4 1_555 1_555
H4 C4 1_555 1_555
C5 H5 1_555 1_555
H6 C5 1_555 1_555
H7 C5 1_555 1_555
C6 C1 1_555 1_555
C7 C6 1_555 1_555
H8 C7 1_555 1_555
C8 C7 1_555 1_555
H9 C8 1_555 1_555
C9 C8 1_555 1_555
C10 C9 1_555 1_555
H10 C10 1_555 1_555
C11 C6 1_555 1_555
H11 C11 1_555 1_555
C12 H12 1_555 1_555
H13 C12 1_555 1_555
H14 C12 1_555 1_555
O1 C2 1_555 1_555
O2 C2 1_555 1_555
O3 C3 1_555 1_555
O4 C9 1_555 1_555
C3 O1 1_555 1_555
C5 O2 1_555 1_555
C10 C11 1_555 1_555
C12 O4 1_555 1_555

#END
