
#######################################################################
#
#                 Cambridge Crystallographic Data Centre
#                                CCDC 
#
#######################################################################
#
# If this CIF has been generated from an entry in the Cambridge 
# Structural Database, then it will include bibliographic, chemical, 
# crystal, experimental, refinement or atomic coordinate data resulting 
# from the CCDC's data processing and validation procedures.
#
#######################################################################

data_CIMTUQ
_chemical_formula_moiety         'C20 H10 Br1 N3 O2,C2 H6 O1 S1'
_chemical_name_systematic        
'[2-(4-bromophenyl)-4-oxo-1,4-dihydro[1]benzopyrano[4,3-b]pyrrol-3-yl]propanedinitrile dimethyl sulfoxide solvate'
_symmetry_cell_setting           monoclinic
_symmetry_space_group_name_H-M   'P 21/n'
_symmetry_Int_Tables_number      14
_space_group_name_Hall           '-P 2yn'
loop_
_symmetry_equiv_pos_site_id
_symmetry_equiv_pos_as_xyz
1 x,y,z
2 1/2-x,1/2+y,1/2-z
3 -x,-y,-z
4 1/2+x,1/2-y,1/2+z
_cell_length_a                   9.6170(6)
_cell_length_b                   11.9859(8)
_cell_length_c                   18.7125(13)
_cell_angle_alpha                90
_cell_angle_beta                 96.864(3)
_cell_angle_gamma                90
_cell_volume                     2141.5
_exptl_crystal_colour            yellow
_exptl_crystal_description       Needle
_cell_formula_units_Z            4
loop_
_atom_site_label
_atom_site_type_symbol
_atom_site_fract_x
_atom_site_fract_y
_atom_site_fract_z
Br1 Br 0.21173(4) 0.41471(3) 0.19591(2)
O1 O 0.62474(18) 1.22897(13) 0.12951(9)
O2 O 0.77029(19) 1.13124(16) 0.20537(10)
N1 N 0.39181(19) 0.94616(16) 0.08859(10)
H1 H 0.3177 0.9313 0.0597
N2 N 0.9193(3) 0.8464(3) 0.18899(18)
N3 N 0.6940(3) 1.0035(2) 0.34952(13)
C1 C 0.2865(3) 0.5564(2) 0.17598(14)
C2 C 0.4291(3) 0.5662(2) 0.17756(14)
H2 H 0.4869 0.5046 0.1879
C3 C 0.4859(2) 0.66889(19) 0.16351(13)
H3 H 0.5822 0.6757 0.1637
C4 C 0.4004(2) 0.76237(18) 0.14909(12)
C5 C 0.4597(2) 0.87248(18) 0.13798(12)
C6 C 0.4601(2) 1.04543(18) 0.09266(12)
C7 C 0.4261(2) 1.14741(19) 0.05436(12)
C8 C 0.5110(3) 1.2381(2) 0.07714(13)
C9 C 0.4847(3) 1.3435(2) 0.04881(15)
H4 H 0.5424 1.4031 0.0645
C10 C 0.3717(3) 1.3592(2) -0.00313(16)
H5 H 0.3511 1.4303 -0.0213
C11 C 0.1982(3) 0.6459(2) 0.16099(16)
H6 H 0.1017 0.6375 0.1595
C12 C 0.2559(2) 0.7490(2) 0.14816(14)
H7 H 0.1973 0.8103 0.1388
C13 C 0.6642(2) 1.12982(19) 0.16296(13)
C14 C 0.5740(2) 1.03705(18) 0.14473(12)
C15 C 0.5742(2) 0.92686(18) 0.17338(12)
C16 C 0.6761(2) 0.8806(2) 0.23389(13)
H8 H 0.6409 0.8077 0.2472
C17 C 0.8156(3) 0.8631(2) 0.20971(15)
C18 C 0.6880(3) 0.9522(2) 0.29852(14)
C19 C 0.2890(3) 1.2695(2) -0.02823(14)
H9 H 0.2152 1.2804 -0.0644
C20 C 0.3154(2) 1.1646(2) -0.00010(13)
H10 H 0.2593 1.1049 -0.0173
S1 S 0.04171(8) 0.84944(7) 0.97435(4)
O3 O 0.1827(2) 0.90422(19) 0.97953(12)
C21 C -0.0457(4) 0.8906(4) 0.88919(19)
H11 H -0.0650 0.9692 0.8898
H12 H -0.1320 0.8502 0.8795
H13 H 0.0129 0.8748 0.8523
C22 C 0.0720(5) 0.7069(3) 0.9555(3)
H14 H 0.1259 0.7018 0.9156
H15 H -0.0161 0.6696 0.9436
H16 H 0.1224 0.6724 0.9970
loop_
_geom_bond_atom_site_label_1
_geom_bond_atom_site_label_2
_geom_bond_site_symmetry_1
_geom_bond_site_symmetry_2
Br1 C1 1_555 1_555
O1 C8 1_555 1_555
O2 C13 1_555 1_555
N1 H1 1_555 1_555
N2 C17 1_555 1_555
N3 C18 1_555 1_555
C1 C2 1_555 1_555
C2 H2 1_555 1_555
C3 C2 1_555 1_555
H3 C3 1_555 1_555
C4 C3 1_555 1_555
C5 N1 1_555 1_555
C6 N1 1_555 1_555
C7 C6 1_555 1_555
C8 C7 1_555 1_555
C9 C8 1_555 1_555
H4 C9 1_555 1_555
C10 C9 1_555 1_555
H5 C10 1_555 1_555
C11 C1 1_555 1_555
H6 C11 1_555 1_555
C12 C4 1_555 1_555
H7 C12 1_555 1_555
C13 O1 1_555 1_555
C14 C6 1_555 1_555
C15 C5 1_555 1_555
C16 C15 1_555 1_555
H8 C16 1_555 1_555
C17 C16 1_555 1_555
C18 C16 1_555 1_555
C19 C10 1_555 1_555
H9 C19 1_555 1_555
C20 C7 1_555 1_555
H10 C20 1_555 1_555
S1 O3 1_555 1_555
C21 S1 1_555 1_555
H11 C21 1_555 1_555
H12 C21 1_555 1_555
H13 C21 1_555 1_555
C22 S1 1_555 1_555
H14 C22 1_555 1_555
H15 C22 1_555 1_555
H16 C22 1_555 1_555
C4 C5 1_555 1_555
C11 C12 1_555 1_555
C13 C14 1_555 1_555
C14 C15 1_555 1_555
C19 C20 1_555 1_555

#END
