
#######################################################################
#
#                 Cambridge Crystallographic Data Centre
#                                CCDC 
#
#######################################################################
#
# If this CIF has been generated from an entry in the Cambridge 
# Structural Database, then it will include bibliographic, chemical, 
# crystal, experimental, refinement or atomic coordinate data resulting 
# from the CCDC's data processing and validation procedures.
#
#######################################################################

data_CIMTUP
_chemical_formula_moiety         'C25 H19 N1 O1'
_chemical_name_systematic        (4-(Diphenylamino)phenyl)(phenyl)methanone
_symmetry_cell_setting           orthorhombic
_symmetry_space_group_name_H-M   'P c a 21'
_symmetry_Int_Tables_number      29
_space_group_name_Hall           'P 2c -2ac'
loop_
_symmetry_equiv_pos_site_id
_symmetry_equiv_pos_as_xyz
1 x,y,z
2 -x,-y,1/2+z
3 1/2+x,-y,z
4 1/2-x,y,1/2+z
_cell_length_a                   16.740(5)
_cell_length_b                   12.432(5)
_cell_length_c                   9.236(3)
_cell_angle_alpha                90
_cell_angle_beta                 90
_cell_angle_gamma                90
_cell_volume                     1922.12
_cell_formula_units_Z            4
loop_
_atom_site_label
_atom_site_type_symbol
_atom_site_fract_x
_atom_site_fract_y
_atom_site_fract_z
N1 N 0.17539(9) -0.04509(12) 0.6834(2)
C1 C 0.18564(11) 0.06113(15) 0.6366(2)
C2 C 0.13321(11) 0.14281(15) 0.6796(2)
H1 H 0.0904 0.1263 0.7397
C3 C 0.20807(12) 0.27514(14) 0.5466(2)
C4 C 0.21744(14) 0.38687(16) 0.4932(3)
C5 C 0.24885(12) 0.08845(14) 0.5456(2)
H2 H 0.2836 0.0354 0.5127
C6 C 0.14415(11) 0.24678(16) 0.6344(2)
H3 H 0.1080 0.2994 0.6632
C7 C 0.24062(13) -0.11950(15) 0.6868(2)
C8 C 0.25993(11) 0.19368(15) 0.5042(2)
H4 H 0.3035 0.2109 0.4461
O1 O 0.15929(10) 0.44412(14) 0.4747(2)
C9 C 0.31093(12) -0.09370(19) 0.7545(3)
H5 H 0.3170 -0.0264 0.7971
C10 C 0.29924(13) 0.42756(17) 0.4602(3)
C11 C 0.23226(16) -0.21926(17) 0.6231(3)
H6 H 0.1852 -0.2374 0.5754
C12 C 0.09754(12) -0.08504(15) 0.7162(3)
C13 C 0.30918(16) 0.49995(18) 0.3479(3)
H7 H 0.2651 0.5215 0.2940
C14 C 0.36490(15) 0.39919(18) 0.5414(3)
H8 H 0.3594 0.3515 0.6183
C15 C 0.03458(13) -0.06500(18) 0.6235(3)
H9 H 0.0424 -0.0246 0.5400
C16 C 0.08557(14) -0.14490(18) 0.8392(3)
H10 H 0.1278 -0.1580 0.9023
C17 C 0.38327(19) 0.5403(2) 0.3150(4)
H11 H 0.3893 0.5875 0.2377
C18 C 0.2950(2) -0.2923(2) 0.6313(4)
H12 H 0.2896 -0.3599 0.5895
C19 C -0.05156(16) -0.1664(2) 0.7790(4)
H13 H -0.1018 -0.1942 0.8004
C20 C 0.43914(17) 0.4416(2) 0.5086(4)
H14 H 0.4833 0.4225 0.5640
C21 C -0.04026(14) -0.1055(2) 0.6558(4)
H15 H -0.0831 -0.0917 0.5944
C22 C 0.01105(16) -0.1854(2) 0.8687(3)
H16 H 0.0033 -0.2266 0.9516
C23 C 0.37275(16) -0.1673(3) 0.7599(3)
H17 H 0.4204 -0.1487 0.8052
C24 C 0.3647(2) -0.2656(3) 0.7000(4)
H18 H 0.4063 -0.3151 0.7054
C25 C 0.4480(2) 0.5112(2) 0.3956(4)
H19 H 0.4982 0.5388 0.3736
loop_
_geom_bond_atom_site_label_1
_geom_bond_atom_site_label_2
_geom_bond_site_symmetry_1
_geom_bond_site_symmetry_2
N1 C1 1_555 1_555
C1 C2 1_555 1_555
C2 H1 1_555 1_555
C3 C4 1_555 1_555
C4 O1 1_555 1_555
C5 C1 1_555 1_555
H2 C5 1_555 1_555
C6 C2 1_555 1_555
H3 C6 1_555 1_555
C7 N1 1_555 1_555
C8 C3 1_555 1_555
H4 C8 1_555 1_555
C9 C7 1_555 1_555
H5 C9 1_555 1_555
C10 C4 1_555 1_555
C11 C7 1_555 1_555
H6 C11 1_555 1_555
C12 N1 1_555 1_555
C13 C10 1_555 1_555
H7 C13 1_555 1_555
C14 C10 1_555 1_555
H8 C14 1_555 1_555
C15 C12 1_555 1_555
H9 C15 1_555 1_555
C16 C12 1_555 1_555
H10 C16 1_555 1_555
C17 C13 1_555 1_555
H11 C17 1_555 1_555
C18 C11 1_555 1_555
H12 C18 1_555 1_555
C19 H13 1_555 1_555
C20 C14 1_555 1_555
H14 C20 1_555 1_555
C21 C15 1_555 1_555
H15 C21 1_555 1_555
C22 C16 1_555 1_555
H16 C22 1_555 1_555
C23 C9 1_555 1_555
H17 C23 1_555 1_555
C24 C18 1_555 1_555
H18 C24 1_555 1_555
C25 C17 1_555 1_555
H19 C25 1_555 1_555
C3 C6 1_555 1_555
C5 C8 1_555 1_555
C19 C21 1_555 1_555
C19 C22 1_555 1_555
C20 C25 1_555 1_555
C23 C24 1_555 1_555

#END
