
#######################################################################
#
#                 Cambridge Crystallographic Data Centre
#                                CCDC 
#
#######################################################################
#
# If this CIF has been generated from an entry in the Cambridge 
# Structural Database, then it will include bibliographic, chemical, 
# crystal, experimental, refinement or atomic coordinate data resulting 
# from the CCDC's data processing and validation procedures.
#
#######################################################################

data_CIMVOL
_chemical_formula_moiety         'C19 H16 N2'
_chemical_name_systematic        
2-Methyl-4-(3-methylphenyl)-9H-pyrido[2,3-b]indole
_symmetry_cell_setting           triclinic
_symmetry_space_group_name_H-M   'P -1'
_symmetry_Int_Tables_number      2
_space_group_name_Hall           '-P 1'
loop_
_symmetry_equiv_pos_site_id
_symmetry_equiv_pos_as_xyz
1 x,y,z
2 -x,-y,-z
_cell_length_a                   4.8242(17)
_cell_length_b                   12.372(4)
_cell_length_c                   12.693(5)
_cell_angle_alpha                104.81(2)
_cell_angle_beta                 95.57(2)
_cell_angle_gamma                90.93(2)
_cell_volume                     728.292
_cell_formula_units_Z            2
loop_
_atom_site_label
_atom_site_type_symbol
_atom_site_fract_x
_atom_site_fract_y
_atom_site_fract_z
N1 N 0.3088(3) 1.00908(11) 0.10514(10)
H1 H 0.2505 1.0493 0.0621
N2 N -0.0030(3) 0.85090(12) 0.02942(10)
C1 C 0.8189(5) 0.45830(19) 0.3070(2)
H2 H 1.0130 0.4751 0.3316
H3 H 0.7961 0.4286 0.2289
H4 H 0.7491 0.4041 0.3412
C2 C 0.6591(4) 0.56387(15) 0.33756(17)
C3 C 0.5349(4) 0.61034(15) 0.25672(15)
H5 H 0.5429 0.5734 0.1835
C4 C 0.3993(3) 0.71048(15) 0.28240(13)
C5 C 0.2732(3) 0.75943(14) 0.19447(12)
C6 C 0.3493(3) 0.86583(14) 0.18650(12)
C7 C 0.5571(3) 0.95238(13) 0.24196(12)
C8 C 0.7696(3) 0.96415(15) 0.32747(13)
H6 H 0.7949 0.9081 0.3639
C9 C 0.9408(4) 1.05892(16) 0.35738(14)
H7 H 1.0820 1.0669 0.4145
C10 C 0.9062(4) 1.14323(15) 0.30356(15)
H8 H 1.0245 1.2068 0.3253
C11 C 0.6362(4) 0.61892(18) 0.44587(17)
H9 H 0.7151 0.5888 0.5013
C12 C 0.4994(4) 0.71692(19) 0.47290(15)
H10 H 0.4849 0.7521 0.5461
C13 C 0.3834(4) 0.76345(17) 0.39213(14)
H11 H 0.2940 0.8307 0.4111
C14 C 0.6992(4) 1.13414(15) 0.21847(14)
H12 H 0.6772 1.1904 0.1822
C15 C 0.5252(3) 1.03887(14) 0.18866(12)
C16 C 0.2036(3) 0.90515(14) 0.10263(12)
C17 C -0.0675(3) 0.74689(15) 0.03612(13)
C18 C -0.2930(4) 0.68247(16) -0.04624(14)
H13 H -0.4689 0.7150 -0.0311
H14 H -0.3003 0.6061 -0.0420
H15 H -0.2547 0.6849 -0.1184
C19 C 0.0663(3) 0.70046(15) 0.11569(13)
H16 H 0.0155 0.6277 0.1161
loop_
_geom_bond_atom_site_label_1
_geom_bond_atom_site_label_2
_geom_bond_site_symmetry_1
_geom_bond_site_symmetry_2
N1 H1 1_555 1_555
N2 C16 1_555 1_555
C1 H2 1_555 1_555
H3 C1 1_555 1_555
H4 C1 1_555 1_555
C2 C1 1_555 1_555
C3 C2 1_555 1_555
H5 C3 1_555 1_555
C4 C3 1_555 1_555
C5 C4 1_555 1_555
C6 C5 1_555 1_555
C7 C6 1_555 1_555
C8 C7 1_555 1_555
H6 C8 1_555 1_555
C9 C8 1_555 1_555
H7 C9 1_555 1_555
C10 C9 1_555 1_555
H8 C10 1_555 1_555
C11 C2 1_555 1_555
H9 C11 1_555 1_555
C12 C11 1_555 1_555
H10 C12 1_555 1_555
C13 C4 1_555 1_555
H11 C13 1_555 1_555
C14 C10 1_555 1_555
H12 C14 1_555 1_555
C15 N1 1_555 1_555
C16 N1 1_555 1_555
C17 N2 1_555 1_555
C18 C17 1_555 1_555
H13 C18 1_555 1_555
H14 C18 1_555 1_555
H15 C18 1_555 1_555
C19 C5 1_555 1_555
H16 C19 1_555 1_555
C6 C16 1_555 1_555
C7 C15 1_555 1_555
C12 C13 1_555 1_555
C14 C15 1_555 1_555
C17 C19 1_555 1_555

#END
