
#######################################################################
#
#                 Cambridge Crystallographic Data Centre
#                                CCDC 
#
#######################################################################
#
# If this CIF has been generated from an entry in the Cambridge 
# Structural Database, then it will include bibliographic, chemical, 
# crystal, experimental, refinement or atomic coordinate data resulting 
# from the CCDC's data processing and validation procedures.
#
#######################################################################

data_CIMWEC
_chemical_formula_moiety         'C23 H28 O5'
_chemical_name_systematic        
2-(3,4-Dimethoxyphenyl)-3-(4-methoxybenzyl)-1,6-dioxaspiro[4.4]nonane
_symmetry_cell_setting           triclinic
_symmetry_space_group_name_H-M   'P -1'
_symmetry_Int_Tables_number      2
_space_group_name_Hall           '-P 1'
loop_
_symmetry_equiv_pos_site_id
_symmetry_equiv_pos_as_xyz
1 x,y,z
2 -x,-y,-z
_cell_length_a                   6.143(14)
_cell_length_b                   8.81(2)
_cell_length_c                   19.64(4)
_cell_angle_alpha                83.80(2)
_cell_angle_beta                 83.37(2)
_cell_angle_gamma                76.77(2)
_cell_volume                     1024.12
_exptl_crystal_colour            colorless
_exptl_crystal_description       block
_cell_formula_units_Z            2
loop_
_atom_site_label
_atom_site_type_symbol
_atom_site_fract_x
_atom_site_fract_y
_atom_site_fract_z
O1 O 1.2545(8) 0.2721(6) 0.0105(2)
C1 C 1.4808(14) 0.2280(11) -0.0123(4)
H1 H 1.5550 0.3097 -0.0062
H2 H 1.4960 0.2101 -0.0601
H3 H 1.5478 0.1336 0.0137
C2 C 1.1408(9) 0.2622(7) 0.4990(3)
H4 H 1.2402 0.3222 0.5127
H5 H 1.2259 0.1569 0.4922
C3 C 0.9496(9) 0.2590(7) 0.5518(3)
H6 H 0.9206 0.3496 0.5782
H7 H 0.9797 0.1650 0.5830
C4 C 0.7539(9) 0.2612(7) 0.5124(3)
H8 H 0.6284 0.3456 0.5250
H9 H 0.7059 0.1629 0.5212
C5 C 0.8402(8) 0.2867(6) 0.4367(3)
C6 C 0.6970(8) 0.4021(5) 0.3890(3)
H10 H 0.7115 0.5080 0.3932
H11 H 0.5402 0.3972 0.3985
C7 C 0.7894(8) 0.3505(4) 0.3180(3)
H12 H 0.6647 0.3635 0.2894
C8 C 0.8910(8) 0.1727(5) 0.3330(3)
H13 H 1.0497 0.1507 0.3151
C9 C 0.7750(7) 0.0656(5) 0.3037(3)
C10 C 0.8366(7) 0.0305(5) 0.2358(3)
H14 H 0.9496 0.0718 0.2100
C11 C 0.7318(8) -0.0646(5) 0.2066(3)
C12 C 0.5599(8) -0.1264(5) 0.2439(3)
C13 C 0.4990(8) -0.0903(5) 0.3111(3)
H15 H 0.3842 -0.1298 0.3368
C14 C 0.6070(8) 0.0039(5) 0.3406(3)
H16 H 0.5653 0.0259 0.3861
C15 C 0.9695(11) -0.0647(8) 0.1017(3)
H17 H 0.9452 0.0471 0.0942
H18 H 0.9931 -0.1090 0.0582
H19 H 1.0994 -0.1043 0.1265
C16 C 0.3157(8) -0.3017(5) 0.2487(3)
H20 H 0.3887 -0.3654 0.2859
H21 H 0.2694 -0.3671 0.2197
H22 H 0.1865 -0.2287 0.2669
C17 C 0.9613(9) 0.4405(5) 0.2818(3)
H23 H 0.8927 0.5514 0.2791
H24 H 1.0869 0.4236 0.3095
C18 C 1.0498(9) 0.3944(5) 0.2100(3)
C19 C 0.9151(10) 0.4424(6) 0.1568(3)
H25 H 0.7728 0.5055 0.1654
C20 C 0.9871(11) 0.3988(7) 0.0906(4)
H26 H 0.8923 0.4288 0.0556
C21 C 1.1987(10) 0.3114(6) 0.0779(3)
C22 C 1.3363(9) 0.2629(6) 0.1295(3)
H27 H 1.4799 0.2021 0.1206
C23 C 1.2591(9) 0.3056(6) 0.1957(3)
H28 H 1.3527 0.2726 0.2309
O2 O 0.8761(6) 0.1448(3) 0.40686(18)
O3 O 1.0459(5) 0.3341(4) 0.43734(18)
O4 O 0.7805(6) -0.1057(4) 0.1400(2)
O5 O 0.4663(6) -0.2191(4) 0.20996(19)
loop_
_geom_bond_atom_site_label_1
_geom_bond_atom_site_label_2
_geom_bond_site_symmetry_1
_geom_bond_site_symmetry_2
O1 C1 1_555 1_555
C1 H1 1_555 1_555
H2 C1 1_555 1_555
H3 C1 1_555 1_555
C2 H4 1_555 1_555
H5 C2 1_555 1_555
C3 C2 1_555 1_555
H6 C3 1_555 1_555
H7 C3 1_555 1_555
C4 C3 1_555 1_555
H8 C4 1_555 1_555
H9 C4 1_555 1_555
C5 C4 1_555 1_555
C6 C5 1_555 1_555
H10 C6 1_555 1_555
H11 C6 1_555 1_555
C7 C6 1_555 1_555
H12 C7 1_555 1_555
C8 C7 1_555 1_555
H13 C8 1_555 1_555
C9 C8 1_555 1_555
C10 C9 1_555 1_555
H14 C10 1_555 1_555
C11 C10 1_555 1_555
C12 C11 1_555 1_555
C13 C12 1_555 1_555
H15 C13 1_555 1_555
C14 C9 1_555 1_555
H16 C14 1_555 1_555
C15 H17 1_555 1_555
H18 C15 1_555 1_555
H19 C15 1_555 1_555
C16 H20 1_555 1_555
H21 C16 1_555 1_555
H22 C16 1_555 1_555
C17 C7 1_555 1_555
H23 C17 1_555 1_555
H24 C17 1_555 1_555
C18 C17 1_555 1_555
C19 C18 1_555 1_555
H25 C19 1_555 1_555
C20 C19 1_555 1_555
H26 C20 1_555 1_555
C21 O1 1_555 1_555
C22 C21 1_555 1_555
H27 C22 1_555 1_555
C23 C18 1_555 1_555
H28 C23 1_555 1_555
O2 C5 1_555 1_555
O3 C2 1_555 1_555
O4 C11 1_555 1_555
O5 C12 1_555 1_555
C5 O3 1_555 1_555
C8 O2 1_555 1_555
C13 C14 1_555 1_555
C15 O4 1_555 1_555
C16 O5 1_555 1_555
C20 C21 1_555 1_555
C22 C23 1_555 1_555

#END
