
#######################################################################
#
#                 Cambridge Crystallographic Data Centre
#                                CCDC 
#
#######################################################################
#
# If this CIF has been generated from an entry in the Cambridge 
# Structural Database, then it will include bibliographic, chemical, 
# crystal, experimental, refinement or atomic coordinate data resulting 
# from the CCDC's data processing and validation procedures.
#
#######################################################################

data_CIMWOM
_chemical_formula_moiety         'C21 H24 O5 S1'
_chemical_name_systematic        
'4-(1,6-Dioxaspiro[4.4]non-3-ylmethyl)phenyl 4-methylbenzenesulfonate'
_symmetry_cell_setting           monoclinic
_symmetry_space_group_name_H-M   'P 21/c'
_symmetry_Int_Tables_number      14
_space_group_name_Hall           '-P 2ybc'
loop_
_symmetry_equiv_pos_site_id
_symmetry_equiv_pos_as_xyz
1 x,y,z
2 -x,1/2+y,1/2-z
3 -x,-y,-z
4 x,1/2-y,1/2+z
_cell_length_a                   11.137(11)
_cell_length_b                   9.246(9)
_cell_length_c                   18.976(18)
_cell_angle_alpha                90
_cell_angle_beta                 90.813(11)
_cell_angle_gamma                90
_cell_volume                     1953.81
_exptl_crystal_colour            colorless
_exptl_crystal_description       block
_cell_formula_units_Z            4
loop_
_atom_site_label
_atom_site_type_symbol
_atom_site_fract_x
_atom_site_fract_y
_atom_site_fract_z
C1 C 0.1915(13) 0.1338(14) 0.5723(6)
H1 H 0.2491 0.1593 0.6091
H2 H 0.1872 0.0292 0.5692
C2 C 0.0792(13) 0.1909(15) 0.5876(6)
H3 H 0.0816 0.2413 0.6324
H4 H 0.0196 0.1146 0.5898
C3 C 0.0500(12) 0.2930(15) 0.5291(6)
H5 H -0.0335 0.2852 0.5143
H6 H 0.0672 0.3922 0.5424
C4 C 0.1315(11) 0.2422(12) 0.4733(5)
C5 C 0.1688(11) 0.3521(11) 0.4183(5)
H7 H 0.1060 0.4234 0.4108
H8 H 0.2418 0.4014 0.4331
C6 C 0.1882(13) 0.2701(11) 0.3553(5)
H9 H 0.2738 0.2463 0.3532
C7 C 0.1196(13) 0.1316(12) 0.3695(6)
H10 H 0.0566 0.1189 0.3342
H11 H 0.1734 0.0493 0.3671
C8 C 0.1525(9) 0.3341(9) 0.2880(4)
H12 H 0.0656 0.3425 0.2866
H13 H 0.1752 0.2686 0.2506
C9 C 0.2047(7) 0.4786(8) 0.2732(4)
C10 C 0.1388(8) 0.6012(10) 0.2860(5)
H14 H 0.0614 0.5920 0.3031
C11 C 0.1828(8) 0.7325(9) 0.2744(4)
H15 H 0.1366 0.8142 0.2831
C12 C 0.2953(7) 0.7457(8) 0.2498(4)
C13 C 0.3626(7) 0.6291(10) 0.2354(4)
H16 H 0.4394 0.6399 0.2175
C14 C 0.3165(8) 0.4943(9) 0.2474(4)
H17 H 0.3624 0.4129 0.2377
C15 C 0.3384(7) 0.8839(8) 0.1026(4)
C16 C 0.2547(8) 0.8025(11) 0.0668(6)
H18 H 0.1755 0.7989 0.0815
C17 C 0.2898(10) 0.7276(13) 0.0096(6)
H19 H 0.2326 0.6760 -0.0163
C18 C 0.4071(10) 0.7251(11) -0.0116(5)
C19 C 0.4833(10) 0.8085(17) 0.0262(6)
H20 H 0.5630 0.8114 0.0123
C20 C 0.4540(8) 0.8858(12) 0.0810(6)
H21 H 0.5113 0.9411 0.1048
C21 C 0.4445(12) 0.6398(15) -0.0746(6)
H22 H 0.4402 0.7000 -0.1158
H23 H 0.3918 0.5584 -0.0807
H24 H 0.5253 0.6062 -0.0677
O1 O 0.2260(7) 0.1910(9) 0.5091(4)
O2 O 0.0721(9) 0.1400(9) 0.4332(4)
O3 O 0.3694(6) 1.1086(7) 0.1819(3)
O4 O 0.1734(5) 0.9888(6) 0.1786(3)
O5 O 0.3447(5) 0.8869(6) 0.2405(3)
S1 S 0.29841(19) 0.9803(2) 0.17633(12)
loop_
_geom_bond_atom_site_label_1
_geom_bond_atom_site_label_2
_geom_bond_site_symmetry_1
_geom_bond_site_symmetry_2
C1 H1 1_555 1_555
H2 C1 1_555 1_555
C2 C1 1_555 1_555
H3 C2 1_555 1_555
H4 C2 1_555 1_555
C3 C2 1_555 1_555
H5 C3 1_555 1_555
H6 C3 1_555 1_555
C4 C3 1_555 1_555
C5 C4 1_555 1_555
H7 C5 1_555 1_555
H8 C5 1_555 1_555
C6 C5 1_555 1_555
H9 C6 1_555 1_555
C7 C6 1_555 1_555
H10 C7 1_555 1_555
H11 C7 1_555 1_555
C8 C6 1_555 1_555
H12 C8 1_555 1_555
H13 C8 1_555 1_555
C9 C8 1_555 1_555
C10 C9 1_555 1_555
H14 C10 1_555 1_555
C11 C10 1_555 1_555
H15 C11 1_555 1_555
C12 C11 1_555 1_555
C13 C12 1_555 1_555
H16 C13 1_555 1_555
C14 C9 1_555 1_555
H17 C14 1_555 1_555
C15 C16 1_555 1_555
C16 H18 1_555 1_555
C17 C16 1_555 1_555
H19 C17 1_555 1_555
C18 C17 1_555 1_555
C19 C18 1_555 1_555
H20 C19 1_555 1_555
C20 C15 1_555 1_555
H21 C20 1_555 1_555
C21 C18 1_555 1_555
H22 C21 1_555 1_555
H23 C21 1_555 1_555
H24 C21 1_555 1_555
O1 C1 1_555 1_555
O2 C4 1_555 1_555
O3 S1 1_555 1_555
O4 S1 1_555 1_555
O5 C12 1_555 1_555
S1 C15 1_555 1_555
C4 O1 1_555 1_555
C7 O2 1_555 1_555
C13 C14 1_555 1_555
C19 C20 1_555 1_555
O5 S1 1_555 1_555

#END
