
#######################################################################
#
#                 Cambridge Crystallographic Data Centre
#                                CCDC 
#
#######################################################################
#
# If this CIF has been generated from an entry in the Cambridge 
# Structural Database, then it will include bibliographic, chemical, 
# crystal, experimental, refinement or atomic coordinate data resulting 
# from the CCDC's data processing and validation procedures.
#
#######################################################################

data_CIMWIG
_chemical_formula_moiety         'C21 H24 O5 S1'
_chemical_name_systematic        
'4-(1,6-Dioxaspiro[4.4]non-3-ylmethyl)phenyl 4-methylbenzenesulfonate'
_symmetry_cell_setting           monoclinic
_symmetry_space_group_name_H-M   'P 21/c'
_symmetry_Int_Tables_number      14
_space_group_name_Hall           '-P 2ybc'
loop_
_symmetry_equiv_pos_site_id
_symmetry_equiv_pos_as_xyz
1 x,y,z
2 -x,1/2+y,1/2-z
3 -x,-y,-z
4 x,1/2-y,1/2+z
_cell_length_a                   11.215(18)
_cell_length_b                   9.284(15)
_cell_length_c                   19.41(3)
_cell_angle_alpha                90
_cell_angle_beta                 90.341(19)
_cell_angle_gamma                90
_cell_volume                     2020.93
_exptl_crystal_colour            colorless
_exptl_crystal_description       block
_cell_formula_units_Z            4
loop_
_atom_site_label
_atom_site_type_symbol
_atom_site_fract_x
_atom_site_fract_y
_atom_site_fract_z
C1 C 0.4413(9) 1.1297(11) -0.0790(4)
H1 H 0.4193 1.0309 -0.0719
H2 H 0.5260 1.1362 -0.0850
H3 H 0.4016 1.1659 -0.1194
C2 C 0.4049(8) 1.2182(9) -0.0170(4)
C3 C 0.2875(8) 1.2210(10) 0.0066(4)
H4 H 0.2297 1.1677 -0.0166
C4 C 0.2550(6) 1.3015(9) 0.0638(5)
H5 H 0.1763 1.3025 0.0786
C5 C 0.3413(6) 1.3804(7) 0.0986(3)
C6 C 0.4559(7) 1.3789(10) 0.0770(5)
H6 H 0.5134 1.4319 0.1006
C7 C 0.4874(8) 1.2993(12) 0.0202(5)
H7 H 0.5665 1.2998 0.0061
C8 C 0.3024(6) 1.2488(8) 0.2449(3)
C9 C 0.3715(6) 1.1311(9) 0.2307(4)
H8 H 0.4470 1.1416 0.2118
C10 C 0.3266(7) 0.9977(9) 0.2451(3)
H9 H 0.3746 0.9180 0.2367
C11 C 0.2149(7) 0.9748(8) 0.2711(3)
C12 C 0.1475(7) 1.0967(10) 0.2837(4)
H10 H 0.0707 1.0853 0.3007
C13 C 0.1883(7) 1.2320(9) 0.2725(4)
H11 H 0.1415 1.3118 0.2828
C14 C 0.1698(7) 0.8278(8) 0.2849(4)
H12 H 0.1084 0.8067 0.2510
H13 H 0.2347 0.7607 0.2771
C15 C 0.1223(11) 0.7992(10) 0.3508(5)
H14 H 0.0474 0.8536 0.3503
C16 C 0.0813(9) 0.6478(10) 0.3670(5)
H15 H 0.0134 0.6217 0.3384
H16 H 0.1450 0.5792 0.3591
C17 C 0.1764(9) 0.8426(10) 0.4162(4)
H17 H 0.1564 0.9419 0.4264
H18 H 0.2625 0.8343 0.4137
C18 C 0.1292(8) 0.7456(8) 0.4707(3)
C19 C 0.0553(10) 0.8003(12) 0.5249(5)
H19 H -0.0270 0.8067 0.5096
H20 H 0.0818 0.8954 0.5389
C20 C 0.0667(10) 0.6981(11) 0.5825(5)
H21 H 0.0678 0.7488 0.6261
H22 H 0.0005 0.6308 0.5824
C21 C 0.1737(10) 0.6258(12) 0.5725(5)
H23 H 0.1614 0.5224 0.5740
H24 H 0.2311 0.6519 0.6079
O1 O 0.3499(4) 1.3872(5) 0.2344(2)
O2 O 0.1738(4) 1.4893(5) 0.1755(3)
O3 O 0.3711(4) 1.6085(5) 0.1753(3)
O4 O 0.0484(6) 0.6497(7) 0.4392(3)
O5 O 0.2153(6) 0.6681(7) 0.5066(4)
S1 S 0.30123(17) 1.4815(2) 0.17112(10)
loop_
_geom_bond_atom_site_label_1
_geom_bond_atom_site_label_2
_geom_bond_site_symmetry_1
_geom_bond_site_symmetry_2
C1 H1 1_555 1_555
H2 C1 1_555 1_555
H3 C1 1_555 1_555
C2 C1 1_555 1_555
C3 C2 1_555 1_555
H4 C3 1_555 1_555
C4 C3 1_555 1_555
H5 C4 1_555 1_555
C5 C4 1_555 1_555
C6 C5 1_555 1_555
H6 C6 1_555 1_555
C7 C2 1_555 1_555
H7 C7 1_555 1_555
C8 C9 1_555 1_555
C9 H8 1_555 1_555
C10 C9 1_555 1_555
H9 C10 1_555 1_555
C11 C10 1_555 1_555
C12 C11 1_555 1_555
H10 C12 1_555 1_555
C13 C8 1_555 1_555
H11 C13 1_555 1_555
C14 C11 1_555 1_555
H12 C14 1_555 1_555
H13 C14 1_555 1_555
C15 C14 1_555 1_555
H14 C15 1_555 1_555
C16 C15 1_555 1_555
H15 C16 1_555 1_555
H16 C16 1_555 1_555
C17 C15 1_555 1_555
H17 C17 1_555 1_555
H18 C17 1_555 1_555
C18 C17 1_555 1_555
C19 C18 1_555 1_555
H19 C19 1_555 1_555
H20 C19 1_555 1_555
C20 C19 1_555 1_555
H21 C20 1_555 1_555
H22 C20 1_555 1_555
C21 C20 1_555 1_555
H23 C21 1_555 1_555
H24 C21 1_555 1_555
O1 C8 1_555 1_555
O2 S1 1_555 1_555
O3 S1 1_555 1_555
O4 C16 1_555 1_555
O5 C18 1_555 1_555
S1 C5 1_555 1_555
C6 C7 1_555 1_555
C12 C13 1_555 1_555
C18 O4 1_555 1_555
C21 O5 1_555 1_555
O1 S1 1_555 1_555

#END
