
#######################################################################
#
#                 Cambridge Crystallographic Data Centre
#                                CCDC 
#
#######################################################################
#
# If this CIF has been generated from an entry in the Cambridge 
# Structural Database, then it will include bibliographic, chemical, 
# crystal, experimental, refinement or atomic coordinate data resulting 
# from the CCDC's data processing and validation procedures.
#
#######################################################################

data_CIMYIG
_chemical_formula_moiety         'C18 H28 N2 2+,2(I1 1-),C4 H10 O2'
_chemical_name_systematic        
"N,N'-(1,3-Azulenylene-bis(methylene))-bis(trimethylammonium) di-iodide 1,4-butanediol clathrate"
_symmetry_cell_setting           monoclinic
_symmetry_space_group_name_H-M   'P 21/m'
_symmetry_Int_Tables_number      11
_space_group_name_Hall           '-P 2yb'
loop_
_symmetry_equiv_pos_site_id
_symmetry_equiv_pos_as_xyz
1 x,y,z
2 -x,1/2+y,-z
3 -x,-y,-z
4 x,1/2-y,z
_cell_length_a                   7.851(2)
_cell_length_b                   17.500(3)
_cell_length_c                   9.700(1)
_cell_angle_alpha                90
_cell_angle_beta                 96.50(1)
_cell_angle_gamma                90
_cell_volume                     1324.14
_exptl_crystal_colour            violet
_cell_formula_units_Z            2
loop_
_atom_site_label
_atom_site_type_symbol
_atom_site_fract_x
_atom_site_fract_y
_atom_site_fract_z
I1 I 0.80673(6) -0.06218(3) 0.76189(5)
N1 N 0.3020(6) 0.0673(3) 0.7006(5)
C1 C 0.4913(7) 0.1842(4) 0.6720(5)
C2 C 0.4130(9) 0.25000 0.6136(8)
C3 C 0.9429(11) 0.25000 0.9842(10)
C4 C 0.8838(8) 0.1788(5) 0.9422(7)
C5 C 0.7451(7) 0.1593(4) 0.8468(6)
C6 C 0.6290(6) 0.2077(3) 0.7696(5)
C7 C 0.4471(7) 0.1040(4) 0.6299(6)
C8 C 0.3437(11) 0.0642(6) 0.8525(7)
C9 C 0.1384(8) 0.1126(4) 0.6628(9)
C10 C 0.2790(9) -0.0116(4) 0.6443(8)
H1 H 0.3033 0.25000 0.5380
H2 H 1.0514 0.25000 1.0582
H3 H 0.9556 0.1312 0.9901
H4 H 0.7242 0.0988 0.8302
H5 H 0.4094 0.1036 0.5193
H6 H 0.5606 0.0695 0.6535
H7 H 0.3624 0.1214 0.8928
H8 H 0.4596 0.0314 0.8777
H9 H 0.2396 0.0373 0.8981
H10 H 0.1551 0.1700 0.7029
H11 H 0.0340 0.0853 0.7073
H12 H 0.1097 0.1146 0.5513
H13 H 0.2455 -0.0090 0.5330
H14 H 0.1719 -0.0385 0.6897
H15 H 0.3919 -0.0444 0.6694
C1C C 0.4913(7) 0.3158(4) 0.6720(5)
C6C C 0.6290(6) 0.2923(3) 0.7696(5)
C4C C 0.8838(8) 0.3212(5) 0.9422(7)
C7C C 0.4471(7) 0.3960(4) 0.6299(6)
C5C C 0.7451(7) 0.3407(4) 0.8468(6)
H3C H 0.9556 0.3688 0.9901
N1C N 0.3020(6) 0.4327(3) 0.7006(5)
H5C H 0.4094 0.3964 0.5193
H6C H 0.5606 0.4305 0.6535
H4C H 0.7242 0.4012 0.8302
C8C C 0.3437(11) 0.4358(6) 0.8525(7)
C9C C 0.1384(8) 0.3874(4) 0.6628(9)
C10C C 0.2790(9) 0.5116(4) 0.6443(8)
H7C H 0.3624 0.3786 0.8928
H8C H 0.4596 0.4686 0.8777
H9C H 0.2396 0.4627 0.8981
H10C H 0.1551 0.3300 0.7029
H11C H 0.0340 0.4147 0.7073
H12C H 0.1097 0.3854 0.5513
H13C H 0.2455 0.5090 0.5330
H14C H 0.1719 0.5385 0.6897
H15C H 0.3919 0.5444 0.6694
C11 C 0.8512(22) 0.25000 0.4097(22)
C12 C 0.7297(24) 0.25000 0.3178(20)
C13 C 0.5893(27) 0.25000 0.2550(24)
C14 C 0.4838(29) 0.25000 0.1488(19)
O1 O 1.0024(18) 0.25000 0.4375(14)
O2 O 0.3955(26) 0.25000 0.0599(17)
loop_
_geom_bond_atom_site_label_1
_geom_bond_atom_site_label_2
_geom_bond_site_symmetry_1
_geom_bond_site_symmetry_2
N1 C7 1_555 1_555
C1 C2 1_555 1_555
C2 H1 1_555 1_555
C3 C4 1_555 1_555
C4 C5 1_555 1_555
C5 C6 1_555 1_555
C6 C1 1_555 1_555
C7 C1 1_555 1_555
C8 N1 1_555 1_555
C9 N1 1_555 1_555
C10 N1 1_555 1_555
H2 C3 1_555 1_555
H3 C4 1_555 1_555
H4 C5 1_555 1_555
H5 C7 1_555 1_555
H6 C7 1_555 1_555
H7 C8 1_555 1_555
H8 C8 1_555 1_555
H9 C8 1_555 1_555
H10 C9 1_555 1_555
H11 C9 1_555 1_555
H12 C9 1_555 1_555
H13 C10 1_555 1_555
H14 C10 1_555 1_555
H15 C10 1_555 1_555
C11 C12 1_555 1_555
C12 C13 1_555 1_555
C13 C14 1_555 1_555
C14 O2 1_555 1_555
O1 C11 1_555 1_555
C1C C2 1_555 1_555
C6C C6 1_555 1_555
C4C C3 1_555 1_555
C7C C1C 1_555 1_555
C5C C6C 1_555 1_555
H3C C4C 1_555 1_555
N1C C7C 1_555 1_555
H5C C7C 1_555 1_555
H6C C7C 1_555 1_555
H4C C5C 1_555 1_555
C8C N1C 1_555 1_555
C9C N1C 1_555 1_555
C10C N1C 1_555 1_555
H7C C8C 1_555 1_555
H8C C8C 1_555 1_555
H9C C8C 1_555 1_555
H10C C9C 1_555 1_555
H11C C9C 1_555 1_555
H12C C9C 1_555 1_555
H13C C10C 1_555 1_555
H14C C10C 1_555 1_555
H15C C10C 1_555 1_555
C1C C6C 1_555 1_555
C4C C5C 1_555 1_555

#END
