
#######################################################################
#
#                 Cambridge Crystallographic Data Centre
#                                CCDC 
#
#######################################################################
#
# If this CIF has been generated from an entry in the Cambridge 
# Structural Database, then it will include bibliographic, chemical, 
# crystal, experimental, refinement or atomic coordinate data resulting 
# from the CCDC's data processing and validation procedures.
#
#######################################################################

data_CIMZON03
_chemical_formula_moiety         'C10 H8 S8'
_chemical_name_systematic        bis(Ethylenedithio)tetrathiafulvalene
_symmetry_cell_setting           monoclinic
_symmetry_space_group_name_H-M   'P 21/c'
_symmetry_Int_Tables_number      14
_space_group_name_Hall           '-P 2ybc'
loop_
_symmetry_equiv_pos_site_id
_symmetry_equiv_pos_as_xyz
1 x,y,z
2 -x,1/2+y,1/2-z
3 -x,-y,-z
4 x,1/2-y,1/2+z
_cell_length_a                   6.65830(10)
_cell_length_b                   13.733(2)
_cell_length_c                   17.4140(10)
_cell_angle_alpha                90
_cell_angle_beta                 116.570(10)
_cell_angle_gamma                90
_cell_volume                     1424.14
_exptl_crystal_colour            orange
_exptl_crystal_description       needles
_cell_formula_units_Z            4
loop_
_atom_site_label
_atom_site_type_symbol
_atom_site_fract_x
_atom_site_fract_y
_atom_site_fract_z
S1 S 0.21293(8) 0.85826(4) 0.04260(3)
S2 S 0.14782(9) 0.69753(4) -0.08621(3)
S3 S 0.30107(8) 0.98716(4) 0.21250(3)
S4 S -0.39553(9) 0.72435(4) -0.15221(3)
S5 S -0.27815(8) 0.88339(4) -0.02020(3)
S6 S -0.18790(8) 1.00502(4) 0.15326(3)
S7 S 0.42843(9) 1.05090(4) 0.39193(3)
S8 S -0.16013(9) 1.06906(4) 0.31922(4)
C1 C 0.0339(3) 0.77851(14) -0.03902(13)
C2 C 0.0304(3) 0.95583(15) 0.13432(13)
C3 C -0.1892(3) 0.79056(14) -0.06840(13)
C4 C -0.0116(3) 1.02797(14) 0.26384(13)
C5 C -0.0068(3) 0.90362(14) 0.06337(13)
C6 C 0.0651(3) 1.07854(16) 0.42725(13)
H1 H 0.0105 1.1155 0.4630
H2 H 0.1060 1.0124 0.4519
C7 C 0.2119(3) 1.02056(14) 0.29065(13)
C8 C 0.2736(4) 1.12825(15) 0.43150(14)
H3 H 0.3728 1.1466 0.4917
H4 H 0.2289 1.1887 0.3970
C9 C -0.0312(4) 0.73258(16) -0.19720(13)
H5 H -0.0140 0.8034 -0.2030
H6 H 0.0225 0.6987 -0.2347
C10 C -0.2788(4) 0.71025(18) -0.22912(14)
H7 H -0.3051 0.6423 -0.2503
H8 H -0.3649 0.7530 -0.2789
loop_
_geom_bond_atom_site_label_1
_geom_bond_atom_site_label_2
_geom_bond_site_symmetry_1
_geom_bond_site_symmetry_2
S1 C1 1_555 1_555
S2 C1 1_555 1_555
S3 C2 1_555 1_555
S4 C3 1_555 1_555
S5 C3 1_555 1_555
S6 C2 1_555 1_555
S7 C7 1_555 1_555
S8 C4 1_555 1_555
C1 C3 1_555 1_555
C2 C5 1_555 1_555
C4 S6 1_555 1_555
C5 S1 1_555 1_555
C6 S8 1_555 1_555
H1 C6 1_555 1_555
H2 C6 1_555 1_555
C7 S3 1_555 1_555
C8 S7 1_555 1_555
H3 C8 1_555 1_555
H4 C8 1_555 1_555
C9 S2 1_555 1_555
H5 C9 1_555 1_555
H6 C9 1_555 1_555
C10 S4 1_555 1_555
H7 C10 1_555 1_555
H8 C10 1_555 1_555
S5 C5 1_555 1_555
C4 C7 1_555 1_555
C6 C8 1_555 1_555
C9 C10 1_555 1_555

#END
