
#######################################################################
#
#                 Cambridge Crystallographic Data Centre
#                                CCDC 
#
#######################################################################
#
# If this CIF has been generated from an entry in the Cambridge 
# Structural Database, then it will include bibliographic, chemical, 
# crystal, experimental, refinement or atomic coordinate data resulting 
# from the CCDC's data processing and validation procedures.
#
#######################################################################

data_CINFAJ
_chemical_formula_moiety         'C6 H8 O2'
_chemical_name_systematic        2-hydroxy-3-methylcyclopent-2-en-1-one
_symmetry_cell_setting           triclinic
_symmetry_space_group_name_H-M   'P -1'
_symmetry_Int_Tables_number      2
_space_group_name_Hall           '-P 1'
loop_
_symmetry_equiv_pos_site_id
_symmetry_equiv_pos_as_xyz
1 x,y,z
2 -x,-y,-z
_cell_length_a                   6.4498(16)
_cell_length_b                   7.3336(18)
_cell_length_c                   7.3707(18)
_cell_angle_alpha                110.667(4)
_cell_angle_beta                 108.672(4)
_cell_angle_gamma                103.791(5)
_cell_volume                     283.714
_exptl_crystal_colour            colorless
_exptl_crystal_description       needle
_cell_formula_units_Z            2
loop_
_atom_site_label
_atom_site_type_symbol
_atom_site_fract_x
_atom_site_fract_y
_atom_site_fract_z
C1 C -0.2592(2) 0.0531(2) 0.8256(2)
C2 C -0.0915(2) 0.22570(19) 1.04110(19)
C3 C 0.1171(2) 0.3215(2) 1.0456(2)
C4 C 0.1101(2) 0.2218(2) 0.8262(2)
H1 H 0.2358 0.1654 0.8323
H2 H 0.1335 0.3267 0.7714
C5 C -0.1383(2) 0.0415(2) 0.6805(2)
H3 H -0.2272 0.0624 0.5577
H4 H -0.1263 -0.0976 0.6228
C6 C 0.3320(2) 0.5005(2) 1.2364(2)
H5 H 0.2923 0.5573 1.3566
H6 H 0.3876 0.6124 1.1991
H7 H 0.4581 0.4500 1.2795
O1 O -0.46379(16) -0.06067(15) 0.77334(15)
O2 O -0.14518(18) 0.28036(16) 1.21073(15)
H8 H -0.280(4) 0.191(3) 1.179(3)
loop_
_geom_bond_atom_site_label_1
_geom_bond_atom_site_label_2
_geom_bond_site_symmetry_1
_geom_bond_site_symmetry_2
C1 C2 1_555 1_555
C2 C3 1_555 1_555
C3 C4 1_555 1_555
C4 H1 1_555 1_555
H2 C4 1_555 1_555
C5 C1 1_555 1_555
H3 C5 1_555 1_555
H4 C5 1_555 1_555
C6 C3 1_555 1_555
H5 C6 1_555 1_555
H6 C6 1_555 1_555
H7 C6 1_555 1_555
O1 C1 1_555 1_555
O2 C2 1_555 1_555
H8 O2 1_555 1_555
C4 C5 1_555 1_555

#END
