
#######################################################################
#
#                 Cambridge Crystallographic Data Centre
#                                CCDC 
#
#######################################################################
#
# If this CIF has been generated from an entry in the Cambridge 
# Structural Database, then it will include bibliographic, chemical, 
# crystal, experimental, refinement or atomic coordinate data resulting 
# from the CCDC's data processing and validation procedures.
#
#######################################################################

data_CINGOV
_chemical_formula_moiety         'C42 H36'
_chemical_name_systematic        1,1,1,6,6,6-Hexaphenyl-hex-3-ene
_symmetry_cell_setting           monoclinic
_symmetry_space_group_name_H-M   'P 21/n'
_symmetry_Int_Tables_number      14
_space_group_name_Hall           '-P 2yn'
loop_
_symmetry_equiv_pos_site_id
_symmetry_equiv_pos_as_xyz
1 x,y,z
2 1/2-x,1/2+y,1/2-z
3 -x,-y,-z
4 1/2+x,1/2-y,1/2+z
_cell_length_a                   12.250(6)
_cell_length_b                   14.148(8)
_cell_length_c                   9.400(4)
_cell_angle_alpha                90
_cell_angle_beta                 110.67(3)
_cell_angle_gamma                90
_cell_volume                     1524.27
_cell_formula_units_Z            2
loop_
_atom_site_label
_atom_site_type_symbol
_atom_site_fract_x
_atom_site_fract_y
_atom_site_fract_z
C1 C 0.1421 0.1520 0.7395
C2 C 0.0250 0.1118 0.6291
C3 C 0.0287 0.0098 0.5745
C4 C 0.2323 0.1672 0.6605
C5 C 0.2021 0.1660 0.5039
C6 C 0.2858 0.1849 0.4377
C7 C 0.3974 0.2058 0.5259
C8 C 0.4290 0.2068 0.6801
C9 C 0.3470 0.1878 0.7458
C10 C 0.1209 0.2513 0.7950
C11 C 0.0297 0.3078 0.7114
C12 C 0.0152 0.3978 0.7581
C13 C 0.0916 0.4338 0.8912
C14 C 0.1835 0.3796 0.9747
C15 C 0.1978 0.2887 0.9295
C16 C 0.1842 0.0812 0.8719
C17 C 0.1352 0.0820 0.9842
C18 C 0.1650 0.0125 1.0958
C19 C 0.2419 -0.0586 1.0969
C20 C 0.2890 -0.0604 0.9853
C21 C 0.2618 0.0099 0.8743
H1 H -0.005 0.156 0.543
H2 H -0.032 0.117 0.684
H3 H 0.118 0.150 0.438
H4 H 0.267 0.182 0.326
H5 H 0.453 0.219 0.479
H6 H 0.512 0.215 0.745
H7 H 0.374 0.180 0.853
H8 H -0.035 0.285 0.601
H9 H -0.040 0.439 0.695
H10 H 0.082 0.498 0.927
H11 H 0.238 0.398 1.067
H12 H 0.260 0.247 0.994
H13 H 0.067 0.127 0.979
H14 H 0.122 0.015 1.156
H15 H 0.258 -0.107 1.1174
H16 H 0.346 -0.111 0.979
H17 H 0.293 0.006 0.799
C3B C -0.0287 -0.0098 0.4255
C2B C -0.0250 -0.1118 0.3709
C1B C -0.1421 -0.1520 0.2605
H1B H 0.005 -0.156 0.457
H2B H 0.032 -0.117 0.316
C4B C -0.2323 -0.1672 0.3395
C10B C -0.1209 -0.2513 0.2050
C16B C -0.1842 -0.0812 0.1281
C5B C -0.2021 -0.1660 0.4961
C9B C -0.3470 -0.1878 0.2542
C11B C -0.0297 -0.3078 0.2886
C15B C -0.1978 -0.2887 0.0705
C17B C -0.1352 -0.0820 0.0158
C21B C -0.2618 -0.0099 0.1257
C6B C -0.2858 -0.1849 0.5623
H3B H -0.118 -0.150 0.562
C8B C -0.4290 -0.2068 0.3199
H7B H -0.374 -0.180 0.147
C12B C -0.0152 -0.3978 0.2419
H8B H 0.035 -0.285 0.399
C14B C -0.1835 -0.3796 0.0253
H12B H -0.260 -0.247 0.006
C18B C -0.1650 -0.0125 -0.0958
H13B H -0.067 -0.127 0.021
C20B C -0.2890 0.0604 0.0147
H17B H -0.293 -0.006 0.201
C7B C -0.3974 -0.2058 0.4741
H4B H -0.267 -0.182 0.674
H6B H -0.512 -0.215 0.255
C13B C -0.0916 -0.4338 0.1088
H9B H 0.040 -0.439 0.305
H11B H -0.238 -0.398 -0.067
C19B C -0.2419 0.0586 -0.0969
H14B H -0.122 -0.015 -0.156
H16B H -0.346 0.111 0.021
H5B H -0.453 -0.219 0.521
H10B H -0.082 -0.498 0.073
H15B H -0.258 0.107 -0.1174
loop_
_geom_bond_atom_site_label_1
_geom_bond_atom_site_label_2
_geom_bond_site_symmetry_1
_geom_bond_site_symmetry_2
C1 C2 1_555 1_555
C2 C3 1_555 1_555
C3 C3B 1_555 1_555
C4 C1 1_555 1_555
C5 C4 1_555 1_555
C6 C5 1_555 1_555
C7 C6 1_555 1_555
C8 C7 1_555 1_555
C9 C4 1_555 1_555
C10 C1 1_555 1_555
C11 C10 1_555 1_555
C12 C11 1_555 1_555
C13 C12 1_555 1_555
C14 C13 1_555 1_555
C15 C10 1_555 1_555
C16 C1 1_555 1_555
C17 C16 1_555 1_555
C18 C17 1_555 1_555
C19 C18 1_555 1_555
C20 C19 1_555 1_555
C21 C16 1_555 1_555
H1 C2 1_555 1_555
H2 C2 1_555 1_555
H3 C5 1_555 1_555
H4 C6 1_555 1_555
H5 C7 1_555 1_555
H6 C8 1_555 1_555
H7 C9 1_555 1_555
H8 C11 1_555 1_555
H9 C12 1_555 1_555
H10 C13 1_555 1_555
H11 C14 1_555 1_555
H12 C15 1_555 1_555
H13 C17 1_555 1_555
H14 C18 1_555 1_555
H15 C19 1_555 1_555
H16 C20 1_555 1_555
H17 C21 1_555 1_555
C3B C2B 1_555 1_555
C2B C1B 1_555 1_555
C1B C4B 1_555 1_555
H1B C2B 1_555 1_555
H2B C2B 1_555 1_555
C4B C5B 1_555 1_555
C10B C1B 1_555 1_555
C16B C1B 1_555 1_555
C5B C6B 1_555 1_555
C9B C4B 1_555 1_555
C11B C10B 1_555 1_555
C15B C10B 1_555 1_555
C17B C16B 1_555 1_555
C21B C16B 1_555 1_555
C6B C7B 1_555 1_555
H3B C5B 1_555 1_555
C8B C9B 1_555 1_555
H7B C9B 1_555 1_555
C12B C11B 1_555 1_555
H8B C11B 1_555 1_555
C14B C15B 1_555 1_555
H12B C15B 1_555 1_555
C18B C17B 1_555 1_555
H13B C17B 1_555 1_555
C20B C21B 1_555 1_555
H17B C21B 1_555 1_555
C7B C8B 1_555 1_555
H4B C6B 1_555 1_555
H6B C8B 1_555 1_555
C13B C12B 1_555 1_555
H9B C12B 1_555 1_555
H11B C14B 1_555 1_555
C19B C18B 1_555 1_555
H14B C18B 1_555 1_555
H16B C20B 1_555 1_555
H5B C7B 1_555 1_555
H10B C13B 1_555 1_555
H15B C19B 1_555 1_555
C8 C9 1_555 1_555
C14 C15 1_555 1_555
C20 C21 1_555 1_555
C14B C13B 1_555 1_555
C20B C19B 1_555 1_555

#END
