
#######################################################################
#
#                 Cambridge Crystallographic Data Centre
#                                CCDC 
#
#######################################################################
#
# If this CIF has been generated from an entry in the Cambridge 
# Structural Database, then it will include bibliographic, chemical, 
# crystal, experimental, refinement or atomic coordinate data resulting 
# from the CCDC's data processing and validation procedures.
#
#######################################################################

data_CINGIR
_chemical_formula_moiety         'C18 H22 N2 O3 S1,H2 O1,C1 H4 O1'
_chemical_name_systematic        
'3-(4-(2-(4-(dimethylamino)phenyl)vinyl)pyridinium-1-yl)propane-1-sulfonate methanol solvate monohydrate'
_symmetry_cell_setting           monoclinic
_symmetry_space_group_name_H-M   'C 2/c'
_symmetry_Int_Tables_number      15
_space_group_name_Hall           '-C 2yn'
loop_
_symmetry_equiv_pos_site_id
_symmetry_equiv_pos_as_xyz
1 x,y,z
2 -x,y,1/2-z
3 1/2+x,1/2+y,z
4 1/2-x,1/2+y,1/2-z
5 -x,-y,-z
6 x,-y,1/2+z
7 1/2-x,1/2-y,-z
8 1/2+x,1/2-y,1/2+z
_cell_length_a                   22.574(5)
_cell_length_b                   15.523(5)
_cell_length_c                   16.000(5)
_cell_angle_alpha                90
_cell_angle_beta                 130.290(5)
_cell_angle_gamma                90
_cell_volume                     4276.65
_cell_formula_units_Z            8
loop_
_atom_site_label
_atom_site_type_symbol
_atom_site_fract_x
_atom_site_fract_y
_atom_site_fract_z
S1 S 0.44780(12) 0.14290(14) 0.52958(19)
C1 C 1.2621(3) 0.1450(3) 1.0741(4)
N1 N 1.3383(3) 0.1562(3) 1.1158(4)
C2 C 1.1531(3) 0.1872(3) 1.0643(5)
H1 H 1.1339 0.2232 1.0883
C3 C 1.2129(3) 0.0796(3) 0.9939(4)
H2 H 1.2325 0.0436 0.9704
C4 C 1.1034(3) 0.1225(4) 0.9839(4)
N2 N 0.7416(3) 0.0414(4) 0.7797(4)
C5 C 1.1363(3) 0.0689(4) 0.9505(4)
H3 H 1.1060 0.0259 0.8988
C6 C 1.0229(3) 0.1160(4) 0.9431(5)
H4 H 1.0086 0.1567 0.9701
C7 C 0.8895(3) 0.0573(4) 0.8397(5)
C8 C 0.6648(3) 0.0316(4) 0.7546(6)
H5 H 0.6720 0.0451 0.8198
H6 H 0.6478 -0.0278 0.7351
O1 O 0.3794(3) 0.1169(4) 0.5151(5)
C9 C 1.2298(3) 0.1975(3) 1.1073(5)
H7 H 1.2603 0.2401 1.1594
C10 C 0.9685(3) 0.0587(4) 0.8724(5)
H8 H 0.9801 0.0181 0.8421
C11 C 0.7902(4) 0.1076(5) 0.8473(6)
H9 H 0.7744 0.1472 0.8731
C12 C 0.6021(3) 0.0904(4) 0.6612(5)
H10 H 0.6176 0.1501 0.6814
H11 H 0.5956 0.0784 0.5961
C13 C 0.8630(4) 0.1151(4) 0.8770(6)
H12 H 0.8954 0.1599 0.9230
C14 C 0.8365(3) -0.0097(4) 0.7672(5)
H13 H 0.8501 -0.0490 0.7383
C15 C 0.5257(3) 0.0751(4) 0.6372(5)
H14 H 0.5335 0.0853 0.7035
H15 H 0.5107 0.0152 0.6166
C16 C 0.7654(3) -0.0149(4) 0.7412(5)
H16 H 0.7318 -0.0590 0.6950
C17 C 1.3706(4) 0.1060(4) 1.0753(6)
H17 H 1.3916 0.0528 1.1152
H18 H 1.4111 0.1385 1.0856
H19 H 1.3303 0.0939 0.9988
C18 C 1.3888(3) 0.2237(4) 1.1992(5)
H20 H 1.3684 0.2796 1.1672
H21 H 1.4404 0.2184 1.2242
H22 H 1.3901 0.2167 1.2600
O2 O 0.4380(5) 0.1260(5) 0.4328(5)
O3 O 0.4727(3) 0.2306(4) 0.5694(6)
O4 O 0.6792(11) 0.2137(13) 0.9045(18)
H23 H 0.6598 0.2189 0.9334
C19 C 0.7270(17) 0.319(3) 0.916(3)
H24 H 0.7530 0.3119 0.8875
H25 H 0.7639 0.3361 0.9919
H26 H 0.6880 0.3632 0.8754
O5 O 0.5630(13) 0.3314(12) 0.7601(19)
H27? H 0.559(4) 0.350(4) 0.730(5)
H28? H 0.5000 0.346(7) 0.7500
loop_
_geom_bond_atom_site_label_1
_geom_bond_atom_site_label_2
_geom_bond_site_symmetry_1
_geom_bond_site_symmetry_2
S1 O1 1_555 1_555
C1 N1 1_555 1_555
N1 C17 1_555 1_555
C2 H1 1_555 1_555
C3 C1 1_555 1_555
H2 C3 1_555 1_555
C4 C2 1_555 1_555
N2 C8 1_555 1_555
C5 C3 1_555 1_555
H3 C5 1_555 1_555
C6 C4 1_555 1_555
H4 C6 1_555 1_555
C7 C10 1_555 1_555
C8 H5 1_555 1_555
H6 C8 1_555 1_555
C9 C1 1_555 1_555
H7 C9 1_555 1_555
C10 C6 1_555 1_555
H8 C10 1_555 1_555
C11 N2 1_555 1_555
H9 C11 1_555 1_555
C12 C8 1_555 1_555
H10 C12 1_555 1_555
H11 C12 1_555 1_555
C13 C7 1_555 1_555
H12 C13 1_555 1_555
C14 C7 1_555 1_555
H13 C14 1_555 1_555
C15 S1 1_555 1_555
H14 C15 1_555 1_555
H15 C15 1_555 1_555
C16 N2 1_555 1_555
H16 C16 1_555 1_555
C17 H17 1_555 1_555
H18 C17 1_555 1_555
H19 C17 1_555 1_555
C18 N1 1_555 1_555
H20 C18 1_555 1_555
H21 C18 1_555 1_555
H22 C18 1_555 1_555
O2 S1 1_555 1_555
O3 S1 1_555 1_555
O4 H23 1_555 1_555
C19 O4 1_555 1_555
H24 C19 1_555 1_555
H25 C19 1_555 1_555
H26 C19 1_555 1_555
C2 C9 1_555 1_555
C4 C5 1_555 1_555
C11 C13 1_555 1_555
C12 C15 1_555 1_555
C14 C16 1_555 1_555

#END
