
#######################################################################
#
#                 Cambridge Crystallographic Data Centre
#                                CCDC 
#
#######################################################################
#
# If this CIF has been generated from an entry in the Cambridge 
# Structural Database, then it will include bibliographic, chemical, 
# crystal, experimental, refinement or atomic coordinate data resulting 
# from the CCDC's data processing and validation procedures.
#
#######################################################################

data_CINGUB
_chemical_formula_moiety         'C42 H36,C7 H8'
_chemical_name_systematic        
'1,1,1,6,6,6-Hexaphenyl-hex-3-ene toluene clathrate'
_symmetry_cell_setting           monoclinic
_symmetry_space_group_name_H-M   'P 21/n'
_symmetry_Int_Tables_number      14
_space_group_name_Hall           '-P 2yn'
loop_
_symmetry_equiv_pos_site_id
_symmetry_equiv_pos_as_xyz
1 x,y,z
2 1/2-x,1/2+y,1/2-z
3 -x,-y,-z
4 1/2+x,1/2-y,1/2+z
_cell_length_a                   14.786(6)
_cell_length_b                   7.525(4)
_cell_length_c                   17.063(7)
_cell_angle_alpha                90
_cell_angle_beta                 107.98(2)
_cell_angle_gamma                90
_cell_volume                     1805.79
_cell_formula_units_Z            2
loop_
_atom_site_label
_atom_site_type_symbol
_atom_site_fract_x
_atom_site_fract_y
_atom_site_fract_z
C1 C 1.0161 0.226 0.3603
C2 C 0.9593 0.325 0.4118
C3 C 1.0025 0.484 0.4635
C4 C 0.9427 0.105 0.2999
C5 C 0.9256 0.104 0.2161
C6 C 0.8589 -0.012 0.1660
C7 C 0.8093 -0.126 0.1978
C8 C 0.8254 -0.129 0.2809
C9 C 0.8914 -0.016 0.3326
C10 C 1.0990 0.122 0.4148
C11 C 1.1637 0.193 0.4846
C12 C 1.2420 0.101 0.5302
C13 C 1.2584 -0.075 0.5118
C14 C 1.1961 -0.149 0.4439
C15 C 1.1163 -0.058 0.3977
C16 C 1.0550 0.362 0.3114
C17 C 1.1445 0.343 0.3019
C18 C 1.1745 0.458 0.2509
C19 C 1.1209 0.593 0.2125
C20 C 1.0327 0.617 0.2213
C21 C 1.0020 0.502 0.2709
H1 H 0.9472 0.238 0.4498
H2 H 0.8990 0.365 0.3731
H3 H 1.0360 0.571 0.4393
H4 H 0.9602 0.186 0.1925
H5 H 0.8498 -0.011 0.1061
H6 H 0.7614 -0.206 0.1618
H7 H 0.7897 -0.211 0.3055
H8 H 0.9016 -0.019 0.3915
H9 H 1.1532 0.313 0.5014
H10 H 1.2889 0.158 0.5767
H11 H 1.3141 -0.137 0.5450
H12 H 1.2059 -0.270 0.4282
H13 H 1.0715 -0.115 0.3489
H14 H 1.1852 0.244 0.3293
H15 H 1.2382 0.440 0.2457
H16 H 1.1444 0.677 0.1795
H17 H 0.9903 0.716 0.1934
H18 H 0.9368 0.518 0.2758
C3B C 0.9975 0.516 0.5365
C2B C 1.0407 0.675 0.5882
H3B H 0.9640 0.429 0.5607
C1B C 0.9839 0.774 0.6397
H1B H 1.0528 0.762 0.5502
H2B H 1.1010 0.635 0.6269
C4B C 1.0573 0.895 0.7001
C10B C 0.9010 0.878 0.5852
C16B C 0.9450 0.638 0.6886
C5B C 1.0744 0.896 0.7839
C9B C 1.1086 1.016 0.6674
C11B C 0.8363 0.807 0.5154
C15B C 0.8837 1.058 0.6023
C17B C 0.8555 0.657 0.6981
C21B C 0.9980 0.498 0.7291
C6B C 1.1411 1.012 0.8340
H4B H 1.0398 0.814 0.8075
C8B C 1.1746 1.129 0.7191
H8B H 1.0984 1.019 0.6085
C12B C 0.7580 0.899 0.4698
H9B H 0.8468 0.687 0.4986
C14B C 0.8039 1.149 0.5561
H13B H 0.9285 1.115 0.6511
C18B C 0.8255 0.542 0.7491
H14B H 0.8148 0.756 0.6707
C20B C 0.9673 0.383 0.7787
H18B H 1.0632 0.482 0.7242
C7B C 1.1907 1.126 0.8022
H5B H 1.1502 1.011 0.8939
H7B H 1.2103 1.211 0.6945
C13B C 0.7416 1.075 0.4882
H10B H 0.7111 0.842 0.4233
H12B H 0.7941 1.270 0.5718
C19B C 0.8791 0.407 0.7875
H15B H 0.7618 0.560 0.7543
H17B H 1.0097 0.284 0.8066
H6B H 1.2386 1.206 0.8382
H11B H 0.6859 1.137 0.4550
H16B H 0.8556 0.323 0.8205
loop_
_geom_bond_atom_site_label_1
_geom_bond_atom_site_label_2
_geom_bond_site_symmetry_1
_geom_bond_site_symmetry_2
C1 C2 1_555 1_555
C2 C3 1_555 1_555
C3 H3 1_555 1_555
C4 C1 1_555 1_555
C5 C4 1_555 1_555
C6 C5 1_555 1_555
C7 C6 1_555 1_555
C8 C7 1_555 1_555
C9 C4 1_555 1_555
C10 C1 1_555 1_555
C11 C10 1_555 1_555
C12 C11 1_555 1_555
C13 C12 1_555 1_555
C14 C13 1_555 1_555
C15 C10 1_555 1_555
C16 C1 1_555 1_555
C17 C16 1_555 1_555
C18 C17 1_555 1_555
C19 C18 1_555 1_555
C20 C19 1_555 1_555
C21 C16 1_555 1_555
H1 C2 1_555 1_555
H2 C2 1_555 1_555
H4 C5 1_555 1_555
H5 C6 1_555 1_555
H6 C7 1_555 1_555
H7 C8 1_555 1_555
H8 C9 1_555 1_555
H9 C11 1_555 1_555
H10 C12 1_555 1_555
H11 C13 1_555 1_555
H12 C14 1_555 1_555
H13 C15 1_555 1_555
H14 C17 1_555 1_555
H15 C18 1_555 1_555
H16 C19 1_555 1_555
H17 C20 1_555 1_555
H18 C21 1_555 1_555
C3B C3 1_555 1_555
C2B C3B 1_555 1_555
H3B C3B 1_555 1_555
C1B C2B 1_555 1_555
H1B C2B 1_555 1_555
H2B C2B 1_555 1_555
C4B C1B 1_555 1_555
C10B C1B 1_555 1_555
C16B C1B 1_555 1_555
C5B C4B 1_555 1_555
C9B C4B 1_555 1_555
C11B C10B 1_555 1_555
C15B C10B 1_555 1_555
C17B C16B 1_555 1_555
C21B C16B 1_555 1_555
C6B C5B 1_555 1_555
H4B C5B 1_555 1_555
C8B C9B 1_555 1_555
H8B C9B 1_555 1_555
C12B C11B 1_555 1_555
H9B C11B 1_555 1_555
C14B C15B 1_555 1_555
H13B C15B 1_555 1_555
C18B C17B 1_555 1_555
H14B C17B 1_555 1_555
C20B C21B 1_555 1_555
H18B C21B 1_555 1_555
C7B C6B 1_555 1_555
H5B C6B 1_555 1_555
H7B C8B 1_555 1_555
C13B C12B 1_555 1_555
H10B C12B 1_555 1_555
H12B C14B 1_555 1_555
C19B C18B 1_555 1_555
H15B C18B 1_555 1_555
H17B C20B 1_555 1_555
H6B C7B 1_555 1_555
H11B C13B 1_555 1_555
H16B C19B 1_555 1_555
C8 C9 1_555 1_555
C14 C15 1_555 1_555
C20 C21 1_555 1_555
C8B C7B 1_555 1_555
C14B C13B 1_555 1_555
C20B C19B 1_555 1_555

#END
