
#######################################################################
#
#                 Cambridge Crystallographic Data Centre
#                                CCDC 
#
#######################################################################
#
# If this CIF has been generated from an entry in the Cambridge 
# Structural Database, then it will include bibliographic, chemical, 
# crystal, experimental, refinement or atomic coordinate data resulting 
# from the CCDC's data processing and validation procedures.
#
#######################################################################

data_CINHEM
_chemical_formula_moiety         'C44 H42,C8 H10'
_chemical_name_systematic        
'1,1,1,8,8,8-Hexaphenyloctane p-xylene clathrate'
_symmetry_cell_setting           triclinic
_symmetry_space_group_name_H-M   'P -1'
_symmetry_Int_Tables_number      2
_space_group_name_Hall           '-P 1'
loop_
_symmetry_equiv_pos_site_id
_symmetry_equiv_pos_as_xyz
1 x,y,z
2 -x,-y,-z
_cell_length_a                   8.972(4)
_cell_length_b                   13.754(5)
_cell_length_c                   8.646(4)
_cell_angle_alpha                103.75(3)
_cell_angle_beta                 100.80(3)
_cell_angle_gamma                103.86(2)
_cell_volume                     971.822
_cell_formula_units_Z            1
loop_
_atom_site_label
_atom_site_type_symbol
_atom_site_fract_x
_atom_site_fract_y
_atom_site_fract_z
C1 C 0.7031 0.1710 0.7623
C2 C 0.7458 0.0736 0.6713
C3 C 0.8951 0.0942 0.6080
C4 C 0.9289 -0.0077 0.5373
C5 C 0.5478 0.1350 0.8165
C6 C 0.4721 0.0312 0.7936
C7 C 0.3353 0.0009 0.8450
C8 C 0.2738 0.0761 0.9162
C9 C 0.3457 0.1801 0.9406
C10 C 0.4838 0.2094 0.8910
C11 C 0.6786 0.2328 0.6389
C12 C 0.5313 0.2122 0.5313
C13 C 0.5103 0.2561 0.4048
C14 C 0.6380 0.3245 0.3838
C15 C 0.7842 0.3490 0.4898
C16 C 0.8042 0.3037 0.6140
C17 C 0.8335 0.2362 0.9213
C18 C 0.8575 0.3427 0.9881
C19 C 0.9683 0.4018 1.1361
C20 C 1.0562 0.3539 1.2210
C21 C 1.0346 0.2488 1.1602
C22 C 0.9229 0.1897 1.0119
H1 H 0.655 0.033 0.577
H2 H 0.763 0.030 0.754
H3 H 0.970 0.141 0.704
H4 H 0.880 0.130 0.522
H5 H 0.839 -0.059 0.448
H6 H 0.952 -0.042 0.633
H7 H 0.511 -0.026 0.740
H8 H 0.285 -0.078 0.824
H9 H 0.182 0.057 0.957
H10 H 0.310 0.241 0.994
H11 H 0.529 0.285 0.909
H12 H 0.453 0.168 0.542
H13 H 0.404 0.245 0.328
H14 H 0.621 0.355 0.305
H15 H 0.870 0.401 0.476
H16 H 0.904 0.318 0.687
H17 H 0.801 0.376 0.927
H18 H 0.987 0.484 1.173
H19 H 1.122 0.394 1.322
H20 H 1.084 0.208 1.221
H21 H 0.910 0.113 0.964
C4A C 1.0711 0.0077 0.4627
C3A C 1.1049 -0.0942 0.3920
H5A H 1.161 0.059 0.552
H6A H 1.048 0.042 0.367
C2A C 1.2542 -0.0736 0.3287
H3A H 1.030 -0.141 0.296
H4A H 1.120 -0.130 0.478
C1A C 1.2969 -0.1710 0.2377
H1A H 1.345 -0.033 0.423
H2A H 1.237 -0.030 0.246
C5A C 1.4522 -0.1350 0.1835
C11A C 1.3214 -0.2328 0.3611
C17A C 1.1665 -0.2362 0.0787
C6A C 1.5279 -0.0312 0.2064
C10A C 1.5162 -0.2094 0.1090
C12A C 1.4687 -0.2122 0.4687
C16A C 1.1958 -0.3037 0.3860
C18A C 1.1425 -0.3427 0.0119
C22A C 1.0771 -0.1897 -0.0119
C7A C 1.6647 -0.0009 0.1550
H7A H 1.489 0.026 0.260
C9A C 1.6543 -0.1801 0.0594
H11A H 1.471 -0.285 0.091
C13A C 1.4897 -0.2561 0.5952
H12A H 1.547 -0.168 0.458
C15A C 1.2158 -0.3490 0.5102
H16A H 1.096 -0.318 0.313
C19A C 1.0317 -0.4018 -0.1361
H17A H 1.199 -0.376 0.073
C21A C 0.9654 -0.2488 -0.1602
H21A H 1.090 -0.113 0.036
C8A C 1.7262 -0.0761 0.0838
H8A H 1.715 0.078 0.176
H10A H 1.690 -0.241 0.006
C14A C 1.3620 -0.3245 0.6162
H13A H 1.596 -0.245 0.672
H15A H 1.130 -0.401 0.524
C20A C 0.9438 -0.3539 -0.2210
H18A H 1.013 -0.484 -0.173
H20A H 0.916 -0.208 -0.221
H9A H 1.818 -0.057 0.043
H14A H 1.379 -0.355 0.695
H19A H 0.878 -0.394 -0.322
C23 C 0.3957 0.4470 0.8420
C24 C 0.5543 0.4977 0.8612
C25 C 0.3458 0.4515 0.9848
C26 C 0.2832 0.3919 0.6753
H22 H 0.582 0.493 0.751
H23 H 0.242 0.416 0.973
H24 H 0.289 0.323 0.653
H25 H 0.328 0.419 0.580
H26 H 0.166 0.398 0.688
C25A C 0.6542 0.5485 1.0152
C24A C 0.4457 0.5023 1.1388
C23A C 0.6043 0.5530 1.1580
H23A H 0.758 0.584 1.027
H22A H 0.418 0.507 1.249
C26A C 0.7168 0.6081 1.3247
H24A H 0.711 0.677 1.347
H25A H 0.672 0.581 1.420
H26A H 0.834 0.602 1.312
loop_
_geom_bond_atom_site_label_1
_geom_bond_atom_site_label_2
_geom_bond_site_symmetry_1
_geom_bond_site_symmetry_2
C1 C2 1_555 1_555
C2 C3 1_555 1_555
C3 C4 1_555 1_555
C4 H5 1_555 1_555
C5 C1 1_555 1_555
C6 C5 1_555 1_555
C7 C6 1_555 1_555
C8 C7 1_555 1_555
C9 C8 1_555 1_555
C10 C5 1_555 1_555
C11 C1 1_555 1_555
C12 C11 1_555 1_555
C13 C12 1_555 1_555
C14 C13 1_555 1_555
C15 C14 1_555 1_555
C16 C11 1_555 1_555
C17 C1 1_555 1_555
C18 C17 1_555 1_555
C19 C18 1_555 1_555
C20 C19 1_555 1_555
C21 C20 1_555 1_555
C22 C17 1_555 1_555
C23 C24 1_555 1_555
C24 H22 1_555 1_555
C25 C23 1_555 1_555
C26 C23 1_555 1_555
H1 C2 1_555 1_555
H2 C2 1_555 1_555
H3 C3 1_555 1_555
H4 C3 1_555 1_555
H6 C4 1_555 1_555
H7 C6 1_555 1_555
H8 C7 1_555 1_555
H9 C8 1_555 1_555
H10 C9 1_555 1_555
H11 C10 1_555 1_555
H12 C12 1_555 1_555
H13 C13 1_555 1_555
H14 C14 1_555 1_555
H15 C15 1_555 1_555
H16 C16 1_555 1_555
H17 C18 1_555 1_555
H18 C19 1_555 1_555
H19 C20 1_555 1_555
H20 C21 1_555 1_555
H21 C22 1_555 1_555
H23 C25 1_555 1_555
H24 C26 1_555 1_555
H25 C26 1_555 1_555
H26 C26 1_555 1_555
C4A C4 1_555 1_555
C3A C4A 1_555 1_555
H5A C4A 1_555 1_555
H6A C4A 1_555 1_555
C2A C3A 1_555 1_555
H3A C3A 1_555 1_555
H4A C3A 1_555 1_555
C1A C2A 1_555 1_555
H1A C2A 1_555 1_555
H2A C2A 1_555 1_555
C5A C1A 1_555 1_555
C11A C1A 1_555 1_555
C17A C1A 1_555 1_555
C6A C5A 1_555 1_555
C10A C5A 1_555 1_555
C12A C11A 1_555 1_555
C16A C11A 1_555 1_555
C18A C17A 1_555 1_555
C22A C17A 1_555 1_555
C7A C6A 1_555 1_555
H7A C6A 1_555 1_555
C9A C10A 1_555 1_555
H11A C10A 1_555 1_555
C13A C12A 1_555 1_555
H12A C12A 1_555 1_555
C15A C16A 1_555 1_555
H16A C16A 1_555 1_555
C19A C18A 1_555 1_555
H17A C18A 1_555 1_555
C21A C22A 1_555 1_555
H21A C22A 1_555 1_555
C8A C7A 1_555 1_555
H8A C7A 1_555 1_555
H10A C9A 1_555 1_555
C14A C13A 1_555 1_555
H13A C13A 1_555 1_555
H15A C15A 1_555 1_555
C20A C19A 1_555 1_555
H18A C19A 1_555 1_555
H20A C21A 1_555 1_555
H9A C8A 1_555 1_555
H14A C14A 1_555 1_555
H19A C20A 1_555 1_555
C25A C24 1_555 1_555
C24A C25 1_555 1_555
C23A C25A 1_555 1_555
H23A C25A 1_555 1_555
H22A C24A 1_555 1_555
C26A C23A 1_555 1_555
H24A C26A 1_555 1_555
H25A C26A 1_555 1_555
H26A C26A 1_555 1_555
C9 C10 1_555 1_555
C15 C16 1_555 1_555
C21 C22 1_555 1_555
C9A C8A 1_555 1_555
C15A C14A 1_555 1_555
C21A C20A 1_555 1_555
C24A C23A 1_555 1_555

#END
