
#######################################################################
#
#                 Cambridge Crystallographic Data Centre
#                                CCDC 
#
#######################################################################
#
# If this CIF has been generated from an entry in the Cambridge 
# Structural Database, then it will include bibliographic, chemical, 
# crystal, experimental, refinement or atomic coordinate data resulting 
# from the CCDC's data processing and validation procedures.
#
#######################################################################

data_CINHEO
_chemical_formula_moiety         'C20 H26 N2 O3 S1,2.4(H2 O1)'
_chemical_name_systematic        
'3-(4-(2-(4-(Diethylamino)phenyl)vinyl)pyridinium-1-yl)propane-1-sulfonate hydrate'
_symmetry_cell_setting           monoclinic
_symmetry_space_group_name_H-M   'P 21/c'
_symmetry_Int_Tables_number      14
_space_group_name_Hall           '-P 2ybc'
loop_
_symmetry_equiv_pos_site_id
_symmetry_equiv_pos_as_xyz
1 x,y,z
2 -x,1/2+y,1/2-z
3 -x,-y,-z
4 x,1/2-y,1/2+z
_cell_length_a                   16.884(8)
_cell_length_b                   17.506(9)
_cell_length_c                   37.803(18)
_cell_angle_alpha                90
_cell_angle_beta                 97.551(7)
_cell_angle_gamma                90
_cell_volume                     11076.6
_cell_formula_units_Z            20
loop_
_atom_site_label
_atom_site_type_symbol
_atom_site_fract_x
_atom_site_fract_y
_atom_site_fract_z
C1 C 0.2857(3) 0.1566(2) 0.24171(10)
H1 H 0.3423 0.1680 0.2463
H2 H 0.2580 0.1913 0.2559
C2 C 0.2718(3) 0.0761(2) 0.25280(11)
H3 H 0.3014 0.0419 0.2392
H4 H 0.2155 0.0642 0.2469
C3 C 0.2963(3) 0.0611(3) 0.29203(12)
H5 H 0.2736 0.1004 0.3057
H6 H 0.2743 0.0124 0.2982
C4 C 0.4256(3) -0.0046(3) 0.29749(13)
H7 H 0.3986 -0.0463 0.2865
C5 C 0.5052(3) -0.0105(2) 0.30820(13)
H8 H 0.5318 -0.0556 0.3041
C6 C 0.5477(3) 0.0505(2) 0.32534(11)
C7 C 0.5039(3) 0.1181(2) 0.32744(10)
H9 H 0.5301 0.1621 0.3364
C8 C 0.4239(3) 0.1204(2) 0.31658(11)
H10 H 0.3960 0.1655 0.3192
C9 C 0.6310(3) 0.0461(2) 0.34022(11)
H11 H 0.6573 0.0919 0.3463
C10 C 0.6734(3) -0.0184(3) 0.34603(11)
H12 H 0.6468 -0.0629 0.3380
C11 C 0.7543(3) -0.0288(2) 0.36296(11)
C12 C 0.8089(3) 0.0313(3) 0.37102(11)
H13 H 0.7932 0.0807 0.3643
C13 C 0.8843(3) 0.0196(2) 0.38838(11)
H14 H 0.9182 0.0613 0.3931
C14 C 0.9119(3) -0.0527(3) 0.39910(11)
C15 C 0.8574(3) -0.1145(2) 0.39119(12)
H15 H 0.8726 -0.1640 0.3981
C16 C 0.7825(3) -0.1009(3) 0.37343(12)
H16 H 0.7487 -0.1424 0.3681
C17 C 1.0461(3) -0.0015(3) 0.42521(13)
H17 H 1.0422 0.0346 0.4056
H18 H 1.0999 -0.0220 0.4284
C18 C 1.0321(4) 0.0404(3) 0.45865(14)
H19 H 0.9774 0.0566 0.4567
H20 H 1.0665 0.0843 0.4617
H21 H 1.0436 0.0071 0.4788
C19 C 1.0189(3) -0.1407(3) 0.42614(14)
H22 H 1.0760 -0.1420 0.4249
H23 H 0.9939 -0.1776 0.4090
C20 C 1.0049(5) -0.1644(3) 0.46198(17)
H24 H 1.0415 -0.1382 0.4795
H25 H 1.0130 -0.2186 0.4645
H26 H 0.9511 -0.1521 0.4655
N1 N 0.3844(2) 0.05962(19) 0.30225(9)
N2 N 0.9890(3) -0.0649(2) 0.41554(10)
O1 O 0.2705(2) 0.25014(19) 0.18901(9)
O2 O 0.16537(17) 0.1577(2) 0.19117(9)
O3 O 0.29381(17) 0.11702(18) 0.17690(7)
S1 S 0.25152(7) 0.17147(7) 0.19586(3)
C21 C 0.4935(2) 0.4178(2) 0.31732(11)
H27 H 0.4651 0.4464 0.2976
H28 H 0.4557 0.4052 0.3336
C22 C 0.5590(2) 0.4680(2) 0.33657(11)
H29 H 0.5873 0.4394 0.3563
H30 H 0.5968 0.4805 0.3202
C23 C 0.5280(2) 0.5414(2) 0.35082(10)
H31 H 0.4980 0.5299 0.3704
H32 H 0.5726 0.5738 0.3599
C24 C 0.3954(2) 0.57492(19) 0.31908(10)
H33 H 0.3726 0.5505 0.3371
C25 C 0.3472(2) 0.60178(19) 0.29025(10)
H34 H 0.2922 0.5949 0.2886
C26 C 0.3798(2) 0.63989(19) 0.26287(10)
C27 C 0.4633(2) 0.6491(2) 0.26764(10)
H35 H 0.4875 0.6754 0.2505
C28 C 0.5089(2) 0.6205(2) 0.29667(11)
H36 H 0.5640 0.6268 0.2991
C29 C 0.3316(2) 0.6700(2) 0.23129(10)
H37 H 0.3579 0.6940 0.2142
C30 C 0.2520(2) 0.66563(19) 0.22504(10)
H38 H 0.2272 0.6405 0.2423
C31 C 0.1996(2) 0.6954(2) 0.19464(10)
C32 C 0.2268(2) 0.7333(2) 0.16580(10)
H39 H 0.2814 0.7394 0.1655
C33 C 0.1746(2) 0.7614(2) 0.13807(10)
H40 H 0.1948 0.7861 0.1194
C34 C 0.0902(2) 0.7540(2) 0.13696(10)
C35 C 0.0631(2) 0.7157(2) 0.16604(11)
H41 H 0.0086 0.7088 0.1664
C36 C 0.1167(2) 0.6883(2) 0.19381(11)
H42 H 0.0970 0.6642 0.2128
C37 C -0.0493(2) 0.7786(2) 0.11122(13)
H43 H -0.0758 0.8169 0.0953
H44 H -0.0595 0.7910 0.1352
C38 C -0.0858(3) 0.7021(3) 0.10115(13)
H45 H -0.0777 0.6899 0.0771
H46 H -0.1420 0.7036 0.1028
H47 H -0.0609 0.6638 0.1171
C39 C 0.0631(3) 0.8264(3) 0.08003(14)
H48 H 0.1202 0.8353 0.0850
H49 H 0.0368 0.8758 0.0786
C40 C 0.0455(4) 0.7875(4) 0.04504(14)
H50 H 0.0694 0.7376 0.0465
H51 H 0.0671 0.8169 0.0271
H52 H -0.0112 0.7828 0.0388
N3 N 0.47572(18) 0.58262(16) 0.32241(8)
N4 N 0.03716(19) 0.78326(19) 0.10987(9)
O4 O 0.58069(19) 0.35426(19) 0.27421(9)
O5 O 0.57196(17) 0.29275(15) 0.33176(8)
O6 O 0.45860(17) 0.29072(15) 0.28507(8)
S2 S 0.53013(7) 0.33240(6) 0.30072(3)
C41 C 1.0604(2) 0.5182(2) 0.32936(10)
H53 H 1.0920 0.4747 0.3387
H54 H 1.0375 0.5413 0.3490
C42 C 0.9926(2) 0.4902(2) 0.30150(10)
H55 H 0.9487 0.5264 0.2997
H56 H 1.0114 0.4872 0.2784
C43 C 0.9636(2) 0.4128(2) 0.31150(11)
H57 H 1.0081 0.3774 0.3143
H58 H 0.9431 0.4164 0.3343
C44 C 0.9188(3) 0.3442(2) 0.25558(12)
H59 H 0.9722 0.3347 0.2535
C45 C 0.8612(3) 0.3186(2) 0.22962(12)
H60 H 0.8760 0.2928 0.2100
C46 C 0.7794(3) 0.3307(3) 0.23211(14)
C47 C 0.7639(3) 0.3685(2) 0.26256(15)
H61 H 0.7110 0.3765 0.2659
C48 C 0.8223(2) 0.3947(2) 0.28789(12)
H62 H 0.8087 0.4206 0.3077
C49 C 0.7018(10) 0.3128(6) 0.2108(5)
H63 H 0.6539 0.3237 0.2193
C50 C 0.7030(10) 0.2806(6) 0.1791(4)
H64 H 0.7507 0.2683 0.1706
C51 C 0.6231(4) 0.2649(3) 0.15770(16)
C52 C 0.6344(3) 0.2268(3) 0.12691(16)
H65 H 0.6866 0.2150 0.1235
C53 C 0.5740(3) 0.2050(2) 0.10080(13)
H66 H 0.5864 0.1796 0.0806
C54 C 0.4936(3) 0.2210(2) 0.10433(12)
C55 C 0.4795(3) 0.2602(2) 0.13557(12)
H67 H 0.4276 0.2727 0.1391
C56 C 0.5424(4) 0.2797(2) 0.16063(12)
H68 H 0.5308 0.3045 0.1811
C57 C 0.4447(3) 0.1492(3) 0.04862(16)
H69 H 0.3972 0.1183 0.0423
H70 H 0.4889 0.1149 0.0559
C58 C 0.4618(4) 0.1931(4) 0.01612(17)
H71 H 0.4168 0.2247 0.0077
H72 H 0.4716 0.1579 -0.0023
H73 H 0.5081 0.2247 0.0223
C59 C 0.3496(3) 0.2317(3) 0.07768(14)
H74 H 0.3520 0.2788 0.0913
H75 H 0.3293 0.2438 0.0531
C60 C 0.2951(4) 0.1793(4) 0.09175(16)
H76 H 0.2947 0.1315 0.0792
H77 H 0.2422 0.2006 0.0887
H78 H 0.3122 0.1708 0.1167
N5 N 0.4324(2) 0.1992(2) 0.07915(10)
N6 N 0.90018(19) 0.38298(17) 0.28433(9)
O7 O 1.15746(18) 0.54737(19) 0.28360(8)
O8 O 1.07699(19) 0.65112(17) 0.30092(11)
O9 O 1.18512(16) 0.60420(16) 0.34212(8)
S3 S 1.12414(6) 0.58547(6) 0.31246(3)
C63 C 1.2645(2) 0.3747(2) 0.29134(10)
H81 H 1.2780 0.4281 0.2957
H82 H 1.3085 0.3510 0.2813
C64 C 1.1896(2) 0.3697(2) 0.26437(10)
H83 H 1.1452 0.3919 0.2746
H84 H 1.1773 0.3164 0.2593
C65 C 1.1987(2) 0.4108(2) 0.22953(10)
H85 H 1.2220 0.4609 0.2347
H86 H 1.2343 0.3820 0.2164
C66 C 1.0867(2) 0.3594(2) 0.18886(10)
H87 H 1.1162 0.3149 0.1876
C67 C 1.0101(3) 0.3628(2) 0.17154(10)
H88 H 0.9880 0.3197 0.1598
C68 C 0.9648(2) 0.4293(2) 0.17120(9)
C69 C 1.0024(2) 0.4908(2) 0.18994(11)
H89 H 0.9755 0.5372 0.1902
C70 C 1.0782(2) 0.4846(2) 0.20806(11)
H90 H 1.1011 0.5262 0.2209
C71 C 0.8837(2) 0.4310(2) 0.15219(10)
H91 H 0.8612 0.3849 0.1438
C72 C 0.8395(2) 0.4938(2) 0.14600(10)
H92 H 0.8636 0.5395 0.1540
C73 C 0.7577(2) 0.4990(2) 0.12813(10)
C74 C 0.7225(2) 0.5710(2) 0.12125(9)
H93 H 0.7532 0.6147 0.1267
C75 C 0.6442(2) 0.5787(2) 0.10675(10)
H94 H 0.6234 0.6274 0.1019
C76 C 0.5943(2) 0.5147(2) 0.09894(11)
C77 C 0.6300(2) 0.4425(2) 0.10534(11)
H95 H 0.5996 0.3987 0.0999
C78 C 0.7089(2) 0.4356(2) 0.11943(10)
H96 H 0.7306 0.3870 0.1233
C79 C 0.4793(3) 0.5975(2) 0.07683(12)
H97 H 0.4985 0.6339 0.0953
H98 H 0.4217 0.5940 0.0761
C80 C 0.4981(3) 0.6273(3) 0.04135(13)
H99 H 0.5549 0.6275 0.0412
H100 H 0.4778 0.6783 0.0378
H101 H 0.4734 0.5950 0.0225
C81 C 0.4584(3) 0.4526(3) 0.08194(15)
H102 H 0.4745 0.4151 0.1004
H103 H 0.4038 0.4679 0.0837
C82 C 0.4639(4) 0.4207(4) 0.04739(16)
H104 H 0.4499 0.4588 0.0294
H105 H 0.4279 0.3782 0.0433
H106 H 0.5175 0.4036 0.0463
N7 N 1.12001(18) 0.41912(18) 0.20753(8)
N8 N 0.5142(2) 0.5226(2) 0.08663(11)
O10 O 1.17859(18) 0.3553(2) 0.34258(9)
O11 O 1.32073(18) 0.35732(18) 0.35770(8)
O12 O 1.2575(2) 0.24899(16) 0.32654(8)
S4 S 1.25372(6) 0.32997(6) 0.33260(3)
C83 C 0.9390(2) 1.0615(2) 0.04948(12)
H107 H 0.9124 1.0940 0.0650
H108 H 0.9278 1.0815 0.0254
C84 C 0.9058(2) 0.9808(2) 0.05038(11)
H109 H 0.9367 0.9473 0.0370
H110 H 0.9120 0.9630 0.0749
C85 C 0.8186(2) 0.9756(2) 0.03499(12)
H111 H 0.7861 1.0015 0.0506
H112 H 0.8103 1.0006 0.0119
C86 C 0.8175(2) 0.8535(2) 0.00395(10)
H113 H 0.8451 0.8779 -0.0125
C87 C 0.8016(2) 0.7768(2) 0.00043(10)
H114 H 0.8178 0.7500 -0.0186
C88 C 0.7611(2) 0.7382(2) 0.02520(10)
C89 C 0.7364(2) 0.7828(2) 0.05258(11)
H115 H 0.7079 0.7602 0.0692
C90 C 0.7539(2) 0.8595(2) 0.05514(11)
H116 H 0.7380 0.8878 0.0738
C91 C 0.7451(2) 0.6573(2) 0.02357(11)
H117 H 0.7226 0.6360 0.0425
C92 C 0.7598(2) 0.6096(2) -0.00284(10)
H118 H 0.7800 0.6324 -0.0220
C93 C 0.7483(2) 0.5282(2) -0.00530(10)
C94 C 0.7624(2) 0.4889(2) -0.03616(11)
H119 H 0.7796 0.5164 -0.0548
C95 C 0.7517(2) 0.4113(2) -0.04005(11)
H120 H 0.7604 0.3879 -0.0613
C96 C 0.7276(2) 0.3668(2) -0.01223(11)
C97 C 0.7149(3) 0.4061(2) 0.01898(11)
H121 H 0.6997 0.3787 0.0380
C98 C 0.7241(2) 0.4835(2) 0.02213(11)
H122 H 0.7140 0.5073 0.0431
C99 C 0.7334(3) 0.2471(2) -0.04741(12)
H123 H 0.7513 0.1961 -0.0402
H124 H 0.7769 0.2723 -0.0572
C100 C 0.6626(3) 0.2406(3) -0.07644(13)
H125 H 0.6175 0.2206 -0.0664
H126 H 0.6758 0.2069 -0.0948
H127 H 0.6496 0.2902 -0.0864
C101 C 0.6891(3) 0.2433(2) 0.01227(13)
H128 H 0.6581 0.2007 0.0015
H129 H 0.6542 0.2742 0.0249
C102 C 0.7555(4) 0.2134(3) 0.03828(16)
H130 H 0.7937 0.1880 0.0257
H131 H 0.7346 0.1779 0.0541
H132 H 0.7810 0.2550 0.0519
N9 N 0.79368(18) 0.89401(17) 0.03102(9)
N10 N 0.7165(2) 0.28927(19) -0.01584(9)
O13 O 1.08083(16) 1.01580(16) 0.03872(7)
O14 O 1.06746(18) 1.14359(17) 0.06075(9)
O15 O 1.05529(17) 1.03463(17) 0.09979(7)
S5 S 1.04401(6) 1.06412(6) 0.06330(3)
O16 O 0.11547(19) 0.15740(17) 0.30698(9)
H133 H 0.1383 0.1596 0.2882
H134 H 0.1342 0.1920 0.3215
O17 O 0.9421(2) 0.70206(19) 0.26175(9)
H135 H 0.9336 0.7343 0.2776
H136 H 0.9842 0.6768 0.2688
O18 O 0.2047(2) -0.00571(18) 0.13734(9)
H137 H 0.1720 0.0136 0.1502
H138 H 0.2506 0.0140 0.1430
O19 O 0.4607(2) 0.28542(19) 0.38884(9)
H139 H 0.4382 0.2733 0.3682
H140 H 0.4995 0.2552 0.3951
O20 O 0.2848(2) 0.50638(18) 0.38647(9)
H141 H 0.2818 0.4755 0.3690
H142 H 0.2684 0.5502 0.3791
O21 O 0.0544(2) 0.20929(18) 0.12941(9)
H143 H 0.0970 0.2015 0.1437
H144 H 0.0226 0.1720 0.1305
O22 O 0.2317(2) 0.9554(2) 0.06458(11)
H145 H 0.2329 0.9098 0.0723
H146 H 0.2147 0.9558 0.0424
O23 O 0.3987(2) 0.3367(2) 0.21440(11)
H147 H 0.3838 0.3652 0.2305
H148 H 0.4450 0.3190 0.2215
O24 O 0.5042(2) 0.4261(3) 0.43005(11)
H149 H 0.4835 0.4051 0.4107
H150 H 0.4726 0.4218 0.4457
O25 O 0.6383(2) 0.4459(2) 0.47730(10)
H151 H 0.6561 0.4898 0.4728
H152 H 0.6771 0.4165 0.4846
O26 O 0.3833(2) 0.5138(3) 0.45134(11)
H153 H 0.3740 0.5608 0.4469
H154 H 0.3537 0.4982 0.4664
O27 O 0.1186(3) 0.7311(2) 0.37952(12)
H155 H 0.1276 0.6926 0.3669
H156 H 0.1625 0.7480 0.3902
C61? C 0.7417(16) 0.2966(8) 0.1980(6)
H79? H 0.7721 0.2750 0.1817
C62? C 0.6617(16) 0.2984(8) 0.1918(6)
H80? H 0.6316 0.3198 0.2082
loop_
_geom_bond_atom_site_label_1
_geom_bond_atom_site_label_2
_geom_bond_site_symmetry_1
_geom_bond_site_symmetry_2
C1 H1 1_555 1_555
H2 C1 1_555 1_555
C2 C1 1_555 1_555
H3 C2 1_555 1_555
H4 C2 1_555 1_555
C3 C2 1_555 1_555
H5 C3 1_555 1_555
H6 C3 1_555 1_555
C4 H7 1_555 1_555
C5 C4 1_555 1_555
H8 C5 1_555 1_555
C6 C5 1_555 1_555
C7 C6 1_555 1_555
H9 C7 1_555 1_555
C8 C7 1_555 1_555
H10 C8 1_555 1_555
C9 C6 1_555 1_555
H11 C9 1_555 1_555
C10 C9 1_555 1_555
H12 C10 1_555 1_555
C11 C10 1_555 1_555
C12 C11 1_555 1_555
H13 C12 1_555 1_555
C13 C12 1_555 1_555
H14 C13 1_555 1_555
C14 C13 1_555 1_555
C15 C14 1_555 1_555
H15 C15 1_555 1_555
C16 C11 1_555 1_555
H16 C16 1_555 1_555
C17 H17 1_555 1_555
H18 C17 1_555 1_555
C18 C17 1_555 1_555
H19 C18 1_555 1_555
H20 C18 1_555 1_555
H21 C18 1_555 1_555
C19 H22 1_555 1_555
H23 C19 1_555 1_555
C20 C19 1_555 1_555
H24 C20 1_555 1_555
H25 C20 1_555 1_555
H26 C20 1_555 1_555
N1 C3 1_555 1_555
N2 C14 1_555 1_555
O1 S1 1_555 1_555
O2 S1 1_555 1_555
O3 S1 1_555 1_555
S1 C1 1_555 1_555
C21 H27 1_555 1_555
H28 C21 1_555 1_555
C22 C21 1_555 1_555
H29 C22 1_555 1_555
H30 C22 1_555 1_555
C23 C22 1_555 1_555
H31 C23 1_555 1_555
H32 C23 1_555 1_555
C24 H33 1_555 1_555
C25 C24 1_555 1_555
H34 C25 1_555 1_555
C26 C25 1_555 1_555
C27 C26 1_555 1_555
H35 C27 1_555 1_555
C28 C27 1_555 1_555
H36 C28 1_555 1_555
C29 C26 1_555 1_555
H37 C29 1_555 1_555
C30 C29 1_555 1_555
H38 C30 1_555 1_555
C31 C30 1_555 1_555
C32 C31 1_555 1_555
H39 C32 1_555 1_555
C33 C32 1_555 1_555
H40 C33 1_555 1_555
C34 C33 1_555 1_555
C35 C34 1_555 1_555
H41 C35 1_555 1_555
C36 C31 1_555 1_555
H42 C36 1_555 1_555
C37 H43 1_555 1_555
H44 C37 1_555 1_555
C38 C37 1_555 1_555
H45 C38 1_555 1_555
H46 C38 1_555 1_555
H47 C38 1_555 1_555
C39 H48 1_555 1_555
H49 C39 1_555 1_555
C40 C39 1_555 1_555
H50 C40 1_555 1_555
H51 C40 1_555 1_555
H52 C40 1_555 1_555
N3 C23 1_555 1_555
N4 C34 1_555 1_555
O4 S2 1_555 1_555
O5 S2 1_555 1_555
O6 S2 1_555 1_555
S2 C21 1_555 1_555
C41 H53 1_555 1_555
H54 C41 1_555 1_555
C42 C41 1_555 1_555
H55 C42 1_555 1_555
H56 C42 1_555 1_555
C43 C42 1_555 1_555
H57 C43 1_555 1_555
H58 C43 1_555 1_555
C44 H59 1_555 1_555
C45 C44 1_555 1_555
H60 C45 1_555 1_555
C46 C45 1_555 1_555
C47 C46 1_555 1_555
H61 C47 1_555 1_555
C48 C47 1_555 1_555
H62 C48 1_555 1_555
C49 C46 1_555 1_555
H63 C49 1_555 1_555
C50 C49 1_555 1_555
H64 C50 1_555 1_555
C51 C50 1_555 1_555
C52 C51 1_555 1_555
H65 C52 1_555 1_555
C53 C52 1_555 1_555
H66 C53 1_555 1_555
C54 C53 1_555 1_555
C55 C54 1_555 1_555
H67 C55 1_555 1_555
C56 C51 1_555 1_555
H68 C56 1_555 1_555
C57 H69 1_555 1_555
H70 C57 1_555 1_555
C58 C57 1_555 1_555
H71 C58 1_555 1_555
H72 C58 1_555 1_555
H73 C58 1_555 1_555
C59 H74 1_555 1_555
H75 C59 1_555 1_555
C60 C59 1_555 1_555
H76 C60 1_555 1_555
H77 C60 1_555 1_555
H78 C60 1_555 1_555
N5 C54 1_555 1_555
N6 C43 1_555 1_555
O7 S3 1_555 1_555
O8 S3 1_555 1_555
O9 S3 1_555 1_555
S3 C41 1_555 1_555
C63 H81 1_555 1_555
H82 C63 1_555 1_555
C64 C63 1_555 1_555
H83 C64 1_555 1_555
H84 C64 1_555 1_555
C65 C64 1_555 1_555
H85 C65 1_555 1_555
H86 C65 1_555 1_555
C66 H87 1_555 1_555
C67 C66 1_555 1_555
H88 C67 1_555 1_555
C68 C67 1_555 1_555
C69 C68 1_555 1_555
H89 C69 1_555 1_555
C70 C69 1_555 1_555
H90 C70 1_555 1_555
C71 C68 1_555 1_555
H91 C71 1_555 1_555
C72 C71 1_555 1_555
H92 C72 1_555 1_555
C73 C72 1_555 1_555
C74 C73 1_555 1_555
H93 C74 1_555 1_555
C75 C74 1_555 1_555
H94 C75 1_555 1_555
C76 C75 1_555 1_555
C77 C76 1_555 1_555
H95 C77 1_555 1_555
C78 C73 1_555 1_555
H96 C78 1_555 1_555
C79 H97 1_555 1_555
H98 C79 1_555 1_555
C80 C79 1_555 1_555
H99 C80 1_555 1_555
H100 C80 1_555 1_555
H101 C80 1_555 1_555
C81 H102 1_555 1_555
H103 C81 1_555 1_555
C82 C81 1_555 1_555
H104 C82 1_555 1_555
H105 C82 1_555 1_555
H106 C82 1_555 1_555
N7 C65 1_555 1_555
N8 C76 1_555 1_555
O10 S4 1_555 1_555
O11 S4 1_555 1_555
O12 S4 1_555 1_555
S4 C63 1_555 1_555
C83 H107 1_555 1_555
H108 C83 1_555 1_555
C84 C83 1_555 1_555
H109 C84 1_555 1_555
H110 C84 1_555 1_555
C85 C84 1_555 1_555
H111 C85 1_555 1_555
H112 C85 1_555 1_555
C86 H113 1_555 1_555
C87 C86 1_555 1_555
H114 C87 1_555 1_555
C88 C87 1_555 1_555
C89 C88 1_555 1_555
H115 C89 1_555 1_555
C90 C89 1_555 1_555
H116 C90 1_555 1_555
C91 C88 1_555 1_555
H117 C91 1_555 1_555
C92 C91 1_555 1_555
H118 C92 1_555 1_555
C93 C92 1_555 1_555
C94 C93 1_555 1_555
H119 C94 1_555 1_555
C95 C94 1_555 1_555
H120 C95 1_555 1_555
C96 C95 1_555 1_555
C97 C96 1_555 1_555
H121 C97 1_555 1_555
C98 C93 1_555 1_555
H122 C98 1_555 1_555
C99 H123 1_555 1_555
H124 C99 1_555 1_555
C100 C99 1_555 1_555
H125 C100 1_555 1_555
H126 C100 1_555 1_555
H127 C100 1_555 1_555
C101 H128 1_555 1_555
H129 C101 1_555 1_555
C102 C101 1_555 1_555
H130 C102 1_555 1_555
H131 C102 1_555 1_555
H132 C102 1_555 1_555
N9 C85 1_555 1_555
N10 C96 1_555 1_555
O13 S5 1_555 1_555
O14 S5 1_555 1_555
O15 S5 1_555 1_555
S5 C83 1_555 1_555
O16 H133 1_555 1_555
H134 O16 1_555 1_555
O17 H135 1_555 1_555
H136 O17 1_555 1_555
O18 H137 1_555 1_555
H138 O18 1_555 1_555
O19 H139 1_555 1_555
H140 O19 1_555 1_555
O20 H141 1_555 1_555
H142 O20 1_555 1_555
O21 H143 1_555 1_555
H144 O21 1_555 1_555
O22 H145 1_555 1_555
H146 O22 1_555 1_555
O23 H147 1_555 1_555
H148 O23 1_555 1_555
O24 H149 1_555 1_555
H150 O24 1_555 1_555
O25 H151 1_555 1_555
H152 O25 1_555 1_555
O26 H153 1_555 1_555
H154 O26 1_555 1_555
O27 H155 1_555 1_555
H156 O27 1_555 1_555
C4 N1 1_555 1_555
C8 N1 1_555 1_555
C15 C16 1_555 1_555
C17 N2 1_555 1_555
C19 N2 1_555 1_555
C24 N3 1_555 1_555
C28 N3 1_555 1_555
C35 C36 1_555 1_555
C37 N4 1_555 1_555
C39 N4 1_555 1_555
C44 N6 1_555 1_555
C48 N6 1_555 1_555
C55 C56 1_555 1_555
C57 N5 1_555 1_555
C59 N5 1_555 1_555
C66 N7 1_555 1_555
C70 N7 1_555 1_555
C77 C78 1_555 1_555
C79 N8 1_555 1_555
C81 N8 1_555 1_555
C86 N9 1_555 1_555
C90 N9 1_555 1_555
C97 C98 1_555 1_555
C99 N10 1_555 1_555
C101 N10 1_555 1_555

#END
