
#######################################################################
#
#                 Cambridge Crystallographic Data Centre
#                                CCDC 
#
#######################################################################
#
# If this CIF has been generated from an entry in the Cambridge 
# Structural Database, then it will include bibliographic, chemical, 
# crystal, experimental, refinement or atomic coordinate data resulting 
# from the CCDC's data processing and validation procedures.
#
#######################################################################

data_CINKIW
_chemical_formula_moiety         'C29 H16 O1,0.5(C4 H8 O2)'
_chemical_name_systematic        
'2,7-bis(phenylethynyl)-9H-fluoren-9-one 1,4-dioxane solvate'
_symmetry_cell_setting           monoclinic
_symmetry_space_group_name_H-M   'P 21/a'
_symmetry_Int_Tables_number      14
_space_group_name_Hall           '-P 2yab'
loop_
_symmetry_equiv_pos_site_id
_symmetry_equiv_pos_as_xyz
1 x,y,z
2 1/2-x,1/2+y,-z
3 -x,-y,-z
4 1/2+x,1/2-y,z
_cell_length_a                   16.4740(13)
_cell_length_b                   5.8377(3)
_cell_length_c                   23.9662(13)
_cell_angle_alpha                90
_cell_angle_beta                 104.803(5)
_cell_angle_gamma                90
_cell_volume                     2228.34
_exptl_crystal_colour            yellow
_exptl_crystal_description       plate
_cell_formula_units_Z            4
loop_
_atom_site_label
_atom_site_type_symbol
_atom_site_fract_x
_atom_site_fract_y
_atom_site_fract_z
O1 O 0.05444(8) 0.0616(2) 0.41505(6)
C1 C 0.09149(11) 0.2408(3) 0.42654(8)
C2 C 0.10290(10) 0.3783(3) 0.48066(8)
C3 C 0.07978(11) 0.3278(3) 0.53047(8)
H1 H 0.052635 0.189253 0.534357
C4 C 0.09790(10) 0.4891(3) 0.57535(8)
C5 C 0.13653(11) 0.6955(3) 0.56796(8)
H2 H 0.146981 0.804420 0.597841
C6 C 0.15978(11) 0.7436(3) 0.51776(8)
H3 H 0.186107 0.883002 0.513470
C7 C 0.14362(10) 0.5833(3) 0.47405(7)
C8 C 0.16363(10) 0.5807(3) 0.41753(8)
C9 C 0.20629(11) 0.7353(3) 0.39203(8)
H4 H 0.224940 0.875560 0.410074
C10 C 0.22105(12) 0.6802(3) 0.33953(8)
H5 H 0.249950 0.785110 0.321871
C11 C 0.19419(11) 0.4727(3) 0.31188(8)
C12 C 0.14967(11) 0.3189(3) 0.33755(8)
H6 H 0.130197 0.179344 0.319428
C13 C 0.13491(11) 0.3750(3) 0.38963(7)
C14 C 0.07734(11) 0.4411(3) 0.62846(8)
C15 C 0.06130(12) 0.3984(3) 0.67295(9)
C16 C 0.03878(11) 0.3451(3) 0.72531(8)
C17 C 0.00068(14) 0.1381(4) 0.73123(9)
H7 H -0.008212 0.029792 0.701255
C18 C -0.02425(15) 0.0894(4) 0.78049(9)
H8 H -0.050750 -0.050675 0.783830
C19 C -0.01044(14) 0.2455(4) 0.82483(9)
H9 H -0.027661 0.212853 0.858468
C20 C 0.02845(16) 0.4487(4) 0.81983(10)
H10 H 0.038635 0.554357 0.850420
C21 C 0.05275(14) 0.4997(4) 0.77061(9)
H11 H 0.079047 0.640427 0.767609
C22 C 0.21357(12) 0.4147(4) 0.25885(9)
C23 C 0.23059(12) 0.3612(4) 0.21525(9)
C24 C 0.25058(12) 0.2973(4) 0.16270(8)
C25 C 0.30061(13) 0.4378(4) 0.13871(9)
H12 H 0.322285 0.574982 0.157154
C26 C 0.31834(15) 0.3748(4) 0.08755(10)
H13 H 0.352655 0.469040 0.071409
C27 C 0.28635(16) 0.1759(5) 0.06006(10)
H14 H 0.298052 0.135804 0.024935
C28 C 0.23756(17) 0.0363(4) 0.08365(10)
H15 H 0.216007 -0.100391 0.064883
C29 C 0.21990(14) 0.0951(4) 0.13473(9)
H16 H 0.186693 -0.002533 0.150930
O2 O 0.04445(10) 0.6942(3) 0.02586(7)
C30 C 0.07067(15) 0.4707(4) 0.04448(10)
H17 H 0.047251 0.428878 0.076781
H18 H 0.132012 0.467665 0.058325
C31 C -0.04361(15) 0.6988(4) 0.00235(12)
H19 H -0.060547 0.852324 -0.012736
H20 H -0.071708 0.666361 0.032925
O2B O -0.04445(10) 0.3058(3) -0.02586(7)
C30B C -0.07067(15) 0.5293(4) -0.04448(10)
H17B H -0.047251 0.571122 -0.076781
H18B H -0.132012 0.532335 -0.058325
C31B C 0.04361(15) 0.3012(4) -0.00235(12)
H19B H 0.060547 0.147676 0.012736
H20B H 0.071708 0.333639 -0.032925
loop_
_geom_bond_atom_site_label_1
_geom_bond_atom_site_label_2
_geom_bond_site_symmetry_1
_geom_bond_site_symmetry_2
O1 C1 1_555 1_555
C1 C2 1_555 1_555
C2 C3 1_555 1_555
C3 H1 1_555 1_555
C4 C3 1_555 1_555
C5 C4 1_555 1_555
H2 C5 1_555 1_555
C6 C5 1_555 1_555
H3 C6 1_555 1_555
C7 C2 1_555 1_555
C8 C7 1_555 1_555
C9 C8 1_555 1_555
H4 C9 1_555 1_555
C10 C9 1_555 1_555
H5 C10 1_555 1_555
C11 C10 1_555 1_555
C12 C11 1_555 1_555
H6 C12 1_555 1_555
C13 C1 1_555 1_555
C14 C4 1_555 1_555
C15 C14 1_555 1_555
C16 C15 1_555 1_555
C17 C16 1_555 1_555
H7 C17 1_555 1_555
C18 C17 1_555 1_555
H8 C18 1_555 1_555
C19 C18 1_555 1_555
H9 C19 1_555 1_555
C20 C19 1_555 1_555
H10 C20 1_555 1_555
C21 C16 1_555 1_555
H11 C21 1_555 1_555
C22 C11 1_555 1_555
C23 C22 1_555 1_555
C24 C23 1_555 1_555
C25 C24 1_555 1_555
H12 C25 1_555 1_555
C26 C25 1_555 1_555
H13 C26 1_555 1_555
C27 C26 1_555 1_555
H14 C27 1_555 1_555
C28 C27 1_555 1_555
H15 C28 1_555 1_555
C29 C24 1_555 1_555
H16 C29 1_555 1_555
O2 C30 1_555 1_555
C30 H17 1_555 1_555
H18 C30 1_555 1_555
C31 O2 1_555 1_555
H19 C31 1_555 1_555
H20 C31 1_555 1_555
O2B C30B 1_555 1_555
C30B C31 1_555 1_555
H17B C30B 1_555 1_555
H18B C30B 1_555 1_555
C31B C30 1_555 1_555
H19B C31B 1_555 1_555
H20B C31B 1_555 1_555
C6 C7 1_555 1_555
C8 C13 1_555 1_555
C12 C13 1_555 1_555
C20 C21 1_555 1_555
C28 C29 1_555 1_555
O2B C31B 1_555 1_555

#END
