
#######################################################################
#
#                 Cambridge Crystallographic Data Centre
#                                CCDC 
#
#######################################################################
#
# If this CIF has been generated from an entry in the Cambridge 
# Structural Database, then it will include bibliographic, chemical, 
# crystal, experimental, refinement or atomic coordinate data resulting 
# from the CCDC's data processing and validation procedures.
#
#######################################################################

data_CINLUH
_chemical_formula_moiety         'C6 H22 N4 4+,4(C4 H3 O4 1-),2(H2 O1)'
_chemical_name_systematic        
'Triethylenetetraammonium tetrakis(hydrogen maleate) dihydrate'
_symmetry_cell_setting           monoclinic
_symmetry_space_group_name_H-M   'P 2/c'
_symmetry_Int_Tables_number      13
_space_group_name_Hall           '-P 2yc'
loop_
_symmetry_equiv_pos_site_id
_symmetry_equiv_pos_as_xyz
1 x,y,z
2 -x,y,1/2-z
3 -x,-y,-z
4 x,-y,1/2+z
_cell_length_a                   13.261(5)
_cell_length_b                   9.342(5)
_cell_length_c                   11.266(5)
_cell_angle_alpha                90
_cell_angle_beta                 91.010(5)
_cell_angle_gamma                90
_cell_volume                     1395.46
_exptl_crystal_colour            colorless
_exptl_crystal_description       needle
_cell_formula_units_Z            2
loop_
_atom_site_label
_atom_site_type_symbol
_atom_site_fract_x
_atom_site_fract_y
_atom_site_fract_z
O1 O 0.0000 0.09955(18) 0.2500
H14 H -0.0331(19) 0.158(3) 0.1979(19)
H14A H 0.0331(19) 0.158(3) 0.3021(19)
N1 N 0.36455(10) 0.02757(15) 0.29351(12)
C1 C 0.26557(11) 0.05495(17) 0.23293(14)
H1 H 0.2704 0.1406 0.1847
H2 H 0.2145 0.0712 0.2921
N2 N 0.13355(10) -0.04118(15) 0.10035(12)
H3 H 0.1151 -0.1147 0.0546
H4 H 0.1366 0.0379 0.0565
H5 H 0.0886 -0.0293 0.1573
C3 C 0.23428(12) -0.07039(18) 0.15491(14)
H7 H 0.2834 -0.0844 0.0932
H8 H 0.2316 -0.1571 0.2022
C4 C 0.45156(11) 0.01118(19) 0.21250(14)
H12 H 0.4429(14) -0.079(2) 0.1676(16)
H13 H 0.4482(14) 0.093(2) 0.1589(16)
H17 H 0.3609(15) -0.052(2) 0.3392(17)
H18 H 0.3766(14) 0.110(2) 0.3440(17)
N1A N 0.63545(10) 0.02757(15) 0.20649(12)
C1A C 0.73443(11) 0.05495(17) 0.26707(14)
H1A H 0.7296 0.1406 0.3153
H2A H 0.7855 0.0712 0.2079
N2A N 0.86645(10) -0.04118(15) 0.39965(12)
H3A H 0.8849 -0.1147 0.4454
H4A H 0.8634 0.0379 0.4435
H5A H 0.9114 -0.0293 0.3427
C3A C 0.76572(12) -0.07039(18) 0.34509(14)
H7A H 0.7166 -0.0844 0.4068
H8A H 0.7684 -0.1571 0.2978
C4A C 0.54844(11) 0.01118(19) 0.28750(14)
H12A H 0.5571(14) -0.079(2) 0.3324(16)
H13A H 0.5518(14) 0.093(2) 0.3411(16)
H17A H 0.6391(15) -0.052(2) 0.1608(17)
H18A H 0.6234(14) 0.110(2) 0.1560(17)
O2 O -0.10846(9) 0.23819(13) 0.07799(10)
O5 O -0.13053(10) 0.41676(14) -0.04840(10)
O6 O -0.10764(10) 0.84681(13) 0.09134(11)
C5 C -0.11762(11) 0.36876(18) 0.05633(14)
O9 O -0.13135(10) 0.67686(13) -0.04336(10)
C7 C -0.11155(13) 0.61144(19) 0.16328(14)
H9 H -0.1065 0.6504 0.2391
C8 C -0.11313(13) 0.46882(18) 0.16012(15)
H10 H -0.1111 0.4245 0.2340
C10 C -0.11653(12) 0.71882(19) 0.06543(15)
O3 O 0.64391(9) 0.16877(13) 0.52812(10)
O4 O 0.60614(9) 0.77488(13) 0.53218(10)
C2 C 0.62778(12) 0.40140(19) 0.45298(14)
H6 H 0.6269 0.3603 0.3778
O7 O 0.63156(10) 0.60103(14) 0.66246(10)
C6 C 0.63683(12) 0.29712(18) 0.55320(14)
O8 O 0.63727(11) 0.34150(14) 0.66130(10)
C9 C 0.62070(12) 0.54389(18) 0.45389(14)
H11 H 0.6160 0.5862 0.3793
C11 C 0.61917(12) 0.64639(18) 0.55594(14)
H16 H 0.634(2) 0.478(3) 0.669(3)
H15? H -0.135(2) 0.547(3) -0.047(3)
loop_
_geom_bond_atom_site_label_1
_geom_bond_atom_site_label_2
_geom_bond_site_symmetry_1
_geom_bond_site_symmetry_2
O1 H14 1_555 1_555
N1 C1 1_555 1_555
O2 C5 1_555 1_555
O3 C6 1_555 1_555
C1 H1 1_555 1_555
H2 C1 1_555 1_555
O4 C11 1_555 1_555
N2 H3 1_555 1_555
H4 N2 1_555 1_555
H5 N2 1_555 1_555
C2 H6 1_555 1_555
O5 C5 1_555 1_555
C3 C1 1_555 1_555
H7 C3 1_555 1_555
H8 C3 1_555 1_555
C4 N1 1_555 1_555
O6 C10 1_555 1_555
O7 C11 1_555 1_555
C5 C8 1_555 1_555
C6 C2 1_555 1_555
O8 C6 1_555 1_555
O9 C10 1_555 1_555
C7 H9 1_555 1_555
C8 C7 1_555 1_555
H10 C8 1_555 1_555
C9 C2 1_555 1_555
H11 C9 1_555 1_555
C10 C7 1_555 1_555
C11 C9 1_555 1_555
H12 C4 1_555 1_555
H13 C4 1_555 1_555
H16 O7 1_555 1_555
H17 N1 1_555 1_555
H18 N1 1_555 1_555
N1A C1A 1_555 1_555
C1A H1A 1_555 1_555
H2A C1A 1_555 1_555
N2A H3A 1_555 1_555
H4A N2A 1_555 1_555
H5A N2A 1_555 1_555
C3A C1A 1_555 1_555
H7A C3A 1_555 1_555
H8A C3A 1_555 1_555
C4A C4 1_555 1_555
H12A C4A 1_555 1_555
H13A C4A 1_555 1_555
H14A O1 1_555 1_555
H17A N1A 1_555 1_555
H18A N1A 1_555 1_555
N2 C3 1_555 1_555
N1A C4A 1_555 1_555
N2A C3A 1_555 1_555

#END
