
#######################################################################
#
#                 Cambridge Crystallographic Data Centre
#                                CCDC 
#
#######################################################################
#
# If this CIF has been generated from an entry in the Cambridge 
# Structural Database, then it will include bibliographic, chemical, 
# crystal, experimental, refinement or atomic coordinate data resulting 
# from the CCDC's data processing and validation procedures.
#
#######################################################################

data_CINMAQ
_chemical_formula_moiety         'C27 H25 N3 O4,C1 H2 Cl2'
_chemical_name_systematic        
"9'-(diethylamino)-1'-nitroso-1',2',3',4'-tetrahydro-3H-spiro[2-benzofuran-1,6'-[1]benzopyrano[3,2-g]quinolin]-3-one dichloromethane solvate"
_symmetry_cell_setting           monoclinic
_symmetry_space_group_name_H-M   'P 21/n'
_symmetry_Int_Tables_number      14
_space_group_name_Hall           '-P 2yn'
loop_
_symmetry_equiv_pos_site_id
_symmetry_equiv_pos_as_xyz
1 x,y,z
2 1/2-x,1/2+y,1/2-z
3 -x,-y,-z
4 1/2+x,1/2-y,1/2+z
_cell_length_a                   8.6899(13)
_cell_length_b                   20.552(3)
_cell_length_c                   14.899(2)
_cell_angle_alpha                90
_cell_angle_beta                 97.591(4)
_cell_angle_gamma                90
_cell_volume                     2637.57
_exptl_crystal_colour            colorless
_exptl_crystal_description       prismatic
_cell_formula_units_Z            4
loop_
_atom_site_label
_atom_site_type_symbol
_atom_site_fract_x
_atom_site_fract_y
_atom_site_fract_z
Cl1 Cl 0.4943(7) 0.2244(3) 0.4688(5)
Cl2 Cl 0.2750(5) 0.23581(19) 0.3128(2)
C1 C 0.3103(10) 0.2223(5) 0.4303(7)
H1 H 0.2565 0.2546 0.4605
H2 H 0.2713 0.1799 0.4427
N1 N 0.7178(5) 0.0094(2) 0.5744(3)
N2 N 0.7134(6) -0.0544(3) 0.5730(4)
N3 N -0.2128(5) -0.0188(2) 0.8423(3)
O1 O 0.4550(5) 0.24099(19) 0.9479(2)
O2 O 0.3829(3) 0.15489(16) 0.86153(18)
O3 O 0.2595(4) 0.00417(15) 0.7176(2)
O4 O 0.8160(5) -0.0794(2) 0.5339(3)
C2 C 0.3894(6) 0.2196(3) 0.8784(3)
C3 C 0.3085(5) 0.2534(2) 0.8005(3)
C4 C 0.2859(6) 0.3196(3) 0.7855(3)
H3 H 0.3272 0.3499 0.8284
C5 C 0.2017(7) 0.3391(3) 0.7065(4)
H4 H 0.1857 0.3832 0.6951
C6 C 0.1403(6) 0.2942(3) 0.6434(3)
H5 H 0.0823 0.3083 0.5901
C7 C 0.1633(5) 0.2287(3) 0.6578(3)
H6 H 0.1225 0.1984 0.6147
C8 C 0.2481(5) 0.2090(2) 0.7376(3)
C9 C 0.2919(5) 0.1409(2) 0.7710(3)
C10 C 0.1582(5) 0.0993(2) 0.7855(3)
C11 C 0.0375(6) 0.1223(2) 0.8292(3)
H7 H 0.0384 0.1659 0.8460
C12 C -0.0819(6) 0.0845(3) 0.8487(3)
H8 H -0.1584 0.1024 0.8793
C13 C -0.0915(6) 0.0185(3) 0.8234(3)
C14 C 0.0279(5) -0.0054(2) 0.7790(3)
H9 H 0.0267 -0.0488 0.7610
C15 C 0.1481(5) 0.0345(2) 0.7615(3)
C16 C 0.3801(5) 0.0413(2) 0.6940(3)
C17 C 0.3999(5) 0.1061(2) 0.7157(3)
C18 C 0.5248(6) 0.1376(2) 0.6875(3)
H10 H 0.5381 0.1817 0.7006
C19 C 0.6312(5) 0.1071(3) 0.6406(3)
C20 C 0.6069(5) 0.0417(3) 0.6213(3)
C21 C 0.4832(5) 0.0085(2) 0.6475(3)
H11 H 0.4692 -0.0355 0.6341
C22 C 0.7679(6) 0.1432(3) 0.6128(3)
H12 H 0.7426 0.1890 0.6045
H13 H 0.8562 0.1394 0.6596
C23 C 0.8071(7) 0.1149(3) 0.5262(4)
H14 H 0.7214 0.1224 0.4786
H15 H 0.8977 0.1368 0.5093
C24 C 0.8385(6) 0.0444(3) 0.5338(4)
H16 H 0.8451 0.0269 0.4740
H17 H 0.9379 0.0376 0.5704
C25 C -0.3308(6) 0.0068(3) 0.8937(4)
H18 H -0.4212 -0.0213 0.8840
H19 H -0.3621 0.0495 0.8700
C26 C -0.2804(8) 0.0128(4) 0.9945(4)
H20 H -0.2610 -0.0297 1.0202
H21 H -0.3609 0.0336 1.0224
H22 H -0.1873 0.0384 1.0050
C27 C -0.2237(7) -0.0863(4) 0.8184(4)
H23 H -0.1794 -0.0923 0.7625
H24 H -0.3326 -0.0980 0.8065
C28 C -0.1475(12) -0.1310(4) 0.8856(6)
H25 H -0.0419 -0.1175 0.9026
H26 H -0.1493 -0.1741 0.8606
H27 H -0.2010 -0.1308 0.9380
Cl3? Cl 0.3908(14) 0.2076(5) 0.3392(8)
Cl4? Cl 0.4384(8) 0.2633(3) 0.4980(4)
H28? H 0.2165 0.2470 0.4162
H29? H 0.2893 0.1818 0.4587
loop_
_geom_bond_atom_site_label_1
_geom_bond_atom_site_label_2
_geom_bond_site_symmetry_1
_geom_bond_site_symmetry_2
Cl1 C1 1_555 1_555
Cl2 C1 1_555 1_555
C1 H1 1_555 1_555
H2 C1 1_555 1_555
N1 N2 1_555 1_555
N2 O4 1_555 1_555
N3 C13 1_555 1_555
O1 C2 1_555 1_555
O2 C2 1_555 1_555
O3 C15 1_555 1_555
C2 C3 1_555 1_555
C3 C4 1_555 1_555
C4 H3 1_555 1_555
C5 C4 1_555 1_555
H4 C5 1_555 1_555
C6 C5 1_555 1_555
H5 C6 1_555 1_555
C7 C6 1_555 1_555
H6 C7 1_555 1_555
C8 C3 1_555 1_555
C9 O2 1_555 1_555
C10 C9 1_555 1_555
C11 C10 1_555 1_555
H7 C11 1_555 1_555
C12 C11 1_555 1_555
H8 C12 1_555 1_555
C13 C12 1_555 1_555
C14 C13 1_555 1_555
H9 C14 1_555 1_555
C15 C10 1_555 1_555
C16 O3 1_555 1_555
C17 C9 1_555 1_555
C18 C17 1_555 1_555
H10 C18 1_555 1_555
C19 C18 1_555 1_555
C20 N1 1_555 1_555
C21 C16 1_555 1_555
H11 C21 1_555 1_555
C22 C19 1_555 1_555
H12 C22 1_555 1_555
H13 C22 1_555 1_555
C23 C22 1_555 1_555
H14 C23 1_555 1_555
H15 C23 1_555 1_555
C24 N1 1_555 1_555
H16 C24 1_555 1_555
H17 C24 1_555 1_555
C25 N3 1_555 1_555
H18 C25 1_555 1_555
H19 C25 1_555 1_555
C26 C25 1_555 1_555
H20 C26 1_555 1_555
H21 C26 1_555 1_555
H22 C26 1_555 1_555
C27 N3 1_555 1_555
H23 C27 1_555 1_555
H24 C27 1_555 1_555
C28 C27 1_555 1_555
H25 C28 1_555 1_555
H26 C28 1_555 1_555
H27 C28 1_555 1_555
C7 C8 1_555 1_555
C8 C9 1_555 1_555
C14 C15 1_555 1_555
C16 C17 1_555 1_555
C19 C20 1_555 1_555
C20 C21 1_555 1_555
C23 C24 1_555 1_555

#END
