
#######################################################################
#
#                 Cambridge Crystallographic Data Centre
#                                CCDC 
#
#######################################################################
#
# If this CIF has been generated from an entry in the Cambridge 
# Structural Database, then it will include bibliographic, chemical, 
# crystal, experimental, refinement or atomic coordinate data resulting 
# from the CCDC's data processing and validation procedures.
#
#######################################################################

data_CINMAC10
_chemical_name_common            'trans-cinnamic acid'
_chemical_formula_moiety         'C9 H8 O2'
_chemical_name_systematic        '3-phenylprop-2-enoic acid'
_symmetry_cell_setting           monoclinic
_symmetry_space_group_name_H-M   'P 21/n'
_symmetry_Int_Tables_number      14
_space_group_name_Hall           '-P 2yn'
loop_
_symmetry_equiv_pos_site_id
_symmetry_equiv_pos_as_xyz
1 x,y,z
2 1/2-x,1/2+y,1/2-z
3 -x,-y,-z
4 1/2+x,1/2-y,1/2+z
_cell_length_a                   5.5531(4)
_cell_length_b                   17.5178(13)
_cell_length_c                   7.7056(6)
_cell_angle_alpha                90
_cell_angle_beta                 96.267(6)
_cell_angle_gamma                90
_cell_volume                     745.107
_exptl_crystal_colour            colorless
_exptl_crystal_description       plate
_cell_formula_units_Z            4
loop_
_atom_site_label
_atom_site_type_symbol
_atom_site_fract_x
_atom_site_fract_y
_atom_site_fract_z
O1 O 0.7333(2) 0.54983(6) 0.91791(14)
H1 H 0.836(3) 0.5289(11) 1.035(3)
O2 O 1.05036(18) 0.50691(6) 0.79006(14)
C1 C 0.8484(3) 0.53836(8) 0.7810(2)
C2 C 0.7290(3) 0.56501(8) 0.6139(2)
H2 H 0.8051 0.5556 0.5114
C3 C 0.5181(3) 0.60201(8) 0.59870(19)
H3 H 0.4455 0.6100 0.7033
C4 C 0.3864(3) 0.63156(8) 0.4377(2)
C5 C 0.4658(3) 0.61955(8) 0.2741(2)
H4 H 0.6095 0.5911 0.2653
C6 C 0.3377(3) 0.64862(9) 0.1249(2)
H5 H 0.3940 0.6401 0.0145
C7 C 0.1268(3) 0.69024(9) 0.1357(2)
H6 H 0.0381 0.7098 0.0329
C8 C 0.0470(3) 0.70297(9) 0.2971(2)
H7 H -0.0962 0.7318 0.3052
C9 C 0.1752(3) 0.67382(8) 0.4470(2)
H8 H 0.1186 0.6827 0.5572
loop_
_geom_bond_atom_site_label_1
_geom_bond_atom_site_label_2
_geom_bond_site_symmetry_1
_geom_bond_site_symmetry_2
O1 H1 1_555 1_555
O2 C1 1_555 1_555
C1 O1 1_555 1_555
C2 C1 1_555 1_555
H2 C2 1_555 1_555
C3 C2 1_555 1_555
H3 C3 1_555 1_555
C4 C3 1_555 1_555
C5 C4 1_555 1_555
H4 C5 1_555 1_555
C6 C5 1_555 1_555
H5 C6 1_555 1_555
C7 C6 1_555 1_555
H6 C7 1_555 1_555
C8 C7 1_555 1_555
H7 C8 1_555 1_555
C9 C4 1_555 1_555
H8 C9 1_555 1_555
C8 C9 1_555 1_555

#END
