
#######################################################################
#
#                 Cambridge Crystallographic Data Centre
#                                CCDC 
#
#######################################################################
#
# If this CIF has been generated from an entry in the Cambridge 
# Structural Database, then it will include bibliographic, chemical, 
# crystal, experimental, refinement or atomic coordinate data resulting 
# from the CCDC's data processing and validation procedures.
#
#######################################################################

data_CINMER07
_chemical_name_common            'Chincomeronic acid'
_chemical_formula_moiety         'C7 H5 N1 O4'
_chemical_name_systematic        '3,4-Pyridinedicarboxylic acid'
_symmetry_cell_setting           orthorhombic
_symmetry_space_group_name_H-M   'P 21 21 21'
_symmetry_Int_Tables_number      19
_space_group_name_Hall           'P 2ac 2ab'
loop_
_symmetry_equiv_pos_site_id
_symmetry_equiv_pos_as_xyz
1 x,y,z
2 1/2+x,1/2-y,-z
3 -x,1/2+y,1/2-z
4 1/2-x,-y,1/2+z
_cell_length_a                   5.260(2)
_cell_length_b                   11.201(5)
_cell_length_c                   11.275(5)
_cell_angle_alpha                90
_cell_angle_beta                 90
_cell_angle_gamma                90
_cell_volume                     664.292
_exptl_crystal_description       'thin prisms'
_cell_formula_units_Z            4
_exptl_crystal_recrystallization_method water
loop_
_atom_site_label
_atom_site_type_symbol
_atom_site_fract_x
_atom_site_fract_y
_atom_site_fract_z
O1 O 0.2925(3) 0.39568(12) 0.40997(14)
O2 O 0.7521(3) 0.57122(13) 0.07222(13)
O3 O 0.4757(3) 0.55348(13) 0.32612(15)
C1 C 0.6396(3) 0.36293(15) 0.28329(15)
N1 N 0.9249(3) 0.20344(14) 0.30200(16)
C2 C 0.7318(3) 0.38397(13) 0.16945(15)
C3 C 0.6242(4) 0.48102(15) 0.09004(15)
O4 O 0.4175(3) 0.45603(15) 0.04509(16)
C4 C 0.4573(3) 0.44741(16) 0.34159(15)
C5 C 0.7388(4) 0.26957(16) 0.34751(17)
C6 C 0.9231(4) 0.31165(19) 0.12479(19)
C7 C 1.0181(4) 0.22253(18) 0.1936(2)
H1 H 0.664(4) 0.2500(19) 0.4254(18)
H2 H 1.147(4) 0.174(2) 0.170(2)
H3 H 0.993(5) 0.324(2) 0.046(2)
H4 H 1.012(5) 0.145(3) 0.350(3)
H5 H 0.213(7) 0.453(3) 0.461(3)
loop_
_geom_bond_atom_site_label_1
_geom_bond_atom_site_label_2
_geom_bond_site_symmetry_1
_geom_bond_site_symmetry_2
O1 C4 1_555 1_555
O2 C3 1_555 1_555
O3 C4 1_555 1_555
C1 C2 1_555 1_555
N1 C5 1_555 1_555
C2 C3 1_555 1_555
C3 O4 1_555 1_555
C4 C1 1_555 1_555
C5 C1 1_555 1_555
C6 C2 1_555 1_555
C7 N1 1_555 1_555
H1 C5 1_555 1_555
H2 C7 1_555 1_555
H3 C6 1_555 1_555
H4 N1 1_555 1_555
H5 O1 1_555 1_555
C6 C7 1_555 1_555

#END
