
#######################################################################
#
#                 Cambridge Crystallographic Data Centre
#                                CCDC 
#
#######################################################################
#
# If this CIF has been generated from an entry in the Cambridge 
# Structural Database, then it will include bibliographic, chemical, 
# crystal, experimental, refinement or atomic coordinate data resulting 
# from the CCDC's data processing and validation procedures.
#
#######################################################################

data_CINMER05
_chemical_name_common            'Chincomeronic acid'
_chemical_formula_moiety         'C7 H5 N1 O4'
_chemical_name_systematic        '3,4-Pyridinedicarboxylic acid'
_symmetry_cell_setting           monoclinic
_symmetry_space_group_name_H-M   'P 21/c'
_symmetry_Int_Tables_number      14
_space_group_name_Hall           '-P 2ybc'
loop_
_symmetry_equiv_pos_site_id
_symmetry_equiv_pos_as_xyz
1 x,y,z
2 -x,1/2+y,1/2-z
3 -x,-y,-z
4 x,1/2-y,1/2+z
_cell_length_a                   7.7185(14)
_cell_length_b                   7.3248(13)
_cell_length_c                   12.179(2)
_cell_angle_alpha                90
_cell_angle_beta                 103.884(4)
_cell_angle_gamma                90
_cell_volume                     668.44
_exptl_crystal_description       blocks
_cell_formula_units_Z            4
_exptl_crystal_recrystallization_method water
loop_
_atom_site_label
_atom_site_type_symbol
_atom_site_fract_x
_atom_site_fract_y
_atom_site_fract_z
N1 N 0.7083(5) -0.0894(5) 0.6919(3)
O1 O 0.7420(5) -0.5938(4) 0.5388(3)
O2 O 0.7216(5) -0.5991(4) 0.9503(3)
C1 C 0.7828(6) -0.0848(5) 0.8030(4)
O3 O 0.6129(6) -0.7171(4) 0.6642(3)
C2 C 0.7802(4) -0.4085(5) 0.8093(3)
C3 C 0.7150(4) -0.4124(5) 0.6919(3)
C4 C 0.6773(5) -0.2488(5) 0.6342(3)
C5 C 0.8194(5) -0.2399(5) 0.8631(4)
O4 O 0.9296(5) -0.6870(5) 0.8645(3)
C6 C 0.8178(5) -0.5816(5) 0.8786(3)
C7 C 0.6841(5) -0.5914(5) 0.6276(3)
H1 H 0.631(5) -0.246(6) 0.553(3)
H2 H 0.869(6) -0.232(6) 0.939(4)
H3 H 0.818(6) 0.012(6) 0.831(4)
H4 H 0.678(7) 0.033(8) 0.649(5)
H5 H 0.729(9) -0.744(11) 0.993(5)
loop_
_geom_bond_atom_site_label_1
_geom_bond_atom_site_label_2
_geom_bond_site_symmetry_1
_geom_bond_site_symmetry_2
N1 C1 1_555 1_555
O1 C7 1_555 1_555
O2 C6 1_555 1_555
C1 C5 1_555 1_555
O3 C7 1_555 1_555
C2 C3 1_555 1_555
C3 C4 1_555 1_555
C4 N1 1_555 1_555
C5 C2 1_555 1_555
O4 C6 1_555 1_555
C6 C2 1_555 1_555
C7 C3 1_555 1_555
H1 C4 1_555 1_555
H2 C5 1_555 1_555
H3 C1 1_555 1_555
H4 N1 1_555 1_555
H5 O2 1_555 1_555

#END
