
#######################################################################
#
#                 Cambridge Crystallographic Data Centre
#                                CCDC 
#
#######################################################################
#
# If this CIF has been generated from an entry in the Cambridge 
# Structural Database, then it will include bibliographic, chemical, 
# crystal, experimental, refinement or atomic coordinate data resulting 
# from the CCDC's data processing and validation procedures.
#
#######################################################################

data_CINMET
_chemical_formula_moiety         'C25 H28 O6'
_chemical_name_systematic        
1,7-bis(4-ethoxy-3-methoxyphenyl)-5-hydroxyhepta-1,4,6-trien-3-one
_symmetry_cell_setting           monoclinic
_symmetry_space_group_name_H-M   'P 21/n'
_symmetry_Int_Tables_number      14
_space_group_name_Hall           '-P 2yn'
loop_
_symmetry_equiv_pos_site_id
_symmetry_equiv_pos_as_xyz
1 x,y,z
2 1/2-x,1/2+y,1/2-z
3 -x,-y,-z
4 1/2+x,1/2-y,1/2+z
_cell_length_a                   22.689(5)
_cell_length_b                   4.913(5)
_cell_length_c                   23.224(5)
_cell_angle_alpha                90
_cell_angle_beta                 115.744(5)
_cell_angle_gamma                90
_cell_volume                     2331.85
_exptl_crystal_colour            orange
_exptl_crystal_description       needle
_cell_formula_units_Z            4
loop_
_atom_site_label
_atom_site_type_symbol
_atom_site_fract_x
_atom_site_fract_y
_atom_site_fract_z
O1 O 0.87768(9) 0.9447(4) 0.47584(9)
O2 O 0.94682(9) 0.6558(4) 0.43425(8)
O3 O 0.93174(10) -0.0204(4) -0.23218(10)
C1 C 0.90302(12) 0.8301(5) 0.39042(12)
O4 O 0.79386(12) 1.1242(5) 0.08609(10)
H1 H 0.7888 1.1274 0.0489
C2 C 0.86636(13) 0.9924(6) 0.41385(13)
C3 C 0.84776(12) 1.0485(5) 0.28617(12)
O5 O 0.83632(10) 0.3267(5) -0.28371(10)
C4 C 0.89295(12) 0.8557(5) 0.32774(12)
H2 H 0.9161 0.7449 0.3123
C5 C 0.83568(14) 0.9349(6) 0.11720(14)
C6 C 0.84662(15) 0.4692(6) -0.17891(14)
H3 H 0.8130 0.5951 -0.1972
O6 O 0.80147(12) 0.9682(5) -0.01354(10)
C7 C 0.83342(13) 1.0689(6) 0.21879(13)
H4 H 0.8067 1.2131 0.1965
C8 C 0.86451(14) 0.3127(6) -0.21829(14)
C9 C 0.87770(15) 0.4435(6) -0.11228(14)
C10 C 0.82330(13) 1.1846(6) 0.37390(13)
H5 H 0.8001 1.2957 0.3892
C11 C 0.91695(15) 0.1238(6) -0.18980(15)
C12 C 0.81456(13) 1.2127(6) 0.31125(13)
H6 H 0.7858 1.3445 0.2854
C13 C 0.86122(14) 0.7640(6) 0.08526(13)
H7 H 0.8912 0.6308 0.1087
C14 C 0.85541(16) 0.6151(6) -0.07369(15)
H8 H 0.8260 0.7520 -0.0958
C15 C 0.84385(15) 0.7846(7) 0.02038(14)
C16 C 0.85385(13) 0.9064(6) 0.18490(13)
H9 H 0.8819 0.7643 0.2064
C17 C 0.92955(16) 0.2579(6) -0.08504(15)
H10 H 0.9512 0.2395 -0.0408
C18 C 0.94874(15) 0.1008(6) -0.12401(16)
H11 H 0.9833 -0.0209 -0.1055
C19 C 0.98760(14) 0.4963(6) 0.41423(14)
H12 H 0.9607 0.3838 0.3787
H13 H 1.0159 0.3834 0.4490
H14 H 1.0135 0.6151 0.4016
C20 C 0.83895(16) 1.0950(7) 0.50084(14)
H15 H 0.7927 1.0708 0.4734
H16 H 0.8491 1.2877 0.5030
C21 C 0.87148(16) 0.6013(6) -0.01191(15)
H17 H 0.9016 0.4701 0.0123
C22 C 0.98527(15) -0.2098(6) -0.20704(15)
H18 H 0.9774 -0.3464 -0.1811
H19 H 1.0257 -0.1158 -0.1808
C23 C 0.79363(15) 0.5503(7) -0.31332(15)
H20 H 0.7567 0.5420 -0.3036
H21 H 0.7788 0.5411 -0.3588
H22 H 0.8167 0.7181 -0.2975
C24 C 0.98953(17) -0.3410(8) -0.26404(18)
H23 H 0.9491 -0.4319 -0.2897
H24 H 1.0247 -0.4708 -0.2495
H25 H 0.9976 -0.2036 -0.2892
C25 C 0.8558(2) 0.9848(8) 0.56681(16)
H26 H 0.8449 0.7950 0.5639
H27 H 0.8316 1.0820 0.5853
H28 H 0.9019 1.0072 0.5932
loop_
_geom_bond_atom_site_label_1
_geom_bond_atom_site_label_2
_geom_bond_site_symmetry_1
_geom_bond_site_symmetry_2
O1 C2 1_555 1_555
O2 C1 1_555 1_555
O3 C11 1_555 1_555
C1 C2 1_555 1_555
O4 H1 1_555 1_555
C2 C10 1_555 1_555
C3 C4 1_555 1_555
O5 C8 1_555 1_555
C4 C1 1_555 1_555
H2 C4 1_555 1_555
C5 O4 1_555 1_555
C6 H3 1_555 1_555
O6 C15 1_555 1_555
C7 C3 1_555 1_555
H4 C7 1_555 1_555
C8 C6 1_555 1_555
C9 C6 1_555 1_555
C10 H5 1_555 1_555
C11 C8 1_555 1_555
C12 C3 1_555 1_555
H6 C12 1_555 1_555
C13 C5 1_555 1_555
H7 C13 1_555 1_555
C14 C9 1_555 1_555
H8 C14 1_555 1_555
C15 C13 1_555 1_555
C16 C5 1_555 1_555
H9 C16 1_555 1_555
C17 C9 1_555 1_555
H10 C17 1_555 1_555
C18 C11 1_555 1_555
H11 C18 1_555 1_555
C19 O2 1_555 1_555
H12 C19 1_555 1_555
H13 C19 1_555 1_555
H14 C19 1_555 1_555
C20 O1 1_555 1_555
H15 C20 1_555 1_555
H16 C20 1_555 1_555
C21 C14 1_555 1_555
H17 C21 1_555 1_555
C22 O3 1_555 1_555
H18 C22 1_555 1_555
H19 C22 1_555 1_555
C23 O5 1_555 1_555
H20 C23 1_555 1_555
H21 C23 1_555 1_555
H22 C23 1_555 1_555
C24 C22 1_555 1_555
H23 C24 1_555 1_555
H24 C24 1_555 1_555
H25 C24 1_555 1_555
C25 C20 1_555 1_555
H26 C25 1_555 1_555
H27 C25 1_555 1_555
H28 C25 1_555 1_555
C7 C16 1_555 1_555
C10 C12 1_555 1_555
C15 C21 1_555 1_555
C17 C18 1_555 1_555

#END
