
#######################################################################
#
#                 Cambridge Crystallographic Data Centre
#                                CCDC 
#
#######################################################################
#
# If this CIF has been generated from an entry in the Cambridge 
# Structural Database, then it will include bibliographic, chemical, 
# crystal, experimental, refinement or atomic coordinate data resulting 
# from the CCDC's data processing and validation procedures.
#
#######################################################################

data_CINMER06
_chemical_name_common            'Chincomeronic acid'
_chemical_formula_moiety         'C7 H5 N1 O4'
_chemical_name_systematic        '3,4-Pyridinedicarboxylic acid'
_symmetry_cell_setting           orthorhombic
_symmetry_space_group_name_H-M   'P 21 21 21'
_symmetry_Int_Tables_number      19
_space_group_name_Hall           'P 2ac 2ab'
loop_
_symmetry_equiv_pos_site_id
_symmetry_equiv_pos_as_xyz
1 x,y,z
2 1/2+x,1/2-y,-z
3 -x,1/2+y,1/2-z
4 1/2-x,-y,1/2+z
_cell_length_a                   5.2948(5)
_cell_length_b                   11.1107(11)
_cell_length_c                   11.1385(11)
_cell_angle_alpha                90
_cell_angle_beta                 90
_cell_angle_gamma                90
_cell_volume                     655.266
_exptl_crystal_description       'thin prisms'
_cell_formula_units_Z            4
_exptl_crystal_recrystallization_method water
loop_
_atom_site_label
_atom_site_type_symbol
_atom_site_fract_x
_atom_site_fract_y
_atom_site_fract_z
O1 O 0.03487(19) 0.15715(9) 0.64334(9)
N1 N 0.6740(2) 0.05308(11) 0.44822(10)
O2 O 0.5123(2) -0.18618(9) 0.81794(9)
O3 O 0.2238(2) 0.07111(10) 0.80207(9)
C1 C 0.3869(2) 0.03108(12) 0.60893(11)
C2 C 0.3797(2) -0.16468(11) 0.72820(11)
O4 O 0.1651(2) -0.20689(10) 0.70553(10)
C3 C 0.2037(2) 0.08845(11) 0.69489(12)
C4 C 0.4854(2) -0.08381(11) 0.63078(11)
C5 C 0.7736(3) -0.05590(13) 0.46798(12)
C6 C 0.6805(2) -0.12770(13) 0.55876(12)
C7 C 0.4831(3) 0.09764(11) 0.51433(11)
H1 H 0.426(4) 0.1782(17) 0.4967(16)
H2 H 0.749(4) -0.2075(17) 0.5665(16)
H3 H 0.910(3) -0.0765(16) 0.4188(16)
H4 H 0.749(4) 0.0974(18) 0.3921(18)
H5 H -0.027(6) 0.207(2) 0.700(2)
loop_
_geom_bond_atom_site_label_1
_geom_bond_atom_site_label_2
_geom_bond_site_symmetry_1
_geom_bond_site_symmetry_2
O1 C3 1_555 1_555
N1 C5 1_555 1_555
O2 C2 1_555 1_555
O3 C3 1_555 1_555
C1 C3 1_555 1_555
C2 O4 1_555 1_555
C4 C1 1_555 1_555
C5 C6 1_555 1_555
C6 C4 1_555 1_555
C7 N1 1_555 1_555
H1 C7 1_555 1_555
H2 C6 1_555 1_555
H3 C5 1_555 1_555
H4 N1 1_555 1_555
H5 O1 1_555 1_555
C1 C7 1_555 1_555
C2 C4 1_555 1_555

#END
