
#######################################################################
#
#                 Cambridge Crystallographic Data Centre
#                                CCDC 
#
#######################################################################
#
# If this CIF has been generated from an entry in the Cambridge 
# Structural Database, then it will include bibliographic, chemical, 
# crystal, experimental, refinement or atomic coordinate data resulting 
# from the CCDC's data processing and validation procedures.
#
#######################################################################

data_CINMAO
_chemical_formula_moiety         'C6 H22 N4 4+,2(C4 H4 O4 2-)'
_chemical_name_systematic        'Triethylenetetraammonium bis(succinate)'
_symmetry_cell_setting           monoclinic
_symmetry_space_group_name_H-M   'C 2/c'
_symmetry_Int_Tables_number      15
_space_group_name_Hall           '-C 2yn'
loop_
_symmetry_equiv_pos_site_id
_symmetry_equiv_pos_as_xyz
1 x,y,z
2 1/2+x,1/2+y,z
3 -x,y,1/2-z
4 1/2-x,1/2+y,1/2-z
5 -x,-y,-z
6 1/2-x,1/2-y,-z
7 x,-y,1/2+z
8 1/2+x,1/2-y,1/2+z
_cell_length_a                   14.0595(2)
_cell_length_b                   9.16920(10)
_cell_length_c                   13.6466(2)
_cell_angle_alpha                90
_cell_angle_beta                 92.4700(10)
_cell_angle_gamma                90
_cell_volume                     1757.61
_exptl_crystal_colour            colorless
_exptl_crystal_description       plate
_cell_formula_units_Z            4
_exptl_crystal_recrystallization_method water/ethanol
loop_
_atom_site_label
_atom_site_type_symbol
_atom_site_fract_x
_atom_site_fract_y
_atom_site_fract_z
N1 N 0.26797(8) 0.28181(13) 0.13629(7)
H1 H 0.2132 0.3317 0.1406
H2 H 0.3161 0.3465 0.1374
C2 C 0.29553(9) 0.26210(15) 0.31938(9)
H3 H 0.2542 0.3468 0.3189
H4 H 0.2772 0.1990 0.3724
N2 N 0.39561(8) 0.31057(13) 0.33903(8)
H5 H 0.4002 0.3571 0.3963
H6 H 0.4126 0.3704 0.2915
H7 H 0.4339 0.2332 0.3411
C4 C 0.26629(10) 0.19922(15) 0.04179(9)
H8 H 0.2230 0.1171 0.0451
H9 H 0.3294 0.1619 0.0301
C5 C 0.28026(10) 0.18090(15) 0.22253(9)
H10 H 0.3344 0.1178 0.2129
H11 H 0.2242 0.1198 0.2258
N1E N 0.23203(8) 0.21819(13) -0.13629(7)
H1E H 0.2868 0.1683 -0.1406
H2E H 0.1839 0.1535 -0.1374
C2E C 0.20447(9) 0.23790(15) -0.31938(9)
H3E H 0.2458 0.1532 -0.3189
H4E H 0.2228 0.3010 -0.3724
N2E N 0.10439(8) 0.18943(13) -0.33903(8)
H5E H 0.0998 0.1429 -0.3963
H6E H 0.0874 0.1296 -0.2915
H7E H 0.0661 0.2668 -0.3411
C4E C 0.23371(10) 0.30078(15) -0.04179(9)
H8E H 0.2770 0.3829 -0.0451
H9E H 0.1706 0.3381 -0.0301
C5E C 0.21974(10) 0.31910(15) -0.22253(9)
H10E H 0.1656 0.3822 -0.2129
H11E H 0.2758 0.3802 -0.2258
C1 C 0.02087(9) 0.46740(15) 0.12807(9)
O1 O -0.01811(7) 0.59170(11) 0.12408(7)
O2 O -0.12605(7) 0.06543(12) 0.01696(7)
C3 C -0.07602(9) 0.06861(15) 0.09547(9)
O3 O 0.10924(7) 0.44732(11) 0.14247(7)
O4 O -0.08766(7) -0.01954(11) 0.16554(7)
C6 C -0.00002(10) 0.18706(16) 0.10789(10)
H12 H 0.0401 0.1864 0.0518
H13 H 0.0398 0.1674 0.1662
C7 C -0.04668(9) 0.33732(16) 0.11699(10)
H14 H -0.0881 0.3531 0.0593
H15 H -0.0865 0.3355 0.1733
loop_
_geom_bond_atom_site_label_1
_geom_bond_atom_site_label_2
_geom_bond_site_symmetry_1
_geom_bond_site_symmetry_2
N1 H1 1_555 1_555
H2 N1 1_555 1_555
C1 O1 1_555 1_555
C2 H3 1_555 1_555
H4 C2 1_555 1_555
O2 C3 1_555 1_555
C3 O4 1_555 1_555
O3 C1 1_555 1_555
N2 C2 1_555 1_555
H5 N2 1_555 1_555
H6 N2 1_555 1_555
H7 N2 1_555 1_555
C4 N1 1_555 1_555
H8 C4 1_555 1_555
H9 C4 1_555 1_555
C5 N1 1_555 1_555
H10 C5 1_555 1_555
H11 C5 1_555 1_555
C6 C3 1_555 1_555
H12 C6 1_555 1_555
H13 C6 1_555 1_555
C7 C1 1_555 1_555
H14 C7 1_555 1_555
H15 C7 1_555 1_555
N1E H1E 1_555 1_555
H2E N1E 1_555 1_555
C2E H3E 1_555 1_555
H4E C2E 1_555 1_555
N2E C2E 1_555 1_555
H5E N2E 1_555 1_555
H6E N2E 1_555 1_555
H7E N2E 1_555 1_555
C4E C4 1_555 1_555
H8E C4E 1_555 1_555
H9E C4E 1_555 1_555
C5E N1E 1_555 1_555
H10E C5E 1_555 1_555
H11E C5E 1_555 1_555
C2 C5 1_555 1_555
C6 C7 1_555 1_555
N1E C4E 1_555 1_555
C2E C5E 1_555 1_555

#END
