
#######################################################################
#
#                 Cambridge Crystallographic Data Centre
#                                CCDC 
#
#######################################################################
#
# If this CIF has been generated from an entry in the Cambridge 
# Structural Database, then it will include bibliographic, chemical, 
# crystal, experimental, refinement or atomic coordinate data resulting 
# from the CCDC's data processing and validation procedures.
#
#######################################################################

data_CINRID
_chemical_name_common            
3-[(1,3,3-trimethlyindolin-2-ylidene)methyl]isobenzofuran-1(3H)-one
_chemical_formula_moiety         'C20 H19 N1 O2'
_chemical_name_systematic        
3-[(1,3,3-trimethyl-1,3-dihydro-2H-indol-2-ylidene)methyl]-2-benzofuran-1(3H)-one
_symmetry_cell_setting           monoclinic
_symmetry_space_group_name_H-M   'P 21/c'
_symmetry_Int_Tables_number      14
_space_group_name_Hall           '-P 2ybc'
loop_
_symmetry_equiv_pos_site_id
_symmetry_equiv_pos_as_xyz
1 x,y,z
2 -x,1/2+y,1/2-z
3 -x,-y,-z
4 x,1/2-y,1/2+z
_cell_length_a                   11.914(17)
_cell_length_b                   11.26(2)
_cell_length_c                   12.519(19)
_cell_angle_alpha                90
_cell_angle_beta                 105.53(5)
_cell_angle_gamma                90
_cell_volume                     1618.13
_exptl_crystal_colour            yellow
_exptl_crystal_description       block
_cell_formula_units_Z            4
_exptl_crystal_recrystallization_method acetone
loop_
_atom_site_label
_atom_site_type_symbol
_atom_site_fract_x
_atom_site_fract_y
_atom_site_fract_z
O1 O 0.1615(2) 0.5392(3) 0.4992(3)
N1 N 0.4605(2) 0.5519(3) 0.8197(3)
C1 C 0.4883(3) 0.6451(3) 0.8976(3)
O2 O 0.0784(3) 0.5104(4) 0.3108(3)
C2 C 0.5910(3) 0.6747(4) 0.9712(4)
H1 H 0.657521 0.629810 0.975187
C3 C 0.5964(4) 0.7731(4) 1.0410(4)
H2 H 0.666996 0.792032 1.091149
C4 C 0.5045(4) 0.8396(4) 1.0378(4)
H3 H 0.509278 0.904645 1.084623
C5 C 0.4020(4) 0.8095(4) 0.9633(3)
H4 H 0.335754 0.854816 0.959194
C6 C 0.3950(3) 0.7120(3) 0.8932(3)
C7 C 0.2960(3) 0.6592(3) 0.8058(3)
C8 C 0.3491(3) 0.5533(3) 0.7595(3)
C9 C 0.5377(3) 0.4609(4) 0.8082(4)
H5 H 0.503959 0.416457 0.741993
H6 H 0.551739 0.409056 0.871296
H7 H 0.609973 0.495336 0.803632
C10 C 0.2088(3) 0.6211(4) 0.8673(4)
H8 H 0.142440 0.585750 0.816239
H9 H 0.184249 0.689150 0.901466
H10 H 0.244255 0.564312 0.923396
C11 C 0.2472(3) 0.7478(4) 0.7082(4)
H11 H 0.306666 0.765109 0.671705
H12 H 0.223614 0.820004 0.736819
H13 H 0.181340 0.712855 0.656119
C12 C 0.3038(3) 0.4762(4) 0.6760(4)
H14 H 0.354698 0.420645 0.659939
C13 C 0.1852(3) 0.4715(4) 0.6099(4)
H15 H 0.134089 0.502377 0.653111
C14 C 0.1095(4) 0.4715(5) 0.4085(4)
C15 C 0.0990(3) 0.3517(4) 0.4507(4)
C16 C 0.1452(3) 0.3504(4) 0.5683(4)
C17 C 0.1513(4) 0.2467(5) 0.6295(4)
H16 H 0.181625 0.245075 0.706057
C18 C 0.1090(4) 0.1455(5) 0.5687(5)
H17 H 0.111732 0.073659 0.606003
C19 C 0.0614(4) 0.1474(5) 0.4508(5)
H18 H 0.033258 0.077159 0.414351
C20 C 0.0561(3) 0.2503(5) 0.3897(4)
H19 H 0.025983 0.251742 0.313050
loop_
_geom_bond_atom_site_label_1
_geom_bond_atom_site_label_2
_geom_bond_site_symmetry_1
_geom_bond_site_symmetry_2
O1 C13 1_555 1_555
N1 C1 1_555 1_555
C1 C2 1_555 1_555
O2 C14 1_555 1_555
C2 H1 1_555 1_555
C3 C2 1_555 1_555
H2 C3 1_555 1_555
C4 C3 1_555 1_555
H3 C4 1_555 1_555
C5 C4 1_555 1_555
H4 C5 1_555 1_555
C6 C1 1_555 1_555
C7 C6 1_555 1_555
C8 N1 1_555 1_555
C9 N1 1_555 1_555
H5 C9 1_555 1_555
H6 C9 1_555 1_555
H7 C9 1_555 1_555
C10 C7 1_555 1_555
H8 C10 1_555 1_555
H9 C10 1_555 1_555
H10 C10 1_555 1_555
C11 C7 1_555 1_555
H11 C11 1_555 1_555
H12 C11 1_555 1_555
H13 C11 1_555 1_555
C12 C8 1_555 1_555
H14 C12 1_555 1_555
C13 C12 1_555 1_555
H15 C13 1_555 1_555
C14 O1 1_555 1_555
C15 C14 1_555 1_555
C16 C13 1_555 1_555
C17 C16 1_555 1_555
H16 C17 1_555 1_555
C18 C17 1_555 1_555
H17 C18 1_555 1_555
C19 C18 1_555 1_555
H18 C19 1_555 1_555
C20 C15 1_555 1_555
H19 C20 1_555 1_555
C5 C6 1_555 1_555
C7 C8 1_555 1_555
C15 C16 1_555 1_555
C19 C20 1_555 1_555

#END
