
#######################################################################
#
#                 Cambridge Crystallographic Data Centre
#                                CCDC 
#
#######################################################################
#
# If this CIF has been generated from an entry in the Cambridge 
# Structural Database, then it will include bibliographic, chemical, 
# crystal, experimental, refinement or atomic coordinate data resulting 
# from the CCDC's data processing and validation procedures.
#
#######################################################################

data_CINSID
_chemical_name_common            
'dapagliflozin ethane-1,2-diol solvate dihydrate'
_chemical_formula_moiety         'C21 H25 Cl1 O6,C2 H6 O2,2(H2 O1)'
_chemical_name_systematic        
'2-(4-chloro-3-(4-ethoxybenzyl)phenyl)-6-(hydroxymethyl)tetrahydro-2H-pyran-3,4,5-triol ethane-1,2-diol solvate dihydrate'
_chemical_properties_biological  'Dapagliflozin is a SGLT2 inhibitor.'
_symmetry_cell_setting           monoclinic
_symmetry_space_group_name_H-M   'P 21'
_symmetry_Int_Tables_number      4
_space_group_name_Hall           'P 2yb'
loop_
_symmetry_equiv_pos_site_id
_symmetry_equiv_pos_as_xyz
1 x,y,z
2 -x,1/2+y,-z
_cell_length_a                   11.593(8)
_cell_length_b                   4.766(5)
_cell_length_c                   22.78(3)
_cell_angle_alpha                90
_cell_angle_beta                 93.38(9)
_cell_angle_gamma                90
_cell_volume                     1256.46
_cell_formula_units_Z            2
loop_
_atom_site_label
_atom_site_type_symbol
_atom_site_fract_x
_atom_site_fract_y
_atom_site_fract_z
Cl1 Cl 0.7590 0.0820 -0.4198
O1 O 0.8631 0.5990 -0.1537
O2 O 0.1901 -0.1911 -0.3791
C1 C 0.5791 0.5319 -0.3885
O3 O 0.5941 0.4849 -0.0439
C2 C 0.8381 0.1410 -0.3059
O4 O 0.785 0.8250 -0.0026
C3 C 0.7531 0.2610 -0.3514
O5 O 0.5470 0.4971 -0.1739
C4 C 0.3341 0.0390 -0.4399
C5 C 0.4851 0.3559 -0.3849
C6 C 0.745 0.6551 -0.1789
C7 C 0.8281 0.2849 -0.2539
C8 C 0.8711 0.7820 -0.0959
C9 C 0.4311 0.2230 -0.4349
C10 C 0.2810 -0.0380 -0.3919
C11 C 0.7791 0.6341 -0.0569
C12 C 0.7530 0.4769 -0.2399
C13 C 0.6751 0.5781 -0.2889
C14 C 0.6671 0.4150 -0.3429
C15 C 0.6601 0.4859 -0.1429
C16 C 0.4250 0.2791 -0.3379
C17 C 0.1391 -0.3181 -0.4309
C18 C 0.0331 -0.4761 -0.4109
C19 C 0.6660 0.6460 -0.0839
C20 C 0.3341 0.1049 -0.3399
O6 O 1.0280 0.4331 -0.0685
C21 C 0.9880 0.6960 -0.0759
H1 H 0.5081 0.3212 -0.1695
H2 H 0.5158 0.5512 -0.0479
H3 H 1.0592 0.3693 -0.1043
H4 H 0.8040 0.4214 -0.0458
H5 H 0.6366 0.8606 -0.0878
H6 H 0.8478 0.9977 -0.1052
H7 H 0.6886 0.2707 -0.1389
H8 H 0.7300 0.8758 -0.1869
H9 H 1.0435 0.7903 -0.1069
H10 H 1.0031 0.7943 -0.0335
H11 H 0.6253 0.7679 -0.2848
H12 H 0.8971 -0.0296 -0.3127
H13 H 0.8920 0.2316 -0.2193
H14 H 0.4529 0.3653 -0.2956
H15 H 0.2954 0.0652 -0.2987
H16 H 0.3033 -0.0383 -0.4826
H17 H 0.4696 0.2685 -0.4759
H18 H 0.1135 -0.1601 -0.4631
H19 H 0.1990 -0.4618 -0.4495
H20 H -0.0104 -0.5787 -0.4482
H21 H 0.0603 -0.6313 -0.3784
H22 H -0.0253 -0.3295 -0.3920
H23 H 0.6119 0.5248 -0.4319
H24 H 0.5566 0.7453 -0.3781
O7 O 0.3689 0.6530 -0.0551
H25 H 0.3142 0.5218 -0.0410
H26 H 0.3908 0.7860 -0.0248
O8 O 0.4310 0.0080 -0.1639
H27 H 0.4708 -0.1672 -0.1673
H28 H 0.3887 0.0065 -0.1290
O9 O 0.1661 -0.7610 -0.1669
O10 O 0.0461 -0.2291 -0.2249
C22 C 0.1970 -0.5606 -0.1946
C23 C 0.1423 -0.4698 -0.2450
H29 H -0.0093 -0.1368 -0.2011
H30 H 0.0999 -0.9161 -0.1930
H31 H 0.0986 -0.6418 -0.2678
H32 H 0.2033 -0.3761 -0.2733
H33 H 0.2163 -0.3858 -0.1655
H34 H 0.2762 -0.6665 -0.2039
loop_
_geom_bond_atom_site_label_1
_geom_bond_atom_site_label_2
_geom_bond_site_symmetry_1
_geom_bond_site_symmetry_2
Cl1 C3 1_555 1_555
O1 C6 1_555 1_555
O2 C10 1_555 1_555
C1 C5 1_555 1_555
O3 C19 1_555 1_555
C2 C3 1_555 1_555
O4 C11 1_555 1_555
C3 C14 1_555 1_555
O5 C15 1_555 1_555
C4 C9 1_555 1_555
C5 C9 1_555 1_555
C6 C12 1_555 1_555
C7 C2 1_555 1_555
C8 O1 1_555 1_555
C9 H17 1_555 1_555
C10 C4 1_555 1_555
C11 C8 1_555 1_555
C12 C7 1_555 1_555
C13 C12 1_555 1_555
C14 C1 1_555 1_555
C15 C6 1_555 1_555
C16 C5 1_555 1_555
C17 O2 1_555 1_555
C18 C17 1_555 1_555
C19 C11 1_555 1_555
C20 C10 1_555 1_555
O6 C21 1_555 1_555
C21 C8 1_555 1_555
H1 O5 1_555 1_555
H2 O3 1_555 1_555
H3 O6 1_555 1_555
H4 C11 1_555 1_555
H5 C19 1_555 1_555
H6 C8 1_555 1_555
H7 C15 1_555 1_555
H8 C6 1_555 1_555
H9 C21 1_555 1_555
H10 C21 1_555 1_555
H11 C13 1_555 1_555
H12 C2 1_555 1_555
H13 C7 1_555 1_555
H14 C16 1_555 1_555
H15 C20 1_555 1_555
H16 C4 1_555 1_555
H18 C17 1_555 1_555
H19 C17 1_555 1_555
H20 C18 1_555 1_555
H21 C18 1_555 1_555
H22 C18 1_555 1_555
H23 C1 1_555 1_555
H24 C1 1_555 1_555
O7 H25 1_555 1_555
H26 O7 1_555 1_555
O8 H27 1_555 1_555
H28 O8 1_555 1_555
O9 C22 1_555 1_555
O10 C23 1_555 1_555
C22 C23 1_555 1_555
C23 H31 1_555 1_555
H29 O10 1_555 1_555
H30 O9 1_555 1_555
H32 C23 1_555 1_555
H33 C22 1_555 1_555
H34 C22 1_555 1_555
C13 C14 1_555 1_555
C15 C19 1_555 1_555
C16 C20 1_555 1_555

#END
