
#######################################################################
#
#                 Cambridge Crystallographic Data Centre
#                                CCDC 
#
#######################################################################
#
# If this CIF has been generated from an entry in the Cambridge 
# Structural Database, then it will include bibliographic, chemical, 
# crystal, experimental, refinement or atomic coordinate data resulting 
# from the CCDC's data processing and validation procedures.
#
#######################################################################

data_CINSOJ
_chemical_formula_moiety         'C22 H27 Cl1 O7,C4 H6 O2'
_chemical_name_systematic        
'2-(4-Chloro-3-(4-ethoxybenzyl)phenyl)-6-(hydroxymethyl)-2-methoxytetrahydro-2H-pyran-3,4,5-triol but-2-yne-1,4-diol solvate'
_symmetry_cell_setting           monoclinic
_symmetry_space_group_name_H-M   'C 2'
_symmetry_Int_Tables_number      5
_space_group_name_Hall           'C 2y'
loop_
_symmetry_equiv_pos_site_id
_symmetry_equiv_pos_as_xyz
1 x,y,z
2 1/2+x,1/2+y,z
3 -x,y,-z
4 1/2-x,1/2+y,-z
_cell_length_a                   21.576(7)
_cell_length_b                   6.755(1)
_cell_length_c                   18.335(5)
_cell_angle_alpha                90
_cell_angle_beta                 102.96(1)
_cell_angle_gamma                90
_cell_volume                     2604.18
_cell_formula_units_Z            4
loop_
_atom_site_label
_atom_site_type_symbol
_atom_site_fract_x
_atom_site_fract_y
_atom_site_fract_z
Cl1 Cl 0.4766 0.0404 0.0954
O1 O 0.4009 0.0489 0.4240
O2 O 0.2487 0.0360 0.2866
O3 O 0.3361 0.3116 0.3700
O4 O 0.2980 -0.0335 0.5564
C1 C 0.4341 -0.0386 0.2933
C2 C 0.2694 -0.0045 0.4212
C3 C 0.3808 0.0618 0.4929
O5 O 0.2184 -0.1421 0.4159
O6 O 0.1438 0.7685 0.0893
C4 C 0.3553 0.1186 0.3597
C5 C 0.4405 0.0690 0.1713
C6 C 0.4608 -0.0547 0.2314
C7 C 0.2958 -0.0113 0.3508
C8 C 0.3662 0.2182 0.2312
C9 C 0.3737 0.3483 0.1029
O7 O 0.4545 -0.2052 0.5425
C10 C 0.3205 -0.0595 0.4899
C11 C 0.1993 0.4901 0.0635
C12 C 0.3137 0.4646 0.1010
C13 C 0.3863 0.0987 0.2935
C14 C 0.3927 0.2100 0.1692
C15 C 0.4368 -0.0055 0.5534
C16 C 0.2546 0.3872 0.0663
C17 C 0.2011 0.6771 0.0960
C18 C 0.3867 0.4541 0.3863
C19 C 0.3147 0.6507 0.1327
C20 C 0.2589 0.7579 0.1310
C21 C 0.0758 1.0412 0.0907
C22 C 0.1428 0.9704 0.1110
H1 H 0.4482 -0.1199 0.3347
H2 H 0.2539 0.1293 0.4275
H3 H 0.3717 0.2007 0.5020
H4 H 0.4923 -0.1485 0.2306
H5 H 0.3090 -0.1481 0.3449
H6 H 0.3335 0.3078 0.2311
H7 H 0.4083 0.4406 0.1034
H8 H 0.3481 0.2711 0.0573
H9 H 0.3310 -0.1996 0.4860
H10 H 0.1605 0.4349 0.0399
H11 H 0.4728 0.0808 0.5536
H12 H 0.4259 0.0056 0.6018
H13 H 0.2525 0.2624 0.0444
H14 H 0.4194 0.4073 0.4272
H15 H 0.3705 0.5779 0.3998
H16 H 0.4041 0.4724 0.3430
H17 H 0.3536 0.7062 0.1557
H18 H 0.2607 0.8821 0.1533
H19 H 0.0586 1.0179 0.0384
H20 H 0.0746 1.1804 0.1009
H21 H 0.0510 0.9710 0.1197
H22 H 0.1691 1.0491 0.0855
H23 H 0.1594 0.9831 0.1645
H24 H 0.2242 0.1281 0.2970
H25 H 0.1826 -0.0801 0.4013
H26 H 0.2934 0.0916 0.5641
H27 H 0.4478 -0.2782 0.5791
O8 O 0.1617 0.3320 0.3009
C23 C 0.0884 0.7849 0.2826
C24 C 0.1613 0.4969 0.2531
C25 C 0.1208 0.6569 0.2679
C26 C 0.0508 0.9415 0.3041
O9 O 0.0699 1.0883 0.3388
H28 H 0.1742 0.3703 0.3468
H29 H 0.0208 0.9935 0.2512
H30 H 0.0199 0.8683 0.3354
H31 H 0.2091 0.5518 0.2594
H32 H 0.1436 0.4493 0.1953
O10? O 0.0921 0.9885 0.3889
loop_
_geom_bond_atom_site_label_1
_geom_bond_atom_site_label_2
_geom_bond_site_symmetry_1
_geom_bond_site_symmetry_2
Cl1 C5 1_555 1_555
O1 C3 1_555 1_555
O2 C7 1_555 1_555
O3 C4 1_555 1_555
O4 C10 1_555 1_555
C1 C6 1_555 1_555
C2 O5 1_555 1_555
C3 C10 1_555 1_555
O5 H25 1_555 1_555
O6 C17 1_555 1_555
C4 O1 1_555 1_555
C5 C6 1_555 1_555
C6 H4 1_555 1_555
C7 C2 1_555 1_555
C8 C13 1_555 1_555
C9 C12 1_555 1_555
O7 C15 1_555 1_555
C10 C2 1_555 1_555
C11 C16 1_555 1_555
C12 C16 1_555 1_555
C13 C1 1_555 1_555
C14 C5 1_555 1_555
C15 C3 1_555 1_555
C16 H13 1_555 1_555
C17 C11 1_555 1_555
C18 O3 1_555 1_555
C19 C12 1_555 1_555
C20 C17 1_555 1_555
C21 C22 1_555 1_555
C22 O6 1_555 1_555
H1 C1 1_555 1_555
H2 C2 1_555 1_555
H3 C3 1_555 1_555
H5 C7 1_555 1_555
H6 C8 1_555 1_555
H7 C9 1_555 1_555
H8 C9 1_555 1_555
H9 C10 1_555 1_555
H10 C11 1_555 1_555
H11 C15 1_555 1_555
H12 C15 1_555 1_555
H14 C18 1_555 1_555
H15 C18 1_555 1_555
H16 C18 1_555 1_555
H17 C19 1_555 1_555
H18 C20 1_555 1_555
H19 C21 1_555 1_555
H20 C21 1_555 1_555
H21 C21 1_555 1_555
H22 C22 1_555 1_555
H23 C22 1_555 1_555
H24 O2 1_555 1_555
H26 O4 1_555 1_555
H27 O7 1_555 1_555
O8 C24 1_555 1_555
C23 C25 1_555 1_555
C24 C25 1_555 1_555
C26 C23 1_555 1_555
O9 C26 1_555 1_555
H28 O8 1_555 1_555
H29 C26 1_555 1_555
H30 C26 1_555 1_555
H31 C24 1_555 1_555
H32 C24 1_555 1_555
C4 C7 1_555 1_555
C4 C13 1_555 1_555
C8 C14 1_555 1_555
C9 C14 1_555 1_555
C19 C20 1_555 1_555

#END
