
#######################################################################
#
#                 Cambridge Crystallographic Data Centre
#                                CCDC 
#
#######################################################################
#
# If this CIF has been generated from an entry in the Cambridge 
# Structural Database, then it will include bibliographic, chemical, 
# crystal, experimental, refinement or atomic coordinate data resulting 
# from the CCDC's data processing and validation procedures.
#
#######################################################################

data_CINSEZ
_chemical_name_common            'dapagliflozin ethanol solvate dihydrate'
_chemical_formula_moiety         'C21 H25 Cl1 O6,C2 H6 O1,2(H2 O1)'
_chemical_name_systematic        
'6-(4-chloro-3-(3-ethoxybenzyl)phenyl)-2-(hydroxymethyl)tetrahydro-2H-pyran-3,4-diol ethanol solvate dihydrate'
_chemical_properties_biological  'Dapagliflozin is a SGLT2 inhibitor.'
_symmetry_cell_setting           monoclinic
_symmetry_space_group_name_H-M   'P 21'
_symmetry_Int_Tables_number      4
_space_group_name_Hall           'P 2yb'
loop_
_symmetry_equiv_pos_site_id
_symmetry_equiv_pos_as_xyz
1 x,y,z
2 -x,1/2+y,-z
_cell_length_a                   11.519(1)
_cell_length_b                   4.799(1)
_cell_length_c                   22.648(1)
_cell_angle_alpha                90
_cell_angle_beta                 94.58(1)
_cell_angle_gamma                90
_cell_volume                     1247.98
_cell_formula_units_Z            1
loop_
_atom_site_label
_atom_site_type_symbol
_atom_site_fract_x
_atom_site_fract_y
_atom_site_fract_z
Cl1 Cl 0.7673 0.0854 -0.4142
O1 O 0.5851 0.5467 -0.1628
O2 O 1.0613 0.9910 -0.0876
C1 C 0.6634 0.5087 -0.1420
O3 O 0.5964 0.4528 -0.0442
C2 C 0.7531 0.6504 -0.1782
O4 O 0.1965 -0.2110 -0.3797
O5 O 0.7928 0.7549 0.0061
C3 C 0.7605 0.5175 -0.2375
C4 C 0.6679 0.6209 -0.0790
C5 C 0.4816 0.3213 -0.3866
C6 C 0.7629 0.2551 -0.3461
C7 C 0.5827 0.5268 -0.3868
C8 C 0.6801 0.5902 -0.2843
C9 C 0.6770 0.4593 -0.3397
C10 C 0.9968 0.7646 -0.0652
C11 C 0.8423 0.3089 -0.2459
C12 C 0.7906 0.6184 -0.0498
C13 C 0.8704 0.7698 -0.0896
C14 C 0.4335 0.2531 -0.3337
C15 C 0.8449 0.1815 -0.3008
C16 C 0.2911 -0.0396 -0.3851
C17 C 0.141 -0.3384 -0.4319
C18 C 0.3377 0.0255 -0.4384
C19 C 0.3405 0.0751 -0.3330
C20 C 0.0431 -0.5128 -0.4132
H1 H 0.6816 0.2833 -0.1387
H2 H 0.6356 0.8307 -0.0805
H3 H 0.6184 0.5131 -0.4303
H4 H 0.5505 0.7308 -0.3806
H5 H 0.6182 0.7524 -0.2770
H6 H 1.0365 0.5668 -0.0787
H7 H 1.0037 0.7711 -0.0175
H8 H 0.9040 0.2455 -0.2092
H9 H 0.8196 0.4009 -0.0436
H10 H 0.8385 0.9826 -0.0936
H11 H 0.4692 0.3444 -0.2915
H12 H 0.9111 0.0214 -0.3081
H13 H 0.1146 -0.1875 -0.4650
H14 H 0.2075 -0.4764 -0.4514
H15 H 0.3071 0.0128 -0.2910
H16 H 0.5153 0.5297 -0.0473
H17 H -0.0028 -0.6153 -0.4507
H18 H 0.0724 -0.6675 -0.3807
H19 H -0.0204 -0.3772 -0.3928
H20 H 1.1241 0.9168 -0.1118
H21 H 0.8466 0.6527 0.0359
C21 C 0.4321 0.2052 -0.4377
H22 H 0.4703 0.2491 -0.4794
O6 O 0.8652 0.6413 -0.1468
H23 H 0.7283 0.8620 -0.1864
H24 H 0.3000 -0.0606 -0.4802
H25 H 0.5091 0.3623 -0.1752
O7 O 0.3643 0.6071 -0.0516
H26 H 0.3836 0.7445 -0.0185
H27 H 0.3063 0.4696 -0.0382
O8 O 0.2324 -0.2097 -0.1501
C22 C 0.1155 -0.3014 -0.2376
C23 C 0.2065 -0.4150 -0.1969
H28 H 0.0626 -0.4601 -0.2593
H29 H 0.0592 -0.1642 -0.2133
H30 H 0.1534 -0.1727 -0.2709
H31 H 0.2834 -0.4603 -0.2200
H32 H 0.1765 -0.6100 -0.1783
H33 H 0.2806 -0.2965 -0.1158
O9 O 0.4409 0.0604 -0.1784
H34 H 0.3630 -0.0141 -0.1685
H35 H 0.4889 -0.1137 -0.1762
loop_
_geom_bond_atom_site_label_1
_geom_bond_atom_site_label_2
_geom_bond_site_symmetry_1
_geom_bond_site_symmetry_2
Cl1 C6 1_555 1_555
O1 C1 1_555 1_555
O2 C10 1_555 1_555
C1 C2 1_555 1_555
O3 C4 1_555 1_555
C2 C3 1_555 1_555
O4 C16 1_555 1_555
O5 C12 1_555 1_555
C3 C8 1_555 1_555
C4 C1 1_555 1_555
C5 C7 1_555 1_555
C6 C9 1_555 1_555
C7 C9 1_555 1_555
C8 C9 1_555 1_555
C10 C13 1_555 1_555
C11 C3 1_555 1_555
C12 C4 1_555 1_555
C13 C12 1_555 1_555
C14 C5 1_555 1_555
C15 C6 1_555 1_555
C16 C18 1_555 1_555
C17 O4 1_555 1_555
C18 C21 1_555 1_555
C19 C14 1_555 1_555
C20 C17 1_555 1_555
H1 C1 1_555 1_555
H2 C4 1_555 1_555
H3 C7 1_555 1_555
H4 C7 1_555 1_555
H5 C8 1_555 1_555
H6 C10 1_555 1_555
H7 C10 1_555 1_555
H8 C11 1_555 1_555
H9 C12 1_555 1_555
H10 C13 1_555 1_555
H11 C14 1_555 1_555
H12 C15 1_555 1_555
H13 C17 1_555 1_555
H14 C17 1_555 1_555
H15 C19 1_555 1_555
H16 O3 1_555 1_555
H17 C20 1_555 1_555
H18 C20 1_555 1_555
H19 C20 1_555 1_555
H20 O2 1_555 1_555
H21 O5 1_555 1_555
C21 C5 1_555 1_555
H22 C21 1_555 1_555
O6 C2 1_555 1_555
H23 C2 1_555 1_555
H24 C18 1_555 1_555
H25 O1 1_555 1_555
O7 H26 1_555 1_555
H27 O7 1_555 1_555
O8 C23 1_555 1_555
C22 C23 1_555 1_555
C23 H31 1_555 1_555
H28 C22 1_555 1_555
H29 C22 1_555 1_555
H30 C22 1_555 1_555
H32 C23 1_555 1_555
H33 O8 1_555 1_555
O9 H34 1_555 1_555
H35 O9 1_555 1_555
C11 C15 1_555 1_555
C13 O6 1_555 1_555
C16 C19 1_555 1_555

#END
