
#######################################################################
#
#                 Cambridge Crystallographic Data Centre
#                                CCDC 
#
#######################################################################
#
# If this CIF has been generated from an entry in the Cambridge 
# Structural Database, then it will include bibliographic, chemical, 
# crystal, experimental, refinement or atomic coordinate data resulting 
# from the CCDC's data processing and validation procedures.
#
#######################################################################

data_CINTOL
_chemical_formula_moiety         'C70 H54,C1 H4 O1'
_chemical_name_systematic        
"6,6'-(3',6'-diphenyl-[1,1':2',1''-terphenyl]-4',5'-diyl)bis(2-(t-butyl)pyrene) methanol solvate"
_symmetry_cell_setting           orthorhombic
_symmetry_space_group_name_H-M   'P n a 21'
_symmetry_Int_Tables_number      33
_space_group_name_Hall           'P 2c -2n'
loop_
_symmetry_equiv_pos_site_id
_symmetry_equiv_pos_as_xyz
1 x,y,z
2 -x,-y,1/2+z
3 1/2+x,1/2-y,z
4 1/2-x,1/2+y,1/2+z
_cell_length_a                   11.6362(4)
_cell_length_b                   26.6850(8)
_cell_length_c                   17.6959(6)
_cell_angle_alpha                90
_cell_angle_beta                 90
_cell_angle_gamma                90
_cell_volume                     5494.79
_exptl_crystal_colour            'pale yellow'
_exptl_crystal_description       block
_chemical_melting_point          '>684 K'
_cell_formula_units_Z            4
_exptl_crystal_recrystallization_method chloroform/methanol
loop_
_atom_site_label
_atom_site_type_symbol
_atom_site_fract_x
_atom_site_fract_y
_atom_site_fract_z
C1 C 1.1679(3) 0.39509(13) -0.1399(2)
C2 C 1.2771(4) 0.40927(14) -0.1671(2)
C3 C 1.2943(4) 0.41627(16) -0.2459(2)
C4 C 1.4041(5) 0.4304(2) -0.2707(3)
H1 H 1.4160 0.4353 -0.3232
C5 C 1.4962(5) 0.4376(2) -0.2221(3)
C6 C 1.4785(4) 0.42973(18) -0.1451(3)
H2 H 1.5409 0.4339 -0.1110
C7 C 1.3711(3) 0.41582(15) -0.1171(2)
C8 C 1.3523(3) 0.40680(15) -0.0385(2)
H3 H 1.4143 0.4109 -0.0041
C9 C 1.2479(3) 0.39255(13) -0.0118(2)
H4 H 1.2387 0.3862 0.0407
C10 C 1.1511(3) 0.38688(12) -0.06145(19)
C11 C 1.0419(3) 0.37136(12) -0.03526(19)
C12 C 0.9523(3) 0.36618(14) -0.0863(2)
H5 H 0.8787 0.3564 -0.0683
C13 C 0.9674(3) 0.37483(16) -0.1628(2)
H6 H 0.9042 0.3713 -0.1964
C14 C 1.0746(4) 0.38870(15) -0.1906(2)
C15 C 1.0947(4) 0.39610(18) -0.2696(2)
H7 H 1.0334 0.3914 -0.3043
C16 C 1.1982(4) 0.40946(17) -0.2955(3)
H8 H 1.2083 0.4146 -0.3482
C17 C 1.6133(6) 0.4534(3) -0.2525(3)
C18 C 1.7072(8) 0.4580(4) -0.1875(7)
H9 H 1.7833 0.4625 -0.2103
H10 H 1.7068 0.4275 -0.1568
H11 H 1.6892 0.4869 -0.1555
C19 C 1.6708(9) 0.4034(5) -0.2935(7)
H12 H 1.6225 0.3930 -0.3360
H13 H 1.6759 0.3761 -0.2567
H14 H 1.7479 0.4117 -0.3119
C20 C 1.6133(15) 0.4945(7) -0.3015(13)
H15 H 1.5750 0.5229 -0.2771
H16 H 1.5722 0.4857 -0.3480
H17 H 1.6927 0.5037 -0.3138
C21 C 0.8780(3) 0.51587(13) 0.03818(19)
C22 C 0.7705(3) 0.53605(13) 0.01439(19)
C23 C 0.7605(3) 0.58742(14) -0.0056(2)
C24 C 0.6543(4) 0.60616(15) -0.0267(2)
H18 H 0.6486 0.6405 -0.0403
C25 C 0.5559(4) 0.57694(16) -0.0288(3)
C26 C 0.5666(3) 0.52666(16) -0.0087(3)
H19 H 0.5000 0.5061 -0.0092
C27 C 0.6713(3) 0.50548(13) 0.0119(2)
C28 C 0.6839(3) 0.45331(13) 0.0308(2)
H20 H 0.6184 0.4321 0.0289
C29 C 0.7858(3) 0.43385(12) 0.0509(2)
H21 H 0.7908 0.3991 0.0618
C30 C 0.8877(3) 0.46430(12) 0.05652(18)
C31 C 0.9934(3) 0.44504(13) 0.08189(19)
C32 C 1.0867(3) 0.47772(14) 0.0883(2)
H22 H 1.1581 0.4652 0.1062
C33 C 1.0781(3) 0.52766(14) 0.0694(2)
H23 H 1.1436 0.5486 0.0742
C34 C 0.9753(3) 0.54796(13) 0.0435(2)
C35 C 0.9629(3) 0.59948(14) 0.0221(2)
H24 H 1.0280 0.6209 0.0245
C36 C 0.8616(3) 0.61832(14) -0.0013(2)
H25 H 0.8568 0.6526 -0.0153
C37 C 0.4411(5) 0.5998(2) -0.0501(4)
C38 C 0.3418(4) 0.5658(2) -0.0407(4)
H26 H 0.2713 0.5830 -0.0564
H27 H 0.3353 0.5559 0.0125
H28 H 0.3530 0.5359 -0.0719
C39 C 0.4157(5) 0.6454(2) 0.0044(4)
H29 H 0.4736 0.6715 -0.0035
H30 H 0.4186 0.6340 0.0570
H31 H 0.3393 0.6589 -0.0066
C40 C 0.4471(6) 0.6216(4) -0.1271(4)
H32 H 0.4546 0.5945 -0.1643
H33 H 0.5137 0.6439 -0.1307
H34 H 0.3768 0.6406 -0.1373
C41 C 1.0252(3) 0.35581(13) 0.0450(2)
C42 C 1.0040(3) 0.39106(13) 0.1017(2)
C43 C 0.9902(3) 0.37523(13) 0.1766(2)
C44 C 0.9923(3) 0.32360(13) 0.1936(2)
C45 C 1.0079(3) 0.28830(13) 0.1362(2)
C46 C 1.0281(3) 0.30455(13) 0.0618(2)
C47 C 0.9755(3) 0.41312(13) 0.2377(2)
C48 C 0.8724(4) 0.43832(15) 0.2474(2)
H35 H 0.8098 0.4318 0.2145
C49 C 0.8604(4) 0.47318(16) 0.3054(2)
H36 H 0.7894 0.4902 0.3121
C50 C 0.9510(5) 0.48308(16) 0.3530(2)
H37 H 0.9424 0.5067 0.3927
C51 C 1.0537(4) 0.45888(16) 0.3432(2)
H38 H 1.1167 0.4662 0.3755
C52 C 1.0659(4) 0.42374(15) 0.2859(2)
H39 H 1.1370 0.4068 0.2798
C53 C 0.9794(3) 0.30659(13) 0.2738(2)
C54 C 0.8766(3) 0.31412(14) 0.3125(2)
H40 H 0.8136 0.3300 0.2882
C55 C 0.8675(4) 0.29810(16) 0.3869(3)
H41 H 0.7974 0.3030 0.4134
C56 C 0.9582(4) 0.27534(15) 0.4229(2)
H42 H 0.9506 0.2647 0.4739
C57 C 1.0599(4) 0.26793(15) 0.3850(2)
H43 H 1.1229 0.2523 0.4097
C58 C 1.0700(3) 0.28341(14) 0.3104(2)
H44 H 1.1401 0.2780 0.2841
C59 C 0.9968(4) 0.23338(15) 0.1522(2)
C60 C 0.8903(5) 0.21414(18) 0.1723(3)
H45 H 0.8281 0.2367 0.1791
C61 C 0.8709(7) 0.1639(2) 0.1829(3)
H46 H 0.7967 0.1521 0.1963
C62 C 0.9574(8) 0.1321(2) 0.1741(3)
H47 H 0.9433 0.0972 0.1797
C63 C 1.0677(7) 0.1480(2) 0.1570(3)
H48 H 1.1290 0.1246 0.1539
C64 C 1.0881(5) 0.20053(17) 0.1439(2)
H49 H 1.1622 0.2123 0.1300
C65 C 1.0496(3) 0.26768(14) -0.0004(2)
C66 C 1.1561(4) 0.26490(15) -0.0345(3)
H50 H 1.2170 0.2858 -0.0177
C67 C 1.1743(6) 0.23137(18) -0.0938(3)
H51 H 1.2476 0.2293 -0.1173
C68 C 1.0867(7) 0.20165(19) -0.1179(3)
H52 H 1.0997 0.1783 -0.1574
C69 C 0.9797(6) 0.2050(2) -0.0858(3)
H53 H 0.9178 0.1857 -0.1050
C70 C 0.9628(5) 0.23696(17) -0.0249(3)
H54 H 0.8905 0.2375 0.0000
C71? C 1.6959(16) 0.4200(8) -0.2442(14)
H55? H 1.7063 0.4126 -0.1904
H56? H 1.7676 0.4333 -0.2651
H57? H 1.6750 0.3891 -0.2710
C72? C 1.6404(12) 0.5070(6) -0.2121(8)
H58? H 1.6452 0.5023 -0.1573
H59? H 1.5787 0.5307 -0.2238
H60? H 1.7136 0.5201 -0.2310
C73? C 1.5977(13) 0.4752(4) -0.3357(6)
H61? H 1.6681 0.4927 -0.3509
H62? H 1.5332 0.4988 -0.3363
H63? H 1.5823 0.4477 -0.3709
loop_
_geom_bond_atom_site_label_1
_geom_bond_atom_site_label_2
_geom_bond_site_symmetry_1
_geom_bond_site_symmetry_2
C1 C2 1_555 1_555
C2 C3 1_555 1_555
C3 C4 1_555 1_555
C4 H1 1_555 1_555
C5 C4 1_555 1_555
C6 C5 1_555 1_555
H2 C6 1_555 1_555
C7 C2 1_555 1_555
C8 C7 1_555 1_555
H3 C8 1_555 1_555
C9 C8 1_555 1_555
H4 C9 1_555 1_555
C10 C1 1_555 1_555
C11 C10 1_555 1_555
C12 C11 1_555 1_555
H5 C12 1_555 1_555
C13 C12 1_555 1_555
H6 C13 1_555 1_555
C14 C1 1_555 1_555
C15 C14 1_555 1_555
H7 C15 1_555 1_555
C16 C3 1_555 1_555
H8 C16 1_555 1_555
C17 C5 1_555 1_555
C18 C17 1_555 1_555
H9 C18 1_555 1_555
H10 C18 1_555 1_555
H11 C18 1_555 1_555
C19 C17 1_555 1_555
H12 C19 1_555 1_555
H13 C19 1_555 1_555
H14 C19 1_555 1_555
C20 C17 1_555 1_555
H15 C20 1_555 1_555
H16 C20 1_555 1_555
H17 C20 1_555 1_555
C21 C22 1_555 1_555
C22 C23 1_555 1_555
C23 C24 1_555 1_555
C24 H18 1_555 1_555
C25 C24 1_555 1_555
C26 C25 1_555 1_555
H19 C26 1_555 1_555
C27 C22 1_555 1_555
C28 C27 1_555 1_555
H20 C28 1_555 1_555
C29 C28 1_555 1_555
H21 C29 1_555 1_555
C30 C21 1_555 1_555
C31 C30 1_555 1_555
C32 C31 1_555 1_555
H22 C32 1_555 1_555
C33 C32 1_555 1_555
H23 C33 1_555 1_555
C34 C21 1_555 1_555
C35 C34 1_555 1_555
H24 C35 1_555 1_555
C36 C23 1_555 1_555
H25 C36 1_555 1_555
C37 C25 1_555 1_555
C38 C37 1_555 1_555
H26 C38 1_555 1_555
H27 C38 1_555 1_555
H28 C38 1_555 1_555
C39 C37 1_555 1_555
H29 C39 1_555 1_555
H30 C39 1_555 1_555
H31 C39 1_555 1_555
C40 C37 1_555 1_555
H32 C40 1_555 1_555
H33 C40 1_555 1_555
H34 C40 1_555 1_555
C41 C11 1_555 1_555
C42 C31 1_555 1_555
C43 C42 1_555 1_555
C44 C43 1_555 1_555
C45 C44 1_555 1_555
C46 C41 1_555 1_555
C47 C43 1_555 1_555
C48 C47 1_555 1_555
H35 C48 1_555 1_555
C49 C48 1_555 1_555
H36 C49 1_555 1_555
C50 C49 1_555 1_555
H37 C50 1_555 1_555
C51 C50 1_555 1_555
H38 C51 1_555 1_555
C52 C47 1_555 1_555
H39 C52 1_555 1_555
C53 C44 1_555 1_555
C54 C53 1_555 1_555
H40 C54 1_555 1_555
C55 C54 1_555 1_555
H41 C55 1_555 1_555
C56 C55 1_555 1_555
H42 C56 1_555 1_555
C57 C56 1_555 1_555
H43 C57 1_555 1_555
C58 C53 1_555 1_555
H44 C58 1_555 1_555
C59 C45 1_555 1_555
C60 C59 1_555 1_555
H45 C60 1_555 1_555
C61 C60 1_555 1_555
H46 C61 1_555 1_555
C62 C61 1_555 1_555
H47 C62 1_555 1_555
C63 C62 1_555 1_555
H48 C63 1_555 1_555
C64 C59 1_555 1_555
H49 C64 1_555 1_555
C65 C46 1_555 1_555
C66 C65 1_555 1_555
H50 C66 1_555 1_555
C67 C66 1_555 1_555
H51 C67 1_555 1_555
C68 C67 1_555 1_555
H52 C68 1_555 1_555
C69 C68 1_555 1_555
H53 C69 1_555 1_555
C70 C65 1_555 1_555
H54 C70 1_555 1_555
C6 C7 1_555 1_555
C9 C10 1_555 1_555
C13 C14 1_555 1_555
C15 C16 1_555 1_555
C26 C27 1_555 1_555
C29 C30 1_555 1_555
C33 C34 1_555 1_555
C35 C36 1_555 1_555
C41 C42 1_555 1_555
C45 C46 1_555 1_555
C51 C52 1_555 1_555
C57 C58 1_555 1_555
C63 C64 1_555 1_555
C69 C70 1_555 1_555

#END
