
#######################################################################
#
#                 Cambridge Crystallographic Data Centre
#                                CCDC 
#
#######################################################################
#
# If this CIF has been generated from an entry in the Cambridge 
# Structural Database, then it will include bibliographic, chemical, 
# crystal, experimental, refinement or atomic coordinate data resulting 
# from the CCDC's data processing and validation procedures.
#
#######################################################################

data_CINTUR
_chemical_formula_moiety         'C70 H54,4(C1 H4 O1)'
_chemical_name_systematic        
"6,6'-(3',6'-diphenyl-[1,1':2',1''-terphenyl]-4',5'-diyl)bis(2-(tert-butyl)pyrene) methanol solvate"
_symmetry_cell_setting           triclinic
_symmetry_space_group_name_H-M   'P -1'
_symmetry_Int_Tables_number      2
_space_group_name_Hall           '-P 1'
loop_
_symmetry_equiv_pos_site_id
_symmetry_equiv_pos_as_xyz
1 x,y,z
2 -x,-y,-z
_cell_length_a                   13.4807(4)
_cell_length_b                   20.5972(7)
_cell_length_c                   23.6906(8)
_cell_angle_alpha                73.145(2)
_cell_angle_beta                 82.737(2)
_cell_angle_gamma                86.358(2)
_cell_volume                     6242.45
_exptl_crystal_colour            'pale yellow'
_exptl_crystal_description       lath
_chemical_melting_point          '214-215 deg.C'
_cell_formula_units_Z            4
_exptl_crystal_recrystallization_method benzene/methanol
loop_
_atom_site_label
_atom_site_type_symbol
_atom_site_fract_x
_atom_site_fract_y
_atom_site_fract_z
C71 C 0.14292(17) 0.20144(12) 0.22370(12)
C72 C 0.16395(19) 0.22215(13) 0.16119(14)
C73 C 0.1199(2) 0.18987(14) 0.12591(13)
C74 C 0.1382(3) 0.21335(16) 0.06423(15)
H55 H 0.1083 0.1910 0.0410
C75 C 0.1982(3) 0.26789(18) 0.03555(17)
C76 C 0.2444(3) 0.29736(17) 0.07094(18)
H56 H 0.2888 0.3333 0.0521
C77 C 0.2287(2) 0.27665(14) 0.13257(16)
C78 C 0.2733(2) 0.30857(16) 0.1685(2)
H57 H 0.3176 0.3446 0.1499
C79 C 0.25459(19) 0.28940(14) 0.22753(19)
H58 H 0.2860 0.3118 0.2501
C80 C 0.18730(18) 0.23512(12) 0.25777(14)
C81 C 0.16206(19) 0.21623(12) 0.31819(15)
H59 H 0.1923 0.2381 0.3416
C82 C 0.09327(18) 0.16591(12) 0.34604(12)
H60 H 0.0754 0.1555 0.3877
C83 C 0.05034(16) 0.13062(11) 0.31375(11)
C84 C 0.07559(16) 0.14758(11) 0.25239(11)
C85 C 0.03546(18) 0.11433(12) 0.21527(12)
H61 H -0.0071 0.0771 0.2332
C86 C 0.0560(2) 0.13408(13) 0.15577(12)
H62 H 0.0275 0.1105 0.1330
C87 C 0.1898(6) 0.2965(4) -0.0353(3)
C88 C 0.2183(15) 0.2336(7) -0.0587(8)
H63 H 0.1694 0.1982 -0.0403
H64 H 0.2182 0.2469 -0.1019
H65 H 0.2851 0.2163 -0.0486
C89 C 0.2666(7) 0.3498(4) -0.0646(3)
H66 H 0.3332 0.3316 -0.0547
H67 H 0.2659 0.3626 -0.1078
H68 H 0.2506 0.3899 -0.0505
C90 C 0.0860(6) 0.3277(4) -0.0524(3)
H69 H 0.0344 0.2942 -0.0340
H70 H 0.0715 0.3680 -0.0383
H71 H 0.0868 0.3407 -0.0956
C91 C 0.27345(17) -0.06118(11) 0.31265(10)
C92 C 0.31417(18) -0.10296(12) 0.27615(11)
C93 C 0.2519(2) -0.12757(13) 0.24362(12)
C94 C 0.2919(2) -0.17212(15) 0.21164(13)
H72 H 0.2492 -0.1888 0.1903
C95 C 0.3922(2) -0.19288(16) 0.20993(13)
C96 C 0.4536(2) -0.16608(15) 0.23986(13)
H73 H 0.5229 -0.1780 0.2374
C97 C 0.41714(19) -0.12210(13) 0.27363(11)
C98 C 0.47805(19) -0.09709(13) 0.30685(12)
H74 H 0.5475 -0.1085 0.3046
C99 C 0.44076(17) -0.05771(12) 0.34143(12)
H75 H 0.4842 -0.0422 0.3630
C100 C 0.33646(17) -0.03878(11) 0.34619(11)
C101 C 0.29462(17) -0.00036(11) 0.38306(11)
H76 H 0.3364 0.0161 0.4050
C102 C 0.19278(17) 0.01418(11) 0.38822(11)
H77 H 0.1656 0.0391 0.4149
C103 C 0.12904(16) -0.00673(10) 0.35541(10)
C104 C 0.16947(16) -0.04355(11) 0.31598(10)
C105 C 0.11049(18) -0.06603(12) 0.27963(11)
H78 H 0.0418 -0.0525 0.2795
C106 C 0.1487(2) -0.10566(13) 0.24552(12)
H79 H 0.1064 -0.1194 0.2222
C107 C 0.4300(3) -0.2466(2) 0.17725(16)
C108 C 0.3747(4) -0.3138(2) 0.2082(2)
H80 H 0.3027 -0.3059 0.2057
H81 H 0.3868 -0.3294 0.2500
H82 H 0.3996 -0.3484 0.1885
C109 C 0.5390(3) -0.2641(2) 0.18140(19)
H83 H 0.5599 -0.2984 0.1607
H84 H 0.5504 -0.2820 0.2232
H85 H 0.5781 -0.2233 0.1630
C110 C 0.4092(4) -0.2204(2) 0.11410(17)
H86 H 0.4442 -0.1780 0.0952
H87 H 0.3371 -0.2120 0.1126
H88 H 0.4326 -0.2540 0.0930
C111 C -0.01960(16) 0.07466(11) 0.34515(10)
C112 C 0.01855(16) 0.00787(11) 0.36532(10)
C113 C -0.04600(16) -0.04515(11) 0.39589(10)
C114 C -0.14900(16) -0.03154(11) 0.40678(10)
C115 C -0.18703(16) 0.03538(11) 0.38714(10)
C116 C -0.12200(16) 0.08819(10) 0.35648(10)
C117 C -0.00389(16) -0.11612(11) 0.41599(10)
C118 C -0.02618(17) -0.16474(11) 0.38966(11)
H89 H -0.0711 -0.1535 0.3602
C119 C 0.01663(17) -0.22963(12) 0.40594(12)
H90 H 0.0010 -0.2625 0.3876
C120 C 0.08133(18) -0.24632(12) 0.44843(12)
H91 H 0.1117 -0.2904 0.4590
C121 C 0.10216(17) -0.19917(12) 0.47570(11)
H92 H 0.1455 -0.2113 0.5060
C122 C 0.06050(16) -0.13406(11) 0.45945(11)
H93 H 0.0762 -0.1016 0.4782
C123 C -0.21777(16) -0.08820(11) 0.43922(10)
C124 C -0.29676(16) -0.10313(11) 0.41359(11)
H94 H -0.3095 -0.0758 0.3752
C125 C -0.35794(18) -0.15748(12) 0.44304(12)
H95 H -0.4123 -0.1668 0.4250
C126 C -0.33950(19) -0.19759(12) 0.49825(12)
H96 H -0.3801 -0.2354 0.5180
C127 C -0.26213(19) -0.18301(12) 0.52501(12)
H97 H -0.2500 -0.2103 0.5635
C128 C -0.20203(17) -0.12850(11) 0.49585(11)
H98 H -0.1493 -0.1185 0.5148
C129 C -0.29520(16) 0.05243(11) 0.40124(11)
C130 C -0.35903(17) 0.07239(11) 0.35728(12)
H99 H -0.3351 0.0728 0.3177
C131 C -0.45765(19) 0.09168(12) 0.37080(14)
H100 H -0.5012 0.1049 0.3406
C132 C -0.4923(2) 0.09158(12) 0.42840(16)
H101 H -0.5597 0.1051 0.4376
C133 C -0.4303(2) 0.07215(13) 0.47201(14)
H102 H -0.4544 0.0724 0.5114
C134 C -0.33230(18) 0.05206(11) 0.45894(11)
H103 H -0.2899 0.0379 0.4896
C135 C -0.16523(15) 0.15873(11) 0.33764(11)
C136 C -0.17815(17) 0.19105(12) 0.27885(12)
H104 H -0.1541 0.1698 0.2489
C137 C -0.22633(18) 0.25469(13) 0.26346(13)
H105 H -0.2364 0.2762 0.2232
C138 C -0.25928(17) 0.28627(13) 0.30643(15)
H106 H -0.2916 0.3297 0.2957
C139 C -0.24583(17) 0.25554(12) 0.36440(13)
H107 H -0.2681 0.2778 0.3939
C140 C -0.19965(16) 0.19196(11) 0.38013(11)
H108 H -0.1913 0.1706 0.4206
C1 C 0.16101(15) 0.41363(10) 0.33468(9)
C2 C 0.11206(15) 0.41385(10) 0.28513(9)
C3 C 0.14009(15) 0.45894(11) 0.22855(10)
C4 C 0.09032(16) 0.45805(12) 0.18050(10)
H1 H 0.1090 0.4891 0.1428
C5 C 0.01422(16) 0.41314(12) 0.18600(10)
C6 C -0.01171(16) 0.36827(11) 0.24182(10)
H2 H -0.0625 0.3366 0.2463
C7 C 0.03432(15) 0.36816(10) 0.29151(10)
C8 C 0.00486(16) 0.32372(11) 0.34926(10)
H3 H -0.0482 0.2936 0.3542
C9 C 0.05043(16) 0.32347(11) 0.39658(11)
H4 H 0.0289 0.2933 0.4343
C10 C 0.13097(15) 0.36787(10) 0.39128(9)
C11 C 0.18092(16) 0.36799(11) 0.43914(10)
H5 H 0.1627 0.3370 0.4769
C12 C 0.25679(15) 0.41263(10) 0.43236(10)
H6 H 0.2892 0.4121 0.4658
C13 C 0.28684(15) 0.45830(10) 0.37768(9)
C14 C 0.23953(15) 0.45931(10) 0.32800(9)
C15 C 0.26541(16) 0.50513(11) 0.27034(9)
H7 H 0.3168 0.5365 0.2650
C16 C 0.21852(16) 0.50476(11) 0.22344(10)
H8 H 0.2381 0.5358 0.1859
C17 C -0.04339(18) 0.41356(13) 0.13469(11)
C18 C 0.0001(2) 0.46031(18) 0.07699(13)
H9 H 0.0709 0.4482 0.0692
H10 H -0.0064 0.5072 0.0792
H11 H -0.0360 0.4561 0.0448
C19 C -0.0404(2) 0.34194(15) 0.12646(13)
H12 H -0.0642 0.3092 0.1642
H13 H 0.0284 0.3296 0.1137
H14 H -0.0835 0.3414 0.0962
C20 C -0.1522(2) 0.43359(16) 0.14950(13)
H15 H -0.1562 0.4803 0.1522
H16 H -0.1791 0.4029 0.1876
H17 H -0.1913 0.4304 0.1183
C21 C 0.52277(15) 0.39141(11) 0.23471(9)
C22 C 0.55527(15) 0.40178(11) 0.17307(10)
C23 C 0.57477(16) 0.46765(11) 0.13549(10)
C24 C 0.60958(17) 0.47625(12) 0.07521(10)
H18 H 0.6227 0.5207 0.0501
C25 C 0.62541(17) 0.42183(13) 0.05114(10)
C26 C 0.60487(17) 0.35751(13) 0.08888(11)
H19 H 0.6152 0.3198 0.0731
C27 C 0.56958(17) 0.34559(12) 0.14912(10)
C28 C 0.54847(18) 0.27956(12) 0.18772(11)
H20 H 0.5564 0.2417 0.1721
C29 C 0.51753(17) 0.26946(12) 0.24586(11)
H21 H 0.5041 0.2247 0.2703
C30 C 0.50444(16) 0.32481(11) 0.27173(10)
C31 C 0.47617(16) 0.31537(11) 0.33199(10)
H22 H 0.4637 0.2709 0.3574
C32 C 0.46590(15) 0.37014(11) 0.35555(10)
H23 H 0.4472 0.3622 0.3970
C33 C 0.48227(15) 0.43634(10) 0.32017(9)
C34 C 0.51038(15) 0.44772(10) 0.25868(9)
C35 C 0.52646(15) 0.51398(11) 0.21844(10)
H24 H 0.5154 0.5524 0.2332
C36 C 0.55695(16) 0.52351(11) 0.16015(10)
H25 H 0.5668 0.5684 0.1350
C37 C 0.66780(18) 0.43125(14) -0.01421(11)
C38 C 0.6668(2) 0.50560(14) -0.05069(11)
H26 H 0.7108 0.5309 -0.0353
H27 H 0.5984 0.5246 -0.0479
H28 H 0.6904 0.5090 -0.0923
C39 C 0.7765(2) 0.40295(17) -0.01575(12)
H29 H 0.7778 0.3553 0.0079
H30 H 0.8173 0.4292 0.0007
H31 H 0.8036 0.4064 -0.0569
C40 C 0.6056(2) 0.39142(15) -0.04203(12)
H32 H 0.5352 0.4062 -0.0379
H33 H 0.6120 0.3428 -0.0218
H34 H 0.6300 0.3997 -0.0842
C41 C 0.36875(15) 0.50571(10) 0.37365(9)
C42 C 0.46581(15) 0.49357(10) 0.34811(9)
C43 C 0.54427(15) 0.53477(10) 0.34912(9)
C44 C 0.52513(15) 0.58867(10) 0.37506(9)
C45 C 0.42762(15) 0.60161(10) 0.39929(9)
C46 C 0.34948(15) 0.55950(10) 0.39936(9)
C47 C 0.64869(15) 0.52166(11) 0.32435(10)
C48 C 0.69926(16) 0.46124(11) 0.34901(10)
H35 H 0.6659 0.4268 0.3801
C49 C 0.79846(18) 0.45091(13) 0.32834(12)
H36 H 0.8328 0.4096 0.3457
C50 C 0.84708(18) 0.50017(13) 0.28290(12)
H37 H 0.9151 0.4931 0.2693
C51 C 0.79730(18) 0.55948(13) 0.25726(11)
H38 H 0.8305 0.5931 0.2254
C52 C 0.69868(16) 0.57041(12) 0.27780(10)
H39 H 0.6648 0.6117 0.2599
C53 C 0.60829(15) 0.63281(11) 0.37633(9)
C54 C 0.69003(16) 0.60588(12) 0.40608(10)
H40 H 0.6930 0.5588 0.4264
C55 C 0.76775(17) 0.64652(14) 0.40665(11)
H41 H 0.8234 0.6273 0.4273
C56 C 0.7644(2) 0.71457(15) 0.37734(13)
H42 H 0.8177 0.7425 0.3776
C57 C 0.68372(19) 0.74192(13) 0.34763(13)
H43 H 0.6814 0.7890 0.3273
C58 C 0.60602(17) 0.70187(11) 0.34696(10)
H44 H 0.5505 0.7216 0.3263
C59 C 0.40712(15) 0.65950(10) 0.42573(9)
C60 C 0.44165(16) 0.65780(11) 0.47881(10)
H45 H 0.4784 0.6191 0.4992
C61 C 0.42292(17) 0.71237(13) 0.50242(11)
H46 H 0.4453 0.7102 0.5394
C62 C 0.37214(17) 0.76937(12) 0.47248(12)
H47 H 0.3608 0.8071 0.4882
C63 C 0.33777(17) 0.77159(11) 0.41969(11)
H48 H 0.3024 0.8109 0.3990
C64 C 0.35439(16) 0.71687(11) 0.39657(10)
H49 H 0.3294 0.7186 0.3604
C65 C 0.24598(15) 0.56992(10) 0.42673(10)
C66 C 0.22636(17) 0.56192(10) 0.48765(10)
H50 H 0.2803 0.5545 0.5112
C67 C 0.12883(19) 0.56474(11) 0.51427(12)
H51 H 0.1164 0.5589 0.5558
C68 C 0.05056(19) 0.57603(12) 0.48056(13)
H52 H -0.0162 0.5768 0.4989
C69 C 0.06839(17) 0.58629(12) 0.42010(13)
H53 H 0.0141 0.5955 0.3967
C70 C 0.16611(16) 0.58323(11) 0.39308(11)
H54 H 0.1780 0.5903 0.3514
C141? C 0.2497(10) 0.2937(5) -0.0260(5)
C142? C 0.2126(19) 0.2521(10) -0.0647(12)
H109? H 0.2453 0.2680 -0.1055
H110? H 0.2293 0.2038 -0.0481
H111? H 0.1399 0.2584 -0.0649
C143? C 0.3608(8) 0.3029(6) -0.0365(4)
H112? H 0.3814 0.3201 -0.0793
H113? H 0.3784 0.3354 -0.0166
H114? H 0.3951 0.2592 -0.0207
C144? C 0.1969(11) 0.3645(5) -0.0443(5)
H115? H 0.2231 0.3888 -0.0850
H116? H 0.1248 0.3590 -0.0423
H117? H 0.2096 0.3903 -0.0173
loop_
_geom_bond_atom_site_label_1
_geom_bond_atom_site_label_2
_geom_bond_site_symmetry_1
_geom_bond_site_symmetry_2
C1 C2 1_555 1_555
C2 C3 1_555 1_555
C3 C4 1_555 1_555
C4 H1 1_555 1_555
C5 C4 1_555 1_555
C6 C5 1_555 1_555
H2 C6 1_555 1_555
C7 C2 1_555 1_555
C8 C7 1_555 1_555
H3 C8 1_555 1_555
C9 C8 1_555 1_555
H4 C9 1_555 1_555
C10 C1 1_555 1_555
C11 C10 1_555 1_555
H5 C11 1_555 1_555
C12 C11 1_555 1_555
H6 C12 1_555 1_555
C13 C12 1_555 1_555
C14 C1 1_555 1_555
C15 C14 1_555 1_555
H7 C15 1_555 1_555
C16 C3 1_555 1_555
H8 C16 1_555 1_555
C17 C5 1_555 1_555
C18 C17 1_555 1_555
H9 C18 1_555 1_555
H10 C18 1_555 1_555
H11 C18 1_555 1_555
C19 C17 1_555 1_555
H12 C19 1_555 1_555
H13 C19 1_555 1_555
H14 C19 1_555 1_555
C20 C17 1_555 1_555
H15 C20 1_555 1_555
H16 C20 1_555 1_555
H17 C20 1_555 1_555
C21 C22 1_555 1_555
C22 C23 1_555 1_555
C23 C24 1_555 1_555
C24 H18 1_555 1_555
C25 C24 1_555 1_555
C26 C25 1_555 1_555
H19 C26 1_555 1_555
C27 C22 1_555 1_555
C28 C27 1_555 1_555
H20 C28 1_555 1_555
C29 C28 1_555 1_555
H21 C29 1_555 1_555
C30 C21 1_555 1_555
C31 C30 1_555 1_555
H22 C31 1_555 1_555
C32 C31 1_555 1_555
H23 C32 1_555 1_555
C33 C32 1_555 1_555
C34 C21 1_555 1_555
C35 C34 1_555 1_555
H24 C35 1_555 1_555
C36 C23 1_555 1_555
H25 C36 1_555 1_555
C37 C25 1_555 1_555
C38 C37 1_555 1_555
H26 C38 1_555 1_555
H27 C38 1_555 1_555
H28 C38 1_555 1_555
C39 C37 1_555 1_555
H29 C39 1_555 1_555
H30 C39 1_555 1_555
H31 C39 1_555 1_555
C40 C37 1_555 1_555
H32 C40 1_555 1_555
H33 C40 1_555 1_555
H34 C40 1_555 1_555
C41 C13 1_555 1_555
C42 C33 1_555 1_555
C43 C42 1_555 1_555
C44 C43 1_555 1_555
C45 C44 1_555 1_555
C46 C41 1_555 1_555
C47 C43 1_555 1_555
C48 C47 1_555 1_555
H35 C48 1_555 1_555
C49 C48 1_555 1_555
H36 C49 1_555 1_555
C50 C49 1_555 1_555
H37 C50 1_555 1_555
C51 C50 1_555 1_555
H38 C51 1_555 1_555
C52 C47 1_555 1_555
H39 C52 1_555 1_555
C53 C44 1_555 1_555
C54 C53 1_555 1_555
H40 C54 1_555 1_555
C55 C54 1_555 1_555
H41 C55 1_555 1_555
C56 C55 1_555 1_555
H42 C56 1_555 1_555
C57 C56 1_555 1_555
H43 C57 1_555 1_555
C58 C53 1_555 1_555
H44 C58 1_555 1_555
C59 C45 1_555 1_555
C60 C59 1_555 1_555
H45 C60 1_555 1_555
C61 C60 1_555 1_555
H46 C61 1_555 1_555
C62 C61 1_555 1_555
H47 C62 1_555 1_555
C63 C62 1_555 1_555
H48 C63 1_555 1_555
C64 C59 1_555 1_555
H49 C64 1_555 1_555
C65 C46 1_555 1_555
C66 C65 1_555 1_555
H50 C66 1_555 1_555
C67 C66 1_555 1_555
H51 C67 1_555 1_555
C68 C67 1_555 1_555
H52 C68 1_555 1_555
C69 C68 1_555 1_555
H53 C69 1_555 1_555
C70 C65 1_555 1_555
H54 C70 1_555 1_555
C71 C72 1_555 1_555
C72 C73 1_555 1_555
C73 C74 1_555 1_555
C74 H55 1_555 1_555
C75 C74 1_555 1_555
C76 C75 1_555 1_555
H56 C76 1_555 1_555
C77 C72 1_555 1_555
C78 C77 1_555 1_555
H57 C78 1_555 1_555
C79 C78 1_555 1_555
H58 C79 1_555 1_555
C80 C71 1_555 1_555
C81 C80 1_555 1_555
H59 C81 1_555 1_555
C82 C81 1_555 1_555
H60 C82 1_555 1_555
C83 C82 1_555 1_555
C84 C71 1_555 1_555
C85 C84 1_555 1_555
H61 C85 1_555 1_555
C86 C73 1_555 1_555
H62 C86 1_555 1_555
C87 C75 1_555 1_555
C88 C87 1_555 1_555
H63 C88 1_555 1_555
H64 C88 1_555 1_555
H65 C88 1_555 1_555
C89 C87 1_555 1_555
H66 C89 1_555 1_555
H67 C89 1_555 1_555
H68 C89 1_555 1_555
C90 C87 1_555 1_555
H69 C90 1_555 1_555
H70 C90 1_555 1_555
H71 C90 1_555 1_555
C91 C92 1_555 1_555
C92 C93 1_555 1_555
C93 C94 1_555 1_555
C94 H72 1_555 1_555
C95 C94 1_555 1_555
C96 C95 1_555 1_555
H73 C96 1_555 1_555
C97 C92 1_555 1_555
C98 C97 1_555 1_555
H74 C98 1_555 1_555
C99 C98 1_555 1_555
H75 C99 1_555 1_555
C100 C91 1_555 1_555
C101 C100 1_555 1_555
H76 C101 1_555 1_555
C102 C101 1_555 1_555
H77 C102 1_555 1_555
C103 C102 1_555 1_555
C104 C91 1_555 1_555
C105 C104 1_555 1_555
H78 C105 1_555 1_555
C106 C93 1_555 1_555
H79 C106 1_555 1_555
C107 C95 1_555 1_555
C108 C107 1_555 1_555
H80 C108 1_555 1_555
H81 C108 1_555 1_555
H82 C108 1_555 1_555
C109 C107 1_555 1_555
H83 C109 1_555 1_555
H84 C109 1_555 1_555
H85 C109 1_555 1_555
C110 C107 1_555 1_555
H86 C110 1_555 1_555
H87 C110 1_555 1_555
H88 C110 1_555 1_555
C111 C83 1_555 1_555
C112 C103 1_555 1_555
C113 C112 1_555 1_555
C114 C113 1_555 1_555
C115 C114 1_555 1_555
C116 C111 1_555 1_555
C117 C113 1_555 1_555
C118 C117 1_555 1_555
H89 C118 1_555 1_555
C119 C118 1_555 1_555
H90 C119 1_555 1_555
C120 C119 1_555 1_555
H91 C120 1_555 1_555
C121 C120 1_555 1_555
H92 C121 1_555 1_555
C122 C117 1_555 1_555
H93 C122 1_555 1_555
C123 C114 1_555 1_555
C124 C123 1_555 1_555
H94 C124 1_555 1_555
C125 C124 1_555 1_555
H95 C125 1_555 1_555
C126 C125 1_555 1_555
H96 C126 1_555 1_555
C127 C126 1_555 1_555
H97 C127 1_555 1_555
C128 C123 1_555 1_555
H98 C128 1_555 1_555
C129 C115 1_555 1_555
C130 C129 1_555 1_555
H99 C130 1_555 1_555
C131 C130 1_555 1_555
H100 C131 1_555 1_555
C132 C131 1_555 1_555
H101 C132 1_555 1_555
C133 C132 1_555 1_555
H102 C133 1_555 1_555
C134 C129 1_555 1_555
H103 C134 1_555 1_555
C135 C116 1_555 1_555
C136 C135 1_555 1_555
H104 C136 1_555 1_555
C137 C136 1_555 1_555
H105 C137 1_555 1_555
C138 C137 1_555 1_555
H106 C138 1_555 1_555
C139 C138 1_555 1_555
H107 C139 1_555 1_555
C140 C135 1_555 1_555
H108 C140 1_555 1_555
C6 C7 1_555 1_555
C9 C10 1_555 1_555
C13 C14 1_555 1_555
C15 C16 1_555 1_555
C26 C27 1_555 1_555
C29 C30 1_555 1_555
C33 C34 1_555 1_555
C35 C36 1_555 1_555
C41 C42 1_555 1_555
C45 C46 1_555 1_555
C51 C52 1_555 1_555
C57 C58 1_555 1_555
C63 C64 1_555 1_555
C69 C70 1_555 1_555
C76 C77 1_555 1_555
C79 C80 1_555 1_555
C83 C84 1_555 1_555
C85 C86 1_555 1_555
C96 C97 1_555 1_555
C99 C100 1_555 1_555
C103 C104 1_555 1_555
C105 C106 1_555 1_555
C111 C112 1_555 1_555
C115 C116 1_555 1_555
C121 C122 1_555 1_555
C127 C128 1_555 1_555
C133 C134 1_555 1_555
C139 C140 1_555 1_555

#END
