
#######################################################################
#
#                 Cambridge Crystallographic Data Centre
#                                CCDC 
#
#######################################################################
#
# If this CIF has been generated from an entry in the Cambridge 
# Structural Database, then it will include bibliographic, chemical, 
# crystal, experimental, refinement or atomic coordinate data resulting 
# from the CCDC's data processing and validation procedures.
#
#######################################################################

data_CIPMUK
_chemical_formula_moiety         'C8 H10 O4'
_chemical_name_systematic        
'Ethyl (1S,5R)-4-oxo-3-oxabicyclo(3.1.0)hexane-5-carboxylate'
_symmetry_cell_setting           orthorhombic
_symmetry_space_group_name_H-M   'P 21 21 21'
_symmetry_Int_Tables_number      19
_space_group_name_Hall           'P 2ac 2ab'
loop_
_symmetry_equiv_pos_site_id
_symmetry_equiv_pos_as_xyz
1 x,y,z
2 1/2-x,-y,1/2+z
3 -x,1/2+y,1/2-z
4 1/2+x,1/2-y,-z
_cell_length_a                   6.6245(6)
_cell_length_b                   6.8299(7)
_cell_length_c                   17.4479(18)
_cell_angle_alpha                90
_cell_angle_beta                 90
_cell_angle_gamma                90
_cell_volume                     789.425
_exptl_crystal_colour            colorless
_exptl_crystal_description       cubic
_cell_formula_units_Z            4
loop_
_atom_site_label
_atom_site_type_symbol
_atom_site_fract_x
_atom_site_fract_y
_atom_site_fract_z
O1 O 1.19796(19) 0.5360(2) -0.02228(8)
C1 C 0.9842(3) 0.5682(3) -0.03719(10)
H1 H 0.9390 0.4873 -0.0795
H2 H 0.9595 0.7044 -0.0499
C2 C 0.8744(3) 0.5134(3) 0.03560(10)
H3 H 0.7380 0.4582 0.0327
C3 C 0.9401(3) 0.6149(3) 0.10599(10)
H4 H 0.8461 0.6203 0.1485
H5 H 1.0248 0.7298 0.1002
C4 C 1.0323(2) 0.4155(3) 0.08584(10)
C5 C 1.2278(3) 0.4351(3) 0.04354(10)
O2 O 1.3925(2) 0.3804(2) 0.06222(8)
C6 C 0.9946(2) 0.2380(3) 0.13259(9)
O3 O 1.1052(2) 0.0982(2) 0.13613(8)
O4 O 0.82018(18) 0.25354(19) 0.17046(7)
C7 C 0.7635(3) 0.0861(3) 0.21733(10)
H6 H 0.8250 -0.0363 0.2177
C8 C 0.5865(3) 0.1493(3) 0.26509(11)
H7 H 0.6220 0.2639 0.2939
H8 H 0.5500 0.0457 0.2996
H9 H 0.4742 0.1786 0.2322
loop_
_geom_bond_atom_site_label_1
_geom_bond_atom_site_label_2
_geom_bond_site_symmetry_1
_geom_bond_site_symmetry_2
O1 C1 1_555 1_555
C1 H1 1_555 1_555
H2 C1 1_555 1_555
C2 C1 1_555 1_555
H3 C2 1_555 1_555
C3 C2 1_555 1_555
H4 C3 1_555 1_555
H5 C3 1_555 1_555
C4 C2 1_555 1_555
C5 O1 1_555 1_555
O2 C5 1_555 1_555
C6 C4 1_555 1_555
O3 C6 1_555 1_555
O4 C6 1_555 1_555
C7 O4 1_555 1_555
H6 C7 1_555 1_555
C8 C7 1_555 1_555
H7 C8 1_555 1_555
H8 C8 1_555 1_555
H9 C8 1_555 1_555
C3 C4 1_555 1_555
C4 C5 1_555 1_555

#END
