
#######################################################################
#
#                 Cambridge Crystallographic Data Centre
#                                CCDC 
#
#######################################################################
#
# If this CIF has been generated from an entry in the Cambridge 
# Structural Database, then it will include bibliographic, chemical, 
# crystal, experimental, refinement or atomic coordinate data resulting 
# from the CCDC's data processing and validation procedures.
#
#######################################################################

data_CIPNAR
_chemical_formula_moiety         'C13 H11 N1 O4'
_chemical_name_systematic        
4-(\b-Phthalimidylmethyl)tetrahydrofuran-2-one
_symmetry_cell_setting           orthorhombic
_symmetry_space_group_name_H-M   'P 21 21 21'
_symmetry_Int_Tables_number      19
_space_group_name_Hall           'P 2ac 2ab'
loop_
_symmetry_equiv_pos_site_id
_symmetry_equiv_pos_as_xyz
1 x,y,z
2 1/2-x,-y,1/2+z
3 -x,1/2+y,1/2-z
4 1/2+x,1/2-y,-z
_cell_length_a                   6.9340(2)
_cell_length_b                   9.6320(3)
_cell_length_c                   17.3308(5)
_cell_angle_alpha                90
_cell_angle_beta                 90
_cell_angle_gamma                90
_cell_volume                     1157.49
_exptl_crystal_colour            colorless
_exptl_crystal_description       plate
_cell_formula_units_Z            4
loop_
_atom_site_label
_atom_site_type_symbol
_atom_site_fract_x
_atom_site_fract_y
_atom_site_fract_z
C1 C 0.7328(4) 0.0056(3) 0.12764(13)
H1 H 0.8355 -0.0513 0.1137
C2 C 0.5672(5) -0.0483(3) 0.16162(15)
H2 H 0.5590 -0.1433 0.1706
C3 C 0.4155(5) 0.0355(4) 0.18226(14)
H3 H 0.3059 -0.0043 0.2039
C4 C 0.4221(4) 0.1784(3) 0.17160(12)
H4 H 0.3205 0.2355 0.1863
C5 C 0.5871(3) 0.2312(2) 0.13804(10)
C6 C 0.7378(3) 0.1462(2) 0.11567(10)
C7 C 0.8866(3) 0.2340(2) 0.07823(10)
O1 O 1.0352(2) 0.20057(17) 0.04689(10)
C8 C 0.6383(3) 0.3764(2) 0.11810(11)
O2 O 0.5492(2) 0.48170(19) 0.12869(10)
N1 N 0.8202(2) 0.37016(17) 0.08364(8)
C9 C 0.9117(3) 0.4881(2) 0.04837(11)
H5 H 0.8277 0.5681 0.0534
H6 H 0.9285 0.4698 -0.0063
C10 C 1.1069(3) 0.52262(19) 0.08355(11)
C11 C 1.0982(3) 0.55325(19) 0.16930(11)
H7 H 0.9897 0.5060 0.1929
H8 H 1.2158 0.5232 0.1946
C12 C 1.0753(4) 0.7067(2) 0.17558(12)
O3 O 1.0293(4) 0.77583(19) 0.22960(10)
O4 O 1.1206(3) 0.76553(16) 0.10717(10)
C13 C 1.1812(4) 0.6619(2) 0.05279(14)
H9 H 1.3207 0.6605 0.0487
H10 H 1.1274 0.6808 0.0022
loop_
_geom_bond_atom_site_label_1
_geom_bond_atom_site_label_2
_geom_bond_site_symmetry_1
_geom_bond_site_symmetry_2
C1 H1 1_555 1_555
C2 C1 1_555 1_555
H2 C2 1_555 1_555
C3 C2 1_555 1_555
H3 C3 1_555 1_555
C4 C3 1_555 1_555
H4 C4 1_555 1_555
C5 C4 1_555 1_555
C6 C1 1_555 1_555
C7 C6 1_555 1_555
O1 C7 1_555 1_555
C8 C5 1_555 1_555
O2 C8 1_555 1_555
N1 C7 1_555 1_555
C9 N1 1_555 1_555
H5 C9 1_555 1_555
H6 C9 1_555 1_555
C10 C9 1_555 1_555
C11 C10 1_555 1_555
H7 C11 1_555 1_555
H8 C11 1_555 1_555
C12 C11 1_555 1_555
O3 C12 1_555 1_555
O4 C12 1_555 1_555
C13 C10 1_555 1_555
H9 C13 1_555 1_555
H10 C13 1_555 1_555
C5 C6 1_555 1_555
C8 N1 1_555 1_555
O4 C13 1_555 1_555

#END
