
#######################################################################
#
#                 Cambridge Crystallographic Data Centre
#                                CCDC 
#
#######################################################################
#
# If this CIF has been generated from an entry in the Cambridge 
# Structural Database, then it will include bibliographic, chemical, 
# crystal, experimental, refinement or atomic coordinate data resulting 
# from the CCDC's data processing and validation procedures.
#
#######################################################################

data_CIPPOI
_chemical_formula_moiety         'C17 H11 Cl1 N2 O5'
_chemical_name_systematic        
3-(4-Chlorophenyl)-5,7-dinitro-3,4-dihydronaphthalene-2-carbaldehyde
_symmetry_cell_setting           monoclinic
_symmetry_space_group_name_H-M   'P 21'
_symmetry_Int_Tables_number      4
_space_group_name_Hall           'P 2yb'
loop_
_symmetry_equiv_pos_site_id
_symmetry_equiv_pos_as_xyz
1 x,y,z
2 -x,1/2+y,-z
_cell_length_a                   12.080(2)
_cell_length_b                   9.919(2)
_cell_length_c                   13.700(3)
_cell_angle_alpha                90
_cell_angle_beta                 90.45(3)
_cell_angle_gamma                90
_cell_volume                     1641.5
_exptl_crystal_colour            yellow
_exptl_crystal_description       block
_cell_formula_units_Z            4
loop_
_atom_site_label
_atom_site_type_symbol
_atom_site_fract_x
_atom_site_fract_y
_atom_site_fract_z
Cl1 Cl 0.30138(8) 0.62458(10) 0.74491(9)
O1 O -0.2736(3) 1.3442(3) 0.6199(3)
O2 O -0.2981(3) 1.3340(3) 0.7730(3)
O3 O -0.3845(3) 0.7498(5) 0.8402(3)
O4 O -0.2899(5) 0.8895(4) 0.9288(2)
O5 O -0.1460(3) 0.5666(4) 0.3901(3)
N1 N -0.2831(2) 1.2813(3) 0.6936(3)
N2 N -0.3234(3) 0.8479(4) 0.8514(2)
C1 C -0.1831(3) 0.7407(3) 0.5017(2)
C2 C -0.1701(3) 0.6571(3) 0.5921(2)
H1 H -0.1909 0.5645 0.5748
C3 C -0.2518(2) 0.7050(3) 0.6705(3)
H2 H -0.3245 0.6689 0.6552
H3 H -0.2290 0.6680 0.7330
C4 C -0.26076(18) 0.8550(3) 0.67993(19)
C5 C -0.29168(19) 0.9230(3) 0.7636(2)
C6 C -0.2986(2) 1.0617(3) 0.7715(2)
H4 H -0.3170 1.1032 0.8301
C7 C -0.27717(18) 1.1349(3) 0.6892(2)
C8 C -0.2498(2) 1.0750(3) 0.6025(2)
H5 H -0.2376 1.1275 0.5474
C9 C -0.2403(2) 0.9353(2) 0.59744(18)
C10 C -0.2137(3) 0.8703(3) 0.50607(19)
H6 H -0.2180 0.9201 0.4486
C11 C -0.1643(4) 0.6804(5) 0.4048(3)
H7 H -0.1672 0.7377 0.3511
C12 C -0.0501(2) 0.6528(2) 0.6288(2)
C13 C 0.0272(2) 0.7530(3) 0.6113(2)
H8 H 0.0062 0.8280 0.5748
C14 C 0.1338(3) 0.7448(3) 0.6464(3)
H9 H 0.1840 0.8133 0.6332
C15 C 0.1658(2) 0.6359(3) 0.7004(2)
C16 C 0.0917(3) 0.5340(3) 0.7211(3)
H10 H 0.1135 0.4602 0.7585
C17 C -0.0152(3) 0.5436(3) 0.6854(2)
H11 H -0.0654 0.4753 0.6995
Cl2 Cl 0.49872(8) 0.56751(11) 0.52785(5)
O6 O 0.9816(3) 0.7411(4) 0.1565(3)
O7 O 1.0468(2) 0.5978(5) 0.2606(2)
O8 O 0.9369(3) 0.0702(3) 0.0441(2)
O9 O 1.0857(3) 0.1586(3) 0.1026(2)
O10 O 0.42187(16) 0.6499(2) 0.01726(18)
N3 N 0.99009(18) 0.6280(4) 0.1892(2)
N4 N 0.9890(3) 0.1651(4) 0.0768(2)
C18 C 0.60011(19) 0.5544(3) 0.03672(18)
C19 C 0.63706(17) 0.6567(2) 0.11042(18)
H12 H 0.6049 0.7433 0.0907
C20 C 0.76377(19) 0.6727(3) 0.10682(19)
H13 H 0.7830 0.7250 0.0496
H14 H 0.7884 0.7226 0.1639
C21 C 0.82403(19) 0.5400(3) 0.10352(17)
C22 C 0.92781(19) 0.5178(3) 0.14253(19)
C23 C 0.9827(2) 0.3952(4) 0.1360(2)
H15 H 1.0523 0.3829 0.1640
C24 C 0.9308(2) 0.2942(3) 0.0871(2)
C25 C 0.8272(2) 0.3087(3) 0.0457(2)
H16 H 0.7936 0.2374 0.0127
C26 C 0.7741(2) 0.4319(3) 0.05426(18)
C27 C 0.6640(2) 0.4510(3) 0.01220(19)
H17 H 0.6376 0.3889 -0.0332
C28 C 0.4888(2) 0.5669(3) -0.0059(2)
H18 H 0.4688 0.5059 -0.0545
C29 C 0.59871(16) 0.6291(2) 0.21384(17)
C30 C 0.5746(2) 0.7367(2) 0.2743(2)
H19 H 0.5781 0.8239 0.2495
C31 C 0.5457(2) 0.7179(3) 0.3699(2)
H20 H 0.5307 0.7916 0.4097
C32 C 0.5392(2) 0.5895(3) 0.4063(2)
C33 C 0.5624(2) 0.4799(3) 0.3492(2)
H21 H 0.5587 0.3932 0.3747
C34 C 0.59133(19) 0.5002(2) 0.25279(19)
H22 H 0.6061 0.4262 0.2133
loop_
_geom_bond_atom_site_label_1
_geom_bond_atom_site_label_2
_geom_bond_site_symmetry_1
_geom_bond_site_symmetry_2
Cl1 C15 1_555 1_555
O1 N1 1_555 1_555
O2 N1 1_555 1_555
O3 N2 1_555 1_555
O4 N2 1_555 1_555
O5 C11 1_555 1_555
N1 C7 1_555 1_555
N2 C5 1_555 1_555
C1 C2 1_555 1_555
C2 H1 1_555 1_555
C3 C2 1_555 1_555
H2 C3 1_555 1_555
H3 C3 1_555 1_555
C4 C3 1_555 1_555
C5 C4 1_555 1_555
C6 C5 1_555 1_555
H4 C6 1_555 1_555
C7 C6 1_555 1_555
C8 C7 1_555 1_555
H5 C8 1_555 1_555
C9 C4 1_555 1_555
C10 C1 1_555 1_555
H6 C10 1_555 1_555
C11 C1 1_555 1_555
H7 C11 1_555 1_555
C12 C2 1_555 1_555
C13 C12 1_555 1_555
H8 C13 1_555 1_555
C14 C13 1_555 1_555
H9 C14 1_555 1_555
C15 C14 1_555 1_555
C16 C15 1_555 1_555
H10 C16 1_555 1_555
C17 C12 1_555 1_555
H11 C17 1_555 1_555
Cl2 C32 1_555 1_555
O6 N3 1_555 1_555
O7 N3 1_555 1_555
O8 N4 1_555 1_555
O9 N4 1_555 1_555
O10 C28 1_555 1_555
N3 C22 1_555 1_555
N4 C24 1_555 1_555
C18 C19 1_555 1_555
C19 H12 1_555 1_555
C20 C19 1_555 1_555
H13 C20 1_555 1_555
H14 C20 1_555 1_555
C21 C20 1_555 1_555
C22 C21 1_555 1_555
C23 C22 1_555 1_555
H15 C23 1_555 1_555
C24 C23 1_555 1_555
C25 C24 1_555 1_555
H16 C25 1_555 1_555
C26 C21 1_555 1_555
C27 C18 1_555 1_555
H17 C27 1_555 1_555
C28 C18 1_555 1_555
H18 C28 1_555 1_555
C29 C19 1_555 1_555
C30 C29 1_555 1_555
H19 C30 1_555 1_555
C31 C30 1_555 1_555
H20 C31 1_555 1_555
C32 C31 1_555 1_555
C33 C32 1_555 1_555
H21 C33 1_555 1_555
C34 C29 1_555 1_555
H22 C34 1_555 1_555
C8 C9 1_555 1_555
C9 C10 1_555 1_555
C16 C17 1_555 1_555
C25 C26 1_555 1_555
C26 C27 1_555 1_555
C33 C34 1_555 1_555

#END
