
#######################################################################
#
#                 Cambridge Crystallographic Data Centre
#                                CCDC 
#
#######################################################################
#
# If this CIF has been generated from an entry in the Cambridge 
# Structural Database, then it will include bibliographic, chemical, 
# crystal, experimental, refinement or atomic coordinate data resulting 
# from the CCDC's data processing and validation procedures.
#
#######################################################################

data_CIPPAT
_chemical_formula_moiety         'C26 H22 B1 N1 O3'
_chemical_name_systematic        
2,6-bis(5-Methyl-2-hydroxyphenyl)pyridyl-(4-methoxyphenyl)borane
_symmetry_cell_setting           monoclinic
_symmetry_space_group_name_H-M   'P 21/n'
_symmetry_Int_Tables_number      14
_space_group_name_Hall           '-P 2yn'
loop_
_symmetry_equiv_pos_site_id
_symmetry_equiv_pos_as_xyz
1 x,y,z
2 1/2-x,1/2+y,1/2-z
3 -x,-y,-z
4 1/2+x,1/2-y,1/2+z
_cell_length_a                   8.2799(17)
_cell_length_b                   8.8747(18)
_cell_length_c                   28.103(6)
_cell_angle_alpha                90
_cell_angle_beta                 95.03(3)
_cell_angle_gamma                90
_cell_volume                     2057.1
_exptl_crystal_colour            yellow
_exptl_crystal_description       prism
_cell_formula_units_Z            4
_exptl_crystal_recrystallization_method 'thf/diethyl ether'
_exptl_crystal_preparation       photoluminescent
loop_
_atom_site_label
_atom_site_type_symbol
_atom_site_fract_x
_atom_site_fract_y
_atom_site_fract_z
B1 B 0.3938(2) 0.32716(18) 0.15062(6)
O1 O 0.25806(12) 0.29441(11) 0.11567(3)
O2 O 0.32513(12) 0.42634(12) 0.18508(3)
O3 O 0.91998(15) 0.62815(15) 0.06577(5)
N1 N 0.44566(14) 0.17224(13) 0.17738(4)
C1 C 0.27672(17) 0.17717(17) 0.08603(5)
C2 C 0.1977(2) 0.1806(2) 0.04018(6)
H1 H 0.128(2) 0.269(2) 0.0311(6)
C3 C 0.2144(2) 0.0608(2) 0.00959(6)
H2 H 0.162(2) 0.067(2) -0.0209(7)
C4 C 0.3083(2) -0.06495(19) 0.02314(5)
C5 C 0.3837(2) -0.06769(19) 0.06910(5)
H3 H 0.452(2) -0.1529(19) 0.0791(6)
C6 C 0.36838(18) 0.05108(16) 0.10141(5)
C7 C 0.43746(17) 0.04190(16) 0.15144(5)
C8 C 0.4893(2) -0.09197(19) 0.17331(6)
H4 H 0.479(2) -0.187(2) 0.1556(6)
C9 C 0.5517(2) -0.09038(19) 0.22044(6)
H5 H 0.587(2) -0.185(2) 0.2366(6)
C10 C 0.5574(2) 0.04136(19) 0.24617(6)
H6 H 0.595(2) 0.047(2) 0.2770(7)
C11 C 0.50072(17) 0.17452(17) 0.22460(5)
C12 C 0.49172(18) 0.31748(17) 0.25025(5)
C13 C 0.5607(2) 0.3356(2) 0.29763(5)
H7 H 0.621(2) 0.257(2) 0.3136(6)
C14 C 0.5413(2) 0.4651(2) 0.32362(5)
C15 C 0.4492(2) 0.5807(2) 0.30173(6)
H8 H 0.430(2) 0.671(2) 0.3186(6)
C16 C 0.3798(2) 0.56775(19) 0.25561(6)
H9 H 0.312(2) 0.6476(19) 0.2397(6)
C17 C 0.40029(17) 0.43676(17) 0.22942(5)
C18 C 0.54796(17) 0.39798(16) 0.12754(5)
C19 C 0.70950(19) 0.37534(18) 0.14381(5)
H10 H 0.739(2) 0.303(2) 0.1714(6)
C20 C 0.8379(2) 0.44743(18) 0.12434(6)
H11 H 0.946(2) 0.429(2) 0.1371(6)
C21 C 0.80555(19) 0.54741(18) 0.08737(6)
C22 C 0.6470(2) 0.5710(2) 0.06914(7)
H12 H 0.622(3) 0.636(2) 0.0407(8)
C23 C 0.5227(2) 0.4976(2) 0.08899(6)
H13 H 0.410(2) 0.514(2) 0.0739(6)
C24 C 1.0817(2) 0.6225(3) 0.08654(12)
H14 H 1.144(3) 0.687(3) 0.0683(9)
H15 H 1.124(3) 0.512(3) 0.0851(9)
H16 H 1.089(3) 0.649(3) 0.1210(10)
C25 C 0.3273(3) -0.1924(3) -0.01135(7)
H17 H 0.350(3) -0.284(3) 0.0041(10)
H18 H 0.229(4) -0.212(3) -0.0257(10)
H19 H 0.400(4) -0.171(4) -0.0346(12)
C26 C 0.6150(3) 0.4802(3) 0.37458(7)
H20 H 0.679(3) 0.390(3) 0.3866(9)
H21 H 0.545(4) 0.507(4) 0.3966(12)
H22 H 0.702(4) 0.546(4) 0.3771(10)
loop_
_geom_bond_atom_site_label_1
_geom_bond_atom_site_label_2
_geom_bond_site_symmetry_1
_geom_bond_site_symmetry_2
B1 O1 1_555 1_555
O1 C1 1_555 1_555
O2 B1 1_555 1_555
O3 C21 1_555 1_555
N1 B1 1_555 1_555
C1 C2 1_555 1_555
C2 H1 1_555 1_555
C3 C2 1_555 1_555
H2 C3 1_555 1_555
C4 C3 1_555 1_555
C5 C4 1_555 1_555
H3 C5 1_555 1_555
C6 C1 1_555 1_555
C7 N1 1_555 1_555
C8 C7 1_555 1_555
H4 C8 1_555 1_555
C9 C8 1_555 1_555
H5 C9 1_555 1_555
C10 C9 1_555 1_555
H6 C10 1_555 1_555
C11 N1 1_555 1_555
C12 C11 1_555 1_555
C13 C12 1_555 1_555
H7 C13 1_555 1_555
C14 C13 1_555 1_555
C15 C14 1_555 1_555
H8 C15 1_555 1_555
C16 C15 1_555 1_555
H9 C16 1_555 1_555
C17 O2 1_555 1_555
C18 B1 1_555 1_555
C19 C18 1_555 1_555
H10 C19 1_555 1_555
C20 C19 1_555 1_555
H11 C20 1_555 1_555
C21 C20 1_555 1_555
C22 C21 1_555 1_555
H12 C22 1_555 1_555
C23 C18 1_555 1_555
H13 C23 1_555 1_555
C24 O3 1_555 1_555
H14 C24 1_555 1_555
H15 C24 1_555 1_555
H16 C24 1_555 1_555
C25 C4 1_555 1_555
H17 C25 1_555 1_555
H18 C25 1_555 1_555
H19 C25 1_555 1_555
C26 C14 1_555 1_555
H20 C26 1_555 1_555
H21 C26 1_555 1_555
H22 C26 1_555 1_555
C5 C6 1_555 1_555
C6 C7 1_555 1_555
C10 C11 1_555 1_555
C12 C17 1_555 1_555
C16 C17 1_555 1_555
C22 C23 1_555 1_555

#END
