
#######################################################################
#
#                 Cambridge Crystallographic Data Centre
#                                CCDC 
#
#######################################################################
#
# If this CIF has been generated from an entry in the Cambridge 
# Structural Database, then it will include bibliographic, chemical, 
# crystal, experimental, refinement or atomic coordinate data resulting 
# from the CCDC's data processing and validation procedures.
#
#######################################################################

data_CIPRAW
_chemical_formula_moiety         'C22 H22 N4 O6'
_chemical_name_systematic        
3-Hydroxy-3-(3-hydroxybenzyl)-1,4-dimethyl-6-((4-nitro-1H-indol-3-yl)methyl)piperazine-2,5-dione
_symmetry_cell_setting           monoclinic
_symmetry_space_group_name_H-M   'C 2'
_symmetry_Int_Tables_number      5
_space_group_name_Hall           'C 2y'
loop_
_symmetry_equiv_pos_site_id
_symmetry_equiv_pos_as_xyz
1 x,y,z
2 -x,y,-z
3 1/2+x,1/2+y,z
4 1/2-x,1/2+y,-z
_cell_length_a                   14.897(3)
_cell_length_b                   6.8317(14)
_cell_length_c                   20.380(4)
_cell_angle_alpha                90
_cell_angle_beta                 102.13(3)
_cell_angle_gamma                90
_cell_volume                     2027.8
_cell_formula_units_Z            4
loop_
_atom_site_label
_atom_site_type_symbol
_atom_site_fract_x
_atom_site_fract_y
_atom_site_fract_z
O1 O 0.52877(15) 0.0755(4) 0.57836(11)
O2 O 0.53157(15) 0.3913(4) 0.58226(12)
O3 O 0.59097(15) 0.1217(3) 0.73629(11)
O4 O 0.40456(14) 0.7327(3) 0.80233(11)
O5 O 0.40958(14) 0.0972(3) 0.75539(10)
H1 H 0.4147 -0.0105 0.7758
O6 O 0.84011(13) 0.4142(3) 0.90391(11)
H2 H 0.8442 0.3328 0.8738
N1 N 0.49118(18) 0.2357(4) 0.58240(13)
N2 N 0.22743(19) 0.5485(4) 0.63086(15)
N3 N 0.57513(16) 0.4496(4) 0.74223(12)
N4 N 0.42221(16) 0.4081(4) 0.79967(12)
C1 C 0.39442(19) 0.2381(5) 0.58514(15)
C2 C 0.3441(2) 0.0775(5) 0.55772(15)
H3 H 0.3741 -0.0300 0.5419
C3 C 0.2497(2) 0.0720(5) 0.55304(15)
H4 H 0.2156 -0.0387 0.5336
C4 C 0.2057(2) 0.2241(5) 0.57610(16)
H5 H 0.1410 0.2220 0.5724
C5 C 0.2578(2) 0.3815(5) 0.60499(16)
C6 C 0.3010(2) 0.6638(5) 0.65341(18)
H6 H 0.2973 0.7877 0.6738
C7 C 0.3811(2) 0.5841(5) 0.64386(15)
C8 C 0.35482(19) 0.3978(5) 0.61159(14)
C9 C 0.4695(2) 0.6873(4) 0.67232(15)
H7 H 0.4573 0.8296 0.6735
H8 H 0.5125 0.6664 0.6420
C10 C 0.5169(2) 0.6187(4) 0.74442(15)
H9 H 0.5573 0.7280 0.7659
C11 C 0.54985(19) 0.2652(4) 0.75122(14)
C12 C 0.4742(2) 0.2301(4) 0.79045(15)
C13 C 0.4452(2) 0.5868(4) 0.78540(14)
C14 C 0.6624(2) 0.4833(5) 0.72163(17)
H10 H 0.6548 0.4560 0.6736
H11 H 0.7095 0.3965 0.7471
H12 H 0.6812 0.6198 0.7305
C15 C 0.3427(2) 0.3848(5) 0.83160(17)
H13 H 0.2890 0.4495 0.8041
H14 H 0.3567 0.4441 0.8764
H15 H 0.3296 0.2452 0.8355
C16 C 0.5239(2) 0.1507(4) 0.86045(16)
H16 H 0.4784 0.1301 0.8889
H17 H 0.5527 0.0230 0.8548
C17 C 0.5969(2) 0.2933(4) 0.89485(14)
C18 C 0.5741(2) 0.4464(5) 0.93373(16)
H18 H 0.5135 0.4566 0.9412
C19 C 0.6401(2) 0.5839(6) 0.96155(16)
H19 H 0.6245 0.6868 0.9884
C20 C 0.7284(2) 0.5717(5) 0.95034(15)
H20 H 0.7730 0.6672 0.9687
C21 C 0.7512(2) 0.4204(5) 0.91240(15)
C22 C 0.6862(2) 0.2817(4) 0.88532(14)
H21 H 0.7031 0.1768 0.8598
H22 H 0.1677(9) 0.566(5) 0.6318(16)
loop_
_geom_bond_atom_site_label_1
_geom_bond_atom_site_label_2
_geom_bond_site_symmetry_1
_geom_bond_site_symmetry_2
O1 N1 1_555 1_555
O2 N1 1_555 1_555
O3 C11 1_555 1_555
O4 C13 1_555 1_555
O5 H1 1_555 1_555
O6 H2 1_555 1_555
N1 C1 1_555 1_555
N2 C5 1_555 1_555
N3 C10 1_555 1_555
N4 C12 1_555 1_555
C1 C2 1_555 1_555
C2 H3 1_555 1_555
C3 C2 1_555 1_555
H4 C3 1_555 1_555
C4 C3 1_555 1_555
H5 C4 1_555 1_555
C5 C4 1_555 1_555
C6 N2 1_555 1_555
H6 C6 1_555 1_555
C7 C6 1_555 1_555
C8 C1 1_555 1_555
C9 C7 1_555 1_555
H7 C9 1_555 1_555
H8 C9 1_555 1_555
C10 C9 1_555 1_555
H9 C10 1_555 1_555
C11 N3 1_555 1_555
C12 O5 1_555 1_555
C13 N4 1_555 1_555
C14 N3 1_555 1_555
H10 C14 1_555 1_555
H11 C14 1_555 1_555
H12 C14 1_555 1_555
C15 N4 1_555 1_555
H13 C15 1_555 1_555
H14 C15 1_555 1_555
H15 C15 1_555 1_555
C16 C12 1_555 1_555
H16 C16 1_555 1_555
H17 C16 1_555 1_555
C17 C16 1_555 1_555
C18 C17 1_555 1_555
H18 C18 1_555 1_555
C19 C18 1_555 1_555
H19 C19 1_555 1_555
C20 C19 1_555 1_555
H20 C20 1_555 1_555
C21 O6 1_555 1_555
C22 C17 1_555 1_555
H21 C22 1_555 1_555
H22 N2 1_555 1_555
C5 C8 1_555 1_555
C7 C8 1_555 1_555
C10 C13 1_555 1_555
C11 C12 1_555 1_555
C20 C21 1_555 1_555
C21 C22 1_555 1_555

#END
