
#######################################################################
#
#                 Cambridge Crystallographic Data Centre
#                                CCDC 
#
#######################################################################
#
# If this CIF has been generated from an entry in the Cambridge 
# Structural Database, then it will include bibliographic, chemical, 
# crystal, experimental, refinement or atomic coordinate data resulting 
# from the CCDC's data processing and validation procedures.
#
#######################################################################

data_CIPRUQ
_chemical_formula_moiety         'C17 H17 Br1 O4'
_chemical_name_systematic        
'Dimethyl 12-(bromomethylene)tricyclo[7.2.1.0^2,7^]dodeca-2,4,6-triene-11,11-dicarboxylate'
_symmetry_cell_setting           monoclinic
_symmetry_space_group_name_H-M   'P 21/n'
_symmetry_Int_Tables_number      14
_space_group_name_Hall           '-P 2yn'
loop_
_symmetry_equiv_pos_site_id
_symmetry_equiv_pos_as_xyz
1 x,y,z
2 1/2-x,1/2+y,1/2-z
3 -x,-y,-z
4 1/2+x,1/2-y,1/2+z
_cell_length_a                   12.112(5)
_cell_length_b                   8.925(4)
_cell_length_c                   15.461(7)
_cell_angle_alpha                90
_cell_angle_beta                 109.235(4)
_cell_angle_gamma                90
_cell_volume                     1578.03
_exptl_crystal_colour            colorless
_exptl_crystal_description       Prism
_cell_formula_units_Z            4
loop_
_atom_site_label
_atom_site_type_symbol
_atom_site_fract_x
_atom_site_fract_y
_atom_site_fract_z
Br1 Br 0.825862(16) 1.149002(17) 0.033993(11)
O1 O 0.97539(10) 0.48178(11) 0.25282(8)
O2 O 1.00645(9) 0.69968(12) 0.33000(7)
O3 O 1.09866(9) 0.94728(11) 0.20119(7)
O4 O 1.19482(8) 0.72713(12) 0.22946(7)
C1 C 0.85178(13) 0.95744(17) -0.01014(11)
H1 H 0.8515 0.9496 -0.0715
C2 C 0.87005(13) 0.83576(16) 0.04035(10)
C3 C 0.88760(13) 0.68052(16) 0.00805(10)
H2 H 0.9094 0.6843 -0.0489
C4 C 0.77443(13) 0.59228(17) -0.00699(10)
H3 H 0.7149 0.6266 -0.0644
H4 H 0.7895 0.4847 -0.0141
C5 C 0.72654(13) 0.61109(16) 0.07195(10)
C6 C 0.63417(13) 0.52230(16) 0.07647(11)
H5 H 0.6068 0.4428 0.0339
C7 C 0.58132(13) 0.54851(17) 0.14264(11)
H6 H 0.5177 0.4879 0.1445
C8 C 0.62142(14) 0.66253(16) 0.20549(11)
H7 H 0.5840 0.6822 0.2495
C9 C 0.71646(12) 0.74851(16) 0.20429(10)
H8 H 0.7452 0.8252 0.2486
C10 C 0.77001(12) 0.72289(15) 0.13839(9)
C11 C 0.87700(12) 0.81240(15) 0.13869(10)
H9 H 0.8845 0.9088 0.1731
C12 C 0.98995(12) 0.71321(16) 0.17450(9)
C13 C 0.98785(13) 0.61709(16) 0.08941(10)
H10 H 1.0633 0.6255 0.0778
H11 H 0.9736 0.5103 0.0995
C14 C 0.98974(12) 0.61539(16) 0.25515(10)
C15 C 1.00354(16) 0.61957(19) 0.41085(11)
H12 H 0.9263 0.5739 0.3988
H13 H 1.0188 0.6896 0.4623
H14 H 1.0635 0.5411 0.4261
C16 C 1.09853(13) 0.81245(16) 0.20336(10)
C17 C 1.30517(13) 0.80670(19) 0.24730(11)
H15 H 1.3127 0.8405 0.1892
H16 H 1.3702 0.7395 0.2782
H17 H 1.3068 0.8936 0.2864
loop_
_geom_bond_atom_site_label_1
_geom_bond_atom_site_label_2
_geom_bond_site_symmetry_1
_geom_bond_site_symmetry_2
Br1 C1 1_555 1_555
O1 C14 1_555 1_555
O2 C14 1_555 1_555
O3 C16 1_555 1_555
O4 C16 1_555 1_555
C1 H1 1_555 1_555
C2 C1 1_555 1_555
C3 C2 1_555 1_555
H2 C3 1_555 1_555
C4 C3 1_555 1_555
H3 C4 1_555 1_555
H4 C4 1_555 1_555
C5 C4 1_555 1_555
C6 C5 1_555 1_555
H5 C6 1_555 1_555
C7 C6 1_555 1_555
H6 C7 1_555 1_555
C8 C7 1_555 1_555
H7 C8 1_555 1_555
C9 C8 1_555 1_555
H8 C9 1_555 1_555
C10 C5 1_555 1_555
C11 C2 1_555 1_555
H9 C11 1_555 1_555
C12 C11 1_555 1_555
C13 C3 1_555 1_555
H10 C13 1_555 1_555
H11 C13 1_555 1_555
C14 C12 1_555 1_555
C15 O2 1_555 1_555
H12 C15 1_555 1_555
H13 C15 1_555 1_555
H14 C15 1_555 1_555
C16 C12 1_555 1_555
C17 O4 1_555 1_555
H15 C17 1_555 1_555
H16 C17 1_555 1_555
H17 C17 1_555 1_555
C9 C10 1_555 1_555
C10 C11 1_555 1_555
C12 C13 1_555 1_555

#END
