
#######################################################################
#
#                 Cambridge Crystallographic Data Centre
#                                CCDC 
#
#######################################################################
#
# If this CIF has been generated from an entry in the Cambridge 
# Structural Database, then it will include bibliographic, chemical, 
# crystal, experimental, refinement or atomic coordinate data resulting 
# from the CCDC's data processing and validation procedures.
#
#######################################################################

data_CIPROK
_chemical_formula_moiety         'C17 H17 Cl1 O4'
_chemical_name_systematic        
'Dimethyl 12-(chloromethylene)tricyclo[7.2.1.0^2,7^]dodeca-2,4,6-triene-11,11-dicarboxylate'
_symmetry_cell_setting           triclinic
_symmetry_space_group_name_H-M   'P -1'
_symmetry_Int_Tables_number      2
_space_group_name_Hall           '-P 1'
loop_
_symmetry_equiv_pos_site_id
_symmetry_equiv_pos_as_xyz
1 x,y,z
2 -x,-y,-z
_cell_length_a                   7.798(2)
_cell_length_b                   9.143(3)
_cell_length_c                   21.383(6)
_cell_angle_alpha                88.942(7)
_cell_angle_beta                 81.965(8)
_cell_angle_gamma                85.381(10)
_cell_volume                     1504.64
_exptl_crystal_colour            colorless
_exptl_crystal_description       Prism
_cell_formula_units_Z            4
loop_
_atom_site_label
_atom_site_type_symbol
_atom_site_fract_x
_atom_site_fract_y
_atom_site_fract_z
Cl1 Cl 0.97024(5) 0.29446(4) 0.030450(17)
O1 O 0.49422(14) 0.36268(12) 0.05774(5)
O2 O 0.28224(13) 0.39144(11) 0.14032(5)
O3 O 0.26727(13) 0.00478(11) 0.18605(5)
O4 O 0.29642(12) 0.05597(10) 0.08213(4)
C1 C 0.90413(18) 0.27410(15) 0.11086(7)
H1 H 0.9648 0.3221 0.1391
C2 C 0.77521(18) 0.19645(14) 0.13556(6)
C3 C 0.71499(17) 0.18088(15) 0.20528(6)
H2 H 0.7620 0.2562 0.2301
C4 C 0.77373(18) 0.02470(15) 0.22506(6)
H3 H 0.9001 0.0185 0.2273
H4 H 0.7134 0.0037 0.2678
C5 C 0.73637(17) -0.09072(15) 0.17956(6)
C6 C 0.76089(17) -0.23891(15) 0.19418(7)
H5 H 0.7974 -0.2674 0.2335
C7 C 0.73295(19) -0.34618(16) 0.15239(7)
H6 H 0.7499 -0.4470 0.1633
C8 C 0.68039(18) -0.30621(15) 0.09476(7)
H7 H 0.6615 -0.3793 0.0660
C9 C 0.65551(17) -0.15803(15) 0.07935(7)
H8 H 0.6197 -0.1303 0.0398
C10 C 0.68255(17) -0.04994(14) 0.12124(6)
C11 C 0.65204(17) 0.11156(14) 0.10492(6)
H9 H 0.6619 0.1295 0.0583
C12 C 0.47455(18) 0.17702(15) 0.14086(6)
C13 C 0.51513(18) 0.20561(16) 0.20872(6)
H10 H 0.4747 0.3073 0.2218
H11 H 0.4569 0.1368 0.2394
C14 C 0.42151(18) 0.32006(15) 0.10651(7)
C15 C 0.2286(2) 0.53169(16) 0.11256(8)
H12 H 0.3165 0.6012 0.1153
H13 H 0.1171 0.5705 0.1356
H14 H 0.2161 0.5176 0.0682
C16 C 0.33327(18) 0.06992(15) 0.14110(7)
C17 C 0.17531(19) -0.05174(16) 0.07377(7)
H15 H 0.2362 -0.1499 0.0716
H16 H 0.1261 -0.0306 0.0345
H17 H 0.0817 -0.0475 0.1096
Cl2 Cl 0.54266(5) 0.33276(4) 0.372877(18)
O5 O -0.15894(13) 0.80293(11) 0.36765(5)
O6 O -0.15906(12) 0.58448(10) 0.41766(5)
O7 O -0.06172(13) 0.46971(11) 0.26693(5)
O8 O 0.09830(13) 0.35072(10) 0.33409(5)
C18 C 0.51542(19) 0.48344(15) 0.32313(7)
H18 H 0.6036 0.4971 0.2886
C19 C 0.37868(18) 0.57955(15) 0.33091(6)
C20 C 0.35000(18) 0.71396(15) 0.29021(7)
H19 H 0.4236 0.7058 0.2480
C21 C 0.39086(19) 0.84563(16) 0.32748(7)
H20 H 0.5183 0.8459 0.3259
H21 H 0.3489 0.9374 0.3072
C22 C 0.30759(18) 0.84264(15) 0.39586(7)
C23 C 0.3169(2) 0.96067(16) 0.43550(8)
H22 H 0.3724 1.0446 0.4189
C24 C 0.2468(2) 0.95739(18) 0.49848(8)
H23 H 0.2548 1.0384 0.5248
C25 C 0.1653(2) 0.83640(17) 0.52307(7)
H24 H 0.1162 0.8345 0.5663
C26 C 0.15473(18) 0.71829(16) 0.48505(7)
H25 H 0.0979 0.6355 0.5022
C27 C 0.22691(17) 0.71931(15) 0.42151(6)
C28 C 0.21999(17) 0.58645(14) 0.38026(6)
H26 H 0.2098 0.4935 0.4054
C29 C 0.07370(18) 0.61348(15) 0.33710(6)
C30 C 0.15304(18) 0.71745(16) 0.28442(7)
H27 H 0.0976 0.8184 0.2905
H28 H 0.1360 0.6828 0.2423
C31 C -0.09424(18) 0.68115(15) 0.37468(6)
C32 C -0.31337(18) 0.63511(16) 0.45971(7)
H29 H -0.2814 0.6985 0.4920
H30 H -0.3683 0.5506 0.4801
H31 H -0.3949 0.6905 0.4355
C33 C 0.02858(18) 0.47136(15) 0.30853(6)
C34 C 0.0589(2) 0.21379(15) 0.30872(7)
H32 H -0.0666 0.2047 0.3170
H33 H 0.1197 0.1318 0.3289
H34 H 0.0969 0.2120 0.2631
loop_
_geom_bond_atom_site_label_1
_geom_bond_atom_site_label_2
_geom_bond_site_symmetry_1
_geom_bond_site_symmetry_2
Cl1 C1 1_555 1_555
O1 C14 1_555 1_555
O2 C14 1_555 1_555
O3 C16 1_555 1_555
O4 C16 1_555 1_555
C1 H1 1_555 1_555
C2 C1 1_555 1_555
C3 C2 1_555 1_555
H2 C3 1_555 1_555
C4 C3 1_555 1_555
H3 C4 1_555 1_555
H4 C4 1_555 1_555
C5 C4 1_555 1_555
C6 C5 1_555 1_555
H5 C6 1_555 1_555
C7 C6 1_555 1_555
H6 C7 1_555 1_555
C8 C7 1_555 1_555
H7 C8 1_555 1_555
C9 C8 1_555 1_555
H8 C9 1_555 1_555
C10 C5 1_555 1_555
C11 C2 1_555 1_555
H9 C11 1_555 1_555
C12 C11 1_555 1_555
C13 C3 1_555 1_555
H10 C13 1_555 1_555
H11 C13 1_555 1_555
C14 C12 1_555 1_555
C15 O2 1_555 1_555
H12 C15 1_555 1_555
H13 C15 1_555 1_555
H14 C15 1_555 1_555
C16 C12 1_555 1_555
C17 O4 1_555 1_555
H15 C17 1_555 1_555
H16 C17 1_555 1_555
H17 C17 1_555 1_555
Cl2 C18 1_555 1_555
O5 C31 1_555 1_555
O6 C31 1_555 1_555
O7 C33 1_555 1_555
O8 C33 1_555 1_555
C18 H18 1_555 1_555
C19 C18 1_555 1_555
C20 C19 1_555 1_555
H19 C20 1_555 1_555
C21 C20 1_555 1_555
H20 C21 1_555 1_555
H21 C21 1_555 1_555
C22 C21 1_555 1_555
C23 C22 1_555 1_555
H22 C23 1_555 1_555
C24 C23 1_555 1_555
H23 C24 1_555 1_555
C25 C24 1_555 1_555
H24 C25 1_555 1_555
C26 C25 1_555 1_555
H25 C26 1_555 1_555
C27 C22 1_555 1_555
C28 C19 1_555 1_555
H26 C28 1_555 1_555
C29 C28 1_555 1_555
C30 C20 1_555 1_555
H27 C30 1_555 1_555
H28 C30 1_555 1_555
C31 C29 1_555 1_555
C32 O6 1_555 1_555
H29 C32 1_555 1_555
H30 C32 1_555 1_555
H31 C32 1_555 1_555
C33 C29 1_555 1_555
C34 O8 1_555 1_555
H32 C34 1_555 1_555
H33 C34 1_555 1_555
H34 C34 1_555 1_555
C9 C10 1_555 1_555
C10 C11 1_555 1_555
C12 C13 1_555 1_555
C26 C27 1_555 1_555
C27 C28 1_555 1_555
C29 C30 1_555 1_555

#END
