
#######################################################################
#
#                 Cambridge Crystallographic Data Centre
#                                CCDC 
#
#######################################################################
#
# If this CIF has been generated from an entry in the Cambridge 
# Structural Database, then it will include bibliographic, chemical, 
# crystal, experimental, refinement or atomic coordinate data resulting 
# from the CCDC's data processing and validation procedures.
#
#######################################################################

data_CIPREA
_chemical_formula_moiety         'C17 H18 O4'
_chemical_name_systematic        
'Dimethyl 1,3,3a,4-tetrahydro-2H-cyclopenta[b]naphthalene-2,2-dicarboxylate'
_symmetry_cell_setting           orthorhombic
_symmetry_space_group_name_H-M   'P 21 21 21'
_symmetry_Int_Tables_number      19
_space_group_name_Hall           'P 2ac 2ab'
loop_
_symmetry_equiv_pos_site_id
_symmetry_equiv_pos_as_xyz
1 x,y,z
2 1/2-x,-y,1/2+z
3 -x,1/2+y,1/2-z
4 1/2+x,1/2-y,-z
_cell_length_a                   6.1571(12)
_cell_length_b                   7.7921(16)
_cell_length_c                   31.207(6)
_cell_angle_alpha                90
_cell_angle_beta                 90
_cell_angle_gamma                90
_cell_volume                     1497.21
_cell_formula_units_Z            4
loop_
_atom_site_label
_atom_site_type_symbol
_atom_site_fract_x
_atom_site_fract_y
_atom_site_fract_z
O1 O 0.8595(9) 0.7676(6) 0.40752(14)
O2 O 0.5960(8) 0.6089(6) 0.43489(13)
O3 O 1.0304(10) 0.4469(5) 0.46718(13)
O4 O 0.9831(10) 0.2079(5) 0.43224(12)
C1 C 0.8695(8) 0.4585(6) 0.39748(13)
C2 C 0.6938(8) 0.3509(6) 0.37434(13)
H1 H 0.7211 0.2291 0.3779
H2 H 0.5504 0.3772 0.3854
C3 C 0.7131(8) 0.4024(6) 0.32790(13)
C4 C 0.5980(8) 0.3371(6) 0.29452(13)
H3 H 0.4840 0.2611 0.2993
C5 C 0.6571(8) 0.3888(6) 0.25065(13)
C6 C 0.5158(10) 0.3556(6) 0.21584(15)
H4 H 0.3805 0.3062 0.2207
C7 C 0.5798(11) 0.3969(7) 0.17463(14)
H5 H 0.4856 0.3756 0.1520
C8 C 0.7797(10) 0.4687(7) 0.16637(14)
H6 H 0.8210 0.4942 0.1384
C9 C 0.9185(9) 0.5025(6) 0.20023(13)
H7 H 1.0529 0.5524 0.1948
C10 C 0.8609(8) 0.4633(5) 0.24237(13)
C11 C 1.0152(8) 0.4868(6) 0.27958(13)
H8 H 1.1099 0.3875 0.2811
H9 H 1.1056 0.5863 0.2740
C12 C 0.9100(7) 0.5094(6) 0.32127(12)
H10 H 0.8582 0.6283 0.3215
C13 C 1.0416(8) 0.4897(6) 0.36215(13)
H11 H 1.1246 0.5929 0.3680
H12 H 1.1406 0.3932 0.3600
C14 C 0.7789(11) 0.6284(8) 0.41392(15)
C15 C 0.4898(13) 0.7601(10) 0.4522(2)
H13 H 0.5507 0.8611 0.4393
H14 H 0.5114 0.7642 0.4827
H15 H 0.3371 0.7550 0.4461
C16 C 0.9722(10) 0.3732(7) 0.43597(15)
C17 C 1.0783(19) 0.1128(9) 0.4677(2)
H16 H 1.2054 0.1716 0.4777
H17 H 1.1176 -0.0002 0.4582
H18 H 0.9746 0.1041 0.4906
loop_
_geom_bond_atom_site_label_1
_geom_bond_atom_site_label_2
_geom_bond_site_symmetry_1
_geom_bond_site_symmetry_2
O1 C14 1_555 1_555
O2 C14 1_555 1_555
O3 C16 1_555 1_555
O4 C16 1_555 1_555
C1 C2 1_555 1_555
C2 H1 1_555 1_555
H2 C2 1_555 1_555
C3 C2 1_555 1_555
C4 C3 1_555 1_555
H3 C4 1_555 1_555
C5 C4 1_555 1_555
C6 C5 1_555 1_555
H4 C6 1_555 1_555
C7 C6 1_555 1_555
H5 C7 1_555 1_555
C8 C7 1_555 1_555
H6 C8 1_555 1_555
C9 C8 1_555 1_555
H7 C9 1_555 1_555
C10 C5 1_555 1_555
C11 C10 1_555 1_555
H8 C11 1_555 1_555
H9 C11 1_555 1_555
C12 C3 1_555 1_555
H10 C12 1_555 1_555
C13 C1 1_555 1_555
H11 C13 1_555 1_555
H12 C13 1_555 1_555
C14 C1 1_555 1_555
C15 O2 1_555 1_555
H13 C15 1_555 1_555
H14 C15 1_555 1_555
H15 C15 1_555 1_555
C16 C1 1_555 1_555
C17 O4 1_555 1_555
H16 C17 1_555 1_555
H17 C17 1_555 1_555
H18 C17 1_555 1_555
C9 C10 1_555 1_555
C11 C12 1_555 1_555
C12 C13 1_555 1_555

#END
