
#######################################################################
#
#                 Cambridge Crystallographic Data Centre
#                                CCDC 
#
#######################################################################
#
# If this CIF has been generated from an entry in the Cambridge 
# Structural Database, then it will include bibliographic, chemical, 
# crystal, experimental, refinement or atomic coordinate data resulting 
# from the CCDC's data processing and validation procedures.
#
#######################################################################

data_CIPTEB
_chemical_formula_moiety         'C15 H22 O1'
_chemical_name_systematic        4-(4-n-propylcyclohexyl)phenol
_symmetry_cell_setting           monoclinic
_symmetry_space_group_name_H-M   'C 2/c'
_symmetry_Int_Tables_number      15
_space_group_name_Hall           '-C 2yn'
loop_
_symmetry_equiv_pos_site_id
_symmetry_equiv_pos_as_xyz
1 x,y,z
2 1/2+x,1/2+y,z
3 -x,y,1/2-z
4 1/2-x,1/2+y,1/2-z
5 -x,-y,-z
6 1/2-x,1/2-y,-z
7 x,-y,1/2+z
8 1/2+x,1/2-y,1/2+z
_cell_length_a                   35.062(5)
_cell_length_b                   5.3648(6)
_cell_length_c                   13.488(2)
_cell_angle_alpha                90
_cell_angle_beta                 98.994(6)
_cell_angle_gamma                90
_cell_volume                     2505.91
_exptl_crystal_colour            colorless
_exptl_crystal_description       prism
_cell_formula_units_Z            8
_exptl_crystal_recrystallization_method methanol
loop_
_atom_site_label
_atom_site_type_symbol
_atom_site_fract_x
_atom_site_fract_y
_atom_site_fract_z
O1 O 0.24200(4) 0.0013(2) 0.52977(10)
H1 H 0.2474(13) -0.144(3) 0.519(3)
C1 C 0.21933(5) 0.0111(3) 0.60602(13)
C2 C 0.19413(5) 0.2098(3) 0.60899(13)
H3 H 0.1922 0.3367 0.5593
C3 C 0.17169(5) 0.2212(3) 0.68538(13)
H4 H 0.1546 0.3580 0.6875
C4 C 0.17364(5) 0.0360(3) 0.75906(13)
C5 C 0.19938(5) -0.1608(3) 0.75345(13)
H5 H 0.2013 -0.2891 0.8025
C6 C 0.22232(5) -0.1743(3) 0.67816(13)
H6 H 0.2398 -0.3090 0.6763
C7 C 0.14826(5) 0.0456(3) 0.84070(13)
H7 H 0.1574 -0.0876 0.8907
C8 C 0.15084(5) 0.2951(4) 0.89706(14)
H8 H 0.1780 0.3258 0.9274
H9 H 0.1428 0.4312 0.8487
C9 C 0.12539(5) 0.2995(4) 0.97970(13)
H10 H 0.1271 0.4661 1.0116
H11 H 0.1352 0.1755 1.0319
C10 C 0.08291(5) 0.2411(3) 0.93881(14)
H12 H 0.0729 0.3761 0.8906
C11 C 0.08033(5) -0.0057(4) 0.88091(14)
H13 H 0.0883 -0.1434 0.9285
H14 H 0.0531 -0.0351 0.8504
C12 C 0.10566(5) -0.0096(4) 0.79842(14)
H15 H 0.0961 0.1165 0.7469
H16 H 0.1038 -0.1753 0.7657
C13 C 0.05754(5) 0.2345(4) 1.02191(14)
H17 H 0.0310 0.1859 0.9916
H18 H 0.0676 0.1035 1.0709
C14 C 0.05541(6) 0.4796(4) 1.07852(15)
H19 H 0.0816 0.5235 1.1129
H20 H 0.0468 0.6135 1.0296
C15 C 0.02804(6) 0.4687(4) 1.15591(15)
H21 H 0.0279 0.6304 1.1897
H22 H 0.0367 0.3392 1.2056
H23 H 0.0019 0.4294 1.1222
H2? H 0.2432(13) 0.143(4) 0.508(3)
loop_
_geom_bond_atom_site_label_1
_geom_bond_atom_site_label_2
_geom_bond_site_symmetry_1
_geom_bond_site_symmetry_2
O1 H1 1_555 1_555
C1 O1 1_555 1_555
C2 C1 1_555 1_555
H3 C2 1_555 1_555
C3 C2 1_555 1_555
H4 C3 1_555 1_555
C4 C3 1_555 1_555
C5 C4 1_555 1_555
H5 C5 1_555 1_555
C6 C1 1_555 1_555
H6 C6 1_555 1_555
C7 C4 1_555 1_555
H7 C7 1_555 1_555
C8 C7 1_555 1_555
H8 C8 1_555 1_555
H9 C8 1_555 1_555
C9 C8 1_555 1_555
H10 C9 1_555 1_555
H11 C9 1_555 1_555
C10 C9 1_555 1_555
H12 C10 1_555 1_555
C11 C10 1_555 1_555
H13 C11 1_555 1_555
H14 C11 1_555 1_555
C12 C7 1_555 1_555
H15 C12 1_555 1_555
H16 C12 1_555 1_555
C13 C10 1_555 1_555
H17 C13 1_555 1_555
H18 C13 1_555 1_555
C14 C13 1_555 1_555
H19 C14 1_555 1_555
H20 C14 1_555 1_555
C15 C14 1_555 1_555
H21 C15 1_555 1_555
H22 C15 1_555 1_555
H23 C15 1_555 1_555
C5 C6 1_555 1_555
C11 C12 1_555 1_555

#END
