
#######################################################################
#
#                 Cambridge Crystallographic Data Centre
#                                CCDC 
#
#######################################################################
#
# If this CIF has been generated from an entry in the Cambridge 
# Structural Database, then it will include bibliographic, chemical, 
# crystal, experimental, refinement or atomic coordinate data resulting 
# from the CCDC's data processing and validation procedures.
#
#######################################################################

data_CIPYEG
_chemical_formula_moiety         'C30 H28 N6 O6'
_chemical_name_systematic        
'Diethyl 2,6-bis(4-ethynylphenyl)-4,8-dioxoperhydro-2,3a,4a,6,7a,8a-hexaaza-cyclopenta(def)fluorene-8b,8c-dicarboxylate'
_symmetry_cell_setting           monoclinic
_symmetry_space_group_name_H-M   'C 2/c'
_symmetry_Int_Tables_number      15
_space_group_name_Hall           '-C 2yn'
loop_
_symmetry_equiv_pos_site_id
_symmetry_equiv_pos_as_xyz
1 x,y,z
2 1/2+x,1/2+y,z
3 -x,y,1/2-z
4 1/2-x,1/2+y,1/2-z
5 -x,-y,-z
6 1/2-x,1/2-y,-z
7 x,-y,1/2+z
8 1/2+x,1/2-y,1/2+z
_cell_length_a                   16.0226(10)
_cell_length_b                   14.0617(9)
_cell_length_c                   13.7870(9)
_cell_angle_alpha                90
_cell_angle_beta                 115.5230(10)
_cell_angle_gamma                90
_cell_volume                     2803.15
_exptl_crystal_colour            colorless
_exptl_crystal_description       plate
_cell_formula_units_Z            4
_exptl_crystal_recrystallization_method methanol/chloroform
loop_
_atom_site_label
_atom_site_type_symbol
_atom_site_fract_x
_atom_site_fract_y
_atom_site_fract_z
C1 C 0.1661(2) 1.5590(2) 0.3141(2)
H1 H 0.1691 1.6246 0.3076
C2 C 0.16248(15) 1.47641(18) 0.32223(18)
C3 C 0.16116(13) 1.37528(14) 0.33657(15)
C4 C 0.22584(14) 1.31674(15) 0.32419(17)
H2 H 0.2685 1.3429 0.3027
C5 C 0.22749(13) 1.22119(14) 0.34323(17)
H3 H 0.2722 1.1837 0.3357
C6 C 0.16372(12) 1.17853(13) 0.37371(14)
C7 C 0.09803(13) 1.23665(15) 0.38301(17)
H4 H 0.0535 1.2102 0.4013
C8 C 0.09754(14) 1.33303(16) 0.36569(18)
H5 H 0.0532 1.3707 0.3738
C9 C 0.19180(13) 1.01352(14) 0.33255(17)
H6 H 0.2329 0.9646 0.3778
H7 H 0.2233 1.0459 0.2958
C10 C 0.05180(13) 1.02199(11) 0.16204(14)
C11 C 0.11956(15) 1.03730(15) 0.45101(15)
H8 H 0.1018 1.0856 0.4888
H9 H 0.1581 0.9911 0.5034
C12 C 0.04897(13) 0.92670(11) 0.29707(14)
C13 C 0.08516(16) 0.82917(14) 0.34838(19)
N1 N 0.17227(11) 1.08128(11) 0.39963(13)
N2 N 0.10735(10) 0.96859(9) 0.25254(12)
N3 N 0.03683(10) 0.99023(9) 0.37287(11)
O1 O 0.07893(9) 1.08330(8) 0.12080(11)
C14 C 0.0932(6) 0.7206(4) 0.4841(6)
H10 H 0.1119 0.7359 0.5592
H11 H 0.1472 0.6988 0.4758
C15 C 0.0228(4) 0.6458(4) 0.4505(6)
H12 H -0.0320 0.6694 0.4540
H13 H 0.0459 0.5920 0.4973
H14 H 0.0085 0.6271 0.3781
O2 O 0.0548(5) 0.8049(4) 0.4179(6)
O3 O 0.1358(6) 0.7852(5) 0.3215(7)
C1B C -0.1661(2) 1.5590(2) 0.1859(2)
H1B H -0.1691 1.6246 0.1924
C2B C -0.16248(15) 1.47641(18) 0.17777(18)
C3B C -0.16116(13) 1.37528(14) 0.16343(15)
C4B C -0.22584(14) 1.31674(15) 0.17581(17)
H2B H -0.2685 1.3429 0.1973
C5B C -0.22749(13) 1.22119(14) 0.15677(17)
H3B H -0.2722 1.1837 0.1643
C6B C -0.16372(12) 1.17853(13) 0.12629(14)
C7B C -0.09803(13) 1.23665(15) 0.11699(17)
H4B H -0.0535 1.2102 0.0987
C8B C -0.09754(14) 1.33303(16) 0.13431(18)
H5B H -0.0532 1.3707 0.1262
C9B C -0.19180(13) 1.01352(14) 0.16745(17)
H6B H -0.2329 0.9646 0.1222
H7B H -0.2233 1.0459 0.2042
C10B C -0.05180(13) 1.02199(11) 0.33796(14)
C11B C -0.11956(15) 1.03730(15) 0.04899(15)
H8B H -0.1018 1.0856 0.0112
H9B H -0.1581 0.9911 -0.0034
C12B C -0.04897(13) 0.92670(11) 0.20293(14)
C13B C -0.08516(16) 0.82917(14) 0.15162(19)
N1B N -0.17227(11) 1.08128(11) 0.10037(13)
N2B N -0.10735(10) 0.96859(9) 0.24746(12)
N3B N -0.03683(10) 0.99023(9) 0.12713(11)
O1B O -0.07893(9) 1.08330(8) 0.37920(11)
C14B C -0.0932(6) 0.7206(4) 0.0159(6)
H10B H -0.1119 0.7359 -0.0592
H11B H -0.1472 0.6988 0.0242
C15B C -0.0228(4) 0.6458(4) 0.0495(6)
H12B H 0.0320 0.6694 0.0460
H13B H -0.0459 0.5920 0.0027
H14B H -0.0085 0.6271 0.1219
O2B O -0.0548(5) 0.8049(4) 0.0821(6)
O3B O -0.1358(6) 0.7852(5) 0.1785(7)
C16? C -0.0331(5) 0.6950(4) 0.0815(5)
H15? H 0.0255 0.6739 0.0841
H16? H -0.0503 0.6516 0.1245
C17? C -0.1034(6) 0.6932(6) -0.0291(5)
H17? H -0.1621 0.7105 -0.0312
H18? H -0.1073 0.6304 -0.0580
H19? H -0.0873 0.7376 -0.0712
O4? O -0.0227(4) 0.7905(4) 0.1261(6)
O5? O -0.1586(6) 0.7929(7) 0.1352(9)
loop_
_geom_bond_atom_site_label_1
_geom_bond_atom_site_label_2
_geom_bond_site_symmetry_1
_geom_bond_site_symmetry_2
C1 H1 1_555 1_555
C2 C1 1_555 1_555
C3 C2 1_555 1_555
C4 C3 1_555 1_555
H2 C4 1_555 1_555
C5 C4 1_555 1_555
H3 C5 1_555 1_555
C6 C5 1_555 1_555
C7 C6 1_555 1_555
H4 C7 1_555 1_555
C8 C3 1_555 1_555
H5 C8 1_555 1_555
C9 H6 1_555 1_555
H7 C9 1_555 1_555
C10 N2 1_555 1_555
C11 H8 1_555 1_555
H9 C11 1_555 1_555
C12 C13 1_555 1_555
C13 O2 1_555 1_555
N1 C6 1_555 1_555
N2 C9 1_555 1_555
N3 C11 1_555 1_555
O1 C10 1_555 1_555
C14 H10 1_555 1_555
H11 C14 1_555 1_555
C15 C14 1_555 1_555
H12 C15 1_555 1_555
H13 C15 1_555 1_555
H14 C15 1_555 1_555
O2 C14 1_555 1_555
O3 C13 1_555 1_555
C1B H1B 1_555 1_555
C2B C1B 1_555 1_555
C3B C2B 1_555 1_555
C4B C3B 1_555 1_555
H2B C4B 1_555 1_555
C5B C4B 1_555 1_555
H3B C5B 1_555 1_555
C6B C5B 1_555 1_555
C7B C6B 1_555 1_555
H4B C7B 1_555 1_555
C8B C3B 1_555 1_555
H5B C8B 1_555 1_555
C9B H6B 1_555 1_555
H7B C9B 1_555 1_555
C10B N3 1_555 1_555
C11B H8B 1_555 1_555
H9B C11B 1_555 1_555
C12B C12 1_555 1_555
C13B C12B 1_555 1_555
N1B C6B 1_555 1_555
N2B C9B 1_555 1_555
N3B C10 1_555 1_555
O1B C10B 1_555 1_555
C14B H10B 1_555 1_555
H11B C14B 1_555 1_555
C15B C14B 1_555 1_555
H12B C15B 1_555 1_555
H13B C15B 1_555 1_555
H14B C15B 1_555 1_555
O2B C13B 1_555 1_555
O3B C13B 1_555 1_555
C7 C8 1_555 1_555
C9 N1 1_555 1_555
C11 N1 1_555 1_555
C12 N2 1_555 1_555
C12 N3 1_555 1_555
C7B C8B 1_555 1_555
C9B N1B 1_555 1_555
C10B N2B 1_555 1_555
C11B N1B 1_555 1_555
C11B N3B 1_555 1_555
C12B N2B 1_555 1_555
C12B N3B 1_555 1_555
C14B O2B 1_555 1_555

#END
