
#######################################################################
#
#                 Cambridge Crystallographic Data Centre
#                                CCDC 
#
#######################################################################
#
# If this CIF has been generated from an entry in the Cambridge 
# Structural Database, then it will include bibliographic, chemical, 
# crystal, experimental, refinement or atomic coordinate data resulting 
# from the CCDC's data processing and validation procedures.
#
#######################################################################

data_CIPYAC
_chemical_formula_moiety         'C20 H20 Br2 N4 O7'
_chemical_name_systematic        
'Diethyl 6,9-dibromo-4,11-dioxo-5,10-dihydro-2-oxa-3a,4a,10a,11a-tetraazabenzo[f]indeno[2,1,7-ija]azulene-11b,11c-dicarboxylate'
_symmetry_cell_setting           orthorhombic
_symmetry_space_group_name_H-M   'P 21 21 21'
_symmetry_Int_Tables_number      19
_space_group_name_Hall           'P 2ac 2ab'
loop_
_symmetry_equiv_pos_site_id
_symmetry_equiv_pos_as_xyz
1 x,y,z
2 1/2-x,-y,1/2+z
3 -x,1/2+y,1/2-z
4 1/2+x,1/2-y,-z
_cell_length_a                   10.6430(12)
_cell_length_b                   11.2669(13)
_cell_length_c                   18.673(2)
_cell_angle_alpha                90
_cell_angle_beta                 90
_cell_angle_gamma                90
_cell_volume                     2239.15
_exptl_crystal_colour            colorless
_exptl_crystal_description       block
_cell_formula_units_Z            4
_exptl_crystal_recrystallization_method dichloromethane
loop_
_atom_site_label
_atom_site_type_symbol
_atom_site_fract_x
_atom_site_fract_y
_atom_site_fract_z
Br1 Br 1.24828(5) 0.42440(5) 0.82344(3)
Br2 Br 0.83248(6) 0.04207(5) 0.93545(3)
C1 C 1.0072(3) 0.3091(3) 0.81524(19)
C2 C 0.9179(4) 0.2254(3) 0.83950(17)
C3 C 0.9429(4) 0.1627(4) 0.9009(2)
C4 C 1.1153(4) 0.3249(3) 0.8550(2)
C5 C 1.1361(5) 0.2618(4) 0.9183(3)
H1 H 1.2084 0.2754 0.9450
C6 C 1.0509(5) 0.1809(4) 0.9407(2)
H2 H 1.0648 0.1378 0.9824
C7 C 0.7998(3) 0.2026(3) 0.7960(2)
H3 H 0.8238 0.1706 0.7498
H4 H 0.7500 0.1428 0.8203
C8 C 0.9871(3) 0.3731(3) 0.7445(2)
H5 H 1.0591 0.4240 0.7360
H6 H 0.9855 0.3143 0.7066
C9 C 0.6464(3) 0.3534(3) 0.83720(18)
C10 C 0.8689(3) 0.5529(3) 0.77131(17)
C11 C 0.5539(4) 0.5491(4) 0.8602(2)
H7 H 0.4868 0.5948 0.8384
H8 H 0.5211 0.5126 0.9034
C12 C 0.6992(5) 0.6817(3) 0.8162(2)
H9 H 0.7661 0.7361 0.8290
H10 H 0.6320 0.7273 0.7945
C13 C 0.7531(3) 0.3920(3) 0.72946(16)
C14 C 0.7293(4) 0.3329(3) 0.65579(19)
C15 C 0.8078(10) 0.2619(9) 0.5512(4)
H11 H 0.7429 0.2037 0.5611
H12 H 0.7800 0.3106 0.5115
C16 C 0.9245(11) 0.2013(11) 0.5321(7)
H13 H 0.9931 0.2565 0.5342
H14 H 0.9176 0.1700 0.4844
H15 H 0.9394 0.1375 0.5651
C19 C 0.6607(3) 0.4976(3) 0.74721(17)
C20 C 0.5684(3) 0.5340(4) 0.6883(2)
C21 C 0.5544(5) 0.5840(6) 0.5650(2)
H21 H 0.5350 0.6682 0.5649
H22 H 0.4759 0.5404 0.5663
C22 C 0.6242(5) 0.5533(5) 0.4999(2)
H23 H 0.6445 0.4703 0.5005
H24 H 0.7003 0.5989 0.4978
H25 H 0.5735 0.5705 0.4586
N1 N 0.7219(3) 0.3072(2) 0.78463(15)
N2 N 0.8741(3) 0.4448(2) 0.73897(14)
N3 N 0.7466(3) 0.5948(2) 0.76439(15)
N4 N 0.5948(3) 0.4576(3) 0.81106(15)
O1 O 0.9548(3) 0.6058(2) 0.79841(15)
O2 O 0.6257(3) 0.3098(3) 0.89449(14)
O3 O 0.6542(3) 0.6257(3) 0.87831(15)
O4 O 0.6307(3) 0.2891(3) 0.64205(16)
O5 O 0.8276(3) 0.3372(3) 0.61512(14)
O6 O 0.4591(3) 0.5415(4) 0.69709(17)
O7 O 0.6289(3) 0.5551(3) 0.62817(13)
C17? C 0.8403(13) 0.3069(15) 0.5401(5)
H16? H 0.8332 0.3781 0.5112
H17? H 0.7735 0.2531 0.5263
C18? C 0.9655(12) 0.2493(13) 0.5272(8)
H18? H 1.0286 0.3094 0.5217
H19? H 0.9614 0.2020 0.4845
H20? H 0.9864 0.1996 0.5672
loop_
_geom_bond_atom_site_label_1
_geom_bond_atom_site_label_2
_geom_bond_site_symmetry_1
_geom_bond_site_symmetry_2
Br1 C4 1_555 1_555
Br2 C3 1_555 1_555
C1 C2 1_555 1_555
C2 C3 1_555 1_555
C3 C6 1_555 1_555
C4 C1 1_555 1_555
C5 C4 1_555 1_555
H1 C5 1_555 1_555
C6 C5 1_555 1_555
H2 C6 1_555 1_555
C7 C2 1_555 1_555
H3 C7 1_555 1_555
H4 C7 1_555 1_555
C8 C1 1_555 1_555
H5 C8 1_555 1_555
H6 C8 1_555 1_555
C9 N1 1_555 1_555
C10 N2 1_555 1_555
C11 H7 1_555 1_555
H8 C11 1_555 1_555
C12 H9 1_555 1_555
H10 C12 1_555 1_555
C13 C14 1_555 1_555
C14 O4 1_555 1_555
C15 H11 1_555 1_555
H12 C15 1_555 1_555
C16 C15 1_555 1_555
H13 C16 1_555 1_555
H14 C16 1_555 1_555
H15 C16 1_555 1_555
C19 C13 1_555 1_555
C20 C19 1_555 1_555
C21 H21 1_555 1_555
H22 C21 1_555 1_555
C22 C21 1_555 1_555
H23 C22 1_555 1_555
H24 C22 1_555 1_555
H25 C22 1_555 1_555
N1 C7 1_555 1_555
N2 C8 1_555 1_555
N3 C10 1_555 1_555
N4 C9 1_555 1_555
O1 C10 1_555 1_555
O2 C9 1_555 1_555
O3 C11 1_555 1_555
O5 C14 1_555 1_555
O6 C20 1_555 1_555
O7 C20 1_555 1_555
C11 N4 1_555 1_555
C12 N3 1_555 1_555
C12 O3 1_555 1_555
C13 N1 1_555 1_555
C13 N2 1_555 1_555
C15 O5 1_555 1_555
C19 N3 1_555 1_555
C19 N4 1_555 1_555
C21 O7 1_555 1_555

#END
