
#######################################################################
#
#                 Cambridge Crystallographic Data Centre
#                                CCDC 
#
#######################################################################
#
# If this CIF has been generated from an entry in the Cambridge 
# Structural Database, then it will include bibliographic, chemical, 
# crystal, experimental, refinement or atomic coordinate data resulting 
# from the CCDC's data processing and validation procedures.
#
#######################################################################

data_CIPZIM
_chemical_name_common            'dapagliflozin L-proline'
_chemical_formula_moiety         'C21 H25 Cl1 O6,C5 H9 N1 O2'
_chemical_name_systematic        
'2-(4-chloro-3-(4-ethoxybenzyl)phenyl)-6-(hydroxymethyl)tetrahydro-2H-pyran-3,4,5-triol L-proline'
_chemical_properties_biological  
'Sglt2 inhibitors in type II diabetes. Sglt2 (a protein with membrane-spanning segments predominantly expressed in the early SI segment of renal proximal tubules) is likely the major transporter for active glucose reuptake in the proximal tubule. Mutations in sglt2 have been associated with familial forms of renal glucosuria in the context of normal renal morphology and function, therefore, inhibition of sglt2 is predicted to reduce plasma glucose levels via increased glucose excretion.'
_symmetry_cell_setting           orthorhombic
_symmetry_space_group_name_H-M   'P 21 21 21'
_symmetry_Int_Tables_number      19
_space_group_name_Hall           'P 2ac 2ab'
loop_
_symmetry_equiv_pos_site_id
_symmetry_equiv_pos_as_xyz
1 x,y,z
2 1/2-x,-y,1/2+z
3 -x,1/2+y,1/2-z
4 1/2+x,1/2-y,-z
_cell_length_a                   11.441(1)
_cell_length_b                   10.235(1)
_cell_length_c                   45.358(1)
_cell_angle_alpha                90
_cell_angle_beta                 90
_cell_angle_gamma                90
_cell_volume                     5311.36
_cell_formula_units_Z            8
loop_
_atom_site_label
_atom_site_type_symbol
_atom_site_fract_x
_atom_site_fract_y
_atom_site_fract_z
Cl1 Cl 0.4598 -0.1973 0.4564
C1 C 0.5901 -0.2370 0.3766
C2 C 0.4455 -0.0618 0.3755
C3 C 0.4764 -0.1649 0.4212
C4 C 0.5631 -0.2563 0.4083
C5 C 0.5270 -0.1401 0.3597
C6 C 0.4236 -0.0847 0.4052
C7 C 0.3350 0.0181 0.4193
C8 C 0.4043 0.1572 0.4619
C9 C 0.4038 0.1366 0.4305
C10 C 0.4700 0.2275 0.4154
O1 O 0.5531 -0.2303 0.3104
C11 C 0.6684 -0.0473 0.3232
C12 C 0.6871 -0.1530 0.2745
O2 O 0.6765 0.0755 0.3403
C13 C 0.5634 -0.2137 0.2780
C14 C 0.5532 -0.1047 0.3260
C15 C 0.6982 -0.0231 0.2901
C16 C 0.5401 -0.3394 0.2628
O3 O 0.7021 -0.1304 0.2442
O4 O 0.8064 0.0378 0.2896
O5 O 0.5831 0.4559 0.4668
C17 C 0.5134 0.3474 0.4583
C18 C 0.6039 0.5020 0.4977
C19 C 0.6740 0.6076 0.4990
O6 O 0.6178 -0.4307 0.2703
C20 C 0.4646 0.2450 0.4744
C21 C 0.5212 0.3364 0.4270
H1 H 0.5158 0.5126 0.5088
H2 H 0.6427 0.4151 0.5106
H3 H 0.4640 0.2425 0.4980
H4 H 0.3557 0.0952 0.4743
H5 H 0.4028 0.0143 0.3656
H6 H 0.4846 -0.0412 0.3172
H7 H 0.7354 -0.1139 0.3309
H8 H 0.6383 0.0438 0.2803
H9 H 0.7509 -0.2206 0.2829
H10 H 0.4937 -0.1547 0.2692
H11 H 0.4535 -0.3750 0.2689
H12 H 0.5440 -0.3256 0.2395
H13 H 0.5987 0.1273 0.3371
H14 H 0.5850 -0.4862 0.2863
H15 H 0.2740 0.0426 0.4038
H16 H 0.7825 -0.0885 0.2400
H17 H 0.8274 0.0552 0.2680
H18 H 0.4902 0.2088 0.3946
H19 H 0.5540 0.4072 0.4143
H20 H 0.6504 -0.2925 0.3665
H21 H 0.6030 -0.3278 0.4194
H22 H 0.2977 -0.0348 0.4380
Cl2 Cl -0.1014 -0.2193 0.4531
O7 O 0.0403 -0.2096 0.3126
C22 C 0.0502 -0.0977 0.3307
C23 C -0.0026 -0.1191 0.3614
C24 C 0.1707 -0.0312 0.3288
C25 C 0.0641 -0.1848 0.2832
C26 C 0.1903 -0.1171 0.2772
C27 C 0.0159 -0.2652 0.4010
O8 O 0.1732 0.0766 0.3473
C28 C 0.0527 -0.2262 0.3719
C29 C -0.0488 -0.1911 0.4174
O9 O 0.2066 -0.1046 0.2477
C30 C -0.1057 -0.0845 0.4057
C31 C -0.0805 -0.0464 0.3769
C32 C -0.1758 0.0315 0.4210
C33 C -0.0962 0.3657 0.4497
C34 C 0.0119 0.1514 0.4289
C35 C -0.1670 0.2596 0.4419
O10 O 0.0892 0.4864 0.4561
C36 C 0.0235 0.3777 0.4487
C37 C 0.0796 0.2657 0.4373
C38 C 0.2088 0.4743 0.4694
C39 C 0.2378 0.6027 0.4670
C40 C -0.1056 0.1472 0.4292
O11 O 0.3103 0.0473 0.2955
C41 C 0.1927 -0.0117 0.2972
H23 H 0.2586 -0.1789 0.2863
H24 H 0.1267 0.0606 0.2892
H25 H 0.2335 -0.1001 0.3377
H26 H 0.0060 -0.0175 0.3198
H27 H -0.0022 -0.1194 0.2737
H28 H 0.1118 -0.2782 0.3606
H29 H -0.1170 0.0351 0.3696
H30 H 0.0467 -0.3485 0.4096
H31 H -0.2543 0.2691 0.4432
H32 H -0.1353 0.4445 0.4589
H33 H 0.0544 0.0664 0.4241
H34 H 0.1640 0.2598 0.4365
H35 H -0.2417 0.0673 0.4058
H36 H -0.2171 0.0017 0.4412
H37 H 0.2698 -0.0400 0.2435
H38 H 0.3320 0.0534 0.2734
H39 H 0.1058 0.1381 0.3420
C42 C 0.0413 -0.3076 0.2646
O12 O 0.1209 -0.4060 0.2699
H40 H 0.0874 -0.4719 0.2852
H41 H -0.0459 -0.3511 0.2701
H42 H 0.0431 -0.2942 0.2411
C43 C -0.1355 0.5267 0.3371
C44 C -0.1317 0.4102 0.3168
N1 N -0.2217 0.3229 0.3311
C45 C -0.1578 0.4809 0.3661
C46 C -0.2328 0.3526 0.3628
O13 O 0.0687 0.4002 0.3090
O14 O -0.0027 0.2411 0.3344
C47 C -0.0235 0.3422 0.3215
H43 H -0.1506 0.4388 0.2950
H44 H -0.0541 0.5810 0.3377
H45 H -0.2055 0.5941 0.3310
H46 H -0.0797 0.4553 0.3782
H47 H -0.2106 0.5460 0.3796
H48 H -0.3210 0.3680 0.3662
H49 H -0.1958 0.2728 0.3734
H50 H -0.2972 0.3381 0.3195
H51 H -0.1983 0.2279 0.3269
C48 C 0.3738 0.4173 0.3220
C49 C 0.3666 0.5397 0.3405
C50 C 0.3232 0.5141 0.3706
O15 O 0.5678 0.3983 0.3126
O16 O 0.4793 0.2316 0.3356
N2 N 0.2751 0.3408 0.3341
C51 C 0.2568 0.3858 0.3637
C52 C 0.4900 0.3392 0.3227
H52 H 0.3544 0.4339 0.2980
H53 H 0.2791 0.3273 0.3822
H54 H 0.1634 0.4233 0.3683
H55 H 0.4032 0.5053 0.3835
H56 H 0.2799 0.6038 0.3764
H57 H 0.4555 0.5795 0.3393
H58 H 0.3097 0.6065 0.3283
H59 H 0.2013 0.3456 0.3219
H60 H 0.2977 0.2420 0.3345
C53? C 0.1894 0.5037 0.4979
loop_
_geom_bond_atom_site_label_1
_geom_bond_atom_site_label_2
_geom_bond_site_symmetry_1
_geom_bond_site_symmetry_2
Cl1 C3 1_555 1_555
C1 C4 1_555 1_555
C2 C5 1_555 1_555
C3 C4 1_555 1_555
C4 H21 1_555 1_555
C5 C1 1_555 1_555
C6 C2 1_555 1_555
C7 C6 1_555 1_555
C8 C9 1_555 1_555
C9 C7 1_555 1_555
C10 C9 1_555 1_555
O1 C13 1_555 1_555
C11 O2 1_555 1_555
C12 C13 1_555 1_555
O2 H13 1_555 1_555
C13 C16 1_555 1_555
C14 C5 1_555 1_555
C15 C11 1_555 1_555
C16 O6 1_555 1_555
O3 C12 1_555 1_555
O4 C15 1_555 1_555
O5 C17 1_555 1_555
C17 C20 1_555 1_555
C18 O5 1_555 1_555
C19 C18 1_555 1_555
O6 H14 1_555 1_555
C20 C8 1_555 1_555
C21 C10 1_555 1_555
H1 C18 1_555 1_555
H2 C18 1_555 1_555
H3 C20 1_555 1_555
H4 C8 1_555 1_555
H5 C2 1_555 1_555
H6 C14 1_555 1_555
H7 C11 1_555 1_555
H8 C15 1_555 1_555
H9 C12 1_555 1_555
H10 C13 1_555 1_555
H11 C16 1_555 1_555
H12 C16 1_555 1_555
H15 C7 1_555 1_555
H16 O3 1_555 1_555
H17 O4 1_555 1_555
H18 C10 1_555 1_555
H19 C21 1_555 1_555
H20 C1 1_555 1_555
H22 C7 1_555 1_555
Cl2 C29 1_555 1_555
O7 C22 1_555 1_555
C22 C23 1_555 1_555
C23 C28 1_555 1_555
C24 C22 1_555 1_555
C25 O7 1_555 1_555
C26 C25 1_555 1_555
C27 C28 1_555 1_555
O8 C24 1_555 1_555
C28 H28 1_555 1_555
C29 C27 1_555 1_555
O9 C26 1_555 1_555
C30 C29 1_555 1_555
C31 C23 1_555 1_555
C32 C30 1_555 1_555
C33 C35 1_555 1_555
C34 C37 1_555 1_555
C35 C40 1_555 1_555
O10 C36 1_555 1_555
C36 C33 1_555 1_555
C37 C36 1_555 1_555
C38 O10 1_555 1_555
C39 C38 1_555 1_555
C40 C32 1_555 1_555
O11 C41 1_555 1_555
C41 C24 1_555 1_555
H23 C26 1_555 1_555
H24 C41 1_555 1_555
H25 C24 1_555 1_555
H26 C22 1_555 1_555
H27 C25 1_555 1_555
H29 C31 1_555 1_555
H30 C27 1_555 1_555
H31 C35 1_555 1_555
H32 C33 1_555 1_555
H33 C34 1_555 1_555
H34 C37 1_555 1_555
H35 C32 1_555 1_555
H36 C32 1_555 1_555
H37 O9 1_555 1_555
H38 O11 1_555 1_555
H39 O8 1_555 1_555
C42 C25 1_555 1_555
O12 C42 1_555 1_555
H40 O12 1_555 1_555
H41 C42 1_555 1_555
H42 C42 1_555 1_555
C43 C44 1_555 1_555
C44 N1 1_555 1_555
N1 C46 1_555 1_555
C45 C43 1_555 1_555
C46 C45 1_555 1_555
O13 C47 1_555 1_555
O14 C47 1_555 1_555
C47 C44 1_555 1_555
H43 C44 1_555 1_555
H44 C43 1_555 1_555
H45 C43 1_555 1_555
H46 C45 1_555 1_555
H47 C45 1_555 1_555
H48 C46 1_555 1_555
H49 C46 1_555 1_555
H50 N1 1_555 1_555
H51 N1 1_555 1_555
C48 C49 1_555 1_555
C49 C50 1_555 1_555
C50 C51 1_555 1_555
O15 C52 1_555 1_555
O16 C52 1_555 1_555
N2 C48 1_555 1_555
C51 N2 1_555 1_555
C52 C48 1_555 1_555
H52 C48 1_555 1_555
H53 C51 1_555 1_555
H54 C51 1_555 1_555
H55 C50 1_555 1_555
H56 C50 1_555 1_555
H57 C49 1_555 1_555
H58 C49 1_555 1_555
H59 N2 1_555 1_555
H60 N2 1_555 1_555
C3 C6 1_555 1_555
O1 C14 1_555 1_555
C11 C14 1_555 1_555
C12 C15 1_555 1_555
C17 C21 1_555 1_555
C26 C41 1_555 1_555
C30 C31 1_555 1_555
C34 C40 1_555 1_555

#END
