
#######################################################################
#
#                 Cambridge Crystallographic Data Centre
#                                CCDC 
#
#######################################################################
#
# If this CIF has been generated from an entry in the Cambridge 
# Structural Database, then it will include bibliographic, chemical, 
# crystal, experimental, refinement or atomic coordinate data resulting 
# from the CCDC's data processing and validation procedures.
#
#######################################################################

data_CIQBUA
_chemical_formula_moiety         'C13 H8 Br3 N1 O1'
_chemical_name_systematic        
2,4-Dibromo-6-(4-bromophenyliminomethyl)phenol
_symmetry_cell_setting           triclinic
_symmetry_space_group_name_H-M   'P -1'
_symmetry_Int_Tables_number      2
_space_group_name_Hall           '-P 1'
loop_
_symmetry_equiv_pos_site_id
_symmetry_equiv_pos_as_xyz
1 x,y,z
2 -x,-y,-z
_cell_length_a                   7.985(3)
_cell_length_b                   8.594(3)
_cell_length_c                   11.020(4)
_cell_angle_alpha                87.801(6)
_cell_angle_beta                 76.688(7)
_cell_angle_gamma                65.180(5)
_cell_volume                     666.476
_exptl_crystal_colour            red
_exptl_crystal_description       Prism
_cell_formula_units_Z            2
loop_
_atom_site_label
_atom_site_type_symbol
_atom_site_fract_x
_atom_site_fract_y
_atom_site_fract_z
Br1 Br 0.12496(17) 0.33749(14) 0.12113(9)
Br2 Br 0.69858(18) 0.14000(16) 0.98515(10)
Br3 Br -0.19458(18) 1.03572(14) 0.29251(11)
O1 O 0.2910(9) 0.2930(9) 0.3421(6)
H1 H 0.2990 0.2748 0.4146
N1 N 0.3470(10) 0.3870(10) 0.5425(7)
C1 C 0.1501(12) 0.5864(12) 0.4244(8)
C2 C 0.1817(12) 0.4586(11) 0.3349(8)
C3 C 0.0952(13) 0.5088(13) 0.2346(8)
C4 C -0.0163(12) 0.6781(11) 0.2222(8)
H2 H -0.0730 0.7103 0.1549
C5 C -0.0428(12) 0.8008(12) 0.3121(9)
C6 C 0.0394(13) 0.7551(12) 0.4103(8)
H3 H 0.0203 0.8394 0.4690
C7 C 0.2360(13) 0.5403(13) 0.5293(9)
H4 H 0.2093 0.6258 0.5894
C8 C 0.4295(12) 0.3389(12) 0.6481(8)
C9 C 0.5304(14) 0.1652(12) 0.6570(9)
H5 H 0.5436 0.0877 0.5950
C10 C 0.6116(15) 0.1055(14) 0.7560(10)
H6 H 0.6817 -0.0116 0.7603
C11 C 0.5887(13) 0.2199(13) 0.8488(9)
C12 C 0.4891(15) 0.3947(14) 0.8395(9)
H7 H 0.4767 0.4728 0.9009
C13 C 0.4093(13) 0.4518(12) 0.7400(8)
H8 H 0.3405 0.5690 0.7348
loop_
_geom_bond_atom_site_label_1
_geom_bond_atom_site_label_2
_geom_bond_site_symmetry_1
_geom_bond_site_symmetry_2
Br1 C3 1_555 1_555
Br2 C11 1_555 1_555
Br3 C5 1_555 1_555
O1 H1 1_555 1_555
N1 C7 1_555 1_555
C1 C2 1_555 1_555
C2 O1 1_555 1_555
C3 C2 1_555 1_555
C4 C3 1_555 1_555
H2 C4 1_555 1_555
C5 C4 1_555 1_555
C6 C1 1_555 1_555
H3 C6 1_555 1_555
C7 C1 1_555 1_555
H4 C7 1_555 1_555
C8 N1 1_555 1_555
C9 C8 1_555 1_555
H5 C9 1_555 1_555
C10 C9 1_555 1_555
H6 C10 1_555 1_555
C11 C10 1_555 1_555
C12 C11 1_555 1_555
H7 C12 1_555 1_555
C13 C8 1_555 1_555
H8 C13 1_555 1_555
C5 C6 1_555 1_555
C12 C13 1_555 1_555

#END
