
#######################################################################
#
#                 Cambridge Crystallographic Data Centre
#                                CCDC 
#
#######################################################################
#
# If this CIF has been generated from an entry in the Cambridge 
# Structural Database, then it will include bibliographic, chemical, 
# crystal, experimental, refinement or atomic coordinate data resulting 
# from the CCDC's data processing and validation procedures.
#
#######################################################################

data_CIQCAJ
_chemical_formula_moiety         'C14 H12 N2 O5'
_chemical_name_systematic        
2-{[(2-hydroxy-5-nitrophenyl)iminio]methyl}-6-methoxyphenolate
_symmetry_cell_setting           monoclinic
_symmetry_space_group_name_H-M   'P 21/c'
_symmetry_Int_Tables_number      14
_space_group_name_Hall           '-P 2ybc'
loop_
_symmetry_equiv_pos_site_id
_symmetry_equiv_pos_as_xyz
1 x,y,z
2 -x,1/2+y,1/2-z
3 -x,-y,-z
4 x,1/2-y,1/2+z
_cell_length_a                   6.4924(12)
_cell_length_b                   24.355(3)
_cell_length_c                   8.1521(13)
_cell_angle_alpha                90
_cell_angle_beta                 95.432(16)
_cell_angle_gamma                90
_cell_volume                     1283.24
_exptl_crystal_colour            yellow
_exptl_crystal_description       needle
_cell_formula_units_Z            4
loop_
_atom_site_label
_atom_site_type_symbol
_atom_site_fract_x
_atom_site_fract_y
_atom_site_fract_z
O1 O 0.1938(2) 0.58940(7) 0.4827(2)
H1 H 0.320(4) 0.5374(11) 0.608(4)
H2 H 0.032(5) 0.4331(13) 0.620(4)
C1 C 0.2931(3) 0.44638(10) 0.7416(3)
C2 C 0.6474(4) 0.70695(12) 0.4762(4)
H3 H 0.7496 0.7336 0.4725
C3 C 0.2969(4) 0.39734(11) 0.8251(3)
H4 H 0.1830 0.3740 0.8132
C4 C 0.4703(4) 0.38293(10) 0.9268(3)
H5 H 0.4747 0.3498 0.9836
C5 C 0.6383(3) 0.41841(10) 0.9434(3)
C6 C 0.6387(3) 0.46781(10) 0.8629(3)
H6 H 0.7530 0.4910 0.8765
C7 C 0.4641(3) 0.48246(10) 0.7606(3)
C8 C 0.5772(3) 0.57137(10) 0.6666(3)
H7 H 0.7072 0.5673 0.7238
C9 C 0.5332(3) 0.62003(9) 0.5754(3)
C10 C 0.6879(4) 0.66071(12) 0.5684(4)
H8 H 0.8170 0.6560 0.6266
C11 C 0.4561(4) 0.71482(11) 0.3881(4)
H9 H 0.4310 0.7467 0.3267
C12 C 0.3041(3) 0.67595(10) 0.3908(3)
C13 C 0.3357(3) 0.62691(9) 0.4836(3)
C14 C 0.0723(5) 0.72676(12) 0.2049(4)
H10 H -0.0654 0.7245 0.1508
H11 H 0.1699 0.7289 0.1238
H12 H 0.0840 0.7590 0.2731
N1 N 0.4425(3) 0.53191(8) 0.6737(2)
N2 N 0.8198(3) 0.40264(9) 1.0520(3)
O2 O 0.1329(3) 0.46378(8) 0.6376(2)
O3 O 0.1142(2) 0.67918(8) 0.3046(2)
O4 O 0.9595(3) 0.43572(9) 1.0759(3)
O5 O 0.8255(3) 0.35706(9) 1.1154(3)
loop_
_geom_bond_atom_site_label_1
_geom_bond_atom_site_label_2
_geom_bond_site_symmetry_1
_geom_bond_site_symmetry_2
O1 C13 1_555 1_555
H1 N1 1_555 1_555
H2 O2 1_555 1_555
C1 C3 1_555 1_555
C2 H3 1_555 1_555
C3 H4 1_555 1_555
C4 C3 1_555 1_555
H5 C4 1_555 1_555
C5 C4 1_555 1_555
C6 C5 1_555 1_555
H6 C6 1_555 1_555
C7 C1 1_555 1_555
C8 H7 1_555 1_555
C9 C8 1_555 1_555
C10 C2 1_555 1_555
H8 C10 1_555 1_555
C11 C2 1_555 1_555
H9 C11 1_555 1_555
C12 C11 1_555 1_555
C13 C9 1_555 1_555
C14 H10 1_555 1_555
H11 C14 1_555 1_555
H12 C14 1_555 1_555
N1 C7 1_555 1_555
N2 C5 1_555 1_555
O2 C1 1_555 1_555
O3 C12 1_555 1_555
O4 N2 1_555 1_555
O5 N2 1_555 1_555
C6 C7 1_555 1_555
C8 N1 1_555 1_555
C9 C10 1_555 1_555
C12 C13 1_555 1_555
C14 O3 1_555 1_555

#END
