
#######################################################################
#
#                 Cambridge Crystallographic Data Centre
#                                CCDC 
#
#######################################################################
#
# If this CIF has been generated from an entry in the Cambridge 
# Structural Database, then it will include bibliographic, chemical, 
# crystal, experimental, refinement or atomic coordinate data resulting 
# from the CCDC's data processing and validation procedures.
#
#######################################################################

data_CIQFOY
_chemical_formula_moiety         'C15 H24 N4 O7,2.5(H2 O1)'
_chemical_name_systematic        
'Isopropyl 6-amino-2,5-anhydro-6-N-(2,5-anhydro-6-azido-3,6-dideoxy-L-lyxo-hexonyl)-3,6-dideoxy-L-lyxo-hexonate hydrate'
_symmetry_cell_setting           triclinic
_symmetry_space_group_name_H-M   'P 1'
_symmetry_Int_Tables_number      1
_space_group_name_Hall           'P 1'
loop_
_symmetry_equiv_pos_site_id
_symmetry_equiv_pos_as_xyz
1 x,y,z
_cell_length_a                   5.75210(10)
_cell_length_b                   9.0344(2)
_cell_length_c                   20.7349(3)
_cell_angle_alpha                95.1380(11)
_cell_angle_beta                 96.3386(12)
_cell_angle_gamma                108.4637(6)
_cell_volume                     1006.91
_exptl_crystal_colour            colorless
_exptl_crystal_description       plate
_cell_formula_units_Z            2
loop_
_atom_site_label
_atom_site_type_symbol
_atom_site_fract_x
_atom_site_fract_y
_atom_site_fract_z
N1 N 1.1480(8) -0.1003(4) 0.54330(17)
N2 N 1.0155(6) -0.0798(3) 0.50328(14)
N3 N 0.8662(6) -0.0461(3) 0.46578(13)
C1 C 0.8007(6) -0.1396(4) 0.39974(14)
C2 C 0.5885(6) -0.1046(3) 0.36262(14)
O1 O 0.6720(4) 0.0549(2) 0.34711(10)
C3 C 0.5367(6) 0.0630(3) 0.28606(14)
C4 C 0.3955(5) 0.1777(3) 0.29303(14)
N4 N 0.3844(5) 0.2368(3) 0.35259(12)
C5 C 0.2456(6) 0.3457(3) 0.36306(14)
C6 C 0.2341(6) 0.3783(3) 0.43479(14)
O2 O 0.4819(4) 0.4688(3) 0.46789(10)
C7 C 0.4617(6) 0.5692(4) 0.52265(14)
C8 C 0.5845(6) 0.5312(4) 0.58522(14)
O3 O 0.6542(4) 0.6540(3) 0.63143(10)
C9 C 0.7607(6) 0.6339(4) 0.69680(15)
C10 C 1.0229(7) 0.6369(5) 0.69595(17)
C11 C 0.7380(7) 0.7645(5) 0.74312(16)
O4 O 0.6059(5) 0.4045(3) 0.59183(11)
C12 C 0.1847(6) 0.5371(4) 0.52393(15)
C13 C 0.0758(5) 0.4798(3) 0.45240(14)
O5 O 0.1214(5) 0.6134(3) 0.41827(11)
O6 O 0.2885(4) 0.2072(2) 0.24214(10)
C14 C 0.3585(6) -0.1047(3) 0.26108(14)
C15 C 0.4800(6) -0.2067(3) 0.29702(14)
O7 O 0.6771(4) -0.2309(2) 0.26598(10)
H1 H 0.7551 -0.2519 0.4039
H2 H 0.9401 -0.1129 0.3760
H3 H 0.4551 -0.1189 0.3905
H4 H 0.6588 0.1006 0.2563
H5 H 0.3230 0.4449 0.3463
H6 H 0.0744 0.2932 0.3406
H7 H 0.1781 0.2772 0.4522
H8 H 0.5438 0.6800 0.5186
H9 H 0.6594 0.5335 0.7080
H10 H 1.0907 0.6247 0.7382
H11 H 1.1142 0.7354 0.6830
H12 H 1.0256 0.5518 0.6646
H13 H 0.7918 0.7525 0.7877
H14 H 0.8391 0.8638 0.7319
H15 H 0.5702 0.7643 0.7391
H16 H 0.1520 0.6306 0.5396
H17 H 0.1209 0.4575 0.5521
H18 H -0.1038 0.4196 0.4458
H19 H 0.1963 -0.1175 0.2745
H20 H 0.3416 -0.1294 0.2131
H21 H 0.3617 -0.3069 0.3030
H44 H 0.4608 0.2109 0.3857
H45 H 0.0327 0.5890 0.3829
H57 H 0.6181 -0.2700 0.2273
N5 N 1.3609(6) 0.9360(4) -0.16217(15)
N6 N 1.2486(5) 0.9162(3) -0.12063(13)
N7 N 1.1022(5) 0.8837(3) -0.08056(13)
C16 C 1.1920(6) 0.9798(4) -0.01428(14)
C17 C 0.9768(5) 0.9462(3) 0.02350(13)
O8 O 0.9135(4) 0.7865(2) 0.03906(10)
C18 C 0.8188(5) 0.7781(3) 0.10015(13)
C19 C 0.5566(6) 0.6648(3) 0.09328(14)
N8 N 0.4378(4) 0.6060(3) 0.03371(11)
C20 C 0.1839(5) 0.4979(3) 0.02318(14)
C21 C 0.0841(5) 0.4630(3) -0.04904(14)
O9 O 0.2180(4) 0.3763(3) -0.08116(10)
C22 C 0.0622(6) 0.2792(3) -0.13722(14)
C23 C 0.1831(6) 0.3203(3) -0.19792(14)
O10 O 0.0628(4) 0.2117(3) -0.24931(10)
C24 C 0.1684(6) 0.2270(4) -0.31084(14)
C25 C 0.3500(7) 0.1386(4) -0.31054(17)
C26 C -0.0472(7) 0.1614(4) -0.36520(15)
O11 O 0.3565(4) 0.4357(3) -0.20020(10)
C27 C -0.1860(6) 0.3054(4) -0.13939(15)
C28 C -0.1882(5) 0.3623(4) -0.06797(14)
O12 O -0.2494(4) 0.2277(3) -0.03410(10)
O13 O 0.4608(4) 0.6358(2) 0.14401(10)
C29 C 0.8307(5) 0.9474(3) 0.12536(14)
C30 C 1.0258(5) 1.0485(3) 0.08948(14)
O14 O 1.2726(4) 1.0706(2) 0.12008(10)
H22 H 1.2458 1.0917 -0.0194
H23 H 1.3265 0.9502 0.0073
H24 H 0.8304 0.9573 -0.0026
H25 H 0.9237 0.7412 0.1299
H26 H 0.0766 0.5433 0.0462
H27 H 0.1824 0.4004 0.0408
H28 H 0.1136 0.5618 -0.0680
H29 H 0.0455 0.1719 -0.1313
H30 H 0.2527 0.3387 -0.3139
H31 H 0.4150 0.1415 -0.3519
H32 H 0.2746 0.0283 -0.3038
H33 H 0.4870 0.1902 -0.2752
H34 H 0.0107 0.1763 -0.4065
H35 H -0.1693 0.2150 -0.3616
H36 H -0.1213 0.0506 -0.3630
H37 H -0.1914 0.3859 -0.1673
H38 H -0.3197 0.2102 -0.1560
H39 H -0.3012 0.4226 -0.0620
H40 H 0.8766 0.9742 0.1731
H41 H 0.6743 0.9643 0.1137
H42 H 1.0022 1.1497 0.0827
H43 H 0.5148 0.6300 -0.0009
H51 H -0.2784 0.2567 0.0017
H58 H 1.2778 1.1091 0.1581
O15 O 0.5427(6) 0.1600(3) 0.47955(12)
H48 H 0.5703 0.2313 0.5115
H55 H 0.6460 0.1158 0.4897
O16 O 0.5683(5) 0.6885(3) -0.09160(11)
H50 H 0.5083 0.6152 -0.1216
H53 H 0.7156 0.7337 -0.0965
O17 O 0.0778(4) 0.4194(3) 0.19227(11)
H49 H 0.1297 0.3556 0.2106
H54 H 0.1729 0.4774 0.1716
O18 O 0.8518(4) 0.5205(3) 0.29533(11)
H47 H 0.9155 0.5042 0.2630
H56 H 0.7893 0.5840 0.2837
O19 O 0.6683(4) 0.3181(3) 0.08906(11)
H46 H 0.7637 0.3344 0.1237
H52 H 0.5423 0.2502 0.0977
loop_
_geom_bond_atom_site_label_1
_geom_bond_atom_site_label_2
_geom_bond_site_symmetry_1
_geom_bond_site_symmetry_2
N1 N2 1_555 1_555
N2 N3 1_555 1_555
N3 C1 1_555 1_555
C1 C2 1_555 1_555
C2 O1 1_555 1_555
O1 C3 1_555 1_555
C3 C4 1_555 1_555
C4 N4 1_555 1_555
N4 C5 1_555 1_555
C5 C6 1_555 1_555
C6 O2 1_555 1_555
O2 C7 1_555 1_555
C7 C8 1_555 1_555
C8 O3 1_555 1_555
O3 C9 1_555 1_555
C9 C10 1_555 1_555
C10 H10 1_555 1_555
C11 C9 1_555 1_555
O4 C8 1_555 1_555
C12 C7 1_555 1_555
C13 C6 1_555 1_555
O5 C13 1_555 1_555
O6 C4 1_555 1_555
C14 C3 1_555 1_555
C15 C2 1_555 1_555
O7 C15 1_555 1_555
N5 N6 1_555 1_555
N6 N7 1_555 1_555
N7 C16 1_555 1_555
C16 C17 1_555 1_555
C17 O8 1_555 1_555
O8 C18 1_555 1_555
C18 C19 1_555 1_555
C19 N8 1_555 1_555
N8 C20 1_555 1_555
C20 C21 1_555 1_555
C21 O9 1_555 1_555
O9 C22 1_555 1_555
C22 C23 1_555 1_555
C23 O10 1_555 1_555
O10 C24 1_555 1_555
C24 C25 1_555 1_555
C25 H31 1_555 1_555
C26 C24 1_555 1_555
O11 C23 1_555 1_555
C27 C22 1_555 1_555
C28 C21 1_555 1_555
O12 C28 1_555 1_555
O13 C19 1_555 1_555
C29 C18 1_555 1_555
C30 C17 1_555 1_555
O14 C30 1_555 1_555
O15 H48 1_555 1_555
O16 H50 1_555 1_555
O17 H49 1_555 1_555
O18 H47 1_555 1_555
O19 H46 1_555 1_555
H1 C1 1_555 1_555
H2 C1 1_555 1_555
H3 C2 1_555 1_555
H4 C3 1_555 1_555
H5 C5 1_555 1_555
H6 C5 1_555 1_555
H7 C6 1_555 1_555
H8 C7 1_555 1_555
H9 C9 1_555 1_555
H11 C10 1_555 1_555
H12 C10 1_555 1_555
H13 C11 1_555 1_555
H14 C11 1_555 1_555
H15 C11 1_555 1_555
H16 C12 1_555 1_555
H17 C12 1_555 1_555
H18 C13 1_555 1_555
H19 C14 1_555 1_555
H20 C14 1_555 1_555
H21 C15 1_555 1_555
H22 C16 1_555 1_555
H23 C16 1_555 1_555
H24 C17 1_555 1_555
H25 C18 1_555 1_555
H26 C20 1_555 1_555
H27 C20 1_555 1_555
H28 C21 1_555 1_555
H29 C22 1_555 1_555
H30 C24 1_555 1_555
H32 C25 1_555 1_555
H33 C25 1_555 1_555
H34 C26 1_555 1_555
H35 C26 1_555 1_555
H36 C26 1_555 1_555
H37 C27 1_555 1_555
H38 C27 1_555 1_555
H39 C28 1_555 1_555
H40 C29 1_555 1_555
H41 C29 1_555 1_555
H42 C30 1_555 1_555
H43 N8 1_555 1_555
H44 N4 1_555 1_555
H45 O5 1_555 1_555
H51 O12 1_555 1_555
H52 O19 1_555 1_555
H53 O16 1_555 1_555
H54 O17 1_555 1_555
H55 O15 1_555 1_555
H56 O18 1_555 1_555
H57 O7 1_555 1_555
H58 O14 1_555 1_555
C12 C13 1_555 1_555
C14 C15 1_555 1_555
C27 C28 1_555 1_555
C29 C30 1_555 1_555

#END
