
#######################################################################
#
#                 Cambridge Crystallographic Data Centre
#                                CCDC 
#
#######################################################################
#
# If this CIF has been generated from an entry in the Cambridge 
# Structural Database, then it will include bibliographic, chemical, 
# crystal, experimental, refinement or atomic coordinate data resulting 
# from the CCDC's data processing and validation procedures.
#
#######################################################################

data_CIQHIU
_chemical_formula_moiety         'C11 H12 O4'
_chemical_name_systematic        'Methyl 4-acetylphenoxyacetate'
_symmetry_cell_setting           monoclinic
_symmetry_space_group_name_H-M   'C 2/c'
_symmetry_Int_Tables_number      15
_space_group_name_Hall           '-C 2yn'
loop_
_symmetry_equiv_pos_site_id
_symmetry_equiv_pos_as_xyz
1 x,y,z
2 1/2+x,1/2+y,z
3 -x,y,1/2-z
4 1/2-x,1/2+y,1/2-z
5 -x,-y,-z
6 1/2-x,1/2-y,-z
7 x,-y,1/2+z
8 1/2+x,1/2-y,1/2+z
_cell_length_a                   24.6900(10)
_cell_length_b                   7.5580(6)
_cell_length_c                   11.1280(9)
_cell_angle_alpha                90
_cell_angle_beta                 92.2300(10)
_cell_angle_gamma                90
_cell_volume                     2074.99
_exptl_crystal_colour            colorless
_exptl_crystal_description       Block
_cell_formula_units_Z            8
_exptl_crystal_recrystallization_method methanol
loop_
_atom_site_label
_atom_site_type_symbol
_atom_site_fract_x
_atom_site_fract_y
_atom_site_fract_z
C1 C 0.23473(6) 0.5091(3) 0.57792(15)
H1 H 0.2014 0.5370 0.6155
H2 H 0.2285 0.4154 0.5208
H3 H 0.2477 0.6119 0.5373
C2 C 0.27612(5) 0.45135(19) 0.67172(12)
C3 C 0.33143(5) 0.40001(17) 0.63545(11)
C4 C 0.36934(5) 0.34295(19) 0.72408(12)
H4 H 0.3596 0.3384 0.8039
C5 C 0.42082(5) 0.29360(19) 0.69471(12)
H5 H 0.4456 0.2557 0.7544
C6 C 0.43570(5) 0.30052(18) 0.57537(12)
C7 C 0.39911(5) 0.3578(2) 0.48646(12)
H6 H 0.4091 0.3632 0.4068
C8 C 0.34732(5) 0.40702(19) 0.51710(12)
H7 H 0.3227 0.4455 0.4573
C9 C 0.50411(5) 0.2400(2) 0.43547(12)
H8 H 0.5012 0.3564 0.3991
H9 H 0.4814 0.1589 0.3886
C10 C 0.56212(5) 0.17801(18) 0.43853(12)
C11 C 0.63673(7) 0.1337(3) 0.31544(18)
H10 H 0.6459 0.1441 0.2327
H11 H 0.6412 0.0131 0.3410
H12 H 0.6601 0.2085 0.3640
O1 O 0.26456(5) 0.4471(2) 0.77717(10)
O2 O 0.48748(4) 0.24604(15) 0.55592(9)
O3 O 0.58735(4) 0.12804(18) 0.52558(10)
O4 O 0.58085(4) 0.18728(16) 0.32852(10)
loop_
_geom_bond_atom_site_label_1
_geom_bond_atom_site_label_2
_geom_bond_site_symmetry_1
_geom_bond_site_symmetry_2
C1 H1 1_555 1_555
H2 C1 1_555 1_555
H3 C1 1_555 1_555
C2 C1 1_555 1_555
C3 C2 1_555 1_555
C4 C3 1_555 1_555
H4 C4 1_555 1_555
C5 C4 1_555 1_555
H5 C5 1_555 1_555
C6 C5 1_555 1_555
C7 C6 1_555 1_555
H6 C7 1_555 1_555
C8 C3 1_555 1_555
H7 C8 1_555 1_555
C9 H8 1_555 1_555
H9 C9 1_555 1_555
C10 C9 1_555 1_555
C11 H10 1_555 1_555
H11 C11 1_555 1_555
H12 C11 1_555 1_555
O1 C2 1_555 1_555
O2 C6 1_555 1_555
O3 C10 1_555 1_555
O4 C10 1_555 1_555
C7 C8 1_555 1_555
C9 O2 1_555 1_555
C11 O4 1_555 1_555

#END
