
#######################################################################
#
#                 Cambridge Crystallographic Data Centre
#                                CCDC 
#
#######################################################################
#
# If this CIF has been generated from an entry in the Cambridge 
# Structural Database, then it will include bibliographic, chemical, 
# crystal, experimental, refinement or atomic coordinate data resulting 
# from the CCDC's data processing and validation procedures.
#
#######################################################################

data_CIQJES
_chemical_formula_moiety         'C9 H11 N3 O2'
_chemical_name_systematic        
'(1Z,2E)-2-(Hydroxyimino)-N-p-tolylacetamide oxime'
_symmetry_cell_setting           monoclinic
_symmetry_space_group_name_H-M   'C c'
_symmetry_Int_Tables_number      9
_space_group_name_Hall           'C -2yc'
loop_
_symmetry_equiv_pos_site_id
_symmetry_equiv_pos_as_xyz
1 x,y,z
2 x,-y,1/2+z
3 1/2+x,1/2+y,z
4 1/2+x,1/2-y,1/2+z
_cell_length_a                   9.0031(12)
_cell_length_b                   19.352(3)
_cell_length_c                   6.9742(9)
_cell_angle_alpha                90
_cell_angle_beta                 126.596(9)
_cell_angle_gamma                90
_cell_volume                     975.555
_exptl_crystal_colour            'pale yellow'
_exptl_crystal_description       Prism
_chemical_melting_point          '445 K'
_cell_formula_units_Z            4
_exptl_crystal_recrystallization_method dimethylformamide
loop_
_atom_site_label
_atom_site_type_symbol
_atom_site_fract_x
_atom_site_fract_y
_atom_site_fract_z
C1 C 0.5005(3) 0.26817(10) 0.3450(4)
C2 C 0.4256(3) 0.33277(12) 0.3234(4)
H1 H 0.3711 0.3418 0.3997
C3 C 0.4312(4) 0.38366(12) 0.1898(5)
H2 H 0.3815 0.4269 0.1790
C4 C 0.5096(4) 0.37194(13) 0.0704(4)
C5 C 0.5878(3) 0.30800(13) 0.0987(4)
H3 H 0.6433 0.2991 0.0237
C6 C 0.5859(3) 0.25656(11) 0.2356(4)
H4 H 0.6420 0.2142 0.2541
C7 C 0.5105(5) 0.42754(17) -0.0808(6)
H5 H 0.4318 0.4649 -0.1019
H6 H 0.4658 0.4087 -0.2339
H7 H 0.6343 0.4443 -0.0028
C8 C 0.4705(3) 0.14747(10) 0.4385(3)
C9 C 0.4235(3) 0.11959(10) 0.2112(3)
H8 H 0.3545 0.1452 0.0708
N1 N 0.4869(3) 0.21670(9) 0.4769(3)
H9 H 0.4893 0.2308 0.5957
N2 N 0.4806(3) 0.05983(9) 0.2152(3)
N3 N 0.4826(3) 0.10245(9) 0.5830(3)
O1 O 0.4217(3) 0.03900(8) -0.0112(3)
O2 O 0.5278(3) 0.13481(9) 0.7934(3)
H10 H 0.456(4) -0.0057(18) 0.009(5)
H11 H 0.497(5) 0.1034(19) 0.860(6)
loop_
_geom_bond_atom_site_label_1
_geom_bond_atom_site_label_2
_geom_bond_site_symmetry_1
_geom_bond_site_symmetry_2
C1 C2 1_555 1_555
C2 H1 1_555 1_555
C3 C2 1_555 1_555
H2 C3 1_555 1_555
C4 C3 1_555 1_555
C5 C4 1_555 1_555
H3 C5 1_555 1_555
C6 C1 1_555 1_555
H4 C6 1_555 1_555
C7 C4 1_555 1_555
H5 C7 1_555 1_555
H6 C7 1_555 1_555
H7 C7 1_555 1_555
C8 C9 1_555 1_555
C9 H8 1_555 1_555
N1 C1 1_555 1_555
H9 N1 1_555 1_555
N2 C9 1_555 1_555
N3 C8 1_555 1_555
O1 N2 1_555 1_555
O2 N3 1_555 1_555
H10 O1 1_555 1_555
H11 O2 1_555 1_555
C5 C6 1_555 1_555
C8 N1 1_555 1_555

#END
