
#######################################################################
#
#                 Cambridge Crystallographic Data Centre
#                                CCDC 
#
#######################################################################
#
# If this CIF has been generated from an entry in the Cambridge 
# Structural Database, then it will include bibliographic, chemical, 
# crystal, experimental, refinement or atomic coordinate data resulting 
# from the CCDC's data processing and validation procedures.
#
#######################################################################

data_CIQKOD
_chemical_formula_moiety         'C14 H11 N3'
_chemical_name_systematic        4-(Phenylhydrazonomethyl)benzonitrile
_symmetry_cell_setting           orthorhombic
_symmetry_space_group_name_H-M   'P 21 21 21'
_symmetry_Int_Tables_number      19
_space_group_name_Hall           'P 2ac 2ab'
loop_
_symmetry_equiv_pos_site_id
_symmetry_equiv_pos_as_xyz
1 x,y,z
2 1/2-x,-y,1/2+z
3 1/2+x,1/2-y,-z
4 -x,1/2+y,1/2-z
_cell_length_a                   7.1442(14)
_cell_length_b                   11.147(2)
_cell_length_c                   14.726(3)
_cell_angle_alpha                90
_cell_angle_beta                 90
_cell_angle_gamma                90
_cell_volume                     1172.73
_exptl_crystal_colour            yellow
_exptl_crystal_description       Block
_cell_formula_units_Z            4
_exptl_crystal_recrystallization_method ethanol
loop_
_atom_site_label
_atom_site_type_symbol
_atom_site_fract_x
_atom_site_fract_y
_atom_site_fract_z
N1 N 0.4559(4) 0.4066(3) 0.51082(19)
N2 N 0.4212(5) 0.2870(3) 0.5177(2)
H1 H 0.4864 0.2514 0.4729
N3 N 0.4871(6) 1.0614(3) 0.3748(2)
C1 C 0.4160(5) 0.4567(3) 0.4354(2)
H2 H 0.3704 0.4100 0.3880
C2 C 0.4400(4) 0.5844(3) 0.4218(2)
C3 C 0.5107(5) 0.6589(3) 0.4901(2)
H3 H 0.5493 0.6256 0.5449
C4 C 0.5241(5) 0.7814(3) 0.4772(2)
H4 H 0.5704 0.8301 0.5233
C5 C 0.4680(5) 0.8315(3) 0.3950(2)
C6 C 0.4008(5) 0.7585(3) 0.3266(2)
H5 H 0.3649 0.7915 0.2713
C7 C 0.3871(5) 0.6374(4) 0.3406(2)
H6 H 0.3410 0.5892 0.2941
C8 C 0.4797(6) 0.9587(4) 0.3826(2)
C9 C 0.4638(5) 0.2253(3) 0.5963(2)
C10 C 0.5663(5) 0.2755(3) 0.6664(2)
H7 H 0.6101 0.3538 0.6618
C11 C 0.6031(5) 0.2089(3) 0.7430(2)
H8 H 0.6708 0.2436 0.7902
C12 C 0.5428(6) 0.0933(3) 0.7515(3)
H9 H 0.5711 0.0490 0.8032
C13 C 0.4383(6) 0.0427(3) 0.6814(3)
H10 H 0.3935 -0.0353 0.6866
C14 C 0.4019(5) 0.1080(3) 0.6053(2)
H11 H 0.3340 0.0732 0.5583
loop_
_geom_bond_atom_site_label_1
_geom_bond_atom_site_label_2
_geom_bond_site_symmetry_1
_geom_bond_site_symmetry_2
N1 N2 1_555 1_555
N2 H1 1_555 1_555
N3 C8 1_555 1_555
C1 N1 1_555 1_555
H2 C1 1_555 1_555
C2 C1 1_555 1_555
C3 C2 1_555 1_555
H3 C3 1_555 1_555
C4 C3 1_555 1_555
H4 C4 1_555 1_555
C5 C4 1_555 1_555
C6 C5 1_555 1_555
H5 C6 1_555 1_555
C7 C2 1_555 1_555
H6 C7 1_555 1_555
C8 C5 1_555 1_555
C9 N2 1_555 1_555
C10 C9 1_555 1_555
H7 C10 1_555 1_555
C11 C10 1_555 1_555
H8 C11 1_555 1_555
C12 C11 1_555 1_555
H9 C12 1_555 1_555
C13 C12 1_555 1_555
H10 C13 1_555 1_555
C14 C9 1_555 1_555
H11 C14 1_555 1_555
C6 C7 1_555 1_555
C13 C14 1_555 1_555

#END
