
#######################################################################
#
#                 Cambridge Crystallographic Data Centre
#                                CCDC 
#
#######################################################################
#
# If this CIF has been generated from an entry in the Cambridge 
# Structural Database, then it will include bibliographic, chemical, 
# crystal, experimental, refinement or atomic coordinate data resulting 
# from the CCDC's data processing and validation procedures.
#
#######################################################################

data_CIQMOF
_chemical_formula_moiety         'C20 H32 N4 O4 S1'
_chemical_name_systematic        
3,4-Di-n-butoxy-N^2^,N^2'^-bis(propan-2-ylidene)thiophene-2,5-dicarbohydrazide
_symmetry_cell_setting           monoclinic
_symmetry_space_group_name_H-M   'C 2/c'
_symmetry_Int_Tables_number      15
_space_group_name_Hall           '-C 2yn'
loop_
_symmetry_equiv_pos_site_id
_symmetry_equiv_pos_as_xyz
1 x,y,z
2 1/2+x,1/2+y,z
3 -x,y,1/2-z
4 1/2-x,1/2+y,1/2-z
5 -x,-y,-z
6 1/2-x,1/2-y,-z
7 x,-y,1/2+z
8 1/2+x,1/2-y,1/2+z
_cell_length_a                   20.891(4)
_cell_length_b                   10.526(2)
_cell_length_c                   13.581(3)
_cell_angle_alpha                90
_cell_angle_beta                 128.24(3)
_cell_angle_gamma                90
_cell_volume                     2345.63
_exptl_crystal_colour            colorless
_exptl_crystal_description       Block
_chemical_melting_point          '443 K'
_cell_formula_units_Z            4
_exptl_crystal_recrystallization_method acetone
loop_
_atom_site_label
_atom_site_type_symbol
_atom_site_fract_x
_atom_site_fract_y
_atom_site_fract_z
S1 S 0.0000 0.08050(10) 0.2500
O1 O 0.08170(12) 0.42142(18) 0.37436(18)
O2 O 0.16503(15) 0.0362(2) 0.4897(2)
N1 N 0.19373(14) 0.2437(2) 0.5525(2)
H1 H 0.1784 0.3213 0.5310
N2 N 0.26579(14) 0.2169(2) 0.6707(2)
C1 C 0.0866(3) 0.7585(4) 0.1859(4)
H2 H 0.1073 0.8175 0.1580
H3 H 0.0420 0.7967 0.1783
H4 H 0.0680 0.6832 0.1353
C2 C 0.1533(2) 0.7242(4) 0.3214(4)
H5 H 0.1724 0.8013 0.3712
H6 H 0.1987 0.6884 0.3283
C3 C 0.1273(2) 0.6305(3) 0.3754(3)
H7 H 0.1717 0.6197 0.4641
H8 H 0.0813 0.6656 0.3673
C4 C 0.10415(19) 0.5041(3) 0.3133(3)
H9 H 0.0585 0.5128 0.2250
H10 H 0.1496 0.4675 0.3206
C5 C 0.04004(17) 0.3141(3) 0.3090(2)
C6 C 0.06878(16) 0.1940(3) 0.3526(2)
C7 C 0.14743(17) 0.1492(3) 0.4708(3)
C8 C 0.30294(19) 0.3120(3) 0.7437(3)
C9 C 0.3805(2) 0.2835(4) 0.8705(3)
H11 H 0.3906 0.1937 0.8784
H12 H 0.3760 0.3109 0.9335
H13 H 0.4247 0.3276 0.8813
C10 C 0.2756(3) 0.4475(4) 0.7121(3)
H14 H 0.2172 0.4510 0.6596
H15 H 0.2938 0.4842 0.6685
H16 H 0.2983 0.4943 0.7878
O1B O -0.08170(12) 0.42142(18) 0.12564(18)
O2B O -0.16503(15) 0.0362(2) 0.0103(2)
N1B N -0.19373(14) 0.2437(2) -0.0525(2)
H1B H -0.1784 0.3213 -0.0310
N2B N -0.26579(14) 0.2169(2) -0.1707(2)
C1B C -0.0866(3) 0.7585(4) 0.3141(4)
H2B H -0.1073 0.8175 0.3420
H3B H -0.0420 0.7967 0.3217
H4B H -0.0680 0.6832 0.3647
C2B C -0.1533(2) 0.7242(4) 0.1786(4)
H5B H -0.1724 0.8013 0.1288
H6B H -0.1987 0.6884 0.1717
C3B C -0.1273(2) 0.6305(3) 0.1246(3)
H7B H -0.1717 0.6197 0.0359
H8B H -0.0813 0.6656 0.1327
C4B C -0.10415(19) 0.5041(3) 0.1867(3)
H9B H -0.0585 0.5128 0.2750
H10B H -0.1496 0.4675 0.1794
C5B C -0.04004(17) 0.3141(3) 0.1910(2)
C6B C -0.06878(16) 0.1940(3) 0.1474(2)
C7B C -0.14743(17) 0.1492(3) 0.0292(3)
C8B C -0.30294(19) 0.3120(3) -0.2437(3)
C9B C -0.3805(2) 0.2835(4) -0.3705(3)
H11B H -0.3906 0.1937 -0.3784
H12B H -0.3760 0.3109 -0.4335
H13B H -0.4247 0.3276 -0.3813
C10B C -0.2756(3) 0.4475(4) -0.2121(3)
H14B H -0.2172 0.4510 -0.1596
H15B H -0.2938 0.4842 -0.1685
H16B H -0.2983 0.4943 -0.2878
loop_
_geom_bond_atom_site_label_1
_geom_bond_atom_site_label_2
_geom_bond_site_symmetry_1
_geom_bond_site_symmetry_2
S1 C6 1_555 1_555
O1 C4 1_555 1_555
O2 C7 1_555 1_555
N1 H1 1_555 1_555
N2 N1 1_555 1_555
C1 H2 1_555 1_555
H3 C1 1_555 1_555
H4 C1 1_555 1_555
C2 C1 1_555 1_555
H5 C2 1_555 1_555
H6 C2 1_555 1_555
C3 C2 1_555 1_555
H7 C3 1_555 1_555
H8 C3 1_555 1_555
C4 C3 1_555 1_555
H9 C4 1_555 1_555
H10 C4 1_555 1_555
C5 O1 1_555 1_555
C6 C5 1_555 1_555
C7 N1 1_555 1_555
C8 N2 1_555 1_555
C9 C8 1_555 1_555
H11 C9 1_555 1_555
H12 C9 1_555 1_555
H13 C9 1_555 1_555
C10 C8 1_555 1_555
H14 C10 1_555 1_555
H15 C10 1_555 1_555
H16 C10 1_555 1_555
O1B C4B 1_555 1_555
O2B C7B 1_555 1_555
N1B H1B 1_555 1_555
N2B N1B 1_555 1_555
C1B H2B 1_555 1_555
H3B C1B 1_555 1_555
H4B C1B 1_555 1_555
C2B C1B 1_555 1_555
H5B C2B 1_555 1_555
H6B C2B 1_555 1_555
C3B C2B 1_555 1_555
H7B C3B 1_555 1_555
H8B C3B 1_555 1_555
C4B C3B 1_555 1_555
H9B C4B 1_555 1_555
H10B C4B 1_555 1_555
C5B C5 1_555 1_555
C6B S1 1_555 1_555
C7B N1B 1_555 1_555
C8B N2B 1_555 1_555
C9B C8B 1_555 1_555
H11B C9B 1_555 1_555
H12B C9B 1_555 1_555
H13B C9B 1_555 1_555
C10B C8B 1_555 1_555
H14B C10B 1_555 1_555
H15B C10B 1_555 1_555
H16B C10B 1_555 1_555
C6 C7 1_555 1_555
O1B C5B 1_555 1_555
C5B C6B 1_555 1_555
C6B C7B 1_555 1_555

#END
