
#######################################################################
#
#                 Cambridge Crystallographic Data Centre
#                                CCDC 
#
#######################################################################
#
# If this CIF has been generated from an entry in the Cambridge 
# Structural Database, then it will include bibliographic, chemical, 
# crystal, experimental, refinement or atomic coordinate data resulting 
# from the CCDC's data processing and validation procedures.
#
#######################################################################

data_CIQNIA
_chemical_formula_moiety         'C18 H17 N1 O4'
_chemical_name_systematic        
'(4S)-Benzyl 4-benzyl-5-oxo-1,3-oxazolidine-3-carboxylate'
_symmetry_cell_setting           monoclinic
_symmetry_space_group_name_H-M   'P 21'
_symmetry_Int_Tables_number      4
_space_group_name_Hall           'P 2yb'
loop_
_symmetry_equiv_pos_site_id
_symmetry_equiv_pos_as_xyz
1 x,y,z
2 -x,1/2+y,-z
_cell_length_a                   11.4729(11)
_cell_length_b                   5.9019(4)
_cell_length_c                   12.5093(10)
_cell_angle_alpha                90
_cell_angle_beta                 107.810(10)
_cell_angle_gamma                90
_cell_volume                     806.436
_exptl_crystal_colour            colorless
_exptl_crystal_description       block
_cell_formula_units_Z            2
_exptl_crystal_recrystallization_method ethanol
loop_
_atom_site_label
_atom_site_type_symbol
_atom_site_fract_x
_atom_site_fract_y
_atom_site_fract_z
N1 N 0.42377(15) 0.7609(3) 0.84565(14)
C1 C 0.36781(19) 0.8526(4) 0.91468(16)
O1 O 0.28778(13) 0.7072(2) 0.93711(12)
O2 O 0.58323(14) 0.7171(3) 0.77604(14)
C2 C 0.41290(18) 0.5305(4) 0.80224(17)
H1 H 0.4233 0.4231 0.8642
O3 O 0.38833(15) 1.0438(3) 0.95256(13)
C3 C 0.08937(19) 0.8764(4) 0.91329(16)
O4 O 0.55782(18) 0.3612(3) 0.71837(16)
C4 C 0.2070(2) 0.8026(5) 0.99621(18)
H2 H 0.2465 0.9312 1.0411
H3 H 0.1908 0.6897 1.0462
C5 C 0.25038(19) 0.6702(4) 0.62687(17)
C6 C 0.0774(2) 1.0868(4) 0.86208(19)
H4 H 0.1430 1.1873 0.8806
C7 C 0.1527(2) 0.8044(4) 0.63085(17)
H5 H 0.1126 0.7714 0.6834
C8 C 0.2927(2) 0.4786(4) 0.70912(18)
H6 H 0.3042 0.3443 0.6687
H7 H 0.2294 0.4455 0.7434
C9 C 0.5233(2) 0.5193(4) 0.7604(2)
C10 C -0.0100(2) 0.7305(4) 0.88517(19)
H8 H -0.0031 0.5892 0.9195
C11 C 0.5257(2) 0.8793(4) 0.8266(2)
H9 H 0.4975 1.0078 0.7771
H10 H 0.5818 0.9328 0.8969
C12 C -0.1181(2) 0.7913(5) 0.8076(2)
H11 H -0.1839 0.6913 0.7892
C13 C 0.2702(3) 0.9083(5) 0.4770(2)
H12 H 0.3108 0.9443 0.4253
C14 C 0.1129(2) 0.9859(4) 0.5590(2)
H13 H 0.0462 1.0717 0.5624
C15 C -0.0318(3) 1.1480(5) 0.7835(2)
H14 H -0.0392 1.2887 0.7485
C16 C 0.3083(2) 0.7238(5) 0.54794(18)
H15 H 0.3734 0.6355 0.5424
C17 C 0.1727(3) 1.0383(5) 0.48261(19)
H16 H 0.1475 1.1614 0.4347
C18 C -0.1294(3) 1.0006(5) 0.7571(2)
H17 H -0.2031 1.0425 0.7049
loop_
_geom_bond_atom_site_label_1
_geom_bond_atom_site_label_2
_geom_bond_site_symmetry_1
_geom_bond_site_symmetry_2
N1 C1 1_555 1_555
C1 O1 1_555 1_555
O1 C4 1_555 1_555
O2 C9 1_555 1_555
C2 N1 1_555 1_555
H1 C2 1_555 1_555
O3 C1 1_555 1_555
C3 C4 1_555 1_555
O4 C9 1_555 1_555
C4 H2 1_555 1_555
H3 C4 1_555 1_555
C5 C7 1_555 1_555
C6 C3 1_555 1_555
H4 C6 1_555 1_555
C7 H5 1_555 1_555
C8 C2 1_555 1_555
H6 C8 1_555 1_555
H7 C8 1_555 1_555
C9 C2 1_555 1_555
C10 C3 1_555 1_555
H8 C10 1_555 1_555
C11 N1 1_555 1_555
H9 C11 1_555 1_555
H10 C11 1_555 1_555
C12 C10 1_555 1_555
H11 C12 1_555 1_555
C13 H12 1_555 1_555
C14 C7 1_555 1_555
H13 C14 1_555 1_555
C15 C6 1_555 1_555
H14 C15 1_555 1_555
C16 C5 1_555 1_555
H15 C16 1_555 1_555
C17 C13 1_555 1_555
H16 C17 1_555 1_555
C18 C12 1_555 1_555
H17 C18 1_555 1_555
O2 C11 1_555 1_555
C5 C8 1_555 1_555
C13 C16 1_555 1_555
C14 C17 1_555 1_555
C15 C18 1_555 1_555

#END
