
#######################################################################
#
#                 Cambridge Crystallographic Data Centre
#                                CCDC 
#
#######################################################################
#
# If this CIF has been generated from an entry in the Cambridge 
# Structural Database, then it will include bibliographic, chemical, 
# crystal, experimental, refinement or atomic coordinate data resulting 
# from the CCDC's data processing and validation procedures.
#
#######################################################################

data_CIQQAV
_chemical_formula_moiety         'C13 H22 N1 O4 P1'
_chemical_name_systematic        
'Ethyl ((n-butylammonio)(2-hydroxyphenyl)methyl)phosphonate'
_symmetry_cell_setting           tetragonal
_symmetry_space_group_name_H-M   'I 41/a'
_symmetry_Int_Tables_number      88
_space_group_name_Hall           '-I 4ad'
loop_
_symmetry_equiv_pos_site_id
_symmetry_equiv_pos_as_xyz
1 x,y,z
2 3/4-y,1/4+x,1/4+z
3 1/2+x,1/2+y,1/2+z
4 1/4-y,3/4+x,3/4+z
5 1/4+y,1/4-x,1/4+z
6 1/2-x,-y,1/2+z
7 3/4+y,3/4-x,3/4+z
8 -x,1/2-y,z
9 -x,-y,-z
10 1/4+y,3/4-x,3/4-z
11 1/2-x,1/2-y,1/2-z
12 3/4+y,1/4-x,1/4-z
13 3/4-y,3/4+x,3/4-z
14 1/2+x,y,1/2-z
15 1/4-y,1/4+x,1/4-z
16 x,1/2+y,-z
_cell_length_a                   21.896(3)
_cell_length_b                   21.896(3)
_cell_length_c                   14.059(2)
_cell_angle_alpha                90
_cell_angle_beta                 90
_cell_angle_gamma                90
_cell_volume                     6740.37
_exptl_crystal_colour            yellow
_exptl_crystal_description       block
_cell_formula_units_Z            16
_exptl_crystal_recrystallization_method water
loop_
_atom_site_label
_atom_site_type_symbol
_atom_site_fract_x
_atom_site_fract_y
_atom_site_fract_z
P1 P 0.94165(4) 0.62363(4) 0.79003(8)
O1 O 0.89072(11) 0.66681(11) 0.7711(2)
O2 O 0.92802(14) 0.56485(13) 0.7277(2)
O3 O 1.00450(12) 0.64563(14) 0.7782(2)
O4 O 0.91293(13) 0.46901(12) 0.9416(3)
H1 H 0.9035 0.4340 0.9560
N1 N 0.95690(13) 0.63817(13) 0.9811(2)
H2 H 0.9960 0.6475 0.9679
H3 H 0.9347 0.6725 0.9745
C1 C 0.93477(15) 0.59188(16) 0.9100(3)
H4 H 0.9626 0.5569 0.9135
C2 C 0.87154(16) 0.56846(16) 0.9342(3)
C3 C 0.86297(17) 0.50615(17) 0.9501(3)
C4 C 0.80561(18) 0.48414(19) 0.9738(3)
H5 H 0.7998 0.4425 0.9835
C5 C 0.75756(19) 0.5236(2) 0.9828(4)
H6 H 0.7191 0.5086 0.9987
C6 C 0.76562(18) 0.5856(2) 0.9686(3)
H7 H 0.7330 0.6123 0.9759
C7 C 0.82280(17) 0.60747(18) 0.9434(3)
H8 H 0.8282 0.6490 0.9326
C8 C 0.9529(2) 0.61727(19) 1.0824(3)
H9 H 0.9109 0.6070 1.0973
H10 H 0.9775 0.5808 1.0906
C9 C 0.9745(3) 0.6652(3) 1.1483(4)
H11 H 0.9524 0.7028 1.1362
H12 H 1.0175 0.6729 1.1373
C10 C 0.9650(3) 0.6461(3) 1.2496(5)
H13 H 0.9914 0.6695 1.2914
H14 H 0.9744 0.6031 1.2573
C11 C 0.8971(3) 0.6584(3) 1.2739(5)
H15 H 0.8834 0.6943 1.2408
H16 H 0.8928 0.6645 1.3412
H17 H 0.8728 0.6240 1.2546
C13 C 0.9683(3) 0.5207(3) 0.7069(5)
H18 H 0.9780 0.4968 0.7630
H19 H 1.0057 0.5379 0.6815
C15 C 0.9357(3) 0.4809(3) 0.6314(5)
H20 H 0.8933 0.4769 0.6477
H21 H 0.9543 0.4412 0.6294
H22 H 0.9392 0.5000 0.5701
C12? C 0.9637(3) 0.6963(3) 1.3273(5)
C14? C 0.9414(3) 0.5597(3) 0.6272(5)
C16? C 0.9999(3) 0.5229(3) 0.6033(5)
loop_
_geom_bond_atom_site_label_1
_geom_bond_atom_site_label_2
_geom_bond_site_symmetry_1
_geom_bond_site_symmetry_2
P1 O1 1_555 1_555
O2 P1 1_555 1_555
O3 P1 1_555 1_555
O4 H1 1_555 1_555
N1 H2 1_555 1_555
H3 N1 1_555 1_555
C1 P1 1_555 1_555
H4 C1 1_555 1_555
C2 C1 1_555 1_555
C3 O4 1_555 1_555
C4 C3 1_555 1_555
H5 C4 1_555 1_555
C5 C4 1_555 1_555
H6 C5 1_555 1_555
C6 C5 1_555 1_555
H7 C6 1_555 1_555
C7 C2 1_555 1_555
H8 C7 1_555 1_555
C8 N1 1_555 1_555
H9 C8 1_555 1_555
H10 C8 1_555 1_555
C9 C8 1_555 1_555
H11 C9 1_555 1_555
H12 C9 1_555 1_555
C10 C9 1_555 1_555
H13 C10 1_555 1_555
H14 C10 1_555 1_555
C11 C10 1_555 1_555
H15 C11 1_555 1_555
H16 C11 1_555 1_555
H17 C11 1_555 1_555
C13 O2 1_555 1_555
H18 C13 1_555 1_555
H19 C13 1_555 1_555
C15 C13 1_555 1_555
H20 C15 1_555 1_555
H21 C15 1_555 1_555
H22 C15 1_555 1_555
N1 C1 1_555 1_555
C2 C3 1_555 1_555
C6 C7 1_555 1_555

#END
