
#######################################################################
#
#                 Cambridge Crystallographic Data Centre
#                                CCDC 
#
#######################################################################
#
# If this CIF has been generated from an entry in the Cambridge 
# Structural Database, then it will include bibliographic, chemical, 
# crystal, experimental, refinement or atomic coordinate data resulting 
# from the CCDC's data processing and validation procedures.
#
#######################################################################

data_CIQVAA
_chemical_formula_moiety         'C16 H17 N3 O3,H2 O1'
_chemical_name_systematic        
"N'-(4-(Dimethylamino)benzylidene)-3,5-dihydroxybenzohydrazide monohydrate"
_symmetry_cell_setting           monoclinic
_symmetry_space_group_name_H-M   'I a'
_symmetry_Int_Tables_number      9
_space_group_name_Hall           'I -2ya'
loop_
_symmetry_equiv_pos_site_id
_symmetry_equiv_pos_as_xyz
1 x,y,z
2 1/2+x,-y,z
3 1/2+x,1/2+y,1/2+z
4 x,1/2-y,1/2+z
_cell_length_a                   12.984(3)
_cell_length_b                   4.6620(9)
_cell_length_c                   26.040(5)
_cell_angle_alpha                90
_cell_angle_beta                 101.97(3)
_cell_angle_gamma                90
_cell_volume                     1541.96
_exptl_crystal_colour            yellow
_exptl_crystal_description       block
_cell_formula_units_Z            4
loop_
_atom_site_label
_atom_site_type_symbol
_atom_site_fract_x
_atom_site_fract_y
_atom_site_fract_z
O1 O 0.6358(4) -0.0223(13) 0.40242(18)
H1 H 0.6921 -0.0062 0.3930
O2 O 0.2765(3) 0.1330(12) 0.33837(19)
H2 H 0.2368 0.2521 0.3216
O3 O 0.6269(3) 0.6887(11) 0.25687(17)
N1 N 0.4566(4) 0.8107(13) 0.22950(19)
N2 N 0.4820(4) 1.0035(14) 0.1938(2)
N3 N 0.4263(5) 1.8785(16) -0.0003(3)
C1 C 0.5024(5) 0.4512(15) 0.2978(2)
C2 C 0.3987(5) 0.3982(16) 0.2991(2)
H3 H 0.3443 0.4912 0.2762
C3 C 0.3774(5) 0.1980(16) 0.3363(2)
C4 C 0.4562(5) 0.0604(17) 0.3692(2)
H4 H 0.4407 -0.0742 0.3928
C5 C 0.5586(5) 0.1193(16) 0.3677(2)
C6 C 0.5831(5) 0.3110(15) 0.3310(2)
H5 H 0.6527 0.3437 0.3289
C7 C 0.5327(5) 0.6580(15) 0.2596(2)
C8 C 0.4024(5) 1.1293(16) 0.1662(2)
H6 H 0.3358 1.0916 0.1726
C9 C 0.4132(5) 1.3300(17) 0.1251(3)
C10 C 0.5076(5) 1.3966(18) 0.1117(3)
H7 H 0.5695 1.3154 0.1305
C11 C 0.5117(6) 1.5815(18) 0.0710(3)
H8 H 0.5764 1.6234 0.0627
C12 C 0.4218(6) 1.7053(17) 0.0422(3)
C13 C 0.3264(6) 1.6500(18) 0.0565(3)
H9 H 0.2650 1.7369 0.0384
C14 C 0.3232(6) 1.4649(19) 0.0976(3)
H10 H 0.2591 1.4299 0.1071
C15 C 0.3331(7) 2.014(2) -0.0305(3)
H11 H 0.2807 1.8704 -0.0428
H12 H 0.3505 2.1120 -0.0599
H13 H 0.3061 2.1488 -0.0088
C16 C 0.5271(7) 1.963(2) -0.0118(3)
H14 H 0.5664 2.0699 0.0172
H15 H 0.5154 2.0790 -0.0429
H16 H 0.5659 1.7941 -0.0173
H18 H 0.390(3) 0.78(2) 0.234(4)
O4 O 0.7220(4) 0.1943(13) 0.2180(2)
H17 H 0.674(4) 0.067(10) 0.214(3)
H19 H 0.693(5) 0.359(6) 0.215(4)
loop_
_geom_bond_atom_site_label_1
_geom_bond_atom_site_label_2
_geom_bond_site_symmetry_1
_geom_bond_site_symmetry_2
O1 H1 1_555 1_555
O2 H2 1_555 1_555
O3 C7 1_555 1_555
O4 H17 1_555 1_555
N1 N2 1_555 1_555
N2 C8 1_555 1_555
N3 C12 1_555 1_555
C1 C2 1_555 1_555
C2 H3 1_555 1_555
C3 O2 1_555 1_555
C4 C3 1_555 1_555
H4 C4 1_555 1_555
C5 O1 1_555 1_555
C6 C1 1_555 1_555
H5 C6 1_555 1_555
C7 N1 1_555 1_555
C8 H6 1_555 1_555
C9 C8 1_555 1_555
C10 C9 1_555 1_555
H7 C10 1_555 1_555
C11 C10 1_555 1_555
H8 C11 1_555 1_555
C12 C11 1_555 1_555
C13 C12 1_555 1_555
H9 C13 1_555 1_555
C14 C9 1_555 1_555
H10 C14 1_555 1_555
C15 N3 1_555 1_555
H11 C15 1_555 1_555
H12 C15 1_555 1_555
H13 C15 1_555 1_555
C16 N3 1_555 1_555
H14 C16 1_555 1_555
H15 C16 1_555 1_555
H16 C16 1_555 1_555
H18 N1 1_555 1_555
H19 O4 1_555 1_555
C1 C7 1_555 1_555
C2 C3 1_555 1_555
C4 C5 1_555 1_555
C5 C6 1_555 1_555
C13 C14 1_555 1_555

#END
