
#######################################################################
#
#                 Cambridge Crystallographic Data Centre
#                                CCDC 
#
#######################################################################
#
# If this CIF has been generated from an entry in the Cambridge 
# Structural Database, then it will include bibliographic, chemical, 
# crystal, experimental, refinement or atomic coordinate data resulting 
# from the CCDC's data processing and validation procedures.
#
#######################################################################

data_CIQYOR02
_chemical_formula_moiety         'C14 H10 Br2 N2'
_chemical_name_systematic        bis((2-bromophenyl)methylidene)hydrazine
_symmetry_cell_setting           monoclinic
_symmetry_space_group_name_H-M   'P 21/c'
_symmetry_Int_Tables_number      14
_space_group_name_Hall           '-P 2ybc'
loop_
_symmetry_equiv_pos_site_id
_symmetry_equiv_pos_as_xyz
1 x,y,z
2 -x,1/2+y,1/2-z
3 -x,-y,-z
4 x,1/2-y,1/2+z
_cell_length_a                   6.85620(10)
_cell_length_b                   3.94340(10)
_cell_length_c                   23.4160(4)
_cell_angle_alpha                90
_cell_angle_beta                 90.712(2)
_cell_angle_gamma                90
_cell_volume                     633.043
_exptl_crystal_colour            yellow
_exptl_crystal_description       plate
_cell_formula_units_Z            2
loop_
_atom_site_label
_atom_site_type_symbol
_atom_site_fract_x
_atom_site_fract_y
_atom_site_fract_z
Br1 Br 0.86459(4) 0.67465(7) 0.30260(2)
N1 N 0.9113(4) 0.4360(8) 0.48939(12)
C1 C 0.7020(4) 0.4170(8) 0.40741(12)
C2 C 0.6694(4) 0.4746(7) 0.34914(12)
C3 C 0.4948(4) 0.3826(8) 0.32242(13)
H1 H 0.4751 0.4265 0.2829
C4 C 0.3511(5) 0.2279(9) 0.35350(15)
H2 H 0.2324 0.1629 0.3352
C5 C 0.3782(5) 0.1654(7) 0.41189(17)
H3 H 0.2788 0.0597 0.4335
C6 C 0.5525(4) 0.2606(9) 0.43753(14)
H4 H 0.5712 0.2179 0.4772
C7 C 0.8821(4) 0.5206(7) 0.43724(13)
H5 H 0.9770 0.6508 0.4178
Br1B Br 1.13541(4) 0.32535(7) 0.69740(2)
N1B N 1.0887(4) 0.5640(8) 0.51061(12)
C1B C 1.2980(4) 0.5830(8) 0.59259(12)
C2B C 1.3306(4) 0.5254(7) 0.65086(12)
C3B C 1.5052(4) 0.6174(8) 0.67758(13)
H1B H 1.5249 0.5735 0.7171
C4B C 1.6489(5) 0.7721(9) 0.64650(15)
H2B H 1.7676 0.8371 0.6648
C5B C 1.6218(5) 0.8346(7) 0.58811(17)
H3B H 1.7212 0.9403 0.5665
C6B C 1.4475(4) 0.7394(9) 0.56247(14)
H4B H 1.4288 0.7821 0.5228
C7B C 1.1179(4) 0.4794(7) 0.56276(13)
H5B H 1.0230 0.3492 0.5822
loop_
_geom_bond_atom_site_label_1
_geom_bond_atom_site_label_2
_geom_bond_site_symmetry_1
_geom_bond_site_symmetry_2
Br1 C2 1_555 1_555
N1 C7 1_555 1_555
C1 C2 1_555 1_555
C2 C3 1_555 1_555
C3 H1 1_555 1_555
C4 C3 1_555 1_555
H2 C4 1_555 1_555
C5 C4 1_555 1_555
H3 C5 1_555 1_555
C6 C1 1_555 1_555
H4 C6 1_555 1_555
C7 C1 1_555 1_555
H5 C7 1_555 1_555
Br1B C2B 1_555 1_555
N1B N1 1_555 1_555
C1B C2B 1_555 1_555
C2B C3B 1_555 1_555
C3B H1B 1_555 1_555
C4B C3B 1_555 1_555
H2B C4B 1_555 1_555
C5B C4B 1_555 1_555
H3B C5B 1_555 1_555
C6B C1B 1_555 1_555
H4B C6B 1_555 1_555
C7B N1B 1_555 1_555
H5B C7B 1_555 1_555
C5 C6 1_555 1_555
C1B C7B 1_555 1_555
C5B C6B 1_555 1_555

#END
