
#######################################################################
#
#                 Cambridge Crystallographic Data Centre
#                                CCDC 
#
#######################################################################
#
# If this CIF has been generated from an entry in the Cambridge 
# Structural Database, then it will include bibliographic, chemical, 
# crystal, experimental, refinement or atomic coordinate data resulting 
# from the CCDC's data processing and validation procedures.
#
#######################################################################

data_CIRCUE
_chemical_formula_moiety         'C15 H17 N1 O3 S1'
_chemical_name_systematic        
7-[(4-methylphenyl)sulfonyl]-7-azabicyclo[4.2.1]non-4-en-8-one
_symmetry_cell_setting           triclinic
_symmetry_space_group_name_H-M   'P -1'
_symmetry_Int_Tables_number      2
_space_group_name_Hall           '-P 1'
loop_
_symmetry_equiv_pos_site_id
_symmetry_equiv_pos_as_xyz
1 x,y,z
2 -x,-y,-z
_cell_length_a                   6.0023(2)
_cell_length_b                   7.6955(3)
_cell_length_c                   16.2983(6)
_cell_angle_alpha                90.1210(10)
_cell_angle_beta                 97.0250(10)
_cell_angle_gamma                107.0490(10)
_cell_volume                     713.771
_exptl_crystal_colour            colorless
_exptl_crystal_description       prismatic
_cell_formula_units_Z            2
loop_
_atom_site_label
_atom_site_type_symbol
_atom_site_fract_x
_atom_site_fract_y
_atom_site_fract_z
S1 S 0.65504(8) 0.61475(5) 0.22836(3)
N1 N 0.6507(2) 0.40073(18) 0.21479(8)
O1 O 0.3571(3) 0.26299(19) 0.29295(9)
O2 O 0.4189(2) 0.62089(19) 0.22206(9)
O3 O 0.8090(3) 0.71445(18) 0.17359(8)
C1 C 0.4913(3) 0.2528(2) 0.24531(11)
C2 C 0.5208(3) 0.0855(2) 0.20527(13)
H1 H 0.5022 -0.0124 0.2446
C3 C 0.3385(4) 0.0247(3) 0.12898(16)
H2 H 0.3807 -0.0656 0.0977
H3 H 0.1878 -0.0347 0.1474
C4 C 0.3079(4) 0.1724(4) 0.07108(17)
H4 H 0.1849 0.1158 0.0265
H5 H 0.2514 0.2561 0.1014
C5 C 0.5157(5) 0.2817(4) 0.03305(13)
H6 H 0.4925 0.2967 -0.0236
C6 C 0.7282(5) 0.3591(3) 0.07115(14)
H7 H 0.8395 0.4279 0.0398
C7 C 0.8049(3) 0.3449(2) 0.16138(12)
H8 H 0.9689 0.4179 0.1763
C8 C 0.7715(3) 0.1486(3) 0.18637(13)
H9 H 0.7942 0.0751 0.1415
H10 H 0.8805 0.1431 0.2347
C9 C 0.7885(3) 0.6736(2) 0.33054(11)
C10 C 0.6532(3) 0.6453(3) 0.39477(12)
H11 H 0.4907 0.5973 0.3840
C11 C 0.7607(4) 0.6887(3) 0.47484(12)
H12 H 0.6691 0.6700 0.5179
C12 C 1.0021(4) 0.7594(3) 0.49254(12)
C13 C 1.1328(4) 0.7877(3) 0.42727(14)
H13 H 1.2952 0.8367 0.4380
C14 C 1.0292(3) 0.7454(3) 0.34620(13)
H14 H 1.1206 0.7650 0.3030
C15 C 1.1170(5) 0.8016(4) 0.58046(14)
H15 H 1.2736 0.8818 0.5811
H16 H 1.1233 0.6909 0.6063
H17 H 1.0275 0.8592 0.6102
loop_
_geom_bond_atom_site_label_1
_geom_bond_atom_site_label_2
_geom_bond_site_symmetry_1
_geom_bond_site_symmetry_2
S1 N1 1_555 1_555
N1 C1 1_555 1_555
O1 C1 1_555 1_555
O2 S1 1_555 1_555
O3 S1 1_555 1_555
C1 C2 1_555 1_555
C2 H1 1_555 1_555
C3 C2 1_555 1_555
H2 C3 1_555 1_555
H3 C3 1_555 1_555
C4 C3 1_555 1_555
H4 C4 1_555 1_555
H5 C4 1_555 1_555
C5 C4 1_555 1_555
H6 C5 1_555 1_555
C6 C5 1_555 1_555
H7 C6 1_555 1_555
C7 N1 1_555 1_555
H8 C7 1_555 1_555
C8 C2 1_555 1_555
H9 C8 1_555 1_555
H10 C8 1_555 1_555
C9 S1 1_555 1_555
C10 C9 1_555 1_555
H11 C10 1_555 1_555
C11 C10 1_555 1_555
H12 C11 1_555 1_555
C12 C11 1_555 1_555
C13 C12 1_555 1_555
H13 C13 1_555 1_555
C14 C9 1_555 1_555
H14 C14 1_555 1_555
C15 C12 1_555 1_555
H15 C15 1_555 1_555
H16 C15 1_555 1_555
H17 C15 1_555 1_555
C6 C7 1_555 1_555
C7 C8 1_555 1_555
C13 C14 1_555 1_555

#END
