
#######################################################################
#
#                 Cambridge Crystallographic Data Centre
#                                CCDC 
#
#######################################################################
#
# If this CIF has been generated from an entry in the Cambridge 
# Structural Database, then it will include bibliographic, chemical, 
# crystal, experimental, refinement or atomic coordinate data resulting 
# from the CCDC's data processing and validation procedures.
#
#######################################################################

data_CIRDIT
_chemical_formula_moiety         'C28 H22 N2,2(C1 H4 O1)'
_chemical_name_systematic        
'heptacyclo[8.6.6.6^2,9^.0^3,8^.0^11,16^.0^17,22^.0^23,28^]octacosa-3,5,7,11,13,15,17,19,21,23,25,27-dodecaene-1,9-diamine methanol solvate'
_symmetry_cell_setting           triclinic
_symmetry_space_group_name_H-M   'P -1'
_symmetry_Int_Tables_number      2
_space_group_name_Hall           '-P 1'
loop_
_symmetry_equiv_pos_site_id
_symmetry_equiv_pos_as_xyz
1 x,y,z
2 -x,-y,-z
_cell_length_a                   9.6912(10)
_cell_length_b                   10.8954(12)
_cell_length_c                   11.5256(12)
_cell_angle_alpha                77.0895(14)
_cell_angle_beta                 86.1830(14)
_cell_angle_gamma                78.0450(15)
_cell_volume                     1160.23
_exptl_crystal_colour            colorless
_exptl_crystal_description       block
_cell_formula_units_Z            2
loop_
_atom_site_label
_atom_site_type_symbol
_atom_site_fract_x
_atom_site_fract_y
_atom_site_fract_z
N1 N 0.53915(17) 0.24606(15) -0.30557(13)
H1 H 0.495(2) 0.192(2) -0.3320(19)
H2 H 0.632(2) 0.2168(19) -0.3073(17)
C1 C 0.51229(17) 0.37381(15) -0.38428(14)
C2 C 0.58765(16) 0.46378(16) -0.33963(14)
C3 C 0.69063(17) 0.42213(17) -0.25344(14)
H3 H 0.720(2) 0.330(2) -0.2153(17)
C4 C 0.75465(18) 0.51043(18) -0.21756(15)
H4 H 0.828(2) 0.476(2) -0.1540(19)
C5 C 0.71607(18) 0.64036(18) -0.26739(15)
H5 H 0.764(2) 0.704(2) -0.2449(17)
C6 C 0.61210(18) 0.68292(17) -0.35310(15)
H6 H 0.580(2) 0.775(2) -0.3876(18)
C7 C 0.54796(17) 0.59503(16) -0.38963(14)
C8 C 0.43239(17) 0.63678(15) -0.48080(14)
H7 H 0.3936(17) 0.7302(17) -0.4878(14)
C9 C 0.31634(17) 0.56301(16) -0.43526(13)
C10 C 0.17425(17) 0.62260(17) -0.44006(14)
H8 H 0.1480(19) 0.7165(19) -0.4776(16)
C11 C 0.07060(18) 0.55322(19) -0.39387(15)
H9 H -0.029(2) 0.593(2) -0.3983(17)
C12 C 0.10891(19) 0.42339(19) -0.34201(16)
H10 H 0.034(2) 0.372(2) -0.3071(19)
C13 C 0.25101(18) 0.36286(18) -0.33725(15)
H11 H 0.278(2) 0.270(2) -0.2999(17)
C14 C 0.35480(17) 0.43219(16) -0.38424(13)
N1A N 0.46085(17) 0.75394(15) -0.69443(13)
H1A H 0.505(2) 0.808(2) -0.6680(19)
H2A H 0.368(2) 0.7832(19) -0.6927(17)
C1A C 0.48771(17) 0.62619(15) -0.61572(14)
C2A C 0.41235(16) 0.53622(16) -0.66037(14)
C3A C 0.30937(17) 0.57787(17) -0.74656(14)
H3A H 0.280(2) 0.670(2) -0.7847(17)
C4A C 0.24535(18) 0.48957(18) -0.78244(15)
H4A H 0.172(2) 0.524(2) -0.8460(19)
C5A C 0.28393(18) 0.35964(18) -0.73261(15)
H5A H 0.236(2) 0.296(2) -0.7551(17)
C6A C 0.38790(18) 0.31708(17) -0.64690(15)
H6A H 0.420(2) 0.225(2) -0.6124(18)
C7A C 0.45204(17) 0.40497(16) -0.61037(14)
C8A C 0.56761(17) 0.36322(15) -0.51920(14)
H7A H 0.6064(17) 0.2698(17) -0.5122(14)
C9A C 0.68366(17) 0.43699(16) -0.56474(13)
C10A C 0.82575(17) 0.37740(17) -0.55994(14)
H8A H 0.8520(19) 0.2835(19) -0.5224(16)
C11A C 0.92940(18) 0.44678(19) -0.60613(15)
H9A H 1.029(2) 0.407(2) -0.6017(17)
C12A C 0.89109(19) 0.57661(19) -0.65799(16)
H10A H 0.966(2) 0.628(2) -0.6929(19)
C13A C 0.74899(18) 0.63714(18) -0.66275(15)
H11A H 0.722(2) 0.730(2) -0.7001(17)
C14A C 0.64520(17) 0.56781(16) -0.61576(13)
N2 N 0.68809(15) -0.00396(16) 0.08154(13)
H12 H 0.669(2) -0.076(2) 0.068(2)
H13 H 0.618(2) 0.061(2) 0.0420(18)
C15 C 0.82656(17) 0.01486(15) 0.02890(14)
C16 C 0.85655(17) 0.14087(15) 0.04807(14)
C17 C 0.77529(18) 0.21253(16) 0.12361(14)
H14 H 0.689(2) 0.1854(18) 0.1643(17)
C18 C 0.8138(2) 0.32252(17) 0.14314(15)
H15 H 0.758(2) 0.3690(19) 0.1999(18)
C19 C 0.9334(2) 0.36137(17) 0.08732(16)
H16 H 0.961(2) 0.438(2) 0.1039(17)
C20 C 1.01250(18) 0.29305(16) 0.00842(15)
H17 H 1.101(2) 0.3200(19) -0.0304(17)
C21 C 0.97428(17) 0.18341(15) -0.01175(14)
C22 C 1.05759(17) 0.10593(16) -0.09623(14)
H18 H 1.1140(19) 0.1630(18) -0.1555(17)
C23 C 0.95429(16) 0.06625(15) -0.16646(14)
C24 C 0.97133(18) 0.07254(17) -0.28838(15)
H19 H 1.051(2) 0.1102(19) -0.3317(17)
C25 C 0.87903(19) 0.02727(17) -0.34854(15)
H20 H 0.893(2) 0.0314(19) -0.4341(18)
C26 C 0.76855(18) -0.02245(17) -0.28719(15)
H21 H 0.705(2) -0.0542(19) -0.3321(17)
C27 C 0.74692(18) -0.02504(16) -0.16548(15)
H22 H 0.666(2) -0.0576(18) -0.1224(16)
C28 C 0.83984(16) 0.01948(15) -0.10518(14)
N2A N 1.31191(15) 0.00396(16) -0.08154(13)
H12A H 1.331(2) 0.076(2) -0.068(2)
H13A H 1.382(2) -0.061(2) -0.0420(18)
C15A C 1.17344(17) -0.01486(15) -0.02890(14)
C16A C 1.14345(17) -0.14087(15) -0.04807(14)
C17A C 1.22471(18) -0.21253(16) -0.12361(14)
H14A H 1.311(2) -0.1854(18) -0.1643(17)
C18A C 1.1862(2) -0.32252(17) -0.14314(15)
H15A H 1.242(2) -0.3690(19) -0.1999(18)
C19A C 1.0666(2) -0.36137(17) -0.08732(16)
H16A H 1.039(2) -0.438(2) -0.1039(17)
C20A C 0.98750(18) -0.29305(16) -0.00842(15)
H17A H 0.899(2) -0.3200(19) 0.0304(17)
C21A C 1.02572(17) -0.18341(15) 0.01175(14)
C22A C 0.94241(17) -0.10593(16) 0.09623(14)
H18A H 0.8860(19) -0.1630(18) 0.1555(17)
C23A C 1.04571(16) -0.06625(15) 0.16646(14)
C24A C 1.02867(18) -0.07254(17) 0.28838(15)
H19A H 0.949(2) -0.1102(19) 0.3317(17)
C25A C 1.12097(19) -0.02727(17) 0.34854(15)
H20A H 1.107(2) -0.0314(19) 0.4341(18)
C26A C 1.23145(18) 0.02245(17) 0.28719(15)
H21A H 1.295(2) 0.0542(19) 0.3321(17)
C27A C 1.25308(18) 0.02504(16) 0.16548(15)
H22A H 1.334(2) 0.0576(18) 0.1224(16)
C28A C 1.16016(16) -0.01948(15) 0.10518(14)
O1 O 0.46317(13) 0.21422(12) -0.06144(11)
H23 H 0.493(3) 0.228(3) -0.143(2)
C29 C 0.4265(3) 0.3359(2) -0.0291(2)
H24 H 0.353(3) 0.398(3) -0.087(3)
H25 H 0.508(3) 0.374(3) -0.029(3)
H26 H 0.380(4) 0.325(4) 0.046(4)
O2 O 0.58621(14) -0.01857(13) 0.32186(11)
H27 H 0.636(3) -0.012(3) 0.247(3)
C30 C 0.6734(2) -0.0014(2) 0.40820(17)
H28 H 0.737(2) -0.084(2) 0.4443(18)
H29 H 0.738(2) 0.062(2) 0.3754(19)
H30 H 0.612(2) 0.0286(19) 0.4742(18)
loop_
_geom_bond_atom_site_label_1
_geom_bond_atom_site_label_2
_geom_bond_site_symmetry_1
_geom_bond_site_symmetry_2
N1 H1 1_555 1_555
H2 N1 1_555 1_555
C1 N1 1_555 1_555
C2 C1 1_555 1_555
C3 C2 1_555 1_555
H3 C3 1_555 1_555
C4 C3 1_555 1_555
H4 C4 1_555 1_555
C5 C4 1_555 1_555
H5 C5 1_555 1_555
C6 C5 1_555 1_555
H6 C6 1_555 1_555
C7 C2 1_555 1_555
C8 C7 1_555 1_555
H7 C8 1_555 1_555
C9 C8 1_555 1_555
C10 C9 1_555 1_555
H8 C10 1_555 1_555
C11 C10 1_555 1_555
H9 C11 1_555 1_555
C12 C11 1_555 1_555
H10 C12 1_555 1_555
C13 C12 1_555 1_555
H11 C13 1_555 1_555
C14 C1 1_555 1_555
N2 H12 1_555 1_555
H13 N2 1_555 1_555
C15 N2 1_555 1_555
C16 C15 1_555 1_555
C17 C16 1_555 1_555
H14 C17 1_555 1_555
C18 C17 1_555 1_555
H15 C18 1_555 1_555
C19 C18 1_555 1_555
H16 C19 1_555 1_555
C20 C19 1_555 1_555
H17 C20 1_555 1_555
C21 C16 1_555 1_555
C22 C21 1_555 1_555
H18 C22 1_555 1_555
C23 C22 1_555 1_555
C24 C23 1_555 1_555
H19 C24 1_555 1_555
C25 C24 1_555 1_555
H20 C25 1_555 1_555
C26 C25 1_555 1_555
H21 C26 1_555 1_555
C27 C26 1_555 1_555
H22 C27 1_555 1_555
C28 C15 1_555 1_555
O1 H23 1_555 1_555
C29 O1 1_555 1_555
H24 C29 1_555 1_555
H25 C29 1_555 1_555
H26 C29 1_555 1_555
O2 H27 1_555 1_555
C30 O2 1_555 1_555
H28 C30 1_555 1_555
H29 C30 1_555 1_555
H30 C30 1_555 1_555
N1A H1A 1_555 1_555
H2A N1A 1_555 1_555
C1A C8 1_555 1_555
C2A C1A 1_555 1_555
C3A C2A 1_555 1_555
H3A C3A 1_555 1_555
C4A C3A 1_555 1_555
H4A C4A 1_555 1_555
C5A C4A 1_555 1_555
H5A C5A 1_555 1_555
C6A C5A 1_555 1_555
H6A C6A 1_555 1_555
C7A C2A 1_555 1_555
C8A C1 1_555 1_555
H7A C8A 1_555 1_555
C9A C8A 1_555 1_555
C10A C9A 1_555 1_555
H8A C10A 1_555 1_555
C11A C10A 1_555 1_555
H9A C11A 1_555 1_555
C12A C11A 1_555 1_555
H10A C12A 1_555 1_555
C13A C12A 1_555 1_555
H11A C13A 1_555 1_555
C14A C1A 1_555 1_555
N2A H12A 1_555 1_555
H13A N2A 1_555 1_555
C15A C22 1_555 1_555
C16A C15A 1_555 1_555
C17A C16A 1_555 1_555
H14A C17A 1_555 1_555
C18A C17A 1_555 1_555
H15A C18A 1_555 1_555
C19A C18A 1_555 1_555
H16A C19A 1_555 1_555
C20A C19A 1_555 1_555
H17A C20A 1_555 1_555
C21A C16A 1_555 1_555
C22A C15 1_555 1_555
H18A C22A 1_555 1_555
C23A C22A 1_555 1_555
C24A C23A 1_555 1_555
H19A C24A 1_555 1_555
C25A C24A 1_555 1_555
H20A C25A 1_555 1_555
C26A C25A 1_555 1_555
H21A C26A 1_555 1_555
C27A C26A 1_555 1_555
H22A C27A 1_555 1_555
C28A C15A 1_555 1_555
C6 C7 1_555 1_555
C9 C14 1_555 1_555
C13 C14 1_555 1_555
C20 C21 1_555 1_555
C23 C28 1_555 1_555
C27 C28 1_555 1_555
N1A C1A 1_555 1_555
C6A C7A 1_555 1_555
C7A C8A 1_555 1_555
C9A C14A 1_555 1_555
C13A C14A 1_555 1_555
N2A C15A 1_555 1_555
C20A C21A 1_555 1_555
C21A C22A 1_555 1_555
C23A C28A 1_555 1_555
C27A C28A 1_555 1_555

#END
