
#######################################################################
#
#                 Cambridge Crystallographic Data Centre
#                                CCDC 
#
#######################################################################
#
# If this CIF has been generated from an entry in the Cambridge 
# Structural Database, then it will include bibliographic, chemical, 
# crystal, experimental, refinement or atomic coordinate data resulting 
# from the CCDC's data processing and validation procedures.
#
#######################################################################

data_CIRLIA
_chemical_formula_moiety         'C25 H19 Cl1 N4 O2 S1,C4 H8 O1'
_chemical_name_systematic        
'N-(6-Amino-1-(3-chlorophenyl)-5-cyano-3-phenylpyridin-2(1H)-ylidene)-4-methylbenzenesulfonamide tetrahydrofuran solvate'
_symmetry_cell_setting           monoclinic
_symmetry_space_group_name_H-M   'P 21/c'
_symmetry_Int_Tables_number      14
_space_group_name_Hall           '-P 2ybc'
loop_
_symmetry_equiv_pos_site_id
_symmetry_equiv_pos_as_xyz
1 x,y,z
2 -x,1/2+y,1/2-z
3 -x,-y,-z
4 x,1/2-y,1/2+z
_cell_length_a                   11.8463(10)
_cell_length_b                   13.1890(11)
_cell_length_c                   17.3532(14)
_cell_angle_alpha                90
_cell_angle_beta                 91.800(2)
_cell_angle_gamma                90
_cell_volume                     2709.94
_cell_formula_units_Z            4
loop_
_atom_site_label
_atom_site_type_symbol
_atom_site_fract_x
_atom_site_fract_y
_atom_site_fract_z
S1 S 0.58111(10) 0.18644(8) 1.09370(6)
Cl1 Cl 0.91216(14) 0.29022(18) 0.80104(11)
O1 O 0.4745(3) 0.1366(3) 1.10644(18)
N1 N 0.5058(3) 0.2618(3) 0.8917(2)
N2 N 0.5832(3) 0.2404(3) 1.0120(2)
O2 O 0.6236(3) 0.2517(3) 1.15502(19)
N3 N 0.4472(4) 0.2770(3) 0.7632(2)
H1 H 0.5134 0.2580 0.7502
H2 H 0.3965 0.2911 0.7282
C1 C 0.4233(4) 0.2847(4) 0.8370(3)
C2 C 0.4942(4) 0.2727(3) 0.9712(3)
C3 C 0.3193(4) 0.3175(4) 0.8628(3)
C4 C 0.3079(4) 0.3352(4) 0.9412(3)
H3 H 0.2391 0.3598 0.9576
C5 C 0.3922(4) 0.3186(4) 0.9959(3)
C6 C 0.6646(4) 0.0124(4) 1.0314(3)
H4 H 0.5957 0.0082 1.0043
C7 C 0.6853(4) 0.0920(3) 1.0827(3)
C8 C 0.3788(4) 0.3581(4) 1.0751(3)
C9 C 0.7868(4) 0.0968(4) 1.1237(3)
H5 H 0.8009 0.1495 1.1583
C10 C 0.2791(5) 0.3411(5) 1.1139(3)
H6 H 0.2250 0.2974 1.0925
C11 C 0.7469(5) -0.0606(4) 1.0208(3)
H7 H 0.7332 -0.1136 0.9864
C12 C 0.6089(4) 0.2134(4) 0.8647(3)
C13 C 0.4612(5) 0.4220(4) 1.1087(3)
H8 H 0.5285 0.4338 1.0840
C14 C 0.6997(4) 0.2708(5) 0.8494(3)
H9 H 0.6999 0.3406 0.8567
C15 C 0.8665(5) 0.0234(5) 1.1131(3)
H10 H 0.9341 0.0263 1.1417
N4 N 0.1659(4) 0.3560(5) 0.7589(3)
C16 C 0.7961(5) 0.2179(6) 0.8209(3)
C17 C 0.2315(5) 0.3395(5) 0.8071(3)
C18 C 0.6064(5) 0.1081(5) 0.8541(3)
H11 H 0.5419 0.0711 0.8646
C19 C 0.3408(7) 0.4518(5) 1.2153(4)
H12 H 0.3275 0.4845 1.2616
C20 C 0.4416(7) 0.4678(4) 1.1792(4)
H13 H 0.4965 0.5093 1.2022
C21 C 0.8495(5) -0.0550(4) 1.0613(4)
C22 C 0.7018(7) 0.0603(6) 0.8275(4)
H14 H 0.7031 -0.0096 0.8206
C23 C 0.2591(6) 0.3876(6) 1.1833(4)
H15 H 0.1919 0.3762 1.2083
C24 C 0.9399(6) -0.1349(6) 1.0474(5)
H16 H 1.0133 -0.1046 1.0536
H17 H 0.9304 -0.1612 0.9960
H18 H 0.9328 -0.1890 1.0839
C25 C 0.7918(6) 0.1167(5) 0.8122(4)
H19 H 0.8555 0.0840 0.7945
O3 O 0.8756(4) 0.5013(4) 0.0614(3)
C26 C 0.9585(6) 0.4536(6) 0.1102(4)
H20 H 0.9466 0.4702 0.1638
H21 H 1.0338 0.4753 0.0970
C27 C 0.8133(7) 0.4275(6) 0.0197(6)
H22 H 0.8023 0.4485 -0.0336
H23 H 0.7398 0.4185 0.0419
C28 C 0.8773(6) 0.3326(5) 0.0240(5)
H24 H 0.9257 0.3255 -0.0197
H25 H 0.8273 0.2745 0.0259
C29 C 0.9445(9) 0.3436(6) 0.0968(6)
H26 H 0.9055 0.3126 0.1391
H27 H 1.0176 0.3112 0.0925
loop_
_geom_bond_atom_site_label_1
_geom_bond_atom_site_label_2
_geom_bond_site_symmetry_1
_geom_bond_site_symmetry_2
S1 O1 1_555 1_555
Cl1 C16 1_555 1_555
N1 C1 1_555 1_555
N2 S1 1_555 1_555
O2 S1 1_555 1_555
N3 H1 1_555 1_555
H2 N3 1_555 1_555
C1 N3 1_555 1_555
C2 N1 1_555 1_555
C3 C1 1_555 1_555
C4 C3 1_555 1_555
H3 C4 1_555 1_555
C5 C2 1_555 1_555
C6 H4 1_555 1_555
C7 S1 1_555 1_555
C8 C5 1_555 1_555
C9 C7 1_555 1_555
H5 C9 1_555 1_555
C10 C8 1_555 1_555
H6 C10 1_555 1_555
C11 C6 1_555 1_555
H7 C11 1_555 1_555
C12 N1 1_555 1_555
C13 C8 1_555 1_555
H8 C13 1_555 1_555
C14 C12 1_555 1_555
H9 C14 1_555 1_555
C15 C9 1_555 1_555
H10 C15 1_555 1_555
N4 C17 1_555 1_555
C16 C14 1_555 1_555
C17 C3 1_555 1_555
C18 C12 1_555 1_555
H11 C18 1_555 1_555
C19 H12 1_555 1_555
C20 C13 1_555 1_555
H13 C20 1_555 1_555
C21 C11 1_555 1_555
C22 C18 1_555 1_555
H14 C22 1_555 1_555
C23 C10 1_555 1_555
H15 C23 1_555 1_555
C24 C21 1_555 1_555
H16 C24 1_555 1_555
H17 C24 1_555 1_555
H18 C24 1_555 1_555
C25 C16 1_555 1_555
H19 C25 1_555 1_555
O3 C26 1_555 1_555
C26 H20 1_555 1_555
H21 C26 1_555 1_555
C27 O3 1_555 1_555
H22 C27 1_555 1_555
H23 C27 1_555 1_555
C28 C27 1_555 1_555
H24 C28 1_555 1_555
H25 C28 1_555 1_555
C29 C26 1_555 1_555
H26 C29 1_555 1_555
H27 C29 1_555 1_555
N2 C2 1_555 1_555
C4 C5 1_555 1_555
C6 C7 1_555 1_555
C15 C21 1_555 1_555
C19 C20 1_555 1_555
C19 C23 1_555 1_555
C22 C25 1_555 1_555
C28 C29 1_555 1_555

#END
