
#######################################################################
#
#                 Cambridge Crystallographic Data Centre
#                                CCDC 
#
#######################################################################
#
# If this CIF has been generated from an entry in the Cambridge 
# Structural Database, then it will include bibliographic, chemical, 
# crystal, experimental, refinement or atomic coordinate data resulting 
# from the CCDC's data processing and validation procedures.
#
#######################################################################

data_CIRMAT
_chemical_formula_moiety         'C11 H12 N1 O1 1+,C6 H4 N1 O5 S1 1-,0.5(H2 O1)'
_chemical_name_systematic        
'3-Methoxy-2-methylisoquinolinium 4-nitrobenzenesulfonate hemihydrate'
_symmetry_cell_setting           monoclinic
_symmetry_space_group_name_H-M   'P 21/n'
_symmetry_Int_Tables_number      14
_space_group_name_Hall           '-P 2yn'
loop_
_symmetry_equiv_pos_site_id
_symmetry_equiv_pos_as_xyz
1 x,y,z
2 1/2-x,1/2+y,1/2-z
3 -x,-y,-z
4 1/2+x,1/2-y,1/2+z
_cell_length_a                   9.9318(7)
_cell_length_b                   12.1574(9)
_cell_length_c                   15.0926(10)
_cell_angle_alpha                90
_cell_angle_beta                 104.533(7)
_cell_angle_gamma                90
_cell_volume                     1764.04
_exptl_crystal_colour            colorless
_exptl_crystal_description       block
_cell_formula_units_Z            4
loop_
_atom_site_label
_atom_site_type_symbol
_atom_site_fract_x
_atom_site_fract_y
_atom_site_fract_z
S1 S 0.29764(9) 0.67728(7) 0.08251(6)
O1 O 0.8425(3) 0.3453(3) 0.2158(2)
O2 O 0.6810(3) 0.2242(2) 0.1768(2)
O3 O 0.2622(5) 0.7012(4) 0.1640(2)
O4 O 0.3669(4) 0.7694(3) 0.0528(4)
O5 O 0.1902(4) 0.6396(3) 0.0091(3)
N1 N 0.7208(4) 0.3192(3) 0.1847(2)
C1 C 0.6171(3) 0.4072(3) 0.1573(2)
C2 C 0.4862(4) 0.3808(3) 0.1061(3)
H1 H 0.4635 0.3084 0.0884
C3 C 0.3895(4) 0.4633(3) 0.0815(3)
H2 H 0.3009 0.4472 0.0457
C4 C 0.4234(3) 0.5697(2) 0.1097(2)
C5 C 0.5557(3) 0.5950(3) 0.1616(2)
H3 H 0.5778 0.6670 0.1808
C6 C 0.6549(3) 0.5132(3) 0.1848(2)
H4 H 0.7449 0.5293 0.2181
O6 O 0.1975(3) 0.6081(2) 0.3412(2)
N2 N 0.4232(3) 0.6509(2) 0.37960(19)
C7 C 0.6071(4) 0.5205(3) 0.4042(2)
C8 C 0.7515(4) 0.4970(3) 0.4296(3)
H5 H 0.8154 0.5538 0.4469
C9 C 0.7962(5) 0.3923(4) 0.4287(3)
H6 H 0.8909 0.3766 0.4455
C10 C 0.6977(5) 0.3060(3) 0.4019(3)
H7 H 0.7295 0.2341 0.4017
C11 C 0.5592(5) 0.3252(3) 0.3768(3)
H8 H 0.4972 0.2672 0.3591
C12 C 0.5090(4) 0.4348(3) 0.3774(2)
C13 C 0.3670(4) 0.4613(3) 0.3538(2)
H9 H 0.3009 0.4061 0.3363
C14 C 0.3254(4) 0.5686(3) 0.3565(2)
C15 C 0.3777(5) 0.7678(4) 0.3776(3)
H10 H 0.4578 0.8150 0.3901
H11 H 0.3269 0.7791 0.4233
H12 H 0.3190 0.7847 0.3183
C16 C 0.0870(5) 0.5301(5) 0.3096(4)
H13 H 0.0861 0.4783 0.3574
H14 H 0.1016 0.4918 0.2571
H15 H -0.0004 0.5682 0.2930
C17 C 0.5584(4) 0.6272(3) 0.4035(2)
H16 H 0.6222 0.6842 0.4201
O7 O 0.0656(6) 0.4424(4) -0.0829(4)
H17 H -0.0101 0.4306 -0.0679
H18 H 0.0941 0.5071 -0.0670
loop_
_geom_bond_atom_site_label_1
_geom_bond_atom_site_label_2
_geom_bond_site_symmetry_1
_geom_bond_site_symmetry_2
S1 O3 1_555 1_555
O1 N1 1_555 1_555
O2 N1 1_555 1_555
O4 S1 1_555 1_555
O5 S1 1_555 1_555
N1 C1 1_555 1_555
C1 C2 1_555 1_555
C2 H1 1_555 1_555
C3 C2 1_555 1_555
H2 C3 1_555 1_555
C4 S1 1_555 1_555
C5 C4 1_555 1_555
H3 C5 1_555 1_555
C6 C1 1_555 1_555
H4 C6 1_555 1_555
O6 C14 1_555 1_555
N2 C14 1_555 1_555
C7 C8 1_555 1_555
C8 H5 1_555 1_555
C9 C8 1_555 1_555
H6 C9 1_555 1_555
C10 C9 1_555 1_555
H7 C10 1_555 1_555
C11 C10 1_555 1_555
H8 C11 1_555 1_555
C12 C7 1_555 1_555
C13 C12 1_555 1_555
H9 C13 1_555 1_555
C14 C13 1_555 1_555
C15 N2 1_555 1_555
H10 C15 1_555 1_555
H11 C15 1_555 1_555
H12 C15 1_555 1_555
C16 O6 1_555 1_555
H13 C16 1_555 1_555
H14 C16 1_555 1_555
H15 C16 1_555 1_555
C17 N2 1_555 1_555
H16 C17 1_555 1_555
O7 H17 1_555 1_555
H18 O7 1_555 1_555
C3 C4 1_555 1_555
C5 C6 1_555 1_555
C7 C17 1_555 1_555
C11 C12 1_555 1_555

#END
