
#######################################################################
#
#                 Cambridge Crystallographic Data Centre
#                                CCDC 
#
#######################################################################
#
# If this CIF has been generated from an entry in the Cambridge 
# Structural Database, then it will include bibliographic, chemical, 
# crystal, experimental, refinement or atomic coordinate data resulting 
# from the CCDC's data processing and validation procedures.
#
#######################################################################

data_CIRMEX
_chemical_formula_moiety         'C17 H15 Cl2 N1 O4 S1'
_chemical_name_systematic        
6-Chloro-2-((4-chlorophenyl)sulfonyl)-1,3-dimethoxy-1,2-dihydroisoquinoline
_symmetry_cell_setting           monoclinic
_symmetry_space_group_name_H-M   'P 21/c'
_symmetry_Int_Tables_number      14
_space_group_name_Hall           '-P 2ybc'
loop_
_symmetry_equiv_pos_site_id
_symmetry_equiv_pos_as_xyz
1 x,y,z
2 -x,1/2+y,1/2-z
3 -x,-y,-z
4 x,1/2-y,1/2+z
_cell_length_a                   11.6058(10)
_cell_length_b                   7.0455(5)
_cell_length_c                   21.6906(16)
_cell_angle_alpha                90
_cell_angle_beta                 95.904(7)
_cell_angle_gamma                90
_cell_volume                     1764.2
_exptl_crystal_colour            colorless
_exptl_crystal_description       block
_cell_formula_units_Z            4
loop_
_atom_site_label
_atom_site_type_symbol
_atom_site_fract_x
_atom_site_fract_y
_atom_site_fract_z
Cl1 Cl 0.41728(8) 0.59392(13) 0.09272(4)
Cl2 Cl 1.41612(6) -0.20537(12) 0.26769(3)
S1 S 0.82910(5) 0.06631(8) 0.04221(3)
O1 O 0.78577(16) -0.1211(2) 0.03041(8)
O2 O 0.88916(15) 0.1599(2) -0.00337(7)
O3 O 0.78008(15) -0.0445(2) 0.16169(8)
O4 O 1.00894(16) 0.3522(2) 0.13169(7)
N1 N 0.92255(16) 0.0622(3) 0.10579(8)
C1 C 0.7329(2) 0.4041(4) 0.07016(13)
H1 H 0.8074 0.4532 0.0709
C2 C 0.6418(3) 0.5214(4) 0.08060(13)
H2 H 0.6547 0.6494 0.0892
C3 C 0.5317(2) 0.4472(4) 0.07816(11)
C4 C 0.5103(2) 0.2584(4) 0.06487(12)
H3 H 0.4352 0.2109 0.0621
C5 C 0.6024(2) 0.1405(4) 0.05568(11)
H4 H 0.5896 0.0122 0.0475
C6 C 0.7131(2) 0.2133(3) 0.05861(10)
C7 C 0.8954(2) -0.0235(3) 0.16148(10)
C8 C 0.9785(2) -0.0704(3) 0.20583(11)
H5 H 0.9592 -0.1207 0.2430
C9 C 1.0990(2) -0.0429(3) 0.19612(10)
C10 C 1.1257(2) 0.0676(3) 0.14556(10)
C11 C 1.0302(2) 0.1693(3) 0.10723(10)
H6 H 1.0512 0.1833 0.0648
C12 C 0.7401(3) -0.1455(4) 0.21269(14)
H7 H 0.6571 -0.1538 0.2071
H8 H 0.7639 -0.0796 0.2506
H9 H 0.7725 -0.2710 0.2145
C13 C 1.0729(3) 0.5008(4) 0.10743(18)
H10 H 1.0680 0.4898 0.0631
H11 H 1.1525 0.4924 0.1243
H12 H 1.0416 0.6208 0.1184
C14 C 1.2396(2) 0.0883(4) 0.13304(11)
H13 H 1.2562 0.1597 0.0990
C15 C 1.3292(2) 0.0044(4) 0.17045(11)
H14 H 1.4056 0.0192 0.1620
C16 C 1.3027(2) -0.1018(3) 0.22063(11)
C17 C 1.1903(2) -0.1268(3) 0.23410(11)
H15 H 1.1750 -0.1990 0.2682
loop_
_geom_bond_atom_site_label_1
_geom_bond_atom_site_label_2
_geom_bond_site_symmetry_1
_geom_bond_site_symmetry_2
Cl1 C3 1_555 1_555
Cl2 C16 1_555 1_555
S1 O1 1_555 1_555
O2 S1 1_555 1_555
O3 C7 1_555 1_555
O4 C11 1_555 1_555
N1 S1 1_555 1_555
C1 H1 1_555 1_555
C2 C1 1_555 1_555
H2 C2 1_555 1_555
C3 C2 1_555 1_555
C4 C3 1_555 1_555
H3 C4 1_555 1_555
C5 C4 1_555 1_555
H4 C5 1_555 1_555
C6 S1 1_555 1_555
C7 N1 1_555 1_555
C8 C7 1_555 1_555
H5 C8 1_555 1_555
C9 C8 1_555 1_555
C10 C9 1_555 1_555
C11 N1 1_555 1_555
H6 C11 1_555 1_555
C12 O3 1_555 1_555
H7 C12 1_555 1_555
H8 C12 1_555 1_555
H9 C12 1_555 1_555
C13 O4 1_555 1_555
H10 C13 1_555 1_555
H11 C13 1_555 1_555
H12 C13 1_555 1_555
C14 C10 1_555 1_555
H13 C14 1_555 1_555
C15 C14 1_555 1_555
H14 C15 1_555 1_555
C16 C15 1_555 1_555
C17 C9 1_555 1_555
H15 C17 1_555 1_555
C1 C6 1_555 1_555
C5 C6 1_555 1_555
C10 C11 1_555 1_555
C16 C17 1_555 1_555

#END
