
#######################################################################
#
#                 Cambridge Crystallographic Data Centre
#                                CCDC 
#
#######################################################################
#
# If this CIF has been generated from an entry in the Cambridge 
# Structural Database, then it will include bibliographic, chemical, 
# crystal, experimental, refinement or atomic coordinate data resulting 
# from the CCDC's data processing and validation procedures.
#
#######################################################################

data_CIRSON01
_chemical_formula_moiety         'C3 H3 Br1 O2'
_chemical_name_systematic        2-Bromo-3-hydroxyacrylaldehyde
_symmetry_cell_setting           orthorhombic
_symmetry_space_group_name_H-M   'C m c 21'
_symmetry_Int_Tables_number      36
_space_group_name_Hall           'C 2n -2'
loop_
_symmetry_equiv_pos_site_id
_symmetry_equiv_pos_as_xyz
1 x,y,z
2 -x,-y,1/2+z
3 -x,y,z
4 x,-y,1/2+z
5 1/2+x,1/2+y,z
6 1/2-x,1/2-y,1/2+z
7 1/2-x,1/2+y,z
8 1/2+x,1/2-y,1/2+z
_cell_length_a                   6.503(13)
_cell_length_b                   10.85(2)
_cell_length_c                   6.429(13)
_cell_angle_alpha                90
_cell_angle_beta                 90
_cell_angle_gamma                90
_cell_volume                     453.614
_exptl_crystal_colour            colorless
_exptl_crystal_description       block
_cell_formula_units_Z            4
loop_
_atom_site_label
_atom_site_type_symbol
_atom_site_fract_x
_atom_site_fract_y
_atom_site_fract_z
Br1 Br 0.5000 0.40193(2) 0.08676(8)
O1 O 0.5000 0.1425(3) -0.1393(4)
O2 O 0.5000 0.3029(3) 0.5472(4)
H1 H 0.5000 0.270(4) 0.666(7)
C1 C 0.5000 0.2177(3) 0.4000(4)
H2 H 0.5000 0.138(5) 0.435(9)
C2 C 0.5000 0.2406(3) 0.1919(5)
C3 C 0.5000 0.1383(3) 0.0520(6)
H3 H 0.5000 0.068(4) 0.121(11)
loop_
_geom_bond_atom_site_label_1
_geom_bond_atom_site_label_2
_geom_bond_site_symmetry_1
_geom_bond_site_symmetry_2
Br1 C2 1_555 1_555
O1 C3 1_555 1_555
O2 H1 1_555 1_555
C1 O2 1_555 1_555
H2 C1 1_555 1_555
C2 C1 1_555 1_555
C3 C2 1_555 1_555
H3 C3 1_555 1_555

#END
