
#######################################################################
#
#                 Cambridge Crystallographic Data Centre
#                                CCDC 
#
#######################################################################
#
# If this CIF has been generated from an entry in the Cambridge 
# Structural Database, then it will include bibliographic, chemical, 
# crystal, experimental, refinement or atomic coordinate data resulting 
# from the CCDC's data processing and validation procedures.
#
#######################################################################

data_CIRVAA02
_chemical_formula_moiety         'H12 Mg1 O6 2+,2(C4 H3 O4 1-)'
_chemical_name_systematic        'hexaaqua-magnesium bis(hydrogen maleate)'
_symmetry_cell_setting           monoclinic
_symmetry_space_group_name_H-M   'P 21/c'
_symmetry_Int_Tables_number      14
_space_group_name_Hall           '-P 2ybc'
loop_
_symmetry_equiv_pos_site_id
_symmetry_equiv_pos_as_xyz
1 x,y,z
2 -x,1/2+y,1/2-z
3 -x,-y,-z
4 x,1/2-y,1/2+z
_cell_length_a                   10.192(2)
_cell_length_b                   11.756(2)
_cell_length_c                   6.6189(13)
_cell_angle_alpha                90
_cell_angle_beta                 103.66(3)
_cell_angle_gamma                90
_cell_volume                     770.625
_exptl_crystal_colour            colorless
_exptl_crystal_description       block
_cell_formula_units_Z            2
loop_
_atom_site_label
_atom_site_type_symbol
_atom_site_fract_x
_atom_site_fract_y
_atom_site_fract_z
Mg1 Mg 0.5000 0.0000 0.5000
O1 O 0.34948(7) 0.00027(5) 0.66387(11)
O2 O 0.50966(7) 0.17357(5) 0.51170(9)
O3 O 0.35148(7) 0.00711(5) 0.22816(11)
H1 H 0.58617(15) 0.21761(12) 0.5886(3)
H2 H 0.43178(16) 0.22311(12) 0.4761(3)
H3 H 0.33923(17) 0.06101(13) 0.1170(2)
H4 H 0.27353(16) -0.04293(13) 0.2044(2)
H5 H 0.31566(17) -0.06966(12) 0.7122(2)
H6 H 0.33895(17) 0.06011(12) 0.7580(2)
O1B O 0.65052(7) -0.00027(5) 0.33613(11)
O2B O 0.49034(7) -0.17357(5) 0.48830(9)
O3B O 0.64852(7) -0.00711(5) 0.77184(11)
H1B H 0.41383(15) -0.21761(12) 0.4114(3)
H2B H 0.56822(16) -0.22311(12) 0.5239(3)
H3B H 0.66077(17) -0.06101(13) 0.8830(2)
H4B H 0.72647(16) 0.04293(13) 0.7956(2)
H5B H 0.68434(17) 0.06966(12) 0.2878(2)
H6B H 0.66105(17) -0.06011(12) 0.2420(2)
C1 C 0.10105(5) 0.20193(4) 0.36987(8)
C2 C -0.03116(5) 0.17471(4) 0.32270(8)
C3 C -0.15308(6) 0.25035(4) 0.27145(8)
O4 O -0.26491(6) 0.20445(5) 0.21680(10)
O5 O -0.13866(6) 0.35918(5) 0.28374(10)
O6 O 0.09703(6) 0.40785(5) 0.37353(9)
O7 O 0.29246(6) 0.31965(5) 0.41889(9)
H7 H -0.05811(15) 0.08473(11) 0.3135(3)
H8 H 0.17349(14) 0.13217(11) 0.3982(3)
H9 H -0.02029(15) 0.38706(11) 0.3332(2)
C4 C 0.16702(5) 0.31633(4) 0.38770(7)
loop_
_geom_bond_atom_site_label_1
_geom_bond_atom_site_label_2
_geom_bond_site_symmetry_1
_geom_bond_site_symmetry_2
Mg1 O1 1_555 1_555
O1 H5 1_555 1_555
O2 Mg1 1_555 1_555
O3 Mg1 1_555 1_555
H1 O2 1_555 1_555
H2 O2 1_555 1_555
H3 O3 1_555 1_555
H4 O3 1_555 1_555
H6 O1 1_555 1_555
C1 C2 1_555 1_555
C2 C3 1_555 1_555
C3 O4 1_555 1_555
O5 C3 1_555 1_555
O6 H9 1_555 1_555
O7 C4 1_555 1_555
H7 C2 1_555 1_555
H8 C1 1_555 1_555
H9 O5 1_555 1_555
C4 C1 1_555 1_555
O1B Mg1 1_555 1_555
O2B Mg1 1_555 1_555
O3B Mg1 1_555 1_555
H1B O2B 1_555 1_555
H2B O2B 1_555 1_555
H3B O3B 1_555 1_555
H4B O3B 1_555 1_555
H5B O1B 1_555 1_555
H6B O1B 1_555 1_555
O6 C4 1_555 1_555

#END
