
#######################################################################
#
#                 Cambridge Crystallographic Data Centre
#                                CCDC 
#
#######################################################################
#
# If this CIF has been generated from an entry in the Cambridge 
# Structural Database, then it will include bibliographic, chemical, 
# crystal, experimental, refinement or atomic coordinate data resulting 
# from the CCDC's data processing and validation procedures.
#
#######################################################################

data_CIRZUA
_chemical_formula_moiety         'C7 H5 N3 O2 S1'
_chemical_name_systematic        3-Iminio-5-nitro-3H-2,1-benzothiazol-1-ide
_symmetry_cell_setting           monoclinic
_symmetry_space_group_name_H-M   'P n'
_symmetry_Int_Tables_number      7
_space_group_name_Hall           'P -2yac'
loop_
_symmetry_equiv_pos_site_id
_symmetry_equiv_pos_as_xyz
1 x,y,z
2 1/2+x,-y,1/2+z
_cell_length_a                   3.7332(6)
_cell_length_b                   8.5667(14)
_cell_length_c                   12.425(2)
_cell_angle_alpha                90
_cell_angle_beta                 97.267(3)
_cell_angle_gamma                90
_cell_volume                     394.175
_exptl_crystal_colour            yellow
_exptl_crystal_description       block
_cell_formula_units_Z            2
loop_
_atom_site_label
_atom_site_type_symbol
_atom_site_fract_x
_atom_site_fract_y
_atom_site_fract_z
C1 C 0.8615(9) 0.5694(5) 0.0100(3)
C2 C 0.7397(9) 0.4176(5) 0.0329(3)
C3 C 0.8265(11) 0.3824(4) 0.1454(3)
C4 C 0.7373(10) 0.2310(5) 0.1833(3)
H1 H 0.7932 0.2052 0.2562
C5 C 0.5718(13) 0.1261(5) 0.1128(3)
H2 H 0.5192 0.0268 0.1366
C6 C 0.4777(10) 0.1674(5) 0.0017(3)
C7 C 0.5605(10) 0.3092(5) -0.0395(3)
H3 H 0.5004 0.3327 -0.1126
N1 N 0.8368(10) 0.6393(4) -0.0854(3)
H4 H 0.7376 0.5919 -0.1425
H5 H 0.9201 0.7323 -0.0903
N2 N 0.9895(9) 0.4943(4) 0.2088(3)
N3 N 0.2883(9) 0.0552(4) -0.0710(3)
O1 O 0.1792(10) 0.0931(4) -0.1646(2)
O2 O 0.2339(10) -0.0759(4) -0.0354(3)
S1 S 1.05367(19) 0.64922(10) 0.13067(9)
loop_
_geom_bond_atom_site_label_1
_geom_bond_atom_site_label_2
_geom_bond_site_symmetry_1
_geom_bond_site_symmetry_2
C1 C2 1_555 1_555
C2 C3 1_555 1_555
C3 C4 1_555 1_555
C4 H1 1_555 1_555
C5 C4 1_555 1_555
H2 C5 1_555 1_555
C6 C5 1_555 1_555
C7 C2 1_555 1_555
H3 C7 1_555 1_555
N1 C1 1_555 1_555
H4 N1 1_555 1_555
H5 N1 1_555 1_555
N2 C3 1_555 1_555
N3 C6 1_555 1_555
O1 N3 1_555 1_555
O2 N3 1_555 1_555
S1 C1 1_555 1_555
C6 C7 1_555 1_555
N2 S1 1_555 1_555

#END
