
#######################################################################
#
#                 Cambridge Crystallographic Data Centre
#                                CCDC 
#
#######################################################################
#
# If this CIF has been generated from an entry in the Cambridge 
# Structural Database, then it will include bibliographic, chemical, 
# crystal, experimental, refinement or atomic coordinate data resulting 
# from the CCDC's data processing and validation procedures.
#
#######################################################################

data_CISCOZ
_chemical_formula_moiety         'C24 H30 B1 N3 O2 S1'
_chemical_name_systematic        
'(1,3-dimethyl-1H-imidazol-3-ium-2-yl)(dihydrido){5-methylidene-1-[(4-methylphenyl)sulfonyl]-4-phenylpiperidin-3-yl}borate unknown solvate'
_symmetry_cell_setting           monoclinic
_symmetry_space_group_name_H-M   'C 2/c'
_symmetry_Int_Tables_number      15
_space_group_name_Hall           '-C 2yn'
loop_
_symmetry_equiv_pos_site_id
_symmetry_equiv_pos_as_xyz
1 x,y,z
2 -x,y,1/2-z
3 1/2+x,1/2+y,z
4 1/2-x,1/2+y,1/2-z
5 -x,-y,-z
6 x,-y,1/2+z
7 1/2-x,1/2-y,-z
8 1/2+x,1/2-y,1/2+z
_cell_length_a                   14.0382(4)
_cell_length_b                   18.4396(6)
_cell_length_c                   22.5599(7)
_cell_angle_alpha                90
_cell_angle_beta                 105.851(2)
_cell_angle_gamma                90
_cell_volume                     5617.77
_exptl_crystal_colour            colorless
_exptl_crystal_description       plate
_cell_formula_units_Z            8
_exptl_crystal_recrystallization_method ethylacetate/hexane
loop_
_atom_site_label
_atom_site_type_symbol
_atom_site_fract_x
_atom_site_fract_y
_atom_site_fract_z
B1 B 0.5904(2) 0.36942(16) 0.62887(13)
H1 H 0.608(2) 0.3492(15) 0.6823(11)
H2 H 0.6707(19) 0.3552(16) 0.6170(13)
C1 C 0.50298(16) 0.31921(12) 0.58822(10)
C2 C 0.5165(2) 0.35809(15) 0.48473(12)
H3 H 0.4756 0.401 0.4703
H4 H 0.5188 0.328 0.4493
H5 H 0.5838 0.3733 0.5067
C3 C 0.39533(17) 0.26907(13) 0.50584(11)
H6 H 0.3612 0.2585 0.4642
C4 C 0.37667(17) 0.24094(13) 0.55639(11)
H7 H 0.327 0.2063 0.5575
C5 C 0.44658(18) 0.25528(14) 0.67034(11)
H8 H 0.4538 0.2028 0.677
H9 H 0.385 0.2716 0.6786
H10 H 0.5029 0.2802 0.6982
C6 C 0.56297(16) 0.45597(13) 0.62301(10)
H11 H 0.5405 0.469 0.5783
C7 C 0.48175(16) 0.47948(13) 0.65384(10)
H12 H 0.5032 0.461 0.6971
C8 C 0.38016(16) 0.44732(13) 0.62520(11)
C9 C 0.33693(18) 0.45029(15) 0.56187(11)
H13 H 0.3734 0.4695 0.5356
C10 C 0.24039(19) 0.42526(16) 0.53658(13)
H14 H 0.2114 0.4276 0.4933
C11 C 0.18704(18) 0.39717(16) 0.57441(14)
H15 H 0.1213 0.3803 0.5573
C12 C 0.22962(19) 0.39363(15) 0.63724(15)
H16 H 0.1932 0.3741 0.6633
C13 C 0.32545(17) 0.41849(13) 0.66238(12)
H17 H 0.3541 0.4158 0.7057
C14 C 0.47516(18) 0.56158(13) 0.65838(10)
C15 C 0.3934(2) 0.60039(15) 0.64258(12)
H18 H 0.3964 0.6515 0.6483
H19 H 0.3315 0.5773 0.6255
C16 C 0.57373(18) 0.59842(14) 0.68556(11)
H20 H 0.565 0.6517 0.6836
H21 H 0.6002 0.5843 0.7293
C17 C 0.65903(17) 0.49644(13) 0.65227(10)
H22 H 0.6853 0.4806 0.6956
H23 H 0.7087 0.484 0.6301
C18 C 0.8060(13) 0.6178(9) 0.7384(3)
C19 C 0.8701(12) 0.5585(8) 0.7518(6)
H24 H 0.8783 0.5277 0.7198
C20 C 0.9212(10) 0.5455(8) 0.8121(7)
H25 H 0.9643 0.5048 0.8213
C21 C 0.9119(9) 0.5897(10) 0.8598(5)
C22 C 0.8496(10) 0.6505(10) 0.8450(5)
H26 H 0.8441 0.6826 0.8768
C23 C 0.7954(13) 0.6645(8) 0.7840(5)
H27 H 0.7524 0.7052 0.7742
C24 C 0.9682(10) 0.5764(11) 0.9257(5)
H28 H 0.9795 0.6226 0.948
H29 H 1.0321 0.5539 0.9272
H30 H 0.93 0.544 0.9449
N1 N 0.47390(14) 0.31638(11) 0.52615(9)
N2 N 0.44368(13) 0.27205(10) 0.60654(8)
N3 N 0.64384(14) 0.57665(11) 0.65046(9)
O1 O 0.80038(14) 0.59738(10) 0.62344(8)
O2 O 0.70742(14) 0.70109(10) 0.65013(8)
S1 S 0.74191(5) 0.62734(3) 0.66064(3)
C25? C 0.8133(14) 0.6214(10) 0.7381(4)
C26? C 0.8704(13) 0.5613(9) 0.7622(6)
H31? H 0.8806 0.524 0.7355
C27? C 0.9127(12) 0.5556(8) 0.8254(7)
H32? H 0.9517 0.5145 0.8418
C28? C 0.8977(13) 0.6101(9) 0.8645(4)
C29? C 0.8406(12) 0.6702(9) 0.8404(5)
H33? H 0.8304 0.7075 0.8671
C30? C 0.7983(12) 0.6759(9) 0.7772(6)
H34? H 0.7592 0.717 0.7608
C31? C 0.9421(19) 0.5985(11) 0.9346(8)
H35? H 1.0111 0.5828 0.9427
H36? H 0.9039 0.5613 0.9491
H37? H 0.9393 0.6442 0.9563
loop_
_geom_bond_atom_site_label_1
_geom_bond_atom_site_label_2
_geom_bond_site_symmetry_1
_geom_bond_site_symmetry_2
B1 H1 1_555 1_555
H2 B1 1_555 1_555
C1 B1 1_555 1_555
C2 H3 1_555 1_555
H4 C2 1_555 1_555
H5 C2 1_555 1_555
C3 H6 1_555 1_555
C4 C3 1_555 1_555
H7 C4 1_555 1_555
C5 H8 1_555 1_555
H9 C5 1_555 1_555
H10 C5 1_555 1_555
C6 B1 1_555 1_555
H11 C6 1_555 1_555
C7 C6 1_555 1_555
H12 C7 1_555 1_555
C8 C7 1_555 1_555
C9 C8 1_555 1_555
H13 C9 1_555 1_555
C10 C9 1_555 1_555
H14 C10 1_555 1_555
C11 C10 1_555 1_555
H15 C11 1_555 1_555
C12 C11 1_555 1_555
H16 C12 1_555 1_555
C13 C8 1_555 1_555
H17 C13 1_555 1_555
C14 C7 1_555 1_555
C15 C14 1_555 1_555
H18 C15 1_555 1_555
H19 C15 1_555 1_555
C16 C14 1_555 1_555
H20 C16 1_555 1_555
H21 C16 1_555 1_555
C17 C6 1_555 1_555
H22 C17 1_555 1_555
H23 C17 1_555 1_555
C18 C19 1_555 1_555
C19 H24 1_555 1_555
C20 C19 1_555 1_555
H25 C20 1_555 1_555
C21 C20 1_555 1_555
C22 C21 1_555 1_555
H26 C22 1_555 1_555
C23 C18 1_555 1_555
H27 C23 1_555 1_555
C24 C21 1_555 1_555
H28 C24 1_555 1_555
H29 C24 1_555 1_555
H30 C24 1_555 1_555
N1 C1 1_555 1_555
N2 C1 1_555 1_555
N3 C16 1_555 1_555
O1 S1 1_555 1_555
O2 S1 1_555 1_555
S1 C18 1_555 1_555
C2 N1 1_555 1_555
C3 N1 1_555 1_555
C4 N2 1_555 1_555
C5 N2 1_555 1_555
C12 C13 1_555 1_555
C17 N3 1_555 1_555
C22 C23 1_555 1_555
N3 S1 1_555 1_555

#END
