
#######################################################################
#
#                 Cambridge Crystallographic Data Centre
#                                CCDC 
#
#######################################################################
#
# If this CIF has been generated from an entry in the Cambridge 
# Structural Database, then it will include bibliographic, chemical, 
# crystal, experimental, refinement or atomic coordinate data resulting 
# from the CCDC's data processing and validation procedures.
#
#######################################################################

data_CISCIS
_chemical_formula_moiety         'C16 H19 N3 O1'
_chemical_name_systematic        
4-(2-(4-(Diethylamino)phenyl)vinyl)pyrimidin-2-ol
_symmetry_cell_setting           orthorhombic
_symmetry_space_group_name_H-M   'P 21 21 21'
_symmetry_Int_Tables_number      19
_space_group_name_Hall           'P 2ac 2ab'
loop_
_symmetry_equiv_pos_site_id
_symmetry_equiv_pos_as_xyz
1 x,y,z
2 1/2-x,-y,1/2+z
3 1/2+x,1/2-y,-z
4 -x,1/2+y,1/2-z
_cell_length_a                   9.261(5)
_cell_length_b                   7.582(5)
_cell_length_c                   20.244(5)
_cell_angle_alpha                90
_cell_angle_beta                 90
_cell_angle_gamma                90
_cell_volume                     1421.47
_cell_formula_units_Z            4
loop_
_atom_site_label
_atom_site_type_symbol
_atom_site_fract_x
_atom_site_fract_y
_atom_site_fract_z
O1 O -0.1645(4) 0.8279(6) -0.0423(2)
H1 H -0.1196 0.7446 -0.0715
N1 N -0.0686(5) 0.7477(6) 0.0546(3)
N2 N -0.3156(5) 0.6958(6) 0.0299(2)
N3 N 0.5472(5) 0.7098(5) 0.3811(2)
C1 C -0.1797(6) 0.7613(7) 0.0119(3)
C2 C -0.3332(7) 0.6174(8) 0.0889(3)
H2 H -0.4238 0.5738 0.1001
C3 C -0.2257(8) 0.6001(8) 0.1317(3)
H3 H -0.2391 0.5439 0.1721
C4 C -0.0899(8) 0.6705(8) 0.1135(4)
C5 C 0.043(5) 0.680(5) 0.151(2)
H4 H 0.1213 0.7257 0.1282
C6 C 0.071(3) 0.639(4) 0.2090(16)
H5 H -0.0048 0.5859 0.2317
C7 C 0.2045(9) 0.6603(11) 0.2475(5)
C8 C 0.3349(10) 0.7475(10) 0.2292(3)
H6 H 0.3429 0.7964 0.1872
C9 C 0.4499(7) 0.7611(8) 0.2726(3)
H7 H 0.5352 0.8150 0.2592
C10 C 0.4374(6) 0.6935(7) 0.3365(3)
C11 C 0.3074(7) 0.6079(8) 0.3523(4)
H8 H 0.2973 0.5584 0.3941
C12 C 0.1992(8) 0.5947(10) 0.3103(6)
H9 H 0.1153 0.5383 0.3241
C13 C 0.6779(6) 0.8084(7) 0.3672(3)
H10 H 0.7141 0.8579 0.4082
H11 H 0.6544 0.9057 0.3380
C14 C 0.7958(7) 0.6990(9) 0.3357(3)
H12 H 0.8201 0.6025 0.3644
H13 H 0.8796 0.7711 0.3288
H14 H 0.7625 0.6539 0.2941
C15 C 0.5452(7) 0.6195(8) 0.4442(3)
H15 H 0.6433 0.5878 0.4561
H16 H 0.4902 0.5113 0.4398
C16 C 0.4808(10) 0.7291(12) 0.4987(4)
H17 H 0.5310 0.8396 0.5015
H18 H 0.4896 0.6672 0.5399
H19 H 0.3806 0.7504 0.4895
C17? C 0.125(8) 0.715(10) 0.184(4)
H20? H 0.1642 0.8020 0.1566
C18? C 0.003(12) 0.639(9) 0.167(6)
H21? H -0.0273 0.5498 0.1954
loop_
_geom_bond_atom_site_label_1
_geom_bond_atom_site_label_2
_geom_bond_site_symmetry_1
_geom_bond_site_symmetry_2
O1 H1 1_555 1_555
N1 C1 1_555 1_555
N2 C1 1_555 1_555
N3 C10 1_555 1_555
C1 O1 1_555 1_555
C2 N2 1_555 1_555
H2 C2 1_555 1_555
C3 C2 1_555 1_555
H3 C3 1_555 1_555
C4 N1 1_555 1_555
C5 C4 1_555 1_555
H4 C5 1_555 1_555
C6 C5 1_555 1_555
H5 C6 1_555 1_555
C7 C6 1_555 1_555
C8 C7 1_555 1_555
H6 C8 1_555 1_555
C9 C8 1_555 1_555
H7 C9 1_555 1_555
C10 C9 1_555 1_555
C11 C10 1_555 1_555
H8 C11 1_555 1_555
C12 C7 1_555 1_555
H9 C12 1_555 1_555
C13 N3 1_555 1_555
H10 C13 1_555 1_555
H11 C13 1_555 1_555
C14 C13 1_555 1_555
H12 C14 1_555 1_555
H13 C14 1_555 1_555
H14 C14 1_555 1_555
C15 N3 1_555 1_555
H15 C15 1_555 1_555
H16 C15 1_555 1_555
C16 C15 1_555 1_555
H17 C16 1_555 1_555
H18 C16 1_555 1_555
H19 C16 1_555 1_555
C3 C4 1_555 1_555
C11 C12 1_555 1_555

#END
