
#######################################################################
#
#                 Cambridge Crystallographic Data Centre
#                                CCDC 
#
#######################################################################
#
# If this CIF has been generated from an entry in the Cambridge 
# Structural Database, then it will include bibliographic, chemical, 
# crystal, experimental, refinement or atomic coordinate data resulting 
# from the CCDC's data processing and validation procedures.
#
#######################################################################

data_CISFOB
_chemical_formula_moiety         'C24 H25 N2 S1 1+,I1 1-'
_chemical_name_systematic        
'1-Butyl-2-(2-(10-methyl-10H-phenothiazin-3-yl)vinyl)pyridinium iodide'
_symmetry_cell_setting           monoclinic
_symmetry_space_group_name_H-M   'P 21/n'
_symmetry_Int_Tables_number      14
_space_group_name_Hall           '-P 2yn'
loop_
_symmetry_equiv_pos_site_id
_symmetry_equiv_pos_as_xyz
1 x,y,z
2 1/2-x,1/2+y,1/2-z
3 -x,-y,-z
4 1/2+x,1/2-y,1/2+z
_cell_length_a                   17.3595(3)
_cell_length_b                   7.49540(10)
_cell_length_c                   17.4071(3)
_cell_angle_alpha                90
_cell_angle_beta                 103.144(2)
_cell_angle_gamma                90
_cell_volume                     2205.61
_exptl_crystal_colour            red
_exptl_crystal_description       needles
_cell_formula_units_Z            4
loop_
_atom_site_label
_atom_site_type_symbol
_atom_site_fract_x
_atom_site_fract_y
_atom_site_fract_z
I1 I 0.486849(6) 0.886681(15) 0.276426(7)
S1 S 0.83135(2) 0.49043(5) 0.48002(2)
N1 N 0.65937(8) 0.40433(19) 0.41811(8)
N2 N 0.71487(8) 0.40201(17) 0.94616(8)
C1 C 0.71085(10) 0.3244(2) 0.37564(9)
C2 C 0.79282(10) 0.3487(2) 0.39976(9)
C3 C 0.84420(11) 0.2734(2) 0.35824(11)
C4 C 0.81432(13) 0.1749(3) 0.29050(12)
C5 C 0.73402(13) 0.1481(3) 0.26697(12)
C6 C 0.68229(12) 0.2200(2) 0.30892(10)
C7 C 0.68244(10) 0.4152(2) 0.50070(9)
C8 C 0.76214(9) 0.4469(2) 0.53749(9)
C9 C 0.78621(10) 0.4556(2) 0.61877(10)
C10 C 0.73203(10) 0.4388(2) 0.66710(10)
C11 C 0.65236(10) 0.4104(2) 0.63027(10)
C12 C 0.62831(10) 0.3967(2) 0.54888(10)
C13 C 0.76242(11) 0.4457(2) 0.75216(10)
C14 C 0.72251(11) 0.4113(2) 0.80780(10)
C15 C 0.76016(10) 0.4110(2) 0.89173(10)
C16 C 0.84260(11) 0.4161(3) 0.92000(11)
C17 C 0.87601(11) 0.4099(3) 0.99989(11)
C18 C 0.82782(11) 0.4032(2) 1.05337(11)
C19 C 0.74792(11) 0.4013(2) 1.02493(10)
C20 C 0.62685(10) 0.3942(2) 0.92242(10)
C21 C 0.58993(11) 0.5771(2) 0.90674(11)
C22 C 0.49985(11) 0.5643(3) 0.88711(12)
C23 C 0.46086(13) 0.7453(3) 0.88609(14)
C24 C 0.57475(11) 0.4078(3) 0.38127(11)
H1 H 0.8999(13) 0.295(3) 0.3778(12)
H2 H 0.8489(13) 0.124(3) 0.2611(13)
H3 H 0.7125(14) 0.078(3) 0.2204(15)
H4 H 0.6315(12) 0.194(3) 0.2946(11)
H5 H 0.8387(12) 0.476(3) 0.6412(11)
H6 H 0.6138(12) 0.395(2) 0.6601(12)
H7 H 0.5749(13) 0.372(2) 0.5268(12)
H8 H 0.8142(13) 0.475(3) 0.7670(13)
H9 H 0.6668(15) 0.384(3) 0.7933(14)
H10 H 0.8770(12) 0.418(2) 0.8844(12)
H11 H 0.9338(14) 0.412(3) 1.0199(13)
H12 H 0.8472(14) 0.398(3) 1.1077(14)
H13 H 0.7109(12) 0.400(2) 1.0569(12)
H14 H 0.6117(11) 0.313(3) 0.8781(12)
H15 H 0.6114(12) 0.339(3) 0.9658(12)
H16 H 0.6068(11) 0.631(2) 0.8636(12)
H17 H 0.6083(13) 0.650(3) 0.9544(14)
H18 H 0.4828(13) 0.509(3) 0.8378(14)
H19 H 0.4832(13) 0.485(3) 0.9287(13)
H20 H 0.4751(14) 0.825(3) 0.8471(15)
H21 H 0.4771(15) 0.808(3) 0.9427(16)
H22 H 0.4026(15) 0.732(3) 0.8729(14)
H23 H 0.5689(15) 0.445(3) 0.3217(15)
H24 H 0.5507(11) 0.494(3) 0.4067(11)
H25 H 0.5492(12) 0.293(3) 0.3859(12)
loop_
_geom_bond_atom_site_label_1
_geom_bond_atom_site_label_2
_geom_bond_site_symmetry_1
_geom_bond_site_symmetry_2
S1 C2 1_555 1_555
N1 C1 1_555 1_555
N2 C15 1_555 1_555
C1 C2 1_555 1_555
C2 C3 1_555 1_555
C3 C4 1_555 1_555
C4 C5 1_555 1_555
C5 C6 1_555 1_555
C6 C1 1_555 1_555
C7 N1 1_555 1_555
C8 S1 1_555 1_555
C9 C8 1_555 1_555
C10 C9 1_555 1_555
C11 C10 1_555 1_555
C12 C7 1_555 1_555
C13 C10 1_555 1_555
C14 C13 1_555 1_555
C15 C14 1_555 1_555
C16 C15 1_555 1_555
C17 C16 1_555 1_555
C18 C17 1_555 1_555
C19 N2 1_555 1_555
C20 N2 1_555 1_555
C21 C20 1_555 1_555
C22 C21 1_555 1_555
C23 C22 1_555 1_555
C24 N1 1_555 1_555
H1 C3 1_555 1_555
H2 C4 1_555 1_555
H3 C5 1_555 1_555
H4 C6 1_555 1_555
H5 C9 1_555 1_555
H6 C11 1_555 1_555
H7 C12 1_555 1_555
H8 C13 1_555 1_555
H9 C14 1_555 1_555
H10 C16 1_555 1_555
H11 C17 1_555 1_555
H12 C18 1_555 1_555
H13 C19 1_555 1_555
H14 C20 1_555 1_555
H15 C20 1_555 1_555
H16 C21 1_555 1_555
H17 C21 1_555 1_555
H18 C22 1_555 1_555
H19 C22 1_555 1_555
H20 C23 1_555 1_555
H21 C23 1_555 1_555
H22 C23 1_555 1_555
H23 C24 1_555 1_555
H24 C24 1_555 1_555
H25 C24 1_555 1_555
C7 C8 1_555 1_555
C11 C12 1_555 1_555
C18 C19 1_555 1_555

#END
