
#######################################################################
#
#                 Cambridge Crystallographic Data Centre
#                                CCDC 
#
#######################################################################
#
# If this CIF has been generated from an entry in the Cambridge 
# Structural Database, then it will include bibliographic, chemical, 
# crystal, experimental, refinement or atomic coordinate data resulting 
# from the CCDC's data processing and validation procedures.
#
#######################################################################

data_CISGIW
_chemical_formula_moiety         'C19 H17 Cl2 N1 O1'
_chemical_name_systematic        
3-(5-Chloro-2-methyl-1H-indol-3-yl)-1-(4-chlorophenyl)-2-methylpropan-1-one
_symmetry_cell_setting           monoclinic
_symmetry_space_group_name_H-M   'P 21'
_symmetry_Int_Tables_number      4
_space_group_name_Hall           'P 2yb'
loop_
_symmetry_equiv_pos_site_id
_symmetry_equiv_pos_as_xyz
1 x,y,z
2 -x,1/2+y,-z
_cell_length_a                   6.2989(13)
_cell_length_b                   13.024(3)
_cell_length_c                   9.7298(19)
_cell_angle_alpha                90
_cell_angle_beta                 91.08(3)
_cell_angle_gamma                90
_cell_volume                     798.061
_exptl_crystal_colour            colorless
_exptl_crystal_description       block
_cell_formula_units_Z            2
loop_
_atom_site_label
_atom_site_type_symbol
_atom_site_fract_x
_atom_site_fract_y
_atom_site_fract_z
Cl1 Cl 0.07731(9) 0.53808(4) 0.03016(5)
Cl2 Cl 0.52445(11) 0.74990(5) 0.02795(6)
O1 O -0.1846(2) 0.84810(12) 0.51405(16)
N1 N -0.4749(3) 0.49860(14) 0.5028(2)
H1 H -0.6036 0.4741 0.5139
C1 C -0.0960(3) 0.52629(17) 0.1687(2)
C2 C -0.2954(4) 0.48160(17) 0.1436(2)
H2 H -0.3351 0.4605 0.0533
C3 C -0.4336(3) 0.46835(17) 0.2503(2)
H3 H -0.5688 0.4374 0.2355
C4 C -0.3692(3) 0.50163(15) 0.3803(2)
C5 C -0.1699(3) 0.54829(16) 0.40591(19)
C6 C -0.0292(3) 0.55929(16) 0.2965(2)
H4 H 0.1077 0.5886 0.3104
C7 C -0.1590(3) 0.57354(15) 0.5502(2)
C8 C -0.3468(3) 0.54027(16) 0.6058(2)
C9 C -0.4216(3) 0.54180(18) 0.7505(2)
H5 H -0.5193 0.5995 0.7626
H6 H -0.2995 0.5495 0.8135
H7 H -0.4952 0.4773 0.7704
C10 C 0.0311(3) 0.61850(15) 0.6241(2)
H8 H 0.1583 0.6024 0.5700
H9 H 0.0476 0.5829 0.7136
C11 C 0.0302(3) 0.73658(16) 0.6522(2)
H10 H 0.1769 0.7562 0.6834
C12 C -0.1202(4) 0.76436(18) 0.7679(2)
H11 H -0.2667 0.7491 0.7390
H12 H -0.1070 0.8377 0.7890
H13 H -0.0833 0.7241 0.8500
C13 C -0.0206(3) 0.79729(15) 0.5229(2)
C14 C 0.1245(3) 0.79104(15) 0.4037(2)
C15 C 0.3330(3) 0.75574(16) 0.4157(2)
H14 H 0.3911 0.7397 0.5039
C16 C 0.4567(3) 0.74374(17) 0.3003(2)
H15 H 0.5992 0.7203 0.3092
C17 C 0.3700(3) 0.76626(17) 0.1722(2)
C18 C 0.1642(4) 0.80349(17) 0.1570(2)
H16 H 0.1071 0.8197 0.0686
C19 C 0.0440(3) 0.81646(16) 0.2734(2)
H17 H -0.0959 0.8432 0.2645
loop_
_geom_bond_atom_site_label_1
_geom_bond_atom_site_label_2
_geom_bond_site_symmetry_1
_geom_bond_site_symmetry_2
Cl1 C1 1_555 1_555
Cl2 C17 1_555 1_555
O1 C13 1_555 1_555
N1 H1 1_555 1_555
C1 C2 1_555 1_555
C2 H2 1_555 1_555
C3 C2 1_555 1_555
H3 C3 1_555 1_555
C4 N1 1_555 1_555
C5 C4 1_555 1_555
C6 C1 1_555 1_555
H4 C6 1_555 1_555
C7 C5 1_555 1_555
C8 N1 1_555 1_555
C9 C8 1_555 1_555
H5 C9 1_555 1_555
H6 C9 1_555 1_555
H7 C9 1_555 1_555
C10 C7 1_555 1_555
H8 C10 1_555 1_555
H9 C10 1_555 1_555
C11 C10 1_555 1_555
H10 C11 1_555 1_555
C12 C11 1_555 1_555
H11 C12 1_555 1_555
H12 C12 1_555 1_555
H13 C12 1_555 1_555
C13 C11 1_555 1_555
C14 C13 1_555 1_555
C15 C14 1_555 1_555
H14 C15 1_555 1_555
C16 C15 1_555 1_555
H15 C16 1_555 1_555
C17 C16 1_555 1_555
C18 C17 1_555 1_555
H16 C18 1_555 1_555
C19 C14 1_555 1_555
H17 C19 1_555 1_555
C3 C4 1_555 1_555
C5 C6 1_555 1_555
C7 C8 1_555 1_555
C18 C19 1_555 1_555

#END
