
#######################################################################
#
#                 Cambridge Crystallographic Data Centre
#                                CCDC 
#
#######################################################################
#
# If this CIF has been generated from an entry in the Cambridge 
# Structural Database, then it will include bibliographic, chemical, 
# crystal, experimental, refinement or atomic coordinate data resulting 
# from the CCDC's data processing and validation procedures.
#
#######################################################################

data_CISHAP
_chemical_formula_moiety         'C28 H22 N2 O1'
_chemical_name_systematic        
3-(4-(Diphenylamino)phenyl)-2-(4-methoxyphenyl)acrylonitrile
_symmetry_cell_setting           triclinic
_symmetry_space_group_name_H-M   'P -1'
_symmetry_Int_Tables_number      2
_space_group_name_Hall           '-P 1'
loop_
_symmetry_equiv_pos_site_id
_symmetry_equiv_pos_as_xyz
1 x,y,z
2 -x,-y,-z
_cell_length_a                   6.7788(7)
_cell_length_b                   17.4776(19)
_cell_length_c                   20.892(3)
_cell_angle_alpha                65.356(2)
_cell_angle_beta                 89.988(3)
_cell_angle_gamma                84.540(2)
_cell_volume                     2237.43
_exptl_crystal_colour            green
_exptl_crystal_description       prismatic
_cell_formula_units_Z            4
loop_
_atom_site_label
_atom_site_type_symbol
_atom_site_fract_x
_atom_site_fract_y
_atom_site_fract_z
N1 N -0.1519(6) 0.6169(3) 0.5057(2)
N2 N 0.2711(6) 0.5555(2) 0.81585(16)
O1 O 0.3931(5) 0.6702(2) 0.20289(14)
C1 C 0.1141(6) 0.6257(3) 0.3627(2)
H1 H -0.0151 0.6196 0.3777
C2 C 0.1500(7) 0.6430(3) 0.2929(2)
H2 H 0.0462 0.6485 0.2616
C3 C 0.3391(6) 0.6517(3) 0.27038(19)
C4 C 0.4919(6) 0.6421(3) 0.3180(2)
H3 H 0.6212 0.6469 0.3031
C5 C 0.4560(6) 0.6258(3) 0.3865(2)
H4 H 0.5605 0.6202 0.4175
C6 C 0.2626(6) 0.6174(2) 0.41049(18)
C7 C 0.2197(6) 0.6021(2) 0.48422(18)
C8 C 0.3553(6) 0.5885(2) 0.53553(18)
H5 H 0.4863 0.5869 0.5226
C9 C 0.3294(6) 0.5756(2) 0.60896(18)
C10 C 0.4789(6) 0.5955(3) 0.6429(2)
H6 H 0.5937 0.6136 0.6193
C11 C 0.4616(7) 0.5894(3) 0.7104(2)
H7 H 0.5632 0.6044 0.7313
C12 C 0.2938(6) 0.5608(2) 0.74768(18)
C13 C 0.1475(6) 0.5372(2) 0.71536(19)
H8 H 0.0366 0.5158 0.7401
C14 C 0.1630(6) 0.5448(2) 0.64709(18)
H9 H 0.0619 0.5293 0.6263
C15 C 0.0122(7) 0.6092(3) 0.49739(19)
C16 C 0.2460(8) 0.6750(4) 0.1531(2)
H10 H 0.1987 0.6205 0.1669
H11 H 0.3015 0.6920 0.1076
H12 H 0.1378 0.7157 0.1511
C17 C 0.3554(6) 0.6124(3) 0.8381(2)
C18 C 0.3344(7) 0.6990(3) 0.7959(2)
H13 H 0.2662 0.7204 0.7524
C19 C 0.4154(8) 0.7530(3) 0.8191(3)
H14 H 0.4009 0.8109 0.7909
C20 C 0.5159(9) 0.7228(4) 0.8823(3)
H15 H 0.5711 0.7597 0.8972
C21 C 0.5354(9) 0.6382(4) 0.9238(3)
H16 H 0.6023 0.6172 0.9676
C22 C 0.4569(8) 0.5837(3) 0.9014(2)
H17 H 0.4732 0.5259 0.9300
C23 C 0.1813(6) 0.4865(3) 0.86731(19)
C24 C 0.0309(7) 0.5002(3) 0.9054(2)
H18 H -0.0176 0.5553 0.8971
C25 C -0.0501(9) 0.4328(5) 0.9564(3)
H19 H -0.1520 0.4429 0.9827
C26 C 0.0167(12) 0.3528(4) 0.9687(3)
H20 H -0.0388 0.3076 1.0031
C27 C 0.1675(10) 0.3386(3) 0.9300(3)
H21 H 0.2163 0.2835 0.9387
C28 C 0.2466(8) 0.4052(3) 0.8786(2)
H22 H 0.3451 0.3952 0.8512
N3 N 0.6558(7) 0.1219(4) 0.0056(2)
N4 N 0.2668(6) 0.0542(2) 0.32192(17)
O2 O 0.0464(6) 0.1458(2) -0.28403(16)
C29 C 0.3577(7) 0.1460(3) -0.1400(2)
H23 H 0.4834 0.1583 -0.1321
C30 C 0.3009(8) 0.1561(3) -0.2076(2)
H24 H 0.3882 0.1754 -0.2439
C31 C 0.1202(8) 0.1379(3) -0.2203(2)
C32 C -0.0062(8) 0.1089(3) -0.1658(2)
H25 H -0.1304 0.0955 -0.1741
C33 C 0.0479(8) 0.0994(3) -0.0996(2)
H26 H -0.0407 0.0799 -0.0637
C34 C 0.2324(6) 0.1183(2) -0.0849(2)
C35 C 0.2890(6) 0.1094(2) -0.0131(2)
C36 C 0.1618(6) 0.1027(2) 0.0370(2)
H27 H 0.0293 0.1060 0.0237
C37 C 0.1978(6) 0.0909(3) 0.1099(2)
C38 C 0.0472(7) 0.1196(3) 0.1426(2)
H28 H -0.0718 0.1462 0.1176
C39 C 0.0722(7) 0.1090(3) 0.2111(2)
H29 H -0.0286 0.1306 0.2311
C40 C 0.2431(7) 0.0671(3) 0.2512(2)
C41 C 0.3931(7) 0.0379(2) 0.2191(2)
H30 H 0.5103 0.0098 0.2446
C42 C 0.3704(6) 0.0501(2) 0.1501(2)
H31 H 0.4737 0.0304 0.1298
C43 C 0.4936(8) 0.1144(3) -0.0019(2)
C44 C 0.1772(9) 0.1695(4) -0.3406(2)
H32 H 0.2229 0.2228 -0.3483
H33 H 0.1085 0.1744 -0.3826
H34 H 0.2886 0.1271 -0.3292
C45 C 0.1574(7) 0.1089(3) 0.3474(2)
C46 C 0.1895(8) 0.1924(3) 0.3221(3)
H35 H 0.2811 0.2138 0.2876
C47 C 0.0860(9) 0.2452(3) 0.3478(3)
H36 H 0.1085 0.3019 0.3303
C48 C -0.0470(9) 0.2151(4) 0.3979(3)
H37 H -0.1165 0.2506 0.4150
C49 C -0.0784(9) 0.1321(4) 0.4232(3)
H38 H -0.1696 0.1110 0.4580
C50 C 0.0220(8) 0.0787(3) 0.3984(3)
H39 H -0.0018 0.0222 0.4161
C51 C 0.3573(7) -0.0242(3) 0.3730(2)
C52 C 0.4938(8) -0.0264(3) 0.4217(2)
H40 H 0.5316 0.0240 0.4202
C53 C 0.5766(9) -0.1019(4) 0.4729(3)
H41 H 0.6691 -0.1024 0.5060
C54 C 0.5222(11) -0.1766(4) 0.4752(3)
H42 H 0.5758 -0.2279 0.5104
C55 C 0.3897(11) -0.1753(3) 0.4258(3)
H43 H 0.3559 -0.2260 0.4267
C56 C 0.3045(8) -0.0995(3) 0.3744(2)
H44 H 0.2128 -0.0991 0.3412
loop_
_geom_bond_atom_site_label_1
_geom_bond_atom_site_label_2
_geom_bond_site_symmetry_1
_geom_bond_site_symmetry_2
N1 C15 1_555 1_555
N2 C12 1_555 1_555
O1 C3 1_555 1_555
C1 H1 1_555 1_555
C2 C1 1_555 1_555
H2 C2 1_555 1_555
C3 C2 1_555 1_555
C4 C3 1_555 1_555
H3 C4 1_555 1_555
C5 C4 1_555 1_555
H4 C5 1_555 1_555
C6 C1 1_555 1_555
C7 C6 1_555 1_555
C8 C7 1_555 1_555
H5 C8 1_555 1_555
C9 C8 1_555 1_555
C10 C9 1_555 1_555
H6 C10 1_555 1_555
C11 C10 1_555 1_555
H7 C11 1_555 1_555
C12 C11 1_555 1_555
C13 C12 1_555 1_555
H8 C13 1_555 1_555
C14 C9 1_555 1_555
H9 C14 1_555 1_555
C15 C7 1_555 1_555
C16 O1 1_555 1_555
H10 C16 1_555 1_555
H11 C16 1_555 1_555
H12 C16 1_555 1_555
C17 N2 1_555 1_555
C18 C17 1_555 1_555
H13 C18 1_555 1_555
C19 C18 1_555 1_555
H14 C19 1_555 1_555
C20 C19 1_555 1_555
H15 C20 1_555 1_555
C21 C20 1_555 1_555
H16 C21 1_555 1_555
C22 C17 1_555 1_555
H17 C22 1_555 1_555
C23 N2 1_555 1_555
C24 C23 1_555 1_555
H18 C24 1_555 1_555
C25 C24 1_555 1_555
H19 C25 1_555 1_555
C26 C25 1_555 1_555
H20 C26 1_555 1_555
C27 C26 1_555 1_555
H21 C27 1_555 1_555
C28 C23 1_555 1_555
H22 C28 1_555 1_555
N3 C43 1_555 1_555
N4 C40 1_555 1_555
O2 C31 1_555 1_555
C29 H23 1_555 1_555
C30 C29 1_555 1_555
H24 C30 1_555 1_555
C31 C30 1_555 1_555
C32 C31 1_555 1_555
H25 C32 1_555 1_555
C33 C32 1_555 1_555
H26 C33 1_555 1_555
C34 C29 1_555 1_555
C35 C34 1_555 1_555
C36 C35 1_555 1_555
H27 C36 1_555 1_555
C37 C36 1_555 1_555
C38 C37 1_555 1_555
H28 C38 1_555 1_555
C39 C38 1_555 1_555
H29 C39 1_555 1_555
C40 C39 1_555 1_555
C41 C40 1_555 1_555
H30 C41 1_555 1_555
C42 C37 1_555 1_555
H31 C42 1_555 1_555
C43 C35 1_555 1_555
C44 O2 1_555 1_555
H32 C44 1_555 1_555
H33 C44 1_555 1_555
H34 C44 1_555 1_555
C45 N4 1_555 1_555
C46 C45 1_555 1_555
H35 C46 1_555 1_555
C47 C46 1_555 1_555
H36 C47 1_555 1_555
C48 C47 1_555 1_555
H37 C48 1_555 1_555
C49 C48 1_555 1_555
H38 C49 1_555 1_555
C50 C45 1_555 1_555
H39 C50 1_555 1_555
C51 N4 1_555 1_555
C52 C51 1_555 1_555
H40 C52 1_555 1_555
C53 C52 1_555 1_555
H41 C53 1_555 1_555
C54 C53 1_555 1_555
H42 C54 1_555 1_555
C55 C54 1_555 1_555
H43 C55 1_555 1_555
C56 C51 1_555 1_555
H44 C56 1_555 1_555
C5 C6 1_555 1_555
C13 C14 1_555 1_555
C21 C22 1_555 1_555
C27 C28 1_555 1_555
C33 C34 1_555 1_555
C41 C42 1_555 1_555
C49 C50 1_555 1_555
C55 C56 1_555 1_555

#END
