
#######################################################################
#
#                 Cambridge Crystallographic Data Centre
#                                CCDC 
#
#######################################################################
#
# If this CIF has been generated from an entry in the Cambridge 
# Structural Database, then it will include bibliographic, chemical, 
# crystal, experimental, refinement or atomic coordinate data resulting 
# from the CCDC's data processing and validation procedures.
#
#######################################################################

data_CISMOI
_chemical_formula_moiety         'C42 H54 O6 Se3'
_chemical_name_systematic        
2,3,5,6,8,9-Hexabutoxybisselenopheno[2',3',4',5':4,5;2'',3'',4'',5'':8,9]triphenyleno[1,12-bcd]selenophene
_symmetry_cell_setting           rhombohedral
_symmetry_space_group_name_H-M   'R 3'
_symmetry_Int_Tables_number      146
_space_group_name_Hall           'R 3'
loop_
_symmetry_equiv_pos_site_id
_symmetry_equiv_pos_as_xyz
1 x,y,z
2 -y,x-y,z
3 -x+y,-x,z
4 2/3+x,1/3+y,1/3+z
5 2/3-y,1/3+x-y,1/3+z
6 2/3-x+y,1/3-x,1/3+z
7 1/3+x,2/3+y,2/3+z
8 1/3-y,2/3+x-y,2/3+z
9 1/3-x+y,2/3-x,2/3+z
_cell_length_a                   18.0390(5)
_cell_length_b                   18.0390(5)
_cell_length_c                   32.2310(11)
_cell_angle_alpha                90
_cell_angle_beta                 90
_cell_angle_gamma                120
_cell_volume                     9083
_exptl_crystal_colour            yellow
_exptl_crystal_description       'hexagonal blocks'
_chemical_melting_point          '331.5 K'
_cell_formula_units_Z            9
_exptl_crystal_recrystallization_method dichloromethane
loop_
_atom_site_label
_atom_site_type_symbol
_atom_site_fract_x
_atom_site_fract_y
_atom_site_fract_z
Se1 Se -0.16305(7) -0.43180(7) -0.50016(4)
O1 O -0.0170(5) -0.5081(6) -0.4899(3)
O2 O -0.3231(6) -0.3904(5) -0.4883(3)
C1 C -0.1011(7) -0.5634(8) -0.4994(4)
C2 C -0.1625(7) -0.5387(7) -0.5066(4)
C3 C -0.2463(7) -0.6035(7) -0.5143(4)
C4 C -0.3104(7) -0.5806(7) -0.5142(4)
C5 C -0.2852(8) -0.4947(7) -0.5054(4)
C6 C -0.3479(8) -0.4737(8) -0.4987(4)
C7 C 0.0221(8) -0.4240(8) -0.5074(5)
H1 H 0.0046 -0.3890 -0.4920
H2 H 0.0042 -0.4270 -0.5360
C8 C 0.1178(8) -0.3848(8) -0.5053(4)
H3 H 0.1343 -0.3862 -0.4768
H4 H 0.1346 -0.4189 -0.5218
C9 C 0.1645(8) -0.2942(9) -0.5206(6)
H5 H 0.1473 -0.2605 -0.5041
H6 H 0.1475 -0.2932 -0.5490
C10 C 0.2607(9) -0.2530(9) -0.5189(6)
H7 H 0.2862 -0.1951 -0.5287
H8 H 0.2787 -0.2845 -0.5361
H9 H 0.2783 -0.2531 -0.4908
C11 C -0.3448(11) -0.3418(9) -0.5164(6)
H10 H -0.4053 -0.3604 -0.5140
H11 H -0.3334 -0.3511 -0.5447
C12 C -0.2943(14) -0.2517(11) -0.5062(7)
H12 H -0.2864 -0.2222 -0.5324
H13 H -0.3324 -0.2396 -0.4900
C13 C -0.2169(12) -0.2079(12) -0.4867(6)
H14 H -0.1708 -0.1925 -0.5064
H15 H -0.2125 -0.2430 -0.4651
C14 C -0.2110(12) -0.1237(11) -0.4670(6)
H16 H -0.2154 -0.0895 -0.4886
H17 H -0.1572 -0.0912 -0.4530
H18 H -0.2569 -0.1398 -0.4476
Se1A Se -0.56820(7) -0.73125(10) -0.50016(4)
O1A O -0.4919(6) -0.5089(8) -0.4899(3)
O2A O -0.6096(5) -0.9327(8) -0.4883(3)
C1A C -0.4366(8) -0.5377(11) -0.4994(4)
C2A C -0.4613(7) -0.6238(10) -0.5066(4)
C3A C -0.3965(7) -0.6428(10) -0.5143(4)
C4A C -0.4194(7) -0.7298(10) -0.5142(4)
C5A C -0.5053(7) -0.7905(11) -0.5054(4)
C6A C -0.5263(8) -0.8742(11) -0.4987(4)
C7A C -0.5760(8) -0.5539(11) -0.5074(5)
H1A H -0.6110 -0.6064 -0.4920
H2A H -0.5730 -0.5688 -0.5360
C8A C -0.6152(8) -0.4974(11) -0.5053(4)
H3A H -0.6138 -0.4795 -0.4768
H4A H -0.5811 -0.4465 -0.5218
C9A C -0.7058(9) -0.5413(12) -0.5206(6)
H5A H -0.7395 -0.5922 -0.5041
H6A H -0.7068 -0.5593 -0.5490
C10A C -0.7470(9) -0.4863(13) -0.5189(6)
H7A H -0.8049 -0.5187 -0.5287
H8A H -0.7155 -0.4368 -0.5361
H9A H -0.7469 -0.4686 -0.4908
C11A C -0.6582(9) -1.0030(14) -0.5164(6)
H10A H -0.6396 -1.0449 -0.5140
H11A H -0.6489 -0.9823 -0.5447
C12A C -0.7483(11) -1.0426(18) -0.5062(7)
H12A H -0.7778 -1.0642 -0.5324
H13A H -0.7604 -1.0928 -0.4900
C13A C -0.7921(12) -1.0090(17) -0.4867(6)
H14A H -0.8075 -0.9783 -0.5064
H15A H -0.7570 -0.9695 -0.4651
C14A C -0.8763(11) -1.0873(16) -0.4670(6)
H16A H -0.9105 -1.1259 -0.4886
H17A H -0.9088 -1.0660 -0.4530
H18A H -0.8602 -1.1171 -0.4476
Se1B Se -0.26875(10) -0.83695(7) -0.50016(4)
O1B O -0.4911(8) -0.9830(5) -0.4899(3)
O2B O -0.0673(8) -0.6769(6) -0.4883(3)
C1B C -0.4623(11) -0.8989(7) -0.4994(4)
C2B C -0.3762(10) -0.8375(7) -0.5066(4)
C3B C -0.3572(10) -0.7537(7) -0.5143(4)
C4B C -0.2702(10) -0.6896(7) -0.5142(4)
C5B C -0.2095(11) -0.7148(8) -0.5054(4)
C6B C -0.1258(11) -0.6521(8) -0.4987(4)
C7B C -0.4461(11) -1.0221(8) -0.5074(5)
H1B H -0.3936 -1.0046 -0.4920
H2B H -0.4312 -1.0042 -0.5360
C8B C -0.5026(11) -1.1178(8) -0.5053(4)
H3B H -0.5205 -1.1343 -0.4768
H4B H -0.5535 -1.1346 -0.5218
C9B C -0.4587(12) -1.1645(8) -0.5206(6)
H5B H -0.4078 -1.1473 -0.5041
H6B H -0.4407 -1.1475 -0.5490
C10B C -0.5137(13) -1.2607(9) -0.5189(6)
H7B H -0.4813 -1.2862 -0.5287
H8B H -0.5632 -1.2787 -0.5361
H9B H -0.5314 -1.2783 -0.4908
C11B C 0.0030(14) -0.6552(11) -0.5164(6)
H10B H 0.0449 -0.5947 -0.5140
H11B H -0.0177 -0.6666 -0.5447
C12B C 0.0426(18) -0.7057(14) -0.5062(7)
H12B H 0.0642 -0.7136 -0.5324
H13B H 0.0928 -0.6676 -0.4900
C13B C 0.0090(17) -0.7831(12) -0.4867(6)
H14B H -0.0217 -0.8292 -0.5064
H15B H -0.0305 -0.7875 -0.4651
C14B C 0.0873(16) -0.7890(12) -0.4670(6)
H16B H 0.1259 -0.7846 -0.4886
H17B H 0.0660 -0.8428 -0.4530
H18B H 0.1171 -0.7431 -0.4476
Se2 Se -0.27427(9) -0.43282(8) -0.61320(4)
O3 O -0.0581(6) -0.3906(6) -0.6041(3)
O4 O -0.4850(6) -0.5036(6) -0.6027(3)
C15 C -0.1248(9) -0.4708(9) -0.6122(4)
C16 C -0.2111(9) -0.4938(9) -0.6182(4)
C17 C -0.2694(8) -0.5790(8) -0.6243(4)
C18 C -0.3580(8) -0.6049(8) -0.6245(4)
C19 C -0.3793(9) -0.5417(9) -0.6170(4)
C20 C -0.4634(9) -0.5653(9) -0.6121(4)
C21 C -0.0696(10) -0.3206(9) -0.6128(6)
H19 H -0.1138 -0.3221 -0.5951
H20 H -0.0868 -0.3226 -0.6415
C22 C 0.0151(13) -0.2395(11) -0.6049(8)
H21 H 0.0321 -0.2389 -0.5763
H22 H 0.0587 -0.2390 -0.6227
C23 C 0.0085(12) -0.1604(12) -0.6133(6)
H23 H -0.0378 -0.1641 -0.5964
H24 H -0.0080 -0.1623 -0.6421
C24 C 0.0904(12) -0.0698(11) -0.6052(6)
H25 H 0.1148 -0.0428 -0.6313
H26 H 0.1318 -0.0770 -0.5897
H27 H 0.0743 -0.0346 -0.5897
C25 C -0.5354(11) -0.4902(11) -0.6328(6)
H28 H -0.5949 -0.5345 -0.6302
H29 H -0.5161 -0.4933 -0.6605
C26 C -0.527(2) -0.4068(15) -0.6265(10)
H30 H -0.5382 -0.3994 -0.5977
H31 H -0.5676 -0.4002 -0.6439
C27 C -0.4294(11) -0.3381(11) -0.6393(6)
H32 H -0.3897 -0.3464 -0.6223
H33 H -0.4194 -0.3456 -0.6682
C28 C -0.4157(11) -0.2455(12) -0.6322(6)
H34 H -0.4118 -0.2189 -0.6585
H35 H -0.3638 -0.2117 -0.6169
H36 H -0.4632 -0.2495 -0.6169
Se2A Se -0.56718(8) -0.84145(12) -0.61320(4)
O3A O -0.6094(6) -0.6675(8) -0.6041(3)
O4A O -0.4964(6) -0.9814(8) -0.6027(3)
C15A C -0.5292(9) -0.6540(13) -0.6122(4)
C16A C -0.5062(9) -0.7173(13) -0.6182(4)
C17A C -0.4210(8) -0.6904(11) -0.6243(4)
C18A C -0.3951(8) -0.7531(11) -0.6245(4)
C19A C -0.4583(9) -0.8376(13) -0.6170(4)
C20A C -0.4347(9) -0.8981(13) -0.6121(4)
C21A C -0.6794(9) -0.7490(13) -0.6128(6)
H19A H -0.6779 -0.7917 -0.5951
H20A H -0.6774 -0.7642 -0.6415
C22A C -0.7605(11) -0.7454(17) -0.6049(8)
H21A H -0.7611 -0.7290 -0.5763
H22A H -0.7610 -0.7023 -0.6227
C23A C -0.8396(12) -0.8311(17) -0.6133(6)
H23A H -0.8359 -0.8737 -0.5964
H24A H -0.8377 -0.8457 -0.6421
C24A C -0.9302(11) -0.8398(16) -0.6052(6)
H25A H -0.9572 -0.8424 -0.6313
H26A H -0.9230 -0.7912 -0.5897
H27A H -0.9654 -0.8911 -0.5897
C25A C -0.5098(11) -1.0452(16) -0.6328(6)
H28A H -0.4655 -1.0604 -0.6302
H29A H -0.5067 -1.0228 -0.6605
C26A C -0.5932(15) -1.1202(25) -0.6265(10)
H30A H -0.6006 -1.1388 -0.5977
H31A H -0.5998 -1.1674 -0.6439
C27A C -0.6619(11) -1.0913(16) -0.6393(6)
H32A H -0.6536 -1.0433 -0.6223
H33A H -0.6544 -1.0738 -0.6682
C28A C -0.7545(12) -1.1702(16) -0.6322(6)
H34A H -0.7811 -1.1929 -0.6585
H35A H -0.7883 -1.1521 -0.6169
H36A H -0.7505 -1.2137 -0.6169
Se2B Se -0.15855(12) -0.72573(9) -0.61320(4)
O3B O -0.3325(8) -0.9419(6) -0.6041(3)
O4B O -0.0186(8) -0.5150(6) -0.6027(3)
C15B C -0.3460(13) -0.8752(9) -0.6122(4)
C16B C -0.2827(13) -0.7889(9) -0.6182(4)
C17B C -0.3096(11) -0.7306(8) -0.6243(4)
C18B C -0.2469(11) -0.6420(8) -0.6245(4)
C19B C -0.1624(13) -0.6207(9) -0.6170(4)
C20B C -0.1019(13) -0.5366(9) -0.6121(4)
C21B C -0.2510(13) -0.9304(10) -0.6128(6)
H19B H -0.2083 -0.8862 -0.5951
H20B H -0.2358 -0.9132 -0.6415
C22B C -0.2546(17) -1.0151(13) -0.6049(8)
H21B H -0.2710 -1.0321 -0.5763
H22B H -0.2977 -1.0587 -0.6227
C23B C -0.1689(17) -1.0085(12) -0.6133(6)
H23B H -0.1263 -0.9622 -0.5964
H24B H -0.1543 -0.9920 -0.6421
C24B C -0.1602(16) -1.0904(12) -0.6052(6)
H25B H -0.1576 -1.1148 -0.6313
H26B H -0.2088 -1.1318 -0.5897
H27B H -0.1089 -1.0743 -0.5897
C25B C 0.0452(16) -0.4646(11) -0.6328(6)
H28B H 0.0604 -0.4051 -0.6302
H29B H 0.0228 -0.4839 -0.6605
C26B C 0.1202(25) -0.473(2) -0.6265(10)
H30B H 0.1388 -0.4618 -0.5977
H31B H 0.1674 -0.4324 -0.6439
C27B C 0.0913(16) -0.5706(11) -0.6393(6)
H32B H 0.0433 -0.6103 -0.6223
H33B H 0.0738 -0.5806 -0.6682
C28B C 0.1702(16) -0.5843(11) -0.6322(6)
H34B H 0.1929 -0.5882 -0.6585
H35B H 0.1521 -0.6362 -0.6169
H36B H 0.2137 -0.5368 -0.6169
Se3 Se 0.27634(8) -0.15680(8) -0.39200(4)
O5 O 0.5037(6) -0.0158(5) -0.3828(3)
O6 O 0.0712(6) -0.3131(6) -0.3790(3)
C29 C 0.4710(9) -0.1003(9) -0.3899(4)
C30 C 0.3820(8) -0.1608(8) -0.3956(4)
C31 C 0.3605(7) -0.2452(7) -0.4019(4)
C32 C 0.2719(8) -0.3073(8) -0.4017(4)
C33 C 0.2141(8) -0.2800(8) -0.3950(4)
C34 C 0.1281(9) -0.3410(9) -0.3892(4)
C35 C 0.4515(8) 0.0214(8) -0.3888(4)
H37 H 0.4081 0.0022 -0.3673
H38 H 0.4230 0.0041 -0.4155
C36 C 0.5078(10) 0.1181(9) -0.3872(4)
H39 H 0.5394 0.1338 -0.3613
H40 H 0.5491 0.1363 -0.4096
C37 C 0.4586(10) 0.1646(8) -0.3906(5)
H41 H 0.4194 0.1489 -0.3673
H42 H 0.4247 0.1469 -0.4158
C38 C 0.5166(11) 0.2612(10) -0.3911(6)
H43 H 0.4824 0.2882 -0.3932
H44 H 0.5544 0.2772 -0.4146
H45 H 0.5496 0.2792 -0.3660
C39 C 0.0120(14) -0.3216(17) -0.4086(8)
H46 H -0.0315 -0.3814 -0.4113
H47 H 0.0402 -0.3020 -0.4352
C40 C -0.0283(13) -0.2710(15) -0.3968(8)
H48 H 0.0190 -0.2146 -0.3902
H49 H -0.0567 -0.2953 -0.3706
C41 C -0.0902(12) -0.2550(11) -0.4207(6)
H50 H -0.0639 -0.2323 -0.4474
H51 H -0.1400 -0.3106 -0.4260
C42 C -0.1205(12) -0.2033(12) -0.4066(6)
H52 H -0.1346 -0.1793 -0.4298
H53 H -0.0774 -0.1580 -0.3901
H54 H -0.1708 -0.2365 -0.3901
Se3A Se 0.15680(8) -0.56686(11) -0.39200(4)
O5A O 0.0158(5) -0.4805(8) -0.3828(3)
O6A O 0.3131(6) -0.6157(8) -0.3790(3)
C29A C 0.1003(9) -0.4287(13) -0.3899(4)
C30A C 0.1608(8) -0.4572(11) -0.3956(4)
C31A C 0.2452(7) -0.3943(10) -0.4019(4)
C32A C 0.3073(8) -0.4208(11) -0.4017(4)
C33A C 0.2800(8) -0.5059(11) -0.3950(4)
C34A C 0.3410(9) -0.5309(13) -0.3892(4)
C35A C -0.0214(8) -0.5699(11) -0.3888(4)
H37A H -0.0022 -0.5941 -0.3673
H38A H -0.0041 -0.5811 -0.4155
C36A C -0.1181(9) -0.6103(13) -0.3872(4)
H39A H -0.1338 -0.5944 -0.3613
H40A H -0.1363 -0.5872 -0.4096
C37A C -0.1646(8) -0.7060(13) -0.3906(5)
H41A H -0.1489 -0.7295 -0.3673
H42A H -0.1469 -0.7222 -0.4158
C38A C -0.2612(10) -0.7446(15) -0.3911(6)
H43A H -0.2882 -0.8058 -0.3932
H44A H -0.2772 -0.7228 -0.4146
H45A H -0.2792 -0.7296 -0.3660
C39A C 0.3216(17) -0.6664(22) -0.4086(8)
H46A H 0.3814 -0.6501 -0.4113
H47A H 0.3020 -0.6578 -0.4352
C40A C 0.2710(15) -0.7573(20) -0.3968(8)
H48A H 0.2146 -0.7664 -0.3902
H49A H 0.2953 -0.7614 -0.3706
C41A C 0.2550(11) -0.8352(16) -0.4207(6)
H50A H 0.2323 -0.8316 -0.4474
H51A H 0.3106 -0.8294 -0.4260
C42A C 0.2033(12) -0.9172(17) -0.4066(6)
H52A H 0.1793 -0.9553 -0.4298
H53A H 0.1580 -0.9194 -0.3901
H54A H 0.2365 -0.9343 -0.3901
Se3B Se 0.56686(11) -0.27634(8) -0.39200(4)
O5B O 0.4805(8) -0.5037(6) -0.3828(3)
O6B O 0.6157(8) -0.0712(6) -0.3790(3)
C29B C 0.4287(13) -0.4710(9) -0.3899(4)
C30B C 0.4572(11) -0.3820(8) -0.3956(4)
C31B C 0.3943(10) -0.3605(7) -0.4019(4)
C32B C 0.4208(11) -0.2719(8) -0.4017(4)
C33B C 0.5059(11) -0.2141(8) -0.3950(4)
C34B C 0.5309(13) -0.1281(9) -0.3892(4)
C35B C 0.5699(11) -0.4515(8) -0.3888(4)
H37B H 0.5941 -0.4081 -0.3673
H38B H 0.5811 -0.4230 -0.4155
C36B C 0.6103(13) -0.5078(10) -0.3872(4)
H39B H 0.5944 -0.5394 -0.3613
H40B H 0.5872 -0.5491 -0.4096
C37B C 0.7060(13) -0.4586(10) -0.3906(5)
H41B H 0.7295 -0.4194 -0.3673
H42B H 0.7222 -0.4247 -0.4158
C38B C 0.7446(15) -0.5166(11) -0.3911(6)
H43B H 0.8058 -0.4824 -0.3932
H44B H 0.7228 -0.5544 -0.4146
H45B H 0.7296 -0.5496 -0.3660
C39B C 0.6664(22) -0.0120(14) -0.4086(8)
H46B H 0.6501 0.0315 -0.4113
H47B H 0.6578 -0.0402 -0.4352
C40B C 0.7573(20) 0.0283(13) -0.3968(8)
H48B H 0.7664 -0.0190 -0.3902
H49B H 0.7614 0.0567 -0.3706
C41B C 0.8352(16) 0.0902(12) -0.4207(6)
H50B H 0.8316 0.0639 -0.4474
H51B H 0.8294 0.1400 -0.4260
C42B C 0.9172(17) 0.1205(12) -0.4066(6)
H52B H 0.9553 0.1346 -0.4298
H53B H 0.9194 0.0774 -0.3901
H54B H 0.9343 0.1708 -0.3901
loop_
_geom_bond_atom_site_label_1
_geom_bond_atom_site_label_2
_geom_bond_site_symmetry_1
_geom_bond_site_symmetry_2
Se1 C2 1_555 1_555
O1 C1 1_555 1_555
O2 C6 1_555 1_555
C1 C2 1_555 1_555
C2 C3 1_555 1_555
C3 C4 1_555 1_555
C4 C5 1_555 1_555
C5 Se1 1_555 1_555
C6 C5 1_555 1_555
C7 O1 1_555 1_555
H1 C7 1_555 1_555
H2 C7 1_555 1_555
C8 C7 1_555 1_555
H3 C8 1_555 1_555
H4 C8 1_555 1_555
C9 C8 1_555 1_555
H5 C9 1_555 1_555
H6 C9 1_555 1_555
C10 C9 1_555 1_555
H7 C10 1_555 1_555
H8 C10 1_555 1_555
H9 C10 1_555 1_555
C11 O2 1_555 1_555
H10 C11 1_555 1_555
H11 C11 1_555 1_555
C12 C11 1_555 1_555
H12 C12 1_555 1_555
H13 C12 1_555 1_555
C13 C12 1_555 1_555
H14 C13 1_555 1_555
H15 C13 1_555 1_555
C14 C13 1_555 1_555
H16 C14 1_555 1_555
H17 C14 1_555 1_555
H18 C14 1_555 1_555
Se2 C16 1_555 1_555
O3 C15 1_555 1_555
O4 C20 1_555 1_555
C15 C16 1_555 1_555
C16 C17 1_555 1_555
C17 C18 1_555 1_555
C18 C19 1_555 1_555
C19 Se2 1_555 1_555
C20 C19 1_555 1_555
C21 O3 1_555 1_555
H19 C21 1_555 1_555
H20 C21 1_555 1_555
C22 C21 1_555 1_555
H21 C22 1_555 1_555
H22 C22 1_555 1_555
C23 C22 1_555 1_555
H23 C23 1_555 1_555
H24 C23 1_555 1_555
C24 C23 1_555 1_555
H25 C24 1_555 1_555
H26 C24 1_555 1_555
H27 C24 1_555 1_555
C25 O4 1_555 1_555
H28 C25 1_555 1_555
H29 C25 1_555 1_555
C26 C25 1_555 1_555
H30 C26 1_555 1_555
H31 C26 1_555 1_555
C27 C26 1_555 1_555
H32 C27 1_555 1_555
H33 C27 1_555 1_555
C28 C27 1_555 1_555
H34 C28 1_555 1_555
H35 C28 1_555 1_555
H36 C28 1_555 1_555
Se3 C30 1_555 1_555
O5 C29 1_555 1_555
O6 C34 1_555 1_555
C29 C30 1_555 1_555
C30 C31 1_555 1_555
C31 C32 1_555 1_555
C32 C33 1_555 1_555
C33 Se3 1_555 1_555
C34 C33 1_555 1_555
C35 O5 1_555 1_555
H37 C35 1_555 1_555
H38 C35 1_555 1_555
C36 C35 1_555 1_555
H39 C36 1_555 1_555
H40 C36 1_555 1_555
C37 C36 1_555 1_555
H41 C37 1_555 1_555
H42 C37 1_555 1_555
C38 C37 1_555 1_555
H43 C38 1_555 1_555
H44 C38 1_555 1_555
H45 C38 1_555 1_555
C39 O6 1_555 1_555
H46 C39 1_555 1_555
H47 C39 1_555 1_555
C40 C39 1_555 1_555
H48 C40 1_555 1_555
H49 C40 1_555 1_555
C41 C40 1_555 1_555
H50 C41 1_555 1_555
H51 C41 1_555 1_555
C42 C41 1_555 1_555
H52 C42 1_555 1_555
H53 C42 1_555 1_555
H54 C42 1_555 1_555
Se1A C2A 1_555 1_555
O1A C1A 1_555 1_555
O2A C6A 1_555 1_555
C1A C6 1_555 1_555
C2A C1A 1_555 1_555
C3A C4 1_555 1_555
C4A C3A 1_555 1_555
C5A Se1A 1_555 1_555
C6A C5A 1_555 1_555
C7A O1A 1_555 1_555
H1A C7A 1_555 1_555
H2A C7A 1_555 1_555
C8A C7A 1_555 1_555
H3A C8A 1_555 1_555
H4A C8A 1_555 1_555
C9A C8A 1_555 1_555
H5A C9A 1_555 1_555
H6A C9A 1_555 1_555
C10A C9A 1_555 1_555
H7A C10A 1_555 1_555
H8A C10A 1_555 1_555
H9A C10A 1_555 1_555
C11A O2A 1_555 1_555
H10A C11A 1_555 1_555
H11A C11A 1_555 1_555
C12A C11A 1_555 1_555
H12A C12A 1_555 1_555
H13A C12A 1_555 1_555
C13A C12A 1_555 1_555
H14A C13A 1_555 1_555
H15A C13A 1_555 1_555
C14A C13A 1_555 1_555
H16A C14A 1_555 1_555
H17A C14A 1_555 1_555
H18A C14A 1_555 1_555
Se1B C2B 1_555 1_555
O1B C1B 1_555 1_555
O2B C6B 1_555 1_555
C1B C6A 1_555 1_555
C2B C1B 1_555 1_555
C3B C4A 1_555 1_555
C4B C3 1_555 1_555
C5B Se1B 1_555 1_555
C6B C1 1_555 1_555
C7B O1B 1_555 1_555
H1B C7B 1_555 1_555
H2B C7B 1_555 1_555
C8B C7B 1_555 1_555
H3B C8B 1_555 1_555
H4B C8B 1_555 1_555
C9B C8B 1_555 1_555
H5B C9B 1_555 1_555
H6B C9B 1_555 1_555
C10B C9B 1_555 1_555
H7B C10B 1_555 1_555
H8B C10B 1_555 1_555
H9B C10B 1_555 1_555
C11B O2B 1_555 1_555
H10B C11B 1_555 1_555
H11B C11B 1_555 1_555
C12B C11B 1_555 1_555
H12B C12B 1_555 1_555
H13B C12B 1_555 1_555
C13B C12B 1_555 1_555
H14B C13B 1_555 1_555
H15B C13B 1_555 1_555
C14B C13B 1_555 1_555
H16B C14B 1_555 1_555
H17B C14B 1_555 1_555
H18B C14B 1_555 1_555
Se2A C16A 1_555 1_555
O3A C15A 1_555 1_555
O4A C20A 1_555 1_555
C15A C20 1_555 1_555
C16A C15A 1_555 1_555
C17A C18 1_555 1_555
C18A C17A 1_555 1_555
C19A Se2A 1_555 1_555
C20A C19A 1_555 1_555
C21A O3A 1_555 1_555
H19A C21A 1_555 1_555
H20A C21A 1_555 1_555
C22A C21A 1_555 1_555
H21A C22A 1_555 1_555
H22A C22A 1_555 1_555
C23A C22A 1_555 1_555
H23A C23A 1_555 1_555
H24A C23A 1_555 1_555
C24A C23A 1_555 1_555
H25A C24A 1_555 1_555
H26A C24A 1_555 1_555
H27A C24A 1_555 1_555
C25A O4A 1_555 1_555
H28A C25A 1_555 1_555
H29A C25A 1_555 1_555
C26A C25A 1_555 1_555
H30A C26A 1_555 1_555
H31A C26A 1_555 1_555
C27A C26A 1_555 1_555
H32A C27A 1_555 1_555
H33A C27A 1_555 1_555
C28A C27A 1_555 1_555
H34A C28A 1_555 1_555
H35A C28A 1_555 1_555
H36A C28A 1_555 1_555
Se2B C16B 1_555 1_555
O3B C15B 1_555 1_555
O4B C20B 1_555 1_555
C15B C20A 1_555 1_555
C16B C15B 1_555 1_555
C17B C18A 1_555 1_555
C18B C17 1_555 1_555
C19B Se2B 1_555 1_555
C20B C15 1_555 1_555
C21B O3B 1_555 1_555
H19B C21B 1_555 1_555
H20B C21B 1_555 1_555
C22B C21B 1_555 1_555
H21B C22B 1_555 1_555
H22B C22B 1_555 1_555
C23B C22B 1_555 1_555
H23B C23B 1_555 1_555
H24B C23B 1_555 1_555
C24B C23B 1_555 1_555
H25B C24B 1_555 1_555
H26B C24B 1_555 1_555
H27B C24B 1_555 1_555
C25B O4B 1_555 1_555
H28B C25B 1_555 1_555
H29B C25B 1_555 1_555
C26B C25B 1_555 1_555
H30B C26B 1_555 1_555
H31B C26B 1_555 1_555
C27B C26B 1_555 1_555
H32B C27B 1_555 1_555
H33B C27B 1_555 1_555
C28B C27B 1_555 1_555
H34B C28B 1_555 1_555
H35B C28B 1_555 1_555
H36B C28B 1_555 1_555
Se3A C30A 1_555 1_555
O5A C29A 1_555 1_555
O6A C34A 1_555 1_555
C29A C34 1_555 1_555
C30A C29A 1_555 1_555
C31A C32 1_555 1_555
C32A C31A 1_555 1_555
C33A Se3A 1_555 1_555
C34A C33A 1_555 1_555
C35A O5A 1_555 1_555
H37A C35A 1_555 1_555
H38A C35A 1_555 1_555
C36A C35A 1_555 1_555
H39A C36A 1_555 1_555
H40A C36A 1_555 1_555
C37A C36A 1_555 1_555
H41A C37A 1_555 1_555
H42A C37A 1_555 1_555
C38A C37A 1_555 1_555
H43A C38A 1_555 1_555
H44A C38A 1_555 1_555
H45A C38A 1_555 1_555
C39A O6A 1_555 1_555
H46A C39A 1_555 1_555
H47A C39A 1_555 1_555
C40A C39A 1_555 1_555
H48A C40A 1_555 1_555
H49A C40A 1_555 1_555
C41A C40A 1_555 1_555
H50A C41A 1_555 1_555
H51A C41A 1_555 1_555
C42A C41A 1_555 1_555
H52A C42A 1_555 1_555
H53A C42A 1_555 1_555
H54A C42A 1_555 1_555
Se3B C30B 1_555 1_555
O5B C29B 1_555 1_555
O6B C34B 1_555 1_555
C29B C34A 1_555 1_555
C30B C29B 1_555 1_555
C31B C32A 1_555 1_555
C32B C31 1_555 1_555
C33B Se3B 1_555 1_555
C34B C29 1_555 1_555
C35B O5B 1_555 1_555
H37B C35B 1_555 1_555
H38B C35B 1_555 1_555
C36B C35B 1_555 1_555
H39B C36B 1_555 1_555
H40B C36B 1_555 1_555
C37B C36B 1_555 1_555
H41B C37B 1_555 1_555
H42B C37B 1_555 1_555
C38B C37B 1_555 1_555
H43B C38B 1_555 1_555
H44B C38B 1_555 1_555
H45B C38B 1_555 1_555
C39B O6B 1_555 1_555
H46B C39B 1_555 1_555
H47B C39B 1_555 1_555
C40B C39B 1_555 1_555
H48B C40B 1_555 1_555
H49B C40B 1_555 1_555
C41B C40B 1_555 1_555
H50B C41B 1_555 1_555
H51B C41B 1_555 1_555
C42B C41B 1_555 1_555
H52B C42B 1_555 1_555
H53B C42B 1_555 1_555
H54B C42B 1_555 1_555
C2A C3A 1_555 1_555
C4A C5A 1_555 1_555
C2B C3B 1_555 1_555
C3B C4B 1_555 1_555
C4B C5B 1_555 1_555
C5B C6B 1_555 1_555
C16A C17A 1_555 1_555
C18A C19A 1_555 1_555
C16B C17B 1_555 1_555
C17B C18B 1_555 1_555
C18B C19B 1_555 1_555
C19B C20B 1_555 1_555
C30A C31A 1_555 1_555
C32A C33A 1_555 1_555
C30B C31B 1_555 1_555
C31B C32B 1_555 1_555
C32B C33B 1_555 1_555
C33B C34B 1_555 1_555

#END
