
#######################################################################
#
#                 Cambridge Crystallographic Data Centre
#                                CCDC 
#
#######################################################################
#
# If this CIF has been generated from an entry in the Cambridge 
# Structural Database, then it will include bibliographic, chemical, 
# crystal, experimental, refinement or atomic coordinate data resulting 
# from the CCDC's data processing and validation procedures.
#
#######################################################################

data_CISNAV
_chemical_formula_moiety         'C36 H42 O6 S5'
_chemical_name_systematic        
3,4,7,8,10,11-Hexapropoxy[1,2]dithiino[3',4',5',6':4,5]thieno[2',3',4',5':8,9]triphenyleno[1,12-cde][1,2]dithiine
_symmetry_cell_setting           triclinic
_symmetry_space_group_name_H-M   'P -1'
_symmetry_Int_Tables_number      2
_space_group_name_Hall           '-P 1'
loop_
_symmetry_equiv_pos_site_id
_symmetry_equiv_pos_as_xyz
1 x,y,z
2 -x,-y,-z
_cell_length_a                   9.2700(5)
_cell_length_b                   16.7824(8)
_cell_length_c                   23.8391(11)
_cell_angle_alpha                90.559(4)
_cell_angle_beta                 92.592(4)
_cell_angle_gamma                94.389(4)
_cell_volume                     3693.73
_exptl_crystal_colour            yellow
_exptl_crystal_description       block
_chemical_melting_point          '352.8 K'
_cell_formula_units_Z            4
loop_
_atom_site_label
_atom_site_type_symbol
_atom_site_fract_x
_atom_site_fract_y
_atom_site_fract_z
C1 C 0.6881(5) 0.9958(3) 0.44739(19)
C2 C 0.7715(5) 1.0030(3) 0.49836(18)
C3 C 0.8503(5) 1.0784(3) 0.5055(2)
C4 C 0.8300(5) 1.1281(3) 0.45960(19)
C5 C 0.8834(5) 1.2071(3) 0.4632(2)
C6 C 0.9545(6) 1.2345(3) 0.5129(2)
C7 C 0.9717(6) 1.1848(3) 0.5591(2)
C8 C 0.9217(5) 1.1042(3) 0.55584(19)
C9 C 0.9312(5) 1.0438(3) 0.60026(19)
C10 C 1.0191(5) 1.0587(3) 0.6494(2)
C11 C 1.0308(6) 1.0014(3) 0.6901(2)
C12 C 0.9581(5) 0.9267(3) 0.6829(2)
C13 C 0.8743(5) 0.9086(3) 0.63436(19)
C14 C 0.8534(5) 0.9673(3) 0.59288(18)
C15 C 0.7637(5) 0.9479(3) 0.54196(19)
C16 C 0.6610(5) 0.8815(3) 0.5317(2)
C17 C 0.5812(5) 0.8727(3) 0.4811(2)
C18 C 0.5923(6) 0.9294(3) 0.4384(2)
C19 C 0.7498(7) 1.3084(4) 0.4222(3)
H1 H 0.7761 1.3495 0.4505
H2 H 0.6631 1.2778 0.4336
C20 C 0.7212(9) 1.3452(5) 0.3683(4)
H3 H 0.8077 1.3770 0.3582
H4 H 0.7012 1.3034 0.3400
C21 C 0.6010(12) 1.3958(6) 0.3675(5)
H5 H 0.5876 1.4174 0.3306
H6 H 0.6214 1.4387 0.3943
H7 H 0.5144 1.3648 0.3770
C22 C 1.1214(9) 1.3426(5) 0.4943(4)
H8 H 1.1027 1.3406 0.4539
H9 H 1.1970 1.3072 0.5033
C23 C 1.1720(10) 1.4230(5) 0.5110(4)
H10 H 1.0924 1.4567 0.5053
H11 H 1.1974 1.4233 0.5509
C24 C 1.2933(14) 1.4581(7) 0.4827(5)
H12 H 1.3166 1.5116 0.4965
H13 H 1.2697 1.4591 0.4431
H14 H 1.3749 1.4270 0.4894
C25 C 1.0571(9) 1.0345(5) 0.7856(3)
H15 H 0.9855 0.9919 0.7946
H16 H 1.0109 1.0844 0.7828
C26 C 1.1030(7) 0.8293(4) 0.7241(3)
H17 H 1.1847 0.8663 0.7355
H18 H 1.1186 0.8088 0.6868
C27 C 1.0894(10) 0.7614(5) 0.7650(3)
H19 H 1.0098 0.7242 0.7517
H20 H 1.1771 0.7334 0.7646
C28 C 1.0669(12) 0.7824(6) 0.8196(4)
H21 H 1.0608 0.7353 0.8422
H22 H 0.9782 0.8082 0.8210
H23 H 1.1461 0.8183 0.8338
C29 C 0.5120(9) 0.7485(5) 0.4382(3)
H24 H 0.6105 0.7365 0.4484
H25 H 0.5143 0.7722 0.4013
C30 C 0.4926(9) 0.9604(5) 0.3475(3)
H26 H 0.5879 0.9713 0.3329
H27 H 0.4566 1.0108 0.3583
C31 C 0.3900(9) 0.9186(5) 0.3023(3)
H28 H 0.3067 0.8925 0.3197
H29 H 0.3559 0.9578 0.2763
C32 C 0.4628(14) 0.8614(9) 0.2730(6)
H30 H 0.5580 0.8837 0.2649
H31 H 0.4095 0.8469 0.2385
H32 H 0.4705 0.8148 0.2957
O1 O 0.8648(4) 1.2569(2) 0.41831(15)
O2 O 0.9946(5) 1.3150(2) 0.52070(16)
O3 O 1.1263(4) 1.0171(2) 0.73554(16)
O4 O 0.9711(4) 0.8693(2) 0.72348(14)
O5 O 0.4769(4) 0.8094(2) 0.47605(16)
O6 O 0.5016(5) 0.9129(3) 0.39266(18)
S1 S 0.71902(15) 1.08218(8) 0.40649(5)
S2 S 1.0296(2) 1.23076(10) 0.62368(7)
S3 S 1.14523(19) 1.14351(10) 0.65702(7)
S4 S 0.81706(15) 0.80693(8) 0.62258(6)
S5 S 0.61634(15) 0.81466(9) 0.58579(6)
C33 C 0.427(2) 0.6726(13) 0.4318(8)
H33 H 0.3741 0.6608 0.4651
H34 H 0.4898 0.6299 0.4253
C34 C 0.327(3) 0.681(2) 0.3829(15)
H35 H 0.3814 0.6861 0.3495
H36 H 0.2757 0.7279 0.3878
H37 H 0.2599 0.6348 0.3795
C35 C 1.256(3) 1.0204(15) 0.8498(13)
H38 H 1.3375 1.0217 0.8262
H39 H 1.2043 0.9686 0.8469
H40 H 1.2896 1.0308 0.8880
C36 C 1.155(2) 1.0846(12) 0.8308(10)
H41 H 1.2077 1.1301 0.8144
H42 H 1.0993 1.1026 0.8613
C42 C 0.8028(6) 0.5697(3) -0.0186(2)
C43 C 0.7231(5) 0.4980(3) -0.0063(2)
C44 C 0.6460(5) 0.4633(3) -0.0540(2)
C45 C 0.6657(5) 0.5089(3) -0.1027(2)
C46 C 0.6135(6) 0.4780(4) -0.1538(2)
C47 C 0.5445(6) 0.4015(4) -0.1558(2)
C48 C 0.5287(6) 0.3557(3) -0.1078(2)
C49 C 0.5765(5) 0.3866(3) -0.0548(2)
C50 C 0.5690(5) 0.3469(3) -0.0001(2)
C51 C 0.4815(6) 0.2749(3) 0.0057(2)
C52 C 0.4689(6) 0.2396(3) 0.0574(3)
C53 C 0.5383(6) 0.2745(3) 0.1049(2)
C54 C 0.6223(5) 0.3459(3) 0.1013(2)
C55 C 0.6435(5) 0.3822(3) 0.0485(2)
C56 C 0.7312(5) 0.4580(3) 0.0441(2)
C57 C 0.8314(6) 0.4941(3) 0.0852(2)
C58 C 0.9115(6) 0.5653(4) 0.0744(3)
C59 C 0.8985(7) 0.6042(4) 0.0230(3)
C60 C 0.7477(7) 0.5029(5) -0.2349(3)
H62 H 0.7242 0.4504 -0.2518
H63 H 0.8361 0.5011 -0.2117
C61 C 0.7687(10) 0.5634(6) -0.2793(4)
H64 H 0.6800 0.5634 -0.3025
H65 H 0.7861 0.6158 -0.2617
C62 C 0.8837(13) 0.5509(7) -0.3141(4)
H66 H 0.8912 0.5924 -0.3415
H67 H 0.8660 0.5000 -0.3329
H68 H 0.9725 0.5516 -0.2917
C63 C 0.3711(12) 0.3966(8) -0.2318(5)
H69 H 0.2993 0.3926 -0.2034
H70 H 0.3915 0.4530 -0.2390
C64 C 0.3113(15) 0.3646(9) -0.2770(5)
H71 H 0.2730 0.3109 -0.2685
H72 H 0.3858 0.3599 -0.3039
C65 C 0.1945(19) 0.4064(7) -0.3040(5)
H73 H 0.1558 0.3766 -0.3365
H74 H 0.2318 0.4586 -0.3150
H75 H 0.1194 0.4115 -0.2780
C66 C 0.4464(10) 0.1009(5) 0.0678(4)
H76 H 0.4868 0.0994 0.1060
H77 H 0.5270 0.1035 0.0431
C67 C 0.3939(7) 0.2508(4) 0.1837(3)
H78 H 0.3141 0.2179 0.1656
H79 H 0.3726 0.3064 0.1809
C68 C 0.4133(16) 0.2278(7) 0.2458(5)
H80 H 0.4980 0.2577 0.2629
H81 H 0.3294 0.2410 0.2659
C69 C 0.4313(17) 0.1380(7) 0.2499(5)
H82 H 0.3519 0.1088 0.2296
H83 H 0.4325 0.1227 0.2886
H84 H 0.5206 0.1263 0.2339
C70 C 0.9819(13) 0.6613(6) 0.1410(4)
H85 H 0.8977 0.6497 0.1631
H86 H 0.9589 0.7010 0.1134
C71 C 1.1044(14) 0.6917(8) 0.1773(6)
H87 H 1.1261 0.6505 0.2039
H88 H 1.1878 0.7007 0.1543
C72 C 1.0890(17) 0.7583(9) 0.2058(7)
H89 H 1.1766 0.7734 0.2276
H90 H 1.0102 0.7498 0.2304
H91 H 1.0690 0.8002 0.1801
O7 O 0.6329(4) 0.5238(2) -0.20127(15)
O8 O 0.5026(6) 0.3674(3) -0.20719(18)
O9 O 0.3758(5) 0.1721(3) 0.06176(17)
O10 O 0.5268(4) 0.2384(2) 0.15673(15)
O11 O 1.0172(5) 0.5926(3) 0.1144(2)
O12 O 0.9863(7) 0.6720(3) 0.0182(2)
S6 S 0.77392(16) 0.59680(9) -0.08887(6)
S7 S 0.4751(2) 0.25368(11) -0.11746(8)
S8 S 0.3582(2) 0.23565(11) -0.04829(7)
S9 S 0.67667(16) 0.39584(9) 0.16495(6)
S10 S 0.87767(16) 0.44391(10) 0.14740(6)
C73 C 0.9959(11) 0.7167(5) -0.0241(4)
H92 H 0.9016 0.7350 -0.0344
H93 H 1.0275 0.6866 -0.0557
C74 C 1.1091(16) 0.7921(6) -0.0104(7)
H94 H 1.1818 0.7794 0.0180
H95 H 1.1569 0.8102 -0.0439
C75 C 1.033(3) 0.842(3) 0.0067(16)
H96 H 0.9675 0.8563 -0.0231
H97 H 1.0923 0.8880 0.0198
H98 H 0.9785 0.8198 0.0371
C76 C 0.358(3) 0.0249(15) 0.0561(10)
H99 H 0.4179 -0.0202 0.0552
H100 H 0.3011 0.0266 0.0211
C77 C 0.263(3) 0.0226(16) 0.1075(10)
H101 H 0.1814 0.0535 0.1000
H102 H 0.3187 0.0446 0.1397
H103 H 0.2294 -0.0317 0.1147
H43? H 1.0225 0.9845 0.8023
H44? H 0.9732 1.0636 0.7759
H45? H 0.5647 0.7080 0.4572
H46? H 0.5674 0.7702 0.4075
C37? C 0.351(2) 0.7145(11) 0.4172(8)
H47? H 0.2914 0.7007 0.4485
H48? H 0.3043 0.7524 0.3935
C38? C 0.386(3) 0.6364(12) 0.3821(11)
H49? H 0.3755 0.6466 0.3426
H50? H 0.3204 0.5921 0.3915
H51? H 0.4838 0.6238 0.3912
H52? H 0.3915 0.8610 0.3051
H53? H 0.2917 0.9329 0.3067
C39? C 0.437(5) 0.943(3) 0.2530(17)
H54? H 0.4576 1.0003 0.2542
H55? H 0.3643 0.9293 0.2240
H56? H 0.5239 0.9182 0.2452
C40? C 1.190(3) 1.0412(16) 0.8308(9)
H57? H 1.2447 0.9947 0.8279
H58? H 1.2531 1.0883 0.8237
C41? C 1.138(3) 1.0464(13) 0.8849(8)
H59? H 1.0666 1.0851 0.8854
H60? H 1.2166 1.0626 0.9110
H61? H 1.0945 0.9952 0.8953
H104? H 0.5159 0.1045 0.0996
H105? H 0.4958 0.0885 0.0341
C78? C 0.316(3) 0.0362(15) 0.0779(13)
H106? H 0.2543 0.0562 0.1057
H107? H 0.2589 0.0259 0.0432
H108? H 0.3131 0.2471 0.1562
H109? H 0.3999 0.3035 0.2012
C79? C 0.493(4) 0.198(3) 0.2677(15)
H110? H 0.5776 0.1793 0.2514
H111? H 0.4732 0.1688 0.3012
H112? H 0.5106 0.2539 0.2769
C80? C 0.371(3) 0.186(2) 0.2282(12)
H113? H 0.2817 0.1920 0.2467
H114? H 0.3676 0.1335 0.2111
H115? H 1.1170 0.8003 0.0300
H116? H 1.2034 0.7792 -0.0223
C81? C 0.375(3) -0.0386(12) 0.0979(10)
H117? H 0.4540 -0.0510 0.0753
H118? H 0.3005 -0.0815 0.0948
H119? H 0.4094 -0.0319 0.1363
C82? C 1.079(6) 0.856(3) -0.0326(18)
H120? H 1.0635 0.8479 -0.0724
H121? H 1.1582 0.8958 -0.0254
H122? H 0.9932 0.8737 -0.0171
loop_
_geom_bond_atom_site_label_1
_geom_bond_atom_site_label_2
_geom_bond_site_symmetry_1
_geom_bond_site_symmetry_2
C1 C2 1_555 1_555
C2 C3 1_555 1_555
C3 C4 1_555 1_555
C4 C5 1_555 1_555
C5 C6 1_555 1_555
C6 C7 1_555 1_555
C7 C8 1_555 1_555
C8 C3 1_555 1_555
C9 C8 1_555 1_555
C10 C9 1_555 1_555
C11 C10 1_555 1_555
C12 C11 1_555 1_555
C13 C12 1_555 1_555
C14 C9 1_555 1_555
C15 C2 1_555 1_555
C16 C15 1_555 1_555
C17 C16 1_555 1_555
C18 C1 1_555 1_555
C19 H1 1_555 1_555
H2 C19 1_555 1_555
C20 C19 1_555 1_555
H3 C20 1_555 1_555
H4 C20 1_555 1_555
C21 C20 1_555 1_555
H5 C21 1_555 1_555
H6 C21 1_555 1_555
H7 C21 1_555 1_555
C22 H8 1_555 1_555
H9 C22 1_555 1_555
C23 C22 1_555 1_555
H10 C23 1_555 1_555
H11 C23 1_555 1_555
C24 C23 1_555 1_555
H12 C24 1_555 1_555
H13 C24 1_555 1_555
H14 C24 1_555 1_555
C25 H15 1_555 1_555
H16 C25 1_555 1_555
C26 H17 1_555 1_555
H18 C26 1_555 1_555
C27 C26 1_555 1_555
H19 C27 1_555 1_555
H20 C27 1_555 1_555
C28 C27 1_555 1_555
H21 C28 1_555 1_555
H22 C28 1_555 1_555
H23 C28 1_555 1_555
C29 H24 1_555 1_555
H25 C29 1_555 1_555
C30 H26 1_555 1_555
H27 C30 1_555 1_555
C31 C30 1_555 1_555
H28 C31 1_555 1_555
H29 C31 1_555 1_555
C32 C31 1_555 1_555
H30 C32 1_555 1_555
H31 C32 1_555 1_555
H32 C32 1_555 1_555
O1 C5 1_555 1_555
O2 C6 1_555 1_555
O3 C11 1_555 1_555
O4 C12 1_555 1_555
O5 C17 1_555 1_555
O6 C18 1_555 1_555
S1 C1 1_555 1_555
S2 C7 1_555 1_555
S3 C10 1_555 1_555
S4 C13 1_555 1_555
S5 C16 1_555 1_555
C33 C29 1_555 1_555
H33 C33 1_555 1_555
H34 C33 1_555 1_555
C34 C33 1_555 1_555
H35 C34 1_555 1_555
H36 C34 1_555 1_555
H37 C34 1_555 1_555
C35 H38 1_555 1_555
H39 C35 1_555 1_555
H40 C35 1_555 1_555
C36 C25 1_555 1_555
H41 C36 1_555 1_555
H42 C36 1_555 1_555
C42 C43 1_555 1_555
C43 C44 1_555 1_555
C44 C45 1_555 1_555
C45 C46 1_555 1_555
C46 C47 1_555 1_555
C47 C48 1_555 1_555
C48 C49 1_555 1_555
C49 C44 1_555 1_555
C50 C49 1_555 1_555
C51 C50 1_555 1_555
C52 C51 1_555 1_555
C53 C52 1_555 1_555
C54 C53 1_555 1_555
C55 C50 1_555 1_555
C56 C43 1_555 1_555
C57 C56 1_555 1_555
C58 C57 1_555 1_555
C59 C42 1_555 1_555
C60 H62 1_555 1_555
H63 C60 1_555 1_555
C61 C60 1_555 1_555
H64 C61 1_555 1_555
H65 C61 1_555 1_555
C62 C61 1_555 1_555
H66 C62 1_555 1_555
H67 C62 1_555 1_555
H68 C62 1_555 1_555
C63 H69 1_555 1_555
H70 C63 1_555 1_555
C64 C63 1_555 1_555
H71 C64 1_555 1_555
H72 C64 1_555 1_555
C65 C64 1_555 1_555
H73 C65 1_555 1_555
H74 C65 1_555 1_555
H75 C65 1_555 1_555
C66 H76 1_555 1_555
H77 C66 1_555 1_555
C67 H78 1_555 1_555
H79 C67 1_555 1_555
C68 C67 1_555 1_555
H80 C68 1_555 1_555
H81 C68 1_555 1_555
C69 C68 1_555 1_555
H82 C69 1_555 1_555
H83 C69 1_555 1_555
H84 C69 1_555 1_555
C70 H85 1_555 1_555
H86 C70 1_555 1_555
C71 C70 1_555 1_555
H87 C71 1_555 1_555
H88 C71 1_555 1_555
C72 C71 1_555 1_555
H89 C72 1_555 1_555
H90 C72 1_555 1_555
H91 C72 1_555 1_555
O7 C46 1_555 1_555
O8 C47 1_555 1_555
O9 C52 1_555 1_555
O10 C53 1_555 1_555
O11 C58 1_555 1_555
O12 C59 1_555 1_555
S6 C42 1_555 1_555
S7 C48 1_555 1_555
S8 C51 1_555 1_555
S9 C54 1_555 1_555
S10 C57 1_555 1_555
C73 O12 1_555 1_555
H92 C73 1_555 1_555
H93 C73 1_555 1_555
C74 C73 1_555 1_555
H94 C74 1_555 1_555
H95 C74 1_555 1_555
C75 C74 1_555 1_555
H96 C75 1_555 1_555
H97 C75 1_555 1_555
H98 C75 1_555 1_555
C76 C66 1_555 1_555
H99 C76 1_555 1_555
H100 C76 1_555 1_555
C77 C76 1_555 1_555
H101 C77 1_555 1_555
H102 C77 1_555 1_555
H103 C77 1_555 1_555
C4 S1 1_555 1_555
C13 C14 1_555 1_555
C14 C15 1_555 1_555
C17 C18 1_555 1_555
C19 O1 1_555 1_555
C22 O2 1_555 1_555
C25 O3 1_555 1_555
C26 O4 1_555 1_555
C29 O5 1_555 1_555
C30 O6 1_555 1_555
S2 S3 1_555 1_555
S4 S5 1_555 1_555
C35 C36 1_555 1_555
C45 S6 1_555 1_555
C54 C55 1_555 1_555
C55 C56 1_555 1_555
C58 C59 1_555 1_555
C60 O7 1_555 1_555
C63 O8 1_555 1_555
C66 O9 1_555 1_555
C67 O10 1_555 1_555
C70 O11 1_555 1_555
S7 S8 1_555 1_555
S9 S10 1_555 1_555

#END
