
#######################################################################
#
#                 Cambridge Crystallographic Data Centre
#                                CCDC 
#
#######################################################################
#
# If this CIF has been generated from an entry in the Cambridge 
# Structural Database, then it will include bibliographic, chemical, 
# crystal, experimental, refinement or atomic coordinate data resulting 
# from the CCDC's data processing and validation procedures.
#
#######################################################################

data_CISVIL
_chemical_formula_moiety         'C25 H25 Br1 N2 O7,C1 H2 Cl2'
_chemical_name_systematic        
"1-t-Butyl 8'-ethyl 5-bromo-5'-cyano-6'-hydroxy-2-oxo-8',8a'-dihydro-1'H,3'H-spiro[indole-3,7'-isochromene]-1,8'(2H)-dicarboxylate dichloromethane solvate"
_symmetry_cell_setting           orthorhombic
_symmetry_space_group_name_H-M   'P 21 21 21'
_symmetry_Int_Tables_number      19
_space_group_name_Hall           'P 2ac 2ab'
loop_
_symmetry_equiv_pos_site_id
_symmetry_equiv_pos_as_xyz
1 x,y,z
2 1/2-x,-y,1/2+z
3 1/2+x,1/2-y,-z
4 -x,1/2+y,1/2-z
_cell_length_a                   9.4105(11)
_cell_length_b                   11.8792(14)
_cell_length_c                   25.961(4)
_cell_angle_alpha                90
_cell_angle_beta                 90
_cell_angle_gamma                90
_cell_volume                     2902.16
_exptl_crystal_colour            colorless
_exptl_crystal_description       block
_cell_formula_units_Z            4
loop_
_atom_site_label
_atom_site_type_symbol
_atom_site_fract_x
_atom_site_fract_y
_atom_site_fract_z
Br1 Br 1.13930(12) 0.36081(11) 0.25100(6)
O1 O 0.5010(7) 0.4748(5) 0.2883(3)
H1 H 0.5260 0.4109 0.2805
O2 O 0.4393(6) 0.3565(5) 0.4009(2)
O3 O 0.8955(8) 0.7599(7) 0.4435(3)
O4 O 0.7380(8) 0.3180(5) 0.4577(2)
O5 O 0.9364(9) 0.4121(7) 0.4428(3)
O6 O 0.5569(7) 0.0516(5) 0.3338(3)
O7 O 0.3838(6) 0.1494(5) 0.3718(2)
N1 N 0.5862(7) 0.2368(5) 0.3539(2)
N2 N 0.4987(9) 0.7572(6) 0.2646(3)
C1 C 0.7644(7) 0.3613(7) 0.3327(3)
C2 C 0.7209(8) 0.2501(7) 0.3300(3)
C3 C 0.8039(8) 0.1714(7) 0.3044(3)
H2 H 0.7769 0.0961 0.3029
C4 C 0.9281(9) 0.2078(8) 0.2811(3)
H3 H 0.9846 0.1561 0.2636
C5 C 0.9696(9) 0.3180(8) 0.2833(3)
C6 C 0.8897(9) 0.3953(6) 0.3096(3)
H4 H 0.9195 0.4698 0.3120
C7 C 0.6565(8) 0.4300(6) 0.3620(3)
C8 C 0.5441(9) 0.3404(7) 0.3754(3)
C9 C 0.5898(8) 0.5162(6) 0.3268(3)
C10 C 0.6128(7) 0.6280(7) 0.3318(3)
C11 C 0.7014(9) 0.6771(7) 0.3722(3)
C12 C 0.7890(10) 0.5973(7) 0.4038(3)
H5 H 0.8769 0.5814 0.3849
C13 C 0.7108(9) 0.4852(6) 0.4126(3)
H6 H 0.6292 0.4990 0.4352
C14 C 0.7097(12) 0.7863(8) 0.3803(3)
H7 H 0.6563 0.8339 0.3595
C15 C 0.8001(15) 0.8375(9) 0.4212(4)
H8 H 0.8538 0.8994 0.4065
H9 H 0.7394 0.8681 0.4479
C16 C 0.8282(12) 0.6563(9) 0.4541(3)
H10 H 0.7431 0.6694 0.4743
H11 H 0.8915 0.6087 0.4740
C17 C 0.5487(9) 0.7012(7) 0.2958(4)
C18 C 0.8105(13) 0.4046(8) 0.4393(4)
C19 C 0.8235(14) 0.2276(9) 0.4807(5)
H12 H 0.9119 0.2196 0.4618
H13 H 0.8462 0.2466 0.5161
C20 C 0.7479(15) 0.1254(10) 0.4793(6)
H14 H 0.7057 0.1159 0.4460
H15 H 0.6746 0.1265 0.5051
H16 H 0.8117 0.0641 0.4861
C21 C 0.5103(9) 0.1345(8) 0.3523(3)
C22 C 0.2798(10) 0.0535(9) 0.3743(4)
C23 C 0.2487(12) 0.0140(10) 0.3207(4)
H17 H 0.2285 0.0777 0.2992
H18 H 0.1680 -0.0354 0.3212
H19 H 0.3297 -0.0256 0.3074
C24 C 0.1508(11) 0.1108(10) 0.3975(5)
H20 H 0.1696 0.1292 0.4328
H21 H 0.0706 0.0610 0.3956
H22 H 0.1305 0.1784 0.3786
C25 C 0.3382(12) -0.0368(10) 0.4087(5)
H23 H 0.4130 -0.0761 0.3912
H24 H 0.2639 -0.0889 0.4174
H25 H 0.3750 -0.0034 0.4396
Cl1 Cl 0.3294(4) 0.6445(3) 0.43785(12)
Cl2 Cl 0.1716(4) 0.6534(4) 0.34273(13)
C26 C 0.2185(13) 0.5723(11) 0.3940(5)
H26 H 0.2675 0.5057 0.3817
H27 H 0.1332 0.5479 0.4118
loop_
_geom_bond_atom_site_label_1
_geom_bond_atom_site_label_2
_geom_bond_site_symmetry_1
_geom_bond_site_symmetry_2
Br1 C5 1_555 1_555
O1 H1 1_555 1_555
O2 C8 1_555 1_555
O3 C15 1_555 1_555
O4 C18 1_555 1_555
O5 C18 1_555 1_555
O6 C21 1_555 1_555
O7 C21 1_555 1_555
N1 C2 1_555 1_555
N2 C17 1_555 1_555
C1 C2 1_555 1_555
C2 C3 1_555 1_555
C3 H2 1_555 1_555
C4 C3 1_555 1_555
H3 C4 1_555 1_555
C5 C4 1_555 1_555
C6 C1 1_555 1_555
H4 C6 1_555 1_555
C7 C1 1_555 1_555
C8 N1 1_555 1_555
C9 O1 1_555 1_555
C10 C9 1_555 1_555
C11 C10 1_555 1_555
C12 C11 1_555 1_555
H5 C12 1_555 1_555
C13 C7 1_555 1_555
H6 C13 1_555 1_555
C14 C11 1_555 1_555
H7 C14 1_555 1_555
C15 C14 1_555 1_555
H8 C15 1_555 1_555
H9 C15 1_555 1_555
C16 O3 1_555 1_555
H10 C16 1_555 1_555
H11 C16 1_555 1_555
C17 C10 1_555 1_555
C18 C13 1_555 1_555
C19 O4 1_555 1_555
H12 C19 1_555 1_555
H13 C19 1_555 1_555
C20 C19 1_555 1_555
H14 C20 1_555 1_555
H15 C20 1_555 1_555
H16 C20 1_555 1_555
C21 N1 1_555 1_555
C22 O7 1_555 1_555
C23 C22 1_555 1_555
H17 C23 1_555 1_555
H18 C23 1_555 1_555
H19 C23 1_555 1_555
C24 C22 1_555 1_555
H20 C24 1_555 1_555
H21 C24 1_555 1_555
H22 C24 1_555 1_555
C25 C22 1_555 1_555
H23 C25 1_555 1_555
H24 C25 1_555 1_555
H25 C25 1_555 1_555
Cl1 C26 1_555 1_555
Cl2 C26 1_555 1_555
C26 H26 1_555 1_555
H27 C26 1_555 1_555
C5 C6 1_555 1_555
C7 C8 1_555 1_555
C7 C9 1_555 1_555
C12 C13 1_555 1_555
C12 C16 1_555 1_555

#END
