
#######################################################################
#
#                 Cambridge Crystallographic Data Centre
#                                CCDC 
#
#######################################################################
#
# If this CIF has been generated from an entry in the Cambridge 
# Structural Database, then it will include bibliographic, chemical, 
# crystal, experimental, refinement or atomic coordinate data resulting 
# from the CCDC's data processing and validation procedures.
#
#######################################################################

data_CISYUA
_chemical_formula_moiety         'C52 H56 Si2'
_chemical_name_systematic        
(Pyranthrene-8,16-diyldiethyne-2,1-diyl)bis(triisopropylsilane)
_symmetry_cell_setting           monoclinic
_symmetry_space_group_name_H-M   'I 2/a'
_symmetry_Int_Tables_number      15
_space_group_name_Hall           '-I 2ya'
loop_
_symmetry_equiv_pos_site_id
_symmetry_equiv_pos_as_xyz
1 x,y,z
2 1/2-x,y,-z
3 1/2+x,1/2+y,1/2+z
4 -x,1/2+y,1/2-z
5 -x,-y,-z
6 1/2+x,-y,z
7 1/2-x,1/2-y,1/2-z
8 x,1/2-y,1/2+z
_cell_length_a                   29.5679(8)
_cell_length_b                   7.7714(2)
_cell_length_c                   37.8690(13)
_cell_angle_alpha                90
_cell_angle_beta                 110.200(2)
_cell_angle_gamma                90
_cell_volume                     8166.47
_exptl_crystal_colour            'very dark red'
_exptl_crystal_description       needle
_cell_formula_units_Z            8
loop_
_atom_site_label
_atom_site_type_symbol
_atom_site_fract_x
_atom_site_fract_y
_atom_site_fract_z
Si1 Si 0.37722(3) 0.77468(10) 0.45277(2)
C1 C 0.35569(11) 0.4435(4) 0.35162(8)
C2 C 0.39658(11) 0.3873(4) 0.34282(8)
C3 C 0.44429(11) 0.4159(4) 0.36817(9)
H1 H 0.4491 0.4763 0.3910
C4 C 0.48323(11) 0.3576(4) 0.36013(9)
H2 H 0.5148 0.3765 0.3775
C5 C 0.47684(12) 0.2701(4) 0.32637(9)
H3 H 0.5041 0.2305 0.3209
C6 C 0.43133(11) 0.2416(4) 0.30133(9)
H4 H 0.4275 0.1832 0.2784
C7 C 0.39022(11) 0.2970(4) 0.30875(8)
C8 C 0.34165(11) 0.2674(4) 0.28264(8)
C9 C 0.30193(11) 0.3222(4) 0.29226(8)
C10 C 0.25397(11) 0.2920(4) 0.26736(8)
C11 C 0.21382(11) 0.3467(4) 0.27686(8)
C12 C 0.22211(11) 0.4330(4) 0.31197(8)
H5 H 0.1954 0.4700 0.3185
C13 C 0.26757(11) 0.4627(4) 0.33599(8)
H6 H 0.2720 0.5198 0.3591
C14 C 0.30898(11) 0.4102(4) 0.32733(8)
C15 C 0.33282(11) 0.1837(4) 0.24770(8)
H7 H 0.3593 0.1475 0.2409
C16 C 0.36302(11) 0.5400(4) 0.38546(9)
C17 C 0.36948(11) 0.6251(4) 0.41337(9)
C18 C 0.32308(12) 0.7514(4) 0.46789(9)
H8 H 0.3251 0.8443 0.4866
C19 C 0.32316(13) 0.5794(5) 0.48744(11)
H9 H 0.2947 0.5724 0.4951
H10 H 0.3524 0.5704 0.5097
H11 H 0.3224 0.4851 0.4701
C20 C 0.27568(12) 0.7762(5) 0.43504(11)
H12 H 0.2486 0.7637 0.4441
H13 H 0.2731 0.6895 0.4157
H14 H 0.2750 0.8914 0.4243
C21 C 0.37759(13) 0.9972(4) 0.43268(9)
H15 H 0.3450 1.0121 0.4130
C22 C 0.41360(16) 1.0186(5) 0.41210(12)
H16 H 0.4072 1.1271 0.3980
H17 H 0.4102 0.9225 0.3946
H18 H 0.4464 1.0199 0.4305
C23 C 0.38229(16) 1.1424(4) 0.46100(12)
H19 H 0.3773 1.2534 0.4479
H20 H 0.4145 1.1395 0.4802
H21 H 0.3580 1.1274 0.4730
C24 C 0.43348(11) 0.7067(4) 0.49248(9)
H22 H 0.4290 0.5827 0.4975
C25 C 0.47899(13) 0.7160(5) 0.48227(11)
H23 H 0.5058 0.6629 0.5023
H24 H 0.4867 0.8366 0.4793
H25 H 0.4737 0.6544 0.4586
C26 C 0.44058(13) 0.8027(4) 0.52924(9)
H26 H 0.4684 0.7545 0.5493
H27 H 0.4116 0.7901 0.5361
H28 H 0.4463 0.9249 0.5260
Si1F Si 0.12278(3) -0.27468(10) 0.04723(2)
C1F C 0.14431(11) 0.0565(4) 0.14838(8)
C2F C 0.10342(11) 0.1127(4) 0.15718(8)
C3F C 0.05571(11) 0.0841(4) 0.13183(9)
H1F H 0.0509 0.0237 0.1090
C4F C 0.01677(11) 0.1424(4) 0.13987(9)
H2F H -0.0148 0.1235 0.1225
C5F C 0.02316(12) 0.2299(4) 0.17363(9)
H3F H -0.0041 0.2695 0.1791
C6F C 0.06867(11) 0.2584(4) 0.19867(9)
H4F H 0.0725 0.3168 0.2216
C7F C 0.10978(11) 0.2030(4) 0.19125(8)
C8F C 0.15835(11) 0.2326(4) 0.21736(8)
C9F C 0.19807(11) 0.1778(4) 0.20774(8)
C10F C 0.24603(11) 0.2080(4) 0.23264(8)
C11F C 0.28618(11) 0.1533(4) 0.22314(8)
C12F C 0.27789(11) 0.0670(4) 0.18803(8)
H5F H 0.3046 0.0300 0.1815
C13F C 0.23243(11) 0.0373(4) 0.16401(8)
H6F H 0.2280 -0.0198 0.1409
C14F C 0.19102(11) 0.0898(4) 0.17267(8)
C15F C 0.16718(11) 0.3163(4) 0.25230(8)
H7F H 0.1407 0.3525 0.2591
C16F C 0.13698(11) -0.0400(4) 0.11454(9)
C17F C 0.13052(11) -0.1251(4) 0.08663(9)
C18F C 0.17692(12) -0.2514(4) 0.03211(9)
H8F H 0.1749 -0.3443 0.0134
C19F C 0.17684(13) -0.0794(5) 0.01256(11)
H9F H 0.2053 -0.0724 0.0049
H10F H 0.1476 -0.0704 -0.0097
H11F H 0.1776 0.0149 0.0299
C20F C 0.22432(12) -0.2762(5) 0.06496(11)
H12F H 0.2514 -0.2637 0.0559
H13F H 0.2269 -0.1895 0.0843
H14F H 0.2250 -0.3914 0.0757
C21F C 0.12241(13) -0.4972(4) 0.06732(9)
H15F H 0.1550 -0.5121 0.0870
C22F C 0.08640(16) -0.5186(5) 0.08790(12)
H16F H 0.0928 -0.6271 0.1020
H17F H 0.0898 -0.4225 0.1054
H18F H 0.0536 -0.5199 0.0695
C23F C 0.11771(16) -0.6424(4) 0.03900(12)
H19F H 0.1227 -0.7534 0.0521
H20F H 0.0855 -0.6395 0.0198
H21F H 0.1420 -0.6274 0.0270
C24F C 0.06652(11) -0.2067(4) 0.00752(9)
H22F H 0.0710 -0.0827 0.0025
C25F C 0.02101(13) -0.2160(5) 0.01773(11)
H23F H -0.0058 -0.1629 -0.0023
H24F H 0.0133 -0.3366 0.0207
H25F H 0.0263 -0.1544 0.0414
C26F C 0.05942(13) -0.3027(4) -0.02924(9)
H26F H 0.0316 -0.2545 -0.0493
H27F H 0.0884 -0.2901 -0.0361
H28F H 0.0537 -0.4249 -0.0260
Si2 Si 0.36809(3) 0.21197(10) 0.11040(2)
C27 C 0.34974(11) 0.5449(4) 0.20077(8)
C28 C 0.39253(11) 0.5977(4) 0.23071(8)
C29 C 0.43865(12) 0.5597(4) 0.22971(9)
H29 H 0.4414 0.4940 0.2094
C30 C 0.47946(12) 0.6154(4) 0.25732(9)
H30 H 0.5103 0.5883 0.2562
C31 C 0.47567(12) 0.7127(4) 0.28734(9)
H31 H 0.5040 0.7537 0.3062
C32 C 0.43171(12) 0.7492(4) 0.28971(9)
H32 H 0.4299 0.8137 0.3105
C33 C 0.38832(11) 0.6921(4) 0.26153(8)
C34 C 0.34125(11) 0.7266(4) 0.26332(8)
C35 C 0.29955(11) 0.6739(4) 0.23331(8)
C36 C 0.25299(11) 0.7073(4) 0.23448(8)
C37 C 0.21088(11) 0.6559(4) 0.20437(8)
C38 C 0.21708(11) 0.5694(4) 0.17280(9)
H33 H 0.1894 0.5352 0.1524
C39 C 0.26104(11) 0.5357(4) 0.17146(8)
H34 H 0.2636 0.4783 0.1501
C40 C 0.30414(11) 0.5841(4) 0.20151(8)
C41 C 0.33462(11) 0.8111(4) 0.29454(8)
H35 H 0.3621 0.8457 0.3151
C42 C 0.35473(11) 0.4483(4) 0.17023(9)
C43 C 0.36010(11) 0.3633(4) 0.14519(9)
C44 C 0.31826(12) 0.2519(4) 0.06421(9)
H36 H 0.3213 0.1636 0.0459
C45 C 0.32190(13) 0.4293(4) 0.04779(10)
H37 H 0.2950 0.4446 0.0241
H38 H 0.3524 0.4379 0.0431
H39 H 0.3206 0.5187 0.0657
C46 C 0.26890(13) 0.2293(5) 0.06792(11)
H40 H 0.2437 0.2530 0.0436
H41 H 0.2657 0.3095 0.0869
H42 H 0.2656 0.1110 0.0756
C47 C 0.36170(11) -0.0081(4) 0.12928(9)
H43 H 0.3287 -0.0134 0.1309
C48 C 0.36519(13) -0.1567(4) 0.10374(10)
H44 H 0.3593 -0.2659 0.1143
H45 H 0.3975 -0.1584 0.1019
H46 H 0.3411 -0.1409 0.0786
C49 C 0.39755(12) -0.0328(4) 0.16938(9)
H47 H 0.3909 -0.1420 0.1795
H48 H 0.3942 0.0622 0.1853
H49 H 0.4305 -0.0342 0.1689
C50 C 0.43020(11) 0.2404(4) 0.10784(9)
H50 H 0.4524 0.1686 0.1285
C51 C 0.44962(13) 0.4256(4) 0.11494(10)
H51 H 0.4828 0.4283 0.1150
H52 H 0.4491 0.4653 0.1394
H53 H 0.4293 0.5011 0.0950
C52 C 0.43428(13) 0.1716(4) 0.07099(10)
H54 H 0.4681 0.1748 0.0726
H55 H 0.4149 0.2434 0.0499
H56 H 0.4225 0.0528 0.0670
Si2F Si 0.13191(3) 1.28803(10) 0.38960(2)
C27F C 0.15026(11) 0.9551(4) 0.29923(8)
C28F C 0.10747(11) 0.9023(4) 0.26929(8)
C29F C 0.06135(12) 0.9403(4) 0.27029(9)
H29F H 0.0586 1.0060 0.2906
C30F C 0.02054(12) 0.8846(4) 0.24268(9)
H30F H -0.0103 0.9117 0.2438
C31F C 0.02433(12) 0.7873(4) 0.21266(9)
H31F H -0.0040 0.7463 0.1938
C32F C 0.06829(12) 0.7508(4) 0.21029(9)
H32F H 0.0701 0.6863 0.1895
C33F C 0.11168(11) 0.8079(4) 0.23847(8)
C34F C 0.15875(11) 0.7734(4) 0.23668(8)
C35F C 0.20045(11) 0.8261(4) 0.26669(8)
C36F C 0.24701(11) 0.7927(4) 0.26552(8)
C37F C 0.28912(11) 0.8441(4) 0.29563(8)
C38F C 0.28292(11) 0.9306(4) 0.32720(9)
H33F H 0.3106 0.9648 0.3476
C39F C 0.23896(11) 0.9643(4) 0.32854(8)
H34F H 0.2364 1.0217 0.3499
C40F C 0.19586(11) 0.9159(4) 0.29849(8)
C41F C 0.16538(11) 0.6889(4) 0.20546(8)
H35F H 0.1379 0.6543 0.1849
C42F C 0.14527(11) 1.0517(4) 0.32977(9)
C43F C 0.13990(11) 1.1367(4) 0.35481(9)
C44F C 0.18174(12) 1.2481(4) 0.43579(9)
H36F H 0.1787 1.3364 0.4541
C45F C 0.17810(13) 1.0707(4) 0.45221(10)
H37F H 0.2050 1.0554 0.4759
H38F H 0.1476 1.0621 0.4569
H39F H 0.1794 0.9813 0.4343
C46F C 0.23110(13) 1.2707(5) 0.43208(11)
H40F H 0.2563 1.2470 0.4564
H41F H 0.2343 1.1905 0.4131
H42F H 0.2344 1.3890 0.4244
C47F C 0.13830(11) 1.5081(4) 0.37072(9)
H43F H 0.1713 1.5134 0.3691
C48F C 0.13481(13) 1.6567(4) 0.39626(10)
H44F H 0.1407 1.7659 0.3857
H45F H 0.1025 1.6584 0.3981
H46F H 0.1589 1.6409 0.4214
C49F C 0.10245(12) 1.5328(4) 0.33062(9)
H47F H 0.1091 1.6420 0.3205
H48F H 0.1058 1.4378 0.3147
H49F H 0.0695 1.5342 0.3311
C50F C 0.06980(11) 1.2596(4) 0.39216(9)
H50F H 0.0476 1.3314 0.3715
C51F C 0.05038(13) 1.0744(4) 0.38506(10)
H51F H 0.0172 1.0717 0.3850
H52F H 0.0509 1.0347 0.3606
H53F H 0.0707 0.9989 0.4050
C52F C 0.06572(13) 1.3284(4) 0.42901(10)
H54F H 0.0319 1.3252 0.4274
H55F H 0.0851 1.2566 0.4501
H56F H 0.0775 1.4472 0.4330
loop_
_geom_bond_atom_site_label_1
_geom_bond_atom_site_label_2
_geom_bond_site_symmetry_1
_geom_bond_site_symmetry_2
Si1 C17 1_555 1_555
C1 C2 1_555 1_555
C2 C3 1_555 1_555
C3 H1 1_555 1_555
C4 C3 1_555 1_555
H2 C4 1_555 1_555
C5 C4 1_555 1_555
H3 C5 1_555 1_555
C6 C5 1_555 1_555
H4 C6 1_555 1_555
C7 C2 1_555 1_555
C8 C7 1_555 1_555
C9 C8 1_555 1_555
C10 C9 1_555 1_555
C11 C10 1_555 1_555
C12 C11 1_555 1_555
H5 C12 1_555 1_555
C13 C12 1_555 1_555
H6 C13 1_555 1_555
C14 C1 1_555 1_555
C15 C8 1_555 1_555
H7 C15 1_555 1_555
C16 C1 1_555 1_555
C17 C16 1_555 1_555
C18 Si1 1_555 1_555
H8 C18 1_555 1_555
C19 C18 1_555 1_555
H9 C19 1_555 1_555
H10 C19 1_555 1_555
H11 C19 1_555 1_555
C20 C18 1_555 1_555
H12 C20 1_555 1_555
H13 C20 1_555 1_555
H14 C20 1_555 1_555
C21 Si1 1_555 1_555
H15 C21 1_555 1_555
C22 C21 1_555 1_555
H16 C22 1_555 1_555
H17 C22 1_555 1_555
H18 C22 1_555 1_555
C23 C21 1_555 1_555
H19 C23 1_555 1_555
H20 C23 1_555 1_555
H21 C23 1_555 1_555
C24 Si1 1_555 1_555
H22 C24 1_555 1_555
C25 C24 1_555 1_555
H23 C25 1_555 1_555
H24 C25 1_555 1_555
H25 C25 1_555 1_555
C26 C24 1_555 1_555
H26 C26 1_555 1_555
H27 C26 1_555 1_555
H28 C26 1_555 1_555
Si2 C43 1_555 1_555
C27 C28 1_555 1_555
C28 C29 1_555 1_555
C29 H29 1_555 1_555
C30 C29 1_555 1_555
H30 C30 1_555 1_555
C31 C30 1_555 1_555
H31 C31 1_555 1_555
C32 C31 1_555 1_555
H32 C32 1_555 1_555
C33 C28 1_555 1_555
C34 C33 1_555 1_555
C35 C34 1_555 1_555
C36 C35 1_555 1_555
C37 C36 1_555 1_555
C38 C37 1_555 1_555
H33 C38 1_555 1_555
C39 C38 1_555 1_555
H34 C39 1_555 1_555
C40 C27 1_555 1_555
C41 C34 1_555 1_555
H35 C41 1_555 1_555
C42 C27 1_555 1_555
C43 C42 1_555 1_555
C44 Si2 1_555 1_555
H36 C44 1_555 1_555
C45 C44 1_555 1_555
H37 C45 1_555 1_555
H38 C45 1_555 1_555
H39 C45 1_555 1_555
C46 C44 1_555 1_555
H40 C46 1_555 1_555
H41 C46 1_555 1_555
H42 C46 1_555 1_555
C47 Si2 1_555 1_555
H43 C47 1_555 1_555
C48 C47 1_555 1_555
H44 C48 1_555 1_555
H45 C48 1_555 1_555
H46 C48 1_555 1_555
C49 C47 1_555 1_555
H47 C49 1_555 1_555
H48 C49 1_555 1_555
H49 C49 1_555 1_555
C50 Si2 1_555 1_555
H50 C50 1_555 1_555
C51 C50 1_555 1_555
H51 C51 1_555 1_555
H52 C51 1_555 1_555
H53 C51 1_555 1_555
C52 C50 1_555 1_555
H54 C52 1_555 1_555
H55 C52 1_555 1_555
H56 C52 1_555 1_555
Si1F C17F 1_555 1_555
C1F C2F 1_555 1_555
C2F C3F 1_555 1_555
C3F H1F 1_555 1_555
C4F C3F 1_555 1_555
H2F C4F 1_555 1_555
C5F C4F 1_555 1_555
H3F C5F 1_555 1_555
C6F C5F 1_555 1_555
H4F C6F 1_555 1_555
C7F C2F 1_555 1_555
C8F C7F 1_555 1_555
C9F C8F 1_555 1_555
C10F C10 1_555 1_555
C11F C15 1_555 1_555
C12F C11F 1_555 1_555
H5F C12F 1_555 1_555
C13F C12F 1_555 1_555
H6F C13F 1_555 1_555
C14F C1F 1_555 1_555
C15F C11 1_555 1_555
H7F C15F 1_555 1_555
C16F C1F 1_555 1_555
C17F C16F 1_555 1_555
C18F Si1F 1_555 1_555
H8F C18F 1_555 1_555
C19F C18F 1_555 1_555
H9F C19F 1_555 1_555
H10F C19F 1_555 1_555
H11F C19F 1_555 1_555
C20F C18F 1_555 1_555
H12F C20F 1_555 1_555
H13F C20F 1_555 1_555
H14F C20F 1_555 1_555
C21F Si1F 1_555 1_555
H15F C21F 1_555 1_555
C22F C21F 1_555 1_555
H16F C22F 1_555 1_555
H17F C22F 1_555 1_555
H18F C22F 1_555 1_555
C23F C21F 1_555 1_555
H19F C23F 1_555 1_555
H20F C23F 1_555 1_555
H21F C23F 1_555 1_555
C24F Si1F 1_555 1_555
H22F C24F 1_555 1_555
C25F C24F 1_555 1_555
H23F C25F 1_555 1_555
H24F C25F 1_555 1_555
H25F C25F 1_555 1_555
C26F C24F 1_555 1_555
H26F C26F 1_555 1_555
H27F C26F 1_555 1_555
H28F C26F 1_555 1_555
Si2F C43F 1_555 1_555
C27F C28F 1_555 1_555
C28F C29F 1_555 1_555
C29F H29F 1_555 1_555
C30F C29F 1_555 1_555
H30F C30F 1_555 1_555
C31F C30F 1_555 1_555
H31F C31F 1_555 1_555
C32F C31F 1_555 1_555
H32F C32F 1_555 1_555
C33F C28F 1_555 1_555
C34F C33F 1_555 1_555
C35F C34F 1_555 1_555
C36F C36 1_555 1_555
C37F C41 1_555 1_555
C38F C37F 1_555 1_555
H33F C38F 1_555 1_555
C39F C38F 1_555 1_555
H34F C39F 1_555 1_555
C40F C27F 1_555 1_555
C41F C37 1_555 1_555
H35F C41F 1_555 1_555
C42F C27F 1_555 1_555
C43F C42F 1_555 1_555
C44F Si2F 1_555 1_555
H36F C44F 1_555 1_555
C45F C44F 1_555 1_555
H37F C45F 1_555 1_555
H38F C45F 1_555 1_555
H39F C45F 1_555 1_555
C46F C44F 1_555 1_555
H40F C46F 1_555 1_555
H41F C46F 1_555 1_555
H42F C46F 1_555 1_555
C47F Si2F 1_555 1_555
H43F C47F 1_555 1_555
C48F C47F 1_555 1_555
H44F C48F 1_555 1_555
H45F C48F 1_555 1_555
H46F C48F 1_555 1_555
C49F C47F 1_555 1_555
H47F C49F 1_555 1_555
H48F C49F 1_555 1_555
H49F C49F 1_555 1_555
C50F Si2F 1_555 1_555
H50F C50F 1_555 1_555
C51F C50F 1_555 1_555
H51F C51F 1_555 1_555
H52F C51F 1_555 1_555
H53F C51F 1_555 1_555
C52F C50F 1_555 1_555
H54F C52F 1_555 1_555
H55F C52F 1_555 1_555
H56F C52F 1_555 1_555
C6 C7 1_555 1_555
C9 C14 1_555 1_555
C13 C14 1_555 1_555
C32 C33 1_555 1_555
C35 C40 1_555 1_555
C39 C40 1_555 1_555
C6F C7F 1_555 1_555
C8F C15F 1_555 1_555
C9F C10F 1_555 1_555
C9F C14F 1_555 1_555
C10F C11F 1_555 1_555
C13F C14F 1_555 1_555
C32F C33F 1_555 1_555
C34F C41F 1_555 1_555
C35F C36F 1_555 1_555
C35F C40F 1_555 1_555
C36F C37F 1_555 1_555
C39F C40F 1_555 1_555

#END
