
#######################################################################
#
#                 Cambridge Crystallographic Data Centre
#                                CCDC 
#
#######################################################################
#
# If this CIF has been generated from an entry in the Cambridge 
# Structural Database, then it will include bibliographic, chemical, 
# crystal, experimental, refinement or atomic coordinate data resulting 
# from the CCDC's data processing and validation procedures.
#
#######################################################################

data_CISZAH
_chemical_formula_moiety         'C56 H58 Si2'
_chemical_name_systematic        
(Benzo[rst]phenanthro[10,1,2-cde]pentaphene-9,18-diyldiethyne-2,1-diyl)bis(triisopropylsilane)
_symmetry_cell_setting           monoclinic
_symmetry_space_group_name_H-M   'P 21/c'
_symmetry_Int_Tables_number      14
_space_group_name_Hall           '-P 2ybc'
loop_
_symmetry_equiv_pos_site_id
_symmetry_equiv_pos_as_xyz
1 x,y,z
2 -x,1/2+y,1/2-z
3 -x,-y,-z
4 x,1/2-y,1/2+z
_cell_length_a                   19.8899(10)
_cell_length_b                   7.5739(4)
_cell_length_c                   30.4514(14)
_cell_angle_alpha                90
_cell_angle_beta                 106.665(3)
_cell_angle_gamma                90
_cell_volume                     4394.65
_exptl_crystal_colour            red
_exptl_crystal_description       lath
_cell_formula_units_Z            4
loop_
_atom_site_label
_atom_site_type_symbol
_atom_site_fract_x
_atom_site_fract_y
_atom_site_fract_z
Si1 Si 0.91004(7) -0.43764(19) 0.13297(4)
C1 C 0.6042(3) -0.0213(6) 0.08656(16)
C2 C 0.6700(3) -0.1047(6) 0.08988(16)
C3 C 0.6820(3) -0.1711(6) 0.04876(17)
H1 H 0.7256 -0.2254 0.0503
C4 C 0.6334(3) -0.1585(6) 0.00834(17)
H2 H 0.6435 -0.2044 -0.0181
C5 C 0.5663(2) -0.0780(5) 0.00332(16)
C6 C 0.5517(2) -0.0107(5) 0.04298(15)
C7 C 0.4855(2) 0.0670(5) 0.03971(16)
C8 C 0.4726(3) 0.1310(6) 0.08110(16)
H3 H 0.4284 0.1822 0.0797
C9 C 0.5218(3) 0.1193(6) 0.12131(17)
H4 H 0.5115 0.1622 0.1480
C10 C 0.5897(3) 0.0448(6) 0.12599(16)
C11 C 0.6433(3) 0.0354(6) 0.16955(16)
C12 C 0.6335(3) 0.1078(7) 0.21040(17)
H5 H 0.5906 0.1655 0.2093
C13 C 0.6852(3) 0.0956(7) 0.25137(18)
H6 H 0.6774 0.1438 0.2783
C14 C 0.7492(3) 0.0128(7) 0.25386(18)
H7 H 0.7849 0.0068 0.2823
C15 C 0.7603(3) -0.0591(7) 0.21547(18)
H8 H 0.8036 -0.1163 0.2176
C16 C 0.7085(3) -0.0499(6) 0.17264(17)
C17 C 0.7198(3) -0.1222(6) 0.13231(17)
C18 C 0.7835(3) -0.2174(6) 0.13502(17)
C19 C 0.8345(3) -0.3045(7) 0.13510(17)
C20 C 0.9785(4) -0.3526(11) 0.1863(2)
H9 H 0.9840 -0.2234 0.1816
C21 C 1.0493(6) -0.4355(17) 0.1921(4)
H10 H 1.0825 -0.3913 0.2203
H11 H 1.0661 -0.4052 0.1658
H12 H 1.0453 -0.5641 0.1940
C22 C 0.9584(10) -0.372(2) 0.2316(6)
H13 H 0.9541 -0.4972 0.2381
H14 H 0.9135 -0.3124 0.2285
H15 H 0.9948 -0.3178 0.2567
C23 C 0.8818(3) -0.6730(8) 0.1279(2)
H16 H 0.9239 -0.7459 0.1283
C24 C 0.8260(4) -0.7089(9) 0.0820(2)
H17 H 0.8128 -0.8340 0.0802
H18 H 0.8452 -0.6797 0.0566
H19 H 0.7845 -0.6361 0.0799
C25 C 0.8550(4) -0.7372(10) 0.1665(3)
H20 H 0.8474 -0.8650 0.1638
H21 H 0.8106 -0.6779 0.1651
H22 H 0.8896 -0.7104 0.1959
C26 C 0.9328(3) -0.3673(8) 0.07947(17)
H23 H 0.8882 -0.3788 0.0540
C27 C 0.9530(3) -0.1731(8) 0.0800(2)
H24 H 0.9578 -0.1399 0.0499
H25 H 0.9978 -0.1538 0.1035
H26 H 0.9165 -0.1007 0.0869
C28 C 0.9855(3) -0.4870(11) 0.0660(2)
H27 H 0.9909 -0.4483 0.0365
H28 H 0.9684 -0.6090 0.0634
H29 H 1.0309 -0.4803 0.0895
Si1B Si 0.08996(7) 0.43764(19) -0.13297(4)
C1B C 0.3958(3) 0.0213(6) -0.08656(16)
C2B C 0.3300(3) 0.1047(6) -0.08988(16)
C3B C 0.3180(3) 0.1711(6) -0.04876(17)
H1B H 0.2744 0.2254 -0.0503
C4B C 0.3666(3) 0.1585(6) -0.00834(17)
H2B H 0.3565 0.2044 0.0181
C5B C 0.4337(2) 0.0780(5) -0.00332(16)
C6B C 0.4483(2) 0.0107(5) -0.04298(15)
C7B C 0.5145(2) -0.0670(5) -0.03971(16)
C8B C 0.5274(3) -0.1310(6) -0.08110(16)
H3B H 0.5716 -0.1822 -0.0797
C9B C 0.4782(3) -0.1193(6) -0.12131(17)
H4B H 0.4885 -0.1622 -0.1480
C10B C 0.4103(3) -0.0448(6) -0.12599(16)
C11B C 0.3567(3) -0.0354(6) -0.16955(16)
C12B C 0.3665(3) -0.1078(7) -0.21040(17)
H5B H 0.4094 -0.1655 -0.2093
C13B C 0.3148(3) -0.0956(7) -0.25137(18)
H6B H 0.3226 -0.1438 -0.2783
C14B C 0.2508(3) -0.0128(7) -0.25386(18)
H7B H 0.2151 -0.0068 -0.2823
C15B C 0.2397(3) 0.0591(7) -0.21547(18)
H8B H 0.1964 0.1163 -0.2176
C16B C 0.2915(3) 0.0499(6) -0.17264(17)
C17B C 0.2802(3) 0.1222(6) -0.13231(17)
C18B C 0.2165(3) 0.2174(6) -0.13502(17)
C19B C 0.1655(3) 0.3045(7) -0.13510(17)
C20B C 0.0215(4) 0.3526(11) -0.1863(2)
H9B H 0.0160 0.2234 -0.1816
C21B C -0.0493(6) 0.4355(17) -0.1921(4)
H10B H -0.0825 0.3913 -0.2203
H11B H -0.0661 0.4052 -0.1658
H12B H -0.0453 0.5641 -0.1940
C22B C 0.0416(10) 0.372(2) -0.2316(6)
H13B H 0.0459 0.4972 -0.2381
H14B H 0.0865 0.3124 -0.2285
H15B H 0.0052 0.3178 -0.2567
C23B C 0.1182(3) 0.6730(8) -0.1279(2)
H16B H 0.0761 0.7459 -0.1283
C24B C 0.1740(4) 0.7089(9) -0.0820(2)
H17B H 0.1872 0.8340 -0.0802
H18B H 0.1548 0.6797 -0.0566
H19B H 0.2155 0.6361 -0.0799
C25B C 0.1450(4) 0.7372(10) -0.1665(3)
H20B H 0.1526 0.8650 -0.1638
H21B H 0.1894 0.6779 -0.1651
H22B H 0.1104 0.7104 -0.1959
C26B C 0.0672(3) 0.3673(8) -0.07947(17)
H23B H 0.1118 0.3788 -0.0540
C27B C 0.0470(3) 0.1731(8) -0.0800(2)
H24B H 0.0422 0.1399 -0.0499
H25B H 0.0022 0.1538 -0.1035
H26B H 0.0835 0.1007 -0.0869
C28B C 0.0145(3) 0.4870(11) -0.0660(2)
H27B H 0.0091 0.4483 -0.0365
H28B H 0.0316 0.6090 -0.0634
H29B H -0.0309 0.4803 -0.0895
Si2 Si 0.22297(6) 0.07483(16) 0.12252(4)
C32 C 0.4858(2) -0.3902(5) 0.08660(13)
C33 C 0.4223(2) -0.3058(5) 0.08896(13)
C34 C 0.3660(2) -0.2900(5) 0.04729(13)
H37 H 0.3228 -0.2392 0.0484
C35 C 0.3727(2) -0.3450(5) 0.00678(14)
H38 H 0.3341 -0.3315 -0.0199
C36 C 0.4360(2) -0.4234(5) 0.00239(13)
C37 C 0.4924(2) -0.4468(5) 0.04294(13)
C38 C 0.5562(2) -0.5242(5) 0.04026(13)
C39 C 0.6117(2) -0.5456(5) 0.08228(13)
H39 H 0.6544 -0.5994 0.0814
C40 C 0.6045(2) -0.4903(6) 0.12349(15)
H40 H 0.6425 -0.5062 0.1504
C41 C 0.5419(2) -0.4101(6) 0.12734(13)
C42 C 0.5349(2) -0.3453(6) 0.16966(13)
C43 C 0.5901(2) -0.3595(6) 0.21127(14)
H41 H 0.6319 -0.4200 0.2112
C44 C 0.5846(2) -0.2888(6) 0.25111(14)
H42 H 0.6224 -0.3001 0.2783
C45 C 0.5236(2) -0.1995(6) 0.25232(14)
H43 H 0.5204 -0.1484 0.2801
C46 C 0.4686(2) -0.1859(5) 0.21336(13)
H44 H 0.4269 -0.1272 0.2146
C47 C 0.4726(2) -0.2576(5) 0.17124(13)
C48 C 0.4161(2) -0.2401(5) 0.13035(13)
C49 C 0.3533(2) -0.1484(6) 0.13094(13)
C50 C 0.3005(2) -0.0684(6) 0.12961(14)
C51 C 0.1736(2) -0.0034(7) 0.16311(16)
H45 H 0.1592 -0.1282 0.1547
C52 C 0.1060(3) 0.1032(8) 0.1585(2)
H46 H 0.0782 0.0458 0.1763
H47 H 0.0785 0.1083 0.1261
H48 H 0.1182 0.2232 0.1700
C53 C 0.2188(3) -0.0047(8) 0.21283(16)
H49 H 0.1938 -0.0660 0.2318
H50 H 0.2286 0.1171 0.2237
H51 H 0.2630 -0.0658 0.2150
C54 C 0.2576(2) 0.3069(6) 0.13810(16)
H52 H 0.2680 0.3170 0.1721
C55 C 0.3258(3) 0.3486(6) 0.12694(17)
H53 H 0.3435 0.4636 0.1400
H54 H 0.3172 0.3517 0.0936
H55 H 0.3607 0.2571 0.1401
C56 C 0.2027(3) 0.4490(7) 0.11751(19)
H56 H 0.2213 0.5653 0.1290
H57 H 0.1599 0.4256 0.1263
H58 H 0.1919 0.4471 0.0840
C57 C 0.1681(3) 0.0544(7) 0.06125(16)
H59 H 0.1267 0.1342 0.0571
C58 C 0.1400(3) -0.1331(8) 0.04943(18)
H60 H 0.1089 -0.1356 0.0180
H61 H 0.1138 -0.1695 0.0707
H62 H 0.1793 -0.2143 0.0521
C59 C 0.2081(3) 0.1155(8) 0.02732(16)
H63 H 0.1777 0.1027 -0.0041
H64 H 0.2502 0.0429 0.0314
H65 H 0.2217 0.2395 0.0332
Si2B Si 0.77703(6) -1.07483(16) -0.12252(4)
C32B C 0.5142(2) -0.6098(5) -0.08660(13)
C33B C 0.5777(2) -0.6942(5) -0.08896(13)
C34B C 0.6340(2) -0.7100(5) -0.04729(13)
H37B H 0.6772 -0.7608 -0.0484
C35B C 0.6273(2) -0.6550(5) -0.00678(14)
H38B H 0.6659 -0.6685 0.0199
C36B C 0.5640(2) -0.5766(5) -0.00239(13)
C37B C 0.5076(2) -0.5532(5) -0.04294(13)
C38B C 0.4438(2) -0.4758(5) -0.04026(13)
C39B C 0.3883(2) -0.4544(5) -0.08228(13)
H39B H 0.3456 -0.4006 -0.0814
C40B C 0.3955(2) -0.5097(6) -0.12349(15)
H40B H 0.3575 -0.4938 -0.1504
C41B C 0.4581(2) -0.5899(6) -0.12734(13)
C42B C 0.4651(2) -0.6547(6) -0.16966(13)
C43B C 0.4099(2) -0.6405(6) -0.21127(14)
H41B H 0.3681 -0.5800 -0.2112
C44B C 0.4154(2) -0.7112(6) -0.25111(14)
H42B H 0.3776 -0.6999 -0.2783
C45B C 0.4764(2) -0.8005(6) -0.25232(14)
H43B H 0.4796 -0.8516 -0.2801
C46B C 0.5314(2) -0.8141(5) -0.21336(13)
H44B H 0.5731 -0.8728 -0.2146
C47B C 0.5274(2) -0.7424(5) -0.17124(13)
C48B C 0.5839(2) -0.7599(5) -0.13035(13)
C49B C 0.6467(2) -0.8516(6) -0.13094(13)
C50B C 0.6995(2) -0.9316(6) -0.12961(14)
C51B C 0.8264(2) -0.9966(7) -0.16311(16)
H45B H 0.8408 -0.8718 -0.1547
C52B C 0.8940(3) -1.1032(8) -0.1585(2)
H46B H 0.9218 -1.0458 -0.1763
H47B H 0.9215 -1.1083 -0.1261
H48B H 0.8818 -1.2232 -0.1700
C53B C 0.7812(3) -0.9953(8) -0.21283(16)
H49B H 0.8062 -0.9340 -0.2318
H50B H 0.7714 -1.1171 -0.2237
H51B H 0.7370 -0.9342 -0.2150
C54B C 0.7424(2) -1.3069(6) -0.13810(16)
H52B H 0.7320 -1.3170 -0.1721
C55B C 0.6742(3) -1.3486(6) -0.12694(17)
H53B H 0.6565 -1.4636 -0.1400
H54B H 0.6828 -1.3517 -0.0936
H55B H 0.6393 -1.2571 -0.1401
C56B C 0.7973(3) -1.4490(7) -0.11751(19)
H56B H 0.7787 -1.5653 -0.1290
H57B H 0.8401 -1.4256 -0.1263
H58B H 0.8081 -1.4471 -0.0840
C57B C 0.8319(3) -1.0544(7) -0.06125(16)
H59B H 0.8733 -1.1342 -0.0571
C58B C 0.8600(3) -0.8669(8) -0.04943(18)
H60B H 0.8911 -0.8644 -0.0180
H61B H 0.8862 -0.8305 -0.0707
H62B H 0.8207 -0.7857 -0.0521
C59B C 0.7919(3) -1.1155(8) -0.02732(16)
H63B H 0.8223 -1.1027 0.0041
H64B H 0.7498 -1.0429 -0.0314
H65B H 0.7783 -1.2395 -0.0332
C29? C 0.9877(7) -0.461(2) 0.1871(4)
H30? H 1.0057 -0.5845 0.1887
C30? C 0.958(2) -0.430(5) 0.2274(13)
H31? H 0.9456 -0.3056 0.2284
H32? H 0.9938 -0.4617 0.2559
H33? H 0.9165 -0.5039 0.2238
C31? C 1.0482(15) -0.335(4) 0.1896(11)
H34? H 1.0319 -0.2127 0.1897
H35? H 1.0658 -0.3531 0.1630
H36? H 1.0860 -0.3572 0.2178
loop_
_geom_bond_atom_site_label_1
_geom_bond_atom_site_label_2
_geom_bond_site_symmetry_1
_geom_bond_site_symmetry_2
Si1 C19 1_555 1_555
C1 C2 1_555 1_555
C2 C3 1_555 1_555
C3 H1 1_555 1_555
C4 C3 1_555 1_555
H2 C4 1_555 1_555
C5 C4 1_555 1_555
C6 C1 1_555 1_555
C7 C6 1_555 1_555
C8 C7 1_555 1_555
H3 C8 1_555 1_555
C9 C8 1_555 1_555
H4 C9 1_555 1_555
C10 C1 1_555 1_555
C11 C10 1_555 1_555
C12 C11 1_555 1_555
H5 C12 1_555 1_555
C13 C12 1_555 1_555
H6 C13 1_555 1_555
C14 C13 1_555 1_555
H7 C14 1_555 1_555
C15 C14 1_555 1_555
H8 C15 1_555 1_555
C16 C11 1_555 1_555
C17 C2 1_555 1_555
C18 C17 1_555 1_555
C19 C18 1_555 1_555
C20 Si1 1_555 1_555
H9 C20 1_555 1_555
C21 C20 1_555 1_555
H10 C21 1_555 1_555
H11 C21 1_555 1_555
H12 C21 1_555 1_555
C22 C20 1_555 1_555
H13 C22 1_555 1_555
H14 C22 1_555 1_555
H15 C22 1_555 1_555
C23 Si1 1_555 1_555
H16 C23 1_555 1_555
C24 C23 1_555 1_555
H17 C24 1_555 1_555
H18 C24 1_555 1_555
H19 C24 1_555 1_555
C25 C23 1_555 1_555
H20 C25 1_555 1_555
H21 C25 1_555 1_555
H22 C25 1_555 1_555
C26 Si1 1_555 1_555
H23 C26 1_555 1_555
C27 C26 1_555 1_555
H24 C27 1_555 1_555
H25 C27 1_555 1_555
H26 C27 1_555 1_555
C28 C26 1_555 1_555
H27 C28 1_555 1_555
H28 C28 1_555 1_555
H29 C28 1_555 1_555
Si2 C50 1_555 1_555
C32 C33 1_555 1_555
C33 C34 1_555 1_555
C34 H37 1_555 1_555
C35 C34 1_555 1_555
H38 C35 1_555 1_555
C36 C35 1_555 1_555
C37 C32 1_555 1_555
C38 C37 1_555 1_555
C39 C38 1_555 1_555
H39 C39 1_555 1_555
C40 C39 1_555 1_555
H40 C40 1_555 1_555
C41 C32 1_555 1_555
C42 C41 1_555 1_555
C43 C42 1_555 1_555
H41 C43 1_555 1_555
C44 C43 1_555 1_555
H42 C44 1_555 1_555
C45 C44 1_555 1_555
H43 C45 1_555 1_555
C46 C45 1_555 1_555
H44 C46 1_555 1_555
C47 C42 1_555 1_555
C48 C33 1_555 1_555
C49 C48 1_555 1_555
C50 C49 1_555 1_555
C51 Si2 1_555 1_555
H45 C51 1_555 1_555
C52 C51 1_555 1_555
H46 C52 1_555 1_555
H47 C52 1_555 1_555
H48 C52 1_555 1_555
C53 C51 1_555 1_555
H49 C53 1_555 1_555
H50 C53 1_555 1_555
H51 C53 1_555 1_555
C54 Si2 1_555 1_555
H52 C54 1_555 1_555
C55 C54 1_555 1_555
H53 C55 1_555 1_555
H54 C55 1_555 1_555
H55 C55 1_555 1_555
C56 C54 1_555 1_555
H56 C56 1_555 1_555
H57 C56 1_555 1_555
H58 C56 1_555 1_555
C57 Si2 1_555 1_555
H59 C57 1_555 1_555
C58 C57 1_555 1_555
H60 C58 1_555 1_555
H61 C58 1_555 1_555
H62 C58 1_555 1_555
C59 C57 1_555 1_555
H63 C59 1_555 1_555
H64 C59 1_555 1_555
H65 C59 1_555 1_555
Si1B C19B 1_555 1_555
C1B C2B 1_555 1_555
C2B C3B 1_555 1_555
C3B H1B 1_555 1_555
C4B C3B 1_555 1_555
H2B C4B 1_555 1_555
C5B C7 1_555 1_555
C6B C1B 1_555 1_555
C7B C5 1_555 1_555
C8B C7B 1_555 1_555
H3B C8B 1_555 1_555
C9B C8B 1_555 1_555
H4B C9B 1_555 1_555
C10B C1B 1_555 1_555
C11B C10B 1_555 1_555
C12B C11B 1_555 1_555
H5B C12B 1_555 1_555
C13B C12B 1_555 1_555
H6B C13B 1_555 1_555
C14B C13B 1_555 1_555
H7B C14B 1_555 1_555
C15B C14B 1_555 1_555
H8B C15B 1_555 1_555
C16B C11B 1_555 1_555
C17B C2B 1_555 1_555
C18B C17B 1_555 1_555
C19B C18B 1_555 1_555
C20B Si1B 1_555 1_555
H9B C20B 1_555 1_555
C21B C20B 1_555 1_555
H10B C21B 1_555 1_555
H11B C21B 1_555 1_555
H12B C21B 1_555 1_555
C22B C20B 1_555 1_555
H13B C22B 1_555 1_555
H14B C22B 1_555 1_555
H15B C22B 1_555 1_555
C23B Si1B 1_555 1_555
H16B C23B 1_555 1_555
C24B C23B 1_555 1_555
H17B C24B 1_555 1_555
H18B C24B 1_555 1_555
H19B C24B 1_555 1_555
C25B C23B 1_555 1_555
H20B C25B 1_555 1_555
H21B C25B 1_555 1_555
H22B C25B 1_555 1_555
C26B Si1B 1_555 1_555
H23B C26B 1_555 1_555
C27B C26B 1_555 1_555
H24B C27B 1_555 1_555
H25B C27B 1_555 1_555
H26B C27B 1_555 1_555
C28B C26B 1_555 1_555
H27B C28B 1_555 1_555
H28B C28B 1_555 1_555
H29B C28B 1_555 1_555
Si2B C50B 1_555 1_555
C32B C33B 1_555 1_555
C33B C34B 1_555 1_555
C34B H37B 1_555 1_555
C35B C34B 1_555 1_555
H38B C35B 1_555 1_555
C36B C38 1_555 1_555
C37B C32B 1_555 1_555
C38B C36 1_555 1_555
C39B C38B 1_555 1_555
H39B C39B 1_555 1_555
C40B C39B 1_555 1_555
H40B C40B 1_555 1_555
C41B C32B 1_555 1_555
C42B C41B 1_555 1_555
C43B C42B 1_555 1_555
H41B C43B 1_555 1_555
C44B C43B 1_555 1_555
H42B C44B 1_555 1_555
C45B C44B 1_555 1_555
H43B C45B 1_555 1_555
C46B C45B 1_555 1_555
H44B C46B 1_555 1_555
C47B C42B 1_555 1_555
C48B C33B 1_555 1_555
C49B C48B 1_555 1_555
C50B C49B 1_555 1_555
C51B Si2B 1_555 1_555
H45B C51B 1_555 1_555
C52B C51B 1_555 1_555
H46B C52B 1_555 1_555
H47B C52B 1_555 1_555
H48B C52B 1_555 1_555
C53B C51B 1_555 1_555
H49B C53B 1_555 1_555
H50B C53B 1_555 1_555
H51B C53B 1_555 1_555
C54B Si2B 1_555 1_555
H52B C54B 1_555 1_555
C55B C54B 1_555 1_555
H53B C55B 1_555 1_555
H54B C55B 1_555 1_555
H55B C55B 1_555 1_555
C56B C54B 1_555 1_555
H56B C56B 1_555 1_555
H57B C56B 1_555 1_555
H58B C56B 1_555 1_555
C57B Si2B 1_555 1_555
H59B C57B 1_555 1_555
C58B C57B 1_555 1_555
H60B C58B 1_555 1_555
H61B C58B 1_555 1_555
H62B C58B 1_555 1_555
C59B C57B 1_555 1_555
H63B C59B 1_555 1_555
H64B C59B 1_555 1_555
H65B C59B 1_555 1_555
C5 C6 1_555 1_555
C9 C10 1_555 1_555
C15 C16 1_555 1_555
C16 C17 1_555 1_555
C36 C37 1_555 1_555
C40 C41 1_555 1_555
C46 C47 1_555 1_555
C47 C48 1_555 1_555
C4B C5B 1_555 1_555
C5B C6B 1_555 1_555
C6B C7B 1_555 1_555
C9B C10B 1_555 1_555
C15B C16B 1_555 1_555
C16B C17B 1_555 1_555
C35B C36B 1_555 1_555
C36B C37B 1_555 1_555
C37B C38B 1_555 1_555
C40B C41B 1_555 1_555
C46B C47B 1_555 1_555
C47B C48B 1_555 1_555

#END
