
#######################################################################
#
#                 Cambridge Crystallographic Data Centre
#                                CCDC 
#
#######################################################################
#
# If this CIF has been generated from an entry in the Cambridge 
# Structural Database, then it will include bibliographic, chemical, 
# crystal, experimental, refinement or atomic coordinate data resulting 
# from the CCDC's data processing and validation procedures.
#
#######################################################################

data_CITHAQ
_chemical_formula_moiety         'C28 H26 Br1 N3 O5'
_chemical_name_systematic        
"1'-t-Butyl 2-ethyl 6-amino-6'-bromo-5-cyano-2'-oxo-4-phenylspiro[cyclohexa-3,5-diene-1,3'-indole]-1',2(2'H)-dicarboxylate unknown solvate"
_symmetry_cell_setting           monoclinic
_symmetry_space_group_name_H-M   'P 21'
_symmetry_Int_Tables_number      4
_space_group_name_Hall           'P 2yb'
loop_
_symmetry_equiv_pos_site_id
_symmetry_equiv_pos_as_xyz
1 x,y,z
2 -x,1/2+y,-z
_cell_length_a                   13.075(6)
_cell_length_b                   9.522(4)
_cell_length_c                   13.764(6)
_cell_angle_alpha                90
_cell_angle_beta                 108.711(5)
_cell_angle_gamma                90
_cell_volume                     1623.05
_exptl_crystal_colour            colorless
_exptl_crystal_description       block
_cell_formula_units_Z            2
loop_
_atom_site_label
_atom_site_type_symbol
_atom_site_fract_x
_atom_site_fract_y
_atom_site_fract_z
Br1 Br 0.53740(11) 1.04543(19) -0.00611(12)
C1 C 0.8768(10) 0.9098(12) 0.1940(8)
C2 C 0.8665(9) 1.0233(14) 0.1291(8)
H1 H 0.9267 1.0721 0.1253
C3 C 0.7614(11) 1.0627(16) 0.0688(8)
H2 H 0.7503 1.1392 0.0247
C4 C 0.6751(9) 0.9849(14) 0.0767(10)
C5 C 0.6856(10) 0.8734(14) 0.1400(9)
H3 H 0.6255 0.8247 0.1444
C6 C 0.7883(9) 0.8349(13) 0.1975(8)
C7 C 0.9336(9) 0.7212(13) 0.3126(8)
C8 C 0.9788(8) 0.8533(12) 0.2756(7)
C9 C 1.0216(8) 0.9602(11) 0.3591(7)
C10 C 1.0963(8) 1.0491(14) 0.3522(7)
C11 C 1.1449(7) 1.0496(15) 0.2703(7)
C12 C 1.1337(10) 0.9288(16) 0.2145(10)
H4 H 1.1653 0.9233 0.1629
C13 C 1.0725(9) 0.8052(12) 0.2333(8)
H5 H 1.1227 0.7464 0.2856
C14 C 1.2030(13) 1.1636(18) 0.2488(12)
C15 C 1.1630(14) 1.2966(19) 0.2384(13)
H6 H 1.0991 1.3151 0.2521
C16 C 1.2188(15) 1.410(2) 0.2063(14)
H7 H 1.1895 1.4995 0.1978
C17 C 1.3078(15) 1.387(2) 0.1896(15)
H8 H 1.3416 1.4619 0.1693
C18 C 1.3559(15) 1.2590(19) 0.1998(14)
H9 H 1.4205 1.2451 0.1865
C19 C 1.3020(13) 1.147(2) 0.2320(13)
H10 H 1.3344 1.0594 0.2424
C20 C 0.7500(9) 0.6085(13) 0.2735(10)
C21 C 0.7378(10) 0.3703(13) 0.3258(10)
C22 C 0.8259(13) 0.2654(17) 0.3648(16)
H11 H 0.7951 0.1738 0.3646
H12 H 0.8689 0.2897 0.4334
H13 H 0.8706 0.2649 0.3214
C23 C 0.6637(12) 0.3185(18) 0.2267(10)
H14 H 0.5940 0.3608 0.2136
H15 H 0.6572 0.2183 0.2296
H16 H 0.6920 0.3427 0.1725
C24 C 0.6810(16) 0.4048(18) 0.4065(14)
H17 H 0.6524 0.4985 0.3954
H18 H 0.7323 0.3979 0.4742
H19 H 0.6232 0.3394 0.3996
C25 C 1.1268(9) 1.1600(15) 0.4288(10)
C26 C 1.0323(11) 0.7197(14) 0.1343(10)
C27 C 0.9055(13) 0.547(2) 0.0435(11)
H20 H 0.8932 0.6039 -0.0177
H21 H 0.9542 0.4713 0.0412
C28 C 0.8043(15) 0.490(2) 0.0467(13)
H22 H 0.7821 0.4148 -0.0021
H23 H 0.7503 0.5622 0.0300
H24 H 0.8132 0.4547 0.1143
N1 N 1.1509(9) 1.2420(12) 0.4935(8)
N2 N 0.9743(7) 0.9614(10) 0.4325(6)
H25 H 0.9923 1.0238 0.4802
H26 H 0.9261 0.8997 0.4319
N3 N 0.8194(7) 0.7175(10) 0.2662(6)
O1 O 1.0691(9) 0.7246(10) 0.0672(7)
O2 O 0.9537(9) 0.6335(11) 0.1350(7)
O3 O 0.6561(8) 0.6294(10) 0.2473(9)
O4 O 0.8007(6) 0.4978(8) 0.3138(6)
O5 O 0.9888(6) 0.6399(8) 0.3749(5)
loop_
_geom_bond_atom_site_label_1
_geom_bond_atom_site_label_2
_geom_bond_site_symmetry_1
_geom_bond_site_symmetry_2
Br1 C4 1_555 1_555
C1 C2 1_555 1_555
C2 H1 1_555 1_555
C3 C2 1_555 1_555
H2 C3 1_555 1_555
C4 C3 1_555 1_555
C5 C4 1_555 1_555
H3 C5 1_555 1_555
C6 C1 1_555 1_555
C7 C8 1_555 1_555
C8 C1 1_555 1_555
C9 C8 1_555 1_555
C10 C9 1_555 1_555
C11 C10 1_555 1_555
C12 C11 1_555 1_555
H4 C12 1_555 1_555
C13 C8 1_555 1_555
H5 C13 1_555 1_555
C14 C11 1_555 1_555
C15 C14 1_555 1_555
H6 C15 1_555 1_555
C16 C15 1_555 1_555
H7 C16 1_555 1_555
C17 C16 1_555 1_555
H8 C17 1_555 1_555
C18 C17 1_555 1_555
H9 C18 1_555 1_555
C19 C14 1_555 1_555
H10 C19 1_555 1_555
C20 N3 1_555 1_555
C21 C22 1_555 1_555
C22 H11 1_555 1_555
H12 C22 1_555 1_555
H13 C22 1_555 1_555
C23 C21 1_555 1_555
H14 C23 1_555 1_555
H15 C23 1_555 1_555
H16 C23 1_555 1_555
C24 C21 1_555 1_555
H17 C24 1_555 1_555
H18 C24 1_555 1_555
H19 C24 1_555 1_555
C25 C10 1_555 1_555
C26 C13 1_555 1_555
C27 H20 1_555 1_555
H21 C27 1_555 1_555
C28 C27 1_555 1_555
H22 C28 1_555 1_555
H23 C28 1_555 1_555
H24 C28 1_555 1_555
N1 C25 1_555 1_555
N2 C9 1_555 1_555
H25 N2 1_555 1_555
H26 N2 1_555 1_555
N3 C6 1_555 1_555
O1 C26 1_555 1_555
O2 C26 1_555 1_555
O3 C20 1_555 1_555
O4 C20 1_555 1_555
O5 C7 1_555 1_555
C5 C6 1_555 1_555
C7 N3 1_555 1_555
C12 C13 1_555 1_555
C18 C19 1_555 1_555
C21 O4 1_555 1_555
C27 O2 1_555 1_555

#END
