
#######################################################################
#
#                 Cambridge Crystallographic Data Centre
#                                CCDC 
#
#######################################################################
#
# If this CIF has been generated from an entry in the Cambridge 
# Structural Database, then it will include bibliographic, chemical, 
# crystal, experimental, refinement or atomic coordinate data resulting 
# from the CCDC's data processing and validation procedures.
#
#######################################################################

data_CITLAS
_chemical_formula_moiety         'C44 H54 N2 O8,4(H2 O1)'
_chemical_name_systematic        
'25,27:26,28-bis(3,9-Dioxa-6-azaundecane-1,11-dioxy)calix(4)arene tetrahydrate'
_symmetry_cell_setting           orthorhombic
_symmetry_space_group_name_H-M   'P b c n'
_symmetry_Int_Tables_number      60
_space_group_name_Hall           '-P 2n 2ab'
loop_
_symmetry_equiv_pos_site_id
_symmetry_equiv_pos_as_xyz
1 x,y,z
2 1/2-x,1/2-y,1/2+z
3 1/2+x,1/2-y,-z
4 -x,y,1/2-z
5 -x,-y,-z
6 1/2+x,1/2+y,1/2-z
7 1/2-x,1/2+y,z
8 x,-y,1/2+z
_cell_length_a                   15.922(2)
_cell_length_b                   16.7908(16)
_cell_length_c                   16.453(4)
_cell_angle_alpha                90
_cell_angle_beta                 90
_cell_angle_gamma                90
_cell_volume                     4398.6
_exptl_crystal_colour            colorless
_exptl_crystal_description       block
_chemical_melting_point          '458-461 K'
_cell_formula_units_Z            4
_exptl_crystal_recrystallization_method 'diethyl ether'
loop_
_atom_site_label
_atom_site_type_symbol
_atom_site_fract_x
_atom_site_fract_y
_atom_site_fract_z
N1 N 0.83325(17) 0.19262(18) 0.21232(18)
H1 H 0.7724 0.1956 0.2139
O1 O 0.40432(14) 0.29323(13) 0.14743(13)
O2 O 0.57001(14) 0.07666(13) 0.13362(14)
O3 O 0.73809(15) 0.09153(15) 0.09413(15)
O4 O 0.76449(15) 0.32006(17) 0.31586(16)
C1 C 0.4904(2) 0.29852(18) 0.13584(19)
C2 C 0.5380(2) 0.35139(19) 0.1824(2)
C3 C 0.5000 0.4006(3) 0.2500
H2 H 0.4531 0.4423 0.2264
C4 C 0.6235(2) 0.3552(2) 0.1657(2)
H3 H 0.6569 0.3908 0.1946
C5 C 0.6599(2) 0.3078(3) 0.1075(3)
H4 H 0.7170 0.3126 0.0964
C6 C 0.6124(2) 0.2537(2) 0.0658(2)
H5 H 0.6380 0.2204 0.0280
C7 C 0.5266(2) 0.2476(2) 0.0788(2)
C8 C 0.4745(2) 0.1864(2) 0.0340(2)
H6 H 0.5099 0.1601 -0.0058
H7 H 0.4302 0.2137 0.0047
C9 C 0.4351(2) 0.1235(2) 0.0880(2)
C10 C 0.3484(2) 0.1151(2) 0.0914(2)
H8 H 0.3150 0.1471 0.0586
C11 C 0.3108(2) 0.0607(2) 0.1418(3)
H9 H 0.2527 0.0549 0.1419
C12 C 0.3599(2) 0.0146(2) 0.1924(2)
H10 H 0.3343 -0.0215 0.2274
C13 C 0.4464(2) 0.02107(19) 0.1919(2)
C14 C 0.5000 -0.0279(3) 0.2500
H11 H 0.4603 -0.0675 0.2801
C15 C 0.4835(2) 0.07318(18) 0.1368(2)
C16 C 0.6072(2) 0.0311(3) 0.0689(3)
H12 H 0.6007 0.0593 0.0178
H13 H 0.5790 -0.0199 0.0643
C17 C 0.6975(2) 0.0186(2) 0.0861(3)
H14 H 0.7037 -0.0119 0.1359
H15 H 0.7228 -0.0116 0.0422
C18 C 0.8247(2) 0.0836(2) 0.1134(2)
H16 H 0.8547 0.0602 0.0680
H17 H 0.8316 0.0492 0.1603
C19 C 0.8584(2) 0.1642(2) 0.1314(2)
H18 H 0.9193 0.1628 0.1282
H19 H 0.8384 0.2013 0.0906
C20 C 0.8704(2) 0.2694(2) 0.2325(3)
H20 H 0.8500 0.3093 0.1947
H21 H 0.9309 0.2661 0.2265
C21 C 0.8500(2) 0.2947(2) 0.3166(3)
H22 H 0.8574 0.2506 0.3540
H23 H 0.8864 0.3380 0.3333
C22 C 0.7330(2) 0.3332(3) 0.3926(2)
H24 H 0.7648 0.3754 0.4186
H25 H 0.7395 0.2853 0.4249
C23 C 0.3575(2) 0.3559(2) 0.1102(2)
H26 H 0.3781 0.3652 0.0556
H27 H 0.3642 0.4046 0.1412
C22C C 0.2670(2) 0.3332(3) 0.1074(2)
O4C O 0.23551(15) 0.32006(17) 0.18414(16)
C21C C 0.1500(2) 0.2947(2) 0.1834(3)
C20C C 0.1296(2) 0.2694(2) 0.2675(3)
N1C N 0.16675(17) 0.19262(18) 0.28768(18)
H1C H 0.2276 0.1956 0.2861
C19C C 0.1416(2) 0.1642(2) 0.3686(2)
C18C C 0.1753(2) 0.0836(2) 0.3866(2)
O3C O 0.26191(15) 0.09153(15) 0.40587(15)
C17C C 0.3025(2) 0.0186(2) 0.4139(3)
C16C C 0.3928(2) 0.0311(3) 0.4311(3)
O2C O 0.42999(14) 0.07666(13) 0.36638(14)
C15C C 0.5165(2) 0.07318(18) 0.3632(2)
C9C C 0.5649(2) 0.1235(2) 0.4120(2)
C8C C 0.5255(2) 0.1864(2) 0.4660(2)
C7C C 0.4734(2) 0.2476(2) 0.4212(2)
C1C C 0.5096(2) 0.29852(18) 0.36416(19)
O1C O 0.59568(14) 0.29323(13) 0.35257(13)
C23C C 0.6425(2) 0.3559(2) 0.3898(2)
H26C H 0.6219 0.3652 0.4444
H27C H 0.6358 0.4046 0.3588
C2C C 0.4620(2) 0.35139(19) 0.3176(2)
H2C H 0.5469 0.4423 0.2736
C4C C 0.3765(2) 0.3552(2) 0.3343(2)
H3C H 0.3431 0.3908 0.3054
C5C C 0.3401(2) 0.3078(3) 0.3925(3)
H4C H 0.2830 0.3126 0.4036
C6C C 0.3876(2) 0.2537(2) 0.4342(2)
H5C H 0.3620 0.2204 0.4720
H6C H 0.4901 0.1601 0.5058
H7C H 0.5698 0.2137 0.4953
C10C C 0.6516(2) 0.1151(2) 0.4086(2)
H8C H 0.6850 0.1471 0.4414
C11C C 0.6892(2) 0.0607(2) 0.3582(3)
H9C H 0.7473 0.0549 0.3581
C12C C 0.6401(2) 0.0146(2) 0.3076(2)
H10C H 0.6657 -0.0215 0.2726
C13C C 0.5536(2) 0.02107(19) 0.3081(2)
H11C H 0.5397 -0.0675 0.2199
H12C H 0.3993 0.0593 0.4822
H13C H 0.4210 -0.0199 0.4357
H14C H 0.2963 -0.0119 0.3641
H15C H 0.2772 -0.0116 0.4578
H16C H 0.1453 0.0602 0.4320
H17C H 0.1684 0.0492 0.3397
H18C H 0.0807 0.1628 0.3718
H19C H 0.1616 0.2013 0.4094
H20C H 0.1500 0.3093 0.3053
H21C H 0.0691 0.2661 0.2735
H22C H 0.1426 0.2506 0.1460
H23C H 0.1136 0.3380 0.1667
H24C H 0.2352 0.3754 0.0814
H25C H 0.2605 0.2853 0.0751
O5 O 0.9337(2) 0.08721(18) 0.30622(19)
H28 H 0.9003 0.1133 0.2746
H29 H 0.9028 0.0496 0.3270
O6 O 0.9462(3) 0.0594(2) 0.47177(19)
H30 H 0.9501 0.0715 0.4210
H31 H 0.9531 0.0083 0.4738
loop_
_geom_bond_atom_site_label_1
_geom_bond_atom_site_label_2
_geom_bond_site_symmetry_1
_geom_bond_site_symmetry_2
N1 H1 1_555 1_555
O1 C1 1_555 1_555
O2 C15 1_555 1_555
O3 C17 1_555 1_555
O4 C21 1_555 1_555
C1 C2 1_555 1_555
C2 C3 1_555 1_555
C3 H2 1_555 1_555
C4 C2 1_555 1_555
H3 C4 1_555 1_555
C5 C4 1_555 1_555
H4 C5 1_555 1_555
C6 C5 1_555 1_555
H5 C6 1_555 1_555
C7 C1 1_555 1_555
C8 C7 1_555 1_555
H6 C8 1_555 1_555
H7 C8 1_555 1_555
C9 C8 1_555 1_555
C10 C9 1_555 1_555
H8 C10 1_555 1_555
C11 C10 1_555 1_555
H9 C11 1_555 1_555
C12 C11 1_555 1_555
H10 C12 1_555 1_555
C13 C12 1_555 1_555
C14 C13 1_555 1_555
H11 C14 1_555 1_555
C15 C9 1_555 1_555
C16 O2 1_555 1_555
H12 C16 1_555 1_555
H13 C16 1_555 1_555
C17 C16 1_555 1_555
H14 C17 1_555 1_555
H15 C17 1_555 1_555
C18 O3 1_555 1_555
H16 C18 1_555 1_555
H17 C18 1_555 1_555
C19 N1 1_555 1_555
H18 C19 1_555 1_555
H19 C19 1_555 1_555
C20 N1 1_555 1_555
H20 C20 1_555 1_555
H21 C20 1_555 1_555
C21 C20 1_555 1_555
H22 C21 1_555 1_555
H23 C21 1_555 1_555
C22 O4 1_555 1_555
H24 C22 1_555 1_555
H25 C22 1_555 1_555
C23 O1 1_555 1_555
H26 C23 1_555 1_555
H27 C23 1_555 1_555
O5 H28 1_555 1_555
H29 O5 1_555 1_555
O6 H30 1_555 1_555
H31 O6 1_555 1_555
C22C C23 1_555 1_555
O4C C22C 1_555 1_555
C21C O4C 1_555 1_555
C20C C21C 1_555 1_555
N1C C20C 1_555 1_555
H1C N1C 1_555 1_555
C19C N1C 1_555 1_555
C18C C19C 1_555 1_555
O3C C18C 1_555 1_555
C17C O3C 1_555 1_555
C16C C17C 1_555 1_555
O2C C16C 1_555 1_555
C15C O2C 1_555 1_555
C9C C15C 1_555 1_555
C8C C9C 1_555 1_555
C7C C8C 1_555 1_555
C1C C7C 1_555 1_555
O1C C1C 1_555 1_555
C23C C22 1_555 1_555
H26C C23C 1_555 1_555
H27C C23C 1_555 1_555
C2C C3 1_555 1_555
H2C C3 1_555 1_555
C4C C2C 1_555 1_555
H3C C4C 1_555 1_555
C5C C4C 1_555 1_555
H4C C5C 1_555 1_555
C6C C7C 1_555 1_555
H5C C6C 1_555 1_555
H6C C8C 1_555 1_555
H7C C8C 1_555 1_555
C10C C9C 1_555 1_555
H8C C10C 1_555 1_555
C11C C10C 1_555 1_555
H9C C11C 1_555 1_555
C12C C11C 1_555 1_555
H10C C12C 1_555 1_555
C13C C14 1_555 1_555
H11C C14 1_555 1_555
H12C C16C 1_555 1_555
H13C C16C 1_555 1_555
H14C C17C 1_555 1_555
H15C C17C 1_555 1_555
H16C C18C 1_555 1_555
H17C C18C 1_555 1_555
H18C C19C 1_555 1_555
H19C C19C 1_555 1_555
H20C C20C 1_555 1_555
H21C C20C 1_555 1_555
H22C C21C 1_555 1_555
H23C C21C 1_555 1_555
H24C C22C 1_555 1_555
H25C C22C 1_555 1_555
C6 C7 1_555 1_555
C13 C15 1_555 1_555
C18 C19 1_555 1_555
C15C C13C 1_555 1_555
C1C C2C 1_555 1_555
O1C C23C 1_555 1_555
C5C C6C 1_555 1_555
C12C C13C 1_555 1_555

#END
