
#######################################################################
#
#                 Cambridge Crystallographic Data Centre
#                                CCDC 
#
#######################################################################
#
# If this CIF has been generated from an entry in the Cambridge 
# Structural Database, then it will include bibliographic, chemical, 
# crystal, experimental, refinement or atomic coordinate data resulting 
# from the CCDC's data processing and validation procedures.
#
#######################################################################

data_CITNEZ
_chemical_formula_moiety         'C20 H31 N1 O5 Si1'
_chemical_name_systematic        
5-Isopropyl-3-(2-methyl-3-(4-methoxyphenyl)-3-(trimethylsiloxy)propionyl)-1,3-oxazolan-2-one
_symmetry_cell_setting           orthorhombic
_symmetry_space_group_name_H-M   'P 21 21 21'
_symmetry_Int_Tables_number      19
_space_group_name_Hall           'P 2ac 2ab'
loop_
_symmetry_equiv_pos_site_id
_symmetry_equiv_pos_as_xyz
1 x,y,z
2 1/2-x,-y,1/2+z
3 -x,1/2+y,1/2-z
4 1/2+x,1/2-y,-z
_cell_length_a                   6.49690(10)
_cell_length_b                   15.5368(3)
_cell_length_c                   21.4712(4)
_cell_angle_alpha                90
_cell_angle_beta                 90
_cell_angle_gamma                90
_cell_volume                     2167.33
_exptl_crystal_colour            colorless
_exptl_crystal_description       block
_cell_formula_units_Z            4
loop_
_atom_site_label
_atom_site_type_symbol
_atom_site_fract_x
_atom_site_fract_y
_atom_site_fract_z
Si1 Si 0.96650(6) 0.52540(2) 0.781152(19)
O1 O 0.72338(17) 0.47302(6) 0.62330(4)
N1 N 0.87767(19) 0.36628(7) 0.57043(5)
C1 C 0.7814(2) 0.39913(9) 0.62393(6)
O2 O 0.9585(2) 0.22348(6) 0.59449(5)
C2 C 0.7442(2) 0.33878(9) 0.67848(6)
H1 H 0.858(3) 0.2990(11) 0.6807(7)
O3 O 1.00804(17) 0.27704(6) 0.49958(4)
C3 C 0.7397(2) 0.39160(8) 0.73886(6)
H2 H 0.630(2) 0.4341(10) 0.7345(7)
O4 O 0.57727(18) 0.17573(7) 0.94662(5)
C4 C 0.9084(2) 0.42204(9) 0.51556(6)
H3 H 0.782(3) 0.4518(10) 0.5083(7)
O5 O 0.93656(15) 0.43174(6) 0.74512(4)
C5 C 0.9500(3) 0.35405(9) 0.46572(6)
H4 H 1.065(3) 0.3696(11) 0.4389(8)
H5 H 0.823(3) 0.3399(12) 0.4413(8)
C6 C 0.9474(2) 0.28301(9) 0.55936(6)
C7 C 1.0824(2) 0.48738(9) 0.52499(6)
H6 H 1.046(3) 0.5232(10) 0.5603(8)
C8 C 1.2891(3) 0.44478(13) 0.53819(11)
H7 H 1.273(4) 0.4021(16) 0.5736(11)
H8 H 1.347(4) 0.4056(15) 0.5022(11)
H9 H 1.386(4) 0.4867(14) 0.5483(10)
C9 C 1.0968(3) 0.54652(11) 0.46839(8)
H10 H 1.140(3) 0.5163(13) 0.4326(9)
H11 H 1.196(4) 0.5923(14) 0.4778(10)
H12 H 0.961(3) 0.5727(13) 0.4595(9)
C10 C 0.5412(3) 0.29179(10) 0.66680(7)
H13 H 0.529(3) 0.2655(13) 0.6242(10)
H14 H 0.514(3) 0.2514(12) 0.6969(8)
H15 H 0.420(3) 0.3356(13) 0.6692(9)
C11 C 0.6917(2) 0.33482(8) 0.79454(6)
C12 C 0.8470(2) 0.28756(10) 0.82345(7)
H16 H 0.984(3) 0.2944(11) 0.8084(8)
C13 C 0.8030(2) 0.23496(11) 0.87354(7)
H17 H 0.913(4) 0.2010(14) 0.8937(10)
C14 C 0.6030(2) 0.22769(9) 0.89585(6)
C15 C 0.4463(2) 0.27351(9) 0.86708(6)
H18 H 0.311(3) 0.2684(10) 0.8835(7)
C16 C 0.4928(2) 0.32662(8) 0.81691(6)
H19 H 0.385(3) 0.3580(11) 0.7970(8)
C17 C 0.3730(3) 0.16052(11) 0.96744(8)
H20 H 0.289(3) 0.1334(13) 0.9353(9)
H21 H 0.300(4) 0.2181(14) 0.9813(10)
H22 H 0.381(3) 0.1250(13) 1.0021(9)
C18 C 0.8087(3) 0.61057(12) 0.74381(13)
H23 H 0.664(4) 0.5995(14) 0.7446(10)
H24 H 0.858(5) 0.6177(18) 0.7004(15)
H25 H 0.837(5) 0.6619(17) 0.7616(12)
C19 C 1.2432(3) 0.55238(12) 0.77386(12)
H26 H 1.272(4) 0.6070(18) 0.7889(13)
H27 H 1.336(4) 0.5107(17) 0.7972(13)
H28 H 1.275(4) 0.5503(14) 0.7301(11)
C20 C 0.8932(4) 0.51391(14) 0.86477(9)
H29 H 0.923(4) 0.5624(15) 0.8878(10)
H30 H 0.751(5) 0.5035(17) 0.8665(11)
H31 H 0.973(4) 0.4662(17) 0.8814(12)
loop_
_geom_bond_atom_site_label_1
_geom_bond_atom_site_label_2
_geom_bond_site_symmetry_1
_geom_bond_site_symmetry_2
Si1 O5 1_555 1_555
O1 C1 1_555 1_555
N1 C1 1_555 1_555
C1 C2 1_555 1_555
O2 C6 1_555 1_555
C2 H1 1_555 1_555
O3 C5 1_555 1_555
C3 C2 1_555 1_555
H2 C3 1_555 1_555
O4 C14 1_555 1_555
C4 N1 1_555 1_555
H3 C4 1_555 1_555
O5 C3 1_555 1_555
C5 C4 1_555 1_555
H4 C5 1_555 1_555
H5 C5 1_555 1_555
C6 N1 1_555 1_555
C7 C4 1_555 1_555
H6 C7 1_555 1_555
C8 C7 1_555 1_555
H7 C8 1_555 1_555
H8 C8 1_555 1_555
H9 C8 1_555 1_555
C9 C7 1_555 1_555
H10 C9 1_555 1_555
H11 C9 1_555 1_555
H12 C9 1_555 1_555
C10 C2 1_555 1_555
H13 C10 1_555 1_555
H14 C10 1_555 1_555
H15 C10 1_555 1_555
C11 C3 1_555 1_555
C12 C11 1_555 1_555
H16 C12 1_555 1_555
C13 C12 1_555 1_555
H17 C13 1_555 1_555
C14 C13 1_555 1_555
C15 C14 1_555 1_555
H18 C15 1_555 1_555
C16 C11 1_555 1_555
H19 C16 1_555 1_555
C17 O4 1_555 1_555
H20 C17 1_555 1_555
H21 C17 1_555 1_555
H22 C17 1_555 1_555
C18 Si1 1_555 1_555
H23 C18 1_555 1_555
H24 C18 1_555 1_555
H25 C18 1_555 1_555
C19 Si1 1_555 1_555
H26 C19 1_555 1_555
H27 C19 1_555 1_555
H28 C19 1_555 1_555
C20 Si1 1_555 1_555
H29 C20 1_555 1_555
H30 C20 1_555 1_555
H31 C20 1_555 1_555
O3 C6 1_555 1_555
C15 C16 1_555 1_555

#END
