
#######################################################################
#
#                 Cambridge Crystallographic Data Centre
#                                CCDC 
#
#######################################################################
#
# If this CIF has been generated from an entry in the Cambridge 
# Structural Database, then it will include bibliographic, chemical, 
# crystal, experimental, refinement or atomic coordinate data resulting 
# from the CCDC's data processing and validation procedures.
#
#######################################################################

data_CITXAE13
_chemical_compound_source        'Lactobacillus plantarum LBP-K10'
_chemical_name_common            
3-benzylhexahydropyrrolo[1,2-a]pyrazine-1,4-dione
_chemical_formula_moiety         'C14 H16 N2 O2'
_chemical_name_systematic        cis-cyclo((L-phenylalanyl)(L-prolyl))
_symmetry_cell_setting           monoclinic
_symmetry_space_group_name_H-M   'P 21'
_symmetry_Int_Tables_number      4
_space_group_name_Hall           'P 2yb'
loop_
_symmetry_equiv_pos_site_id
_symmetry_equiv_pos_as_xyz
1 x,y,z
2 -x,1/2+y,-z
_cell_length_a                   5.59
_cell_length_b                   10.01
_cell_length_c                   10.68
_cell_angle_alpha                90
_cell_angle_beta                 87.63
_cell_angle_gamma                90
_cell_volume                     597.098
_exptl_crystal_colour            colorless
_cell_formula_units_Z            2
_chemical_properties_physical    Moisture-sensitive
loop_
_atom_site_label
_atom_site_type_symbol
_atom_site_fract_x
_atom_site_fract_y
_atom_site_fract_z
O1 O 0.8838(7) 0.8747(4) 0.3532(4)
C1 C 0.8960(9) 0.7679(6) 0.4087(4)
N1 N 0.7389(8) 0.7254(5) 0.5025(4)
C2 C 0.7697(8) 0.5926(5) 0.5565(4)
C3 C 0.5731(8) 0.5575(6) 0.6517(4)
C4 C 0.6106(9) 0.6220(6) 0.7763(5)
C5 C 0.8106(8) 0.5892(6) 0.8449(5)
C6 C 0.8455(9) 0.6506(7) 0.9587(5)
C7 C 0.6842(11) 0.7422(7) 1.0093(5)
C8 C 0.4799(11) 0.7743(6) 0.9444(5)
C9 C 0.4447(9) 0.7143(6) 0.8283(5)
C10 C 0.8017(9) 0.4913(6) 0.4501(4)
O2 O 0.6917(6) 0.3848(4) 0.4429(3)
N2 N 0.9752(8) 0.5318(5) 0.3637(4)
C11 C 1.0907(8) 0.6630(6) 0.3758(4)
C12 C 1.2256(9) 0.6828(5) 0.2517(4)
C13 C 1.2810(9) 0.5377(6) 0.2103(5)
C14 C 1.0586(9) 0.4613(6) 0.2497(4)
loop_
_geom_bond_atom_site_label_1
_geom_bond_atom_site_label_2
_geom_bond_site_symmetry_1
_geom_bond_site_symmetry_2
O1 C1 1_555 1_555
C1 N1 1_555 1_555
N1 C2 1_555 1_555
C2 C3 1_555 1_555
C3 C4 1_555 1_555
C4 C5 1_555 1_555
C5 C6 1_555 1_555
C6 C7 1_555 1_555
C7 C8 1_555 1_555
C8 C9 1_555 1_555
C9 C4 1_555 1_555
C10 C2 1_555 1_555
O2 C10 1_555 1_555
N2 C10 1_555 1_555
C11 C1 1_555 1_555
C12 C11 1_555 1_555
C13 C12 1_555 1_555
C14 N2 1_555 1_555
N2 C11 1_555 1_555
C13 C14 1_555 1_555

#END
