
#######################################################################
#
#                 Cambridge Crystallographic Data Centre
#                                CCDC 
#
#######################################################################
#
# If this CIF has been generated from an entry in the Cambridge 
# Structural Database, then it will include bibliographic, chemical, 
# crystal, experimental, refinement or atomic coordinate data resulting 
# from the CCDC's data processing and validation procedures.
#
#######################################################################

data_CIVCIU
_chemical_formula_moiety         'C28 H28 F3 N1 O2'
_chemical_name_systematic        
(R,S)-2-Ethyl-4,4-diphenyl-N-(3,3,3-trifluoro-2-methoxy-2-phenylpropan-1-on-1-yl)pyrrolidine
_symmetry_cell_setting           orthorhombic
_symmetry_space_group_name_H-M   'P 21 21 21'
_symmetry_Int_Tables_number      19
_space_group_name_Hall           'P 2ac 2ab'
loop_
_symmetry_equiv_pos_site_id
_symmetry_equiv_pos_as_xyz
1 x,y,z
2 1/2-x,-y,1/2+z
3 -x,1/2+y,1/2-z
4 1/2+x,1/2-y,-z
_cell_length_a                   13.062(7)
_cell_length_b                   13.610(7)
_cell_length_c                   13.627(7)
_cell_angle_alpha                90
_cell_angle_beta                 90
_cell_angle_gamma                90
_cell_volume                     2422.52
_exptl_crystal_colour            colorless
_exptl_crystal_description       Prism
_cell_formula_units_Z            4
loop_
_atom_site_label
_atom_site_type_symbol
_atom_site_fract_x
_atom_site_fract_y
_atom_site_fract_z
F1 F 0.27272(10) 0.09607(9) 0.61518(10)
F2 F 0.14632(10) 0.06841(9) 0.71138(12)
F3 F 0.30087(12) 0.05217(8) 0.76367(11)
O1 O 0.41866(10) 0.21579(10) 0.71364(13)
O2 O 0.15878(9) 0.26387(10) 0.68374(10)
N1 N 0.34443(10) 0.36476(10) 0.72679(11)
C1 C 0.26522(12) 0.43248(11) 0.76277(12)
H1 H 0.2247 0.4025 0.8144
H2 H 0.2202 0.4533 0.7101
C2 C 0.32901(12) 0.51936(11) 0.80242(12)
C3 C 0.40919(13) 0.52615(12) 0.71890(12)
H3 H 0.3803 0.5584 0.6617
H4 H 0.4690 0.5626 0.7403
C4 C 0.43753(13) 0.41929(12) 0.69531(13)
H5 H 0.4966 0.3988 0.7346
C5 C 0.45912(16) 0.40256(15) 0.58589(15)
H6 H 0.4761 0.3339 0.5757
H7 H 0.3974 0.4166 0.5488
C6 C 0.54590(19) 0.4659(2) 0.54674(18)
H8 H 0.5585 0.4497 0.4793
H9 H 0.6067 0.4541 0.5845
H10 H 0.5273 0.5340 0.5517
C7 C 0.34260(13) 0.26604(12) 0.72641(13)
C8 C 0.23538(13) 0.21734(12) 0.73994(13)
C9 C 0.24070(15) 0.10762(13) 0.70764(15)
C10 C 0.17673(17) 0.28086(16) 0.58112(15)
H11 H 0.1183 0.3129 0.5529
H12 H 0.1879 0.2192 0.5486
H13 H 0.2360 0.3218 0.5733
C11 C 0.20146(15) 0.22022(13) 0.84785(14)
C12 C 0.10403(18) 0.25058(17) 0.87290(18)
H14 H 0.0582 0.2695 0.8242
C13 C 0.0743(3) 0.2529(2) 0.9714(2)
H15 H 0.0090 0.2745 0.9882
C14 C 0.1410(4) 0.2235(3) 1.0433(2)
H16 H 0.1206 0.2239 1.1086
C15 C 0.2373(3) 0.1937(2) 1.0189(2)
H17 H 0.2823 0.1743 1.0680
C16 C 0.2691(2) 0.19193(17) 0.92139(17)
H18 H 0.3352 0.1720 0.9056
C17 C 0.26483(13) 0.61276(11) 0.81188(12)
C18 C 0.15959(15) 0.60854(14) 0.82962(15)
H19 H 0.1280 0.5479 0.8378
C19 C 0.10147(18) 0.69399(17) 0.83514(17)
H20 H 0.0314 0.6901 0.8467
C20 C 0.1470(2) 0.78397(17) 0.82362(19)
H21 H 0.1079 0.8410 0.8260
C21 C 0.2510(2) 0.78936(15) 0.8084(2)
H22 H 0.2820 0.8505 0.8017
C22 C 0.31016(16) 0.70493(13) 0.80305(16)
H23 H 0.3805 0.7099 0.7935
C23 C 0.37769(13) 0.49632(11) 0.90249(12)
C24 C 0.32479(15) 0.44404(14) 0.97401(13)
H24 H 0.2596 0.4204 0.9601
C25 C 0.36726(19) 0.42629(16) 1.06577(14)
H25 H 0.3307 0.3904 1.1121
C26 C 0.46306(18) 0.46145(17) 1.08842(15)
H26 H 0.4912 0.4502 1.1501
C27 C 0.51674(17) 0.51335(19) 1.01893(17)
H27 H 0.5817 0.5371 1.0338
C28 C 0.47510(15) 0.53073(15) 0.92656(14)
H28 H 0.5127 0.5657 0.8803
loop_
_geom_bond_atom_site_label_1
_geom_bond_atom_site_label_2
_geom_bond_site_symmetry_1
_geom_bond_site_symmetry_2
F1 C9 1_555 1_555
F2 C9 1_555 1_555
F3 C9 1_555 1_555
O1 C7 1_555 1_555
O2 C8 1_555 1_555
N1 C1 1_555 1_555
C1 H1 1_555 1_555
H2 C1 1_555 1_555
C2 C1 1_555 1_555
C3 C2 1_555 1_555
H3 C3 1_555 1_555
H4 C3 1_555 1_555
C4 N1 1_555 1_555
H5 C4 1_555 1_555
C5 C4 1_555 1_555
H6 C5 1_555 1_555
H7 C5 1_555 1_555
C6 C5 1_555 1_555
H8 C6 1_555 1_555
H9 C6 1_555 1_555
H10 C6 1_555 1_555
C7 N1 1_555 1_555
C8 C7 1_555 1_555
C9 C8 1_555 1_555
C10 O2 1_555 1_555
H11 C10 1_555 1_555
H12 C10 1_555 1_555
H13 C10 1_555 1_555
C11 C8 1_555 1_555
C12 C11 1_555 1_555
H14 C12 1_555 1_555
C13 C12 1_555 1_555
H15 C13 1_555 1_555
C14 C13 1_555 1_555
H16 C14 1_555 1_555
C15 C14 1_555 1_555
H17 C15 1_555 1_555
C16 C11 1_555 1_555
H18 C16 1_555 1_555
C17 C2 1_555 1_555
C18 C17 1_555 1_555
H19 C18 1_555 1_555
C19 C18 1_555 1_555
H20 C19 1_555 1_555
C20 C19 1_555 1_555
H21 C20 1_555 1_555
C21 C20 1_555 1_555
H22 C21 1_555 1_555
C22 C17 1_555 1_555
H23 C22 1_555 1_555
C23 C2 1_555 1_555
C24 C23 1_555 1_555
H24 C24 1_555 1_555
C25 C24 1_555 1_555
H25 C25 1_555 1_555
C26 C25 1_555 1_555
H26 C26 1_555 1_555
C27 C26 1_555 1_555
H27 C27 1_555 1_555
C28 C23 1_555 1_555
H28 C28 1_555 1_555
C3 C4 1_555 1_555
C15 C16 1_555 1_555
C21 C22 1_555 1_555
C27 C28 1_555 1_555

#END
