
#######################################################################
#
#                 Cambridge Crystallographic Data Centre
#                                CCDC 
#
#######################################################################
#
# If this CIF has been generated from an entry in the Cambridge 
# Structural Database, then it will include bibliographic, chemical, 
# crystal, experimental, refinement or atomic coordinate data resulting 
# from the CCDC's data processing and validation procedures.
#
#######################################################################

data_CIVJEY
_chemical_formula_moiety         'C53 H38 N4 O2'
_chemical_name_systematic        
'benzyl (2,7,12,17-tetraphenyl-4,21,22,23-tetraazapentacyclo[16.2.1.1^3,6^.1^8,11^.1^13,16^]tetracosa-1,3(24),5,7,9,11(23),12,14,16,18(21),19-undecaen-4-yl)acetate'
_symmetry_cell_setting           triclinic
_symmetry_space_group_name_H-M   'P -1'
_symmetry_Int_Tables_number      2
_space_group_name_Hall           '-P 1'
loop_
_symmetry_equiv_pos_site_id
_symmetry_equiv_pos_as_xyz
1 x,y,z
2 -x,-y,-z
_cell_length_a                   10.1896(7)
_cell_length_b                   13.0973(9)
_cell_length_c                   15.0671(9)
_cell_angle_alpha                83.077(4)
_cell_angle_beta                 86.035(4)
_cell_angle_gamma                76.838(4)
_cell_volume                     1941.89
_exptl_crystal_colour            blue
_exptl_crystal_description       parallelepiped
_cell_formula_units_Z            2
loop_
_atom_site_label
_atom_site_type_symbol
_atom_site_fract_x
_atom_site_fract_y
_atom_site_fract_z
N1 N -0.42293(17) 1.11853(13) 0.98628(11)
N2 N -0.38501(17) 1.04736(13) 0.80623(11)
H1 H -0.3549 1.0187 0.8589
N3 N -0.14622(17) 0.88579(13) 0.86163(11)
N4 N -0.01535(17) 0.89998(14) 1.12338(11)
C1 C -0.4355(2) 1.13255(15) 1.07693(13)
C2 C -0.5609(2) 1.20682(16) 1.09519(14)
H2 H -0.5950 1.2283 1.1519
C3 C -0.6196(2) 1.23945(16) 1.01647(14)
H3 H -0.7028 1.2886 1.0066
C4 C -0.5304(2) 1.18465(15) 0.94950(13)
C5 C -0.5548(2) 1.20078(16) 0.85598(13)
C6 C -0.4852(2) 1.13793(16) 0.79240(14)
C7 C -0.5012(2) 1.15580(18) 0.69724(15)
H4 H -0.5624 1.2131 0.6670
C8 C -0.4154(2) 1.07817(18) 0.65803(15)
H5 H -0.4070 1.0709 0.5958
C9 C -0.3389(2) 1.00817(17) 0.72631(14)
C10 C -0.2355(2) 0.92126(16) 0.71195(14)
C11 C -0.1510(2) 0.85899(16) 0.77904(13)
C12 C -0.0607(2) 0.75800(17) 0.76663(14)
H6 H -0.0464 0.7233 0.7138
C13 C -0.0016(2) 0.72372(17) 0.84471(14)
H7 H 0.0621 0.6593 0.8582
C14 C -0.0537(2) 0.80372(15) 0.90458(13)
C15 C -0.01332(19) 0.79809(15) 0.99145(13)
C16 C -0.0758(2) 0.87560(15) 1.04962(13)
C17 C -0.2023(2) 0.94149(15) 1.04568(13)
H8 H -0.2663 0.9434 1.0022
C18 C -0.2220(2) 1.00543(15) 1.11623(13)
C19 C -0.1014(2) 0.97750(16) 1.16132(14)
H9 H -0.0833 1.0089 1.2115
C20 C -0.3370(2) 1.08647(15) 1.13786(13)
C21 C -0.6555(2) 1.29670(17) 0.82201(14)
C22 C -0.6407(2) 1.39539(18) 0.83821(17)
H10 H -0.5704 1.4008 0.8744
C23 C -0.7277(3) 1.48655(19) 0.80198(18)
H11 H -0.7171 1.5536 0.8142
C24 C -0.8282(3) 1.4800(2) 0.74897(16)
H12 H -0.8854 1.5424 0.7224
C25 C -0.8461(3) 1.3830(2) 0.73433(17)
H13 H -0.9168 1.3784 0.6981
C26 C -0.7624(2) 1.2914(2) 0.77160(15)
H14 H -0.7782 1.2247 0.7627
C27 C -0.2130(2) 0.88770(17) 0.62006(15)
C28 C -0.3095(3) 0.8483(2) 0.5834(2)
H15 H -0.3928 0.8470 0.6155
C29 C -0.2859(4) 0.8110(3) 0.5007(3)
H16 H -0.3527 0.7834 0.4767
C30 C -0.1678(4) 0.8134(2) 0.45321(19)
H17 H -0.1521 0.7869 0.3965
C31 C -0.0713(4) 0.8540(2) 0.48723(17)
H18 H 0.0101 0.8574 0.4534
C32 C -0.0932(3) 0.8902(2) 0.57140(16)
H19 H -0.0256 0.9168 0.5955
C33 C 0.0916(2) 0.70299(15) 1.02182(12)
C34 C 0.2260(2) 0.69269(17) 0.99206(15)
H20 H 0.2532 0.7493 0.9557
C35 C 0.3202(2) 0.60062(19) 1.01508(16)
H21 H 0.4120 0.5951 0.9956
C36 C 0.2819(2) 0.51764(19) 1.06567(17)
H22 H 0.3467 0.4542 1.0808
C37 C 0.1493(3) 0.5264(2) 1.09454(18)
H23 H 0.1224 0.4683 1.1290
C38 C 0.0547(2) 0.61873(18) 1.07399(15)
H24 H -0.0361 0.6244 1.0958
C39 C -0.3433(2) 1.12469(16) 1.22756(13)
C40 C -0.3139(2) 1.05457(18) 1.30462(14)
H25 H -0.2949 0.9808 1.3004
C41 C -0.3119(3) 1.0905(2) 1.38696(15)
H26 H -0.2918 1.0413 1.4385
C42 C -0.3389(3) 1.1970(2) 1.39486(16)
H27 H -0.3361 1.2215 1.4514
C43 C -0.3701(3) 1.2681(2) 1.31925(16)
H28 H -0.3908 1.3417 1.3243
C44 C -0.3714(2) 1.23276(17) 1.23678(14)
H29 H -0.3915 1.2824 1.1855
C45 C 0.1228(2) 0.86266(19) 1.15070(16)
H30 H 0.185(3) 0.832(2) 1.0998(18)
H31 H 0.153(3) 0.928(3) 1.164(2)
O1 O 0.0443(4) 0.8099(3) 1.2925(2)
O2 O 0.2582(6) 0.7469(4) 1.2484(4)
C46 C 0.1333(8) 0.8054(5) 1.2367(5)
C47 C 0.2892(6) 0.6963(4) 1.3367(4)
H32 H 0.2526 0.7472 1.3806
H33 H 0.3884 0.6766 1.3413
C48 C 0.2338(7) 0.6003(4) 1.3604(4)
C49 C 0.1433(7) 0.5958(5) 1.4336(4)
H34 H 0.1145 0.6544 1.4673
C50 C 0.0953(6) 0.5031(5) 1.4571(4)
H35 H 0.0330 0.4988 1.5065
C51 C 0.1388(7) 0.4193(5) 1.4084(4)
H36 H 0.1050 0.3573 1.4241
C52 C 0.2283(8) 0.4226(5) 1.3389(5)
H37 H 0.2584 0.3631 1.3065
C53 C 0.2763(7) 0.5126(5) 1.3148(4)
H38 H 0.3398 0.5143 1.2657
O3? O 0.0465(4) 0.7361(4) 1.2690(3)
O4? O 0.2633(6) 0.7052(5) 1.2208(4)
C54? C 0.1371(8) 0.7611(6) 1.2222(5)
C55? C 0.2889(6) 0.5975(5) 1.2668(4)
H39? H 0.3601 0.5523 1.2319
H40? H 0.2058 0.5704 1.2664
C56? C 0.3308(7) 0.5861(4) 1.3612(4)
C57? C 0.2377(9) 0.5803(8) 1.4302(5)
H41? H 0.1445 0.5954 1.4184
C58? C 0.4631(6) 0.5691(5) 1.3809(4)
C59? C 0.5035(7) 0.5448(5) 1.4689(5)
C60? C 0.4081(9) 0.5326(6) 1.5350(4)
H42? H 0.5291 0.5739 1.3338
H43? H 0.5961 0.5365 1.4827
H44? H 0.4363 0.5090 1.5949
C61? C 0.2780(9) 0.5529(8) 1.5163(5)
H45? H 0.2122 0.5482 1.5636
loop_
_geom_bond_atom_site_label_1
_geom_bond_atom_site_label_2
_geom_bond_site_symmetry_1
_geom_bond_site_symmetry_2
N1 C1 1_555 1_555
N2 H1 1_555 1_555
N3 C11 1_555 1_555
N4 C16 1_555 1_555
C1 C2 1_555 1_555
C2 H2 1_555 1_555
C3 C2 1_555 1_555
H3 C3 1_555 1_555
C4 N1 1_555 1_555
C5 C4 1_555 1_555
C6 N2 1_555 1_555
C7 C6 1_555 1_555
H4 C7 1_555 1_555
C8 C7 1_555 1_555
H5 C8 1_555 1_555
C9 N2 1_555 1_555
C10 C9 1_555 1_555
C11 C10 1_555 1_555
C12 C11 1_555 1_555
H6 C12 1_555 1_555
C13 C12 1_555 1_555
H7 C13 1_555 1_555
C14 N3 1_555 1_555
C15 C14 1_555 1_555
C16 C15 1_555 1_555
C17 C16 1_555 1_555
H8 C17 1_555 1_555
C18 C17 1_555 1_555
C19 N4 1_555 1_555
H9 C19 1_555 1_555
C20 C1 1_555 1_555
C21 C5 1_555 1_555
C22 C21 1_555 1_555
H10 C22 1_555 1_555
C23 C22 1_555 1_555
H11 C23 1_555 1_555
C24 C23 1_555 1_555
H12 C24 1_555 1_555
C25 C24 1_555 1_555
H13 C25 1_555 1_555
C26 C21 1_555 1_555
H14 C26 1_555 1_555
C27 C10 1_555 1_555
C28 C27 1_555 1_555
H15 C28 1_555 1_555
C29 C28 1_555 1_555
H16 C29 1_555 1_555
C30 C29 1_555 1_555
H17 C30 1_555 1_555
C31 C30 1_555 1_555
H18 C31 1_555 1_555
C32 C27 1_555 1_555
H19 C32 1_555 1_555
C33 C15 1_555 1_555
C34 C33 1_555 1_555
H20 C34 1_555 1_555
C35 C34 1_555 1_555
H21 C35 1_555 1_555
C36 C35 1_555 1_555
H22 C36 1_555 1_555
C37 C36 1_555 1_555
H23 C37 1_555 1_555
C38 C33 1_555 1_555
H24 C38 1_555 1_555
C39 C20 1_555 1_555
C40 C39 1_555 1_555
H25 C40 1_555 1_555
C41 C40 1_555 1_555
H26 C41 1_555 1_555
C42 C41 1_555 1_555
H27 C42 1_555 1_555
C43 C42 1_555 1_555
H28 C43 1_555 1_555
C44 C39 1_555 1_555
H29 C44 1_555 1_555
C45 N4 1_555 1_555
H30 C45 1_555 1_555
H31 C45 1_555 1_555
O1 C46 1_555 1_555
O2 C46 1_555 1_555
C46 C45 1_555 1_555
C47 O2 1_555 1_555
H32 C47 1_555 1_555
H33 C47 1_555 1_555
C48 C47 1_555 1_555
C49 C48 1_555 1_555
H34 C49 1_555 1_555
C50 C49 1_555 1_555
H35 C50 1_555 1_555
C51 C50 1_555 1_555
H36 C51 1_555 1_555
C52 C51 1_555 1_555
H37 C52 1_555 1_555
C53 C48 1_555 1_555
H38 C53 1_555 1_555
C3 C4 1_555 1_555
C5 C6 1_555 1_555
C8 C9 1_555 1_555
C13 C14 1_555 1_555
C18 C19 1_555 1_555
C18 C20 1_555 1_555
C25 C26 1_555 1_555
C31 C32 1_555 1_555
C37 C38 1_555 1_555
C43 C44 1_555 1_555
C52 C53 1_555 1_555

#END
