
#######################################################################
#
#                 Cambridge Crystallographic Data Centre
#                                CCDC 
#
#######################################################################
#
# If this CIF has been generated from an entry in the Cambridge 
# Structural Database, then it will include bibliographic, chemical, 
# crystal, experimental, refinement or atomic coordinate data resulting 
# from the CCDC's data processing and validation procedures.
#
#######################################################################

data_CIVLIE
_chemical_formula_moiety         'C26 H19 F6 N1 S1'
_chemical_name_systematic        
3-(3,3,4,4,5,5-Hexafluoro-2-(2-methyl-5-phenyl-3-thienyl)cyclopent-1-en-1-yl)-1,2-dimethyl-1H-indole
_symmetry_cell_setting           monoclinic
_symmetry_space_group_name_H-M   'C 2/c'
_symmetry_Int_Tables_number      15
_space_group_name_Hall           '-C 2yn'
loop_
_symmetry_equiv_pos_site_id
_symmetry_equiv_pos_as_xyz
1 x,y,z
2 -x,y,1/2-z
3 1/2+x,1/2+y,z
4 1/2-x,1/2+y,1/2-z
5 -x,-y,-z
6 x,-y,1/2+z
7 1/2-x,1/2-y,-z
8 1/2+x,1/2-y,1/2+z
_cell_length_a                   29.661(16)
_cell_length_b                   8.804(5)
_cell_length_c                   19.514(11)
_cell_angle_alpha                90
_cell_angle_beta                 114.538(6)
_cell_angle_gamma                90
_cell_volume                     4635.58
_exptl_crystal_colour            yellow
_exptl_crystal_description       block
_cell_formula_units_Z            8
loop_
_atom_site_label
_atom_site_type_symbol
_atom_site_fract_x
_atom_site_fract_y
_atom_site_fract_z
S1 S 0.24949(8) -0.0357(3) 0.99798(13)
F1 F 0.1595(2) 0.3890(8) 0.8395(4)
F2 F 0.0945(3) 0.2632(8) 0.7750(3)
F3 F 0.1155(4) 0.5608(10) 0.8959(7)
F4 F 0.0537(3) 0.5159(10) 0.7931(5)
F5 F 0.0539(5) 0.4642(10) 0.9460(6)
F6 F 0.0163(3) 0.3206(11) 0.8541(6)
N1 N 0.0661(3) -0.0657(10) 1.0366(5)
C1 C 0.2058(3) 0.0900(11) 0.9970(4)
C2 C 0.1704(3) 0.1126(10) 0.9266(5)
C3 C 0.1783(3) 0.0230(10) 0.8727(4)
H1 H 0.1570 0.0233 0.8217
C4 C 0.2203(3) -0.0649(10) 0.9024(5)
C5 C 0.2405(3) -0.1673(11) 0.8620(5)
C6 C 0.2094(5) -0.2447(15) 0.7994(7)
H2 H 0.1753 -0.2337 0.7831
C7 C 0.2270(5) -0.3373(15) 0.7602(7)
H3 H 0.2050 -0.3870 0.7172
C8 C 0.2770(7) -0.3572(19) 0.7840(10)
H4 H 0.2894 -0.4163 0.7561
C9 C 0.3074(5) -0.2911(19) 0.8472(9)
H5 H 0.3410 -0.3147 0.8662
C10 C 0.2913(5) -0.1863(18) 0.8870(8)
H6 H 0.3137 -0.1326 0.9280
C11 C 0.2115(4) 0.1687(12) 1.0700(5)
H7 H 0.2017 0.2731 1.0598
H8 H 0.2455 0.1634 1.1059
H9 H 0.1909 0.1189 1.0903
C12 C 0.1294(3) 0.2188(10) 0.9073(4)
C13 C 0.1185(3) 0.3290(11) 0.8426(5)
C14 C 0.0857(5) 0.4480(13) 0.8530(6)
C15 C 0.0639(5) 0.3722(13) 0.9018(7)
C16 C 0.0966(3) 0.2381(9) 0.9382(5)
C17 C 0.0873(3) 0.1437(10) 0.9920(5)
C18 C 0.0771(3) -0.0090(11) 0.9794(6)
C19 C 0.0691(3) 0.0533(12) 1.0858(6)
C20 C 0.0825(3) 0.1855(11) 1.0588(5)
C21 C 0.0888(5) 0.3191(15) 1.0997(6)
H10 H 0.1005 0.4069 1.0860
C22 C 0.0647(6) 0.187(2) 1.1870(7)
H11 H 0.0590 0.1904 1.2303
C23 C 0.0604(4) 0.0527(16) 1.1513(7)
H12 H 0.0522 -0.0360 1.1694
C24 C 0.0762(5) -0.1064(13) 0.9174(8)
H13 H 0.0636 -0.0496 0.8713
H14 H 0.0553 -0.1927 0.9124
H15 H 0.1092 -0.1404 0.9282
C25 C 0.0501(6) -0.2201(15) 1.0416(10)
H16 H 0.0761 -0.2732 1.0814
H17 H 0.0423 -0.2717 0.9947
H18 H 0.0211 -0.2171 1.0520
C26 C 0.0771(6) 0.318(2) 1.1617(8)
H19 H 0.0778 0.4084 1.1865
loop_
_geom_bond_atom_site_label_1
_geom_bond_atom_site_label_2
_geom_bond_site_symmetry_1
_geom_bond_site_symmetry_2
S1 C1 1_555 1_555
F1 C13 1_555 1_555
F2 C13 1_555 1_555
F3 C14 1_555 1_555
F4 C14 1_555 1_555
F5 C15 1_555 1_555
F6 C15 1_555 1_555
N1 C18 1_555 1_555
C1 C2 1_555 1_555
C2 C3 1_555 1_555
C3 H1 1_555 1_555
C4 S1 1_555 1_555
C5 C4 1_555 1_555
C6 C5 1_555 1_555
H2 C6 1_555 1_555
C7 C6 1_555 1_555
H3 C7 1_555 1_555
C8 C7 1_555 1_555
H4 C8 1_555 1_555
C9 C8 1_555 1_555
H5 C9 1_555 1_555
C10 C5 1_555 1_555
H6 C10 1_555 1_555
C11 C1 1_555 1_555
H7 C11 1_555 1_555
H8 C11 1_555 1_555
H9 C11 1_555 1_555
C12 C2 1_555 1_555
C13 C12 1_555 1_555
C14 C13 1_555 1_555
C15 C14 1_555 1_555
C16 C12 1_555 1_555
C17 C16 1_555 1_555
C18 C17 1_555 1_555
C19 N1 1_555 1_555
C20 C17 1_555 1_555
C21 C20 1_555 1_555
H10 C21 1_555 1_555
C22 H11 1_555 1_555
C23 C19 1_555 1_555
H12 C23 1_555 1_555
C24 C18 1_555 1_555
H13 C24 1_555 1_555
H14 C24 1_555 1_555
H15 C24 1_555 1_555
C25 N1 1_555 1_555
H16 C25 1_555 1_555
H17 C25 1_555 1_555
H18 C25 1_555 1_555
C26 C21 1_555 1_555
H19 C26 1_555 1_555
C3 C4 1_555 1_555
C9 C10 1_555 1_555
C15 C16 1_555 1_555
C19 C20 1_555 1_555
C22 C23 1_555 1_555
C22 C26 1_555 1_555

#END
