
#######################################################################
#
#                 Cambridge Crystallographic Data Centre
#                                CCDC 
#
#######################################################################
#
# If this CIF has been generated from an entry in the Cambridge 
# Structural Database, then it will include bibliographic, chemical, 
# crystal, experimental, refinement or atomic coordinate data resulting 
# from the CCDC's data processing and validation procedures.
#
#######################################################################

data_CIVNUT
_chemical_formula_moiety         'C27 H19 B1 N8'
_chemical_name_systematic        
"5,5-bis(1H-benzotriazol-1-yl)-10-phenyl-5H-6\l^5^,5\l^5^-dipyrrolo[1,2-c:2',1'-f][1,3,2]diazaborinine unknown solvate"
_symmetry_cell_setting           monoclinic
_symmetry_space_group_name_H-M   'P 21/n'
_symmetry_Int_Tables_number      14
_space_group_name_Hall           '-P 2yn'
loop_
_symmetry_equiv_pos_site_id
_symmetry_equiv_pos_as_xyz
1 x,y,z
2 1/2-x,1/2+y,1/2-z
3 -x,-y,-z
4 1/2+x,1/2-y,1/2+z
_cell_length_a                   8.4976(4)
_cell_length_b                   25.6272(13)
_cell_length_c                   11.6989(4)
_cell_angle_alpha                90
_cell_angle_beta                 101.719(3)
_cell_angle_gamma                90
_cell_volume                     2494.56
_exptl_crystal_colour            orange
_exptl_crystal_description       plate
_cell_formula_units_Z            4
_exptl_crystal_recrystallization_method 
'Re-crystallisation from solvent: pentane/dichloromethane'
loop_
_atom_site_label
_atom_site_type_symbol
_atom_site_fract_x
_atom_site_fract_y
_atom_site_fract_z
N1 N 0.3758(2) 0.21815(8) 0.56144(16)
N2 N 0.6543(2) 0.22898(8) 0.66833(16)
N3 N 0.6030(2) 0.16663(8) 0.50117(17)
N4 N 0.7139(2) 0.19494(8) 0.45710(18)
N5 N 0.7381(2) 0.17348(8) 0.36042(17)
N6 N 0.5106(2) 0.14451(8) 0.68562(17)
N7 N 0.6073(3) 0.10126(8) 0.69645(18)
N8 N 0.5812(3) 0.07203(9) 0.78221(18)
C1 C 0.2318(3) 0.19664(11) 0.5143(2)
H1 H 0.2127 0.1605 0.5002
C2 C 0.1161(3) 0.23561(11) 0.4896(2)
H2 H 0.0055 0.2307 0.4561
C3 C 0.1907(3) 0.28271(11) 0.5224(2)
H3 H 0.1412 0.3161 0.5162
C4 C 0.3549(3) 0.27185(10) 0.5671(2)
C5 C 0.4828(3) 0.30483(10) 0.6173(2)
C6 C 0.6330(3) 0.28287(10) 0.66638(19)
C7 C 0.7824(3) 0.30570(10) 0.7174(2)
H4 H 0.8042 0.3420 0.7275
C8 C 0.8906(3) 0.26563(10) 0.7497(2)
H5 H 1.0004 0.2692 0.7867
C9 C 0.8090(3) 0.21888(11) 0.7181(2)
H6 H 0.8553 0.1851 0.7298
C10 C 0.4608(3) 0.36174(10) 0.6193(2)
C11 C 0.3841(3) 0.38875(10) 0.5186(2)
H7 H 0.3451 0.3701 0.4483
C12 C 0.3653(3) 0.44214(11) 0.5216(2)
H8 H 0.3126 0.4600 0.4533
C13 C 0.4225(3) 0.47017(11) 0.6234(2)
H9 H 0.4105 0.5070 0.6246
C14 C 0.4975(3) 0.44363(11) 0.7232(2)
H10 H 0.5356 0.4625 0.7933
C15 C 0.5171(3) 0.39010(10) 0.7216(2)
H11 H 0.5691 0.3725 0.7903
C16 C 0.5544(3) 0.12553(10) 0.4277(2)
C17 C 0.6391(3) 0.13038(10) 0.3383(2)
C18 C 0.6171(3) 0.09507(10) 0.2445(2)
H12 H 0.6723 0.0988 0.1820
C19 C 0.5114(3) 0.05488(11) 0.2480(2)
H13 H 0.4929 0.0303 0.1859
C20 C 0.4297(3) 0.04882(10) 0.3401(2)
H14 H 0.3606 0.0197 0.3400
C21 C 0.4471(3) 0.08399(10) 0.4305(2)
H15 H 0.3897 0.0804 0.4917
C22 C 0.4214(3) 0.14329(10) 0.7714(2)
C23 C 0.4658(3) 0.09672(10) 0.8313(2)
C24 C 0.3989(3) 0.08182(11) 0.9262(2)
H16 H 0.4282 0.0500 0.9666
C25 C 0.2898(3) 0.11499(12) 0.9584(2)
H17 H 0.2411 0.1058 1.0218
C26 C 0.2477(3) 0.16253(12) 0.8996(2)
H18 H 0.1729 0.1849 0.9257
C27 C 0.3118(3) 0.17772(11) 0.8052(2)
H19 H 0.2829 0.2097 0.7656
B1 B 0.5356(3) 0.18908(12) 0.6038(2)
loop_
_geom_bond_atom_site_label_1
_geom_bond_atom_site_label_2
_geom_bond_site_symmetry_1
_geom_bond_site_symmetry_2
N1 C1 1_555 1_555
N2 C6 1_555 1_555
N3 N4 1_555 1_555
N4 N5 1_555 1_555
N5 C17 1_555 1_555
N6 N7 1_555 1_555
N7 N8 1_555 1_555
N8 C23 1_555 1_555
C1 H1 1_555 1_555
C2 C1 1_555 1_555
H2 C2 1_555 1_555
C3 C2 1_555 1_555
H3 C3 1_555 1_555
C4 N1 1_555 1_555
C5 C4 1_555 1_555
C6 C5 1_555 1_555
C7 C6 1_555 1_555
H4 C7 1_555 1_555
C8 C7 1_555 1_555
H5 C8 1_555 1_555
C9 N2 1_555 1_555
H6 C9 1_555 1_555
C10 C5 1_555 1_555
C11 C10 1_555 1_555
H7 C11 1_555 1_555
C12 C11 1_555 1_555
H8 C12 1_555 1_555
C13 C12 1_555 1_555
H9 C13 1_555 1_555
C14 C13 1_555 1_555
H10 C14 1_555 1_555
C15 C10 1_555 1_555
H11 C15 1_555 1_555
C16 N3 1_555 1_555
C17 C16 1_555 1_555
C18 C17 1_555 1_555
H12 C18 1_555 1_555
C19 C18 1_555 1_555
H13 C19 1_555 1_555
C20 C19 1_555 1_555
H14 C20 1_555 1_555
C21 C16 1_555 1_555
H15 C21 1_555 1_555
C22 N6 1_555 1_555
C23 C22 1_555 1_555
C24 C23 1_555 1_555
H16 C24 1_555 1_555
C25 C24 1_555 1_555
H17 C25 1_555 1_555
C26 C25 1_555 1_555
H18 C26 1_555 1_555
C27 C22 1_555 1_555
H19 C27 1_555 1_555
B1 N1 1_555 1_555
N2 B1 1_555 1_555
N3 B1 1_555 1_555
N6 B1 1_555 1_555
C3 C4 1_555 1_555
C8 C9 1_555 1_555
C14 C15 1_555 1_555
C20 C21 1_555 1_555
C26 C27 1_555 1_555

#END
