
#######################################################################
#
#                 Cambridge Crystallographic Data Centre
#                                CCDC 
#
#######################################################################
#
# If this CIF has been generated from an entry in the Cambridge 
# Structural Database, then it will include bibliographic, chemical, 
# crystal, experimental, refinement or atomic coordinate data resulting 
# from the CCDC's data processing and validation procedures.
#
#######################################################################

data_CIVPAB
_chemical_formula_moiety         'C27 H19 B1 N8'
_chemical_name_systematic        
5-(1H-benzotriazol-1-yl)-5-(2H-benzotriazol-2-yl)-10-phenyl-5H-4\l^5^,5\l^5^-dipyrrolo[1,2-c:2',1'-f][1,3,2]diazaborinine
_symmetry_cell_setting           monoclinic
_symmetry_space_group_name_H-M   'P 21/n'
_symmetry_Int_Tables_number      14
_space_group_name_Hall           '-P 2yn'
loop_
_symmetry_equiv_pos_site_id
_symmetry_equiv_pos_as_xyz
1 x,y,z
2 1/2-x,1/2+y,1/2-z
3 -x,-y,-z
4 1/2+x,1/2-y,1/2+z
_cell_length_a                   14.8148(3)
_cell_length_b                   6.8960(2)
_cell_length_c                   21.7241(5)
_cell_angle_alpha                90
_cell_angle_beta                 97.6050(10)
_cell_angle_gamma                90
_cell_volume                     2199.87
_exptl_crystal_colour            'red orange'
_exptl_crystal_description       needle
_cell_formula_units_Z            4
_exptl_crystal_recrystallization_method 
'Re-crystallisation from solvent: methanol/hexane'
loop_
_atom_site_label
_atom_site_type_symbol
_atom_site_fract_x
_atom_site_fract_y
_atom_site_fract_z
N1 N 0.14425(7) 0.48671(15) 0.47274(4)
N2 N 0.20892(7) 0.81191(15) 0.49671(4)
N3 N 0.15247(7) 0.72378(15) 0.38467(5)
N4 N 0.09641(7) 0.88242(16) 0.37955(5)
N5 N 0.06317(8) 0.90898(16) 0.32148(5)
N6 N 0.32698(7) 0.40167(15) 0.45337(5)
N7 N 0.29487(7) 0.57806(15) 0.43733(5)
N8 N 0.35102(7) 0.69744(15) 0.41227(5)
C1 C 0.10348(8) 0.33607(18) 0.44098(6)
H1 H 0.1059 0.3106 0.3983
C2 C 0.05678(8) 0.22205(18) 0.47995(6)
H2 H 0.0223 0.1085 0.4685
C3 C 0.07048(8) 0.30639(17) 0.53824(6)
H3 H 0.0472 0.2615 0.5744
C4 C 0.12570(8) 0.47206(17) 0.53401(5)
C5 C 0.15331(8) 0.61661(17) 0.57734(5)
C6 C 0.19453(8) 0.78598(17) 0.55840(5)
C7 C 0.22934(8) 0.95008(18) 0.59233(6)
H4 H 0.2288 0.9720 0.6354
C8 C 0.26471(8) 1.07397(18) 0.55091(6)
H5 H 0.2928 1.1961 0.5604
C9 C 0.25104(8) 0.98430(17) 0.49269(6)
H6 H 0.2688 1.0369 0.4557
C10 C 0.13850(8) 0.59062(18) 0.64287(5)
C11 C 0.17218(9) 0.42466(19) 0.67512(6)
H7 H 0.2041 0.3297 0.6548
C12 C 0.15918(10) 0.3979(2) 0.73687(6)
H8 H 0.1832 0.2864 0.7589
C13 C 0.11088(10) 0.5351(2) 0.76619(6)
H9 H 0.1013 0.5162 0.8082
C14 C 0.07663(9) 0.6993(2) 0.73438(6)
H10 H 0.0431 0.7918 0.7545
C15 C 0.09106(9) 0.72911(19) 0.67313(6)
H11 H 0.0688 0.8433 0.6518
C16 C 0.15325(8) 0.64491(17) 0.32680(5)
C17 C 0.09669(8) 0.76480(18) 0.28677(6)
C18 C 0.08282(9) 0.7312(2) 0.22245(6)
H12 H 0.0456 0.8144 0.1950
C19 C 0.12552(9) 0.5724(2) 0.20101(6)
H13 H 0.1174 0.5452 0.1578
C20 C 0.18111(9) 0.4489(2) 0.24183(6)
H14 H 0.2086 0.3396 0.2253
C21 C 0.19676(9) 0.48203(19) 0.30498(6)
H15 H 0.2348 0.3995 0.3322
C22 C 0.41241(8) 0.40571(18) 0.43745(5)
C23 C 0.42734(8) 0.58920(18) 0.41186(5)
C24 C 0.51108(9) 0.6360(2) 0.39085(6)
H16 H 0.5216 0.7593 0.3736
C25 C 0.57621(9) 0.4938(2) 0.39667(6)
H17 H 0.6332 0.5196 0.3828
C26 C 0.56168(9) 0.3089(2) 0.42277(6)
H18 H 0.6092 0.2156 0.4260
C27 C 0.48083(9) 0.2619(2) 0.44342(6)
H19 H 0.4713 0.1385 0.4609
B1 B 0.19811(9) 0.65129(19) 0.44758(6)
loop_
_geom_bond_atom_site_label_1
_geom_bond_atom_site_label_2
_geom_bond_site_symmetry_1
_geom_bond_site_symmetry_2
N1 C1 1_555 1_555
N2 C6 1_555 1_555
N3 N4 1_555 1_555
N4 N5 1_555 1_555
N5 C17 1_555 1_555
N6 N7 1_555 1_555
N7 N8 1_555 1_555
N8 C23 1_555 1_555
C1 H1 1_555 1_555
C2 C1 1_555 1_555
H2 C2 1_555 1_555
C3 C2 1_555 1_555
H3 C3 1_555 1_555
C4 N1 1_555 1_555
C5 C4 1_555 1_555
C6 C5 1_555 1_555
C7 C6 1_555 1_555
H4 C7 1_555 1_555
C8 C7 1_555 1_555
H5 C8 1_555 1_555
C9 N2 1_555 1_555
H6 C9 1_555 1_555
C10 C5 1_555 1_555
C11 C10 1_555 1_555
H7 C11 1_555 1_555
C12 C11 1_555 1_555
H8 C12 1_555 1_555
C13 C12 1_555 1_555
H9 C13 1_555 1_555
C14 C13 1_555 1_555
H10 C14 1_555 1_555
C15 C10 1_555 1_555
H11 C15 1_555 1_555
C16 N3 1_555 1_555
C17 C16 1_555 1_555
C18 C17 1_555 1_555
H12 C18 1_555 1_555
C19 C18 1_555 1_555
H13 C19 1_555 1_555
C20 C19 1_555 1_555
H14 C20 1_555 1_555
C21 C16 1_555 1_555
H15 C21 1_555 1_555
C22 N6 1_555 1_555
C23 C22 1_555 1_555
C24 C23 1_555 1_555
H16 C24 1_555 1_555
C25 C24 1_555 1_555
H17 C25 1_555 1_555
C26 C25 1_555 1_555
H18 C26 1_555 1_555
C27 C22 1_555 1_555
H19 C27 1_555 1_555
B1 N1 1_555 1_555
N2 B1 1_555 1_555
N3 B1 1_555 1_555
N7 B1 1_555 1_555
C3 C4 1_555 1_555
C8 C9 1_555 1_555
C14 C15 1_555 1_555
C20 C21 1_555 1_555
C26 C27 1_555 1_555

#END
