
#######################################################################
#
#                 Cambridge Crystallographic Data Centre
#                                CCDC 
#
#######################################################################
#
# If this CIF has been generated from an entry in the Cambridge 
# Structural Database, then it will include bibliographic, chemical, 
# crystal, experimental, refinement or atomic coordinate data resulting 
# from the CCDC's data processing and validation procedures.
#
#######################################################################

data_CIVSOS
_chemical_formula_moiety         'C38 H41 Br2 N1 O1'
_chemical_name_systematic        
'[4-(2,7-dibromo-9,9-dihexylacridin-10(9H)-yl)phenyl](phenyl)methanone'
_symmetry_cell_setting           triclinic
_symmetry_space_group_name_H-M   'P -1'
_symmetry_Int_Tables_number      2
_space_group_name_Hall           '-P 1'
loop_
_symmetry_equiv_pos_site_id
_symmetry_equiv_pos_as_xyz
1 x,y,z
2 -x,-y,-z
_cell_length_a                   8.458(3)
_cell_length_b                   11.797(4)
_cell_length_c                   17.451(6)
_cell_angle_alpha                91.974(6)
_cell_angle_beta                 98.896(6)
_cell_angle_gamma                94.534(6)
_cell_volume                     1712.99
_exptl_crystal_colour            colorless
_exptl_crystal_description       prism
_cell_formula_units_Z            2
loop_
_atom_site_label
_atom_site_type_symbol
_atom_site_fract_x
_atom_site_fract_y
_atom_site_fract_z
Br1 Br 0.93111(8) 0.86284(7) 1.08413(4)
Br2 Br 0.19063(9) 1.06400(7) 0.56378(5)
N1 N 0.7378(6) 0.8222(5) 0.7340(3)
O1 O 1.1630(6) 0.4885(4) 0.5714(3)
C1 C 0.5160(7) 0.9165(6) 0.8251(4)
C2 C 0.6823(7) 0.8818(5) 0.8601(4)
C3 C 0.7306(7) 0.8893(6) 0.9400(4)
H1 H 0.6630 0.9180 0.9717
C4 C 0.8779(7) 0.8547(6) 0.9736(4)
C5 C 0.9781(8) 0.8111(6) 0.9290(5)
H2 H 1.0759 0.7868 0.9516
C6 C 0.9324(7) 0.8033(6) 0.8497(4)
H3 H 1.0024 0.7756 0.8188
C7 C 0.7833(7) 0.8358(5) 0.8139(4)
C8 C 0.6110(7) 0.8762(6) 0.6952(4)
C9 C 0.5786(7) 0.8710(6) 0.6138(4)
H4 H 0.6427 0.8304 0.5860
C10 C 0.4555(8) 0.9238(6) 0.5745(4)
H5 H 0.4345 0.9188 0.5205
C11 C 0.3615(7) 0.9854(5) 0.6170(4)
C12 C 0.3859(7) 0.9862(6) 0.6967(4)
H6 H 0.3200 1.0261 0.7239
C13 C 0.5063(6) 0.9290(6) 0.7373(4)
C14 C 0.8362(7) 0.7622(6) 0.6888(4)
C15 C 0.8137(8) 0.6460(6) 0.6769(4)
H7 H 0.7332 0.6048 0.6975
C16 C 0.9119(8) 0.5900(6) 0.6338(4)
H8 H 0.8978 0.5112 0.6266
C17 C 1.0317(7) 0.6511(6) 0.6013(4)
C18 C 1.0537(8) 0.7674(6) 0.6135(4)
H9 H 1.1331 0.8094 0.5926
C19 C 0.9533(8) 0.8226(6) 0.6585(5)
H10 H 0.9681 0.9012 0.6673
C20 C 1.1403(8) 0.5882(6) 0.5581(4)
C21 C 1.2295(8) 0.6480(6) 0.5006(4)
C22 C 1.3851(8) 0.6221(7) 0.4954(5)
H11 H 1.4366 0.5728 0.5294
C23 C 1.4609(10) 0.6705(8) 0.4395(5)
H12 H 1.5660 0.6554 0.4363
C24 C 1.3838(11) 0.7409(8) 0.3881(5)
H13 H 1.4373 0.7721 0.3500
C25 C 1.2333(11) 0.7658(7) 0.3914(5)
H14 H 1.1832 0.8138 0.3559
C26 C 1.1520(9) 0.7201(7) 0.4479(4)
H15 H 1.0475 0.7371 0.4507
C27 C 0.3880(7) 0.8210(6) 0.8368(4)
H16 H 0.3900 0.8138 0.8921
H17 H 0.2833 0.8443 0.8155
C28 C 0.4054(8) 0.7034(6) 0.8004(5)
H18 H 0.4044 0.7105 0.7451
H19 H 0.5093 0.6794 0.8222
C29 C 0.2780(9) 0.6119(6) 0.8117(5)
H20 H 0.1738 0.6349 0.7892
H21 H 0.2781 0.6045 0.8669
C30 C 0.3012(9) 0.4955(6) 0.7749(5)
H22 H 0.3040 0.5037 0.7200
H23 H 0.4047 0.4722 0.7982
C31 C 0.1719(10) 0.4015(7) 0.7839(5)
H24 H 0.1739 0.3881 0.8385
H25 H 0.0672 0.4255 0.7634
C32 C 0.1977(13) 0.2917(8) 0.7413(6)
H26 H 0.1893 0.3036 0.6867
H27 H 0.1177 0.2331 0.7497
H28 H 0.3025 0.2690 0.7604
C33 C 0.4814(7) 1.0283(6) 0.8659(4)
H29 H 0.3718 1.0442 0.8467
H30 H 0.4889 1.0170 0.9211
C34 C 0.5931(8) 1.1317(6) 0.8545(4)
H31 H 0.7030 1.1112 0.8641
H32 H 0.5705 1.1523 0.8008
C35 C 0.5790(10) 1.2337(7) 0.9062(5)
H33 H 0.6061 1.2145 0.9600
H34 H 0.4684 1.2529 0.8981
C36 C 0.6872(11) 1.3367(7) 0.8914(6)
H35 H 0.7967 1.3155 0.8963
H36 H 0.6559 1.3578 0.8383
C37 C 0.6838(19) 1.4397(10) 0.9451(7)
H37 H 0.5736 1.4592 0.9411
H38 H 0.7171 1.4185 0.9981
C38 C 0.7855(16) 1.5429(10) 0.9311(10)
H39 H 0.8966 1.5282 0.9416
H40 H 0.7667 1.6050 0.9646
H41 H 0.7589 1.5624 0.8779
loop_
_geom_bond_atom_site_label_1
_geom_bond_atom_site_label_2
_geom_bond_site_symmetry_1
_geom_bond_site_symmetry_2
Br1 C4 1_555 1_555
Br2 C11 1_555 1_555
N1 C7 1_555 1_555
O1 C20 1_555 1_555
C1 C2 1_555 1_555
C2 C3 1_555 1_555
C3 H1 1_555 1_555
C4 C3 1_555 1_555
C5 C4 1_555 1_555
H2 C5 1_555 1_555
C6 C5 1_555 1_555
H3 C6 1_555 1_555
C7 C2 1_555 1_555
C8 N1 1_555 1_555
C9 C8 1_555 1_555
H4 C9 1_555 1_555
C10 C9 1_555 1_555
H5 C10 1_555 1_555
C11 C10 1_555 1_555
C12 C11 1_555 1_555
H6 C12 1_555 1_555
C13 C1 1_555 1_555
C14 N1 1_555 1_555
C15 C14 1_555 1_555
H7 C15 1_555 1_555
C16 C15 1_555 1_555
H8 C16 1_555 1_555
C17 C16 1_555 1_555
C18 C17 1_555 1_555
H9 C18 1_555 1_555
C19 C14 1_555 1_555
H10 C19 1_555 1_555
C20 C17 1_555 1_555
C21 C20 1_555 1_555
C22 C21 1_555 1_555
H11 C22 1_555 1_555
C23 C22 1_555 1_555
H12 C23 1_555 1_555
C24 C23 1_555 1_555
H13 C24 1_555 1_555
C25 C24 1_555 1_555
H14 C25 1_555 1_555
C26 C21 1_555 1_555
H15 C26 1_555 1_555
C27 C1 1_555 1_555
H16 C27 1_555 1_555
H17 C27 1_555 1_555
C28 C27 1_555 1_555
H18 C28 1_555 1_555
H19 C28 1_555 1_555
C29 C28 1_555 1_555
H20 C29 1_555 1_555
H21 C29 1_555 1_555
C30 C29 1_555 1_555
H22 C30 1_555 1_555
H23 C30 1_555 1_555
C31 C30 1_555 1_555
H24 C31 1_555 1_555
H25 C31 1_555 1_555
C32 C31 1_555 1_555
H26 C32 1_555 1_555
H27 C32 1_555 1_555
H28 C32 1_555 1_555
C33 C1 1_555 1_555
H29 C33 1_555 1_555
H30 C33 1_555 1_555
C34 C33 1_555 1_555
H31 C34 1_555 1_555
H32 C34 1_555 1_555
C35 C34 1_555 1_555
H33 C35 1_555 1_555
H34 C35 1_555 1_555
C36 C35 1_555 1_555
H35 C36 1_555 1_555
H36 C36 1_555 1_555
C37 C36 1_555 1_555
H37 C37 1_555 1_555
H38 C37 1_555 1_555
C38 C37 1_555 1_555
H39 C38 1_555 1_555
H40 C38 1_555 1_555
H41 C38 1_555 1_555
C6 C7 1_555 1_555
C8 C13 1_555 1_555
C12 C13 1_555 1_555
C18 C19 1_555 1_555
C25 C26 1_555 1_555

#END
