
#######################################################################
#
#                 Cambridge Crystallographic Data Centre
#                                CCDC 
#
#######################################################################
#
# If this CIF has been generated from an entry in the Cambridge 
# Structural Database, then it will include bibliographic, chemical, 
# crystal, experimental, refinement or atomic coordinate data resulting 
# from the CCDC's data processing and validation procedures.
#
#######################################################################

data_CIWCOD
_chemical_formula_moiety         'C20 H16 S4'
_chemical_name_systematic        
2,5,8,11-tetramethylcycloocta[1,2-b:4,3-b':5,6-b'':8,7-b''']tetrakisthiophene
_symmetry_cell_setting           triclinic
_symmetry_space_group_name_H-M   'P -1'
_symmetry_Int_Tables_number      2
_space_group_name_Hall           '-P 1'
loop_
_symmetry_equiv_pos_site_id
_symmetry_equiv_pos_as_xyz
1 x,y,z
2 -x,-y,-z
_cell_length_a                   7.8532(19)
_cell_length_b                   10.950(3)
_cell_length_c                   11.469(3)
_cell_angle_alpha                76.581(13)
_cell_angle_beta                 75.213(14)
_cell_angle_gamma                69.559(12)
_cell_volume                     882.35
_exptl_crystal_colour            colorless
_exptl_crystal_description       Prism
_cell_formula_units_Z            2
loop_
_atom_site_label
_atom_site_type_symbol
_atom_site_fract_x
_atom_site_fract_y
_atom_site_fract_z
C1 C 0.2549(3) 0.1309(2) 0.1784(2)
C2 C 0.2354(3) 0.1015(2) 0.3111(2)
C3 C 0.1564(3) 0.1837(2) 0.3975(2)
C4 C 0.0702(3) 0.3283(2) 0.3690(2)
C5 C 0.1539(3) 0.4120(2) 0.2865(2)
C6 C 0.3411(3) 0.3834(2) 0.2123(2)
C7 C 0.4256(3) 0.2991(2) 0.1284(2)
C8 C 0.3394(3) 0.2150(2) 0.0959(2)
C9 C 0.3449(3) 0.2063(2) -0.0288(2)
H1 H 0.3988 0.2573 -0.0975
C10 C 0.2651(3) 0.1175(2) -0.0383(2)
C11 C 0.2420(3) 0.0837(2) -0.1514(2)
H2 H 0.1099 0.1092 -0.1531
H3 H 0.2974 -0.0116 -0.1516
H4 H 0.3035 0.1312 -0.2235
C12 C 0.1554(3) 0.1132(2) 0.5206(2)
H5 H 0.1044 0.1552 0.5910
C13 C 0.2354(3) -0.0198(2) 0.5255(2)
C14 C 0.2675(3) -0.1240(2) 0.6355(2)
H6 H 0.3942 -0.1442 0.6475
H7 H 0.2496 -0.2039 0.6231
H8 H 0.1796 -0.0918 0.7077
C15 C -0.1123(3) 0.3961(2) 0.42960(19)
H9 H -0.1885 0.3525 0.4902
C16 C -0.1645(3) 0.5288(2) 0.3913(2)
C17 C -0.3469(3) 0.6292(2) 0.4300(2)
H10 H -0.4145 0.6621 0.3623
H11 H -0.3250 0.7028 0.4524
H12 H -0.4201 0.5882 0.5005
C18 C 0.6089(3) 0.3038(2) 0.0711(2)
H13 H 0.6861 0.2519 0.0104
C19 C 0.6618(3) 0.3899(2) 0.1120(2)
C20 C 0.8440(3) 0.4167(2) 0.0766(2)
H14 H 0.9285 0.3591 0.0185
H15 H 0.8972 0.3996 0.1495
H16 H 0.8255 0.5092 0.0386
S1 S 0.18087(8) 0.04353(6) 0.10396(5)
S2 S 0.31076(8) -0.06116(5) 0.38044(5)
S3 S 0.00862(8) 0.57393(5) 0.28148(5)
S4 S 0.48707(8) 0.46789(6) 0.22101(5)
loop_
_geom_bond_atom_site_label_1
_geom_bond_atom_site_label_2
_geom_bond_site_symmetry_1
_geom_bond_site_symmetry_2
C1 C2 1_555 1_555
C2 C3 1_555 1_555
C3 C4 1_555 1_555
C4 C5 1_555 1_555
C5 C6 1_555 1_555
C6 C7 1_555 1_555
C7 C8 1_555 1_555
C8 C1 1_555 1_555
C9 C8 1_555 1_555
H1 C9 1_555 1_555
C10 C9 1_555 1_555
C11 C10 1_555 1_555
H2 C11 1_555 1_555
H3 C11 1_555 1_555
H4 C11 1_555 1_555
C12 C3 1_555 1_555
H5 C12 1_555 1_555
C13 C12 1_555 1_555
C14 C13 1_555 1_555
H6 C14 1_555 1_555
H7 C14 1_555 1_555
H8 C14 1_555 1_555
C15 C4 1_555 1_555
H9 C15 1_555 1_555
C16 C15 1_555 1_555
C17 C16 1_555 1_555
H10 C17 1_555 1_555
H11 C17 1_555 1_555
H12 C17 1_555 1_555
C18 C7 1_555 1_555
H13 C18 1_555 1_555
C19 C18 1_555 1_555
C20 C19 1_555 1_555
H14 C20 1_555 1_555
H15 C20 1_555 1_555
H16 C20 1_555 1_555
S1 C1 1_555 1_555
S2 C2 1_555 1_555
S3 C5 1_555 1_555
S4 C6 1_555 1_555
C10 S1 1_555 1_555
C13 S2 1_555 1_555
C16 S3 1_555 1_555
C19 S4 1_555 1_555

#END
