
#######################################################################
#
#                 Cambridge Crystallographic Data Centre
#                                CCDC 
#
#######################################################################
#
# If this CIF has been generated from an entry in the Cambridge 
# Structural Database, then it will include bibliographic, chemical, 
# crystal, experimental, refinement or atomic coordinate data resulting 
# from the CCDC's data processing and validation procedures.
#
#######################################################################

data_CIWVAH01
_chemical_formula_moiety         'C4 H2 N10 O7'
_chemical_name_systematic        3,3'-Dinitroamino-4,4'-azoxyfurazan
_symmetry_cell_setting           monoclinic
_symmetry_space_group_name_H-M   'P n'
_symmetry_Int_Tables_number      7
_space_group_name_Hall           'P -2yac'
loop_
_symmetry_equiv_pos_site_id
_symmetry_equiv_pos_as_xyz
1 x,y,z
2 1/2+x,-y,1/2+z
_cell_length_a                   7.8000(16)
_cell_length_b                   8.2000(16)
_cell_length_c                   8.6000(17)
_cell_angle_alpha                90
_cell_angle_beta                 115.40(3)
_cell_angle_gamma                90
_cell_volume                     496.885
_exptl_crystal_colour            colorless
_exptl_crystal_description       prism
_cell_formula_units_Z            2
loop_
_atom_site_label
_atom_site_type_symbol
_atom_site_fract_x
_atom_site_fract_y
_atom_site_fract_z
N1 N 0.2189(4) 0.4508(3) 0.3888(3)
N2 N 0.2787(4) 0.8091(3) -0.1414(4)
N3 N 0.3091(4) 0.9979(3) -0.4217(4)
H1 H 0.3753 1.0340 -0.3163
N4 N 0.2738(4) 0.6995(3) -0.0383(3)
N5 N 0.3391(4) 1.0658(3) -0.5512(3)
N6 N 0.2424(4) 0.5200(3) 0.2539(4)
H2 H 0.1740 0.4829 0.1493
C1 C 0.1663(5) 0.7819(4) -0.3156(4)
O1 O 0.4639(4) 1.1686(3) -0.5063(3)
O2 O 0.2366(4) 1.0263(3) -0.6985(3)
O3 O 0.0943(4) 0.3500(3) 0.3490(3)
O4 O 0.3180(4) 0.4992(3) 0.5314(3)
C2 C 0.3854(5) 0.7304(4) 0.1385(4)
N7 N 0.5160(5) 0.8396(3) 0.2024(4)
O5 O -0.0434(4) 0.7012(3) -0.5565(3)
C3 C 0.1793(5) 0.8745(4) -0.4476(4)
N8 N 0.0306(5) 0.6740(3) -0.3815(4)
C4 C 0.3664(5) 0.6429(4) 0.2748(4)
O6 O 0.5826(4) 0.8261(3) 0.3737(3)
N9 N 0.0513(5) 0.8271(4) -0.5947(4)
N10 N 0.4904(5) 0.7026(4) 0.4207(4)
O7 O 0.1778(4) 0.5769(2) -0.0806(3)
loop_
_geom_bond_atom_site_label_1
_geom_bond_atom_site_label_2
_geom_bond_site_symmetry_1
_geom_bond_site_symmetry_2
N1 N6 1_555 1_555
N2 N4 1_555 1_555
N3 H1 1_555 1_555
N4 C2 1_555 1_555
N5 N3 1_555 1_555
N6 H2 1_555 1_555
C1 N2 1_555 1_555
O1 N5 1_555 1_555
O2 N5 1_555 1_555
O3 N1 1_555 1_555
O4 N1 1_555 1_555
C2 N7 1_555 1_555
N7 O6 1_555 1_555
O5 N8 1_555 1_555
C3 N3 1_555 1_555
N8 C1 1_555 1_555
C4 N6 1_555 1_555
O6 N10 1_555 1_555
N9 O5 1_555 1_555
N10 C4 1_555 1_555
O7 N4 1_555 1_555
C1 C3 1_555 1_555
C2 C4 1_555 1_555
C3 N9 1_555 1_555

#END
