
#######################################################################
#
#                 Cambridge Crystallographic Data Centre
#                                CCDC 
#
#######################################################################
#
# If this CIF has been generated from an entry in the Cambridge 
# Structural Database, then it will include bibliographic, chemical, 
# crystal, experimental, refinement or atomic coordinate data resulting 
# from the CCDC's data processing and validation procedures.
#
#######################################################################

data_CIXBUI
_chemical_formula_moiety         'C10 H18 O4,2(C7 H5 Br1 N2 S1)'
_chemical_name_systematic        
'decanedioic acid 6-bromo-1,3-benzothiazol-2-amine'
_symmetry_cell_setting           triclinic
_symmetry_space_group_name_H-M   'P -1'
_symmetry_Int_Tables_number      2
_space_group_name_Hall           '-P 1'
loop_
_symmetry_equiv_pos_site_id
_symmetry_equiv_pos_as_xyz
1 x,y,z
2 -x,-y,-z
_cell_length_a                   6.9100(5)
_cell_length_b                   11.0219(11)
_cell_length_c                   11.1021(12)
_cell_angle_alpha                110.076(2)
_cell_angle_beta                 104.2500(10)
_cell_angle_gamma                106.6210(10)
_cell_volume                     703.089
_exptl_crystal_colour            colorless
_exptl_crystal_description       BLOCK
_cell_formula_units_Z            1
loop_
_atom_site_label
_atom_site_type_symbol
_atom_site_fract_x
_atom_site_fract_y
_atom_site_fract_z
Br1 Br 0.80584(7) 1.00387(4) 1.11140(4)
S1 S 0.12296(14) 0.46154(10) 0.74380(11)
N1 N 0.4297(4) 0.3671(3) 0.7726(3)
N2 N 0.0798(6) 0.1904(4) 0.6243(4)
H1 H 0.1283 0.1252 0.6086
H2 H -0.0573 0.1689 0.5854
C1 C 0.2188(6) 0.3264(4) 0.7098(4)
C2 C 0.5313(5) 0.5140(3) 0.8544(3)
C3 C 0.3908(5) 0.5838(3) 0.8520(4)
C4 C 0.4684(6) 0.7297(4) 0.9276(4)
H3 H 0.3746 0.7756 0.9264
C5 C 0.6909(6) 0.8038(4) 1.0048(4)
C6 C 0.8337(6) 0.7378(4) 1.0089(4)
H4 H 0.9823 0.7908 1.0621
C7 C 0.7540(6) 0.5917(4) 0.9332(4)
H5 H 0.8487 0.5464 0.9354
O1 O 0.3720(4) -0.1870(3) 0.2266(3)
H6 H 0.4445 -0.2342 0.2279
O2 O 0.6718(4) -0.0180(3) 0.4096(3)
C8 C 0.4945(6) -0.0536(4) 0.3204(4)
C9 C 0.3914(6) 0.0452(4) 0.3065(4)
H7 H 0.2568 0.0188 0.3223
H8 H 0.3537 0.0342 0.2122
C10 C 0.5358(7) 0.2004(4) 0.4063(4)
H9 H 0.6621 0.2308 0.3833
H10 H 0.5878 0.2104 0.5001
C11 C 0.4146(7) 0.2958(4) 0.4007(4)
H11 H 0.2891 0.2659 0.4246
H12 H 0.3612 0.2850 0.3067
C12 C 0.5594(7) 0.4520(4) 0.4996(4)
H13 H 0.6178 0.4617 0.5930
H14 H 0.6818 0.4824 0.4733
O1A O 0.6280(4) 1.1870(3) 0.7734(3)
H6A H 0.5555 1.2342 0.7721
O2A O 0.3282(4) 1.0180(3) 0.5904(3)
C8A C 0.5055(6) 1.0536(4) 0.6796(4)
C9A C 0.6086(6) 0.9548(4) 0.6935(4)
H7A H 0.7432 0.9812 0.6777
H8A H 0.6463 0.9658 0.7878
C10A C 0.4642(7) 0.7996(4) 0.5937(4)
H9A H 0.3379 0.7692 0.6167
H10A H 0.4122 0.7896 0.4999
C11A C 0.5854(7) 0.7042(4) 0.5993(4)
H11A H 0.7109 0.7341 0.5754
H12A H 0.6388 0.7150 0.6933
C12A C 0.4406(7) 0.5480(4) 0.5004(4)
H13A H 0.3822 0.5383 0.4070
H14A H 0.3182 0.5176 0.5267
loop_
_geom_bond_atom_site_label_1
_geom_bond_atom_site_label_2
_geom_bond_site_symmetry_1
_geom_bond_site_symmetry_2
Br1 C5 1_555 1_555
S1 C1 1_555 1_555
N1 C1 1_555 1_555
N2 H1 1_555 1_555
H2 N2 1_555 1_555
C1 N2 1_555 1_555
C2 N1 1_555 1_555
C3 S1 1_555 1_555
C4 C3 1_555 1_555
H3 C4 1_555 1_555
C5 C4 1_555 1_555
C6 C5 1_555 1_555
H4 C6 1_555 1_555
C7 C2 1_555 1_555
H5 C7 1_555 1_555
O1 H6 1_555 1_555
O2 C8 1_555 1_555
C8 O1 1_555 1_555
C9 C8 1_555 1_555
H7 C9 1_555 1_555
H8 C9 1_555 1_555
C10 C9 1_555 1_555
H9 C10 1_555 1_555
H10 C10 1_555 1_555
C11 C10 1_555 1_555
H11 C11 1_555 1_555
H12 C11 1_555 1_555
C12 C11 1_555 1_555
H13 C12 1_555 1_555
H14 C12 1_555 1_555
O1A H6A 1_555 1_555
O2A C8A 1_555 1_555
C8A O1A 1_555 1_555
C9A C8A 1_555 1_555
H7A C9A 1_555 1_555
H8A C9A 1_555 1_555
C10A C9A 1_555 1_555
H9A C10A 1_555 1_555
H10A C10A 1_555 1_555
C11A C10A 1_555 1_555
H11A C11A 1_555 1_555
H12A C11A 1_555 1_555
C12A C12 1_555 1_555
H13A C12A 1_555 1_555
H14A C12A 1_555 1_555
C2 C3 1_555 1_555
C6 C7 1_555 1_555
C11A C12A 1_555 1_555

#END
