
#######################################################################
#
#                 Cambridge Crystallographic Data Centre
#                                CCDC 
#
#######################################################################
#
# If this CIF has been generated from an entry in the Cambridge 
# Structural Database, then it will include bibliographic, chemical, 
# crystal, experimental, refinement or atomic coordinate data resulting 
# from the CCDC's data processing and validation procedures.
#
#######################################################################

data_CIXFEU01
_chemical_formula_moiety         'C13 H12 N2 O1'
_chemical_name_systematic        3-(2-ethyl-1,3-oxazol-5-yl)-1H-indole
_symmetry_cell_setting           monoclinic
_symmetry_space_group_name_H-M   'P 21/n'
_symmetry_Int_Tables_number      14
_space_group_name_Hall           '-P 2yn'
loop_
_symmetry_equiv_pos_site_id
_symmetry_equiv_pos_as_xyz
1 x,y,z
2 1/2-x,1/2+y,1/2-z
3 -x,-y,-z
4 1/2+x,1/2-y,1/2+z
_cell_length_a                   11.4875(15)
_cell_length_b                   6.9890(9)
_cell_length_c                   13.2242(17)
_cell_angle_alpha                90
_cell_angle_beta                 90.021(2)
_cell_angle_gamma                90
_cell_volume                     1061.72
_cell_formula_units_Z            4
loop_
_atom_site_label
_atom_site_type_symbol
_atom_site_fract_x
_atom_site_fract_y
_atom_site_fract_z
C1 C 0.48601(11) 0.18640(18) 0.24628(9)
H1 H 0.5247 0.0600 0.2505
H2 H 0.5469 0.2839 0.2339
O1 O 0.49707(7) 0.23344(12) 0.42770(7)
N1 N 0.31932(10) 0.25990(16) 0.36337(8)
N2 N 0.60936(10) 0.26872(15) 0.73034(8)
C2 C 0.59043(11) 0.25042(17) 0.62882(10)
H3 H 0.6485 0.2187 0.5805
C3 C 0.42777(11) 0.22803(17) 0.34428(9)
C4 C 0.42317(11) 0.27290(17) 0.50740(9)
C5 C 0.47545(11) 0.28444(17) 0.60664(9)
C6 C 0.41909(11) 0.32814(17) 0.70112(9)
C7 C 0.50590(11) 0.31460(17) 0.77680(9)
C8 C 0.40130(12) 0.1857(2) 0.15780(9)
H4 H 0.3431 0.0850 0.1680
H5 H 0.4439 0.1614 0.0949
H6 H 0.3623 0.3102 0.1535
C9 C 0.30549(11) 0.37869(18) 0.72955(9)
H7 H 0.2460 0.3912 0.6801
C10 C 0.28159(12) 0.41000(19) 0.83057(10)
H8 H 0.2050 0.4447 0.8504
C11 C 0.36879(12) 0.39143(19) 0.90449(9)
H9 H 0.3497 0.4123 0.9735
C12 C 0.31510(11) 0.2890(2) 0.46809(9)
H10 H 0.2466 0.3160 0.5057
C13 C 0.48153(11) 0.34362(18) 0.87904(9)
H11 H 0.5403 0.3309 0.9292
H12 H 0.6786(16) 0.259(2) 0.7613(13)
loop_
_geom_bond_atom_site_label_1
_geom_bond_atom_site_label_2
_geom_bond_site_symmetry_1
_geom_bond_site_symmetry_2
C1 H1 1_555 1_555
H2 C1 1_555 1_555
O1 C3 1_555 1_555
N1 C3 1_555 1_555
N2 C2 1_555 1_555
C2 H3 1_555 1_555
C3 C1 1_555 1_555
C4 O1 1_555 1_555
C5 C2 1_555 1_555
C6 C5 1_555 1_555
C7 N2 1_555 1_555
C8 C1 1_555 1_555
H4 C8 1_555 1_555
H5 C8 1_555 1_555
H6 C8 1_555 1_555
C9 C6 1_555 1_555
H7 C9 1_555 1_555
C10 C9 1_555 1_555
H8 C10 1_555 1_555
C11 C10 1_555 1_555
H9 C11 1_555 1_555
C12 N1 1_555 1_555
H10 C12 1_555 1_555
C13 C7 1_555 1_555
H11 C13 1_555 1_555
H12 N2 1_555 1_555
C4 C5 1_555 1_555
C4 C12 1_555 1_555
C6 C7 1_555 1_555
C11 C13 1_555 1_555

#END
