
#######################################################################
#
#                 Cambridge Crystallographic Data Centre
#                                CCDC 
#
#######################################################################
#
# If this CIF has been generated from an entry in the Cambridge 
# Structural Database, then it will include bibliographic, chemical, 
# crystal, experimental, refinement or atomic coordinate data resulting 
# from the CCDC's data processing and validation procedures.
#
#######################################################################

data_CIXKEA02
_chemical_formula_moiety         'C14 H10 O2'
_chemical_name_systematic        5-Methyl-9-hydroxyphenalen-1-one
_symmetry_cell_setting           monoclinic
_symmetry_space_group_name_H-M   'P 21/c'
_symmetry_Int_Tables_number      14
_space_group_name_Hall           '-P 2ybc'
loop_
_symmetry_equiv_pos_site_id
_symmetry_equiv_pos_as_xyz
1 x,y,z
2 -x,1/2+y,1/2-z
3 -x,-y,-z
4 x,1/2-y,1/2+z
_cell_length_a                   11.860(5)
_cell_length_b                   22.166(9)
_cell_length_c                   7.242(1)
_cell_angle_alpha                90
_cell_angle_beta                 93.77(2)
_cell_angle_gamma                90
_cell_volume                     1899.72
_cell_formula_units_Z            8
loop_
_atom_site_label
_atom_site_type_symbol
_atom_site_fract_x
_atom_site_fract_y
_atom_site_fract_z
O1 O 0.3990(1) 0.3912(1) 0.1922(2)
O2 O 0.5988(1) 0.3909(1) 0.3190(2)
C1 C 0.3998(1) 0.3325(1) 0.1887(2)
C2 C 0.5971(1) 0.3320(1) 0.3215(2)
C3 C 0.3015(1) 0.2993(1) 0.1213(2)
C4 C 0.6948(1) 0.2987(1) 0.3896(2)
C5 C 0.3026(1) 0.2378(1) 0.1228(2)
C6 C 0.6935(1) 0.2373(1) 0.3872(2)
C7 C 0.4001(1) 0.2041(1) 0.1883(2)
C8 C 0.5958(1) 0.2039(1) 0.3202(2)
C9 C 0.4018(1) 0.1409(1) 0.1884(2)
C10 C 0.5934(1) 0.1406(1) 0.3183(2)
C11 C 0.4975(1) 0.1087(1) 0.2531(2)
C12 C 0.4982(1) 0.3000(1) 0.2552(2)
C13 C 0.4979(1) 0.2361(1) 0.2551(2)
C14 C 0.4975(2) 0.0402(1) 0.2519(3)
H1 H 0.244(2) 0.323(1) 0.078(3)
H2 H 0.755(2) 0.319(1) 0.435(3)
H3 H 0.234(1) 0.219(1) 0.078(3)
H4 H 0.755(2) 0.216(1) 0.423(3)
H5 H 0.327(2) 0.120(1) 0.148(3)
H6 H 0.657(2) 0.119(1) 0.357(3)
O3 O 0.9036(1) 0.6413(1) 0.1767(2)
O4 O 1.1028(1) 0.6409(1) 0.3037(2)
C15 C 0.9040(1) 0.5819(1) 0.1782(2)
C16 C 1.1009(1) 0.5826(1) 0.3103(2)
C17 C 0.8062(1) 0.5492(1) 0.1122(2)
C18 C 1.1982(1) 0.5490(1) 0.3807(2)
C19 C 0.8059(1) 0.4877(1) 0.1187(2)
C20 C 1.1958(1) 0.4874(1) 0.3827(2)
C21 C 0.9022(1) 0.4539(1) 0.1876(2)
C22 C 1.0972(1) 0.4539(1) 0.3191(2)
C23 C 0.9029(1) 0.3907(1) 0.1952(2)
C24 C 1.0938(1) 0.3907(1) 0.3249(2)
C25 C 0.9970(1) 0.3586(1) 0.2644(2)
C26 C 1.0017(1) 0.5501(1) 0.2460(2)
C27 C 1.0004(1) 0.4862(1) 0.2503(2)
C28 C 0.9953(1) 0.2902(1) 0.2766(2)
H7 H 0.737(2) 0.569(1) 0.065(3)
H8 H 1.264(2) 0.567(1) 0.415(3)
H9 H 0.732(2) 0.466(1) 0.083(3)
H10 H 1.262(2) 0.465(1) 0.419(3)
H11 H 0.836(2) 0.372(1) 0.158(2)
H12 H 1.162(2) 0.372(1) 0.366(3)
loop_
_geom_bond_atom_site_label_1
_geom_bond_atom_site_label_2
_geom_bond_site_symmetry_1
_geom_bond_site_symmetry_2
O1 C1 1_555 1_555
O2 C2 1_555 1_555
C1 C3 1_555 1_555
C2 C4 1_555 1_555
C3 C5 1_555 1_555
C4 C6 1_555 1_555
C5 C7 1_555 1_555
C6 C8 1_555 1_555
C7 C9 1_555 1_555
C8 C10 1_555 1_555
C9 C11 1_555 1_555
C10 C11 1_555 1_555
C11 C14 1_555 1_555
C12 C1 1_555 1_555
C13 C7 1_555 1_555
H1 C3 1_555 1_555
H2 C4 1_555 1_555
H3 C5 1_555 1_555
H4 C6 1_555 1_555
H5 C9 1_555 1_555
H6 C10 1_555 1_555
O3 C15 1_555 1_555
O4 C16 1_555 1_555
C15 C17 1_555 1_555
C16 C18 1_555 1_555
C17 C19 1_555 1_555
C18 C20 1_555 1_555
C19 C21 1_555 1_555
C20 C22 1_555 1_555
C21 C23 1_555 1_555
C22 C24 1_555 1_555
C23 C25 1_555 1_555
C24 C25 1_555 1_555
C25 C28 1_555 1_555
C26 C15 1_555 1_555
C27 C21 1_555 1_555
H7 C17 1_555 1_555
H8 C18 1_555 1_555
H9 C19 1_555 1_555
H10 C20 1_555 1_555
H11 C23 1_555 1_555
H12 C24 1_555 1_555
C2 C12 1_555 1_555
C8 C13 1_555 1_555
C12 C13 1_555 1_555
C16 C26 1_555 1_555
C22 C27 1_555 1_555
C26 C27 1_555 1_555

#END
