
#######################################################################
#
#                 Cambridge Crystallographic Data Centre
#                                CCDC 
#
#######################################################################
#
# If this CIF has been generated from an entry in the Cambridge 
# Structural Database, then it will include bibliographic, chemical, 
# crystal, experimental, refinement or atomic coordinate data resulting 
# from the CCDC's data processing and validation procedures.
#
#######################################################################

data_CIXKAW
_chemical_formula_moiety         'C24 H31 N1 O3,C20 H18 O8'
_chemical_name_systematic        
'(1R,2R)-1-(1-Naphthalene-ethoxy)-2-(1,4-dioxa-7-azaspiro[4.4]non-7-yl)cyclohexane di-p-toluoyl-D-hemitartrate'
_symmetry_cell_setting           orthorhombic
_symmetry_space_group_name_H-M   'P 21 21 21'
_symmetry_Int_Tables_number      19
_space_group_name_Hall           'P 2ac 2ab'
loop_
_symmetry_equiv_pos_site_id
_symmetry_equiv_pos_as_xyz
1 x,y,z
2 1/2-x,-y,1/2+z
3 1/2+x,1/2-y,-z
4 -x,1/2+y,1/2-z
_cell_length_a                   10.991(4)
_cell_length_b                   11.861(4)
_cell_length_c                   34.87(1)
_cell_angle_alpha                90
_cell_angle_beta                 90
_cell_angle_gamma                90
_cell_volume                     4545.8
_exptl_crystal_description       needle
_cell_formula_units_Z            4
_exptl_crystal_recrystallization_method 2-butanone/methanol
loop_
_atom_site_label
_atom_site_type_symbol
_atom_site_fract_x
_atom_site_fract_y
_atom_site_fract_z
O1 O 0.9801(16) 0.3733(14) 0.3148(4)
O2 O 0.9360(2) 0.4880(2) 0.3636(6)
O3 O 0.9517(17) 0.6155(16) 0.2541(4)
O4 O 0.8164(18) 0.5046(16) 0.2796(4)
O5 O 1.2189(19) 0.2425(17) 0.2692(5)
O6 O 1.2853(19) 0.3931(18) 0.2979(4)
O7 O 1.0286(13) 0.3610(12) 0.2350(3)
O8 O 1.1690(18) 0.3715(17) 0.1874(4)
C1 C 0.8796(15) 0.2939(12) 0.3653(4)
C2 C 0.8784(14) 0.1866(13) 0.3492(3)
C3 C 0.8154(17) 0.0999(11) 0.3672(4)
C4 C 0.7535(17) 0.1203(14) 0.4013(4)
C5 C 0.7547(17) 0.2276(16) 0.4173(4)
C6 C 0.8177(18) 0.3143(12) 0.3994(4)
C7 C 0.6960(4) 0.0130(3) 0.4196(8)
C8 C 0.9400(2) 0.4020(2) 0.3464(6)
C9 C 1.0320(3) 0.4680(2) 0.2925(6)
C10 C 0.9260(3) 0.5350(3) 0.2777(8)
C11 C 1.1100(2) 0.4180(2) 0.2610(6)
C12 C 1.2160(2) 0.3460(2) 0.2760(5)
C13 C 1.0570(3) 0.3540(3) 0.2041(7)
C14 C 0.9619(15) 0.3131(18) 0.1724(4)
C15 C 0.9766(14) 0.3249(18) 0.1330(4)
C16 C 0.8776(17) 0.3112(17) 0.1087(3)
C17 C 0.7638(15) 0.2856(19) 0.1238(4)
C18 C 0.7490(15) 0.2738(18) 0.1631(4)
C19 C 0.8481(17) 0.2875(16) 0.1875(3)
C20 C 0.6620(4) 0.2760(3) 0.0928(8)
H1 H 0.9208 0.1726 0.3259
H2 H 0.8146 0.0266 0.3562
H3 H 0.7123 0.2415 0.4406
H4 H 0.8185 0.3876 0.4103
H5 H 0.6545 0.0335 0.4434
H6 H 0.7609 -0.0417 0.4254
H7 H 0.6382 -0.0207 0.4017
H8 H 1.0838 0.5157 0.3096
H9 H 1.1461 0.4823 0.2466
H10 H 1.0544 0.3424 0.1227
H11 H 0.8876 0.3193 0.0818
H12 H 0.6713 0.2563 0.1734
H13 H 0.8381 0.2794 0.2144
H14 H 0.6967 0.2893 0.0673
H15 H 0.5989 0.3333 0.0978
H16 H 0.6252 0.2011 0.0937
O9 O 0.3895(17) 0.1332(15) 0.3664(4)
O10 O 0.5104(18) 0.6180(17) 0.3287(4)
O11 O 0.6428(18) 0.5667(15) 0.3746(4)
N1 N 0.4857(17) 0.3432(16) 0.3325(4)
C21 C 0.4210(2) 0.1350(2) 0.3307(6)
C22 C 0.5240(2) 0.2170(2) 0.3239(5)
C23 C 0.5860(3) 0.2270(3) 0.2828(7)
C24 C 0.6300(3) 0.1040(2) 0.2754(7)
C25 C 0.5260(2) 0.0210(2) 0.2774(6)
C26 C 0.4870(4) 0.0280(3) 0.3149(9)
C27 C 0.2590(3) 0.1150(3) 0.3708(7)
C28 C 0.2220(3) 0.1040(3) 0.4109(6)
C29 C 0.2920(2) 0.1702(16) 0.4386(6)
C30 C 0.3870(2) 0.1213(18) 0.4591(8)
C31 C 0.4510(2) 0.1850(2) 0.4858(8)
C32 C 0.4210(2) 0.2970(2) 0.4920(6)
C33 C 0.3270(2) 0.3460(17) 0.4714(5)
C34 C 0.2621(19) 0.2826(16) 0.4447(5)
C35 C 0.1701(19) 0.3324(19) 0.4232(5)
C36 C 0.1410(3) 0.4450(2) 0.4291(8)
C37 C 0.2070(3) 0.5092(17) 0.4552(9)
C38 C 0.2960(4) 0.4580(2) 0.4776(12)
C39 C 0.4510(2) 0.3690(2) 0.3762(6)
C40 C 0.4330(3) 0.4810(3) 0.3779(8)
C41 C 0.5410(2) 0.5340(2) 0.3506(6)
C42 C 0.5870(3) 0.4300(2) 0.3248(7)
C43 C 0.6250(3) 0.6850(3) 0.3218(8)
C44 C 0.6930(3) 0.6670(3) 0.3559(8)
H17 H 0.3494 0.1545 0.3142
H18 H 0.5901 0.1970 0.3424
H19 H 0.5260 0.2511 0.2632
H20 H 0.6547 0.2803 0.2832
H21 H 0.6681 0.0994 0.2498
H22 H 0.6918 0.0832 0.2947
H23 H 0.4598 0.0429 0.2595
H24 H 0.5533 -0.0560 0.2712
H25 H 0.5588 0.0151 0.3313
H26 H 0.4312 -0.0367 0.3191
H27 H 0.2354 0.0455 0.3569
H28 H 0.2145 0.1789 0.3591
H29 H 0.2278 0.0239 0.4182
H30 H 0.1358 0.1267 0.4131
H31 H 0.4076 0.0445 0.4550
H32 H 0.5160 0.1512 0.4999
H33 H 0.4652 0.3404 0.5102
H34 H 0.1272 0.2894 0.4046
H35 H 0.0756 0.4784 0.4152
H36 H 0.1911 0.5876 0.4577
H37 H 0.3361 0.5003 0.4971
H38 H 0.3763 0.3276 0.3837
H39 H 0.5179 0.3463 0.3936
H40 H 0.4399 0.5084 0.4046
H41 H 0.3512 0.5006 0.3679
H42 H 0.5919 0.4511 0.2973
H43 H 0.6677 0.4026 0.3335
H44 H 0.6697 0.6565 0.2991
H45 H 0.6070 0.7659 0.3182
H46 H 0.6866 0.7332 0.3730
H47 H 0.7803 0.6550 0.3497
loop_
_geom_bond_atom_site_label_1
_geom_bond_atom_site_label_2
_geom_bond_site_symmetry_1
_geom_bond_site_symmetry_2
O1 C8 1_555 1_555
O2 C8 1_555 1_555
O3 C10 1_555 1_555
O4 C10 1_555 1_555
O5 C12 1_555 1_555
O6 C12 1_555 1_555
O7 C11 1_555 1_555
O8 C13 1_555 1_555
O9 C21 1_555 1_555
O10 C41 1_555 1_555
O11 C41 1_555 1_555
N1 C22 1_555 1_555
C1 C2 1_555 1_555
C2 C3 1_555 1_555
C3 C4 1_555 1_555
C4 C5 1_555 1_555
C5 C6 1_555 1_555
C6 C1 1_555 1_555
C7 C4 1_555 1_555
C8 C1 1_555 1_555
C9 O1 1_555 1_555
C10 C9 1_555 1_555
C11 C9 1_555 1_555
C12 C11 1_555 1_555
C13 O7 1_555 1_555
C14 C13 1_555 1_555
C15 C14 1_555 1_555
C16 C15 1_555 1_555
C17 C16 1_555 1_555
C18 C17 1_555 1_555
C19 C14 1_555 1_555
C20 C17 1_555 1_555
C21 C22 1_555 1_555
C22 C23 1_555 1_555
C23 C24 1_555 1_555
C24 C25 1_555 1_555
C25 C26 1_555 1_555
C26 C21 1_555 1_555
C27 O9 1_555 1_555
C28 C27 1_555 1_555
C29 C28 1_555 1_555
C30 C29 1_555 1_555
C31 C30 1_555 1_555
C32 C31 1_555 1_555
C33 C32 1_555 1_555
C34 C29 1_555 1_555
C35 C34 1_555 1_555
C36 C35 1_555 1_555
C37 C36 1_555 1_555
C38 C33 1_555 1_555
C39 N1 1_555 1_555
C40 C39 1_555 1_555
C41 C40 1_555 1_555
C42 N1 1_555 1_555
C43 O10 1_555 1_555
C44 O11 1_555 1_555
H1 C2 1_555 1_555
H2 C3 1_555 1_555
H3 C5 1_555 1_555
H4 C6 1_555 1_555
H5 C7 1_555 1_555
H6 C7 1_555 1_555
H7 C7 1_555 1_555
H8 C9 1_555 1_555
H9 C11 1_555 1_555
H10 C15 1_555 1_555
H11 C16 1_555 1_555
H12 C18 1_555 1_555
H13 C19 1_555 1_555
H14 C20 1_555 1_555
H15 C20 1_555 1_555
H16 C20 1_555 1_555
H17 C21 1_555 1_555
H18 C22 1_555 1_555
H19 C23 1_555 1_555
H20 C23 1_555 1_555
H21 C24 1_555 1_555
H22 C24 1_555 1_555
H23 C25 1_555 1_555
H24 C25 1_555 1_555
H25 C26 1_555 1_555
H26 C26 1_555 1_555
H27 C27 1_555 1_555
H28 C27 1_555 1_555
H29 C28 1_555 1_555
H30 C28 1_555 1_555
H31 C30 1_555 1_555
H32 C31 1_555 1_555
H33 C32 1_555 1_555
H34 C35 1_555 1_555
H35 C36 1_555 1_555
H36 C37 1_555 1_555
H37 C38 1_555 1_555
H38 C39 1_555 1_555
H39 C39 1_555 1_555
H40 C40 1_555 1_555
H41 C40 1_555 1_555
H42 C42 1_555 1_555
H43 C42 1_555 1_555
H44 C43 1_555 1_555
H45 C43 1_555 1_555
H46 C44 1_555 1_555
H47 C44 1_555 1_555
C18 C19 1_555 1_555
C33 C34 1_555 1_555
C37 C38 1_555 1_555
C41 C42 1_555 1_555
C43 C44 1_555 1_555

#END
