
#######################################################################
#
#                 Cambridge Crystallographic Data Centre
#                                CCDC 
#
#######################################################################
#
# If this CIF has been generated from an entry in the Cambridge 
# Structural Database, then it will include bibliographic, chemical, 
# crystal, experimental, refinement or atomic coordinate data resulting 
# from the CCDC's data processing and validation procedures.
#
#######################################################################

data_CIXLOM
_chemical_formula_moiety         'C17 H18 N4 2+,C2 O4 2-,5(H2 O1)'
_chemical_name_systematic        
"1,1'-propane-1,3-diylbis-1H-benzimidazol-3-ium oxalate pentahydrate"
_symmetry_cell_setting           monoclinic
_symmetry_space_group_name_H-M   'P 21/n'
_symmetry_Int_Tables_number      14
_space_group_name_Hall           '-P 2yn'
loop_
_symmetry_equiv_pos_site_id
_symmetry_equiv_pos_as_xyz
1 x,y,z
2 1/2-x,1/2+y,1/2-z
3 -x,-y,-z
4 1/2+x,1/2-y,1/2+z
_cell_length_a                   14.3291(7)
_cell_length_b                   7.9290(3)
_cell_length_c                   21.2640(14)
_cell_angle_alpha                90
_cell_angle_beta                 109.0170(10)
_cell_angle_gamma                90
_cell_volume                     2284.06
_exptl_crystal_colour            colorless
_exptl_crystal_description       block
_cell_formula_units_Z            4
loop_
_atom_site_label
_atom_site_type_symbol
_atom_site_fract_x
_atom_site_fract_y
_atom_site_fract_z
N1 N 0.61028(10) 0.33252(19) 0.55503(7)
N2 N 0.49421(13) 0.2086(2) 0.58243(9)
H1 H 0.4616 0.1678 0.6065
N3 N 0.95994(10) 0.31474(19) 0.56194(7)
N4 N 1.09861(11) 0.1764(2) 0.59417(8)
H2 H 1.1512 0.1287 0.6197
C1 C 0.58011(15) 0.2846(3) 0.60502(10)
H3 H 0.6149 0.3022 0.6498
C2 C 0.46471(13) 0.2051(2) 0.51388(10)
C3 C 0.53851(13) 0.2850(2) 0.49591(9)
C4 C 0.53248(15) 0.3059(3) 0.42977(9)
H4 H 0.5819 0.3596 0.4178
C5 C 0.44926(17) 0.2425(3) 0.38317(11)
H5 H 0.4420 0.2540 0.3383
C6 C 0.37527(16) 0.1613(3) 0.40113(12)
H6 H 0.3204 0.1198 0.3679
C7 C 0.38101(15) 0.1408(3) 0.46605(12)
H7 H 0.3315 0.0867 0.4777
C8 C 1.03272(14) 0.2570(2) 0.61395(10)
H8 H 1.0366 0.2715 0.6581
C9 C 1.06884(13) 0.1815(2) 0.52543(9)
C10 C 0.98012(13) 0.2693(2) 0.50422(9)
C11 C 0.92897(15) 0.2965(3) 0.43735(10)
H9 H 0.8694 0.3547 0.4233
C12 C 0.97170(18) 0.2323(3) 0.39312(11)
H10 H 0.9400 0.2480 0.3478
C13 C 1.06099(17) 0.1446(3) 0.41399(12)
H11 H 1.0870 0.1034 0.3823
C14 C 1.11131(15) 0.1175(2) 0.48010(11)
H12 H 1.1709 0.0592 0.4940
C15 C 0.70203(13) 0.4229(2) 0.56089(10)
H13 H 0.7252 0.4786 0.6038
H14 H 0.6885 0.5093 0.5268
C16 C 0.78286(13) 0.3078(2) 0.55402(9)
H15 H 0.7952 0.2173 0.5864
H16 H 0.7631 0.2585 0.5099
C17 C 0.87517(13) 0.4130(2) 0.56567(10)
H17 H 0.8616 0.5024 0.5328
H18 H 0.8921 0.4653 0.6092
O1 O 0.33424(11) 0.0985(2) 0.61106(8)
O2 O 0.25577(10) 0.0315(2) 0.68116(8)
O3 O 0.50169(12) 0.0856(2) 0.72314(10)
O4 O 0.43384(12) -0.1518(2) 0.74227(8)
C18 C 0.33211(14) 0.0433(2) 0.66540(10)
C19 C 0.43055(15) -0.0130(3) 0.71573(10)
O5 O 0.27501(12) 0.4439(2) 0.58350(8)
H19 H 0.2917 0.3407 0.5893
H20 H 0.2856 0.4892 0.6214
O6 O 0.68856(12) 0.9494(2) 0.77760(8)
H21 H 0.6308 0.9900 0.7611
H22 H 0.7252 0.9935 0.7577
O7 O 0.19244(13) 0.9013(2) 0.29041(9)
H23 H 0.1868 0.7952 0.2849
H24 H 0.1358 0.9458 0.2736
O8 O 0.51369(14) 0.4311(2) 0.73827(10)
H25 H 0.5092 0.3247 0.7333
H26 H 0.4559 0.4710 0.7303
O9 O 0.31190(18) 0.5742(2) 0.70988(10)
H27 H 0.2900 0.5587 0.7421
H28 H 0.3499 0.6595 0.7187
loop_
_geom_bond_atom_site_label_1
_geom_bond_atom_site_label_2
_geom_bond_site_symmetry_1
_geom_bond_site_symmetry_2
N1 C1 1_555 1_555
N2 H1 1_555 1_555
N3 C8 1_555 1_555
N4 H2 1_555 1_555
C1 N2 1_555 1_555
H3 C1 1_555 1_555
C2 N2 1_555 1_555
C3 N1 1_555 1_555
C4 C3 1_555 1_555
H4 C4 1_555 1_555
C5 C4 1_555 1_555
H5 C5 1_555 1_555
C6 C5 1_555 1_555
H6 C6 1_555 1_555
C7 C2 1_555 1_555
H7 C7 1_555 1_555
C8 N4 1_555 1_555
H8 C8 1_555 1_555
C9 N4 1_555 1_555
C10 N3 1_555 1_555
C11 C10 1_555 1_555
H9 C11 1_555 1_555
C12 C11 1_555 1_555
H10 C12 1_555 1_555
C13 C12 1_555 1_555
H11 C13 1_555 1_555
C14 C9 1_555 1_555
H12 C14 1_555 1_555
C15 N1 1_555 1_555
H13 C15 1_555 1_555
H14 C15 1_555 1_555
C16 C15 1_555 1_555
H15 C16 1_555 1_555
H16 C16 1_555 1_555
C17 N3 1_555 1_555
H17 C17 1_555 1_555
H18 C17 1_555 1_555
O1 C18 1_555 1_555
O2 C18 1_555 1_555
O3 C19 1_555 1_555
O4 C19 1_555 1_555
C18 C19 1_555 1_555
O5 H19 1_555 1_555
H20 O5 1_555 1_555
O6 H21 1_555 1_555
H22 O6 1_555 1_555
O7 H23 1_555 1_555
H24 O7 1_555 1_555
O8 H25 1_555 1_555
H26 O8 1_555 1_555
O9 H27 1_555 1_555
H28 O9 1_555 1_555
C2 C3 1_555 1_555
C6 C7 1_555 1_555
C9 C10 1_555 1_555
C13 C14 1_555 1_555
C16 C17 1_555 1_555

#END
