
#######################################################################
#
#                 Cambridge Crystallographic Data Centre
#                                CCDC 
#
#######################################################################
#
# If this CIF has been generated from an entry in the Cambridge 
# Structural Database, then it will include bibliographic, chemical, 
# crystal, experimental, refinement or atomic coordinate data resulting 
# from the CCDC's data processing and validation procedures.
#
#######################################################################

data_CIXLUS
_chemical_formula_moiety         'C18 H20 N4 O1 2+,2(C7 H3 N2 O6 1-),H2 O1'
_chemical_name_systematic        
"1,1'-(oxydiethane-2,1-diyl)bis-1H-benzimidazol-3-ium bis(3,5-dinitrobenzoate) monohydrate"
_symmetry_cell_setting           monoclinic
_symmetry_space_group_name_H-M   'P 21/n'
_symmetry_Int_Tables_number      14
_space_group_name_Hall           '-P 2yn'
loop_
_symmetry_equiv_pos_site_id
_symmetry_equiv_pos_as_xyz
1 x,y,z
2 1/2-x,1/2+y,1/2-z
3 -x,-y,-z
4 1/2+x,1/2-y,1/2+z
_cell_length_a                   17.0680(16)
_cell_length_b                   7.7503(6)
_cell_length_c                   25.909(2)
_cell_angle_alpha                90
_cell_angle_beta                 102.489(2)
_cell_angle_gamma                90
_cell_volume                     3346.2
_exptl_crystal_colour            colorless
_exptl_crystal_description       block
_cell_formula_units_Z            4
loop_
_atom_site_label
_atom_site_type_symbol
_atom_site_fract_x
_atom_site_fract_y
_atom_site_fract_z
N1 N 0.57120(12) -0.0217(2) 0.13946(8)
N2 N 0.57130(13) 0.0985(3) 0.21520(8)
H1 H 0.5882 0.1479 0.2453
N3 N 0.77230(12) 0.4457(3) 0.11899(8)
N4 N 0.87160(14) 0.3469(3) 0.17876(8)
H2 H 0.8976 0.2970 0.2069
O1 O 0.64639(10) 0.2060(2) 0.08473(6)
C1 C 0.60256(15) -0.0766(3) 0.09382(10)
H3 H 0.5700 -0.1702 0.0758
H4 H 0.6570 -0.1188 0.1057
C2 C 0.60194(15) 0.0710(3) 0.05617(10)
H5 H 0.6260 0.0360 0.0271
H6 H 0.5473 0.1081 0.0418
C3 C 0.64882(15) 0.3596(3) 0.05583(10)
H7 H 0.5948 0.3972 0.0399
H8 H 0.6776 0.3405 0.0279
C4 C 0.69070(14) 0.4939(3) 0.09355(10)
H9 H 0.6920 0.6013 0.0745
H10 H 0.6602 0.5138 0.1205
C5 C 0.61638(16) 0.0442(3) 0.18339(11)
H11 H 0.6721 0.0508 0.1906
C6 C 0.49198(15) 0.0630(3) 0.19215(10)
C7 C 0.49159(14) -0.0118(3) 0.14363(9)
C8 C 0.42066(16) -0.0633(3) 0.11046(10)
H12 H 0.4200 -0.1132 0.0777
C9 C 0.35123(16) -0.0375(4) 0.12799(12)
H13 H 0.3024 -0.0695 0.1066
C10 C 0.35252(17) 0.0358(4) 0.17725(13)
H14 H 0.3045 0.0498 0.1882
C11 C 0.42240(17) 0.0876(3) 0.20998(11)
H15 H 0.4230 0.1371 0.2428
C12 C 0.79369(17) 0.3674(3) 0.16565(10)
H16 H 0.7581 0.3320 0.1861
C13 C 0.90505(16) 0.4188(3) 0.13978(9)
C14 C 0.84184(14) 0.4799(3) 0.10116(9)
C15 C 0.85433(16) 0.5587(3) 0.05586(10)
H17 H 0.8121 0.5979 0.0296
C16 C 0.93346(18) 0.5757(3) 0.05190(11)
H18 H 0.9447 0.6275 0.0219
C17 C 0.99653(18) 0.5181(4) 0.09119(13)
H19 H 1.0488 0.5334 0.0870
C18 C 0.98404(16) 0.4390(3) 0.13622(11)
H20 H 1.0264 0.4013 0.1628
N5 N 0.13411(16) 0.8203(3) 0.45049(9)
N6 N 0.26362(18) 1.0419(5) 0.31296(14)
O2 O -0.02971(11) 1.1828(2) 0.25056(8)
O3 O -0.08963(11) 1.0778(3) 0.31220(7)
O4 O 0.07362(14) 0.8152(3) 0.46856(8)
O5 O 0.19832(13) 0.7603(3) 0.47311(8)
O6 O 0.32444(16) 0.9699(5) 0.33470(12)
O7 O 0.25836(16) 1.1403(5) 0.27572(13)
C19 C -0.03132(16) 1.1048(4) 0.29256(11)
C20 C 0.04936(14) 1.0400(3) 0.32302(10)
C21 C 0.05532(14) 0.9596(3) 0.37122(10)
H21 H 0.0098 0.9421 0.3848
C22 C 0.12891(15) 0.9057(3) 0.39887(10)
C23 C 0.19810(16) 0.9289(4) 0.38114(11)
H22 H 0.2475 0.8909 0.4004
C24 C 0.19060(16) 1.0111(4) 0.33360(12)
C25 C 0.11837(16) 1.0680(3) 0.30427(10)
H23 H 0.1158 1.1246 0.2723
N7 N 0.39685(16) 0.5679(4) 0.39512(13)
N8 N 0.66193(17) 0.6697(3) 0.50605(9)
O8 O 0.71167(11) 0.3612(3) 0.34251(7)
O9 O 0.58974(11) 0.2805(2) 0.29993(7)
O10 O 0.35699(14) 0.5113(4) 0.35441(11)
O11 O 0.36920(13) 0.6441(3) 0.42880(10)
O12 O 0.62872(14) 0.7376(3) 0.53822(8)
O13 O 0.73455(14) 0.6615(3) 0.51106(7)
C26 C 0.63763(17) 0.3569(3) 0.33574(10)
C27 C 0.60027(15) 0.4494(3) 0.37587(9)
C28 C 0.51779(15) 0.4644(3) 0.36751(10)
H24 H 0.4851 0.4197 0.3370
C29 C 0.48439(15) 0.5466(3) 0.40497(11)
C30 C 0.53014(17) 0.6116(3) 0.45065(10)
H25 H 0.5068 0.6642 0.4759
C31 C 0.61171(16) 0.5961(3) 0.45780(10)
C32 C 0.64740(15) 0.5169(3) 0.42118(10)
H26 H 0.7030 0.5091 0.4271
O14 O 0.75838(9) 0.1794(2) 0.26139(6)
H27 H 0.7411 0.2363 0.2847
H28 H 0.8056 0.1448 0.2750
loop_
_geom_bond_atom_site_label_1
_geom_bond_atom_site_label_2
_geom_bond_site_symmetry_1
_geom_bond_site_symmetry_2
N1 C1 1_555 1_555
N2 H1 1_555 1_555
N3 C4 1_555 1_555
N4 H2 1_555 1_555
O1 C2 1_555 1_555
C1 H3 1_555 1_555
H4 C1 1_555 1_555
C2 C1 1_555 1_555
H5 C2 1_555 1_555
H6 C2 1_555 1_555
C3 O1 1_555 1_555
H7 C3 1_555 1_555
H8 C3 1_555 1_555
C4 C3 1_555 1_555
H9 C4 1_555 1_555
H10 C4 1_555 1_555
C5 N1 1_555 1_555
H11 C5 1_555 1_555
C6 N2 1_555 1_555
C7 N1 1_555 1_555
C8 C7 1_555 1_555
H12 C8 1_555 1_555
C9 C8 1_555 1_555
H13 C9 1_555 1_555
C10 C9 1_555 1_555
H14 C10 1_555 1_555
C11 C6 1_555 1_555
H15 C11 1_555 1_555
C12 N3 1_555 1_555
H16 C12 1_555 1_555
C13 N4 1_555 1_555
C14 N3 1_555 1_555
C15 C14 1_555 1_555
H17 C15 1_555 1_555
C16 C15 1_555 1_555
H18 C16 1_555 1_555
C17 C16 1_555 1_555
H19 C17 1_555 1_555
C18 C13 1_555 1_555
H20 C18 1_555 1_555
N5 O4 1_555 1_555
N6 O6 1_555 1_555
O2 C19 1_555 1_555
O3 C19 1_555 1_555
O5 N5 1_555 1_555
O7 N6 1_555 1_555
C19 C20 1_555 1_555
C20 C21 1_555 1_555
C21 H21 1_555 1_555
C22 N5 1_555 1_555
C23 C22 1_555 1_555
H22 C23 1_555 1_555
C24 N6 1_555 1_555
C25 C20 1_555 1_555
H23 C25 1_555 1_555
N7 O10 1_555 1_555
N8 O12 1_555 1_555
O8 C26 1_555 1_555
O9 C26 1_555 1_555
O11 N7 1_555 1_555
O13 N8 1_555 1_555
C26 C27 1_555 1_555
C27 C28 1_555 1_555
C28 H24 1_555 1_555
C29 N7 1_555 1_555
C30 C29 1_555 1_555
H25 C30 1_555 1_555
C31 N8 1_555 1_555
C32 C27 1_555 1_555
H26 C32 1_555 1_555
O14 H27 1_555 1_555
H28 O14 1_555 1_555
N2 C5 1_555 1_555
N4 C12 1_555 1_555
C6 C7 1_555 1_555
C10 C11 1_555 1_555
C13 C14 1_555 1_555
C17 C18 1_555 1_555
C21 C22 1_555 1_555
C23 C24 1_555 1_555
C24 C25 1_555 1_555
C28 C29 1_555 1_555
C30 C31 1_555 1_555
C31 C32 1_555 1_555

#END
