
#######################################################################
#
#                 Cambridge Crystallographic Data Centre
#                                CCDC 
#
#######################################################################
#
# If this CIF has been generated from an entry in the Cambridge 
# Structural Database, then it will include bibliographic, chemical, 
# crystal, experimental, refinement or atomic coordinate data resulting 
# from the CCDC's data processing and validation procedures.
#
#######################################################################

data_CIXMIH
_chemical_formula_moiety         'C7 H6 Br1 N2 S1 1+,C3 H3 O4 1-'
_chemical_name_systematic        
'6-bromo-1,3-benzothiazol-2(3H)-iminium carboxyacetate'
_symmetry_cell_setting           monoclinic
_symmetry_space_group_name_H-M   'P 21/c'
_symmetry_Int_Tables_number      14
_space_group_name_Hall           '-P 2ybc'
loop_
_symmetry_equiv_pos_site_id
_symmetry_equiv_pos_as_xyz
1 x,y,z
2 -x,1/2+y,1/2-z
3 -x,-y,-z
4 x,1/2-y,1/2+z
_cell_length_a                   4.5254(2)
_cell_length_b                   15.8930(10)
_cell_length_c                   16.9641(12)
_cell_angle_alpha                90
_cell_angle_beta                 96.2680(10)
_cell_angle_gamma                90
_cell_volume                     1212.8
_exptl_crystal_colour            colorless
_exptl_crystal_description       block
_cell_formula_units_Z            4
loop_
_atom_site_label
_atom_site_type_symbol
_atom_site_fract_x
_atom_site_fract_y
_atom_site_fract_z
Br1 Br -0.31179(8) 0.08334(2) 0.60806(2)
S1 S 0.25265(19) 0.13605(5) 0.33035(5)
N1 N 0.4435(6) 0.27251(16) 0.39772(15)
H1 H 0.5379 0.3190 0.4072
N2 N 0.5962(6) 0.25365(17) 0.27214(16)
H2 H 0.6925 0.3004 0.2749
H3 H 0.5937 0.2227 0.2305
C1 C 0.4530(7) 0.22954(19) 0.33144(19)
C2 C 0.2686(7) 0.23643(19) 0.4508(2)
C3 C 0.1417(7) 0.16078(18) 0.42323(18)
C4 C -0.0360(7) 0.11450(19) 0.46841(19)
H4 H -0.1197 0.0637 0.4503
C5 C -0.0844(7) 0.1466(2) 0.54121(19)
C6 C 0.0380(8) 0.2222(2) 0.5688(2)
H5 H -0.0001 0.2423 0.6181
C7 C 0.2151(8) 0.2678(2) 0.5238(2)
H6 H 0.2974 0.3187 0.5422
O1 O 0.2864(5) 0.50339(15) 0.26364(14)
H7 H 0.1878 0.4605 0.2668
O2 O 0.3924(6) 0.61770(15) 0.33364(15)
O3 O -0.0430(5) 0.39425(13) 0.31235(14)
O4 O -0.2689(6) 0.41772(14) 0.41988(15)
C8 C 0.2630(8) 0.5507(2) 0.3257(2)
C9 C 0.0734(8) 0.5194(2) 0.3861(2)
H8 H -0.0725 0.5627 0.3932
H9 H 0.1991 0.5145 0.4360
C10 C -0.0921(8) 0.4374(2) 0.3722(2)
loop_
_geom_bond_atom_site_label_1
_geom_bond_atom_site_label_2
_geom_bond_site_symmetry_1
_geom_bond_site_symmetry_2
Br1 C5 1_555 1_555
S1 C1 1_555 1_555
N1 H1 1_555 1_555
N2 H2 1_555 1_555
H3 N2 1_555 1_555
C1 N1 1_555 1_555
C2 N1 1_555 1_555
C3 S1 1_555 1_555
C4 C3 1_555 1_555
H4 C4 1_555 1_555
C5 C4 1_555 1_555
C6 C5 1_555 1_555
H5 C6 1_555 1_555
C7 C2 1_555 1_555
H6 C7 1_555 1_555
O1 H7 1_555 1_555
O2 C8 1_555 1_555
O3 C10 1_555 1_555
O4 C10 1_555 1_555
C8 O1 1_555 1_555
C9 C8 1_555 1_555
H8 C9 1_555 1_555
H9 C9 1_555 1_555
C10 C9 1_555 1_555
N2 C1 1_555 1_555
C2 C3 1_555 1_555
C6 C7 1_555 1_555

#END
