
#######################################################################
#
#                 Cambridge Crystallographic Data Centre
#                                CCDC 
#
#######################################################################
#
# If this CIF has been generated from an entry in the Cambridge 
# Structural Database, then it will include bibliographic, chemical, 
# crystal, experimental, refinement or atomic coordinate data resulting 
# from the CCDC's data processing and validation procedures.
#
#######################################################################

data_CIXNAA
_chemical_formula_moiety         'C15 H12 N4,2(C7 H5 N1 O4)'
_chemical_name_systematic        
"3-nitrobenzoic acid 1,1'-methylenebis-1H-benzimidazole"
_symmetry_cell_setting           monoclinic
_symmetry_space_group_name_H-M   'P 21/c'
_symmetry_Int_Tables_number      14
_space_group_name_Hall           '-P 2ybc'
loop_
_symmetry_equiv_pos_site_id
_symmetry_equiv_pos_as_xyz
1 x,y,z
2 -x,1/2+y,1/2-z
3 -x,-y,-z
4 x,1/2-y,1/2+z
_cell_length_a                   12.2443(11)
_cell_length_b                   28.335(3)
_cell_length_c                   7.7344(6)
_cell_angle_alpha                90
_cell_angle_beta                 96.7600(10)
_cell_angle_gamma                90
_cell_volume                     2664.73
_exptl_crystal_colour            colorless
_exptl_crystal_description       block
_cell_formula_units_Z            4
loop_
_atom_site_label
_atom_site_type_symbol
_atom_site_fract_x
_atom_site_fract_y
_atom_site_fract_z
N1 N 0.3644(2) 0.51709(8) 0.6251(3)
N2 N 0.4810(2) 0.57360(9) 0.7285(4)
N3 N 0.1846(2) 0.48006(9) 0.6247(3)
N4 N 0.0635(2) 0.42933(9) 0.7095(4)
C1 C 0.4547(3) 0.49420(11) 0.7133(4)
C2 C 0.4792(3) 0.44686(11) 0.7417(5)
H1 H 0.4320 0.4231 0.6956
C3 C 0.1039(3) 0.50688(11) 0.6892(4)
C4 C 0.5264(3) 0.52994(11) 0.7792(4)
C5 C 0.2699(3) 0.49636(11) 0.5223(4)
H2 H 0.2945 0.4699 0.4574
H3 H 0.2383 0.5196 0.4387
C6 C 0.1537(3) 0.43430(11) 0.6384(4)
H4 H 0.1932 0.4091 0.6005
C7 C -0.0644(3) 0.49031(13) 0.8090(4)
H5 H -0.1148 0.4689 0.8450
C8 C -0.0799(3) 0.53853(14) 0.8231(5)
H6 H -0.1425 0.5500 0.8662
C9 C 0.3863(3) 0.56408(11) 0.6375(5)
H7 H 0.3388 0.5871 0.5867
C10 C 0.6236(3) 0.51909(13) 0.8800(5)
H8 H 0.6715 0.5426 0.9261
C11 C 0.0278(3) 0.47509(11) 0.7402(4)
C12 C 0.5765(3) 0.43683(13) 0.8411(5)
H9 H 0.5956 0.4054 0.8630
C13 C 0.0901(3) 0.55529(11) 0.7048(5)
H10 H 0.1410 0.5767 0.6707
C14 C 0.6472(3) 0.47189(14) 0.9097(5)
H11 H 0.7122 0.4635 0.9775
C15 C -0.0023(3) 0.56975(13) 0.7731(5)
H12 H -0.0137 0.6019 0.7866
O1 O 0.57339(19) 0.65637(7) 0.7221(3)
H13 H 0.5473 0.6301 0.7339
C16 C 0.7219(3) 0.69846(11) 0.6283(4)
C17 C 0.6711(3) 0.74153(11) 0.6497(5)
H14 H 0.6009 0.7428 0.6841
O2 O 0.7056(2) 0.61525(8) 0.6192(4)
C18 C 0.7269(3) 0.78230(11) 0.6189(5)
O3 O 0.7200(3) 0.86389(10) 0.6050(5)
C19 C 0.8300(4) 0.78209(13) 0.5678(5)
H15 H 0.8651 0.8102 0.5466
C20 C 0.6650(3) 0.65246(12) 0.6547(5)
N5 N 0.6720(3) 0.82799(11) 0.6391(5)
C21 C 0.8262(3) 0.69797(12) 0.5776(5)
H16 H 0.8604 0.6692 0.5629
C22 C 0.8810(3) 0.73935(15) 0.5482(5)
H17 H 0.9517 0.7384 0.5155
O4 O 0.5817(3) 0.82781(10) 0.6878(5)
O5 O 0.19567(19) 0.60419(8) 0.3551(4)
O6 O 0.0470(2) 0.64882(8) 0.2820(4)
H18 H 0.0155 0.6232 0.2778
C23 C 0.2193(3) 0.68710(11) 0.3367(5)
C24 C 0.3317(3) 0.68362(12) 0.3720(5)
H19 H 0.3643 0.6540 0.3840
C25 C 0.1518(3) 0.64250(13) 0.3249(5)
C26 C 0.1712(3) 0.73086(11) 0.3165(5)
H20 H 0.0954 0.7339 0.2897
C27 C 0.2377(3) 0.77014(12) 0.3368(6)
C28 C 0.3495(3) 0.76741(13) 0.3724(6)
H21 H 0.3925 0.7946 0.3844
C29 C 0.3967(3) 0.72354(14) 0.3899(6)
H22 H 0.4726 0.7207 0.4139
N6 N 0.1858(4) 0.81687(13) 0.3174(7)
O7 O 0.2451(3) 0.85124(11) 0.3358(7)
O8 O 0.0889(4) 0.81902(11) 0.2800(8)
loop_
_geom_bond_atom_site_label_1
_geom_bond_atom_site_label_2
_geom_bond_site_symmetry_1
_geom_bond_site_symmetry_2
N1 C1 1_555 1_555
N2 C4 1_555 1_555
N3 C3 1_555 1_555
N4 C6 1_555 1_555
C1 C2 1_555 1_555
C2 H1 1_555 1_555
C3 C11 1_555 1_555
C4 C1 1_555 1_555
C5 N1 1_555 1_555
H2 C5 1_555 1_555
H3 C5 1_555 1_555
C6 N3 1_555 1_555
H4 C6 1_555 1_555
C7 H5 1_555 1_555
C8 C7 1_555 1_555
H6 C8 1_555 1_555
C9 N1 1_555 1_555
H7 C9 1_555 1_555
C10 C4 1_555 1_555
H8 C10 1_555 1_555
C11 N4 1_555 1_555
C12 C2 1_555 1_555
H9 C12 1_555 1_555
C13 C3 1_555 1_555
H10 C13 1_555 1_555
C14 C10 1_555 1_555
H11 C14 1_555 1_555
C15 C8 1_555 1_555
H12 C15 1_555 1_555
O1 H13 1_555 1_555
C16 C17 1_555 1_555
C17 H14 1_555 1_555
O2 C20 1_555 1_555
C18 C17 1_555 1_555
O3 N5 1_555 1_555
C19 C18 1_555 1_555
H15 C19 1_555 1_555
C20 O1 1_555 1_555
N5 C18 1_555 1_555
C21 C16 1_555 1_555
H16 C21 1_555 1_555
C22 C19 1_555 1_555
H17 C22 1_555 1_555
O4 N5 1_555 1_555
O5 C25 1_555 1_555
O6 H18 1_555 1_555
C23 C24 1_555 1_555
C24 H19 1_555 1_555
C25 O6 1_555 1_555
C26 C23 1_555 1_555
H20 C26 1_555 1_555
C27 C26 1_555 1_555
C28 C27 1_555 1_555
H21 C28 1_555 1_555
C29 C24 1_555 1_555
H22 C29 1_555 1_555
N6 C27 1_555 1_555
O7 N6 1_555 1_555
O8 N6 1_555 1_555
N2 C9 1_555 1_555
N3 C5 1_555 1_555
C7 C11 1_555 1_555
C12 C14 1_555 1_555
C13 C15 1_555 1_555
C16 C20 1_555 1_555
C21 C22 1_555 1_555
C23 C25 1_555 1_555
C28 C29 1_555 1_555

#END
