
#######################################################################
#
#                 Cambridge Crystallographic Data Centre
#                                CCDC 
#
#######################################################################
#
# If this CIF has been generated from an entry in the Cambridge 
# Structural Database, then it will include bibliographic, chemical, 
# crystal, experimental, refinement or atomic coordinate data resulting 
# from the CCDC's data processing and validation procedures.
#
#######################################################################

data_CIXYOZ
_chemical_formula_moiety         'C22 H19 N3 O4 S2'
_chemical_name_systematic        
N-(2-Methyl-6-(1-(phenylsulfonyl)-1H-pyrazol-3-yl)phenyl)benzenesulfonamide
_symmetry_cell_setting           monoclinic
_symmetry_space_group_name_H-M   'P 21/c'
_symmetry_Int_Tables_number      14
_space_group_name_Hall           '-P 2ybc'
loop_
_symmetry_equiv_pos_site_id
_symmetry_equiv_pos_as_xyz
1 x,y,z
2 -x,1/2+y,1/2-z
3 -x,-y,-z
4 x,1/2-y,1/2+z
_cell_length_a                   13.0172(4)
_cell_length_b                   8.1423(3)
_cell_length_c                   19.3454(5)
_cell_angle_alpha                90
_cell_angle_beta                 94.278(2)
_cell_angle_gamma                90
_cell_volume                     2044.71
_exptl_crystal_colour            colorless
_exptl_crystal_description       slab
_cell_formula_units_Z            4
loop_
_atom_site_label
_atom_site_type_symbol
_atom_site_fract_x
_atom_site_fract_y
_atom_site_fract_z
S1 S 0.73966(4) 0.68514(6) 0.17623(2)
S2 S 0.60150(4) 0.68248(6) -0.09735(2)
N1 N 0.76837(13) 0.6449(2) -0.01078(8)
N2 N 0.72536(13) 0.7228(2) -0.06828(8)
N3 N 0.79567(13) 0.5524(2) 0.12690(8)
H1 H 0.7556(13) 0.547(3) 0.0893(6)
O1 O 0.80436(12) 0.70372(18) 0.23909(7)
O2 O 0.63575(11) 0.63034(19) 0.17834(7)
O3 O 0.54654(11) 0.66499(18) -0.03684(7)
O4 O 0.57774(12) 0.80964(17) -0.14649(7)
C1 C 0.79076(17) 0.8354(3) -0.09387(11)
H2 H 0.7674(17) 0.897(3) -0.1373(12)
C2 C 0.87785(17) 0.8319(3) -0.05091(11)
H3 H 0.9334(18) 0.891(3) -0.0572(11)
C3 C 0.86169(15) 0.7128(2) 0.00009(10)
C4 C 0.93460(15) 0.6580(2) 0.05811(10)
C5 C 0.90323(15) 0.5758(2) 0.11714(10)
C6 C 0.97555(16) 0.5135(3) 0.16774(10)
C7 C 1.07962(17) 0.5441(3) 0.16052(11)
H4 H 1.1298 0.5027 0.1943
C8 C 1.11115(16) 0.6331(3) 0.10532(11)
H5 H 1.1821 0.6577 0.1027
C9 C 1.03933(16) 0.6867(3) 0.05366(11)
H6 H 1.0619 0.7438 0.0147
C10 C 0.73831(15) 0.8748(2) 0.13197(10)
C11 C 0.82290(16) 0.9794(3) 0.14029(10)
H7 H 0.8803 0.9519 0.1714
C12 C 0.82225(17) 1.1238(3) 0.10267(11)
H8 H 0.8798 1.1958 0.1077
C13 C 0.73832(18) 1.1643(3) 0.05766(11)
H9 H 0.7386 1.2636 0.0319
C14 C 0.65365(17) 1.0600(3) 0.05011(10)
H10 H 0.5958 1.0889 0.0197
C15 C 0.65368(16) 0.9139(3) 0.08693(10)
H11 H 0.5965 0.8414 0.0814
C16 C 0.94495(17) 0.4133(3) 0.22860(11)
H12 H 0.9955 0.3257 0.2385
H13 H 0.8768 0.3647 0.2175
H14 H 0.9426 0.4844 0.2693
C17 C 0.60797(15) 0.4931(2) -0.13908(9)
C18 C 0.62218(16) 0.4902(3) -0.20987(10)
H15 H 0.6280 0.5893 -0.2352
C19 C 0.62753(17) 0.3392(3) -0.24237(11)
H16 H 0.6373 0.3344 -0.2905
C20 C 0.61876(17) 0.1957(3) -0.20535(11)
H17 H 0.6227 0.0927 -0.2281
C21 C 0.60412(16) 0.2013(3) -0.13493(11)
H18 H 0.5982 0.1020 -0.1097
C22 C 0.59818(15) 0.3506(2) -0.10128(10)
H19 H 0.5876 0.3551 -0.0533
loop_
_geom_bond_atom_site_label_1
_geom_bond_atom_site_label_2
_geom_bond_site_symmetry_1
_geom_bond_site_symmetry_2
S1 N3 1_555 1_555
S2 N2 1_555 1_555
N1 N2 1_555 1_555
N2 C1 1_555 1_555
N3 H1 1_555 1_555
O1 S1 1_555 1_555
O2 S1 1_555 1_555
O3 S2 1_555 1_555
O4 S2 1_555 1_555
C1 H2 1_555 1_555
C2 C1 1_555 1_555
H3 C2 1_555 1_555
C3 N1 1_555 1_555
C4 C3 1_555 1_555
C5 N3 1_555 1_555
C6 C5 1_555 1_555
C7 C6 1_555 1_555
H4 C7 1_555 1_555
C8 C7 1_555 1_555
H5 C8 1_555 1_555
C9 C4 1_555 1_555
H6 C9 1_555 1_555
C10 S1 1_555 1_555
C11 C10 1_555 1_555
H7 C11 1_555 1_555
C12 C11 1_555 1_555
H8 C12 1_555 1_555
C13 C12 1_555 1_555
H9 C13 1_555 1_555
C14 C13 1_555 1_555
H10 C14 1_555 1_555
C15 C10 1_555 1_555
H11 C15 1_555 1_555
C16 C6 1_555 1_555
H12 C16 1_555 1_555
H13 C16 1_555 1_555
H14 C16 1_555 1_555
C17 S2 1_555 1_555
C18 C17 1_555 1_555
H15 C18 1_555 1_555
C19 C18 1_555 1_555
H16 C19 1_555 1_555
C20 C19 1_555 1_555
H17 C20 1_555 1_555
C21 C20 1_555 1_555
H18 C21 1_555 1_555
C22 C17 1_555 1_555
H19 C22 1_555 1_555
C2 C3 1_555 1_555
C4 C5 1_555 1_555
C8 C9 1_555 1_555
C14 C15 1_555 1_555
C21 C22 1_555 1_555

#END
