
#######################################################################
#
#                 Cambridge Crystallographic Data Centre
#                                CCDC 
#
#######################################################################
#
# If this CIF has been generated from an entry in the Cambridge 
# Structural Database, then it will include bibliographic, chemical, 
# crystal, experimental, refinement or atomic coordinate data resulting 
# from the CCDC's data processing and validation procedures.
#
#######################################################################

data_CIYFOF01
_chemical_formula_moiety         'C10 H8 S8 1+,C10 H8 S8,Br1 O4 1-'
_chemical_name_systematic        
'bis(bis(Ethylenedithio)-tetrathiafulvalene) perbromate'
_symmetry_cell_setting           triclinic
_symmetry_space_group_name_H-M   'P -1'
_symmetry_Int_Tables_number      2
_space_group_name_Hall           '-P 1'
loop_
_symmetry_equiv_pos_site_id
_symmetry_equiv_pos_as_xyz
1 x,y,z
2 -x,-y,-z
_cell_length_a                   7.631(4)
_cell_length_b                   12.564(8)
_cell_length_c                   17.076(9)
_cell_angle_alpha                73.21(4)
_cell_angle_beta                 80.49(4)
_cell_angle_gamma                89.09(5)
_cell_volume                     1544.96
_exptl_crystal_colour            black
_cell_formula_units_Z            2
loop_
_atom_site_label
_atom_site_type_symbol
_atom_site_fract_x
_atom_site_fract_y
_atom_site_fract_z
S1 S 0.0033(7) 0.7391(4) 0.1799(3)
S2 S 0.0457(7) 0.5279(4) 0.1378(3)
S3 S 0.1343(7) 0.8760(4) -0.0105(3)
S4 S 0.1771(7) 0.6673(4) -0.0564(3)
S5 S -0.0897(8) 0.6355(4) 0.3616(3)
S6 S -0.0066(8) 0.3842(4) 0.3098(3)
S7 S 0.2479(7) 1.0244(4) -0.1778(3)
S8 S 0.3066(8) 0.7754(4) -0.2349(3)
C1 C 0.0637(26) 0.6726(14) 0.1034(11)
C2 C 0.1193(27) 0.7309(14) 0.0217(11)
C3 C 0.2150(26) 0.8875(15) -0.1149(11)
C4 C 0.2363(26) 0.7913(15) -0.1364(11)
C5 C -0.0231(26) 0.6169(15) 0.2632(11)
C6 C 0.0032(26) 0.5200(15) 0.2436(11)
C7 C -0.1723(29) 0.4958(16) 0.4199(12)
C8 C -0.0381(31) 0.4076(17) 0.4108(12)
C9 C 0.3668(29) 1.0048(17) -0.2730(12)
C10 C 0.2827(29) 0.9156(16) -0.3004(12)
S9 S 0.2323(7) 0.2367(4) 0.1900(3)
S10 S 0.2390(7) 0.0282(4) 0.1431(3)
S11 S 0.3558(7) 0.3761(4) -0.0016(3)
S12 S 0.3653(7) 0.1680(4) -0.0490(3)
S13 S 0.1690(8) 0.1266(4) 0.3715(3)
S14 S 0.1461(8) -0.1198(4) 0.3120(3)
S15 S 0.4952(7) 0.5205(4) -0.1689(3)
S16 S 0.4963(8) 0.2719(4) -0.2265(3)
C11 C 0.2715(26) 0.1725(14) 0.1114(11)
C12 C 0.3253(27) 0.2319(15) 0.0301(11)
C13 C 0.4345(26) 0.3862(15) -0.1058(11)
C14 C 0.4369(26) 0.2906(15) -0.1285(11)
C15 C 0.1890(26) 0.1125(15) 0.2713(11)
C16 C 0.1856(25) 0.0170(14) 0.2493(11)
C17 C 0.2154(29) -0.0149(16) 0.4275(12)
C18 C 0.0960(30) -0.1014(16) 0.4147(12)
C19 C 0.4662(30) 0.5040(17) -0.2679(12)
C20 C 0.5726(29) 0.4107(17) -0.2906(12)
Br1 Br 0.4701(3) 0.2519(2) 0.4983(1)
O1 O 0.6228(22) 0.2370(13) 0.4251(10)
O2 O 0.3536(25) 0.3573(14) 0.4620(10)
O3 O 0.3453(24) 0.1404(14) 0.5354(10)
O4 O 0.5656(23) 0.2727(14) 0.5706(10)
loop_
_geom_bond_atom_site_label_1
_geom_bond_atom_site_label_2
_geom_bond_site_symmetry_1
_geom_bond_site_symmetry_2
S1 C1 1_555 1_555
S2 C1 1_555 1_555
S3 C2 1_555 1_555
S4 C2 1_555 1_555
S5 C5 1_555 1_555
S6 C6 1_555 1_555
S7 C3 1_555 1_555
S8 C4 1_555 1_555
C1 C2 1_555 1_555
C3 S3 1_555 1_555
C4 S4 1_555 1_555
C5 S1 1_555 1_555
C6 S2 1_555 1_555
C7 S5 1_555 1_555
C8 S6 1_555 1_555
C9 S7 1_555 1_555
C10 S8 1_555 1_555
S9 C11 1_555 1_555
S10 C11 1_555 1_555
S11 C12 1_555 1_555
S12 C12 1_555 1_555
S13 C15 1_555 1_555
S14 C16 1_555 1_555
S15 C13 1_555 1_555
S16 C14 1_555 1_555
C11 C12 1_555 1_555
C13 S11 1_555 1_555
C14 S12 1_555 1_555
C15 S9 1_555 1_555
C16 S10 1_555 1_555
C17 S13 1_555 1_555
C18 S14 1_555 1_555
C19 S15 1_555 1_555
C20 S16 1_555 1_555
Br1 O1 1_555 1_555
O2 Br1 1_555 1_555
O3 Br1 1_555 1_555
O4 Br1 1_555 1_555
C3 C4 1_555 1_555
C5 C6 1_555 1_555
C7 C8 1_555 1_555
C9 C10 1_555 1_555
C13 C14 1_555 1_555
C15 C16 1_555 1_555
C17 C18 1_555 1_555
C19 C20 1_555 1_555

#END
