
#######################################################################
#
#                 Cambridge Crystallographic Data Centre
#                                CCDC 
#
#######################################################################
#
# If this CIF has been generated from an entry in the Cambridge 
# Structural Database, then it will include bibliographic, chemical, 
# crystal, experimental, refinement or atomic coordinate data resulting 
# from the CCDC's data processing and validation procedures.
#
#######################################################################

data_CIYMUU01
_chemical_formula_moiety         'C38 H26 S2'
_chemical_name_systematic        
2,2'-(3,4-bis(diphenylmethylene)cyclobut-1-ene-1,2-diyl)dithiophene
_symmetry_cell_setting           monoclinic
_symmetry_space_group_name_H-M   'P 21'
_symmetry_Int_Tables_number      4
_space_group_name_Hall           'P 2yb'
loop_
_symmetry_equiv_pos_site_id
_symmetry_equiv_pos_as_xyz
1 x,y,z
2 -x,1/2+y,-z
_cell_length_a                   11.459(2)
_cell_length_b                   5.9687(10)
_cell_length_c                   20.744(4)
_cell_angle_alpha                90
_cell_angle_beta                 93.659(3)
_cell_angle_gamma                90
_cell_volume                     1415.9
_exptl_crystal_colour            yellow
_exptl_crystal_description       block
_cell_formula_units_Z            2
loop_
_atom_site_label
_atom_site_type_symbol
_atom_site_fract_x
_atom_site_fract_y
_atom_site_fract_z
S1 S 0.53241(9) 0.32482(19) 0.91646(4)
S2 S 0.37759(13) 0.1576(4) 0.75568(11)
C1 C 0.4777(6) -0.1425(15) 0.8220(5)
H1 H 0.5367 -0.2316 0.8437
C2 C 0.6852(2) 0.2919(5) 0.82147(12)
C3 C 0.6147(2) 0.1636(5) 0.77950(12)
C4 C 0.6945(2) 0.1873(5) 0.72607(12)
C5 C 0.7769(2) 0.3146(5) 0.77318(11)
C6 C 0.6691(3) 0.3540(5) 0.88775(12)
C7 C 0.7568(2) 0.4291(5) 0.93970(12)
H2 H 0.8376 0.4573 0.9357
C8 C 0.6928(4) 0.4500(7) 0.99761(16)
H3 H 0.7298 0.4954 1.0378
C9 C 0.5794(4) 0.4018(6) 0.99116(16)
H4 H 0.5294 0.4103 1.0259
C10 C 0.5033(2) 0.0544(5) 0.78769(13)
C11 C 0.3568(3) -0.1966(8) 0.82159(17)
H5 H 0.3240 -0.3216 0.8423
C12 C 0.2986(3) -0.0427(9) 0.78739(18)
H6 H 0.2158 -0.0460 0.7812
C13 C 0.6807(2) 0.1343(5) 0.66268(12)
C14 C 0.5832(2) -0.0189(5) 0.63967(12)
C15 C 0.5701(2) -0.2266(5) 0.66813(12)
H7 H 0.6212 -0.2687 0.7039
C16 C 0.4841(3) -0.3731(6) 0.64533(14)
H8 H 0.4754 -0.5139 0.6658
C17 C 0.4102(3) -0.3146(6) 0.59243(14)
H9 H 0.3521 -0.4166 0.5760
C18 C 0.4215(3) -0.1068(6) 0.56361(14)
H10 H 0.3698 -0.0652 0.5280
C19 C 0.5075(2) 0.0396(5) 0.58643(12)
H11 H 0.5156 0.1808 0.5661
C20 C 0.7545(2) 0.2186(5) 0.61184(12)
C21 C 0.7756(2) 0.0809(5) 0.55919(12)
H12 H 0.7421 -0.0646 0.5563
C22 C 0.8454(3) 0.1558(6) 0.51090(13)
H13 H 0.8598 0.0607 0.4756
C23 C 0.8933(3) 0.3663(6) 0.51428(13)
H14 H 0.9409 0.4165 0.4813
C24 C 0.8723(3) 0.5064(6) 0.56571(14)
H15 H 0.9058 0.6520 0.5680
C25 C 0.8025(2) 0.4335(5) 0.61372(12)
H16 H 0.7871 0.5312 0.6483
C26 C 0.8884(2) 0.3882(5) 0.77606(12)
C27 C 0.9760(2) 0.3276(5) 0.72945(11)
C28 C 0.9777(3) 0.1165(5) 0.70080(12)
H17 H 0.9209 0.0079 0.7107
C29 C 1.0617(3) 0.0636(6) 0.65781(13)
H18 H 1.0617 -0.0803 0.6383
C30 C 1.1457(3) 0.2201(6) 0.64329(14)
H19 H 1.2026 0.1837 0.6136
C31 C 1.1465(3) 0.4281(6) 0.67202(15)
H20 H 1.2043 0.5351 0.6625
C32 C 1.0623(3) 0.4812(6) 0.71506(14)
H21 H 1.0637 0.6246 0.7350
C33 C 0.9310(2) 0.5416(5) 0.82899(12)
C34 C 1.0305(3) 0.4882(6) 0.86876(14)
H22 H 1.0716 0.3529 0.8619
C35 C 1.0691(3) 0.6322(7) 0.91807(15)
H23 H 1.1361 0.5945 0.9453
C36 C 1.0102(3) 0.8311(7) 0.92772(16)
H24 H 1.0363 0.9285 0.9619
C37 C 0.9135(4) 0.8880(6) 0.88771(17)
H25 H 0.8742 1.0258 0.8938
C38 C 0.8740(3) 0.7429(6) 0.83861(14)
H26 H 0.8073 0.7820 0.8114
S3? S 0.5005(3) -0.1880(7) 0.8289(3)
C39? C 0.3867(7) 0.104(2) 0.7665(8)
H27? H 0.3679 0.2295 0.7395
loop_
_geom_bond_atom_site_label_1
_geom_bond_atom_site_label_2
_geom_bond_site_symmetry_1
_geom_bond_site_symmetry_2
S1 C6 1_555 1_555
S2 C10 1_555 1_555
C1 H1 1_555 1_555
C2 C3 1_555 1_555
C3 C4 1_555 1_555
C4 C5 1_555 1_555
C5 C2 1_555 1_555
C6 C2 1_555 1_555
C7 C6 1_555 1_555
H2 C7 1_555 1_555
C8 C7 1_555 1_555
H3 C8 1_555 1_555
C9 S1 1_555 1_555
H4 C9 1_555 1_555
C10 C1 1_555 1_555
C11 C1 1_555 1_555
H5 C11 1_555 1_555
C12 S2 1_555 1_555
H6 C12 1_555 1_555
C13 C4 1_555 1_555
C14 C13 1_555 1_555
C15 C14 1_555 1_555
H7 C15 1_555 1_555
C16 C15 1_555 1_555
H8 C16 1_555 1_555
C17 C16 1_555 1_555
H9 C17 1_555 1_555
C18 C17 1_555 1_555
H10 C18 1_555 1_555
C19 C14 1_555 1_555
H11 C19 1_555 1_555
C20 C13 1_555 1_555
C21 C20 1_555 1_555
H12 C21 1_555 1_555
C22 C21 1_555 1_555
H13 C22 1_555 1_555
C23 C22 1_555 1_555
H14 C23 1_555 1_555
C24 C23 1_555 1_555
H15 C24 1_555 1_555
C25 C20 1_555 1_555
H16 C25 1_555 1_555
C26 C5 1_555 1_555
C27 C26 1_555 1_555
C28 C27 1_555 1_555
H17 C28 1_555 1_555
C29 C28 1_555 1_555
H18 C29 1_555 1_555
C30 C29 1_555 1_555
H19 C30 1_555 1_555
C31 C30 1_555 1_555
H20 C31 1_555 1_555
C32 C27 1_555 1_555
H21 C32 1_555 1_555
C33 C26 1_555 1_555
C34 C33 1_555 1_555
H22 C34 1_555 1_555
C35 C34 1_555 1_555
H23 C35 1_555 1_555
C36 C35 1_555 1_555
H24 C36 1_555 1_555
C37 C36 1_555 1_555
H25 C37 1_555 1_555
C38 C33 1_555 1_555
H26 C38 1_555 1_555
C3 C10 1_555 1_555
C8 C9 1_555 1_555
C11 C12 1_555 1_555
C18 C19 1_555 1_555
C24 C25 1_555 1_555
C31 C32 1_555 1_555
C37 C38 1_555 1_555

#END
