
#######################################################################
#
#                 Cambridge Crystallographic Data Centre
#                                CCDC 
#
#######################################################################
#
# If this CIF has been generated from an entry in the Cambridge 
# Structural Database, then it will include bibliographic, chemical, 
# crystal, experimental, refinement or atomic coordinate data resulting 
# from the CCDC's data processing and validation procedures.
#
#######################################################################

data_CIYNIJ
_chemical_name_common            
'N-(4-amino-5-cyano-3-phenylpyridin-2-yl)-4-methyl-N-phenylbenzenesulfonamide methanol solvate'
_chemical_formula_moiety         'C25 H22 N4 O3 S1,0.5(C1 H4 O1)'
_chemical_name_systematic        
"4-cyano-5-hydroxy-3-imino-N'-((4-methylphenyl)sulfonyl)-N,2-diphenylpent-4-enimidamide methanol solvate"
_symmetry_cell_setting           monoclinic
_symmetry_space_group_name_H-M   'P 21/c'
_symmetry_Int_Tables_number      14
_space_group_name_Hall           '-P 2ybc'
loop_
_symmetry_equiv_pos_site_id
_symmetry_equiv_pos_as_xyz
1 x,y,z
2 -x,1/2+y,1/2-z
3 -x,-y,-z
4 x,1/2-y,1/2+z
_cell_length_a                   18.9964(13)
_cell_length_b                   14.4609(10)
_cell_length_c                   19.8858(10)
_cell_angle_alpha                90
_cell_angle_beta                 120.723(5)
_cell_angle_gamma                90
_cell_volume                     4696.02
_cell_formula_units_Z            8
loop_
_atom_site_label
_atom_site_type_symbol
_atom_site_fract_x
_atom_site_fract_y
_atom_site_fract_z
S1 S -0.13164(5) -0.69382(6) -0.61529(5)
O1 O -0.17394(14) -0.60811(16) -0.62742(13)
O2 O -0.16543(13) -0.77293(17) -0.59705(13)
O3 O 0.19033(16) -0.55799(19) -0.57220(14)
N1 N -0.03597(16) -0.67595(19) -0.55034(15)
N2 N -0.01323(17) -0.81016(19) -0.47249(15)
H1 H -0.0646 -0.8259 -0.4978
N3 N 0.1139(2) -0.8613(2) -0.56294(18)
N4 N 0.15048(17) -0.5565(2) -0.45978(16)
H2 H 0.1686 -0.5377 -0.4828
C1 C 0.0389(2) -0.8681(2) -0.4067(2)
C2 C 0.0090(2) -0.7311(2) -0.49174(19)
C3 C 0.1259(2) -0.7839(3) -0.5500(2)
C4 C 0.09552(19) -0.6416(2) -0.36997(18)
C5 C 0.1415(2) -0.6885(2) -0.53509(19)
C6 C -0.1301(2) -0.7195(2) -0.70115(18)
C7 C 0.09593(19) -0.6963(2) -0.43564(18)
H3 H 0.1308 -0.7506 -0.4119
C8 C -0.1399(2) -0.7714(3) -0.8404(2)
C9 C 0.12950(19) -0.6437(2) -0.47924(19)
C10 C -0.1833(2) -0.6965(2) -0.8378(2)
H4 H -0.2163 -0.6633 -0.8834
C11 C 0.1503(2) -0.6660(3) -0.2921(2)
H5 H 0.1875 -0.7137 -0.2807
C12 C 0.0943(2) -0.5480(3) -0.2483(2)
H6 H 0.0932 -0.5173 -0.2078
C13 C 0.0375(3) -0.8574(3) -0.3383(2)
H7 H 0.0039 -0.8137 -0.3345
C14 C 0.0410(2) -0.5221(3) -0.3253(2)
H8 H 0.0050 -0.4731 -0.3363
C15 C 0.1491(2) -0.6193(3) -0.2319(2)
H9 H 0.1853 -0.6361 -0.1802
C16 C 0.1739(2) -0.6417(3) -0.5769(2)
H10 H 0.1835 -0.6771 -0.6105
C17 C 0.0415(2) -0.5695(2) -0.3858(2)
H11 H 0.0052 -0.5526 -0.4374
C18 C -0.0852(2) -0.7939(2) -0.7019(2)
H12 H -0.0520 -0.8269 -0.6562
C19 C -0.1793(2) -0.6692(2) -0.7687(2)
H13 H -0.2088 -0.6184 -0.7679
C20 C -0.0899(2) -0.8192(3) -0.7716(2)
H14 H -0.0590 -0.8689 -0.7721
C21 C 0.0880(4) -0.9143(4) -0.2753(3)
H15 H 0.0879 -0.9083 -0.2288
C22 C 0.1385(3) -0.9797(4) -0.2803(3)
H16 H 0.1728 -1.0163 -0.2374
C23 C 0.0867(3) -0.9339(3) -0.4125(3)
H17 H 0.0855 -0.9416 -0.4595
C24 C -0.1474(2) -0.8037(3) -0.9166(2)
H18 H -0.1796 -0.8592 -0.9340
H19 H -0.0939 -0.8159 -0.9083
H20 H -0.1735 -0.7564 -0.9556
C25 C 0.1370(3) -0.9896(3) -0.3491(4)
H21 H 0.1699 -1.0338 -0.3535
S2 S 0.63509(5) -0.30898(6) -0.37705(5)
O4 O 0.66604(14) -0.22876(18) -0.39697(13)
O5 O 0.67826(14) -0.39358(17) -0.36645(13)
O6 O 0.31583(17) -0.4609(2) -0.41539(16)
N5 N 0.53899(17) -0.32889(18) -0.43984(15)
N6 N 0.51001(18) -0.1887(2) -0.51140(16)
H22 H 0.5610 -0.1741 -0.4830
N7 N 0.4009(2) -0.1564(3) -0.4091(2)
N8 N 0.34920(17) -0.4509(2) -0.53279(16)
H23 H 0.3322 -0.4725 -0.5098
C26 C 0.37323(19) -0.3660(2) -0.50793(19)
C27 C 0.4584(2) -0.4263(2) -0.60788(19)
H24 H 0.4959 -0.4456 -0.5573
C28 C 0.6360(2) -0.2837(2) -0.29008(18)
C29 C 0.3653(2) -0.3278(3) -0.4473(2)
C30 C 0.40405(19) -0.3077(2) -0.55066(18)
H25 H 0.3678 -0.2539 -0.5719
C31 C 0.4031(2) -0.4384(3) -0.7462(2)
H26 H 0.4038 -0.4650 -0.7885
C32 C 0.4903(2) -0.2715(2) -0.49587(19)
C33 C 0.3854(2) -0.2331(3) -0.4267(2)
C34 C 0.6415(2) -0.2381(3) -0.1519(2)
C35 C 0.4038(2) -0.3562(2) -0.61952(19)
C36 C 0.4559(3) -0.1258(3) -0.5718(2)
C37 C 0.3479(2) -0.3288(3) -0.6956(2)
H27 H 0.3102 -0.2824 -0.7046
C38 C 0.4577(2) -0.4680(3) -0.6712(2)
H28 H 0.4940 -0.5158 -0.6630
C39 C 0.3485(2) -0.3708(3) -0.7584(2)
H29 H 0.3109 -0.3522 -0.8092
C40 C 0.5942(2) -0.2080(3) -0.2872(2)
H30 H 0.5638 -0.1720 -0.3317
C41 C 0.5969(2) -0.1852(3) -0.2187(2)
H31 H 0.5685 -0.1336 -0.2173
C42 C 0.3339(2) -0.3791(3) -0.4067(2)
H32 H 0.3266 -0.3469 -0.3703
C43 C 0.6835(2) -0.3135(3) -0.1553(2)
H33 H 0.7143 -0.3491 -0.1107
C44 C 0.4072(3) -0.0668(3) -0.5592(3)
H34 H 0.4102 -0.0665 -0.5110
C45 C 0.6809(2) -0.3377(2) -0.2240(2)
H35 H 0.7089 -0.3896 -0.2257
C46 C 0.3516(4) -0.0056(4) -0.6867(4)
H36 H 0.3160 0.0348 -0.7257
C47 C 0.3536(3) -0.0076(3) -0.6180(4)
H37 H 0.3192 0.0307 -0.6100
C48 C 0.4543(4) -0.1234(3) -0.6413(3)
H38 H 0.4882 -0.1620 -0.6496
C49 C 0.6434(3) -0.2112(3) -0.0775(2)
H39 H 0.6703 -0.2588 -0.0390
H40 H 0.5884 -0.2037 -0.0882
H41 H 0.6726 -0.1540 -0.0581
C50 C 0.4007(5) -0.0618(4) -0.7002(3)
H42 H 0.3989 -0.0595 -0.7478
O7 O 0.13804(18) -0.0627(2) -0.53038(17)
H43 H 0.1183 -0.0131 -0.5518
C51 C 0.2239(3) -0.0525(4) -0.4804(3)
H44 H 0.2482 -0.1121 -0.4609
H45 H 0.2348 -0.0130 -0.4373
H46 H 0.2468 -0.0256 -0.5091
loop_
_geom_bond_atom_site_label_1
_geom_bond_atom_site_label_2
_geom_bond_site_symmetry_1
_geom_bond_site_symmetry_2
S1 O1 1_555 1_555
O2 S1 1_555 1_555
O3 C16 1_555 1_555
N1 S1 1_555 1_555
N2 H1 1_555 1_555
N3 C3 1_555 1_555
N4 H2 1_555 1_555
C1 N2 1_555 1_555
C2 N1 1_555 1_555
C3 C5 1_555 1_555
C4 C7 1_555 1_555
C5 C9 1_555 1_555
C6 S1 1_555 1_555
C7 C2 1_555 1_555
H3 C7 1_555 1_555
C8 C10 1_555 1_555
C9 N4 1_555 1_555
C10 H4 1_555 1_555
C11 C4 1_555 1_555
H5 C11 1_555 1_555
C12 H6 1_555 1_555
C13 C1 1_555 1_555
H7 C13 1_555 1_555
C14 C12 1_555 1_555
H8 C14 1_555 1_555
C15 C11 1_555 1_555
H9 C15 1_555 1_555
C16 C5 1_555 1_555
H10 C16 1_555 1_555
C17 C4 1_555 1_555
H11 C17 1_555 1_555
C18 C6 1_555 1_555
H12 C18 1_555 1_555
C19 C6 1_555 1_555
H13 C19 1_555 1_555
C20 C8 1_555 1_555
H14 C20 1_555 1_555
C21 C13 1_555 1_555
H15 C21 1_555 1_555
C22 C21 1_555 1_555
H16 C22 1_555 1_555
C23 C1 1_555 1_555
H17 C23 1_555 1_555
C24 C8 1_555 1_555
H18 C24 1_555 1_555
H19 C24 1_555 1_555
H20 C24 1_555 1_555
C25 C22 1_555 1_555
H21 C25 1_555 1_555
S2 O4 1_555 1_555
O5 S2 1_555 1_555
O6 C42 1_555 1_555
N5 S2 1_555 1_555
N6 H22 1_555 1_555
N7 C33 1_555 1_555
N8 H23 1_555 1_555
C26 N8 1_555 1_555
C27 H24 1_555 1_555
C28 S2 1_555 1_555
C29 C26 1_555 1_555
C30 C26 1_555 1_555
H25 C30 1_555 1_555
C31 H26 1_555 1_555
C32 N5 1_555 1_555
C33 C29 1_555 1_555
C34 C41 1_555 1_555
C35 C27 1_555 1_555
C36 N6 1_555 1_555
C37 C35 1_555 1_555
H27 C37 1_555 1_555
C38 C27 1_555 1_555
H28 C38 1_555 1_555
C39 C31 1_555 1_555
H29 C39 1_555 1_555
C40 C28 1_555 1_555
H30 C40 1_555 1_555
C41 C40 1_555 1_555
H31 C41 1_555 1_555
C42 C29 1_555 1_555
H32 C42 1_555 1_555
C43 C34 1_555 1_555
H33 C43 1_555 1_555
C44 C36 1_555 1_555
H34 C44 1_555 1_555
C45 C28 1_555 1_555
H35 C45 1_555 1_555
C46 H36 1_555 1_555
C47 C44 1_555 1_555
H37 C47 1_555 1_555
C48 C36 1_555 1_555
H38 C48 1_555 1_555
C49 C34 1_555 1_555
H39 C49 1_555 1_555
H40 C49 1_555 1_555
H41 C49 1_555 1_555
C50 C46 1_555 1_555
H42 C50 1_555 1_555
O7 H43 1_555 1_555
C51 O7 1_555 1_555
H44 C51 1_555 1_555
H45 C51 1_555 1_555
H46 C51 1_555 1_555
N2 C2 1_555 1_555
C7 C9 1_555 1_555
C10 C19 1_555 1_555
C12 C15 1_555 1_555
C14 C17 1_555 1_555
C18 C20 1_555 1_555
C23 C25 1_555 1_555
N6 C32 1_555 1_555
C30 C32 1_555 1_555
C30 C35 1_555 1_555
C31 C38 1_555 1_555
C37 C39 1_555 1_555
C43 C45 1_555 1_555
C46 C47 1_555 1_555
C48 C50 1_555 1_555

#END
