
#######################################################################
#
#                 Cambridge Crystallographic Data Centre
#                                CCDC 
#
#######################################################################
#
# If this CIF has been generated from an entry in the Cambridge 
# Structural Database, then it will include bibliographic, chemical, 
# crystal, experimental, refinement or atomic coordinate data resulting 
# from the CCDC's data processing and validation procedures.
#
#######################################################################

data_CIYQOR
_chemical_formula_moiety         'C51 H48 N6 O12'
_chemical_name_systematic        
43,44,45,46,47,48-hexamethoxy-13,27,41-trimethyl-2,10,16,24,30,38-hexa-azaheptacyclo[37.3.1.1^4,8^.1^11,15^.1^18,22^.1^25,29^.1^32,36^]octatetraconta-1(43),4(48),5,7,11(47),12,14,18(46),19,21,25(45),26,28,32(44),33,35,39,41-octadecaene-3,9,17,23,31,37-hexone
_symmetry_cell_setting           triclinic
_symmetry_space_group_name_H-M   'P -1'
_symmetry_Int_Tables_number      2
_space_group_name_Hall           '-P 1'
loop_
_symmetry_equiv_pos_site_id
_symmetry_equiv_pos_as_xyz
1 x,y,z
2 -x,-y,-z
_cell_length_a                   8.299(5)
_cell_length_b                   17.925(10)
_cell_length_c                   18.125(10)
_cell_angle_alpha                60.759(10)
_cell_angle_beta                 85.196(12)
_cell_angle_gamma                87.987(11)
_cell_volume                     2344.37
_exptl_crystal_colour            colorless
_exptl_crystal_description       prismatic
_chemical_melting_point          300deg.C(dec.)
_cell_formula_units_Z            2
_exptl_crystal_recrystallization_method 'chloroform/ethyl acetate'
loop_
_atom_site_label
_atom_site_type_symbol
_atom_site_fract_x
_atom_site_fract_y
_atom_site_fract_z
O1 O 0.7103(6) 1.2129(3) -0.1107(3)
O2 O 0.7057(5) 1.1107(2) 0.1517(2)
O3 O 0.6668(8) 1.2779(3) 0.2443(3)
O4 O 0.7618(5) 0.9739(3) 0.3934(3)
O5 O 0.7239(7) 0.9041(3) 0.6909(3)
O6 O 0.7339(5) 0.7412(2) 0.5876(2)
O7 O 0.8276(8) 0.4817(3) 0.7561(3)
O8 O 0.7740(5) 0.6320(2) 0.4527(2)
O9 O 0.7703(9) 0.4100(3) 0.3764(3)
O10 O 0.7761(5) 0.6736(2) 0.2205(2)
O11 O 0.7513(11) 0.7557(3) -0.0389(3)
O12 O 0.7267(5) 0.9204(2) 0.1109(2)
N1 N 0.7769(6) 1.0934(3) 0.0067(3)
H1 H 0.7875 1.0714 0.0602
N2 N 0.7752(6) 1.1483(3) 0.2806(3)
H2 H 0.8011 1.1130 0.2623
N3 N 0.7900(6) 0.9082(3) 0.5651(3)
H3 H 0.8042 0.8771 0.5410
N4 N 0.7639(6) 0.5737(3) 0.6230(3)
H4 H 0.7561 0.6270 0.5865
N5 N 0.7135(7) 0.5287(3) 0.3857(3)
H5 H 0.6997 0.5830 0.3567
N6 N 0.7595(7) 0.8053(3) 0.0521(3)
H6 H 0.7494 0.7908 0.1050
C1 C 0.7388(8) 1.1784(4) -0.0352(4)
C2 C 0.7407(8) 1.2287(4) 0.0086(4)
C3 C 0.7553(10) 1.3165(4) -0.0445(4)
H7 H 0.7602 1.3383 -0.1029
C4 C 0.7626(11) 1.3722(4) -0.0126(5)
H8 H 0.7739 1.4307 -0.0492
C5 C 0.7529(11) 1.3403(4) 0.0745(4)
H9 H 0.7586 1.3777 0.0960
C6 C 0.7346(9) 1.2519(4) 0.1309(4)
C7 C 0.7294(8) 1.1980(4) 0.0965(4)
C8 C 0.7224(10) 1.2273(4) 0.2225(4)
C9 C 0.7913(7) 1.1187(4) 0.3687(4)
C10 C 0.8186(7) 1.1748(4) 0.3982(4)
H10 H 0.8270 1.2333 0.3609
C11 C 0.8333(7) 1.1430(4) 0.4838(4)
C12 C 0.8240(7) 1.0554(4) 0.5400(4)
H11 H 0.8359 1.0350 0.5973
C13 C 0.7973(7) 0.9989(3) 0.5113(4)
C14 C 0.7800(7) 1.0307(4) 0.4246(4)
C15 C 0.7625(8) 0.8669(4) 0.6509(4)
C16 C 0.7935(8) 0.7718(4) 0.6985(4)
C17 C 0.8390(10) 0.7420(4) 0.7808(4)
H12 H 0.8386 0.7793 0.8028
C18 C 0.8846(11) 0.6580(5) 0.8299(4)
H13 H 0.9217 0.6401 0.8830
C19 C 0.8754(10) 0.6017(4) 0.8008(4)
H14 H 0.9062 0.5453 0.8344
C20 C 0.8198(8) 0.6270(4) 0.7202(4)
C21 C 0.7824(7) 0.7144(4) 0.6696(3)
C22 C 0.8060(9) 0.5552(4) 0.7010(4)
C23 C 0.7314(7) 0.5144(4) 0.5955(4)
C24 C 0.6924(7) 0.4288(4) 0.6509(4)
H15 H 0.6915 0.4072 0.7092
C25 C 0.6554(8) 0.3768(4) 0.6193(4)
C26 C 0.6619(8) 0.4074(4) 0.5311(4)
H16 H 0.6351 0.3717 0.5101
C27 C 0.7096(7) 0.4932(3) 0.4749(4)
C28 C 0.7422(7) 0.5461(3) 0.5067(4)
C29 C 0.7368(10) 0.4854(4) 0.3413(4)
C30 C 0.7061(9) 0.5326(4) 0.2468(4)
C31 C 0.6479(10) 0.4817(4) 0.2179(5)
H17 H 0.6267 0.4243 0.2561
C32 C 0.6197(11) 0.5127(5) 0.1340(5)
H18 H 0.5817 0.4772 0.1151
C33 C 0.6500(10) 0.5987(4) 0.0787(5)
H19 H 0.6337 0.6205 0.0217
C34 C 0.7031(9) 0.6531(4) 0.1048(4)
C35 C 0.7278(8) 0.6188(4) 0.1907(4)
C36 C 0.7408(11) 0.7420(4) 0.0333(5)
C37 C 0.7940(8) 0.8935(4) -0.0060(4)
C38 C 0.8515(8) 0.9234(4) -0.0905(4)
H20 H 0.8674 0.8851 -0.1112
C39 C 0.8852(9) 1.0103(4) -0.1441(4)
C40 C 0.8588(8) 1.0670(4) -0.1117(4)
H21 H 0.8804 1.1249 -0.1470
C41 C 0.8006(7) 1.0380(4) -0.0274(3)
C42 C 0.7715(8) 0.9506(4) 0.0256(3)
C43 C 0.5404(9) 1.0891(5) 0.1699(5)
H22 H 0.4910 1.1139 0.2026
H23 H 0.5285 1.0280 0.2017
H24 H 0.4889 1.1105 0.1179
C44 C 0.5916(9) 0.9550(4) 0.3949(5)
H25 H 0.5406 0.9363 0.4507
H26 H 0.5833 0.9106 0.3802
H27 H 0.5391 1.0055 0.3547
C45 C 0.5560(9) 0.7459(5) 0.5858(5)
H28 H 0.5089 0.6925 0.6285
H29 H 0.5271 0.7574 0.5310
H30 H 0.5166 0.7909 0.5966
C46 C 0.9386(9) 0.6499(4) 0.4341(4)
H31 H 0.9867 0.6406 0.4843
H32 H 0.9546 0.7084 0.3909
H33 H 0.9882 0.6130 0.4144
C47 C 0.9441(8) 0.6826(5) 0.2198(5)
H34 H 0.9900 0.6277 0.2552
H35 H 0.9649 0.7209 0.2408
H36 H 0.9921 0.7052 0.1629
C48 C 0.5616(8) 0.9123(4) 0.1304(4)
H37 H 0.5122 0.9674 0.1013
H38 H 0.5392 0.8890 0.1905
H39 H 0.5187 0.8747 0.1131
C49 C 0.9488(11) 1.0422(5) -0.2359(4)
H40 H 1.0193 1.0001 -0.2392
H41 H 1.0075 1.0947 -0.2564
H42 H 0.8597 1.0518 -0.2699
C50 C 0.8638(9) 1.2032(4) 0.5173(4)
H43 H 0.9729 1.1967 0.5333
H44 H 0.7901 1.1901 0.5659
H45 H 0.8477 1.2611 0.4740
C51 C 0.6045(10) 0.2835(4) 0.6791(4)
H46 H 0.6669 0.2469 0.6630
H47 H 0.4917 0.2767 0.6754
H48 H 0.6230 0.2686 0.7362
loop_
_geom_bond_atom_site_label_1
_geom_bond_atom_site_label_2
_geom_bond_site_symmetry_1
_geom_bond_site_symmetry_2
O1 C1 1_555 1_555
O2 C7 1_555 1_555
O3 C8 1_555 1_555
O4 C14 1_555 1_555
O5 C15 1_555 1_555
O6 C21 1_555 1_555
O7 C22 1_555 1_555
O8 C28 1_555 1_555
O9 C29 1_555 1_555
O10 C35 1_555 1_555
O11 C36 1_555 1_555
O12 C42 1_555 1_555
N1 H1 1_555 1_555
N2 H2 1_555 1_555
N3 H3 1_555 1_555
N4 H4 1_555 1_555
N5 H5 1_555 1_555
N6 H6 1_555 1_555
C1 N1 1_555 1_555
C2 C1 1_555 1_555
C3 C2 1_555 1_555
H7 C3 1_555 1_555
C4 C3 1_555 1_555
H8 C4 1_555 1_555
C5 C4 1_555 1_555
H9 C5 1_555 1_555
C6 C5 1_555 1_555
C7 C2 1_555 1_555
C8 N2 1_555 1_555
C9 N2 1_555 1_555
C10 C9 1_555 1_555
H10 C10 1_555 1_555
C11 C10 1_555 1_555
C12 C11 1_555 1_555
H11 C12 1_555 1_555
C13 N3 1_555 1_555
C14 C9 1_555 1_555
C15 N3 1_555 1_555
C16 C15 1_555 1_555
C17 C16 1_555 1_555
H12 C17 1_555 1_555
C18 C17 1_555 1_555
H13 C18 1_555 1_555
C19 C18 1_555 1_555
H14 C19 1_555 1_555
C20 C19 1_555 1_555
C21 C16 1_555 1_555
C22 N4 1_555 1_555
C23 N4 1_555 1_555
C24 C23 1_555 1_555
H15 C24 1_555 1_555
C25 C24 1_555 1_555
C26 C25 1_555 1_555
H16 C26 1_555 1_555
C27 N5 1_555 1_555
C28 C23 1_555 1_555
C29 N5 1_555 1_555
C30 C29 1_555 1_555
C31 C30 1_555 1_555
H17 C31 1_555 1_555
C32 C31 1_555 1_555
H18 C32 1_555 1_555
C33 C32 1_555 1_555
H19 C33 1_555 1_555
C34 C33 1_555 1_555
C35 C30 1_555 1_555
C36 N6 1_555 1_555
C37 N6 1_555 1_555
C38 C37 1_555 1_555
H20 C38 1_555 1_555
C39 C38 1_555 1_555
C40 C39 1_555 1_555
H21 C40 1_555 1_555
C41 N1 1_555 1_555
C42 C37 1_555 1_555
C43 O2 1_555 1_555
H22 C43 1_555 1_555
H23 C43 1_555 1_555
H24 C43 1_555 1_555
C44 O4 1_555 1_555
H25 C44 1_555 1_555
H26 C44 1_555 1_555
H27 C44 1_555 1_555
C45 O6 1_555 1_555
H28 C45 1_555 1_555
H29 C45 1_555 1_555
H30 C45 1_555 1_555
C46 O8 1_555 1_555
H31 C46 1_555 1_555
H32 C46 1_555 1_555
H33 C46 1_555 1_555
C47 O10 1_555 1_555
H34 C47 1_555 1_555
H35 C47 1_555 1_555
H36 C47 1_555 1_555
C48 O12 1_555 1_555
H37 C48 1_555 1_555
H38 C48 1_555 1_555
H39 C48 1_555 1_555
C49 C39 1_555 1_555
H40 C49 1_555 1_555
H41 C49 1_555 1_555
H42 C49 1_555 1_555
C50 C11 1_555 1_555
H43 C50 1_555 1_555
H44 C50 1_555 1_555
H45 C50 1_555 1_555
C51 C25 1_555 1_555
H46 C51 1_555 1_555
H47 C51 1_555 1_555
H48 C51 1_555 1_555
C6 C7 1_555 1_555
C6 C8 1_555 1_555
C12 C13 1_555 1_555
C13 C14 1_555 1_555
C20 C21 1_555 1_555
C20 C22 1_555 1_555
C26 C27 1_555 1_555
C27 C28 1_555 1_555
C34 C35 1_555 1_555
C34 C36 1_555 1_555
C40 C41 1_555 1_555
C41 C42 1_555 1_555

#END
