
#######################################################################
#
#                 Cambridge Crystallographic Data Centre
#                                CCDC 
#
#######################################################################
#
# If this CIF has been generated from an entry in the Cambridge 
# Structural Database, then it will include bibliographic, chemical, 
# crystal, experimental, refinement or atomic coordinate data resulting 
# from the CCDC's data processing and validation procedures.
#
#######################################################################

data_CIYQUX
_chemical_formula_moiety         'C39 H50 F1 N5 O7'
_chemical_name_systematic        
"Dimethyl 6,6'-([5-(dioctylcarbamoyl)-2-fluorobenzene-1,3-diyl]dicarbamoyl)dipyridine-2-carboxylate"
_symmetry_cell_setting           monoclinic
_symmetry_space_group_name_H-M   'P 21/n'
_symmetry_Int_Tables_number      14
_space_group_name_Hall           '-P 2yn'
loop_
_symmetry_equiv_pos_site_id
_symmetry_equiv_pos_as_xyz
1 x,y,z
2 1/2-x,1/2+y,1/2-z
3 -x,-y,-z
4 1/2+x,1/2-y,1/2+z
_cell_length_a                   8.9325(7)
_cell_length_b                   41.932(3)
_cell_length_c                   11.1582(8)
_cell_angle_alpha                90
_cell_angle_beta                 109.7190(10)
_cell_angle_gamma                90
_cell_volume                     3934.3
_exptl_crystal_colour            colorless
_cell_formula_units_Z            4
loop_
_atom_site_label
_atom_site_type_symbol
_atom_site_fract_x
_atom_site_fract_y
_atom_site_fract_z
F1 F 0.1752(2) 0.00049(4) 0.95464(19)
O1 O -0.3361(3) 0.00736(6) 0.6127(3)
O2 O 0.4407(3) 0.10399(6) 1.0560(3)
O3 O -0.0435(5) -0.14548(9) 0.7780(4)
O4 O 0.0438(3) -0.10467(6) 0.9037(3)
O5 O 0.7887(3) -0.03330(6) 1.3953(3)
O6 O 0.5611(3) -0.02971(6) 1.2308(3)
O7 O -0.2407(3) 0.11470(6) 0.6878(3)
N1 N -0.1008(3) -0.00415(6) 0.7640(3)
N2 N 0.3388(3) 0.05359(7) 1.0326(3)
N3 N -0.1607(3) -0.06575(7) 0.7393(3)
N4 N 0.5829(3) 0.03113(7) 1.2072(3)
N5 N -0.0211(3) 0.13383(6) 0.6566(3)
C1 C -0.0310(3) 0.02597(8) 0.7948(3)
C2 C -0.0944(4) 0.05386(7) 0.7331(3)
H1 H -0.1919 0.0534 0.6675
C3 C -0.0142(3) 0.08248(7) 0.7679(3)
C4 C 0.1305(3) 0.08378(8) 0.8690(3)
H2 H 0.1828 0.1031 0.8939
C5 C 0.1942(3) 0.05588(8) 0.9308(3)
C6 C 0.1119(3) 0.02807(7) 0.8934(3)
C7 C -0.0997(4) 0.11179(8) 0.7008(3)
C8 C -0.2423(4) -0.01190(8) 0.6777(3)
C9 C -0.2742(4) -0.04687(8) 0.6655(3)
C10 C -0.4134(4) -0.05826(8) 0.5770(3)
H3 H -0.4903 -0.0443 0.5271
C11 C -0.4345(4) -0.09058(9) 0.5653(4)
H4 H -0.5271 -0.0990 0.5074
C12 C -0.3186(4) -0.11039(9) 0.6394(4)
H5 H -0.3305 -0.1324 0.6313
C13 C -0.1831(4) -0.09726(9) 0.7266(4)
C14 C -0.0558(5) -0.11839(10) 0.8049(5)
C15 C 0.1733(5) -0.12410(12) 0.9879(5)
H6 H 0.1302 -0.1432 1.0110
H7 H 0.2287 -0.1122 1.0633
H8 H 0.2459 -0.1297 0.9444
C16 C 0.4495(4) 0.07587(8) 1.0860(3)
C17 C 0.5898(3) 0.06210(8) 1.1906(3)
C18 C 0.7123(4) 0.08104(9) 1.2635(3)
H9 H 0.7131 0.1028 1.2485
C19 C 0.8341(4) 0.06674(10) 1.3595(4)
H10 H 0.9189 0.0788 1.4105
C20 C 0.8291(4) 0.03495(10) 1.3788(4)
H11 H 0.9093 0.0251 1.4442
C21 C 0.7022(3) 0.01718(9) 1.2993(3)
C22 C 0.6911(4) -0.01791(9) 1.3158(3)
C23 C 0.5269(5) -0.06312(9) 1.2366(4)
H12 H 0.5784 -0.0708 1.3216
H13 H 0.5655 -0.0747 1.1788
H14 H 0.4141 -0.0661 1.2132
C24 C -0.1133(4) 0.16224(8) 0.5968(4)
H15 H -0.0409 0.1800 0.6039
H16 H -0.1846 0.1679 0.6424
C25 C -0.2107(4) 0.15689(9) 0.4559(4)
H17 H -0.1384 0.1547 0.4082
H18 H -0.2691 0.1370 0.4476
C26 C -0.3250(5) 0.18315(11) 0.3993(5)
H19 H -0.2659 0.2028 0.4058
H20 H -0.3947 0.1857 0.4490
C27 C -0.4261(6) 0.17807(12) 0.2616(5)
H21 H -0.3570 0.1781 0.2106
H22 H -0.4749 0.1572 0.2536
C28 C -0.5532(9) 0.20208(18) 0.2082(7)
H23 H -0.5038 0.2223 0.2015
H24 H -0.6102 0.2050 0.2675
C29 C -0.6701(8) 0.19401(18) 0.0811(7)
H25 H -0.7228 0.1741 0.0867
H26 H -0.6149 0.1911 0.0205
C30 C -0.7967(11) 0.2210(2) 0.0336(10)
H27 H -0.8453 0.2257 0.0974
H28 H -0.7476 0.2403 0.0166
C31 C -0.9161(11) 0.2093(3) -0.0831(11)
H29 H -0.8728 0.2095 -0.1510
H30 H -1.0082 0.2228 -0.1049
H31 H -0.9456 0.1879 -0.0700
C32 C 0.1339(4) 0.12998(8) 0.6431(4)
H32 H 0.1243 0.1343 0.5554
H33 H 0.1673 0.1080 0.6613
C33 C 0.2620(4) 0.15161(9) 0.7298(4)
H34 H 0.2199 0.1731 0.7236
H35 H 0.2854 0.1446 0.8170
C34 C 0.4120(5) 0.15255(9) 0.7016(5)
H36 H 0.3889 0.1598 0.6147
H37 H 0.4538 0.1310 0.7072
C35 C 0.5382(5) 0.17368(10) 0.7881(6)
H38 H 0.5544 0.1677 0.8755
H39 H 0.6371 0.1698 0.7725
C36 C 0.5022(6) 0.20844(12) 0.7732(7)
H40 H 0.4006 0.2122 0.7844
H41 H 0.4920 0.2148 0.6872
C37 C 0.6270(8) 0.22922(16) 0.8662(9)
H42 H 0.7263 0.2282 0.8490
H43 H 0.6460 0.2222 0.9529
C38 C 0.5579(11) 0.2653(2) 0.8467(11)
H44 H 0.5552 0.2739 0.7652
H45 H 0.4515 0.2661 0.8514
C39 C 0.6699(13) 0.2831(3) 0.9518(12)
H46 H 0.7767 0.2774 0.9590
H47 H 0.6520 0.2779 1.0297
H48 H 0.6545 0.3055 0.9358
H49 H -0.039(3) -0.0184(6) 0.799(3)
H50 H 0.371(3) 0.0348(5) 1.063(3)
loop_
_geom_bond_atom_site_label_1
_geom_bond_atom_site_label_2
_geom_bond_site_symmetry_1
_geom_bond_site_symmetry_2
F1 C6 1_555 1_555
O1 C8 1_555 1_555
O2 C16 1_555 1_555
O3 C14 1_555 1_555
O4 C14 1_555 1_555
O5 C22 1_555 1_555
O6 C22 1_555 1_555
O7 C7 1_555 1_555
N1 C1 1_555 1_555
N2 C5 1_555 1_555
N3 C9 1_555 1_555
N4 C17 1_555 1_555
N5 C7 1_555 1_555
C1 C2 1_555 1_555
C2 H1 1_555 1_555
C3 C2 1_555 1_555
C4 C3 1_555 1_555
H2 C4 1_555 1_555
C5 C4 1_555 1_555
C6 C1 1_555 1_555
C7 C3 1_555 1_555
C8 N1 1_555 1_555
C9 C8 1_555 1_555
C10 C9 1_555 1_555
H3 C10 1_555 1_555
C11 C10 1_555 1_555
H4 C11 1_555 1_555
C12 C11 1_555 1_555
H5 C12 1_555 1_555
C13 N3 1_555 1_555
C14 C13 1_555 1_555
C15 O4 1_555 1_555
H6 C15 1_555 1_555
H7 C15 1_555 1_555
H8 C15 1_555 1_555
C16 N2 1_555 1_555
C17 C16 1_555 1_555
C18 C17 1_555 1_555
H9 C18 1_555 1_555
C19 C18 1_555 1_555
H10 C19 1_555 1_555
C20 C19 1_555 1_555
H11 C20 1_555 1_555
C21 N4 1_555 1_555
C22 C21 1_555 1_555
C23 O6 1_555 1_555
H12 C23 1_555 1_555
H13 C23 1_555 1_555
H14 C23 1_555 1_555
C24 N5 1_555 1_555
H15 C24 1_555 1_555
H16 C24 1_555 1_555
C25 C24 1_555 1_555
H17 C25 1_555 1_555
H18 C25 1_555 1_555
C26 C25 1_555 1_555
H19 C26 1_555 1_555
H20 C26 1_555 1_555
C27 C26 1_555 1_555
H21 C27 1_555 1_555
H22 C27 1_555 1_555
C28 C27 1_555 1_555
H23 C28 1_555 1_555
H24 C28 1_555 1_555
C29 C28 1_555 1_555
H25 C29 1_555 1_555
H26 C29 1_555 1_555
C30 C29 1_555 1_555
H27 C30 1_555 1_555
H28 C30 1_555 1_555
C31 C30 1_555 1_555
H29 C31 1_555 1_555
H30 C31 1_555 1_555
H31 C31 1_555 1_555
C32 N5 1_555 1_555
H32 C32 1_555 1_555
H33 C32 1_555 1_555
C33 C32 1_555 1_555
H34 C33 1_555 1_555
H35 C33 1_555 1_555
C34 C33 1_555 1_555
H36 C34 1_555 1_555
H37 C34 1_555 1_555
C35 C34 1_555 1_555
H38 C35 1_555 1_555
H39 C35 1_555 1_555
C36 C35 1_555 1_555
H40 C36 1_555 1_555
H41 C36 1_555 1_555
C37 C36 1_555 1_555
H42 C37 1_555 1_555
H43 C37 1_555 1_555
C38 C37 1_555 1_555
H44 C38 1_555 1_555
H45 C38 1_555 1_555
C39 C38 1_555 1_555
H46 C39 1_555 1_555
H47 C39 1_555 1_555
H48 C39 1_555 1_555
H49 N1 1_555 1_555
H50 N2 1_555 1_555
C5 C6 1_555 1_555
C12 C13 1_555 1_555
C20 C21 1_555 1_555

#END
