
#######################################################################
#
#                 Cambridge Crystallographic Data Centre
#                                CCDC 
#
#######################################################################
#
# If this CIF has been generated from an entry in the Cambridge 
# Structural Database, then it will include bibliographic, chemical, 
# crystal, experimental, refinement or atomic coordinate data resulting 
# from the CCDC's data processing and validation procedures.
#
#######################################################################

data_CIYTIO
_chemical_formula_moiety         'C27 H20 Cl1 N3 O5 S1'
_chemical_name_systematic        
'Ethyl 2-amino-8-chloro-4-(3-nitrophenyl)-5-oxo-1-phenyl-4,5-dihydro-1H-thiochromeno[2,3-b]pyridine-3-carboxylate'
_symmetry_cell_setting           triclinic
_symmetry_space_group_name_H-M   'P -1'
_symmetry_Int_Tables_number      2
_space_group_name_Hall           '-P 1'
loop_
_symmetry_equiv_pos_site_id
_symmetry_equiv_pos_as_xyz
1 x,y,z
2 -x,-y,-z
_cell_length_a                   11.1920(9)
_cell_length_b                   11.2077(10)
_cell_length_c                   11.2808(11)
_cell_angle_alpha                61.820(8)
_cell_angle_beta                 77.894(9)
_cell_angle_gamma                70.454(9)
_cell_volume                     1173.14
_exptl_crystal_colour            yellow
_exptl_crystal_description       prism
_chemical_melting_point          263-265deg.C
_cell_formula_units_Z            2
loop_
_atom_site_label
_atom_site_type_symbol
_atom_site_fract_x
_atom_site_fract_y
_atom_site_fract_z
Cl1 Cl 0.13088(5) 0.43012(5) 1.62285(5)
S1 S 0.26236(5) 0.39652(5) 1.15742(5)
O1 O 0.37686(13) 0.78861(14) 1.01203(14)
O2 O 0.50497(12) 0.63210(14) 0.52158(13)
O3 O 0.49645(12) 0.81040(13) 0.56708(13)
O4 O -0.03425(14) 0.74253(17) 0.63348(17)
O5 O -0.17423(14) 0.93824(18) 0.61209(17)
N1 N 0.31010(14) 0.45681(16) 0.90214(15)
N2 N 0.40476(16) 0.43038(18) 0.70901(17)
H1 H 0.383(2) 0.356(2) 0.740(2)
H2 H 0.4461(18) 0.466(2) 0.625(2)
N3 N -0.06852(16) 0.8561(2) 0.63954(17)
C1 C 0.30545(17) 0.50794(19) 0.99504(18)
C2 C 0.33500(17) 0.62973(19) 0.95733(18)
C3 C 0.33911(17) 0.68308(19) 1.05096(19)
C4 C 0.28997(17) 0.61578(19) 1.19247(18)
C5 C 0.25104(17) 0.4932(2) 1.24556(18)
C6 C 0.20152(16) 0.4358(2) 1.37872(18)
H3 H 0.1752 0.3524 1.4142
C7 C 0.19174(17) 0.5026(2) 1.45732(19)
C8 C 0.23051(18) 0.6240(2) 1.40866(19)
H4 H 0.2238 0.6679 1.4651
C9 C 0.27865(17) 0.6795(2) 1.27768(19)
H5 H 0.3049 0.7627 1.2436
C10 C 0.35541(17) 0.72187(19) 0.80784(18)
H6 H 0.4190 0.7721 0.7963
C11 C 0.40671(17) 0.63321(19) 0.73060(18)
C12 C 0.37687(16) 0.50914(19) 0.77603(18)
C13 C 0.25376(18) 0.3441(2) 0.93925(18)
C14 C 0.3291(2) 0.2062(2) 0.9820(2)
H7 H 0.4174 0.1841 0.9911
C15 C 0.2729(2) 0.1009(2) 1.0112(2)
H8 H 0.3235 0.0063 1.0383
C16 C 0.1445(2) 0.1332(3) 1.0011(2)
H9 H 0.1071 0.0606 1.0209
C17 C 0.0691(2) 0.2700(3) 0.9624(2)
H10 H -0.0199 0.2910 0.9579
C18 C 0.12404(19) 0.3770(2) 0.93011(19)
H11 H 0.0732 0.4715 0.9021
C19 C 0.22872(17) 0.83154(19) 0.75883(18)
C20 C 0.14039(17) 0.7998(2) 0.71615(18)
H12 H 0.1607 0.7127 0.7115
C21 C 0.02343(18) 0.8951(2) 0.68064(18)
C22 C -0.0102(2) 1.0242(2) 0.6836(2)
H13 H -0.0913 1.0885 0.6583
C23 C 0.0774(2) 1.0567(2) 0.7242(2)
H14 H 0.0573 1.1455 0.7255
C24 C 0.19523(18) 0.9612(2) 0.76335(19)
H15 H 0.2537 0.9843 0.7936
C25 C 0.47242(17) 0.68761(19) 0.59951(18)
C26 C 0.56449(18) 0.8700(2) 0.43727(18)
H16 H 0.6306 0.7932 0.4218
H17 H 0.6075 0.9334 0.4387
C27 C 0.4770(2) 0.9511(2) 0.3231(2)
H18 H 0.4372 0.8877 0.3187
H19 H 0.5259 0.9916 0.2380
H20 H 0.4111 1.0269 0.3383
loop_
_geom_bond_atom_site_label_1
_geom_bond_atom_site_label_2
_geom_bond_site_symmetry_1
_geom_bond_site_symmetry_2
Cl1 C7 1_555 1_555
S1 C1 1_555 1_555
O1 C3 1_555 1_555
O2 C25 1_555 1_555
O3 C25 1_555 1_555
O4 N3 1_555 1_555
O5 N3 1_555 1_555
N1 C1 1_555 1_555
N2 H1 1_555 1_555
H2 N2 1_555 1_555
N3 C21 1_555 1_555
C1 C2 1_555 1_555
C2 C3 1_555 1_555
C3 C4 1_555 1_555
C4 C5 1_555 1_555
C5 S1 1_555 1_555
C6 C5 1_555 1_555
H3 C6 1_555 1_555
C7 C6 1_555 1_555
C8 C7 1_555 1_555
H4 C8 1_555 1_555
C9 C4 1_555 1_555
H5 C9 1_555 1_555
C10 C2 1_555 1_555
H6 C10 1_555 1_555
C11 C10 1_555 1_555
C12 N1 1_555 1_555
C13 N1 1_555 1_555
C14 C13 1_555 1_555
H7 C14 1_555 1_555
C15 C14 1_555 1_555
H8 C15 1_555 1_555
C16 C15 1_555 1_555
H9 C16 1_555 1_555
C17 C16 1_555 1_555
H10 C17 1_555 1_555
C18 C13 1_555 1_555
H11 C18 1_555 1_555
C19 C10 1_555 1_555
C20 C19 1_555 1_555
H12 C20 1_555 1_555
C21 C20 1_555 1_555
C22 C21 1_555 1_555
H13 C22 1_555 1_555
C23 C22 1_555 1_555
H14 C23 1_555 1_555
C24 C19 1_555 1_555
H15 C24 1_555 1_555
C25 C11 1_555 1_555
C26 O3 1_555 1_555
H16 C26 1_555 1_555
H17 C26 1_555 1_555
C27 C26 1_555 1_555
H18 C27 1_555 1_555
H19 C27 1_555 1_555
H20 C27 1_555 1_555
N2 C12 1_555 1_555
C8 C9 1_555 1_555
C11 C12 1_555 1_555
C17 C18 1_555 1_555
C23 C24 1_555 1_555

#END
