
#######################################################################
#
#                 Cambridge Crystallographic Data Centre
#                                CCDC 
#
#######################################################################
#
# If this CIF has been generated from an entry in the Cambridge 
# Structural Database, then it will include bibliographic, chemical, 
# crystal, experimental, refinement or atomic coordinate data resulting 
# from the CCDC's data processing and validation procedures.
#
#######################################################################

data_CIYTOU
_chemical_formula_moiety         'C22 H23 N3 O5 S1'
_chemical_name_systematic        
'(5R)-Allyl 5-(p-tolylsulfinylamino)-2-diazo-5-(4-methoxyphenyl)-3-oxopentanoate'
_symmetry_cell_setting           monoclinic
_symmetry_space_group_name_H-M   'P 21'
_symmetry_Int_Tables_number      4
_space_group_name_Hall           'P 2yb'
loop_
_symmetry_equiv_pos_site_id
_symmetry_equiv_pos_as_xyz
1 x,y,z
2 -x,1/2+y,-z
_cell_length_a                   11.542(2)
_cell_length_b                   7.5962(15)
_cell_length_c                   13.125(3)
_cell_angle_alpha                90
_cell_angle_beta                 102.91(3)
_cell_angle_gamma                90
_cell_volume                     1121.65
_exptl_crystal_colour            colorless
_exptl_crystal_description       block
_cell_formula_units_Z            2
loop_
_atom_site_label
_atom_site_type_symbol
_atom_site_fract_x
_atom_site_fract_y
_atom_site_fract_z
S1 S 0.50311(15) 0.3631 0.13352(13)
O1 O 0.6277(3) -0.2248(7) 0.1174(3)
O2 O 0.5080(4) -0.1213(8) 0.3944(3)
O3 O 0.7044(3) -0.1360(8) 0.4673(3)
O4 O 0.4127(4) 0.4495(7) 0.1739(5)
O5 O -0.0897(3) 0.0407(6) 0.0958(3)
N1 N 0.4728(4) 0.1489(7) 0.1020(3)
H1 H 0.4252 0.1203 0.0388
N2 N 0.7586(4) -0.1983(7) 0.2971(3)
N3 N 0.8505(6) -0.2354(14) 0.2995(4)
C1 C 0.6110(6) -0.1344(10) 0.3894(4)
C2 C 0.6497(5) -0.1588(10) 0.2882(4)
C3 C 0.5779(5) -0.1696(10) 0.1866(4)
C4 C 0.4445(4) -0.1500(8) 0.1616(4)
H2 H 0.4112 -0.1972 0.0926
H3 H 0.4116 -0.2154 0.2120
C5 C 0.4126(4) 0.0425(7) 0.1653(4)
H4 H 0.4442 0.0800 0.2376
C6 C 0.2740(5) 0.0607(7) 0.1466(4)
C7 C 0.2190(5) -0.0112(9) 0.2152(5)
H5 H 0.2644 -0.0571 0.2770
C8 C 0.0955(5) -0.0200(10) 0.1974(4)
H6 H 0.0594 -0.0748 0.2456
C9 C 0.0246(5) 0.0557(9) 0.1043(4)
C10 C 0.0862(5) 0.1251(8) 0.0355(5)
H7 H 0.0436 0.1739 -0.0266
C11 C 0.2069(4) 0.1255(9) 0.0543(4)
H8 H 0.2445 0.1701 0.0041
C12 C -0.1625(5) 0.0941(14) -0.0030(4)
H9 H -0.1504 0.2171 -0.0138
H10 H -0.2446 0.0736 -0.0031
H11 H -0.1411 0.0272 -0.0581
C13 C 0.6215(3) 0.3260(5) 0.2447(2)
C14 C 0.7281(3) 0.2658(5) 0.23818(19)
H12 H 0.7367 0.2207 0.1744
C15 C 0.8306(3) 0.2665(6) 0.3235(2)
H13 H 0.9032 0.2187 0.3182
C16 C 0.8130(3) 0.3431(6) 0.4137(2)
C17 C 0.7039(4) 0.4015(5) 0.4255(2)
H14 H 0.6930 0.4389 0.4902
C18 C 0.6096(3) 0.4031(5) 0.3370(2)
H15 H 0.5382 0.4567 0.3407
C19 C 0.9197(3) 0.2986(8) 0.5025(3)
H16 H 0.9561 0.1918 0.4861
H17 H 0.8933 0.2834 0.5663
H18 H 0.9764 0.3929 0.5107
C20 C 0.6817(4) -0.1098(7) 0.5690(3)
H19 H 0.6273 -0.1981 0.5843
H20 H 0.6485 0.0061 0.5749
C21 C 0.8003(5) -0.1275(8) 0.6396(3)
H21 H 0.8343 -0.2391 0.6471
C22 C 0.8638(4) 0.0063(9) 0.6946(2)
H22 H 0.8329 0.1198 0.6892
H23 H 0.9381 -0.0159 0.7375
loop_
_geom_bond_atom_site_label_1
_geom_bond_atom_site_label_2
_geom_bond_site_symmetry_1
_geom_bond_site_symmetry_2
S1 O4 1_555 1_555
O1 C3 1_555 1_555
O2 C1 1_555 1_555
O3 C1 1_555 1_555
O5 C9 1_555 1_555
N1 S1 1_555 1_555
H1 N1 1_555 1_555
N2 N3 1_555 1_555
C1 C2 1_555 1_555
C2 N2 1_555 1_555
C3 C2 1_555 1_555
C4 C3 1_555 1_555
H2 C4 1_555 1_555
H3 C4 1_555 1_555
C5 N1 1_555 1_555
H4 C5 1_555 1_555
C6 C5 1_555 1_555
C7 C6 1_555 1_555
H5 C7 1_555 1_555
C8 C7 1_555 1_555
H6 C8 1_555 1_555
C9 C8 1_555 1_555
C10 C9 1_555 1_555
H7 C10 1_555 1_555
C11 C6 1_555 1_555
H8 C11 1_555 1_555
C12 O5 1_555 1_555
H9 C12 1_555 1_555
H10 C12 1_555 1_555
H11 C12 1_555 1_555
C13 S1 1_555 1_555
C14 C13 1_555 1_555
H12 C14 1_555 1_555
C15 C14 1_555 1_555
H13 C15 1_555 1_555
C16 C15 1_555 1_555
C17 C16 1_555 1_555
H14 C17 1_555 1_555
C18 C13 1_555 1_555
H15 C18 1_555 1_555
C19 C16 1_555 1_555
H16 C19 1_555 1_555
H17 C19 1_555 1_555
H18 C19 1_555 1_555
C20 O3 1_555 1_555
H19 C20 1_555 1_555
H20 C20 1_555 1_555
C21 C20 1_555 1_555
H21 C21 1_555 1_555
C22 C21 1_555 1_555
H22 C22 1_555 1_555
H23 C22 1_555 1_555
C4 C5 1_555 1_555
C10 C11 1_555 1_555
C17 C18 1_555 1_555

#END
