
#######################################################################
#
#                 Cambridge Crystallographic Data Centre
#                                CCDC 
#
#######################################################################
#
# If this CIF has been generated from an entry in the Cambridge 
# Structural Database, then it will include bibliographic, chemical, 
# crystal, experimental, refinement or atomic coordinate data resulting 
# from the CCDC's data processing and validation procedures.
#
#######################################################################

data_CIYWIR
_chemical_formula_moiety         'C26 H24 O2'
_chemical_name_systematic        
(Naphthalen-1-yl)-(4-pentyloxynaphthalen-1-yl)methanone
_chemical_properties_biological  
'In vitro, potent and full CB!1$/CB!2$ mixed agonist. In vivo, good bioavailability, produced an excellent antihyperalgesic effect in a rat model of neuropathic pain and displayed no CNS effects at the maximally effective analgesic dose of 3mg/kg po'
_symmetry_cell_setting           monoclinic
_symmetry_space_group_name_H-M   'P 21/c'
_symmetry_Int_Tables_number      14
_space_group_name_Hall           '-P 2ybc'
loop_
_symmetry_equiv_pos_site_id
_symmetry_equiv_pos_as_xyz
1 x,y,z
2 -x,1/2+y,1/2-z
3 -x,-y,-z
4 x,1/2-y,1/2+z
_cell_length_a                   13.6550(10)
_cell_length_b                   13.6510(10)
_cell_length_c                   23.092(2)
_cell_angle_alpha                90
_cell_angle_beta                 105.930(10)
_cell_angle_gamma                90
_cell_volume                     4139.15
_chemical_melting_point          71.7-72.6deg.C
_cell_formula_units_Z            8
loop_
_atom_site_label
_atom_site_type_symbol
_atom_site_fract_x
_atom_site_fract_y
_atom_site_fract_z
O1 O 0.6038(2) 0.4178(2) 0.29175(13)
O2 O 0.2138(2) 0.1743(2) 0.15193(11)
C1 C 0.5672(2) 0.3417(2) 0.30483(15)
C2 C 0.6251(2) 0.2885(2) 0.36077(13)
C3 C 0.5768(3) 0.2591(2) 0.4022(2)
H1 H 0.5067(3) 0.2677(2) 0.3938(2)
C4 C 0.6296(3) 0.2164(3) 0.4571(2)
H2 H 0.5949(3) 0.1976(3) 0.4848(2)
C5 C 0.7316(3) 0.2025(3) 0.4695(2)
H3 H 0.7665(3) 0.1743(3) 0.5060(2)
C6 C 0.7859(2) 0.2300(2) 0.42797(15)
C7 C 0.8912(3) 0.2142(3) 0.4401(2)
H4 H 0.9261(3) 0.1857(3) 0.4765(2)
C8 C 0.9432(3) 0.2393(3) 0.4004(2)
H5 H 1.0130(3) 0.2283(3) 0.4094(2)
C9 C 0.8916(3) 0.2818(3) 0.3456(2)
H6 H 0.9274(3) 0.2985(3) 0.3181(2)
C10 C 0.7892(2) 0.2991(2) 0.3319(2)
H7 H 0.7562(2) 0.3272(2) 0.2950(2)
C11 C 0.7329(2) 0.2749(2) 0.37283(13)
C12 C 0.4704(2) 0.3020(2) 0.26784(13)
C13 C 0.4530(2) 0.2030(2) 0.26937(14)
H8 H 0.4998(2) 0.1651(2) 0.29723(14)
C14 C 0.3693(2) 0.1567(2) 0.23162(14)
H9 H 0.3616(2) 0.0892(2) 0.23400(14)
C15 C 0.2980(2) 0.2106(2) 0.19079(14)
C16 C 0.3100(2) 0.3145(2) 0.18726(13)
C17 C 0.2352(2) 0.3699(2) 0.14557(14)
H10 H 0.1796(2) 0.3387(2) 0.11979(14)
C18 C 0.2448(2) 0.4696(2) 0.1432(2)
H11 H 0.1961(2) 0.5062(2) 0.1157(2)
C19 C 0.3276(2) 0.5160(2) 0.1821(2)
H12 H 0.3331(2) 0.5838(2) 0.1807(2)
C20 C 0.4006(2) 0.4642(2) 0.22233(15)
H13 H 0.4551(2) 0.4973(2) 0.24791(15)
C21 C 0.3953(2) 0.3610(2) 0.22598(12)
C22 C 0.1951(3) 0.0705(3) 0.1520(2)
H14 H 0.1851(3) 0.0505(3) 0.1903(2)
H15 H 0.2524(3) 0.0345(3) 0.1456(2)
C23 C 0.1007(4) 0.0509(4) 0.1017(2)
H16 H 0.1088(4) 0.0794(4) 0.0648(2)
H17 H 0.0926(4) -0.0193(4) 0.0957(2)
C24 C 0.0070(4) 0.0917(6) 0.1138(3)
H18 H 0.0206(4) 0.1595(6) 0.1260(3)
H19 H -0.0043(4) 0.0568(6) 0.1480(3)
C25 C -0.0940(6) 0.0887(7) 0.0621(4)
H20 H -0.1444(6) 0.1318(7) 0.0710(4)
H21 H -0.0821(6) 0.1091(7) 0.0243(4)
C26 C -0.1285(8) -0.0119(9) 0.0582(4)
H22 H -0.1911(8) -0.0178(9) 0.0269(4)
H23 H -0.1395(8) -0.0311(9) 0.0960(4)
H24 H -0.0779(8) -0.0535(9) 0.0494(4)
O3 O -0.1013(2) 0.1865(2) 0.69175(14)
O4 O 0.2929(2) -0.0507(2) 0.83639(10)
C27 C -0.0643(2) 0.1086(2) 0.68149(15)
C28 C -0.1217(2) 0.0494(2) 0.62814(13)
C29 C -0.0733(2) 0.0170(2) 0.58725(14)
H25 H -0.0038(2) 0.0280(2) 0.59426(14)
C30 C -0.1266(3) -0.0324(3) 0.5350(2)
H26 H -0.0925(3) -0.0525(3) 0.5072(2)
C31 C -0.2272(3) -0.0513(3) 0.52437(14)
H27 H -0.2614(3) -0.0848(3) 0.48962(14)
C32 C -0.2811(2) -0.0207(2) 0.56562(13)
C33 C -0.3859(3) -0.0406(3) 0.5553(2)
H28 H -0.4207(3) -0.0742(3) 0.5207(2)
C34 C -0.4361(3) -0.0115(3) 0.5951(2)
H29 H -0.5052(3) -0.0249(3) 0.5877(2)
C35 C -0.3855(3) 0.0383(3) 0.6468(2)
H30 H -0.4209(3) 0.0573(3) 0.6741(2)
C36 C -0.2847(2) 0.0598(2) 0.65839(15)
H31 H -0.2522(2) 0.0936(2) 0.69335(15)
C37 C -0.2283(2) 0.0314(2) 0.61794(12)
C38 C 0.0319(2) 0.0704(2) 0.72047(12)
C39 C 0.0504(2) -0.0289(2) 0.72063(13)
H32 H 0.0036(2) -0.0683(2) 0.69379(13)
C40 C 0.1355(2) -0.0732(2) 0.75882(13)
H33 H 0.1438(2) -0.1407(2) 0.75795(13)
C41 C 0.2069(2) -0.0168(2) 0.79768(13)
C42 C 0.1933(2) 0.0873(2) 0.79985(12)
C43 C 0.2669(2) 0.1453(2) 0.84049(14)
H34 H 0.3238(2) 0.1158(2) 0.86626(14)
C44 C 0.2549(3) 0.2437(3) 0.8420(2)
H35 H 0.3033(3) 0.2814(3) 0.8690(2)
C45 C 0.1706(3) 0.2887(3) 0.8034(2)
H36 H 0.1634(3) 0.3563(3) 0.8046(2)
C46 C 0.0984(2) 0.2346(2) 0.7640(2)
H37 H 0.0428(2) 0.2659(2) 0.7383(2)
C47 C 0.1066(2) 0.1318(2) 0.76147(12)
C48 C 0.3143(3) -0.1535(3) 0.8377(2)
H38 H 0.3320(3) -0.1730(3) 0.8014(2)
H39 H 0.2554(3) -0.1909(3) 0.8405(2)
C49 C 0.4047(5) -0.1712(4) 0.8936(3)
H40 H 0.3827(5) -0.1575(4) 0.9293(3)
H41 H 0.4232(5) -0.2399(4) 0.8948(3)
C50 C 0.4919(5) -0.1148(8) 0.8959(4)
H42 H 0.4685(5) -0.0487(8) 0.8844(4)
H43 H 0.5203(5) -0.1395(8) 0.8646(4)
C51 C 0.5842(7) -0.1057(9) 0.9556(5)
H44 H 0.6365(7) -0.0621(9) 0.9493(5)
H45 H 0.5609(7) -0.0816(9) 0.9890(5)
C52 C 0.6216(9) -0.2043(9) 0.9662(5)
H46 H 0.6757(9) -0.2066(9) 1.0029(5)
H47 H 0.6466(9) -0.2255(9) 0.9333(5)
H48 H 0.5673(9) -0.2467(9) 0.9696(5)
loop_
_geom_bond_atom_site_label_1
_geom_bond_atom_site_label_2
_geom_bond_site_symmetry_1
_geom_bond_site_symmetry_2
O1 C1 1_555 1_555
O2 C15 1_555 1_555
C1 C2 1_555 1_555
C2 C3 1_555 1_555
C3 H1 1_555 1_555
C4 C3 1_555 1_555
H2 C4 1_555 1_555
C5 C4 1_555 1_555
H3 C5 1_555 1_555
C6 C5 1_555 1_555
C7 C6 1_555 1_555
H4 C7 1_555 1_555
C8 C7 1_555 1_555
H5 C8 1_555 1_555
C9 C8 1_555 1_555
H6 C9 1_555 1_555
C10 C9 1_555 1_555
H7 C10 1_555 1_555
C11 C2 1_555 1_555
C12 C1 1_555 1_555
C13 C12 1_555 1_555
H8 C13 1_555 1_555
C14 C13 1_555 1_555
H9 C14 1_555 1_555
C15 C14 1_555 1_555
C16 C15 1_555 1_555
C17 C16 1_555 1_555
H10 C17 1_555 1_555
C18 C17 1_555 1_555
H11 C18 1_555 1_555
C19 C18 1_555 1_555
H12 C19 1_555 1_555
C20 C19 1_555 1_555
H13 C20 1_555 1_555
C21 C12 1_555 1_555
C22 O2 1_555 1_555
H14 C22 1_555 1_555
H15 C22 1_555 1_555
C23 C22 1_555 1_555
H16 C23 1_555 1_555
H17 C23 1_555 1_555
C24 C23 1_555 1_555
H18 C24 1_555 1_555
H19 C24 1_555 1_555
C25 C24 1_555 1_555
H20 C25 1_555 1_555
H21 C25 1_555 1_555
C26 C25 1_555 1_555
H22 C26 1_555 1_555
H23 C26 1_555 1_555
H24 C26 1_555 1_555
O3 C27 1_555 1_555
O4 C41 1_555 1_555
C27 C28 1_555 1_555
C28 C29 1_555 1_555
C29 H25 1_555 1_555
C30 C29 1_555 1_555
H26 C30 1_555 1_555
C31 C30 1_555 1_555
H27 C31 1_555 1_555
C32 C31 1_555 1_555
C33 C32 1_555 1_555
H28 C33 1_555 1_555
C34 C33 1_555 1_555
H29 C34 1_555 1_555
C35 C34 1_555 1_555
H30 C35 1_555 1_555
C36 C35 1_555 1_555
H31 C36 1_555 1_555
C37 C28 1_555 1_555
C38 C27 1_555 1_555
C39 C38 1_555 1_555
H32 C39 1_555 1_555
C40 C39 1_555 1_555
H33 C40 1_555 1_555
C41 C40 1_555 1_555
C42 C41 1_555 1_555
C43 C42 1_555 1_555
H34 C43 1_555 1_555
C44 C43 1_555 1_555
H35 C44 1_555 1_555
C45 C44 1_555 1_555
H36 C45 1_555 1_555
C46 C45 1_555 1_555
H37 C46 1_555 1_555
C47 C38 1_555 1_555
C48 O4 1_555 1_555
H38 C48 1_555 1_555
H39 C48 1_555 1_555
C49 C48 1_555 1_555
H40 C49 1_555 1_555
H41 C49 1_555 1_555
C50 C49 1_555 1_555
H42 C50 1_555 1_555
H43 C50 1_555 1_555
C51 C50 1_555 1_555
H44 C51 1_555 1_555
H45 C51 1_555 1_555
C52 C51 1_555 1_555
H46 C52 1_555 1_555
H47 C52 1_555 1_555
H48 C52 1_555 1_555
C6 C11 1_555 1_555
C10 C11 1_555 1_555
C16 C21 1_555 1_555
C20 C21 1_555 1_555
C32 C37 1_555 1_555
C36 C37 1_555 1_555
C42 C47 1_555 1_555
C46 C47 1_555 1_555

#END
