
#######################################################################
#
#                 Cambridge Crystallographic Data Centre
#                                CCDC 
#
#######################################################################
#
# If this CIF has been generated from an entry in the Cambridge 
# Structural Database, then it will include bibliographic, chemical, 
# crystal, experimental, refinement or atomic coordinate data resulting 
# from the CCDC's data processing and validation procedures.
#
#######################################################################

data_CIZFAU
_chemical_formula_moiety         'C18 H21 N1 O2 S1'
_chemical_name_systematic        
(R)-3-((S)-2-Allyl-5-oxo-2,5-dihydrofuran-2-yl)-N,N-dimethyl-3-phenylpropanethioamide
_symmetry_cell_setting           orthorhombic
_symmetry_space_group_name_H-M   'P 21 21 21'
_symmetry_Int_Tables_number      19
_space_group_name_Hall           'P 2ac 2ab'
loop_
_symmetry_equiv_pos_site_id
_symmetry_equiv_pos_as_xyz
1 x,y,z
2 1/2+x,1/2-y,-z
3 -x,1/2+y,1/2-z
4 1/2-x,-y,1/2+z
_cell_length_a                   10.7955(2)
_cell_length_b                   23.6764(4)
_cell_length_c                   6.58041(12)
_cell_angle_alpha                90
_cell_angle_beta                 90
_cell_angle_gamma                90
_cell_volume                     1681.94
_exptl_crystal_colour            colorless
_exptl_crystal_description       needle
_chemical_melting_point          '148-149 deg.C'
_cell_formula_units_Z            4
loop_
_atom_site_label
_atom_site_type_symbol
_atom_site_fract_x
_atom_site_fract_y
_atom_site_fract_z
S1 S 0.83375(6) 0.90493(3) 0.68656(11)
O1 O 0.97762(13) 0.77154(6) 0.0608(2)
O2 O 1.09287(14) 0.75605(7) -0.2159(3)
N1 N 0.67867(17) 0.92113(8) 0.3853(3)
C1 C 1.0862(2) 0.75874(10) -0.0346(4)
C2 C 1.18103(19) 0.75041(9) 0.1223(4)
C3 C 1.13006(18) 0.75772(8) 0.3017(4)
C4 C 0.99457(18) 0.77062(9) 0.2800(4)
C5 C 0.91486(19) 0.72201(9) 0.3660(4)
C6 C 0.9564(2) 0.66490(9) 0.2993(4)
C7 C 0.8968(2) 0.63346(10) 0.1679(4)
C8 C 0.96087(18) 0.82859(9) 0.3720(4)
C9 C 1.05457(18) 0.87291(9) 0.3089(4)
C10 C 1.05454(19) 0.89720(9) 0.1179(4)
C11 C 1.1455(2) 0.93551(10) 0.0616(4)
C12 C 1.2387(2) 0.94991(9) 0.1967(4)
C13 C 1.2402(2) 0.92590(10) 0.3879(4)
C14 C 1.14861(19) 0.88795(10) 0.4443(4)
C15 C 0.82732(18) 0.84627(9) 0.3205(4)
C16 C 0.7756(2) 0.89291(10) 0.4578(4)
C17 C 0.6224(2) 0.96668(10) 0.5043(5)
C18 C 0.6156(2) 0.90718(12) 0.1947(4)
H1 H 1.26542 0.74124 0.09807
H2 H 1.17294 0.75519 0.42745
H3 H 0.91706 0.72367 0.51632
H4 H 0.82788 0.72764 0.32287
H5 H 1.03091 0.65038 0.35565
H6 H 0.822 0.64675 0.1087
H7 H 0.92834 0.59738 0.13176
H8 H 0.96615 0.8248 0.52308
H9 H 0.9913 0.88752 0.02371
H10 H 1.14391 0.95194 -0.07008
H11 H 1.30107 0.9761 0.15818
H12 H 1.30412 0.9354 0.48098
H13 H 1.14982 0.87199 0.57677
H14 H 0.8247 0.85947 0.17784
H15 H 0.773 0.81271 0.33109
H16 H 0.56898 0.95044 0.60965
H17 H 0.57286 0.9908 0.41467
H18 H 0.68769 0.98926 0.56838
H19 H 0.61566 0.86613 0.1756
H20 H 0.65893 0.9252 0.08106
H21 H 0.52998 0.92087 0.20001
loop_
_geom_bond_atom_site_label_1
_geom_bond_atom_site_label_2
_geom_bond_site_symmetry_1
_geom_bond_site_symmetry_2
S1 C16 1_555 1_555
O1 C1 1_555 1_555
O2 C1 1_555 1_555
N1 C16 1_555 1_555
C1 C2 1_555 1_555
C2 C3 1_555 1_555
C3 C4 1_555 1_555
C4 O1 1_555 1_555
C5 C4 1_555 1_555
C6 C5 1_555 1_555
C7 C6 1_555 1_555
C8 C4 1_555 1_555
C9 C8 1_555 1_555
C10 C9 1_555 1_555
C11 C10 1_555 1_555
C12 C11 1_555 1_555
C13 C12 1_555 1_555
C14 C9 1_555 1_555
C15 C8 1_555 1_555
C16 C15 1_555 1_555
C17 N1 1_555 1_555
C18 N1 1_555 1_555
H1 C2 1_555 1_555
H2 C3 1_555 1_555
H3 C5 1_555 1_555
H4 C5 1_555 1_555
H5 C6 1_555 1_555
H6 C7 1_555 1_555
H7 C7 1_555 1_555
H8 C8 1_555 1_555
H9 C10 1_555 1_555
H10 C11 1_555 1_555
H11 C12 1_555 1_555
H12 C13 1_555 1_555
H13 C14 1_555 1_555
H14 C15 1_555 1_555
H15 C15 1_555 1_555
H16 C17 1_555 1_555
H17 C17 1_555 1_555
H18 C17 1_555 1_555
H19 C18 1_555 1_555
H20 C18 1_555 1_555
H21 C18 1_555 1_555
C13 C14 1_555 1_555

#END
