
#######################################################################
#
#                 Cambridge Crystallographic Data Centre
#                                CCDC 
#
#######################################################################
#
# If this CIF has been generated from an entry in the Cambridge 
# Structural Database, then it will include bibliographic, chemical, 
# crystal, experimental, refinement or atomic coordinate data resulting 
# from the CCDC's data processing and validation procedures.
#
#######################################################################

data_CIZFUM
_chemical_formula_moiety         'C14 H20 O4'
_chemical_name_systematic        
3,3a,5,5a,6,7,8,9-Octahydro-3a-hydroxy-5a-methyl-8-(2-propenyl)furo(3,2-c)isobenzofuran-2-one
_symmetry_cell_setting           orthorhombic
_symmetry_space_group_name_H-M   'P 21 21 21'
_symmetry_Int_Tables_number      19
_space_group_name_Hall           'P 2ac 2ab'
loop_
_symmetry_equiv_pos_site_id
_symmetry_equiv_pos_as_xyz
1 x,y,z
2 1/2-x,-y,1/2+z
3 -x,1/2+y,1/2-z
4 1/2+x,1/2-y,-z
_cell_length_a                   9.3933(7)
_cell_length_b                   9.3963(7)
_cell_length_c                   30.329(2)
_cell_angle_alpha                90
_cell_angle_beta                 90
_cell_angle_gamma                90
_cell_volume                     2676.91
_exptl_crystal_colour            colorless
_exptl_crystal_description       plate
_cell_formula_units_Z            8
loop_
_atom_site_label
_atom_site_type_symbol
_atom_site_fract_x
_atom_site_fract_y
_atom_site_fract_z
O1 O 0.15553(16) 0.41949(18) 1.02207(4)
O2 O 0.28755(13) 0.39824(15) 1.08190(4)
O3 O 0.54004(15) 0.12257(16) 1.06394(4)
H1 H 0.5717 0.0905 1.0400
O4 O 0.56494(16) 0.35562(18) 1.04012(4)
C1 C 0.2512(2) 0.3585(2) 1.04054(6)
C2 C 0.3439(2) 0.2397(2) 1.02510(5)
H2 H 0.3737 0.2538 0.9941
H3 H 0.2951 0.1468 1.0278
C3 C 0.4693(2) 0.2499(2) 1.05623(6)
C4 C 0.40815(18) 0.3132(2) 1.09890(5)
C5 C 0.34739(18) 0.2125(2) 1.13320(5)
H4 H 0.2893 0.1395 1.1180
H5 H 0.2833 0.2669 1.1529
C6 C 0.4595(2) 0.1375(2) 1.16133(5)
H6 H 0.5116 0.0703 1.1415
C7 C 0.5687(2) 0.2444(3) 1.17874(6)
H7 H 0.5219 0.3096 1.1999
H8 H 0.6449 0.1928 1.1947
C8 C 0.6341(2) 0.3305(3) 1.14135(6)
H9 H 0.6840 0.2650 1.1210
H10 H 0.7055 0.3968 1.1537
C9 C 0.52287(19) 0.4162(2) 1.11521(6)
C10 C 0.5851(2) 0.4661(3) 1.07154(6)
H11 H 0.5365 0.5540 1.0616
H12 H 0.6878 0.4869 1.0750
C11 C 0.3939(2) 0.0488(3) 1.19796(6)
C12 C 0.4142(3) -0.0902(3) 1.19896(7)
H13 H 0.3735 -0.1455 1.2220
H14 H 0.4694 -0.1349 1.1767
C13 C 0.3090(3) 0.1219(4) 1.23184(8)
H15 H 0.2704 0.0517 1.2525
H16 H 0.2305 0.1734 1.2177
H17 H 0.3695 0.1894 1.2478
C14 C 0.4650(2) 0.5400(2) 1.14245(7)
H18 H 0.3968 0.5944 1.1247
H19 H 0.5438 0.6021 1.1513
H20 H 0.4172 0.5029 1.1688
O5 O 0.47359(13) 0.83021(17) 1.02475(4)
O6 O 0.43260(12) 0.78332(15) 0.95392(3)
O7 O 0.76168(12) 0.66972(16) 0.90771(3)
H21 H 0.8316 0.6315 0.9203
O8 O 0.60588(14) 0.51529(17) 0.94132(4)
C15 C 0.51696(19) 0.7870(2) 0.98985(6)
C16 C 0.66164(19) 0.7335(2) 0.97904(5)
H22 H 0.6952 0.6652 1.0016
H23 H 0.7306 0.8128 0.9769
C17 C 0.64289(18) 0.6609(2) 0.93488(5)
C18 C 0.50850(18) 0.7310(2) 0.91447(5)
C19 C 0.52706(18) 0.8577(2) 0.88440(5)
H24 H 0.5957 0.9242 0.8981
H25 H 0.4347 0.9078 0.8820
C20 C 0.5794(2) 0.8214(2) 0.83799(5)
H26 H 0.6790 0.7850 0.8409
C21 C 0.4893(2) 0.7007(2) 0.81864(5)
H27 H 0.3909 0.7349 0.8137
H28 H 0.5292 0.6718 0.7898
C22 C 0.4864(2) 0.5726(2) 0.84947(5)
H29 H 0.5847 0.5364 0.8532
H30 H 0.4292 0.4961 0.8357
C23 C 0.4240(2) 0.6067(2) 0.89519(5)
C24 C 0.4626(2) 0.4875(3) 0.92755(6)
H31 H 0.3974 0.4883 0.9532
H32 H 0.4561 0.3935 0.9129
C25 C 0.5843(2) 0.9493(3) 0.80774(6)
C26 C 0.5312(2) 1.0750(3) 0.81757(7)
H33 H 0.5390 1.1512 0.7972
H34 H 0.4850 1.0894 0.8451
C27 C 0.6577(3) 0.9254(3) 0.76409(6)
H35 H 0.7518 0.8833 0.7692
H36 H 0.6687 1.0167 0.7488
H37 H 0.6005 0.8609 0.7459
C28 C 0.2637(2) 0.6323(3) 0.89289(7)
H38 H 0.2440 0.7108 0.8725
H39 H 0.2279 0.6566 0.9223
H40 H 0.2162 0.5458 0.8824
loop_
_geom_bond_atom_site_label_1
_geom_bond_atom_site_label_2
_geom_bond_site_symmetry_1
_geom_bond_site_symmetry_2
O1 C1 1_555 1_555
O2 C1 1_555 1_555
O3 H1 1_555 1_555
O4 C3 1_555 1_555
C1 C2 1_555 1_555
C2 H2 1_555 1_555
H3 C2 1_555 1_555
C3 O3 1_555 1_555
C4 O2 1_555 1_555
C5 C4 1_555 1_555
H4 C5 1_555 1_555
H5 C5 1_555 1_555
C6 C5 1_555 1_555
H6 C6 1_555 1_555
C7 C6 1_555 1_555
H7 C7 1_555 1_555
H8 C7 1_555 1_555
C8 C7 1_555 1_555
H9 C8 1_555 1_555
H10 C8 1_555 1_555
C9 C4 1_555 1_555
C10 O4 1_555 1_555
H11 C10 1_555 1_555
H12 C10 1_555 1_555
C11 C6 1_555 1_555
C12 C11 1_555 1_555
H13 C12 1_555 1_555
H14 C12 1_555 1_555
C13 C11 1_555 1_555
H15 C13 1_555 1_555
H16 C13 1_555 1_555
H17 C13 1_555 1_555
C14 C9 1_555 1_555
H18 C14 1_555 1_555
H19 C14 1_555 1_555
H20 C14 1_555 1_555
O5 C15 1_555 1_555
O6 C15 1_555 1_555
O7 H21 1_555 1_555
O8 C17 1_555 1_555
C15 C16 1_555 1_555
C16 H22 1_555 1_555
H23 C16 1_555 1_555
C17 O7 1_555 1_555
C18 O6 1_555 1_555
C19 C18 1_555 1_555
H24 C19 1_555 1_555
H25 C19 1_555 1_555
C20 C19 1_555 1_555
H26 C20 1_555 1_555
C21 C20 1_555 1_555
H27 C21 1_555 1_555
H28 C21 1_555 1_555
C22 C21 1_555 1_555
H29 C22 1_555 1_555
H30 C22 1_555 1_555
C23 C18 1_555 1_555
C24 O8 1_555 1_555
H31 C24 1_555 1_555
H32 C24 1_555 1_555
C25 C20 1_555 1_555
C26 C25 1_555 1_555
H33 C26 1_555 1_555
H34 C26 1_555 1_555
C27 C25 1_555 1_555
H35 C27 1_555 1_555
H36 C27 1_555 1_555
H37 C27 1_555 1_555
C28 C23 1_555 1_555
H38 C28 1_555 1_555
H39 C28 1_555 1_555
H40 C28 1_555 1_555
C2 C3 1_555 1_555
C3 C4 1_555 1_555
C8 C9 1_555 1_555
C9 C10 1_555 1_555
C16 C17 1_555 1_555
C17 C18 1_555 1_555
C22 C23 1_555 1_555
C23 C24 1_555 1_555

#END
