
#######################################################################
#
#                 Cambridge Crystallographic Data Centre
#                                CCDC 
#
#######################################################################
#
# If this CIF has been generated from an entry in the Cambridge 
# Structural Database, then it will include bibliographic, chemical, 
# crystal, experimental, refinement or atomic coordinate data resulting 
# from the CCDC's data processing and validation procedures.
#
#######################################################################

data_CIZKON
_chemical_name_common            
'(S!S$,2S,3S)-Methyl 2-(t-butoxycarbonyloxy)-4-chloro-4-methyl-3-(p-toluenesulfinylamino)pentanoate'
_chemical_formula_moiety         'C19 H28 Cl1 N1 O6 S1'
_chemical_name_systematic        
'Methyl (S~S~,2S,3S)-2-((t-butoxycarbonyl)oxy)-4-chloro-4-methyl-3-(((4-methylphenyl)sulfinyl)amino)pentanoate'
_symmetry_cell_setting           monoclinic
_symmetry_space_group_name_H-M   'P 21'
_symmetry_Int_Tables_number      4
_space_group_name_Hall           'P 2yb'
loop_
_symmetry_equiv_pos_site_id
_symmetry_equiv_pos_as_xyz
1 x,y,z
2 -x,1/2+y,-z
_cell_length_a                   6.2925(5)
_cell_length_b                   22.0931(18)
_cell_length_c                   15.8946(13)
_cell_angle_alpha                90
_cell_angle_beta                 90.1980(10)
_cell_angle_gamma                90
_cell_volume                     2209.67
_chemical_melting_point          '149.4-149.8 deg.C'
_cell_formula_units_Z            4
loop_
_atom_site_label
_atom_site_type_symbol
_atom_site_fract_x
_atom_site_fract_y
_atom_site_fract_z
Cl1 Cl 0.64464(16) 0.61567(5) -0.04205(6)
S1 S 0.93206(16) 0.43521(4) 0.15071(6)
O1 O 0.7820(6) 0.44652(15) 0.22091(19)
N1 N 0.9781(5) 0.49772(14) 0.0973(2)
H1 H 1.074(8) 0.514(2) 0.133(3)
C1 C 0.8834(6) 0.57758(19) -0.0011(2)
O2 O 0.8991(4) 0.59167(12) 0.20134(16)
C2 C 0.8056(6) 0.53848(17) 0.0733(2)
H2 H 0.6848 0.5131 0.0525
O3 O 1.0653(4) 0.65194(13) 0.28375(17)
C3 C 0.7788(6) 0.39517(17) 0.0736(2)
O4 O 0.7462(5) 0.68187(13) 0.23053(19)
C4 C 0.5758(7) 0.3762(2) 0.0929(3)
H3 H 0.5106 0.3892 0.1436
O5 O 0.3961(5) 0.52374(15) 0.15516(19)
C5 C 0.4670(8) 0.3382(2) 0.0384(3)
H4 H 0.3263 0.3260 0.0518
O6 O 0.5475(4) 0.55492(13) 0.27557(17)
C6 C 0.5589(8) 0.3175(2) -0.0350(3)
C7 C 0.7625(8) 0.33807(19) -0.0552(3)
H5 H 0.8267 0.3255 -0.1063
C8 C 0.8720(7) 0.37671(19) -0.0014(3)
H6 H 1.0103 0.3905 -0.0158
C9 C 0.4422(11) 0.2742(3) -0.0922(4)
H7 H 0.3375 0.2513 -0.0595
H8 H 0.5439 0.2460 -0.1176
H9 H 0.3693 0.2970 -0.1367
C10 C 0.7229(5) 0.57727(17) 0.1471(2)
H10 H 0.6686 0.6161 0.1231
C11 C 0.8868(6) 0.64669(17) 0.2392(2)
C12 C 1.1010(7) 0.70625(18) 0.3365(3)
C13 C 0.9519(8) 0.7035(3) 0.4104(3)
H11 H 0.8059 0.7102 0.3909
H12 H 0.9906 0.7348 0.4513
H13 H 0.9621 0.6636 0.4370
C14 C 1.0796(12) 0.7636(3) 0.2857(4)
H14 H 0.9299 0.7700 0.2710
H15 H 1.1638 0.7601 0.2342
H16 H 1.1312 0.7980 0.3189
C15 C 1.3313(7) 0.6968(2) 0.3649(3)
H17 H 1.4241 0.6960 0.3155
H18 H 1.3431 0.6583 0.3952
H19 H 1.3740 0.7301 0.4021
C16 C 0.5392(6) 0.54710(18) 0.1935(2)
C17 C 0.3698(7) 0.52801(19) 0.3217(3)
H20 H 0.3942 0.5325 0.3823
H21 H 0.3588 0.4849 0.3077
H22 H 0.2375 0.5486 0.3060
C18 C 0.9674(7) 0.5389(2) -0.0730(3)
H23 H 1.1094 0.5239 -0.0586
H24 H 0.9751 0.5634 -0.1243
H25 H 0.8716 0.5046 -0.0824
C19 C 1.0413(7) 0.6269(2) 0.0233(3)
H26 H 1.1652 0.6085 0.0507
H27 H 0.9735 0.6553 0.0622
H28 H 1.0869 0.6486 -0.0273
Cl2 Cl 0.13251(17) 0.40913(4) 0.78835(6)
S2 S 0.41045(15) 0.58854(4) 0.59473(6)
N2 N 0.4603(5) 0.52379(14) 0.6443(2)
H29 H 0.586(7) 0.510(2) 0.623(3)
O7 O 0.2551(5) 0.58154(14) 0.52571(17)
O8 O 0.3766(4) 0.42840(12) 0.54235(17)
O9 O 0.5244(4) 0.37131(13) 0.45136(18)
O10 O 0.1997(5) 0.34400(13) 0.50187(19)
O11 O -0.1243(5) 0.49654(15) 0.58749(19)
O12 O 0.0369(4) 0.47180(13) 0.46647(17)
C20 C 0.3723(6) 0.44493(16) 0.7453(2)
C21 C 0.2902(5) 0.48322(16) 0.6692(2)
H30 H 0.1701 0.5088 0.6899
C22 C 0.2675(6) 0.62618(16) 0.6769(2)
C23 C 0.0634(6) 0.64576(17) 0.6629(3)
H31 H -0.0113 0.6332 0.6139
C24 C -0.0337(6) 0.68390(18) 0.7204(3)
H32 H -0.1751 0.6973 0.7106
C25 C 0.0740(7) 0.70273(17) 0.7924(3)
C26 C 0.2799(7) 0.68163(18) 0.8069(3)
H33 H 0.3540 0.6934 0.8564
C27 C 0.3764(6) 0.64364(17) 0.7495(2)
H34 H 0.5168 0.6294 0.7594
C28 C -0.0297(8) 0.74673(19) 0.8530(3)
H35 H -0.0723 0.7834 0.8226
H36 H 0.0715 0.7574 0.8976
H37 H -0.1554 0.7278 0.8780
C29 C 0.2036(5) 0.44368(17) 0.5968(2)
H38 H 0.1470 0.4054 0.6216
C30 C 0.3516(6) 0.37696(17) 0.4969(2)
C31 C 0.5383(7) 0.32260(18) 0.3864(3)
C32 C 0.5047(10) 0.2606(2) 0.4243(3)
H39 H 0.3555 0.2562 0.4407
H40 H 0.5958 0.2560 0.4740
H41 H 0.5409 0.2295 0.3828
C33 C 0.3826(8) 0.3362(2) 0.3177(3)
H42 H 0.2384 0.3367 0.3408
H43 H 0.3924 0.3051 0.2740
H44 H 0.4149 0.3759 0.2932
C34 C 0.7658(8) 0.3306(2) 0.3554(3)
H45 H 0.7834 0.3716 0.3327
H46 H 0.7953 0.3009 0.3113
H47 H 0.8648 0.3246 0.4024
C35 C 0.0219(6) 0.47491(17) 0.5490(2)
C36 C -0.1357(6) 0.5000(2) 0.4204(3)
H48 H -0.1334 0.4862 0.3618
H49 H -0.1191 0.5441 0.4222
H50 H -0.2714 0.4887 0.4461
C37 C 0.5221(7) 0.39432(19) 0.7199(3)
H51 H 0.6456 0.4115 0.6910
H52 H 0.4479 0.3663 0.6820
H53 H 0.5694 0.3724 0.7702
C38 C 0.4633(8) 0.4847(2) 0.8139(3)
H54 H 0.6000 0.5013 0.7955
H55 H 0.4843 0.4606 0.8650
H56 H 0.3647 0.5180 0.8255
loop_
_geom_bond_atom_site_label_1
_geom_bond_atom_site_label_2
_geom_bond_site_symmetry_1
_geom_bond_site_symmetry_2
Cl1 C1 1_555 1_555
S1 O1 1_555 1_555
N1 S1 1_555 1_555
H1 N1 1_555 1_555
C1 C2 1_555 1_555
O2 C10 1_555 1_555
C2 N1 1_555 1_555
H2 C2 1_555 1_555
O3 C11 1_555 1_555
C3 S1 1_555 1_555
O4 C11 1_555 1_555
C4 C3 1_555 1_555
H3 C4 1_555 1_555
O5 C16 1_555 1_555
C5 C4 1_555 1_555
H4 C5 1_555 1_555
O6 C16 1_555 1_555
C6 C5 1_555 1_555
C7 C6 1_555 1_555
H5 C7 1_555 1_555
C8 C3 1_555 1_555
H6 C8 1_555 1_555
C9 C6 1_555 1_555
H7 C9 1_555 1_555
H8 C9 1_555 1_555
H9 C9 1_555 1_555
C10 C2 1_555 1_555
H10 C10 1_555 1_555
C11 O2 1_555 1_555
C12 O3 1_555 1_555
C13 C12 1_555 1_555
H11 C13 1_555 1_555
H12 C13 1_555 1_555
H13 C13 1_555 1_555
C14 C12 1_555 1_555
H14 C14 1_555 1_555
H15 C14 1_555 1_555
H16 C14 1_555 1_555
C15 C12 1_555 1_555
H17 C15 1_555 1_555
H18 C15 1_555 1_555
H19 C15 1_555 1_555
C16 C10 1_555 1_555
C17 O6 1_555 1_555
H20 C17 1_555 1_555
H21 C17 1_555 1_555
H22 C17 1_555 1_555
C18 C1 1_555 1_555
H23 C18 1_555 1_555
H24 C18 1_555 1_555
H25 C18 1_555 1_555
C19 C1 1_555 1_555
H26 C19 1_555 1_555
H27 C19 1_555 1_555
H28 C19 1_555 1_555
Cl2 C20 1_555 1_555
S2 N2 1_555 1_555
N2 H29 1_555 1_555
O7 S2 1_555 1_555
O8 C29 1_555 1_555
O9 C30 1_555 1_555
O10 C30 1_555 1_555
O11 C35 1_555 1_555
O12 C35 1_555 1_555
C20 C21 1_555 1_555
C21 N2 1_555 1_555
H30 C21 1_555 1_555
C22 S2 1_555 1_555
C23 C22 1_555 1_555
H31 C23 1_555 1_555
C24 C23 1_555 1_555
H32 C24 1_555 1_555
C25 C24 1_555 1_555
C26 C25 1_555 1_555
H33 C26 1_555 1_555
C27 C22 1_555 1_555
H34 C27 1_555 1_555
C28 C25 1_555 1_555
H35 C28 1_555 1_555
H36 C28 1_555 1_555
H37 C28 1_555 1_555
C29 C21 1_555 1_555
H38 C29 1_555 1_555
C30 O8 1_555 1_555
C31 O9 1_555 1_555
C32 C31 1_555 1_555
H39 C32 1_555 1_555
H40 C32 1_555 1_555
H41 C32 1_555 1_555
C33 C31 1_555 1_555
H42 C33 1_555 1_555
H43 C33 1_555 1_555
H44 C33 1_555 1_555
C34 C31 1_555 1_555
H45 C34 1_555 1_555
H46 C34 1_555 1_555
H47 C34 1_555 1_555
C35 C29 1_555 1_555
C36 O12 1_555 1_555
H48 C36 1_555 1_555
H49 C36 1_555 1_555
H50 C36 1_555 1_555
C37 C20 1_555 1_555
H51 C37 1_555 1_555
H52 C37 1_555 1_555
H53 C37 1_555 1_555
C38 C20 1_555 1_555
H54 C38 1_555 1_555
H55 C38 1_555 1_555
H56 C38 1_555 1_555
C7 C8 1_555 1_555
C26 C27 1_555 1_555

#END
