
#######################################################################
#
#                 Cambridge Crystallographic Data Centre
#                                CCDC 
#
#######################################################################
#
# If this CIF has been generated from an entry in the Cambridge 
# Structural Database, then it will include bibliographic, chemical, 
# crystal, experimental, refinement or atomic coordinate data resulting 
# from the CCDC's data processing and validation procedures.
#
#######################################################################

data_CIZXIT
_chemical_formula_moiety         'C12 H10 Br2 N1 O1 1+,Br1 1-,H2 O1'
_chemical_name_systematic        
'1,3-dibromo-8,9-dihydro-7H-10-oxa-6a-azoniacyclohepta[de]naphthalene bromide monohydrate'
_symmetry_cell_setting           monoclinic
_symmetry_space_group_name_H-M   'P 21/c'
_symmetry_Int_Tables_number      14
_space_group_name_Hall           '-P 2ybc'
loop_
_symmetry_equiv_pos_site_id
_symmetry_equiv_pos_as_xyz
1 x,y,z
2 -x,1/2+y,1/2-z
3 -x,-y,-z
4 x,1/2-y,1/2+z
_cell_length_a                   10.527(16)
_cell_length_b                   7.243(8)
_cell_length_c                   18.75(3)
_cell_angle_alpha                90
_cell_angle_beta                 101.40(4)
_cell_angle_gamma                90
_cell_volume                     1401.43
_exptl_crystal_colour            colorless
_exptl_crystal_description       'small plate'
_chemical_melting_point          '206-208 deg.C'
_cell_formula_units_Z            4
_exptl_crystal_recrystallization_method chloroform/benzene
loop_
_atom_site_label
_atom_site_type_symbol
_atom_site_fract_x
_atom_site_fract_y
_atom_site_fract_z
O1 O 0.5638(3) 0.1011(5) 0.91996(18)
C1 C 0.6632(5) -0.0228(8) 0.9619(3)
C2 C 0.7840(6) 0.0883(9) 0.9925(3)
C3 C 0.8072(6) 0.2353(8) 0.9399(3)
N1 N 0.8002(4) 0.1661(6) 0.8640(2)
C4 C 0.9088(5) 0.1607(8) 0.8384(3)
C5 C 0.9093(6) 0.1248(8) 0.7648(3)
C6 C 0.7937(6) 0.1056(8) 0.7174(3)
C7 C 0.6742(5) 0.1093(7) 0.7422(3)
C8 C 0.5507(5) 0.0997(7) 0.6962(3)
Br1 Br 0.53830(6) 0.08215(9) 0.59375(3)
C9 C 0.4402(5) 0.1049(7) 0.7226(3)
C10 C 0.4477(5) 0.1055(7) 0.7984(3)
Br2 Br 0.29284(5) 0.09987(9) 0.83440(3)
C11 C 0.5654(5) 0.1117(7) 0.8478(3)
C12 C 0.6800(5) 0.1277(6) 0.8186(2)
H1 H 0.620(6) -0.093(8) 1.004(3)
H2 H 0.691(5) -0.135(7) 0.930(3)
H3 H 0.771(5) 0.161(7) 1.038(3)
H4 H 0.862(7) 0.014(9) 1.005(4)
H5 H 0.738(5) 0.330(7) 0.936(3)
H6 H 0.891(5) 0.285(6) 0.951(2)
H7 H 0.995(6) 0.189(7) 0.876(3)
H8 H 0.993(6) 0.104(8) 0.750(3)
H9 H 0.793(4) 0.077(6) 0.675(3)
H10 H 0.359(6) 0.102(7) 0.695(3)
Br3 Br 0.91044(6) -0.31305(9) 0.88365(3)
O2 O 1.1453(4) -0.6193(6) 0.9470(2)
H11 H 1.0994 -0.5046 0.9366
H12 H 1.1400 -0.6038 1.0023
loop_
_geom_bond_atom_site_label_1
_geom_bond_atom_site_label_2
_geom_bond_site_symmetry_1
_geom_bond_site_symmetry_2
O1 C1 1_555 1_555
C1 C2 1_555 1_555
C2 C3 1_555 1_555
C3 N1 1_555 1_555
N1 C4 1_555 1_555
C4 C5 1_555 1_555
C5 C6 1_555 1_555
C6 C7 1_555 1_555
C7 C8 1_555 1_555
C8 Br1 1_555 1_555
C9 C8 1_555 1_555
C10 C9 1_555 1_555
Br2 C10 1_555 1_555
C11 O1 1_555 1_555
C12 N1 1_555 1_555
O2 H11 1_555 1_555
H1 C1 1_555 1_555
H2 C1 1_555 1_555
H3 C2 1_555 1_555
H4 C2 1_555 1_555
H5 C3 1_555 1_555
H6 C3 1_555 1_555
H7 C4 1_555 1_555
H8 C5 1_555 1_555
H9 C6 1_555 1_555
H10 C9 1_555 1_555
H12 O2 1_555 1_555
C7 C12 1_555 1_555
C10 C11 1_555 1_555
C11 C12 1_555 1_555

#END
