
#######################################################################
#
#                 Cambridge Crystallographic Data Centre
#                                CCDC 
#
#######################################################################
#
# If this CIF has been generated from an entry in the Cambridge 
# Structural Database, then it will include bibliographic, chemical, 
# crystal, experimental, refinement or atomic coordinate data resulting 
# from the CCDC's data processing and validation procedures.
#
#######################################################################

data_CIZXEP
_chemical_formula_moiety         'C13 H12 Br2 N1 O1 1+,Br1 1-,H2 O1'
_chemical_name_systematic        
'1,3-dibromo-7,8,9,10-tetrahydro-11-oxa-6a-azoniacycloocta[de]naphthalene bromide monohydrate'
_symmetry_cell_setting           orthorhombic
_symmetry_space_group_name_H-M   'P c a b'
_symmetry_Int_Tables_number      61
_space_group_name_Hall           '-P 2bc 2ac'
loop_
_symmetry_equiv_pos_site_id
_symmetry_equiv_pos_as_xyz
1 x,y,z
2 -x,1/2-y,1/2+z
3 1/2+x,-y,1/2-z
4 1/2-x,1/2+y,-z
5 -x,-y,-z
6 x,1/2+y,1/2-z
7 1/2-x,y,1/2+z
8 1/2+x,1/2-y,z
_cell_length_a                   7.5286(3)
_cell_length_b                   13.4705(5)
_cell_length_c                   29.0126(10)
_cell_angle_alpha                90
_cell_angle_beta                 90
_cell_angle_gamma                90
_cell_volume                     2942.28
_exptl_crystal_colour            'dark yellow'
_exptl_crystal_description       'small plate'
_chemical_melting_point          '182-184 deg.C'
_cell_formula_units_Z            8
_exptl_crystal_recrystallization_method chloroform/benzene
loop_
_atom_site_label
_atom_site_type_symbol
_atom_site_fract_x
_atom_site_fract_y
_atom_site_fract_z
O1 O 0.0046(4) 0.3084(2) 0.66274(10)
C1 C 0.1293(6) 0.2979(3) 0.70140(15)
C2 C 0.2352(7) 0.3912(3) 0.70873(16)
C3 C 0.1210(8) 0.4815(4) 0.71923(17)
C4 C -0.0245(7) 0.5029(4) 0.68410(16)
N1 N 0.0476(5) 0.5144(2) 0.63629(12)
C5 C 0.0681(7) 0.6080(3) 0.62212(19)
C6 C 0.1364(8) 0.6325(3) 0.5794(2)
C7 C 0.1834(7) 0.5584(3) 0.54999(18)
C8 C 0.1641(5) 0.4580(3) 0.56313(14)
C9 C 0.2107(6) 0.3789(3) 0.53370(13)
Br1 Br 0.30729(7) 0.40201(4) 0.474349(15)
C10 C 0.1895(6) 0.2822(3) 0.54712(15)
C11 C 0.1242(5) 0.2613(3) 0.59090(14)
Br2 Br 0.10092(6) 0.12647(3) 0.607814(15)
C12 C 0.0773(5) 0.3348(3) 0.62202(13)
C13 C 0.0955(5) 0.4355(3) 0.60779(13)
H1 H 0.056(6) 0.284(4) 0.7258(17)
H2 H 0.193(7) 0.242(4) 0.6964(17)
H3 H 0.318(7) 0.404(4) 0.681(2)
H4 H 0.314(7) 0.383(4) 0.733(2)
H5 H 0.063(7) 0.473(4) 0.751(2)
H6 H 0.196(7) 0.537(5) 0.7225(18)
H7 H -0.085(5) 0.568(3) 0.6892(14)
H8 H -0.112(7) 0.453(4) 0.6846(19)
H9 H 0.016(7) 0.653(4) 0.6520(19)
H10 H 0.147(8) 0.701(5) 0.577(2)
H11 H 0.220(9) 0.566(5) 0.522(2)
H12 H 0.223(7) 0.233(4) 0.5275(18)
Br3 Br 0.43491(8) 0.38943(3) 0.361981(19)
O2 O 0.6960(7) 0.2639(4) 0.29493(16)
loop_
_geom_bond_atom_site_label_1
_geom_bond_atom_site_label_2
_geom_bond_site_symmetry_1
_geom_bond_site_symmetry_2
O1 C1 1_555 1_555
C1 C2 1_555 1_555
C2 C3 1_555 1_555
C3 C4 1_555 1_555
C4 N1 1_555 1_555
N1 C5 1_555 1_555
C5 C6 1_555 1_555
C6 C7 1_555 1_555
C7 C8 1_555 1_555
C8 C9 1_555 1_555
C9 Br1 1_555 1_555
C10 C9 1_555 1_555
C11 C10 1_555 1_555
Br2 C11 1_555 1_555
C12 O1 1_555 1_555
C13 N1 1_555 1_555
H1 C1 1_555 1_555
H2 C1 1_555 1_555
H3 C2 1_555 1_555
H4 C2 1_555 1_555
H5 C3 1_555 1_555
H6 C3 1_555 1_555
H7 C4 1_555 1_555
H8 C4 1_555 1_555
H9 C5 1_555 1_555
H10 C6 1_555 1_555
H11 C7 1_555 1_555
H12 C10 1_555 1_555
C8 C13 1_555 1_555
C11 C12 1_555 1_555
C12 C13 1_555 1_555

#END
