
#######################################################################
#
#                 Cambridge Crystallographic Data Centre
#                                CCDC 
#
#######################################################################
#
# If this CIF has been generated from an entry in the Cambridge 
# Structural Database, then it will include bibliographic, chemical, 
# crystal, experimental, refinement or atomic coordinate data resulting 
# from the CCDC's data processing and validation procedures.
#
#######################################################################

data_CLANTO01
_chemical_formula_moiety         'C14 H7 Cl1 O2'
_chemical_name_systematic        1-Chloroanthraquinone
_symmetry_cell_setting           monoclinic
_symmetry_space_group_name_H-M   'P 21'
_symmetry_Int_Tables_number      4
_space_group_name_Hall           'P 2yb'
loop_
_symmetry_equiv_pos_site_id
_symmetry_equiv_pos_as_xyz
1 x,y,z
2 -x,1/2+y,-z
_cell_length_a                   7.763(1)
_cell_length_b                   3.973(2)
_cell_length_c                   16.947(1)
_cell_angle_alpha                90
_cell_angle_beta                 95.13(1)
_cell_angle_gamma                90
_cell_volume                     520.592
_exptl_crystal_colour            red
_exptl_crystal_description       prismatic
_cell_formula_units_Z            2
_exptl_crystal_recrystallization_method 'ethyl acetate'
loop_
_atom_site_label
_atom_site_type_symbol
_atom_site_fract_x
_atom_site_fract_y
_atom_site_fract_z
Cl1 Cl 0.3174(1) 0.2592 0.45361(5)
O1 O 0.4564(3) -0.068(1) 0.3239(2)
O2 O -0.1303(3) -0.113(1) 0.1328(1)
C1 C 0.1436(4) 0.216(1) 0.3828(2)
C2 C -0.0122(5) 0.337(1) 0.4042(2)
C3 C -0.1599(5) 0.311(1) 0.3530(2)
C4 C -0.1520(4) 0.166(1) 0.2800(2)
C5 C 0.0044(4) 0.044(1) 0.2575(2)
C6 C 0.1570(4) 0.062(1) 0.3089(2)
C7 C 0.3213(4) -0.079(1) 0.2831(2)
C8 C 0.3153(4) -0.239(1) 0.2032(2)
C9 C 0.1636(4) -0.253(1) 0.1524(2)
C10 C 0.0019(4) -0.108(1) 0.1768(2)
C11 C 0.1663(5) -0.405(1) 0.0779(2)
C12 C 0.3176(6) -0.536(1) 0.0547(2)
C13 C 0.4683(5) -0.523(1) 0.1053(2)
C14 C 0.4681(5) -0.375(1) 0.1790(2)
loop_
_geom_bond_atom_site_label_1
_geom_bond_atom_site_label_2
_geom_bond_site_symmetry_1
_geom_bond_site_symmetry_2
Cl1 C1 1_555 1_555
O1 C7 1_555 1_555
O2 C10 1_555 1_555
C1 C2 1_555 1_555
C2 C3 1_555 1_555
C3 C4 1_555 1_555
C4 C5 1_555 1_555
C5 C6 1_555 1_555
C6 C1 1_555 1_555
C7 C6 1_555 1_555
C8 C7 1_555 1_555
C9 C8 1_555 1_555
C10 C5 1_555 1_555
C11 C9 1_555 1_555
C12 C11 1_555 1_555
C13 C12 1_555 1_555
C14 C8 1_555 1_555
C9 C10 1_555 1_555
C13 C14 1_555 1_555

#END
