
#######################################################################
#
#                 Cambridge Crystallographic Data Centre
#                                CCDC 
#
#######################################################################
#
# If this CIF has been generated from an entry in the Cambridge 
# Structural Database, then it will include bibliographic, chemical, 
# crystal, experimental, refinement or atomic coordinate data resulting 
# from the CCDC's data processing and validation procedures.
#
#######################################################################

data_CLBZAP13
_chemical_formula_moiety         'C7 H5 Cl1 O2'
_chemical_name_systematic        '4-Chlorobenzoic acid'
_symmetry_cell_setting           triclinic
_symmetry_space_group_name_H-M   'P -1'
_symmetry_Int_Tables_number      2
_space_group_name_Hall           '-P 1'
loop_
_symmetry_equiv_pos_site_id
_symmetry_equiv_pos_as_xyz
1 x,y,z
2 -x,-y,-z
_cell_length_a                   3.8017(8)
_cell_length_b                   6.1607(12)
_cell_length_c                   14.208(3)
_cell_angle_alpha                92.417(7)
_cell_angle_beta                 94.718(7)
_cell_angle_gamma                92.286(7)
_cell_volume                     331.031
_cell_formula_units_Z            2
loop_
_atom_site_label
_atom_site_type_symbol
_atom_site_fract_x
_atom_site_fract_y
_atom_site_fract_z
Cl1 Cl 0.40002(12) -0.28699(7) 0.07209(3)
O1 O -0.0629(3) 0.48113(18) 0.38173(8)
O2 O 0.2176(4) 0.2561(2) 0.47918(8)
C1 C 0.4018(4) -0.1731(3) 0.25778(12)
H1 H 0.5021 -0.3059 0.2688
C2 C 0.3349(4) -0.0329(3) 0.33265(11)
H2 H 0.3921 -0.0714 0.3945
C3 C 0.1817(4) 0.1662(2) 0.31551(11)
C4 C 0.0980(4) 0.2250(3) 0.22266(11)
H3 H -0.0039 0.3572 0.2114
C5 C 0.1662(4) 0.0869(3) 0.14730(12)
H4 H 0.1131 0.1257 0.0853
C6 C 0.3162(4) -0.1112(3) 0.16631(11)
C7 C 0.1027(4) 0.3139(3) 0.39541(11)
H5 H 0.154(9) 0.340(6) 0.520(3)
loop_
_geom_bond_atom_site_label_1
_geom_bond_atom_site_label_2
_geom_bond_site_symmetry_1
_geom_bond_site_symmetry_2
Cl1 C6 1_555 1_555
O1 C7 1_555 1_555
O2 C7 1_555 1_555
C1 H1 1_555 1_555
C2 C1 1_555 1_555
H2 C2 1_555 1_555
C3 C2 1_555 1_555
C4 C3 1_555 1_555
H3 C4 1_555 1_555
C5 C4 1_555 1_555
H4 C5 1_555 1_555
C6 C1 1_555 1_555
C7 C3 1_555 1_555
H5 O2 1_555 1_555
C5 C6 1_555 1_555

#END
