
#######################################################################
#
#                 Cambridge Crystallographic Data Centre
#                                CCDC 
#
#######################################################################
#
# If this CIF has been generated from an entry in the Cambridge 
# Structural Database, then it will include bibliographic, chemical, 
# crystal, experimental, refinement or atomic coordinate data resulting 
# from the CCDC's data processing and validation procedures.
#
#######################################################################

data_CLBZAP12
_chemical_formula_moiety         'C7 H5 Cl1 O2'
_chemical_name_systematic        '4-Chlorobenzoic acid'
_symmetry_cell_setting           triclinic
_symmetry_space_group_name_H-M   'P -1'
_symmetry_Int_Tables_number      2
_space_group_name_Hall           '-P 1'
loop_
_symmetry_equiv_pos_site_id
_symmetry_equiv_pos_as_xyz
1 x,y,z
2 -x,-y,-z
_cell_length_a                   3.8208(7)
_cell_length_b                   6.1785(12)
_cell_length_c                   14.209(3)
_cell_angle_alpha                92.591(7)
_cell_angle_beta                 94.866(7)
_cell_angle_gamma                91.978(7)
_cell_volume                     333.631
_cell_formula_units_Z            2
loop_
_atom_site_label
_atom_site_type_symbol
_atom_site_fract_x
_atom_site_fract_y
_atom_site_fract_z
Cl1 Cl 0.40106(12) -0.28669(7) 0.07260(3)
O1 O -0.0619(3) 0.48106(18) 0.38121(8)
O2 O 0.2150(4) 0.2572(2) 0.47923(8)
C1 C 0.0985(4) 0.2239(2) 0.22296(11)
H1 H -0.0035 0.3558 0.2116
C2 C 0.1669(4) 0.0863(3) 0.14759(11)
H2 H 0.1139 0.1249 0.0856
C3 C 0.3171(4) -0.1113(3) 0.16663(11)
C4 C 0.4026(4) -0.1722(3) 0.25813(12)
H3 H 0.5033 -0.3046 0.2692
C5 C 0.3355(4) -0.0322(2) 0.33280(11)
H4 H 0.3931 -0.0701 0.3946
C6 C 0.1815(4) 0.1659(2) 0.31573(11)
C7 C 0.1033(4) 0.3136(2) 0.39559(11)
H5 H 0.148(10) 0.349(6) 0.522(3)
loop_
_geom_bond_atom_site_label_1
_geom_bond_atom_site_label_2
_geom_bond_site_symmetry_1
_geom_bond_site_symmetry_2
Cl1 C3 1_555 1_555
O1 C7 1_555 1_555
O2 C7 1_555 1_555
C1 H1 1_555 1_555
C2 C1 1_555 1_555
H2 C2 1_555 1_555
C3 C2 1_555 1_555
C4 C3 1_555 1_555
H3 C4 1_555 1_555
C5 C4 1_555 1_555
H4 C5 1_555 1_555
C6 C1 1_555 1_555
C7 C6 1_555 1_555
H5 O2 1_555 1_555
C5 C6 1_555 1_555

#END
