
#######################################################################
#
#                 Cambridge Crystallographic Data Centre
#                                CCDC 
#
#######################################################################
#
# If this CIF has been generated from an entry in the Cambridge 
# Structural Database, then it will include bibliographic, chemical, 
# crystal, experimental, refinement or atomic coordinate data resulting 
# from the CCDC's data processing and validation procedures.
#
#######################################################################

data_CLCORT
_chemical_formula_moiety         'C21 H27 Cl1 O5'
_chemical_name_systematic        4-Chlorocortisone
_symmetry_cell_setting           monoclinic
_symmetry_space_group_name_H-M   'P 21'
_symmetry_Int_Tables_number      4
_space_group_name_Hall           'P 2yb'
loop_
_symmetry_equiv_pos_site_id
_symmetry_equiv_pos_as_xyz
1 x,y,z
2 -x,1/2+y,-z
_cell_length_a                   12.632(5)
_cell_length_b                   6.579(1)
_cell_length_c                   11.567(2)
_cell_angle_alpha                90
_cell_angle_beta                 95.37(2)
_cell_angle_gamma                90
_cell_volume                     957.067
_cell_formula_units_Z            2
loop_
_atom_site_label
_atom_site_type_symbol
_atom_site_fract_x
_atom_site_fract_y
_atom_site_fract_z
Cl1 Cl -0.14500 0.75000 -0.35766
C1 C 0.04074 0.32780 -0.10112
C2 C 0.07985 0.33250 -0.22555
C3 C 0.26486 0.18470 -0.15107
C4 C 0.38410 0.21430 -0.12938
C5 C 0.42873 0.27030 -0.24362
C6 C 0.37121 0.45840 -0.29598
C7 C 0.43680 0.52140 -0.39522
C8 C 0.55120 0.47340 -0.34685
C9 C 0.54725 0.35230 -0.23166
C10 C 0.42006 0.08680 -0.32731
C11 C 0.04978 0.13720 -0.29668
C12 C -0.08072 0.31880 -0.10666
C13 C 0.62847 0.18510 -0.21171
C14 C 0.65935 0.12070 -0.08786
C15 C -0.13275 0.48450 -0.18009
C16 C -0.07162 0.56830 -0.27114
C17 C 0.02525 0.51020 -0.29300
C18 C 0.07783 0.59070 -0.39478
C19 C 0.19755 0.61930 -0.37167
C20 C 0.25117 0.42460 -0.32258
C21 C 0.20304 0.36400 -0.20953
H1 H 0.07970 0.44740 -0.06670
H2 H 0.20170 0.47120 -0.15250
H3 H 0.40720 0.31900 -0.07100
H4 H 0.41360 0.12940 -0.07730
H5 H 0.37160 0.56130 -0.23610
H6 H 0.42470 0.43640 -0.46080
H7 H 0.42160 0.65010 -0.44420
H8 H 0.58450 0.38560 -0.38700
H9 H 0.59320 0.55280 -0.35230
H10 H 0.47480 0.02410 -0.28480
H11 H 0.34740 0.04300 -0.34450
H12 H 0.08290 0.20340 -0.06710
H13 H 0.45120 0.05550 -0.40210
H14 H 0.62590 0.51540 -0.12370
H15 H 0.09280 0.15170 -0.36700
H16 H 0.05660 0.04370 -0.21910
H17 H 0.68930 0.24670 -0.01060
H18 H 0.60650 0.09500 -0.04850
H19 H 0.74290 -0.13070 -0.16080
H20 H -0.10830 0.23300 -0.14980
H21 H -0.10690 0.37220 -0.01710
H22 H 0.05740 0.50950 -0.45850
H23 H 0.03960 0.70040 -0.42240
H24 H 0.22930 0.67660 -0.44790
H25 H 0.21030 0.73650 -0.30550
H26 H 0.24490 0.32590 -0.38420
O1 O 0.22434 0.02720 -0.12287
O2 O 0.55577 0.48810 -0.13466
O3 O 0.66682 0.09730 -0.28930
O4 O 0.72602 -0.05010 -0.08144
O5 O -0.22292 0.54230 -0.16772
loop_
_geom_bond_atom_site_label_1
_geom_bond_atom_site_label_2
_geom_bond_site_symmetry_1
_geom_bond_site_symmetry_2
Cl1 C16 1_555 1_555
C1 C2 1_555 1_555
C2 C11 1_555 1_555
C3 C4 1_555 1_555
C4 C5 1_555 1_555
C5 C6 1_555 1_555
C6 C7 1_555 1_555
C7 C8 1_555 1_555
C8 C9 1_555 1_555
C9 C5 1_555 1_555
C10 C5 1_555 1_555
C11 H15 1_555 1_555
C12 C1 1_555 1_555
C13 C9 1_555 1_555
C14 C13 1_555 1_555
C15 C12 1_555 1_555
C16 C15 1_555 1_555
C17 C2 1_555 1_555
C18 C17 1_555 1_555
C19 C18 1_555 1_555
C20 C6 1_555 1_555
C21 C2 1_555 1_555
H1 C1 1_555 1_555
H2 C21 1_555 1_555
H3 C4 1_555 1_555
H4 C4 1_555 1_555
H5 C6 1_555 1_555
H6 C7 1_555 1_555
H7 C7 1_555 1_555
H8 C8 1_555 1_555
H9 C8 1_555 1_555
H10 C10 1_555 1_555
H11 C10 1_555 1_555
H12 C1 1_555 1_555
H13 C10 1_555 1_555
H14 O2 1_555 1_555
H16 C11 1_555 1_555
H17 C14 1_555 1_555
H18 C14 1_555 1_555
H19 O4 1_555 1_555
H20 C12 1_555 1_555
H21 C12 1_555 1_555
H22 C18 1_555 1_555
H23 C18 1_555 1_555
H24 C19 1_555 1_555
H25 C19 1_555 1_555
H26 C20 1_555 1_555
O1 C3 1_555 1_555
O2 C9 1_555 1_555
O3 C13 1_555 1_555
O4 C14 1_555 1_555
O5 C15 1_555 1_555
C3 C21 1_555 1_555
C16 C17 1_555 1_555
C19 C20 1_555 1_555
C20 C21 1_555 1_555

#END
