
#######################################################################
#
#                 Cambridge Crystallographic Data Centre
#                                CCDC 
#
#######################################################################
#
# If this CIF has been generated from an entry in the Cambridge 
# Structural Database, then it will include bibliographic, chemical, 
# crystal, experimental, refinement or atomic coordinate data resulting 
# from the CCDC's data processing and validation procedures.
#
#######################################################################

data_CLFBZD
_chemical_formula_moiety         'C14 H8 Cl2 F6'
_chemical_name_systematic        
exo-1,7-Dichloro-8,8,9,9,10,10-hexafluoro-3,4-benzotricyclo(5.3.0.0^2,6^)dec-3-ene
_symmetry_cell_setting           orthorhombic
_symmetry_space_group_name_H-M   'P b c a'
_symmetry_Int_Tables_number      61
_space_group_name_Hall           '-P 2ac 2ab'
loop_
_symmetry_equiv_pos_site_id
_symmetry_equiv_pos_as_xyz
1 x,y,z
2 1/2-x,1/2+y,z
3 x,1/2-y,1/2+z
4 1/2-x,-y,1/2+z
5 -x,-y,-z
6 1/2+x,1/2-y,-z
7 -x,1/2+y,1/2-z
8 1/2+x,y,1/2-z
_cell_length_a                   21.872(8)
_cell_length_b                   11.815(6)
_cell_length_c                   10.785(6)
_cell_angle_alpha                90
_cell_angle_beta                 90
_cell_angle_gamma                90
_cell_volume                     2787.03
_cell_formula_units_Z            8
loop_
_atom_site_label
_atom_site_type_symbol
_atom_site_fract_x
_atom_site_fract_y
_atom_site_fract_z
Cl1 Cl 0.61171 0.72443 0.21365
Cl2 Cl 0.61248 0.90859 0.43268
F1 F 0.73359 0.94578 0.35598
F2 F 0.69813 1.11265 0.31711
F3 F 0.78030 0.98993 0.14077
F4 F 0.69676 1.06896 0.07516
F5 F 0.73069 0.79123 0.15297
F6 F 0.68837 0.86011 -0.01233
C1 C 0.62930 0.86540 0.17590
C2 C 0.57920 0.93700 0.10900
C3 C 0.51470 0.89310 0.11730
C4 C 0.48210 0.94860 0.20750
C5 C 0.51890 1.04040 0.26980
C6 C 0.58340 1.02710 0.21390
C7 C 0.63100 0.95370 0.28320
C8 C 0.69630 1.00400 0.28090
C9 C 0.71930 0.98740 0.14880
C10 C 0.69240 0.87120 0.11070
C11 C 0.48750 0.80960 0.04410
C12 C 0.42700 0.78390 0.06670
C13 C 0.39410 0.83920 0.15700
C14 C 0.42080 0.92140 0.22960
H1 H 0.59200 0.95700 0.02400
H2 H 0.60000 1.10300 0.18200
H3 H 0.50900 0.77600 -0.02800
H4 H 0.41400 0.72800 0.00600
H5 H 0.35600 0.81700 0.16800
H6 H 0.39800 0.95900 0.29200
H7 H 0.51900 1.03200 0.36600
H8 H 0.50400 1.12100 0.25700
loop_
_geom_bond_atom_site_label_1
_geom_bond_atom_site_label_2
_geom_bond_site_symmetry_1
_geom_bond_site_symmetry_2
Cl1 C1 1_555 1_555
Cl2 C7 1_555 1_555
F1 C8 1_555 1_555
F2 C8 1_555 1_555
F3 C9 1_555 1_555
F4 C9 1_555 1_555
F5 C10 1_555 1_555
F6 C10 1_555 1_555
C1 C2 1_555 1_555
C2 C3 1_555 1_555
C3 C4 1_555 1_555
C4 C5 1_555 1_555
C5 C6 1_555 1_555
C6 C2 1_555 1_555
C7 C1 1_555 1_555
C8 C7 1_555 1_555
C9 C8 1_555 1_555
C10 C1 1_555 1_555
C11 C3 1_555 1_555
C12 C11 1_555 1_555
C13 C12 1_555 1_555
C14 C4 1_555 1_555
H1 C2 1_555 1_555
H2 C6 1_555 1_555
H3 C11 1_555 1_555
H4 C12 1_555 1_555
H5 C13 1_555 1_555
H6 C14 1_555 1_555
H7 C5 1_555 1_555
H8 C5 1_555 1_555
C6 C7 1_555 1_555
C9 C10 1_555 1_555
C13 C14 1_555 1_555

#END
