
#######################################################################
#
#                 Cambridge Crystallographic Data Centre
#                                CCDC 
#
#######################################################################
#
# If this CIF has been generated from an entry in the Cambridge 
# Structural Database, then it will include bibliographic, chemical, 
# crystal, experimental, refinement or atomic coordinate data resulting 
# from the CCDC's data processing and validation procedures.
#
#######################################################################

data_CLSUCC01
_chemical_formula_moiety         'C4 H5 Cl1 O4'
_chemical_name_systematic        '2-chlorosuccinic acid'
_symmetry_cell_setting           orthorhombic
_symmetry_space_group_name_H-M   'P 21 21 21'
_symmetry_Int_Tables_number      19
_space_group_name_Hall           'P 2ac 2ab'
loop_
_symmetry_equiv_pos_site_id
_symmetry_equiv_pos_as_xyz
1 x,y,z
2 1/2-x,-y,1/2+z
3 1/2+x,1/2-y,-z
4 -x,1/2+y,1/2-z
_cell_length_a                   7.5593(3)
_cell_length_b                   8.5020(3)
_cell_length_c                   9.0604(4)
_cell_angle_alpha                90
_cell_angle_beta                 90
_cell_angle_gamma                90
_cell_volume                     582.304
_exptl_crystal_colour            colorless
_exptl_crystal_description       plate
_chemical_melting_point          '445-447 K'
_cell_formula_units_Z            4
loop_
_atom_site_label
_atom_site_type_symbol
_atom_site_fract_x
_atom_site_fract_y
_atom_site_fract_z
Cl1 Cl 0.10003(14) 0.71706(13) 0.05422(12)
O1 O -0.2274(4) 0.4739(4) 0.1333(4)
H1 H -0.338(3) 0.479(7) 0.143(6)
O2 O -0.1942(4) 0.6517(4) 0.3124(4)
O3 O 0.4634(4) 0.6601(4) 0.3811(4)
H2 H 0.571(4) 0.652(7) 0.356(6)
O4 O 0.4291(3) 0.5066(4) 0.1820(3)
C1 C -0.1362(5) 0.5650(5) 0.2189(5)
C2 C 0.0619(5) 0.5575(5) 0.1855(5)
H3 H 0.0926 0.4540 0.1397
C3 C 0.1731(5) 0.5854(5) 0.3192(5)
H4 H 0.1461 0.5040 0.3940
H5 H 0.1426 0.6891 0.3620
C4 C 0.3692(5) 0.5815(5) 0.2849(5)
loop_
_geom_bond_atom_site_label_1
_geom_bond_atom_site_label_2
_geom_bond_site_symmetry_1
_geom_bond_site_symmetry_2
Cl1 C2 1_555 1_555
O1 H1 1_555 1_555
O2 C1 1_555 1_555
O3 H2 1_555 1_555
O4 C4 1_555 1_555
C1 O1 1_555 1_555
C2 C1 1_555 1_555
H3 C2 1_555 1_555
C3 C2 1_555 1_555
H4 C3 1_555 1_555
H5 C3 1_555 1_555
C4 O3 1_555 1_555
C3 C4 1_555 1_555

#END
