
#######################################################################
#
#                 Cambridge Crystallographic Data Centre
#                                CCDC 
#
#######################################################################
#
# If this CIF has been generated from an entry in the Cambridge 
# Structural Database, then it will include bibliographic, chemical, 
# crystal, experimental, refinement or atomic coordinate data resulting 
# from the CCDC's data processing and validation procedures.
#
#######################################################################

data_CMTPIN
_chemical_compound_source        'Actinoplanes jinanensis n. sp.'
_chemical_formula_moiety         'C12 H11 N1 O2 S1'
_chemical_name_systematic        2-Carboxy-3-methylthiopyrano(4,3,2-cd)indole
_symmetry_cell_setting           orthorhombic
_symmetry_space_group_name_H-M   'P 21 21 21'
_symmetry_Int_Tables_number      19
_space_group_name_Hall           'P 2ac 2ab'
loop_
_symmetry_equiv_pos_site_id
_symmetry_equiv_pos_as_xyz
1 x,y,z
2 1/2+x,1/2-y,-z
3 -x,1/2+y,1/2-z
4 1/2-x,-y,1/2+z
_cell_length_a                   15.704
_cell_length_b                   13.037
_cell_length_c                   11.088
_cell_angle_alpha                90
_cell_angle_beta                 90
_cell_angle_gamma                90
_cell_volume                     2270.08
_cell_formula_units_Z            8
loop_
_atom_site_label
_atom_site_type_symbol
_atom_site_fract_x
_atom_site_fract_y
_atom_site_fract_z
S1 S 0.18922 0.12868 0.02299
O1 O 0.11012 0.09727 -0.20496
O2 O 0.22344 0.11310 -0.32709
N1 N 0.46581 0.30051 0.07746
C1 C 0.18537 0.11571 -0.22083
C2 C 0.24862 0.13824 -0.11926
C3 C 0.29235 0.24130 -0.14258
C4 C 0.35679 0.25657 -0.04325
C5 C 0.43275 0.30900 -0.04033
C6 C 0.41146 0.24697 0.14909
C7 C 0.41065 0.22137 0.27308
C8 C 0.34360 0.16834 0.31539
C9 C 0.27251 0.13571 0.24502
C10 C 0.27397 0.16236 0.12066
C11 C 0.34123 0.21609 0.07568
C12 C 0.23065 0.32947 -0.15165
S2 S -0.04746 0.49408 0.22011
O3 O -0.11935 0.55167 -0.00297
O4 O -0.01382 0.50851 -0.12975
N2 N 0.25277 0.39584 0.28260
C13 C -0.05071 0.51660 -0.02083
C14 C 0.00639 0.47058 0.07726
C15 C 0.09780 0.51766 0.06707
C16 C 0.15147 0.46602 0.16429
C17 C 0.23542 0.44042 0.16980
C18 C 0.17828 0.38913 0.34619
C19 C 0.15967 0.34967 0.46276
C20 C 0.07753 0.36612 0.50522
C21 C 0.01014 0.40690 0.43255
C22 C 0.02951 0.43952 0.31574
C23 C 0.11283 0.43468 0.27804
C24 C 0.09692 0.63310 0.07940
loop_
_geom_bond_atom_site_label_1
_geom_bond_atom_site_label_2
_geom_bond_site_symmetry_1
_geom_bond_site_symmetry_2
S1 C2 1_555 1_555
O1 C1 1_555 1_555
O2 C1 1_555 1_555
N1 C5 1_555 1_555
C1 C2 1_555 1_555
C2 C3 1_555 1_555
C3 C4 1_555 1_555
C4 C5 1_555 1_555
C6 N1 1_555 1_555
C7 C6 1_555 1_555
C8 C7 1_555 1_555
C9 C8 1_555 1_555
C10 S1 1_555 1_555
C11 C4 1_555 1_555
C12 C3 1_555 1_555
S2 C14 1_555 1_555
O3 C13 1_555 1_555
O4 C13 1_555 1_555
N2 C17 1_555 1_555
C13 C14 1_555 1_555
C14 C15 1_555 1_555
C15 C16 1_555 1_555
C16 C17 1_555 1_555
C18 N2 1_555 1_555
C19 C18 1_555 1_555
C20 C19 1_555 1_555
C21 C20 1_555 1_555
C22 S2 1_555 1_555
C23 C16 1_555 1_555
C24 C15 1_555 1_555
C6 C11 1_555 1_555
C9 C10 1_555 1_555
C10 C11 1_555 1_555
C18 C23 1_555 1_555
C21 C22 1_555 1_555
C22 C23 1_555 1_555

#END
