
#######################################################################
#
#                 Cambridge Crystallographic Data Centre
#                                CCDC 
#
#######################################################################
#
# If this CIF has been generated from an entry in the Cambridge 
# Structural Database, then it will include bibliographic, chemical, 
# crystal, experimental, refinement or atomic coordinate data resulting 
# from the CCDC's data processing and validation procedures.
#
#######################################################################

data_COBBUS
_chemical_name_common            'Valienamine azide tetra-acetate'
_chemical_formula_moiety         'C15 H19 N3 O8'
_chemical_name_systematic        
'(1S,2S,3R,6S)-4-(Acetoxymethyl)-6-azidocyclohex-4-ene-1,2,3-triyl triacetate'
_symmetry_cell_setting           orthorhombic
_symmetry_space_group_name_H-M   'P 21 21 21'
_symmetry_Int_Tables_number      19
_space_group_name_Hall           'P 2ac 2ab'
loop_
_symmetry_equiv_pos_site_id
_symmetry_equiv_pos_as_xyz
1 x,y,z
2 1/2-x,-y,1/2+z
3 -x,1/2+y,1/2-z
4 1/2+x,1/2-y,-z
_cell_length_a                   7.455(5)
_cell_length_b                   8.472(6)
_cell_length_c                   28.615(19)
_cell_angle_alpha                90
_cell_angle_beta                 90
_cell_angle_gamma                90
_cell_volume                     1807.29
_exptl_crystal_colour            colorless
_exptl_crystal_description       block
_cell_formula_units_Z            4
loop_
_atom_site_label
_atom_site_type_symbol
_atom_site_fract_x
_atom_site_fract_y
_atom_site_fract_z
C1 C 0.4304(3) 0.6570(2) 0.94466(7)
H1 H 0.3072 0.6272 0.9527
C2 C 0.5223(3) 0.5190(2) 0.92207(6)
H2 H 0.4434 0.4737 0.8982
C3 C 0.6987(3) 0.5674(2) 0.89973(7)
H3 H 0.7796 0.6124 0.9232
C4 C 0.6624(3) 0.6853(2) 0.86159(6)
H4 H 0.6153 0.6292 0.8343
C5 C 0.5312(3) 0.8103(2) 0.87555(7)
C6 C 0.4260(3) 0.7952(3) 0.91198(7)
H5 H 0.3436 0.8751 0.9179
C7 C 0.4900(3) 0.2573(3) 0.95219(8)
C8 C 0.5377(4) 0.1536(3) 0.99172(10)
H6 H 0.6304 0.0818 0.9822
H7 H 0.4339 0.0950 1.0013
H8 H 0.5799 0.2166 1.0174
C9 C 0.9557(3) 0.4082(3) 0.88071(8)
C10 C 1.0075(4) 0.2604(3) 0.85641(9)
H9 H 1.1322 0.2391 0.8619
H10 H 0.9872 0.2719 0.8235
H11 H 0.9366 0.1744 0.8681
C11 C 0.9059(3) 0.7214(3) 0.80785(8)
C12 C 1.0731(3) 0.8101(4) 0.80041(9)
H12 H 1.0452 0.9141 0.7893
H13 H 1.1457 0.7564 0.7777
H14 H 1.1375 0.8177 0.8294
C13 C 0.5990(4) 0.9581(4) 0.76372(10)
C14 C 0.5644(5) 0.8806(4) 0.71790(9)
H15 H 0.6031 0.7726 0.7192
H16 H 0.6293 0.9349 0.6938
H17 H 0.4383 0.8842 0.7111
C15 C 0.5241(3) 0.9508(3) 0.84415(8)
H18 H 0.4254 1.0190 0.8531
H19 H 0.6347 1.0105 0.8465
N1 N 0.5257(3) 0.7094(2) 0.98786(6)
N2 N 0.4833(3) 0.6338(2) 1.02253(7)
N3 N 0.4548(4) 0.5740(3) 1.05644(8)
O1 O 0.5587(2) 0.40227(16) 0.95714(5)
O2 O 0.3990(3) 0.2205(2) 0.92007(7)
O3 O 0.77522(19) 0.42627(17) 0.87978(5)
O4 O 1.0535(2) 0.5002(2) 0.89881(7)
O5 O 0.82836(17) 0.76115(17) 0.84882(4)
O6 O 0.8407(3) 0.6267(3) 0.78174(6)
O7 O 0.4996(2) 0.8965(2) 0.79731(6)
O8 O 0.7085(4) 1.0572(3) 0.77134(9)
loop_
_geom_bond_atom_site_label_1
_geom_bond_atom_site_label_2
_geom_bond_site_symmetry_1
_geom_bond_site_symmetry_2
C1 H1 1_555 1_555
C2 C1 1_555 1_555
H2 C2 1_555 1_555
C3 C2 1_555 1_555
H3 C3 1_555 1_555
C4 C3 1_555 1_555
H4 C4 1_555 1_555
C5 C4 1_555 1_555
C6 C1 1_555 1_555
H5 C6 1_555 1_555
C7 C8 1_555 1_555
C8 H6 1_555 1_555
H7 C8 1_555 1_555
H8 C8 1_555 1_555
C9 C10 1_555 1_555
C10 H9 1_555 1_555
H10 C10 1_555 1_555
H11 C10 1_555 1_555
C11 C12 1_555 1_555
C12 H12 1_555 1_555
H13 C12 1_555 1_555
H14 C12 1_555 1_555
C13 C14 1_555 1_555
C14 H15 1_555 1_555
H16 C14 1_555 1_555
H17 C14 1_555 1_555
C15 C5 1_555 1_555
H18 C15 1_555 1_555
H19 C15 1_555 1_555
N1 C1 1_555 1_555
N2 N1 1_555 1_555
N3 N2 1_555 1_555
O1 C2 1_555 1_555
O2 C7 1_555 1_555
O3 C3 1_555 1_555
O4 C9 1_555 1_555
O5 C4 1_555 1_555
O6 C11 1_555 1_555
O7 C13 1_555 1_555
O8 C13 1_555 1_555
C5 C6 1_555 1_555
C7 O1 1_555 1_555
C9 O3 1_555 1_555
C11 O5 1_555 1_555
C15 O7 1_555 1_555

#END
