
#######################################################################
#
#                 Cambridge Crystallographic Data Centre
#                                CCDC 
#
#######################################################################
#
# If this CIF has been generated from an entry in the Cambridge 
# Structural Database, then it will include bibliographic, chemical, 
# crystal, experimental, refinement or atomic coordinate data resulting 
# from the CCDC's data processing and validation procedures.
#
#######################################################################

data_COBNIR
_chemical_formula_moiety         'C12 H14 N2 2+,2(C7 H3 N2 O6 1-)'
_chemical_name_systematic        
"(1,1'-biphenyl)-4,4'-diammonium bis(3,5-dinitrobenzoate)"
_symmetry_cell_setting           monoclinic
_symmetry_space_group_name_H-M   'C 2/c'
_symmetry_Int_Tables_number      15
_space_group_name_Hall           '-C 2yn'
loop_
_symmetry_equiv_pos_site_id
_symmetry_equiv_pos_as_xyz
1 x,y,z
2 1/2+x,1/2+y,z
3 -x,y,1/2-z
4 1/2-x,1/2+y,1/2-z
5 -x,-y,-z
6 1/2-x,1/2-y,-z
7 x,-y,1/2+z
8 1/2+x,1/2-y,1/2+z
_cell_length_a                   27.069(15)
_cell_length_b                   4.709(3)
_cell_length_c                   21.732(12)
_cell_angle_alpha                90
_cell_angle_beta                 107.450(8)
_cell_angle_gamma                90
_cell_volume                     2642.65
_exptl_crystal_colour            colorless
_exptl_crystal_description       bar
_cell_formula_units_Z            4
loop_
_atom_site_label
_atom_site_type_symbol
_atom_site_fract_x
_atom_site_fract_y
_atom_site_fract_z
C1 C 0.92332(11) 0.4845(7) 0.34912(15)
C2 C 0.87349(11) 0.4856(7) 0.35435(15)
H1 H 0.8654 0.6020 0.3845
C3 C 0.83613(11) 0.3143(7) 0.31487(15)
C4 C 0.84581(11) 0.1426(7) 0.26874(15)
H2 H 0.8204 0.0250 0.2428
C5 C 0.89508(12) 0.1530(7) 0.26280(15)
C6 C 0.93410(12) 0.3166(7) 0.30241(14)
H3 H 0.9672 0.3141 0.2978
C7 C 0.96498(12) 0.6635(8) 0.39453(15)
N1 N 0.78405(10) 0.3080(8) 0.32338(14)
N2 N 0.90608(12) -0.0244(8) 0.21227(15)
O1 O 1.01130(8) 0.6073(5) 0.39740(10)
O2 O 0.95091(8) 0.8534(5) 0.42534(10)
O3 O 0.77372(9) 0.4902(6) 0.35766(13)
O4 O 0.75398(9) 0.1225(6) 0.29637(12)
O5 O 0.87470(11) -0.2021(7) 0.18630(13)
O6 O 0.94613(10) 0.0245(7) 0.19930(13)
C8 C 0.77834(10) 0.7726(7) 0.50774(14)
C9 C 0.81364(12) 0.6300(8) 0.55664(17)
H4 H 0.8016 0.5035 0.5818
C10 C 0.86650(12) 0.6680(8) 0.56979(16)
H5 H 0.8894 0.5648 0.6026
C11 C 0.88482(10) 0.8553(7) 0.53483(14)
C12 C 0.85124(12) 1.0055(8) 0.48688(17)
H6 H 0.8635 1.1366 0.4630
C13 C 0.79828(12) 0.9613(8) 0.47384(17)
H7 H 0.7756 1.0644 0.4408
N3 N 0.94071(8) 0.8956(6) 0.54770(11)
H8 H 0.9483 0.8953 0.5106
H9 H 0.9576 0.7551 0.5726
H10 H 0.9501 1.0608 0.5677
C8E C 0.72166(10) 0.7274(7) 0.49226(14)
C9E C 0.68636(12) 0.8700(8) 0.44336(17)
H4E H 0.6984 0.9965 0.4182
C10E C 0.63350(12) 0.8320(8) 0.43021(16)
H5E H 0.6106 0.9352 0.3974
C11E C 0.61518(10) 0.6447(7) 0.46517(14)
C12E C 0.64876(12) 0.4945(8) 0.51312(17)
H6E H 0.6365 0.3634 0.5370
C13E C 0.70172(12) 0.5387(8) 0.52616(17)
H7E H 0.7244 0.4356 0.5592
N3E N 0.55929(8) 0.6044(6) 0.45230(11)
H8E H 0.5517 0.6047 0.4894
H9E H 0.5424 0.7449 0.4274
H10E H 0.5499 0.4392 0.4323
loop_
_geom_bond_atom_site_label_1
_geom_bond_atom_site_label_2
_geom_bond_site_symmetry_1
_geom_bond_site_symmetry_2
C1 C2 1_555 1_555
C2 H1 1_555 1_555
C3 C2 1_555 1_555
C4 C3 1_555 1_555
H2 C4 1_555 1_555
C5 C4 1_555 1_555
C6 C1 1_555 1_555
H3 C6 1_555 1_555
C7 C1 1_555 1_555
C8 C9 1_555 1_555
C9 H4 1_555 1_555
C10 C9 1_555 1_555
H5 C10 1_555 1_555
C11 C10 1_555 1_555
C12 C11 1_555 1_555
H6 C12 1_555 1_555
C13 C8 1_555 1_555
H7 C13 1_555 1_555
N1 C3 1_555 1_555
N2 C5 1_555 1_555
N3 C11 1_555 1_555
H8 N3 1_555 1_555
H9 N3 1_555 1_555
H10 N3 1_555 1_555
O1 C7 1_555 1_555
O2 C7 1_555 1_555
O3 N1 1_555 1_555
O4 N1 1_555 1_555
O5 N2 1_555 1_555
O6 N2 1_555 1_555
C8E C8 1_555 1_555
C9E C8E 1_555 1_555
H4E C9E 1_555 1_555
C10E C9E 1_555 1_555
H5E C10E 1_555 1_555
C11E C10E 1_555 1_555
C12E C11E 1_555 1_555
H6E C12E 1_555 1_555
C13E C8E 1_555 1_555
H7E C13E 1_555 1_555
N3E C11E 1_555 1_555
H8E N3E 1_555 1_555
H9E N3E 1_555 1_555
H10E N3E 1_555 1_555
C5 C6 1_555 1_555
C12 C13 1_555 1_555
C12E C13E 1_555 1_555

#END
