
#######################################################################
#
#                 Cambridge Crystallographic Data Centre
#                                CCDC 
#
#######################################################################
#
# If this CIF has been generated from an entry in the Cambridge 
# Structural Database, then it will include bibliographic, chemical, 
# crystal, experimental, refinement or atomic coordinate data resulting 
# from the CCDC's data processing and validation procedures.
#
#######################################################################

data_COBNOX
_chemical_formula_moiety         'C13 H16 N2 2+,2(C7 H3 N2 O6 1-),H2 O1'
_chemical_name_systematic        
"4,4'-methylenebis(phenylammonium) bis(3,5-dinitrobenzoate) monohydrate"
_symmetry_cell_setting           monoclinic
_symmetry_space_group_name_H-M   'P 2/c'
_symmetry_Int_Tables_number      13
_space_group_name_Hall           '-P 2yc'
loop_
_symmetry_equiv_pos_site_id
_symmetry_equiv_pos_as_xyz
1 x,y,z
2 -x,y,1/2-z
3 -x,-y,-z
4 x,-y,1/2+z
_cell_length_a                   12.548(4)
_cell_length_b                   4.1444(12)
_cell_length_c                   27.736(8)
_cell_angle_alpha                90
_cell_angle_beta                 101.494(5)
_cell_angle_gamma                90
_cell_volume                     1413.45
_exptl_crystal_colour            colorless
_cell_formula_units_Z            2
loop_
_atom_site_label
_atom_site_type_symbol
_atom_site_fract_x
_atom_site_fract_y
_atom_site_fract_z
N1 N 0.9439(2) 0.3479(7) 0.41865(13)
N2 N 0.6968(3) 0.4273(7) 0.53382(10)
O1 O 0.50602(15) 1.0079(4) 0.37933(7)
O2 O 0.62605(17) 1.0120(5) 0.33028(7)
O3 O 0.9651(2) 0.4291(8) 0.37937(12)
O4 O 1.0030(2) 0.1826(7) 0.44885(11)
O5 O 0.7580(3) 0.2509(7) 0.56121(9)
O6 O 0.6169(3) 0.5490(8) 0.54439(8)
C1 C 0.67360(19) 0.7469(5) 0.40674(8)
C2 C 0.7709(2) 0.6375(6) 0.39623(9)
H6 H 0.7884 0.6819 0.3659
C3 C 0.8413(2) 0.4634(6) 0.43088(10)
C4 C 0.8196(2) 0.3905(6) 0.47586(10)
H7 H 0.8680 0.2715 0.4989
C5 C 0.7223(2) 0.5017(6) 0.48572(9)
C6 C 0.6490(2) 0.6771(6) 0.45184(9)
H8 H 0.5839 0.7471 0.4594
C7 C 0.5959(2) 0.9409(6) 0.36868(10)
N3 N 0.38822(16) 0.4506(5) 0.32522(8)
H1 H 0.3743 0.6153 0.3436
H2 H 0.4171 0.5245 0.3005
H3 H 0.4348 0.3163 0.3436
C8 C 0.10070(18) -0.0714(5) 0.26965(10)
C9 C 0.1639(2) 0.0516(6) 0.23831(10)
H9 H 0.1431 0.0158 0.2047
C10 C 0.25728(19) 0.2265(6) 0.25606(9)
H10 H 0.2991 0.3069 0.2346
C11 C 0.28723(18) 0.2796(5) 0.30542(9)
C12 C 0.2267(2) 0.1612(6) 0.33714(9)
H11 H 0.2482 0.1975 0.3708
C13 C 0.1336(2) -0.0122(5) 0.31930(10)
H12 H 0.0923 -0.0908 0.3411
C14 C 0.0000 -0.2707(8) 0.2500
H13 H -0.0147 -0.4088 0.2761
H14 H 0.0147 -0.4088 0.2239
N3A N -0.38822(16) 0.4506(5) 0.17478(8)
H1A H -0.3743 0.6153 0.1564
H2A H -0.4171 0.5245 0.1995
H3A H -0.4348 0.3163 0.1564
C8A C -0.10070(18) -0.0714(5) 0.23035(10)
C9A C -0.1639(2) 0.0516(6) 0.26169(10)
H9A H -0.1431 0.0158 0.2953
C10A C -0.25728(19) 0.2265(6) 0.24394(9)
H10A H -0.2991 0.3069 0.2654
C11A C -0.28723(18) 0.2796(5) 0.19458(9)
C12A C -0.2267(2) 0.1612(6) 0.16286(9)
H11A H -0.2482 0.1975 0.1292
C13A C -0.1336(2) -0.0122(5) 0.18070(10)
H12A H -0.0923 -0.0908 0.1589
O7 O 0.5000 0.7245(6) 0.2500
H4? H 0.519(4) 0.878(8) 0.2695(16)
H5? H 0.449(3) 0.794(9) 0.2285(16)
loop_
_geom_bond_atom_site_label_1
_geom_bond_atom_site_label_2
_geom_bond_site_symmetry_1
_geom_bond_site_symmetry_2
N1 O3 1_555 1_555
N2 O5 1_555 1_555
N3 H1 1_555 1_555
H2 N3 1_555 1_555
H3 N3 1_555 1_555
O1 C7 1_555 1_555
O2 C7 1_555 1_555
O4 N1 1_555 1_555
O6 N2 1_555 1_555
C1 C2 1_555 1_555
C2 H6 1_555 1_555
C3 N1 1_555 1_555
C4 C3 1_555 1_555
H7 C4 1_555 1_555
C5 N2 1_555 1_555
C6 C1 1_555 1_555
H8 C6 1_555 1_555
C7 C1 1_555 1_555
C8 C9 1_555 1_555
C9 H9 1_555 1_555
C10 C9 1_555 1_555
H10 C10 1_555 1_555
C11 N3 1_555 1_555
C12 C11 1_555 1_555
H11 C12 1_555 1_555
C13 C8 1_555 1_555
H12 C13 1_555 1_555
C14 C8 1_555 1_555
H13 C14 1_555 1_555
H14 C14 1_555 1_555
N3A H1A 1_555 1_555
H2A N3A 1_555 1_555
H3A N3A 1_555 1_555
C8A C14 1_555 1_555
C9A C8A 1_555 1_555
H9A C9A 1_555 1_555
C10A C9A 1_555 1_555
H10A C10A 1_555 1_555
C11A N3A 1_555 1_555
C12A C11A 1_555 1_555
H11A C12A 1_555 1_555
C13A C8A 1_555 1_555
H12A C13A 1_555 1_555
C2 C3 1_555 1_555
C4 C5 1_555 1_555
C5 C6 1_555 1_555
C10 C11 1_555 1_555
C12 C13 1_555 1_555
C10A C11A 1_555 1_555
C12A C13A 1_555 1_555

#END
