
#######################################################################
#
#                 Cambridge Crystallographic Data Centre
#                                CCDC 
#
#######################################################################
#
# If this CIF has been generated from an entry in the Cambridge 
# Structural Database, then it will include bibliographic, chemical, 
# crystal, experimental, refinement or atomic coordinate data resulting 
# from the CCDC's data processing and validation procedures.
#
#######################################################################

data_COBXIB
_chemical_formula_moiety         'C39 H36 N2 O5'
_chemical_name_systematic        
'1-(Hydroxy(diphenyl)methyl)-7,7-dimethylbicyclo[2.2.1]hept-2-yl 1-(1,3-dioxo-1,3-dihydroisoindol-2-yl)-(3S)-phenylaziridine-(2R)-carboxylate'
_symmetry_cell_setting           orthorhombic
_symmetry_space_group_name_H-M   'P 21 21 21'
_symmetry_Int_Tables_number      19
_space_group_name_Hall           'P 2ac 2ab'
loop_
_symmetry_equiv_pos_site_id
_symmetry_equiv_pos_as_xyz
1 x,y,z
2 1/2+x,1/2-y,-z
3 -x,1/2+y,1/2-z
4 1/2-x,-y,1/2+z
_cell_length_a                   13.206
_cell_length_b                   17.932
_cell_length_c                   30.597
_cell_angle_alpha                90
_cell_angle_beta                 90
_cell_angle_gamma                90
_cell_volume                     7245.68
_exptl_crystal_colour            colorless
_exptl_crystal_description       prism
_cell_formula_units_Z            8
loop_
_atom_site_label
_atom_site_type_symbol
_atom_site_fract_x
_atom_site_fract_y
_atom_site_fract_z
C1 C 0.6812(5) 0.3752(4) 0.1536(2)
C2 C 0.7872(5) 0.4000(4) 0.1530(2)
H1 H 0.7974 0.4529 0.1462
C3 C 0.8558(5) 0.3689(4) 0.1872(2)
H2 H 0.8265 0.3290 0.2050
C4 C 0.9374(6) 0.4112(4) 0.2083(3)
C5 C 0.9488(8) 0.4094(6) 0.2523(4)
H3 H 0.9061 0.3799 0.2692
C6 C 1.0257(12) 0.4525(8) 0.2725(4)
H4 H 1.0346 0.4507 0.3027
C7 C 1.0825(8) 0.4937(7) 0.2491(5)
H5 H 1.1314 0.5220 0.2633
C8 C 1.0770(7) 0.4992(6) 0.2059(4)
H6 H 1.1197 0.5304 0.1902
C9 C 1.0028(7) 0.4551(5) 0.1851(4)
H7 H 0.9982 0.4559 0.1548
C10 C 0.7950(6) 0.2592(4) 0.0897(3)
C11 C 0.8074(7) 0.1786(5) 0.0850(3)
C12 C 0.7717(8) 0.1334(6) 0.0511(4)
H8 H 0.7330 0.1519 0.0282
C13 C 0.7983(13) 0.0589(8) 0.0543(6)
H9 H 0.7787 0.0271 0.0318
C14 C 0.8515(16) 0.0293(6) 0.0884(7)
H10 H 0.8650 -0.0216 0.0894
C15 C 0.8847(10) 0.0753(6) 0.1211(4)
H11 H 0.9208 0.0561 0.1447
C16 C 0.8635(7) 0.1511(4) 0.1186(4)
C17 C 0.8897(7) 0.2132(5) 0.1474(3)
C18 C 0.5115(4) 0.4175(3) 0.1447(2)
H12 H 0.4993 0.3900 0.1719
C19 C 0.4561(5) 0.4936(4) 0.1463(2)
C20 C 0.3529(5) 0.4730(4) 0.1667(2)
H13 H 0.3617 0.4423 0.1925
H14 H 0.3150 0.5174 0.1746
C21 C 0.2986(6) 0.4289(4) 0.1297(3)
H15 H 0.2829 0.3784 0.1389
H16 H 0.2366 0.4536 0.1208
C22 C 0.3751(6) 0.4290(4) 0.0934(3)
H17 H 0.3467 0.4185 0.0644
C23 C 0.4620(5) 0.3771(4) 0.1067(3)
H18 H 0.5094 0.3703 0.0828
H19 H 0.4365 0.3287 0.1157
C24 C 0.4254(5) 0.5064(4) 0.0975(2)
C25 C 0.3479(6) 0.5710(4) 0.0900(3)
H20 H 0.3336 0.5754 0.0593
H21 H 0.3762 0.6170 0.1005
H22 H 0.2864 0.5604 0.1055
C26 C 0.5090(6) 0.5181(5) 0.0637(2)
H23 H 0.4791 0.5262 0.0355
H24 H 0.5516 0.4748 0.0626
H25 H 0.5488 0.5608 0.0716
C27 C 0.5186(4) 0.5581(3) 0.1713(2)
C28 C 0.5727(5) 0.5313(4) 0.2126(2)
C29 C 0.5359(5) 0.4770(4) 0.2410(2)
H26 H 0.4741 0.4547 0.2345
C30 C 0.5867(6) 0.4545(5) 0.2782(3)
H27 H 0.5595 0.4182 0.2964
C31 C 0.6754(9) 0.4861(6) 0.2874(3)
H28 H 0.7109 0.4712 0.3122
C32 C 0.7164(7) 0.5418(6) 0.2600(4)
H29 H 0.7784 0.5635 0.2668
C33 C 0.6640(6) 0.5641(4) 0.2231(3)
H30 H 0.6905 0.6013 0.2052
C34 C 0.4523(5) 0.6268(3) 0.1825(2)
C35 C 0.4573(5) 0.6911(4) 0.1567(2)
H31 H 0.5000 0.6930 0.1326
C36 C 0.3971(6) 0.7530(4) 0.1678(3)
H32 H 0.3977 0.7950 0.1499
C37 C 0.3393(7) 0.7523(5) 0.2035(4)
H33 H 0.3028 0.7946 0.2113
C38 C 0.3336(6) 0.6887(5) 0.2288(3)
H34 H 0.2914 0.6879 0.2532
C39 C 0.3901(5) 0.6262(4) 0.2184(2)
H35 H 0.3858 0.5837 0.2358
O1 O 0.6196(3) 0.4284(2) 0.13865(15)
O2 O 0.6516(4) 0.3143(3) 0.16642(19)
O3 O 0.7525(4) 0.3044(3) 0.0674(2)
O4 O 0.9421(6) 0.2141(3) 0.1801(3)
O5 O 0.5932(3) 0.5852(2) 0.14124(15)
H71 H 0.6328 0.5515 0.1352
N1 N 0.8720(4) 0.3495(3) 0.1402(2)
N2 N 0.8433(4) 0.2744(3) 0.1292(2)
C40 C 0.7685(6) 0.8112(4) 0.1240(2)
C41 C 0.7043(5) 0.7934(4) 0.1614(2)
H36 H 0.6835 0.7412 0.1641
C42 C 0.7225(5) 0.8335(3) 0.2026(2)
H37 H 0.7754 0.8718 0.2016
C43 C 0.7096(6) 0.7961(4) 0.2452(2)
C44 C 0.6175(6) 0.7676(5) 0.2579(2)
H38 H 0.5614 0.7736 0.2399
C45 C 0.6075(8) 0.7300(6) 0.2972(4)
H39 H 0.5440 0.7135 0.3061
C46 C 0.6867(9) 0.7175(6) 0.3219(4)
H40 H 0.6795 0.6893 0.3473
C47 C 0.7777(8) 0.7447(6) 0.3113(3)
H41 H 0.8327 0.7368 0.3298
C48 C 0.7907(6) 0.7855(5) 0.2720(3)
H42 H 0.8538 0.8049 0.2647
C49 C 0.5783(6) 0.9243(4) 0.1161(2)
C50 C 0.5619(5) 1.0073(4) 0.1080(2)
C51 C 0.5147(6) 1.0425(4) 0.0751(3)
H43 H 0.4860 1.0166 0.0519
C52 C 0.5113(7) 1.1218(5) 0.0778(3)
H44 H 0.4802 1.1493 0.0558
C53 C 0.5528(7) 1.1569(4) 0.1121(3)
H45 H 0.5483 1.2086 0.1129
C54 C 0.6016(6) 1.1220(4) 0.1462(3)
H46 H 0.6306 1.1482 0.1692
C55 C 0.6042(5) 1.0430(4) 0.1433(2)
C56 C 0.6499(5) 0.9899(4) 0.1747(2)
C57 C 0.8442(6) 0.7641(4) 0.0599(2)
H47 H 0.9038 0.7915 0.0704
C58 C 0.8761(5) 0.6867(3) 0.0404(2)
C59 C 0.9718(5) 0.7072(4) 0.0136(2)
H48 H 1.0175 0.7377 0.0308
H49 H 1.0073 0.6626 0.0044
C60 C 0.9324(6) 0.7505(4) -0.0259(3)
H50 H 0.9493 0.7255 -0.0530
H51 H 0.9596 0.8008 -0.0265
C61 C 0.8165(6) 0.7510(5) -0.0180(3)
H52 H 0.7761 0.7610 -0.0442
C62 C 0.7960(7) 0.8044(5) 0.0200(3)
H53 H 0.7239 0.8117 0.0243
H54 H 0.8278 0.8524 0.0151
C63 C 0.7993(5) 0.6733(4) 0.0022(2)
C64 C 0.6856(6) 0.6635(5) 0.0152(3)
H55 H 0.6669 0.7018 0.0356
H56 H 0.6762 0.6155 0.0284
H57 H 0.6440 0.6672 -0.0104
C65 C 0.8230(6) 0.6106(4) -0.0293(3)
H58 H 0.8111 0.5635 -0.0152
H59 H 0.8927 0.6137 -0.0381
H60 H 0.7804 0.6147 -0.0546
C66 C 0.8905(5) 0.6265(4) 0.0780(2)
C67 C 0.9440(5) 0.5548(4) 0.0625(2)
C68 C 1.0497(6) 0.5539(5) 0.0585(2)
H61 H 1.0869 0.5967 0.0647
C69 C 1.0994(7) 0.4888(6) 0.0451(3)
H62 H 1.1694 0.4884 0.0415
C70 C 1.0428(10) 0.4250(6) 0.0373(3)
H63 H 1.0750 0.3814 0.0284
C71 C 0.9426(8) 0.4257(5) 0.0426(3)
H64 H 0.9063 0.3817 0.0387
C72 C 0.8916(6) 0.4900(4) 0.0536(2)
H65 H 0.8212 0.4898 0.0551
C73 C 0.9434(6) 0.6564(4) 0.1186(2)
C74 C 1.0297(7) 0.7002(5) 0.1186(3)
H66 H 1.0591 0.7149 0.0923
C75 C 1.0719(10) 0.7220(7) 0.1579(5)
H67 H 1.1320 0.7491 0.1578
C76 C 1.0274(13) 0.7047(8) 0.1974(5)
H68 H 1.0560 0.7211 0.2234
C77 C 0.9431(11) 0.6641(6) 0.1979(4)
H69 H 0.9125 0.6524 0.2244
C78 C 0.9015(6) 0.6397(4) 0.1598(3)
H70 H 0.8430 0.6108 0.1611
O6 O 0.7709(3) 0.7557(2) 0.09464(15)
O7 O 0.8177(5) 0.8683(3) 0.12052(19)
O8 O 0.6879(4) 0.9985(3) 0.20921(17)
O9 O 0.5540(5) 0.8724(3) 0.09405(18)
O10 O 0.7906(3) 0.6002(2) 0.08927(15)
H72 H 0.7578 0.6346 0.0999
N3 N 0.6307(4) 0.8505(3) 0.17842(18)
N4 N 0.6297(4) 0.9197(3) 0.15519(17)
loop_
_geom_bond_atom_site_label_1
_geom_bond_atom_site_label_2
_geom_bond_site_symmetry_1
_geom_bond_site_symmetry_2
C1 C2 1_555 1_555
C2 H1 1_555 1_555
C3 C2 1_555 1_555
H2 C3 1_555 1_555
C4 C3 1_555 1_555
C5 C4 1_555 1_555
H3 C5 1_555 1_555
C6 C5 1_555 1_555
H4 C6 1_555 1_555
C7 C6 1_555 1_555
H5 C7 1_555 1_555
C8 C7 1_555 1_555
H6 C8 1_555 1_555
C9 C4 1_555 1_555
H7 C9 1_555 1_555
C10 C11 1_555 1_555
C11 C12 1_555 1_555
C12 H8 1_555 1_555
C13 C12 1_555 1_555
H9 C13 1_555 1_555
C14 C13 1_555 1_555
H10 C14 1_555 1_555
C15 C14 1_555 1_555
H11 C15 1_555 1_555
C16 C11 1_555 1_555
C17 C16 1_555 1_555
C18 H12 1_555 1_555
C19 C18 1_555 1_555
C20 C19 1_555 1_555
H13 C20 1_555 1_555
H14 C20 1_555 1_555
C21 C20 1_555 1_555
H15 C21 1_555 1_555
H16 C21 1_555 1_555
C22 C21 1_555 1_555
H17 C22 1_555 1_555
C23 C18 1_555 1_555
H18 C23 1_555 1_555
H19 C23 1_555 1_555
C24 C19 1_555 1_555
C25 C24 1_555 1_555
H20 C25 1_555 1_555
H21 C25 1_555 1_555
H22 C25 1_555 1_555
C26 C24 1_555 1_555
H23 C26 1_555 1_555
H24 C26 1_555 1_555
H25 C26 1_555 1_555
C27 C19 1_555 1_555
C28 C27 1_555 1_555
C29 C28 1_555 1_555
H26 C29 1_555 1_555
C30 C29 1_555 1_555
H27 C30 1_555 1_555
C31 C30 1_555 1_555
H28 C31 1_555 1_555
C32 C31 1_555 1_555
H29 C32 1_555 1_555
C33 C28 1_555 1_555
H30 C33 1_555 1_555
C34 C27 1_555 1_555
C35 C34 1_555 1_555
H31 C35 1_555 1_555
C36 C35 1_555 1_555
H32 C36 1_555 1_555
C37 C36 1_555 1_555
H33 C37 1_555 1_555
C38 C37 1_555 1_555
H34 C38 1_555 1_555
C39 C34 1_555 1_555
H35 C39 1_555 1_555
C40 C41 1_555 1_555
C41 H36 1_555 1_555
C42 C41 1_555 1_555
H37 C42 1_555 1_555
C43 C42 1_555 1_555
C44 C43 1_555 1_555
H38 C44 1_555 1_555
C45 C44 1_555 1_555
H39 C45 1_555 1_555
C46 C45 1_555 1_555
H40 C46 1_555 1_555
C47 C46 1_555 1_555
H41 C47 1_555 1_555
C48 C43 1_555 1_555
H42 C48 1_555 1_555
C49 C50 1_555 1_555
C50 C51 1_555 1_555
C51 H43 1_555 1_555
C52 C51 1_555 1_555
H44 C52 1_555 1_555
C53 C52 1_555 1_555
H45 C53 1_555 1_555
C54 C53 1_555 1_555
H46 C54 1_555 1_555
C55 C50 1_555 1_555
C56 C55 1_555 1_555
C57 H47 1_555 1_555
C58 C57 1_555 1_555
C59 C58 1_555 1_555
H48 C59 1_555 1_555
H49 C59 1_555 1_555
C60 C59 1_555 1_555
H50 C60 1_555 1_555
H51 C60 1_555 1_555
C61 C60 1_555 1_555
H52 C61 1_555 1_555
C62 C57 1_555 1_555
H53 C62 1_555 1_555
H54 C62 1_555 1_555
C63 C58 1_555 1_555
C64 C63 1_555 1_555
H55 C64 1_555 1_555
H56 C64 1_555 1_555
H57 C64 1_555 1_555
C65 C63 1_555 1_555
H58 C65 1_555 1_555
H59 C65 1_555 1_555
H60 C65 1_555 1_555
C66 C58 1_555 1_555
C67 C66 1_555 1_555
C68 C67 1_555 1_555
H61 C68 1_555 1_555
C69 C68 1_555 1_555
H62 C69 1_555 1_555
C70 C69 1_555 1_555
H63 C70 1_555 1_555
C71 C70 1_555 1_555
H64 C71 1_555 1_555
C72 C67 1_555 1_555
H65 C72 1_555 1_555
C73 C66 1_555 1_555
C74 C73 1_555 1_555
H66 C74 1_555 1_555
C75 C74 1_555 1_555
H67 C75 1_555 1_555
C76 C75 1_555 1_555
H68 C76 1_555 1_555
C77 C76 1_555 1_555
H69 C77 1_555 1_555
C78 C73 1_555 1_555
H70 C78 1_555 1_555
O1 C1 1_555 1_555
O2 C1 1_555 1_555
O3 C10 1_555 1_555
O4 C17 1_555 1_555
O5 C27 1_555 1_555
H71 O5 1_555 1_555
O6 C40 1_555 1_555
O7 C40 1_555 1_555
O8 C56 1_555 1_555
O9 C49 1_555 1_555
O10 C66 1_555 1_555
H72 O10 1_555 1_555
N1 C2 1_555 1_555
N2 C10 1_555 1_555
N3 C41 1_555 1_555
N4 C49 1_555 1_555
C3 N1 1_555 1_555
C8 C9 1_555 1_555
C15 C16 1_555 1_555
C17 N2 1_555 1_555
C18 O1 1_555 1_555
C22 C23 1_555 1_555
C22 C24 1_555 1_555
C32 C33 1_555 1_555
C38 C39 1_555 1_555
C42 N3 1_555 1_555
C47 C48 1_555 1_555
C54 C55 1_555 1_555
C56 N4 1_555 1_555
C57 O6 1_555 1_555
C61 C62 1_555 1_555
C61 C63 1_555 1_555
C71 C72 1_555 1_555
C77 C78 1_555 1_555
N1 N2 1_555 1_555
N3 N4 1_555 1_555

#END
