
#######################################################################
#
#                 Cambridge Crystallographic Data Centre
#                                CCDC 
#
#######################################################################
#
# If this CIF has been generated from an entry in the Cambridge 
# Structural Database, then it will include bibliographic, chemical, 
# crystal, experimental, refinement or atomic coordinate data resulting 
# from the CCDC's data processing and validation procedures.
#
#######################################################################

data_COBXOH
_chemical_formula_moiety         'C27 H32 O3'
_chemical_name_systematic        
'(S)-cis-1-(Hydroxy(diphenyl)methyl)-7,7-dimethylbicyclo[2.2.1]hept-2-yl 3-methylbut-2-enoate'
_symmetry_cell_setting           orthorhombic
_symmetry_space_group_name_H-M   'P 21 21 21'
_symmetry_Int_Tables_number      19
_space_group_name_Hall           'P 2ac 2ab'
loop_
_symmetry_equiv_pos_site_id
_symmetry_equiv_pos_as_xyz
1 x,y,z
2 1/2+x,1/2-y,-z
3 -x,1/2+y,1/2-z
4 1/2-x,-y,1/2+z
_cell_length_a                   12.621(3)
_cell_length_b                   17.873(6)
_cell_length_c                   20.580(4)
_cell_angle_alpha                90
_cell_angle_beta                 90
_cell_angle_gamma                90
_cell_volume                     4642.34
_exptl_crystal_colour            colorless
_exptl_crystal_description       prism
_cell_formula_units_Z            8
loop_
_atom_site_label
_atom_site_type_symbol
_atom_site_fract_x
_atom_site_fract_y
_atom_site_fract_z
O1 O -0.9437(3) -0.9940(2) -0.37604(17)
O2 O -0.9851(2) -0.94004(18) -0.47128(14)
O3 O -0.8975(2) -0.94777(17) -0.59752(14)
C1 C -1.1578(6) -1.1752(3) -0.4488(3)
C2 C -1.0737(5) -1.1224(3) -0.4245(2)
C3 C -1.0055(7) -1.1524(4) -0.3718(3)
C4 C -1.0645(4) -1.0540(3) -0.4485(2)
C5 C -0.9917(4) -0.9963(3) -0.4262(2)
C6 C -0.9147(4) -0.8779(2) -0.4564(2)
C7 C -0.9784(4) -0.8061(3) -0.4391(3)
C8 C -0.9335(4) -0.7480(3) -0.4854(3)
C9 C -0.8210(4) -0.7324(3) -0.4650(3)
C10 C -0.7607(4) -0.8038(3) -0.4857(2)
C11 C -0.8490(3) -0.8541(2) -0.5160(2)
C12 C -0.9207(4) -0.7920(3) -0.5495(3)
C13 C -0.8693(5) -0.7444(3) -0.6020(3)
C14 C -1.0281(4) -0.8161(3) -0.5769(3)
C15 C -0.8096(3) -0.9227(2) -0.5585(2)
C16 C -0.7701(3) -0.9903(3) -0.5193(2)
C17 C -0.7842(4) -1.0605(3) -0.5453(3)
C18 C -0.7516(5) -1.1248(3) -0.5135(4)
C19 C -0.7017(5) -1.1202(4) -0.4548(4)
C20 C -0.6821(4) -1.0513(4) -0.4297(3)
C21 C -0.7164(4) -0.9871(3) -0.4611(2)
C22 C -0.7247(3) -0.9001(3) -0.6085(2)
C23 C -0.7523(4) -0.8851(3) -0.6728(2)
C24 C -0.6757(5) -0.8640(4) -0.7171(3)
C25 C -0.5704(5) -0.8592(4) -0.6987(3)
C26 C -0.5427(4) -0.8759(3) -0.6357(3)
C27 C -0.6191(4) -0.8965(3) -0.5912(2)
H1 H -0.9584 -0.9284 -0.5731
H3 H -1.1229 -1.2164 -0.4841
H4 H -1.1925 -1.2082 -0.4101
H5 H -1.2156 -1.1427 -0.4734
H6 H -0.9315 -1.1196 -0.3708
H7 H -1.0442 -1.1462 -0.3258
H8 H -0.9788 -1.2111 -0.3746
H9 H -1.1138 -1.0424 -0.4865
H10 H -0.8611 -0.8909 -0.4144
H11 H -1.0619 -0.8149 -0.4495
H12 H -0.9694 -0.7892 -0.3893
H13 H -0.9816 -0.6967 -0.4891
H14 H -0.7861 -0.6831 -0.4899
H15 H -0.8115 -0.7221 -0.4127
H16 H -0.7240 -0.8301 -0.4432
H17 H -0.6990 -0.7912 -0.5205
H18 H -0.8573 -0.7768 -0.6470
H19 H -0.9146 -0.6949 -0.6146
H20 H -0.7910 -0.7270 -0.5846
H21 H -1.0789 -0.7678 -0.5865
H22 H -1.0165 -0.8450 -0.6238
H23 H -1.0694 -0.8537 -0.5450
H24 H -0.8230 -1.0647 -0.5886
H25 H -0.7608 -1.1745 -0.5339
H26 H -0.6824 -1.1700 -0.4307
H27 H -0.6448 -1.0482 -0.3862
H28 H -0.6992 -0.9381 -0.4418
H29 H -0.8284 -0.8916 -0.6881
H30 H -0.6976 -0.8504 -0.7635
H31 H -0.5148 -0.8468 -0.7309
H32 H -0.4662 -0.8722 -0.6220
H33 H -0.5983 -0.9081 -0.5445
O4 O 0.0975(3) -1.1395(3) -0.8236(2)
O5 O 0.0194(2) -1.06238(18) -0.75354(15)
O6 O -0.0800(2) -1.02914(17) -0.63630(15)
C28 C 0.3820(5) -1.0878(5) -0.7035(4)
C29 C 0.2893(4) -1.1164(4) -0.7395(3)
C30 C 0.3059(8) -1.1865(6) -0.7741(5)
C31 C 0.2003(4) -1.0771(3) -0.7428(3)
C32 C 0.1040(4) -1.0981(3) -0.7776(3)
C33 C -0.0827(4) -1.0805(3) -0.7826(2)
C34 C -0.1057(4) -1.0304(3) -0.8411(2)
C35 C -0.2140(4) -0.9966(3) -0.8251(2)
C36 C -0.2953(5) -1.0588(4) -0.8282(3)
C37 C -0.2702(4) -1.1067(3) -0.7672(2)
C38 C -0.1755(3) -1.0646(3) -0.7345(2)
C39 C -0.2057(4) -0.9803(3) -0.7511(2)
C40 C -0.3118(5) -0.9521(4) -0.7234(3)
C41 C -0.1234(5) -0.9197(3) -0.7361(3)
C42 C -0.1500(3) -1.0848(3) -0.6617(2)
C43 C -0.0940(3) -1.1621(3) -0.6536(2)
C44 C -0.1131(5) -1.2246(3) -0.6911(2)
C45 C -0.0598(5) -1.2911(3) -0.6802(3)
C46 C 0.0127(5) -1.2983(3) -0.6321(3)
C47 C 0.0308(5) -1.2371(4) -0.5928(3)
C48 C -0.0217(4) -1.1702(3) -0.6036(3)
C49 C -0.2463(3) -1.0824(3) -0.6174(2)
C50 C -0.3176(4) -1.1421(3) -0.6138(3)
C51 C -0.4058(5) -1.1360(5) -0.5722(3)
C52 C -0.4212(5) -1.0740(6) -0.5353(3)
C53 C -0.3502(5) -1.0155(4) -0.5385(3)
C54 C -0.2656(4) -1.0203(3) -0.5786(3)
H2 H -0.0234 -1.0182 -0.6661
H34 H 0.3678 -1.0409 -0.6825
H35 H 0.4443 -1.0807 -0.7339
H36 H 0.4074 -1.1247 -0.6701
H37 H 0.2697 -1.1861 -0.8164
H38 H 0.3805 -1.1984 -0.7801
H39 H 0.2722 -1.2385 -0.7494
H40 H 0.2015 -1.0285 -0.7193
H41 H -0.0872 -1.1398 -0.7966
H42 H -0.0450 -0.9881 -0.8479
H43 H -0.1092 -1.0631 -0.8872
H44 H -0.2335 -0.9472 -0.8548
H45 H -0.2839 -1.0920 -0.8738
H46 H -0.3752 -1.0368 -0.8301
H47 H -0.3409 -1.1089 -0.7336
H48 H -0.2517 -1.1653 -0.7778
H49 H -0.3747 -0.9948 -0.7303
H50 H -0.3084 -0.9384 -0.6729
H51 H -0.3436 -0.9014 -0.7491
H52 H -0.0439 -0.9354 -0.7530
H53 H -0.1422 -0.8658 -0.7606
H54 H -0.1183 -0.9079 -0.6844
H55 H -0.1671 -1.2209 -0.7266
H56 H -0.0736 -1.3365 -0.7085
H57 H 0.0512 -1.3466 -0.6235
H58 H 0.0841 -1.2410 -0.5557
H59 H -0.0050 -1.1261 -0.5743
H60 H -0.3048 -1.1884 -0.6395
H61 H -0.4603 -1.1782 -0.5705
H62 H -0.4859 -1.0738 -0.5065
H63 H -0.3640 -0.9708 -0.5088
H64 H -0.2151 -0.9767 -0.5804
loop_
_geom_bond_atom_site_label_1
_geom_bond_atom_site_label_2
_geom_bond_site_symmetry_1
_geom_bond_site_symmetry_2
O1 C5 1_555 1_555
O2 C5 1_555 1_555
O3 C15 1_555 1_555
O4 C32 1_555 1_555
O5 C32 1_555 1_555
O6 C42 1_555 1_555
C1 C2 1_555 1_555
C2 C3 1_555 1_555
C3 H6 1_555 1_555
C4 C2 1_555 1_555
C5 C4 1_555 1_555
C6 O2 1_555 1_555
C7 C6 1_555 1_555
C8 C7 1_555 1_555
C9 C8 1_555 1_555
C10 C9 1_555 1_555
C11 C6 1_555 1_555
C12 C8 1_555 1_555
C13 C12 1_555 1_555
C14 C12 1_555 1_555
C15 C11 1_555 1_555
C16 C15 1_555 1_555
C17 C16 1_555 1_555
C18 C17 1_555 1_555
C19 C18 1_555 1_555
C20 C19 1_555 1_555
C21 C16 1_555 1_555
C22 C15 1_555 1_555
C23 C22 1_555 1_555
C24 C23 1_555 1_555
C25 C24 1_555 1_555
C26 C25 1_555 1_555
C27 C22 1_555 1_555
C28 C29 1_555 1_555
C29 C30 1_555 1_555
C30 H37 1_555 1_555
C31 C29 1_555 1_555
C32 C31 1_555 1_555
C33 O5 1_555 1_555
C34 C33 1_555 1_555
C35 C34 1_555 1_555
C36 C35 1_555 1_555
C37 C36 1_555 1_555
C38 C33 1_555 1_555
C39 C35 1_555 1_555
C40 C39 1_555 1_555
C41 C39 1_555 1_555
C42 C38 1_555 1_555
C43 C42 1_555 1_555
C44 C43 1_555 1_555
C45 C44 1_555 1_555
C46 C45 1_555 1_555
C47 C46 1_555 1_555
C48 C43 1_555 1_555
C49 C42 1_555 1_555
C50 C49 1_555 1_555
C51 C50 1_555 1_555
C52 C51 1_555 1_555
C53 C52 1_555 1_555
C54 C49 1_555 1_555
H1 O3 1_555 1_555
H2 O6 1_555 1_555
H3 C1 1_555 1_555
H4 C1 1_555 1_555
H5 C1 1_555 1_555
H7 C3 1_555 1_555
H8 C3 1_555 1_555
H9 C4 1_555 1_555
H10 C6 1_555 1_555
H11 C7 1_555 1_555
H12 C7 1_555 1_555
H13 C8 1_555 1_555
H14 C9 1_555 1_555
H15 C9 1_555 1_555
H16 C10 1_555 1_555
H17 C10 1_555 1_555
H18 C13 1_555 1_555
H19 C13 1_555 1_555
H20 C13 1_555 1_555
H21 C14 1_555 1_555
H22 C14 1_555 1_555
H23 C14 1_555 1_555
H24 C17 1_555 1_555
H25 C18 1_555 1_555
H26 C19 1_555 1_555
H27 C20 1_555 1_555
H28 C21 1_555 1_555
H29 C23 1_555 1_555
H30 C24 1_555 1_555
H31 C25 1_555 1_555
H32 C26 1_555 1_555
H33 C27 1_555 1_555
H34 C28 1_555 1_555
H35 C28 1_555 1_555
H36 C28 1_555 1_555
H38 C30 1_555 1_555
H39 C30 1_555 1_555
H40 C31 1_555 1_555
H41 C33 1_555 1_555
H42 C34 1_555 1_555
H43 C34 1_555 1_555
H44 C35 1_555 1_555
H45 C36 1_555 1_555
H46 C36 1_555 1_555
H47 C37 1_555 1_555
H48 C37 1_555 1_555
H49 C40 1_555 1_555
H50 C40 1_555 1_555
H51 C40 1_555 1_555
H52 C41 1_555 1_555
H53 C41 1_555 1_555
H54 C41 1_555 1_555
H55 C44 1_555 1_555
H56 C45 1_555 1_555
H57 C46 1_555 1_555
H58 C47 1_555 1_555
H59 C48 1_555 1_555
H60 C50 1_555 1_555
H61 C51 1_555 1_555
H62 C52 1_555 1_555
H63 C53 1_555 1_555
H64 C54 1_555 1_555
C10 C11 1_555 1_555
C11 C12 1_555 1_555
C20 C21 1_555 1_555
C26 C27 1_555 1_555
C37 C38 1_555 1_555
C38 C39 1_555 1_555
C47 C48 1_555 1_555
C53 C54 1_555 1_555

#END
