
#######################################################################
#
#                 Cambridge Crystallographic Data Centre
#                                CCDC 
#
#######################################################################
#
# If this CIF has been generated from an entry in the Cambridge 
# Structural Database, then it will include bibliographic, chemical, 
# crystal, experimental, refinement or atomic coordinate data resulting 
# from the CCDC's data processing and validation procedures.
#
#######################################################################

data_COBYUO
_chemical_formula_moiety         'C35 H36 N2 O5'
_chemical_name_systematic        
'1-(Hydroxy(diphenyl)methyl)-7,7-dimethylbicyclo[2.2.1]hept-2-yl 1-(1,3-dioxo-1,3-dihydroisoindol-2-yl)-(2R,3S)-dimethylaziridine-2-carboxylate'
_symmetry_cell_setting           orthorhombic
_symmetry_space_group_name_H-M   'P 21 21 21'
_symmetry_Int_Tables_number      19
_space_group_name_Hall           'P 2ac 2ab'
loop_
_symmetry_equiv_pos_site_id
_symmetry_equiv_pos_as_xyz
1 x,y,z
2 1/2+x,1/2-y,-z
3 -x,1/2+y,1/2-z
4 1/2-x,-y,1/2+z
_cell_length_a                   6.842(6)
_cell_length_b                   16.215(3)
_cell_length_c                   25.986(5)
_cell_angle_alpha                90
_cell_angle_beta                 90
_cell_angle_gamma                90
_cell_volume                     2882.97
_exptl_crystal_colour            colorless
_exptl_crystal_description       prism
_cell_formula_units_Z            4
loop_
_atom_site_label
_atom_site_type_symbol
_atom_site_fract_x
_atom_site_fract_y
_atom_site_fract_z
O1 O 0.9717(4) 0.1279(2) 0.71899(12)
H1 H 0.9761 0.1001 0.6927
O2 O 1.1993(4) 0.01665(19) 0.65883(11)
O3 O 1.4493(5) 0.0299(3) 0.60318(14)
O4 O 1.4505(8) 0.1100(2) 0.45454(15)
O5 O 1.2922(7) -0.1263(3) 0.53900(17)
N1 N 1.1555(7) 0.0356(3) 0.51767(15)
N2 N 1.3401(7) 0.0022(2) 0.50368(14)
C1 C 1.1677(6) 0.1383(3) 0.73931(17)
C2 C 1.1405(7) 0.1902(3) 0.78800(17)
C3 C 1.2969(9) 0.2308(3) 0.81124(19)
H2 H 1.4205 0.2271 0.7966
C4 C 1.2718(11) 0.2763(4) 0.8555(2)
H3 H 1.3788 0.3022 0.8706
C5 C 1.0888(12) 0.2840(4) 0.8777(2)
H4 H 1.0716 0.3143 0.9078
C6 C 0.9346(11) 0.2460(4) 0.8545(2)
H5 H 0.8106 0.2510 0.8689
C7 C 0.9580(8) 0.2004(3) 0.8104(2)
H6 H 0.8494 0.1759 0.7952
C8 C 1.2850(7) 0.1872(3) 0.69956(16)
C9 C 1.1904(8) 0.2375(3) 0.66517(18)
H7 H 1.0550 0.2417 0.6671
C10 C 1.2871(9) 0.2822(3) 0.6278(2)
H8 H 1.2171 0.3156 0.6053
C11 C 1.4911(9) 0.2772(3) 0.6239(2)
H9 H 1.5589 0.3058 0.5986
C12 C 1.5854(8) 0.2294(3) 0.6583(2)
H10 H 1.7208 0.2257 0.6564
C13 C 1.4907(7) 0.1862(3) 0.69603(18)
H11 H 1.5629 0.1557 0.7196
C14 C 1.2513(6) 0.0492(3) 0.74997(15)
C15 C 1.3322(7) 0.0051(3) 0.70216(16)
H12 H 1.4626 0.0260 0.6937
C16 C 1.3434(8) -0.0858(3) 0.71803(19)
H13 H 1.2603 -0.1197 0.6964
H14 H 1.4765 -0.1062 0.7160
C17 C 1.2708(8) -0.0854(3) 0.77358(18)
H15 H 1.2265 -0.1394 0.7858
C18 C 1.4279(8) -0.0471(3) 0.8068(2)
H16 H 1.5546 -0.0717 0.8001
H17 H 1.3972 -0.0523 0.8431
C19 C 1.4218(7) 0.0440(3) 0.78912(17)
H18 H 1.5442 0.0596 0.7730
H19 H 1.3982 0.0803 0.8182
C20 C 1.1088(7) -0.0196(3) 0.77261(18)
C21 C 0.9342(7) -0.0494(3) 0.7402(2)
H20 H 0.8351 -0.0075 0.7397
H21 H 0.8818 -0.0989 0.7550
H22 H 0.9769 -0.0604 0.7057
C22 C 1.0293(8) -0.0015(4) 0.82671(19)
H23 H 0.9290 0.0398 0.8246
H24 H 1.1335 0.0181 0.8482
H25 H 0.9757 -0.0511 0.8411
C23 C 1.2746(7) 0.0297(3) 0.61209(18)
C24 C 1.1176(7) 0.0487(3) 0.57414(17)
C25 C 0.9083(7) 0.0275(4) 0.5886(2)
H26 H 0.8227 0.0420 0.5607
H27 H 0.8716 0.0578 0.6188
H28 H 0.8983 -0.0305 0.5953
C26 C 1.1638(9) 0.1199(3) 0.53992(17)
H29 H 1.2953 0.1431 0.5439
C27 C 1.0104(11) 0.1793(4) 0.5222(2)
H30 H 1.0697 0.2212 0.5012
H31 H 0.9493 0.2044 0.5515
H32 H 0.9138 0.1504 0.5023
C28 C 1.4676(9) 0.0413(3) 0.47090(18)
C29 C 1.6232(8) -0.0208(3) 0.46135(18)
C30 C 1.7945(9) -0.0135(4) 0.4329(2)
H33 H 1.8276 0.0355 0.4165
C31 C 1.9131(9) -0.0822(4) 0.4302(2)
H34 H 2.0279 -0.0795 0.4111
C32 C 1.8669(10) -0.1537(4) 0.4546(2)
H35 H 1.9513 -0.1985 0.4523
C33 C 1.6945(11) -0.1610(4) 0.4830(2)
H36 H 1.6613 -0.2102 0.4992
C34 C 1.5755(9) -0.0925(3) 0.48627(18)
C35 C 1.3838(10) -0.0793(3) 0.5133(2)
loop_
_geom_bond_atom_site_label_1
_geom_bond_atom_site_label_2
_geom_bond_site_symmetry_1
_geom_bond_site_symmetry_2
O1 H1 1_555 1_555
O2 C15 1_555 1_555
O3 C23 1_555 1_555
O4 C28 1_555 1_555
O5 C35 1_555 1_555
N1 N2 1_555 1_555
N2 C28 1_555 1_555
C1 O1 1_555 1_555
C2 C1 1_555 1_555
C3 C2 1_555 1_555
H2 C3 1_555 1_555
C4 C3 1_555 1_555
H3 C4 1_555 1_555
C5 C4 1_555 1_555
H4 C5 1_555 1_555
C6 C5 1_555 1_555
H5 C6 1_555 1_555
C7 C2 1_555 1_555
H6 C7 1_555 1_555
C8 C1 1_555 1_555
C9 C8 1_555 1_555
H7 C9 1_555 1_555
C10 C9 1_555 1_555
H8 C10 1_555 1_555
C11 C10 1_555 1_555
H9 C11 1_555 1_555
C12 C11 1_555 1_555
H10 C12 1_555 1_555
C13 C8 1_555 1_555
H11 C13 1_555 1_555
C14 C1 1_555 1_555
C15 C14 1_555 1_555
H12 C15 1_555 1_555
C16 C15 1_555 1_555
H13 C16 1_555 1_555
H14 C16 1_555 1_555
C17 C16 1_555 1_555
H15 C17 1_555 1_555
C18 C17 1_555 1_555
H16 C18 1_555 1_555
H17 C18 1_555 1_555
C19 C14 1_555 1_555
H18 C19 1_555 1_555
H19 C19 1_555 1_555
C20 C14 1_555 1_555
C21 C20 1_555 1_555
H20 C21 1_555 1_555
H21 C21 1_555 1_555
H22 C21 1_555 1_555
C22 C20 1_555 1_555
H23 C22 1_555 1_555
H24 C22 1_555 1_555
H25 C22 1_555 1_555
C23 O2 1_555 1_555
C24 N1 1_555 1_555
C25 C24 1_555 1_555
H26 C25 1_555 1_555
H27 C25 1_555 1_555
H28 C25 1_555 1_555
C26 N1 1_555 1_555
H29 C26 1_555 1_555
C27 C26 1_555 1_555
H30 C27 1_555 1_555
H31 C27 1_555 1_555
H32 C27 1_555 1_555
C28 C29 1_555 1_555
C29 C30 1_555 1_555
C30 H33 1_555 1_555
C31 C30 1_555 1_555
H34 C31 1_555 1_555
C32 C31 1_555 1_555
H35 C32 1_555 1_555
C33 C32 1_555 1_555
H36 C33 1_555 1_555
C34 C29 1_555 1_555
C35 N2 1_555 1_555
C6 C7 1_555 1_555
C12 C13 1_555 1_555
C17 C20 1_555 1_555
C18 C19 1_555 1_555
C23 C24 1_555 1_555
C24 C26 1_555 1_555
C33 C34 1_555 1_555
C34 C35 1_555 1_555

#END
