
#######################################################################
#
#                 Cambridge Crystallographic Data Centre
#                                CCDC 
#
#######################################################################
#
# If this CIF has been generated from an entry in the Cambridge 
# Structural Database, then it will include bibliographic, chemical, 
# crystal, experimental, refinement or atomic coordinate data resulting 
# from the CCDC's data processing and validation procedures.
#
#######################################################################

data_COBYOI
_chemical_formula_moiety         'C34 H34 N2 O5'
_chemical_name_systematic        
'1-(Hydroxy(diphenyl)methyl)-7,7-dimethylbicyclo[2.2.1]hept-2-yl 1-(1,3-dioxo-1,3-dihydroisoindol-2-yl)-(3S)-methylaziridine-(2R)-carboxylate'
_symmetry_cell_setting           monoclinic
_symmetry_space_group_name_H-M   'P 21'
_symmetry_Int_Tables_number      4
_space_group_name_Hall           'P 2yb'
loop_
_symmetry_equiv_pos_site_id
_symmetry_equiv_pos_as_xyz
1 x,y,z
2 -x,1/2+y,-z
_cell_length_a                   13.1296(18)
_cell_length_b                   14.529(9)
_cell_length_c                   15.1369(12)
_cell_angle_alpha                90
_cell_angle_beta                 93.770(9)
_cell_angle_gamma                90
_cell_volume                     2881.27
_exptl_crystal_colour            colorless
_exptl_crystal_description       prism
_cell_formula_units_Z            4
loop_
_atom_site_label
_atom_site_type_symbol
_atom_site_fract_x
_atom_site_fract_y
_atom_site_fract_z
O1 O 0.0960(3) 0.6334 0.9628(3)
H1 H 0.0720 0.6396 1.0112
O2 O 0.0690(3) 0.7507(4) 1.1075(3)
O3 O 0.1654(4) 0.7981(4) 1.2283(3)
O4 O 0.1840(4) 0.6507(5) 1.4775(3)
O5 O -0.0604(4) 0.7980(5) 1.3019(4)
N1 N 0.0605(4) 0.6332(4) 1.3174(3)
N2 N 0.0706(4) 0.7130(5) 1.3724(3)
C1 C 0.1683(4) 0.7043(5) 0.9508(4)
C2 C 0.2085(4) 0.6862(5) 0.8601(4)
C3 C 0.1621(5) 0.6231(6) 0.8018(4)
H2 H 0.1051 0.5910 0.8185
C4 C 0.1982(6) 0.6066(6) 0.7198(5)
H3 H 0.1646 0.5643 0.6821
C5 C 0.2813(6) 0.6509(7) 0.6931(5)
H4 H 0.3048 0.6394 0.6376
C6 C 0.3309(5) 0.7136(6) 0.7497(4)
H5 H 0.3886 0.7445 0.7328
C7 C 0.2937(5) 0.7298(6) 0.8317(4)
H6 H 0.3276 0.7720 0.8693
C8 C 0.2586(5) 0.6917(5) 1.0204(4)
C9 C 0.2735(5) 0.6047(6) 1.0605(4)
H7 H 0.2283 0.5572 1.0452
C10 C 0.3537(6) 0.5889(7) 1.1216(5)
H8 H 0.3623 0.5308 1.1468
C11 C 0.4211(6) 0.6575(8) 1.1459(5)
H9 H 0.4744 0.6467 1.1881
C12 C 0.4090(5) 0.7424(6) 1.1070(5)
H10 H 0.4550 0.7893 1.1225
C13 C 0.3296(4) 0.7588(5) 1.0455(4)
H11 H 0.3233 0.8168 1.0198
C14 C 0.1117(4) 0.8012(5) 0.9587(4)
C15 C 0.0979(5) 0.8310(5) 1.0555(4)
H12 H 0.1604 0.8594 1.0818
C16 C 0.0103(6) 0.9016(6) 1.0467(5)
H13 H -0.0496 0.8791 1.0742
H14 H 0.0309 0.9599 1.0733
C17 C -0.0106(5) 0.9112(6) 0.9468(5)
H15 H -0.0770 0.9388 0.9296
C18 C 0.0772(5) 0.9601(6) 0.9098(5)
H16 H 0.0950 1.0152 0.9434
H17 H 0.0618 0.9766 0.8483
C19 C 0.1657(5) 0.8868(5) 0.9192(4)
H18 H 0.1914 0.8725 0.8622
H19 H 0.2216 0.9083 0.9590
C20 C 0.0003(4) 0.8107(5) 0.9141(4)
C21 C -0.0068(5) 0.8017(6) 0.8133(4)
H20 H 0.0439 0.8401 0.7891
H21 H -0.0734 0.8205 0.7902
H22 H 0.0046 0.7388 0.7973
C22 C -0.0839(5) 0.7483(6) 0.9468(5)
H23 H -0.0832 0.7515 1.0102
H24 H -0.0720 0.6859 0.9292
H25 H -0.1491 0.7683 0.9215
C23 C 0.1134(5) 0.7416(6) 1.1889(4)
C24 C 0.0870(5) 0.6488(6) 1.2239(4)
H26 H 0.0527 0.6075 1.1802
C25 C 0.1604(6) 0.6035(6) 1.2874(4)
H27 H 0.2197 0.6402 1.3085
C26 C 0.1746(7) 0.5001(6) 1.2883(5)
H28 H 0.2259 0.4837 1.3338
H29 H 0.1956 0.4801 1.2319
H30 H 0.1113 0.4708 1.3000
C27 C 0.1267(6) 0.7117(6) 1.4527(4)
C28 C 0.1002(6) 0.8002(6) 1.4969(5)
C29 C 0.1387(8) 0.8367(7) 1.5746(5)
H31 H 0.1902 0.8069 1.6088
C30 C 0.0992(11) 0.9188(8) 1.6009(6)
H32 H 0.1238 0.9454 1.6540
C31 C 0.0236(10) 0.9620(7) 1.5497(7)
H33 H -0.0009 1.0183 1.5683
C32 C -0.0170(7) 0.9248(6) 1.4719(6)
H34 H -0.0694 0.9541 1.4384
C33 C 0.0233(6) 0.8419(6) 1.4453(5)
C34 C 0.0005(5) 0.7873(6) 1.3642(5)
O6 O 0.4309(3) 0.1106(4) 1.4821(3)
H35 H 0.4431 0.1276 1.4322
O7 O 0.4036(3) 0.2386(4) 1.3475(3)
O8 O 0.2917(4) 0.2770(5) 1.2340(3)
O9 O 0.4862(4) 0.3328(4) 1.1314(4)
O10 O 0.2842(4) 0.1254(5) 0.9756(3)
N3 N 0.4212(4) 0.1420(5) 1.1269(3)
N4 N 0.3823(4) 0.2170(5) 1.0731(3)
C35 C 0.3411(4) 0.1553(5) 1.5082(4)
C36 C 0.3240(5) 0.1201(5) 1.6004(4)
C37 C 0.3948(5) 0.0640(6) 1.6439(4)
H36 H 0.4543 0.0497 1.6168
C38 C 0.3804(6) 0.0279(6) 1.7270(5)
H37 H 0.4297 -0.0101 1.7549
C39 C 0.2935(7) 0.0484(6) 1.7676(5)
H38 H 0.2843 0.0260 1.8241
C40 C 0.2188(6) 0.1025(6) 1.7246(5)
H39 H 0.1586 0.1157 1.7511
C41 C 0.2355(5) 0.1364(6) 1.6423(4)
H40 H 0.1848 0.1720 1.6134
C42 C 0.2513(5) 0.1259(5) 1.4449(4)
C43 C 0.2586(5) 0.0394(6) 1.4023(5)
H41 H 0.3170 0.0038 1.4130
C44 C 0.1815(7) 0.0079(6) 1.3461(5)
H42 H 0.1887 -0.0487 1.3185
C45 C 0.0939(7) 0.0569(8) 1.3288(5)
H43 H 0.0426 0.0350 1.2890
C46 C 0.0834(6) 0.1389(7) 1.3712(5)
H44 H 0.0235 0.1726 1.3615
C47 C 0.1607(5) 0.1722(6) 1.4282(5)
H45 H 0.1513 0.2281 1.4566
C48 C 0.3629(4) 0.2639(5) 1.5043(4)
C49 C 0.3574(5) 0.3032(5) 1.4089(4)
H46 H 0.2864 0.3159 1.3887
C50 C 0.4188(6) 0.3930(6) 1.4155(5)
H47 H 0.3779 0.4448 1.3935
H48 H 0.4796 0.3889 1.3827
C51 C 0.4460(6) 0.4017(6) 1.5149(5)
H49 H 0.5017 0.4451 1.5296
C52 C 0.3495(6) 0.4230(6) 1.5604(5)
H50 H 0.3112 0.4724 1.5307
H51 H 0.3646 0.4395 1.6220
C53 C 0.2905(5) 0.3296(5) 1.5517(5)
H52 H 0.2263 0.3373 1.5169
H53 H 0.2766 0.3059 1.6096
C54 C 0.4717(5) 0.3004(6) 1.5432(4)
C55 C 0.4882(6) 0.2893(6) 1.6436(4)
H54 H 0.5029 0.2261 1.6576
H55 H 0.4277 0.3079 1.6711
H56 H 0.5445 0.3271 1.6651
C56 C 0.5679(5) 0.2662(6) 1.5018(5)
H57 H 0.5599 0.2731 1.4387
H58 H 0.5787 0.2024 1.5163
H59 H 0.6256 0.3015 1.5246
C57 C 0.3593(5) 0.2294(6) 1.2650(4)
C58 C 0.4068(5) 0.1486(6) 1.2221(4)
H60 H 0.4582 0.1159 1.2600
C59 C 0.3394(6) 0.0884(6) 1.1658(5)
H61 H 0.2696 0.1108 1.1526
C60 C 0.3538(7) -0.0151(6) 1.1631(6)
H62 H 0.3028 -0.0417 1.1224
H63 H 0.3472 -0.0402 1.2211
H64 H 0.4204 -0.0290 1.1441
C61 C 0.4275(5) 0.3042(6) 1.0735(5)
C62 C 0.3854(5) 0.3482(6) 0.9917(5)
C63 C 0.4024(6) 0.4348(6) 0.9571(5)
H65 H 0.4463 0.4761 0.9873
C64 C 0.3538(7) 0.4583(7) 0.8782(6)
H66 H 0.3627 0.5170 0.8554
C65 C 0.2914(8) 0.3960(8) 0.8316(6)
H67 H 0.2606 0.4130 0.7770
C66 C 0.2735(6) 0.3083(7) 0.8647(5)
H68 H 0.2304 0.2666 0.8342
C67 C 0.3226(5) 0.2869(6) 0.9443(5)
C68 C 0.3243(5) 0.1990(7) 0.9953(5)
loop_
_geom_bond_atom_site_label_1
_geom_bond_atom_site_label_2
_geom_bond_site_symmetry_1
_geom_bond_site_symmetry_2
O1 H1 1_555 1_555
O2 C15 1_555 1_555
O3 C23 1_555 1_555
O4 C27 1_555 1_555
O5 C34 1_555 1_555
N1 N2 1_555 1_555
N2 C27 1_555 1_555
C1 O1 1_555 1_555
C2 C1 1_555 1_555
C3 C2 1_555 1_555
H2 C3 1_555 1_555
C4 C3 1_555 1_555
H3 C4 1_555 1_555
C5 C4 1_555 1_555
H4 C5 1_555 1_555
C6 C5 1_555 1_555
H5 C6 1_555 1_555
C7 C2 1_555 1_555
H6 C7 1_555 1_555
C8 C1 1_555 1_555
C9 C8 1_555 1_555
H7 C9 1_555 1_555
C10 C9 1_555 1_555
H8 C10 1_555 1_555
C11 C10 1_555 1_555
H9 C11 1_555 1_555
C12 C11 1_555 1_555
H10 C12 1_555 1_555
C13 C8 1_555 1_555
H11 C13 1_555 1_555
C14 C1 1_555 1_555
C15 C14 1_555 1_555
H12 C15 1_555 1_555
C16 C15 1_555 1_555
H13 C16 1_555 1_555
H14 C16 1_555 1_555
C17 C16 1_555 1_555
H15 C17 1_555 1_555
C18 C17 1_555 1_555
H16 C18 1_555 1_555
H17 C18 1_555 1_555
C19 C14 1_555 1_555
H18 C19 1_555 1_555
H19 C19 1_555 1_555
C20 C14 1_555 1_555
C21 C20 1_555 1_555
H20 C21 1_555 1_555
H21 C21 1_555 1_555
H22 C21 1_555 1_555
C22 C20 1_555 1_555
H23 C22 1_555 1_555
H24 C22 1_555 1_555
H25 C22 1_555 1_555
C23 O2 1_555 1_555
C24 N1 1_555 1_555
H26 C24 1_555 1_555
C25 N1 1_555 1_555
H27 C25 1_555 1_555
C26 C25 1_555 1_555
H28 C26 1_555 1_555
H29 C26 1_555 1_555
H30 C26 1_555 1_555
C27 C28 1_555 1_555
C28 C29 1_555 1_555
C29 H31 1_555 1_555
C30 C29 1_555 1_555
H32 C30 1_555 1_555
C31 C30 1_555 1_555
H33 C31 1_555 1_555
C32 C31 1_555 1_555
H34 C32 1_555 1_555
C33 C28 1_555 1_555
C34 N2 1_555 1_555
O6 H35 1_555 1_555
O7 C49 1_555 1_555
O8 C57 1_555 1_555
O9 C61 1_555 1_555
O10 C68 1_555 1_555
N3 N4 1_555 1_555
N4 C61 1_555 1_555
C35 O6 1_555 1_555
C36 C35 1_555 1_555
C37 C36 1_555 1_555
H36 C37 1_555 1_555
C38 C37 1_555 1_555
H37 C38 1_555 1_555
C39 C38 1_555 1_555
H38 C39 1_555 1_555
C40 C39 1_555 1_555
H39 C40 1_555 1_555
C41 C36 1_555 1_555
H40 C41 1_555 1_555
C42 C35 1_555 1_555
C43 C42 1_555 1_555
H41 C43 1_555 1_555
C44 C43 1_555 1_555
H42 C44 1_555 1_555
C45 C44 1_555 1_555
H43 C45 1_555 1_555
C46 C45 1_555 1_555
H44 C46 1_555 1_555
C47 C42 1_555 1_555
H45 C47 1_555 1_555
C48 C35 1_555 1_555
C49 C48 1_555 1_555
H46 C49 1_555 1_555
C50 C49 1_555 1_555
H47 C50 1_555 1_555
H48 C50 1_555 1_555
C51 C50 1_555 1_555
H49 C51 1_555 1_555
C52 C51 1_555 1_555
H50 C52 1_555 1_555
H51 C52 1_555 1_555
C53 C48 1_555 1_555
H52 C53 1_555 1_555
H53 C53 1_555 1_555
C54 C48 1_555 1_555
C55 C54 1_555 1_555
H54 C55 1_555 1_555
H55 C55 1_555 1_555
H56 C55 1_555 1_555
C56 C54 1_555 1_555
H57 C56 1_555 1_555
H58 C56 1_555 1_555
H59 C56 1_555 1_555
C57 O7 1_555 1_555
C58 N3 1_555 1_555
H60 C58 1_555 1_555
C59 N3 1_555 1_555
H61 C59 1_555 1_555
C60 C59 1_555 1_555
H62 C60 1_555 1_555
H63 C60 1_555 1_555
H64 C60 1_555 1_555
C61 C62 1_555 1_555
C62 C63 1_555 1_555
C63 H65 1_555 1_555
C64 C63 1_555 1_555
H66 C64 1_555 1_555
C65 C64 1_555 1_555
H67 C65 1_555 1_555
C66 C65 1_555 1_555
H68 C66 1_555 1_555
C67 C62 1_555 1_555
C68 N4 1_555 1_555
C6 C7 1_555 1_555
C12 C13 1_555 1_555
C17 C20 1_555 1_555
C18 C19 1_555 1_555
C23 C24 1_555 1_555
C24 C25 1_555 1_555
C32 C33 1_555 1_555
C33 C34 1_555 1_555
C40 C41 1_555 1_555
C46 C47 1_555 1_555
C51 C54 1_555 1_555
C52 C53 1_555 1_555
C57 C58 1_555 1_555
C58 C59 1_555 1_555
C66 C67 1_555 1_555
C67 C68 1_555 1_555

#END
