
#######################################################################
#
#                 Cambridge Crystallographic Data Centre
#                                CCDC 
#
#######################################################################
#
# If this CIF has been generated from an entry in the Cambridge 
# Structural Database, then it will include bibliographic, chemical, 
# crystal, experimental, refinement or atomic coordinate data resulting 
# from the CCDC's data processing and validation procedures.
#
#######################################################################

data_COBZID
_chemical_compound_source        'Antrodiella semisupina'
_chemical_name_common            
"1,1'-Bi(7,8-didehydro-4-hydroxy-3,7-dimethoxy-17-methylmorphinan-6-one) monohydrate"
_chemical_formula_moiety         'C38 H44 N2 O8,H2 O1'
_chemical_name_systematic        "1,1'-Bi-sinomenine monohydrate"
_symmetry_cell_setting           orthorhombic
_symmetry_space_group_name_H-M   'P 21 21 21'
_symmetry_Int_Tables_number      19
_space_group_name_Hall           'P 2ac 2ab'
loop_
_symmetry_equiv_pos_site_id
_symmetry_equiv_pos_as_xyz
1 x,y,z
2 1/2-x,-y,1/2+z
3 -x,1/2+y,1/2-z
4 1/2+x,1/2-y,-z
_cell_length_a                   10.838(4)
_cell_length_b                   16.454(6)
_cell_length_c                   22.530(9)
_cell_angle_alpha                90
_cell_angle_beta                 90
_cell_angle_gamma                90
_cell_volume                     4017.74
_exptl_crystal_colour            colorless
_exptl_crystal_description       prism
_chemical_melting_point          '220-222 deg.C'
_cell_formula_units_Z            4
loop_
_atom_site_label
_atom_site_type_symbol
_atom_site_fract_x
_atom_site_fract_y
_atom_site_fract_z
C1 C -1.0356(5) -0.1042(3) -0.2716(2)
C2 C -0.9804(5) -0.0933(3) -0.2111(2)
C3 C -0.8761(5) -0.1406(3) -0.1968(2)
H1 H -0.8429 -0.1757 -0.2249
C4 C -1.1392(6) -0.1559(4) -0.2762(2)
H2 H -1.1715 -0.1805 -0.2425
C5 C -1.1927(6) -0.1699(4) -0.3315(3)
C6 C -0.8231(6) -0.1351(4) -0.1412(3)
C7 C -1.1384(6) -0.1377(4) -0.3826(2)
C8 C -0.8715(6) -0.0819(4) -0.0991(2)
C9 C -1.0411(7) -0.0186(4) -0.0010(3)
H3 H -0.9574 -0.0262 0.0131
H4 H -1.0822 0.0190 0.0256
C10 C -0.9663(6) -0.1054(4) -0.4901(2)
H5 H -1.0448 -0.1326 -0.4960
H6 H -0.9514 -0.0716 -0.5247
C11 C -1.1084(8) -0.0997(4) 0.0000(3)
C12 C -0.8668(6) -0.1688(5) -0.4871(3)
C13 C -0.7650(6) -0.1581(4) -0.4444(3)
C14 C -1.2151(7) -0.1056(4) -0.0414(3)
C15 C -1.2484(6) -0.0447(4) -0.0760(3)
H7 H -1.3193 -0.0493 -0.0990
C16 C -0.7542(6) -0.0883(4) -0.4154(3)
H8 H -0.6884 -0.0813 -0.3894
C17 C -0.8450(6) 0.0396(4) -0.3696(3)
H9 H -0.7602 0.0588 -0.3641
C18 C -1.1824(6) 0.0722(4) -0.1407(3)
H10 H -1.2698 0.0839 -0.1479
C19 C -1.1408(6) 0.0111(4) -0.1872(3)
H11 H -1.1202 0.0403 -0.2233
H12 H -1.2095 -0.0247 -0.1962
C20 C -0.8810(6) -0.0081(4) -0.3145(2)
H13 H -0.8086 -0.0368 -0.3003
H14 H -0.9047 0.0303 -0.2839
C21 C -1.0296(5) -0.0412(3) -0.1693(2)
C22 C -0.9847(5) -0.0692(3) -0.3217(2)
C23 C -0.9794(6) -0.0363(3) -0.1110(2)
C24 C -1.0329(5) -0.0901(3) -0.3793(2)
C25 C -0.9769(5) -0.0501(4) -0.4353(2)
C26 C -1.0378(6) 0.0178(4) -0.0638(2)
C27 C -0.8458(6) -0.0199(4) -0.4233(2)
H15 H -0.8198 0.0112 -0.4582
C28 C -1.1715(6) 0.0334(4) -0.0788(3)
H16 H -1.2047 0.0718 -0.0496
C29 C -0.9718(8) 0.1017(4) -0.0631(3)
H17 H -1.0057 0.1346 -0.0313
H18 H -0.8847 0.0937 -0.0552
C30 C -1.0553(6) 0.0252(4) -0.4501(3)
H19 H -1.0252 0.0495 -0.4866
H20 H -1.1401 0.0087 -0.4566
C31 C -1.0510(7) 0.0889(4) -0.4002(3)
H21 H -1.0951 0.1374 -0.4124
H22 H -1.0907 0.0674 -0.3649
C32 C -0.9868(8) 0.1455(5) -0.1208(3)
H23 H -0.9527 0.1998 -0.1173
H24 H -0.9415 0.1170 -0.1515
C33 C -1.1330(10) 0.2029(5) -0.1890(4)
H25 H -1.0874 0.2524 -0.1835
H26 H -1.2190 0.2153 -0.1937
H27 H -1.1035 0.1754 -0.2238
C34 C -0.9096(10) 0.1765(5) -0.3425(4)
H28 H -0.8239 0.1874 -0.3352
H29 H -0.9488 0.1606 -0.3061
H30 H -0.9486 0.2245 -0.3577
C35 C -1.3502(9) -0.2520(7) -0.2929(5)
H31 H -1.4209 -0.2824 -0.3056
H32 H -1.3756 -0.2106 -0.2654
H33 H -1.2926 -0.2878 -0.2738
C36 C -0.6728(8) -0.2375(5) -0.1610(4)
H34 H -0.5994 -0.2600 -0.1439
H35 H -0.6542 -0.2160 -0.1996
H36 H -0.7343 -0.2792 -0.1646
C37 C -0.5926(8) -0.2186(7) -0.3994(4)
H37 H -0.5439 -0.2672 -0.4016
H38 H -0.6283 -0.2139 -0.3606
H39 H -0.5412 -0.1722 -0.4071
C38 C -1.3684(8) -0.1958(6) -0.0759(5)
H40 H -1.4027 -0.2484 -0.0676
H41 H -1.3359 -0.1951 -0.1155
H42 H -1.4316 -0.1552 -0.0722
N1 N -1.1164(7) 0.1507(3) -0.1374(2)
N2 N -0.9211(6) 0.1095(3) -0.3867(2)
O2 O -0.6868(5) -0.2220(3) -0.4419(2)
O3 O -1.2746(6) -0.1794(4) -0.0359(3)
O4 O -1.0819(7) -0.1534(4) 0.0346(3)
O5 O -0.8674(6) -0.2272(4) -0.5227(3)
O6 O -1.1949(5) -0.1489(3) -0.43695(18)
O7 O -0.8120(5) -0.0715(3) -0.04578(19)
H45 H -0.7513 -0.1012 -0.0445
O8 O -1.2951(5) -0.2164(3) -0.3411(2)
O9 O -0.7179(5) -0.1744(3) -0.1243(2)
O1 O -1.1417(5) -0.3310(3) 0.0016(2)
H43 H -1.1073 -0.3586 -0.0256
H44 H -1.1814 -0.2917 -0.0138
loop_
_geom_bond_atom_site_label_1
_geom_bond_atom_site_label_2
_geom_bond_site_symmetry_1
_geom_bond_site_symmetry_2
C1 C2 1_555 1_555
C2 C3 1_555 1_555
C3 H1 1_555 1_555
C4 C1 1_555 1_555
H2 C4 1_555 1_555
C5 C4 1_555 1_555
C6 C3 1_555 1_555
C7 C5 1_555 1_555
C8 C6 1_555 1_555
C9 H3 1_555 1_555
H4 C9 1_555 1_555
C10 H5 1_555 1_555
H6 C10 1_555 1_555
C11 C9 1_555 1_555
C12 C10 1_555 1_555
C13 C12 1_555 1_555
C14 C11 1_555 1_555
C15 C14 1_555 1_555
H7 C15 1_555 1_555
C16 C13 1_555 1_555
H8 C16 1_555 1_555
C17 H9 1_555 1_555
C18 H10 1_555 1_555
C19 C18 1_555 1_555
H11 C19 1_555 1_555
H12 C19 1_555 1_555
C20 C17 1_555 1_555
H13 C20 1_555 1_555
H14 C20 1_555 1_555
C21 C2 1_555 1_555
C22 C1 1_555 1_555
C23 C8 1_555 1_555
C24 C7 1_555 1_555
C25 C10 1_555 1_555
C26 C9 1_555 1_555
C27 C16 1_555 1_555
H15 C27 1_555 1_555
C28 C15 1_555 1_555
H16 C28 1_555 1_555
C29 C26 1_555 1_555
H17 C29 1_555 1_555
H18 C29 1_555 1_555
C30 C25 1_555 1_555
H19 C30 1_555 1_555
H20 C30 1_555 1_555
C31 C30 1_555 1_555
H21 C31 1_555 1_555
H22 C31 1_555 1_555
C32 C29 1_555 1_555
H23 C32 1_555 1_555
H24 C32 1_555 1_555
C33 H25 1_555 1_555
H26 C33 1_555 1_555
H27 C33 1_555 1_555
C34 H28 1_555 1_555
H29 C34 1_555 1_555
H30 C34 1_555 1_555
C35 H31 1_555 1_555
H32 C35 1_555 1_555
H33 C35 1_555 1_555
C36 H34 1_555 1_555
H35 C36 1_555 1_555
H36 C36 1_555 1_555
C37 H37 1_555 1_555
H38 C37 1_555 1_555
H39 C37 1_555 1_555
C38 H40 1_555 1_555
H41 C38 1_555 1_555
H42 C38 1_555 1_555
N1 C18 1_555 1_555
N2 C17 1_555 1_555
O1 H43 1_555 1_555
H44 O1 1_555 1_555
O2 C13 1_555 1_555
O3 C14 1_555 1_555
O4 C11 1_555 1_555
O5 C12 1_555 1_555
O6 C7 1_555 1_555
O7 C8 1_555 1_555
H45 O7 1_555 1_555
O8 C5 1_555 1_555
O9 C6 1_555 1_555
C17 C27 1_555 1_555
C18 C28 1_555 1_555
C19 C21 1_555 1_555
C20 C22 1_555 1_555
C21 C23 1_555 1_555
C22 C24 1_555 1_555
C23 C26 1_555 1_555
C24 C25 1_555 1_555
C25 C27 1_555 1_555
C26 C28 1_555 1_555
C31 N2 1_555 1_555
C32 N1 1_555 1_555
C33 N1 1_555 1_555
C34 N2 1_555 1_555
C35 O8 1_555 1_555
C36 O9 1_555 1_555
C37 O2 1_555 1_555
C38 O3 1_555 1_555

#END
