
#######################################################################
#
#                 Cambridge Crystallographic Data Centre
#                                CCDC 
#
#######################################################################
#
# If this CIF has been generated from an entry in the Cambridge 
# Structural Database, then it will include bibliographic, chemical, 
# crystal, experimental, refinement or atomic coordinate data resulting 
# from the CCDC's data processing and validation procedures.
#
#######################################################################

data_COBZAW
_chemical_formula_moiety         'C36 H52 Br1 Li3 N6,0.5(C7 H8)'
_chemical_name_systematic        
'(\m~3~-Bromo)-bis(\m~2~-diphenylamido)-bis(1,2-bis(dimethylamino)ethane)-tri-lithium toluene solvate'
_symmetry_cell_setting           monoclinic
_symmetry_space_group_name_H-M   'I 2/a'
_symmetry_Int_Tables_number      15
_space_group_name_Hall           '-I 2ya'
loop_
_symmetry_equiv_pos_site_id
_symmetry_equiv_pos_as_xyz
1 x,y,z
2 1/2-x,y,-z
3 1/2+x,1/2+y,1/2+z
4 -x,1/2+y,1/2-z
5 -x,-y,-z
6 1/2+x,-y,z
7 1/2-x,1/2-y,1/2-z
8 x,1/2-y,1/2+z
_cell_length_a                   16.3111(14)
_cell_length_b                   13.5245(12)
_cell_length_c                   36.822(3)
_cell_angle_alpha                90
_cell_angle_beta                 92.931(2)
_cell_angle_gamma                90
_cell_volume                     8112.29
_exptl_crystal_colour            colorless
_exptl_crystal_description       block
_cell_formula_units_Z            8
_exptl_crystal_recrystallization_method toluene
loop_
_atom_site_label
_atom_site_type_symbol
_atom_site_fract_x
_atom_site_fract_y
_atom_site_fract_z
Br1 Br 0.74159(2) 0.16552(2) 0.64583(2)
Li1 Li 0.59376(18) 0.0891(2) 0.63839(8)
Li2 Li 0.62922(19) 0.2916(2) 0.63723(9)
Li3 Li 0.78744(18) 0.3498(2) 0.63227(9)
N1 N 0.52595(8) 0.21377(11) 0.62777(4)
N2 N 0.60730(11) -0.04613(11) 0.60755(4)
N3 N 0.56748(9) 0.00127(11) 0.68232(4)
N4 N 0.68057(9) 0.42422(10) 0.64137(4)
N5 N 0.90127(9) 0.38305(11) 0.65824(4)
N6 N 0.84468(9) 0.34554(11) 0.58254(4)
C1 C 0.51091(10) 0.23819(13) 0.59152(5)
C2 C 0.56718(11) 0.20475(14) 0.56634(5)
H1 H 0.6102 0.1615 0.5745
C3 C 0.56153(12) 0.23286(15) 0.53050(5)
H2 H 0.6008 0.2091 0.5144
C4 C 0.49963(13) 0.29521(17) 0.51730(6)
H3 H 0.4957 0.3141 0.4924
C5 C 0.44373(12) 0.32911(15) 0.54135(5)
H4 H 0.4010 0.3722 0.5327
C6 C 0.44823(11) 0.30222(13) 0.57743(5)
H5 H 0.4087 0.3270 0.5932
C7 C 0.46526(10) 0.23202(12) 0.65275(5)
C8 C 0.48929(12) 0.26736(13) 0.68714(5)
H6 H 0.5458 0.2803 0.6928
C9 C 0.43277(14) 0.28420(15) 0.71343(6)
H7 H 0.4510 0.3074 0.7368
C10 C 0.35051(14) 0.26738(16) 0.70579(7)
H8 H 0.3115 0.2812 0.7234
C11 C 0.32566(13) 0.23035(16) 0.67234(7)
H9 H 0.2691 0.2171 0.6671
C12 C 0.38145(11) 0.21200(14) 0.64615(6)
H10 H 0.3627 0.1854 0.6233
C13 C 0.5531(2) -0.0595(2) 0.57507(7)
H11 H 0.5600 -0.1264 0.5655
H12 H 0.5670 -0.0109 0.5566
H13 H 0.4960 -0.0500 0.5814
C14 C 0.69302(16) -0.05644(17) 0.59774(7)
H14 H 0.7294 -0.0506 0.6197
H15 H 0.7061 -0.0043 0.5805
H16 H 0.7008 -0.1213 0.5865
C15 C 0.58737(15) -0.12222(15) 0.63461(6)
H17 H 0.6176 -0.1837 0.6295
H18 H 0.5279 -0.1371 0.6321
C16 C 0.60881(14) -0.09017(15) 0.67260(6)
H19 H 0.5937 -0.1432 0.6895
H20 H 0.6689 -0.0803 0.6756
C17 C 0.47936(14) -0.01367(17) 0.68530(7)
H21 H 0.4541 -0.0297 0.6613
H22 H 0.4547 0.0469 0.6944
H23 H 0.4702 -0.0682 0.7021
C18 C 0.60230(18) 0.03727(18) 0.71718(6)
H24 H 0.5957 -0.0133 0.7359
H25 H 0.5738 0.0978 0.7239
H26 H 0.6608 0.0514 0.7151
C19 C 0.68014(10) 0.45623(15) 0.67748(5)
C20 C 0.65659(12) 0.55058(17) 0.68896(6)
H27 H 0.6415 0.5994 0.6713
C21 C 0.65490(13) 0.5737(2) 0.72536(7)
H28 H 0.6392 0.6383 0.7323
C22 C 0.67541(15) 0.5053(3) 0.75174(7)
H29 H 0.6746 0.5224 0.7767
C23 C 0.69730(14) 0.4112(2) 0.74141(6)
H30 H 0.7104 0.3626 0.7594
C24 C 0.70032(12) 0.38717(17) 0.70503(5)
H31 H 0.7164 0.3223 0.6985
C25 C 0.67509(10) 0.49497(13) 0.61350(5)
C26 C 0.72083(11) 0.58289(13) 0.61361(5)
H32 H 0.7551 0.5991 0.6344
C27 C 0.71704(13) 0.64635(14) 0.58413(6)
H33 H 0.7486 0.7054 0.5850
C28 C 0.66803(13) 0.62499(16) 0.55345(6)
H34 H 0.6652 0.6690 0.5333
C29 C 0.62332(13) 0.53857(15) 0.55259(6)
H35 H 0.5899 0.5225 0.5315
C30 C 0.62653(11) 0.47495(13) 0.58197(5)
H36 H 0.5949 0.4160 0.5807
C31 C 0.92204(14) 0.31195(17) 0.68724(7)
H37 H 0.9167 0.2446 0.6776
H38 H 0.8847 0.3207 0.7070
H39 H 0.9787 0.3230 0.6965
C32 C 0.90642(13) 0.48330(15) 0.67334(6)
H40 H 0.8654 0.4911 0.6917
H41 H 0.8959 0.5316 0.6538
H42 H 0.9614 0.4942 0.6846
C33 C 0.95766(13) 0.37218(18) 0.62834(7)
H43 H 1.0071 0.4130 0.6339
H44 H 0.9755 0.3023 0.6272
C34 C 0.9227(2) 0.4002(4) 0.59374(11)
H45 H 0.9635 0.3885 0.5752
H46 H 0.9108 0.4720 0.5940
C35 C 0.8073(3) 0.3956(4) 0.55037(13)
H47 H 0.8453 0.3937 0.5306
H48 H 0.7955 0.4646 0.5564
H49 H 0.7561 0.3621 0.5426
C36 C 0.8645(3) 0.2435(3) 0.57290(13)
H50 H 0.9065 0.2437 0.5548
H51 H 0.8149 0.2105 0.5627
H52 H 0.8852 0.2081 0.5947
H53? H 1.0093 0.3414 0.6381
H54? H 0.9713 0.4387 0.6192
C37? C 0.9232(3) 0.3107(4) 0.59698(13)
H55? H 0.9625 0.3112 0.5774
H56? H 0.9174 0.2414 0.6052
C38? C 0.8473(4) 0.4363(4) 0.56181(16)
H57? H 0.8681 0.4900 0.5776
H58? H 0.7920 0.4527 0.5521
H59? H 0.8838 0.4277 0.5417
C39? C 0.8048(4) 0.2681(4) 0.55782(13)
H60? H 0.8388 0.2571 0.5370
H61? H 0.7503 0.2908 0.5492
H62? H 0.7997 0.2061 0.5713
C40? C 0.8746(3) 0.9888(4) 0.53163(15)
H63? H 0.9010 1.0441 0.5196
H64? H 0.9114 0.9316 0.5325
H65? H 0.8624 1.0080 0.5564
C41? C 0.7964(3) 0.9624(3) 0.51076(11)
C42? C 0.7766(4) 0.8642(4) 0.50282(17)
H66? H 0.8141 0.8135 0.5103
C43? C 0.7055(4) 0.8393(4) 0.48471(16)
H67? H 0.6938 0.7717 0.4799
C44? C 0.6492(3) 0.9107(3) 0.47305(11)
H68? H 0.5992 0.8927 0.4604
C45? C 0.6677(3) 1.0081(4) 0.48024(14)
H69? H 0.6306 1.0583 0.4719
C46? C 0.7390(7) 1.0337(3) 0.4993(6)
H70? H 0.7494 1.1013 0.5049
loop_
_geom_bond_atom_site_label_1
_geom_bond_atom_site_label_2
_geom_bond_site_symmetry_1
_geom_bond_site_symmetry_2
Br1 Li1 1_555 1_555
Li1 N1 1_555 1_555
Li2 Br1 1_555 1_555
Li3 Br1 1_555 1_555
N1 Li2 1_555 1_555
N2 Li1 1_555 1_555
N3 Li1 1_555 1_555
N4 Li2 1_555 1_555
N5 Li3 1_555 1_555
N6 Li3 1_555 1_555
C1 N1 1_555 1_555
C2 C1 1_555 1_555
H1 C2 1_555 1_555
C3 C2 1_555 1_555
H2 C3 1_555 1_555
C4 C3 1_555 1_555
H3 C4 1_555 1_555
C5 C4 1_555 1_555
H4 C5 1_555 1_555
C6 C1 1_555 1_555
H5 C6 1_555 1_555
C7 N1 1_555 1_555
C8 C7 1_555 1_555
H6 C8 1_555 1_555
C9 C8 1_555 1_555
H7 C9 1_555 1_555
C10 C9 1_555 1_555
H8 C10 1_555 1_555
C11 C10 1_555 1_555
H9 C11 1_555 1_555
C12 C7 1_555 1_555
H10 C12 1_555 1_555
C13 N2 1_555 1_555
H11 C13 1_555 1_555
H12 C13 1_555 1_555
H13 C13 1_555 1_555
C14 N2 1_555 1_555
H14 C14 1_555 1_555
H15 C14 1_555 1_555
H16 C14 1_555 1_555
C15 N2 1_555 1_555
H17 C15 1_555 1_555
H18 C15 1_555 1_555
C16 N3 1_555 1_555
H19 C16 1_555 1_555
H20 C16 1_555 1_555
C17 N3 1_555 1_555
H21 C17 1_555 1_555
H22 C17 1_555 1_555
H23 C17 1_555 1_555
C18 N3 1_555 1_555
H24 C18 1_555 1_555
H25 C18 1_555 1_555
H26 C18 1_555 1_555
C19 N4 1_555 1_555
C20 C19 1_555 1_555
H27 C20 1_555 1_555
C21 C20 1_555 1_555
H28 C21 1_555 1_555
C22 C21 1_555 1_555
H29 C22 1_555 1_555
C23 C22 1_555 1_555
H30 C23 1_555 1_555
C24 C19 1_555 1_555
H31 C24 1_555 1_555
C25 N4 1_555 1_555
C26 C25 1_555 1_555
H32 C26 1_555 1_555
C27 C26 1_555 1_555
H33 C27 1_555 1_555
C28 C27 1_555 1_555
H34 C28 1_555 1_555
C29 C28 1_555 1_555
H35 C29 1_555 1_555
C30 C25 1_555 1_555
H36 C30 1_555 1_555
C31 N5 1_555 1_555
H37 C31 1_555 1_555
H38 C31 1_555 1_555
H39 C31 1_555 1_555
C32 N5 1_555 1_555
H40 C32 1_555 1_555
H41 C32 1_555 1_555
H42 C32 1_555 1_555
C33 N5 1_555 1_555
H43 C33 1_555 1_555
H44 C33 1_555 1_555
C34 N6 1_555 1_555
H45 C34 1_555 1_555
H46 C34 1_555 1_555
C35 N6 1_555 1_555
H47 C35 1_555 1_555
H48 C35 1_555 1_555
H49 C35 1_555 1_555
C36 N6 1_555 1_555
H50 C36 1_555 1_555
H51 C36 1_555 1_555
H52 C36 1_555 1_555
Li3 N4 1_555 1_555
C5 C6 1_555 1_555
C11 C12 1_555 1_555
C15 C16 1_555 1_555
C23 C24 1_555 1_555
C29 C30 1_555 1_555
C33 C34 1_555 1_555

#END
