
#######################################################################
#
#                 Cambridge Crystallographic Data Centre
#                                CCDC 
#
#######################################################################
#
# If this CIF has been generated from an entry in the Cambridge 
# Structural Database, then it will include bibliographic, chemical, 
# crystal, experimental, refinement or atomic coordinate data resulting 
# from the CCDC's data processing and validation procedures.
#
#######################################################################

data_COCBUS
_chemical_formula_moiety         'C18 H26 O4'
_chemical_name_systematic        
(1S*,5R*,6S*,8R*,10R*,14R*,17R*)-6-Hydroxy-17-methoxy-5-methyl-11-oxo-16-oxapentacyclo(8.4.3.0^1,5^.0^8,14^.0^14,17^)heptadecane
_symmetry_cell_setting           triclinic
_symmetry_space_group_name_H-M   'P -1'
_symmetry_Int_Tables_number      2
_space_group_name_Hall           '-P 1'
loop_
_symmetry_equiv_pos_site_id
_symmetry_equiv_pos_as_xyz
1 x,y,z
2 -x,-y,-z
_cell_length_a                   7.056(5)
_cell_length_b                   9.481(5)
_cell_length_c                   12.731(5)
_cell_angle_alpha                101.717(5)
_cell_angle_beta                 99.034(5)
_cell_angle_gamma                107.867(5)
_cell_volume                     771.418
_exptl_crystal_colour            colorless
_exptl_crystal_description       plate
_cell_formula_units_Z            2
_exptl_crystal_recrystallization_method 'diethyl ether'
loop_
_atom_site_label
_atom_site_type_symbol
_atom_site_fract_x
_atom_site_fract_y
_atom_site_fract_z
O1 O 0.2891(3) 0.29663(18) 0.27980(14)
O2 O 0.0052(3) 0.23847(19) 0.35655(14)
O3 O 0.5903(3) 0.6695(2) 0.17530(16)
O4 O -0.3815(4) -0.0344(2) 0.1482(2)
C1 C 0.0357(3) 0.3956(2) 0.22821(17)
C2 C 0.0678(4) 0.3715(2) 0.10781(18)
C3 C -0.0414(4) 0.1244(3) 0.1580(2)
C4 C -0.2637(4) 0.0925(3) 0.1544(2)
C5 C 0.3739(4) 0.6300(3) 0.1547(2)
C6 C -0.1840(4) 0.3820(3) 0.2302(2)
C7 C 0.0158(5) 0.1949(3) 0.0637(2)
C8 C 0.2816(4) 0.4578(3) 0.0962(2)
C9 C 0.2146(4) 0.5347(2) 0.30807(18)
C10 C 0.2914(4) 0.6719(3) 0.25842(19)
C11 C 0.3790(4) 0.4607(3) 0.3333(2)
C12 C 0.1206(5) 0.7339(3) 0.2236(3)
C13 C 0.0757(4) 0.2585(2) 0.26013(18)
C14 C 0.4506(5) 0.7919(3) 0.3599(2)
H1 H 0.5793 0.7736 0.3694
H2 H 0.4754 0.8954 0.3522
C15 C 0.1774(5) 0.6117(3) 0.4179(2)
C16 C -0.3374(5) 0.2266(3) 0.1568(3)
C17 C 0.3528(6) 0.7692(4) 0.4575(3)
C18 C 0.0439(5) 0.1174(4) 0.3963(3)
H3 H -0.0079 0.1110 0.4612
H4 H 0.1887 0.1378 0.4140
H5 H -0.0232 0.0217 0.3404
H6 H -0.036(4) 0.400(3) 0.0625(19)
H7 H 0.193(5) 0.829(4) 0.202(3)
H8 H 0.332(4) 0.687(3) 0.104(2)
H9 H 0.418(5) 0.469(3) 0.413(3)
H10 H 0.144(5) 0.182(3) 0.051(2)
H11 H -0.197(4) 0.388(3) 0.312(2)
H12 H 0.273(4) 0.448(3) 0.019(3)
H13 H 0.008(4) 0.655(3) 0.152(2)
H14 H 0.032(5) 0.621(3) 0.405(2)
H15 H -0.008(6) 0.029(4) 0.163(3)
H16 H 0.376(4) 0.414(3) 0.1277(19)
H17 H 0.637(5) 0.759(4) 0.170(3)
H18 H 0.444(6) 0.778(4) 0.524(3)
H19 H 0.499(5) 0.498(3) 0.302(2)
H20 H 0.172(5) 0.546(4) 0.474(3)
H21 H 0.041(6) 0.752(4) 0.286(3)
H22 H -0.101(4) 0.152(3) 0.002(2)
H23 H -0.379(5) 0.234(4) 0.081(3)
H24 H -0.212(4) 0.474(3) 0.206(2)
H25 H -0.472(7) 0.195(5) 0.169(3)
H26 H 0.296(6) 0.859(5) 0.479(3)
loop_
_geom_bond_atom_site_label_1
_geom_bond_atom_site_label_2
_geom_bond_site_symmetry_1
_geom_bond_site_symmetry_2
O1 C11 1_555 1_555
O2 C13 1_555 1_555
O3 C5 1_555 1_555
O4 C4 1_555 1_555
C1 C2 1_555 1_555
C2 C7 1_555 1_555
C3 C4 1_555 1_555
C4 C16 1_555 1_555
C5 C8 1_555 1_555
C6 C1 1_555 1_555
C7 C3 1_555 1_555
C8 C2 1_555 1_555
C9 C1 1_555 1_555
C10 C5 1_555 1_555
C11 C9 1_555 1_555
C12 C10 1_555 1_555
C13 O1 1_555 1_555
C14 C10 1_555 1_555
H1 C14 1_555 1_555
H2 C14 1_555 1_555
C15 C9 1_555 1_555
C16 C6 1_555 1_555
C17 C14 1_555 1_555
C18 O2 1_555 1_555
H3 C18 1_555 1_555
H4 C18 1_555 1_555
H5 C18 1_555 1_555
H6 C2 1_555 1_555
H7 C12 1_555 1_555
H8 C5 1_555 1_555
H9 C11 1_555 1_555
H10 C7 1_555 1_555
H11 C6 1_555 1_555
H12 C8 1_555 1_555
H13 C12 1_555 1_555
H14 C15 1_555 1_555
H15 C3 1_555 1_555
H16 C8 1_555 1_555
H17 O3 1_555 1_555
H18 C17 1_555 1_555
H19 C11 1_555 1_555
H20 C15 1_555 1_555
H21 C12 1_555 1_555
H22 C7 1_555 1_555
H23 C16 1_555 1_555
H24 C6 1_555 1_555
H25 C16 1_555 1_555
H26 C17 1_555 1_555
C1 C13 1_555 1_555
C3 C13 1_555 1_555
C9 C10 1_555 1_555
C15 C17 1_555 1_555

#END
