
#######################################################################
#
#                 Cambridge Crystallographic Data Centre
#                                CCDC 
#
#######################################################################
#
# If this CIF has been generated from an entry in the Cambridge 
# Structural Database, then it will include bibliographic, chemical, 
# crystal, experimental, refinement or atomic coordinate data resulting 
# from the CCDC's data processing and validation procedures.
#
#######################################################################

data_COCCAZ
_chemical_formula_moiety         'C18 H26 O4'
_chemical_name_systematic        
(1S*,5R*,6S*,8R*,10R*,13R*,14R*,17R*)-6,13-Dihydroxy-17-methoxy-5-methyl-16-oxapentacyclo(8.4.3.0^1,5^.0^8,14^.0^14,17^)heptadec-11-ene
_symmetry_cell_setting           monoclinic
_symmetry_space_group_name_H-M   'C c'
_symmetry_Int_Tables_number      9
_space_group_name_Hall           'C -2yc'
loop_
_symmetry_equiv_pos_site_id
_symmetry_equiv_pos_as_xyz
1 x,y,z
2 x,-y,1/2+z
3 1/2+x,1/2+y,z
4 1/2+x,1/2-y,1/2+z
_cell_length_a                   7.321(5)
_cell_length_b                   13.267(5)
_cell_length_c                   16.259(5)
_cell_angle_alpha                90
_cell_angle_beta                 100.517(5)
_cell_angle_gamma                90
_cell_volume                     1552.67
_exptl_crystal_colour            colorless
_exptl_crystal_description       plate
_cell_formula_units_Z            4
loop_
_atom_site_label
_atom_site_type_symbol
_atom_site_fract_x
_atom_site_fract_y
_atom_site_fract_z
O1 O 0.1729(4) 0.25029(18) 0.18095(16)
O2 O 0.1256(4) 0.1592(2) 0.29726(18)
O3 O 0.2439(4) 0.1614(2) -0.06027(16)
H1 H 0.2193 0.1285 -0.1036
O4 O 0.2077(4) -0.0397(2) 0.29436(17)
H2 H 0.1391 0.0049 0.3059
C1 C 0.3239(6) 0.0967(3) 0.0072(2)
H3 H 0.4094 0.0505 -0.0136
C2 C 0.4369(6) 0.1641(3) 0.0718(2)
H4 H 0.3737 0.2285 0.0704
H5 H 0.5555 0.1762 0.0550
C3 C 0.4755(5) 0.1275(3) 0.1624(2)
H6 H 0.5675 0.0731 0.1681
C4 C 0.2994(5) 0.0903(3) 0.19787(19)
C5 C 0.1307(5) 0.0784(3) 0.1259(2)
C6 C 0.1803(5) 0.0323(3) 0.0439(2)
C7 C 0.2676(6) -0.0727(3) 0.0608(3)
H7 H 0.3881 -0.0664 0.0954
H8 H 0.2794 -0.1038 0.0088
H9 H 0.1896 -0.1136 0.0889
C8 C -0.0129(6) 0.0221(4) -0.0111(3)
H10 H -0.0511 0.0854 -0.0390
H11 H -0.0126 -0.0297 -0.0532
C9 C -0.1426(6) -0.0065(4) 0.0486(3)
H12 H -0.1787 -0.0767 0.0412
H13 H -0.2539 0.0347 0.0381
C10 C -0.0344(5) 0.0117(3) 0.1380(3)
H14 H -0.1115 0.0458 0.1719
H15 H 0.0086 -0.0515 0.1648
C11 C 0.0620(6) 0.1908(3) 0.1158(2)
H16 H 0.0754 0.2163 0.0613
H17 H -0.0680 0.1947 0.1204
C12 C 0.2547(5) 0.1837(3) 0.2445(2)
C13 C 0.4437(6) 0.2198(3) 0.2893(2)
H18 H 0.4397 0.2867 0.3144
C14 C 0.5568(6) 0.2175(3) 0.2190(3)
H19 H 0.6875 0.2070 0.2414
H20 H 0.5427 0.2802 0.1878
C15 C 0.5261(6) 0.1403(4) 0.3515(2)
C16 C 0.4979(6) 0.0439(3) 0.3349(2)
C17 C 0.0821(8) 0.2401(4) 0.3482(3)
H21 H -0.0057 0.2174 0.3814
H22 H 0.0294 0.2949 0.3132
H23 H 0.1933 0.2624 0.3844
C18 C 0.3586(5) 0.0046(3) 0.2620(2)
H24 H 0.4185 -0.0485 0.2344
H25 H 0.6321 0.1678 0.4049
H26 H 0.5629 -0.0163 0.3799
loop_
_geom_bond_atom_site_label_1
_geom_bond_atom_site_label_2
_geom_bond_site_symmetry_1
_geom_bond_site_symmetry_2
O1 C11 1_555 1_555
O2 C12 1_555 1_555
O3 H1 1_555 1_555
O4 H2 1_555 1_555
C1 O3 1_555 1_555
H3 C1 1_555 1_555
C2 C1 1_555 1_555
H4 C2 1_555 1_555
H5 C2 1_555 1_555
C3 C2 1_555 1_555
H6 C3 1_555 1_555
C4 C3 1_555 1_555
C5 C4 1_555 1_555
C6 C1 1_555 1_555
C7 C6 1_555 1_555
H7 C7 1_555 1_555
H8 C7 1_555 1_555
H9 C7 1_555 1_555
C8 C6 1_555 1_555
H10 C8 1_555 1_555
H11 C8 1_555 1_555
C9 C8 1_555 1_555
H12 C9 1_555 1_555
H13 C9 1_555 1_555
C10 C5 1_555 1_555
H14 C10 1_555 1_555
H15 C10 1_555 1_555
C11 C5 1_555 1_555
H16 C11 1_555 1_555
H17 C11 1_555 1_555
C12 O1 1_555 1_555
C13 C12 1_555 1_555
H18 C13 1_555 1_555
C14 C3 1_555 1_555
H19 C14 1_555 1_555
H20 C14 1_555 1_555
C15 C13 1_555 1_555
C16 C15 1_555 1_555
C17 O2 1_555 1_555
H21 C17 1_555 1_555
H22 C17 1_555 1_555
H23 C17 1_555 1_555
C18 O4 1_555 1_555
H24 C18 1_555 1_555
H25 C15 1_555 1_555
H26 C16 1_555 1_555
C4 C12 1_555 1_555
C4 C18 1_555 1_555
C5 C6 1_555 1_555
C9 C10 1_555 1_555
C13 C14 1_555 1_555
C16 C18 1_555 1_555

#END
