
#######################################################################
#
#                 Cambridge Crystallographic Data Centre
#                                CCDC 
#
#######################################################################
#
# If this CIF has been generated from an entry in the Cambridge 
# Structural Database, then it will include bibliographic, chemical, 
# crystal, experimental, refinement or atomic coordinate data resulting 
# from the CCDC's data processing and validation procedures.
#
#######################################################################

data_COCFIK
_chemical_formula_moiety         'C38 H31 N2 O2 P1 S1'
_chemical_name_systematic        
N,2-Diphenyl-N'-(phenylsulfonyl)-2-(triphenylphosphanylidene)ethanimidamide
_symmetry_cell_setting           triclinic
_symmetry_space_group_name_H-M   'P -1'
_symmetry_Int_Tables_number      2
_space_group_name_Hall           '-P 1'
loop_
_symmetry_equiv_pos_site_id
_symmetry_equiv_pos_as_xyz
1 x,y,z
2 -x,-y,-z
_cell_length_a                   11.2087(5)
_cell_length_b                   12.0664(5)
_cell_length_c                   13.4025(6)
_cell_angle_alpha                103.9954(13)
_cell_angle_beta                 112.3908(10)
_cell_angle_gamma                97.9045(11)
_cell_volume                     1572.08
_exptl_crystal_colour            colorless
_exptl_crystal_description       chunk
_chemical_melting_point          '177-179 deg.C'
_cell_formula_units_Z            2
loop_
_atom_site_label
_atom_site_type_symbol
_atom_site_fract_x
_atom_site_fract_y
_atom_site_fract_z
S1 S 0.07027(6) 0.00958(5) 0.24618(6)
P1 P 0.46456(5) 0.19708(5) 0.29398(4)
O1 O -0.05411(16) 0.00076(16) 0.15142(16)
O2 O 0.0958(2) -0.09958(14) 0.2625(2)
N1 N 0.08582(17) 0.21160(18) 0.16077(18)
N2 N 0.19847(17) 0.07947(16) 0.24195(17)
C1 C 0.61061(18) 0.30490(18) 0.31733(17)
C2 C 0.6554(2) 0.2961(2) 0.23371(19)
C3 C 0.7627(2) 0.3808(2) 0.2485(2)
C4 C 0.8269(2) 0.4739(2) 0.3478(2)
C5 C 0.7832(2) 0.4855(2) 0.4313(2)
C6 C 0.6755(2) 0.40118(19) 0.41703(19)
C7 C 0.4799(2) 0.05922(18) 0.21445(17)
C8 C 0.3698(2) -0.0177(2) 0.11956(19)
C9 C 0.3835(2) -0.1192(2) 0.0550(2)
C10 C 0.5054(2) -0.1448(2) 0.0822(2)
C11 C 0.6156(2) -0.0684(2) 0.1741(2)
C12 C 0.6030(2) 0.0326(2) 0.24068(19)
C13 C 0.4872(2) 0.19789(18) 0.43477(17)
C14 C 0.4259(2) 0.2631(2) 0.48996(19)
C15 C 0.4522(2) 0.2738(2) 0.6011(2)
C16 C 0.5408(3) 0.2179(2) 0.6588(2)
C17 C 0.6033(3) 0.1522(2) 0.6066(2)
C18 C 0.5760(2) 0.1423(2) 0.4939(2)
C19 C 0.32291(18) 0.24064(17) 0.22034(17)
C20 C 0.32848(19) 0.30982(18) 0.14383(17)
C21 C 0.4021(2) 0.4263(2) 0.1830(2)
C22 C 0.4080(2) 0.4872(2) 0.1088(2)
C23 C 0.3376(2) 0.4334(2) -0.0063(2)
C24 C 0.2602(2) 0.3190(2) -0.0475(2)
C25 C 0.2571(2) 0.2565(2) 0.02657(19)
C26 C 0.20061(19) 0.17722(19) 0.20869(18)
C27 C 0.0709(2) 0.3256(2) 0.1635(2)
C28 C 0.1498(2) 0.4239(2) 0.2561(2)
C29 C 0.1266(3) 0.5339(2) 0.2589(2)
C30 C 0.0228(4) 0.5452(3) 0.1701(3)
C31 C -0.0566(3) 0.4486(3) 0.0775(3)
C32 C -0.0338(2) 0.3392(2) 0.0719(2)
C33 C 0.0602(2) 0.0904(2) 0.3706(2)
C34 C -0.0283(2) 0.1608(2) 0.3641(2)
C35 C -0.0392(2) 0.2193(2) 0.4608(2)
C36 C 0.0365(3) 0.2080(2) 0.5637(2)
C37 C 0.1259(3) 0.1425(3) 0.5704(2)
C38 C 0.1388(2) 0.0838(2) 0.4750(2)
H1 H 0.6128 0.2325 0.1666
H2 H 0.7912 0.3746 0.1911
H3 H 0.9007 0.5295 0.3586
H4 H 0.8258 0.5501 0.4976
H5 H 0.6464 0.4089 0.4742
H6 H 0.2868 -0.0011 0.0993
H7 H 0.3089 -0.1711 -0.0079
H8 H 0.5130 -0.2137 0.0384
H9 H 0.6988 -0.0842 0.1917
H10 H 0.6780 0.0834 0.3039
H11 H 0.3654 0.3007 0.4512
H12 H 0.4103 0.3187 0.6372
H13 H 0.5583 0.2248 0.7340
H14 H 0.6633 0.1146 0.6459
H15 H 0.6182 0.0976 0.4580
H16 H 0.4486 0.4646 0.2610
H17 H 0.4600 0.5645 0.1373
H18 H 0.3418 0.4737 -0.0564
H19 H 0.2095 0.2832 -0.1255
H20 H 0.2068 0.1785 -0.0026
H21 H 0.2195 0.4162 0.3175
H22 H 0.1817 0.6000 0.3213
H23 H 0.0060 0.6190 0.1725
H24 H -0.1273 0.4572 0.0173
H25 H -0.0873 0.2743 0.0077
H26 H -0.0804 0.1686 0.2944
H27 H -0.0984 0.2669 0.4562
H28 H 0.0264 0.2451 0.6284
H29 H 0.1797 0.1370 0.6407
H30 H 0.2013 0.0394 0.4813
H31 H 0.0134 0.1557 0.1242
loop_
_geom_bond_atom_site_label_1
_geom_bond_atom_site_label_2
_geom_bond_site_symmetry_1
_geom_bond_site_symmetry_2
S1 O1 1_555 1_555
P1 C1 1_555 1_555
O2 S1 1_555 1_555
N1 C26 1_555 1_555
N2 S1 1_555 1_555
C1 C2 1_555 1_555
C2 C3 1_555 1_555
C3 C4 1_555 1_555
C4 C5 1_555 1_555
C5 C6 1_555 1_555
C6 C1 1_555 1_555
C7 P1 1_555 1_555
C8 C7 1_555 1_555
C9 C8 1_555 1_555
C10 C9 1_555 1_555
C11 C10 1_555 1_555
C12 C7 1_555 1_555
C13 P1 1_555 1_555
C14 C13 1_555 1_555
C15 C14 1_555 1_555
C16 C15 1_555 1_555
C17 C16 1_555 1_555
C18 C13 1_555 1_555
C19 P1 1_555 1_555
C20 C19 1_555 1_555
C21 C20 1_555 1_555
C22 C21 1_555 1_555
C23 C22 1_555 1_555
C24 C23 1_555 1_555
C25 C20 1_555 1_555
C26 N2 1_555 1_555
C27 N1 1_555 1_555
C28 C27 1_555 1_555
C29 C28 1_555 1_555
C30 C29 1_555 1_555
C31 C30 1_555 1_555
C32 C27 1_555 1_555
C33 S1 1_555 1_555
C34 C33 1_555 1_555
C35 C34 1_555 1_555
C36 C35 1_555 1_555
C37 C36 1_555 1_555
C38 C33 1_555 1_555
H1 C2 1_555 1_555
H2 C3 1_555 1_555
H3 C4 1_555 1_555
H4 C5 1_555 1_555
H5 C6 1_555 1_555
H6 C8 1_555 1_555
H7 C9 1_555 1_555
H8 C10 1_555 1_555
H9 C11 1_555 1_555
H10 C12 1_555 1_555
H11 C14 1_555 1_555
H12 C15 1_555 1_555
H13 C16 1_555 1_555
H14 C17 1_555 1_555
H15 C18 1_555 1_555
H16 C21 1_555 1_555
H17 C22 1_555 1_555
H18 C23 1_555 1_555
H19 C24 1_555 1_555
H20 C25 1_555 1_555
H21 C28 1_555 1_555
H22 C29 1_555 1_555
H23 C30 1_555 1_555
H24 C31 1_555 1_555
H25 C32 1_555 1_555
H26 C34 1_555 1_555
H27 C35 1_555 1_555
H28 C36 1_555 1_555
H29 C37 1_555 1_555
H30 C38 1_555 1_555
H31 N1 1_555 1_555
C11 C12 1_555 1_555
C17 C18 1_555 1_555
C19 C26 1_555 1_555
C24 C25 1_555 1_555
C31 C32 1_555 1_555
C37 C38 1_555 1_555

#END
