
#######################################################################
#
#                 Cambridge Crystallographic Data Centre
#                                CCDC 
#
#######################################################################
#
# If this CIF has been generated from an entry in the Cambridge 
# Structural Database, then it will include bibliographic, chemical, 
# crystal, experimental, refinement or atomic coordinate data resulting 
# from the CCDC's data processing and validation procedures.
#
#######################################################################

data_COCGUY
_chemical_formula_moiety         'C19 H27 B1 F2 N2 O1'
_chemical_name_systematic        
(2-(Ethoxy(4-ethyl-3,5-dimethyl-2H-pyrrol-2-ylidene)methyl)-4-ethyl-3,5-dimethyl-1H-pyrrolato)-difluoro-boron
_symmetry_cell_setting           monoclinic
_symmetry_space_group_name_H-M   'C c'
_symmetry_Int_Tables_number      9
_space_group_name_Hall           'C -2yc'
loop_
_symmetry_equiv_pos_site_id
_symmetry_equiv_pos_as_xyz
1 x,y,z
2 x,-y,1/2+z
3 1/2+x,1/2+y,z
4 1/2+x,1/2-y,1/2+z
_cell_length_a                   13.9165(9)
_cell_length_b                   17.1597(10)
_cell_length_c                   8.4065(5)
_cell_angle_alpha                90
_cell_angle_beta                 114.970(5)
_cell_angle_gamma                90
_cell_volume                     1819.85
_exptl_crystal_colour            orange
_exptl_crystal_description       needle
_cell_formula_units_Z            4
loop_
_atom_site_label
_atom_site_type_symbol
_atom_site_fract_x
_atom_site_fract_y
_atom_site_fract_z
F1 F 0.32437(5) 0.72932(3) 0.50027(7)
F2 F 0.39562(5) 0.71306(3) 0.79590(7)
O1 O 0.33711(6) 0.42378(3) 0.54941(7)
N1 N 0.44431(5) 0.62149(4) 0.62616(8)
N2 N 0.26243(6) 0.62132(4) 0.61381(9)
C1 C 0.53924(6) 0.64530(5) 0.63607(10)
C2 C 0.59766(7) 0.58026(5) 0.62254(10)
C3 C 0.53458(6) 0.51418(5) 0.60219(9)
C4 C 0.43860(6) 0.54071(4) 0.60470(9)
C5 C 0.34515(7) 0.50165(4) 0.58366(9)
C6 C 0.25824(6) 0.54081(5) 0.58844(10)
C7 C 0.15674(7) 0.51387(5) 0.56683(11)
C8 C 0.10071(7) 0.57939(5) 0.57861(12)
C9 C 0.16844(6) 0.64448(5) 0.60852(11)
C10 C 0.57146(7) 0.72904(5) 0.65003(11)
H1 H 0.5266 0.7599 0.6899
H2 H 0.5632 0.7479 0.5349
H3 H 0.6457 0.7342 0.7344
C11 C 0.70747(7) 0.58460(5) 0.63260(12)
H4 H 0.7127 0.6304 0.5650
H5 H 0.7214 0.5374 0.5780
C12 C 0.79184(8) 0.59118(6) 0.82171(14)
H6 H 0.7894 0.5447 0.8877
H7 H 0.7780 0.6376 0.8768
H8 H 0.8621 0.5955 0.8217
C13 C 0.56440(7) 0.43197(5) 0.58149(12)
H9 H 0.5977 0.4071 0.6970
H10 H 0.6143 0.4323 0.5271
H11 H 0.5006 0.4029 0.5069
C14 C 0.11704(8) 0.43176(6) 0.54017(14)
H12 H 0.0394 0.4319 0.4877
H13 H 0.1439 0.4048 0.6535
H14 H 0.1419 0.4048 0.4618
C15 C -0.01244(8) 0.58291(6) 0.55537(14)
H15 H -0.0200 0.6257 0.6282
H16 H -0.0305 0.5335 0.5971
C16 C -0.09023(8) 0.59623(6) 0.36332(16)
H17 H -0.0844 0.5533 0.2911
H18 H -0.0733 0.6455 0.3219
H19 H -0.1627 0.5985 0.3543
C17 C 0.14464(8) 0.72704(5) 0.63455(13)
H20 H 0.2075 0.7593 0.6593
H21 H 0.1251 0.7301 0.7335
H22 H 0.0858 0.7460 0.5280
C18 C 0.37021(8) 0.37465(5) 0.70426(10)
H23 H 0.3274 0.3864 0.7701
H24 H 0.4458 0.3841 0.7824
C19 C 0.35420(9) 0.29115(5) 0.64345(12)
H25 H 0.3962 0.2804 0.5771
H26 H 0.2790 0.2822 0.5682
H27 H 0.3770 0.2565 0.7455
B1 B 0.35678(8) 0.67411(5) 0.63548(11)
loop_
_geom_bond_atom_site_label_1
_geom_bond_atom_site_label_2
_geom_bond_site_symmetry_1
_geom_bond_site_symmetry_2
F1 B1 1_555 1_555
F2 B1 1_555 1_555
O1 C5 1_555 1_555
N1 C1 1_555 1_555
N2 C6 1_555 1_555
C1 C2 1_555 1_555
C2 C3 1_555 1_555
C3 C4 1_555 1_555
C4 N1 1_555 1_555
C5 C4 1_555 1_555
C6 C5 1_555 1_555
C7 C6 1_555 1_555
C8 C7 1_555 1_555
C9 N2 1_555 1_555
C10 C1 1_555 1_555
H1 C10 1_555 1_555
H2 C10 1_555 1_555
H3 C10 1_555 1_555
C11 C2 1_555 1_555
H4 C11 1_555 1_555
H5 C11 1_555 1_555
C12 C11 1_555 1_555
H6 C12 1_555 1_555
H7 C12 1_555 1_555
H8 C12 1_555 1_555
C13 C3 1_555 1_555
H9 C13 1_555 1_555
H10 C13 1_555 1_555
H11 C13 1_555 1_555
C14 C7 1_555 1_555
H12 C14 1_555 1_555
H13 C14 1_555 1_555
H14 C14 1_555 1_555
C15 C8 1_555 1_555
H15 C15 1_555 1_555
H16 C15 1_555 1_555
C16 C15 1_555 1_555
H17 C16 1_555 1_555
H18 C16 1_555 1_555
H19 C16 1_555 1_555
C17 C9 1_555 1_555
H20 C17 1_555 1_555
H21 C17 1_555 1_555
H22 C17 1_555 1_555
C18 O1 1_555 1_555
H23 C18 1_555 1_555
H24 C18 1_555 1_555
C19 C18 1_555 1_555
H25 C19 1_555 1_555
H26 C19 1_555 1_555
H27 C19 1_555 1_555
B1 N1 1_555 1_555
N2 B1 1_555 1_555
C8 C9 1_555 1_555

#END
