
#######################################################################
#
#                 Cambridge Crystallographic Data Centre
#                                CCDC 
#
#######################################################################
#
# If this CIF has been generated from an entry in the Cambridge 
# Structural Database, then it will include bibliographic, chemical, 
# crystal, experimental, refinement or atomic coordinate data resulting 
# from the CCDC's data processing and validation procedures.
#
#######################################################################

data_COCGOR
_chemical_formula_moiety         'C27 H24 O4'
_chemical_name_systematic        
(E)-3-((1R,2R,3R)-2-(4-Methoxybenzoyl)-3-phenylcyclopropyl)-1-(4-methoxyphenyl)prop-2-en-1-one
_symmetry_cell_setting           monoclinic
_symmetry_space_group_name_H-M   'P 21/n'
_symmetry_Int_Tables_number      14
_space_group_name_Hall           '-P 2yn'
loop_
_symmetry_equiv_pos_site_id
_symmetry_equiv_pos_as_xyz
1 x,y,z
2 1/2-x,1/2+y,1/2-z
3 -x,-y,-z
4 1/2+x,1/2-y,1/2+z
_cell_length_a                   8.7595(6)
_cell_length_b                   5.8500(3)
_cell_length_c                   42.699(2)
_cell_angle_alpha                90
_cell_angle_beta                 95.89
_cell_angle_gamma                90
_cell_volume                     2176.48
_exptl_crystal_colour            colorless
_exptl_crystal_description       block
_chemical_melting_point          129-131deg.C
_cell_formula_units_Z            4
loop_
_atom_site_label
_atom_site_type_symbol
_atom_site_fract_x
_atom_site_fract_y
_atom_site_fract_z
O1 O 1.05001(15) 0.8548(3) 0.23781(4)
O2 O 0.3963(2) 1.0999(3) 0.17451(5)
O3 O 0.86579(16) 1.0259(3) -0.04806(3)
O4 O 0.51914(17) 1.3033(2) 0.06891(3)
C1 C 1.1437(3) 0.6576(5) 0.23574(7)
H1 H 1.0865 0.5236 0.2402
H2 H 1.2329 0.6698 0.2507
H3 H 1.1749 0.6464 0.2149
C2 C 0.9089(2) 0.8555(3) 0.22124(4)
C3 C 0.8191(2) 1.0458(3) 0.22572(4)
H4 H 0.8570 1.1620 0.2392
C4 C 0.6751(2) 1.0623(3) 0.21034(4)
H5 H 0.6163 1.1915 0.2132
C5 C 0.6145(2) 0.8878(3) 0.19034(4)
C6 C 0.7061(2) 0.6993(3) 0.18616(4)
H6 H 0.6680 0.5816 0.1730
C7 C 0.8528(2) 0.6830(3) 0.20121(4)
H7 H 0.9135 0.5566 0.1979
C8 C 0.4598(2) 0.9156(3) 0.17410(4)
C9 C 0.3852(2) 0.7189(3) 0.15607(4)
H8 H 0.4005 0.5683 0.1659
C10 C 0.2352(2) 0.7550(3) 0.13681(4)
H9 H 0.2006 0.9143 0.1369
C11 C 0.10550(19) 0.5890(3) 0.13390(4)
C12 C 0.1048(2) 0.3874(3) 0.15103(5)
H10 H 0.1905 0.3479 0.1646
C13 C -0.0220(3) 0.2439(3) 0.14811(5)
H11 H -0.0203 0.1098 0.1598
C14 C -0.1488(2) 0.2970(4) 0.12828(5)
H12 H -0.2334 0.2000 0.1264
C15 C -0.1502(2) 0.4958(4) 0.11110(5)
H13 H -0.2362 0.5341 0.0975
C16 C -0.0246(2) 0.6385(3) 0.11394(5)
H14 H -0.0274 0.7721 0.1021
C17 C 0.37931(19) 0.7240(3) 0.11995(4)
H15 H 0.3895 0.5753 0.1098
C18 C 0.4386(2) 0.9186(3) 0.10371(4)
H16 H 0.4231 1.0632 0.1119
C19 C 0.51292(19) 0.9063(3) 0.07827(4)
H17 H 0.5380 0.7630 0.0709
C20 C 0.5575(2) 1.1106(3) 0.06112(4)
C21 C 0.64673(19) 1.0811(3) 0.03351(4)
C22 C 0.6519(2) 1.2600(3) 0.01215(5)
H18 H 0.6043 1.3978 0.0160
C23 C 0.7260(2) 1.2369(3) -0.01455(5)
H19 H 0.7272 1.3582 -0.0286
C24 C 0.7986(2) 1.0342(3) -0.02061(4)
C25 C 0.8001(2) 0.8559(3) 0.00078(4)
H20 H 0.8518 0.7209 -0.0027
C26 C 0.7235(2) 0.8808(3) 0.02742(4)
H21 H 0.7236 0.7602 0.0416
C27 C 0.9184(3) 0.8114(4) -0.05814(5)
H22 H 1.0009 0.7582 -0.0434
H23 H 0.9542 0.8278 -0.0785
H24 H 0.8357 0.7030 -0.0593
loop_
_geom_bond_atom_site_label_1
_geom_bond_atom_site_label_2
_geom_bond_site_symmetry_1
_geom_bond_site_symmetry_2
O1 C1 1_555 1_555
O2 C8 1_555 1_555
O3 C24 1_555 1_555
O4 C20 1_555 1_555
C1 H1 1_555 1_555
H2 C1 1_555 1_555
H3 C1 1_555 1_555
C2 O1 1_555 1_555
C3 C2 1_555 1_555
H4 C3 1_555 1_555
C4 C3 1_555 1_555
H5 C4 1_555 1_555
C5 C4 1_555 1_555
C6 C5 1_555 1_555
H6 C6 1_555 1_555
C7 C2 1_555 1_555
H7 C7 1_555 1_555
C8 C5 1_555 1_555
C9 C8 1_555 1_555
H8 C9 1_555 1_555
C10 C9 1_555 1_555
H9 C10 1_555 1_555
C11 C10 1_555 1_555
C12 C11 1_555 1_555
H10 C12 1_555 1_555
C13 C12 1_555 1_555
H11 C13 1_555 1_555
C14 C13 1_555 1_555
H12 C14 1_555 1_555
C15 C14 1_555 1_555
H13 C15 1_555 1_555
C16 C11 1_555 1_555
H14 C16 1_555 1_555
C17 C9 1_555 1_555
H15 C17 1_555 1_555
C18 C17 1_555 1_555
H16 C18 1_555 1_555
C19 C18 1_555 1_555
H17 C19 1_555 1_555
C20 C19 1_555 1_555
C21 C20 1_555 1_555
C22 C21 1_555 1_555
H18 C22 1_555 1_555
C23 C22 1_555 1_555
H19 C23 1_555 1_555
C24 C23 1_555 1_555
C25 C24 1_555 1_555
H20 C25 1_555 1_555
C26 C21 1_555 1_555
H21 C26 1_555 1_555
C27 O3 1_555 1_555
H22 C27 1_555 1_555
H23 C27 1_555 1_555
H24 C27 1_555 1_555
C6 C7 1_555 1_555
C10 C17 1_555 1_555
C15 C16 1_555 1_555
C25 C26 1_555 1_555

#END
