
#######################################################################
#
#                 Cambridge Crystallographic Data Centre
#                                CCDC 
#
#######################################################################
#
# If this CIF has been generated from an entry in the Cambridge 
# Structural Database, then it will include bibliographic, chemical, 
# crystal, experimental, refinement or atomic coordinate data resulting 
# from the CCDC's data processing and validation procedures.
#
#######################################################################

data_COCHAF
_chemical_formula_moiety         'C16 H27 B11 F2 N2 S1'
_chemical_name_systematic        
Difluoro-(2-((3,5-dimethyl-2H-pyrrol-2-ylidene)(1,4-dicarba-closo-dodecaboran-1-ylmethylsulfanyl)methyl)-3,5-dimethyl-1H-pyrrolato)-boron
_symmetry_cell_setting           monoclinic
_symmetry_space_group_name_H-M   'P 21/c'
_symmetry_Int_Tables_number      14
_space_group_name_Hall           '-P 2ybc'
loop_
_symmetry_equiv_pos_site_id
_symmetry_equiv_pos_as_xyz
1 x,y,z
2 -x,1/2+y,1/2-z
3 -x,-y,-z
4 x,1/2-y,1/2+z
_cell_length_a                   13.8364(9)
_cell_length_b                   13.3718(11)
_cell_length_c                   12.0936(12)
_cell_angle_alpha                90
_cell_angle_beta                 93.295(6)
_cell_angle_gamma                90
_cell_volume                     2233.83
_exptl_crystal_colour            orange
_exptl_crystal_description       plate
_cell_formula_units_Z            4
loop_
_atom_site_label
_atom_site_type_symbol
_atom_site_fract_x
_atom_site_fract_y
_atom_site_fract_z
S1 S 0.66406(12) 0.54172(14) 0.6250(2)
F1 F 0.2891(3) 0.6712(3) 0.7325(4)
F2 F 0.2528(3) 0.5319(3) 0.6308(4)
N1 N 0.3977(4) 0.5311(4) 0.7503(7)
N2 N 0.3864(4) 0.6341(4) 0.5788(6)
C1 C 0.3740(5) 0.4750(5) 0.8358(9)
C2 C 0.4569(5) 0.4279(6) 0.8828(8)
H1 H 0.4594 0.3855 0.9460
C3 C 0.5344(5) 0.4536(5) 0.8214(9)
C4 C 0.4976(5) 0.5187(5) 0.7367(9)
C5 C 0.5403(5) 0.5665(5) 0.6460(9)
C6 C 0.4871(5) 0.6216(5) 0.5706(7)
C7 C 0.5121(5) 0.6749(5) 0.4724(8)
C8 C 0.4276(5) 0.7152(6) 0.4257(9)
H2 H 0.4221 0.7548 0.3604
C9 C 0.3519(5) 0.6879(5) 0.4903(8)
C10 C 0.2732(5) 0.4691(6) 0.8746(9)
H3 H 0.2536 0.5351 0.9008
H4 H 0.2713 0.4207 0.9353
H5 H 0.2286 0.4478 0.8131
C11 C 0.6359(5) 0.4156(6) 0.8463(8)
H6 H 0.6380 0.3756 0.9142
H7 H 0.6803 0.4725 0.8562
H8 H 0.6555 0.3742 0.7846
C12 C 0.6083(5) 0.6899(6) 0.4228(8)
H9 H 0.5995 0.7312 0.3561
H10 H 0.6351 0.6248 0.4034
H11 H 0.6528 0.7234 0.4767
C13 C 0.2461(5) 0.7126(6) 0.4726(8)
H12 H 0.2100 0.6520 0.4513
H13 H 0.2373 0.7626 0.4136
H14 H 0.2222 0.7395 0.5413
C14 C 0.7200(5) 0.6350(5) 0.7147(8)
H15 H 0.7012 0.7023 0.6869
H16 H 0.6962 0.6277 0.7899
C15 C 0.8310(4) 0.6259(5) 0.7211(8)
C16 C 1.0536(5) 0.6168(6) 0.7404(8)
H17 H 1.1346 0.6142 0.7471
B1 B 0.3285(5) 0.5927(6) 0.6756(9)
B2 B 0.8844(6) 0.5117(7) 0.7453(10)
H18 H 0.8442 0.4397 0.7538
B3 B 0.8864(6) 0.6065(7) 0.8535(10)
H19 H 0.8484 0.5971 0.9322
B4 B 0.8918(6) 0.7248(7) 0.7837(12)
H20 H 0.8569 0.7927 0.8182
B5 B 0.8928(5) 0.7031(7) 0.6380(10)
H21 H 0.8584 0.7572 0.5770
B6 B 0.8884(6) 0.5711(7) 0.6153(10)
H22 H 0.8512 0.5385 0.5389
B7 B 0.9929(6) 0.5397(7) 0.8251(11)
H23 H 1.0271 0.4860 0.8867
B8 B 0.9978(6) 0.6699(8) 0.8464(11)
H24 H 1.0360 0.7023 0.9223
B9 B 1.0016(6) 0.7304(7) 0.7140(11)
H25 H 1.0415 0.8022 0.7026
B10 B 0.9994(6) 0.6349(7) 0.6122(9)
H26 H 1.0381 0.6434 0.5339
B11 B 0.9941(6) 0.5182(6) 0.6809(11)
H27 H 1.0299 0.4500 0.6483
loop_
_geom_bond_atom_site_label_1
_geom_bond_atom_site_label_2
_geom_bond_site_symmetry_1
_geom_bond_site_symmetry_2
S1 C5 1_555 1_555
F1 B1 1_555 1_555
F2 B1 1_555 1_555
N1 C1 1_555 1_555
N2 C6 1_555 1_555
C1 C2 1_555 1_555
C2 H1 1_555 1_555
C3 C2 1_555 1_555
C4 N1 1_555 1_555
C5 C4 1_555 1_555
C6 C5 1_555 1_555
C7 C6 1_555 1_555
C8 C7 1_555 1_555
H2 C8 1_555 1_555
C9 N2 1_555 1_555
C10 C1 1_555 1_555
H3 C10 1_555 1_555
H4 C10 1_555 1_555
H5 C10 1_555 1_555
C11 C3 1_555 1_555
H6 C11 1_555 1_555
H7 C11 1_555 1_555
H8 C11 1_555 1_555
C12 C7 1_555 1_555
H9 C12 1_555 1_555
H10 C12 1_555 1_555
H11 C12 1_555 1_555
C13 C9 1_555 1_555
H12 C13 1_555 1_555
H13 C13 1_555 1_555
H14 C13 1_555 1_555
C14 S1 1_555 1_555
H15 C14 1_555 1_555
H16 C14 1_555 1_555
C15 C14 1_555 1_555
C16 H17 1_555 1_555
B1 N1 1_555 1_555
B2 C15 1_555 1_555
H18 B2 1_555 1_555
B3 C15 1_555 1_555
H19 B3 1_555 1_555
B4 C15 1_555 1_555
H20 B4 1_555 1_555
B5 C15 1_555 1_555
H21 B5 1_555 1_555
B6 C15 1_555 1_555
H22 B6 1_555 1_555
B7 C16 1_555 1_555
H23 B7 1_555 1_555
B8 C16 1_555 1_555
H24 B8 1_555 1_555
B9 C16 1_555 1_555
H25 B9 1_555 1_555
B10 C16 1_555 1_555
H26 B10 1_555 1_555
B11 C16 1_555 1_555
H27 B11 1_555 1_555
N2 B1 1_555 1_555
C3 C4 1_555 1_555
C8 C9 1_555 1_555
B2 B3 1_555 1_555
B2 B6 1_555 1_555
B2 B7 1_555 1_555
B2 B11 1_555 1_555
B3 B4 1_555 1_555
B3 B7 1_555 1_555
B3 B8 1_555 1_555
B4 B5 1_555 1_555
B4 B8 1_555 1_555
B4 B9 1_555 1_555
B5 B6 1_555 1_555
B5 B9 1_555 1_555
B5 B10 1_555 1_555
B6 B10 1_555 1_555
B6 B11 1_555 1_555
B7 B8 1_555 1_555
B7 B11 1_555 1_555
B8 B9 1_555 1_555
B9 B10 1_555 1_555
B10 B11 1_555 1_555

#END
