
#######################################################################
#
#                 Cambridge Crystallographic Data Centre
#                                CCDC 
#
#######################################################################
#
# If this CIF has been generated from an entry in the Cambridge 
# Structural Database, then it will include bibliographic, chemical, 
# crystal, experimental, refinement or atomic coordinate data resulting 
# from the CCDC's data processing and validation procedures.
#
#######################################################################

data_COCKUC
_chemical_formula_moiety         'C19 H20 B1 F2 N3,C1 H2 Cl2'
_chemical_name_systematic        
"4-(5,5-difluoro-1,3,7,9-tetramethyl-5H-4,5-dipyrrolo[1,2-c:2',1'-f][1,3,2]diazaborinin-10-yl)aniline dichloromethane solvate"
_symmetry_cell_setting           triclinic
_symmetry_space_group_name_H-M   'P -1'
_symmetry_Int_Tables_number      2
_space_group_name_Hall           '-P 1'
loop_
_symmetry_equiv_pos_site_id
_symmetry_equiv_pos_as_xyz
1 x,y,z
2 -x,-y,-z
_cell_length_a                   6.9723(7)
_cell_length_b                   11.1202(14)
_cell_length_c                   14.3071(16)
_cell_angle_alpha                96.362(4)
_cell_angle_beta                 102.577(3)
_cell_angle_gamma                108.094(2)
_cell_volume                     1009.91
_exptl_crystal_colour            orange
_cell_formula_units_Z            2
loop_
_atom_site_label
_atom_site_type_symbol
_atom_site_fract_x
_atom_site_fract_y
_atom_site_fract_z
B1 B -0.1605(8) 0.9634(5) 0.7874(4)
F1 F -0.1221(4) 0.8549(2) 0.7501(2)
F2 F -0.1837(4) 0.9546(3) 0.8808(2)
N1 N -0.3599(5) 0.9720(3) 0.7211(3)
N2 N 0.0205(6) 1.0858(3) 0.7911(3)
N3 N -0.2073(6) 1.6534(4) 0.5690(3)
H1 H -0.2196 1.6589 0.5072
H2 H -0.1920 1.7211 0.6119
C1 C -0.2122(7) 1.5375(4) 0.5988(4)
C2 C -0.2363(7) 1.4291(4) 0.5323(4)
H3 H -0.2549 1.4326 0.4650
C3 C -0.2334(7) 1.3160(4) 0.5639(3)
H4 H -0.2464 1.2433 0.5180
C4 C -0.2117(6) 1.3073(4) 0.6614(3)
C5 C -0.1879(6) 1.4143(4) 0.7270(3)
H5 H -0.1688 1.4101 0.7942
C6 C -0.1911(7) 1.5293(4) 0.6971(3)
H6 H -0.1790 1.6014 0.7432
C7 C -0.1951(7) 1.1889(4) 0.6962(3)
C8 C 0.0005(6) 1.1924(4) 0.7491(3)
C9 C 0.2029(7) 1.2877(4) 0.7715(3)
C10 C 0.3409(7) 1.2369(4) 0.8243(3)
H7 H 0.4884 1.2777 0.8474
C11 C 0.2253(7) 1.1152(4) 0.8375(3)
C12 C -0.5526(7) 0.8827(4) 0.6996(3)
C13 C -0.6946(7) 0.9293(4) 0.6435(3)
H8 H -0.8408 0.8842 0.6183
C14 C -0.5888(7) 1.0514(4) 0.6304(3)
C15 C -0.3728(7) 1.0793(4) 0.6796(3)
C16 C 0.2694(7) 1.4161(4) 0.7417(4)
H9 H 0.4204 1.4596 0.7696
H10 H 0.1944 1.4690 0.7656
H11 H 0.2367 1.4036 0.6704
C17 C 0.3073(8) 1.0289(5) 0.8944(4)
H12 H 0.1919 0.9496 0.8909
H13 H 0.3714 1.0728 0.9626
H14 H 0.4124 1.0076 0.8669
C18 C -0.6005(8) 0.7585(4) 0.7343(4)
H15 H -0.4706 0.7513 0.7722
H16 H -0.6659 0.6870 0.6781
H17 H -0.6966 0.7551 0.7755
C19 C -0.6866(7) 1.1299(5) 0.5709(4)
H18 H -0.8378 1.0839 0.5462
H19 H -0.6252 1.1444 0.5160
H20 H -0.6611 1.2131 0.6117
Cl1 Cl 0.1506(2) 0.67911(16) 0.96458(12)
Cl2 Cl -0.2970(2) 0.60707(16) 0.94515(12)
C20 C -0.0567(8) 0.7264(5) 0.9851(5)
H21 H -0.0285 0.7577 1.0560
H22 H -0.0610 0.7995 0.9520
loop_
_geom_bond_atom_site_label_1
_geom_bond_atom_site_label_2
_geom_bond_site_symmetry_1
_geom_bond_site_symmetry_2
B1 F1 1_555 1_555
F2 B1 1_555 1_555
N1 B1 1_555 1_555
N2 B1 1_555 1_555
N3 H1 1_555 1_555
H2 N3 1_555 1_555
C1 N3 1_555 1_555
C2 C1 1_555 1_555
H3 C2 1_555 1_555
C3 C2 1_555 1_555
H4 C3 1_555 1_555
C4 C3 1_555 1_555
C5 C4 1_555 1_555
H5 C5 1_555 1_555
C6 C1 1_555 1_555
H6 C6 1_555 1_555
C7 C4 1_555 1_555
C8 N2 1_555 1_555
C9 C8 1_555 1_555
C10 C9 1_555 1_555
H7 C10 1_555 1_555
C11 N2 1_555 1_555
C12 N1 1_555 1_555
C13 C12 1_555 1_555
H8 C13 1_555 1_555
C14 C13 1_555 1_555
C15 N1 1_555 1_555
C16 C9 1_555 1_555
H9 C16 1_555 1_555
H10 C16 1_555 1_555
H11 C16 1_555 1_555
C17 C11 1_555 1_555
H12 C17 1_555 1_555
H13 C17 1_555 1_555
H14 C17 1_555 1_555
C18 C12 1_555 1_555
H15 C18 1_555 1_555
H16 C18 1_555 1_555
H17 C18 1_555 1_555
C19 C14 1_555 1_555
H18 C19 1_555 1_555
H19 C19 1_555 1_555
H20 C19 1_555 1_555
Cl1 C20 1_555 1_555
Cl2 C20 1_555 1_555
C20 H21 1_555 1_555
H22 C20 1_555 1_555
C5 C6 1_555 1_555
C7 C8 1_555 1_555
C7 C15 1_555 1_555
C10 C11 1_555 1_555
C14 C15 1_555 1_555

#END
