
#######################################################################
#
#                 Cambridge Crystallographic Data Centre
#                                CCDC 
#
#######################################################################
#
# If this CIF has been generated from an entry in the Cambridge 
# Structural Database, then it will include bibliographic, chemical, 
# crystal, experimental, refinement or atomic coordinate data resulting 
# from the CCDC's data processing and validation procedures.
#
#######################################################################

data_COCLUD
_chemical_formula_moiety         'C26 H14 N2 S8'
_chemical_name_systematic        
4,4'-(2,5-bis(1,3-Dithiol-2-ylidene)dihydro[1,3]dithiolo[3,4]cyclobuta[1,2-d][1,3]dithiole-3a,3b-diyl)dibenzonitrile
_symmetry_cell_setting           monoclinic
_symmetry_space_group_name_H-M   'P 21/n'
_symmetry_Int_Tables_number      14
_space_group_name_Hall           '-P 2yn'
loop_
_symmetry_equiv_pos_site_id
_symmetry_equiv_pos_as_xyz
1 x,y,z
2 1/2-x,1/2+y,1/2-z
3 -x,-y,-z
4 1/2+x,1/2-y,1/2+z
_cell_length_a                   11.119(2)
_cell_length_b                   8.3345(17)
_cell_length_c                   28.069(6)
_cell_angle_alpha                90
_cell_angle_beta                 95.85(3)
_cell_angle_gamma                90
_cell_volume                     2587.64
_exptl_crystal_colour            orange
_exptl_crystal_description       blocks
_cell_formula_units_Z            4
loop_
_atom_site_label
_atom_site_type_symbol
_atom_site_fract_x
_atom_site_fract_y
_atom_site_fract_z
S1 S 0.03584(9) 0.62517(12) 0.22273(3)
S2 S 0.23501(9) 0.39201(12) 0.21479(3)
S3 S -0.15806(9) 0.32988(13) 0.22022(3)
S4 S 0.03434(10) 0.09683(12) 0.21224(3)
S5 S 0.07379(10) 0.76475(13) 0.11818(3)
S6 S 0.03604(11) 0.19273(13) 0.09783(3)
S7 S -0.15504(10) 0.43056(14) 0.10876(3)
S8 S 0.26622(10) 0.52529(14) 0.10864(3)
C1 C -0.0596(4) 0.2427(5) 0.18240(11)
C2 C -0.0599(4) 0.2839(5) 0.13603(12)
C3 C 0.0575(4) 0.5796(5) 0.31924(11)
C4 C 0.1395(3) 0.5389(5) 0.18721(11)
C5 C 0.1538(3) 0.3581(5) 0.26634(11)
H1 H 0.2102 0.3521 0.2955
C6 C 0.1545(3) 0.5998(5) 0.14367(11)
C7 C -0.0449(3) 0.3373(4) 0.27189(11)
C8 C 0.0606(3) 0.2183(4) 0.26525(11)
H2 H 0.0769 0.1503 0.2937
C9 C 0.0531(3) 0.4842(4) 0.27259(11)
C10 C -0.1097(4) 0.3227(5) 0.31721(11)
C11 C 0.1574(5) 0.7786(6) 0.06900(13)
H3 H 0.1414 0.8589 0.0462
C12 C -0.2149(4) 0.4059(6) 0.32093(13)
H4 H -0.2513 0.4604 0.2944
C13 C -0.2152(4) 0.3303(5) 0.40284(12)
C14 C -0.2679(4) 0.4101(5) 0.36330(13)
H5 H -0.3393 0.4670 0.3651
C15 C -0.2670(4) 0.3433(6) 0.44804(14)
C16 C 0.0239(4) 0.7148(5) 0.40698(13)
C17 C 0.1298(4) 0.5346(5) 0.35972(12)
H6 H 0.1899 0.4580 0.3578
C18 C -0.1130(4) 0.2416(6) 0.39926(13)
H7 H -0.0785 0.1837 0.4255
C19 C -0.0932(5) 0.4216(6) 0.05411(13)
H8 H -0.1202 0.4897 0.0290
N1 N -0.0318(5) 0.8169(7) 0.48905(14)
C20 C -0.0260(4) 0.7006(6) 0.32265(13)
H9 H -0.0711 0.7365 0.2950
C21 C -0.0080(5) 0.3168(6) 0.04937(14)
H10 H 0.0281 0.3088 0.0210
C22 C -0.0443(4) 0.7695(6) 0.36584(14)
H11 H -0.1009 0.8509 0.3675
C23 C 0.2429(5) 0.6735(6) 0.06496(13)
H12 H 0.2901 0.6777 0.0395
N2 N -0.3078(4) 0.3562(6) 0.48356(13)
C24 C 0.1124(5) 0.6042(6) 0.40356(13)
H13 H 0.1620 0.5746 0.4309
C25 C -0.0611(4) 0.2381(6) 0.35662(13)
H14 H 0.0083 0.1772 0.3545
C26 C -0.0052(5) 0.7741(7) 0.45307(16)
loop_
_geom_bond_atom_site_label_1
_geom_bond_atom_site_label_2
_geom_bond_site_symmetry_1
_geom_bond_site_symmetry_2
S1 C4 1_555 1_555
S2 C4 1_555 1_555
S3 C1 1_555 1_555
S4 C1 1_555 1_555
S5 C6 1_555 1_555
S6 C2 1_555 1_555
S7 C2 1_555 1_555
S8 C6 1_555 1_555
C1 C2 1_555 1_555
C3 C9 1_555 1_555
C4 C6 1_555 1_555
C5 S2 1_555 1_555
H1 C5 1_555 1_555
C7 S3 1_555 1_555
C8 S4 1_555 1_555
H2 C8 1_555 1_555
C9 S1 1_555 1_555
C10 C7 1_555 1_555
C11 S5 1_555 1_555
H3 C11 1_555 1_555
C12 C10 1_555 1_555
H4 C12 1_555 1_555
C13 C14 1_555 1_555
C14 C12 1_555 1_555
H5 C14 1_555 1_555
C15 C13 1_555 1_555
C16 C22 1_555 1_555
C17 C3 1_555 1_555
H6 C17 1_555 1_555
C18 C13 1_555 1_555
H7 C18 1_555 1_555
C19 S7 1_555 1_555
H8 C19 1_555 1_555
N1 C26 1_555 1_555
C20 C3 1_555 1_555
H9 C20 1_555 1_555
C21 S6 1_555 1_555
H10 C21 1_555 1_555
C22 C20 1_555 1_555
H11 C22 1_555 1_555
C23 S8 1_555 1_555
H12 C23 1_555 1_555
N2 C15 1_555 1_555
C24 C16 1_555 1_555
H13 C24 1_555 1_555
C25 C10 1_555 1_555
H14 C25 1_555 1_555
C26 C16 1_555 1_555
C5 C8 1_555 1_555
C5 C9 1_555 1_555
C7 C8 1_555 1_555
C7 C9 1_555 1_555
C11 C23 1_555 1_555
C17 C24 1_555 1_555
C18 C25 1_555 1_555
C19 C21 1_555 1_555

#END
