
#######################################################################
#
#                 Cambridge Crystallographic Data Centre
#                                CCDC 
#
#######################################################################
#
# If this CIF has been generated from an entry in the Cambridge 
# Structural Database, then it will include bibliographic, chemical, 
# crystal, experimental, refinement or atomic coordinate data resulting 
# from the CCDC's data processing and validation procedures.
#
#######################################################################

data_COCPOB
_chemical_formula_moiety         'C22 H23 Cl2 N1 O4'
_chemical_name_systematic        
3,3'-((Cyclohexylimino)bis(methylene))bis(5-chloro-2-hydroxybenzaldehyde)
_symmetry_cell_setting           monoclinic
_symmetry_space_group_name_H-M   'P 21/c'
_symmetry_Int_Tables_number      14
_space_group_name_Hall           '-P 2ybc'
loop_
_symmetry_equiv_pos_site_id
_symmetry_equiv_pos_as_xyz
1 x,y,z
2 -x,1/2+y,1/2-z
3 -x,-y,-z
4 x,1/2-y,1/2+z
_cell_length_a                   12.1528(18)
_cell_length_b                   8.6038(13)
_cell_length_c                   20.383(3)
_cell_angle_alpha                90
_cell_angle_beta                 105.492(2)
_cell_angle_gamma                90
_cell_volume                     2053.82
_exptl_crystal_colour            yellow
_exptl_crystal_description       block
_cell_formula_units_Z            4
loop_
_atom_site_label
_atom_site_type_symbol
_atom_site_fract_x
_atom_site_fract_y
_atom_site_fract_z
C1 C 0.1773(3) 0.8432(4) 0.09202(17)
C2 C 0.1437(3) 0.7475(4) 0.03428(17)
C3 C 0.1383(3) 0.5892(4) 0.04365(18)
H1 H 0.1160 0.5240 0.0060
C4 C 0.1657(3) 0.5266(4) 0.1085(2)
C5 C 0.1987(3) 0.6183(4) 0.16433(18)
H2 H 0.2162 0.5741 0.2075
C6 C 0.2063(3) 0.7792(4) 0.15729(17)
C7 C 0.2500(4) 0.8782(5) 0.2171(2)
H3 H 0.2586 0.9837 0.2098
C8 C 0.1166(3) 0.8191(4) -0.03548(18)
H4 H 0.1198 0.7395 -0.0686
H5 H 0.0396 0.8605 -0.0469
C9 C 0.3078(3) 0.8825(4) -0.04563(19)
H6 H 0.3496 0.9640 -0.0614
H7 H 0.2931 0.8001 -0.0794
C10 C 0.3801(3) 0.8193(4) 0.02108(18)
C11 C 0.4311(3) 0.9198(4) 0.07384(19)
H8 H 0.4227 1.0266 0.0672
C12 C 0.4935(3) 0.8636(5) 0.13544(19)
C13 C 0.5095(3) 0.7064(5) 0.14733(19)
H9 H 0.5524 0.6703 0.1894
C14 C 0.4604(3) 0.6028(4) 0.09546(19)
C15 C 0.3966(3) 0.6593(4) 0.03249(18)
C16 C 0.4747(4) 0.4347(5) 0.1074(2)
H10 H 0.5190 0.4018 0.1497
C17 C 0.1458(3) 1.0608(4) -0.09272(17)
H11 H 0.0696 1.0835 -0.0875
C18 C 0.1285(4) 1.0035(4) -0.16529(19)
H12 H 0.0828 0.9095 -0.1721
H13 H 0.2019 0.9788 -0.1730
C19 C 0.0684(4) 1.1283(5) -0.2163(2)
H14 H 0.0609 1.0920 -0.2623
H15 H -0.0077 1.1464 -0.2112
C20 C 0.1356(4) 1.2794(5) -0.2046(2)
H16 H 0.0951 1.3576 -0.2362
H17 H 0.2095 1.2631 -0.2132
C21 C 0.1521(4) 1.3365(5) -0.1319(2)
H18 H 0.0784 1.3609 -0.1245
H19 H 0.1975 1.4309 -0.1250
C22 C 0.2119(4) 1.2136(4) -0.0806(2)
H20 H 0.2886 1.1968 -0.0849
H21 H 0.2177 1.2500 -0.0348
Cl1 Cl 0.16372(10) 0.32537(11) 0.11689(6)
Cl2 Cl 0.55321(11) 0.99527(17) 0.20035(7)
N1 N 0.1977(2) 0.9454(3) -0.03938(15)
O1 O 0.1834(2) 0.9982(3) 0.08455(14)
H22 H 0.1812 1.0185 0.0449
O2 O 0.2755(3) 0.8329(4) 0.27519(15)
O3 O 0.3469(2) 0.5615(3) -0.01846(13)
H23 H 0.3594 0.4566 -0.0022
O4 O 0.4331(3) 0.3373(3) 0.06644(19)
loop_
_geom_bond_atom_site_label_1
_geom_bond_atom_site_label_2
_geom_bond_site_symmetry_1
_geom_bond_site_symmetry_2
C1 C2 1_555 1_555
C2 C3 1_555 1_555
C3 H1 1_555 1_555
C4 C3 1_555 1_555
C5 C4 1_555 1_555
H2 C5 1_555 1_555
C6 C1 1_555 1_555
C7 C6 1_555 1_555
H3 C7 1_555 1_555
C8 C2 1_555 1_555
H4 C8 1_555 1_555
H5 C8 1_555 1_555
C9 H6 1_555 1_555
H7 C9 1_555 1_555
C10 C9 1_555 1_555
C11 C10 1_555 1_555
H8 C11 1_555 1_555
C12 C11 1_555 1_555
C13 C12 1_555 1_555
H9 C13 1_555 1_555
C14 C13 1_555 1_555
C15 C10 1_555 1_555
C16 C14 1_555 1_555
H10 C16 1_555 1_555
C17 H11 1_555 1_555
C18 C17 1_555 1_555
H12 C18 1_555 1_555
H13 C18 1_555 1_555
C19 C18 1_555 1_555
H14 C19 1_555 1_555
H15 C19 1_555 1_555
C20 C19 1_555 1_555
H16 C20 1_555 1_555
H17 C20 1_555 1_555
C21 C20 1_555 1_555
H18 C21 1_555 1_555
H19 C21 1_555 1_555
C22 C17 1_555 1_555
H20 C22 1_555 1_555
H21 C22 1_555 1_555
Cl1 C4 1_555 1_555
Cl2 C12 1_555 1_555
N1 C8 1_555 1_555
O1 C1 1_555 1_555
H22 O1 1_555 1_555
O2 C7 1_555 1_555
O3 C15 1_555 1_555
H23 O3 1_555 1_555
O4 C16 1_555 1_555
C5 C6 1_555 1_555
C9 N1 1_555 1_555
C14 C15 1_555 1_555
C17 N1 1_555 1_555
C21 C22 1_555 1_555

#END
