
#######################################################################
#
#                 Cambridge Crystallographic Data Centre
#                                CCDC 
#
#######################################################################
#
# If this CIF has been generated from an entry in the Cambridge 
# Structural Database, then it will include bibliographic, chemical, 
# crystal, experimental, refinement or atomic coordinate data resulting 
# from the CCDC's data processing and validation procedures.
#
#######################################################################

data_COCRAP
_chemical_name_common            
'1-(2,3,4,6-tetra-O-pivaloyl-beta-D-galactosyl)-(3S)-(4-nitrophenyl)-aziridine-(2R)-ethyl formate'
_chemical_formula_moiety         'C37 H54 N2 O13'
_chemical_name_systematic        
'ethyl 3-(4-nitrophenyl)-1-(3,4,5-tris((2,2-dimethylpropanoyl)oxy)-6-(((2,2-dimethylpropanoyl)oxy)methyl)tetrahydro-2H-pyran-2-yl)aziridine-2-carboxylate'
_symmetry_cell_setting           monoclinic
_symmetry_space_group_name_H-M   'C 2'
_symmetry_Int_Tables_number      5
_space_group_name_Hall           'C 2y'
loop_
_symmetry_equiv_pos_site_id
_symmetry_equiv_pos_as_xyz
1 x,y,z
2 -x,y,-z
3 1/2+x,1/2+y,z
4 1/2-x,1/2+y,-z
_cell_length_a                   26.833(11)
_cell_length_b                   11.782(5)
_cell_length_c                   15.339(19)
_cell_angle_alpha                90
_cell_angle_beta                 122.71(5)
_cell_angle_gamma                90
_cell_volume                     4080.34
_cell_formula_units_Z            4
loop_
_atom_site_label
_atom_site_type_symbol
_atom_site_fract_x
_atom_site_fract_y
_atom_site_fract_z
O1 O -0.0657(2) 0.6639(5) 0.7597(4)
O2 O -0.1004(2) 0.8850(5) 0.7720(4)
O3 O -0.0779(2) 0.9062(5) 0.9357(5)
O4 O 0.0454(2) 0.7151(5) 0.8016(4)
O5 O 0.1420(3) 0.7617(7) 0.9077(5)
O6 O 0.1049(2) 0.5372(5) 0.9506(5)
O7 O 0.1385(2) 0.6220(6) 1.1039(5)
O8 O 0.0088(2) 0.3901(5) 0.8567(5)
O9 O 0.0207(4) 0.3405(6) 0.7277(6)
O10 O -0.1282(3) 0.2893(7) 0.5669(6)
O11 O -0.1132(3) 0.4042(8) 0.4653(5)
O12 O -0.4310(3) 0.4194(7) 0.4266(5)
O13 O -0.3934(3) 0.2495(6) 0.4755(6)
N1 N -0.1045(3) 0.4771(6) 0.7025(6)
N2 N -0.3886(3) 0.3519(8) 0.4678(6)
C1 C -0.0601(3) 0.5468(7) 0.7885(7)
H1 H -0.0663 0.5399 0.8470
C2 C 0.0030(3) 0.5071(7) 0.8268(7)
H2 H 0.0103 0.5152 0.7698
C3 C 0.0465(3) 0.5778(7) 0.9172(6)
H3 H 0.0397 0.5668 0.9747
C4 C 0.0383(3) 0.7020(7) 0.8876(7)
H4 H 0.0667 0.7510 0.9475
C5 C -0.0264(3) 0.7335(7) 0.8468(6)
H5 H -0.0342 0.7210 0.9029
C6 C -0.0390(3) 0.8564(7) 0.8125(7)
H6 H -0.0128 0.9063 0.8721
H7 H -0.0303 0.8697 0.7584
C7 C -0.1141(4) 0.9074(8) 0.8438(7)
C8 C -0.1796(4) 0.9368(8) 0.7922(7)
C9 C -0.1956(4) 0.9310(10) 0.8734(8)
H8 H -0.1896 0.8534 0.9003
H9 H -0.2372 0.9526 0.8418
H10 H -0.1703 0.9832 0.9303
C10 C -0.2179(3) 0.8544(10) 0.7018(7)
H11 H -0.2117 0.7767 0.7284
H12 H -0.2065 0.8595 0.6510
H13 H -0.2598 0.8748 0.6686
C11 C -0.1881(4) 1.0602(9) 0.7507(8)
H14 H -0.1634 1.1119 0.8084
H15 H -0.2298 1.0821 0.7172
H16 H -0.1764 1.0645 0.7002
C12 C 0.1006(4) 0.7388(8) 0.8221(8)
C13 C 0.1005(4) 0.7353(9) 0.7233(8)
C14 C 0.0547(4) 0.6540(12) 0.6429(8)
H17 H 0.0637 0.5766 0.6706
H18 H 0.0557 0.6574 0.5800
H19 H 0.0153 0.6756 0.6263
C15 C 0.1626(3) 0.7008(9) 0.7515(8)
H20 H 0.1709 0.6228 0.7780
H21 H 0.1920 0.7522 0.8047
H22 H 0.1647 0.7052 0.6896
C16 C 0.0876(5) 0.8585(11) 0.6817(10)
H23 H 0.1176 0.9095 0.7345
H24 H 0.0483 0.8813 0.6655
H25 H 0.0885 0.8627 0.6189
C17 C 0.1479(4) 0.5656(8) 1.0492(8)
C18 C 0.2075(4) 0.5157(10) 1.0812(8)
C19 C 0.2488(10) 0.619(2) 1.093(2)
H26 H 0.2280 0.6669 1.0304
H27 H 0.2854 0.5903 1.1012
H28 H 0.2585 0.6648 1.1534
C20 C 0.2042(17) 0.430(3) 1.006(3)
H29 H 0.2109 0.4678 0.9560
H30 H 0.1650 0.3943 0.9685
H31 H 0.2346 0.3716 1.0433
C21 C 0.2363(12) 0.466(3) 1.1869(17)
H32 H 0.2677 0.5164 1.2372
H33 H 0.2534 0.3917 1.1880
H34 H 0.2067 0.4557 1.2050
C22 C 0.0177(4) 0.3137(9) 0.8000(9)
C23 C 0.0228(6) 0.1930(9) 0.8412(11)
C24 C 0.0715(6) 0.1892(11) 0.9558(12)
H35 H 0.1096 0.2072 0.9645
H36 H 0.0733 0.1130 0.9830
H37 H 0.0630 0.2448 0.9935
C25 C 0.0357(6) 0.1118(10) 0.7796(12)
H38 H 0.0745 0.1296 0.7911
H39 H 0.0051 0.1193 0.7058
H40 H 0.0359 0.0339 0.8021
C26 C -0.0383(5) 0.1658(10) 0.8245(11)
H41 H -0.0689 0.1690 0.7503
H42 H -0.0472 0.2215 0.8617
H43 H -0.0373 0.0895 0.8509
C27 C -0.1111(4) 0.4912(8) 0.6024(7)
H44 H -0.0852 0.5498 0.5991
C28 C -0.1185(4) 0.3817(11) 0.5458(9)
C29 C -0.1171(5) 0.3033(14) 0.4053(9)
H45 H -0.0803 0.2585 0.4470
H46 H -0.1504 0.2557 0.3944
C30 C -0.1252(9) 0.326(2) 0.3104(15)
H47 H -0.1279 0.2538 0.2758
H48 H -0.0917 0.3698 0.3202
H49 H -0.1619 0.3688 0.2677
C31 C -0.1580(3) 0.5354(8) 0.6210(6)
H50 H -0.1569 0.6195 0.6304
C32 C -0.2168(4) 0.4837(8) 0.5833(7)
C33 C -0.2244(4) 0.3696(8) 0.5994(7)
H51 H -0.1908 0.3215 0.6364
C34 C -0.2806(3) 0.3262(8) 0.5617(7)
H52 H -0.2861 0.2488 0.5715
C35 C -0.3285(3) 0.3999(9) 0.5089(7)
C36 C -0.3231(4) 0.5127(8) 0.4942(7)
H53 H -0.3568 0.5608 0.4593
C37 C -0.2664(3) 0.5543(8) 0.5321(7)
H54 H -0.2613 0.6323 0.5230
loop_
_geom_bond_atom_site_label_1
_geom_bond_atom_site_label_2
_geom_bond_site_symmetry_1
_geom_bond_site_symmetry_2
O1 C1 1_555 1_555
O2 C6 1_555 1_555
O3 C7 1_555 1_555
O4 C4 1_555 1_555
O5 C12 1_555 1_555
O6 C3 1_555 1_555
O7 C17 1_555 1_555
O8 C2 1_555 1_555
O9 C22 1_555 1_555
O10 C28 1_555 1_555
O11 C28 1_555 1_555
O12 N2 1_555 1_555
O13 N2 1_555 1_555
N1 C1 1_555 1_555
N2 C35 1_555 1_555
C1 H1 1_555 1_555
C2 C1 1_555 1_555
H2 C2 1_555 1_555
C3 C2 1_555 1_555
H3 C3 1_555 1_555
C4 C3 1_555 1_555
H4 C4 1_555 1_555
C5 O1 1_555 1_555
H5 C5 1_555 1_555
C6 C5 1_555 1_555
H6 C6 1_555 1_555
H7 C6 1_555 1_555
C7 O2 1_555 1_555
C8 C7 1_555 1_555
C9 C8 1_555 1_555
H8 C9 1_555 1_555
H9 C9 1_555 1_555
H10 C9 1_555 1_555
C10 C8 1_555 1_555
H11 C10 1_555 1_555
H12 C10 1_555 1_555
H13 C10 1_555 1_555
C11 C8 1_555 1_555
H14 C11 1_555 1_555
H15 C11 1_555 1_555
H16 C11 1_555 1_555
C12 O4 1_555 1_555
C13 C12 1_555 1_555
C14 C13 1_555 1_555
H17 C14 1_555 1_555
H18 C14 1_555 1_555
H19 C14 1_555 1_555
C15 C13 1_555 1_555
H20 C15 1_555 1_555
H21 C15 1_555 1_555
H22 C15 1_555 1_555
C16 C13 1_555 1_555
H23 C16 1_555 1_555
H24 C16 1_555 1_555
H25 C16 1_555 1_555
C17 O6 1_555 1_555
C18 C17 1_555 1_555
C19 C18 1_555 1_555
H26 C19 1_555 1_555
H27 C19 1_555 1_555
H28 C19 1_555 1_555
C20 C18 1_555 1_555
H29 C20 1_555 1_555
H30 C20 1_555 1_555
H31 C20 1_555 1_555
C21 C18 1_555 1_555
H32 C21 1_555 1_555
H33 C21 1_555 1_555
H34 C21 1_555 1_555
C22 O8 1_555 1_555
C23 C22 1_555 1_555
C24 C23 1_555 1_555
H35 C24 1_555 1_555
H36 C24 1_555 1_555
H37 C24 1_555 1_555
C25 C23 1_555 1_555
H38 C25 1_555 1_555
H39 C25 1_555 1_555
H40 C25 1_555 1_555
C26 C23 1_555 1_555
H41 C26 1_555 1_555
H42 C26 1_555 1_555
H43 C26 1_555 1_555
C27 N1 1_555 1_555
H44 C27 1_555 1_555
C28 C27 1_555 1_555
C29 O11 1_555 1_555
H45 C29 1_555 1_555
H46 C29 1_555 1_555
C30 C29 1_555 1_555
H47 C30 1_555 1_555
H48 C30 1_555 1_555
H49 C30 1_555 1_555
C31 N1 1_555 1_555
H50 C31 1_555 1_555
C32 C31 1_555 1_555
C33 C32 1_555 1_555
H51 C33 1_555 1_555
C34 C33 1_555 1_555
H52 C34 1_555 1_555
C35 C34 1_555 1_555
C36 C35 1_555 1_555
H53 C36 1_555 1_555
C37 C32 1_555 1_555
H54 C37 1_555 1_555
C4 C5 1_555 1_555
C27 C31 1_555 1_555
C36 C37 1_555 1_555

#END
