
#######################################################################
#
#                 Cambridge Crystallographic Data Centre
#                                CCDC 
#
#######################################################################
#
# If this CIF has been generated from an entry in the Cambridge 
# Structural Database, then it will include bibliographic, chemical, 
# crystal, experimental, refinement or atomic coordinate data resulting 
# from the CCDC's data processing and validation procedures.
#
#######################################################################

data_COCVAR05
_chemical_formula_moiety         'C21 H14 O1'
_chemical_name_systematic        2,3-diphenyl-1H-inden-1-one
_symmetry_cell_setting           monoclinic
_symmetry_space_group_name_H-M   'P 21/c'
_symmetry_Int_Tables_number      14
_space_group_name_Hall           '-P 2ybc'
loop_
_symmetry_equiv_pos_site_id
_symmetry_equiv_pos_as_xyz
1 x,y,z
2 -x,1/2+y,1/2-z
3 -x,-y,-z
4 x,1/2-y,1/2+z
_cell_length_a                   9.533(6)
_cell_length_b                   17.215(10)
_cell_length_c                   11.031(5)
_cell_angle_alpha                90
_cell_angle_beta                 122.95(4)
_cell_angle_gamma                90
_cell_volume                     1519.11
_exptl_crystal_colour            red
_exptl_crystal_description       platelet
_cell_formula_units_Z            4
loop_
_atom_site_label
_atom_site_type_symbol
_atom_site_fract_x
_atom_site_fract_y
_atom_site_fract_z
O1 O -0.38602(15) 0.91905(8) -0.07603(12)
C1 C -0.1236(2) 0.90488(9) -0.05923(16)
C2 C -0.1516(3) 0.92509(11) -0.19109(18)
H1 H -0.2572 0.9403 -0.2668
C3 C -0.0176(3) 0.92211(11) -0.2082(2)
H2 H -0.0338 0.9355 -0.2967
C4 C 0.1378(3) 0.89981(11) -0.0968(2)
H3 H 0.2257 0.8985 -0.1106
C5 C 0.1668(2) 0.87884(10) 0.0378(2)
H4 H 0.2725 0.8636 0.1134
C6 C 0.0343(2) 0.88141(8) 0.05484(17)
C7 C 0.02469(19) 0.86675(8) 0.18342(16)
C8 C -0.13259(19) 0.88125(8) 0.15018(16)
C9 C -0.2373(2) 0.90487(9) -0.00639(17)
C10 C -0.20158(19) 0.87597(9) 0.24104(16)
C11 C -0.1542(2) 0.81686(10) 0.34326(17)
H5 H -0.0800 0.7786 0.3527
C12 C -0.2167(2) 0.81513(12) 0.4298(2)
H6 H -0.1828 0.7761 0.4987
C13 C -0.3292(3) 0.87052(13) 0.4158(2)
H7 H -0.3704 0.8691 0.4753
C14 C -0.3801(2) 0.92782(12) 0.3132(2)
H8 H -0.4571 0.9648 0.3024
C15 C -0.3176(2) 0.93067(10) 0.22642(18)
H9 H -0.3532 0.9696 0.1572
C16 C 0.17154(18) 0.84251(9) 0.32411(16)
C17 C 0.2163(2) 0.88195(11) 0.44998(17)
H10 H 0.1548 0.9250 0.4458
C18 C 0.3518(2) 0.85751(14) 0.5815(2)
H11 H 0.3811 0.8842 0.6654
C19 C 0.4429(2) 0.79410(16) 0.5888(3)
H12 H 0.5330 0.7775 0.6777
C20 C 0.4017(2) 0.75520(13) 0.4655(3)
H13 H 0.4642 0.7123 0.4709
C21 C 0.2676(2) 0.77937(11) 0.3330(2)
H14 H 0.2415 0.7532 0.2495
loop_
_geom_bond_atom_site_label_1
_geom_bond_atom_site_label_2
_geom_bond_site_symmetry_1
_geom_bond_site_symmetry_2
O1 C9 1_555 1_555
C1 C2 1_555 1_555
C2 H1 1_555 1_555
C3 C2 1_555 1_555
H2 C3 1_555 1_555
C4 C3 1_555 1_555
H3 C4 1_555 1_555
C5 C4 1_555 1_555
H4 C5 1_555 1_555
C6 C1 1_555 1_555
C7 C6 1_555 1_555
C8 C7 1_555 1_555
C9 C1 1_555 1_555
C10 C8 1_555 1_555
C11 C10 1_555 1_555
H5 C11 1_555 1_555
C12 C11 1_555 1_555
H6 C12 1_555 1_555
C13 C12 1_555 1_555
H7 C13 1_555 1_555
C14 C13 1_555 1_555
H8 C14 1_555 1_555
C15 C10 1_555 1_555
H9 C15 1_555 1_555
C16 C7 1_555 1_555
C17 C16 1_555 1_555
H10 C17 1_555 1_555
C18 C17 1_555 1_555
H11 C18 1_555 1_555
C19 C18 1_555 1_555
H12 C19 1_555 1_555
C20 C19 1_555 1_555
H13 C20 1_555 1_555
C21 C16 1_555 1_555
H14 C21 1_555 1_555
C5 C6 1_555 1_555
C8 C9 1_555 1_555
C14 C15 1_555 1_555
C20 C21 1_555 1_555

#END
