
#######################################################################
#
#                 Cambridge Crystallographic Data Centre
#                                CCDC 
#
#######################################################################
#
# If this CIF has been generated from an entry in the Cambridge 
# Structural Database, then it will include bibliographic, chemical, 
# crystal, experimental, refinement or atomic coordinate data resulting 
# from the CCDC's data processing and validation procedures.
#
#######################################################################

data_COCWUO
_chemical_formula_moiety         'C14 H10 Br2 O4 Si1'
_chemical_name_systematic        
6,6'-dibromo-4H,4'H-2,2'-spirobi[[1,3,2]benzodioxasiline]
_symmetry_cell_setting           monoclinic
_symmetry_space_group_name_H-M   'P 21/n'
_symmetry_Int_Tables_number      14
_space_group_name_Hall           '-P 2yn'
loop_
_symmetry_equiv_pos_site_id
_symmetry_equiv_pos_as_xyz
1 x,y,z
2 1/2-x,1/2+y,1/2-z
3 -x,-y,-z
4 1/2+x,1/2-y,1/2+z
_cell_length_a                   5.9655(2)
_cell_length_b                   8.0476(3)
_cell_length_c                   29.7145(9)
_cell_angle_alpha                90
_cell_angle_beta                 92.134(3)
_cell_angle_gamma                90
_cell_volume                     1425.54
_exptl_crystal_colour            colorless
_exptl_crystal_description       block
_cell_formula_units_Z            4
loop_
_atom_site_label
_atom_site_type_symbol
_atom_site_fract_x
_atom_site_fract_y
_atom_site_fract_z
C1 C 0.3685(5) 0.2817(4) 0.06738(9)
H1 H 0.3801 0.3289 0.0375
H2 H 0.2118 0.2857 0.0749
C2 C 0.4405(5) 0.1033(4) 0.06593(9)
C3 C 0.2981(5) -0.0100(4) 0.04393(9)
H3 H 0.1609 0.0255 0.0316
C4 C 0.3595(5) -0.1745(4) 0.04041(9)
C5 C 0.5633(5) -0.2311(4) 0.05841(9)
H4 H 0.6040 -0.3421 0.0556
C6 C 0.7047(5) -0.1200(4) 0.08058(9)
H5 H 0.8419 -0.1560 0.0929
C7 C 0.6428(5) 0.0447(4) 0.08455(9)
C8 C 1.0574(5) 0.5269(5) 0.15556(9)
H6 H 1.0346 0.6462 0.1551
H7 H 1.2137 0.5066 0.1495
C9 C 1.0144(5) 0.4648(4) 0.20219(9)
C10 C 1.1662(5) 0.5056(4) 0.23736(9)
H8 H 1.2960 0.5644 0.2314
C11 C 1.1236(5) 0.4586(4) 0.28106(9)
C12 C 0.9327(5) 0.3724(4) 0.29079(10)
H9 H 0.9045 0.3433 0.3203
C13 C 0.7829(5) 0.3295(4) 0.25613(9)
H10 H 0.6537 0.2703 0.2623
C14 C 0.8252(5) 0.3743(4) 0.21237(9)
O1 O 0.7934(3) 0.1498(3) 0.10718(6)
O2 O 0.4946(3) 0.3828(3) 0.09870(7)
O3 O 0.6666(3) 0.3273(3) 0.17924(6)
O4 O 0.9245(3) 0.4564(3) 0.12042(6)
Si1 Si 0.71947(13) 0.33030(12) 0.12614(3)
Br1 Br 0.16165(5) -0.32437(4) 0.009334(10)
Br2 Br 1.33044(5) 0.51879(4) 0.328409(9)
loop_
_geom_bond_atom_site_label_1
_geom_bond_atom_site_label_2
_geom_bond_site_symmetry_1
_geom_bond_site_symmetry_2
C1 H1 1_555 1_555
H2 C1 1_555 1_555
C2 C1 1_555 1_555
C3 C2 1_555 1_555
H3 C3 1_555 1_555
C4 C3 1_555 1_555
C5 C4 1_555 1_555
H4 C5 1_555 1_555
C6 C5 1_555 1_555
H5 C6 1_555 1_555
C7 C2 1_555 1_555
C8 H6 1_555 1_555
H7 C8 1_555 1_555
C9 C8 1_555 1_555
C10 C9 1_555 1_555
H8 C10 1_555 1_555
C11 C10 1_555 1_555
C12 C11 1_555 1_555
H9 C12 1_555 1_555
C13 C12 1_555 1_555
H10 C13 1_555 1_555
C14 C9 1_555 1_555
O1 C7 1_555 1_555
O2 C1 1_555 1_555
O3 C14 1_555 1_555
O4 C8 1_555 1_555
Si1 O1 1_555 1_555
Br1 C4 1_555 1_555
Br2 C11 1_555 1_555
C6 C7 1_555 1_555
C13 C14 1_555 1_555
O2 Si1 1_555 1_555
O3 Si1 1_555 1_555
O4 Si1 1_555 1_555

#END
