
#######################################################################
#
#                 Cambridge Crystallographic Data Centre
#                                CCDC 
#
#######################################################################
#
# If this CIF has been generated from an entry in the Cambridge 
# Structural Database, then it will include bibliographic, chemical, 
# crystal, experimental, refinement or atomic coordinate data resulting 
# from the CCDC's data processing and validation procedures.
#
#######################################################################

data_COCXOJ
_chemical_formula_moiety         'C24 H32 O4 Si1'
_chemical_name_systematic        
6,6'-di-t-butyl-8,8'-dimethyl-4H,4'H-2,2'-spirobi[[1,3,2]benzodioxasiline]
_symmetry_cell_setting           monoclinic
_symmetry_space_group_name_H-M   'P 21/c'
_symmetry_Int_Tables_number      14
_space_group_name_Hall           '-P 2ybc'
loop_
_symmetry_equiv_pos_site_id
_symmetry_equiv_pos_as_xyz
1 x,y,z
2 -x,1/2+y,1/2-z
3 -x,-y,-z
4 x,1/2-y,1/2+z
_cell_length_a                   5.9557(4)
_cell_length_b                   36.346(3)
_cell_length_c                   10.2093(7)
_cell_angle_alpha                90
_cell_angle_beta                 100.400(7)
_cell_angle_gamma                90
_cell_volume                     2173.66
_exptl_crystal_colour            colorless
_exptl_crystal_description       plate
_cell_formula_units_Z            4
loop_
_atom_site_label
_atom_site_type_symbol
_atom_site_fract_x
_atom_site_fract_y
_atom_site_fract_z
C1 C 0.8388(7) 0.08204(10) 0.2519(4)
C2 C 0.7034(6) 0.05386(10) 0.1870(4)
C3 C 0.7861(7) 0.01841(11) 0.2000(4)
H1 H 0.6964 -0.0004 0.1565
C4 C 1.0021(7) 0.00926(10) 0.2768(4)
C5 C 1.1293(7) 0.03831(10) 0.3374(4)
H2 H 1.2721 0.0334 0.3882
C6 C 1.0551(6) 0.07457(11) 0.3266(4)
C7 C 0.4759(7) 0.06258(11) 0.0999(4)
H3 H 0.4469 0.0885 0.1030
H4 H 0.3570 0.0493 0.1316
H5 H 0.4797 0.0554 0.0098
C8 C 1.2052(7) 0.10569(11) 0.3886(4)
H6 H 1.3141 0.0962 0.4632
H7 H 1.2906 0.1152 0.3236
C9 C 1.0863(7) -0.03055(11) 0.2816(4)
C10 C 0.8952(7) -0.05740(11) 0.2998(4)
H8 H 0.8443 -0.0520 0.3818
H9 H 0.9520 -0.0822 0.3023
H10 H 0.7698 -0.0548 0.2268
C11 C 1.1649(8) -0.03927(12) 0.1500(5)
H11 H 1.2191 -0.0642 0.1517
H12 H 1.2857 -0.0228 0.1383
H13 H 1.0390 -0.0363 0.0775
C12 C 1.2863(7) -0.03659(12) 0.3973(5)
H14 H 1.2382 -0.0311 0.4799
H15 H 1.4105 -0.0207 0.3866
H16 H 1.3355 -0.0617 0.3976
C13 C 0.8016(6) 0.22094(10) 0.2781(4)
C14 C 0.8914(7) 0.25157(10) 0.2227(4)
C15 C 0.8127(6) 0.28587(10) 0.2494(4)
H17 H 0.8686 0.3062 0.2104
C16 C 0.6515(6) 0.29160(10) 0.3328(4)
C17 C 0.5654(6) 0.26038(10) 0.3834(4)
H18 H 0.4565 0.2632 0.4374
C18 C 0.6339(6) 0.22492(10) 0.3574(4)
C19 C 1.0651(7) 0.24653(11) 0.1332(4)
H19 H 1.1048 0.2701 0.1015
H20 H 1.0016 0.2313 0.0589
H21 H 1.1993 0.2350 0.1823
C20 C 0.5259(7) 0.19213(11) 0.4077(4)
H22 H 0.4645 0.1992 0.4858
H23 H 0.3993 0.1841 0.3401
C21 C 0.5811(7) 0.33060(11) 0.3648(4)
C22 C 0.4197(7) 0.33037(12) 0.4663(4)
H24 H 0.2848 0.3166 0.4311
H25 H 0.3782 0.3552 0.4837
H26 H 0.4952 0.3192 0.5477
C23 C 0.4582(8) 0.34962(12) 0.2369(4)
H27 H 0.5571 0.3501 0.1723
H28 H 0.4192 0.3743 0.2572
H29 H 0.3216 0.3363 0.2014
C24 C 0.7952(7) 0.35266(11) 0.4236(4)
H30 H 0.8993 0.3527 0.3619
H31 H 0.8675 0.3416 0.5058
H32 H 0.7528 0.3775 0.4399
O1 O 0.7575(4) 0.11777(7) 0.2374(3)
O2 O 1.0804(5) 0.13521(7) 0.4344(3)
O3 O 0.8806(4) 0.18617(7) 0.2525(3)
O4 O 0.6803(5) 0.16182(7) 0.4417(3)
Si1 Si 0.84979(19) 0.15033(3) 0.34367(11)
H33? H 0.4088 0.0403 0.0599
H34? H 0.4987 0.0795 0.0313
H35? H 0.3760 0.0734 0.1531
loop_
_geom_bond_atom_site_label_1
_geom_bond_atom_site_label_2
_geom_bond_site_symmetry_1
_geom_bond_site_symmetry_2
C1 C2 1_555 1_555
C2 C3 1_555 1_555
C3 H1 1_555 1_555
C4 C3 1_555 1_555
C5 C4 1_555 1_555
H2 C5 1_555 1_555
C6 C1 1_555 1_555
C7 C2 1_555 1_555
H3 C7 1_555 1_555
H4 C7 1_555 1_555
H5 C7 1_555 1_555
C8 C6 1_555 1_555
H6 C8 1_555 1_555
H7 C8 1_555 1_555
C9 C4 1_555 1_555
C10 C9 1_555 1_555
H8 C10 1_555 1_555
H9 C10 1_555 1_555
H10 C10 1_555 1_555
C11 C9 1_555 1_555
H11 C11 1_555 1_555
H12 C11 1_555 1_555
H13 C11 1_555 1_555
C12 C9 1_555 1_555
H14 C12 1_555 1_555
H15 C12 1_555 1_555
H16 C12 1_555 1_555
C13 C14 1_555 1_555
C14 C15 1_555 1_555
C15 H17 1_555 1_555
C16 C15 1_555 1_555
C17 C16 1_555 1_555
H18 C17 1_555 1_555
C18 C13 1_555 1_555
C19 C14 1_555 1_555
H19 C19 1_555 1_555
H20 C19 1_555 1_555
H21 C19 1_555 1_555
C20 C18 1_555 1_555
H22 C20 1_555 1_555
H23 C20 1_555 1_555
C21 C16 1_555 1_555
C22 C21 1_555 1_555
H24 C22 1_555 1_555
H25 C22 1_555 1_555
H26 C22 1_555 1_555
C23 C21 1_555 1_555
H27 C23 1_555 1_555
H28 C23 1_555 1_555
H29 C23 1_555 1_555
C24 C21 1_555 1_555
H30 C24 1_555 1_555
H31 C24 1_555 1_555
H32 C24 1_555 1_555
O1 C1 1_555 1_555
O2 C8 1_555 1_555
O3 C13 1_555 1_555
O4 C20 1_555 1_555
Si1 O1 1_555 1_555
C5 C6 1_555 1_555
C17 C18 1_555 1_555
O2 Si1 1_555 1_555
O3 Si1 1_555 1_555
O4 Si1 1_555 1_555

#END
