
#######################################################################
#
#                 Cambridge Crystallographic Data Centre
#                                CCDC 
#
#######################################################################
#
# If this CIF has been generated from an entry in the Cambridge 
# Structural Database, then it will include bibliographic, chemical, 
# crystal, experimental, refinement or atomic coordinate data resulting 
# from the CCDC's data processing and validation procedures.
#
#######################################################################

data_COCZUR
_chemical_formula_moiety         'C26 H20 Br1 N3 O7,C4 H8 O2'
_chemical_name_systematic        
'Phenyl 5-((1R,2R)-1-((3-bromo-2-hydroxyphenyl)amino)-2-formamido-3-oxo-3-phenoxypropyl)oxazole-4-carboxylate ethyl acetate solvate'
_symmetry_cell_setting           orthorhombic
_symmetry_space_group_name_H-M   'P 21 21 21'
_symmetry_Int_Tables_number      19
_space_group_name_Hall           'P 2ac 2ab'
loop_
_symmetry_equiv_pos_site_id
_symmetry_equiv_pos_as_xyz
1 x,y,z
2 1/2-x,-y,1/2+z
3 -x,1/2+y,1/2-z
4 1/2+x,1/2-y,-z
_cell_length_a                   10.1252(15)
_cell_length_b                   13.217(2)
_cell_length_c                   22.607(4)
_cell_angle_alpha                90
_cell_angle_beta                 90
_cell_angle_gamma                90
_cell_volume                     3025.38
_exptl_crystal_colour            colorless
_exptl_crystal_description       Block
_cell_formula_units_Z            4
loop_
_atom_site_label
_atom_site_type_symbol
_atom_site_fract_x
_atom_site_fract_y
_atom_site_fract_z
Br1 Br 0.55171(6) 1.02582(5) 0.76580(3)
O1 O 0.0376(5) 0.3632(3) 0.6696(2)
O2 O 0.0395(5) 0.5010(3) 0.6096(2)
O3 O 0.1298(5) 0.6456(3) 0.7716(2)
O4 O 0.2685(4) 0.9326(3) 0.7622(2)
H1 H 0.298(8) 0.972(6) 0.789(3)
O5 O 0.0451(5) 0.7860(3) 0.5590(2)
O6 O -0.1012(5) 0.8893(4) 0.6054(2)
O7 O -0.2225(5) 0.6139(4) 0.7063(3)
N1 N 0.0927(5) 0.4796(4) 0.7679(2)
N2 N 0.1697(5) 0.7976(4) 0.6893(3)
H2 H 0.128(7) 0.821(6) 0.719(2)
N3 N -0.1148(5) 0.7631(4) 0.7010(2)
H3 H -0.111(8) 0.828(3) 0.711(4)
C1 C -0.0055(7) 0.3014(5) 0.6217(3)
C2 C 0.0832(8) 0.2304(6) 0.6007(4)
H4 H 0.1704 0.2258 0.6161
C3 C 0.0386(10) 0.1651(7) 0.5556(4)
H5 H 0.0962 0.1151 0.5400
C4 C -0.0872(10) 0.1736(7) 0.5342(4)
H6 H -0.1153 0.1302 0.5031
C5 C -0.1734(9) 0.2434(7) 0.5567(5)
H7 H -0.2612 0.2471 0.5420
C6 C -0.1314(8) 0.3091(6) 0.6014(4)
H8 H -0.1900 0.3583 0.6172
C7 C 0.0519(6) 0.4636(5) 0.6578(3)
C8 C 0.0851(5) 0.5214(5) 0.7110(3)
C9 C 0.1196(7) 0.5563(5) 0.8013(3)
H9 H 0.1312 0.5508 0.8428
C10 C 0.1086(6) 0.6221(4) 0.7138(3)
C11 C 0.1082(6) 0.7059(5) 0.6685(3)
H10 H 0.1568 0.6820 0.6326
C12 C 0.3051(6) 0.8140(5) 0.6864(3)
C13 C 0.3551(6) 0.8932(5) 0.7222(3)
C14 C 0.4859(6) 0.9193(5) 0.7168(3)
C15 C 0.5724(6) 0.8707(5) 0.6786(3)
H11 H 0.6620 0.8913 0.6754
C16 C 0.5234(7) 0.7903(5) 0.6450(3)
H12 H 0.5811 0.7542 0.6195
C17 C 0.3906(6) 0.7624(5) 0.6483(3)
H13 H 0.3582 0.7084 0.6247
C18 C -0.0363(6) 0.7304(5) 0.6507(3)
H14 H -0.0773 0.6680 0.6337
C19 C -0.0373(6) 0.8130(5) 0.6035(3)
C20 C 0.0657(7) 0.8548(5) 0.5118(3)
C21 C 0.1954(7) 0.8761(5) 0.4988(3)
H15 H 0.2648 0.8496 0.5225
C22 C 0.2230(8) 0.9380(6) 0.4496(3)
H16 H 0.3117 0.9537 0.4395
C23 C 0.1201(8) 0.9755(6) 0.4163(3)
H17 H 0.1386 1.0165 0.3829
C24 C -0.0091(8) 0.9546(5) 0.4308(3)
H18 H -0.0785 0.9824 0.4076
C25 C -0.0393(8) 0.8928(5) 0.4792(3)
H19 H -0.1281 0.8774 0.4894
C26 C -0.2031(6) 0.6997(5) 0.7252(3)
H20 H -0.2528 0.7221 0.7583
O8 O 0.0496(6) 0.3899(4) 0.4042(3)
O9 O -0.1443(6) 0.3651(6) 0.3594(4)
C27 C 0.0377(11) 0.2563(8) 0.3358(5)
H21 H 0.0194 0.1927 0.3565
H22 H 0.1331 0.2688 0.3356
H23 H 0.0056 0.2516 0.2950
C28 C -0.0318(8) 0.3423(7) 0.3670(4)
C29 C -0.0098(9) 0.4712(8) 0.4397(4)
H24 H -0.0730 0.4427 0.4687
H25 H -0.0577 0.5194 0.4139
C30 C 0.1011(10) 0.5239(8) 0.4712(4)
H26 H 0.1416 0.4774 0.4997
H27 H 0.0666 0.5832 0.4921
H28 H 0.1675 0.5455 0.4423
loop_
_geom_bond_atom_site_label_1
_geom_bond_atom_site_label_2
_geom_bond_site_symmetry_1
_geom_bond_site_symmetry_2
Br1 C14 1_555 1_555
O1 C1 1_555 1_555
O2 C7 1_555 1_555
O3 C9 1_555 1_555
O4 H1 1_555 1_555
O5 C19 1_555 1_555
O6 C19 1_555 1_555
O7 C26 1_555 1_555
N1 C8 1_555 1_555
N2 H2 1_555 1_555
N3 H3 1_555 1_555
C1 C2 1_555 1_555
C2 H4 1_555 1_555
C3 C2 1_555 1_555
H5 C3 1_555 1_555
C4 C3 1_555 1_555
H6 C4 1_555 1_555
C5 C4 1_555 1_555
H7 C5 1_555 1_555
C6 C1 1_555 1_555
H8 C6 1_555 1_555
C7 O1 1_555 1_555
C8 C7 1_555 1_555
C9 N1 1_555 1_555
H9 C9 1_555 1_555
C10 O3 1_555 1_555
C11 N2 1_555 1_555
H10 C11 1_555 1_555
C12 N2 1_555 1_555
C13 O4 1_555 1_555
C14 C13 1_555 1_555
C15 C14 1_555 1_555
H11 C15 1_555 1_555
C16 C15 1_555 1_555
H12 C16 1_555 1_555
C17 C12 1_555 1_555
H13 C17 1_555 1_555
C18 N3 1_555 1_555
H14 C18 1_555 1_555
C19 C18 1_555 1_555
C20 O5 1_555 1_555
C21 C20 1_555 1_555
H15 C21 1_555 1_555
C22 C21 1_555 1_555
H16 C22 1_555 1_555
C23 C22 1_555 1_555
H17 C23 1_555 1_555
C24 C23 1_555 1_555
H18 C24 1_555 1_555
C25 C20 1_555 1_555
H19 C25 1_555 1_555
C26 N3 1_555 1_555
H20 C26 1_555 1_555
O8 C28 1_555 1_555
O9 C28 1_555 1_555
C27 H21 1_555 1_555
H22 C27 1_555 1_555
H23 C27 1_555 1_555
C28 C27 1_555 1_555
C29 O8 1_555 1_555
H24 C29 1_555 1_555
H25 C29 1_555 1_555
C30 C29 1_555 1_555
H26 C30 1_555 1_555
H27 C30 1_555 1_555
H28 C30 1_555 1_555
C5 C6 1_555 1_555
C8 C10 1_555 1_555
C10 C11 1_555 1_555
C11 C18 1_555 1_555
C12 C13 1_555 1_555
C16 C17 1_555 1_555
C24 C25 1_555 1_555

#END
