
#######################################################################
#
#                 Cambridge Crystallographic Data Centre
#                                CCDC 
#
#######################################################################
#
# If this CIF has been generated from an entry in the Cambridge 
# Structural Database, then it will include bibliographic, chemical, 
# crystal, experimental, refinement or atomic coordinate data resulting 
# from the CCDC's data processing and validation procedures.
#
#######################################################################

data_CODMAK
_chemical_formula_moiety         'C19 H33 N2 O7 P1 S1'
_chemical_name_systematic        
'Ethyl (diethoxymethyl)((S~S~,R~C~,R~P~)-(+)-(1-(t-butylsulfinylamino)-1-(p-nitrophenyl)ethyl))phosphinate'
_symmetry_cell_setting           monoclinic
_symmetry_space_group_name_H-M   'P 21'
_symmetry_Int_Tables_number      4
_space_group_name_Hall           'P 2yb'
loop_
_symmetry_equiv_pos_site_id
_symmetry_equiv_pos_as_xyz
1 x,y,z
2 -x,1/2+y,-z
_cell_length_a                   6.7809(8)
_cell_length_b                   11.3781(13)
_cell_length_c                   16.3264(19)
_cell_angle_alpha                90
_cell_angle_beta                 93.256(2)
_cell_angle_gamma                90
_cell_volume                     1257.61
_exptl_crystal_colour            colorless
_exptl_crystal_description       prismatic
_cell_formula_units_Z            2
loop_
_atom_site_label
_atom_site_type_symbol
_atom_site_fract_x
_atom_site_fract_y
_atom_site_fract_z
P1 P 0.08875(13) 0.53879(9) 0.82795(6)
S1 S -0.01328(14) 0.46721(13) 0.57199(6)
O1 O 0.2581(3) 0.4623(3) 0.84182(16)
O2 O -0.1176(5) 0.5660(4) 0.5300(2)
O3 O -0.2490(8) -0.0380(5) 0.7866(3)
O4 O -0.4998(8) 0.0396(5) 0.8386(3)
O5 O -0.0677(4) 0.5356(3) 0.89501(14)
O6 O 0.2481(4) 0.7373(3) 0.89701(17)
O7 O 0.2312(4) 0.7214(3) 0.75353(17)
N1 N 0.0783(5) 0.5037(3) 0.6661(2)
N2 N -0.3464(9) 0.0452(6) 0.8057(3)
C1 C -0.0634(5) 0.5068(3) 0.7327(2)
C2 C -0.1432(5) 0.3849(4) 0.7472(2)
C3 C -0.3324(5) 0.3693(4) 0.7728(2)
H1 H -0.4156 0.4337 0.7774
C4 C -0.3976(6) 0.2578(5) 0.7914(3)
H2 H -0.5234 0.2469 0.8101
C5 C -0.2774(8) 0.1652(5) 0.7823(3)
C6 C -0.0901(6) 0.1762(5) 0.7572(3)
H3 H -0.0098 0.1106 0.7522
C7 C -0.0237(6) 0.2858(4) 0.7396(3)
H4 H 0.1036 0.2948 0.7222
C8 C -0.2233(6) 0.6015(4) 0.7175(3)
H5 H -0.1625 0.6738 0.7023
H6 H -0.2920 0.6132 0.7667
H7 H -0.3152 0.5764 0.6741
C9 C 0.1409(6) 0.6975(4) 0.8273(2)
H8 H 0.0136 0.7384 0.8249
C10 C -0.0706(9) 0.4509(5) 0.9595(3)
H9 H -0.2001 0.4146 0.9585
H10 H 0.0250 0.3898 0.9497
C11 C -0.0284(13) 0.4981(9) 1.0359(5)
H11 H 0.0924 0.5421 1.0356
H12 H -0.0141 0.4360 1.0756
H13 H -0.1340 0.5493 1.0498
C12 C 0.4538(7) 0.7050(5) 0.9067(3)
H14 H 0.4646 0.6202 0.9115
H15 H 0.5202 0.7288 0.8583
C13 C 0.5473(9) 0.7576(6) 0.9760(4)
H16 H 0.5227 0.8407 0.9747
H17 H 0.6869 0.7436 0.9763
H18 H 0.4962 0.7246 1.0246
C14 C 0.2263(8) 0.8445(5) 0.7314(3)
H19 H 0.2832 0.8914 0.7764
H20 H 0.0908 0.8696 0.7201
C15 C 0.3378(9) 0.8614(6) 0.6593(4)
H21 H 0.4722 0.8375 0.6711
H22 H 0.3345 0.9428 0.6441
H23 H 0.2807 0.8149 0.6150
C16 C 0.2252(6) 0.4506(6) 0.5237(3)
C17 C 0.3330(8) 0.5660(7) 0.5272(4)
H24 H 0.3683 0.5856 0.5834
H25 H 0.2491 0.6263 0.5033
H26 H 0.4504 0.5600 0.4973
C18 C 0.3387(8) 0.3547(7) 0.5655(4)
H27 H 0.4583 0.3413 0.5381
H28 H 0.2608 0.2842 0.5640
H29 H 0.3707 0.3763 0.6215
C19 C 0.1615(8) 0.4202(8) 0.4350(3)
H30 H 0.1017 0.3437 0.4331
H31 H 0.2749 0.4204 0.4024
H32 H 0.0678 0.4774 0.4139
H33 H 0.127(4) 0.5678(19) 0.665(2)
loop_
_geom_bond_atom_site_label_1
_geom_bond_atom_site_label_2
_geom_bond_site_symmetry_1
_geom_bond_site_symmetry_2
P1 O1 1_555 1_555
S1 O2 1_555 1_555
O3 N2 1_555 1_555
O4 N2 1_555 1_555
O5 P1 1_555 1_555
O6 C9 1_555 1_555
O7 C9 1_555 1_555
N1 S1 1_555 1_555
N2 C5 1_555 1_555
C1 P1 1_555 1_555
C2 C1 1_555 1_555
C3 C2 1_555 1_555
H1 C3 1_555 1_555
C4 C3 1_555 1_555
H2 C4 1_555 1_555
C5 C4 1_555 1_555
C6 C5 1_555 1_555
H3 C6 1_555 1_555
C7 C2 1_555 1_555
H4 C7 1_555 1_555
C8 C1 1_555 1_555
H5 C8 1_555 1_555
H6 C8 1_555 1_555
H7 C8 1_555 1_555
C9 P1 1_555 1_555
H8 C9 1_555 1_555
C10 O5 1_555 1_555
H9 C10 1_555 1_555
H10 C10 1_555 1_555
C11 C10 1_555 1_555
H11 C11 1_555 1_555
H12 C11 1_555 1_555
H13 C11 1_555 1_555
C12 O6 1_555 1_555
H14 C12 1_555 1_555
H15 C12 1_555 1_555
C13 C12 1_555 1_555
H16 C13 1_555 1_555
H17 C13 1_555 1_555
H18 C13 1_555 1_555
C14 O7 1_555 1_555
H19 C14 1_555 1_555
H20 C14 1_555 1_555
C15 C14 1_555 1_555
H21 C15 1_555 1_555
H22 C15 1_555 1_555
H23 C15 1_555 1_555
C16 S1 1_555 1_555
C17 C16 1_555 1_555
H24 C17 1_555 1_555
H25 C17 1_555 1_555
H26 C17 1_555 1_555
C18 C16 1_555 1_555
H27 C18 1_555 1_555
H28 C18 1_555 1_555
H29 C18 1_555 1_555
C19 C16 1_555 1_555
H30 C19 1_555 1_555
H31 C19 1_555 1_555
H32 C19 1_555 1_555
H33 N1 1_555 1_555
N1 C1 1_555 1_555
C6 C7 1_555 1_555

#END
