
#######################################################################
#
#                 Cambridge Crystallographic Data Centre
#                                CCDC 
#
#######################################################################
#
# If this CIF has been generated from an entry in the Cambridge 
# Structural Database, then it will include bibliographic, chemical, 
# crystal, experimental, refinement or atomic coordinate data resulting 
# from the CCDC's data processing and validation procedures.
#
#######################################################################

data_CODYUP10
_chemical_name_common            'Thiamin thiazolone'
_chemical_formula_moiety         'C12 H16 N4 O2 S1'
_chemical_name_systematic        
3-((4-Amino-2-methyl-5-pyrimidinyl)methyl)-5-(2-hydroxyethyl)-4-methyl-2-thiazolone
_symmetry_cell_setting           monoclinic
_symmetry_space_group_name_H-M   'P 21/n'
_symmetry_Int_Tables_number      14
_space_group_name_Hall           '-P 2yn'
loop_
_symmetry_equiv_pos_site_id
_symmetry_equiv_pos_as_xyz
1 x,y,z
2 1/2-x,1/2+y,1/2-z
3 -x,-y,-z
4 1/2+x,1/2-y,1/2+z
_cell_length_a                   4.634(2)
_cell_length_b                   12.591(6)
_cell_length_c                   22.291(10)
_cell_angle_alpha                90
_cell_angle_beta                 95.20(4)
_cell_angle_gamma                90
_cell_volume                     1295.25
_exptl_crystal_colour            colorless
_cell_formula_units_Z            4
loop_
_atom_site_label
_atom_site_type_symbol
_atom_site_fract_x
_atom_site_fract_y
_atom_site_fract_z
S1 S 0.2713(3) 0.3752(1) 0.2192(1)
C1 C 0.1136(11) 0.3825(4) 0.2882(2)
N1 N -0.0310(8) 0.4750(3) 0.2907(2)
C2 C -0.0278(10) 0.5397(4) 0.2386(2)
C3 C 0.1253(10) 0.4986(4) 0.1965(2)
O1 O 0.1383(8) 0.3130(3) 0.3276(1)
C4 C -0.2140(11) 0.4959(5) 0.3404(2)
C5 C -0.1868(14) 0.6419(5) 0.2361(3)
C6 C 0.1827(13) 0.5411(4) 0.1359(2)
C7 C 0.0862(12) 0.4665(5) 0.0845(2)
O2 O -0.2168(8) 0.4552(3) 0.0801(2)
N2 N -0.1067(10) 0.7388(3) 0.4403(2)
C8 C 0.1095(11) 0.7037(4) 0.4783(2)
N3 N 0.2387(9) 0.6096(3) 0.4761(2)
C9 C 0.1446(10) 0.5417(4) 0.4318(2)
C10 C -0.0842(10) 0.5714(4) 0.3884(2)
C11 C -0.1969(13) 0.6697(4) 0.3961(3)
C12 C 0.2184(18) 0.7768(5) 0.5291(3)
N4 N 0.2768(11) 0.4475(4) 0.4317(2)
H1 H -0.399(12) 0.538(4) 0.320(2)
H2 H -0.230(12) 0.426(5) 0.356(3)
H3 H -0.410(18) 0.623(6) 0.239(3)
H4 H -0.144(14) 0.696(5) 0.276(3)
H5 H -0.177(12) 0.675(4) 0.205(3)
H6 H 0.404(12) 0.551(4) 0.134(2)
H7 H 0.068(12) 0.618(5) 0.129(3)
H8 H 0.158(12) 0.495(4) 0.049(3)
H9 H 0.166(11) 0.387(5) 0.091(2)
H10 H -0.260(11) 0.370(5) 0.073(2)
H11 H 0.122(13) 0.846(5) 0.528(2)
H12 H 0.152(15) 0.745(6) 0.564(3)
H13 H 0.433(19) 0.785(7) 0.528(3)
H14 H 0.431(12) 0.440(5) 0.461(3)
H15 H -0.351(11) 0.691(4) 0.373(2)
loop_
_geom_bond_atom_site_label_1
_geom_bond_atom_site_label_2
_geom_bond_site_symmetry_1
_geom_bond_site_symmetry_2
S1 C1 1_555 1_555
C1 N1 1_555 1_555
N1 C2 1_555 1_555
C2 C3 1_555 1_555
C3 S1 1_555 1_555
O1 C1 1_555 1_555
C4 N1 1_555 1_555
C5 C2 1_555 1_555
C6 C3 1_555 1_555
C7 C6 1_555 1_555
O2 C7 1_555 1_555
N2 C8 1_555 1_555
C8 N3 1_555 1_555
N3 C9 1_555 1_555
C9 C10 1_555 1_555
C10 C4 1_555 1_555
C11 N2 1_555 1_555
C12 C8 1_555 1_555
N4 C9 1_555 1_555
H1 C4 1_555 1_555
H2 C4 1_555 1_555
H3 C5 1_555 1_555
H4 C5 1_555 1_555
H5 C5 1_555 1_555
H6 C6 1_555 1_555
H7 C6 1_555 1_555
H8 C7 1_555 1_555
H9 C7 1_555 1_555
H10 O2 1_555 1_555
H11 C12 1_555 1_555
H12 C12 1_555 1_555
H13 C12 1_555 1_555
H14 N4 1_555 1_555
H15 C11 1_555 1_555
C10 C11 1_555 1_555

#END
