
#######################################################################
#
#                 Cambridge Crystallographic Data Centre
#                                CCDC 
#
#######################################################################
#
# If this CIF has been generated from an entry in the Cambridge 
# Structural Database, then it will include bibliographic, chemical, 
# crystal, experimental, refinement or atomic coordinate data resulting 
# from the CCDC's data processing and validation procedures.
#
#######################################################################

data_COFDOS
_chemical_formula_moiety         'C21 H17 N1 O2'
_chemical_name_systematic        '3-(4-(Diphenylamino)phenyl)acrylic acid'
_symmetry_cell_setting           monoclinic
_symmetry_space_group_name_H-M   'P 21/n'
_symmetry_Int_Tables_number      14
_space_group_name_Hall           '-P 2yn'
loop_
_symmetry_equiv_pos_site_id
_symmetry_equiv_pos_as_xyz
1 x,y,z
2 1/2-x,1/2+y,1/2-z
3 -x,-y,-z
4 1/2+x,1/2-y,1/2+z
_cell_length_a                   13.716(5)
_cell_length_b                   8.084(5)
_cell_length_c                   15.868(5)
_cell_angle_alpha                90
_cell_angle_beta                 100.602(5)
_cell_angle_gamma                90
_cell_volume                     1729.41
_cell_formula_units_Z            4
loop_
_atom_site_label
_atom_site_type_symbol
_atom_site_fract_x
_atom_site_fract_y
_atom_site_fract_z
N1 N 0.33958(10) 1.08165(16) 0.52929(7)
C1 C 0.35031(11) 1.17691(18) 0.45689(9)
O1 O 0.06434(9) 0.14084(15) 0.46656(8)
C2 C 0.29328(11) 0.92547(19) 0.52217(9)
C3 C 0.15049(11) 0.4539(2) 0.50144(11)
H1 H 0.1527 0.3992 0.4502
C4 C 0.38960(11) 1.13371(19) 0.61233(9)
C5 C 0.37112(12) 1.2867(2) 0.64390(10)
H2 H 0.3249 1.3571 0.6119
C6 C 0.24332(13) 0.8703(2) 0.58594(10)
H3 H 0.2409 0.9378 0.6329
C7 C 0.29609(11) 0.82106(19) 0.45334(10)
H4 H 0.3301 0.8532 0.4105
O2 O 0.01590(11) 0.14624(17) 0.59199(8)
H5 H -0.0095 0.0580 0.5745
C8 C 0.05969(11) 0.2119(2) 0.53329(11)
C9 C 0.24895(12) 0.67037(19) 0.44797(10)
H6 H 0.2507 0.6034 0.4006
C10 C 0.10367(12) 0.3739(2) 0.55551(11)
H7 H 0.0990 0.4218 0.6079
C11 C 0.27841(13) 1.1727(2) 0.38282(10)
H8 H 0.2220 1.1078 0.3808
C12 C 0.19880(11) 0.61485(18) 0.51105(10)
C13 C 0.19802(12) 0.7195(2) 0.58091(11)
H9 H 0.1660 0.6858 0.6248
C14 C 0.43186(12) 1.2785(2) 0.45867(11)
H10 H 0.4803 1.2840 0.5080
C15 C 0.42186(14) 1.3353(2) 0.72389(12)
H11 H 0.4098 1.4387 0.7455
C16 C 0.44194(16) 1.3716(2) 0.38822(13)
H12 H 0.4967 1.4404 0.3906
C17 C 0.45739(13) 1.0305(2) 0.66103(11)
H13 H 0.4700 0.9267 0.6402
C18 C 0.29052(15) 1.2646(2) 0.31232(11)
H14 H 0.2427 1.2593 0.2626
C19 C 0.37201(17) 1.3638(2) 0.31440(13)
H15 H 0.3798 1.4250 0.2664
C20 C 0.48940(15) 1.2316(3) 0.77095(12)
H16 H 0.5238 1.2652 0.8243
C21 C 0.50654(14) 1.0802(3) 0.74030(12)
H17 H 0.5518 1.0095 0.7731
loop_
_geom_bond_atom_site_label_1
_geom_bond_atom_site_label_2
_geom_bond_site_symmetry_1
_geom_bond_site_symmetry_2
N1 C1 1_555 1_555
C1 C11 1_555 1_555
O1 C8 1_555 1_555
C2 N1 1_555 1_555
C3 H1 1_555 1_555
C4 N1 1_555 1_555
C5 C4 1_555 1_555
H2 C5 1_555 1_555
C6 C2 1_555 1_555
H3 C6 1_555 1_555
C7 C2 1_555 1_555
H4 C7 1_555 1_555
O2 H5 1_555 1_555
C8 O2 1_555 1_555
C9 C7 1_555 1_555
H6 C9 1_555 1_555
C10 C3 1_555 1_555
H7 C10 1_555 1_555
C11 H8 1_555 1_555
C12 C3 1_555 1_555
C13 C6 1_555 1_555
H9 C13 1_555 1_555
C14 C1 1_555 1_555
H10 C14 1_555 1_555
C15 C5 1_555 1_555
H11 C15 1_555 1_555
C16 C14 1_555 1_555
H12 C16 1_555 1_555
C17 C4 1_555 1_555
H13 C17 1_555 1_555
C18 C11 1_555 1_555
H14 C18 1_555 1_555
C19 C16 1_555 1_555
H15 C19 1_555 1_555
C20 C15 1_555 1_555
H16 C20 1_555 1_555
C21 C17 1_555 1_555
H17 C21 1_555 1_555
C8 C10 1_555 1_555
C9 C12 1_555 1_555
C12 C13 1_555 1_555
C18 C19 1_555 1_555
C20 C21 1_555 1_555

#END
