
#######################################################################
#
#                 Cambridge Crystallographic Data Centre
#                                CCDC 
#
#######################################################################
#
# If this CIF has been generated from an entry in the Cambridge 
# Structural Database, then it will include bibliographic, chemical, 
# crystal, experimental, refinement or atomic coordinate data resulting 
# from the CCDC's data processing and validation procedures.
#
#######################################################################

data_COFFEK
_chemical_formula_moiety         
'C48 H48 N32 O16,2(C13 H14 N1 S1 1+),8(H2 O1),2(I1 1-)'
_chemical_name_systematic        
'Cucurbit(8)uril bis(1-methyl-4-((4-methylsulfanyl)phenyl)pyridinium iodide) octahydrate'
_symmetry_cell_setting           orthorhombic
_symmetry_space_group_name_H-M   'P c c n'
_symmetry_Int_Tables_number      56
_space_group_name_Hall           '-P 2ab 2ac'
loop_
_symmetry_equiv_pos_site_id
_symmetry_equiv_pos_as_xyz
1 x,y,z
2 1/2-x,1/2-y,z
3 1/2+x,-y,1/2-z
4 -x,1/2+y,1/2-z
5 -x,-y,-z
6 1/2+x,1/2+y,-z
7 1/2-x,y,1/2+z
8 x,1/2-y,1/2+z
_cell_length_a                   25.876(5)
_cell_length_b                   26.739(5)
_cell_length_c                   13.210(3)
_cell_angle_alpha                90
_cell_angle_beta                 90
_cell_angle_gamma                90
_cell_volume                     9139.98
_exptl_crystal_colour            yellow
_exptl_crystal_description       block
_cell_formula_units_Z            4
loop_
_atom_site_label
_atom_site_type_symbol
_atom_site_fract_x
_atom_site_fract_y
_atom_site_fract_z
I1 I 0.7500 0.2500 0.22443(11)
S1 S 0.61834(12) -0.01533(18) 0.4153(2)
N1 N 0.5032(3) 0.0884(2) -0.1764(4)
C1 C 0.5908(4) 0.0088(4) 0.3015(8)
C2 C 0.5472(6) 0.0368(4) 0.2949(8)
H1 H 0.5298 0.0459 0.3536
C3 C 0.5284(5) 0.0519(4) 0.2009(6)
H2 H 0.4975 0.0697 0.1979
C4 C 0.5533(4) 0.0417(3) 0.1157(5)
C5 C 0.5986(4) 0.0113(6) 0.1238(8)
H3 H 0.6178 0.0043 0.0661
C6 C 0.6138(5) -0.0069(8) 0.2125(11)
H4 H 0.6402 -0.0305 0.2148
C7 C 0.5355(3) 0.0590(3) 0.0141(5)
C8 C 0.4877(4) 0.0806(3) -0.0011(6)
H5 H 0.4656 0.0853 0.0535
C9 C 0.4724(4) 0.0953(3) -0.0969(6)
H6 H 0.4402 0.1101 -0.1060
C10 C 0.5503(4) 0.0686(3) -0.1646(6)
H7 H 0.5720 0.0650 -0.2202
C11 C 0.5662(4) 0.0540(4) -0.0723(7)
H8 H 0.5989 0.0399 -0.0658
C12 C 0.4869(5) 0.1068(4) -0.2791(6)
H9 H 0.5133 0.0991 -0.3277
H10 H 0.4815 0.1423 -0.2768
H11 H 0.4553 0.0905 -0.2985
C13 C 0.5755(7) 0.0047(8) 0.4947(18)
H12 H 0.5852 -0.0048 0.5621
H13 H 0.5425 -0.0096 0.4786
H14 H 0.5733 0.0405 0.4905
O1 O 0.3471(2) 0.13257(19) -0.1033(3)
O2 O 0.4088(2) 0.0990(2) 0.3351(3)
O3 O 0.47730(18) 0.20552(16) -0.1509(3)
O4 O 0.5337(2) 0.16434(17) 0.2914(3)
O5 O 0.60576(19) 0.16690(16) -0.2378(3)
O6 O 0.66910(19) 0.11900(16) 0.1996(3)
O7 O 0.65000(19) 0.04037(18) -0.3071(3)
O8 O 0.7241(2) -0.00422(18) 0.1228(3)
N2 N 0.3111(2) 0.11370(17) 0.0514(3)
N3 N 0.3708(2) 0.17352(18) 0.0432(3)
N4 N 0.3926(2) 0.1621(2) 0.2191(3)
N5 N 0.3403(2) 0.09738(19) 0.2222(3)
N6 N 0.4509(2) 0.21756(19) 0.0141(3)
N7 N 0.5336(2) 0.22935(18) -0.0240(3)
N8 N 0.55636(19) 0.21014(17) 0.1500(3)
N9 N 0.4731(2) 0.20436(18) 0.1914(3)
N10 N 0.61820(19) 0.20340(17) -0.0814(3)
N11 N 0.67399(19) 0.14690(16) -0.1332(3)
N12 N 0.7009(2) 0.13004(18) 0.0391(3)
N13 N 0.6393(2) 0.18105(17) 0.0919(3)
N14 N 0.70766(19) 0.06663(16) -0.1861(3)
N15 N 0.6966(2) -0.01491(17) -0.2089(3)
N16 N 0.7292(2) -0.03276(18) -0.0404(3)
N17 N 0.7335(2) 0.04887(18) -0.0123(3)
C14 C 0.3426(2) 0.1394(2) -0.0117(4)
C15 C 0.3538(2) 0.1753(2) 0.1476(4)
H15 H 0.3378 0.2074 0.1641
C16 C 0.3827(3) 0.1179(2) 0.2660(4)
C17 C 0.3151(2) 0.1321(2) 0.1557(4)
H16 H 0.2817 0.1432 0.1824
C18 C 0.3972(3) 0.2159(2) -0.0046(5)
H17 H 0.3916 0.2142 -0.0772
H18 H 0.3818 0.2467 0.0196
C19 C 0.4294(3) 0.1978(3) 0.2581(4)
H19 H 0.4416 0.1865 0.3237
H20 H 0.4123 0.2297 0.2676
C20 C 0.4865(2) 0.21661(19) -0.0619(4)
C21 C 0.5307(2) 0.24470(18) 0.0814(4)
H21 H 0.5424 0.2792 0.0911
C22 C 0.5225(2) 0.18982(19) 0.2184(3)
C23 C 0.4731(2) 0.2384(2) 0.1074(4)
H22 H 0.4571 0.2704 0.1254
C24 C 0.5775(2) 0.2397(2) -0.0890(4)
H23 H 0.5656 0.2410 -0.1587
H24 H 0.5912 0.2724 -0.0720
C25 C 0.6114(2) 0.2097(2) 0.1674(4)
H25 H 0.6182 0.1956 0.2338
H26 H 0.6241 0.2438 0.1672
C26 C 0.6306(2) 0.17160(17) -0.1589(3)
C27 C 0.6970(2) 0.16606(19) -0.0412(4)
H27 H 0.7302 0.1824 -0.0544
C28 C 0.6697(2) 0.14104(19) 0.1189(4)
C29 C 0.6565(2) 0.20328(19) -0.0021(3)
H28 H 0.6713 0.2366 0.0085
C30 C 0.7046(2) 0.1193(2) -0.2079(3)
H29 H 0.6893 0.1238 -0.2743
H30 H 0.7392 0.1331 -0.2099
C31 C 0.7426(3) 0.0939(2) 0.0464(4)
H31 H 0.7743 0.1094 0.0232
H32 H 0.7473 0.0847 0.1168
C32 C 0.6812(2) 0.0318(2) -0.2417(3)
C33 C 0.7398(2) -0.01198(19) -0.1403(4)
H33 H 0.7713 -0.0261 -0.1700
C34 C 0.7282(2) 0.0035(2) 0.0327(4)
C35 C 0.74548(19) 0.0450(2) -0.1191(4)
H34 H 0.7804 0.0570 -0.1341
C36 C 0.6889(3) -0.0584(2) -0.2718(4)
H35 H 0.7223 -0.0716 -0.2916
H36 H 0.6708 -0.0484 -0.3330
C37 C 0.7326(3) -0.0849(2) -0.0173(4)
H37 H 0.7360 -0.0887 0.0555
H38 H 0.7637 -0.0982 -0.0481
O1D O 0.6529(2) -0.13257(19) 0.1033(3)
O2D O 0.5912(2) -0.0990(2) -0.3351(3)
O3D O 0.52270(18) -0.20552(16) 0.1509(3)
O4D O 0.4663(2) -0.16434(17) -0.2914(3)
O5D O 0.39424(19) -0.16690(16) 0.2378(3)
O6D O 0.33090(19) -0.11900(16) -0.1996(3)
O7D O 0.35000(19) -0.04037(18) 0.3071(3)
O8D O 0.2759(2) 0.00422(18) -0.1228(3)
N2D N 0.6889(2) -0.11370(17) -0.0514(3)
N3D N 0.6292(2) -0.17352(18) -0.0432(3)
N4D N 0.6074(2) -0.1621(2) -0.2191(3)
N5D N 0.6597(2) -0.09738(19) -0.2222(3)
N6D N 0.5491(2) -0.21756(19) -0.0141(3)
N7D N 0.4664(2) -0.22935(18) 0.0240(3)
N8D N 0.44364(19) -0.21014(17) -0.1500(3)
N9D N 0.5269(2) -0.20436(18) -0.1914(3)
N10D N 0.38180(19) -0.20340(17) 0.0814(3)
N11D N 0.32601(19) -0.14690(16) 0.1332(3)
N12D N 0.2991(2) -0.13004(18) -0.0391(3)
N13D N 0.3607(2) -0.18105(17) -0.0919(3)
N14D N 0.29234(19) -0.06663(16) 0.1861(3)
N15D N 0.3034(2) 0.01491(17) 0.2089(3)
N16D N 0.2708(2) 0.03276(18) 0.0404(3)
N17D N 0.2665(2) -0.04887(18) 0.0123(3)
C14D C 0.6574(2) -0.1394(2) 0.0117(4)
C15D C 0.6462(2) -0.1753(2) -0.1476(4)
H15D H 0.6622 -0.2074 -0.1641
C16D C 0.6173(3) -0.1179(2) -0.2660(4)
C17D C 0.6849(2) -0.1321(2) -0.1557(4)
H16D H 0.7183 -0.1432 -0.1824
C18D C 0.6028(3) -0.2159(2) 0.0046(5)
H17D H 0.6084 -0.2142 0.0772
H18D H 0.6182 -0.2467 -0.0196
C19D C 0.5706(3) -0.1978(3) -0.2581(4)
H19D H 0.5584 -0.1865 -0.3237
H20D H 0.5877 -0.2297 -0.2676
C20D C 0.5135(2) -0.21661(19) 0.0619(4)
C21D C 0.4693(2) -0.24470(18) -0.0814(4)
H21D H 0.4576 -0.2792 -0.0911
C22D C 0.4775(2) -0.18982(19) -0.2184(3)
C23D C 0.5269(2) -0.2384(2) -0.1074(4)
H22D H 0.5429 -0.2704 -0.1254
C24D C 0.4225(2) -0.2397(2) 0.0890(4)
H23D H 0.4344 -0.2410 0.1587
H24D H 0.4088 -0.2724 0.0720
C25D C 0.3886(2) -0.2097(2) -0.1674(4)
H25D H 0.3818 -0.1956 -0.2338
H26D H 0.3759 -0.2438 -0.1672
C26D C 0.3694(2) -0.17160(17) 0.1589(3)
C27D C 0.3030(2) -0.16606(19) 0.0412(4)
H27D H 0.2698 -0.1824 0.0544
C28D C 0.3303(2) -0.14104(19) -0.1189(4)
C29D C 0.3435(2) -0.20328(19) 0.0021(3)
H28D H 0.3287 -0.2366 -0.0085
C30D C 0.2954(2) -0.1193(2) 0.2079(3)
H29D H 0.3107 -0.1238 0.2743
H30D H 0.2608 -0.1331 0.2099
C31D C 0.2574(3) -0.0939(2) -0.0464(4)
H31D H 0.2257 -0.1094 -0.0232
H32D H 0.2527 -0.0847 -0.1168
C32D C 0.3188(2) -0.0318(2) 0.2417(3)
C33D C 0.2602(2) 0.01198(19) 0.1403(4)
H33D H 0.2287 0.0261 0.1700
C34D C 0.2718(2) -0.0035(2) -0.0327(4)
C35D C 0.25452(19) -0.0450(2) 0.1191(4)
H34D H 0.2196 -0.0570 0.1341
C36D C 0.3111(3) 0.0584(2) 0.2718(4)
H35D H 0.2777 0.0716 0.2916
H36D H 0.3292 0.0484 0.3330
C37D C 0.2674(3) 0.0849(2) 0.0173(4)
H37D H 0.2640 0.0887 -0.0555
H38D H 0.2363 0.0982 0.0481
O9 O 0.8320(5) 0.1606(6) 0.8949(7)
O10 O 0.4998(6) 0.1329(6) 0.4855(7)
O11 O 0.3952(7) 0.3428(4) 0.0405(9)
O12 O 0.5982(6) 0.3578(8) 0.0598(9)
O13? O 0.7500 0.7500 -0.0419(11)
I2? I 0.78067(9) 0.79240(8) 0.09689(17)
loop_
_geom_bond_atom_site_label_1
_geom_bond_atom_site_label_2
_geom_bond_site_symmetry_1
_geom_bond_site_symmetry_2
S1 C1 1_555 1_555
N1 C9 1_555 1_555
C1 C2 1_555 1_555
C2 H1 1_555 1_555
C3 C2 1_555 1_555
H2 C3 1_555 1_555
C4 C3 1_555 1_555
C5 C4 1_555 1_555
H3 C5 1_555 1_555
C6 C1 1_555 1_555
H4 C6 1_555 1_555
C7 C4 1_555 1_555
C8 C7 1_555 1_555
H5 C8 1_555 1_555
C9 C8 1_555 1_555
H6 C9 1_555 1_555
C10 N1 1_555 1_555
H7 C10 1_555 1_555
C11 C7 1_555 1_555
H8 C11 1_555 1_555
C12 N1 1_555 1_555
H9 C12 1_555 1_555
H10 C12 1_555 1_555
H11 C12 1_555 1_555
C13 S1 1_555 1_555
H12 C13 1_555 1_555
H13 C13 1_555 1_555
H14 C13 1_555 1_555
O1 C14 1_555 1_555
O2 C16 1_555 1_555
O3 C20 1_555 1_555
O4 C22 1_555 1_555
O5 C26 1_555 1_555
O6 C28 1_555 1_555
O7 C32 1_555 1_555
O8 C34 1_555 1_555
N2 C14 1_555 1_555
N3 C14 1_555 1_555
N4 C15 1_555 1_555
N5 C16 1_555 1_555
N6 C18 1_555 1_555
N7 C20 1_555 1_555
N8 C21 1_555 1_555
N9 C19 1_555 1_555
N10 C24 1_555 1_555
N11 C26 1_555 1_555
N12 C27 1_555 1_555
N13 C25 1_555 1_555
N14 C30 1_555 1_555
N15 C32 1_555 1_555
N16 C33 1_555 1_555
N17 C31 1_555 1_555
C15 N3 1_555 1_555
H15 C15 1_555 1_555
C16 N4 1_555 1_555
C17 N2 1_555 1_555
H16 C17 1_555 1_555
C18 N3 1_555 1_555
H17 C18 1_555 1_555
H18 C18 1_555 1_555
C19 N4 1_555 1_555
H19 C19 1_555 1_555
H20 C19 1_555 1_555
C20 N6 1_555 1_555
C21 N7 1_555 1_555
H21 C21 1_555 1_555
C22 N8 1_555 1_555
C23 N6 1_555 1_555
H22 C23 1_555 1_555
C24 N7 1_555 1_555
H23 C24 1_555 1_555
H24 C24 1_555 1_555
C25 N8 1_555 1_555
H25 C25 1_555 1_555
H26 C25 1_555 1_555
C26 N10 1_555 1_555
C27 N11 1_555 1_555
H27 C27 1_555 1_555
C28 N12 1_555 1_555
C29 N10 1_555 1_555
H28 C29 1_555 1_555
C30 N11 1_555 1_555
H29 C30 1_555 1_555
H30 C30 1_555 1_555
C31 N12 1_555 1_555
H31 C31 1_555 1_555
H32 C31 1_555 1_555
C32 N14 1_555 1_555
C33 N15 1_555 1_555
H33 C33 1_555 1_555
C34 N16 1_555 1_555
C35 N14 1_555 1_555
H34 C35 1_555 1_555
C36 N15 1_555 1_555
H35 C36 1_555 1_555
H36 C36 1_555 1_555
C37 N16 1_555 1_555
H37 C37 1_555 1_555
H38 C37 1_555 1_555
O1D C14D 1_555 1_555
O2D C16D 1_555 1_555
O3D C20D 1_555 1_555
O4D C22D 1_555 1_555
O5D C26D 1_555 1_555
O6D C28D 1_555 1_555
O7D C32D 1_555 1_555
O8D C34D 1_555 1_555
N2D C37 1_555 1_555
N3D C14D 1_555 1_555
N4D C15D 1_555 1_555
N5D C36 1_555 1_555
N6D C18D 1_555 1_555
N7D C20D 1_555 1_555
N8D C21D 1_555 1_555
N9D C19D 1_555 1_555
N10D C24D 1_555 1_555
N11D C26D 1_555 1_555
N12D C27D 1_555 1_555
N13D C25D 1_555 1_555
N14D C30D 1_555 1_555
N15D C32D 1_555 1_555
N16D C33D 1_555 1_555
N17D C31D 1_555 1_555
C14D N2D 1_555 1_555
C15D N3D 1_555 1_555
H15D C15D 1_555 1_555
C16D N4D 1_555 1_555
C17D N2D 1_555 1_555
H16D C17D 1_555 1_555
C18D N3D 1_555 1_555
H17D C18D 1_555 1_555
H18D C18D 1_555 1_555
C19D N4D 1_555 1_555
H19D C19D 1_555 1_555
H20D C19D 1_555 1_555
C20D N6D 1_555 1_555
C21D N7D 1_555 1_555
H21D C21D 1_555 1_555
C22D N8D 1_555 1_555
C23D N6D 1_555 1_555
H22D C23D 1_555 1_555
C24D N7D 1_555 1_555
H23D C24D 1_555 1_555
H24D C24D 1_555 1_555
C25D N8D 1_555 1_555
H25D C25D 1_555 1_555
H26D C25D 1_555 1_555
C26D N10D 1_555 1_555
C27D N11D 1_555 1_555
H27D C27D 1_555 1_555
C28D N12D 1_555 1_555
C29D N10D 1_555 1_555
H28D C29D 1_555 1_555
C30D N11D 1_555 1_555
H29D C30D 1_555 1_555
H30D C30D 1_555 1_555
C31D N12D 1_555 1_555
H31D C31D 1_555 1_555
H32D C31D 1_555 1_555
C32D N14D 1_555 1_555
C33D N15D 1_555 1_555
H33D C33D 1_555 1_555
C34D N16D 1_555 1_555
C35D N14D 1_555 1_555
H34D C35D 1_555 1_555
C36D N5 1_555 1_555
H35D C36D 1_555 1_555
H36D C36D 1_555 1_555
C37D N2 1_555 1_555
H37D C37D 1_555 1_555
H38D C37D 1_555 1_555
C5 C6 1_555 1_555
C10 C11 1_555 1_555
N5 C17 1_555 1_555
N9 C22 1_555 1_555
N9 C23 1_555 1_555
N13 C28 1_555 1_555
N13 C29 1_555 1_555
N17 C34 1_555 1_555
N17 C35 1_555 1_555
C15 C17 1_555 1_555
C21 C23 1_555 1_555
C27 C29 1_555 1_555
C33 C35 1_555 1_555
N5D C16D 1_555 1_555
N5D C17D 1_555 1_555
N9D C22D 1_555 1_555
N9D C23D 1_555 1_555
N13D C28D 1_555 1_555
N13D C29D 1_555 1_555
N15D C36D 1_555 1_555
N16D C37D 1_555 1_555
N17D C34D 1_555 1_555
N17D C35D 1_555 1_555
C15D C17D 1_555 1_555
C21D C23D 1_555 1_555
C27D C29D 1_555 1_555
C33D C35D 1_555 1_555

#END
