
#######################################################################
#
#                 Cambridge Crystallographic Data Centre
#                                CCDC 
#
#######################################################################
#
# If this CIF has been generated from an entry in the Cambridge 
# Structural Database, then it will include bibliographic, chemical, 
# crystal, experimental, refinement or atomic coordinate data resulting 
# from the CCDC's data processing and validation procedures.
#
#######################################################################

data_COFGIO
_chemical_formula_moiety         'C13 H15 F1 O3 S1'
_chemical_name_systematic        
(S*)-3-((R*)-Fluoro(phenylsulfonyl)methyl)cyclohexanone
_symmetry_cell_setting           triclinic
_symmetry_space_group_name_H-M   'P -1'
_symmetry_Int_Tables_number      2
_space_group_name_Hall           '-P 1'
loop_
_symmetry_equiv_pos_site_id
_symmetry_equiv_pos_as_xyz
1 x,y,z
2 -x,-y,-z
_cell_length_a                   10.2552(13)
_cell_length_b                   10.8442(13)
_cell_length_c                   12.3380(15)
_cell_angle_alpha                104.683(2)
_cell_angle_beta                 93.008(2)
_cell_angle_gamma                96.732(2)
_cell_volume                     1313.31
_exptl_crystal_colour            colorless
_exptl_crystal_description       prismatic
_chemical_melting_point          '110-111 deg.C'
_cell_formula_units_Z            4
_exptl_crystal_recrystallization_method 'petroleum ether/ethyl acetate'
loop_
_atom_site_label
_atom_site_type_symbol
_atom_site_fract_x
_atom_site_fract_y
_atom_site_fract_z
S1 S 0.73857(7) 0.70063(6) 0.15112(5)
F1 F 0.51926(14) 0.65424(14) 0.23434(11)
O1 O 0.8615(2) 0.55848(19) 0.52445(18)
O2 O 0.7369(2) 0.56405(17) 0.11865(15)
O3 O 0.86125(17) 0.78274(19) 0.18781(15)
C1 C 0.6330(2) 0.7416(2) 0.2648(2)
C2 C 0.6936(2) 0.7425(2) 0.37936(19)
C3 C 0.7232(3) 0.6098(2) 0.3873(2)
H1 H 0.6447 0.5479 0.3604
H2 H 0.7918 0.5838 0.3386
C4 C 0.7664(3) 0.6074(2) 0.5049(2)
C5 C 0.6859(3) 0.6706(3) 0.5956(2)
H3 H 0.7306 0.6777 0.6685
H4 H 0.6013 0.6180 0.5900
C6 C 0.6644(3) 0.8037(3) 0.5855(2)
H5 H 0.6065 0.8400 0.6412
H6 H 0.7481 0.8594 0.6004
C7 C 0.6045(2) 0.7980(2) 0.4695(2)
H7 H 0.5911 0.8839 0.4656
H8 H 0.5193 0.7449 0.4556
C8 C 0.6594(2) 0.7478(2) 0.04099(19)
C9 C 0.6816(3) 0.8765(3) 0.0400(2)
H9 H 0.7363 0.9359 0.0967
C10 C 0.6215(3) 0.9142(3) -0.0459(2)
H10 H 0.6365 0.9997 -0.0483
C11 C 0.5396(3) 0.8266(4) -0.1281(2)
H11 H 0.4978 0.8531 -0.1853
C12 C 0.5189(3) 0.7002(4) -0.1266(2)
H12 H 0.4636 0.6412 -0.1831
C13 C 0.5794(3) 0.6599(3) -0.0421(2)
H13 H 0.5661 0.5738 -0.0415
H27 H 0.6075(19) 0.8192(16) 0.2591(17)
H28 H 0.7721(16) 0.7985(17) 0.3928(17)
S2 S 0.23117(7) 0.81032(7) 0.60936(5)
F2 F 0.02548(14) 0.80981(14) 0.47951(12)
O4 O 0.3915(2) 0.89512(19) 0.22220(17)
O5 O 0.2698(2) 0.94209(19) 0.61365(15)
O6 O 0.33089(17) 0.7275(2) 0.61161(14)
C14 C 0.1251(2) 0.7344(2) 0.4823(2)
C15 C 0.1957(2) 0.7149(2) 0.37616(19)
C16 C 0.2414(3) 0.8414(2) 0.3471(2)
H14 H 0.1677 0.8902 0.3496
H15 H 0.3092 0.8914 0.4043
C17 C 0.2946(3) 0.8251(3) 0.2342(2)
C18 C 0.2214(3) 0.7234(3) 0.1400(2)
H16 H 0.2760 0.7066 0.0774
H17 H 0.1428 0.7541 0.1153
C19 C 0.1814(3) 0.5979(3) 0.1721(2)
H18 H 0.1244 0.5387 0.1111
H19 H 0.2595 0.5586 0.1835
C20 C 0.1099(3) 0.6216(3) 0.2787(2)
H20 H 0.0864 0.5407 0.2974
H21 H 0.0293 0.6565 0.2660
C21 C 0.1299(2) 0.8034(2) 0.71890(19)
C22 C 0.1379(3) 0.7080(3) 0.7731(2)
H22 H 0.1943 0.6468 0.7506
C23 C 0.0622(4) 0.7036(3) 0.8607(2)
H23 H 0.0672 0.6397 0.8982
C24 C -0.0209(4) 0.7939(4) 0.8927(3)
H24 H -0.0721 0.7909 0.9523
C25 C -0.0297(3) 0.8879(4) 0.8388(3)
H25 H -0.0872 0.9481 0.8610
C26 C 0.0469(3) 0.8939(3) 0.7511(2)
H26 H 0.0422 0.9584 0.7143
H29 H 0.087(2) 0.655(2) 0.4905(17)
H30 H 0.276(2) 0.6785(19) 0.3887(17)
loop_
_geom_bond_atom_site_label_1
_geom_bond_atom_site_label_2
_geom_bond_site_symmetry_1
_geom_bond_site_symmetry_2
S1 O2 1_555 1_555
S2 O5 1_555 1_555
F1 C1 1_555 1_555
F2 C14 1_555 1_555
O1 C4 1_555 1_555
O3 S1 1_555 1_555
O4 C17 1_555 1_555
O6 S2 1_555 1_555
C1 S1 1_555 1_555
C2 C1 1_555 1_555
C3 C2 1_555 1_555
H1 C3 1_555 1_555
H2 C3 1_555 1_555
C4 C3 1_555 1_555
C5 C4 1_555 1_555
H3 C5 1_555 1_555
H4 C5 1_555 1_555
C6 C5 1_555 1_555
H5 C6 1_555 1_555
H6 C6 1_555 1_555
C7 C2 1_555 1_555
H7 C7 1_555 1_555
H8 C7 1_555 1_555
C8 S1 1_555 1_555
C9 C8 1_555 1_555
H9 C9 1_555 1_555
C10 C9 1_555 1_555
H10 C10 1_555 1_555
C11 C10 1_555 1_555
H11 C11 1_555 1_555
C12 C11 1_555 1_555
H12 C12 1_555 1_555
C13 C8 1_555 1_555
H13 C13 1_555 1_555
C14 S2 1_555 1_555
C15 C14 1_555 1_555
C16 C15 1_555 1_555
H14 C16 1_555 1_555
H15 C16 1_555 1_555
C17 C16 1_555 1_555
C18 C17 1_555 1_555
H16 C18 1_555 1_555
H17 C18 1_555 1_555
C19 C18 1_555 1_555
H18 C19 1_555 1_555
H19 C19 1_555 1_555
C20 C15 1_555 1_555
H20 C20 1_555 1_555
H21 C20 1_555 1_555
C21 S2 1_555 1_555
C22 C21 1_555 1_555
H22 C22 1_555 1_555
C23 C22 1_555 1_555
H23 C23 1_555 1_555
C24 C23 1_555 1_555
H24 C24 1_555 1_555
C25 C24 1_555 1_555
H25 C25 1_555 1_555
C26 C21 1_555 1_555
H26 C26 1_555 1_555
H27 C1 1_555 1_555
H28 C2 1_555 1_555
H29 C14 1_555 1_555
H30 C15 1_555 1_555
C6 C7 1_555 1_555
C12 C13 1_555 1_555
C19 C20 1_555 1_555
C25 C26 1_555 1_555

#END
