
#######################################################################
#
#                 Cambridge Crystallographic Data Centre
#                                CCDC 
#
#######################################################################
#
# If this CIF has been generated from an entry in the Cambridge 
# Structural Database, then it will include bibliographic, chemical, 
# crystal, experimental, refinement or atomic coordinate data resulting 
# from the CCDC's data processing and validation procedures.
#
#######################################################################

data_COFGEK
_chemical_formula_moiety         'C28 H21 F1 O5 S2'
_chemical_name_systematic        
(E)-4-Fluoro-1,3-diphenyl-4,4-bis(phenylsulfonyl)but-2-en-1-one
_symmetry_cell_setting           monoclinic
_symmetry_space_group_name_H-M   'C 2/c'
_symmetry_Int_Tables_number      15
_space_group_name_Hall           '-C 2yn'
loop_
_symmetry_equiv_pos_site_id
_symmetry_equiv_pos_as_xyz
1 x,y,z
2 1/2+x,1/2+y,z
3 -x,y,1/2-z
4 1/2-x,1/2+y,1/2-z
5 -x,-y,-z
6 1/2-x,1/2-y,-z
7 x,-y,1/2+z
8 1/2+x,1/2-y,1/2+z
_cell_length_a                   16.2012(12)
_cell_length_b                   16.2809(12)
_cell_length_c                   19.4320(14)
_cell_angle_alpha                90
_cell_angle_beta                 104.247(1)
_cell_angle_gamma                90
_cell_volume                     4967.94
_exptl_crystal_colour            colorless
_exptl_crystal_description       prismatic
_chemical_melting_point          '204-206 deg.C'
_cell_formula_units_Z            8
loop_
_atom_site_label
_atom_site_type_symbol
_atom_site_fract_x
_atom_site_fract_y
_atom_site_fract_z
S1 S 0.58453(3) 0.15107(3) 0.52546(3)
S2 S 0.44545(4) 0.23851(3) 0.58425(3)
F1 F 0.51486(8) 0.29058(6) 0.48535(6)
O1 O 0.30368(11) 0.06705(10) 0.34464(8)
O2 O 0.56142(10) 0.07412(9) 0.55030(8)
O3 O 0.64911(10) 0.19993(10) 0.56949(8)
O4 O 0.36625(10) 0.27802(11) 0.55467(8)
O5 O 0.44737(13) 0.16363(10) 0.62225(9)
C1 C 0.31068(13) 0.06829(11) 0.40801(11)
C2 C 0.38316(13) 0.11001(12) 0.45734(10)
H1 H 0.4085 0.0825 0.4992
C3 C 0.41525(12) 0.18302(12) 0.44734(10)
C4 C 0.48803(12) 0.21652(11) 0.50478(10)
C5 C 0.24972(12) 0.02555(11) 0.44133(10)
C6 C 0.24208(15) 0.04636(14) 0.50814(12)
H2 H 0.2759 0.0880 0.5332
C7 C 0.1852(2) 0.00636(17) 0.53810(14)
H3 H 0.1805 0.0210 0.5832
C8 C 0.13513(19) -0.05526(16) 0.50177(15)
H4 H 0.0966 -0.0825 0.5222
C9 C 0.14218(17) -0.07638(14) 0.43561(13)
H5 H 0.1086 -0.1184 0.4110
C10 C 0.19845(14) -0.03612(12) 0.40499(11)
H6 H 0.2021 -0.0504 0.3595
C11 C 0.37751(13) 0.23943(11) 0.38730(10)
C12 C 0.29734(15) 0.27111(13) 0.38236(11)
H7 H 0.2679 0.2563 0.4159
C13 C 0.26024(18) 0.32420(15) 0.32859(12)
H8 H 0.2062 0.3452 0.3260
C14 C 0.3029(2) 0.34591(16) 0.27929(14)
H9 H 0.2777 0.3815 0.2427
C15 C 0.3828(2) 0.31553(18) 0.28319(13)
H10 H 0.4119 0.3306 0.2494
C16 C 0.42028(17) 0.26232(15) 0.33760(13)
H11 H 0.4747 0.2420 0.3404
C17 C 0.60753(13) 0.13668(12) 0.44297(10)
C18 C 0.57042(15) 0.07083(14) 0.40108(12)
H12 H 0.5325 0.0360 0.4156
C19 C 0.59169(18) 0.05880(18) 0.33712(13)
H13 H 0.5683 0.0150 0.3081
C20 C 0.6476(2) 0.1116(2) 0.31623(14)
H14 H 0.6606 0.1038 0.2727
C21 C 0.68413(18) 0.17549(19) 0.35883(14)
H15 H 0.7227 0.2098 0.3446
C22 C 0.66402(15) 0.18889(15) 0.42210(12)
H16 H 0.6881 0.2327 0.4508
C23 C 0.51418(13) 0.31041(13) 0.63562(10)
C24 C 0.49708(16) 0.39198(14) 0.62239(12)
H17 H 0.4512 0.4085 0.5861
C25 C 0.54979(19) 0.44962(17) 0.66443(15)
H18 H 0.5401 0.5054 0.6559
C26 C 0.61531(19) 0.4242(2) 0.71789(15)
H19 H 0.6501 0.4631 0.7460
C27 C 0.63125(19) 0.34311(19) 0.73134(14)
H20 H 0.6764 0.3271 0.7685
C28 C 0.58065(17) 0.28443(16) 0.69011(12)
H21 H 0.5911 0.2288 0.6989
loop_
_geom_bond_atom_site_label_1
_geom_bond_atom_site_label_2
_geom_bond_site_symmetry_1
_geom_bond_site_symmetry_2
S1 O2 1_555 1_555
S2 O4 1_555 1_555
F1 C4 1_555 1_555
O1 C1 1_555 1_555
O3 S1 1_555 1_555
O5 S2 1_555 1_555
C1 C2 1_555 1_555
C2 H1 1_555 1_555
C3 C2 1_555 1_555
C4 S1 1_555 1_555
C5 C1 1_555 1_555
C6 C5 1_555 1_555
H2 C6 1_555 1_555
C7 C6 1_555 1_555
H3 C7 1_555 1_555
C8 C7 1_555 1_555
H4 C8 1_555 1_555
C9 C8 1_555 1_555
H5 C9 1_555 1_555
C10 C5 1_555 1_555
H6 C10 1_555 1_555
C11 C3 1_555 1_555
C12 C11 1_555 1_555
H7 C12 1_555 1_555
C13 C12 1_555 1_555
H8 C13 1_555 1_555
C14 C13 1_555 1_555
H9 C14 1_555 1_555
C15 C14 1_555 1_555
H10 C15 1_555 1_555
C16 C11 1_555 1_555
H11 C16 1_555 1_555
C17 S1 1_555 1_555
C18 C17 1_555 1_555
H12 C18 1_555 1_555
C19 C18 1_555 1_555
H13 C19 1_555 1_555
C20 C19 1_555 1_555
H14 C20 1_555 1_555
C21 C20 1_555 1_555
H15 C21 1_555 1_555
C22 C17 1_555 1_555
H16 C22 1_555 1_555
C23 S2 1_555 1_555
C24 C23 1_555 1_555
H17 C24 1_555 1_555
C25 C24 1_555 1_555
H18 C25 1_555 1_555
C26 C25 1_555 1_555
H19 C26 1_555 1_555
C27 C26 1_555 1_555
H20 C27 1_555 1_555
C28 C23 1_555 1_555
H21 C28 1_555 1_555
S2 C4 1_555 1_555
C3 C4 1_555 1_555
C9 C10 1_555 1_555
C15 C16 1_555 1_555
C21 C22 1_555 1_555
C27 C28 1_555 1_555

#END
