
#######################################################################
#
#                 Cambridge Crystallographic Data Centre
#                                CCDC 
#
#######################################################################
#
# If this CIF has been generated from an entry in the Cambridge 
# Structural Database, then it will include bibliographic, chemical, 
# crystal, experimental, refinement or atomic coordinate data resulting 
# from the CCDC's data processing and validation procedures.
#
#######################################################################

data_COFJIS
_chemical_formula_moiety         'C11 H17 N3 O3'
_chemical_name_systematic        
'isobutyl 3-(4-amino-2-oxopyrimidin-1(2H)-yl)propanoate'
_symmetry_cell_setting           triclinic
_symmetry_space_group_name_H-M   'P -1'
_symmetry_Int_Tables_number      2
_space_group_name_Hall           '-P 1'
loop_
_symmetry_equiv_pos_site_id
_symmetry_equiv_pos_as_xyz
1 x,y,z
2 -x,-y,-z
_cell_length_a                   5.8765(12)
_cell_length_b                   7.3288(15)
_cell_length_c                   14.611(3)
_cell_angle_alpha                75.644(3)
_cell_angle_beta                 85.030(3)
_cell_angle_gamma                85.647(3)
_cell_volume                     606.354
_exptl_crystal_colour            colorless
_exptl_crystal_description       Block
_cell_formula_units_Z            2
loop_
_atom_site_label
_atom_site_type_symbol
_atom_site_fract_x
_atom_site_fract_y
_atom_site_fract_z
O1 O 0.2704(2) 0.10511(18) 0.41696(10)
O2 O 0.9460(4) 0.2905(3) 0.16778(12)
O3 O 0.7149(3) 0.1671(2) 0.08940(10)
N1 N 0.5687(3) 0.2932(2) 0.36470(10)
N2 N 0.2163(3) 0.4094(2) 0.42495(10)
N3 N 0.1868(3) 0.7171(2) 0.43188(12)
H1 H 0.0498 0.7006 0.4571
H2 H 0.2431 0.8258 0.4220
C1 C 0.3423(3) 0.2626(2) 0.40363(11)
C2 C 0.3109(3) 0.5754(2) 0.40830(11)
C3 C 0.5284(3) 0.6115(2) 0.36829(11)
H3 H 0.5866 0.7305 0.3554
C4 C 0.6446(3) 0.4674(3) 0.35017(13)
H4 H 0.7943 0.4850 0.3248
C5 C 0.7131(4) 0.1336(3) 0.34560(14)
H5 H 0.6908 0.0242 0.3980
H6 H 0.8724 0.1633 0.3412
C6 C 0.6598(4) 0.0861(3) 0.25425(14)
H7 H 0.6934 -0.0477 0.2600
H8 H 0.4976 0.1120 0.2459
C7 C 0.7922(3) 0.1945(3) 0.16789(14)
C8 C 0.8407(4) 0.2494(3) 0.00062(14)
H9 H 0.9955 0.1932 -0.0001
H10 H 0.8484 0.3841 -0.0070
C9 C 0.7169(4) 0.2120(3) -0.07849(14)
H11 H 0.6929 0.0766 -0.0637
C10 C 0.4873(4) 0.3159(5) -0.0878(2)
H12 H 0.3976 0.2825 -0.0286
H13 H 0.4106 0.2824 -0.1362
H14 H 0.5066 0.4493 -0.1045
C11 C 0.8661(5) 0.2608(4) -0.17055(17)
H15 H 0.7947 0.2238 -0.2193
H16 H 1.0132 0.1950 -0.1618
H17 H 0.8845 0.3943 -0.1887
loop_
_geom_bond_atom_site_label_1
_geom_bond_atom_site_label_2
_geom_bond_site_symmetry_1
_geom_bond_site_symmetry_2
O1 C1 1_555 1_555
O2 C7 1_555 1_555
O3 C7 1_555 1_555
N1 C1 1_555 1_555
N2 C1 1_555 1_555
N3 H1 1_555 1_555
H2 N3 1_555 1_555
C2 N2 1_555 1_555
C3 C2 1_555 1_555
H3 C3 1_555 1_555
C4 N1 1_555 1_555
H4 C4 1_555 1_555
C5 N1 1_555 1_555
H5 C5 1_555 1_555
H6 C5 1_555 1_555
C6 C5 1_555 1_555
H7 C6 1_555 1_555
H8 C6 1_555 1_555
C7 C6 1_555 1_555
C8 O3 1_555 1_555
H9 C8 1_555 1_555
H10 C8 1_555 1_555
C9 C8 1_555 1_555
H11 C9 1_555 1_555
C10 C9 1_555 1_555
H12 C10 1_555 1_555
H13 C10 1_555 1_555
H14 C10 1_555 1_555
C11 C9 1_555 1_555
H15 C11 1_555 1_555
H16 C11 1_555 1_555
H17 C11 1_555 1_555
N3 C2 1_555 1_555
C3 C4 1_555 1_555

#END
