
#######################################################################
#
#                 Cambridge Crystallographic Data Centre
#                                CCDC 
#
#######################################################################
#
# If this CIF has been generated from an entry in the Cambridge 
# Structural Database, then it will include bibliographic, chemical, 
# crystal, experimental, refinement or atomic coordinate data resulting 
# from the CCDC's data processing and validation procedures.
#
#######################################################################

data_COFLIS
_chemical_compound_source        'Leaves of Taiwania cryptomerioides'
_chemical_formula_moiety         'C17 H22 O4'
_chemical_name_systematic        
1,13,14-Trihydroxypodocarpa-8,11,13-trien-7-one
_symmetry_cell_setting           orthorhombic
_symmetry_space_group_name_H-M   'P 21 21 21'
_symmetry_Int_Tables_number      19
_space_group_name_Hall           'P 2ac 2ab'
loop_
_symmetry_equiv_pos_site_id
_symmetry_equiv_pos_as_xyz
1 x,y,z
2 1/2-x,-y,1/2+z
3 1/2+x,1/2-y,-z
4 -x,1/2+y,1/2-z
_cell_length_a                   8.046(3)
_cell_length_b                   12.975(5)
_cell_length_c                   28.933(4)
_cell_angle_alpha                90
_cell_angle_beta                 90
_cell_angle_gamma                90
_cell_volume                     3020.51
_chemical_melting_point          188-189deg.C
_cell_formula_units_Z            8
_exptl_crystal_recrystallization_method 'ethyl acetate/hexane'
loop_
_atom_site_label
_atom_site_type_symbol
_atom_site_fract_x
_atom_site_fract_y
_atom_site_fract_z
C1 C 0.7122(5) 0.5898(3) 0.23185(14)
C2 C 0.5764(6) 0.5266(4) 0.25501(17)
C3 C 0.5077(6) 0.4434(4) 0.22294(17)
C4 C 0.6417(5) 0.3672(3) 0.20698(14)
C5 C 0.7875(5) 0.4300(3) 0.18550(12)
C6 C 0.9296(5) 0.3612(3) 0.16936(14)
C7 C 1.0682(5) 0.4178(3) 0.14636(12)
C8 C 1.0769(5) 0.5288(3) 0.15011(12)
C9 C 0.9668(4) 0.5839(3) 0.17979(11)
C10 C 0.8586(5) 0.5230(3) 0.21350(12)
C11 C 0.9697(5) 0.6899(3) 0.17794(13)
C12 C 1.0791(5) 0.7424(3) 0.14847(13)
C13 C 1.1896(5) 0.6905(3) 0.12107(12)
C14 C 1.1907(5) 0.5835(3) 0.12208(12)
C15 C 0.5661(6) 0.2987(4) 0.16944(17)
C16 C 0.6923(6) 0.2968(3) 0.24763(15)
C17 C 0.9718(6) 0.4924(3) 0.25406(14)
O1 O 0.7668(4) 0.67095(22) 0.26195(9)
O2 O 1.1706(4) 0.36766(22) 0.12260(10)
O3 O 1.3003(4) 0.74488(21) 0.09465(9)
O4 O 1.3024(4) 0.53440(22) 0.09421(10)
H1 H 0.763 0.647 0.292
H2 H 1.331 0.706 0.070
H3 H 1.291 0.465 0.099
H4 H 0.662 0.621 0.205
H5 H 0.622 0.495 0.282
H6 H 0.488 0.572 0.265
H7 H 0.421 0.406 0.240
H8 H 0.457 0.476 0.197
H9 H 0.743 0.460 0.158
H10 H 0.886 0.310 0.148
H11 H 0.973 0.324 0.196
H12 H 0.894 0.729 0.198
H13 H 1.076 0.817 0.147
H14 H 0.534 0.340 0.144
H15 H 0.646 0.250 0.160
H16 H 0.472 0.264 0.182
H17 H 0.740 0.337 0.272
H18 H 0.597 0.262 0.259
H19 H 0.771 0.248 0.237
H20 H 1.061 0.452 0.243
H21 H 1.015 0.553 0.268
H22 H 0.910 0.454 0.276
C18 C 0.7315(5) 0.4190(3) 0.89856(13)
C19 C 0.8838(6) 0.3725(4) 0.92226(16)
C20 C 0.9558(6) 0.4421(4) 0.95844(17)
C21 C 0.8311(5) 0.4734(3) 0.99626(14)
C22 C 0.6725(5) 0.5143(3) 0.97167(12)
C23 C 0.5406(5) 0.5502(3) 1.00595(12)
C24 C 0.4077(5) 0.6118(3) 0.98351(12)
C25 C 0.3666(4) 0.5886(3) 0.93536(11)
C26 C 0.4499(5) 0.5088(3) 0.91091(12)
C27 C 0.5911(5) 0.4459(3) 0.93339(12)
C28 C 0.3915(5) 0.4855(3) 0.86725(13)
C29 C 0.2582(6) 0.5379(4) 0.84788(13)
C30 C 0.1789(5) 0.6152(4) 0.87036(13)
C31 C 0.2336(5) 0.6420(3) 0.91471(12)
C32 C 0.9120(6) 0.5619(4) 1.02370(18)
C33 C 0.7995(7) 0.3852(4) 1.03039(17)
C34 C 0.5102(6) 0.3462(3) 0.95130(14)
O5 O 0.6797(4) 0.35198(21) 0.86178(9)
O6 O 0.3330(4) 0.67970(21) 1.00542(9)
O7 O 0.0472(4) 0.6644(3) 0.85063(10)
O8 O 0.1497(4) 0.71841(24) 0.93603(9)
H23 H 0.683 0.286 0.872
H24 H -0.011 0.705 0.871
H25 H 0.190 0.727 0.965
H26 H 0.770 0.483 0.885
H27 H 0.966 0.354 0.900
H28 H 0.849 0.308 0.937
H29 H 1.051 0.410 0.973
H30 H 0.996 0.504 0.944
H31 H 0.707 0.576 0.956
H32 H 0.592 0.592 1.030
H33 H 0.491 0.492 1.021
H34 H 0.446 0.431 0.850
H35 H 0.220 0.518 0.817
H36 H 0.933 0.618 1.004
H37 H 0.839 0.583 1.048
H38 H 1.013 0.539 1.037
H39 H 0.749 0.329 1.015
H40 H 0.902 0.364 1.043
H41 H 0.728 0.408 1.054
H42 H 0.424 0.363 0.973
H43 H 0.464 0.309 0.926
H44 H 0.592 0.305 0.966
loop_
_geom_bond_atom_site_label_1
_geom_bond_atom_site_label_2
_geom_bond_site_symmetry_1
_geom_bond_site_symmetry_2
C1 C2 1_555 1_555
C2 C3 1_555 1_555
C3 C4 1_555 1_555
C4 C5 1_555 1_555
C5 C6 1_555 1_555
C6 C7 1_555 1_555
C7 C8 1_555 1_555
C8 C9 1_555 1_555
C9 C10 1_555 1_555
C10 C1 1_555 1_555
C11 C9 1_555 1_555
C12 C11 1_555 1_555
C13 C12 1_555 1_555
C14 C8 1_555 1_555
C15 C4 1_555 1_555
C16 C4 1_555 1_555
C17 C10 1_555 1_555
O1 C1 1_555 1_555
O2 C7 1_555 1_555
O3 C13 1_555 1_555
O4 C14 1_555 1_555
C18 C19 1_555 1_555
C19 C20 1_555 1_555
C20 C21 1_555 1_555
C21 C22 1_555 1_555
C22 C23 1_555 1_555
C23 C24 1_555 1_555
C24 C25 1_555 1_555
C25 C26 1_555 1_555
C26 C27 1_555 1_555
C27 C18 1_555 1_555
C28 C26 1_555 1_555
C29 C28 1_555 1_555
C30 C29 1_555 1_555
C31 C25 1_555 1_555
C32 C21 1_555 1_555
C33 C21 1_555 1_555
C34 C27 1_555 1_555
O5 C18 1_555 1_555
O6 C24 1_555 1_555
O7 C30 1_555 1_555
O8 C31 1_555 1_555
H1 O1 1_555 1_555
H2 O3 1_555 1_555
H3 O4 1_555 1_555
H4 C1 1_555 1_555
H5 C2 1_555 1_555
H6 C2 1_555 1_555
H7 C3 1_555 1_555
H8 C3 1_555 1_555
H9 C5 1_555 1_555
H10 C6 1_555 1_555
H11 C6 1_555 1_555
H12 C11 1_555 1_555
H13 C12 1_555 1_555
H14 C15 1_555 1_555
H15 C15 1_555 1_555
H16 C15 1_555 1_555
H17 C16 1_555 1_555
H18 C16 1_555 1_555
H19 C16 1_555 1_555
H20 C17 1_555 1_555
H21 C17 1_555 1_555
H22 C17 1_555 1_555
H23 O5 1_555 1_555
H24 O7 1_555 1_555
H25 O8 1_555 1_555
H26 C18 1_555 1_555
H27 C19 1_555 1_555
H28 C19 1_555 1_555
H29 C20 1_555 1_555
H30 C20 1_555 1_555
H31 C22 1_555 1_555
H32 C23 1_555 1_555
H33 C23 1_555 1_555
H34 C28 1_555 1_555
H35 C29 1_555 1_555
H36 C32 1_555 1_555
H37 C32 1_555 1_555
H38 C32 1_555 1_555
H39 C33 1_555 1_555
H40 C33 1_555 1_555
H41 C33 1_555 1_555
H42 C34 1_555 1_555
H43 C34 1_555 1_555
H44 C34 1_555 1_555
C5 C10 1_555 1_555
C13 C14 1_555 1_555
C22 C27 1_555 1_555
C30 C31 1_555 1_555

#END
