
#######################################################################
#
#                 Cambridge Crystallographic Data Centre
#                                CCDC 
#
#######################################################################
#
# If this CIF has been generated from an entry in the Cambridge 
# Structural Database, then it will include bibliographic, chemical, 
# crystal, experimental, refinement or atomic coordinate data resulting 
# from the CCDC's data processing and validation procedures.
#
#######################################################################

data_COFQAQ01
_chemical_formula_moiety         'C6 H7 N2 O2 1+,H2 O4 P1 1-'
_chemical_name_systematic        
'2-amino-5-carboxypyridinium dihydrogen phosphate'
_symmetry_cell_setting           triclinic
_symmetry_space_group_name_H-M   'P -1'
_symmetry_Int_Tables_number      2
_space_group_name_Hall           '-P 1'
loop_
_symmetry_equiv_pos_site_id
_symmetry_equiv_pos_as_xyz
1 x,y,z
2 -x,-y,-z
_cell_length_a                   7.2379(14)
_cell_length_b                   8.1118(16)
_cell_length_c                   8.8601(18)
_cell_angle_alpha                81.85(3)
_cell_angle_beta                 79.45(3)
_cell_angle_gamma                63.60(3)
_cell_volume                     456.993
_cell_formula_units_Z            2
loop_
_atom_site_label
_atom_site_type_symbol
_atom_site_fract_x
_atom_site_fract_y
_atom_site_fract_z
P1 P 0.35748(10) 0.78402(9) 0.01581(7)
O1 O 0.5244(3) 0.6922(2) -0.1132(2)
H1 H 0.5598 0.5806 -0.1027
O2 O 0.1390(3) 0.8461(3) -0.0306(2)
O3 O 0.3754(3) 0.6469(3) 0.1619(2)
O4 O 0.3682(3) 0.9499(3) 0.0705(2)
H2 H 0.4242 0.9959 -0.0002
N1 N 0.3020(3) 0.2509(3) 0.3985(2)
O5 O 0.1003(4) 0.5911(3) 0.8368(2)
H3 H 0.0919 0.6841 0.8696
O6 O 0.2336(4) 0.6969(3) 0.6188(2)
C1 C 0.2809(4) 0.3972(3) 0.4703(3)
H4 H 0.3157 0.4875 0.4138
C2 C 0.2098(4) 0.4139(4) 0.6231(3)
N2 N 0.2777(4) -0.0243(3) 0.3968(3)
H5 H 0.3237 -0.0273 0.3001
H6 H 0.2474 -0.1113 0.4437
C3 C 0.2534(4) 0.1150(3) 0.4740(3)
C4 C 0.1832(4) 0.5817(4) 0.6916(3)
C5 C 0.1602(4) 0.2738(4) 0.7064(3)
H7 H 0.1121 0.2817 0.8111
C6 C 0.1822(4) 0.1265(4) 0.6343(3)
H8 H 0.1506 0.0340 0.6901
H9 H 0.356(5) 0.246(4) 0.294(4)
loop_
_geom_bond_atom_site_label_1
_geom_bond_atom_site_label_2
_geom_bond_site_symmetry_1
_geom_bond_site_symmetry_2
P1 O1 1_555 1_555
O1 H1 1_555 1_555
O2 P1 1_555 1_555
O3 P1 1_555 1_555
O4 P1 1_555 1_555
H2 O4 1_555 1_555
N1 C1 1_555 1_555
O5 H3 1_555 1_555
O6 C4 1_555 1_555
C1 H4 1_555 1_555
C2 C1 1_555 1_555
N2 H5 1_555 1_555
H6 N2 1_555 1_555
C3 N1 1_555 1_555
C4 O5 1_555 1_555
C5 C2 1_555 1_555
H7 C5 1_555 1_555
C6 C3 1_555 1_555
H8 C6 1_555 1_555
H9 N1 1_555 1_555
C2 C4 1_555 1_555
N2 C3 1_555 1_555
C5 C6 1_555 1_555

#END
