
#######################################################################
#
#                 Cambridge Crystallographic Data Centre
#                                CCDC 
#
#######################################################################
#
# If this CIF has been generated from an entry in the Cambridge 
# Structural Database, then it will include bibliographic, chemical, 
# crystal, experimental, refinement or atomic coordinate data resulting 
# from the CCDC's data processing and validation procedures.
#
#######################################################################

data_COFYON
_chemical_formula_moiety         'C32 H28 S4,C1 H2 Cl2'
_chemical_name_systematic        
"1,1',1'',1'''-Butatriene-1,1,4,4-tetrayltetrakis(4-(methylsulfanyl)benzene) dichloromethane solvate"
_symmetry_cell_setting           monoclinic
_symmetry_space_group_name_H-M   'P 21/c'
_symmetry_Int_Tables_number      14
_space_group_name_Hall           '-P 2ybc'
loop_
_symmetry_equiv_pos_site_id
_symmetry_equiv_pos_as_xyz
1 x,y,z
2 -x,1/2+y,1/2-z
3 -x,-y,-z
4 x,1/2-y,1/2+z
_cell_length_a                   17.482(3)
_cell_length_b                   7.3606(13)
_cell_length_c                   28.943(4)
_cell_angle_alpha                90
_cell_angle_beta                 126.183(7)
_cell_angle_gamma                90
_cell_volume                     3006.04
_exptl_crystal_colour            orange
_exptl_crystal_description       needle
_chemical_melting_point          '543 K'
_cell_formula_units_Z            4
_chemical_properties_physical    'Heat-sensitive, Photo-sensitive'
_exptl_crystal_recrystallization_method dichloromethane/hexane
loop_
_atom_site_label
_atom_site_type_symbol
_atom_site_fract_x
_atom_site_fract_y
_atom_site_fract_z
S1 S 0.93116(3) 0.77098(6) 0.63433(2)
S2 S -0.02526(3) 0.71677(6) 0.45866(2)
S3 S 0.69481(3) 0.78393(6) 0.84292(2)
S4 S 0.20627(3) 0.76403(6) 0.23477(2)
C1 C 0.29777(11) 0.7368(2) 0.55484(7)
C2 C 0.46691(11) 0.7466(2) 0.52365(7)
C3 C 0.96049(12) 0.9259(2) 0.59881(8)
H1 H 0.9417 0.8729 0.5624
H2 H 1.0290 0.9483 0.6232
H3 H 0.9268 1.0409 0.5915
C4 C 0.29796(11) 0.7579(2) 0.30893(7)
C5 C -0.06562(12) 0.5417(3) 0.40552(8)
H4 H -0.0526 0.5779 0.3782
H5 H -0.1339 0.5238 0.3852
H6 H -0.0323 0.4280 0.4243
C6 C 0.25800(15) 0.6603(4) 0.20368(8)
H7 H 0.2127 0.6633 0.1619
H8 H 0.2743 0.5339 0.2166
H9 H 0.3155 0.7266 0.2154
C7 C 0.63047(12) 0.7655(2) 0.87350(7)
H10 H 0.5807 0.8584 0.8567
H11 H 0.6740 0.7834 0.9150
H12 H 0.6016 0.6447 0.8654
C8 C 0.43546(11) 0.7467(2) 0.55270(7)
C9 C 0.38576(11) 0.6728(2) 0.33408(7)
H13 H 0.3995 0.6128 0.3107
C10 C 0.66434(11) 0.6668(2) 0.57828(7)
H14 H 0.6359 0.6071 0.5937
C11 C 0.14447(12) 0.6181(2) 0.47570(7)
H15 H 0.1087 0.5429 0.4428
C12 C 0.25106(11) 0.8335(2) 0.57338(7)
H16 H 0.2869 0.9058 0.6070
C13 C 0.45317(11) 0.6758(2) 0.39336(7)
H17 H 0.5130 0.6201 0.4097
C14 C 0.60624(11) 0.7448(2) 0.52336(7)
C15 C 0.43472(11) 0.7589(2) 0.42936(7)
C16 C 0.15322(11) 0.8248(2) 0.54318(7)
H18 H 0.1229 0.8933 0.5559
C17 C 0.50193(11) 0.7492(2) 0.49270(7)
C18 C 0.80577(11) 0.7654(2) 0.58853(7)
C19 C 0.40186(11) 0.7510(2) 0.58451(7)
C20 C 0.74902(11) 0.8415(2) 0.53385(7)
H19 H 0.7776 0.9017 0.5186
C21 C 0.76223(12) 0.6757(2) 0.61021(7)
H20 H 0.8001 0.6208 0.6470
C22 C 0.09866(11) 0.7161(2) 0.49413(7)
C23 C 0.44723(11) 0.7039(2) 0.68425(7)
H21 H 0.3854 0.6582 0.6681
C24 C 0.62785(11) 0.8393(2) 0.73220(7)
H22 H 0.6894 0.8865 0.7484
C25 C 0.56205(11) 0.8336(2) 0.67333(7)
H23 H 0.5793 0.8764 0.6497
C26 C 0.51328(11) 0.7082(2) 0.74356(7)
H24 H 0.4963 0.6651 0.7673
C27 C 0.60457(11) 0.7760(2) 0.76827(7)
C28 C 0.46981(11) 0.7653(2) 0.64778(7)
C29 C 0.65036(11) 0.8296(2) 0.50152(7)
H25 H 0.6126 0.8799 0.4641
C30 C 0.34597(11) 0.8437(2) 0.40346(7)
H26 H 0.3314 0.9007 0.4268
C31 C 0.27978(11) 0.8456(2) 0.34466(7)
H27 H 0.2212 0.9069 0.3282
C32 C 0.24243(11) 0.6304(2) 0.50541(7)
H28 H 0.2724 0.5652 0.4918
Cl1 Cl 0.87148(3) 0.70210(7) 0.76568(2)
Cl2 Cl 1.06791(3) 0.79669(7) 0.81517(2)
C33 C 0.94849(13) 0.8660(3) 0.76897(8)
H29 H 0.9315 0.8859 0.7301
H30 H 0.9405 0.9828 0.7827
loop_
_geom_bond_atom_site_label_1
_geom_bond_atom_site_label_2
_geom_bond_site_symmetry_1
_geom_bond_site_symmetry_2
S1 C3 1_555 1_555
S2 C5 1_555 1_555
S3 C7 1_555 1_555
S4 C4 1_555 1_555
C1 C12 1_555 1_555
C2 C8 1_555 1_555
C3 H1 1_555 1_555
H2 C3 1_555 1_555
H3 C3 1_555 1_555
C4 C9 1_555 1_555
C5 H4 1_555 1_555
H5 C5 1_555 1_555
H6 C5 1_555 1_555
C6 S4 1_555 1_555
H7 C6 1_555 1_555
H8 C6 1_555 1_555
H9 C6 1_555 1_555
C7 H10 1_555 1_555
H11 C7 1_555 1_555
H12 C7 1_555 1_555
C8 C19 1_555 1_555
C9 H13 1_555 1_555
C10 H14 1_555 1_555
C11 H15 1_555 1_555
C12 H16 1_555 1_555
C13 C9 1_555 1_555
H17 C13 1_555 1_555
C14 C10 1_555 1_555
C15 C13 1_555 1_555
C16 C12 1_555 1_555
H18 C16 1_555 1_555
C17 C2 1_555 1_555
C18 S1 1_555 1_555
C19 C1 1_555 1_555
C20 C18 1_555 1_555
H19 C20 1_555 1_555
C21 C10 1_555 1_555
H20 C21 1_555 1_555
C22 S2 1_555 1_555
C23 H21 1_555 1_555
C24 H22 1_555 1_555
C25 C24 1_555 1_555
H23 C25 1_555 1_555
C26 C23 1_555 1_555
H24 C26 1_555 1_555
C27 S3 1_555 1_555
C28 C19 1_555 1_555
C29 C14 1_555 1_555
H25 C29 1_555 1_555
C30 C15 1_555 1_555
H26 C30 1_555 1_555
C31 C4 1_555 1_555
H27 C31 1_555 1_555
C32 C1 1_555 1_555
H28 C32 1_555 1_555
Cl1 C33 1_555 1_555
Cl2 C33 1_555 1_555
C33 H29 1_555 1_555
H30 C33 1_555 1_555
C11 C22 1_555 1_555
C11 C32 1_555 1_555
C14 C17 1_555 1_555
C15 C17 1_555 1_555
C16 C22 1_555 1_555
C18 C21 1_555 1_555
C20 C29 1_555 1_555
C23 C28 1_555 1_555
C24 C27 1_555 1_555
C25 C28 1_555 1_555
C26 C27 1_555 1_555
C30 C31 1_555 1_555

#END
