
#######################################################################
#
#                 Cambridge Crystallographic Data Centre
#                                CCDC 
#
#######################################################################
#
# If this CIF has been generated from an entry in the Cambridge 
# Structural Database, then it will include bibliographic, chemical, 
# crystal, experimental, refinement or atomic coordinate data resulting 
# from the CCDC's data processing and validation procedures.
#
#######################################################################

data_COFZII
_chemical_formula_moiety         'C38 H26 N4'
_chemical_name_systematic        
3,9-Dimethyl-6,12-bis(4-methylphenyl)tetracene-5,5,11,11-tetracarbonitrile
_symmetry_cell_setting           monoclinic
_symmetry_space_group_name_H-M   'C 2/c'
_symmetry_Int_Tables_number      15
_space_group_name_Hall           '-C 2yn'
loop_
_symmetry_equiv_pos_site_id
_symmetry_equiv_pos_as_xyz
1 x,y,z
2 -x,y,1/2-z
3 1/2+x,1/2+y,z
4 1/2-x,1/2+y,1/2-z
5 -x,-y,-z
6 x,-y,1/2+z
7 1/2-x,1/2-y,-z
8 1/2+x,1/2-y,1/2+z
_cell_length_a                   20.650(15)
_cell_length_b                   8.222(6)
_cell_length_c                   16.049(11)
_cell_angle_alpha                90
_cell_angle_beta                 91.623(14)
_cell_angle_gamma                90
_cell_volume                     2723.78
_exptl_crystal_colour            yellow
_exptl_crystal_description       plate
_chemical_melting_point          '585 K'
_cell_formula_units_Z            4
_chemical_properties_physical    Heat-sensitive
_exptl_crystal_preparation       Luminescent
loop_
_atom_site_label
_atom_site_type_symbol
_atom_site_fract_x
_atom_site_fract_y
_atom_site_fract_z
N1 N 1.19483(6) 0.98751(15) 0.99270(8)
N2 N 1.08220(6) 0.72574(16) 1.17288(7)
C1 C 0.74895(7) 0.7270(2) 0.68836(9)
H1 H 0.7158 0.8114 0.6931
H2 H 0.7301 0.6207 0.7009
H3 H 0.7651 0.7264 0.6315
C2 C 0.80411(7) 0.76164(18) 0.74922(8)
C3 C 0.80614(7) 0.69563(18) 0.82886(8)
H4 H 0.7723 0.6252 0.8452
C4 C 0.85630(7) 0.73017(17) 0.88492(8)
H5 H 0.8567 0.6824 0.9388
C5 C 0.90605(6) 0.83382(17) 0.86327(8)
C6 C 0.96350(6) 0.85813(17) 0.92130(8)
C7 C 1.02840(6) 1.01169(17) 1.02771(8)
C8 C 0.90498(7) 0.89783(17) 0.78317(8)
H6 H 0.9393 0.9662 0.7664
C9 C 0.85436(7) 0.86309(18) 0.72748(8)
H7 H 0.8541 0.9098 0.6733
C10 C 1.01278(7) 0.73094(17) 0.91697(8)
C11 C 1.00528(7) 0.60003(18) 0.86204(8)
H8 H 0.9664 0.5902 0.8293
C12 C 1.05310(7) 0.48530(18) 0.85449(8)
H9 H 1.0468 0.3978 0.8165
C13 C 1.11056(7) 0.49500(17) 0.90146(8)
C14 C 1.11774(7) 0.62241(17) 0.95760(8)
H10 H 1.1561 0.6300 0.9914
C15 C 1.06989(7) 0.73849(17) 0.96498(8)
C16 C 1.08047(6) 0.87626(17) 1.02877(8)
C17 C 1.14510(7) 0.94512(17) 1.01225(8)
C18 C 1.08257(6) 0.79542(17) 1.11150(8)
C19 C 1.16317(7) 0.37308(18) 0.88894(9)
H11 H 1.1987 0.3927 0.9295
H12 H 1.1793 0.3834 0.8323
H13 H 1.1460 0.2632 0.8968
N1D N 0.80517(6) 1.01249(15) 1.00730(8)
N2D N 0.91780(6) 1.27426(16) 0.82712(7)
C1D C 1.25105(7) 1.2730(2) 1.31164(9)
H1D H 1.2842 1.1886 1.3069
H2D H 1.2699 1.3793 1.2991
H3D H 1.2349 1.2736 1.3685
C2D C 1.19589(7) 1.23836(18) 1.25078(8)
C3D C 1.19386(7) 1.30437(18) 1.17114(8)
H4D H 1.2277 1.3748 1.1548
C4D C 1.14370(7) 1.26983(17) 1.11508(8)
H5D H 1.1433 1.3176 1.0612
C5D C 1.09395(6) 1.16618(17) 1.13673(8)
C6D C 1.03650(6) 1.14187(17) 1.07870(8)
C7D C 0.97160(6) 0.98831(17) 0.97229(8)
C8D C 1.09502(7) 1.10217(17) 1.21683(8)
H6D H 1.0607 1.0338 1.2336
C9D C 1.14564(7) 1.13691(18) 1.27252(8)
H7D H 1.1459 1.0902 1.3267
C10D C 0.98722(7) 1.26906(17) 1.08303(8)
C11D C 0.99472(7) 1.39997(18) 1.13796(8)
H8D H 1.0336 1.4098 1.1707
C12D C 0.94690(7) 1.51470(18) 1.14551(8)
H9D H 0.9532 1.6022 1.1835
C13D C 0.88944(7) 1.50500(17) 1.09854(8)
C14D C 0.88226(7) 1.37759(17) 1.04240(8)
H10D H 0.8439 1.3700 1.0086
C15D C 0.93011(7) 1.26151(17) 1.03502(8)
C16D C 0.91953(6) 1.12374(17) 0.97123(8)
C17D C 0.85490(7) 1.05488(17) 0.98775(8)
C18D C 0.91743(6) 1.20458(17) 0.88850(8)
C19D C 0.83683(7) 1.62692(18) 1.11106(9)
H11D H 0.8013 1.6073 1.0705
H12D H 0.8207 1.6166 1.1677
H13D H 0.8540 1.7368 1.1032
loop_
_geom_bond_atom_site_label_1
_geom_bond_atom_site_label_2
_geom_bond_site_symmetry_1
_geom_bond_site_symmetry_2
N1 C17 1_555 1_555
N2 C18 1_555 1_555
C1 H1 1_555 1_555
H2 C1 1_555 1_555
H3 C1 1_555 1_555
C2 C1 1_555 1_555
C3 C2 1_555 1_555
H4 C3 1_555 1_555
C4 C3 1_555 1_555
H5 C4 1_555 1_555
C5 C4 1_555 1_555
C6 C5 1_555 1_555
C7 C16 1_555 1_555
C8 C5 1_555 1_555
H6 C8 1_555 1_555
C9 C2 1_555 1_555
H7 C9 1_555 1_555
C10 C6 1_555 1_555
C11 C10 1_555 1_555
H8 C11 1_555 1_555
C12 C11 1_555 1_555
H9 C12 1_555 1_555
C13 C12 1_555 1_555
C14 C13 1_555 1_555
H10 C14 1_555 1_555
C15 C10 1_555 1_555
C16 C15 1_555 1_555
C17 C16 1_555 1_555
C18 C16 1_555 1_555
C19 C13 1_555 1_555
H11 C19 1_555 1_555
H12 C19 1_555 1_555
H13 C19 1_555 1_555
N1D C17D 1_555 1_555
N2D C18D 1_555 1_555
C1D H1D 1_555 1_555
H2D C1D 1_555 1_555
H3D C1D 1_555 1_555
C2D C1D 1_555 1_555
C3D C2D 1_555 1_555
H4D C3D 1_555 1_555
C4D C3D 1_555 1_555
H5D C4D 1_555 1_555
C5D C4D 1_555 1_555
C6D C7 1_555 1_555
C7D C6 1_555 1_555
C8D C5D 1_555 1_555
H6D C8D 1_555 1_555
C9D C2D 1_555 1_555
H7D C9D 1_555 1_555
C10D C6D 1_555 1_555
C11D C10D 1_555 1_555
H8D C11D 1_555 1_555
C12D C11D 1_555 1_555
H9D C12D 1_555 1_555
C13D C12D 1_555 1_555
C14D C13D 1_555 1_555
H10D C14D 1_555 1_555
C15D C10D 1_555 1_555
C16D C7D 1_555 1_555
C17D C16D 1_555 1_555
C18D C16D 1_555 1_555
C19D C13D 1_555 1_555
H11D C19D 1_555 1_555
H12D C19D 1_555 1_555
H13D C19D 1_555 1_555
C7 C7D 1_555 1_555
C8 C9 1_555 1_555
C14 C15 1_555 1_555
C5D C6D 1_555 1_555
C8D C9D 1_555 1_555
C14D C15D 1_555 1_555
C15D C16D 1_555 1_555

#END
