
#######################################################################
#
#                 Cambridge Crystallographic Data Centre
#                                CCDC 
#
#######################################################################
#
# If this CIF has been generated from an entry in the Cambridge 
# Structural Database, then it will include bibliographic, chemical, 
# crystal, experimental, refinement or atomic coordinate data resulting 
# from the CCDC's data processing and validation procedures.
#
#######################################################################

data_COFZUU
_chemical_formula_moiety         'C32 H18 N2'
_chemical_name_systematic        6,12-diphenyltetracene-5,11-dicarbonitrile
_symmetry_cell_setting           triclinic
_symmetry_space_group_name_H-M   'P -1'
_symmetry_Int_Tables_number      2
_space_group_name_Hall           '-P 1'
loop_
_symmetry_equiv_pos_site_id
_symmetry_equiv_pos_as_xyz
1 x,y,z
2 -x,-y,-z
_cell_length_a                   5.758(3)
_cell_length_b                   8.810(5)
_cell_length_c                   11.232(6)
_cell_angle_alpha                109.816(11)
_cell_angle_beta                 90.896(12)
_cell_angle_gamma                100.448(11)
_cell_volume                     525.316
_exptl_crystal_colour            orange
_exptl_crystal_description       needle
_chemical_melting_point          '667 K'
_cell_formula_units_Z            1
_exptl_crystal_recrystallization_method 'dichloromethane , hexane'
_exptl_crystal_preparation       Luminescent
loop_
_atom_site_label
_atom_site_type_symbol
_atom_site_fract_x
_atom_site_fract_y
_atom_site_fract_z
N1 N 0.5559(3) 0.39908(18) 0.20259(14)
C1 C 0.5024(3) 0.7200(2) 0.50458(16)
H1 H 0.5849 0.7298 0.5816
C2 C 0.6094(3) 0.7995(2) 0.42628(16)
H2 H 0.7649 0.8644 0.4498
C3 C 0.4892(3) 0.78441(19) 0.31346(15)
H3 H 0.5620 0.8405 0.2607
C4 C 0.2615(3) 0.68705(19) 0.27696(15)
C5 C 0.1251(3) 0.66639(19) 0.15630(14)
C6 C 0.0832(3) 0.51337(19) 0.05356(14)
C7 C 0.1531(3) 0.6095(2) 0.35725(15)
H4 H -0.0032 0.5458 0.3347
C8 C 0.2748(3) 0.6259(2) 0.47038(16)
H5 H 0.2015 0.5724 0.5246
C9 C 0.0241(3) 0.79770(19) 0.15006(15)
C10 C 0.0740(3) 0.9566(2) 0.24951(15)
H6 H 0.1824 0.9746 0.3199
C11 C -0.0303(3) 1.0812(2) 0.24508(16)
H7 H 0.0076 1.1854 0.3113
C12 C -0.1958(3) 1.0565(2) 0.14196(16)
H8 H -0.2679 1.1444 0.1397
C13 C -0.2521(3) 0.9081(2) 0.04638(15)
H9 H -0.3649 0.8931 -0.0213
C14 C -0.1431(3) 0.77363(19) 0.04647(15)
C15 C 0.2000(3) 0.38192(19) 0.05080(14)
C16 C 0.3948(3) 0.40158(19) 0.14124(16)
N1A N -0.5559(3) 0.60092(18) -0.20259(14)
C1A C -0.5024(3) 0.2800(2) -0.50458(16)
H1A H -0.5849 0.2702 -0.5816
C2A C -0.6094(3) 0.2005(2) -0.42628(16)
H2A H -0.7649 0.1356 -0.4498
C3A C -0.4892(3) 0.21559(19) -0.31346(15)
H3A H -0.5620 0.1595 -0.2607
C4A C -0.2615(3) 0.31295(19) -0.27696(15)
C5A C -0.1251(3) 0.33361(19) -0.15630(14)
C6A C -0.0832(3) 0.48663(19) -0.05356(14)
C7A C -0.1531(3) 0.3905(2) -0.35725(15)
H4A H 0.0032 0.4542 -0.3347
C8A C -0.2748(3) 0.3741(2) -0.47038(16)
H5A H -0.2015 0.4276 -0.5246
C9A C -0.0241(3) 0.20230(19) -0.15006(15)
C10A C -0.0740(3) 0.0434(2) -0.24951(15)
H6A H -0.1824 0.0254 -0.3199
C11A C 0.0303(3) -0.0812(2) -0.24508(16)
H7A H -0.0076 -0.1854 -0.3113
C12A C 0.1958(3) -0.0565(2) -0.14196(16)
H8A H 0.2679 -0.1444 -0.1397
C13A C 0.2521(3) 0.0919(2) -0.04638(15)
H9A H 0.3649 0.1069 0.0213
C14A C 0.1431(3) 0.22637(19) -0.04647(15)
C15A C -0.2000(3) 0.61808(19) -0.05080(14)
C16A C -0.3948(3) 0.59842(19) -0.14124(16)
loop_
_geom_bond_atom_site_label_1
_geom_bond_atom_site_label_2
_geom_bond_site_symmetry_1
_geom_bond_site_symmetry_2
N1 C16 1_555 1_555
C1 H1 1_555 1_555
C2 C1 1_555 1_555
H2 C2 1_555 1_555
C3 C2 1_555 1_555
H3 C3 1_555 1_555
C4 C3 1_555 1_555
C5 C4 1_555 1_555
C6 C5 1_555 1_555
C7 C4 1_555 1_555
H4 C7 1_555 1_555
C8 C1 1_555 1_555
H5 C8 1_555 1_555
C9 C5 1_555 1_555
C10 C9 1_555 1_555
H6 C10 1_555 1_555
C11 C10 1_555 1_555
H7 C11 1_555 1_555
C12 C11 1_555 1_555
H8 C12 1_555 1_555
C13 C12 1_555 1_555
H9 C13 1_555 1_555
C14 C9 1_555 1_555
C15 C6 1_555 1_555
C16 C15 1_555 1_555
N1A C16A 1_555 1_555
C1A H1A 1_555 1_555
C2A C1A 1_555 1_555
H2A C2A 1_555 1_555
C3A C2A 1_555 1_555
H3A C3A 1_555 1_555
C4A C3A 1_555 1_555
C5A C4A 1_555 1_555
C6A C6 1_555 1_555
C7A C4A 1_555 1_555
H4A C7A 1_555 1_555
C8A C1A 1_555 1_555
H5A C8A 1_555 1_555
C9A C5A 1_555 1_555
C10A C9A 1_555 1_555
H6A C10A 1_555 1_555
C11A C10A 1_555 1_555
H7A C11A 1_555 1_555
C12A C11A 1_555 1_555
H8A C12A 1_555 1_555
C13A C12A 1_555 1_555
H9A C13A 1_555 1_555
C14A C15 1_555 1_555
C15A C14 1_555 1_555
C16A C15A 1_555 1_555
C7 C8 1_555 1_555
C13 C14 1_555 1_555
C5A C6A 1_555 1_555
C6A C15A 1_555 1_555
C7A C8A 1_555 1_555
C9A C14A 1_555 1_555
C13A C14A 1_555 1_555

#END
