
#######################################################################
#
#                 Cambridge Crystallographic Data Centre
#                                CCDC 
#
#######################################################################
#
# If this CIF has been generated from an entry in the Cambridge 
# Structural Database, then it will include bibliographic, chemical, 
# crystal, experimental, refinement or atomic coordinate data resulting 
# from the CCDC's data processing and validation procedures.
#
#######################################################################

data_COFZOO
_chemical_formula_moiety         'C38 H26 N4 O4'
_chemical_name_systematic        
3,9-Dimethoxy-6,12-bis(4-methoxyphenyl)tetracene-5,5,11,11-tetracarbonitrile
_symmetry_cell_setting           triclinic
_symmetry_space_group_name_H-M   'P -1'
_symmetry_Int_Tables_number      2
_space_group_name_Hall           '-P 1'
loop_
_symmetry_equiv_pos_site_id
_symmetry_equiv_pos_as_xyz
1 x,y,z
2 -x,-y,-z
_cell_length_a                   6.1403(14)
_cell_length_b                   9.380(2)
_cell_length_c                   12.863(3)
_cell_angle_alpha                92.488(4)
_cell_angle_beta                 95.606(3)
_cell_angle_gamma                103.274(3)
_cell_volume                     715.956
_exptl_crystal_colour            yellow
_exptl_crystal_description       needle
_chemical_melting_point          '565 K'
_cell_formula_units_Z            1
_chemical_properties_physical    Heat-sensitive
_exptl_crystal_recrystallization_method dichloromethane/hexane
_exptl_crystal_preparation       Luminescent
loop_
_atom_site_label
_atom_site_type_symbol
_atom_site_fract_x
_atom_site_fract_y
_atom_site_fract_z
O1 O 0.3745(2) 0.16599(14) 0.45275(10)
O2 O -0.3742(2) 0.91833(14) 0.29363(10)
N1 N 0.1864(3) 0.90775(17) -0.02431(13)
N2 N -0.5230(3) 0.68407(19) -0.09499(13)
C1 C 0.5989(3) 0.2100(2) 0.50169(16)
H1 H 0.6188 0.3034 0.5429
H2 H 0.7035 0.2223 0.4481
H3 H 0.6295 0.1349 0.5479
C2 C 0.3067(3) 0.25447(19) 0.38172(13)
C3 C 0.0891(3) 0.20452(19) 0.33317(14)
H4 H -0.0036 0.1162 0.3527
C4 C 0.0070(3) 0.28265(19) 0.25665(14)
H5 H -0.1429 0.2485 0.2242
C5 C 0.1417(3) 0.41093(18) 0.22658(13)
C6 C 0.0532(3) 0.49570(18) 0.14435(13)
C7 C 0.0485(3) 0.46181(18) 0.04052(13)
C8 C 0.4397(3) 0.3853(2) 0.35555(14)
H6 H 0.5875 0.4215 0.3901
C9 C 0.3554(3) 0.46232(19) 0.27896(14)
H7 H 0.4459 0.5528 0.2617
C10 C -0.0466(3) 0.61248(18) 0.18224(13)
C11 C -0.1539(3) 0.68950(18) 0.11312(13)
C12 C -0.1294(3) 0.67382(18) -0.00381(13)
C13 C 0.0441(3) 0.80663(18) -0.02077(13)
C14 C -0.3483(3) 0.67896(19) -0.06027(14)
C15 C -0.0478(3) 0.64598(19) 0.28904(14)
H8 H 0.0254 0.5951 0.3384
C16 C -0.1519(3) 0.75054(19) 0.32441(14)
H9 H -0.1455 0.7741 0.3974
C17 C -0.2663(3) 0.82154(18) 0.25316(14)
C18 C -0.2667(3) 0.79160(18) 0.14710(14)
H10 H -0.3437 0.8406 0.0979
C19 C -0.5348(3) 0.9667(2) 0.22420(15)
H11 H -0.4568 1.0261 0.1721
H12 H -0.6141 1.0260 0.2643
H13 H -0.6435 0.8813 0.1886
O1A O -0.3745(2) 0.83401(14) -0.45275(10)
O2A O 0.3742(2) 0.08167(14) -0.29363(10)
N1A N -0.1864(3) 0.09225(17) 0.02431(13)
N2A N 0.5230(3) 0.31593(19) 0.09499(13)
C1A C -0.5989(3) 0.7900(2) -0.50169(16)
H1A H -0.6188 0.6966 -0.5429
H2A H -0.7035 0.7777 -0.4481
H3A H -0.6295 0.8651 -0.5479
C2A C -0.3067(3) 0.74553(19) -0.38172(13)
C3A C -0.0891(3) 0.79548(19) -0.33317(14)
H4A H 0.0036 0.8838 -0.3527
C4A C -0.0070(3) 0.71735(19) -0.25665(14)
H5A H 0.1429 0.7515 -0.2242
C5A C -0.1417(3) 0.58907(18) -0.22658(13)
C6A C -0.0532(3) 0.50430(18) -0.14435(13)
C7A C -0.0485(3) 0.53819(18) -0.04052(13)
C8A C -0.4397(3) 0.6147(2) -0.35555(14)
H6A H -0.5875 0.5785 -0.3901
C9A C -0.3554(3) 0.53768(19) -0.27896(14)
H7A H -0.4459 0.4472 -0.2617
C10A C 0.0466(3) 0.38752(18) -0.18224(13)
C11A C 0.1539(3) 0.31050(18) -0.11312(13)
C12A C 0.1294(3) 0.32618(18) 0.00381(13)
C13A C -0.0441(3) 0.19337(18) 0.02077(13)
C14A C 0.3483(3) 0.32104(19) 0.06027(14)
C15A C 0.0478(3) 0.35402(19) -0.28904(14)
H8A H -0.0254 0.4049 -0.3384
C16A C 0.1519(3) 0.24946(19) -0.32441(14)
H9A H 0.1455 0.2259 -0.3974
C17A C 0.2663(3) 0.17846(18) -0.25316(14)
C18A C 0.2667(3) 0.20840(18) -0.14710(14)
H10A H 0.3437 0.1594 -0.0979
C19A C 0.5348(3) 0.0333(2) -0.22420(15)
H11A H 0.4568 -0.0261 -0.1721
H12A H 0.6141 -0.0260 -0.2643
H13A H 0.6435 0.1187 -0.1886
loop_
_geom_bond_atom_site_label_1
_geom_bond_atom_site_label_2
_geom_bond_site_symmetry_1
_geom_bond_site_symmetry_2
O1 C1 1_555 1_555
O2 C17 1_555 1_555
N1 C13 1_555 1_555
N2 C14 1_555 1_555
C1 H1 1_555 1_555
H2 C1 1_555 1_555
H3 C1 1_555 1_555
C2 O1 1_555 1_555
C3 C2 1_555 1_555
H4 C3 1_555 1_555
C4 C3 1_555 1_555
H5 C4 1_555 1_555
C5 C4 1_555 1_555
C6 C5 1_555 1_555
C7 C6 1_555 1_555
C8 C2 1_555 1_555
H6 C8 1_555 1_555
C9 C5 1_555 1_555
H7 C9 1_555 1_555
C10 C6 1_555 1_555
C11 C10 1_555 1_555
C12 C11 1_555 1_555
C13 C12 1_555 1_555
C14 C12 1_555 1_555
C15 C10 1_555 1_555
H8 C15 1_555 1_555
C16 C15 1_555 1_555
H9 C16 1_555 1_555
C17 C16 1_555 1_555
C18 C11 1_555 1_555
H10 C18 1_555 1_555
C19 O2 1_555 1_555
H11 C19 1_555 1_555
H12 C19 1_555 1_555
H13 C19 1_555 1_555
O1A C1A 1_555 1_555
O2A C17A 1_555 1_555
N1A C13A 1_555 1_555
N2A C14A 1_555 1_555
C1A H1A 1_555 1_555
H2A C1A 1_555 1_555
H3A C1A 1_555 1_555
C2A O1A 1_555 1_555
C3A C2A 1_555 1_555
H4A C3A 1_555 1_555
C4A C3A 1_555 1_555
H5A C4A 1_555 1_555
C5A C4A 1_555 1_555
C6A C5A 1_555 1_555
C7A C7 1_555 1_555
C8A C2A 1_555 1_555
H6A C8A 1_555 1_555
C9A C5A 1_555 1_555
H7A C9A 1_555 1_555
C10A C6A 1_555 1_555
C11A C10A 1_555 1_555
C12A C7 1_555 1_555
C13A C12A 1_555 1_555
C14A C12A 1_555 1_555
C15A C10A 1_555 1_555
H8A C15A 1_555 1_555
C16A C15A 1_555 1_555
H9A C16A 1_555 1_555
C17A C16A 1_555 1_555
C18A C11A 1_555 1_555
H10A C18A 1_555 1_555
C19A O2A 1_555 1_555
H11A C19A 1_555 1_555
H12A C19A 1_555 1_555
H13A C19A 1_555 1_555
C8 C9 1_555 1_555
C12 C7A 1_555 1_555
C17 C18 1_555 1_555
C6A C7A 1_555 1_555
C8A C9A 1_555 1_555
C11A C12A 1_555 1_555
C17A C18A 1_555 1_555

#END
