
#######################################################################
#
#                 Cambridge Crystallographic Data Centre
#                                CCDC 
#
#######################################################################
#
# If this CIF has been generated from an entry in the Cambridge 
# Structural Database, then it will include bibliographic, chemical, 
# crystal, experimental, refinement or atomic coordinate data resulting 
# from the CCDC's data processing and validation procedures.
#
#######################################################################

data_COGSEY
_chemical_formula_moiety         'C27 H32 O4'
_chemical_name_systematic        
9-(3-furyl)-6-hydroxy-8-methoxy-4,4,6a,10,11b-pentamethyl-4,4a,5,6,6a,11,11a,11b-octahydro-3H-benzo[a]fluoren-3-one
_symmetry_cell_setting           orthorhombic
_symmetry_space_group_name_H-M   'P 21 21 21'
_symmetry_Int_Tables_number      19
_space_group_name_Hall           'P 2ac 2ab'
loop_
_symmetry_equiv_pos_site_id
_symmetry_equiv_pos_as_xyz
1 x,y,z
2 1/2+x,1/2-y,-z
3 -x,1/2+y,1/2-z
4 1/2-x,-y,1/2+z
_cell_length_a                   5.96350(10)
_cell_length_b                   13.7471(3)
_cell_length_c                   28.1129(6)
_cell_angle_alpha                90
_cell_angle_beta                 90
_cell_angle_gamma                90
_cell_volume                     2304.72
_exptl_crystal_colour            colorless
_exptl_crystal_description       prism
_cell_formula_units_Z            4
loop_
_atom_site_label
_atom_site_type_symbol
_atom_site_fract_x
_atom_site_fract_y
_atom_site_fract_z
O1 O 0.7496(3) 0.29925(10) 0.68760(5)
O2 O 0.9847(2) -0.03333(9) 0.80486(4)
H1 H 1.0533 -0.0852 0.8110
O3 O 1.2081(3) -0.17523(10) 0.98041(5)
O4 O 1.3732(5) -0.0160(2) 1.11028(8)
C1 C 0.7027(3) 0.27373(13) 0.81331(7)
H2 H 0.7301 0.3124 0.8407
C2 C 0.7437(3) 0.31309(13) 0.77075(7)
H3 H 0.8027 0.3772 0.7694
C3 C 0.7013(3) 0.26122(13) 0.72565(7)
C4 C 0.5919(3) 0.16017(13) 0.72755(7)
C5 C 0.6688(3) 0.11285(12) 0.77480(6)
H4 H 0.8362 0.1140 0.7728
C6 C 0.6117(3) 0.00417(12) 0.78022(6)
H5 H 0.4508 -0.0031 0.7881
H6 H 0.6397 -0.0298 0.7497
C7 C 0.7547(3) -0.04222(12) 0.81958(6)
H7 H 0.7146 -0.1125 0.8230
C8 C 0.7128(3) 0.01095(12) 0.86686(6)
C9 C 0.7586(3) 0.12123(12) 0.85960(6)
H8 H 0.9150 0.1238 0.8468
C10 C 0.6155(3) 0.17156(13) 0.82072(6)
C11 C 0.7796(3) 0.16118(13) 0.91031(6)
H9 H 0.8700 0.2215 0.9113
H10 H 0.6309 0.1734 0.9248
C12 C 0.8999(3) 0.07668(13) 0.93420(6)
C13 C 1.0222(3) 0.07636(13) 0.97655(6)
C14 C 0.8728(3) -0.00810(13) 0.90798(6)
C15 C 0.9673(3) -0.09525(13) 0.92232(6)
H11 H 0.9450 -0.1532 0.9045
C16 C 1.0965(3) -0.09547(14) 0.96374(6)
C17 C 1.1238(3) -0.01055(14) 0.99098(6)
C18 C 1.0414(4) 0.16752(14) 1.00615(7)
H12 H 1.0278 0.2247 0.9855
H13 H 1.1874 0.1686 1.0222
H14 H 0.9216 0.1685 1.0300
C19 C 0.3659(3) 0.18020(15) 0.83474(7)
H15 H 0.3539 0.1902 0.8692
H16 H 0.2870 0.1203 0.8259
H17 H 0.2984 0.2355 0.8181
C20 C 1.2665(3) -0.01208(15) 1.03429(6)
C21 C 1.1983(5) -0.0258(3) 1.08059(8)
H18 H 1.0490 -0.0401 1.0901
C22 C 1.4912(4) 0.00561(19) 1.03717(8)
H19 H 1.5862 0.0191 1.0108
C23 C 1.5589(3) 0.00115(17) 1.08319(7)
H20 H 1.7080 0.0086 1.0945
C24 C 1.1901(4) -0.26306(15) 0.95352(8)
H21 H 1.0334 -0.2845 0.9530
H22 H 1.2831 -0.3136 0.9682
H23 H 1.2416 -0.2514 0.9209
C25 C 0.3366(3) 0.17450(16) 0.72203(8)
H24 H 0.2866 0.2269 0.7432
H25 H 0.2591 0.1140 0.7304
H26 H 0.3021 0.1917 0.6890
C26 C 0.6779(4) 0.10139(15) 0.68488(7)
H27 H 0.6726 0.1419 0.6562
H28 H 0.5831 0.0439 0.6804
H29 H 0.8328 0.0809 0.6908
C27 C 0.4791(3) -0.01767(13) 0.88557(6)
H30 H 0.4801 -0.0862 0.8951
H31 H 0.3675 -0.0080 0.8604
H32 H 0.4409 0.0230 0.9130
loop_
_geom_bond_atom_site_label_1
_geom_bond_atom_site_label_2
_geom_bond_site_symmetry_1
_geom_bond_site_symmetry_2
O1 C3 1_555 1_555
O2 H1 1_555 1_555
O3 C16 1_555 1_555
O4 C21 1_555 1_555
C1 H2 1_555 1_555
C2 C1 1_555 1_555
H3 C2 1_555 1_555
C3 C2 1_555 1_555
C4 C3 1_555 1_555
C5 C4 1_555 1_555
H4 C5 1_555 1_555
C6 C5 1_555 1_555
H5 C6 1_555 1_555
H6 C6 1_555 1_555
C7 O2 1_555 1_555
H7 C7 1_555 1_555
C8 C7 1_555 1_555
C9 C8 1_555 1_555
H8 C9 1_555 1_555
C10 C1 1_555 1_555
C11 C9 1_555 1_555
H9 C11 1_555 1_555
H10 C11 1_555 1_555
C12 C11 1_555 1_555
C13 C12 1_555 1_555
C14 C8 1_555 1_555
C15 C14 1_555 1_555
H11 C15 1_555 1_555
C16 C15 1_555 1_555
C17 C13 1_555 1_555
C18 C13 1_555 1_555
H12 C18 1_555 1_555
H13 C18 1_555 1_555
H14 C18 1_555 1_555
C19 C10 1_555 1_555
H15 C19 1_555 1_555
H16 C19 1_555 1_555
H17 C19 1_555 1_555
C20 C17 1_555 1_555
C21 C20 1_555 1_555
H18 C21 1_555 1_555
C22 C20 1_555 1_555
H19 C22 1_555 1_555
C23 O4 1_555 1_555
H20 C23 1_555 1_555
C24 O3 1_555 1_555
H21 C24 1_555 1_555
H22 C24 1_555 1_555
H23 C24 1_555 1_555
C25 C4 1_555 1_555
H24 C25 1_555 1_555
H25 C25 1_555 1_555
H26 C25 1_555 1_555
C26 C4 1_555 1_555
H27 C26 1_555 1_555
H28 C26 1_555 1_555
H29 C26 1_555 1_555
C27 C8 1_555 1_555
H30 C27 1_555 1_555
H31 C27 1_555 1_555
H32 C27 1_555 1_555
C5 C10 1_555 1_555
C6 C7 1_555 1_555
C9 C10 1_555 1_555
C12 C14 1_555 1_555
C16 C17 1_555 1_555
C22 C23 1_555 1_555

#END
