
#######################################################################
#
#                 Cambridge Crystallographic Data Centre
#                                CCDC 
#
#######################################################################
#
# If this CIF has been generated from an entry in the Cambridge 
# Structural Database, then it will include bibliographic, chemical, 
# crystal, experimental, refinement or atomic coordinate data resulting 
# from the CCDC's data processing and validation procedures.
#
#######################################################################

data_COGWAW
_chemical_formula_moiety         'C23 H24 O2'
_chemical_name_systematic        
4-n-Butyl-1,7-diphenyl-3-hydroxy-hepta-1,3,6-trien-5-one
_symmetry_cell_setting           orthorhombic
_symmetry_space_group_name_H-M   'P c a 21'
_symmetry_Int_Tables_number      29
_space_group_name_Hall           'P 2c -2ac'
loop_
_symmetry_equiv_pos_site_id
_symmetry_equiv_pos_as_xyz
1 x,y,z
2 1/2-x,y,1/2+z
3 1/2+x,-y,z
4 -x,-y,1/2+z
_cell_length_a                   11.676(2)
_cell_length_b                   21.399(3)
_cell_length_c                   7.378(1)
_cell_angle_alpha                90
_cell_angle_beta                 90
_cell_angle_gamma                90
_cell_volume                     1843.43
_exptl_crystal_colour            yellow
_chemical_melting_point          135-140deg.C
_cell_formula_units_Z            4
loop_
_atom_site_label
_atom_site_type_symbol
_atom_site_fract_x
_atom_site_fract_y
_atom_site_fract_z
O1 O 0.680(1) 0.3088 0.4987(9)
O2 O 0.6839(1) 0.1948 0.4899(9)
C1 C 0.9369(2) 0.6073(1) 0.5132(10)
C2 C 0.9944(2) 0.5587(1) 0.5984(10)
C3 C 0.9508(1) 0.4988(1) 0.5950(9)
C4 C 0.8466(1) 0.4859 0.5066(10)
C5 C 0.7890(2) 0.5352(1) 0.4239(9)
C6 C 0.8339(2) 0.5955(1) 0.4265(10)
C7 C 0.7970(1) 0.4229 0.4988(10)
C8 C 0.8414(1) 0.3707(1) 0.5691(10)
C9 C 0.7851(1) 0.3095 0.5472(10)
C10 C 0.8483(1) 0.2528(1) 0.5745(10)
C11 C 0.7923(2) 0.1961(1) 0.5397(9)
C12 C 0.8490(1) 0.1351(1) 0.5500(10)
C13 C 0.8028(1) 0.0836 0.4778(10)
C14 C 0.8515(1) 0.0206 0.4788(10)
C15 C 0.7925(1) -0.0277(1) 0.3918(9)
C16 C 0.8357(2) -0.0881(1) 0.3882(10)
C17 C 0.9385(2) -0.1019(1) 0.4736(10)
C18 C 0.9973(2) -0.0547(1) 0.5628(10)
C19 C 0.9557(1) 0.0058(1) 0.5649(9)
C20 C 0.9715(1) 0.2563(1) 0.6352(10)
C21 C 1.0572(1) 0.2729(1) 0.4847(10)
C22 C 1.0798(2) 0.2203(1) 0.3525(10)
C23 C 1.1757(2) 0.2368(1) 0.2211(10)
H1 H 0.967(1) 0.652(1) 0.516(3)
H2 H 1.062(2) 0.570(1) 0.661(3)
H3 H 0.992(1) 0.468 0.657(3)
H4 H 0.715(2) 0.527 0.358(3)
H5 H 0.794(1) 0.631 0.362(4)
H6 H 0.726(1) 0.419 0.439(3)
H7 H 0.916(2) 0.369(1) 0.634(4)
H8 H 0.927(2) 0.135(1) 0.607(3)
H9 H 0.730(1) 0.090 0.424(3)
H10 H 0.722(2) -0.019 0.333(3)
H11 H 0.792(1) -0.121(1) 0.328(3)
H12 H 0.969(2) -0.145(1) 0.471(4)
H13 H 1.068(2) -0.068(1) 0.622(4)
H14 H 0.997(2) 0.038(1) 0.626(3)
H15 H 0.993(2) 0.220(1) 0.687(4)
H16 H 0.976(2) 0.287(1) 0.732(3)
H17 H 1.132(2) 0.284 0.540(3)
H18 H 1.033(2) 0.308(1) 0.414(4)
H19 H 1.009(2) 0.215(1) 0.279(4)
H20 H 1.1011(2) 0.176(1) 0.420(4)
H21 H 1.192(2) 0.206(1) 0.132(4)
H22 H 1.251(2) 0.249 0.294(4)
H23 H 1.158(2) 0.271(4) 0.153(5)
H24 H 0.666 0.248 0.489
loop_
_geom_bond_atom_site_label_1
_geom_bond_atom_site_label_2
_geom_bond_site_symmetry_1
_geom_bond_site_symmetry_2
O1 C9 1_555 1_555
O2 C11 1_555 1_555
C1 C2 1_555 1_555
C2 C3 1_555 1_555
C3 C4 1_555 1_555
C4 C5 1_555 1_555
C5 C6 1_555 1_555
C6 C1 1_555 1_555
C7 C4 1_555 1_555
C8 C7 1_555 1_555
C9 C8 1_555 1_555
C10 C9 1_555 1_555
C11 C10 1_555 1_555
C12 C11 1_555 1_555
C13 C12 1_555 1_555
C14 C13 1_555 1_555
C15 C14 1_555 1_555
C16 C15 1_555 1_555
C17 C16 1_555 1_555
C18 C17 1_555 1_555
C19 C14 1_555 1_555
C20 C10 1_555 1_555
C21 C20 1_555 1_555
C22 C21 1_555 1_555
C23 C22 1_555 1_555
H1 C1 1_555 1_555
H2 C2 1_555 1_555
H3 C3 1_555 1_555
H4 C5 1_555 1_555
H5 C6 1_555 1_555
H6 C7 1_555 1_555
H7 C8 1_555 1_555
H8 C12 1_555 1_555
H9 C13 1_555 1_555
H10 C15 1_555 1_555
H11 C16 1_555 1_555
H12 C17 1_555 1_555
H13 C18 1_555 1_555
H14 C19 1_555 1_555
H15 C20 1_555 1_555
H16 C20 1_555 1_555
H17 C21 1_555 1_555
H18 C21 1_555 1_555
H19 C22 1_555 1_555
H20 C22 1_555 1_555
H21 C23 1_555 1_555
H22 C23 1_555 1_555
H23 C23 1_555 1_555
H24 O2 1_555 1_555
C18 C19 1_555 1_555

#END
