
#######################################################################
#
#                 Cambridge Crystallographic Data Centre
#                                CCDC 
#
#######################################################################
#
# If this CIF has been generated from an entry in the Cambridge 
# Structural Database, then it will include bibliographic, chemical, 
# crystal, experimental, refinement or atomic coordinate data resulting 
# from the CCDC's data processing and validation procedures.
#
#######################################################################

data_COGYAA
_chemical_formula_moiety         'C28 H22 Cl2'
_chemical_name_systematic        
1,3-bis(4-chlorobenzyl)-2-(1-phenylvinyl)benzene
_symmetry_cell_setting           triclinic
_symmetry_space_group_name_H-M   'P -1'
_symmetry_Int_Tables_number      2
_space_group_name_Hall           '-P 1'
loop_
_symmetry_equiv_pos_site_id
_symmetry_equiv_pos_as_xyz
1 x,y,z
2 -x,-y,-z
_cell_length_a                   7.6452(11)
_cell_length_b                   11.1155(17)
_cell_length_c                   13.837(2)
_cell_angle_alpha                90.429(13)
_cell_angle_beta                 102.674(13)
_cell_angle_gamma                107.792(13)
_cell_volume                     1088.83
_exptl_crystal_colour            'light colorless'
_exptl_crystal_description       block
_cell_formula_units_Z            2
loop_
_atom_site_label
_atom_site_type_symbol
_atom_site_fract_x
_atom_site_fract_y
_atom_site_fract_z
Cl1 Cl 0.46788(14) 0.76670(9) 0.85443(8)
Cl2 Cl 2.07441(18) 0.30311(11) 1.36609(10)
C1 C 1.0268(5) 0.8564(3) 0.9162(3)
H1 H 1.1207 0.8796 0.8808
C2 C 0.8409(5) 0.8325(3) 0.8664(3)
H2 H 0.8099 0.8389 0.7982
C3 C 0.7031(5) 0.7995(3) 0.9181(3)
C4 C 0.7459(5) 0.7889(3) 1.0180(3)
H3 H 0.6506 0.7654 1.0525
C5 C 0.9320(5) 0.8133(3) 1.0672(3)
H4 H 0.9612 0.8072 1.1355
C6 C 1.0770(5) 0.8467(3) 1.0175(3)
C7 C 1.2786(5) 0.8701(3) 1.0728(3)
H5 H 1.3096 0.9334 1.1277
H6 H 1.3612 0.9037 1.0286
C8 C 1.3146(4) 0.7507(3) 1.1126(2)
C9 C 1.2330(5) 0.6366(3) 1.0548(3)
H7 H 1.1537 0.6339 0.9928
C10 C 1.2666(5) 0.5278(3) 1.0870(3)
H8 H 1.2120 0.4524 1.0467
C11 C 1.3816(5) 0.5307(3) 1.1794(3)
H9 H 1.4024 0.4564 1.2016
C12 C 1.4674(5) 0.6434(3) 1.2400(3)
C13 C 1.4338(4) 0.7543(3) 1.2064(3)
C14 C 1.5848(5) 0.6386(3) 1.3430(3)
H10 H 1.6653 0.7239 1.3677
H11 H 1.5003 0.6097 1.3871
C15 C 1.7060(5) 0.5544(3) 1.3476(3)
C16 C 1.8274(5) 0.5652(3) 1.2852(3)
H12 H 1.8327 0.6252 1.2385
C17 C 1.9413(5) 0.4887(4) 1.2907(3)
H13 H 2.0230 0.4974 1.2485
C18 C 1.9324(5) 0.4004(3) 1.3587(3)
C19 C 1.8136(6) 0.3867(3) 1.4205(3)
H14 H 1.8084 0.3265 1.4670
C20 C 1.7011(5) 0.4634(3) 1.4133(3)
H15 H 1.6181 0.4527 1.4550
C21 C 1.5294(5) 0.8790(3) 1.2679(2)
C22 C 1.4195(4) 0.9274(3) 1.3260(2)
C23 C 1.4731(5) 1.0528(3) 1.3602(3)
H16 H 1.5814 1.1091 1.3467
C24 C 1.3704(6) 1.0972(3) 1.4137(3)
H17 H 1.4098 1.1824 1.4363
C25 C 1.2105(6) 1.0157(4) 1.4338(3)
H18 H 1.1414 1.0451 1.4704
C26 C 1.1522(5) 0.8902(4) 1.3997(3)
H19 H 1.0429 0.8351 1.4131
C27 C 1.2552(5) 0.8443(3) 1.3451(3)
H20 H 1.2145 0.7593 1.3218
C28 C 1.7058(5) 0.9404(3) 1.2686(3)
H21 H 1.7668 1.0174 1.3064
H22 H 1.7701 0.9070 1.2313
loop_
_geom_bond_atom_site_label_1
_geom_bond_atom_site_label_2
_geom_bond_site_symmetry_1
_geom_bond_site_symmetry_2
Cl1 C3 1_555 1_555
Cl2 C18 1_555 1_555
C1 H1 1_555 1_555
C2 C1 1_555 1_555
H2 C2 1_555 1_555
C3 C2 1_555 1_555
C4 C3 1_555 1_555
H3 C4 1_555 1_555
C5 C4 1_555 1_555
H4 C5 1_555 1_555
C6 C1 1_555 1_555
C7 C6 1_555 1_555
H5 C7 1_555 1_555
H6 C7 1_555 1_555
C8 C7 1_555 1_555
C9 C8 1_555 1_555
H7 C9 1_555 1_555
C10 C9 1_555 1_555
H8 C10 1_555 1_555
C11 C10 1_555 1_555
H9 C11 1_555 1_555
C12 C11 1_555 1_555
C13 C8 1_555 1_555
C14 C12 1_555 1_555
H10 C14 1_555 1_555
H11 C14 1_555 1_555
C15 C14 1_555 1_555
C16 C15 1_555 1_555
H12 C16 1_555 1_555
C17 C16 1_555 1_555
H13 C17 1_555 1_555
C18 C17 1_555 1_555
C19 C18 1_555 1_555
H14 C19 1_555 1_555
C20 C15 1_555 1_555
H15 C20 1_555 1_555
C21 C13 1_555 1_555
C22 C21 1_555 1_555
C23 C22 1_555 1_555
H16 C23 1_555 1_555
C24 C23 1_555 1_555
H17 C24 1_555 1_555
C25 C24 1_555 1_555
H18 C25 1_555 1_555
C26 C25 1_555 1_555
H19 C26 1_555 1_555
C27 C22 1_555 1_555
H20 C27 1_555 1_555
C28 C21 1_555 1_555
H21 C28 1_555 1_555
H22 C28 1_555 1_555
C5 C6 1_555 1_555
C12 C13 1_555 1_555
C19 C20 1_555 1_555
C26 C27 1_555 1_555

#END
