
#######################################################################
#
#                 Cambridge Crystallographic Data Centre
#                                CCDC 
#
#######################################################################
#
# If this CIF has been generated from an entry in the Cambridge 
# Structural Database, then it will include bibliographic, chemical, 
# crystal, experimental, refinement or atomic coordinate data resulting 
# from the CCDC's data processing and validation procedures.
#
#######################################################################

data_COJHEP
_chemical_formula_moiety         'C23 H17 N1 O3'
_chemical_name_systematic        N-(Dibenzosuberan-1-yloxy)phthalamide
_symmetry_cell_setting           orthorhombic
_symmetry_space_group_name_H-M   'P n a 21'
_symmetry_Int_Tables_number      33
_space_group_name_Hall           'P 2c -2n'
loop_
_symmetry_equiv_pos_site_id
_symmetry_equiv_pos_as_xyz
1 x,y,z
2 -x,-y,1/2+z
3 1/2+x,1/2-y,z
4 1/2-x,1/2+y,1/2+z
_cell_length_a                   12.3497(10)
_cell_length_b                   25.3030(19)
_cell_length_c                   5.5954(5)
_cell_angle_alpha                90
_cell_angle_beta                 90
_cell_angle_gamma                90
_cell_volume                     1748.48
_chemical_melting_point          196-197deg.C
_cell_formula_units_Z            4
loop_
_atom_site_label
_atom_site_type_symbol
_atom_site_fract_x
_atom_site_fract_y
_atom_site_fract_z
O1 O 0.34995(14) 0.41244(7) 0.5940(4)
N1 N 0.33980(17) 0.46621(9) 0.6365(5)
C1 C 0.2783(2) 0.38308(10) 0.7624(5)
H1 H 0.2896 0.3988 0.9205
C2 C 0.1616(2) 0.39310(10) 0.6977(6)
C3 C 0.1025(2) 0.42726(11) 0.8415(6)
H2 H 0.1334 0.4404 0.9809
C4 C -0.0024(2) 0.44205(12) 0.7796(7)
H3 H -0.0414 0.4649 0.8772
C5 C -0.0478(2) 0.42272(13) 0.5739(7)
H4 H -0.1175 0.4328 0.5304
C6 C 0.0098(2) 0.38839(12) 0.4319(6)
H5 H -0.0225 0.3749 0.2947
C7 C 0.1151(2) 0.37336(11) 0.4885(6)
C8 C 0.1795(3) 0.33783(12) 0.3298(6)
H6 H 0.2458 0.3558 0.2848
H7 H 0.1385 0.3313 0.1850
C9 C 0.2081(3) 0.28537(12) 0.4433(7)
H8 H 0.1428 0.2710 0.5145
H9 H 0.2296 0.2614 0.3166
C10 C 0.2955(2) 0.28475(11) 0.6309(7)
C11 C 0.3498(3) 0.23693(12) 0.6674(8)
H10 H 0.3303 0.2079 0.5749
C12 C 0.4300(3) 0.23091(13) 0.8322(8)
H11 H 0.4632 0.1982 0.8527
C13 C 0.4615(3) 0.27352(14) 0.9682(9)
H12 H 0.5170 0.2702 1.0794
C14 C 0.4091(3) 0.32145(12) 0.9368(8)
H13 H 0.4304 0.3502 1.0291
C15 C 0.3262(2) 0.32799(11) 0.7725(6)
C16 C 0.2857(2) 0.50075(12) 0.4837(7)
O2 O 0.23915(18) 0.48925(8) 0.3037(4)
C17 C 0.3024(2) 0.55335(10) 0.6020(6)
C18 C 0.3641(2) 0.54681(11) 0.8027(6)
C19 C 0.3935(2) 0.49033(11) 0.8258(6)
O3 O 0.44907(16) 0.46760(8) 0.9697(5)
C20 C 0.2663(2) 0.60245(12) 0.5305(7)
H14 H 0.2242 0.6067 0.3940
C21 C 0.2957(3) 0.64519(13) 0.6717(7)
H15 H 0.2731 0.6789 0.6286
C22 C 0.3572(3) 0.63873(13) 0.8730(7)
H16 H 0.3750 0.6682 0.9642
C23 C 0.3935(2) 0.58951(11) 0.9442(7)
H17 H 0.4357 0.5852 1.0806
loop_
_geom_bond_atom_site_label_1
_geom_bond_atom_site_label_2
_geom_bond_site_symmetry_1
_geom_bond_site_symmetry_2
O1 N1 1_555 1_555
N1 C16 1_555 1_555
C1 O1 1_555 1_555
H1 C1 1_555 1_555
C2 C1 1_555 1_555
C3 C2 1_555 1_555
H2 C3 1_555 1_555
C4 C3 1_555 1_555
H3 C4 1_555 1_555
C5 C4 1_555 1_555
H4 C5 1_555 1_555
C6 C5 1_555 1_555
H5 C6 1_555 1_555
C7 C2 1_555 1_555
C8 C7 1_555 1_555
H6 C8 1_555 1_555
H7 C8 1_555 1_555
C9 C8 1_555 1_555
H8 C9 1_555 1_555
H9 C9 1_555 1_555
C10 C9 1_555 1_555
C11 C10 1_555 1_555
H10 C11 1_555 1_555
C12 C11 1_555 1_555
H11 C12 1_555 1_555
C13 C12 1_555 1_555
H12 C13 1_555 1_555
C14 C13 1_555 1_555
H13 C14 1_555 1_555
C15 C1 1_555 1_555
C16 O2 1_555 1_555
C17 C16 1_555 1_555
C18 C17 1_555 1_555
C19 N1 1_555 1_555
O3 C19 1_555 1_555
C20 C17 1_555 1_555
H14 C20 1_555 1_555
C21 C20 1_555 1_555
H15 C21 1_555 1_555
C22 C21 1_555 1_555
H16 C22 1_555 1_555
C23 C18 1_555 1_555
H17 C23 1_555 1_555
C6 C7 1_555 1_555
C10 C15 1_555 1_555
C14 C15 1_555 1_555
C18 C19 1_555 1_555
C22 C23 1_555 1_555

#END
