
#######################################################################
#
#                 Cambridge Crystallographic Data Centre
#                                CCDC 
#
#######################################################################
#
# If this CIF has been generated from an entry in the Cambridge 
# Structural Database, then it will include bibliographic, chemical, 
# crystal, experimental, refinement or atomic coordinate data resulting 
# from the CCDC's data processing and validation procedures.
#
#######################################################################

data_COJJUH
_chemical_formula_moiety         'C26 H21 N3 O2 S1'
_chemical_name_systematic        
1-((4-Methylphenyl)sulfonyl)-2-phenyl-4-vinyl-1,4-dihydro-3,3(2H)-quinolinedicarbonitrile
_symmetry_cell_setting           orthorhombic
_symmetry_space_group_name_H-M   'P 21 21 21'
_symmetry_Int_Tables_number      19
_space_group_name_Hall           'P 2ac 2ab'
loop_
_symmetry_equiv_pos_site_id
_symmetry_equiv_pos_as_xyz
1 x,y,z
2 1/2-x,-y,1/2+z
3 -x,1/2+y,1/2-z
4 1/2+x,1/2-y,-z
_cell_length_a                   10.2147(9)
_cell_length_b                   13.9642(12)
_cell_length_c                   15.8484(14)
_cell_angle_alpha                90
_cell_angle_beta                 90
_cell_angle_gamma                90
_cell_volume                     2260.62
_exptl_crystal_colour            colorless
_exptl_crystal_description       'Triangular plate'
_cell_formula_units_Z            4
loop_
_atom_site_label
_atom_site_type_symbol
_atom_site_fract_x
_atom_site_fract_y
_atom_site_fract_z
S1 S 0.19018(5) 0.66109(4) 0.17173(3)
O1 O 0.25630(14) 0.59704(10) 0.11488(8)
O2 O 0.09669(14) 0.72910(11) 0.14144(9)
N1 N 0.30824(16) 0.72327(11) 0.21962(10)
N2 N 0.6308(2) 0.54170(15) 0.37065(12)
N3 N 0.6076(2) 0.84690(15) 0.34459(12)
C1 C 0.43359(18) 0.67358(14) 0.23262(11)
H1 H 0.4211(19) 0.6044(15) 0.2247(12)
C2 C 0.48015(18) 0.68529(14) 0.32700(12)
C3 C 0.35841(19) 0.68507(14) 0.38755(12)
H2 H 0.305(2) 0.6299(15) 0.3714(13)
C4 C 0.28296(18) 0.77426(14) 0.36521(12)
C5 C 0.26540(19) 0.79424(14) 0.27991(12)
C6 C 0.2060(2) 0.87814(14) 0.25307(13)
H3 H 0.194(2) 0.8873(16) 0.1927(15)
C7 C 0.1593(2) 0.94177(15) 0.31286(14)
H4 H 0.118(2) 1.0002(18) 0.2960(15)
C8 C 0.1735(2) 0.92271(15) 0.39836(14)
H5 H 0.137(2) 0.9642(16) 0.4389(14)
C9 C 0.2364(2) 0.83933(16) 0.42475(12)
H6 H 0.244(2) 0.8246(15) 0.4883(14)
C10 C 0.53695(18) 0.70631(14) 0.16985(12)
C11 C 0.5222(2) 0.79050(15) 0.12376(13)
H7 H 0.446(2) 0.8290(17) 0.1322(15)
C12 C 0.6188(2) 0.81809(16) 0.06708(13)
H8 H 0.609(2) 0.8721(16) 0.0423(13)
C13 C 0.7313(2) 0.76481(16) 0.05782(13)
H9 H 0.794(2) 0.7836(16) 0.0203(15)
C14 C 0.7475(2) 0.68156(16) 0.10451(13)
H10 H 0.824(2) 0.6519(16) 0.0987(15)
C15 C 0.6500(2) 0.65180(16) 0.15972(12)
H11 H 0.662(3) 0.589(2) 0.1874(18)
C16 C 0.5674(2) 0.60414(17) 0.34987(12)
C17 C 0.55382(19) 0.77629(16) 0.33712(12)
C18 C 0.3987(2) 0.67820(16) 0.47891(13)
H12 H 0.467(2) 0.7222(16) 0.4937(15)
C19 C 0.3505(2) 0.6137(2) 0.53086(15)
H13 H 0.376(2) 0.6094(18) 0.5852(16)
H14 H 0.282(3) 0.5720(19) 0.5118(18)
C20 C 0.11684(19) 0.59449(14) 0.25284(12)
C21 C 0.1577(2) 0.50108(15) 0.26816(13)
H15 H 0.221(2) 0.4719(15) 0.2324(14)
C22 C 0.1055(2) 0.45235(15) 0.33689(13)
H16 H 0.132(2) 0.3848(15) 0.3454(12)
C23 C 0.0154(2) 0.49605(15) 0.39076(13)
C24 C -0.0247(2) 0.58985(16) 0.37310(13)
H17 H -0.089(2) 0.6199(16) 0.4048(14)
C25 C 0.0245(2) 0.63890(15) 0.30360(13)
H18 H -0.008(2) 0.6994(16) 0.2917(13)
C26 C -0.0363(3) 0.4441(2) 0.46700(16)
H19 H -0.043(2) 0.377(2) 0.4578(16)
H20 H -0.118(3) 0.472(2) 0.4884(19)
H21 H 0.012(4) 0.459(2) 0.514(2)
loop_
_geom_bond_atom_site_label_1
_geom_bond_atom_site_label_2
_geom_bond_site_symmetry_1
_geom_bond_site_symmetry_2
S1 O1 1_555 1_555
O2 S1 1_555 1_555
N1 S1 1_555 1_555
N2 C16 1_555 1_555
N3 C17 1_555 1_555
C1 N1 1_555 1_555
H1 C1 1_555 1_555
C2 C1 1_555 1_555
C3 C2 1_555 1_555
H2 C3 1_555 1_555
C4 C3 1_555 1_555
C5 N1 1_555 1_555
C6 C5 1_555 1_555
H3 C6 1_555 1_555
C7 C6 1_555 1_555
H4 C7 1_555 1_555
C8 C7 1_555 1_555
H5 C8 1_555 1_555
C9 C4 1_555 1_555
H6 C9 1_555 1_555
C10 C1 1_555 1_555
C11 C10 1_555 1_555
H7 C11 1_555 1_555
C12 C11 1_555 1_555
H8 C12 1_555 1_555
C13 C12 1_555 1_555
H9 C13 1_555 1_555
C14 C13 1_555 1_555
H10 C14 1_555 1_555
C15 C10 1_555 1_555
H11 C15 1_555 1_555
C16 C2 1_555 1_555
C17 C2 1_555 1_555
C18 C3 1_555 1_555
H12 C18 1_555 1_555
C19 C18 1_555 1_555
H13 C19 1_555 1_555
H14 C19 1_555 1_555
C20 S1 1_555 1_555
C21 C20 1_555 1_555
H15 C21 1_555 1_555
C22 C21 1_555 1_555
H16 C22 1_555 1_555
C23 C22 1_555 1_555
C24 C23 1_555 1_555
H17 C24 1_555 1_555
C25 C20 1_555 1_555
H18 C25 1_555 1_555
C26 C23 1_555 1_555
H19 C26 1_555 1_555
H20 C26 1_555 1_555
H21 C26 1_555 1_555
C4 C5 1_555 1_555
C8 C9 1_555 1_555
C14 C15 1_555 1_555
C24 C25 1_555 1_555

#END
