
#######################################################################
#
#                 Cambridge Crystallographic Data Centre
#                                CCDC 
#
#######################################################################
#
# If this CIF has been generated from an entry in the Cambridge 
# Structural Database, then it will include bibliographic, chemical, 
# crystal, experimental, refinement or atomic coordinate data resulting 
# from the CCDC's data processing and validation procedures.
#
#######################################################################

data_COJRUQ
_chemical_formula_moiety         'C17 H17 N1 O3'
_chemical_name_systematic        
3-anilino-3-methoxy-1-(4-methoxyphenyl)prop-2-en-1-one
_symmetry_cell_setting           triclinic
_symmetry_space_group_name_H-M   'P -1'
_symmetry_Int_Tables_number      2
_space_group_name_Hall           '-P 1'
loop_
_symmetry_equiv_pos_site_id
_symmetry_equiv_pos_as_xyz
1 x,y,z
2 -x,-y,-z
_cell_length_a                   8.7089(6)
_cell_length_b                   9.7183(6)
_cell_length_c                   9.9698(6)
_cell_angle_alpha                108.5720(10)
_cell_angle_beta                 105.2300(10)
_cell_angle_gamma                107.0340(10)
_cell_volume                     703.307
_exptl_crystal_colour            colorless
_cell_formula_units_Z            2
loop_
_atom_site_label
_atom_site_type_symbol
_atom_site_fract_x
_atom_site_fract_y
_atom_site_fract_z
C1 C 0.24874(15) 0.23025(13) 0.36475(12)
C2 C 0.24463(15) 0.37765(13) 0.43584(13)
H1 H 0.3433 0.4607 0.5234
C3 C 0.09775(16) 0.40329(14) 0.37949(14)
H2 H 0.0958 0.5037 0.4287
C4 C -0.04648(16) 0.28306(15) 0.25159(14)
H3 H -0.1473 0.3007 0.2127
C5 C -0.04249(16) 0.13660(15) 0.18068(14)
H4 H -0.1410 0.0543 0.0925
C6 C 0.10346(15) 0.10876(14) 0.23683(13)
H5 H 0.1042 0.0076 0.1884
C7 C 0.48179(15) 0.12773(13) 0.36985(12)
C8 C 0.64061(15) 0.13778(13) 0.45750(12)
H6 H 0.6952 0.0781 0.4087
C9 C 0.72400(15) 0.23523(13) 0.61870(13)
C10 C 0.90009(14) 0.24852(12) 0.70621(12)
C11 C 1.00883(15) 0.20255(13) 0.63718(13)
H7 H 0.9693 0.1561 0.5282
C12 C 1.17267(15) 0.22401(13) 0.72565(13)
H8 H 1.2451 0.1925 0.6773
C13 C 1.23261(14) 0.29192(13) 0.88626(13)
C14 C 1.12655(15) 0.33808(13) 0.95737(13)
H9 H 1.1659 0.3838 1.0663
C15 C 0.96257(15) 0.31621(13) 0.86657(13)
H10 H 0.8905 0.3483 0.9151
C16 C 0.46495(16) -0.06977(14) 0.14490(13)
H11 H 0.5840 -0.0090 0.1582
H12 H 0.3905 -0.1297 0.0349
H13 H 0.4665 -0.1439 0.1922
C17 C 1.46556(16) 0.38580(15) 1.12791(13)
H14 H 1.4602 0.4900 1.1615
H15 H 1.5872 0.4000 1.1693
H16 H 1.3964 0.3199 1.1656
N1 N 0.40209(13) 0.21315(11) 0.43335(11)
H17 H 0.4537 0.2673 0.5340
O1 O 0.39700(10) 0.03829(9) 0.21778(9)
O2 O 0.65657(11) 0.31274(9) 0.69304(9)
O3 O 1.39669(10) 0.30907(10) 0.96331(9)
loop_
_geom_bond_atom_site_label_1
_geom_bond_atom_site_label_2
_geom_bond_site_symmetry_1
_geom_bond_site_symmetry_2
C1 C2 1_555 1_555
C2 H1 1_555 1_555
C3 C2 1_555 1_555
H2 C3 1_555 1_555
C4 C3 1_555 1_555
H3 C4 1_555 1_555
C5 C4 1_555 1_555
H4 C5 1_555 1_555
C6 C1 1_555 1_555
H5 C6 1_555 1_555
C7 C8 1_555 1_555
C8 H6 1_555 1_555
C9 C8 1_555 1_555
C10 C9 1_555 1_555
C11 C10 1_555 1_555
H7 C11 1_555 1_555
C12 C11 1_555 1_555
H8 C12 1_555 1_555
C13 C12 1_555 1_555
C14 C13 1_555 1_555
H9 C14 1_555 1_555
C15 C10 1_555 1_555
H10 C15 1_555 1_555
C16 H11 1_555 1_555
H12 C16 1_555 1_555
H13 C16 1_555 1_555
C17 H14 1_555 1_555
H15 C17 1_555 1_555
H16 C17 1_555 1_555
N1 C1 1_555 1_555
H17 N1 1_555 1_555
O1 C7 1_555 1_555
O2 C9 1_555 1_555
O3 C13 1_555 1_555
C5 C6 1_555 1_555
C7 N1 1_555 1_555
C14 C15 1_555 1_555
C16 O1 1_555 1_555
C17 O3 1_555 1_555

#END
