
#######################################################################
#
#                 Cambridge Crystallographic Data Centre
#                                CCDC 
#
#######################################################################
#
# If this CIF has been generated from an entry in the Cambridge 
# Structural Database, then it will include bibliographic, chemical, 
# crystal, experimental, refinement or atomic coordinate data resulting 
# from the CCDC's data processing and validation procedures.
#
#######################################################################

data_COJROK
_chemical_formula_moiety         'C16 H14 F1 N1 O2'
_chemical_name_systematic        
3-((4-fluorophenyl)amino)-3-methoxy-1-phenylprop-2-en-1-one
_symmetry_cell_setting           monoclinic
_symmetry_space_group_name_H-M   'P 21/n'
_symmetry_Int_Tables_number      14
_space_group_name_Hall           '-P 2yn'
loop_
_symmetry_equiv_pos_site_id
_symmetry_equiv_pos_as_xyz
1 x,y,z
2 1/2-x,1/2+y,1/2-z
3 -x,-y,-z
4 1/2+x,1/2-y,1/2+z
_cell_length_a                   7.1990(5)
_cell_length_b                   6.7477(5)
_cell_length_c                   27.497(2)
_cell_angle_alpha                90
_cell_angle_beta                 94.186(2)
_cell_angle_gamma                90
_cell_volume                     1332.15
_exptl_crystal_colour            colorless
_cell_formula_units_Z            4
loop_
_atom_site_label
_atom_site_type_symbol
_atom_site_fract_x
_atom_site_fract_y
_atom_site_fract_z
F1 F 0.53285(18) 0.26320(18) 0.00762(4)
O1 O 0.16074(18) 0.22531(19) 0.20320(5)
O2 O 0.66097(19) 0.24921(19) 0.29154(5)
N1 N 0.4729(2) 0.2378(2) 0.20679(6)
H1 H 0.5804 0.2399 0.2242
C1 C 0.5145(3) 0.2582(3) 0.05659(7)
C2 C 0.6137(3) 0.3942(3) 0.08582(7)
H2 H 0.6921 0.4893 0.0722
C3 C 0.5953(3) 0.3878(3) 0.13573(7)
H3 H 0.6607 0.4802 0.1567
C4 C 0.4808(3) 0.2457(3) 0.15513(7)
C5 C 0.3193(3) 0.2277(3) 0.23181(7)
C6 C 0.3320(3) 0.2232(3) 0.28237(7)
H4 H 0.2213 0.2117 0.2990
C7 C 0.5057(3) 0.2354(3) 0.30993(7)
C8 C 0.5052(3) 0.2398(3) 0.36452(7)
C9 C 0.3796(3) 0.1280(3) 0.38942(7)
H5 H 0.2912 0.0462 0.3717
C10 C 0.3830(3) 0.1355(3) 0.43996(7)
H6 H 0.2984 0.0574 0.4567
C11 C 0.5096(3) 0.2566(3) 0.46578(7)
H7 H 0.5109 0.2633 0.5003
C12 C -0.0130(3) 0.2263(3) 0.22639(7)
H8 H -0.0171 0.1120 0.2483
H9 H -0.1171 0.2187 0.2014
H10 H -0.0226 0.3488 0.2452
C13 C 0.6347(3) 0.3684(3) 0.44140(7)
H11 H 0.7211 0.4522 0.4592
C14 C 0.6342(3) 0.3585(3) 0.39113(7)
H12 H 0.7223 0.4330 0.3747
C15 C 0.3840(3) 0.1105(3) 0.12465(7)
H13 H 0.3071 0.0133 0.1381
C16 C 0.3996(3) 0.1172(3) 0.07477(7)
H14 H 0.3327 0.0268 0.0536
loop_
_geom_bond_atom_site_label_1
_geom_bond_atom_site_label_2
_geom_bond_site_symmetry_1
_geom_bond_site_symmetry_2
F1 C1 1_555 1_555
O1 C5 1_555 1_555
O2 C7 1_555 1_555
N1 H1 1_555 1_555
C1 C2 1_555 1_555
C2 H2 1_555 1_555
C3 C2 1_555 1_555
H3 C3 1_555 1_555
C4 N1 1_555 1_555
C5 N1 1_555 1_555
C6 C5 1_555 1_555
H4 C6 1_555 1_555
C7 C6 1_555 1_555
C8 C7 1_555 1_555
C9 C8 1_555 1_555
H5 C9 1_555 1_555
C10 C9 1_555 1_555
H6 C10 1_555 1_555
C11 C10 1_555 1_555
H7 C11 1_555 1_555
C12 O1 1_555 1_555
H8 C12 1_555 1_555
H9 C12 1_555 1_555
H10 C12 1_555 1_555
C13 C11 1_555 1_555
H11 C13 1_555 1_555
C14 C8 1_555 1_555
H12 C14 1_555 1_555
C15 C4 1_555 1_555
H13 C15 1_555 1_555
C16 C1 1_555 1_555
H14 C16 1_555 1_555
C3 C4 1_555 1_555
C13 C14 1_555 1_555
C15 C16 1_555 1_555

#END
