
#######################################################################
#
#                 Cambridge Crystallographic Data Centre
#                                CCDC 
#
#######################################################################
#
# If this CIF has been generated from an entry in the Cambridge 
# Structural Database, then it will include bibliographic, chemical, 
# crystal, experimental, refinement or atomic coordinate data resulting 
# from the CCDC's data processing and validation procedures.
#
#######################################################################

data_COJYUX
_chemical_formula_moiety         'C12 H14 Cl2 O2'
_chemical_name_systematic        
2-(dichloromethyl)-2-(4-methylphenyl)-1,3-dioxane
_symmetry_cell_setting           monoclinic
_symmetry_space_group_name_H-M   'P 21/c'
_symmetry_Int_Tables_number      14
_space_group_name_Hall           '-P 2ybc'
loop_
_symmetry_equiv_pos_site_id
_symmetry_equiv_pos_as_xyz
1 x,y,z
2 -x,1/2+y,1/2-z
3 -x,-y,-z
4 x,1/2-y,1/2+z
_cell_length_a                   6.2744(13)
_cell_length_b                   13.712(3)
_cell_length_c                   15.593(4)
_cell_angle_alpha                90
_cell_angle_beta                 111.31(3)
_cell_angle_gamma                90
_cell_volume                     1249.81
_exptl_crystal_colour            colorless
_exptl_crystal_description       block
_cell_formula_units_Z            4
loop_
_atom_site_label
_atom_site_type_symbol
_atom_site_fract_x
_atom_site_fract_y
_atom_site_fract_z
Cl1 Cl 0.59150(7) 0.91466(4) 0.60506(3)
Cl2 Cl 0.15077(8) 0.83724(3) 0.59110(3)
O1 O 0.06251(16) 1.03877(8) 0.63799(7)
O2 O 0.42664(17) 1.09743(7) 0.65669(7)
C1 C 0.0121(3) 1.12259(12) 0.68339(12)
H1 H 0.0498 1.1083 0.7482
H2 H -0.1501 1.1371 0.6566
C2 C 0.1478(3) 1.20987(12) 0.67335(13)
H3 H 0.0947 1.2303 0.6095
H4 H 0.1267 1.2637 0.7099
C3 C 0.3975(3) 1.18276(11) 0.70544(11)
H5 H 0.4845 1.2366 0.6944
H6 H 0.4547 1.1697 0.7711
C4 C 0.2981(2) 1.01688(10) 0.66685(9)
C5 C 0.3077(2) 0.94499(11) 0.59180(10)
H7 H 0.2366 0.9769 0.5319
C6 C 0.3934(2) 0.97510(9) 0.76410(9)
C7 C 0.6247(2) 0.98224(11) 0.81629(10)
H8 H 0.7214 1.0143 0.7924
C8 C 0.7137(3) 0.94202(11) 0.90379(10)
H9 H 0.8698 0.9469 0.9374
C9 C 0.5745(3) 0.89471(10) 0.94219(10)
C10 C 0.3427(3) 0.88814(11) 0.88990(11)
H10 H 0.2459 0.8568 0.9142
C11 C 0.2527(3) 0.92738(10) 0.80202(10)
H11 H 0.0969 0.9218 0.7681
C12 C 0.6717(4) 0.85102(15) 1.03735(12)
H12 H 0.6607 0.7812 1.0330
H13 H 0.5869 0.8744 1.0735
H14 H 0.8292 0.8696 1.0661
loop_
_geom_bond_atom_site_label_1
_geom_bond_atom_site_label_2
_geom_bond_site_symmetry_1
_geom_bond_site_symmetry_2
Cl1 C5 1_555 1_555
Cl2 C5 1_555 1_555
O1 C1 1_555 1_555
O2 C3 1_555 1_555
C1 H1 1_555 1_555
H2 C1 1_555 1_555
C2 C1 1_555 1_555
H3 C2 1_555 1_555
H4 C2 1_555 1_555
C3 C2 1_555 1_555
H5 C3 1_555 1_555
H6 C3 1_555 1_555
C4 O1 1_555 1_555
C5 C4 1_555 1_555
H7 C5 1_555 1_555
C6 C4 1_555 1_555
C7 C6 1_555 1_555
H8 C7 1_555 1_555
C8 C7 1_555 1_555
H9 C8 1_555 1_555
C9 C8 1_555 1_555
C10 C9 1_555 1_555
H10 C10 1_555 1_555
C11 C6 1_555 1_555
H11 C11 1_555 1_555
C12 C9 1_555 1_555
H12 C12 1_555 1_555
H13 C12 1_555 1_555
H14 C12 1_555 1_555
O2 C4 1_555 1_555
C10 C11 1_555 1_555

#END
