
#######################################################################
#
#                 Cambridge Crystallographic Data Centre
#                                CCDC 
#
#######################################################################
#
# If this CIF has been generated from an entry in the Cambridge 
# Structural Database, then it will include bibliographic, chemical, 
# crystal, experimental, refinement or atomic coordinate data resulting 
# from the CCDC's data processing and validation procedures.
#
#######################################################################

data_COKQAV
_chemical_formula_moiety         'C21 H18 F1 N1 O4'
_chemical_name_systematic        
'methyl 11-hydroxy-10-(2-fluorobenzoyl)-13-azatricyclo[7.3.1.0^2,7^]trideca-2,4,6,10-tetraene-13-carboxylate'
_symmetry_cell_setting           orthorhombic
_symmetry_space_group_name_H-M   'P 21 21 21'
_symmetry_Int_Tables_number      19
_space_group_name_Hall           'P 2ac 2ab'
loop_
_symmetry_equiv_pos_site_id
_symmetry_equiv_pos_as_xyz
1 x,y,z
2 1/2-x,-y,1/2+z
3 -x,1/2+y,1/2-z
4 1/2+x,1/2-y,-z
_cell_length_a                   8.5991(5)
_cell_length_b                   13.1245(5)
_cell_length_c                   15.0112(6)
_cell_angle_alpha                90
_cell_angle_beta                 90
_cell_angle_gamma                90
_cell_volume                     1694.15
_exptl_crystal_colour            colorless
_exptl_crystal_description       prism
_cell_formula_units_Z            4
loop_
_atom_site_label
_atom_site_type_symbol
_atom_site_fract_x
_atom_site_fract_y
_atom_site_fract_z
C1 C -0.53803(13) -0.85838(10) -0.28425(8)
H1 H -0.5020 -0.8593 -0.3476
C2 C -0.54840(14) -0.74798(10) -0.25258(9)
H2 H -0.4423 -0.7195 -0.2466
H3 H -0.6049 -0.7070 -0.2975
C3 C -0.63138(14) -0.74061(10) -0.16418(8)
C4 C -0.61240(15) -0.65475(10) -0.11049(9)
H4 H -0.5474 -0.6007 -0.1300
C5 C -0.68737(17) -0.64745(12) -0.02889(9)
H5 H -0.6725 -0.5890 0.0074
C6 C -0.78314(16) -0.72473(11) -0.00057(9)
H6 H -0.8355 -0.7195 0.0550
C7 C -0.80307(15) -0.81039(11) -0.05331(8)
H7 H -0.8687 -0.8639 -0.0333
C8 C -0.72808(13) -0.81903(10) -0.13519(8)
C9 C -0.74886(14) -0.91594(10) -0.18833(7)
H8 H -0.8615 -0.9349 -0.1892
C10 C -0.65467(14) -1.00349(10) -0.14820(8)
H9 H -0.6755 -1.0077 -0.0834
H10 H -0.6874 -1.0686 -0.1757
C11 C -0.48437(14) -0.98790(9) -0.16330(8)
C12 C -0.42706(14) -0.92174(9) -0.22810(8)
C13 C -0.26289(14) -0.91077(10) -0.23467(8)
C14 C -0.18758(13) -0.83594(10) -0.29635(8)
C15 C -0.20739(14) -0.83437(11) -0.38787(9)
C16 C -0.13663(18) -0.76402(13) -0.44224(10)
H11 H -0.1535 -0.7648 -0.5048
C17 C -0.04064(18) -0.69234(12) -0.40378(11)
H12 H 0.0077 -0.6422 -0.4401
C18 C -0.01398(17) -0.69266(12) -0.31297(11)
H13 H 0.0542 -0.6439 -0.2872
C19 C -0.08678(15) -0.76402(11) -0.25974(10)
H14 H -0.0679 -0.7641 -0.1974
C20 C -0.75403(14) -0.95057(10) -0.35110(8)
C21 C -0.96650(16) -1.04819(13) -0.40081(9)
H15 H -1.0607 -1.0809 -0.3778
H16 H -0.8991 -1.0997 -0.4281
H17 H -0.9951 -0.9972 -0.4456
F1 F -0.29642(10) -0.90622(7) -0.42661(5)
N1 N -0.69439(12) -0.90084(9) -0.27973(7)
O1 O -0.17103(10) -0.96046(8) -0.18496(6)
O2 O -0.39400(11) -1.04121(7) -0.11172(6)
H18 H -0.289(2) -1.0136(17) -0.1351(13)
O3 O -0.69855(11) -0.95042(8) -0.42532(6)
O4 O -0.88531(10) -0.99948(8) -0.32900(6)
loop_
_geom_bond_atom_site_label_1
_geom_bond_atom_site_label_2
_geom_bond_site_symmetry_1
_geom_bond_site_symmetry_2
C1 H1 1_555 1_555
C2 C1 1_555 1_555
H2 C2 1_555 1_555
H3 C2 1_555 1_555
C3 C2 1_555 1_555
C4 C3 1_555 1_555
H4 C4 1_555 1_555
C5 C4 1_555 1_555
H5 C5 1_555 1_555
C6 C5 1_555 1_555
H6 C6 1_555 1_555
C7 C6 1_555 1_555
H7 C7 1_555 1_555
C8 C3 1_555 1_555
C9 C8 1_555 1_555
H8 C9 1_555 1_555
C10 C9 1_555 1_555
H9 C10 1_555 1_555
H10 C10 1_555 1_555
C11 C10 1_555 1_555
C12 C1 1_555 1_555
C13 C12 1_555 1_555
C14 C13 1_555 1_555
C15 C14 1_555 1_555
C16 C15 1_555 1_555
H11 C16 1_555 1_555
C17 C16 1_555 1_555
H12 C17 1_555 1_555
C18 C17 1_555 1_555
H13 C18 1_555 1_555
C19 C14 1_555 1_555
H14 C19 1_555 1_555
C20 N1 1_555 1_555
C21 H15 1_555 1_555
H16 C21 1_555 1_555
H17 C21 1_555 1_555
F1 C15 1_555 1_555
N1 C1 1_555 1_555
O1 C13 1_555 1_555
O2 C11 1_555 1_555
H18 O2 1_555 1_555
O3 C20 1_555 1_555
O4 C20 1_555 1_555
C7 C8 1_555 1_555
C9 N1 1_555 1_555
C11 C12 1_555 1_555
C18 C19 1_555 1_555
C21 O4 1_555 1_555

#END
