
#######################################################################
#
#                 Cambridge Crystallographic Data Centre
#                                CCDC 
#
#######################################################################
#
# If this CIF has been generated from an entry in the Cambridge 
# Structural Database, then it will include bibliographic, chemical, 
# crystal, experimental, refinement or atomic coordinate data resulting 
# from the CCDC's data processing and validation procedures.
#
#######################################################################

data_COKQID
_chemical_formula_moiety         'C14 H15 N1 O3'
_chemical_name_systematic        
'11-Oxo-13-aza-tricyclo(7.3.1.0^2,7^)trideca-2(7),3,5-triene-13-carboxylic acid methyl ester'
_symmetry_cell_setting           orthorhombic
_symmetry_space_group_name_H-M   'P b c a'
_symmetry_Int_Tables_number      61
_space_group_name_Hall           '-P 2ac 2ab'
loop_
_symmetry_equiv_pos_site_id
_symmetry_equiv_pos_as_xyz
1 x,y,z
2 1/2-x,-y,1/2+z
3 -x,1/2+y,1/2-z
4 1/2+x,1/2-y,-z
5 -x,-y,-z
6 1/2+x,y,1/2-z
7 x,1/2-y,1/2+z
8 1/2-x,1/2+y,z
_cell_length_a                   10.6805(2)
_cell_length_b                   9.4338(2)
_cell_length_c                   24.2042(5)
_cell_angle_alpha                90
_cell_angle_beta                 90
_cell_angle_gamma                90
_cell_volume                     2438.76
_exptl_crystal_colour            yellow
_exptl_crystal_description       rod
_chemical_melting_point          '400-403 K'
_cell_formula_units_Z            8
loop_
_atom_site_label
_atom_site_type_symbol
_atom_site_fract_x
_atom_site_fract_y
_atom_site_fract_z
O1 O -0.18124(16) 1.12313(17) 0.38779(7)
O2 O 0.00185(16) 1.23351(17) 0.40453(8)
O3 O 0.13756(18) 0.63619(19) 0.47013(8)
N1 N -0.00478(18) 0.9976(2) 0.40719(9)
C1 C -0.0599(2) 0.8605(2) 0.39359(11)
H1 H -0.1508 0.8733 0.3850
C2 C 0.1321(2) 0.9909(2) 0.41264(10)
H2 H 0.1624 1.0865 0.4245
C3 C 0.1916(2) 0.9568(3) 0.35729(11)
H3 H 0.1906 1.0428 0.3339
H4 H 0.2801 0.9295 0.3632
C4 C 0.1257(2) 0.8395(3) 0.32763(10)
C5 C 0.1816(3) 0.7739(3) 0.28128(11)
H5 H 0.2621 0.8040 0.2694
C6 C 0.1218(3) 0.6678(3) 0.25325(11)
H6 H 0.1609 0.6250 0.2222
C7 C 0.0039(3) 0.6221(3) 0.27013(12)
H7 H -0.0372 0.5477 0.2508
C8 C -0.0532(2) 0.6853(3) 0.31498(11)
H8 H -0.1332 0.6538 0.3269
C9 C 0.0072(2) 0.7957(2) 0.34275(10)
C10 C -0.0702(2) 1.1183(2) 0.39845(9)
C11 C -0.0605(3) 1.3674(3) 0.39552(13)
H9 H -0.0902 1.3724 0.3572
H10 H -0.0018 1.4452 0.4025
H11 H -0.1320 1.3755 0.4207
C12 C -0.0460(2) 0.7641(2) 0.44471(10)
H12 H -0.0915 0.8059 0.4764
H13 H -0.0824 0.6697 0.4369
C13 C 0.0906(2) 0.7492(2) 0.45865(9)
C14 C 0.1650(2) 0.8847(2) 0.45834(10)
H14 H 0.2548 0.8603 0.4549
H15 H 0.1536 0.9321 0.4945
loop_
_geom_bond_atom_site_label_1
_geom_bond_atom_site_label_2
_geom_bond_site_symmetry_1
_geom_bond_site_symmetry_2
O1 C10 1_555 1_555
O2 C10 1_555 1_555
O3 C13 1_555 1_555
N1 C1 1_555 1_555
C1 H1 1_555 1_555
C2 N1 1_555 1_555
H2 C2 1_555 1_555
C3 C2 1_555 1_555
H3 C3 1_555 1_555
H4 C3 1_555 1_555
C4 C3 1_555 1_555
C5 C4 1_555 1_555
H5 C5 1_555 1_555
C6 C5 1_555 1_555
H6 C6 1_555 1_555
C7 C6 1_555 1_555
H7 C7 1_555 1_555
C8 C7 1_555 1_555
H8 C8 1_555 1_555
C9 C1 1_555 1_555
C10 N1 1_555 1_555
C11 O2 1_555 1_555
H9 C11 1_555 1_555
H10 C11 1_555 1_555
H11 C11 1_555 1_555
C12 C1 1_555 1_555
H12 C12 1_555 1_555
H13 C12 1_555 1_555
C13 C12 1_555 1_555
C14 C2 1_555 1_555
H14 C14 1_555 1_555
H15 C14 1_555 1_555
C4 C9 1_555 1_555
C8 C9 1_555 1_555
C13 C14 1_555 1_555

#END
