
#######################################################################
#
#                 Cambridge Crystallographic Data Centre
#                                CCDC 
#
#######################################################################
#
# If this CIF has been generated from an entry in the Cambridge 
# Structural Database, then it will include bibliographic, chemical, 
# crystal, experimental, refinement or atomic coordinate data resulting 
# from the CCDC's data processing and validation procedures.
#
#######################################################################

data_COKYEH
_chemical_formula_moiety         'C33 H32 N2 O1'
_chemical_name_systematic        
1,3-bis(1,1,3-trimethyl-1H-benzo(e)indol-2(3H)-ylidene)propan-2-one
_symmetry_cell_setting           monoclinic
_symmetry_space_group_name_H-M   'P 21/n'
_symmetry_Int_Tables_number      14
_space_group_name_Hall           '-P 2yn'
loop_
_symmetry_equiv_pos_site_id
_symmetry_equiv_pos_as_xyz
1 x,y,z
2 1/2-x,1/2+y,1/2-z
3 -x,-y,-z
4 1/2+x,1/2-y,1/2+z
_cell_length_a                   10.4999(10)
_cell_length_b                   7.4272(7)
_cell_length_c                   32.916(3)
_cell_angle_alpha                90
_cell_angle_beta                 91.258(2)
_cell_angle_gamma                90
_cell_volume                     2566.33
_exptl_crystal_colour            yellow
_exptl_crystal_description       prismatic
_chemical_melting_point          '253-254 deg.C'
_cell_formula_units_Z            4
_exptl_crystal_recrystallization_method dichloromethane/ethanol
loop_
_atom_site_label
_atom_site_type_symbol
_atom_site_fract_x
_atom_site_fract_y
_atom_site_fract_z
O1 O 0.26732(14) 0.58705(19) 0.06685(4)
N1 N 0.17426(13) 0.1100(2) 0.13768(4)
N2 N 0.14655(14) 0.5064(2) -0.05941(4)
C1 C 0.21004(17) 0.4530(3) 0.05358(5)
C2 C 0.17479(17) 0.3006(3) 0.07895(5)
H1 H 0.1139 0.2232 0.0677
C3 C 0.21879(16) 0.2565(2) 0.11665(5)
C4 C 0.32720(15) 0.3407(2) 0.14232(4)
C5 C 0.33933(16) 0.2081(2) 0.17723(4)
C6 C 0.24776(16) 0.0781(2) 0.17291(5)
C7 C 0.23411(18) -0.0636(3) 0.20067(5)
H2 H 0.1690 -0.1477 0.1975
C8 C 0.31911(19) -0.0741(3) 0.23228(5)
H3 H 0.3125 -0.1682 0.2508
C9 C 0.41734(17) 0.0542(3) 0.23786(5)
C10 C 0.42700(17) 0.2007(3) 0.21047(5)
C11 C 0.52520(19) 0.3279(3) 0.21790(5)
H4 H 0.5332 0.4256 0.2005
C12 C 0.6079(2) 0.3105(4) 0.24992(6)
H5 H 0.6706 0.3971 0.2544
C13 C 0.5997(2) 0.1635(4) 0.27633(6)
H6 H 0.6579 0.1513 0.2979
C14 C 0.5070(2) 0.0392(3) 0.27049(5)
H7 H 0.5020 -0.0579 0.2882
C15 C 0.44910(16) 0.3421(3) 0.11738(5)
H8 H 0.5187 0.3867 0.1339
H9 H 0.4370 0.4186 0.0941
H10 H 0.4678 0.2219 0.1086
C16 C 0.28965(18) 0.5271(2) 0.15775(5)
H11 H 0.2083 0.5202 0.1704
H12 H 0.2847 0.6097 0.1353
H13 H 0.3525 0.5686 0.1772
C17 C 0.08141(19) -0.0166(3) 0.12173(5)
H14 H 0.0138 0.0476 0.1080
H15 H 0.0473 -0.0855 0.1436
H16 H 0.1215 -0.0962 0.1029
C18 C 0.16994(17) 0.4348(3) 0.01106(5)
H17 H 0.1237 0.3313 0.0048
C19 C 0.19031(15) 0.5473(2) -0.02076(5)
C20 C 0.25922(16) 0.7294(2) -0.02310(4)
C21 C 0.24627(15) 0.7740(2) -0.06807(5)
C22 C 0.18100(16) 0.6377(2) -0.08726(5)
C23 C 0.15548(18) 0.6362(3) -0.12926(5)
H18 H 0.1085 0.5440 -0.1414
C24 C 0.20217(18) 0.7752(3) -0.15160(5)
H19 H 0.1868 0.7765 -0.1795
C25 C 0.27275(17) 0.9162(3) -0.13371(5)
C26 C 0.29484(15) 0.9185(2) -0.09069(5)
C27 C 0.36828(19) 1.0620(3) -0.07424(6)
H20 H 0.3824 1.0681 -0.0463
C28 C 0.4184(2) 1.1906(3) -0.09826(7)
H21 H 0.4668 1.2829 -0.0867
C29 C 0.3979(2) 1.1857(4) -0.14060(7)
H22 H 0.4330 1.2743 -0.1569
C30 C 0.3275(2) 1.0529(3) -0.15753(6)
H23 H 0.3147 1.0511 -0.1856
C31 C 0.40021(17) 0.7071(3) -0.01036(5)
H24 H 0.4063 0.6753 0.0179
H25 H 0.4445 0.8183 -0.0147
H26 H 0.4378 0.6138 -0.0263
C32 C 0.1920(2) 0.8713(3) 0.00265(5)
H27 H 0.1047 0.8819 -0.0063
H28 H 0.2339 0.9853 -0.0003
H29 H 0.1953 0.8355 0.0307
C33 C 0.0801(2) 0.3439(3) -0.07081(5)
H30 H 0.1391 0.2451 -0.0710
H31 H 0.0422 0.3582 -0.0974
H32 H 0.0147 0.3198 -0.0516
loop_
_geom_bond_atom_site_label_1
_geom_bond_atom_site_label_2
_geom_bond_site_symmetry_1
_geom_bond_site_symmetry_2
O1 C1 1_555 1_555
N1 C3 1_555 1_555
N2 C19 1_555 1_555
C1 C2 1_555 1_555
C2 H1 1_555 1_555
C3 C2 1_555 1_555
C4 C3 1_555 1_555
C5 C4 1_555 1_555
C6 N1 1_555 1_555
C7 C6 1_555 1_555
H2 C7 1_555 1_555
C8 C7 1_555 1_555
H3 C8 1_555 1_555
C9 C8 1_555 1_555
C10 C5 1_555 1_555
C11 C10 1_555 1_555
H4 C11 1_555 1_555
C12 C11 1_555 1_555
H5 C12 1_555 1_555
C13 C12 1_555 1_555
H6 C13 1_555 1_555
C14 C9 1_555 1_555
H7 C14 1_555 1_555
C15 C4 1_555 1_555
H8 C15 1_555 1_555
H9 C15 1_555 1_555
H10 C15 1_555 1_555
C16 C4 1_555 1_555
H11 C16 1_555 1_555
H12 C16 1_555 1_555
H13 C16 1_555 1_555
C17 N1 1_555 1_555
H14 C17 1_555 1_555
H15 C17 1_555 1_555
H16 C17 1_555 1_555
C18 C1 1_555 1_555
H17 C18 1_555 1_555
C19 C18 1_555 1_555
C20 C19 1_555 1_555
C21 C20 1_555 1_555
C22 N2 1_555 1_555
C23 C22 1_555 1_555
H18 C23 1_555 1_555
C24 C23 1_555 1_555
H19 C24 1_555 1_555
C25 C24 1_555 1_555
C26 C21 1_555 1_555
C27 C26 1_555 1_555
H20 C27 1_555 1_555
C28 C27 1_555 1_555
H21 C28 1_555 1_555
C29 C28 1_555 1_555
H22 C29 1_555 1_555
C30 C25 1_555 1_555
H23 C30 1_555 1_555
C31 C20 1_555 1_555
H24 C31 1_555 1_555
H25 C31 1_555 1_555
H26 C31 1_555 1_555
C32 C20 1_555 1_555
H27 C32 1_555 1_555
H28 C32 1_555 1_555
H29 C32 1_555 1_555
C33 N2 1_555 1_555
H30 C33 1_555 1_555
H31 C33 1_555 1_555
H32 C33 1_555 1_555
C5 C6 1_555 1_555
C9 C10 1_555 1_555
C13 C14 1_555 1_555
C21 C22 1_555 1_555
C25 C26 1_555 1_555
C29 C30 1_555 1_555

#END
