
#######################################################################
#
#                 Cambridge Crystallographic Data Centre
#                                CCDC 
#
#######################################################################
#
# If this CIF has been generated from an entry in the Cambridge 
# Structural Database, then it will include bibliographic, chemical, 
# crystal, experimental, refinement or atomic coordinate data resulting 
# from the CCDC's data processing and validation procedures.
#
#######################################################################

data_COLBAI
_chemical_formula_moiety         'C9 H10 Cl1 N5 O3'
_chemical_name_systematic        
3-((6-chloropyridin-3-yl)methyl)-2-(nitroimino)imidazolidin-4-ol
_symmetry_cell_setting           monoclinic
_symmetry_space_group_name_H-M   'C c'
_symmetry_Int_Tables_number      9
_space_group_name_Hall           'C -2yc'
loop_
_symmetry_equiv_pos_site_id
_symmetry_equiv_pos_as_xyz
1 x,y,z
2 x,-y,1/2+z
3 1/2+x,1/2+y,z
4 1/2+x,1/2-y,1/2+z
_cell_length_a                   7.8700(16)
_cell_length_b                   14.661(3)
_cell_length_c                   9.833(2)
_cell_angle_alpha                90
_cell_angle_beta                 90.89(3)
_cell_angle_gamma                90
_cell_volume                     1134.42
_cell_formula_units_Z            4
loop_
_atom_site_label
_atom_site_type_symbol
_atom_site_fract_x
_atom_site_fract_y
_atom_site_fract_z
Cl1 Cl 0.1347(3) 0.18086(16) 0.0869(2)
O1 O -0.3064(13) 0.6217(7) -0.4311(10)
O2 O -0.3061(13) 0.5578(8) -0.6306(9)
O3 O 0.2988(9) 0.3884(5) -0.6688(7)
H1 H 0.3778 0.3897 -0.6135
N1 N 0.0505(10) 0.2446(6) -0.1507(7)
N2 N 0.0911(10) 0.4092(5) -0.5007(7)
N3 N -0.0987(11) 0.4233(5) -0.6630(7)
H2 H -0.1853 0.4443 -0.7072
N4 N -0.1091(10) 0.5229(5) -0.4687(7)
N5 N -0.2459(12) 0.5668(7) -0.5154(9)
C1 C 0.2677(12) 0.3287(6) -0.0358(10)
H3 H 0.3332 0.3372 0.0427
C2 C 0.2832(12) 0.3856(6) -0.1437(9)
H4 H 0.3621 0.4327 -0.1402
C3 C 0.1800(12) 0.3736(6) -0.2621(9)
C4 C 0.0662(13) 0.3039(7) -0.2599(9)
H5 H -0.0047 0.2955 -0.3354
C5 C 0.1542(11) 0.2592(6) -0.0452(9)
C6 C 0.1990(12) 0.4371(6) -0.3835(9)
H6 H 0.1688 0.4986 -0.3567
H7 H 0.3170 0.4377 -0.4107
C7 C 0.1568(13) 0.3506(6) -0.6086(10)
H8 H 0.1829 0.2896 -0.5730
C8 C 0.0042(14) 0.3467(6) -0.7081(9)
H9 H 0.0397 0.3547 -0.8014
H10 H -0.0568 0.2895 -0.7003
C9 C -0.0427(11) 0.4560(6) -0.5466(8)
loop_
_geom_bond_atom_site_label_1
_geom_bond_atom_site_label_2
_geom_bond_site_symmetry_1
_geom_bond_site_symmetry_2
Cl1 C5 1_555 1_555
O1 N5 1_555 1_555
O2 N5 1_555 1_555
O3 H1 1_555 1_555
N1 C4 1_555 1_555
N2 C6 1_555 1_555
N3 H2 1_555 1_555
N4 N5 1_555 1_555
C1 H3 1_555 1_555
C2 C1 1_555 1_555
H4 C2 1_555 1_555
C3 C2 1_555 1_555
C4 C3 1_555 1_555
H5 C4 1_555 1_555
C5 N1 1_555 1_555
C6 C3 1_555 1_555
H6 C6 1_555 1_555
H7 C6 1_555 1_555
C7 O3 1_555 1_555
H8 C7 1_555 1_555
C8 N3 1_555 1_555
H9 C8 1_555 1_555
H10 C8 1_555 1_555
C9 N2 1_555 1_555
N2 C7 1_555 1_555
N3 C9 1_555 1_555
N4 C9 1_555 1_555
C1 C5 1_555 1_555
C7 C8 1_555 1_555

#END
