
#######################################################################
#
#                 Cambridge Crystallographic Data Centre
#                                CCDC 
#
#######################################################################
#
# If this CIF has been generated from an entry in the Cambridge 
# Structural Database, then it will include bibliographic, chemical, 
# crystal, experimental, refinement or atomic coordinate data resulting 
# from the CCDC's data processing and validation procedures.
#
#######################################################################

data_COLFAM
_chemical_formula_moiety         'C17 H18 F3 N1 O2 S1'
_chemical_name_systematic        
N-(methoxy(2-(4,4,4-trifluorobutyl)phenyl)methyl)thiophene-2-carboxamide
_symmetry_cell_setting           orthorhombic
_symmetry_space_group_name_H-M   'P 21 21 21'
_symmetry_Int_Tables_number      19
_space_group_name_Hall           'P 2ac 2ab'
loop_
_symmetry_equiv_pos_site_id
_symmetry_equiv_pos_as_xyz
1 x,y,z
2 1/2+x,1/2-y,-z
3 -x,1/2+y,1/2-z
4 1/2-x,-y,1/2+z
_cell_length_a                   5.000
_cell_length_b                   10.30660(10)
_cell_length_c                   33.167(2)
_cell_angle_alpha                90
_cell_angle_beta                 90
_cell_angle_gamma                90
_cell_volume                     1709.2
_exptl_crystal_colour            colorless
_exptl_crystal_description       platelet
_cell_formula_units_Z            4
loop_
_atom_site_label
_atom_site_type_symbol
_atom_site_fract_x
_atom_site_fract_y
_atom_site_fract_z
C1 C -0.2882(4) 0.72210(17) 0.58511(5)
H1 H -0.4417 0.7291 0.6008
S1 S 0.1318(4) 0.62602(15) 0.53766(6)
F1 F -0.0590(8) 0.8240(3) 0.70472(12)
F2 F 0.2047(9) 0.7559(3) 0.65937(9)
F3 F 0.2932(7) 0.7271(3) 0.72127(10)
O1 O -0.4262(5) 0.4416(3) 0.59132(9)
O2 O -0.0343(6) 0.1604(2) 0.56146(7)
N1 N 0.0052(5) 0.3752(2) 0.58524(8)
H2 H 0.171(5) 0.398(3) 0.5826(10)
C2 C -0.1098(7) 0.5971(3) 0.57030(9)
C3 C -0.1916(6) 0.4647(3) 0.58282(10)
C4 C -0.0523(7) 0.2410(3) 0.59577(9)
H3 H -0.2346 0.2359 0.6065
C5 C 0.3062(7) 0.0855(3) 0.61930(11)
H4 H 0.2988 0.0472 0.5939
C6 C 0.1476(7) 0.2456(3) 0.66584(10)
C7 C -0.0452(9) 0.5992(4) 0.69319(12)
H5 H -0.1936 0.6059 0.6745
H6 H -0.1184 0.5814 0.7197
C8 C 0.1324(8) 0.4866(3) 0.68060(11)
H7 H 0.2779 0.4775 0.6997
H8 H 0.2094 0.5047 0.6543
C9 C 0.3265(8) 0.1947(4) 0.69436(11)
H9 H 0.3344 0.2316 0.7199
C10 C 0.4889(9) 0.0925(4) 0.68553(13)
H10 H 0.6055 0.0606 0.7050
C11 C 0.4812(8) 0.0364(4) 0.64797(13)
H11 H 0.5916 -0.0335 0.6419
C12 C -0.0257(7) 0.3601(3) 0.67871(11)
H12 H -0.1018 0.3423 0.7050
H13 H -0.1721 0.3699 0.6598
C13 C 0.0973(9) 0.7242(4) 0.69435(12)
C14 C 0.1419(6) 0.1908(3) 0.62773(9)
C15 C -0.1076(10) 0.8257(4) 0.56346(13)
H14 H -0.1387 0.9141 0.5665
C16 C 0.0899(10) 0.7822(4) 0.54073(16)
H15 H 0.2015 0.8391 0.5269
C17 C -0.2374(10) 0.1850(4) 0.53241(11)
H16 H -0.2144 0.1277 0.5098
H17 H -0.2251 0.2733 0.5234
H18 H -0.4097 0.1704 0.5444
S2? S -0.2882(4) 0.72210(17) 0.58511(5)
C18? C 0.1318(4) 0.62602(15) 0.53766(6)
H19? H 0.2476 0.5732 0.5231
loop_
_geom_bond_atom_site_label_1
_geom_bond_atom_site_label_2
_geom_bond_site_symmetry_1
_geom_bond_site_symmetry_2
C1 H1 1_555 1_555
S1 C2 1_555 1_555
F1 C13 1_555 1_555
F2 C13 1_555 1_555
F3 C13 1_555 1_555
O1 C3 1_555 1_555
O2 C4 1_555 1_555
N1 H2 1_555 1_555
C2 C1 1_555 1_555
C3 N1 1_555 1_555
C4 N1 1_555 1_555
H3 C4 1_555 1_555
C5 H4 1_555 1_555
C6 C9 1_555 1_555
C7 H5 1_555 1_555
H6 C7 1_555 1_555
C8 C7 1_555 1_555
H7 C8 1_555 1_555
H8 C8 1_555 1_555
C9 H9 1_555 1_555
C10 C9 1_555 1_555
H10 C10 1_555 1_555
C11 C5 1_555 1_555
H11 C11 1_555 1_555
C12 C6 1_555 1_555
H12 C12 1_555 1_555
H13 C12 1_555 1_555
C13 C7 1_555 1_555
C14 C4 1_555 1_555
C15 C1 1_555 1_555
H14 C15 1_555 1_555
C16 S1 1_555 1_555
H15 C16 1_555 1_555
C17 O2 1_555 1_555
H16 C17 1_555 1_555
H17 C17 1_555 1_555
H18 C17 1_555 1_555
C2 C3 1_555 1_555
C5 C14 1_555 1_555
C6 C14 1_555 1_555
C8 C12 1_555 1_555
C10 C11 1_555 1_555
C15 C16 1_555 1_555

#END
