
#######################################################################
#
#                 Cambridge Crystallographic Data Centre
#                                CCDC 
#
#######################################################################
#
# If this CIF has been generated from an entry in the Cambridge 
# Structural Database, then it will include bibliographic, chemical, 
# crystal, experimental, refinement or atomic coordinate data resulting 
# from the CCDC's data processing and validation procedures.
#
#######################################################################

data_COLKOF
_chemical_formula_moiety         'C19 H21 F1 N6 O4'
_chemical_name_systematic        
5,5'-((4-fluorophenyl)methylene)bis(6-amino-1,3-dimethylpyrimidine-2,4(1H,3H)-dione)
_symmetry_cell_setting           orthorhombic
_symmetry_space_group_name_H-M   'P b c a'
_symmetry_Int_Tables_number      61
_space_group_name_Hall           '-P 2ac 2ab'
loop_
_symmetry_equiv_pos_site_id
_symmetry_equiv_pos_as_xyz
1 x,y,z
2 1/2-x,-y,1/2+z
3 -x,1/2+y,1/2-z
4 1/2+x,1/2-y,-z
5 -x,-y,-z
6 1/2+x,y,1/2-z
7 x,1/2-y,1/2+z
8 1/2-x,1/2+y,z
_cell_length_a                   14.6208(6)
_cell_length_b                   11.3324(7)
_cell_length_c                   22.6410(12)
_cell_angle_alpha                90
_cell_angle_beta                 90
_cell_angle_gamma                90
_cell_volume                     3751.36
_exptl_crystal_colour            white
_exptl_crystal_description       Rectangular
_cell_formula_units_Z            8
loop_
_atom_site_label
_atom_site_type_symbol
_atom_site_fract_x
_atom_site_fract_y
_atom_site_fract_z
O1 O 0.12040(11) 0.70286(16) 0.47999(8)
O2 O 0.41972(12) 0.90382(17) 0.35851(8)
N1 N 0.21150(13) 0.67789(19) 0.56011(9)
N2 N 0.27279(15) 0.63863(19) 0.28860(9)
C1 C 0.28708(16) 0.7846(2) 0.36460(10)
N3 N 0.35782(12) 0.7609(2) 0.56448(9)
C2 C 0.26609(15) 0.7945(2) 0.47801(10)
N4 N 0.16272(16) 0.6468(2) 0.36253(12)
O3 O 0.29971(14) 0.6586(2) 0.64250(9)
C3 C 0.25464(16) 0.8542(2) 0.41822(10)
H1 H 0.2992 0.9187 0.4203
C4 C 0.34765(15) 0.8050(2) 0.50801(10)
C5 C 0.24099(18) 0.6903(2) 0.34020(11)
N5 N 0.42224(15) 0.8593(2) 0.48533(11)
C6 C 0.16385(16) 0.9204(2) 0.41091(11)
C7 C 0.37186(18) 0.8189(2) 0.34004(11)
N6 N 0.40473(15) 0.7555(2) 0.29207(9)
C8 C 0.19584(17) 0.7257(2) 0.50409(11)
F1 F -0.06866(11) 1.12341(16) 0.39325(9)
C9 C 0.28952(18) 0.6969(3) 0.59256(12)
O4 O 0.39032(16) 0.60699(19) 0.22495(9)
C10 C 0.3585(2) 0.6640(3) 0.26558(12)
C11 C 0.44207(17) 0.7825(3) 0.59804(11)
H2 H 0.4918 0.7404 0.5801
H3 H 0.4341 0.7558 0.6380
H4 H 0.4554 0.8655 0.5980
C12 C 0.13307(17) 0.9921(2) 0.45682(12)
H5 H 0.1651 0.9932 0.4923
C13 C 0.11561(17) 0.9230(2) 0.35843(12)
H6 H 0.1362 0.8786 0.3265
C14 C 0.00938(18) 1.0575(2) 0.39853(15)
C15 C 0.05596(19) 1.0616(3) 0.45075(14)
H7 H 0.0363 1.1098 0.4815
C16 C 0.03704(18) 0.9907(2) 0.35245(14)
H8 H 0.0040 0.9900 0.3174
C17 C 0.14123(18) 0.6033(3) 0.58682(13)
H9 H 0.1677 0.5579 0.6183
H10 H 0.1167 0.5509 0.5575
H11 H 0.0931 0.6519 0.6022
C18 C 0.4962(2) 0.7837(3) 0.26916(14)
H12 H 0.5409 0.7351 0.2885
H13 H 0.5096 0.8653 0.2766
H14 H 0.4979 0.7690 0.2274
C19 C 0.2188(2) 0.5502(3) 0.25638(13)
H15 H 0.2378 0.5486 0.2158
H16 H 0.1551 0.5704 0.2585
H17 H 0.2283 0.4739 0.2738
H18 H 0.1393(18) 0.576(3) 0.3509(12)
H19 H 0.1483(16) 0.675(2) 0.4000(13)
H20 H 0.4206(17) 0.880(2) 0.4441(13)
H21 H 0.476(2) 0.856(3) 0.5011(13)
loop_
_geom_bond_atom_site_label_1
_geom_bond_atom_site_label_2
_geom_bond_site_symmetry_1
_geom_bond_site_symmetry_2
O1 C8 1_555 1_555
O2 C7 1_555 1_555
N1 C8 1_555 1_555
N2 C5 1_555 1_555
C1 C3 1_555 1_555
N3 C4 1_555 1_555
C2 C3 1_555 1_555
N4 C5 1_555 1_555
O3 C9 1_555 1_555
C3 H1 1_555 1_555
C4 C2 1_555 1_555
C5 C1 1_555 1_555
N5 C4 1_555 1_555
C6 C3 1_555 1_555
C7 C1 1_555 1_555
N6 C7 1_555 1_555
C8 C2 1_555 1_555
F1 C14 1_555 1_555
C9 N1 1_555 1_555
O4 C10 1_555 1_555
C10 N2 1_555 1_555
C11 N3 1_555 1_555
H2 C11 1_555 1_555
H3 C11 1_555 1_555
H4 C11 1_555 1_555
C12 C6 1_555 1_555
H5 C12 1_555 1_555
C13 C6 1_555 1_555
H6 C13 1_555 1_555
C14 C15 1_555 1_555
C15 C12 1_555 1_555
H7 C15 1_555 1_555
C16 C13 1_555 1_555
H8 C16 1_555 1_555
C17 N1 1_555 1_555
H9 C17 1_555 1_555
H10 C17 1_555 1_555
H11 C17 1_555 1_555
C18 N6 1_555 1_555
H12 C18 1_555 1_555
H13 C18 1_555 1_555
H14 C18 1_555 1_555
C19 N2 1_555 1_555
H15 C19 1_555 1_555
H16 C19 1_555 1_555
H17 C19 1_555 1_555
H18 N4 1_555 1_555
H19 N4 1_555 1_555
H20 N5 1_555 1_555
H21 N5 1_555 1_555
N3 C9 1_555 1_555
N6 C10 1_555 1_555
C14 C16 1_555 1_555

#END
