
#######################################################################
#
#                 Cambridge Crystallographic Data Centre
#                                CCDC 
#
#######################################################################
#
# If this CIF has been generated from an entry in the Cambridge 
# Structural Database, then it will include bibliographic, chemical, 
# crystal, experimental, refinement or atomic coordinate data resulting 
# from the CCDC's data processing and validation procedures.
#
#######################################################################

data_COLPIE
_chemical_formula_moiety         'C16 H21 N1 O3 P2 Se1'
_chemical_name_systematic        
'diethyl (diphenylphosphoroselenoyl)phosphoramidate'
_symmetry_cell_setting           monoclinic
_symmetry_space_group_name_H-M   'P 21/n'
_symmetry_Int_Tables_number      14
_space_group_name_Hall           '-P 2yn'
loop_
_symmetry_equiv_pos_site_id
_symmetry_equiv_pos_as_xyz
1 x,y,z
2 1/2-x,1/2+y,1/2-z
3 -x,-y,-z
4 1/2+x,1/2-y,1/2+z
_cell_length_a                   9.294(2)
_cell_length_b                   8.6078(18)
_cell_length_c                   23.687(5)
_cell_angle_alpha                90
_cell_angle_beta                 97.856(4)
_cell_angle_gamma                90
_cell_volume                     1877.2
_exptl_crystal_colour            colorless
_exptl_crystal_description       block
_cell_formula_units_Z            4
loop_
_atom_site_label
_atom_site_type_symbol
_atom_site_fract_x
_atom_site_fract_y
_atom_site_fract_z
C1 C 0.5122(4) 0.3628(5) 0.12228(18)
C2 C 0.4446(5) 0.3948(5) 0.0678(2)
H1 H 0.4411 0.3195 0.0394
C3 C 0.3825(5) 0.5385(6) 0.0555(2)
H2 H 0.3385 0.5596 0.0187
C4 C 0.3843(6) 0.6496(6) 0.0962(3)
H3 H 0.3404 0.7454 0.0875
C5 C 0.4505(7) 0.6198(6) 0.1496(3)
H4 H 0.4517 0.6958 0.1776
C6 C 0.5176(6) 0.4760(6) 0.1635(2)
H5 H 0.5651 0.4576 0.2000
C7 C 0.4483(4) 0.0790(4) 0.17584(16)
C8 C 0.4812(5) 0.0074(5) 0.22820(18)
H6 H 0.5763 0.0082 0.2465
C9 C 0.3751(6) -0.0645(6) 0.2533(2)
H7 H 0.3988 -0.1128 0.2885
C10 C 0.2356(6) -0.0659(6) 0.2273(2)
H8 H 0.1641 -0.1145 0.2449
C11 C 0.1993(5) 0.0045(7) 0.1748(2)
H9 H 0.1039 0.0032 0.1568
C12 C 0.3064(5) 0.0766(6) 0.1497(2)
H10 H 0.2827 0.1245 0.1145
C13 C 0.7855(7) -0.2272(8) 0.1017(4)
H11 H 0.7008 -0.2134 0.1210
H12 H 0.7559 -0.2879 0.0676
C14 C 0.8873(10) -0.3091(9) 0.1365(4)
H13 H 0.9755 -0.3139 0.1197
H14 H 0.8522 -0.4124 0.1414
H15 H 0.9059 -0.2585 0.1729
C15 C 0.9591(7) 0.1954(8) 0.0359(4)
H16 H 1.0124 0.1096 0.0554
H17 H 0.9655 0.1849 -0.0044
C16 C 1.0247(7) 0.3321(8) 0.0551(4)
H18 H 0.9673 0.4181 0.0391
H19 H 1.1197 0.3377 0.0436
H20 H 1.0330 0.3360 0.0959
N1 N 0.5910(3) 0.0758(4) 0.08127(14)
O1 O 0.6708(3) -0.0371(4) -0.00861(12)
O2 O 0.8337(3) -0.0757(3) 0.08494(12)
O3 O 0.8120(3) 0.1836(3) 0.04419(13)
P1 P 0.58865(11) 0.17423(12) 0.14256(4)
P2 P 0.72482(11) 0.02950(13) 0.04689(4)
Se1 Se 0.78882(5) 0.18645(7) 0.19421(2)
H21 H 0.509(2) 0.062(4) 0.0649(14)
loop_
_geom_bond_atom_site_label_1
_geom_bond_atom_site_label_2
_geom_bond_site_symmetry_1
_geom_bond_site_symmetry_2
C1 C2 1_555 1_555
C2 H1 1_555 1_555
C3 C2 1_555 1_555
H2 C3 1_555 1_555
C4 C3 1_555 1_555
H3 C4 1_555 1_555
C5 C4 1_555 1_555
H4 C5 1_555 1_555
C6 C1 1_555 1_555
H5 C6 1_555 1_555
C7 C8 1_555 1_555
C8 H6 1_555 1_555
C9 C8 1_555 1_555
H7 C9 1_555 1_555
C10 C9 1_555 1_555
H8 C10 1_555 1_555
C11 C10 1_555 1_555
H9 C11 1_555 1_555
C12 C7 1_555 1_555
H10 C12 1_555 1_555
C13 H11 1_555 1_555
H12 C13 1_555 1_555
C14 C13 1_555 1_555
H13 C14 1_555 1_555
H14 C14 1_555 1_555
H15 C14 1_555 1_555
C15 H16 1_555 1_555
H17 C15 1_555 1_555
C16 C15 1_555 1_555
H18 C16 1_555 1_555
H19 C16 1_555 1_555
H20 C16 1_555 1_555
N1 P1 1_555 1_555
O1 P2 1_555 1_555
O2 C13 1_555 1_555
O3 C15 1_555 1_555
P1 C1 1_555 1_555
P2 N1 1_555 1_555
Se1 P1 1_555 1_555
H21 N1 1_555 1_555
C5 C6 1_555 1_555
C7 P1 1_555 1_555
C11 C12 1_555 1_555
O2 P2 1_555 1_555
O3 P2 1_555 1_555

#END
