
#######################################################################
#
#                 Cambridge Crystallographic Data Centre
#                                CCDC 
#
#######################################################################
#
# If this CIF has been generated from an entry in the Cambridge 
# Structural Database, then it will include bibliographic, chemical, 
# crystal, experimental, refinement or atomic coordinate data resulting 
# from the CCDC's data processing and validation procedures.
#
#######################################################################

data_COLQIF
_chemical_formula_moiety         'C56 H36 N6 S6,C1 H4 O1'
_chemical_name_systematic        
"5,5'''''-dimethyl-2,2',2'',2''',2'''',2'''''-hexaphenyl-4,5':4',5'':4'',4''':5''',4'''':5'''',4'''''-se\x-1,3-thiazole methanol solvate"
_symmetry_cell_setting           monoclinic
_symmetry_space_group_name_H-M   'P 21/c'
_symmetry_Int_Tables_number      14
_space_group_name_Hall           '-P 2ybc'
loop_
_symmetry_equiv_pos_site_id
_symmetry_equiv_pos_as_xyz
1 x,y,z
2 -x,1/2+y,1/2-z
3 -x,-y,-z
4 x,1/2-y,1/2+z
_cell_length_a                   22.2122(4)
_cell_length_b                   8.62620(16)
_cell_length_c                   27.6091(5)
_cell_angle_alpha                90
_cell_angle_beta                 112.3551(7)
_cell_angle_gamma                90
_cell_volume                     4892.51
_exptl_crystal_colour            colorless
_exptl_crystal_description       block
_cell_formula_units_Z            4
loop_
_atom_site_label
_atom_site_type_symbol
_atom_site_fract_x
_atom_site_fract_y
_atom_site_fract_z
S1 S 0.00939(2) 0.67636(5) 0.418507(16)
S2 S 0.21135(2) 0.43108(5) 0.399647(16)
S3 S 0.24941(2) 0.46080(5) 0.597287(16)
S4 S 0.19816(2) 1.01799(5) 0.436273(17)
S5 S 0.41288(2) 0.69332(5) 0.514155(18)
S6 S 0.37113(2) 0.91207(5) 0.673341(18)
N1 N 0.10056(7) 0.67736(17) 0.38290(5)
N2 N 0.28819(7) 0.41711(16) 0.49644(6)
N3 N 0.21519(7) 0.74470(17) 0.59958(5)
N4 N 0.14423(7) 0.92219(16) 0.49825(5)
N5 N 0.30743(7) 0.77686(17) 0.43953(6)
N6 N 0.38911(7) 0.68673(17) 0.61976(6)
C1 C 0.08548(9) 0.4821(2) 0.50039(7)
C2 C 0.07952(8) 0.57490(19) 0.45320(7)
C3 C 0.04157(8) 0.7289(2) 0.37260(7)
C4 C 0.00477(9) 0.8234(2) 0.32650(7)
C5 C -0.06271(10) 0.8309(3) 0.30710(8)
C6 C -0.09654(11) 0.9202(3) 0.26307(9)
C7 C -0.06273(11) 1.0023(3) 0.23852(8)
C8 C 0.00429(11) 0.9947(3) 0.25743(8)
C9 C 0.03835(10) 0.9053(3) 0.30111(7)
C10 C 0.12237(8) 0.59176(19) 0.42867(6)
C11 C 0.18664(8) 0.51960(19) 0.44515(7)
C12 C 0.28262(8) 0.37161(19) 0.44986(7)
C13 C 0.33124(8) 0.2742(2) 0.44042(7)
C14 C 0.31921(9) 0.2066(3) 0.39171(8)
C15 C 0.36543(10) 0.1113(3) 0.38450(8)
C16 C 0.42357(10) 0.0828(3) 0.42553(8)
C17 C 0.43586(9) 0.1484(3) 0.47414(8)
C18 C 0.39012(9) 0.2444(2) 0.48184(7)
C19 C 0.23513(8) 0.50335(19) 0.49402(6)
C20 C 0.23409(8) 0.57176(19) 0.54229(6)
C21 C 0.23012(8) 0.6174(2) 0.62788(7)
C22 C 0.22823(9) 0.5988(3) 0.68035(7)
C23 C 0.24426(12) 0.4542(3) 0.70623(8)
C24 C 0.23840(14) 0.4335(3) 0.75379(9)
C25 C 0.21606(13) 0.5542(4) 0.77619(9)
C26 C 0.20109(12) 0.6955(4) 0.75132(8)
C27 C 0.20776(10) 0.7194(3) 0.70352(7)
C28 C 0.21790(8) 0.71977(19) 0.55098(6)
C29 C 0.20274(8) 0.84496(19) 0.51181(6)
C30 C 0.13498(8) 1.01632(19) 0.45875(7)
C31 C 0.07514(8) 1.10742(19) 0.43393(7)
C32 C 0.02773(9) 1.1024(3) 0.45554(8)
C33 C -0.03054(9) 1.1828(3) 0.43245(8)
C34 C -0.04163(9) 1.2689(3) 0.38751(8)
C35 C 0.00504(10) 1.2748(3) 0.36571(8)
C36 C 0.06330(9) 1.1949(2) 0.38869(7)
C37 C 0.23945(8) 0.88253(19) 0.48311(6)
C38 C 0.30192(8) 0.81935(19) 0.48584(7)
C39 C 0.36318(9) 0.7082(2) 0.44846(7)
C40 C 0.38143(10) 0.6404(3) 0.40694(8)
C41 C 0.33449(12) 0.6309(3) 0.35630(9)
C42 C 0.34924(15) 0.5602(4) 0.31683(9)
C43 C 0.41098(15) 0.5007(3) 0.32802(10)
C44 C 0.45804(14) 0.5110(3) 0.37780(10)
C45 C 0.44323(12) 0.5799(3) 0.41754(9)
C46 C 0.35498(8) 0.78723(19) 0.53074(7)
C47 C 0.36596(8) 0.8114(2) 0.58603(7)
C48 C 0.39386(8) 0.7225(2) 0.66692(7)
C49 C 0.41432(8) 0.6129(3) 0.71100(7)
C50 C 0.41917(10) 0.4555(3) 0.70174(8)
C51 C 0.43716(10) 0.3508(3) 0.74315(9)
C52 C 0.45127(11) 0.4025(3) 0.79373(9)
C53 C 0.44682(12) 0.5576(3) 0.80299(8)
C54 C 0.42847(11) 0.6628(3) 0.76197(8)
C55 C 0.35466(9) 0.9455(2) 0.60794(7)
C56 C 0.33166(10) 1.0999(3) 0.58331(8)
H1 H 0.1194 0.4033 0.5067
H2 H 0.0438 0.4314 0.4946
H3 H 0.0971 0.5507 0.5309
H4 H -0.0860 0.7748 0.3240
H5 H -0.1427 0.9246 0.2499
H6 H -0.0857 1.0640 0.2087
H7 H 0.0273 1.0511 0.2404
H8 H 0.0845 0.8999 0.3137
H9 H 0.2792 0.2260 0.3633
H10 H 0.3570 0.0656 0.3512
H11 H 0.4553 0.0180 0.4205
H12 H 0.4758 0.1276 0.5024
H13 H 0.3989 0.2896 0.5152
H14 H 0.2590 0.3714 0.6909
H15 H 0.2496 0.3368 0.7714
H16 H 0.2112 0.5388 0.8086
H17 H 0.1861 0.7775 0.7668
H18 H 0.1983 0.8180 0.6870
H19 H 0.0353 1.0434 0.4864
H20 H -0.0626 1.1786 0.4474
H21 H -0.0814 1.3240 0.3716
H22 H -0.0028 1.3339 0.3349
H23 H 0.0952 1.1997 0.3736
H24 H 0.2923 0.6727 0.3487
H25 H 0.3171 0.5529 0.2824
H26 H 0.4210 0.4522 0.3011
H27 H 0.5005 0.4713 0.3850
H28 H 0.4754 0.5855 0.4520
H29 H 0.4102 0.4196 0.6671
H30 H 0.4398 0.2433 0.7367
H31 H 0.4640 0.3308 0.8220
H32 H 0.4564 0.5930 0.8377
H33 H 0.4256 0.7700 0.7688
H34 H 0.3616 1.1808 0.6037
H35 H 0.2879 1.1203 0.5826
H36 H 0.3304 1.0999 0.5474
O1 O 0.21204(9) 0.0703(2) 0.63430(8)
C57 C 0.15124(11) 0.1371(3) 0.60457(10)
H37 H 0.2139 -0.0195 0.6232
H38 H 0.1164 0.0721 0.6071
H39 H 0.1464 0.1447 0.5679
H40 H 0.1487 0.2408 0.6181
loop_
_geom_bond_atom_site_label_1
_geom_bond_atom_site_label_2
_geom_bond_site_symmetry_1
_geom_bond_site_symmetry_2
S1 C2 1_555 1_555
S2 C11 1_555 1_555
S3 C20 1_555 1_555
S4 C30 1_555 1_555
S5 C39 1_555 1_555
S6 C48 1_555 1_555
N1 C3 1_555 1_555
N2 C12 1_555 1_555
N3 C21 1_555 1_555
N4 C29 1_555 1_555
N5 C38 1_555 1_555
N6 C47 1_555 1_555
C1 C2 1_555 1_555
C2 C10 1_555 1_555
C3 S1 1_555 1_555
C4 C3 1_555 1_555
C5 C4 1_555 1_555
C6 C5 1_555 1_555
C7 C6 1_555 1_555
C8 C7 1_555 1_555
C9 C4 1_555 1_555
C10 N1 1_555 1_555
C11 C10 1_555 1_555
C12 S2 1_555 1_555
C13 C12 1_555 1_555
C14 C13 1_555 1_555
C15 C14 1_555 1_555
C16 C15 1_555 1_555
C17 C16 1_555 1_555
C18 C13 1_555 1_555
C19 N2 1_555 1_555
C20 C19 1_555 1_555
C21 S3 1_555 1_555
C22 C21 1_555 1_555
C23 C22 1_555 1_555
C24 C23 1_555 1_555
C25 C24 1_555 1_555
C26 C25 1_555 1_555
C27 C22 1_555 1_555
C28 N3 1_555 1_555
C29 C28 1_555 1_555
C30 N4 1_555 1_555
C31 C30 1_555 1_555
C32 C31 1_555 1_555
C33 C32 1_555 1_555
C34 C33 1_555 1_555
C35 C34 1_555 1_555
C36 C31 1_555 1_555
C37 S4 1_555 1_555
C38 C37 1_555 1_555
C39 N5 1_555 1_555
C40 C39 1_555 1_555
C41 C40 1_555 1_555
C42 C41 1_555 1_555
C43 C42 1_555 1_555
C44 C43 1_555 1_555
C45 C40 1_555 1_555
C46 S5 1_555 1_555
C47 C46 1_555 1_555
C48 N6 1_555 1_555
C49 C48 1_555 1_555
C50 C49 1_555 1_555
C51 C50 1_555 1_555
C52 C51 1_555 1_555
C53 C52 1_555 1_555
C54 C49 1_555 1_555
C55 S6 1_555 1_555
C56 C55 1_555 1_555
H1 C1 1_555 1_555
H2 C1 1_555 1_555
H3 C1 1_555 1_555
H4 C5 1_555 1_555
H5 C6 1_555 1_555
H6 C7 1_555 1_555
H7 C8 1_555 1_555
H8 C9 1_555 1_555
H9 C14 1_555 1_555
H10 C15 1_555 1_555
H11 C16 1_555 1_555
H12 C17 1_555 1_555
H13 C18 1_555 1_555
H14 C23 1_555 1_555
H15 C24 1_555 1_555
H16 C25 1_555 1_555
H17 C26 1_555 1_555
H18 C27 1_555 1_555
H19 C32 1_555 1_555
H20 C33 1_555 1_555
H21 C34 1_555 1_555
H22 C35 1_555 1_555
H23 C36 1_555 1_555
H24 C41 1_555 1_555
H25 C42 1_555 1_555
H26 C43 1_555 1_555
H27 C44 1_555 1_555
H28 C45 1_555 1_555
H29 C50 1_555 1_555
H30 C51 1_555 1_555
H31 C52 1_555 1_555
H32 C53 1_555 1_555
H33 C54 1_555 1_555
H34 C56 1_555 1_555
H35 C56 1_555 1_555
H36 C56 1_555 1_555
O1 C57 1_555 1_555
C57 H38 1_555 1_555
H37 O1 1_555 1_555
H39 C57 1_555 1_555
H40 C57 1_555 1_555
C8 C9 1_555 1_555
C11 C19 1_555 1_555
C17 C18 1_555 1_555
C20 C28 1_555 1_555
C26 C27 1_555 1_555
C29 C37 1_555 1_555
C35 C36 1_555 1_555
C38 C46 1_555 1_555
C44 C45 1_555 1_555
C47 C55 1_555 1_555
C53 C54 1_555 1_555

#END
