
#######################################################################
#
#                 Cambridge Crystallographic Data Centre
#                                CCDC 
#
#######################################################################
#
# If this CIF has been generated from an entry in the Cambridge 
# Structural Database, then it will include bibliographic, chemical, 
# crystal, experimental, refinement or atomic coordinate data resulting 
# from the CCDC's data processing and validation procedures.
#
#######################################################################

data_COLSUT
_chemical_formula_moiety         'C35 H35 B1 N4 O4'
_chemical_name_systematic        
'dimethyl 4-(4-(4-(dimesitylboryl)phenyl)-1H-1,2,3-triazol-1-yl)pyridine-2,6-dicarboxylate unknown solvate'
_symmetry_cell_setting           monoclinic
_symmetry_space_group_name_H-M   'P 21/n'
_symmetry_Int_Tables_number      14
_space_group_name_Hall           '-P 2yn'
loop_
_symmetry_equiv_pos_site_id
_symmetry_equiv_pos_as_xyz
1 x,y,z
2 1/2-x,1/2+y,1/2-z
3 -x,-y,-z
4 1/2+x,1/2-y,1/2+z
_cell_length_a                   12.0054(15)
_cell_length_b                   11.8870(15)
_cell_length_c                   24.416(3)
_cell_angle_alpha                90
_cell_angle_beta                 99.795(2)
_cell_angle_gamma                90
_cell_volume                     3433.57
_exptl_crystal_colour            colorless
_exptl_crystal_description       block
_cell_formula_units_Z            4
loop_
_atom_site_label
_atom_site_type_symbol
_atom_site_fract_x
_atom_site_fract_y
_atom_site_fract_z
B1 B 0.2630(3) 0.3334(3) 0.45659(18)
O1 O 0.7186(2) -0.4499(2) 0.12797(11)
O2 O 0.5400(2) -0.3911(2) 0.11812(10)
O3 O 0.9586(2) -0.1111(3) 0.30118(13)
O4 O 0.9993(2) -0.2371(2) 0.24019(11)
N1 N 0.7820(2) -0.2802(2) 0.20333(12)
N2 N 0.5300(2) -0.1061(2) 0.26842(12)
N3 N 0.4214(2) -0.1477(3) 0.25854(13)
N4 N 0.3625(2) -0.0824(2) 0.28652(13)
C1 C 0.6485(3) -0.3876(3) 0.14055(15)
C2 C 0.6722(3) -0.2973(3) 0.18464(15)
C3 C 0.8077(3) -0.2031(3) 0.24296(16)
C4 C 0.9295(3) -0.1787(3) 0.26524(18)
C5 C 0.5084(3) -0.4796(4) 0.07805(17)
H1 H 0.4273 -0.4749 0.0635
H2 H 0.5256 -0.5528 0.0960
H3 H 0.5510 -0.4713 0.0474
C6 C 1.1190(3) -0.2136(4) 0.25772(19)
H4 H 1.1626 -0.2520 0.2328
H5 H 1.1431 -0.2407 0.2958
H6 H 1.1319 -0.1324 0.2564
C7 C 0.5857(3) -0.2412(3) 0.20390(15)
H7 H 0.5088 -0.2556 0.1888
C8 C 0.6147(3) -0.1640(3) 0.24542(15)
C9 C 0.7287(3) -0.1442(3) 0.26682(15)
H8 H 0.7509 -0.0926 0.2964
C10 C 0.5381(3) -0.0164(3) 0.30243(14)
H9 H 0.6035 0.0271 0.3155
C11 C 0.4318(3) -0.0016(3) 0.31402(15)
C12 C 0.3896(3) 0.0833(3) 0.34983(14)
C13 C 0.2743(3) 0.1014(3) 0.34626(15)
H10 H 0.2219 0.0583 0.3211
C14 C 0.2362(3) 0.1818(3) 0.37920(16)
H11 H 0.1574 0.1966 0.3746
C15 C 0.3097(3) 0.2427(3) 0.41941(15)
C16 C 0.4247(3) 0.2186(3) 0.42292(16)
H12 H 0.4773 0.2570 0.4500
C17 C 0.4650(3) 0.1424(3) 0.38912(15)
H13 H 0.5440 0.1298 0.3924
C18 C 0.1497(3) 0.3939(3) 0.42951(15)
C19 C 0.1476(3) 0.4620(3) 0.38194(16)
C20 C 0.0482(3) 0.5136(3) 0.35781(16)
H14 H 0.0478 0.5595 0.3259
C21 C -0.0503(3) 0.5002(3) 0.37887(17)
C22 C -0.0492(3) 0.4330(3) 0.42476(16)
H15 H -0.1174 0.4223 0.4390
C23 C 0.0491(3) 0.3804(3) 0.45094(16)
C24 C 0.0447(3) 0.3056(3) 0.50101(17)
H16 H -0.0285 0.3147 0.5131
H17 H 0.1054 0.3271 0.5313
H18 H 0.0546 0.2269 0.4909
C25 C -0.1580(3) 0.5612(4) 0.35164(19)
H19 H -0.2242 0.5161 0.3561
H20 H -0.1563 0.5719 0.3120
H21 H -0.1623 0.6346 0.3694
C26 C 0.4160(3) 0.4875(3) 0.58909(16)
H22 H 0.4372 0.5623 0.6000
C27 C 0.2532(3) 0.4809(3) 0.35654(17)
H23 H 0.2538 0.5583 0.3428
H24 H 0.2535 0.4283 0.3256
H25 H 0.3204 0.4681 0.3848
C28 C 0.3280(3) 0.3576(3) 0.51721(15)
C29 C 0.3591(3) 0.2685(3) 0.55595(17)
C30 C 0.4152(3) 0.2921(3) 0.60979(16)
H26 H 0.4337 0.2319 0.6353
C31 C 0.4443(3) 0.4007(3) 0.62674(16)
C32 C 0.3571(3) 0.4680(3) 0.53539(15)
C33 C 0.3332(3) 0.5691(3) 0.49793(16)
H27 H 0.3412 0.6378 0.5204
H28 H 0.2560 0.5642 0.4771
H29 H 0.3870 0.5709 0.4719
C34 C 0.4988(3) 0.4260(3) 0.68581(16)
H30 H 0.5515 0.3654 0.6996
H31 H 0.4404 0.4316 0.7092
H32 H 0.5401 0.4973 0.6869
C35 C 0.3280(4) 0.1469(3) 0.54214(18)
H33 H 0.3147 0.1080 0.5758
H34 H 0.3900 0.1101 0.5277
H35 H 0.2593 0.1442 0.5140
loop_
_geom_bond_atom_site_label_1
_geom_bond_atom_site_label_2
_geom_bond_site_symmetry_1
_geom_bond_site_symmetry_2
B1 C15 1_555 1_555
O1 C1 1_555 1_555
O2 C1 1_555 1_555
O3 C4 1_555 1_555
O4 C4 1_555 1_555
N1 C2 1_555 1_555
N2 N3 1_555 1_555
N3 N4 1_555 1_555
N4 C11 1_555 1_555
C1 C2 1_555 1_555
C2 C7 1_555 1_555
C3 N1 1_555 1_555
C4 C3 1_555 1_555
C5 O2 1_555 1_555
H1 C5 1_555 1_555
H2 C5 1_555 1_555
H3 C5 1_555 1_555
C6 O4 1_555 1_555
H4 C6 1_555 1_555
H5 C6 1_555 1_555
H6 C6 1_555 1_555
C7 H7 1_555 1_555
C8 N2 1_555 1_555
C9 C3 1_555 1_555
H8 C9 1_555 1_555
C10 N2 1_555 1_555
H9 C10 1_555 1_555
C11 C10 1_555 1_555
C12 C11 1_555 1_555
C13 C12 1_555 1_555
H10 C13 1_555 1_555
C14 C13 1_555 1_555
H11 C14 1_555 1_555
C15 C14 1_555 1_555
C16 C15 1_555 1_555
H12 C16 1_555 1_555
C17 C12 1_555 1_555
H13 C17 1_555 1_555
C18 B1 1_555 1_555
C19 C18 1_555 1_555
C20 C19 1_555 1_555
H14 C20 1_555 1_555
C21 C20 1_555 1_555
C22 C21 1_555 1_555
H15 C22 1_555 1_555
C23 C18 1_555 1_555
C24 C23 1_555 1_555
H16 C24 1_555 1_555
H17 C24 1_555 1_555
H18 C24 1_555 1_555
C25 C21 1_555 1_555
H19 C25 1_555 1_555
H20 C25 1_555 1_555
H21 C25 1_555 1_555
C26 H22 1_555 1_555
C27 C19 1_555 1_555
H23 C27 1_555 1_555
H24 C27 1_555 1_555
H25 C27 1_555 1_555
C28 B1 1_555 1_555
C29 C28 1_555 1_555
C30 C29 1_555 1_555
H26 C30 1_555 1_555
C31 C26 1_555 1_555
C32 C26 1_555 1_555
C33 C32 1_555 1_555
H27 C33 1_555 1_555
H28 C33 1_555 1_555
H29 C33 1_555 1_555
C34 C31 1_555 1_555
H30 C34 1_555 1_555
H31 C34 1_555 1_555
H32 C34 1_555 1_555
C35 C29 1_555 1_555
H33 C35 1_555 1_555
H34 C35 1_555 1_555
H35 C35 1_555 1_555
C7 C8 1_555 1_555
C8 C9 1_555 1_555
C16 C17 1_555 1_555
C22 C23 1_555 1_555
C28 C32 1_555 1_555
C30 C31 1_555 1_555

#END
