
#######################################################################
#
#                 Cambridge Crystallographic Data Centre
#                                CCDC 
#
#######################################################################
#
# If this CIF has been generated from an entry in the Cambridge 
# Structural Database, then it will include bibliographic, chemical, 
# crystal, experimental, refinement or atomic coordinate data resulting 
# from the CCDC's data processing and validation procedures.
#
#######################################################################

data_COMCUE
_chemical_formula_moiety         'C19 H15 I1 O2'
_chemical_name_systematic        
'methyl 2-(iodomethyl)-3-(2-(phenylethynyl)phenyl)acrylate'
_symmetry_cell_setting           monoclinic
_symmetry_space_group_name_H-M   'P 21/c'
_symmetry_Int_Tables_number      14
_space_group_name_Hall           '-P 2ybc'
loop_
_symmetry_equiv_pos_site_id
_symmetry_equiv_pos_as_xyz
1 x,y,z
2 -x,1/2+y,1/2-z
3 -x,-y,-z
4 x,1/2-y,1/2+z
_cell_length_a                   8.2342(2)
_cell_length_b                   37.9905(8)
_cell_length_c                   10.4703(2)
_cell_angle_alpha                90
_cell_angle_beta                 90.5910(10)
_cell_angle_gamma                90
_cell_volume                     3275.16
_exptl_crystal_colour            colorless
_exptl_crystal_description       prism
_cell_formula_units_Z            8
loop_
_atom_site_label
_atom_site_type_symbol
_atom_site_fract_x
_atom_site_fract_y
_atom_site_fract_z
C1 C 0.6600(4) 0.09068(10) 0.7067(4)
H1 H 0.5743 0.0832 0.6454
H2 H 0.6120 0.1082 0.7652
C2 C 0.7951(4) 0.10722(10) 0.6357(4)
C3 C 0.8948(4) 0.13260(10) 0.7123(4)
C4 C 1.1009(5) 0.17556(12) 0.7109(4)
H3 H 1.1761 0.1869 0.6517
H4 H 1.1628 0.1636 0.7787
H5 H 1.0302 0.1934 0.7488
C5 C 0.8305(4) 0.10275(10) 0.5111(4)
H6 H 0.9190 0.1164 0.4810
C6 C 0.7526(4) 0.07998(10) 0.4154(3)
C7 C 0.6744(5) 0.04844(11) 0.4415(4)
H7 H 0.6674 0.0406 0.5274
C8 C 0.6065(5) 0.02819(11) 0.3452(4)
H8 H 0.5544 0.0066 0.3656
C9 C 0.6139(5) 0.03906(12) 0.2200(4)
H9 H 0.5645 0.0253 0.1545
C10 C 0.6930(5) 0.06984(12) 0.1897(4)
H10 H 0.6996 0.0770 0.1030
C11 C 0.7641(5) 0.09076(10) 0.2858(4)
C12 C 0.8519(5) 0.12208(11) 0.2526(4)
C13 C 0.9331(5) 0.14702(11) 0.2264(4)
C14 C 1.0377(5) 0.17602(10) 0.1960(4)
C15 C 1.0540(5) 0.18755(11) 0.0696(4)
H11 H 0.9915 0.1769 0.0033
C16 C 1.1610(6) 0.21438(12) 0.0414(5)
H12 H 1.1703 0.2223 -0.0443
C17 C 1.2543(6) 0.22983(13) 0.1358(6)
H13 H 1.3276 0.2483 0.1156
C18 C 1.2400(6) 0.21822(14) 0.2603(6)
H14 H 1.3059 0.2284 0.3255
C19 C 1.1323(6) 0.19222(14) 0.2910(5)
H15 H 1.1216 0.1851 0.3775
O1 O 0.8800(4) 0.13672(8) 0.8258(3)
O2 O 1.0032(3) 0.15018(8) 0.6427(3)
I1 I 0.74240(3) 0.045248(7) 0.81665(3)
C20 C 0.1553(5) 0.08908(10) 0.0425(4)
H16 H 0.1057 0.1049 -0.0219
H17 H 0.0707 0.0830 0.1053
C21 C 0.2895(4) 0.10776(10) 0.1088(4)
C22 C 0.3871(5) 0.13157(10) 0.0254(4)
C23 C 0.5936(6) 0.17485(12) 0.0177(4)
H18 H 0.6713 0.1867 0.0748
H19 H 0.5219 0.1924 -0.0218
H20 H 0.6526 0.1622 -0.0490
C24 C 0.3285(4) 0.10643(9) 0.2336(4)
H21 H 0.4147 0.1217 0.2581
C25 C 0.2621(4) 0.08571(10) 0.3383(3)
C26 C 0.1823(5) 0.05362(10) 0.3227(4)
H22 H 0.1633 0.0448 0.2389
C27 C 0.1298(5) 0.03424(11) 0.4272(4)
H23 H 0.0764 0.0123 0.4144
C28 C 0.1553(5) 0.04684(11) 0.5499(4)
H24 H 0.1180 0.0337 0.6211
C29 C 0.2346(4) 0.07836(10) 0.5687(4)
H25 H 0.2518 0.0869 0.6530
C30 C 0.2902(4) 0.09790(9) 0.4642(3)
C31 C 0.3817(4) 0.12944(10) 0.4892(4)
C32 C 0.4648(5) 0.15455(10) 0.5148(4)
C33 C 0.5670(5) 0.18311(10) 0.5530(4)
C34 C 0.5625(5) 0.19523(11) 0.6779(4)
H26 H 0.4887 0.1850 0.7364
C35 C 0.6648(6) 0.22207(12) 0.7179(5)
H27 H 0.6611 0.2300 0.8039
C36 C 0.7713(5) 0.23725(11) 0.6346(5)
H28 H 0.8406 0.2558 0.6624
C37 C 0.7772(5) 0.22549(12) 0.5100(5)
H29 H 0.8516 0.2359 0.4525
C38 C 0.6760(5) 0.19866(11) 0.4674(4)
H30 H 0.6803 0.1909 0.3813
O3 O 0.3680(4) 0.13400(8) -0.0892(3)
O4 O 0.4980(3) 0.15019(8) 0.0900(3)
I2 I 0.23814(4) 0.041148(7) -0.05151(3)
loop_
_geom_bond_atom_site_label_1
_geom_bond_atom_site_label_2
_geom_bond_site_symmetry_1
_geom_bond_site_symmetry_2
C1 H1 1_555 1_555
H2 C1 1_555 1_555
C2 C1 1_555 1_555
C3 C2 1_555 1_555
C4 H3 1_555 1_555
H4 C4 1_555 1_555
H5 C4 1_555 1_555
C5 C2 1_555 1_555
H6 C5 1_555 1_555
C6 C5 1_555 1_555
C7 C6 1_555 1_555
H7 C7 1_555 1_555
C8 C7 1_555 1_555
H8 C8 1_555 1_555
C9 C8 1_555 1_555
H9 C9 1_555 1_555
C10 C9 1_555 1_555
H10 C10 1_555 1_555
C11 C6 1_555 1_555
C12 C11 1_555 1_555
C13 C12 1_555 1_555
C14 C13 1_555 1_555
C15 C14 1_555 1_555
H11 C15 1_555 1_555
C16 C15 1_555 1_555
H12 C16 1_555 1_555
C17 C16 1_555 1_555
H13 C17 1_555 1_555
C18 C17 1_555 1_555
H14 C18 1_555 1_555
C19 C14 1_555 1_555
H15 C19 1_555 1_555
O1 C3 1_555 1_555
O2 C3 1_555 1_555
I1 C1 1_555 1_555
C20 H16 1_555 1_555
H17 C20 1_555 1_555
C21 C20 1_555 1_555
C22 C21 1_555 1_555
C23 H18 1_555 1_555
H19 C23 1_555 1_555
H20 C23 1_555 1_555
C24 C21 1_555 1_555
H21 C24 1_555 1_555
C25 C24 1_555 1_555
C26 C25 1_555 1_555
H22 C26 1_555 1_555
C27 C26 1_555 1_555
H23 C27 1_555 1_555
C28 C27 1_555 1_555
H24 C28 1_555 1_555
C29 C28 1_555 1_555
H25 C29 1_555 1_555
C30 C25 1_555 1_555
C31 C30 1_555 1_555
C32 C31 1_555 1_555
C33 C32 1_555 1_555
C34 C33 1_555 1_555
H26 C34 1_555 1_555
C35 C34 1_555 1_555
H27 C35 1_555 1_555
C36 C35 1_555 1_555
H28 C36 1_555 1_555
C37 C36 1_555 1_555
H29 C37 1_555 1_555
C38 C33 1_555 1_555
H30 C38 1_555 1_555
O3 C22 1_555 1_555
O4 C22 1_555 1_555
I2 C20 1_555 1_555
C4 O2 1_555 1_555
C10 C11 1_555 1_555
C18 C19 1_555 1_555
C23 O4 1_555 1_555
C29 C30 1_555 1_555
C37 C38 1_555 1_555

#END
