
#######################################################################
#
#                 Cambridge Crystallographic Data Centre
#                                CCDC 
#
#######################################################################
#
# If this CIF has been generated from an entry in the Cambridge 
# Structural Database, then it will include bibliographic, chemical, 
# crystal, experimental, refinement or atomic coordinate data resulting 
# from the CCDC's data processing and validation procedures.
#
#######################################################################

data_COMCEO
_chemical_formula_moiety         'C19 H14 O3'
_chemical_name_systematic        'methyl 4-benzoyl-2-naphthoate'
_symmetry_cell_setting           triclinic
_symmetry_space_group_name_H-M   'P -1'
_symmetry_Int_Tables_number      2
_space_group_name_Hall           '-P 1'
loop_
_symmetry_equiv_pos_site_id
_symmetry_equiv_pos_as_xyz
1 x,y,z
2 -x,-y,-z
_cell_length_a                   8.3228(8)
_cell_length_b                   8.8321(9)
_cell_length_c                   10.8845(11)
_cell_angle_alpha                86.924(3)
_cell_angle_beta                 69.716(2)
_cell_angle_gamma                76.474(3)
_cell_volume                     729.333
_exptl_crystal_colour            colorless
_exptl_crystal_description       prism
_cell_formula_units_Z            2
loop_
_atom_site_label
_atom_site_type_symbol
_atom_site_fract_x
_atom_site_fract_y
_atom_site_fract_z
C1 C 0.2365(3) 0.4236(2) 1.21174(18)
H1 H 0.1690 0.4408 1.3056
H2 H 0.3574 0.4327 1.1950
H3 H 0.2381 0.3192 1.1844
C2 C 0.23497(19) 0.53100(19) 1.00852(16)
C3 C 0.14588(19) 0.65779(18) 0.94276(14)
C4 C -0.01184(19) 0.75691(19) 1.00824(15)
H4 H -0.0672 0.7457 1.0995
C5 C -0.09371(19) 0.87573(19) 0.94224(16)
C6 C -0.2554(2) 0.9790(2) 1.01110(18)
H5 H -0.3111 0.9675 1.1023
C7 C -0.3319(2) 1.0953(2) 0.9470(2)
H6 H -0.4396 1.1652 0.9939
C8 C -0.2519(2) 1.1116(2) 0.8125(2)
H7 H -0.3058 1.1928 0.7689
C9 C -0.0973(2) 1.0124(2) 0.74260(18)
H8 H -0.0457 1.0249 0.6511
C10 C -0.01315(19) 0.89140(19) 0.80538(15)
C11 C 0.15260(19) 0.78612(19) 0.73875(15)
C12 C 0.22846(19) 0.67516(18) 0.80758(14)
H9 H 0.3395 0.6083 0.7630
C13 C 0.2386(2) 0.7832(2) 0.59285(15)
C14 C 0.43330(19) 0.76628(19) 0.53704(14)
C15 C 0.5221(2) 0.8305(2) 0.60050(15)
H10 H 0.4593 0.8830 0.6831
C16 C 0.7019(2) 0.8181(2) 0.54371(16)
H11 H 0.7613 0.8646 0.5864
C17 C 0.7947(2) 0.7387(2) 0.42560(18)
H12 H 0.9182 0.7286 0.3878
C18 C 0.7087(2) 0.6739(2) 0.36240(18)
H13 H 0.7732 0.6186 0.2812
C19 C 0.5275(2) 0.6890(2) 0.41663(16)
H14 H 0.4682 0.6464 0.3714
O1 O 0.15550(15) 0.53904(15) 1.13837(11)
O2 O 0.36398(15) 0.43249(15) 0.95112(12)
O3 O 0.15269(16) 0.78879(18) 0.52080(11)
loop_
_geom_bond_atom_site_label_1
_geom_bond_atom_site_label_2
_geom_bond_site_symmetry_1
_geom_bond_site_symmetry_2
C1 H1 1_555 1_555
H2 C1 1_555 1_555
H3 C1 1_555 1_555
C2 C3 1_555 1_555
C3 C4 1_555 1_555
C4 H4 1_555 1_555
C5 C4 1_555 1_555
C6 C5 1_555 1_555
H5 C6 1_555 1_555
C7 C6 1_555 1_555
H6 C7 1_555 1_555
C8 C7 1_555 1_555
H7 C8 1_555 1_555
C9 C8 1_555 1_555
H8 C9 1_555 1_555
C10 C5 1_555 1_555
C11 C10 1_555 1_555
C12 C3 1_555 1_555
H9 C12 1_555 1_555
C13 C11 1_555 1_555
C14 C13 1_555 1_555
C15 C14 1_555 1_555
H10 C15 1_555 1_555
C16 C15 1_555 1_555
H11 C16 1_555 1_555
C17 C16 1_555 1_555
H12 C17 1_555 1_555
C18 C17 1_555 1_555
H13 C18 1_555 1_555
C19 C14 1_555 1_555
H14 C19 1_555 1_555
O1 C1 1_555 1_555
O2 C2 1_555 1_555
O3 C13 1_555 1_555
C2 O1 1_555 1_555
C9 C10 1_555 1_555
C11 C12 1_555 1_555
C18 C19 1_555 1_555

#END
