
#######################################################################
#
#                 Cambridge Crystallographic Data Centre
#                                CCDC 
#
#######################################################################
#
# If this CIF has been generated from an entry in the Cambridge 
# Structural Database, then it will include bibliographic, chemical, 
# crystal, experimental, refinement or atomic coordinate data resulting 
# from the CCDC's data processing and validation procedures.
#
#######################################################################

data_COMCIS
_chemical_formula_moiety         'C19 H14 I1 N1 O5,H2 O1'
_chemical_name_systematic        
'methyl 2-(3-(iodo(phenyl)methylene)-6-nitro-1,3-dihydro-2-benzofuran-1-yl)acrylate monohydrate'
_symmetry_cell_setting           monoclinic
_symmetry_space_group_name_H-M   'P 21'
_symmetry_Int_Tables_number      4
_space_group_name_Hall           'P 2yb'
loop_
_symmetry_equiv_pos_site_id
_symmetry_equiv_pos_as_xyz
1 x,y,z
2 -x,1/2+y,-z
_cell_length_a                   5.8687(3)
_cell_length_b                   10.7289(6)
_cell_length_c                   27.8199(12)
_cell_angle_alpha                90
_cell_angle_beta                 95.947(3)
_cell_angle_gamma                90
_cell_volume                     1742.24
_exptl_crystal_colour            yellow
_exptl_crystal_description       prism
_cell_formula_units_Z            4
loop_
_atom_site_label
_atom_site_type_symbol
_atom_site_fract_x
_atom_site_fract_y
_atom_site_fract_z
C1 C 0.443(5) 0.519(3) 0.4266(10)
C2 C 0.274(3) 0.399(2) 0.4247(7)
C3 C 0.326(5) 0.313(2) 0.3991(9)
H1 H 0.4634 0.3112 0.3838
C4 C 0.156(5) 0.213(3) 0.3943(9)
H2 H 0.1826 0.1424 0.3751
C5 C -0.017(6) 0.218(4) 0.4141(10)
H3 H -0.1189 0.1493 0.4092
C6 C -0.079(5) 0.311(3) 0.4423(10)
H4 H -0.2191 0.3078 0.4568
C7 C 0.086(5) 0.422(5) 0.4503(10)
H5 H 0.0639 0.4937 0.4693
C8 C 0.537(5) 0.565(4) 0.3962(9)
C9 C 0.720(5) 0.650(3) 0.3900(10)
C10 C 0.863(5) 0.728(3) 0.4257(10)
H6 H 0.8348 0.7322 0.4587
C11 C 1.053(5) 0.802(3) 0.4067(11)
H7 H 1.1398 0.8584 0.4276
C12 C 1.102(5) 0.789(3) 0.3631(11)
C13 C 0.965(7) 0.715(4) 0.3285(15)
H8 H 1.0036 0.7068 0.2963
C14 C 0.781(5) 0.656(3) 0.3427(9)
C15 C 0.611(5) 0.583(3) 0.3130(9)
H9 H 0.5252 0.6364 0.2878
C16 C 0.719(5) 0.463(3) 0.2891(10)
C17 C 0.937(6) 0.405(5) 0.3041(13)
H10 H 0.9891 0.3376 0.2861
H11 H 1.0282 0.4352 0.3318
C18 C 0.576(4) 0.416(5) 0.2460(9)
C19 C 0.231(5) 0.427(5) 0.1969(11)
H12 H 0.0792 0.4620 0.1995
H13 H 0.2191 0.3362 0.1929
H14 H 0.2952 0.4629 0.1688
O1 O 1.408(4) 0.926(4) 0.3768(9)
O2 O 1.330(4) 0.852(3) 0.3032(8)
O3 O 0.377(4) 0.454(2) 0.2392(7)
O4 O 0.667(4) 0.332(3) 0.2158(8)
O5 O 0.459(4) 0.538(3) 0.3484(8)
I1 I 0.5359(4) 0.5741(14) 0.50465(7)
N1 N 1.290(5) 0.859(3) 0.3457(9)
O6 O 0.034(3) 0.259(2) 0.4969(6)
O7 O 0.030(3) 0.571(2) 0.4964(5)
C20 C 0.558(4) 0.978(3) 0.0641(9)
C21 C 0.714(4) 1.073(3) 0.0722(8)
C22 C 0.682(5) 1.185(2) 0.1051(9)
H15 H 0.5529 1.1845 0.1231
C23 C 0.836(5) 1.293(3) 0.1105(10)
H16 H 0.8141 1.3621 0.1309
C24 C 1.029(5) 1.283(4) 0.0805(10)
H17 H 1.1389 1.3480 0.0814
C25 C 1.053(5) 1.180(3) 0.0512(9)
H18 H 1.1801 1.1778 0.0326
C26 C 0.917(4) 1.092(3) 0.0483(8)
H19 H 0.9513 1.0271 0.0271
C27 C 0.442(4) 0.921(5) 0.1065(10)
C28 C 0.262(5) 0.834(3) 0.1088(10)
C29 C 0.102(6) 0.764(4) 0.0796(12)
H20 H 0.1235 0.7660 0.0462
C30 C -0.046(5) 0.705(3) 0.0881(11)
H21 H -0.1385 0.6606 0.0638
C31 C -0.086(6) 0.701(4) 0.1379(12)
C32 C 0.044(4) 0.765(3) 0.1733(9)
H22 H 0.0174 0.7620 0.2064
C33 C 0.229(7) 0.838(4) 0.1556(15)
C34 C 0.385(4) 0.933(4) 0.1861(9)
H23 H 0.4797 0.8832 0.2113
C35 C 0.282(5) 1.026(4) 0.2101(11)
C36 C 0.078(4) 1.067(3) 0.1984(9)
H24 H -0.0132 1.0327 0.1714
H25 H 0.0180 1.1316 0.2168
C37 C 0.401(6) 1.090(4) 0.2542(11)
C38 C 0.768(5) 1.089(4) 0.3023(10)
H26 H 0.9217 1.0522 0.3034
H27 H 0.6955 1.0624 0.3308
H28 H 0.7797 1.1797 0.3018
O8 O -0.336(5) 0.648(3) 0.1946(10)
O9 O -0.417(4) 0.578(3) 0.1225(8)
O10 O 0.342(4) 1.159(3) 0.2782(8)
O11 O 0.632(4) 1.047(3) 0.2593(7)
O12 O 0.532(3) 0.968(2) 0.1518(7)
I2 I 0.4649(2) 0.9175(14) -0.00112(4)
N2 N -0.287(5) 0.639(3) 0.1511(10)
loop_
_geom_bond_atom_site_label_1
_geom_bond_atom_site_label_2
_geom_bond_site_symmetry_1
_geom_bond_site_symmetry_2
C1 C2 1_555 1_555
C2 C3 1_555 1_555
C3 H1 1_555 1_555
C4 C3 1_555 1_555
H2 C4 1_555 1_555
C5 C4 1_555 1_555
H3 C5 1_555 1_555
C6 C5 1_555 1_555
H4 C6 1_555 1_555
C7 C2 1_555 1_555
H5 C7 1_555 1_555
C8 C1 1_555 1_555
C9 C8 1_555 1_555
C10 C9 1_555 1_555
H6 C10 1_555 1_555
C11 C10 1_555 1_555
H7 C11 1_555 1_555
C12 C11 1_555 1_555
C13 C12 1_555 1_555
H8 C13 1_555 1_555
C14 C9 1_555 1_555
C15 C14 1_555 1_555
H9 C15 1_555 1_555
C16 C15 1_555 1_555
C17 C16 1_555 1_555
H10 C17 1_555 1_555
H11 C17 1_555 1_555
C18 C16 1_555 1_555
C19 H12 1_555 1_555
H13 C19 1_555 1_555
H14 C19 1_555 1_555
O1 N1 1_555 1_555
O2 N1 1_555 1_555
O3 C18 1_555 1_555
O4 C18 1_555 1_555
O5 C8 1_555 1_555
I1 C1 1_555 1_555
N1 C12 1_555 1_555
C20 C21 1_555 1_555
C21 C22 1_555 1_555
C22 H15 1_555 1_555
C23 C22 1_555 1_555
H16 C23 1_555 1_555
C24 C23 1_555 1_555
H17 C24 1_555 1_555
C25 C24 1_555 1_555
H18 C25 1_555 1_555
C26 C21 1_555 1_555
H19 C26 1_555 1_555
C27 C20 1_555 1_555
C28 C27 1_555 1_555
C29 C28 1_555 1_555
H20 C29 1_555 1_555
C30 C29 1_555 1_555
H21 C30 1_555 1_555
C31 C30 1_555 1_555
C32 C31 1_555 1_555
H22 C32 1_555 1_555
C33 C28 1_555 1_555
C34 C33 1_555 1_555
H23 C34 1_555 1_555
C35 C34 1_555 1_555
C36 C35 1_555 1_555
H24 C36 1_555 1_555
H25 C36 1_555 1_555
C37 C35 1_555 1_555
C38 H26 1_555 1_555
H27 C38 1_555 1_555
H28 C38 1_555 1_555
O8 N2 1_555 1_555
O9 N2 1_555 1_555
O10 C37 1_555 1_555
O11 C37 1_555 1_555
O12 C27 1_555 1_555
I2 C20 1_555 1_555
N2 C31 1_555 1_555
C6 C7 1_555 1_555
C13 C14 1_555 1_555
C15 O5 1_555 1_555
C19 O3 1_555 1_555
C25 C26 1_555 1_555
C32 C33 1_555 1_555
C34 O12 1_555 1_555
C38 O11 1_555 1_555

#END
