
#######################################################################
#
#                 Cambridge Crystallographic Data Centre
#                                CCDC 
#
#######################################################################
#
# If this CIF has been generated from an entry in the Cambridge 
# Structural Database, then it will include bibliographic, chemical, 
# crystal, experimental, refinement or atomic coordinate data resulting 
# from the CCDC's data processing and validation procedures.
#
#######################################################################

data_COMQIE
_chemical_name_common            
'2,3,4,5-tetrakis(2-Hydroxyethylthio)tetrathiafulvalene tetrafluoroborate'
_chemical_formula_moiety         'C14 H20 O4 S8 1+,B1 F4 1-'
_chemical_name_systematic        
'4,5-bis((2-Hydroxyethyl)thio)-2-(4,5-bis((2-hydroxyethyl)thio)-1,3-dithiol-2-ylidene)-1,3-dithiole tetrafluoroborate'
_symmetry_cell_setting           triclinic
_symmetry_space_group_name_H-M   'P -1'
_symmetry_Int_Tables_number      2
_space_group_name_Hall           '-P 1'
loop_
_symmetry_equiv_pos_site_id
_symmetry_equiv_pos_as_xyz
1 x,y,z
2 -x,-y,-z
_cell_length_a                   9.7070(5)
_cell_length_b                   11.5750(6)
_cell_length_c                   11.5920(7)
_cell_angle_alpha                71.333(3)
_cell_angle_beta                 85.678(4)
_cell_angle_gamma                73.601(3)
_cell_volume                     1183.58
_exptl_crystal_colour            'dark green'
_exptl_crystal_description       block
_cell_formula_units_Z            2
loop_
_atom_site_label
_atom_site_type_symbol
_atom_site_fract_x
_atom_site_fract_y
_atom_site_fract_z
S1 S 0.31412(11) 0.71973(9) 0.86598(8)
S2 S 0.51616(10) 0.53811(9) 0.76734(8)
S3 S 0.19900(11) 0.49342(9) 1.05265(9)
S4 S 0.40813(11) 0.30952(9) 0.96116(8)
S5 S 0.37452(13) 0.94793(9) 0.68362(9)
S6 S 0.61704(13) 0.73837(11) 0.57268(9)
S7 S 0.06311(12) 0.29691(10) 1.21829(9)
S8 S 0.31853(13) 0.08637(10) 1.13017(9)
O1 O 0.2341(7) 0.8653(4) 0.4824(4)
H1 H 0.2185 0.8634 0.4145
O2 O 0.7894(4) 0.7111(4) 0.3641(3)
H2 H 0.8166 0.7417 0.2952
O3 O -0.1941(4) 0.3611(4) 1.3698(3)
H3 H -0.2005 0.2928 1.4168
O4 O 0.1144(4) 0.2241(4) 0.8847(3)
H4 H 0.0274 0.2520 0.8723
C1 C 0.3818(4) 0.5646(3) 0.8699(3)
C2 C 0.3337(4) 0.4655(3) 0.9513(3)
C3 C 0.4056(4) 0.7827(3) 0.7373(3)
C4 C 0.5021(4) 0.6984(3) 0.6914(3)
C5 C 0.1955(4) 0.3362(3) 1.1154(3)
C6 C 0.2942(4) 0.2501(3) 1.0732(3)
C7 C 0.2022(5) 0.9987(4) 0.6063(4)
H5 H 0.1565 1.0845 0.6042
H6 H 0.1425 0.9471 0.6536
C8 C 0.2087(7) 0.9902(5) 0.4798(5)
H7 H 0.1200 1.0398 0.4379
H8 H 0.2846 1.0241 0.4365
C9 C 0.6041(5) 0.6376(4) 0.4832(4)
H9 H 0.5070 0.6327 0.4829
H10 H 0.6651 0.5536 0.5173
C10 C 0.6517(6) 0.6946(5) 0.3574(4)
H11 H 0.6548 0.6410 0.3083
H12 H 0.5852 0.7753 0.3208
C11 C 0.0099(5) 0.4286(4) 1.2806(4)
H13 H -0.0526 0.5009 1.2249
H14 H 0.0930 0.4515 1.2949
C12 C -0.0675(5) 0.3859(5) 1.3979(4)
H15 H -0.0065 0.3109 1.4518
H16 H -0.0927 0.4506 1.4371
C13 C 0.2945(7) 0.0442(5) 0.9961(5)
H17 H 0.3250 -0.0464 1.0165
H18 H 0.3572 0.0774 0.9336
C14 C 0.1493(7) 0.0900(5) 0.9450(6)
H19 H 0.1430 0.0474 0.8877
H20 H 0.0821 0.0708 1.0094
F1 F 0.8136(7) 0.3574(4) 0.6852(5)
F2 F 0.8134(5) 0.2442(4) 0.8731(3)
F3 F 0.8909(4) 0.1478(4) 0.7339(4)
F4 F 0.6640(4) 0.2395(5) 0.7453(6)
B1 B 0.7951(5) 0.2473(4) 0.7570(4)
loop_
_geom_bond_atom_site_label_1
_geom_bond_atom_site_label_2
_geom_bond_site_symmetry_1
_geom_bond_site_symmetry_2
S1 C1 1_555 1_555
S2 C1 1_555 1_555
S3 C2 1_555 1_555
S4 C2 1_555 1_555
S5 C3 1_555 1_555
S6 C4 1_555 1_555
S7 C5 1_555 1_555
S8 C6 1_555 1_555
F1 B1 1_555 1_555
F2 B1 1_555 1_555
F3 B1 1_555 1_555
F4 B1 1_555 1_555
O1 H1 1_555 1_555
O2 H2 1_555 1_555
O3 H3 1_555 1_555
O4 H4 1_555 1_555
C1 C2 1_555 1_555
C3 S1 1_555 1_555
C4 S2 1_555 1_555
C5 S3 1_555 1_555
C6 S4 1_555 1_555
C7 S5 1_555 1_555
H5 C7 1_555 1_555
H6 C7 1_555 1_555
C8 O1 1_555 1_555
H7 C8 1_555 1_555
H8 C8 1_555 1_555
C9 S6 1_555 1_555
H9 C9 1_555 1_555
H10 C9 1_555 1_555
C10 O2 1_555 1_555
H11 C10 1_555 1_555
H12 C10 1_555 1_555
C11 S7 1_555 1_555
H13 C11 1_555 1_555
H14 C11 1_555 1_555
C12 O3 1_555 1_555
H15 C12 1_555 1_555
H16 C12 1_555 1_555
C13 S8 1_555 1_555
H17 C13 1_555 1_555
H18 C13 1_555 1_555
C14 O4 1_555 1_555
H19 C14 1_555 1_555
H20 C14 1_555 1_555
C3 C4 1_555 1_555
C5 C6 1_555 1_555
C7 C8 1_555 1_555
C9 C10 1_555 1_555
C11 C12 1_555 1_555
C13 C14 1_555 1_555

#END
