
#######################################################################
#
#                 Cambridge Crystallographic Data Centre
#                                CCDC 
#
#######################################################################
#
# If this CIF has been generated from an entry in the Cambridge 
# Structural Database, then it will include bibliographic, chemical, 
# crystal, experimental, refinement or atomic coordinate data resulting 
# from the CCDC's data processing and validation procedures.
#
#######################################################################

data_COMQOM
_chemical_formula_moiety         'C24 H20 Br1 N1 O4 S1'
_chemical_name_systematic        
5-benzoyl-4-(2-bromophenyl)-1-((4-methylphenyl)sulfonyl)pyrrolidin-2-one
_symmetry_cell_setting           orthorhombic
_symmetry_space_group_name_H-M   'P 21 21 21'
_symmetry_Int_Tables_number      19
_space_group_name_Hall           'P 2ac 2ab'
loop_
_symmetry_equiv_pos_site_id
_symmetry_equiv_pos_as_xyz
1 x,y,z
2 1/2-x,-y,1/2+z
3 -x,1/2+y,1/2-z
4 1/2+x,1/2-y,-z
_cell_length_a                   7.8762(16)
_cell_length_b                   14.578(3)
_cell_length_c                   18.755(4)
_cell_angle_alpha                90
_cell_angle_beta                 90
_cell_angle_gamma                90
_cell_volume                     2153.43
_exptl_crystal_colour            colorless
_exptl_crystal_description       block
_cell_formula_units_Z            4
loop_
_atom_site_label
_atom_site_type_symbol
_atom_site_fract_x
_atom_site_fract_y
_atom_site_fract_z
Br1 Br 1.06487(4) 0.17934(2) 0.85315(2)
S1 S 0.58783(11) 0.46811(5) 0.70024(4)
O1 O 0.3205(3) 0.39809(18) 0.80354(14)
O2 O 0.5393(3) 0.54937(15) 0.73681(13)
O3 O 0.7501(3) 0.46246(19) 0.66549(13)
O4 O 0.5723(3) 0.23161(16) 0.67373(12)
N1 N 0.5934(3) 0.38278(17) 0.75997(13)
C1 C 0.7294(4) 0.3149(2) 0.76070(15)
H1 H 0.8415 0.3442 0.7608
C2 C 0.6954(4) 0.2621(2) 0.83211(16)
H2 H 0.7271 0.1976 0.8261
C3 C 0.5014(4) 0.2695(2) 0.83898(17)
H3 H 0.4466 0.2171 0.8169
H4 H 0.4682 0.2720 0.8887
C4 C 0.4522(4) 0.3569(2) 0.80123(16)
C5 C 0.7120(4) 0.2458(2) 0.69915(16)
C6 C 0.8639(4) 0.1932(2) 0.67884(15)
C7 C 0.8496(5) 0.0987(2) 0.66904(16)
H5 H 0.7446 0.0702 0.6738
C8 C 0.9915(5) 0.0474(2) 0.65227(18)
H6 H 0.9825 -0.0158 0.6465
C9 C 1.1469(5) 0.0902(3) 0.6441(2)
H7 H 1.2423 0.0553 0.6330
C10 C 1.1625(4) 0.1841(3) 0.65204(18)
H8 H 1.2669 0.2124 0.6450
C11 C 1.0221(5) 0.2356(2) 0.67058(18)
H9 H 1.0327 0.2985 0.6776
C12 C 0.7957(4) 0.3027(2) 0.89318(15)
C13 C 0.9621(5) 0.2745(2) 0.90733(15)
C14 C 1.0578(5) 0.3131(2) 0.96142(16)
H10 H 1.1682 0.2930 0.9695
C15 C 0.9892(6) 0.3815(3) 1.00320(18)
H11 H 1.0537 0.4081 1.0393
C16 C 0.8263(6) 0.4103(3) 0.99161(18)
H12 H 0.7797 0.4559 1.0202
C17 C 0.7297(5) 0.3714(2) 0.93712(17)
H13 H 0.6190 0.3916 0.9299
C18 C 0.4286(5) 0.4415(2) 0.63811(15)
C19 C 0.2656(4) 0.4742(2) 0.64930(18)
H14 H 0.2393 0.5074 0.6902
C20 C 0.1423(5) 0.4563(2) 0.59828(18)
H15 H 0.0327 0.4784 0.6051
C21 C 0.1794(5) 0.4062(3) 0.53705(17)
C22 C 0.3447(5) 0.3744(3) 0.52720(18)
H16 H 0.3713 0.3413 0.4863
C23 C 0.4686(5) 0.3913(2) 0.57691(16)
H17 H 0.5783 0.3695 0.5699
C24 C 0.0426(6) 0.3859(3) 0.4838(2)
H18 H -0.0616 0.3729 0.5083
H19 H 0.0748 0.3337 0.4556
H20 H 0.0271 0.4381 0.4532
loop_
_geom_bond_atom_site_label_1
_geom_bond_atom_site_label_2
_geom_bond_site_symmetry_1
_geom_bond_site_symmetry_2
Br1 C13 1_555 1_555
S1 O2 1_555 1_555
O1 C4 1_555 1_555
O3 S1 1_555 1_555
O4 C5 1_555 1_555
N1 S1 1_555 1_555
C1 N1 1_555 1_555
H1 C1 1_555 1_555
C2 C1 1_555 1_555
H2 C2 1_555 1_555
C3 C2 1_555 1_555
H3 C3 1_555 1_555
H4 C3 1_555 1_555
C4 N1 1_555 1_555
C5 C1 1_555 1_555
C6 C5 1_555 1_555
C7 C6 1_555 1_555
H5 C7 1_555 1_555
C8 C7 1_555 1_555
H6 C8 1_555 1_555
C9 C8 1_555 1_555
H7 C9 1_555 1_555
C10 C9 1_555 1_555
H8 C10 1_555 1_555
C11 C6 1_555 1_555
H9 C11 1_555 1_555
C12 C2 1_555 1_555
C13 C12 1_555 1_555
C14 C13 1_555 1_555
H10 C14 1_555 1_555
C15 C14 1_555 1_555
H11 C15 1_555 1_555
C16 C15 1_555 1_555
H12 C16 1_555 1_555
C17 C12 1_555 1_555
H13 C17 1_555 1_555
C18 S1 1_555 1_555
C19 C18 1_555 1_555
H14 C19 1_555 1_555
C20 C19 1_555 1_555
H15 C20 1_555 1_555
C21 C20 1_555 1_555
C22 C21 1_555 1_555
H16 C22 1_555 1_555
C23 C18 1_555 1_555
H17 C23 1_555 1_555
C24 C21 1_555 1_555
H18 C24 1_555 1_555
H19 C24 1_555 1_555
H20 C24 1_555 1_555
C3 C4 1_555 1_555
C10 C11 1_555 1_555
C16 C17 1_555 1_555
C22 C23 1_555 1_555

#END
