
#######################################################################
#
#                 Cambridge Crystallographic Data Centre
#                                CCDC 
#
#######################################################################
#
# If this CIF has been generated from an entry in the Cambridge 
# Structural Database, then it will include bibliographic, chemical, 
# crystal, experimental, refinement or atomic coordinate data resulting 
# from the CCDC's data processing and validation procedures.
#
#######################################################################

data_COMWIK
_chemical_formula_moiety         'C14 H21 Cl1 N1 O4 P1,H2 O1'
_chemical_name_systematic        
'O-p-Tolyl-O-\a-diethylammoniomethyl-\b-chlorovinyl-phosphate monohydrate'
_symmetry_cell_setting           monoclinic
_symmetry_space_group_name_H-M   'C c'
_symmetry_Int_Tables_number      9
_space_group_name_Hall           'C -2yc'
loop_
_symmetry_equiv_pos_site_id
_symmetry_equiv_pos_as_xyz
1 x,y,z
2 1/2+x,1/2+y,z
3 x,-y,1/2+z
4 1/2+x,1/2-y,1/2+z
_cell_length_a                   7.77(1)
_cell_length_b                   27.48(3)
_cell_length_c                   7.893(9)
_cell_angle_alpha                90
_cell_angle_beta                 92.5(1)
_cell_angle_gamma                90
_cell_volume                     1683.71
_cell_formula_units_Z            4
loop_
_atom_site_label
_atom_site_type_symbol
_atom_site_fract_x
_atom_site_fract_y
_atom_site_fract_z
Cl1 Cl 0.3344(1) 0.4405(1) 0.0357(1)
P1 P 0.2821(1) 0.3432 -0.4124(1)
O1 O 0.4265(3) 0.3121(1) -0.3517(4)
O2 O 0.1219(3) 0.3209(1) -0.4891(3)
O3 O 0.3394(3) 0.3839(1) -0.5424(3)
O4 O 0.2261(3) 0.3789(1) -0.2584(3)
N1 N -0.0802(4) 0.3170(1) -0.2177(4)
C1 C 0.1763(4) 0.3623(1) -0.1032(4)
C2 C 0.2131(5) 0.3878(1) 0.0360(5)
C3 C 0.0760(4) 0.3158(1) -0.0973(4)
C4 C -0.1808(5) 0.2705(1) -0.2093(5)
C5 C -0.0859(5) 0.2283(1) -0.2883(5)
C6 C -0.1925(5) 0.3612(1) -0.1958(5)
C7 C -0.2760(6) 0.3628(2) -0.0259(6)
C8 C 0.4974(5) 0.4081(1) -0.5203(5)
C9 C 0.5101(5) 0.4482(1) -0.4129(5)
C10 C 0.6647(5) 0.4730(1) -0.3985(5)
C11 C 0.8068(5) 0.4584(1) -0.4855(5)
C12 C 0.7904(5) 0.4178(2) -0.5896(5)
C13 C 0.6364(5) 0.3924(1) -0.6078(5)
C14 C 0.9747(6) 0.4856(2) -0.4684(7)
H1 H 0.163(7) 0.380(2) 0.119(7)
H2 H 0.024(6) 0.307(2) 0.013(7)
H3 H 0.145(4) 0.290(1) -0.127(5)
H4 H -0.213(8) 0.266(2) -0.097(8)
H5 H -0.287(5) 0.274(1) -0.272(6)
H6 H 0.037(6) 0.225(2) -0.233(7)
H7 H -0.154(5) 0.198(1) -0.271(5)
H8 H -0.052(6) 0.237(2) -0.396(7)
H9 H -0.112(6) 0.390(2) -0.216(6)
H10 H -0.281(5) 0.361(1) -0.278(6)
H11 H -0.356(7) 0.332(2) -0.001(8)
H12 H -0.181(7) 0.363(2) 0.048(8)
H13 H -0.341(6) 0.394(2) -0.023(6)
H14 H 0.414(6) 0.462(2) -0.360(7)
H15 H 0.671(6) 0.505(2) -0.333(7)
H16 H 0.879(6) 0.407(2) -0.654(6)
H17 H 0.633(8) 0.360(2) -0.669(8)
H18 H 1.046(9) 0.481(2) -0.367(10)
H19 H 1.061(9) 0.475(2) -0.536(11)
H20 H 0.987(9) 0.516(2) -0.467(10)
H21 H -0.032(5) 0.320(2) -0.329(6)
O5 O 0.3838(4) 0.2172(1) -0.2318(4)
H22 H 0.404(6) 0.247(2) -0.252(6)
H23 H 0.464(6) 0.207(2) -0.184(7)
loop_
_geom_bond_atom_site_label_1
_geom_bond_atom_site_label_2
_geom_bond_site_symmetry_1
_geom_bond_site_symmetry_2
Cl1 C2 1_555 1_555
P1 O1 1_555 1_555
O2 P1 1_555 1_555
O3 P1 1_555 1_555
O4 P1 1_555 1_555
O5 H22 1_555 1_555
N1 C3 1_555 1_555
C1 O4 1_555 1_555
C2 C1 1_555 1_555
C3 C1 1_555 1_555
C4 N1 1_555 1_555
C5 C4 1_555 1_555
C6 N1 1_555 1_555
C7 C6 1_555 1_555
C8 O3 1_555 1_555
C9 C8 1_555 1_555
C10 C9 1_555 1_555
C11 C10 1_555 1_555
C12 C11 1_555 1_555
C13 C8 1_555 1_555
C14 C11 1_555 1_555
H1 C2 1_555 1_555
H2 C3 1_555 1_555
H3 C3 1_555 1_555
H4 C4 1_555 1_555
H5 C4 1_555 1_555
H6 C5 1_555 1_555
H7 C5 1_555 1_555
H8 C5 1_555 1_555
H9 C6 1_555 1_555
H10 C6 1_555 1_555
H11 C7 1_555 1_555
H12 C7 1_555 1_555
H13 C7 1_555 1_555
H14 C9 1_555 1_555
H15 C10 1_555 1_555
H16 C12 1_555 1_555
H17 C13 1_555 1_555
H18 C14 1_555 1_555
H19 C14 1_555 1_555
H20 C14 1_555 1_555
H21 N1 1_555 1_555
H23 O5 1_555 1_555
C12 C13 1_555 1_555

#END
