
#######################################################################
#
#                 Cambridge Crystallographic Data Centre
#                                CCDC 
#
#######################################################################
#
# If this CIF has been generated from an entry in the Cambridge 
# Structural Database, then it will include bibliographic, chemical, 
# crystal, experimental, refinement or atomic coordinate data resulting 
# from the CCDC's data processing and validation procedures.
#
#######################################################################

data_COMXUX
_chemical_formula_moiety         'C12 F22'
_chemical_name_systematic        
Perfluoro-1,3,3-trimethyl-4-ethyl-2-isopropylcyclobut-1-ene
_symmetry_cell_setting           monoclinic
_symmetry_space_group_name_H-M   'P 21/c'
_symmetry_Int_Tables_number      14
_space_group_name_Hall           '-P 2ybc'
loop_
_symmetry_equiv_pos_site_id
_symmetry_equiv_pos_as_xyz
1 x,y,z
2 -x,1/2+y,1/2-z
3 -x,-y,-z
4 x,1/2-y,1/2+z
_cell_length_a                   9.128(7)
_cell_length_b                   22.25(2)
_cell_length_c                   9.315(6)
_cell_angle_alpha                90
_cell_angle_beta                 118.85(5)
_cell_angle_gamma                90
_cell_volume                     1657.05
_cell_formula_units_Z            4
loop_
_atom_site_label
_atom_site_type_symbol
_atom_site_fract_x
_atom_site_fract_y
_atom_site_fract_z
F1 F 0.7563(4) 0.1749(1) 0.0062(4)
F2 F 0.5124(4) 0.0719(2) -0.0660(4)
F3 F 0.7432(5) 0.0208(2) 0.0321(5)
F4 F 0.6154(5) 0.0316(2) -0.2808(5)
F5 F 0.8214(5) 0.0922(2) -0.1745(5)
F6 F 0.5701(5) 0.1259(2) -0.2836(4)
F7 F 0.6661(4) 0.0398(2) 0.2676(5)
F8 F 0.4534(4) 0.0983(2) 0.1729(5)
F9 F 0.6381(5) 0.1031(2) 0.4263(4)
F10 F 0.5013(4) 0.2067(2) 0.0578(5)
F11 F 0.7389(4) 0.2474(2) 0.2228(5)
F12 F 0.5792(5) 0.2150(2) 0.3138(5)
F13 F 0.9651(5) 0.0570(2) 0.6034(5)
F14 F 1.1320(6) 0.1142(2) 0.7993(5)
F15 F 1.2066(5) 0.0780(2) 0.6330(6)
F16 F 1.2480(5) 0.1857(2) 0.5246(9)
F17 F 1.2090(8) 0.2206(3) 0.7134(6)
F18 F 1.0632(5) 0.2506(2) 0.4710(6)
F19 F 0.8918(4) 0.1801(2) 0.5727(4)
F20 F 1.0640(6) 0.0486(2) 0.1380(8)
F21 F 1.2176(5) 0.0837(3) 0.3627(6)
F22 F 1.134 0.144 0.174
C1 C 0.9393(7) 0.1164(2) 0.2354(7)
C2 C 0.9068(6) 0.1378(2) 0.3528(7)
C3 C 0.7163(6) 0.1413(2) 0.2362(7)
C4 C 0.7637(7) 0.1238(3) 0.0957(7)
C5 C 0.6754(7) 0.0743(3) -0.0285(8)
C6 C 0.6720(7) 0.0821(3) -0.1939(8)
C7 C 0.6151(7) 0.0952(3) 0.2769(7)
C8 C 0.6320(7) 0.2037(3) 0.2056(8)
C9 C 1.0963(7) 0.0984(3) 0.2286(8)
C10 C 1.0019(7) 0.1546(3) 0.5316(7)
C11 C 1.1350(8) 0.2045(3) 0.5630(9)
C12 C 1.0806(8) 0.0999(3) 0.6453(8)
loop_
_geom_bond_atom_site_label_1
_geom_bond_atom_site_label_2
_geom_bond_site_symmetry_1
_geom_bond_site_symmetry_2
F1 C4 1_555 1_555
F2 C5 1_555 1_555
F3 C5 1_555 1_555
F4 C6 1_555 1_555
F5 C6 1_555 1_555
F6 C6 1_555 1_555
F7 C7 1_555 1_555
F8 C7 1_555 1_555
F9 C7 1_555 1_555
F10 C8 1_555 1_555
F11 C8 1_555 1_555
F12 C8 1_555 1_555
F13 C12 1_555 1_555
F14 C12 1_555 1_555
F15 C12 1_555 1_555
F16 C11 1_555 1_555
F17 C11 1_555 1_555
F18 C11 1_555 1_555
F19 C10 1_555 1_555
F20 C9 1_555 1_555
F21 C9 1_555 1_555
F22 C9 1_555 1_555
C1 C2 1_555 1_555
C2 C3 1_555 1_555
C3 C4 1_555 1_555
C4 C1 1_555 1_555
C5 C4 1_555 1_555
C6 C5 1_555 1_555
C7 C3 1_555 1_555
C8 C3 1_555 1_555
C9 C1 1_555 1_555
C10 C2 1_555 1_555
C11 C10 1_555 1_555
C12 C10 1_555 1_555

#END
