
#######################################################################
#
#                 Cambridge Crystallographic Data Centre
#                                CCDC 
#
#######################################################################
#
# If this CIF has been generated from an entry in the Cambridge 
# Structural Database, then it will include bibliographic, chemical, 
# crystal, experimental, refinement or atomic coordinate data resulting 
# from the CCDC's data processing and validation procedures.
#
#######################################################################

data_CONBAI01
_chemical_formula_moiety         'C12 H14 F2 N4 O4'
_chemical_name_systematic        
4a,4b-Difluoro-1,3,6,8-tetramethylhexahydropyrimido[5',4':3,4]cyclobuta[1,2-d]pyrimidine-2,4,5,7(3H,6H)-tetrone
_symmetry_cell_setting           orthorhombic
_symmetry_space_group_name_H-M   'P b c a'
_symmetry_Int_Tables_number      61
_space_group_name_Hall           '-P 2ac 2ab'
loop_
_symmetry_equiv_pos_site_id
_symmetry_equiv_pos_as_xyz
1 x,y,z
2 1/2-x,-y,1/2+z
3 -x,1/2+y,1/2-z
4 1/2+x,1/2-y,-z
5 -x,-y,-z
6 1/2+x,y,1/2-z
7 x,1/2-y,1/2+z
8 1/2-x,1/2+y,z
_cell_length_a                   7.8072(10)
_cell_length_b                   13.9458(14)
_cell_length_c                   25.356(2)
_cell_angle_alpha                90
_cell_angle_beta                 90
_cell_angle_gamma                90
_cell_volume                     2760.7
_exptl_crystal_colour            colorless
_exptl_crystal_description       needle
_cell_formula_units_Z            8
loop_
_atom_site_label
_atom_site_type_symbol
_atom_site_fract_x
_atom_site_fract_y
_atom_site_fract_z
F1 F 1.0742(2) 0.45775(13) 0.21187(7)
F2 F 1.1811(2) 0.43115(14) 0.11492(7)
N1 N 1.0377(3) 0.70484(18) 0.18898(10)
N2 N 0.7827(3) 0.63172(19) 0.15880(9)
N3 N 0.9952(3) 0.61474(17) 0.04983(9)
N4 N 0.7917(3) 0.49514(18) 0.06946(9)
O1 O 1.2560(3) 0.61781(17) 0.22291(8)
O2 O 0.8064(3) 0.79145(17) 0.16441(10)
O3 O 1.2545(3) 0.6199(2) 0.08872(9)
O4 O 0.7506(3) 0.59755(19) 0.00237(9)
C1 C 1.1197(4) 0.6215(2) 0.19982(11)
C2 C 0.8687(4) 0.7124(2) 0.17023(12)
C3 C 0.8421(4) 0.5361(2) 0.16882(11)
H1 H 0.7744 0.5022 0.1955
C4 C 1.0339(4) 0.5334(2) 0.17956(11)
C5 C 1.1142(4) 0.5845(2) 0.08541(11)
C6 C 0.8364(4) 0.5696(2) 0.03884(12)
C7 C 0.8770(4) 0.4745(2) 0.11801(11)
H2 H 0.8649 0.4062 0.1264
C8 C 1.0627(4) 0.5030(2) 0.12115(11)
C9 C 1.1277(5) 0.7950(3) 0.20159(17)
H3 H 1.1014 0.8137 0.2371
H4 H 1.0913 0.8443 0.1777
H5 H 1.2490 0.7855 0.1982
C10 C 0.5995(4) 0.6420(3) 0.14684(15)
H6 H 0.5490 0.6873 0.1707
H7 H 0.5438 0.5810 0.1507
H8 H 0.5858 0.6643 0.1113
C11 C 1.0381(5) 0.6980(2) 0.01706(14)
H9 H 1.1175 0.7383 0.0356
H10 H 0.9358 0.7336 0.0094
H11 H 1.0891 0.6766 -0.0153
C12 C 0.6284(4) 0.4473(3) 0.05793(14)
H12 H 0.5353 0.4887 0.0675
H13 H 0.6211 0.3888 0.0778
H14 H 0.6222 0.4329 0.0210
loop_
_geom_bond_atom_site_label_1
_geom_bond_atom_site_label_2
_geom_bond_site_symmetry_1
_geom_bond_site_symmetry_2
F1 C4 1_555 1_555
F2 C8 1_555 1_555
N1 C1 1_555 1_555
N2 C2 1_555 1_555
N3 C5 1_555 1_555
N4 C6 1_555 1_555
O1 C1 1_555 1_555
O2 C2 1_555 1_555
O3 C5 1_555 1_555
O4 C6 1_555 1_555
C1 C4 1_555 1_555
C2 N1 1_555 1_555
C3 N2 1_555 1_555
H1 C3 1_555 1_555
C4 C3 1_555 1_555
C5 C8 1_555 1_555
C6 N3 1_555 1_555
C7 N4 1_555 1_555
H2 C7 1_555 1_555
C8 C4 1_555 1_555
C9 N1 1_555 1_555
H3 C9 1_555 1_555
H4 C9 1_555 1_555
H5 C9 1_555 1_555
C10 N2 1_555 1_555
H6 C10 1_555 1_555
H7 C10 1_555 1_555
H8 C10 1_555 1_555
C11 N3 1_555 1_555
H9 C11 1_555 1_555
H10 C11 1_555 1_555
H11 C11 1_555 1_555
C12 N4 1_555 1_555
H12 C12 1_555 1_555
H13 C12 1_555 1_555
H14 C12 1_555 1_555
C3 C7 1_555 1_555
C7 C8 1_555 1_555

#END
