
#######################################################################
#
#                 Cambridge Crystallographic Data Centre
#                                CCDC 
#
#######################################################################
#
# If this CIF has been generated from an entry in the Cambridge 
# Structural Database, then it will include bibliographic, chemical, 
# crystal, experimental, refinement or atomic coordinate data resulting 
# from the CCDC's data processing and validation procedures.
#
#######################################################################

data_CONHOC
_chemical_formula_moiety         'C38 H50 N4'
_chemical_name_systematic        
3,13-Dimethylene-2,2',7,8,12,12',17,18-octaethylporphyrin
_symmetry_cell_setting           triclinic
_symmetry_space_group_name_H-M   'P -1'
_symmetry_Int_Tables_number      2
_space_group_name_Hall           '-P 1'
loop_
_symmetry_equiv_pos_site_id
_symmetry_equiv_pos_as_xyz
1 x,y,z
2 -x,-y,-z
_cell_length_a                   8.655(2)
_cell_length_b                   13.492(4)
_cell_length_c                   7.856(5)
_cell_angle_alpha                105.83(4)
_cell_angle_beta                 104.43(4)
_cell_angle_gamma                97.23(2)
_cell_volume                     836.037
_exptl_crystal_colour            'dark green'
_cell_formula_units_Z            1
loop_
_atom_site_label
_atom_site_type_symbol
_atom_site_fract_x
_atom_site_fract_y
_atom_site_fract_z
N1 N 1.09807(43) 1.16278(27) 1.12892(48)
N2 N 1.09932(43) 0.97459(29) 1.25121(47)
C1 C 1.08280(55) 1.23736(34) 1.04342(64)
C2 C 1.16542(62) 1.34799(35) 1.17194(67)
C3 C 1.23193(58) 1.32672(36) 1.35250(67)
C4 C 1.18494(55) 1.21146(35) 1.31061(63)
C5 C 1.22238(56) 1.15929(38) 1.43944(62)
C6 C 1.18644(52) 1.05192(36) 1.41626(60)
C7 C 1.22865(53) 0.99975(40) 1.55158(59)
C8 C 1.16725(56) 0.89338(39) 1.46546(63)
C9 C 1.08433(53) 0.87767(37) 1.27577(63)
C10 C 0.99884(58) 1.21752(37) 0.85950(68)
C11 C 1.29768(94) 1.40178(50) 1.1014(10)
C12 C 1.41978(99) 1.34840(62) 1.0784(12)
C13 C 1.04863(92) 1.42384(53) 1.1823(10)
C14 C 0.90642(92) 1.38998(42) 1.23532(83)
C15 C 1.31141(76) 1.39691(40) 1.51226(80)
C16 C 1.32180(63) 1.05225(42) 1.75212(67)
C17 C 1.50651(71) 1.06745(50) 1.79345(74)
C18 C 1.18362(64) 0.80582(43) 1.54886(71)
C19 C 1.31880(76) 0.75096(50) 1.50699(97)
H1 H 1.281671 1.203114 1.561534
H2 H 0.997358 1.277779 0.818851
H3 H 1.245339 1.410022 0.986693
H4 H 1.347249 1.469532 1.188587
H5 H 1.372609 1.28129 0.988373
H6 H 1.492641 1.387310 1.035255
H7 H 1.475401 1.341311 1.191993
H8 H 1.107680 1.489816 1.269897
H9 H 1.012775 1.433191 1.064423
H10 H 0.941016 1.381973 1.354200
H11 H 0.841398 1.441757 1.238212
H12 H 0.845387 1.324916 1.147159
H13 H 1.345596 1.375540 1.618871
H14 H 1.333915 1.469292 1.522050
H15 H 1.288109 1.010988 1.821782
H16 H 1.295401 1.119392 1.791300
H17 H 1.535073 1.000906 1.757653
H18 H 1.556623 1.101202 1.922911
H19 H 1.542416 1.110057 1.726961
H20 H 1.083559 0.755482 1.499895
H21 H 1.206209 0.834017 1.679091
H22 H 1.296342 0.721887 1.377342
H23 H 1.324646 0.696593 1.562593
H24 H 1.419480 0.800735 1.557252
H25 H 1.056589 0.986668 1.136379
C10A C 1.00116(58) 0.78248(37) 1.14050(68)
C9A C 0.91567(53) 1.12233(37) 0.72423(63)
C1A C 0.91720(55) 0.76264(34) 0.95658(64)
H2A H 1.002642 0.722221 1.181149
N2A N 0.90068(43) 1.02541(29) 0.74879(47)
C8A C 0.83275(56) 1.10662(39) 0.53454(63)
N1A N 0.90193(43) 0.83722(27) 0.87108(48)
C2A C 0.83458(62) 0.65201(35) 0.82806(67)
C6A C 0.81356(52) 0.94808(36) 0.58374(60)
H25A H 0.943411 1.013332 0.863621
C7A C 0.77135(53) 1.00025(40) 0.44842(59)
C18A C 0.81638(64) 1.19418(43) 0.45114(71)
C4A C 0.81506(55) 0.78854(35) 0.68939(63)
C3A C 0.76807(58) 0.67328(36) 0.64750(67)
C11A C 0.70232(94) 0.59822(50) 0.8986(10)
C13A C 0.95137(92) 0.57616(53) 0.8177(10)
C5A C 0.77762(56) 0.84071(38) 0.56056(62)
C16A C 0.67820(63) 0.94775(42) 0.24788(67)
C19A C 0.68120(76) 1.24904(50) 0.49301(97)
H20A H 0.916441 1.244518 0.500105
H21A H 0.793791 1.165983 0.320909
C15A C 0.68859(76) 0.60309(40) 0.48774(80)
C12A C 0.58022(99) 0.65160(62) 0.9216(12)
H3A H 0.754661 0.589978 1.013307
H4A H 0.652751 0.530468 0.811413
C14A C 1.09358(92) 0.61002(42) 0.76468(83)
H8A H 0.892320 0.510184 0.730103
H9A H 0.987225 0.566809 0.935577
H1A H 0.718329 0.796886 0.438466
C17A C 0.49349(71) 0.93255(50) 0.20655(74)
H15A H 0.711891 0.989012 0.178218
H16A H 0.704599 0.880608 0.208700
H22A H 0.703658 1.278113 0.622658
H23A H 0.675354 1.303407 0.437407
H24A H 0.580520 1.199265 0.442748
H13A H 0.654404 0.624460 0.381129
H14A H 0.666085 0.530708 0.477950
H5A H 0.627391 0.71871 1.011627
H6A H 0.507359 0.612690 0.964745
H7A H 0.524599 0.658689 0.808007
H10A H 1.058984 0.618027 0.645800
H11A H 1.158602 0.558243 0.761788
H12A H 1.154613 0.675084 0.852841
H17A H 0.464927 0.999094 0.242347
H18A H 0.443377 0.898798 0.077089
H19A H 0.457584 0.889943 0.273039
loop_
_geom_bond_atom_site_label_1
_geom_bond_atom_site_label_2
_geom_bond_site_symmetry_1
_geom_bond_site_symmetry_2
N1 C1 1_555 1_555
N2 C6 1_555 1_555
C1 C2 1_555 1_555
C2 C3 1_555 1_555
C3 C4 1_555 1_555
C4 N1 1_555 1_555
C5 C4 1_555 1_555
C6 C5 1_555 1_555
C7 C6 1_555 1_555
C8 C7 1_555 1_555
C9 N2 1_555 1_555
C10 C1 1_555 1_555
C11 C2 1_555 1_555
C12 C11 1_555 1_555
C13 C2 1_555 1_555
C14 C13 1_555 1_555
C15 C3 1_555 1_555
C16 C7 1_555 1_555
C17 C16 1_555 1_555
C18 C8 1_555 1_555
C19 C18 1_555 1_555
H1 C5 1_555 1_555
H2 C10 1_555 1_555
H3 C11 1_555 1_555
H4 C11 1_555 1_555
H5 C12 1_555 1_555
H6 C12 1_555 1_555
H7 C12 1_555 1_555
H8 C13 1_555 1_555
H9 C13 1_555 1_555
H10 C14 1_555 1_555
H11 C14 1_555 1_555
H12 C14 1_555 1_555
H13 C15 1_555 1_555
H14 C15 1_555 1_555
H15 C16 1_555 1_555
H16 C16 1_555 1_555
H17 C17 1_555 1_555
H18 C17 1_555 1_555
H19 C17 1_555 1_555
H20 C18 1_555 1_555
H21 C18 1_555 1_555
H22 C19 1_555 1_555
H23 C19 1_555 1_555
H24 C19 1_555 1_555
H25 N2 1_555 1_555
C10A C9 1_555 1_555
C9A C10 1_555 1_555
C1A C10A 1_555 1_555
H2A C10A 1_555 1_555
N2A C9A 1_555 1_555
C8A C9A 1_555 1_555
N1A C1A 1_555 1_555
C2A C1A 1_555 1_555
C6A N2A 1_555 1_555
H25A N2A 1_555 1_555
C7A C8A 1_555 1_555
C18A C8A 1_555 1_555
C4A N1A 1_555 1_555
C3A C2A 1_555 1_555
C11A C2A 1_555 1_555
C13A C2A 1_555 1_555
C5A C6A 1_555 1_555
C16A C7A 1_555 1_555
C19A C18A 1_555 1_555
H20A C18A 1_555 1_555
H21A C18A 1_555 1_555
C15A C3A 1_555 1_555
C12A C11A 1_555 1_555
H3A C11A 1_555 1_555
H4A C11A 1_555 1_555
C14A C13A 1_555 1_555
H8A C13A 1_555 1_555
H9A C13A 1_555 1_555
H1A C5A 1_555 1_555
C17A C16A 1_555 1_555
H15A C16A 1_555 1_555
H16A C16A 1_555 1_555
H22A C19A 1_555 1_555
H23A C19A 1_555 1_555
H24A C19A 1_555 1_555
H13A C15A 1_555 1_555
H14A C15A 1_555 1_555
H5A C12A 1_555 1_555
H6A C12A 1_555 1_555
H7A C12A 1_555 1_555
H10A C14A 1_555 1_555
H11A C14A 1_555 1_555
H12A C14A 1_555 1_555
H17A C17A 1_555 1_555
H18A C17A 1_555 1_555
H19A C17A 1_555 1_555
C8 C9 1_555 1_555
C6A C7A 1_555 1_555
C4A C3A 1_555 1_555
C4A C5A 1_555 1_555

#END
