
#######################################################################
#
#                 Cambridge Crystallographic Data Centre
#                                CCDC 
#
#######################################################################
#
# If this CIF has been generated from an entry in the Cambridge 
# Structural Database, then it will include bibliographic, chemical, 
# crystal, experimental, refinement or atomic coordinate data resulting 
# from the CCDC's data processing and validation procedures.
#
#######################################################################

data_CONHIW
_chemical_formula_moiety         'C38 H50 N4,0.8(C6 H14),0.2(C1 H2 Cl2)'
_chemical_name_systematic        
"3,13-Dimethylene-2,2',7,8,12,12',17,18-octaethylporphyrin hexane dichloromethane solvate"
_symmetry_cell_setting           monoclinic
_symmetry_space_group_name_H-M   'P 21/n'
_symmetry_Int_Tables_number      14
_space_group_name_Hall           '-P 2yn'
loop_
_symmetry_equiv_pos_site_id
_symmetry_equiv_pos_as_xyz
1 x,y,z
2 1/2-x,1/2+y,1/2-z
3 -x,-y,-z
4 1/2+x,1/2-y,1/2+z
_cell_length_a                   11.244(7)
_cell_length_b                   8.079(4)
_cell_length_c                   21.402(7)
_cell_angle_alpha                90
_cell_angle_beta                 96.54(4)
_cell_angle_gamma                90
_cell_volume                     1931.51
_exptl_crystal_colour            black
_cell_formula_units_Z            2
loop_
_atom_site_label
_atom_site_type_symbol
_atom_site_fract_x
_atom_site_fract_y
_atom_site_fract_z
N1 N 0.51915(15) 0.96409(22) 0.90424(8)
N2 N 0.42153(15) 0.76656(22) 1.00137(8)
C1 C 0.56600(18) 1.07617(27) 0.86733(9)
C2 C 0.56544(19) 1.01820(27) 0.79914(9)
C3 C 0.51868(18) 0.84326(27) 0.80428(9)
C4 C 0.48765(18) 0.82673(27) 0.86932(9)
C5 C 0.43322(18) 0.68712(26) 0.89143(9)
C6 C 0.40156(17) 0.65925(25) 0.95146(9)
C7 C 0.34266(18) 0.51690(26) 0.97316(9)
C8 C 0.32914(17) 0.54135(26) 1.03550(9)
C9 C 0.37986(18) 0.69895(26) 1.05363(9)
C10 C 0.61161(18) 1.22988(27) 0.88676(9)
C11 C 0.69140(20) 1.02369(29) 0.77731(10)
C12 C 0.78747(21) 0.93699(31) 0.82063(11)
C13 C 0.47863(21) 1.12372(29) 0.75463(9)
C14 C 0.34896(22) 1.12363(33) 0.76908(11)
C15 C 0.50881(21) 0.72985(30) 0.75883(10)
C16 C 0.30184(19) 0.37124(27) 0.93274(10)
C17 C 0.18180(22) 0.40202(32) 0.89397(12)
C18 C 0.26726(19) 0.43166(27) 1.07833(10)
C19 C 0.13848(21) 0.48716(35) 1.08336(12)
H1 H 0.415522 0.600320 0.861887
H2 H 0.641089 1.295477 0.855024
H3 H 0.714347 1.136213 0.773679
H4 H 0.688042 0.973718 0.736981
H5 H 0.793433 0.987238 0.861012
H6 H 0.861977 0.945990 0.803988
H7 H 0.766941 0.823587 0.824054
H8 H 0.480175 1.084676 0.712866
H9 H 0.506251 1.235188 0.756417
H10 H 0.318855 1.013557 0.766342
H11 H 0.302141 1.191476 0.739422
H12 H 0.345147 1.165260 0.810237
H13 H 0.532133 0.755979 0.718689
H14 H 0.478291 0.623116 0.766514
H15 H 0.294591 0.277664 0.958976
H16 H 0.360150 0.348495 0.905050
H17 H 0.122771 0.423548 0.921429
H18 H 0.159506 0.306962 0.869274
H19 H 0.188229 0.494661 0.867287
H20 H 0.310910 0.433385 1.119031
H21 H 0.226076 0.321690 1.062561
H22 H 0.139192 0.596708 1.099609
H23 H 0.102972 0.414671 1.110836
H24 H 0.094194 0.484581 1.042921
H25 H 0.458648 0.871928 0.999973
C10B C 0.38839(18) 0.77012(27) 1.11324(9)
C9B C 0.62014(18) 1.30105(26) 0.94637(9)
C1B C 0.43400(18) 0.92383(27) 1.13267(9)
H2B H 0.358911 0.704523 1.144976
N2B N 0.57847(15) 1.23344(22) 0.99863(8)
C8B C 0.67086(17) 1.45865(26) 0.96450(9)
N1B N 0.48085(15) 1.03591(22) 1.09576(8)
C2B C 0.43456(19) 0.98180(27) 1.20086(9)
C6B C 0.59844(17) 1.34075(25) 1.04854(9)
H25B H 0.541352 1.128072 1.000027
C7B C 0.65734(18) 1.48310(26) 1.02684(9)
C18B C 0.73274(19) 1.56834(27) 0.92167(10)
C4B C 0.51235(18) 1.17327(27) 1.13068(9)
C3B C 0.48132(18) 1.15674(27) 1.19572(9)
C11B C 0.30860(20) 0.97631(29) 1.22269(10)
C13B C 0.52137(21) 0.87628(29) 1.24537(9)
C5B C 0.56678(18) 1.31288(26) 1.10857(9)
C16B C 0.69816(19) 1.62876(27) 1.06726(10)
C19B C 0.86152(21) 1.51284(35) 0.91664(12)
H20B H 0.689090 1.566615 0.880969
H21B H 0.773924 1.678310 0.937439
C15B C 0.49119(21) 1.27015(30) 1.24117(10)
C12B C 0.21253(21) 1.06301(31) 1.17937(11)
H3B H 0.285653 0.863787 1.226321
H4B H 0.311958 1.026282 1.263019
C14B C 0.65104(22) 0.87637(33) 1.23092(11)
H8B H 0.519825 0.915324 1.287134
H9B H 0.493749 0.764812 1.243583
H1B H 0.584478 1.399680 1.138113
C17B C 0.81820(22) 1.59798(32) 1.10603(12)
H15B H 0.705409 1.722336 1.041024
H16B H 0.639850 1.651505 1.094950
H22B H 0.860808 1.403292 0.900391
H23B H 0.897028 1.585329 0.889164
H24B H 0.905806 1.515419 0.957079
H13B H 0.467867 1.244021 1.281311
H14B H 0.521709 1.376884 1.233486
H5B H 0.206567 1.012762 1.138988
H6B H 0.138023 1.054010 1.196012
H7B H 0.233059 1.176413 1.175946
H10B H 0.681145 0.986443 1.233658
H11B H 0.697859 0.808524 1.260578
H12B H 0.654853 0.834740 1.189763
H17B H 0.877229 1.576452 1.078571
H18B H 0.840494 1.693038 1.130726
H19B H 0.811771 1.505339 1.132713
loop_
_geom_bond_atom_site_label_1
_geom_bond_atom_site_label_2
_geom_bond_site_symmetry_1
_geom_bond_site_symmetry_2
N1 C1 1_555 1_555
N2 C6 1_555 1_555
C1 C2 1_555 1_555
C2 C3 1_555 1_555
C3 C4 1_555 1_555
C4 N1 1_555 1_555
C5 C4 1_555 1_555
C6 C5 1_555 1_555
C7 C6 1_555 1_555
C8 C7 1_555 1_555
C9 N2 1_555 1_555
C10 C1 1_555 1_555
C11 C2 1_555 1_555
C12 C11 1_555 1_555
C13 C2 1_555 1_555
C14 C13 1_555 1_555
C15 C3 1_555 1_555
C16 C7 1_555 1_555
C17 C16 1_555 1_555
C18 C8 1_555 1_555
C19 C18 1_555 1_555
H1 C5 1_555 1_555
H2 C10 1_555 1_555
H3 C11 1_555 1_555
H4 C11 1_555 1_555
H5 C12 1_555 1_555
H6 C12 1_555 1_555
H7 C12 1_555 1_555
H8 C13 1_555 1_555
H9 C13 1_555 1_555
H10 C14 1_555 1_555
H11 C14 1_555 1_555
H12 C14 1_555 1_555
H13 C15 1_555 1_555
H14 C15 1_555 1_555
H15 C16 1_555 1_555
H16 C16 1_555 1_555
H17 C17 1_555 1_555
H18 C17 1_555 1_555
H19 C17 1_555 1_555
H20 C18 1_555 1_555
H21 C18 1_555 1_555
H22 C19 1_555 1_555
H23 C19 1_555 1_555
H24 C19 1_555 1_555
H25 N2 1_555 1_555
C10B C9 1_555 1_555
C9B C10 1_555 1_555
C1B C10B 1_555 1_555
H2B C10B 1_555 1_555
N2B C9B 1_555 1_555
C8B C9B 1_555 1_555
N1B C1B 1_555 1_555
C2B C1B 1_555 1_555
C6B N2B 1_555 1_555
H25B N2B 1_555 1_555
C7B C8B 1_555 1_555
C18B C8B 1_555 1_555
C4B N1B 1_555 1_555
C3B C2B 1_555 1_555
C11B C2B 1_555 1_555
C13B C2B 1_555 1_555
C5B C6B 1_555 1_555
C16B C7B 1_555 1_555
C19B C18B 1_555 1_555
H20B C18B 1_555 1_555
H21B C18B 1_555 1_555
C15B C3B 1_555 1_555
C12B C11B 1_555 1_555
H3B C11B 1_555 1_555
H4B C11B 1_555 1_555
C14B C13B 1_555 1_555
H8B C13B 1_555 1_555
H9B C13B 1_555 1_555
H1B C5B 1_555 1_555
C17B C16B 1_555 1_555
H15B C16B 1_555 1_555
H16B C16B 1_555 1_555
H22B C19B 1_555 1_555
H23B C19B 1_555 1_555
H24B C19B 1_555 1_555
H13B C15B 1_555 1_555
H14B C15B 1_555 1_555
H5B C12B 1_555 1_555
H6B C12B 1_555 1_555
H7B C12B 1_555 1_555
H10B C14B 1_555 1_555
H11B C14B 1_555 1_555
H12B C14B 1_555 1_555
H17B C17B 1_555 1_555
H18B C17B 1_555 1_555
H19B C17B 1_555 1_555
C8 C9 1_555 1_555
C6B C7B 1_555 1_555
C4B C3B 1_555 1_555
C4B C5B 1_555 1_555

#END
