
#######################################################################
#
#                 Cambridge Crystallographic Data Centre
#                                CCDC 
#
#######################################################################
#
# If this CIF has been generated from an entry in the Cambridge 
# Structural Database, then it will include bibliographic, chemical, 
# crystal, experimental, refinement or atomic coordinate data resulting 
# from the CCDC's data processing and validation procedures.
#
#######################################################################

data_CONKAT
_chemical_formula_moiety         '2(C17 H13 N2 O2 1+),C10 H4 O8 2-,5(H2 O1)'
_chemical_name_systematic        
'bis(1-(3-carboxyphenyl)-4-(pyridin-4-yl)pyridinium) 2,5-dicarboxyterephthalate pentahydrate'
_symmetry_cell_setting           triclinic
_symmetry_space_group_name_H-M   'P -1'
_symmetry_Int_Tables_number      2
_space_group_name_Hall           '-P 1'
loop_
_symmetry_equiv_pos_site_id
_symmetry_equiv_pos_as_xyz
1 x,y,z
2 -x,-y,-z
_cell_length_a                   7.3700(15)
_cell_length_b                   9.5200(19)
_cell_length_c                   15.776(3)
_cell_angle_alpha                90.26(3)
_cell_angle_beta                 102.68(3)
_cell_angle_gamma                106.00(3)
_cell_volume                     1035.55
_exptl_crystal_colour            yellow
_exptl_crystal_description       block
_cell_formula_units_Z            1
loop_
_atom_site_label
_atom_site_type_symbol
_atom_site_fract_x
_atom_site_fract_y
_atom_site_fract_z
O1 O 0.6508(3) 0.2665(2) -0.00523(10)
H1 H 0.5780 0.2424 -0.0559
O2 O 0.5984(3) 0.06797(18) 0.06909(11)
N1 N 1.3816(4) 1.4440(2) 0.17397(18)
N2 N 1.0206(3) 0.68819(19) 0.21277(11)
C1 C 1.3133(4) 1.3485(3) 0.1043(2)
H2 H 1.3162 1.3845 0.0498
C2 C 1.2387(4) 1.1997(3) 0.10841(18)
H3 H 1.1942 1.1377 0.0579
C3 C 1.3725(4) 1.3899(3) 0.2506(2)
H4 H 1.4188 1.4547 0.2999
C4 C 1.2983(4) 1.2427(3) 0.26167(18)
H5 H 1.2935 1.2103 0.3169
C5 C 1.2311(3) 1.1442(3) 0.18887(16)
C6 C 1.1574(3) 0.9851(2) 0.19846(15)
C7 C 1.1790(4) 0.8833(2) 0.14043(16)
H6 H 1.2398 0.9154 0.0954
C8 C 1.1119(4) 0.7374(3) 0.14927(15)
H7 H 1.1294 0.6707 0.1108
C9 C 1.0673(3) 0.9309(3) 0.26422(16)
H8 H 1.0530 0.9956 0.3049
C10 C 0.9985(3) 0.7831(2) 0.27035(15)
H9 H 0.9363 0.7483 0.3145
C11 C 0.9441(3) 0.5314(2) 0.21829(14)
C12 C 0.9695(3) 0.4717(3) 0.29802(14)
H10 H 1.0361 0.5308 0.3486
C13 C 0.8940(4) 0.3224(3) 0.30123(15)
H11 H 0.9089 0.2804 0.3545
C14 C 0.7966(4) 0.2349(3) 0.22580(15)
H12 H 0.7464 0.1345 0.2286
C15 C 0.7734(3) 0.2958(2) 0.14646(14)
C16 C 0.8461(3) 0.4455(2) 0.14250(14)
H13 H 0.8290 0.4878 0.0894
C17 C 0.6668(4) 0.2056(3) 0.06287(15)
O3 O 0.2345(3) 0.61236(18) 0.50380(13)
H14 H 0.221(5) 0.5291(15) 0.4890(17)
O4 O 0.5449(3) 0.63357(17) 0.51140(13)
O5 O 0.5923(3) 1.29309(18) 0.66767(11)
O6 O 0.3849(3) 1.09791(18) 0.70114(11)
C18 C 0.4937(3) 1.1694(2) 0.65026(14)
C19 C 0.3989(3) 0.6839(2) 0.50345(14)
C20 C 0.4466(3) 0.8477(2) 0.49891(13)
C21 C 0.4893(3) 1.0821(2) 0.57094(13)
C22 C 0.4358(3) 0.9300(2) 0.56856(14)
H15 H 0.3920 0.8831 0.6149
O3A O 0.7655(3) 1.38764(18) 0.49620(13)
H14A H 0.779(5) 1.4709(15) 0.5110(17)
O4A O 0.4551(3) 1.36643(17) 0.48860(13)
O5A O 0.4077(3) 0.70691(18) 0.33233(11)
O6A O 0.6151(3) 0.90209(18) 0.29886(11)
C18A C 0.5063(3) 0.8306(2) 0.34974(14)
C19A C 0.6011(3) 1.3161(2) 0.49655(14)
C20A C 0.5534(3) 1.1523(2) 0.50109(13)
C21A C 0.5107(3) 0.9179(2) 0.42906(13)
C22A C 0.5642(3) 1.0700(2) 0.43144(14)
H15A H 0.6080 1.1169 0.3851
O7 O -0.0449(7) 0.9457(5) 0.5629(3)
H16 H 0.0021 1.0307 0.5472
H17 H -0.0188 0.8951 0.5251
O8 O 0.4045(3) 1.2630(2) 0.83649(11)
H18 H 0.4093 1.2090 0.7945
H19 H 0.461(5) 1.354(2) 0.834(2)
O9 O 0.0848(4) 0.2755(3) 0.54143(16)
H20 H 0.2000 0.3153 0.5365
H21 H -0.0076 0.3126 0.5222
loop_
_geom_bond_atom_site_label_1
_geom_bond_atom_site_label_2
_geom_bond_site_symmetry_1
_geom_bond_site_symmetry_2
O1 H1 1_555 1_555
O2 C17 1_555 1_555
N1 C1 1_555 1_555
N2 C8 1_555 1_555
C1 H2 1_555 1_555
C2 C1 1_555 1_555
H3 C2 1_555 1_555
C3 N1 1_555 1_555
H4 C3 1_555 1_555
C4 C3 1_555 1_555
H5 C4 1_555 1_555
C5 C2 1_555 1_555
C6 C5 1_555 1_555
C7 C6 1_555 1_555
H6 C7 1_555 1_555
C8 C7 1_555 1_555
H7 C8 1_555 1_555
C9 C6 1_555 1_555
H8 C9 1_555 1_555
C10 N2 1_555 1_555
H9 C10 1_555 1_555
C11 N2 1_555 1_555
C12 C11 1_555 1_555
H10 C12 1_555 1_555
C13 C12 1_555 1_555
H11 C13 1_555 1_555
C14 C13 1_555 1_555
H12 C14 1_555 1_555
C15 C14 1_555 1_555
C16 C11 1_555 1_555
H13 C16 1_555 1_555
C17 O1 1_555 1_555
O3 H14 1_555 1_555
O4 C19 1_555 1_555
O5 C18 1_555 1_555
O6 C18 1_555 1_555
C18 C21 1_555 1_555
C19 O3 1_555 1_555
C20 C19 1_555 1_555
C21 C22 1_555 1_555
C22 C20 1_555 1_555
H15 C22 1_555 1_555
O7 H16 1_555 1_555
H17 O7 1_555 1_555
O8 H18 1_555 1_555
H19 O8 1_555 1_555
O9 H20 1_555 1_555
H21 O9 1_555 1_555
O3A H14A 1_555 1_555
O4A C19A 1_555 1_555
O5A C18A 1_555 1_555
O6A C18A 1_555 1_555
C18A C21A 1_555 1_555
C19A O3A 1_555 1_555
C20A C21 1_555 1_555
C21A C20 1_555 1_555
C22A C20A 1_555 1_555
H15A C22A 1_555 1_555
C4 C5 1_555 1_555
C9 C10 1_555 1_555
C15 C16 1_555 1_555
C15 C17 1_555 1_555
C19A C20A 1_555 1_555
C21A C22A 1_555 1_555

#END
