
#######################################################################
#
#                 Cambridge Crystallographic Data Centre
#                                CCDC 
#
#######################################################################
#
# If this CIF has been generated from an entry in the Cambridge 
# Structural Database, then it will include bibliographic, chemical, 
# crystal, experimental, refinement or atomic coordinate data resulting 
# from the CCDC's data processing and validation procedures.
#
#######################################################################

data_CONZAH01
_chemical_formula_moiety         'C64 H70 N4 O4'
_chemical_name_systematic        5,10,15,20-tetrakis(4-Pentoxyphenyl)porphyrin
_symmetry_cell_setting           monoclinic
_symmetry_space_group_name_H-M   'P 21/c'
_symmetry_Int_Tables_number      14
_space_group_name_Hall           '-P 2ybc'
loop_
_symmetry_equiv_pos_site_id
_symmetry_equiv_pos_as_xyz
1 x,y,z
2 -x,1/2+y,1/2-z
3 -x,-y,-z
4 x,1/2-y,1/2+z
_cell_length_a                   14.27(3)
_cell_length_b                   16.52(3)
_cell_length_c                   12.43(2)
_cell_angle_alpha                90
_cell_angle_beta                 93.58(3)
_cell_angle_gamma                90
_cell_volume                     2924.54
_cell_formula_units_Z            2
loop_
_atom_site_label
_atom_site_type_symbol
_atom_site_fract_x
_atom_site_fract_y
_atom_site_fract_z
N1 N 0.59298(15) 0.43151(13) 0.40826(17)
N2 N 0.43810(14) 0.39066(12) 0.54487(16)
C1 C 0.66196(17) 0.46624(15) 0.34706(19)
C2 C 0.55046(17) 0.19994(15) 0.42062(19)
C3 C 0.36045(17) 0.38387(15) 0.60754(19)
C4 C 0.59457(17) 0.34698(15) 0.39537(19)
C5 C 0.53353(17) 0.28988(15) 0.44321(19)
C6 C 0.57837(19) 0.14482(16) 0.5049(2)
H1 H 0.5824 0.1633 0.5757
C7 C 0.31501(17) 0.44905(15) 0.66086(19)
C8 C 0.33060(18) 0.29847(16) 0.6112(2)
H2 H 0.2801 0.2783 0.6467
C9 C 0.7093(2) 0.40032(16) 0.2930(2)
H3 H 0.7575 0.4058 0.2465
C10 C 0.09358(19) 0.39509(18) 0.8811(2)
C11 C 0.45923(17) 0.31158(15) 0.51100(19)
O1 O 0.61698(19) -0.04880(12) 0.36634(18)
C12 C 0.66865(19) 0.32807(16) 0.3240(2)
H4 H 0.6859 0.2765 0.3027
C13 C 0.23668(17) 0.42770(15) 0.73507(19)
C14 C 0.39100(18) 0.25396(16) 0.5525(2)
H5 H 0.3892 0.1983 0.5412
C15 C 0.1883(2) 0.3741(2) 0.9073(2)
H6 H 0.2045 0.3494 0.9731
C16 C 0.5950(2) 0.03333(16) 0.3778(2)
C17 C 0.5650(2) 0.08605(16) 0.2937(2)
H7 H 0.5594 0.0670 0.2232
C18 C 0.25858(18) 0.39008(17) 0.8355(2)
H8 H 0.3204 0.3756 0.8546
C19 C 0.6000(2) 0.06370(17) 0.4846(2)
H9 H 0.6177 0.0295 0.5417
C20 C 0.1416(2) 0.4479(2) 0.7100(2)
H10 H 0.1254 0.4725 0.6441
C21 C 0.0702(2) 0.4321(2) 0.7812(3)
H11 H 0.0083 0.4462 0.7620
C22 C 0.54319(19) 0.16791(16) 0.3156(2)
H12 H 0.5235 0.2016 0.2586
C23 C 0.6345(3) -0.0807(2) 0.2621(3)
H13 H 0.6011 -0.0489 0.2063
H14 H 0.6124 -0.1362 0.2561
C24 C 0.7409(6) -0.0776(4) 0.2475(6)
H15 H 0.7562 -0.0206 0.2411
H16 H 0.7708 -0.0955 0.3155
C25 C 0.7860(5) -0.1151(5) 0.1713(8)
H17 H 0.7551 -0.0967 0.1040
H18 H 0.7689 -0.1717 0.1779
C26 C 0.8827(5) -0.1164(6) 0.1517(8)
H19 H 0.8844 -0.1250 0.0747
H20 H 0.9041 -0.0613 0.1646
O2 O 0.02933(14) 0.37700(15) 0.95791(18)
C27 C -0.0696(2) 0.3970(3) 0.9344(3)
H21 H -0.0920 0.3730 0.8664
H22 H -0.0773 0.4553 0.9289
C28 C -0.1258(3) 0.3644(3) 1.0253(4)
H23 H -0.1898 0.3842 1.0163
H24 H -0.0986 0.3843 1.0937
C29 C -0.1268(3) 0.2677(3) 1.0272(4)
H25 H -0.1492 0.2485 0.9564
H26 H -0.0627 0.2488 1.0401
C30 C -0.1843(4) 0.2308(4) 1.1074(5)
H27 H -0.2481 0.2503 1.0952
H28 H -0.1612 0.2491 1.1783
C31 C -0.1861(4) 0.1399(4) 1.1075(5)
H29 H -0.2238 0.1211 1.1638
H30 H -0.1233 0.1196 1.1196
H31 H -0.2124 0.1208 1.0392
C32 C 0.9466(7) -0.1598(7) 0.1928(15)
H32 H 1.0042 -0.1479 0.1600
H33 H 0.9308 -0.2157 0.1813
H34 H 0.9542 -0.1491 0.2688
H35 H 0.555(3) 0.461(3) 0.444(3)
N1B N 0.40702(15) 0.56849(13) 0.59174(17)
N2B N 0.56190(14) 0.60934(12) 0.45513(16)
C1B C 0.33804(17) 0.53376(15) 0.65294(19)
C2B C 0.44954(17) 0.80006(15) 0.57938(19)
C3B C 0.63955(17) 0.61613(15) 0.39246(19)
C4B C 0.40543(17) 0.65302(15) 0.60463(19)
C5B C 0.46647(17) 0.71012(15) 0.55679(19)
C6B C 0.42163(19) 0.85518(16) 0.4951(2)
H1B H 0.4176 0.8367 0.4243
C7B C 0.68499(17) 0.55095(15) 0.33914(19)
C8B C 0.66940(18) 0.70153(16) 0.3888(2)
H2B H 0.7199 0.7217 0.3533
C9B C 0.2907(2) 0.59968(16) 0.7070(2)
H3B H 0.2425 0.5942 0.7535
C10B C 0.90642(19) 0.60491(18) 0.1189(2)
C11B C 0.54077(17) 0.68842(15) 0.48900(19)
O1B O 0.38302(19) 1.04880(12) 0.63366(18)
C12B C 0.33135(19) 0.67193(16) 0.6760(2)
H4B H 0.3141 0.7235 0.6973
C13B C 0.76332(17) 0.57230(15) 0.26493(19)
C14B C 0.60900(18) 0.74604(16) 0.4475(2)
H5B H 0.6108 0.8017 0.4588
C15B C 0.8117(2) 0.6259(2) 0.0927(2)
H6B H 0.7955 0.6506 0.0269
C16B C 0.4050(2) 0.96667(16) 0.6222(2)
C17B C 0.4350(2) 0.91395(16) 0.7063(2)
H7B H 0.4406 0.9330 0.7768
C18B C 0.74142(18) 0.60992(17) 0.1645(2)
H8B H 0.6796 0.6244 0.1454
C19B C 0.4000(2) 0.93630(17) 0.5154(2)
H9B H 0.3823 0.9705 0.4583
C20B C 0.8584(2) 0.5521(2) 0.2900(2)
H10B H 0.8746 0.5275 0.3559
C21B C 0.9298(2) 0.5679(2) 0.2188(3)
H11B H 0.9917 0.5538 0.2380
C22B C 0.45681(19) 0.83209(16) 0.6844(2)
H12B H 0.4765 0.7984 0.7414
C23B C 0.3655(3) 1.0807(2) 0.7379(3)
H13B H 0.3989 1.0489 0.7937
H14B H 0.3876 1.1362 0.7439
C24B C 0.2591(6) 1.0776(4) 0.7525(6)
H15B H 0.2438 1.0206 0.7589
H16B H 0.2292 1.0955 0.6845
C25B C 0.2140(5) 1.1151(5) 0.8287(8)
H17B H 0.2449 1.0967 0.8960
H18B H 0.2311 1.1717 0.8221
C26B C 0.1173(5) 1.1164(6) 0.8483(8)
H19B H 0.1156 1.1250 0.9253
H20B H 0.0959 1.0613 0.8354
O2B O 0.97067(14) 0.62300(15) 0.04209(18)
C27B C 1.0696(2) 0.6030(3) 0.0656(3)
H21B H 1.0920 0.6270 0.1336
H22B H 1.0773 0.5447 0.0711
C28B C 1.1258(3) 0.6356(3) -0.0253(4)
H23B H 1.1898 0.6158 -0.0163
H24B H 1.0986 0.6157 -0.0937
C29B C 1.1268(3) 0.7323(3) -0.0272(4)
H25B H 1.1492 0.7515 0.0436
H26B H 1.0627 0.7512 -0.0401
C30B C 1.1843(4) 0.7692(4) -0.1074(5)
H27B H 1.2481 0.7497 -0.0952
H28B H 1.1612 0.7509 -0.1783
C31B C 1.1861(4) 0.8601(4) -0.1075(5)
H29B H 1.2238 0.8789 -0.1638
H30B H 1.1233 0.8804 -0.1196
H31B H 1.2124 0.8792 -0.0392
C32B C 0.0534(7) 1.1598(7) 0.8072(15)
H32B H -0.0042 1.1479 0.8400
H33B H 0.0692 1.2157 0.8187
H34B H 0.0458 1.1491 0.7312
H35B H 0.445(3) 0.539(3) 0.556(3)
loop_
_geom_bond_atom_site_label_1
_geom_bond_atom_site_label_2
_geom_bond_site_symmetry_1
_geom_bond_site_symmetry_2
N1 C1 1_555 1_555
N2 C3 1_555 1_555
C1 C9 1_555 1_555
C2 C5 1_555 1_555
C3 C7 1_555 1_555
C4 N1 1_555 1_555
C5 C4 1_555 1_555
C6 C2 1_555 1_555
H1 C6 1_555 1_555
C7 C13 1_555 1_555
C8 C3 1_555 1_555
H2 C8 1_555 1_555
C9 H3 1_555 1_555
C10 C15 1_555 1_555
C11 N2 1_555 1_555
O1 C16 1_555 1_555
C12 C4 1_555 1_555
H4 C12 1_555 1_555
C13 C18 1_555 1_555
C14 C8 1_555 1_555
H5 C14 1_555 1_555
C15 H6 1_555 1_555
C16 C17 1_555 1_555
C17 H7 1_555 1_555
C18 C15 1_555 1_555
H8 C18 1_555 1_555
C19 C6 1_555 1_555
H9 C19 1_555 1_555
C20 C13 1_555 1_555
H10 C20 1_555 1_555
C21 C10 1_555 1_555
H11 C21 1_555 1_555
C22 C2 1_555 1_555
H12 C22 1_555 1_555
C23 O1 1_555 1_555
H13 C23 1_555 1_555
H14 C23 1_555 1_555
C24 C23 1_555 1_555
H15 C24 1_555 1_555
H16 C24 1_555 1_555
C25 C24 1_555 1_555
H17 C25 1_555 1_555
H18 C25 1_555 1_555
C26 C25 1_555 1_555
H19 C26 1_555 1_555
H20 C26 1_555 1_555
O2 C10 1_555 1_555
C27 O2 1_555 1_555
H21 C27 1_555 1_555
H22 C27 1_555 1_555
C28 C27 1_555 1_555
H23 C28 1_555 1_555
H24 C28 1_555 1_555
C29 C28 1_555 1_555
H25 C29 1_555 1_555
H26 C29 1_555 1_555
C30 C29 1_555 1_555
H27 C30 1_555 1_555
H28 C30 1_555 1_555
C31 C30 1_555 1_555
H29 C31 1_555 1_555
H30 C31 1_555 1_555
H31 C31 1_555 1_555
C32 C26 1_555 1_555
H32 C32 1_555 1_555
H33 C32 1_555 1_555
H34 C32 1_555 1_555
H35 N1 1_555 1_555
N1B C1B 1_555 1_555
N2B C3B 1_555 1_555
C1B C7 1_555 1_555
C2B C5B 1_555 1_555
C3B C7B 1_555 1_555
C4B N1B 1_555 1_555
C5B C4B 1_555 1_555
C6B C2B 1_555 1_555
H1B C6B 1_555 1_555
C7B C1 1_555 1_555
C8B C3B 1_555 1_555
H2B C8B 1_555 1_555
C9B C1B 1_555 1_555
H3B C9B 1_555 1_555
C10B C15B 1_555 1_555
C11B N2B 1_555 1_555
O1B C16B 1_555 1_555
C12B C4B 1_555 1_555
H4B C12B 1_555 1_555
C13B C7B 1_555 1_555
C14B C8B 1_555 1_555
H5B C14B 1_555 1_555
C15B H6B 1_555 1_555
C16B C17B 1_555 1_555
C17B H7B 1_555 1_555
C18B C13B 1_555 1_555
H8B C18B 1_555 1_555
C19B C6B 1_555 1_555
H9B C19B 1_555 1_555
C20B C13B 1_555 1_555
H10B C20B 1_555 1_555
C21B C10B 1_555 1_555
H11B C21B 1_555 1_555
C22B C2B 1_555 1_555
H12B C22B 1_555 1_555
C23B O1B 1_555 1_555
H13B C23B 1_555 1_555
H14B C23B 1_555 1_555
C24B C23B 1_555 1_555
H15B C24B 1_555 1_555
H16B C24B 1_555 1_555
C25B C24B 1_555 1_555
H17B C25B 1_555 1_555
H18B C25B 1_555 1_555
C26B C25B 1_555 1_555
H19B C26B 1_555 1_555
H20B C26B 1_555 1_555
O2B C10B 1_555 1_555
C27B O2B 1_555 1_555
H21B C27B 1_555 1_555
H22B C27B 1_555 1_555
C28B C27B 1_555 1_555
H23B C28B 1_555 1_555
H24B C28B 1_555 1_555
C29B C28B 1_555 1_555
H25B C29B 1_555 1_555
H26B C29B 1_555 1_555
C30B C29B 1_555 1_555
H27B C30B 1_555 1_555
H28B C30B 1_555 1_555
C31B C30B 1_555 1_555
H29B C31B 1_555 1_555
H30B C31B 1_555 1_555
H31B C31B 1_555 1_555
C32B C26B 1_555 1_555
H32B C32B 1_555 1_555
H33B C32B 1_555 1_555
H34B C32B 1_555 1_555
H35B N1B 1_555 1_555
C5 C11 1_555 1_555
C9 C12 1_555 1_555
C11 C14 1_555 1_555
C16 C19 1_555 1_555
C17 C22 1_555 1_555
C20 C21 1_555 1_555
C5B C11B 1_555 1_555
C9B C12B 1_555 1_555
C11B C14B 1_555 1_555
C15B C18B 1_555 1_555
C16B C19B 1_555 1_555
C17B C22B 1_555 1_555
C20B C21B 1_555 1_555

#END
