
#######################################################################
#
#                 Cambridge Crystallographic Data Centre
#                                CCDC 
#
#######################################################################
#
# If this CIF has been generated from an entry in the Cambridge 
# Structural Database, then it will include bibliographic, chemical, 
# crystal, experimental, refinement or atomic coordinate data resulting 
# from the CCDC's data processing and validation procedures.
#
#######################################################################

data_COPLAV01
_chemical_formula_moiety         'C29 H40 N2 O1'
_chemical_name_systematic        
2,4-bis((2,6-Di-isopropylphenyl)imino)pentan-3-one
_symmetry_cell_setting           triclinic
_symmetry_space_group_name_H-M   'P -1'
_symmetry_Int_Tables_number      2
_space_group_name_Hall           '-P 1'
loop_
_symmetry_equiv_pos_site_id
_symmetry_equiv_pos_as_xyz
1 x,y,z
2 -x,-y,-z
_cell_length_a                   9.177(5)
_cell_length_b                   10.603(5)
_cell_length_c                   15.394(8)
_cell_angle_alpha                85.265(7)
_cell_angle_beta                 73.552(7)
_cell_angle_gamma                66.988(6)
_cell_volume                     1321.6
_exptl_crystal_colour            orange
_exptl_crystal_description       prism
_cell_formula_units_Z            2
loop_
_atom_site_label
_atom_site_type_symbol
_atom_site_fract_x
_atom_site_fract_y
_atom_site_fract_z
N1 N 0.2530(3) 0.3783(3) 0.25798(16)
N2 N 0.1406(3) 0.7095(2) 0.17378(16)
O1 O 0.0331(4) 0.4481(3) 0.13473(18)
C1 C -0.0086(5) 0.5564(4) 0.3426(2)
H1 H 0.0289 0.5228 0.3954
H2 H -0.1095 0.5449 0.3483
H3 H -0.0269 0.6519 0.3369
C2 C 0.1177(4) 0.4786(3) 0.26103(19)
C3 C 0.0809(4) 0.5159(3) 0.1704(2)
C4 C 0.0982(4) 0.6433(3) 0.1269(2)
C5 C 0.0617(5) 0.6802(4) 0.0380(2)
H4 H 0.0785 0.7630 0.0183
H5 H -0.0507 0.6941 0.0441
H6 H 0.1335 0.6074 -0.0058
C6 C 0.3008(4) 0.3312(3) 0.33951(19)
C7 C 0.2570(5) 0.2279(3) 0.3879(2)
C8 C 0.3140(5) 0.1808(4) 0.4639(2)
H7 H 0.2837 0.1142 0.4983
C9 C 0.4131(5) 0.2300(4) 0.4892(2)
H8 H 0.4504 0.1966 0.5400
C10 C 0.4576(5) 0.3290(4) 0.4393(2)
H9 H 0.5248 0.3625 0.4572
C11 C 0.4052(4) 0.3803(3) 0.3633(2)
C12 C 0.1493(5) 0.1684(4) 0.3611(3)
H10 H 0.1306 0.2081 0.3035
C13 C -0.0182(6) 0.2062(5) 0.4302(4)
H11 H -0.0700 0.3040 0.4390
H12 H -0.0043 0.1649 0.4867
H13 H -0.0858 0.1736 0.4084
C14 C 0.2329(7) 0.0138(4) 0.3459(3)
H14 H 0.3373 -0.0087 0.3013
H15 H 0.1648 -0.0192 0.3249
H16 H 0.2495 -0.0284 0.4018
C15 C 0.4607(5) 0.4866(4) 0.3073(2)
H17 H 0.4305 0.4929 0.2504
C16 C 0.3795(10) 0.6240(5) 0.3502(4)
H18 H 0.4191 0.6862 0.3114
H19 H 0.4036 0.6214 0.4072
H20 H 0.2627 0.6546 0.3600
C17 C 0.6418(8) 0.4426(8) 0.2832(6)
H21 H 0.6734 0.5106 0.2469
H22 H 0.6929 0.3568 0.2496
H23 H 0.6766 0.4318 0.3376
C18 C 0.1501(4) 0.8390(3) 0.14655(18)
C19 C 0.3036(4) 0.8468(3) 0.1119(2)
C20 C 0.3107(5) 0.9751(4) 0.0965(2)
H24 H 0.4126 0.9816 0.0730
C21 C 0.1721(5) 1.0918(4) 0.1150(2)
H25 H 0.1801 1.1769 0.1050
C22 C 0.0196(5) 1.0840(3) 0.1485(2)
H26 H -0.0746 1.1642 0.1602
C23 C 0.0047(4) 0.9581(3) 0.1649(2)
C24 C 0.4601(4) 0.7166(4) 0.0881(2)
H27 H 0.4373 0.6428 0.1245
C25 C 0.5037(5) 0.6758(4) -0.0114(3)
H28 H 0.6013 0.5934 -0.0255
H29 H 0.5228 0.7480 -0.0486
H30 H 0.4144 0.6601 -0.0227
C26 C 0.6055(5) 0.7309(5) 0.1094(3)
H31 H 0.5766 0.7559 0.1724
H32 H 0.6329 0.8007 0.0730
H33 H 0.6985 0.6452 0.0964
C27 C -0.1642(4) 0.9529(4) 0.2053(2)
H34 H -0.1532 0.8587 0.1968
C28 C -0.2220(6) 0.9851(6) 0.3064(3)
H35 H -0.1408 0.9242 0.3346
H36 H -0.3241 0.9734 0.3317
H37 H -0.2377 1.0781 0.3169
C29 C -0.2929(6) 1.0465(5) 0.1594(3)
H38 H -0.2564 1.0229 0.0958
H39 H -0.3082 1.1401 0.1676
H40 H -0.3952 1.0355 0.1858
loop_
_geom_bond_atom_site_label_1
_geom_bond_atom_site_label_2
_geom_bond_site_symmetry_1
_geom_bond_site_symmetry_2
N1 C2 1_555 1_555
N2 C4 1_555 1_555
O1 C3 1_555 1_555
C1 H1 1_555 1_555
H2 C1 1_555 1_555
H3 C1 1_555 1_555
C2 C1 1_555 1_555
C3 C2 1_555 1_555
C4 C3 1_555 1_555
C5 C4 1_555 1_555
H4 C5 1_555 1_555
H5 C5 1_555 1_555
H6 C5 1_555 1_555
C6 N1 1_555 1_555
C7 C6 1_555 1_555
C8 C7 1_555 1_555
H7 C8 1_555 1_555
C9 C8 1_555 1_555
H8 C9 1_555 1_555
C10 C9 1_555 1_555
H9 C10 1_555 1_555
C11 C6 1_555 1_555
C12 C7 1_555 1_555
H10 C12 1_555 1_555
C13 C12 1_555 1_555
H11 C13 1_555 1_555
H12 C13 1_555 1_555
H13 C13 1_555 1_555
C14 C12 1_555 1_555
H14 C14 1_555 1_555
H15 C14 1_555 1_555
H16 C14 1_555 1_555
C15 C11 1_555 1_555
H17 C15 1_555 1_555
C16 C15 1_555 1_555
H18 C16 1_555 1_555
H19 C16 1_555 1_555
H20 C16 1_555 1_555
C17 C15 1_555 1_555
H21 C17 1_555 1_555
H22 C17 1_555 1_555
H23 C17 1_555 1_555
C18 N2 1_555 1_555
C19 C18 1_555 1_555
C20 C19 1_555 1_555
H24 C20 1_555 1_555
C21 C20 1_555 1_555
H25 C21 1_555 1_555
C22 C21 1_555 1_555
H26 C22 1_555 1_555
C23 C18 1_555 1_555
C24 C19 1_555 1_555
H27 C24 1_555 1_555
C25 C24 1_555 1_555
H28 C25 1_555 1_555
H29 C25 1_555 1_555
H30 C25 1_555 1_555
C26 C24 1_555 1_555
H31 C26 1_555 1_555
H32 C26 1_555 1_555
H33 C26 1_555 1_555
C27 C23 1_555 1_555
H34 C27 1_555 1_555
C28 C27 1_555 1_555
H35 C28 1_555 1_555
H36 C28 1_555 1_555
H37 C28 1_555 1_555
C29 C27 1_555 1_555
H38 C29 1_555 1_555
H39 C29 1_555 1_555
H40 C29 1_555 1_555
C10 C11 1_555 1_555
C22 C23 1_555 1_555

#END
