
#######################################################################
#
#                 Cambridge Crystallographic Data Centre
#                                CCDC 
#
#######################################################################
#
# If this CIF has been generated from an entry in the Cambridge 
# Structural Database, then it will include bibliographic, chemical, 
# crystal, experimental, refinement or atomic coordinate data resulting 
# from the CCDC's data processing and validation procedures.
#
#######################################################################

data_COPXEM
_chemical_formula_moiety         'C25 H29 N2 O3 P1 S2'
_chemical_name_systematic        
'Diethyl (4-(4,5-bis(2,5-dimethyl-3-thienyl)-1H-imidazol-2-yl)phenyl)phosphonate'
_symmetry_cell_setting           orthorhombic
_symmetry_space_group_name_H-M   'P 21 21 21'
_symmetry_Int_Tables_number      19
_space_group_name_Hall           'P 2ac 2ab'
loop_
_symmetry_equiv_pos_site_id
_symmetry_equiv_pos_as_xyz
1 x,y,z
2 1/2-x,-y,1/2+z
3 -x,1/2+y,1/2-z
4 1/2+x,1/2-y,-z
_cell_length_a                   8.103(3)
_cell_length_b                   8.097(3)
_cell_length_c                   40.015(14)
_cell_angle_alpha                90
_cell_angle_beta                 90
_cell_angle_gamma                90
_cell_volume                     2625.38
_exptl_crystal_colour            yellow
_exptl_crystal_description       blocky
_cell_formula_units_Z            4
loop_
_atom_site_label
_atom_site_type_symbol
_atom_site_fract_x
_atom_site_fract_y
_atom_site_fract_z
P1 P 0.53600(17) -0.08304(15) -0.03936(3)
S1 S 0.28308(17) 0.2482(2) 0.22849(3)
S2 S 0.91479(18) 0.76345(16) 0.18628(3)
O1 O 0.3701(4) -0.0835(4) -0.05392(8)
O2 O 0.6722(5) -0.0027(6) -0.06160(9)
O3 O 0.6008(5) -0.2599(5) -0.03211(10)
N1 N 0.4844(4) 0.2334(5) 0.11875(8)
N2 N 0.6653(4) 0.4166(4) 0.09932(8)
H1 H 0.7295 0.4670 0.0856
C1 C 0.3841(8) 0.0256(6) 0.18015(14)
H2 H 0.4407 0.0186 0.1591
H3 H 0.2736 -0.0153 0.1776
H4 H 0.4414 -0.0395 0.1965
C2 C 0.3787(6) 0.2001(6) 0.19125(12)
C3 C 0.4404(6) 0.3385(6) 0.17677(10)
C4 C 0.4070(6) 0.4829(6) 0.19588(11)
H5 H 0.4397 0.5880 0.1892
C5 C 0.3239(6) 0.4542(6) 0.22444(12)
C6 C 0.2670(8) 0.5786(8) 0.24976(13)
H6 H 0.3022 0.6869 0.2431
H7 H 0.3137 0.5525 0.2712
H8 H 0.1488 0.5760 0.2512
C7 C 0.8400(7) 0.4359(6) 0.19962(13)
H9 H 0.7782 0.3438 0.1912
H10 H 0.8007 0.4643 0.2215
H11 H 0.9547 0.4070 0.2008
C8 C 0.8188(6) 0.5802(6) 0.17678(11)
C9 C 0.7330(6) 0.5926(5) 0.14786(10)
C10 C 0.7448(6) 0.7528(6) 0.13345(11)
H12 H 0.6927 0.7819 0.1136
C11 C 0.8395(7) 0.8591(6) 0.15142(13)
C12 C 0.8771(10) 1.0385(6) 0.14547(16)
H13 H 0.8251 1.0738 0.1251
H14 H 0.9943 1.0533 0.1437
H15 H 0.8359 1.1029 0.1638
C13 C 0.5263(6) 0.3434(5) 0.14422(10)
C14 C 0.6408(5) 0.4564(5) 0.13253(10)
C15 C 0.5691(5) 0.2826(5) 0.09225(10)
C16 C 0.5648(6) 0.1993(5) 0.05986(11)
C17 C 0.6415(6) 0.2595(6) 0.03180(11)
H16 H 0.6960 0.3605 0.0329
C18 C 0.6397(7) 0.1735(6) 0.00184(12)
H17 H 0.6967 0.2151 -0.0165
C19 C 0.5541(7) 0.0266(6) -0.00099(11)
C20 C 0.4772(7) -0.0365(7) 0.02733(12)
H18 H 0.4217 -0.1368 0.0261
C21 C 0.4825(7) 0.0485(7) 0.05718(12)
H19 H 0.4303 0.0045 0.0759
C22 C 0.6756(13) -0.0282(14) -0.09756(17)
H20 H 0.5618 -0.0250 -0.1051
H21 H 0.7293 0.0679 -0.1071
C23 C 0.7417(19) -0.1549(17) -0.1114(3)
H22 H 0.7347 -0.1517 -0.1353
H23 H 0.8555 -0.1595 -0.1048
H24 H 0.6850 -0.2508 -0.1032
C24 C 0.4913(12) -0.3995(9) -0.0280(2)
H25 H 0.3796 -0.3614 -0.0239
H26 H 0.5261 -0.4658 -0.0091
C25 C 0.4969(11) -0.4995(9) -0.0590(2)
H27 H 0.4216 -0.5905 -0.0571
H28 H 0.6068 -0.5407 -0.0624
H29 H 0.4658 -0.4319 -0.0777
H30? H 0.6120 -0.1263 -0.1028
H31? H 0.7890 -0.0501 -0.1039
C26? C 0.625(3) 0.088(2) -0.1170(5)
H32? H 0.6347 0.0574 -0.1401
H33? H 0.5115 0.1089 -0.1118
H34? H 0.6892 0.1854 -0.1129
loop_
_geom_bond_atom_site_label_1
_geom_bond_atom_site_label_2
_geom_bond_site_symmetry_1
_geom_bond_site_symmetry_2
P1 O1 1_555 1_555
S1 C2 1_555 1_555
S2 C8 1_555 1_555
O2 P1 1_555 1_555
O3 P1 1_555 1_555
N1 C13 1_555 1_555
N2 H1 1_555 1_555
C1 H2 1_555 1_555
H3 C1 1_555 1_555
H4 C1 1_555 1_555
C2 C1 1_555 1_555
C3 C2 1_555 1_555
C4 C3 1_555 1_555
H5 C4 1_555 1_555
C5 S1 1_555 1_555
C6 C5 1_555 1_555
H6 C6 1_555 1_555
H7 C6 1_555 1_555
H8 C6 1_555 1_555
C7 H9 1_555 1_555
H10 C7 1_555 1_555
H11 C7 1_555 1_555
C8 C7 1_555 1_555
C9 C8 1_555 1_555
C10 C9 1_555 1_555
H12 C10 1_555 1_555
C11 S2 1_555 1_555
C12 C11 1_555 1_555
H13 C12 1_555 1_555
H14 C12 1_555 1_555
H15 C12 1_555 1_555
C13 C3 1_555 1_555
C14 N2 1_555 1_555
C15 N1 1_555 1_555
C16 C15 1_555 1_555
C17 C16 1_555 1_555
H16 C17 1_555 1_555
C18 C17 1_555 1_555
H17 C18 1_555 1_555
C19 P1 1_555 1_555
C20 C19 1_555 1_555
H18 C20 1_555 1_555
C21 C16 1_555 1_555
H19 C21 1_555 1_555
C22 O2 1_555 1_555
H20 C22 1_555 1_555
H21 C22 1_555 1_555
C23 C22 1_555 1_555
H22 C23 1_555 1_555
H23 C23 1_555 1_555
H24 C23 1_555 1_555
C24 O3 1_555 1_555
H25 C24 1_555 1_555
H26 C24 1_555 1_555
C25 C24 1_555 1_555
H27 C25 1_555 1_555
H28 C25 1_555 1_555
H29 C25 1_555 1_555
N2 C15 1_555 1_555
C4 C5 1_555 1_555
C9 C14 1_555 1_555
C10 C11 1_555 1_555
C13 C14 1_555 1_555
C18 C19 1_555 1_555
C20 C21 1_555 1_555

#END
