
#######################################################################
#
#                 Cambridge Crystallographic Data Centre
#                                CCDC 
#
#######################################################################
#
# If this CIF has been generated from an entry in the Cambridge 
# Structural Database, then it will include bibliographic, chemical, 
# crystal, experimental, refinement or atomic coordinate data resulting 
# from the CCDC's data processing and validation procedures.
#
#######################################################################

data_COQBUF
_chemical_formula_moiety         'C21 H25 N1 O5'
_chemical_name_systematic        
cis-3-Aza-2-oxa-6,6-bis(ethoxycarbonyl)-5-phenyltricyclo(5.3.1.0^4,11^)-undec-3-ene
_symmetry_cell_setting           orthorhombic
_symmetry_space_group_name_H-M   'P b c a'
_symmetry_Int_Tables_number      61
_space_group_name_Hall           '-P 2ac 2ab'
loop_
_symmetry_equiv_pos_site_id
_symmetry_equiv_pos_as_xyz
1 x,y,z
2 1/2-x,-y,1/2+z
3 1/2+x,1/2-y,-z
4 -x,1/2+y,1/2-z
5 -x,-y,-z
6 1/2+x,y,1/2-z
7 1/2-x,1/2+y,z
8 x,1/2-y,1/2+z
_cell_length_a                   12.613(3)
_cell_length_b                   15.097(6)
_cell_length_c                   20.378(10)
_cell_angle_alpha                90
_cell_angle_beta                 90
_cell_angle_gamma                90
_cell_volume                     3880.35
_chemical_melting_point          97-98deg.C
_cell_formula_units_Z            8
loop_
_atom_site_label
_atom_site_type_symbol
_atom_site_fract_x
_atom_site_fract_y
_atom_site_fract_z
O1 O 0.84460 0.25869 0.05514
O2 O 0.88427 0.16747 0.30074
O3 O 0.72470 0.10729 0.32031
O4 O 0.73232 -0.07672 0.20712
O5 O 0.85540 -0.04542 0.28235
N1 N 0.91600 0.19325 0.08044
C1 C 0.73965 0.24249 0.08435
C2 C 0.67583 0.18314 0.03912
C3 C 0.59813 0.12521 0.07646
C4 C 0.65677 0.06370 0.12421
C5 C 0.70957 0.11895 0.17834
C6 C 0.76828 0.19984 0.15011
C7 C 0.87367 0.16269 0.13265
C8 C 0.90783 0.08862 0.17688
C9 C 0.80180 0.07302 0.21792
C10 C 0.81183 0.12186 0.28464
C11 C 0.72504 0.13991 0.38825
C12 C 0.76863 0.07127 0.43229
C13 C 0.78827 -0.02452 0.23385
C14 C 0.86431 -0.13834 0.29950
C15 C 0.94194 -0.14614 0.35059
C16 C 0.95567 0.00787 0.14421
C17 C 0.92980 -0.01844 0.08052
C18 C 0.97435 -0.09351 0.05362
C19 C 1.04273 -0.14527 0.08902
C20 C 1.06916 -0.12024 0.15209
C21 C 1.02720 -0.04342 0.17893
H1 H 0.69747 0.30537 0.09218
H2 H 0.73049 0.13960 0.01190
H3 H 0.63345 0.22274 0.00249
H4 H 0.54456 0.16793 0.10485
H5 H 0.54886 0.08669 0.04272
H6 H 0.71790 0.02687 0.09685
H7 H 0.60285 0.01484 0.14521
H8 H 0.64846 0.14187 0.21251
H9 H 0.77767 0.25117 0.18739
H10 H 0.96779 0.11502 0.21084
H11 H 0.64266 0.15608 0.40532
H12 H 0.77020 0.20149 0.39411
H13 H 0.76012 0.09333 0.48270
H14 H 0.85325 0.05874 0.42260
H15 H 0.72793 0.00724 0.42678
H16 H 0.78847 -0.16903 0.31294
H17 H 0.89375 -0.17892 0.25646
H18 H 0.96535 -0.21376 0.36289
H19 H 0.90963 -0.11829 0.39922
H20 H 1.01480 -0.10774 0.34273
H21 H 0.87931 0.01917 0.05431
H22 H 0.95476 -0.11235 0.00776
H23 H 1.07644 -0.19841 0.06898
H24 H 1.11566 -0.15960 0.17770
H25 H 1.04866 -0.02455 0.22412
loop_
_geom_bond_atom_site_label_1
_geom_bond_atom_site_label_2
_geom_bond_site_symmetry_1
_geom_bond_site_symmetry_2
O1 N1 1_555 1_555
O2 C10 1_555 1_555
O3 C10 1_555 1_555
O4 C13 1_555 1_555
O5 C13 1_555 1_555
N1 C7 1_555 1_555
C1 O1 1_555 1_555
C2 C1 1_555 1_555
C3 C2 1_555 1_555
C4 C3 1_555 1_555
C5 C4 1_555 1_555
C6 C1 1_555 1_555
C7 C6 1_555 1_555
C8 C7 1_555 1_555
C9 C5 1_555 1_555
C10 C9 1_555 1_555
C11 O3 1_555 1_555
C12 C11 1_555 1_555
C13 C9 1_555 1_555
C14 O5 1_555 1_555
C15 C14 1_555 1_555
C16 C8 1_555 1_555
C17 C16 1_555 1_555
C18 C17 1_555 1_555
C19 C18 1_555 1_555
C20 C19 1_555 1_555
C21 C16 1_555 1_555
H1 C1 1_555 1_555
H2 C2 1_555 1_555
H3 C2 1_555 1_555
H4 C3 1_555 1_555
H5 C3 1_555 1_555
H6 C4 1_555 1_555
H7 C4 1_555 1_555
H8 C5 1_555 1_555
H9 C6 1_555 1_555
H10 C8 1_555 1_555
H11 C11 1_555 1_555
H12 C11 1_555 1_555
H13 C12 1_555 1_555
H14 C12 1_555 1_555
H15 C12 1_555 1_555
H16 C14 1_555 1_555
H17 C14 1_555 1_555
H18 C15 1_555 1_555
H19 C15 1_555 1_555
H20 C15 1_555 1_555
H21 C17 1_555 1_555
H22 C18 1_555 1_555
H23 C19 1_555 1_555
H24 C20 1_555 1_555
H25 C21 1_555 1_555
C5 C6 1_555 1_555
C8 C9 1_555 1_555
C20 C21 1_555 1_555

#END
