
#######################################################################
#
#                 Cambridge Crystallographic Data Centre
#                                CCDC 
#
#######################################################################
#
# If this CIF has been generated from an entry in the Cambridge 
# Structural Database, then it will include bibliographic, chemical, 
# crystal, experimental, refinement or atomic coordinate data resulting 
# from the CCDC's data processing and validation procedures.
#
#######################################################################

data_COQDUI
_chemical_name_common            WY-46824
_chemical_formula_moiety         'C19 H31 Cl1 N2 O1 2+,2(Cl1 1-)'
_chemical_name_systematic        
'1-((1R)-1-(3-Chlorophenyl)-2-(4-methylpiperazin-1-yl)ethyl)cyclohexanol dihydrochloride'
_chemical_properties_biological  'potent norepinephrine reuptake inhibition'
_symmetry_cell_setting           monoclinic
_symmetry_space_group_name_H-M   'P 21'
_symmetry_Int_Tables_number      4
_space_group_name_Hall           'P 2yb'
loop_
_symmetry_equiv_pos_site_id
_symmetry_equiv_pos_as_xyz
1 x,y,z
2 -x,1/2+y,-z
_cell_length_a                   10.3558(2)
_cell_length_b                   6.8232(1)
_cell_length_c                   14.7816(3)
_cell_angle_alpha                90
_cell_angle_beta                 94.469(1)
_cell_angle_gamma                90
_cell_volume                     1041.29
_exptl_crystal_colour            colorless
_exptl_crystal_description       needle
_cell_formula_units_Z            2
loop_
_atom_site_label
_atom_site_type_symbol
_atom_site_fract_x
_atom_site_fract_y
_atom_site_fract_z
Cl1 Cl 0.00672(8) 0.95004(14) 0.40327(6)
O1 O 0.6168(2) 0.8866(3) 0.2246(2)
H1 H 0.6819(36) 0.8356(51) 0.2176(24)
N1 N 0.3188(2) 0.7388(4) 0.05375(15)
H2 H 0.3334(44) 0.8856(68) 0.0491(29)
N2 N 0.1350(2) 0.6844(4) -0.1039(2)
H3 H 0.1323(36) 0.5398(63) -0.1034(25)
C1 C 0.5321(3) 0.7774(5) 0.2786(2)
C2 C 0.5862(3) 0.5738(5) 0.3020(2)
H4 H 0.6018(28) 0.4930(46) 0.2441(21)
H5 H 0.5206(34) 0.5125(52) 0.3298(23)
C3 C 0.7122(3) 0.5792(6) 0.3635(3)
H6 H 0.7334(36) 0.4395(65) 0.3819(25)
H7 H 0.7837(33) 0.6373(51) 0.3293(23)
C4 C 0.6952(4) 0.6974(7) 0.4492(2)
H8 H 0.6274(36) 0.6260(53) 0.4852(24)
H9 H 0.7768(40) 0.7011(63) 0.4913(27)
C5 C 0.6476(4) 0.9034(7) 0.4255(3)
H10 H 0.7140(36) 0.9673(58) 0.3868(24)
H11 H 0.6352(41) 0.9920(67) 0.4790(30)
C6 C 0.5193(3) 0.8957(5) 0.3654(2)
H12 H 0.4514(33) 0.8393(48) 0.4003(22)
H13 H 0.4887(33) 1.0274(56) 0.3503(22)
C7 C 0.3989(3) 0.7723(5) 0.2200(2)
H14 H 0.3864(26) 0.8989(44) 0.2107(18)
C8 C 0.2883(3) 0.6997(4) 0.2722(2)
C9 C 0.2070(3) 0.8383(5) 0.3089(2)
H15 H 0.2204(30) 0.9843(51) 0.2974(20)
C10 C 0.1075(3) 0.7752(5) 0.3587(2)
C11 C 0.0859(3) 0.5797(6) 0.3746(2)
H16 H 0.0166(32) 0.5348(50) 0.4123(21)
C12 C 0.1651(3) 0.4416(5) 0.3377(2)
H17 H 0.1454(33) 0.2791(59) 0.3536(23)
C13 C 0.2654(3) 0.5010(5) 0.2867(2)
H18 H 0.3098(34) 0.4024(53) 0.2603(23)
C14 C 0.4135(3) 0.6662(5) 0.1302(2)
H19 H 0.4984(25) 0.6941(39) 0.1108(16)
H20 H 0.4017(25) 0.5251(43) 0.1330(17)
C15 C 0.1811(3) 0.6806(5) 0.0631(2)
H21 H 0.1553(28) 0.7294(46) 0.1155(20)
H22 H 0.1819(28) 0.5307(49) 0.0676(20)
C16 C 0.0940(3) 0.7586(5) -0.0160(2)
H23 H 0.0013(31) 0.7175(43) -0.0042(20)
H24 H 0.0993(27) 0.9054(45) -0.0192(18)
C17 C 0.2720(3) 0.7460(5) -0.1138(2)
H25 H 0.2760(30) 0.8817(50) -0.1150(21)
H26 H 0.3005(26) 0.7035(41) -0.1713(19)
C18 C 0.3600(3) 0.6658(5) -0.0356(2)
H27 H 0.3540(26) 0.5176(44) -0.0322(18)
H28 H 0.4518(29) 0.7145(43) -0.0420(19)
C19 C 0.0450(3) 0.7516(6) -0.1820(2)
H29 H -0.0457(36) 0.7118(53) -0.1691(23)
H30 H 0.0756(32) 0.6922(55) -0.2356(24)
H31 H 0.0500(31) 0.8911(53) -0.1901(21)
Cl2 Cl 0.29573(8) 1.17766(11) 0.07733(6)
Cl3 Cl 0.11935(8) 0.25781(11) -0.15382(5)
loop_
_geom_bond_atom_site_label_1
_geom_bond_atom_site_label_2
_geom_bond_site_symmetry_1
_geom_bond_site_symmetry_2
Cl1 C10 1_555 1_555
O1 H1 1_555 1_555
N1 H2 1_555 1_555
N2 H3 1_555 1_555
C1 O1 1_555 1_555
C2 C1 1_555 1_555
H4 C2 1_555 1_555
H5 C2 1_555 1_555
C3 C2 1_555 1_555
H6 C3 1_555 1_555
H7 C3 1_555 1_555
C4 C3 1_555 1_555
H8 C4 1_555 1_555
H9 C4 1_555 1_555
C5 C4 1_555 1_555
H10 C5 1_555 1_555
H11 C5 1_555 1_555
C6 C1 1_555 1_555
H12 C6 1_555 1_555
H13 C6 1_555 1_555
C7 C1 1_555 1_555
H14 C7 1_555 1_555
C8 C7 1_555 1_555
C9 C8 1_555 1_555
H15 C9 1_555 1_555
C10 C9 1_555 1_555
C11 C10 1_555 1_555
H16 C11 1_555 1_555
C12 C11 1_555 1_555
H17 C12 1_555 1_555
C13 C8 1_555 1_555
H18 C13 1_555 1_555
C14 N1 1_555 1_555
H19 C14 1_555 1_555
H20 C14 1_555 1_555
C15 N1 1_555 1_555
H21 C15 1_555 1_555
H22 C15 1_555 1_555
C16 N2 1_555 1_555
H23 C16 1_555 1_555
H24 C16 1_555 1_555
C17 N2 1_555 1_555
H25 C17 1_555 1_555
H26 C17 1_555 1_555
C18 N1 1_555 1_555
H27 C18 1_555 1_555
H28 C18 1_555 1_555
C19 N2 1_555 1_555
H29 C19 1_555 1_555
H30 C19 1_555 1_555
H31 C19 1_555 1_555
C5 C6 1_555 1_555
C7 C14 1_555 1_555
C12 C13 1_555 1_555
C15 C16 1_555 1_555
C17 C18 1_555 1_555

#END
