
#######################################################################
#
#                 Cambridge Crystallographic Data Centre
#                                CCDC 
#
#######################################################################
#
# If this CIF has been generated from an entry in the Cambridge 
# Structural Database, then it will include bibliographic, chemical, 
# crystal, experimental, refinement or atomic coordinate data resulting 
# from the CCDC's data processing and validation procedures.
#
#######################################################################

data_COQFUL
_chemical_formula_moiety         'C39 H45 N5 O4,2(C1 H4 O1)'
_chemical_name_systematic        
"2,7,7,12,17,17-hexamethyl-2,12-(3,3'-((pyridin-2,6-diylbis(carbonyl))dioxy)dipropyl)calix(4)pyrrole methanol solvate"
_symmetry_cell_setting           monoclinic
_symmetry_space_group_name_H-M   'P 21/c'
_symmetry_Int_Tables_number      14
_space_group_name_Hall           '-P 2ybc'
loop_
_symmetry_equiv_pos_site_id
_symmetry_equiv_pos_as_xyz
1 x,y,z
2 -x,1/2+y,1/2-z
3 -x,-y,-z
4 x,1/2-y,1/2+z
_cell_length_a                   12.6815(2)
_cell_length_b                   9.7814(2)
_cell_length_c                   29.9349(9)
_cell_angle_alpha                90
_cell_angle_beta                 94.805(2)
_cell_angle_gamma                90
_cell_volume                     3700.16
_exptl_crystal_colour            colorless
_exptl_crystal_description       prism
_cell_formula_units_Z            4
loop_
_atom_site_label
_atom_site_type_symbol
_atom_site_fract_x
_atom_site_fract_y
_atom_site_fract_z
O1 O 0.14510(8) 0.19766(11) 0.26220(4)
O2 O 0.09545(9) 0.37002(12) 0.30577(4)
O3 O 0.52044(9) 0.21986(12) 0.22008(4)
O4 O 0.58421(9) 0.42882(12) 0.24045(4)
N1 N 0.10637(10) 0.22825(14) 0.06157(4)
N2 N 0.35537(11) 0.31852(14) 0.04375(4)
N3 N 0.35872(10) 0.53965(14) 0.12763(4)
N4 N 0.11006(10) 0.44658(13) 0.14466(4)
N5 N 0.34536(10) 0.30813(13) 0.26907(4)
C1 C 0.14606(12) 0.12664(16) 0.03558(5)
C2 C 0.10023(13) 0.00687(16) 0.04747(5)
H1 H 0.1121 -0.0808 0.0352
C3 C 0.03255(13) 0.03609(16) 0.08107(5)
H2 H -0.0092 -0.0286 0.0954
C4 C 0.03685(12) 0.17346(16) 0.08969(5)
C5 C -0.01538(12) 0.25073(15) 0.12583(5)
C6 C 0.01202(12) 0.40108(15) 0.12734(5)
C7 C -0.04674(12) 0.51511(15) 0.11590(5)
H3 H -0.1179 0.5159 0.1031
C8 C 0.01669(12) 0.63174(16) 0.12641(5)
H4 H -0.0043 0.7242 0.1218
C9 C 0.11384(12) 0.58778(15) 0.14451(5)
C10 C 0.21167(12) 0.66515(15) 0.16256(5)
C11 C 0.29727(12) 0.65504(16) 0.13021(5)
C12 C 0.32954(13) 0.74464(17) 0.09861(5)
H5 H 0.3012 0.8331 0.0923
C13 C 0.41245(13) 0.68174(17) 0.07716(5)
H6 H 0.4496 0.7209 0.0540
C14 C 0.42961(12) 0.55465(16) 0.09560(5)
C15 C 0.50951(12) 0.44466(17) 0.08744(5)
C16 C 0.45872(12) 0.32228(17) 0.06267(5)
C17 C 0.50191(14) 0.19729(18) 0.05503(6)
H7 H 0.5724 0.1699 0.0640
C18 C 0.42363(13) 0.11587(19) 0.03149(6)
H8 H 0.4322 0.0240 0.0222
C19 C 0.33340(13) 0.19237(16) 0.02446(5)
C20 C 0.22599(12) 0.15288(16) 0.00175(5)
C21 C -0.13648(12) 0.23523(17) 0.11796(5)
H9 H -0.1704 0.2858 0.1411
H10 H -0.1554 0.1383 0.1194
H11 H -0.1606 0.2717 0.0884
C22 C 0.25267(13) 0.60775(17) 0.20885(5)
H12 H 0.1982 0.6192 0.2299
H13 H 0.3167 0.6572 0.2200
H14 H 0.2691 0.5104 0.2060
C23 C 0.18316(13) 0.81643(16) 0.16836(6)
H15 H 0.1611 0.8562 0.1390
H16 H 0.2451 0.8658 0.1819
H17 H 0.1251 0.8238 0.1879
C24 C 0.59530(13) 0.50492(19) 0.05985(6)
H18 H 0.5628 0.5368 0.0309
H19 H 0.6480 0.4344 0.0549
H20 H 0.6298 0.5819 0.0762
C25 C 0.18409(14) 0.26198(17) -0.03217(5)
H21 H 0.1781 0.3497 -0.0168
H22 H 0.1143 0.2344 -0.0458
H23 H 0.2331 0.2714 -0.0556
C26 C 0.24005(14) 0.01937(18) -0.02434(6)
H24 H 0.2910 0.0341 -0.0468
H25 H 0.1718 -0.0085 -0.0394
H26 H 0.2663 -0.0525 -0.0035
C27 C 0.02484(12) 0.18013(16) 0.17058(5)
H27 H 0.0083 0.0814 0.1678
H28 H 0.1029 0.1888 0.1742
C28 C -0.01861(13) 0.23235(17) 0.21325(5)
H29 H -0.0051 0.3317 0.2164
H30 H -0.0961 0.2176 0.2116
C29 C 0.03371(13) 0.15785(18) 0.25359(5)
H31 H -0.0045 0.1790 0.2803
H32 H 0.0292 0.0580 0.2483
C30 C 0.16296(13) 0.30423(17) 0.28975(5)
C31 C 0.27836(13) 0.33280(16) 0.30048(5)
C32 C 0.30969(14) 0.38588(18) 0.34242(6)
H33 H 0.2593 0.4025 0.3635
C33 C 0.41558(15) 0.4142(2) 0.35299(6)
H34 H 0.4399 0.4464 0.3820
C34 C 0.48504(14) 0.39464(19) 0.32058(6)
H35 H 0.5579 0.4162 0.3265
C35 C 0.44714(13) 0.34318(16) 0.27919(5)
C36 C 0.52003(12) 0.32116(17) 0.24288(5)
C37 C 0.66417(13) 0.42688(19) 0.20828(6)
H36 H 0.6862 0.3313 0.2034
H37 H 0.7271 0.4785 0.2207
C38 C 0.62319(13) 0.48941(17) 0.16353(5)
H38 H 0.6840 0.5237 0.1481
H39 H 0.5775 0.5685 0.1692
C39 C 0.56044(12) 0.38891(17) 0.13278(5)
H40 H 0.5033 0.3501 0.1495
H41 H 0.6081 0.3126 0.1263
H42 H 0.3515(13) 0.4670(18) 0.1432(6)
H43 H 0.1209(12) 0.3174(18) 0.0593(5)
H44 H 0.1658(15) 0.3923(19) 0.1535(6)
H45 H 0.3110(13) 0.3919(18) 0.0433(6)
O5 O 0.29726(9) 0.28544(11) 0.17310(4)
C40 C 0.31541(14) 0.16159(16) 0.14917(6)
H46 H 0.3917 0.1477 0.1481
H47 H 0.2817 0.1684 0.1186
H48 H 0.2853 0.0841 0.1645
H49 H 0.3186(18) 0.271(2) 0.2041(8)
O6 O 0.17207(10) 0.52015(12) 0.04264(4)
C41 C 0.12621(18) 0.61470(19) 0.01100(6)
H50 H 0.0672 0.6616 0.0236
H51 H 0.1001 0.5661 -0.0164
H52 H 0.1795 0.6820 0.0038
H53 H 0.1894(19) 0.568(2) 0.0672(9)
loop_
_geom_bond_atom_site_label_1
_geom_bond_atom_site_label_2
_geom_bond_site_symmetry_1
_geom_bond_site_symmetry_2
O1 C29 1_555 1_555
O2 C30 1_555 1_555
O3 C36 1_555 1_555
O4 C36 1_555 1_555
N1 C1 1_555 1_555
N2 C16 1_555 1_555
N3 C11 1_555 1_555
N4 C6 1_555 1_555
N5 C31 1_555 1_555
C1 C2 1_555 1_555
C2 H1 1_555 1_555
C3 C2 1_555 1_555
H2 C3 1_555 1_555
C4 N1 1_555 1_555
C5 C4 1_555 1_555
C6 C5 1_555 1_555
C7 C6 1_555 1_555
H3 C7 1_555 1_555
C8 C7 1_555 1_555
H4 C8 1_555 1_555
C9 N4 1_555 1_555
C10 C9 1_555 1_555
C11 C10 1_555 1_555
C12 C11 1_555 1_555
H5 C12 1_555 1_555
C13 C12 1_555 1_555
H6 C13 1_555 1_555
C14 N3 1_555 1_555
C15 C14 1_555 1_555
C16 C15 1_555 1_555
C17 C16 1_555 1_555
H7 C17 1_555 1_555
C18 C17 1_555 1_555
H8 C18 1_555 1_555
C19 N2 1_555 1_555
C20 C1 1_555 1_555
C21 C5 1_555 1_555
H9 C21 1_555 1_555
H10 C21 1_555 1_555
H11 C21 1_555 1_555
C22 C10 1_555 1_555
H12 C22 1_555 1_555
H13 C22 1_555 1_555
H14 C22 1_555 1_555
C23 C10 1_555 1_555
H15 C23 1_555 1_555
H16 C23 1_555 1_555
H17 C23 1_555 1_555
C24 C15 1_555 1_555
H18 C24 1_555 1_555
H19 C24 1_555 1_555
H20 C24 1_555 1_555
C25 C20 1_555 1_555
H21 C25 1_555 1_555
H22 C25 1_555 1_555
H23 C25 1_555 1_555
C26 C20 1_555 1_555
H24 C26 1_555 1_555
H25 C26 1_555 1_555
H26 C26 1_555 1_555
C27 C5 1_555 1_555
H27 C27 1_555 1_555
H28 C27 1_555 1_555
C28 C27 1_555 1_555
H29 C28 1_555 1_555
H30 C28 1_555 1_555
C29 C28 1_555 1_555
H31 C29 1_555 1_555
H32 C29 1_555 1_555
C30 O1 1_555 1_555
C31 C30 1_555 1_555
C32 C31 1_555 1_555
H33 C32 1_555 1_555
C33 C32 1_555 1_555
H34 C33 1_555 1_555
C34 C33 1_555 1_555
H35 C34 1_555 1_555
C35 N5 1_555 1_555
C36 C35 1_555 1_555
C37 O4 1_555 1_555
H36 C37 1_555 1_555
H37 C37 1_555 1_555
C38 C37 1_555 1_555
H38 C38 1_555 1_555
H39 C38 1_555 1_555
C39 C15 1_555 1_555
H40 C39 1_555 1_555
H41 C39 1_555 1_555
H42 N3 1_555 1_555
H43 N1 1_555 1_555
H44 N4 1_555 1_555
H45 N2 1_555 1_555
O5 C40 1_555 1_555
C40 H46 1_555 1_555
H47 C40 1_555 1_555
H48 C40 1_555 1_555
H49 O5 1_555 1_555
O6 C41 1_555 1_555
C41 H50 1_555 1_555
H51 C41 1_555 1_555
H52 C41 1_555 1_555
H53 O6 1_555 1_555
C3 C4 1_555 1_555
C8 C9 1_555 1_555
C13 C14 1_555 1_555
C18 C19 1_555 1_555
C19 C20 1_555 1_555
C34 C35 1_555 1_555
C38 C39 1_555 1_555

#END
