
#######################################################################
#
#                 Cambridge Crystallographic Data Centre
#                                CCDC 
#
#######################################################################
#
# If this CIF has been generated from an entry in the Cambridge 
# Structural Database, then it will include bibliographic, chemical, 
# crystal, experimental, refinement or atomic coordinate data resulting 
# from the CCDC's data processing and validation procedures.
#
#######################################################################

data_COQFOF
_chemical_formula_moiety         'C39 H47 N7 O2,2(C1 H4 O1)'
_chemical_name_systematic        
'1,17,22,22,31,31-Hexamethyl-5,13,36,37,38,39,40-hepta-azaheptacyclo[15.9.9.1^7,11^.1^18,21^.1^23,26^.1^27,30^.1^32,35^]tetraconta-7(40),8,10,18,20,23,25,27,29,32,34-undecaene-6,12-dione methanol solvate'
_symmetry_cell_setting           monoclinic
_symmetry_space_group_name_H-M   'P 21/c'
_symmetry_Int_Tables_number      14
_space_group_name_Hall           '-P 2ybc'
loop_
_symmetry_equiv_pos_site_id
_symmetry_equiv_pos_as_xyz
1 x,y,z
2 -x,1/2+y,1/2-z
3 -x,-y,-z
4 x,1/2-y,1/2+z
_cell_length_a                   12.8727(9)
_cell_length_b                   9.6907(6)
_cell_length_c                   30.040(2)
_cell_angle_alpha                90
_cell_angle_beta                 94.735(2)
_cell_angle_gamma                90
_cell_volume                     3734.56
_exptl_crystal_colour            colorless
_exptl_crystal_description       laths
_cell_formula_units_Z            4
loop_
_atom_site_label
_atom_site_type_symbol
_atom_site_fract_x
_atom_site_fract_y
_atom_site_fract_z
O1 O 0.50518(15) 0.2036(2) 0.72835(6)
O2 O 0.08768(15) 0.3703(2) 0.81488(7)
N1 N 0.11241(16) 0.4492(2) 0.64430(7)
H1 H 0.1631 0.3934 0.6542
N2 N 0.35870(16) 0.5398(2) 0.62751(7)
H2 H 0.3528 0.4656 0.6440
N3 N 0.35253(16) 0.3170(2) 0.54365(7)
H3 H 0.3081 0.3856 0.5448
N4 N 0.10552(16) 0.2307(2) 0.56093(6)
H4 H 0.1210 0.3188 0.5590
N5 N 0.56384(16) 0.4251(2) 0.73843(7)
H5 H 0.5522 0.5038 0.7518
N6 N 0.33169(17) 0.3091(2) 0.77389(7)
N7 N 0.12786(17) 0.2108(3) 0.76432(7)
H6 H 0.1784 0.1714 0.7509
C1 C 0.01544(19) 0.4070(3) 0.62631(8)
C2 C -0.0398(2) 0.5241(3) 0.61495(8)
H7 H -0.1095 0.5274 0.6019
C3 C 0.0247(2) 0.6396(3) 0.62599(8)
H8 H 0.0060 0.7336 0.6213
C4 C 0.1184(2) 0.5922(3) 0.64447(8)
C5 C 0.2163(2) 0.6674(3) 0.66295(8)
C6 C 0.2997(2) 0.6571(3) 0.63052(8)
C7 C 0.3325(2) 0.7472(3) 0.59942(9)
H9 H 0.3058 0.8374 0.5935
C8 C 0.4130(2) 0.6829(3) 0.57755(9)
H10 H 0.4498 0.7225 0.5546
C9 C 0.4284(2) 0.5536(3) 0.59534(8)
C10 C 0.5057(2) 0.4410(3) 0.58703(8)
C11 C 0.4551(2) 0.3194(3) 0.56151(8)
C12 C 0.4970(2) 0.1945(3) 0.55265(9)
H11 H 0.5668 0.1664 0.5607
C13 C 0.4190(2) 0.1140(3) 0.52943(10)
H12 H 0.4270 0.0219 0.5194
C14 C 0.3303(2) 0.1907(3) 0.52374(9)
C15 C 0.2237(2) 0.1525(3) 0.50151(8)
C16 C 0.1453(2) 0.1272(3) 0.53542(8)
C17 C 0.1014(2) 0.0064(3) 0.54838(9)
H13 H 0.1138 -0.0826 0.5367
C18 C 0.0349(2) 0.0366(3) 0.58191(9)
H14 H -0.0055 -0.0284 0.5967
C19 C 0.03829(19) 0.1761(3) 0.58966(8)
C20 C -0.01478(19) 0.2564(3) 0.62461(8)
C21 C 0.1897(2) 0.8202(3) 0.66937(10)
H15 H 0.1686 0.8619 0.6403
H16 H 0.2511 0.8685 0.6831
H17 H 0.1325 0.8278 0.6888
C22 C 0.2556(2) 0.6073(3) 0.70899(8)
H18 H 0.2025 0.6210 0.7301
H19 H 0.3200 0.6543 0.7201
H20 H 0.2693 0.5084 0.7060
C23 C 0.5917(2) 0.5021(3) 0.55982(9)
H21 H 0.5604 0.5347 0.5309
H22 H 0.6436 0.4308 0.5551
H23 H 0.6254 0.5795 0.5763
C24 C 0.2355(2) 0.0171(3) 0.47546(9)
H24 H 0.2849 0.0310 0.4527
H25 H 0.1676 -0.0102 0.4610
H26 H 0.2615 -0.0557 0.4961
C25 C 0.1835(2) 0.2625(3) 0.46797(9)
H27 H 0.1776 0.3509 0.4834
H28 H 0.1149 0.2351 0.4542
H29 H 0.2323 0.2720 0.4448
C26 C -0.1343(2) 0.2449(3) 0.61472(9)
H30 H -0.1690 0.2976 0.6371
H31 H -0.1551 0.1478 0.6159
H32 H -0.1544 0.2820 0.5849
C27 C 0.5554(2) 0.3836(3) 0.63225(8)
H33 H 0.4988 0.3457 0.6490
H34 H 0.6016 0.3058 0.6257
C28 C 0.6182(2) 0.4846(3) 0.66267(9)
H35 H 0.5766 0.5693 0.6662
H36 H 0.6823 0.5109 0.6487
C29 C 0.6477(2) 0.4217(3) 0.70862(9)
H37 H 0.6692 0.3246 0.7047
H38 H 0.7085 0.4722 0.7229
C30 C 0.5032(2) 0.3177(3) 0.74705(9)
C31 C 0.4322(2) 0.3434(3) 0.78343(9)
C32 C 0.4705(2) 0.3965(3) 0.82431(9)
H39 H 0.5426 0.4171 0.8299
C33 C 0.4029(2) 0.4191(4) 0.85679(10)
H40 H 0.4276 0.4523 0.8855
C34 C 0.2986(2) 0.3924(3) 0.84660(9)
H41 H 0.2494 0.4112 0.8677
C35 C 0.2663(2) 0.3375(3) 0.80501(9)
C36 C 0.1521(2) 0.3081(3) 0.79469(9)
C37 C 0.0205(2) 0.1667(3) 0.75244(9)
H42 H -0.0218 0.1858 0.7778
H43 H 0.0195 0.0658 0.7472
C38 C -0.0287(2) 0.2389(3) 0.71101(8)
H44 H -0.0170 0.3396 0.7137
H45 H -0.1048 0.2222 0.7082
C39 C 0.0188(2) 0.1850(3) 0.66971(8)
H46 H 0.0017 0.0857 0.6666
H47 H 0.0955 0.1924 0.6749
O3 O 0.29648(15) 0.2790(2) 0.67307(7)
C40 C 0.3130(2) 0.1577(3) 0.64683(11)
H48 H 0.3870 0.1502 0.6418
H49 H 0.2716 0.1646 0.6180
H50 H 0.2914 0.0757 0.6628
H51 H 0.317(3) 0.264(5) 0.7008(15)
C41 C 0.1261(3) 0.6162(4) 0.51188(11)
H52 H 0.0676 0.6626 0.5245
H53 H 0.1006 0.5667 0.4847
H54 H 0.1779 0.6849 0.5046
O4 O 0.17225(16) 0.5216(2) 0.54326(7)
H55 H 0.189(3) 0.570(5) 0.5667(15)
loop_
_geom_bond_atom_site_label_1
_geom_bond_atom_site_label_2
_geom_bond_site_symmetry_1
_geom_bond_site_symmetry_2
O1 C30 1_555 1_555
O2 C36 1_555 1_555
N1 H1 1_555 1_555
N2 H2 1_555 1_555
N3 H3 1_555 1_555
N4 H4 1_555 1_555
N5 H5 1_555 1_555
N6 C31 1_555 1_555
N7 H6 1_555 1_555
C1 N1 1_555 1_555
C2 C1 1_555 1_555
H7 C2 1_555 1_555
C3 C2 1_555 1_555
H8 C3 1_555 1_555
C4 N1 1_555 1_555
C5 C4 1_555 1_555
C6 N2 1_555 1_555
C7 C6 1_555 1_555
H9 C7 1_555 1_555
C8 C7 1_555 1_555
H10 C8 1_555 1_555
C9 N2 1_555 1_555
C10 C9 1_555 1_555
C11 N3 1_555 1_555
C12 C11 1_555 1_555
H11 C12 1_555 1_555
C13 C12 1_555 1_555
H12 C13 1_555 1_555
C14 N3 1_555 1_555
C15 C14 1_555 1_555
C16 N4 1_555 1_555
C17 C16 1_555 1_555
H13 C17 1_555 1_555
C18 C17 1_555 1_555
H14 C18 1_555 1_555
C19 N4 1_555 1_555
C20 C1 1_555 1_555
C21 C5 1_555 1_555
H15 C21 1_555 1_555
H16 C21 1_555 1_555
H17 C21 1_555 1_555
C22 C5 1_555 1_555
H18 C22 1_555 1_555
H19 C22 1_555 1_555
H20 C22 1_555 1_555
C23 C10 1_555 1_555
H21 C23 1_555 1_555
H22 C23 1_555 1_555
H23 C23 1_555 1_555
C24 C15 1_555 1_555
H24 C24 1_555 1_555
H25 C24 1_555 1_555
H26 C24 1_555 1_555
C25 C15 1_555 1_555
H27 C25 1_555 1_555
H28 C25 1_555 1_555
H29 C25 1_555 1_555
C26 C20 1_555 1_555
H30 C26 1_555 1_555
H31 C26 1_555 1_555
H32 C26 1_555 1_555
C27 C10 1_555 1_555
H33 C27 1_555 1_555
H34 C27 1_555 1_555
C28 C27 1_555 1_555
H35 C28 1_555 1_555
H36 C28 1_555 1_555
C29 N5 1_555 1_555
H37 C29 1_555 1_555
H38 C29 1_555 1_555
C30 N5 1_555 1_555
C31 C30 1_555 1_555
C32 C31 1_555 1_555
H39 C32 1_555 1_555
C33 C32 1_555 1_555
H40 C33 1_555 1_555
C34 C33 1_555 1_555
H41 C34 1_555 1_555
C35 N6 1_555 1_555
C36 N7 1_555 1_555
C37 N7 1_555 1_555
H42 C37 1_555 1_555
H43 C37 1_555 1_555
C38 C37 1_555 1_555
H44 C38 1_555 1_555
H45 C38 1_555 1_555
C39 C20 1_555 1_555
H46 C39 1_555 1_555
H47 C39 1_555 1_555
O3 C40 1_555 1_555
C40 H48 1_555 1_555
H49 C40 1_555 1_555
H50 C40 1_555 1_555
H51 O3 1_555 1_555
C41 H52 1_555 1_555
H53 C41 1_555 1_555
H54 C41 1_555 1_555
O4 C41 1_555 1_555
H55 O4 1_555 1_555
C3 C4 1_555 1_555
C5 C6 1_555 1_555
C8 C9 1_555 1_555
C10 C11 1_555 1_555
C13 C14 1_555 1_555
C15 C16 1_555 1_555
C18 C19 1_555 1_555
C19 C20 1_555 1_555
C28 C29 1_555 1_555
C34 C35 1_555 1_555
C35 C36 1_555 1_555
C38 C39 1_555 1_555

#END
