
#######################################################################
#
#                 Cambridge Crystallographic Data Centre
#                                CCDC 
#
#######################################################################
#
# If this CIF has been generated from an entry in the Cambridge 
# Structural Database, then it will include bibliographic, chemical, 
# crystal, experimental, refinement or atomic coordinate data resulting 
# from the CCDC's data processing and validation procedures.
#
#######################################################################

data_COQMIG
_chemical_formula_moiety         'C26 H27 N1 O5'
_chemical_name_systematic        
'dimethyl 3-acetyl-4-(1-(2-(benzylideneamino)phenyl)ethyl)cyclopent-3-ene-1,1-dicarboxylate'
_symmetry_cell_setting           monoclinic
_symmetry_space_group_name_H-M   'P 21/c'
_symmetry_Int_Tables_number      14
_space_group_name_Hall           '-P 2ybc'
loop_
_symmetry_equiv_pos_site_id
_symmetry_equiv_pos_as_xyz
1 x,y,z
2 -x,1/2+y,1/2-z
3 -x,-y,-z
4 x,1/2-y,1/2+z
_cell_length_a                   11.6989(9)
_cell_length_b                   10.6334(8)
_cell_length_c                   18.8550(14)
_cell_angle_alpha                90
_cell_angle_beta                 93.011(2)
_cell_angle_gamma                90
_cell_volume                     2342.31
_exptl_crystal_colour            colorless
_exptl_crystal_description       prismatic
_cell_formula_units_Z            4
_exptl_crystal_recrystallization_method 'petrol ether/ethyl acetate'
loop_
_atom_site_label
_atom_site_type_symbol
_atom_site_fract_x
_atom_site_fract_y
_atom_site_fract_z
N1 N 0.93515(12) 0.58697(14) 0.27907(8)
O1 O 0.80660(19) 0.77042(15) 0.11893(10)
O2 O 0.50115(14) 0.40366(18) 0.09449(10)
O3 O 0.58612(12) 0.28209(14) 0.01808(7)
O4 O 0.82794(13) 0.17014(15) 0.11190(9)
O5 O 0.65284(12) 0.13817(12) 0.14894(8)
C1 C 0.68726(17) 0.40461(17) 0.19303(9)
H1 H 0.6091 0.4007 0.2078
H2 H 0.7371 0.3627 0.2283
C2 C 0.69722(15) 0.34436(16) 0.11918(9)
C3 C 0.78418(16) 0.42847(18) 0.08297(10)
H3 H 0.8608 0.3937 0.0884
H4 H 0.7635 0.4387 0.0328
C4 C 0.77628(14) 0.55222(16) 0.12218(9)
C5 C 0.72401(14) 0.53832(16) 0.18286(9)
C6 C 0.70500(15) 0.63545(16) 0.24003(9)
H5 H 0.7557 0.7066 0.2315
C7 C 0.58200(18) 0.6844(2) 0.23225(11)
H6 H 0.5698 0.7249 0.1870
H7 H 0.5694 0.7437 0.2694
H8 H 0.5297 0.6153 0.2354
C8 C 0.73921(15) 0.58358(16) 0.31315(9)
C9 C 0.66157(18) 0.5586(2) 0.36465(10)
H9 H 0.5842 0.5746 0.3550
C10 C 0.6978(2) 0.5103(2) 0.43005(11)
H10 H 0.6444 0.4931 0.4635
C11 C 0.8113(2) 0.4875(2) 0.44618(11)
H11 H 0.8350 0.4562 0.4906
C12 C 0.8899(2) 0.5112(2) 0.39627(11)
H12 H 0.9672 0.4958 0.4069
C13 C 0.85430(16) 0.55813(17) 0.32990(9)
C14 C 1.00046(16) 0.50180(18) 0.25962(10)
H13 H 0.9908 0.4213 0.2777
C15 C 1.09079(15) 0.52121(17) 0.21032(9)
C16 C 1.12793(17) 0.64042(19) 0.19388(11)
H14 H 1.0924 0.7104 0.2125
C17 C 1.14402(17) 0.4184(2) 0.18129(11)
H15 H 1.1187 0.3376 0.1910
C18 C 1.21738(19) 0.6560(2) 0.15007(13)
H16 H 1.2417 0.7364 0.1387
C19 C 1.27058(19) 0.5531(3) 0.12317(12)
H17 H 1.3321 0.5638 0.0945
C20 C 1.2337(2) 0.4349(2) 0.13829(12)
H18 H 1.2694 0.3653 0.1194
C21 C 0.83080(18) 0.66806(19) 0.09683(10)
C22 C 0.9191(2) 0.6559(2) 0.04252(12)
H19 H 0.8829 0.6297 -0.0019
H20 H 0.9751 0.5944 0.0581
H21 H 0.9560 0.7356 0.0366
C23 C 0.58288(16) 0.34823(17) 0.07788(10)
C24 C 0.4813(2) 0.2758(3) -0.02565(14)
H22 H 0.4215 0.2418 0.0016
H23 H 0.4923 0.2228 -0.0659
H24 H 0.4603 0.3588 -0.0417
C25 C 0.73626(16) 0.20890(18) 0.12511(9)
C26 C 0.6759(2) 0.00538(19) 0.15600(14)
H25 H 0.6647 -0.0344 0.1105
H26 H 0.6248 -0.0310 0.1885
H27 H 0.7535 -0.0068 0.1737
loop_
_geom_bond_atom_site_label_1
_geom_bond_atom_site_label_2
_geom_bond_site_symmetry_1
_geom_bond_site_symmetry_2
N1 C13 1_555 1_555
O1 C21 1_555 1_555
O2 C23 1_555 1_555
O3 C23 1_555 1_555
O4 C25 1_555 1_555
O5 C25 1_555 1_555
C1 H1 1_555 1_555
H2 C1 1_555 1_555
C2 C1 1_555 1_555
C3 C2 1_555 1_555
H3 C3 1_555 1_555
H4 C3 1_555 1_555
C4 C3 1_555 1_555
C5 C1 1_555 1_555
C6 C5 1_555 1_555
H5 C6 1_555 1_555
C7 C6 1_555 1_555
H6 C7 1_555 1_555
H7 C7 1_555 1_555
H8 C7 1_555 1_555
C8 C6 1_555 1_555
C9 C8 1_555 1_555
H9 C9 1_555 1_555
C10 C9 1_555 1_555
H10 C10 1_555 1_555
C11 C10 1_555 1_555
H11 C11 1_555 1_555
C12 C11 1_555 1_555
H12 C12 1_555 1_555
C13 C8 1_555 1_555
C14 N1 1_555 1_555
H13 C14 1_555 1_555
C15 C14 1_555 1_555
C16 C15 1_555 1_555
H14 C16 1_555 1_555
C17 C15 1_555 1_555
H15 C17 1_555 1_555
C18 C16 1_555 1_555
H16 C18 1_555 1_555
C19 C18 1_555 1_555
H17 C19 1_555 1_555
C20 C17 1_555 1_555
H18 C20 1_555 1_555
C21 C4 1_555 1_555
C22 C21 1_555 1_555
H19 C22 1_555 1_555
H20 C22 1_555 1_555
H21 C22 1_555 1_555
C23 C2 1_555 1_555
C24 O3 1_555 1_555
H22 C24 1_555 1_555
H23 C24 1_555 1_555
H24 C24 1_555 1_555
C25 C2 1_555 1_555
C26 O5 1_555 1_555
H25 C26 1_555 1_555
H26 C26 1_555 1_555
H27 C26 1_555 1_555
C4 C5 1_555 1_555
C12 C13 1_555 1_555
C19 C20 1_555 1_555

#END
