
#######################################################################
#
#                 Cambridge Crystallographic Data Centre
#                                CCDC 
#
#######################################################################
#
# If this CIF has been generated from an entry in the Cambridge 
# Structural Database, then it will include bibliographic, chemical, 
# crystal, experimental, refinement or atomic coordinate data resulting 
# from the CCDC's data processing and validation procedures.
#
#######################################################################

data_COQPIJ
_chemical_formula_moiety         'C20 H19 N1 O2'
_chemical_name_systematic        
15-phenyl-4,17-dioxa-14-azatetracyclo[12.2.1.0^1,6^.0^8,13^]heptadeca-6,8,10,12-tetraene
_symmetry_cell_setting           monoclinic
_symmetry_space_group_name_H-M   'P 21/c'
_symmetry_Int_Tables_number      14
_space_group_name_Hall           '-P 2ybc'
loop_
_symmetry_equiv_pos_site_id
_symmetry_equiv_pos_as_xyz
1 x,y,z
2 -x,1/2+y,1/2-z
3 -x,-y,-z
4 x,1/2-y,1/2+z
_cell_length_a                   11.303(7)
_cell_length_b                   13.741(10)
_cell_length_c                   10.614(8)
_cell_angle_alpha                90
_cell_angle_beta                 104.335(15)
_cell_angle_gamma                90
_cell_volume                     1597.18
_exptl_crystal_colour            colorless
_exptl_crystal_description       prismatic
_cell_formula_units_Z            4
_exptl_crystal_recrystallization_method 'Petroether/ethyl acetate'
loop_
_atom_site_label
_atom_site_type_symbol
_atom_site_fract_x
_atom_site_fract_y
_atom_site_fract_z
N1 N 0.62730(13) 0.14503(13) 0.73977(14)
O1 O 0.96813(12) 0.36577(12) 0.99529(15)
O2 O 0.69950(10) 0.22921(10) 0.71984(11)
C1 C 0.70021(17) 0.06041(16) 0.73626(18)
C2 C 0.64338(19) -0.01652(18) 0.6609(2)
H1 H 0.5608 -0.0122 0.6192
C3 C 0.7080(2) -0.09986(18) 0.6468(2)
H2 H 0.6684 -0.1520 0.5982
C4 C 0.8302(2) -0.10501(18) 0.7046(2)
H3 H 0.8751 -0.1593 0.6923
C5 C 0.88628(19) -0.02909(18) 0.7813(2)
H4 H 0.9692 -0.0338 0.8212
C6 C 0.82352(17) 0.05467(16) 0.80163(19)
C7 C 0.88768(16) 0.12766(17) 0.89444(19)
H5 H 0.9636 0.1076 0.9439
C8 C 0.85680(16) 0.21722(17) 0.92058(17)
C9 C 0.93450(18) 0.27326(17) 1.03309(19)
H6 H 0.8898 0.2814 1.0995
H7 H 1.0077 0.2361 1.0707
C10 C 0.86226(19) 0.42189(18) 0.9414(2)
H8 H 0.8864 0.4867 0.9214
H9 H 0.8140 0.4281 1.0049
C11 C 0.78533(19) 0.37530(16) 0.8188(2)
H10 H 0.8316 0.3734 0.7531
H11 H 0.7129 0.4144 0.7855
C12 C 0.74768(16) 0.27252(16) 0.84513(17)
C13 C 0.63854(15) 0.26434(16) 0.90429(18)
H12 H 0.5762 0.3119 0.8673
H13 H 0.6626 0.2723 0.9980
C14 C 0.59497(16) 0.16119(16) 0.86654(17)
H14 H 0.6413 0.1156 0.9313
C15 C 0.46013(17) 0.14644(16) 0.8539(2)
C16 C 0.37633(17) 0.15725(17) 0.7361(2)
H15 H 0.4032 0.1709 0.6619
C17 C 0.25295(19) 0.14804(19) 0.7268(3)
H16 H 0.1969 0.1553 0.6469
C18 C 0.2137(2) 0.1282(2) 0.8361(4)
H17 H 0.1305 0.1224 0.8301
C19 C 0.2950(2) 0.1166(2) 0.9538(3)
H18 H 0.2674 0.1025 1.0273
C20 C 0.4194(2) 0.12605(18) 0.9632(2)
H19 H 0.4751 0.1186 1.0433
loop_
_geom_bond_atom_site_label_1
_geom_bond_atom_site_label_2
_geom_bond_site_symmetry_1
_geom_bond_site_symmetry_2
N1 O2 1_555 1_555
O1 C9 1_555 1_555
O2 C12 1_555 1_555
C1 N1 1_555 1_555
C2 C1 1_555 1_555
H1 C2 1_555 1_555
C3 C2 1_555 1_555
H2 C3 1_555 1_555
C4 C3 1_555 1_555
H3 C4 1_555 1_555
C5 C4 1_555 1_555
H4 C5 1_555 1_555
C6 C1 1_555 1_555
C7 C6 1_555 1_555
H5 C7 1_555 1_555
C8 C7 1_555 1_555
C9 C8 1_555 1_555
H6 C9 1_555 1_555
H7 C9 1_555 1_555
C10 O1 1_555 1_555
H8 C10 1_555 1_555
H9 C10 1_555 1_555
C11 C10 1_555 1_555
H10 C11 1_555 1_555
H11 C11 1_555 1_555
C12 C8 1_555 1_555
C13 C12 1_555 1_555
H12 C13 1_555 1_555
H13 C13 1_555 1_555
C14 N1 1_555 1_555
H14 C14 1_555 1_555
C15 C14 1_555 1_555
C16 C15 1_555 1_555
H15 C16 1_555 1_555
C17 C16 1_555 1_555
H16 C17 1_555 1_555
C18 C17 1_555 1_555
H17 C18 1_555 1_555
C19 C18 1_555 1_555
H18 C19 1_555 1_555
C20 C15 1_555 1_555
H19 C20 1_555 1_555
C5 C6 1_555 1_555
C11 C12 1_555 1_555
C13 C14 1_555 1_555
C19 C20 1_555 1_555

#END
