
#######################################################################
#
#                 Cambridge Crystallographic Data Centre
#                                CCDC 
#
#######################################################################
#
# If this CIF has been generated from an entry in the Cambridge 
# Structural Database, then it will include bibliographic, chemical, 
# crystal, experimental, refinement or atomic coordinate data resulting 
# from the CCDC's data processing and validation procedures.
#
#######################################################################

data_COQQIK
_chemical_formula_moiety         'C29 H32 N2 O3 S1 Si1'
_chemical_name_systematic        
3-((4-methylphenyl)sulfonyl)-14-phenyl-15-(trimethylsilyl)-16-oxa-3,13-diazatetracyclo[11.2.1.0^1,5^.0^7,12^]hexadeca-5,7,9,11-tetraene
_symmetry_cell_setting           monoclinic
_symmetry_space_group_name_H-M   'P 21/n'
_symmetry_Int_Tables_number      14
_space_group_name_Hall           '-P 2yn'
loop_
_symmetry_equiv_pos_site_id
_symmetry_equiv_pos_as_xyz
1 x,y,z
2 1/2-x,1/2+y,1/2-z
3 -x,-y,-z
4 1/2+x,1/2-y,1/2+z
_cell_length_a                   10.820(2)
_cell_length_b                   15.475(3)
_cell_length_c                   16.032(3)
_cell_angle_alpha                90
_cell_angle_beta                 95.065(4)
_cell_angle_gamma                90
_cell_volume                     2673.91
_exptl_crystal_colour            colorless
_exptl_crystal_description       prismatic
_cell_formula_units_Z            4
loop_
_atom_site_label
_atom_site_type_symbol
_atom_site_fract_x
_atom_site_fract_y
_atom_site_fract_z
S1 S 0.64883(5) 0.25353(4) 0.82924(3)
Si1 Si 0.54055(6) 0.30368(4) 1.10820(4)
N1 N 0.32220(14) 0.08127(10) 1.07992(10)
N2 N 0.53842(16) 0.23102(12) 0.88797(11)
O1 O 0.39362(12) 0.07827(8) 1.00958(8)
O2 O 0.76219(15) 0.24369(12) 0.88102(11)
O3 O 0.61885(18) 0.33486(10) 0.79127(11)
C1 C 0.42190(18) 0.21756(12) 1.07238(12)
H1 H 0.3446 0.2504 1.0625
C2 C 0.38862(17) 0.14641(12) 1.13517(12)
H2 H 0.3305 0.1707 1.1724
C3 C 0.42828(17) 0.16648(13) 0.98999(12)
C4 C 0.55089(18) 0.16022(14) 0.94935(12)
H3 H 0.6215 0.1691 0.9901
H4 H 0.5592 0.1048 0.9222
C5 C 0.4086(2) 0.23686(18) 0.85207(15)
H5 H 0.3956 0.2039 0.8006
H6 H 0.3844 0.2964 0.8411
C6 C 0.33899(19) 0.19856(14) 0.91963(13)
C7 C 0.2169(2) 0.18686(15) 0.91835(13)
H7 H 0.1700 0.2077 0.8712
C8 C 0.14722(19) 0.14558(14) 0.98141(13)
C9 C 0.19383(17) 0.10191(13) 1.05486(13)
C10 C 0.1120(2) 0.07074(14) 1.10939(15)
H8 H 0.1433 0.0423 1.1578
C11 C -0.0146(2) 0.08070(16) 1.09388(17)
H9 H -0.0676 0.0605 1.1322
C12 C -0.0618(2) 0.12060(18) 1.02158(17)
H10 H -0.1471 0.1261 1.0096
C13 C 0.0173(2) 0.15213(17) 0.96748(16)
H11 H -0.0162 0.1793 0.9189
C14 C 0.49774(18) 0.10708(12) 1.18824(12)
C15 C 0.5818(2) 0.05099(14) 1.15625(14)
H12 H 0.5718 0.0353 1.1001
C16 C 0.6805(2) 0.01819(17) 1.20750(18)
H13 H 0.7358 -0.0198 1.1855
C17 C 0.6976(3) 0.0412(2) 1.29049(19)
H14 H 0.7643 0.0192 1.3245
C18 C 0.6152(3) 0.09690(19) 1.32298(17)
H15 H 0.6266 0.1130 1.3790
C19 C 0.5151(2) 0.12915(15) 1.27210(14)
H16 H 0.4590 0.1660 1.2947
C20 C 0.5248(4) 0.39165(18) 1.0297(2)
H17 H 0.4386 0.4048 1.0166
H18 H 0.5603 0.3736 0.9797
H19 H 0.5674 0.4422 1.0520
C21 C 0.7057(2) 0.2691(2) 1.1255(2)
H20 H 0.7530 0.3132 1.1559
H21 H 0.7383 0.2599 1.0725
H22 H 0.7108 0.2164 1.1571
C22 C 0.4924(3) 0.34954(17) 1.20753(17)
H23 H 0.5444 0.3979 1.2241
H24 H 0.5004 0.3062 1.2505
H25 H 0.4076 0.3682 1.1993
C23 C 0.6453(2) 0.17589(14) 0.74921(13)
C24 C 0.6900(2) 0.09348(16) 0.76796(15)
H26 H 0.7175 0.0788 0.8227
C25 C 0.6931(2) 0.03387(16) 0.70468(15)
H27 H 0.7228 -0.0214 0.7175
C26 C 0.6535(2) 0.05340(16) 0.62237(16)
C27 C 0.6061(3) 0.13504(17) 0.60568(16)
H28 H 0.5767 0.1492 0.5511
C28 C 0.6013(2) 0.19625(15) 0.66801(15)
H29 H 0.5687 0.2508 0.6554
C29 C 0.6643(3) -0.0124(2) 0.55525(18)
H30 H 0.6274 -0.0657 0.5711
H31 H 0.7503 -0.0219 0.5477
H32 H 0.6222 0.0080 0.5038
loop_
_geom_bond_atom_site_label_1
_geom_bond_atom_site_label_2
_geom_bond_site_symmetry_1
_geom_bond_site_symmetry_2
S1 N2 1_555 1_555
Si1 C1 1_555 1_555
N1 O1 1_555 1_555
N2 C4 1_555 1_555
O1 C3 1_555 1_555
O2 S1 1_555 1_555
O3 S1 1_555 1_555
C1 H1 1_555 1_555
C2 N1 1_555 1_555
H2 C2 1_555 1_555
C3 C1 1_555 1_555
C4 C3 1_555 1_555
H3 C4 1_555 1_555
H4 C4 1_555 1_555
C5 N2 1_555 1_555
H5 C5 1_555 1_555
H6 C5 1_555 1_555
C6 C3 1_555 1_555
C7 C6 1_555 1_555
H7 C7 1_555 1_555
C8 C7 1_555 1_555
C9 N1 1_555 1_555
C10 C9 1_555 1_555
H8 C10 1_555 1_555
C11 C10 1_555 1_555
H9 C11 1_555 1_555
C12 C11 1_555 1_555
H10 C12 1_555 1_555
C13 C8 1_555 1_555
H11 C13 1_555 1_555
C14 C2 1_555 1_555
C15 C14 1_555 1_555
H12 C15 1_555 1_555
C16 C15 1_555 1_555
H13 C16 1_555 1_555
C17 C16 1_555 1_555
H14 C17 1_555 1_555
C18 C17 1_555 1_555
H15 C18 1_555 1_555
C19 C14 1_555 1_555
H16 C19 1_555 1_555
C20 Si1 1_555 1_555
H17 C20 1_555 1_555
H18 C20 1_555 1_555
H19 C20 1_555 1_555
C21 Si1 1_555 1_555
H20 C21 1_555 1_555
H21 C21 1_555 1_555
H22 C21 1_555 1_555
C22 Si1 1_555 1_555
H23 C22 1_555 1_555
H24 C22 1_555 1_555
H25 C22 1_555 1_555
C23 S1 1_555 1_555
C24 C23 1_555 1_555
H26 C24 1_555 1_555
C25 C24 1_555 1_555
H27 C25 1_555 1_555
C26 C25 1_555 1_555
C27 C26 1_555 1_555
H28 C27 1_555 1_555
C28 C23 1_555 1_555
H29 C28 1_555 1_555
C29 C26 1_555 1_555
H30 C29 1_555 1_555
H31 C29 1_555 1_555
H32 C29 1_555 1_555
C1 C2 1_555 1_555
C5 C6 1_555 1_555
C8 C9 1_555 1_555
C12 C13 1_555 1_555
C18 C19 1_555 1_555
C27 C28 1_555 1_555

#END
