
#######################################################################
#
#                 Cambridge Crystallographic Data Centre
#                                CCDC 
#
#######################################################################
#
# If this CIF has been generated from an entry in the Cambridge 
# Structural Database, then it will include bibliographic, chemical, 
# crystal, experimental, refinement or atomic coordinate data resulting 
# from the CCDC's data processing and validation procedures.
#
#######################################################################

data_COQRAD
_chemical_formula_moiety         'C36 H28 O1'
_chemical_name_systematic        
2-benzyl-2,3,4,5-tetraphenylcyclopent-3-en-1-one
_symmetry_cell_setting           monoclinic
_symmetry_space_group_name_H-M   'C 2/c'
_symmetry_Int_Tables_number      15
_space_group_name_Hall           '-C 2yn'
loop_
_symmetry_equiv_pos_site_id
_symmetry_equiv_pos_as_xyz
1 x,y,z
2 -x,y,1/2-z
3 1/2+x,1/2+y,z
4 1/2-x,1/2+y,1/2-z
5 -x,-y,-z
6 x,-y,1/2+z
7 1/2-x,1/2-y,-z
8 1/2+x,1/2-y,1/2+z
_cell_length_a                   26.1091(13)
_cell_length_b                   10.9592(5)
_cell_length_c                   18.9080(10)
_cell_angle_alpha                90
_cell_angle_beta                 109.117(2)
_cell_angle_gamma                90
_cell_volume                     5111.87
_exptl_crystal_colour            colorless
_exptl_crystal_description       Block
_cell_formula_units_Z            8
loop_
_atom_site_label
_atom_site_type_symbol
_atom_site_fract_x
_atom_site_fract_y
_atom_site_fract_z
O1 O 0.21975(3) 0.12880(7) 0.45615(4)
C1 C 0.14306(4) 0.32448(10) 0.47356(6)
C2 C 0.10704(5) 0.29602(11) 0.40302(6)
H1 H 0.0984 0.2131 0.3896
C3 C 0.08358(5) 0.38805(11) 0.35216(7)
H2 H 0.0592 0.3678 0.3040
C4 C 0.09556(5) 0.50927(11) 0.37132(7)
H3 H 0.0798 0.5720 0.3363
C5 C 0.13062(5) 0.53848(11) 0.44183(7)
H4 H 0.1385 0.6216 0.4554
C6 C 0.15436(4) 0.44666(10) 0.49286(6)
H5 H 0.1784 0.4674 0.5411
C7 C 0.16918(4) 0.22435(9) 0.52899(6)
H6 H 0.1997 0.2610 0.5704
C8 C 0.13136(4) 0.16009(9) 0.56325(5)
C9 C 0.09918(4) 0.24033(9) 0.59580(6)
C10 C 0.12575(4) 0.32713(10) 0.64933(6)
H7 H 0.1642 0.3284 0.6680
C11 C 0.09667(5) 0.41147(10) 0.67561(6)
H8 H 0.1152 0.4697 0.7123
C12 C 0.04043(5) 0.41040(10) 0.64815(7)
H9 H 0.0204 0.4685 0.6656
C13 C 0.01362(5) 0.32434(11) 0.59523(7)
H10 H -0.0249 0.3234 0.5767
C14 C 0.04259(4) 0.23954(10) 0.56912(6)
H11 H 0.0239 0.1807 0.5330
C15 C 0.10600(4) -0.05385(10) 0.59249(6)
C16 C 0.09024(5) -0.02482(11) 0.65443(7)
H12 H 0.0967 0.0550 0.6750
C17 C 0.06540(6) -0.11046(12) 0.68636(7)
H13 H 0.0547 -0.0884 0.7281
C18 C 0.05608(5) -0.22795(11) 0.65788(7)
H14 H 0.0380 -0.2857 0.6788
C19 C 0.07332(5) -0.26038(11) 0.59869(6)
H15 H 0.0683 -0.3415 0.5800
C20 C 0.09801(5) -0.17448(10) 0.56661(6)
H16 H 0.1098 -0.1980 0.5261
C21 C 0.13319(4) 0.03739(10) 0.55858(5)
C22 C 0.17177(4) -0.00332(9) 0.51720(6)
C23 C 0.14370(4) -0.06855(9) 0.44305(6)
C24 C 0.08809(4) -0.05260(10) 0.40689(6)
H17 H 0.0678 -0.0036 0.4295
C25 C 0.06221(5) -0.10764(11) 0.33820(6)
H18 H 0.0243 -0.0976 0.3148
C26 C 0.09154(5) -0.17714(11) 0.30364(6)
H19 H 0.0738 -0.2146 0.2566
C27 C 0.14680(5) -0.19160(11) 0.33807(6)
H20 H 0.1671 -0.2383 0.3143
C28 C 0.17277(5) -0.13796(10) 0.40749(6)
H21 H 0.2107 -0.1489 0.4308
C29 C 0.22176(4) -0.07384(10) 0.56971(6)
H22 H 0.2108 -0.1585 0.5762
H23 H 0.2502 -0.0778 0.5458
C30 C 0.24499(4) -0.01418(10) 0.64596(6)
C31 C 0.27970(4) 0.08596(10) 0.65644(6)
H24 H 0.2905 0.1146 0.6160
C32 C 0.29864(5) 0.14419(11) 0.72548(7)
H25 H 0.3222 0.2124 0.7319
C33 C 0.28323(5) 0.10301(11) 0.78509(7)
H26 H 0.2960 0.1433 0.8321
C34 C 0.24923(5) 0.00302(11) 0.77563(6)
H27 H 0.2387 -0.0257 0.8163
C35 C 0.23048(4) -0.05534(10) 0.70657(6)
H28 H 0.2074 -0.1243 0.7006
C36 C 0.19163(4) 0.11972(9) 0.49535(6)
loop_
_geom_bond_atom_site_label_1
_geom_bond_atom_site_label_2
_geom_bond_site_symmetry_1
_geom_bond_site_symmetry_2
O1 C36 1_555 1_555
C1 C2 1_555 1_555
C2 H1 1_555 1_555
C3 C2 1_555 1_555
H2 C3 1_555 1_555
C4 C3 1_555 1_555
H3 C4 1_555 1_555
C5 C4 1_555 1_555
H4 C5 1_555 1_555
C6 C1 1_555 1_555
H5 C6 1_555 1_555
C7 C1 1_555 1_555
H6 C7 1_555 1_555
C8 C7 1_555 1_555
C9 C8 1_555 1_555
C10 C9 1_555 1_555
H7 C10 1_555 1_555
C11 C10 1_555 1_555
H8 C11 1_555 1_555
C12 C11 1_555 1_555
H9 C12 1_555 1_555
C13 C12 1_555 1_555
H10 C13 1_555 1_555
C14 C9 1_555 1_555
H11 C14 1_555 1_555
C15 C16 1_555 1_555
C16 H12 1_555 1_555
C17 C16 1_555 1_555
H13 C17 1_555 1_555
C18 C17 1_555 1_555
H14 C18 1_555 1_555
C19 C18 1_555 1_555
H15 C19 1_555 1_555
C20 C15 1_555 1_555
H16 C20 1_555 1_555
C21 C8 1_555 1_555
C22 C21 1_555 1_555
C23 C22 1_555 1_555
C24 C23 1_555 1_555
H17 C24 1_555 1_555
C25 C24 1_555 1_555
H18 C25 1_555 1_555
C26 C25 1_555 1_555
H19 C26 1_555 1_555
C27 C26 1_555 1_555
H20 C27 1_555 1_555
C28 C23 1_555 1_555
H21 C28 1_555 1_555
C29 C22 1_555 1_555
H22 C29 1_555 1_555
H23 C29 1_555 1_555
C30 C29 1_555 1_555
C31 C30 1_555 1_555
H24 C31 1_555 1_555
C32 C31 1_555 1_555
H25 C32 1_555 1_555
C33 C32 1_555 1_555
H26 C33 1_555 1_555
C34 C33 1_555 1_555
H27 C34 1_555 1_555
C35 C30 1_555 1_555
H28 C35 1_555 1_555
C36 C7 1_555 1_555
C5 C6 1_555 1_555
C13 C14 1_555 1_555
C15 C21 1_555 1_555
C19 C20 1_555 1_555
C22 C36 1_555 1_555
C27 C28 1_555 1_555
C34 C35 1_555 1_555

#END
