
#######################################################################
#
#                 Cambridge Crystallographic Data Centre
#                                CCDC 
#
#######################################################################
#
# If this CIF has been generated from an entry in the Cambridge 
# Structural Database, then it will include bibliographic, chemical, 
# crystal, experimental, refinement or atomic coordinate data resulting 
# from the CCDC's data processing and validation procedures.
#
#######################################################################

data_COQROR
_chemical_formula_moiety         'C20 H23 N1 O1'
_chemical_name_systematic        
N,N-diethyl-4-(2-(4-methylphenyl)vinyl)benzamide
_symmetry_cell_setting           orthorhombic
_symmetry_space_group_name_H-M   'P 21 21 21'
_symmetry_Int_Tables_number      19
_space_group_name_Hall           'P 2ac 2ab'
loop_
_symmetry_equiv_pos_site_id
_symmetry_equiv_pos_as_xyz
1 x,y,z
2 1/2+x,1/2-y,-z
3 -x,1/2+y,1/2-z
4 1/2-x,-y,1/2+z
_cell_length_a                   7.8788(4)
_cell_length_b                   16.7537(9)
_cell_length_c                   25.9266(13)
_cell_angle_alpha                90
_cell_angle_beta                 90
_cell_angle_gamma                90
_cell_volume                     3422.29
_exptl_crystal_colour            colorless
_exptl_crystal_description       block
_chemical_melting_point          '426 K'
_cell_formula_units_Z            8
_exptl_crystal_recrystallization_method 'diethyl ether'
loop_
_atom_site_label
_atom_site_type_symbol
_atom_site_fract_x
_atom_site_fract_y
_atom_site_fract_z
O1 O 0.6711(8) 1.0936(4) 0.4173(2)
N1 N 0.3977(10) 1.1247(5) 0.4276(3)
C1 C 0.5427(11) 1.0882(4) 0.4431(3)
C2 C 0.3816(18) 1.1598(6) 0.3644(7)
C3 C 0.4353(17) 1.2290(10) 0.3841(4)
C4 C 0.2351(13) 1.1226(6) 0.4560(4)
C5 C 0.2214(17) 1.1873(6) 0.4913(4)
C6 C 0.5323(8) 1.0380(4) 0.4895(2)
C7 C 0.4557(9) 0.9645(4) 0.4895(3)
C8 C 0.4546(8) 0.9167(4) 0.5336(3)
C9 C 0.5313(9) 0.9398(4) 0.5778(3)
C10 C 0.6104(9) 1.0135(4) 0.5781(3)
C11 C 0.6127(8) 1.0620(4) 0.5351(3)
C12 C 0.5222(10) 0.8835(5) 0.6229(3)
C13 C 0.5809(11) 0.8904(5) 0.6642(3)
C14 C 0.5710(9) 0.8392(4) 0.7115(3)
C15 C 0.4740(10) 0.7704(4) 0.7167(3)
C16 C 0.4637(9) 0.7309(4) 0.7624(3)
C17 C 0.5478(10) 0.7584(4) 0.8060(3)
C18 C 0.6440(10) 0.8264(4) 0.8004(3)
C19 C 0.6547(9) 0.8670(4) 0.7548(3)
C20 C 0.5404(12) 0.7139(5) 0.8568(3)
H1 H 0.4615 1.1347 0.3398
H2 H 0.2645 1.1611 0.3506
H3 H 0.5453 1.2211 0.4010
H4 H 0.3527 1.2484 0.4094
H5 H 0.4474 1.2684 0.3564
H6 H 0.1400 1.1250 0.4311
H7 H 0.2263 1.0717 0.4751
H8 H 0.2471 1.2374 0.4734
H9 H 0.3019 1.1797 0.5196
H10 H 0.1056 1.1895 0.5051
H11 H 0.4025 0.9457 0.4589
H12 H 0.3983 0.8666 0.5326
H13 H 0.6646 1.0313 0.6088
H14 H 0.6692 1.1120 0.5364
H15 H 0.4603 0.8357 0.6171
H16 H 0.6472 0.9373 0.6686
H17 H 0.4136 0.7506 0.6877
H18 H 0.3977 0.6835 0.7646
H19 H 0.7054 0.8458 0.8293
H20 H 0.7199 0.9146 0.7528
H21 H 0.5915 0.7467 0.8840
H22 H 0.6032 0.6636 0.8537
H23 H 0.4219 0.7026 0.8655
O2 O 1.1842(6) 0.5766(3) 0.80824(15)
N2 N 0.9148(8) 0.5344(4) 0.80121(17)
C21 C 1.0528(9) 0.5728(4) 0.78421(19)
C22 C 0.9273(10) 0.4916(5) 0.8527(3)
C23 C 0.8837(11) 0.5442(5) 0.8950(3)
C24 C 0.7686(11) 0.5153(10) 0.7675(5)
C25 C 0.773(3) 0.4466(9) 0.7416(5)
C26 C 1.0427(8) 0.6147(4) 0.73233(18)
C27 C 1.1225(9) 0.5807(4) 0.6907(3)
C28 C 1.1301(9) 0.6178(5) 0.6437(2)
C29 C 1.0614(8) 0.6936(4) 0.63711(19)
C30 C 0.9781(9) 0.7280(4) 0.6779(2)
C31 C 0.9669(9) 0.6888(4) 0.7261(2)
C32 C 1.0796(10) 0.7298(5) 0.5844(3)
C33 C 1.0078(9) 0.7911(4) 0.5675(3)
C34 C 1.0246(7) 0.8263(4) 0.51493(18)
C35 C 1.1137(8) 0.7923(3) 0.4748(2)
C36 C 1.1257(8) 0.8300(4) 0.4273(2)
C37 C 1.0487(8) 0.9040(4) 0.41799(18)
C38 C 0.9540(8) 0.9356(4) 0.4587(2)
C39 C 0.9438(8) 0.8978(4) 0.50502(19)
C40 C 1.0691(11) 0.9475(5) 0.3670(2)
H24 H 0.8496 0.4451 0.8527
H25 H 1.0444 0.4716 0.8575
H26 H 0.7676 0.5638 0.8904
H27 H 0.9625 0.5894 0.8956
H28 H 0.8916 0.5148 0.9276
H29 H 0.8000 0.4029 0.7655
H30 H 0.8609 0.4495 0.7148
H31 H 0.6627 0.4368 0.7256
H32 H 1.1742 0.5299 0.6947
H33 H 1.1826 0.5916 0.6154
H34 H 0.9271 0.7790 0.6738
H35 H 0.9080 0.7130 0.7540
H36 H 1.1540 0.7032 0.5613
H37 H 0.9346 0.8182 0.5908
H38 H 1.1678 0.7422 0.4797
H39 H 1.1878 0.8051 0.4004
H40 H 0.8955 0.9847 0.4540
H41 H 0.8784 0.9216 0.5317
H42 H 1.1899 0.9567 0.3602
H43 H 1.0096 0.9988 0.3685
H44 H 1.0210 0.9149 0.3392
C41? C 0.654(5) 0.5447(17) 0.7771(12)
H45? H 0.6205 0.5300 0.8122
H46? H 0.5652 0.5289 0.7528
H47? H 0.6715 0.6026 0.7752
loop_
_geom_bond_atom_site_label_1
_geom_bond_atom_site_label_2
_geom_bond_site_symmetry_1
_geom_bond_site_symmetry_2
O1 C1 1_555 1_555
N1 C1 1_555 1_555
C1 C6 1_555 1_555
C2 N1 1_555 1_555
C3 C2 1_555 1_555
C4 N1 1_555 1_555
C5 C4 1_555 1_555
C6 C7 1_555 1_555
C7 C8 1_555 1_555
C8 C9 1_555 1_555
C9 C10 1_555 1_555
C10 C11 1_555 1_555
C11 C6 1_555 1_555
C12 C9 1_555 1_555
C13 C12 1_555 1_555
C14 C13 1_555 1_555
C15 C14 1_555 1_555
C16 C15 1_555 1_555
C17 C16 1_555 1_555
C18 C17 1_555 1_555
C19 C14 1_555 1_555
C20 C17 1_555 1_555
H1 C2 1_555 1_555
H2 C2 1_555 1_555
H3 C3 1_555 1_555
H4 C3 1_555 1_555
H5 C3 1_555 1_555
H6 C4 1_555 1_555
H7 C4 1_555 1_555
H8 C5 1_555 1_555
H9 C5 1_555 1_555
H10 C5 1_555 1_555
H11 C7 1_555 1_555
H12 C8 1_555 1_555
H13 C10 1_555 1_555
H14 C11 1_555 1_555
H15 C12 1_555 1_555
H16 C13 1_555 1_555
H17 C15 1_555 1_555
H18 C16 1_555 1_555
H19 C18 1_555 1_555
H20 C19 1_555 1_555
H21 C20 1_555 1_555
H22 C20 1_555 1_555
H23 C20 1_555 1_555
O2 C21 1_555 1_555
N2 C21 1_555 1_555
C21 C26 1_555 1_555
C22 N2 1_555 1_555
C23 C22 1_555 1_555
C24 N2 1_555 1_555
C25 C24 1_555 1_555
C26 C27 1_555 1_555
C27 C28 1_555 1_555
C28 C29 1_555 1_555
C29 C30 1_555 1_555
C30 C31 1_555 1_555
C31 C26 1_555 1_555
C32 C29 1_555 1_555
C33 C32 1_555 1_555
C34 C33 1_555 1_555
C35 C34 1_555 1_555
C36 C35 1_555 1_555
C37 C36 1_555 1_555
C38 C37 1_555 1_555
C39 C34 1_555 1_555
C40 C37 1_555 1_555
H24 C22 1_555 1_555
H25 C22 1_555 1_555
H26 C23 1_555 1_555
H27 C23 1_555 1_555
H28 C23 1_555 1_555
H29 C25 1_555 1_555
H30 C25 1_555 1_555
H31 C25 1_555 1_555
H32 C27 1_555 1_555
H33 C28 1_555 1_555
H34 C30 1_555 1_555
H35 C31 1_555 1_555
H36 C32 1_555 1_555
H37 C33 1_555 1_555
H38 C35 1_555 1_555
H39 C36 1_555 1_555
H40 C38 1_555 1_555
H41 C39 1_555 1_555
H42 C40 1_555 1_555
H43 C40 1_555 1_555
H44 C40 1_555 1_555
C18 C19 1_555 1_555
C38 C39 1_555 1_555

#END
