
#######################################################################
#
#                 Cambridge Crystallographic Data Centre
#                                CCDC 
#
#######################################################################
#
# If this CIF has been generated from an entry in the Cambridge 
# Structural Database, then it will include bibliographic, chemical, 
# crystal, experimental, refinement or atomic coordinate data resulting 
# from the CCDC's data processing and validation procedures.
#
#######################################################################

data_COQTAF
_chemical_formula_moiety         
'C30 H12 N2 O12 2-,0.5(C3 H7 N1 O1),2(C2 H8 N1 1+)'
_chemical_name_systematic        
"bis(dimethylammonium) 3,3'-(1,3,6,8-tetraoxo-1,3,6,8-tetrahydrobenzo[lmn][3,8]phenanthroline-2,7-diyl)bis(5-carboxybenzoate) N,N-dimethylformamide solvate"
_symmetry_cell_setting           monoclinic
_symmetry_space_group_name_H-M   'C 2/c'
_symmetry_Int_Tables_number      15
_space_group_name_Hall           '-C 2yn'
loop_
_symmetry_equiv_pos_site_id
_symmetry_equiv_pos_as_xyz
1 x,y,z
2 -x,y,1/2-z
3 1/2+x,1/2+y,z
4 1/2-x,1/2+y,1/2-z
5 -x,-y,-z
6 x,-y,1/2+z
7 1/2-x,1/2-y,-z
8 1/2+x,1/2-y,1/2+z
_cell_length_a                   33.067(4)
_cell_length_b                   14.8252(15)
_cell_length_c                   17.1809(12)
_cell_angle_alpha                90
_cell_angle_beta                 121.190(10)
_cell_angle_gamma                90
_cell_volume                     7205.07
_exptl_crystal_colour            white
_exptl_crystal_description       Block
_cell_formula_units_Z            8
loop_
_atom_site_label
_atom_site_type_symbol
_atom_site_fract_x
_atom_site_fract_y
_atom_site_fract_z
O1 O 0.16578(15) 0.0720(3) -0.0949(2)
O2 O 0.11863(13) 0.1116(3) 0.2561(2)
O3 O 0.22525(14) 0.1195(3) 0.0362(3)
H1 H 0.2328 0.1449 0.0039
O4 O 0.25016(14) -0.0107(3) 0.2868(2)
O5 O 0.26580(14) 0.1684(3) 0.9562(3)
O6 O 0.33268(16) 0.1774(4) 1.0883(3)
O7 O 0.25030(14) 0.2653(3) 0.7012(2)
O8 O 0.46981(17) 0.2960(4) 0.9589(3)
O9 O 0.46899(18) 0.3089(4) 1.0849(3)
O10 O 0.0437(2) -0.1086(5) -0.0888(3)
O11 O 0.37199(15) 0.0916(4) 0.7451(3)
O12 O 0.04776(19) -0.1302(4) 0.0408(3)
N1 N 0.18481(14) 0.0561(3) 0.2684(2)
N2 N 0.31142(15) 0.1770(3) 0.7255(3)
C1 C 0.37960(18) 0.2343(4) 1.0017(3)
H2 H 0.3946 0.2472 1.0635
C2 C 0.23537(17) 0.1027(3) 0.4519(3)
C3 C 0.33563(18) 0.1978(3) 0.8214(3)
C4 C 0.33456(18) 0.1989(3) 0.9568(3)
C5 C 0.16045(18) 0.0981(3) 0.3027(3)
C6 C 0.31284(18) 0.1801(3) 0.8661(3)
H3 H 0.2826 0.1552 0.8354
C7 C 0.18142(17) 0.0717(3) 0.1267(3)
H4 H 0.2077 0.1091 0.1562
C8 C 0.26026(17) 0.1281(3) 0.5436(3)
C9 C 0.23196(18) 0.0298(3) 0.3197(3)
C10 C 0.26591(18) 0.2119(3) 0.6718(3)
C11 C 0.16256(17) 0.0512(3) 0.0365(3)
C12 C 0.18440(18) 0.0821(3) -0.0145(3)
C13 C 0.16207(17) 0.0378(3) 0.1726(3)
C14 C 0.12295(17) -0.0163(4) 0.1313(3)
H5 H 0.1099 -0.0393 0.1637
C15 C 0.37990(18) 0.2330(4) 0.8644(3)
H6 H 0.3949 0.2450 0.8323
C16 C 0.25768(18) 0.0544(3) 0.4161(3)
C17 C 0.32886(19) 0.0537(4) 0.5612(4)
H7 H 0.3604 0.0368 0.5978
C18 C 0.30720(18) 0.0997(4) 0.5973(3)
C19 C 0.23851(18) 0.1804(3) 0.5776(3)
C20 C 0.18747(17) 0.1269(3) 0.3985(3)
C21 C 0.3092(2) 0.1804(4) 1.0050(4)
C22 C 0.16664(18) 0.1765(4) 0.4338(3)
H8 H 0.1349 0.1920 0.3978
C23 C 0.33366(18) 0.1212(4) 0.6949(3)
C24 C 0.40213(18) 0.2504(3) 0.9557(3)
C25 C 0.19299(19) 0.2047(4) 0.5251(3)
H9 H 0.1789 0.2403 0.5491
C26 C 0.12333(17) -0.0027(3) -0.0058(3)
H10 H 0.1102 -0.0166 -0.0670
C27 C 0.10326(17) -0.0361(4) 0.0398(3)
C28 C 0.30394(19) 0.0318(4) 0.4693(4)
H11 H 0.3191 0.0014 0.4441
C29 C 0.4507(2) 0.2884(4) 1.0050(4)
C30 C 0.0615(2) -0.0966(5) -0.0073(4)
H12 H 0.493(4) 0.342(7) 0.987(7)
N3 N 0.1955(2) 0.2876(4) 0.8002(3)
H13 H 0.2265 0.2766 0.8235
H14 H 0.1911 0.2959 0.8471
C31 C 0.1690(3) 0.2090(5) 0.7503(5)
H15 H 0.1775 0.1588 0.7911
H16 H 0.1759 0.1951 0.7038
H17 H 0.1358 0.2209 0.7227
C32 C 0.1832(3) 0.3701(5) 0.7481(5)
H18 H 0.2073 0.4145 0.7811
H19 H 0.1535 0.3920 0.7381
H20 H 0.1805 0.3587 0.6907
N4 N 0.0658(7) 0.5849(16) 0.0374(15)
O13 O 0.0991(8) 0.6595(15) -0.0142(19)
C33 C 0.0741(10) 0.653(2) 0.0040(19)
H21 H 0.0555 0.7040 -0.0051
C34 C 0.0799(10) 0.5021(17) 0.0355(18)
C35 C 0.0472(13) 0.586(5) 0.088(4)
N5? N 0.0361(3) 0.2556(8) 0.2460(6)
C36? C 0.0138(7) 0.2641(14) 0.2989(13)
C37? C 0.0000 0.220(2) 0.2500
N6? N 0.0370(4) 0.9482(9) 0.2490(7)
C38? C 0.0144(8) 0.9518(14) 0.3035(11)
C39? C 0.0000 0.988(5) 0.2500
N7? N 0.0000 0.604(8) 0.2500
C40? C 0.018(2) 0.579(3) 0.247(4)
C41? C 0.033(3) 0.641(5) 0.264(4)
loop_
_geom_bond_atom_site_label_1
_geom_bond_atom_site_label_2
_geom_bond_site_symmetry_1
_geom_bond_site_symmetry_2
O1 C12 1_555 1_555
O2 C5 1_555 1_555
O3 H1 1_555 1_555
O4 C9 1_555 1_555
O5 C21 1_555 1_555
O6 C21 1_555 1_555
O7 C10 1_555 1_555
O8 C29 1_555 1_555
O9 C29 1_555 1_555
O10 C30 1_555 1_555
O11 C23 1_555 1_555
O12 C30 1_555 1_555
N1 C5 1_555 1_555
N2 C3 1_555 1_555
C1 H2 1_555 1_555
C2 C8 1_555 1_555
C3 C6 1_555 1_555
C4 C1 1_555 1_555
C5 C20 1_555 1_555
C6 C4 1_555 1_555
H3 C6 1_555 1_555
C7 H4 1_555 1_555
C8 C18 1_555 1_555
C9 N1 1_555 1_555
C10 N2 1_555 1_555
C11 C7 1_555 1_555
C12 O3 1_555 1_555
C13 N1 1_555 1_555
C14 C13 1_555 1_555
H5 C14 1_555 1_555
C15 C3 1_555 1_555
H6 C15 1_555 1_555
C16 C2 1_555 1_555
C17 H7 1_555 1_555
C18 C17 1_555 1_555
C19 C8 1_555 1_555
C20 C2 1_555 1_555
C21 C4 1_555 1_555
C22 C20 1_555 1_555
H8 C22 1_555 1_555
C23 N2 1_555 1_555
C24 C1 1_555 1_555
C25 C19 1_555 1_555
H9 C25 1_555 1_555
C26 C11 1_555 1_555
H10 C26 1_555 1_555
C27 C14 1_555 1_555
C28 C16 1_555 1_555
H11 C28 1_555 1_555
C29 C24 1_555 1_555
C30 C27 1_555 1_555
H12 O8 1_555 1_555
N3 H13 1_555 1_555
H14 N3 1_555 1_555
C31 N3 1_555 1_555
H15 C31 1_555 1_555
H16 C31 1_555 1_555
H17 C31 1_555 1_555
C32 N3 1_555 1_555
H18 C32 1_555 1_555
H19 C32 1_555 1_555
H20 C32 1_555 1_555
N4 C33 1_555 1_555
O13 C33 1_555 1_555
C33 H21 1_555 1_555
C34 N4 1_555 1_555
C35 N4 1_555 1_555
C7 C13 1_555 1_555
C9 C16 1_555 1_555
C10 C19 1_555 1_555
C11 C12 1_555 1_555
C15 C24 1_555 1_555
C17 C28 1_555 1_555
C18 C23 1_555 1_555
C22 C25 1_555 1_555
C26 C27 1_555 1_555

#END
