
#######################################################################
#
#                 Cambridge Crystallographic Data Centre
#                                CCDC 
#
#######################################################################
#
# If this CIF has been generated from an entry in the Cambridge 
# Structural Database, then it will include bibliographic, chemical, 
# crystal, experimental, refinement or atomic coordinate data resulting 
# from the CCDC's data processing and validation procedures.
#
#######################################################################

data_COQYEN
_chemical_formula_moiety         'C23 H18 Cl1 N1 O4'
_chemical_name_systematic        
(S)-2-(1-(4-Chlorophenyl)-2-nitroethyl)-1,3-diphenylpropane-1,3-dione
_symmetry_cell_setting           monoclinic
_symmetry_space_group_name_H-M   'P 21'
_symmetry_Int_Tables_number      4
_space_group_name_Hall           'P 2yb'
loop_
_symmetry_equiv_pos_site_id
_symmetry_equiv_pos_as_xyz
1 x,y,z
2 -x,1/2+y,-z
_cell_length_a                   5.7405(4)
_cell_length_b                   16.9700(12)
_cell_length_c                   20.3563(13)
_cell_angle_alpha                90
_cell_angle_beta                 93.730(4)
_cell_angle_gamma                90
_cell_volume                     1978.83
_exptl_crystal_colour            colorless
_exptl_crystal_description       needle
_cell_formula_units_Z            4
loop_
_atom_site_label
_atom_site_type_symbol
_atom_site_fract_x
_atom_site_fract_y
_atom_site_fract_z
C1 C 0.1297(7) 0.3048(2) 0.42550(16)
C2 C 0.3211(7) 0.3444(3) 0.45381(17)
H1 H 0.4455 0.3598 0.4280
C3 C 0.3283(6) 0.3611(2) 0.52056(16)
H2 H 0.4590 0.3885 0.5404
C4 C 0.1477(5) 0.3387(2) 0.55923(15)
C5 C -0.0391(6) 0.2980(2) 0.52915(16)
H3 H -0.1623 0.2810 0.5547
C6 C -0.0492(7) 0.2816(3) 0.46240(17)
H4 H -0.1798 0.2544 0.4423
C7 C 0.1477(6) 0.3596(2) 0.63195(14)
H5 H 0.0101 0.3339 0.6507
C8 C 0.3697(6) 0.3324(2) 0.67127(16)
H6 H 0.5072 0.3584 0.6538
H7 H 0.3623 0.3482 0.7179
C9 C 0.1325(6) 0.4495(2) 0.64321(14)
H8 H 0.2833 0.4750 0.6333
C10 C -0.0678(6) 0.4833(2) 0.59731(15)
C11 C -0.0126(6) 0.5245(2) 0.53596(15)
C12 C -0.1827(6) 0.5245(2) 0.48330(16)
H9 H -0.3282 0.4990 0.4877
C13 C -0.1382(7) 0.5619(3) 0.42478(17)
H10 H -0.2531 0.5615 0.3890
C14 C 0.0707(7) 0.5995(2) 0.41822(17)
H11 H 0.0995 0.6255 0.3782
C15 C 0.2386(6) 0.5995(2) 0.46984(18)
H12 H 0.3828 0.6258 0.4653
C16 C 0.1994(6) 0.5617(2) 0.52805(17)
H13 H 0.3178 0.5611 0.5629
C17 C 0.0734(6) 0.4700(2) 0.71396(15)
C18 C 0.1368(6) 0.5495(2) 0.73895(14)
C19 C 0.3304(6) 0.5910(2) 0.72009(17)
H14 H 0.4283 0.5683 0.6893
C20 C 0.3823(8) 0.6654(3) 0.74568(19)
H15 H 0.5169 0.6929 0.7334
C21 C 0.2367(8) 0.6989(3) 0.78899(19)
H16 H 0.2674 0.7506 0.8051
C22 C 0.0480(8) 0.6582(3) 0.80905(18)
H17 H -0.0494 0.6814 0.8397
C23 C -0.0016(6) 0.5836(2) 0.78497(16)
H18 H -0.1310 0.5554 0.7999
Cl1 Cl 0.1155(2) 0.28480(9) 0.34122(4)
N1 N 0.3964(5) 0.24490(18) 0.66704(13)
O1 O 0.5776(6) 0.21960(19) 0.64600(16)
O2 O 0.2410(5) 0.20350(16) 0.68538(12)
O3 O -0.2692(4) 0.47196(16) 0.61112(11)
O4 O -0.0315(5) 0.42247(17) 0.74602(11)
C24 C 0.5389(6) -0.00832(19) 0.75833(14)
C25 C 0.4703(6) 0.0245(2) 0.81544(15)
H19 H 0.3296 0.0081 0.8334
C26 C 0.6097(5) 0.0825(2) 0.84702(14)
H20 H 0.5621 0.1060 0.8863
C27 C 0.8150(5) 0.10582(19) 0.82167(14)
C28 C 0.8801(6) 0.0706(2) 0.76380(14)
H21 H 1.0222 0.0860 0.7460
C29 C 0.7420(6) 0.0138(2) 0.73155(15)
H22 H 0.7872 -0.0094 0.6918
C30 C 0.9774(6) 0.16793(19) 0.85506(14)
H23 H 1.1400 0.1485 0.8505
C31 C 0.9606(6) 0.2477(2) 0.81927(15)
H24 H 1.0976 0.2804 0.8335
H25 H 0.9635 0.2389 0.7712
C32 C 0.9498(5) 0.17606(19) 0.92993(14)
H26 H 0.7905 0.1958 0.9385
C33 C 0.9942(5) 0.09314(18) 0.96173(14)
C34 C 0.8417(5) 0.0643(2) 1.01387(14)
C35 C 0.8910(8) -0.0098(2) 1.04042(18)
H27 H 1.0234 -0.0383 1.0277
C36 C 0.7477(9) -0.0420(3) 1.0852(2)
H28 H 0.7800 -0.0931 1.1027
C37 C 0.5568(7) -0.0002(2) 1.10466(17)
H29 H 0.4569 -0.0229 1.1349
C38 C 0.5118(6) 0.0739(2) 1.08034(16)
H30 H 0.3840 0.1032 1.0949
C39 C 0.6526(6) 0.1061(2) 1.03450(16)
H31 H 0.6192 0.1572 1.0172
C40 C 1.1391(5) 0.22933(19) 0.96298(15)
C41 C 1.0880(5) 0.27653(18) 1.02199(14)
C42 C 0.8712(6) 0.3118(2) 1.02876(15)
H32 H 0.7445 0.3014 0.9976
C43 C 0.8417(6) 0.3628(2) 1.08196(16)
H33 H 0.6976 0.3895 1.0853
C44 C 1.0207(7) 0.3741(2) 1.12920(17)
H34 H 0.9982 0.4074 1.1658
C45 C 1.2332(6) 0.3373(2) 1.12378(16)
H35 H 1.3552 0.3448 1.1570
C46 C 1.2697(6) 0.2897(2) 1.07028(14)
H36 H 1.4178 0.2658 1.0662
Cl2 Cl 0.36293(16) -0.08137(6) 0.71926(4)
N2 N 0.7426(5) 0.29041(18) 0.83337(12)
O5 O 0.5616(5) 0.2712(2) 0.80278(13)
O6 O 0.7536(6) 0.34004(16) 0.87707(13)
O7 O 1.3359(4) 0.22889(14) 0.94331(10)
O8 O 1.1564(4) 0.05499(14) 0.94416(11)
loop_
_geom_bond_atom_site_label_1
_geom_bond_atom_site_label_2
_geom_bond_site_symmetry_1
_geom_bond_site_symmetry_2
C1 C2 1_555 1_555
C2 H1 1_555 1_555
C3 C2 1_555 1_555
H2 C3 1_555 1_555
C4 C3 1_555 1_555
C5 C4 1_555 1_555
H3 C5 1_555 1_555
C6 C1 1_555 1_555
H4 C6 1_555 1_555
C7 C4 1_555 1_555
H5 C7 1_555 1_555
C8 C7 1_555 1_555
H6 C8 1_555 1_555
H7 C8 1_555 1_555
C9 C7 1_555 1_555
H8 C9 1_555 1_555
C10 C9 1_555 1_555
C11 C10 1_555 1_555
C12 C11 1_555 1_555
H9 C12 1_555 1_555
C13 C12 1_555 1_555
H10 C13 1_555 1_555
C14 C13 1_555 1_555
H11 C14 1_555 1_555
C15 C14 1_555 1_555
H12 C15 1_555 1_555
C16 C11 1_555 1_555
H13 C16 1_555 1_555
C17 C9 1_555 1_555
C18 C17 1_555 1_555
C19 C18 1_555 1_555
H14 C19 1_555 1_555
C20 C19 1_555 1_555
H15 C20 1_555 1_555
C21 C20 1_555 1_555
H16 C21 1_555 1_555
C22 C21 1_555 1_555
H17 C22 1_555 1_555
C23 C18 1_555 1_555
H18 C23 1_555 1_555
C24 C25 1_555 1_555
C25 H19 1_555 1_555
C26 C25 1_555 1_555
H20 C26 1_555 1_555
C27 C26 1_555 1_555
C28 C27 1_555 1_555
H21 C28 1_555 1_555
C29 C24 1_555 1_555
H22 C29 1_555 1_555
C30 C27 1_555 1_555
H23 C30 1_555 1_555
C31 C30 1_555 1_555
H24 C31 1_555 1_555
H25 C31 1_555 1_555
C32 C30 1_555 1_555
H26 C32 1_555 1_555
C33 C32 1_555 1_555
C34 C33 1_555 1_555
C35 C34 1_555 1_555
H27 C35 1_555 1_555
C36 C35 1_555 1_555
H28 C36 1_555 1_555
C37 C36 1_555 1_555
H29 C37 1_555 1_555
C38 C37 1_555 1_555
H30 C38 1_555 1_555
C39 C34 1_555 1_555
H31 C39 1_555 1_555
C40 C32 1_555 1_555
C41 C40 1_555 1_555
C42 C41 1_555 1_555
H32 C42 1_555 1_555
C43 C42 1_555 1_555
H33 C43 1_555 1_555
C44 C43 1_555 1_555
H34 C44 1_555 1_555
C45 C44 1_555 1_555
H35 C45 1_555 1_555
C46 C41 1_555 1_555
H36 C46 1_555 1_555
Cl1 C1 1_555 1_555
Cl2 C24 1_555 1_555
N1 C8 1_555 1_555
N2 C31 1_555 1_555
O1 N1 1_555 1_555
O2 N1 1_555 1_555
O3 C10 1_555 1_555
O4 C17 1_555 1_555
O5 N2 1_555 1_555
O6 N2 1_555 1_555
O7 C40 1_555 1_555
O8 C33 1_555 1_555
C5 C6 1_555 1_555
C15 C16 1_555 1_555
C22 C23 1_555 1_555
C28 C29 1_555 1_555
C38 C39 1_555 1_555
C45 C46 1_555 1_555

#END
