
#######################################################################
#
#                 Cambridge Crystallographic Data Centre
#                                CCDC 
#
#######################################################################
#
# If this CIF has been generated from an entry in the Cambridge 
# Structural Database, then it will include bibliographic, chemical, 
# crystal, experimental, refinement or atomic coordinate data resulting 
# from the CCDC's data processing and validation procedures.
#
#######################################################################

data_CORDIW01
_chemical_formula_moiety         'C9 H10 O3 S1'
_chemical_name_systematic        2-(methylsulfonyl)-1-phenylethanone
_symmetry_cell_setting           orthorhombic
_symmetry_space_group_name_H-M   'P n a 21'
_symmetry_Int_Tables_number      33
_space_group_name_Hall           'P 2c -2n'
loop_
_symmetry_equiv_pos_site_id
_symmetry_equiv_pos_as_xyz
1 x,y,z
2 -x,-y,1/2+z
3 1/2-x,1/2+y,1/2+z
4 1/2+x,1/2-y,z
_cell_length_a                   10.2608(5)
_cell_length_b                   10.7142(5)
_cell_length_c                   16.9537(9)
_cell_angle_alpha                90
_cell_angle_beta                 90
_cell_angle_gamma                90
_cell_volume                     1863.83
_exptl_crystal_colour            'light colorless'
_exptl_crystal_description       block
_chemical_melting_point          '359-363 K'
_cell_formula_units_Z            8
loop_
_atom_site_label
_atom_site_type_symbol
_atom_site_fract_x
_atom_site_fract_y
_atom_site_fract_z
S1 S 0.4205(3) 0.7463(3) 0.77817(18)
O1 O 0.4183(12) 0.9484(10) 0.6312(13)
O2 O 0.5556(11) 0.7263(15) 0.7668(14)
O3 O 0.3525(14) 0.6340(11) 0.8214(9)
C1 C 0.5457(14) 0.6553(14) 0.5657(11)
H1 H 0.4834 0.6056 0.5902
C2 C 0.5279(12) 0.7783(12) 0.5757(9)
C3 C 0.4330(14) 0.8453(15) 0.6305(10)
C4 C 0.3485(12) 0.7575(11) 0.6812(8)
H2 H 0.3443 0.6756 0.6570
H3 H 0.2606 0.7902 0.6851
C5 C 0.707(2) 0.798(2) 0.4873(15)
H4 H 0.7676 0.8478 0.4615
C6 C 0.3820(16) 0.8673(12) 0.8188(11)
H5 H 0.3789 0.8544 0.8748
H6 H 0.2977 0.8932 0.8004
H7 H 0.4450 0.9308 0.8068
C7 C 0.6180(19) 0.859(2) 0.5330(13)
H8 H 0.6150 0.9456 0.5366
C8 C 0.635(2) 0.593(2) 0.5276(15)
H9 H 0.6482 0.5073 0.5310
C9 C 0.7175(18) 0.6831(19) 0.4756(11)
H10 H 0.7731 0.6524 0.4368
S2 S 0.3262(3) 0.2490(3) 0.51060(19)
O4 O 0.1893(10) 0.2336(10) 0.5184(8)
O5 O 0.3245(16) 0.4604(14) 0.6509(13)
C10 C 0.365(2) 0.3654(13) 0.4666(12)
H11 H 0.3194 0.3688 0.4172
H12 H 0.4573 0.3641 0.4570
H13 H 0.3434 0.4374 0.4976
O6 O 0.3937(15) 0.1325(14) 0.4665(11)
C11 C 0.2101(12) 0.2785(12) 0.7189(10)
C12 C 0.3154(12) 0.3301(15) 0.6549(14)
C13 C 0.3938(18) 0.2570(15) 0.6065(12)
H14 H 0.4009 0.1736 0.6284
H15 H 0.4806 0.2926 0.6039
C14 C 0.2139(19) 0.1611(16) 0.7132(12)
H16 H 0.2590 0.1063 0.6806
C15 C 0.0300(13) 0.2502(11) 0.8152(10)
H17 H -0.0405 0.2328 0.8479
C16 C 0.047(2) 0.364(2) 0.8004(14)
H18 H -0.0043 0.4267 0.8223
C17 C 0.104(3) 0.141(3) 0.7890(17)
C18 C 0.150(2) 0.3906(19) 0.7489(15)
H19 H 0.1762 0.4709 0.7355
H20? H 0.2716 0.1222 0.6788
C19? C 0.126(2) 0.334(2) 0.7682(15)
H21? H 0.1249 0.4206 0.7739
H22? H -0.0358 0.2895 0.8436
C20? C 0.035(3) 0.132(2) 0.8179(18)
H23? H -0.0156 0.0876 0.8540
C21? C 0.109(2) 0.075(2) 0.7711(16)
H24? H 0.1074 -0.0114 0.7678
loop_
_geom_bond_atom_site_label_1
_geom_bond_atom_site_label_2
_geom_bond_site_symmetry_1
_geom_bond_site_symmetry_2
S1 O2 1_555 1_555
O1 C3 1_555 1_555
O3 S1 1_555 1_555
C1 H1 1_555 1_555
C2 C1 1_555 1_555
C3 C2 1_555 1_555
C4 S1 1_555 1_555
H2 C4 1_555 1_555
H3 C4 1_555 1_555
C5 H4 1_555 1_555
C6 S1 1_555 1_555
H5 C6 1_555 1_555
H6 C6 1_555 1_555
H7 C6 1_555 1_555
C7 C2 1_555 1_555
H8 C7 1_555 1_555
C8 C1 1_555 1_555
H9 C8 1_555 1_555
C9 C5 1_555 1_555
H10 C9 1_555 1_555
S2 O4 1_555 1_555
O5 C12 1_555 1_555
C10 S2 1_555 1_555
H11 C10 1_555 1_555
H12 C10 1_555 1_555
H13 C10 1_555 1_555
O6 S2 1_555 1_555
C11 C12 1_555 1_555
C12 C13 1_555 1_555
C13 S2 1_555 1_555
H14 C13 1_555 1_555
H15 C13 1_555 1_555
C14 C11 1_555 1_555
H16 C14 1_555 1_555
C15 H17 1_555 1_555
C16 C15 1_555 1_555
H18 C16 1_555 1_555
C17 C14 1_555 1_555
C18 C11 1_555 1_555
H19 C18 1_555 1_555
C3 C4 1_555 1_555
C5 C7 1_555 1_555
C8 C9 1_555 1_555
C15 C17 1_555 1_555
C16 C18 1_555 1_555

#END
