
#######################################################################
#
#                 Cambridge Crystallographic Data Centre
#                                CCDC 
#
#######################################################################
#
# If this CIF has been generated from an entry in the Cambridge 
# Structural Database, then it will include bibliographic, chemical, 
# crystal, experimental, refinement or atomic coordinate data resulting 
# from the CCDC's data processing and validation procedures.
#
#######################################################################

data_CORROR
_chemical_compound_source        'twigs and leaves of Chukrasia tabularis'
_chemical_formula_moiety         'C36 H44 O16,0.33(C2 H6 O1)'
_chemical_name_systematic        'Chuktabrin A ethanol solvate'
_symmetry_cell_setting           monoclinic
_symmetry_space_group_name_H-M   'C 2'
_symmetry_Int_Tables_number      5
_space_group_name_Hall           'C 2y'
loop_
_symmetry_equiv_pos_site_id
_symmetry_equiv_pos_as_xyz
1 x,y,z
2 -x,y,-z
3 1/2+x,1/2+y,z
4 1/2-x,1/2+y,-z
_cell_length_a                   66.225
_cell_length_b                   13.679
_cell_length_c                   12.594
_cell_angle_alpha                90
_cell_angle_beta                 95.75
_cell_angle_gamma                90
_cell_volume                     11351.4
_exptl_crystal_colour            colorless
_exptl_crystal_description       block
_cell_formula_units_Z            12
_exptl_crystal_recrystallization_method methanol/ethanol
loop_
_atom_site_label
_atom_site_type_symbol
_atom_site_fract_x
_atom_site_fract_y
_atom_site_fract_z
O1 O -0.92521(4) -0.0011(2) -0.3460(2)
O2 O -0.94463(5) -0.1322(2) -0.3664(2)
O3 O -0.97547(5) -0.2075(2) -0.2697(3)
O4 O -0.92528(12) 0.0517(4) 0.2331(4)
O5 O -0.96969(5) 0.0128(2) -0.4698(2)
H1 H -0.9618 -0.0334 -0.4642
O6 O -0.99804(5) -0.0916(3) -0.3756(2)
H2 H -0.9959 -0.0788 -0.4370
O7 O -0.99226(5) -0.0047(3) -0.1162(3)
H3 H -1.0012 -0.0417 -0.1002
O8 O -0.96098(6) 0.2220(3) 0.0107(3)
O9 O -0.96910(6) 0.3646(3) -0.0690(3)
O10 O -0.91216(5) 0.1168(2) -0.1916(3)
O11 O -0.91006(7) 0.1755(3) -0.0240(4)
O12 O -0.89662(4) -0.0691(2) -0.1686(3)
O13 O -0.87219(7) 0.0065(5) -0.0607(5)
O14 O -0.94853(5) -0.1988(3) 0.0256(3)
O15 O -0.97545(8) -0.1284(5) 0.0827(4)
O16 O -0.92342(5) -0.0960(3) -0.4881(3)
C1 C -0.97429(7) 0.0416(3) -0.3677(3)
C2 C -0.98390(7) -0.0386(3) -0.3022(4)
C3 C -0.99584(6) 0.0203(4) -0.2233(4)
H4 H -1.0104 0.0135 -0.2453
C4 C -0.98949(6) 0.1272(3) -0.2434(4)
C5 C -0.96604(6) 0.1345(3) -0.2053(3)
H5 H -0.9632 0.0936 -0.1417
C6 C -0.95925(7) 0.2389(3) -0.1764(4)
H6 H -0.9448 0.2441 -0.1822
H7 H -0.9661 0.2833 -0.2282
C7 C -0.96330(7) 0.2708(4) -0.0681(4)
C8 C -0.94661(6) -0.0989(3) -0.2587(3)
C9 C -0.93873(6) 0.0085(3) -0.2623(3)
C10 C -0.95543(6) 0.0865(3) -0.2991(3)
C11 C -0.92559(7) 0.0393(3) -0.1601(4)
H8 H -0.9344 0.0663 -0.1095
C12 C -0.91197(7) -0.0394(3) -0.1032(4)
H9 H -0.9054 -0.0122 -0.0364
C13 C -0.92412(7) -0.1317(3) -0.0771(4)
C14 C -0.93363(7) -0.1706(3) -0.1856(3)
H10 H -0.9219 -0.1846 -0.2250
C15 C -0.94455(8) -0.2668(3) -0.1835(4)
H11 H -0.9377 -0.3190 -0.1491
C16 C -0.96309(9) -0.2822(4) -0.2268(4)
C17 C -0.93953(7) -0.1055(4) 0.0013(4)
H12 H -0.9500 -0.0634 -0.0349
C18 C -0.90886(8) -0.2071(4) -0.0266(4)
H13 H -0.8993 -0.2232 -0.0764
H14 H -0.9160 -0.2650 -0.0087
H15 H -0.9018 -0.1801 0.0369
C19 C -0.94590(7) 0.1637(3) -0.3700(4)
H16 H -0.9396 0.1311 -0.4257
H17 H -0.9359 0.2009 -0.3270
H18 H -0.9563 0.2068 -0.4010
C20 C -0.93125(9) -0.0581(4) 0.1028(4)
C21 C -0.93382(14) 0.0344(5) 0.1314(5)
H19 H -0.9406 0.0814 0.0877
C22 C -0.92002(9) -0.1013(4) 0.1947(4)
H20 H -0.9153 -0.1654 0.2008
C23 C -0.91765(13) -0.0338(5) 0.2675(6)
H21 H -0.9113 -0.0442 0.3359
C24 C -0.93046(7) -0.0787(3) -0.4084(4)
C25 C -0.97368(10) -0.3796(4) -0.2420(6)
H22 H -0.9657 -0.4294 -0.2020
H23 H -0.9868 -0.3761 -0.2146
C26 C -0.97640(13) -0.4071(7) -0.3579(8)
H24 H -0.9832 -0.4691 -0.3659
H25 H -0.9634 -0.4117 -0.3846
H26 H -0.9844 -0.3582 -0.3973
C27 C -0.97203(9) 0.4052(5) 0.0351(5)
H27 H -0.9763 0.4721 0.0269
H28 H -0.9595 0.4022 0.0804
H29 H -0.9822 0.3683 0.0665
C28 C -1.00324(8) 0.1995(4) -0.1925(4)
H30 H -1.0171 0.1887 -0.2204
H31 H -0.9994 0.2651 -0.2086
H32 H -1.0019 0.1903 -0.1166
C29 C -0.98992(7) 0.1251(4) -0.3639(4)
H33 H -0.9853 0.1859 -0.3928
H34 H -1.0032 0.1078 -0.3989
C30 C -0.96889(6) -0.1108(3) -0.2414(3)
H35 H -0.9701 -0.1024 -0.1650
C31 C -0.90470(8) 0.1780(4) -0.1116(5)
C32 C -0.89018(9) 0.2478(4) -0.1521(5)
H36 H -0.8849 0.2904 -0.0954
H37 H -0.8970 0.2859 -0.2089
H38 H -0.8792 0.2123 -0.1784
C33 C -0.87742(10) -0.0439(5) -0.1357(7)
C34 C -0.86360(11) -0.0855(6) -0.2126(9)
H39 H -0.8498 -0.0675 -0.1900
H40 H -0.8674 -0.0599 -0.2827
H41 H -0.8648 -0.1554 -0.2139
C35 C -0.96647(9) -0.2017(6) 0.0640(4)
C36 C -0.97372(10) -0.3045(6) 0.0776(5)
H42 H -0.9866 -0.3033 0.1059
H43 H -0.9641 -0.3390 0.1258
H44 H -0.9751 -0.3369 0.0096
O17 O -0.92740(4) -0.5022(2) -0.4106(2)
O18 O -0.90670(5) -0.6268(2) -0.3719(3)
O19 O -0.87055(6) -0.6848(3) -0.4391(3)
O20 O -0.91360(8) -0.4428(3) -0.9698(4)
O21 O -0.89050(5) -0.4736(3) -0.2463(3)
H45 H -0.8971 -0.5236 -0.2604
O22 O -0.85766(6) -0.5710(3) -0.2949(3)
H46 H -0.8470 -0.5941 -0.3116
O23 O -0.84675(6) -0.4840(3) -0.5328(4)
H47 H -0.8347 -0.4990 -0.5284
O24 O -0.87680(8) -0.2961(4) -0.7225(4)
O25 O -0.87229(6) -0.1470(3) -0.6538(3)
O26 O -0.93671(4) -0.3874(2) -0.5751(3)
O27 O -0.93336(6) -0.3215(3) -0.7339(3)
O28 O -0.94863(5) -0.5770(2) -0.6051(3)
O29 O -0.97122(6) -0.5090(4) -0.7268(4)
O30 O -0.89128(5) -0.6947(3) -0.7616(3)
O31 O -0.86179(8) -0.6261(5) -0.7795(6)
O32 O -0.93216(6) -0.5977(3) -0.2713(3)
C37 C -0.88155(7) -0.4429(4) -0.3363(4)
C38 C -0.86766(7) -0.5191(4) -0.3836(4)
C39 C -0.85186(7) -0.4546(4) -0.4332(5)
H48 H -0.8394 -0.4539 -0.3839
C40 C -0.86103(7) -0.3552(4) -0.4332(4)
C41 C -0.88209(6) -0.3590(3) -0.5031(4)
H49 H -0.8808 -0.4059 -0.5610
C42 C -0.88885(7) -0.2614(3) -0.5542(4)
H50 H -0.9034 -0.2627 -0.5720
H51 H -0.8858 -0.2095 -0.5027
C43 C -0.87880(8) -0.2390(4) -0.6533(5)
C44 C -0.90160(7) -0.5919(3) -0.4737(4)
C45 C -0.91139(6) -0.4878(3) -0.4796(3)
C46 C -0.89724(7) -0.4037(3) -0.4275(4)
C47 C -0.92164(6) -0.4597(3) -0.5908(3)
H52 H -0.9114 -0.4299 -0.6315
C48 C -0.93180(6) -0.5430(3) -0.6573(4)
H53 H -0.9368 -0.5178 -0.7279
C49 C -0.91804(7) -0.6311(3) -0.6713(4)
C50 C -0.91082(7) -0.6669(3) -0.5555(4)
H54 H -0.9232 -0.6892 -0.5268
C51 C -0.89681(10) -0.7571(4) -0.5480(5)
H55 H -0.9013 -0.8126 -0.5862
C52 C -0.87910(10) -0.7615(5) -0.4918(5)
C53 C -0.90075(7) -0.6041(4) -0.7402(4)
H56 H -0.8909 -0.5622 -0.6985
C54 C -0.93119(8) -0.7124(4) -0.7282(4)
H57 H -0.9419 -0.7299 -0.6856
H58 H -0.9229 -0.7686 -0.7379
H59 H -0.9370 -0.6891 -0.7965
C55 C -0.91046(7) -0.3269(4) -0.3805(4)
H60 H -0.9020 -0.2754 -0.3489
H61 H -0.9178 -0.3564 -0.3270
H62 H -0.9199 -0.3003 -0.4361
C56 C -0.90751(8) -0.5549(4) -0.8434(4)
C57 C -0.90651(10) -0.4611(4) -0.8682(5)
H63 H -0.9014 -0.4132 -0.8203
C58 C -0.91584(8) -0.5999(4) -0.9387(4)
H64 H -0.9187 -0.6660 -0.9480
C59 C -0.91876(9) -0.5319(5) -1.0119(5)
H65 H -0.9237 -0.5430 -1.0827
C60 C -0.92300(8) -0.5764(4) -0.3448(4)
C61 C -0.86588(13) -0.8511(5) -0.4733(8)
H66 H -0.8535 -0.8397 -0.5064
H67 H -0.8621 -0.8569 -0.3971
C62 C -0.8732(2) -0.9353(7) -0.5074(13)
H68 H -0.8634 -0.9857 -0.4893
H69 H -0.8763 -0.9329 -0.5835
H70 H -0.8854 -0.9492 -0.4745
C63 C -0.86245(14) -0.1206(6) -0.7465(7)
H71 H -0.8583 -0.0533 -0.7413
H72 H -0.8717 -0.1296 -0.8094
H73 H -0.8507 -0.1612 -0.7507
C64 C -0.84661(8) -0.2739(5) -0.4608(5)
H74 H -0.8343 -0.2776 -0.4139
H75 H -0.8529 -0.2115 -0.4526
H76 H -0.8436 -0.2814 -0.5333
C65 C -0.86719(8) -0.3545(4) -0.3214(5)
H77 H -0.8742 -0.2949 -0.3050
H78 H -0.8558 -0.3661 -0.2680
C66 C -0.87837(7) -0.5907(4) -0.4678(5)
H79 H -0.8744 -0.5738 -0.5383
C67 C -0.94147(7) -0.3232(4) -0.6529(5)
C68 C -0.95798(9) -0.2570(5) -0.6279(5)
H80 H -0.9610 -0.2120 -0.6859
H81 H -0.9538 -0.2212 -0.5639
H82 H -0.9699 -0.2946 -0.6178
C69 C -0.96747(8) -0.5586(5) -0.6496(5)
C70 C -0.98217(9) -0.6108(6) -0.5886(6)
H83 H -0.9957 -0.5980 -0.6200
H84 H -0.9807 -0.5885 -0.5160
H85 H -0.9796 -0.6798 -0.5903
C71 C -0.87232(11) -0.6985(6) -0.7863(5)
C72 C -0.86699(13) -0.7971(6) -0.8196(7)
H86 H -0.8532 -0.7977 -0.8367
H87 H -0.8758 -0.8159 -0.8813
H88 H -0.8685 -0.8423 -0.7625
O33 O -0.74746(4) -0.6736(2) -0.0205(2)
O34 O -0.76597(5) -0.5393(2) -0.0156(3)
O35 O -0.79868(6) -0.4652(3) -0.1395(4)
O36 O -0.75417(7) -0.7377(3) -0.5992(3)
O37 O -0.78829(5) -0.6790(3) 0.0790(3)
H89 H -0.7805 -0.6331 0.0746
O38 O -0.81856(5) -0.5757(3) -0.0298(3)
H90 H -0.8246 -0.5325 -0.0650
O39 O -0.82078(5) -0.6700(3) -0.2830(3)
H91 H -0.8310 -0.6392 -0.3040
O40 O -0.79286(8) -0.8799(3) -0.4005(4)
O41 O -0.80078(6) -1.0241(3) -0.3344(3)
O42 O -0.73733(4) -0.7952(2) -0.1682(2)
O43 O -0.74032(6) -0.8624(3) -0.3302(3)
O44 O -0.72109(4) -0.6136(2) -0.1781(3)
O45 O -0.69834(6) -0.6837(5) -0.2718(5)
O46 O -0.77255(5) -0.4730(2) -0.4221(3)
O47 O -0.80445(6) -0.5247(4) -0.4626(4)
O48 O -0.74363(6) -0.5760(3) 0.1227(3)
C73 C -0.79552(7) -0.7105(4) -0.0237(4)
C74 C -0.80656(7) -0.6297(4) -0.0957(4)
C75 C -0.82100(7) -0.6913(4) -0.1753(4)
H92 H -0.8349 -0.6827 -0.1566
C76 C -0.81449(7) -0.7969(4) -0.1488(4)
C77 C -0.79212(6) -0.8035(3) -0.1826(4)
H93 H -0.7912 -0.7604 -0.2440
C78 C -0.78625(7) -0.9072(4) -0.2143(4)
H94 H -0.7716 -0.9133 -0.2052
H95 H -0.7918 -0.9538 -0.1668
C79 C -0.79368(8) -0.9319(4) -0.3259(5)
C80 C -0.76997(7) -0.5750(3) -0.1248(3)
C81 C -0.76231(6) -0.6836(3) -0.1144(3)
C82 C -0.77867(6) -0.7582(3) -0.0826(4)
C83 C -0.75056(6) -0.7173(3) -0.2072(3)
H96 H -0.7603 -0.7436 -0.2635
C84 C -0.73765(6) -0.6411(3) -0.2570(4)
H97 H -0.7320 -0.6697 -0.3191
C85 C -0.74900(6) -0.5469(3) -0.2910(4)
C86 C -0.75756(7) -0.5061(3) -0.1913(4)
H98 H -0.7455 -0.4900 -0.1429
C87 C -0.76875(9) -0.4099(4) -0.2072(4)
H99 H -0.7623 -0.3586 -0.2382
C88 C -0.78739(10) -0.3946(4) -0.1792(5)
C89 C -0.76563(7) -0.5688(3) -0.3849(4)
H100 H -0.7769 -0.6043 -0.3577
C90 C -0.73344(8) -0.4752(4) -0.3290(4)
H101 H -0.7231 -0.4621 -0.2716
H102 H -0.7401 -0.4153 -0.3514
H103 H -0.7273 -0.5033 -0.3878
C91 C -0.76812(7) -0.8372(4) -0.0090(4)
H104 H -0.7604 -0.8063 0.0503
H105 H -0.7592 -0.8752 -0.0484
H106 H -0.7782 -0.8791 0.0168
C92 C -0.75887(7) -0.6222(4) -0.4794(4)
C93 C -0.76170(9) -0.7159(4) -0.5051(4)
H107 H -0.7680 -0.7609 -0.4640
C94 C -0.74860(9) -0.5821(4) -0.5643(4)
H108 H -0.7442 -0.5180 -0.5699
C95 C -0.74662(10) -0.6529(5) -0.6326(5)
H109 H -0.7407 -0.6456 -0.6961
C96 C -0.75177(7) -0.5954(4) 0.0366(4)
C97 C -0.79828(16) -0.2977(6) -0.1868(10)
H110 H -0.7886 -0.2503 -0.2081
H111 H -0.8087 -0.3034 -0.2461
C98 C -0.8060(3) -0.2619(9) -0.1168(17)
H112 H -0.8122 -0.2012 -0.1406
H113 H -0.7960 -0.2498 -0.0578
H114 H -0.8162 -0.3052 -0.0946
C99 C -0.80797(12) -1.0542(6) -0.4405(6)
H115 H -0.8126 -1.1207 -0.4393
H116 H -0.7972 -1.0492 -0.4856
H117 H -0.8190 -1.0129 -0.4678
C100 C -0.82918(8) -0.8720(5) -0.1987(5)
H118 H -0.8422 -0.8629 -0.1727
H119 H -0.8242 -0.9364 -0.1803
H120 H -0.8305 -0.8645 -0.2749
C101 C -0.81145(7) -0.7905(4) -0.0294(4)
H121 H -0.8063 -0.8509 0.0033
H122 H -0.8237 -0.7705 0.0012
C102 C -0.79271(7) -0.5643(4) -0.1553(4)
H123 H -0.7954 -0.5789 -0.2316
C103 C -0.73246(8) -0.8608(4) -0.2403(5)
C104 C -0.71684(9) -0.9304(4) -0.1945(6)
H124 H -0.7139 -0.9766 -0.2483
H125 H -0.7218 -0.9645 -0.1357
H126 H -0.7047 -0.8953 -0.1700
C105 C -0.70241(8) -0.6377(5) -0.1976(6)
C106 C -0.68755(9) -0.5923(7) -0.1117(6)
H127 H -0.6739 -0.6087 -0.1249
H128 H -0.6902 -0.6170 -0.0431
H129 H -0.6891 -0.5225 -0.1128
C107 C -0.79188(9) -0.4609(5) -0.4623(4)
C108 C -0.79484(10) -0.3586(5) -0.5013(5)
H130 H -0.8087 -0.3495 -0.5295
H131 H -0.7861 -0.3464 -0.5563
H132 H -0.7916 -0.3141 -0.4432
O49 O -0.81769(8) -0.6566(6) 0.2179(5)
H133 H -0.8085 -0.6638 0.1792
C109 C -0.8108(2) -0.6743(13) 0.3162(11)
H135 H -0.7962 -0.6634 0.3222
H136 H -0.8165 -0.6254 0.3603
C111 C -0.8135(3) -0.751(2) 0.355(2)
H139 H -0.8074 -0.7520 0.4271
H140 H -0.8075 -0.8012 0.3147
H141 H -0.8278 -0.7629 0.3532
O50 O -0.85860(14) -0.4833(10) -0.0815(6)
H134 H -0.8689 -0.4764 -0.1228
C110 C -0.8601(3) -0.4436(18) -0.011(2)
H137 H -0.8611 -0.4977 0.0376
H138 H -0.8740 -0.4214 -0.0268
C112 C -0.8543(4) -0.384(2) 0.049(3)
H142 H -0.8626 -0.3834 0.1069
H143 H -0.8549 -0.3218 0.0142
H144 H -0.8405 -0.3984 0.0757
loop_
_geom_bond_atom_site_label_1
_geom_bond_atom_site_label_2
_geom_bond_site_symmetry_1
_geom_bond_site_symmetry_2
O1 C9 1_555 1_555
O2 C8 1_555 1_555
O3 C16 1_555 1_555
O4 C21 1_555 1_555
O5 H1 1_555 1_555
O6 H2 1_555 1_555
O7 H3 1_555 1_555
O8 C7 1_555 1_555
O9 C7 1_555 1_555
O10 C11 1_555 1_555
O11 C31 1_555 1_555
O12 C12 1_555 1_555
O13 C33 1_555 1_555
O14 C17 1_555 1_555
O15 C35 1_555 1_555
O16 C24 1_555 1_555
C1 O5 1_555 1_555
C2 O6 1_555 1_555
C3 O7 1_555 1_555
H4 C3 1_555 1_555
C4 C3 1_555 1_555
C5 C4 1_555 1_555
H5 C5 1_555 1_555
C6 C5 1_555 1_555
H6 C6 1_555 1_555
H7 C6 1_555 1_555
C7 C6 1_555 1_555
C8 C9 1_555 1_555
C9 C10 1_555 1_555
C10 C1 1_555 1_555
C11 C9 1_555 1_555
H8 C11 1_555 1_555
C12 C11 1_555 1_555
H9 C12 1_555 1_555
C13 C12 1_555 1_555
C14 C8 1_555 1_555
H10 C14 1_555 1_555
C15 C14 1_555 1_555
H11 C15 1_555 1_555
C16 C15 1_555 1_555
C17 C13 1_555 1_555
H12 C17 1_555 1_555
C18 C13 1_555 1_555
H13 C18 1_555 1_555
H14 C18 1_555 1_555
H15 C18 1_555 1_555
C19 C10 1_555 1_555
H16 C19 1_555 1_555
H17 C19 1_555 1_555
H18 C19 1_555 1_555
C20 C17 1_555 1_555
C21 C20 1_555 1_555
H19 C21 1_555 1_555
C22 C20 1_555 1_555
H20 C22 1_555 1_555
C23 O4 1_555 1_555
H21 C23 1_555 1_555
C24 O1 1_555 1_555
C25 C16 1_555 1_555
H22 C25 1_555 1_555
H23 C25 1_555 1_555
C26 C25 1_555 1_555
H24 C26 1_555 1_555
H25 C26 1_555 1_555
H26 C26 1_555 1_555
C27 O9 1_555 1_555
H27 C27 1_555 1_555
H28 C27 1_555 1_555
H29 C27 1_555 1_555
C28 C4 1_555 1_555
H30 C28 1_555 1_555
H31 C28 1_555 1_555
H32 C28 1_555 1_555
C29 C1 1_555 1_555
H33 C29 1_555 1_555
H34 C29 1_555 1_555
C30 O3 1_555 1_555
H35 C30 1_555 1_555
C31 O10 1_555 1_555
C32 C31 1_555 1_555
H36 C32 1_555 1_555
H37 C32 1_555 1_555
H38 C32 1_555 1_555
C33 O12 1_555 1_555
C34 C33 1_555 1_555
H39 C34 1_555 1_555
H40 C34 1_555 1_555
H41 C34 1_555 1_555
C35 O14 1_555 1_555
C36 C35 1_555 1_555
H42 C36 1_555 1_555
H43 C36 1_555 1_555
H44 C36 1_555 1_555
O17 C45 1_555 1_555
O18 C44 1_555 1_555
O19 C52 1_555 1_555
O20 C57 1_555 1_555
O21 H45 1_555 1_555
O22 H46 1_555 1_555
O23 H47 1_555 1_555
O24 C43 1_555 1_555
O25 C43 1_555 1_555
O26 C47 1_555 1_555
O27 C67 1_555 1_555
O28 C48 1_555 1_555
O29 C69 1_555 1_555
O30 C53 1_555 1_555
O31 C71 1_555 1_555
O32 C60 1_555 1_555
C37 O21 1_555 1_555
C38 O22 1_555 1_555
C39 O23 1_555 1_555
H48 C39 1_555 1_555
C40 C39 1_555 1_555
C41 C40 1_555 1_555
H49 C41 1_555 1_555
C42 C41 1_555 1_555
H50 C42 1_555 1_555
H51 C42 1_555 1_555
C43 C42 1_555 1_555
C44 C45 1_555 1_555
C45 C46 1_555 1_555
C46 C37 1_555 1_555
C47 C45 1_555 1_555
H52 C47 1_555 1_555
C48 C47 1_555 1_555
H53 C48 1_555 1_555
C49 C48 1_555 1_555
C50 C44 1_555 1_555
H54 C50 1_555 1_555
C51 C50 1_555 1_555
H55 C51 1_555 1_555
C52 C51 1_555 1_555
C53 C49 1_555 1_555
H56 C53 1_555 1_555
C54 C49 1_555 1_555
H57 C54 1_555 1_555
H58 C54 1_555 1_555
H59 C54 1_555 1_555
C55 C46 1_555 1_555
H60 C55 1_555 1_555
H61 C55 1_555 1_555
H62 C55 1_555 1_555
C56 C53 1_555 1_555
C57 C56 1_555 1_555
H63 C57 1_555 1_555
C58 C56 1_555 1_555
H64 C58 1_555 1_555
C59 O20 1_555 1_555
H65 C59 1_555 1_555
C60 O17 1_555 1_555
C61 C52 1_555 1_555
H66 C61 1_555 1_555
H67 C61 1_555 1_555
C62 C61 1_555 1_555
H68 C62 1_555 1_555
H69 C62 1_555 1_555
H70 C62 1_555 1_555
C63 O25 1_555 1_555
H71 C63 1_555 1_555
H72 C63 1_555 1_555
H73 C63 1_555 1_555
C64 C40 1_555 1_555
H74 C64 1_555 1_555
H75 C64 1_555 1_555
H76 C64 1_555 1_555
C65 C37 1_555 1_555
H77 C65 1_555 1_555
H78 C65 1_555 1_555
C66 O19 1_555 1_555
H79 C66 1_555 1_555
C67 O26 1_555 1_555
C68 C67 1_555 1_555
H80 C68 1_555 1_555
H81 C68 1_555 1_555
H82 C68 1_555 1_555
C69 O28 1_555 1_555
C70 C69 1_555 1_555
H83 C70 1_555 1_555
H84 C70 1_555 1_555
H85 C70 1_555 1_555
C71 O30 1_555 1_555
C72 C71 1_555 1_555
H86 C72 1_555 1_555
H87 C72 1_555 1_555
H88 C72 1_555 1_555
O33 C81 1_555 1_555
O34 C80 1_555 1_555
O35 C88 1_555 1_555
O36 C93 1_555 1_555
O37 H89 1_555 1_555
O38 H90 1_555 1_555
O39 H91 1_555 1_555
O40 C79 1_555 1_555
O41 C79 1_555 1_555
O42 C83 1_555 1_555
O43 C103 1_555 1_555
O44 C84 1_555 1_555
O45 C105 1_555 1_555
O46 C89 1_555 1_555
O47 C107 1_555 1_555
O48 C96 1_555 1_555
C73 O37 1_555 1_555
C74 O38 1_555 1_555
C75 O39 1_555 1_555
H92 C75 1_555 1_555
C76 C75 1_555 1_555
C77 C76 1_555 1_555
H93 C77 1_555 1_555
C78 C77 1_555 1_555
H94 C78 1_555 1_555
H95 C78 1_555 1_555
C79 C78 1_555 1_555
C80 C81 1_555 1_555
C81 C82 1_555 1_555
C82 C73 1_555 1_555
C83 C81 1_555 1_555
H96 C83 1_555 1_555
C84 C83 1_555 1_555
H97 C84 1_555 1_555
C85 C84 1_555 1_555
C86 C80 1_555 1_555
H98 C86 1_555 1_555
C87 C86 1_555 1_555
H99 C87 1_555 1_555
C88 C87 1_555 1_555
C89 C85 1_555 1_555
H100 C89 1_555 1_555
C90 C85 1_555 1_555
H101 C90 1_555 1_555
H102 C90 1_555 1_555
H103 C90 1_555 1_555
C91 C82 1_555 1_555
H104 C91 1_555 1_555
H105 C91 1_555 1_555
H106 C91 1_555 1_555
C92 C89 1_555 1_555
C93 C92 1_555 1_555
H107 C93 1_555 1_555
C94 C92 1_555 1_555
H108 C94 1_555 1_555
C95 O36 1_555 1_555
H109 C95 1_555 1_555
C96 O33 1_555 1_555
C97 C88 1_555 1_555
H110 C97 1_555 1_555
H111 C97 1_555 1_555
C98 C97 1_555 1_555
H112 C98 1_555 1_555
H113 C98 1_555 1_555
H114 C98 1_555 1_555
C99 O41 1_555 1_555
H115 C99 1_555 1_555
H116 C99 1_555 1_555
H117 C99 1_555 1_555
C100 C76 1_555 1_555
H118 C100 1_555 1_555
H119 C100 1_555 1_555
H120 C100 1_555 1_555
C101 C73 1_555 1_555
H121 C101 1_555 1_555
H122 C101 1_555 1_555
C102 O35 1_555 1_555
H123 C102 1_555 1_555
C103 O42 1_555 1_555
C104 C103 1_555 1_555
H124 C104 1_555 1_555
H125 C104 1_555 1_555
H126 C104 1_555 1_555
C105 O44 1_555 1_555
C106 C105 1_555 1_555
H127 C106 1_555 1_555
H128 C106 1_555 1_555
H129 C106 1_555 1_555
C107 O46 1_555 1_555
C108 C107 1_555 1_555
H130 C108 1_555 1_555
H131 C108 1_555 1_555
H132 C108 1_555 1_555
O49 H133 1_555 1_555
O50 H134 1_555 1_555
C109 O49 1_555 1_555
H135 C109 1_555 1_555
H136 C109 1_555 1_555
C110 O50 1_555 1_555
H137 C110 1_555 1_555
H138 C110 1_555 1_555
C111 C109 1_555 1_555
H139 C111 1_555 1_555
H140 C111 1_555 1_555
H141 C111 1_555 1_555
C112 C110 1_555 1_555
H142 C112 1_555 1_555
H143 C112 1_555 1_555
H144 C112 1_555 1_555
O2 C24 1_555 1_555
C1 C2 1_555 1_555
C2 C3 1_555 1_555
C2 C30 1_555 1_555
C4 C29 1_555 1_555
C5 C10 1_555 1_555
C8 C30 1_555 1_555
C13 C14 1_555 1_555
C22 C23 1_555 1_555
O18 C60 1_555 1_555
C37 C38 1_555 1_555
C38 C39 1_555 1_555
C38 C66 1_555 1_555
C40 C65 1_555 1_555
C41 C46 1_555 1_555
C44 C66 1_555 1_555
C49 C50 1_555 1_555
C58 C59 1_555 1_555
O34 C96 1_555 1_555
C73 C74 1_555 1_555
C74 C75 1_555 1_555
C74 C102 1_555 1_555
C76 C101 1_555 1_555
C77 C82 1_555 1_555
C80 C102 1_555 1_555
C85 C86 1_555 1_555
C94 C95 1_555 1_555

#END
