
#######################################################################
#
#                 Cambridge Crystallographic Data Centre
#                                CCDC 
#
#######################################################################
#
# If this CIF has been generated from an entry in the Cambridge 
# Structural Database, then it will include bibliographic, chemical, 
# crystal, experimental, refinement or atomic coordinate data resulting 
# from the CCDC's data processing and validation procedures.
#
#######################################################################

data_CORWOX
_chemical_formula_moiety         'C9 H9 N3 O1 S1'
_chemical_name_systematic        
4-((1H-1,2,4-triazol-1-ylmethyl)sulfanyl)phenol
_symmetry_cell_setting           monoclinic
_symmetry_space_group_name_H-M   'P 21/n'
_symmetry_Int_Tables_number      14
_space_group_name_Hall           '-P 2yn'
loop_
_symmetry_equiv_pos_site_id
_symmetry_equiv_pos_as_xyz
1 x,y,z
2 1/2-x,1/2+y,1/2-z
3 -x,-y,-z
4 1/2+x,1/2-y,1/2+z
_cell_length_a                   5.3975(10)
_cell_length_b                   10.0099(19)
_cell_length_c                   18.311(3)
_cell_angle_alpha                90
_cell_angle_beta                 91.010(3)
_cell_angle_gamma                90
_cell_volume                     989.161
_exptl_crystal_colour            colorless
_exptl_crystal_description       strip
_cell_formula_units_Z            4
loop_
_atom_site_label
_atom_site_type_symbol
_atom_site_fract_x
_atom_site_fract_y
_atom_site_fract_z
S1 S 0.66005(10) 0.44273(5) 0.08502(3)
O1 O 1.2294(3) 0.31388(12) 0.35509(7)
H1 H 1.3233 0.3747 0.3671
N1 N 0.8498(2) 0.20284(13) 0.04543(7)
N2 N 0.6462(2) 0.12317(15) 0.04545(8)
N3 N 0.9755(3) 0.01570(15) 0.09366(8)
C1 C 0.7326(3) 0.01291(19) 0.07461(9)
H2 H 0.6339 -0.0620 0.0817
C2 C 1.0418(3) 0.13729(18) 0.07465(9)
H3 H 1.2004 0.1724 0.0808
C3 C 0.8344(3) 0.34022(18) 0.02238(10)
H4 H 0.7561 0.3442 -0.0257
H5 H 1.0006 0.3762 0.0185
C4 C 0.8297(3) 0.40921(17) 0.16692(9)
C5 C 0.7646(3) 0.30194(19) 0.21040(10)
H6 H 0.6281 0.2499 0.1974
C6 C 0.9001(4) 0.27158(18) 0.27266(10)
H7 H 0.8549 0.1990 0.3012
C7 C 1.1036(3) 0.34846(16) 0.29307(9)
C8 C 1.1682(3) 0.45690(18) 0.25025(10)
H8 H 1.3035 0.5096 0.2636
C9 C 1.0315(4) 0.48657(18) 0.18780(10)
H9 H 1.0757 0.5595 0.1594
loop_
_geom_bond_atom_site_label_1
_geom_bond_atom_site_label_2
_geom_bond_site_symmetry_1
_geom_bond_site_symmetry_2
S1 C3 1_555 1_555
O1 H1 1_555 1_555
N1 N2 1_555 1_555
N2 C1 1_555 1_555
N3 C1 1_555 1_555
C1 H2 1_555 1_555
C2 N1 1_555 1_555
H3 C2 1_555 1_555
C3 N1 1_555 1_555
H4 C3 1_555 1_555
H5 C3 1_555 1_555
C4 S1 1_555 1_555
C5 C4 1_555 1_555
H6 C5 1_555 1_555
C6 C5 1_555 1_555
H7 C6 1_555 1_555
C7 O1 1_555 1_555
C8 C7 1_555 1_555
H8 C8 1_555 1_555
C9 C4 1_555 1_555
H9 C9 1_555 1_555
N3 C2 1_555 1_555
C6 C7 1_555 1_555
C8 C9 1_555 1_555

#END
