
#######################################################################
#
#                 Cambridge Crystallographic Data Centre
#                                CCDC 
#
#######################################################################
#
# If this CIF has been generated from an entry in the Cambridge 
# Structural Database, then it will include bibliographic, chemical, 
# crystal, experimental, refinement or atomic coordinate data resulting 
# from the CCDC's data processing and validation procedures.
#
#######################################################################

data_CORZEQ
_chemical_name_common            
1-[4-(2-chloro-alpha,alpha,alpha-trifluoro-p-tolyloxy)-2-fluorophenyl]-3-(2,6-difluorobenzoyl)urea
_chemical_formula_moiety         'C21 H11 Cl1 F6 N2 O3'
_chemical_name_systematic        
N-((4-(2-chloro-4-(trifluoromethyl)phenoxy)-2-fluorophenyl)carbamoyl)-2,6-difluorobenzamide
_symmetry_cell_setting           triclinic
_symmetry_space_group_name_H-M   'P -1'
_symmetry_Int_Tables_number      2
_space_group_name_Hall           '-P 1'
loop_
_symmetry_equiv_pos_site_id
_symmetry_equiv_pos_as_xyz
1 x,y,z
2 -x,-y,-z
_cell_length_a                   10.017(2)
_cell_length_b                   10.640(2)
_cell_length_c                   10.677(2)
_cell_angle_alpha                62.520(9)
_cell_angle_beta                 75.874(8)
_cell_angle_gamma                81.831(8)
_cell_volume                     978.467
_exptl_crystal_colour            colorless
_exptl_crystal_description       Block
_cell_formula_units_Z            2
loop_
_atom_site_label
_atom_site_type_symbol
_atom_site_fract_x
_atom_site_fract_y
_atom_site_fract_z
Cl1 Cl 1.05546(6) -0.22505(6) 1.07307(7)
F1 F 0.72246(14) 0.77531(13) 0.68591(13)
F2 F 0.69987(15) 0.81354(13) 0.23893(12)
F3 F 0.60803(12) 0.16340(12) 0.85938(13)
F4 F 1.49311(11) -0.44174(14) 0.79601(15)
F5 F 1.39871(13) -0.60799(15) 0.79606(16)
F6 F 1.41608(12) -0.61650(13) 0.99444(13)
N1 N 0.66935(13) 0.55105(12) 0.51095(14)
H1 H 0.5984 0.5943 0.4709
N2 N 0.78988(14) 0.33879(13) 0.61862(17)
H2 H 0.8522 0.3912 0.6156
O1 O 0.86135(14) 0.59246(13) 0.56208(18)
O2 O 0.59312(11) 0.34257(11) 0.55010(13)
O3 O 0.87566(11) -0.24450(11) 0.90357(13)
C1 C 0.70453(17) 0.85551(18) 0.5500(2)
C2 C 0.67730(18) 0.99811(19) 0.5047(2)
H3 H 0.6733 1.0404 0.5669
C3 C 0.6561(2) 1.07764(19) 0.3669(3)
H4 H 0.6367 1.1766 0.3335
C4 C 0.6621(2) 1.0175(2) 0.2763(2)
H5 H 0.6475 1.0735 0.1809
C5 C 0.68988(18) 0.87424(18) 0.32706(19)
C6 C 0.71198(15) 0.78873(15) 0.46415(18)
C7 C 0.75540(16) 0.63483(16) 0.51697(18)
C8 C 0.68046(15) 0.40302(15) 0.56139(16)
C9 C 0.81003(16) 0.18930(15) 0.68433(18)
C10 C 0.92643(16) 0.12655(16) 0.63537(19)
H6 H 0.9899 0.1833 0.5515
C11 C 0.95320(16) -0.01844(17) 0.70618(19)
H7 H 1.0345 -0.0608 0.6719
C12 C 0.86001(16) -0.09984(15) 0.82683(17)
C13 C 0.74046(17) -0.04027(17) 0.87751(17)
H8 H 0.6752 -0.0971 0.9593
C14 C 0.71953(17) 0.10336(17) 0.80564(18)
C15 C 1.00506(16) -0.30610(15) 0.88616(16)
C16 C 1.03725(17) -0.37490(16) 0.79989(17)
H9 H 0.9738 -0.3717 0.7452
C17 C 1.16171(17) -0.44842(17) 0.79308(17)
H10 H 1.1843 -0.4958 0.7335
C18 C 1.25330(16) -0.45299(16) 0.87284(17)
C19 C 1.22220(17) -0.38360(17) 0.95874(18)
H11 H 1.2857 -0.3865 1.0132
C20 C 1.09787(17) -0.31014(16) 0.96449(18)
C21 C 1.38909(18) -0.53102(19) 0.8653(2)
loop_
_geom_bond_atom_site_label_1
_geom_bond_atom_site_label_2
_geom_bond_site_symmetry_1
_geom_bond_site_symmetry_2
Cl1 C20 1_555 1_555
F1 C1 1_555 1_555
F2 C5 1_555 1_555
F3 C14 1_555 1_555
F4 C21 1_555 1_555
F5 C21 1_555 1_555
F6 C21 1_555 1_555
N1 H1 1_555 1_555
N2 H2 1_555 1_555
O1 C7 1_555 1_555
O2 C8 1_555 1_555
O3 C12 1_555 1_555
C1 C2 1_555 1_555
C2 H3 1_555 1_555
C3 C2 1_555 1_555
H4 C3 1_555 1_555
C4 C3 1_555 1_555
H5 C4 1_555 1_555
C5 C4 1_555 1_555
C6 C1 1_555 1_555
C7 N1 1_555 1_555
C8 N1 1_555 1_555
C9 N2 1_555 1_555
C10 C9 1_555 1_555
H6 C10 1_555 1_555
C11 C10 1_555 1_555
H7 C11 1_555 1_555
C12 C11 1_555 1_555
C13 C12 1_555 1_555
H8 C13 1_555 1_555
C14 C9 1_555 1_555
C15 O3 1_555 1_555
C16 C15 1_555 1_555
H9 C16 1_555 1_555
C17 C16 1_555 1_555
H10 C17 1_555 1_555
C18 C17 1_555 1_555
C19 C18 1_555 1_555
H11 C19 1_555 1_555
C20 C15 1_555 1_555
C21 C18 1_555 1_555
N2 C8 1_555 1_555
C5 C6 1_555 1_555
C6 C7 1_555 1_555
C13 C14 1_555 1_555
C19 C20 1_555 1_555

#END
