
#######################################################################
#
#                 Cambridge Crystallographic Data Centre
#                                CCDC 
#
#######################################################################
#
# If this CIF has been generated from an entry in the Cambridge 
# Structural Database, then it will include bibliographic, chemical, 
# crystal, experimental, refinement or atomic coordinate data resulting 
# from the CCDC's data processing and validation procedures.
#
#######################################################################

data_COSDEU
_chemical_name_common            'Ethyl ent-16beta-hydroxybeyeran-19-oate'
_chemical_formula_moiety         'C22 H36 O3'
_chemical_name_systematic        'Ethyl ent-16\b-hydroxybeyeran-18-oate'
_chemical_properties_biological  'alpha-glucosidase inhibitor'
_symmetry_cell_setting           orthorhombic
_symmetry_space_group_name_H-M   'P 21 21 21'
_symmetry_Int_Tables_number      19
_space_group_name_Hall           'P 2ac 2ab'
loop_
_symmetry_equiv_pos_site_id
_symmetry_equiv_pos_as_xyz
1 x,y,z
2 1/2-x,-y,1/2+z
3 -x,1/2+y,1/2-z
4 1/2+x,1/2-y,-z
_cell_length_a                   7.5578(4)
_cell_length_b                   15.1297(8)
_cell_length_c                   17.2037(10)
_cell_angle_alpha                90
_cell_angle_beta                 90
_cell_angle_gamma                90
_cell_volume                     1967.2
_exptl_crystal_colour            colorless
_exptl_crystal_description       block
_chemical_melting_point          '152-153 deg.C'
_cell_formula_units_Z            4
loop_
_atom_site_label
_atom_site_type_symbol
_atom_site_fract_x
_atom_site_fract_y
_atom_site_fract_z
O1 O 0.9502(3) 0.39047(12) 0.93320(11)
O2 O 0.7076(3) 0.32221(12) 0.97654(14)
O3 O 0.8366(4) 0.76805(16) 0.66439(12)
H1 H 0.8753 0.8032 0.6323
C1 C 0.7351(4) 0.47329(15) 1.00820(14)
C2 C 0.5355(4) 0.46478(17) 1.02376(16)
H2 H 0.5122 0.4074 1.0468
H3 H 0.5005 0.5095 1.0611
C3 C 0.4238(4) 0.47478(17) 0.95136(18)
H4 H 0.2996 0.4703 0.9649
H5 H 0.4514 0.4276 0.9152
C4 C 0.4588(3) 0.56380(16) 0.91289(16)
H6 H 0.4181 0.6103 0.9474
H7 H 0.3896 0.5673 0.8655
C5 C 0.6538(3) 0.58096(14) 0.89282(13)
C6 C 0.7696(3) 0.56272(14) 0.96593(13)
H8 H 0.7299 0.6072 1.0035
C7 C 0.9629(3) 0.58645(16) 0.95159(15)
H9 H 1.0333 0.5708 0.9967
H10 H 1.0074 0.5536 0.9073
C8 C 0.9785(3) 0.68518(16) 0.93604(15)
H11 H 1.1014 0.6991 0.9256
H12 H 0.9440 0.7169 0.9826
C9 C 0.8655(3) 0.71830(15) 0.86790(13)
C10 C 0.6743(3) 0.68168(14) 0.87364(13)
H13 H 0.6210 0.7127 0.9178
C11 C 0.5685(4) 0.71213(16) 0.80249(15)
H14 H 0.4442 0.6994 0.8109
H15 H 0.6069 0.6788 0.7574
C12 C 0.5907(4) 0.81159(18) 0.78581(17)
H16 H 0.5449 0.8241 0.7343
H17 H 0.5203 0.8447 0.8229
C13 C 0.7823(4) 0.84371(16) 0.79034(15)
C14 C 0.8540(4) 0.81968(16) 0.87041(14)
H18 H 0.7743 0.8392 0.9111
H19 H 0.9696 0.8458 0.8789
C15 C 0.9072(4) 0.78856(18) 0.73949(15)
H20 H 1.0176 0.8216 0.7325
C16 C 0.9475(4) 0.70449(17) 0.78612(15)
H21 H 1.0742 0.6955 0.7901
H22 H 0.8955 0.6533 0.7610
C17 C 0.8311(5) 0.4725(2) 1.08823(15)
H23 H 0.9565 0.4766 1.0802
H24 H 0.8040 0.4186 1.1151
H25 H 0.7919 0.5220 1.1187
C18 C 0.7042(3) 0.51983(16) 0.82455(14)
H26 H 0.6423 0.5382 0.7786
H27 H 0.6723 0.4601 0.8370
H28 H 0.8294 0.5232 0.8156
C19 C 0.7929(5) 0.94254(19) 0.77142(19)
H29 H 0.9112 0.9632 0.7803
H30 H 0.7123 0.9745 0.8041
H31 H 0.7618 0.9518 0.7179
C20 C 0.8097(4) 0.39289(16) 0.96670(15)
C21 C 0.7713(5) 0.23696(19) 0.9505(2)
H32 H 0.8976 0.2401 0.9408
H33 H 0.7510 0.1931 0.9906
C22 C 0.6813(6) 0.2115(3) 0.8809(2)
H34 H 0.7121 0.2515 0.8397
H35 H 0.5559 0.2134 0.8894
H36 H 0.7157 0.1526 0.8667
loop_
_geom_bond_atom_site_label_1
_geom_bond_atom_site_label_2
_geom_bond_site_symmetry_1
_geom_bond_site_symmetry_2
O1 C20 1_555 1_555
O2 C20 1_555 1_555
O3 H1 1_555 1_555
C1 C2 1_555 1_555
C2 H2 1_555 1_555
H3 C2 1_555 1_555
C3 C2 1_555 1_555
H4 C3 1_555 1_555
H5 C3 1_555 1_555
C4 C3 1_555 1_555
H6 C4 1_555 1_555
H7 C4 1_555 1_555
C5 C4 1_555 1_555
C6 C1 1_555 1_555
H8 C6 1_555 1_555
C7 C6 1_555 1_555
H9 C7 1_555 1_555
H10 C7 1_555 1_555
C8 C7 1_555 1_555
H11 C8 1_555 1_555
H12 C8 1_555 1_555
C9 C8 1_555 1_555
C10 C5 1_555 1_555
H13 C10 1_555 1_555
C11 C10 1_555 1_555
H14 C11 1_555 1_555
H15 C11 1_555 1_555
C12 C11 1_555 1_555
H16 C12 1_555 1_555
H17 C12 1_555 1_555
C13 C12 1_555 1_555
C14 C9 1_555 1_555
H18 C14 1_555 1_555
H19 C14 1_555 1_555
C15 O3 1_555 1_555
H20 C15 1_555 1_555
C16 C9 1_555 1_555
H21 C16 1_555 1_555
H22 C16 1_555 1_555
C17 C1 1_555 1_555
H23 C17 1_555 1_555
H24 C17 1_555 1_555
H25 C17 1_555 1_555
C18 C5 1_555 1_555
H26 C18 1_555 1_555
H27 C18 1_555 1_555
H28 C18 1_555 1_555
C19 C13 1_555 1_555
H29 C19 1_555 1_555
H30 C19 1_555 1_555
H31 C19 1_555 1_555
C20 C1 1_555 1_555
C21 O2 1_555 1_555
H32 C21 1_555 1_555
H33 C21 1_555 1_555
C22 C21 1_555 1_555
H34 C22 1_555 1_555
H35 C22 1_555 1_555
H36 C22 1_555 1_555
C5 C6 1_555 1_555
C9 C10 1_555 1_555
C13 C14 1_555 1_555
C13 C15 1_555 1_555
C15 C16 1_555 1_555

#END
