
#######################################################################
#
#                 Cambridge Crystallographic Data Centre
#                                CCDC 
#
#######################################################################
#
# If this CIF has been generated from an entry in the Cambridge 
# Structural Database, then it will include bibliographic, chemical, 
# crystal, experimental, refinement or atomic coordinate data resulting 
# from the CCDC's data processing and validation procedures.
#
#######################################################################

data_COSDAR
_chemical_formula_moiety         'C60 H52 O4 Si4'
_chemical_name_systematic        
7,7,15,15-Tetramethyl-1,2,3,4,10,11,12,13-octaphenyl-6,8,14,16-tetraoxa-5,7,9,15-tetrasiladispiro[4.3.4.3]hexadeca-1,3,10,12-tetraene
_symmetry_cell_setting           triclinic
_symmetry_space_group_name_H-M   'P -1'
_symmetry_Int_Tables_number      2
_space_group_name_Hall           '-P 1'
loop_
_symmetry_equiv_pos_site_id
_symmetry_equiv_pos_as_xyz
1 x,y,z
2 -x,-y,-z
_cell_length_a                   12.373(7)
_cell_length_b                   12.616(6)
_cell_length_c                   18.679(7)
_cell_angle_alpha                75.714(15)
_cell_angle_beta                 73.48(2)
_cell_angle_gamma                66.738(15)
_cell_volume                     2538.05
_exptl_crystal_colour            yellow
_exptl_crystal_description       plate
_cell_formula_units_Z            2
loop_
_atom_site_label
_atom_site_type_symbol
_atom_site_fract_x
_atom_site_fract_y
_atom_site_fract_z
Si1 Si 0.31406(6) 1.00853(6) 0.56411(4)
Si2 Si 0.47510(6) 0.94640(6) 0.40571(4)
O1 O 0.37244(14) 1.00910(14) 0.47450(9)
O2 O 0.59200(14) 0.98422(14) 0.39413(9)
C1 C 0.1629(2) 1.1233(2) 0.58404(14)
C2 C 0.0829(2) 1.0676(2) 0.61520(14)
C3 C 0.1350(2) 0.9356(2) 0.62392(14)
C4 C 0.2563(2) 0.8866(2) 0.60510(14)
C5 C 0.1385(2) 1.2495(2) 0.57803(14)
C6 C 0.1916(2) 1.3087(2) 0.51353(15)
H1 H 0.2418 1.2681 0.4727
C7 C 0.1724(2) 1.4262(2) 0.50790(16)
H2 H 0.2079 1.4658 0.4630
C8 C 0.1018(2) 1.4856(2) 0.56734(17)
H3 H 0.0883 1.5662 0.5634
C9 C 0.0509(2) 1.4278(2) 0.63261(17)
H4 H 0.0035 1.4684 0.6740
C10 C 0.0684(2) 1.3108(2) 0.63810(15)
H5 H 0.0324 1.2719 0.6831
C11 C -0.0497(2) 1.1267(2) 0.63977(14)
C12 C -0.1129(2) 1.2161(2) 0.59056(15)
H6 H -0.0714 1.2403 0.5420
C13 C -0.2369(2) 1.2705(2) 0.61211(15)
H7 H -0.2794 1.3318 0.5782
C14 C -0.2983(2) 1.2359(2) 0.68234(15)
H8 H -0.3829 1.2728 0.6968
C15 C -0.2356(2) 1.1472(2) 0.73162(15)
H9 H -0.2775 1.1235 0.7802
C16 C -0.1125(2) 1.0926(2) 0.71077(14)
H10 H -0.0705 1.0315 0.7450
C17 C 0.0508(6) 0.8697(5) 0.6461(4)
C18 C -0.0298(5) 0.8926(4) 0.6007(4)
H11 H -0.0389 0.9569 0.5608
C19 C -0.0971(4) 0.8212(4) 0.6135(3)
H12 H -0.1522 0.8368 0.5824
C20 C -0.0838(4) 0.7271(4) 0.6717(3)
H13 H -0.1297 0.6783 0.6805
C21 C -0.0032(4) 0.7042(4) 0.7172(3)
H14 H 0.0059 0.6399 0.7570
C22 C 0.0641(5) 0.7756(5) 0.7044(4)
H15 H 0.1192 0.7600 0.7354
C23 C 0.3258(2) 0.7608(2) 0.60428(14)
C24 C 0.2907(2) 0.6908(2) 0.57440(14)
H16 H 0.2186 0.7239 0.5557
C25 C 0.3592(2) 0.5747(2) 0.57182(14)
H17 H 0.3340 0.5284 0.5515
C26 C 0.4642(2) 0.5250(2) 0.59860(15)
H18 H 0.5112 0.4449 0.5968
C27 C 0.5004(2) 0.5925(2) 0.62800(15)
H19 H 0.5726 0.5585 0.6466
C28 C 0.4325(2) 0.7096(2) 0.63065(15)
H20 H 0.4589 0.7553 0.6506
C29 C 0.4164(2) 1.0057(2) 0.31855(15)
H21 H 0.3390 0.9958 0.3266
H22 H 0.4736 0.9640 0.2775
H23 H 0.4055 1.0889 0.3050
C30 C 0.5198(2) 0.7864(2) 0.42680(15)
H24 H 0.5506 0.7582 0.4735
H25 H 0.5828 0.7517 0.3851
H26 H 0.4499 0.7640 0.4331
Si1A Si 0.68594(6) 0.99147(6) 0.43589(4)
Si2A Si 0.52490(6) 1.05360(6) 0.59429(4)
O1A O 0.62756(14) 0.99090(14) 0.52550(9)
O2A O 0.40800(14) 1.01578(14) 0.60587(9)
C1A C 0.8371(2) 0.8767(2) 0.41596(14)
C2A C 0.9171(2) 0.9324(2) 0.38480(14)
C3A C 0.8650(2) 1.0644(2) 0.37608(14)
C4A C 0.7437(2) 1.1134(2) 0.39490(14)
C5A C 0.8615(2) 0.7505(2) 0.42197(14)
C6A C 0.8084(2) 0.6913(2) 0.48647(15)
H1A H 0.7582 0.7319 0.5273
C7A C 0.8276(2) 0.5738(2) 0.49210(16)
H2A H 0.7921 0.5342 0.5370
C8A C 0.8982(2) 0.5144(2) 0.43266(17)
H3A H 0.9117 0.4338 0.4366
C9A C 0.9491(2) 0.5722(2) 0.36739(17)
H4A H 0.9965 0.5316 0.3260
C10A C 0.9316(2) 0.6892(2) 0.36190(15)
H5A H 0.9676 0.7281 0.3169
C11A C 1.0497(2) 0.8733(2) 0.36023(14)
C12A C 1.1129(2) 0.7839(2) 0.40944(15)
H6A H 1.0714 0.7597 0.4580
C13A C 1.2369(2) 0.7295(2) 0.38789(15)
H7A H 1.2794 0.6682 0.4218
C14A C 1.2983(2) 0.7641(2) 0.31766(15)
H8A H 1.3829 0.7272 0.3032
C15A C 1.2356(2) 0.8528(2) 0.26838(15)
H9A H 1.2775 0.8765 0.2198
C16A C 1.1125(2) 0.9074(2) 0.28923(14)
H10A H 1.0705 0.9685 0.2550
C17A C 0.9492(6) 1.1303(5) 0.3539(4)
C18A C 1.0298(5) 1.1074(4) 0.3993(4)
H11A H 1.0389 1.0431 0.4392
C19A C 1.0971(4) 1.1788(4) 0.3865(3)
H12A H 1.1522 1.1632 0.4176
C20A C 1.0838(4) 1.2729(4) 0.3283(3)
H13A H 1.1297 1.3217 0.3195
C21A C 1.0032(4) 1.2958(4) 0.2828(3)
H14A H 0.9941 1.3601 0.2430
C22A C 0.9359(5) 1.2244(5) 0.2956(4)
H15A H 0.8808 1.2400 0.2646
C23A C 0.6742(2) 1.2392(2) 0.39572(14)
C24A C 0.7093(2) 1.3092(2) 0.42560(14)
H16A H 0.7814 1.2761 0.4443
C25A C 0.6408(2) 1.4253(2) 0.42818(14)
H17A H 0.6660 1.4716 0.4485
C26A C 0.5358(2) 1.4750(2) 0.40140(15)
H18A H 0.4888 1.5551 0.4032
C27A C 0.4996(2) 1.4075(2) 0.37200(15)
H19A H 0.4274 1.4415 0.3534
C28A C 0.5675(2) 1.2904(2) 0.36935(15)
H20A H 0.5411 1.2447 0.3494
C29A C 0.5836(2) 0.9943(2) 0.68145(15)
H21A H 0.6610 1.0042 0.6734
H22A H 0.5264 1.0360 0.7225
H23A H 0.5945 0.9111 0.6950
C30A C 0.4802(2) 1.2136(2) 0.57320(15)
H24A H 0.4494 1.2418 0.5265
H25A H 0.4172 1.2483 0.6149
H26A H 0.5501 1.2360 0.5669
Si3 Si 0.56485(6) 0.15186(6) 0.96889(4)
Si4 Si 0.67476(6) -0.10962(6) 0.94066(4)
O3 O 0.62587(16) 0.03194(15) 0.93310(10)
O4 O 0.55791(15) -0.15131(15) 0.97076(10)
C37 C 0.5427(2) 0.2835(2) 0.89446(14)
C38 C 0.6182(2) 0.3350(2) 0.89865(15)
C39 C 0.6948(2) 0.2754(2) 0.95715(15)
C40 C 0.6750(2) 0.1814(2) 1.00479(15)
C41 C 0.4547(2) 0.3241(2) 0.84593(14)
C42 C 0.4199(2) 0.2423(2) 0.82802(15)
H32 H 0.4557 0.1619 0.8463
C43 C 0.3351(3) 0.2752(3) 0.78457(16)
H33 H 0.3139 0.2176 0.7730
C44 C 0.2814(3) 0.3910(3) 0.75803(16)
H34 H 0.2225 0.4141 0.7284
C45 C 0.3138(2) 0.4738(3) 0.77483(17)
H35 H 0.2773 0.5540 0.7563
C46 C 0.3986(2) 0.4410(2) 0.81812(16)
H36 H 0.4192 0.4992 0.8292
C47 C 0.6313(2) 0.4450(2) 0.85182(15)
C48 C 0.5820(3) 0.5473(3) 0.88358(19)
H37 H 0.5383 0.5468 0.9344
C49 C 0.5960(3) 0.6489(3) 0.8420(2)
H38 H 0.5618 0.7184 0.8640
C50 C 0.6600(3) 0.6499(3) 0.7682(2)
H39 H 0.6680 0.7207 0.7390
C51 C 0.7124(3) 0.5484(3) 0.73644(17)
H40 H 0.7585 0.5487 0.6862
C52 C 0.6971(2) 0.4463(2) 0.77850(16)
H41 H 0.7322 0.3766 0.7567
C53 C 0.7847(5) 0.3275(6) 0.9567(4)
C54 C 0.8835(6) 0.3191(6) 0.8969(4)
H42 H 0.8992 0.2721 0.8599
C55 C 0.9591(4) 0.3793(5) 0.8913(3)
H43 H 1.0266 0.3735 0.8504
C56 C 0.9361(4) 0.4480(5) 0.9455(3)
H44 H 0.9878 0.4892 0.9417
C57 C 0.8374(4) 0.4565(5) 1.0053(3)
H45 H 0.8216 0.5035 1.0424
C58 C 0.7617(4) 0.3963(5) 1.0110(3)
H46 H 0.6942 0.4021 1.0519
C59 C 0.7387(2) 0.1118(2) 1.06603(15)
C60 C 0.6749(3) 0.0707(2) 1.13491(16)
H47 H 0.5918 0.0853 1.1404
C61 C 0.7295(3) 0.0099(3) 1.19472(17)
H48 H 0.6833 -0.0142 1.2414
C62 C 0.8508(3) -0.0161(3) 1.18712(17)
H49 H 0.8889 -0.0590 1.2282
C63 C 0.9167(3) 0.0206(3) 1.11926(18)
H50 H 1.0007 0.0019 1.1134
C64 C 0.8611(3) 0.0846(3) 1.05954(17)
H51 H 0.9074 0.1102 1.0135
C65 C 0.7469(3) -0.1493(3) 0.84627(16)
H52 H 0.6892 -0.1112 0.8130
H53 H 0.7735 -0.2342 0.8493
H54 H 0.8164 -0.1239 0.8260
C66 C 0.7786(3) -0.1743(3) 1.00611(19)
H55 H 0.8532 -0.1579 0.9827
H56 H 0.7970 -0.2589 1.0175
H57 H 0.7410 -0.1405 1.0530
Si3A Si 0.43515(6) -0.15186(6) 1.03111(4)
Si4A Si 0.32524(6) 0.10962(6) 1.05934(4)
O3A O 0.37413(16) -0.03194(15) 1.06690(10)
O4A O 0.44209(15) 0.15131(15) 1.02924(10)
C37A C 0.4573(2) -0.2835(2) 1.10554(14)
C38A C 0.3818(2) -0.3350(2) 1.10135(15)
C39A C 0.3052(2) -0.2754(2) 1.04285(15)
C40A C 0.3250(2) -0.1814(2) 0.99521(15)
C41A C 0.5453(2) -0.3241(2) 1.15407(14)
C42A C 0.5801(2) -0.2423(2) 1.17198(15)
H32A H 0.5443 -0.1619 1.1537
C43A C 0.6649(3) -0.2752(3) 1.21543(16)
H33A H 0.6861 -0.2176 1.2270
C44A C 0.7186(3) -0.3910(3) 1.24197(16)
H34A H 0.7775 -0.4141 1.2716
C45A C 0.6862(2) -0.4738(3) 1.22517(17)
H35A H 0.7227 -0.5540 1.2437
C46A C 0.6014(2) -0.4410(2) 1.18188(16)
H36A H 0.5808 -0.4992 1.1708
C47A C 0.3687(2) -0.4450(2) 1.14818(15)
C48A C 0.4180(3) -0.5473(3) 1.11642(19)
H37A H 0.4617 -0.5468 1.0656
C49A C 0.4040(3) -0.6489(3) 1.1580(2)
H38A H 0.4382 -0.7184 1.1360
C50A C 0.3400(3) -0.6499(3) 1.2318(2)
H39A H 0.3320 -0.7207 1.2610
C51A C 0.2876(3) -0.5484(3) 1.26356(17)
H40A H 0.2415 -0.5487 1.3138
C52A C 0.3029(2) -0.4463(2) 1.22150(16)
H41A H 0.2678 -0.3766 1.2433
C53A C 0.2153(5) -0.3275(6) 1.0433(4)
C54A C 0.1165(6) -0.3191(6) 1.1031(4)
H42A H 0.1008 -0.2721 1.1401
C55A C 0.0409(4) -0.3793(5) 1.1087(3)
H43A H -0.0266 -0.3735 1.1496
C56A C 0.0639(4) -0.4480(5) 1.0545(3)
H44A H 0.0122 -0.4892 1.0583
C57A C 0.1626(4) -0.4565(5) 0.9947(3)
H45A H 0.1784 -0.5035 0.9576
C58A C 0.2383(4) -0.3963(5) 0.9890(3)
H46A H 0.3058 -0.4021 0.9481
C59A C 0.2613(2) -0.1118(2) 0.93397(15)
C60A C 0.3251(3) -0.0707(2) 0.86509(16)
H47A H 0.4082 -0.0853 0.8596
C61A C 0.2705(3) -0.0099(3) 0.80528(17)
H48A H 0.3167 0.0142 0.7586
C62A C 0.1492(3) 0.0161(3) 0.81288(17)
H49A H 0.1111 0.0590 0.7718
C63A C 0.0833(3) -0.0206(3) 0.88074(18)
H50A H -0.0007 -0.0019 0.8866
C64A C 0.1389(3) -0.0846(3) 0.94046(17)
H51A H 0.0926 -0.1102 0.9865
C65A C 0.2531(3) 0.1493(3) 1.15373(16)
H52A H 0.3108 0.1112 1.1870
H53A H 0.2265 0.2342 1.1507
H54A H 0.1836 0.1239 1.1740
C66A C 0.2214(3) 0.1743(3) 0.99389(19)
H55A H 0.1468 0.1579 1.0173
H56A H 0.2030 0.2589 0.9825
H57A H 0.2590 0.1405 0.9470
C31? C 0.0576(7) 0.8614(6) 0.6543(5)
C32? C -0.0268(6) 0.8651(5) 0.6171(4)
H27? H -0.0433 0.9218 0.5737
C33? C -0.0870(4) 0.7859(5) 0.6434(3)
H28? H -0.1447 0.7884 0.6180
C34? C -0.0629(4) 0.7030(4) 0.7069(4)
H29? H -0.1040 0.6489 0.7249
C35? C 0.0215(5) 0.6993(5) 0.7441(3)
H30? H 0.0380 0.6427 0.7875
C36? C 0.0817(6) 0.7785(6) 0.7178(4)
H31? H 0.1394 0.7760 0.7432
C67? C 0.7838(14) 0.3250(16) 0.9607(11)
C68? C 0.8812(16) 0.3199(17) 0.9003(10)
H58? H 0.8871 0.2898 0.8569
C69? C 0.9701(11) 0.3589(13) 0.9033(7)
H59? H 1.0367 0.3555 0.8620
C70? C 0.9615(9) 0.4031(13) 0.9667(8)
H60? H 1.0223 0.4297 0.9688
C71? C 0.8641(10) 0.4082(14) 1.0271(7)
H61? H 0.8582 0.4383 1.0705
C72? C 0.7752(9) 0.3692(13) 1.0241(9)
H62? H 0.7085 0.3726 1.0654
loop_
_geom_bond_atom_site_label_1
_geom_bond_atom_site_label_2
_geom_bond_site_symmetry_1
_geom_bond_site_symmetry_2
Si1 O1 1_555 1_555
Si2 O1 1_555 1_555
O2 Si2 1_555 1_555
C1 Si1 1_555 1_555
C2 C1 1_555 1_555
C3 C2 1_555 1_555
C4 Si1 1_555 1_555
C5 C1 1_555 1_555
C6 C5 1_555 1_555
H1 C6 1_555 1_555
C7 C6 1_555 1_555
H2 C7 1_555 1_555
C8 C7 1_555 1_555
H3 C8 1_555 1_555
C9 C8 1_555 1_555
H4 C9 1_555 1_555
C10 C5 1_555 1_555
H5 C10 1_555 1_555
C11 C2 1_555 1_555
C12 C11 1_555 1_555
H6 C12 1_555 1_555
C13 C12 1_555 1_555
H7 C13 1_555 1_555
C14 C13 1_555 1_555
H8 C14 1_555 1_555
C15 C14 1_555 1_555
H9 C15 1_555 1_555
C16 C11 1_555 1_555
H10 C16 1_555 1_555
C17 C3 1_555 1_555
C18 C17 1_555 1_555
H11 C18 1_555 1_555
C19 C18 1_555 1_555
H12 C19 1_555 1_555
C20 C19 1_555 1_555
H13 C20 1_555 1_555
C21 C20 1_555 1_555
H14 C21 1_555 1_555
C22 C17 1_555 1_555
H15 C22 1_555 1_555
C23 C4 1_555 1_555
C24 C23 1_555 1_555
H16 C24 1_555 1_555
C25 C24 1_555 1_555
H17 C25 1_555 1_555
C26 C25 1_555 1_555
H18 C26 1_555 1_555
C27 C26 1_555 1_555
H19 C27 1_555 1_555
C28 C23 1_555 1_555
H20 C28 1_555 1_555
C29 Si2 1_555 1_555
H21 C29 1_555 1_555
H22 C29 1_555 1_555
H23 C29 1_555 1_555
C30 Si2 1_555 1_555
H24 C30 1_555 1_555
H25 C30 1_555 1_555
H26 C30 1_555 1_555
Si3 O3 1_555 1_555
Si4 O3 1_555 1_555
O4 Si4 1_555 1_555
C37 Si3 1_555 1_555
C38 C37 1_555 1_555
C39 C38 1_555 1_555
C40 Si3 1_555 1_555
C41 C37 1_555 1_555
C42 C41 1_555 1_555
H32 C42 1_555 1_555
C43 C42 1_555 1_555
H33 C43 1_555 1_555
C44 C43 1_555 1_555
H34 C44 1_555 1_555
C45 C44 1_555 1_555
H35 C45 1_555 1_555
C46 C41 1_555 1_555
H36 C46 1_555 1_555
C47 C38 1_555 1_555
C48 C47 1_555 1_555
H37 C48 1_555 1_555
C49 C48 1_555 1_555
H38 C49 1_555 1_555
C50 C49 1_555 1_555
H39 C50 1_555 1_555
C51 C50 1_555 1_555
H40 C51 1_555 1_555
C52 C47 1_555 1_555
H41 C52 1_555 1_555
C53 C39 1_555 1_555
C54 C53 1_555 1_555
H42 C54 1_555 1_555
C55 C54 1_555 1_555
H43 C55 1_555 1_555
C56 C55 1_555 1_555
H44 C56 1_555 1_555
C57 C56 1_555 1_555
H45 C57 1_555 1_555
C58 C53 1_555 1_555
H46 C58 1_555 1_555
C59 C40 1_555 1_555
C60 C59 1_555 1_555
H47 C60 1_555 1_555
C61 C60 1_555 1_555
H48 C61 1_555 1_555
C62 C61 1_555 1_555
H49 C62 1_555 1_555
C63 C62 1_555 1_555
H50 C63 1_555 1_555
C64 C59 1_555 1_555
H51 C64 1_555 1_555
C65 Si4 1_555 1_555
H52 C65 1_555 1_555
H53 C65 1_555 1_555
H54 C65 1_555 1_555
C66 Si4 1_555 1_555
H55 C66 1_555 1_555
H56 C66 1_555 1_555
H57 C66 1_555 1_555
Si1A O2 1_555 1_555
Si2A O1A 1_555 1_555
O1A Si1A 1_555 1_555
O2A Si1 1_555 1_555
C1A Si1A 1_555 1_555
C2A C1A 1_555 1_555
C3A C2A 1_555 1_555
C4A Si1A 1_555 1_555
C5A C1A 1_555 1_555
C6A C5A 1_555 1_555
H1A C6A 1_555 1_555
C7A C6A 1_555 1_555
H2A C7A 1_555 1_555
C8A C7A 1_555 1_555
H3A C8A 1_555 1_555
C9A C8A 1_555 1_555
H4A C9A 1_555 1_555
C10A C5A 1_555 1_555
H5A C10A 1_555 1_555
C11A C2A 1_555 1_555
C12A C11A 1_555 1_555
H6A C12A 1_555 1_555
C13A C12A 1_555 1_555
H7A C13A 1_555 1_555
C14A C13A 1_555 1_555
H8A C14A 1_555 1_555
C15A C14A 1_555 1_555
H9A C15A 1_555 1_555
C16A C11A 1_555 1_555
H10A C16A 1_555 1_555
C17A C3A 1_555 1_555
C18A C17A 1_555 1_555
H11A C18A 1_555 1_555
C19A C18A 1_555 1_555
H12A C19A 1_555 1_555
C20A C19A 1_555 1_555
H13A C20A 1_555 1_555
C21A C20A 1_555 1_555
H14A C21A 1_555 1_555
C22A C17A 1_555 1_555
H15A C22A 1_555 1_555
C23A C4A 1_555 1_555
C24A C23A 1_555 1_555
H16A C24A 1_555 1_555
C25A C24A 1_555 1_555
H17A C25A 1_555 1_555
C26A C25A 1_555 1_555
H18A C26A 1_555 1_555
C27A C26A 1_555 1_555
H19A C27A 1_555 1_555
C28A C23A 1_555 1_555
H20A C28A 1_555 1_555
C29A Si2A 1_555 1_555
H21A C29A 1_555 1_555
H22A C29A 1_555 1_555
H23A C29A 1_555 1_555
C30A Si2A 1_555 1_555
H24A C30A 1_555 1_555
H25A C30A 1_555 1_555
H26A C30A 1_555 1_555
Si3A O4 1_555 1_555
Si4A O3A 1_555 1_555
O3A Si3A 1_555 1_555
O4A Si3 1_555 1_555
C37A Si3A 1_555 1_555
C38A C37A 1_555 1_555
C39A C38A 1_555 1_555
C40A Si3A 1_555 1_555
C41A C37A 1_555 1_555
C42A C41A 1_555 1_555
H32A C42A 1_555 1_555
C43A C42A 1_555 1_555
H33A C43A 1_555 1_555
C44A C43A 1_555 1_555
H34A C44A 1_555 1_555
C45A C44A 1_555 1_555
H35A C45A 1_555 1_555
C46A C41A 1_555 1_555
H36A C46A 1_555 1_555
C47A C38A 1_555 1_555
C48A C47A 1_555 1_555
H37A C48A 1_555 1_555
C49A C48A 1_555 1_555
H38A C49A 1_555 1_555
C50A C49A 1_555 1_555
H39A C50A 1_555 1_555
C51A C50A 1_555 1_555
H40A C51A 1_555 1_555
C52A C47A 1_555 1_555
H41A C52A 1_555 1_555
C53A C39A 1_555 1_555
C54A C53A 1_555 1_555
H42A C54A 1_555 1_555
C55A C54A 1_555 1_555
H43A C55A 1_555 1_555
C56A C55A 1_555 1_555
H44A C56A 1_555 1_555
C57A C56A 1_555 1_555
H45A C57A 1_555 1_555
C58A C53A 1_555 1_555
H46A C58A 1_555 1_555
C59A C40A 1_555 1_555
C60A C59A 1_555 1_555
H47A C60A 1_555 1_555
C61A C60A 1_555 1_555
H48A C61A 1_555 1_555
C62A C61A 1_555 1_555
H49A C62A 1_555 1_555
C63A C62A 1_555 1_555
H50A C63A 1_555 1_555
C64A C59A 1_555 1_555
H51A C64A 1_555 1_555
C65A Si4A 1_555 1_555
H52A C65A 1_555 1_555
H53A C65A 1_555 1_555
H54A C65A 1_555 1_555
C66A Si4A 1_555 1_555
H55A C66A 1_555 1_555
H56A C66A 1_555 1_555
H57A C66A 1_555 1_555
C3 C4 1_555 1_555
C9 C10 1_555 1_555
C15 C16 1_555 1_555
C21 C22 1_555 1_555
C27 C28 1_555 1_555
C39 C40 1_555 1_555
C45 C46 1_555 1_555
C51 C52 1_555 1_555
C57 C58 1_555 1_555
C63 C64 1_555 1_555
Si2A O2A 1_555 1_555
C3A C4A 1_555 1_555
C9A C10A 1_555 1_555
C15A C16A 1_555 1_555
C21A C22A 1_555 1_555
C27A C28A 1_555 1_555
Si4A O4A 1_555 1_555
C39A C40A 1_555 1_555
C45A C46A 1_555 1_555
C51A C52A 1_555 1_555
C57A C58A 1_555 1_555
C63A C64A 1_555 1_555

#END
