
#######################################################################
#
#                 Cambridge Crystallographic Data Centre
#                                CCDC 
#
#######################################################################
#
# If this CIF has been generated from an entry in the Cambridge 
# Structural Database, then it will include bibliographic, chemical, 
# crystal, experimental, refinement or atomic coordinate data resulting 
# from the CCDC's data processing and validation procedures.
#
#######################################################################

data_COSDEV
_chemical_formula_moiety         'C80 H60 O4 Si4'
_chemical_name_systematic        
1,2,3,4,7,7,10,11,12,13,15,15-Dodecaphenyl-6,8,14,16-tetraoxa-5,7,9,15-tetrasiladispiro[4.3.4.3]hexadeca-1,3,10,12-tetraene
_symmetry_cell_setting           triclinic
_symmetry_space_group_name_H-M   'P -1'
_symmetry_Int_Tables_number      2
_space_group_name_Hall           '-P 1'
loop_
_symmetry_equiv_pos_site_id
_symmetry_equiv_pos_as_xyz
1 x,y,z
2 -x,-y,-z
_cell_length_a                   11.226(3)
_cell_length_b                   12.704(3)
_cell_length_c                   13.186(3)
_cell_angle_alpha                115.699(4)
_cell_angle_beta                 103.433(5)
_cell_angle_gamma                101.434(5)
_cell_volume                     1549.29
_cell_formula_units_Z            1
loop_
_atom_site_label
_atom_site_type_symbol
_atom_site_fract_x
_atom_site_fract_y
_atom_site_fract_z
Si1 Si 0.46742(5) 0.67087(5) 0.50771(5)
Si2 Si 0.33104(5) 0.45468(5) 0.55167(5)
O1 O 0.40733(13) 0.56853(12) 0.54040(12)
O2 O 0.40998(13) 0.35601(12) 0.53045(12)
C1 C 0.33762(18) 0.67828(18) 0.39726(17)
C2 C 0.31672(18) 0.78498(18) 0.46040(18)
C3 C 0.40873(19) 0.87069(18) 0.59092(18)
C4 C 0.50235(18) 0.83043(18) 0.63187(17)
C5 C 0.26221(19) 0.57650(19) 0.27190(18)
C6 C 0.3266(2) 0.5024(2) 0.20962(19)
H1 H 0.4171 0.5214 0.2475
C7 C 0.2609(2) 0.4019(2) 0.0937(2)
H2 H 0.3065 0.3529 0.0529
C8 C 0.1299(2) 0.3730(2) 0.0376(2)
H3 H 0.0847 0.3043 -0.0419
C9 C 0.0646(2) 0.4447(2) 0.0978(2)
H4 H -0.0261 0.4242 0.0595
C10 C 0.1295(2) 0.5460(2) 0.21320(19)
H5 H 0.0832 0.5950 0.2527
C11 C 0.21039(19) 0.82446(18) 0.41338(17)
C12 C 0.10728(19) 0.82480(19) 0.45449(19)
H6 H 0.1055 0.8010 0.5134
C13 C 0.0070(2) 0.8595(2) 0.4103(2)
H7 H -0.0639 0.8586 0.4381
C14 C 0.0101(2) 0.8955(2) 0.3258(2)
H8 H -0.0586 0.9194 0.2954
C15 C 0.1129(2) 0.8968(2) 0.2855(2)
H9 H 0.1153 0.9224 0.2280
C16 C 0.2128(2) 0.8607(2) 0.32872(19)
H10 H 0.2830 0.8609 0.3001
C17 C 0.38818(18) 0.98919(18) 0.66216(18)
C18 C 0.40841(19) 1.08356(19) 0.63466(19)
H11 H 0.4328 1.0716 0.5672
C19 C 0.3934(2) 1.1950(2) 0.7048(2)
H12 H 0.4095 1.2598 0.6865
C20 C 0.3549(2) 1.2118(2) 0.8015(2)
H13 H 0.3440 1.2880 0.8493
C21 C 0.3323(2) 1.1178(2) 0.82832(19)
H14 H 0.3048 1.1289 0.8940
C22 C 0.34970(19) 1.00757(19) 0.75984(18)
H15 H 0.3353 0.9437 0.7796
C23 C 0.61067(19) 0.89473(18) 0.74955(17)
C24 C 0.6535(2) 1.02201(19) 0.83335(18)
H16 H 0.6080 1.0722 0.8180
C25 C 0.7610(2) 1.0756(2) 0.93794(19)
H17 H 0.7886 1.1622 0.9933
C26 C 0.8292(2) 1.0048(2) 0.96314(19)
H18 H 0.9030 1.0423 1.0353
C27 C 0.7887(2) 0.8792(2) 0.88214(19)
H19 H 0.8345 0.8295 0.8983
C28 C 0.6813(2) 0.8256(2) 0.77744(18)
H20 H 0.6546 0.7390 0.7226
C29 C 0.16547(19) 0.37120(19) 0.43637(17)
C30 C 0.1081(2) 0.2420(2) 0.37822(18)
H21 H 0.1565 0.1949 0.3961
C31 C -0.0177(2) 0.1820(2) 0.29522(19)
H22 H -0.0552 0.0941 0.2564
C32 C -0.0893(2) 0.2495(2) 0.26862(19)
H23 H -0.1761 0.2080 0.2120
C33 C -0.0354(2) 0.3768(2) 0.3237(2)
H24 H -0.0843 0.4231 0.3047
C34 C 0.0911(2) 0.4366(2) 0.40728(19)
H25 H 0.1278 0.5245 0.4456
C35 C 0.32633(19) 0.51898(19) 0.70611(18)
C36 C 0.2533(2) 0.4423(2) 0.7357(2)
H26 H 0.2074 0.3573 0.6763
C37 C 0.2455(3) 0.4864(2) 0.8490(2)
H27 H 0.1952 0.4322 0.8672
C38 C 0.3116(2) 0.6102(3) 0.9359(2)
H28 H 0.3080 0.6411 1.0145
C39 C 0.3824(2) 0.6883(2) 0.9081(2)
H29 H 0.4265 0.7736 0.9672
C40 C 0.3898(2) 0.6433(2) 0.7944(2)
H30 H 0.4390 0.6984 0.7764
Si1A Si 0.53258(5) 0.32913(5) 0.49229(5)
Si2A Si 0.66896(5) 0.54532(5) 0.44833(5)
O1A O 0.59267(13) 0.43147(12) 0.45960(12)
O2A O 0.59002(13) 0.64399(12) 0.46955(12)
C1A C 0.66238(18) 0.32172(18) 0.60274(17)
C2A C 0.68328(18) 0.21502(18) 0.53960(18)
C3A C 0.59127(19) 0.12931(18) 0.40908(18)
C4A C 0.49765(18) 0.16957(18) 0.36813(17)
C5A C 0.73779(19) 0.42350(19) 0.72810(18)
C6A C 0.6734(2) 0.4976(2) 0.79038(19)
H1A H 0.5829 0.4786 0.7525
C7A C 0.7391(2) 0.5981(2) 0.9063(2)
H2A H 0.6935 0.6471 0.9471
C8A C 0.8701(2) 0.6270(2) 0.9624(2)
H3A H 0.9153 0.6957 1.0419
C9A C 0.9354(2) 0.5553(2) 0.9022(2)
H4A H 1.0261 0.5758 0.9405
C10A C 0.8705(2) 0.4540(2) 0.78680(19)
H5A H 0.9168 0.4050 0.7473
C11A C 0.78961(19) 0.17554(18) 0.58662(17)
C12A C 0.89272(19) 0.17520(19) 0.54551(19)
H6A H 0.8945 0.1990 0.4866
C13A C 0.9930(2) 0.1405(2) 0.5897(2)
H7A H 1.0639 0.1414 0.5619
C14A C 0.9899(2) 0.1045(2) 0.6742(2)
H8A H 1.0586 0.0806 0.7046
C15A C 0.8871(2) 0.1032(2) 0.7145(2)
H9A H 0.8847 0.0776 0.7720
C16A C 0.7872(2) 0.1393(2) 0.67128(19)
H10A H 0.7170 0.1391 0.6999
C17A C 0.61182(18) 0.01081(18) 0.33784(18)
C18A C 0.59159(19) -0.08356(19) 0.36534(19)
H11A H 0.5672 -0.0716 0.4328
C19A C 0.6066(2) -0.1950(2) 0.2952(2)
H12A H 0.5905 -0.2598 0.3135
C20A C 0.6451(2) -0.2118(2) 0.1985(2)
H13A H 0.6560 -0.2880 0.1507
C21A C 0.6677(2) -0.1178(2) 0.17168(19)
H14A H 0.6952 -0.1289 0.1060
C22A C 0.65030(19) -0.00757(19) 0.24016(18)
H15A H 0.6647 0.0563 0.2204
C23A C 0.38933(19) 0.10527(18) 0.25045(17)
C24A C 0.3465(2) -0.02201(19) 0.16665(18)
H16A H 0.3920 -0.0722 0.1820
C25A C 0.2390(2) -0.0756(2) 0.06206(19)
H17A H 0.2114 -0.1622 0.0067
C26A C 0.1708(2) -0.0048(2) 0.03686(19)
H18A H 0.0970 -0.0423 -0.0353
C27A C 0.2113(2) 0.1208(2) 0.11786(19)
H19A H 0.1655 0.1705 0.1017
C28A C 0.3187(2) 0.1744(2) 0.22256(18)
H20A H 0.3454 0.2610 0.2774
C29A C 0.83453(19) 0.62880(19) 0.56363(17)
C30A C 0.8919(2) 0.7580(2) 0.62178(18)
H21A H 0.8435 0.8051 0.6039
C31A C 1.0177(2) 0.8180(2) 0.70478(19)
H22A H 1.0552 0.9059 0.7436
C32A C 1.0893(2) 0.7505(2) 0.73138(19)
H23A H 1.1761 0.7920 0.7880
C33A C 1.0354(2) 0.6232(2) 0.6763(2)
H24A H 1.0843 0.5769 0.6953
C34A C 0.9089(2) 0.5634(2) 0.59272(19)
H25A H 0.8722 0.4755 0.5544
C35A C 0.67367(19) 0.48102(19) 0.29389(18)
C36A C 0.7467(2) 0.5577(2) 0.2643(2)
H26A H 0.7926 0.6427 0.3237
C37A C 0.7545(3) 0.5136(2) 0.1510(2)
H27A H 0.8048 0.5678 0.1328
C38A C 0.6884(2) 0.3898(3) 0.0641(2)
H28A H 0.6920 0.3589 -0.0145
C39A C 0.6176(2) 0.3117(2) 0.0919(2)
H29A H 0.5735 0.2264 0.0328
C40A C 0.6102(2) 0.3567(2) 0.2056(2)
H30A H 0.5610 0.3016 0.2236
loop_
_geom_bond_atom_site_label_1
_geom_bond_atom_site_label_2
_geom_bond_site_symmetry_1
_geom_bond_site_symmetry_2
Si1 O1 1_555 1_555
Si2 O1 1_555 1_555
O2 Si2 1_555 1_555
C1 Si1 1_555 1_555
C2 C1 1_555 1_555
C3 C2 1_555 1_555
C4 Si1 1_555 1_555
C5 C1 1_555 1_555
C6 C5 1_555 1_555
H1 C6 1_555 1_555
C7 C6 1_555 1_555
H2 C7 1_555 1_555
C8 C7 1_555 1_555
H3 C8 1_555 1_555
C9 C8 1_555 1_555
H4 C9 1_555 1_555
C10 C5 1_555 1_555
H5 C10 1_555 1_555
C11 C2 1_555 1_555
C12 C11 1_555 1_555
H6 C12 1_555 1_555
C13 C12 1_555 1_555
H7 C13 1_555 1_555
C14 C13 1_555 1_555
H8 C14 1_555 1_555
C15 C14 1_555 1_555
H9 C15 1_555 1_555
C16 C11 1_555 1_555
H10 C16 1_555 1_555
C17 C3 1_555 1_555
C18 C17 1_555 1_555
H11 C18 1_555 1_555
C19 C18 1_555 1_555
H12 C19 1_555 1_555
C20 C19 1_555 1_555
H13 C20 1_555 1_555
C21 C20 1_555 1_555
H14 C21 1_555 1_555
C22 C17 1_555 1_555
H15 C22 1_555 1_555
C23 C4 1_555 1_555
C24 C23 1_555 1_555
H16 C24 1_555 1_555
C25 C24 1_555 1_555
H17 C25 1_555 1_555
C26 C25 1_555 1_555
H18 C26 1_555 1_555
C27 C26 1_555 1_555
H19 C27 1_555 1_555
C28 C23 1_555 1_555
H20 C28 1_555 1_555
C29 Si2 1_555 1_555
C30 C29 1_555 1_555
H21 C30 1_555 1_555
C31 C30 1_555 1_555
H22 C31 1_555 1_555
C32 C31 1_555 1_555
H23 C32 1_555 1_555
C33 C32 1_555 1_555
H24 C33 1_555 1_555
C34 C29 1_555 1_555
H25 C34 1_555 1_555
C35 Si2 1_555 1_555
C36 C35 1_555 1_555
H26 C36 1_555 1_555
C37 C36 1_555 1_555
H27 C37 1_555 1_555
C38 C37 1_555 1_555
H28 C38 1_555 1_555
C39 C38 1_555 1_555
H29 C39 1_555 1_555
C40 C35 1_555 1_555
H30 C40 1_555 1_555
Si1A O2 1_555 1_555
Si2A O1A 1_555 1_555
O1A Si1A 1_555 1_555
O2A Si1 1_555 1_555
C1A Si1A 1_555 1_555
C2A C1A 1_555 1_555
C3A C2A 1_555 1_555
C4A Si1A 1_555 1_555
C5A C1A 1_555 1_555
C6A C5A 1_555 1_555
H1A C6A 1_555 1_555
C7A C6A 1_555 1_555
H2A C7A 1_555 1_555
C8A C7A 1_555 1_555
H3A C8A 1_555 1_555
C9A C8A 1_555 1_555
H4A C9A 1_555 1_555
C10A C5A 1_555 1_555
H5A C10A 1_555 1_555
C11A C2A 1_555 1_555
C12A C11A 1_555 1_555
H6A C12A 1_555 1_555
C13A C12A 1_555 1_555
H7A C13A 1_555 1_555
C14A C13A 1_555 1_555
H8A C14A 1_555 1_555
C15A C14A 1_555 1_555
H9A C15A 1_555 1_555
C16A C11A 1_555 1_555
H10A C16A 1_555 1_555
C17A C3A 1_555 1_555
C18A C17A 1_555 1_555
H11A C18A 1_555 1_555
C19A C18A 1_555 1_555
H12A C19A 1_555 1_555
C20A C19A 1_555 1_555
H13A C20A 1_555 1_555
C21A C20A 1_555 1_555
H14A C21A 1_555 1_555
C22A C17A 1_555 1_555
H15A C22A 1_555 1_555
C23A C4A 1_555 1_555
C24A C23A 1_555 1_555
H16A C24A 1_555 1_555
C25A C24A 1_555 1_555
H17A C25A 1_555 1_555
C26A C25A 1_555 1_555
H18A C26A 1_555 1_555
C27A C26A 1_555 1_555
H19A C27A 1_555 1_555
C28A C23A 1_555 1_555
H20A C28A 1_555 1_555
C29A Si2A 1_555 1_555
C30A C29A 1_555 1_555
H21A C30A 1_555 1_555
C31A C30A 1_555 1_555
H22A C31A 1_555 1_555
C32A C31A 1_555 1_555
H23A C32A 1_555 1_555
C33A C32A 1_555 1_555
H24A C33A 1_555 1_555
C34A C29A 1_555 1_555
H25A C34A 1_555 1_555
C35A Si2A 1_555 1_555
C36A C35A 1_555 1_555
H26A C36A 1_555 1_555
C37A C36A 1_555 1_555
H27A C37A 1_555 1_555
C38A C37A 1_555 1_555
H28A C38A 1_555 1_555
C39A C38A 1_555 1_555
H29A C39A 1_555 1_555
C40A C35A 1_555 1_555
H30A C40A 1_555 1_555
C3 C4 1_555 1_555
C9 C10 1_555 1_555
C15 C16 1_555 1_555
C21 C22 1_555 1_555
C27 C28 1_555 1_555
C33 C34 1_555 1_555
C39 C40 1_555 1_555
Si2A O2A 1_555 1_555
C3A C4A 1_555 1_555
C9A C10A 1_555 1_555
C15A C16A 1_555 1_555
C21A C22A 1_555 1_555
C27A C28A 1_555 1_555
C33A C34A 1_555 1_555
C39A C40A 1_555 1_555

#END
