
#######################################################################
#
#                 Cambridge Crystallographic Data Centre
#                                CCDC 
#
#######################################################################
#
# If this CIF has been generated from an entry in the Cambridge 
# Structural Database, then it will include bibliographic, chemical, 
# crystal, experimental, refinement or atomic coordinate data resulting 
# from the CCDC's data processing and validation procedures.
#
#######################################################################

data_COSJIE
_chemical_name_common            
"3,3',3''-(1,3,5-Triazinane-1,3,5-triyltris((3-oxo-3,1-propanediyl)sulfanediyl))tripropanoic acid"
_chemical_formula_moiety         'C21 H33 N3 O9 S3'
_chemical_name_systematic        
1,3,5-tris(3-(2-(Carboxy)ethylsulfanyl)-1-oxopropyl)-1,3,5-triazinane
_symmetry_cell_setting           triclinic
_symmetry_space_group_name_H-M   'P -1'
_symmetry_Int_Tables_number      2
_space_group_name_Hall           '-P 1'
loop_
_symmetry_equiv_pos_site_id
_symmetry_equiv_pos_as_xyz
1 x,y,z
2 -x,-y,-z
_cell_length_a                   10.1945(8)
_cell_length_b                   11.8087(9)
_cell_length_c                   12.6371(10)
_cell_angle_alpha                64.895(1)
_cell_angle_beta                 82.421(1)
_cell_angle_gamma                71.751(1)
_cell_volume                     1308.3
_exptl_crystal_colour            colorless
_exptl_crystal_description       block
_cell_formula_units_Z            2
loop_
_atom_site_label
_atom_site_type_symbol
_atom_site_fract_x
_atom_site_fract_y
_atom_site_fract_z
N1 N 0.45994(13) 0.47473(13) 0.79261(11)
C1 C 0.38160(16) 0.42992(16) 0.90121(13)
H1 H 0.4136 0.3355 0.9406
H2 H 0.3960 0.4664 0.9530
N2 N 0.23548(13) 0.47126(12) 0.87365(11)
C2 C 0.20770(18) 0.42700(16) 0.78982(14)
H3 H 0.2304 0.3325 0.8242
H4 H 0.1103 0.4621 0.7698
N3 N 0.28947(14) 0.46993(13) 0.68533(11)
C3 C 0.43689(17) 0.42865(16) 0.70743(14)
H5 H 0.4854 0.4650 0.6353
H6 H 0.4716 0.3342 0.7380
C4 C 0.52437(16) 0.56602(16) 0.77137(14)
O1 O 0.52499(14) 0.60845(12) 0.84542(11)
C5 C 0.60074(18) 0.61398(18) 0.65729(15)
H7 H 0.6393 0.5434 0.6319
H8 H 0.6765 0.6407 0.6692
C6 C 0.50430(19) 0.72912(19) 0.56255(16)
H9 H 0.4552 0.7946 0.5921
H10 H 0.4368 0.6995 0.5418
S1 S 0.60246(5) 0.79976(5) 0.43484(4)
C7 C 0.4649(2) 0.9065(2) 0.32988(16)
H11 H 0.5057 0.9438 0.2538
H12 H 0.4109 0.8547 0.3243
C8 C 0.3695(2) 1.0158(2) 0.35848(18)
H13 H 0.3184 0.9793 0.4288
H14 H 0.4243 1.0607 0.3747
C9 C 0.2697(2) 1.1125(2) 0.26276(18)
O2 O 0.2697(3) 1.1137(3) 0.16914(19)
O3 O 0.1778(2) 1.19985(18) 0.29290(15)
H15 H 0.1301 1.2547 0.2361
C10 C 0.13449(15) 0.56161(14) 0.90133(12)
O4 O 0.01881(12) 0.60297(12) 0.85901(11)
C11 C 0.16816(16) 0.59939(16) 0.99277(14)
H16 H 0.2514 0.6273 0.9700
H17 H 0.1861 0.5237 1.0668
C12 C 0.05122(16) 0.70868(16) 1.00824(14)
H18 H -0.0360 0.6925 1.0070
H19 H 0.0516 0.7904 0.9427
S2 S 0.06264(4) 0.72515(5) 1.14232(4)
C13 C 0.21946(16) 0.77278(16) 1.12254(16)
H20 H 0.2549 0.7503 1.1986
H21 H 0.2881 0.7233 1.0854
C14 C 0.19965(17) 0.91676(16) 1.04956(16)
H22 H 0.1557 0.9415 0.9763
H23 H 0.1386 0.9663 1.0905
C15 C 0.33315(16) 0.95091(15) 1.02448(14)
O5 O 0.44008(12) 0.87614(11) 1.07514(12)
O6 O 0.32384(13) 1.06891(12) 0.94417(12)
H24 H 0.3987 1.0836 0.9371
C16 C 0.23773(17) 0.54976(15) 0.57637(13)
O7 O 0.31360(13) 0.57855(13) 0.49187(10)
C17 C 0.08122(19) 0.6023(2) 0.56448(17)
H25 H 0.0421 0.5303 0.5864
H26 H 0.0449 0.6451 0.6172
C18 C 0.0392(2) 0.6975(2) 0.44157(18)
H27 H -0.0607 0.7256 0.4361
H28 H 0.0751 0.6539 0.3893
S3 S 0.10099(5) 0.83964(5) 0.39444(5)
C19 C -0.0563(2) 0.9683(2) 0.38208(19)
H29 H -0.1084 0.9417 0.4539
H30 H -0.0329 1.0454 0.3734
C20 C -0.1461(2) 1.00349(19) 0.28160(18)
H31 H -0.1934 0.9375 0.3014
H32 H -0.0885 1.0039 0.2140
C21 C -0.25108(19) 1.13454(18) 0.25083(16)
O8 O -0.24041(16) 1.21866(15) 0.27679(15)
O9 O -0.35498(16) 1.15163(14) 0.18712(14)
H33 H -0.4099 1.2238 0.1735
loop_
_geom_bond_atom_site_label_1
_geom_bond_atom_site_label_2
_geom_bond_site_symmetry_1
_geom_bond_site_symmetry_2
N1 C1 1_555 1_555
C1 H1 1_555 1_555
H2 C1 1_555 1_555
N2 C1 1_555 1_555
C2 N2 1_555 1_555
H3 C2 1_555 1_555
H4 C2 1_555 1_555
N3 C2 1_555 1_555
C3 N1 1_555 1_555
H5 C3 1_555 1_555
H6 C3 1_555 1_555
C4 N1 1_555 1_555
O1 C4 1_555 1_555
C5 C4 1_555 1_555
H7 C5 1_555 1_555
H8 C5 1_555 1_555
C6 C5 1_555 1_555
H9 C6 1_555 1_555
H10 C6 1_555 1_555
S1 C6 1_555 1_555
C7 S1 1_555 1_555
H11 C7 1_555 1_555
H12 C7 1_555 1_555
C8 C7 1_555 1_555
H13 C8 1_555 1_555
H14 C8 1_555 1_555
C9 C8 1_555 1_555
O2 C9 1_555 1_555
O3 C9 1_555 1_555
H15 O3 1_555 1_555
C10 N2 1_555 1_555
O4 C10 1_555 1_555
C11 C10 1_555 1_555
H16 C11 1_555 1_555
H17 C11 1_555 1_555
C12 C11 1_555 1_555
H18 C12 1_555 1_555
H19 C12 1_555 1_555
S2 C12 1_555 1_555
C13 S2 1_555 1_555
H20 C13 1_555 1_555
H21 C13 1_555 1_555
C14 C13 1_555 1_555
H22 C14 1_555 1_555
H23 C14 1_555 1_555
C15 C14 1_555 1_555
O5 C15 1_555 1_555
O6 C15 1_555 1_555
H24 O6 1_555 1_555
C16 N3 1_555 1_555
O7 C16 1_555 1_555
C17 C16 1_555 1_555
H25 C17 1_555 1_555
H26 C17 1_555 1_555
C18 C17 1_555 1_555
H27 C18 1_555 1_555
H28 C18 1_555 1_555
S3 C18 1_555 1_555
C19 S3 1_555 1_555
H29 C19 1_555 1_555
H30 C19 1_555 1_555
C20 C19 1_555 1_555
H31 C20 1_555 1_555
H32 C20 1_555 1_555
C21 C20 1_555 1_555
O8 C21 1_555 1_555
O9 C21 1_555 1_555
H33 O9 1_555 1_555
N3 C3 1_555 1_555

#END
