
#######################################################################
#
#                 Cambridge Crystallographic Data Centre
#                                CCDC 
#
#######################################################################
#
# If this CIF has been generated from an entry in the Cambridge 
# Structural Database, then it will include bibliographic, chemical, 
# crystal, experimental, refinement or atomic coordinate data resulting 
# from the CCDC's data processing and validation procedures.
#
#######################################################################

data_COSLAY
_chemical_formula_moiety         'C19 H24 B1 N1 O3'
_chemical_name_systematic        
(-)-(3aS)-1,1-Dimethoxy-3,3-diphenyl-3,3a,4,5,6,7-hexahydro-1H-pyrrolo[1,2-c][1,3,2]oxazaborol-7-ium-1-uide
_symmetry_cell_setting           monoclinic
_symmetry_space_group_name_H-M   'P 21'
_symmetry_Int_Tables_number      4
_space_group_name_Hall           'P 2yb'
loop_
_symmetry_equiv_pos_site_id
_symmetry_equiv_pos_as_xyz
1 x,y,z
2 -x,1/2+y,-z
_cell_length_a                   9.9641(5)
_cell_length_b                   18.7001(9)
_cell_length_c                   10.1265(5)
_cell_angle_alpha                90
_cell_angle_beta                 107.824(1)
_cell_angle_gamma                90
_cell_volume                     1796.3
_exptl_crystal_colour            colorless
_exptl_crystal_description       prism
_chemical_melting_point          '132-136 deg.C'
_cell_formula_units_Z            4
loop_
_atom_site_label
_atom_site_type_symbol
_atom_site_fract_x
_atom_site_fract_y
_atom_site_fract_z
O1 O 0.66394(14) 0.75912(7) 0.39458(14)
O2 O 0.45285(14) 0.68362(7) 0.29614(13)
O3 O 0.47291(15) 0.79677(8) 0.20039(15)
N1 N 0.63502(17) 0.69065(10) 0.18665(16)
C1 C 0.6309(2) 0.71795(12) 0.0446(2)
H1 H 0.5842 0.7652 0.0262
H2 H 0.5794 0.6842 -0.0287
C2 C 0.7852(2) 0.72365(13) 0.0495(2)
H3 H 0.7991 0.7626 -0.0113
H4 H 0.8194 0.6781 0.0215
C3 C 0.8594(2) 0.74030(12) 0.2021(2)
H5 H 0.9617 0.7303 0.2272
H6 H 0.8454 0.7908 0.2239
C4 C 0.7869(2) 0.68974(11) 0.27650(19)
H7 H 0.8269 0.6405 0.2805
C5 C 0.7824(2) 0.71325(10) 0.4227(2)
C6 C 0.7646(2) 0.65039(11) 0.5142(2)
C7 C 0.8041(3) 0.58097(13) 0.5002(3)
H8 H 0.8445 0.5695 0.4291
C8 C 0.7858(4) 0.52713(15) 0.5883(3)
H9 H 0.8143 0.4796 0.5772
C9 C 0.7272(3) 0.54236(15) 0.6908(2)
H10 H 0.7134 0.5055 0.7499
C10 C 0.6882(3) 0.61173(15) 0.7075(2)
H11 H 0.6478 0.6228 0.7786
C11 C 0.7079(2) 0.66539(14) 0.6208(2)
H12 H 0.6822 0.7131 0.6344
C12 C 0.9150(2) 0.75592(12) 0.4988(2)
C13 C 1.0468(2) 0.72301(14) 0.5379(2)
H13 H 1.0539 0.6733 0.5218
C14 C 1.1678(2) 0.76228(16) 0.6003(2)
H14 H 1.2572 0.7394 0.6257
C15 C 1.1591(3) 0.83457(16) 0.6258(3)
H15 H 1.2420 0.8615 0.6681
C16 C 1.0289(3) 0.86699(16) 0.5889(3)
H16 H 1.0222 0.9165 0.6069
C17 C 0.9064(3) 0.82800(14) 0.5255(2)
H17 H 0.8172 0.8511 0.5007
C18 C 0.3695(2) 0.70437(13) 0.3810(2)
H18 H 0.4309 0.7225 0.4698
H19 H 0.3165 0.6630 0.3975
H20 H 0.3036 0.7420 0.3342
C19 C 0.5368(3) 0.86530(12) 0.2093(3)
H21 H 0.5886 0.8759 0.3063
H22 H 0.4638 0.9016 0.1736
H23 H 0.6022 0.8657 0.1540
B1 B 0.5497(2) 0.73744(12) 0.2743(2)
H47 H 0.602(2) 0.6465(14) 0.174(2)
O4 O 0.30436(14) 0.49588(8) -0.04866(14)
O5 O 0.52451(14) 0.55538(8) 0.09081(14)
O6 O 0.42042(16) 0.58391(8) -0.14630(15)
N2 N 0.30147(17) 0.61531(9) 0.04165(18)
C20 C 0.2430(2) 0.68155(11) -0.0411(2)
H24 H 0.2637 0.6814 -0.1306
H25 H 0.2846 0.7251 0.0111
C21 C 0.0841(2) 0.67910(12) -0.0648(2)
H26 H 0.0586 0.7038 0.0106
H27 H 0.0316 0.7010 -0.1548
C22 C 0.0553(2) 0.59893(12) -0.0642(2)
H28 H -0.0354 0.5894 -0.0466
H29 H 0.0538 0.5766 -0.1533
C23 C 0.1788(2) 0.57164(11) 0.0543(2)
H30 H 0.1625 0.5808 0.1455
C24 C 0.2239(2) 0.49271(11) 0.0450(2)
C25 C 0.3142(2) 0.45986(11) 0.1829(2)
C26 C 0.3486(3) 0.49314(14) 0.3102(2)
H31 H 0.3155 0.5402 0.3170
C27 C 0.4312(3) 0.45868(17) 0.4289(3)
H32 H 0.4538 0.4824 0.5159
C28 C 0.4804(3) 0.39075(16) 0.4217(3)
H33 H 0.5358 0.3672 0.5032
C29 C 0.4484(3) 0.35704(14) 0.2943(3)
H34 H 0.4826 0.3102 0.2877
C30 C 0.3662(2) 0.39170(12) 0.1765(2)
H35 H 0.3450 0.3682 0.0893
C31 C 0.0937(2) 0.44578(11) -0.0154(2)
C32 C 0.0112(2) 0.42644(14) 0.0680(2)
H36 H 0.0379 0.4413 0.1622
C33 C -0.1097(3) 0.38559(14) 0.0145(3)
H37 H -0.1662 0.3735 0.0717
C34 C -0.1483(2) 0.36240(12) -0.1215(3)
H38 H -0.2307 0.3342 -0.1579
C35 C -0.0661(2) 0.38056(12) -0.2039(2)
H39 H -0.0915 0.3643 -0.2971
C36 C 0.0540(2) 0.42260(11) -0.1515(2)
H40 H 0.1089 0.4354 -0.2098
C37 C 0.6258(2) 0.50471(13) 0.0796(3)
H41 H 0.5868 0.4564 0.0768
H42 H 0.7106 0.5090 0.1598
H43 H 0.6502 0.5136 -0.0057
C38 C 0.3283(3) 0.56519(14) -0.2784(2)
H44 H 0.3282 0.5131 -0.2898
H45 H 0.3603 0.5880 -0.3507
H46 H 0.2327 0.5815 -0.2864
B2 B 0.3938(2) 0.55881(13) -0.0237(2)
H48 H 0.350(3) 0.6303(15) 0.129(3)
loop_
_geom_bond_atom_site_label_1
_geom_bond_atom_site_label_2
_geom_bond_site_symmetry_1
_geom_bond_site_symmetry_2
O1 C5 1_555 1_555
O2 C18 1_555 1_555
O3 C19 1_555 1_555
N1 C1 1_555 1_555
C1 H1 1_555 1_555
H2 C1 1_555 1_555
C2 C1 1_555 1_555
H3 C2 1_555 1_555
H4 C2 1_555 1_555
C3 C2 1_555 1_555
H5 C3 1_555 1_555
H6 C3 1_555 1_555
C4 N1 1_555 1_555
H7 C4 1_555 1_555
C5 C4 1_555 1_555
C6 C5 1_555 1_555
C7 C6 1_555 1_555
H8 C7 1_555 1_555
C8 C7 1_555 1_555
H9 C8 1_555 1_555
C9 C8 1_555 1_555
H10 C9 1_555 1_555
C10 C9 1_555 1_555
H11 C10 1_555 1_555
C11 C6 1_555 1_555
H12 C11 1_555 1_555
C12 C5 1_555 1_555
C13 C12 1_555 1_555
H13 C13 1_555 1_555
C14 C13 1_555 1_555
H14 C14 1_555 1_555
C15 C14 1_555 1_555
H15 C15 1_555 1_555
C16 C15 1_555 1_555
H16 C16 1_555 1_555
C17 C12 1_555 1_555
H17 C17 1_555 1_555
C18 H18 1_555 1_555
H19 C18 1_555 1_555
H20 C18 1_555 1_555
C19 H21 1_555 1_555
H22 C19 1_555 1_555
H23 C19 1_555 1_555
B1 O1 1_555 1_555
O4 C24 1_555 1_555
O5 C37 1_555 1_555
O6 C38 1_555 1_555
N2 C20 1_555 1_555
C20 H24 1_555 1_555
H25 C20 1_555 1_555
C21 C20 1_555 1_555
H26 C21 1_555 1_555
H27 C21 1_555 1_555
C22 C21 1_555 1_555
H28 C22 1_555 1_555
H29 C22 1_555 1_555
C23 N2 1_555 1_555
H30 C23 1_555 1_555
C24 C23 1_555 1_555
C25 C24 1_555 1_555
C26 C25 1_555 1_555
H31 C26 1_555 1_555
C27 C26 1_555 1_555
H32 C27 1_555 1_555
C28 C27 1_555 1_555
H33 C28 1_555 1_555
C29 C28 1_555 1_555
H34 C29 1_555 1_555
C30 C25 1_555 1_555
H35 C30 1_555 1_555
C31 C24 1_555 1_555
C32 C31 1_555 1_555
H36 C32 1_555 1_555
C33 C32 1_555 1_555
H37 C33 1_555 1_555
C34 C33 1_555 1_555
H38 C34 1_555 1_555
C35 C34 1_555 1_555
H39 C35 1_555 1_555
C36 C31 1_555 1_555
H40 C36 1_555 1_555
C37 H41 1_555 1_555
H42 C37 1_555 1_555
H43 C37 1_555 1_555
C38 H44 1_555 1_555
H45 C38 1_555 1_555
H46 C38 1_555 1_555
B2 O4 1_555 1_555
H47 N1 1_555 1_555
H48 N2 1_555 1_555
O2 B1 1_555 1_555
O3 B1 1_555 1_555
N1 B1 1_555 1_555
C3 C4 1_555 1_555
C10 C11 1_555 1_555
C16 C17 1_555 1_555
O5 B2 1_555 1_555
O6 B2 1_555 1_555
N2 B2 1_555 1_555
C22 C23 1_555 1_555
C29 C30 1_555 1_555
C35 C36 1_555 1_555

#END
