
#######################################################################
#
#                 Cambridge Crystallographic Data Centre
#                                CCDC 
#
#######################################################################
#
# If this CIF has been generated from an entry in the Cambridge 
# Structural Database, then it will include bibliographic, chemical, 
# crystal, experimental, refinement or atomic coordinate data resulting 
# from the CCDC's data processing and validation procedures.
#
#######################################################################

data_COSMOO
_chemical_formula_moiety         'C22 H27 N3 O3'
_chemical_name_systematic        
R-(+)-1-(1H-indol-4-yloxy)-3-(4-(2-methoxyphenyl)piperazin-1-yl)propan-2-ol
_symmetry_cell_setting           monoclinic
_symmetry_space_group_name_H-M   'P 21'
_symmetry_Int_Tables_number      4
_space_group_name_Hall           'P 2yb'
loop_
_symmetry_equiv_pos_site_id
_symmetry_equiv_pos_as_xyz
1 x,y,z
2 -x,1/2+y,-z
_cell_length_a                   9.54693(6)
_cell_length_b                   26.01489(18)
_cell_length_c                   16.53752(11)
_cell_angle_alpha                90
_cell_angle_beta                 90.6092(6)
_cell_angle_gamma                90
_cell_volume                     4107.06
_exptl_crystal_colour            colorless
_exptl_crystal_description       needle
_cell_formula_units_Z            8
_exptl_crystal_recrystallization_method dichloromethane/n-hexane
loop_
_atom_site_label
_atom_site_type_symbol
_atom_site_fract_x
_atom_site_fract_y
_atom_site_fract_z
O1 O -0.50920(12) -0.64403(5) -0.18503(7)
N1 N -0.08987(14) -0.61003(5) -0.00415(8)
O2 O 0.36094(11) -0.58342(4) 0.12462(7)
O3 O 0.05503(12) -0.58019(6) 0.12922(7)
H1 H -0.0283 -0.5820 0.1170
N2 N 0.78581(14) -0.53442(6) 0.22998(9)
H2 H 0.8688 -0.5334 0.2507
C1 C 0.58108(18) -0.50823(7) 0.17892(11)
H3 H 0.5087 -0.4872 0.1605
N3 N -0.34264(13) -0.58478(5) -0.09054(8)
C2 C 0.48607(16) -0.60128(6) 0.15532(9)
C3 C -0.53402(19) -0.52083(8) -0.08322(12)
H4 H -0.4796 -0.5000 -0.0497
C4 C 0.58226(16) -0.56319(6) 0.17972(9)
C5 C 0.75086(17) -0.62983(7) 0.21976(10)
H5 H 0.8378 -0.6391 0.2410
C6 C 0.70612(19) -0.49262(7) 0.21019(12)
H6 H 0.7334 -0.4586 0.2171
C7 C 0.52279(17) -0.65241(6) 0.16361(10)
H7 H 0.4598 -0.6780 0.1482
C8 C 0.05312(16) -0.62887(7) 0.00553(10)
H8 H 0.0976 -0.6305 -0.0469
H9 H 0.0516 -0.6633 0.0280
C9 C 0.71233(16) -0.57847(6) 0.21156(9)
C10 C 0.13710(16) -0.59353(7) 0.06128(10)
H10 H 0.1625 -0.5623 0.0318
C11 C -0.09866(17) -0.56628(7) -0.05983(11)
H11 H -0.0720 -0.5772 -0.1136
H12 H -0.0342 -0.5396 -0.0423
C12 C -0.7488(2) -0.53468(9) -0.15585(12)
H13 H -0.8375 -0.5235 -0.1716
C13 C -0.24614(17) -0.54514(7) -0.06218(11)
H14 H -0.2726 -0.5339 -0.0085
H15 H -0.2506 -0.5157 -0.0981
C14 C -0.56694(17) -0.59850(7) -0.15959(10)
C15 C -0.6672(2) -0.50451(9) -0.10683(13)
H16 H -0.7007 -0.4729 -0.0892
C16 C -0.5956(2) -0.67770(8) -0.23274(11)
H17 H -0.6216 -0.6609 -0.2823
H18 H -0.6784 -0.6862 -0.2032
H19 H -0.5446 -0.7085 -0.2446
C17 C 0.65585(18) -0.66596(7) 0.19538(10)
H20 H 0.6793 -0.7005 0.1998
C18 C 0.26818(17) -0.62037(7) 0.08994(11)
H21 H 0.2449 -0.6462 0.1299
H22 H 0.3129 -0.6373 0.0448
C19 C -0.33476(17) -0.62946(7) -0.03575(10)
H23 H -0.3976 -0.6562 -0.0551
H24 H -0.3645 -0.6193 0.0179
C20 C -0.48114(17) -0.56781(7) -0.10908(10)
C21 C -0.18708(17) -0.65015(7) -0.03129(10)
H25 H -0.1832 -0.6789 0.0060
H26 H -0.1596 -0.6625 -0.0842
C22 C -0.69952(18) -0.58196(8) -0.18217(11)
H27 H -0.7557 -0.6026 -0.2150
O4 O -0.93594(11) -0.54047(4) -0.68246(7)
O5 O -1.81394(11) -0.59236(4) -0.38156(7)
C23 C -2.02670(17) -0.61150(6) -0.31921(9)
N4 N -1.11584(13) -0.59835(5) -0.59380(8)
O6 O -1.50917(13) -0.59444(6) -0.37418(8)
H28 H -1.4260 -0.5932 -0.3858
C24 C -1.72316(17) -0.55644(7) -0.41942(11)
H29 H -1.7003 -0.5288 -0.3822
H30 H -1.7691 -0.5417 -0.4666
N5 N -1.36663(14) -0.56995(5) -0.51056(8)
C25 C -2.10815(19) -0.50954(7) -0.31619(11)
H31 H -2.1338 -0.4751 -0.3160
C26 C -1.97822(18) -0.52317(6) -0.34868(10)
H32 H -1.9195 -0.4979 -0.3690
N6 N -2.22276(16) -0.63971(6) -0.26154(10)
H33 H -2.3042 -0.6407 -0.2399
C27 C -0.88678(16) -0.58735(7) -0.65706(10)
C28 C -1.21629(18) -0.63651(7) -0.56598(11)
H34 H -1.1903 -0.6478 -0.5120
H35 H -1.2145 -0.6662 -0.6015
C29 C -0.9326(2) -0.66525(7) -0.58425(12)
H36 H -0.9906 -0.6853 -0.5522
C30 C -1.36193(18) -0.61426(6) -0.56504(11)
H37 H -1.3890 -0.6037 -0.6192
H38 H -1.4277 -0.6402 -0.5472
C31 C -2.15567(17) -0.59615(7) -0.28699(9)
C32 C -2.1402(2) -0.68121(8) -0.27599(13)
H39 H -2.1627 -0.7150 -0.2631
C33 C -1.93730(16) -0.57404(6) -0.35065(9)
C34 C -0.8020(2) -0.68414(8) -0.60539(14)
H40 H -0.7740 -0.7166 -0.5882
C35 C -1.50856(17) -0.54992(7) -0.50158(10)
H41 H -1.5551 -0.5489 -0.5540
H42 H -1.5044 -0.5151 -0.4806
C36 C -2.0194(2) -0.66599(7) -0.31225(12)
H43 H -1.9467 -0.6871 -0.3291
C37 C -2.19862(18) -0.54485(7) -0.28480(10)
H44 H -2.2842 -0.5352 -0.2631
C38 C -1.59198(17) -0.58377(7) -0.44404(10)
H45 H -1.6166 -0.6161 -0.4712
C39 C -1.26801(17) -0.53110(6) -0.53889(11)
H46 H -1.2702 -0.5015 -0.5032
H47 H -1.2951 -0.5199 -0.5927
C40 C -0.7142(2) -0.65476(8) -0.65185(12)
H48 H -0.6268 -0.6674 -0.6663
C41 C -0.97881(17) -0.61717(7) -0.60974(10)
C42 C -0.75621(18) -0.60633(7) -0.67702(11)
H49 H -0.6960 -0.5863 -0.7077
C43 C -0.83981(19) -0.50762(7) -0.72352(11)
H50 H -0.8073 -0.5245 -0.7714
H51 H -0.7615 -0.5002 -0.6885
H52 H -0.8861 -0.4761 -0.7381
C44 C -1.12122(17) -0.55311(6) -0.54047(10)
H53 H -1.0566 -0.5272 -0.5596
H54 H -1.0926 -0.5629 -0.4861
O7 O -0.89248(10) -0.34921(4) -0.36125(6)
O8 O -1.15964(11) -0.37731(5) -0.33565(6)
H55 H -1.0922 -0.3775 -0.3045
N7 N -1.07530(13) -0.36328(5) -0.55220(7)
O9 O -1.02747(16) -0.41085(5) -0.84835(7)
C45 C -1.08794(19) -0.25610(7) -0.89617(11)
H56 H -1.1028 -0.2213 -0.9057
C46 C -0.72090(17) -0.27986(6) -0.36086(9)
H57 H -0.7880 -0.2551 -0.3733
C47 C -0.52958(18) -0.43695(7) -0.30423(11)
H58 H -0.5019 -0.4706 -0.2938
C48 C -0.65847(16) -0.36751(6) -0.33213(9)
C49 C -0.66323(17) -0.42154(6) -0.31703(10)
H59 H -0.7428 -0.4421 -0.3162
N8 N -0.44071(14) -0.39560(6) -0.30885(9)
H60 H -0.3513 -0.3967 -0.3023
C50 C -1.12374(16) -0.35008(7) -0.40772(9)
H61 H -1.2035 -0.3284 -0.4234
N9 N -1.09753(14) -0.34862(5) -0.72324(7)
C51 C -0.57939(18) -0.26561(7) -0.35106(9)
H62 H -0.5551 -0.2312 -0.3563
C52 C -1.09967(18) -0.27553(7) -0.81855(10)
H63 H -1.1216 -0.2533 -0.7765
C53 C -0.75973(16) -0.33044(6) -0.35203(9)
C54 C -1.04552(18) -0.35970(6) -0.86706(10)
C55 C -0.99783(18) -0.39567(7) -0.60841(9)
H64 H -1.0526 -0.4260 -0.6216
H65 H -0.9106 -0.4068 -0.5833
C56 C -0.96731(17) -0.36582(7) -0.68476(9)
H66 H -0.9094 -0.3363 -0.6716
H67 H -0.9160 -0.3874 -0.7220
C57 C -1.20549(17) -0.34711(8) -0.59129(10)
H68 H -1.2592 -0.3263 -0.5541
H69 H -1.2609 -0.3771 -0.6054
C58 C -1.07950(16) -0.32730(6) -0.80184(9)
C59 C -1.0545(2) -0.28803(7) -0.95889(10)
H70 H -1.0459 -0.2749 -1.0109
C60 C -1.17557(19) -0.31644(7) -0.66672(10)
H71 H -1.2628 -0.3053 -0.6917
H72 H -1.1211 -0.2862 -0.6529
C61 C -0.99959(16) -0.31584(6) -0.39259(10)
H73 H -0.9697 -0.2997 -0.4424
H74 H -1.0220 -0.2892 -0.3537
C62 C -1.09923(17) -0.38899(6) -0.47508(9)
H75 H -1.0186 -0.4101 -0.4614
H76 H -1.1801 -0.4114 -0.4801
C63 C -0.51731(16) -0.35217(7) -0.32566(9)
C64 C -1.0016(4) -0.44496(9) -0.91403(13)
H77 H -1.0764 -0.4423 -0.9531
H78 H -0.9965 -0.4796 -0.8943
H79 H -0.9146 -0.4360 -0.9390
C65 C -0.47597(17) -0.30087(7) -0.33397(9)
H80 H -0.3827 -0.2911 -0.3282
C66 C -1.0336(2) -0.33978(7) -0.94450(10)
H81 H -1.0113 -0.3615 -0.9872
N10 N -0.58614(14) -0.31047(5) -0.94295(7)
O10 O -0.38689(11) -0.33029(4) -1.13130(7)
O11 O -0.59649(17) -0.26679(5) -0.64434(7)
C67 C -0.02364(18) -0.24523(7) -1.18803(10)
H82 H 0.0049 -0.2117 -1.1984
C68 C -0.07919(18) -0.41658(7) -1.14467(9)
H83 H -0.0561 -0.4512 -1.1401
C69 C -0.55412(16) -0.34941(6) -0.69649(9)
N11 N -0.54460(14) -0.32531(5) -0.77377(8)
C70 C -0.53555(19) -0.40135(7) -0.68411(10)
H84 H -0.5156 -0.4223 -0.7281
C71 C -0.15402(16) -0.31397(6) -1.16082(9)
O12 O -0.64984(12) -0.29733(5) -1.16236(6)
H85 H -0.5793 -0.2950 -1.1900
C72 C -0.58712(19) -0.28566(6) -1.02281(9)
H86 H -0.4970 -0.2696 -1.0320
H87 H -0.6582 -0.2590 -1.0242
C73 C -0.61711(16) -0.32467(7) -1.08940(9)
H88 H -0.7000 -0.3445 -1.0741
N12 N 0.06323(14) -0.28709(6) -1.18524(8)
H89 H 0.1523 -0.2865 -1.1924
C74 C -0.01457(16) -0.33016(7) -1.16921(9)
C75 C -0.5458(2) -0.42330(7) -0.60777(11)
H90 H -0.5327 -0.4585 -0.6009
C76 C -0.5755(2) -0.39258(7) -0.54255(11)
H91 H -0.5835 -0.4070 -0.4914
C77 C -0.25610(15) -0.35066(6) -1.14082(9)
C78 C -0.67143(18) -0.28267(7) -0.88442(10)
H92 H -0.7642 -0.2766 -0.9069
H93 H -0.6289 -0.2496 -0.8724
C79 C -0.15708(17) -0.25976(6) -1.17351(10)
H94 H -0.2354 -0.2386 -1.1721
C80 C -0.21950(17) -0.40160(6) -1.13345(9)
H95 H -0.2871 -0.4261 -1.1211
C81 C 0.02438(17) -0.38195(7) -1.16209(9)
H96 H 0.1167 -0.3924 -1.1689
C82 C -0.45952(17) -0.35238(7) -0.83378(10)
H97 H -0.5031 -0.3849 -0.8479
H98 H -0.3670 -0.3594 -0.8115
C83 C -0.49944(16) -0.36195(6) -1.10427(10)
H99 H -0.4737 -0.3800 -1.0550
H100 H -0.5257 -0.3869 -1.1453
C84 C -0.58245(19) -0.31829(7) -0.62904(10)
C85 C -0.68230(17) -0.31399(7) -0.80781(10)
H101 H -0.7368 -0.2951 -0.7685
H102 H -0.7308 -0.3459 -0.8195
C86 C -0.6137(4) -0.23350(9) -0.57705(14)
H103 H -0.6190 -0.1986 -0.5956
H104 H -0.5353 -0.2372 -0.5407
H105 H -0.6984 -0.2422 -0.5495
C87 C -0.5936(2) -0.34036(7) -0.55286(10)
H106 H -0.6133 -0.3198 -0.5084
C88 C -0.44770(17) -0.31889(8) -0.90842(10)
H107 H -0.4055 -0.2862 -0.8940
H108 H -0.3884 -0.3356 -0.9478
loop_
_geom_bond_atom_site_label_1
_geom_bond_atom_site_label_2
_geom_bond_site_symmetry_1
_geom_bond_site_symmetry_2
O1 C14 1_555 1_555
N1 C8 1_555 1_555
O2 C2 1_555 1_555
O3 H1 1_555 1_555
N2 H2 1_555 1_555
C1 H3 1_555 1_555
N3 C13 1_555 1_555
C2 C4 1_555 1_555
C3 H4 1_555 1_555
C4 C1 1_555 1_555
C5 H5 1_555 1_555
C6 N2 1_555 1_555
H6 C6 1_555 1_555
C7 C2 1_555 1_555
H7 C7 1_555 1_555
C8 H8 1_555 1_555
H9 C8 1_555 1_555
C9 N2 1_555 1_555
C10 O3 1_555 1_555
H10 C10 1_555 1_555
C11 N1 1_555 1_555
H11 C11 1_555 1_555
H12 C11 1_555 1_555
C12 H13 1_555 1_555
C13 C11 1_555 1_555
H14 C13 1_555 1_555
H15 C13 1_555 1_555
C14 C20 1_555 1_555
C15 C3 1_555 1_555
H16 C15 1_555 1_555
C16 O1 1_555 1_555
H17 C16 1_555 1_555
H18 C16 1_555 1_555
H19 C16 1_555 1_555
C17 C5 1_555 1_555
H20 C17 1_555 1_555
C18 O2 1_555 1_555
H21 C18 1_555 1_555
H22 C18 1_555 1_555
C19 N3 1_555 1_555
H23 C19 1_555 1_555
H24 C19 1_555 1_555
C20 N3 1_555 1_555
C21 N1 1_555 1_555
H25 C21 1_555 1_555
H26 C21 1_555 1_555
C22 C12 1_555 1_555
H27 C22 1_555 1_555
O4 C27 1_555 1_555
O5 C24 1_555 1_555
C23 C31 1_555 1_555
N4 C28 1_555 1_555
O6 H28 1_555 1_555
C24 H29 1_555 1_555
H30 C24 1_555 1_555
N5 C30 1_555 1_555
C25 H31 1_555 1_555
C26 C25 1_555 1_555
H32 C26 1_555 1_555
N6 H33 1_555 1_555
C27 C41 1_555 1_555
C28 H34 1_555 1_555
H35 C28 1_555 1_555
C29 H36 1_555 1_555
C30 C28 1_555 1_555
H37 C30 1_555 1_555
H38 C30 1_555 1_555
C31 N6 1_555 1_555
C32 N6 1_555 1_555
H39 C32 1_555 1_555
C33 O5 1_555 1_555
C34 C29 1_555 1_555
H40 C34 1_555 1_555
C35 N5 1_555 1_555
H41 C35 1_555 1_555
H42 C35 1_555 1_555
C36 C23 1_555 1_555
H43 C36 1_555 1_555
C37 C25 1_555 1_555
H44 C37 1_555 1_555
C38 O6 1_555 1_555
H45 C38 1_555 1_555
C39 N5 1_555 1_555
H46 C39 1_555 1_555
H47 C39 1_555 1_555
C40 C34 1_555 1_555
H48 C40 1_555 1_555
C41 N4 1_555 1_555
C42 C27 1_555 1_555
H49 C42 1_555 1_555
C43 O4 1_555 1_555
H50 C43 1_555 1_555
H51 C43 1_555 1_555
H52 C43 1_555 1_555
C44 N4 1_555 1_555
H53 C44 1_555 1_555
H54 C44 1_555 1_555
O7 C53 1_555 1_555
O8 H55 1_555 1_555
N7 C55 1_555 1_555
O9 C54 1_555 1_555
C45 H56 1_555 1_555
C46 H57 1_555 1_555
C47 H58 1_555 1_555
C48 C49 1_555 1_555
C49 C47 1_555 1_555
H59 C49 1_555 1_555
N8 C47 1_555 1_555
H60 N8 1_555 1_555
C50 O8 1_555 1_555
H61 C50 1_555 1_555
N9 C56 1_555 1_555
C51 C46 1_555 1_555
H62 C51 1_555 1_555
C52 C45 1_555 1_555
H63 C52 1_555 1_555
C53 C46 1_555 1_555
C54 C58 1_555 1_555
C55 H64 1_555 1_555
H65 C55 1_555 1_555
C56 C55 1_555 1_555
H66 C56 1_555 1_555
H67 C56 1_555 1_555
C57 N7 1_555 1_555
H68 C57 1_555 1_555
H69 C57 1_555 1_555
C58 N9 1_555 1_555
C59 C45 1_555 1_555
H70 C59 1_555 1_555
C60 N9 1_555 1_555
H71 C60 1_555 1_555
H72 C60 1_555 1_555
C61 O7 1_555 1_555
H73 C61 1_555 1_555
H74 C61 1_555 1_555
C62 N7 1_555 1_555
H75 C62 1_555 1_555
H76 C62 1_555 1_555
C63 C48 1_555 1_555
C64 O9 1_555 1_555
H77 C64 1_555 1_555
H78 C64 1_555 1_555
H79 C64 1_555 1_555
C65 C51 1_555 1_555
H80 C65 1_555 1_555
C66 C54 1_555 1_555
H81 C66 1_555 1_555
N10 C72 1_555 1_555
O10 C77 1_555 1_555
O11 C84 1_555 1_555
C67 H82 1_555 1_555
C68 H83 1_555 1_555
C69 N11 1_555 1_555
N11 C82 1_555 1_555
C70 C69 1_555 1_555
H84 C70 1_555 1_555
C71 C74 1_555 1_555
O12 H85 1_555 1_555
C72 H86 1_555 1_555
H87 C72 1_555 1_555
C73 O12 1_555 1_555
H88 C73 1_555 1_555
N12 C67 1_555 1_555
H89 N12 1_555 1_555
C74 N12 1_555 1_555
C75 C70 1_555 1_555
H90 C75 1_555 1_555
C76 C75 1_555 1_555
H91 C76 1_555 1_555
C77 C71 1_555 1_555
C78 N10 1_555 1_555
H92 C78 1_555 1_555
H93 C78 1_555 1_555
C79 C67 1_555 1_555
H94 C79 1_555 1_555
C80 C68 1_555 1_555
H95 C80 1_555 1_555
C81 C68 1_555 1_555
H96 C81 1_555 1_555
C82 H97 1_555 1_555
H98 C82 1_555 1_555
C83 O10 1_555 1_555
H99 C83 1_555 1_555
H100 C83 1_555 1_555
C84 C69 1_555 1_555
C85 N11 1_555 1_555
H101 C85 1_555 1_555
H102 C85 1_555 1_555
C86 O11 1_555 1_555
H103 C86 1_555 1_555
H104 C86 1_555 1_555
H105 C86 1_555 1_555
C87 C76 1_555 1_555
H106 C87 1_555 1_555
C88 N10 1_555 1_555
H107 C88 1_555 1_555
H108 C88 1_555 1_555
C1 C6 1_555 1_555
C3 C20 1_555 1_555
C4 C9 1_555 1_555
C5 C9 1_555 1_555
C7 C17 1_555 1_555
C8 C10 1_555 1_555
C10 C18 1_555 1_555
C12 C15 1_555 1_555
C14 C22 1_555 1_555
C19 C21 1_555 1_555
C23 C33 1_555 1_555
C24 C38 1_555 1_555
C26 C33 1_555 1_555
C29 C41 1_555 1_555
C31 C37 1_555 1_555
C32 C36 1_555 1_555
C35 C38 1_555 1_555
C39 C44 1_555 1_555
C40 C42 1_555 1_555
C48 C53 1_555 1_555
N8 C63 1_555 1_555
C50 C61 1_555 1_555
C50 C62 1_555 1_555
C52 C58 1_555 1_555
C57 C60 1_555 1_555
C59 C66 1_555 1_555
C63 C65 1_555 1_555
C71 C79 1_555 1_555
C72 C73 1_555 1_555
C73 C83 1_555 1_555
C74 C81 1_555 1_555
C77 C80 1_555 1_555
C78 C85 1_555 1_555
C82 C88 1_555 1_555
C84 C87 1_555 1_555

#END
