
#######################################################################
#
#                 Cambridge Crystallographic Data Centre
#                                CCDC 
#
#######################################################################
#
# If this CIF has been generated from an entry in the Cambridge 
# Structural Database, then it will include bibliographic, chemical, 
# crystal, experimental, refinement or atomic coordinate data resulting 
# from the CCDC's data processing and validation procedures.
#
#######################################################################

data_COSPUX
_chemical_formula_moiety         'C17 H17 N1 O5 S1'
_chemical_name_systematic        
'dimethyl 4-benzoyl-5-(dimethylamino)thiophene-2,3-dicarboxylate'
_symmetry_cell_setting           monoclinic
_symmetry_space_group_name_H-M   'P 21'
_symmetry_Int_Tables_number      4
_space_group_name_Hall           'P 2yb'
loop_
_symmetry_equiv_pos_site_id
_symmetry_equiv_pos_as_xyz
1 x,y,z
2 -x,1/2+y,-z
_cell_length_a                   9.7645(9)
_cell_length_b                   7.4690(7)
_cell_length_c                   11.4907(11)
_cell_angle_alpha                90
_cell_angle_beta                 95.351(2)
_cell_angle_gamma                90
_cell_volume                     834.377
_exptl_crystal_colour            yellow
_exptl_crystal_description       block
_cell_formula_units_Z            2
loop_
_atom_site_label
_atom_site_type_symbol
_atom_site_fract_x
_atom_site_fract_y
_atom_site_fract_z
S1 S 0.93122(4) 0.55236(6) 0.47860(4)
N1 N 0.67831(17) 0.6320(2) 0.52863(14)
O1 O 1.19828(18) 0.4893(3) 0.38461(18)
O2 O 1.13469(15) 0.5943(2) 0.20552(13)
O3 O 0.83261(14) 0.78515(19) 0.08683(11)
O4 O 1.00509(16) 0.9412(2) 0.18278(12)
O5 O 0.52674(14) 0.7410(2) 0.27902(13)
C1 C 0.98621(19) 0.6358(2) 0.35048(15)
C2 C 0.88764(17) 0.7398(2) 0.29152(14)
C3 C 0.76227(17) 0.7493(2) 0.34480(15)
C4 C 0.77048(18) 0.6510(2) 0.44974(15)
C5 C 0.7164(2) 0.5242(4) 0.63159(19)
H1 H 0.7488 0.4068 0.6077
H2 H 0.6362 0.5085 0.6759
H3 H 0.7899 0.5844 0.6807
C6 C 0.55988(19) 0.7493(3) 0.53123(18)
H4 H 0.5825 0.8681 0.5023
H5 H 0.5351 0.7595 0.6117
H6 H 0.4822 0.6994 0.4815
C7 C 0.63474(18) 0.8259(2) 0.28511(15)
C8 C 0.63838(18) 1.0079(2) 0.23263(15)
C9 C 0.7370(2) 1.1336(2) 0.27193(17)
H7 H 0.8063 1.1034 0.3323
C10 C 0.7340(3) 1.3043(3) 0.2223(2)
H8 H 0.8024 1.3897 0.2480
C11 C 0.6317(3) 1.3497(3) 0.1359(2)
H9 H 0.6297 1.4663 0.1028
C12 C 0.5319(2) 1.2252(3) 0.09731(17)
H10 H 0.4618 1.2564 0.0379
C13 C 0.53497(18) 1.0555(3) 0.14575(15)
H11 H 0.4663 0.9707 0.1198
C14 C 0.90390(18) 0.8218(2) 0.17479(15)
C15 C 1.0337(3) 1.0271(4) 0.0754(2)
H12 H 1.0544 0.9360 0.0182
H13 H 1.1129 1.1072 0.0904
H14 H 0.9533 1.0966 0.0445
C16 C 1.11709(18) 0.5666(3) 0.31728(17)
C17 C 1.2617(2) 0.5253(4) 0.1668(2)
H15 H 1.3402 0.5803 0.2128
H16 H 1.2657 0.5539 0.0839
H17 H 1.2650 0.3951 0.1774
loop_
_geom_bond_atom_site_label_1
_geom_bond_atom_site_label_2
_geom_bond_site_symmetry_1
_geom_bond_site_symmetry_2
S1 C1 1_555 1_555
N1 C4 1_555 1_555
O1 C16 1_555 1_555
O2 C16 1_555 1_555
O3 C14 1_555 1_555
O4 C14 1_555 1_555
O5 C7 1_555 1_555
C1 C2 1_555 1_555
C2 C3 1_555 1_555
C3 C4 1_555 1_555
C4 S1 1_555 1_555
C5 N1 1_555 1_555
H1 C5 1_555 1_555
H2 C5 1_555 1_555
H3 C5 1_555 1_555
C6 N1 1_555 1_555
H4 C6 1_555 1_555
H5 C6 1_555 1_555
H6 C6 1_555 1_555
C7 C3 1_555 1_555
C8 C7 1_555 1_555
C9 C8 1_555 1_555
H7 C9 1_555 1_555
C10 C9 1_555 1_555
H8 C10 1_555 1_555
C11 C10 1_555 1_555
H9 C11 1_555 1_555
C12 C11 1_555 1_555
H10 C12 1_555 1_555
C13 C8 1_555 1_555
H11 C13 1_555 1_555
C14 C2 1_555 1_555
C15 O4 1_555 1_555
H12 C15 1_555 1_555
H13 C15 1_555 1_555
H14 C15 1_555 1_555
C16 C1 1_555 1_555
C17 O2 1_555 1_555
H15 C17 1_555 1_555
H16 C17 1_555 1_555
H17 C17 1_555 1_555
C12 C13 1_555 1_555

#END
