
#######################################################################
#
#                 Cambridge Crystallographic Data Centre
#                                CCDC 
#
#######################################################################
#
# If this CIF has been generated from an entry in the Cambridge 
# Structural Database, then it will include bibliographic, chemical, 
# crystal, experimental, refinement or atomic coordinate data resulting 
# from the CCDC's data processing and validation procedures.
#
#######################################################################

data_COSVUD
_chemical_formula_moiety         'C24 H19 Br1'
_chemical_name_systematic        2-Bromo-4-phenyl-1-(2-phenylethyl)naphthalene
_symmetry_cell_setting           triclinic
_symmetry_space_group_name_H-M   'P -1'
_symmetry_Int_Tables_number      2
_space_group_name_Hall           '-P 1'
loop_
_symmetry_equiv_pos_site_id
_symmetry_equiv_pos_as_xyz
1 x,y,z
2 -x,-y,-z
_cell_length_a                   9.4179(10)
_cell_length_b                   9.9520(12)
_cell_length_c                   11.0905(12)
_cell_angle_alpha                94.288(9)
_cell_angle_beta                 108.773(9)
_cell_angle_gamma                108.953(10)
_cell_volume                     911.973
_exptl_crystal_colour            colorless
_exptl_crystal_description       block
_cell_formula_units_Z            2
loop_
_atom_site_label
_atom_site_type_symbol
_atom_site_fract_x
_atom_site_fract_y
_atom_site_fract_z
Br1 Br 0.32340(5) 0.32492(6) 0.42202(4)
C1 C 0.5073(4) 0.2703(5) 0.4661(3)
C2 C 0.5960(4) 0.3002(5) 0.3846(3)
H1 H 0.5642 0.3452 0.3157
C3 C 0.7287(4) 0.2640(4) 0.4055(3)
C4 C 0.7782(4) 0.1962(4) 0.5120(3)
C5 C 0.6863(4) 0.1675(4) 0.5936(3)
C6 C 0.5473(4) 0.2059(4) 0.5693(3)
C7 C 0.7411(5) 0.1022(5) 0.7004(4)
H2 H 0.6824 0.0809 0.7545
C8 C 0.8745(6) 0.0702(5) 0.7257(4)
H3 H 0.9069 0.0284 0.7967
C9 C 0.9656(5) 0.0995(5) 0.6458(4)
H4 H 1.0579 0.0773 0.6639
C10 C 0.9179(5) 0.1605(5) 0.5417(4)
H5 H 0.9783 0.1791 0.4888
C11 C 0.8210(4) 0.2981(5) 0.3169(3)
C12 C 0.8991(5) 0.4396(5) 0.3137(4)
H6 H 0.8976 0.5135 0.3693
C13 C 0.9801(5) 0.4748(6) 0.2295(4)
H7 H 1.0339 0.5715 0.2296
C14 C 0.9808(6) 0.3674(7) 0.1464(4)
H8 H 1.0331 0.3904 0.0883
C15 C 0.9036(6) 0.2243(7) 0.1487(4)
H9 H 0.9055 0.1511 0.0927
C16 C 0.8238(5) 0.1888(5) 0.2332(4)
H10 H 0.7719 0.0920 0.2341
C17 C 0.4561(4) 0.1815(5) 0.6609(3)
H11 H 0.4529 0.0913 0.6897
H12 H 0.3459 0.1734 0.6152
C18 C 0.5366(5) 0.3070(5) 0.7794(4)
H13 H 0.6475 0.3164 0.8237
H14 H 0.5379 0.3967 0.7503
C19 C 0.4499(5) 0.2836(5) 0.8734(3)
C20 C 0.3461(6) 0.3510(6) 0.8769(4)
H15 H 0.3285 0.4132 0.8201
C21 C 0.2670(6) 0.3291(8) 0.9624(5)
H16 H 0.1980 0.3777 0.9635
C22 C 0.2879(6) 0.2381(7) 1.0447(4)
H17 H 0.2323 0.2225 1.1013
C23 C 0.3912(7) 0.1693(7) 1.0442(4)
H18 H 0.4066 0.1061 1.1005
C24 C 0.4740(6) 0.1941(6) 0.9590(4)
H19 H 0.5467 0.1489 0.9605
loop_
_geom_bond_atom_site_label_1
_geom_bond_atom_site_label_2
_geom_bond_site_symmetry_1
_geom_bond_site_symmetry_2
Br1 C1 1_555 1_555
C1 C2 1_555 1_555
C2 H1 1_555 1_555
C3 C2 1_555 1_555
C4 C3 1_555 1_555
C5 C4 1_555 1_555
C6 C1 1_555 1_555
C7 C5 1_555 1_555
H2 C7 1_555 1_555
C8 C7 1_555 1_555
H3 C8 1_555 1_555
C9 C8 1_555 1_555
H4 C9 1_555 1_555
C10 C4 1_555 1_555
H5 C10 1_555 1_555
C11 C3 1_555 1_555
C12 C11 1_555 1_555
H6 C12 1_555 1_555
C13 C12 1_555 1_555
H7 C13 1_555 1_555
C14 C13 1_555 1_555
H8 C14 1_555 1_555
C15 C14 1_555 1_555
H9 C15 1_555 1_555
C16 C11 1_555 1_555
H10 C16 1_555 1_555
C17 C6 1_555 1_555
H11 C17 1_555 1_555
H12 C17 1_555 1_555
C18 C17 1_555 1_555
H13 C18 1_555 1_555
H14 C18 1_555 1_555
C19 C18 1_555 1_555
C20 C19 1_555 1_555
H15 C20 1_555 1_555
C21 C20 1_555 1_555
H16 C21 1_555 1_555
C22 C21 1_555 1_555
H17 C22 1_555 1_555
C23 C22 1_555 1_555
H18 C23 1_555 1_555
C24 C19 1_555 1_555
H19 C24 1_555 1_555
C5 C6 1_555 1_555
C9 C10 1_555 1_555
C15 C16 1_555 1_555
C23 C24 1_555 1_555

#END
