
#######################################################################
#
#                 Cambridge Crystallographic Data Centre
#                                CCDC 
#
#######################################################################
#
# If this CIF has been generated from an entry in the Cambridge 
# Structural Database, then it will include bibliographic, chemical, 
# crystal, experimental, refinement or atomic coordinate data resulting 
# from the CCDC's data processing and validation procedures.
#
#######################################################################

data_COSVAJ
_chemical_formula_moiety         'C15 H12 Br1 N3'
_chemical_name_systematic        
1-(4-Bromophenyl)-4-(4-methylphenyl)-1H-1,2,3-triazole
_symmetry_cell_setting           monoclinic
_symmetry_space_group_name_H-M   'I 2/c'
_symmetry_Int_Tables_number      15
_space_group_name_Hall           '-I 2yc'
loop_
_symmetry_equiv_pos_site_id
_symmetry_equiv_pos_as_xyz
1 x,y,z
2 -x,y,1/2-z
3 1/2+x,1/2+y,1/2+z
4 1/2-x,1/2+y,-z
5 -x,-y,-z
6 x,-y,1/2+z
7 1/2-x,1/2-y,1/2-z
8 1/2+x,1/2-y,z
_cell_length_a                   7.3641(5)
_cell_length_b                   5.6583(4)
_cell_length_c                   31.688(2)
_cell_angle_alpha                90
_cell_angle_beta                 93.358(6)
_cell_angle_gamma                90
_cell_volume                     1318.12
_cell_formula_units_Z            4
loop_
_atom_site_label
_atom_site_type_symbol
_atom_site_fract_x
_atom_site_fract_y
_atom_site_fract_z
N1 N 0.4797(5) 0.1599(5) 0.2700(1)
C1 C 0.3378(5) 0.5540(8) 0.4084(1)
C2 C 0.4228(6) 0.3398(7) 0.3988(1)
H1 H 0.4509 0.2321 0.4204
C3 C 0.4653(5) 0.2862(7) 0.3583(1)
H2 H 0.5230 0.1443 0.3527
C4 C 0.4218(5) 0.4453(6) 0.3252(1)
C5 C 0.3397(5) 0.6597(6) 0.3341(1)
H3 H 0.3130 0.7681 0.3126
C6 C 0.2979(5) 0.7112(7) 0.3753(1)
H4 H 0.2420 0.8542 0.3809
C7 C 0.5000 0.5342(9) 0.2500
H5 H 0.5000 0.6985 0.2500
Br1 Br 0.2796(1) 0.6192(2) 0.4614
N2 N 0.4663(5) 0.3889(5) 0.2827(1)
N1A N 0.5203(5) 0.1599(5) 0.2300(1)
C1A C 0.6622(5) 0.5540(8) 0.0916(1)
C2A C 0.5772(6) 0.3398(7) 0.1012(1)
H1A H 0.5491 0.2321 0.0796
C3A C 0.5347(5) 0.2862(7) 0.1417(1)
H2A H 0.4770 0.1443 0.1473
C4A C 0.5782(5) 0.4453(6) 0.1748(1)
C5A C 0.6603(5) 0.6597(6) 0.1659(1)
H3A H 0.6870 0.7681 0.1874
C6A C 0.7021(5) 0.7112(7) 0.1247(1)
H4A H 0.7580 0.8542 0.1191
Br1A Br 0.7204(1) 0.6192(2) 0.0386
N2A N 0.5337(5) 0.3889(5) 0.2173(1)
C8? C 0.2796(1) 0.6192(2) 0.4614
H6? H 0.3680 0.5494 0.4811
H7? H 0.2781 0.7873 0.4655
H8? H 0.1615 0.5557 0.4661
C9? C 0.4663(5) 0.3889(5) 0.2827(1)
loop_
_geom_bond_atom_site_label_1
_geom_bond_atom_site_label_2
_geom_bond_site_symmetry_1
_geom_bond_site_symmetry_2
N1 N2 1_555 1_555
C1 C2 1_555 1_555
C2 H1 1_555 1_555
C3 C2 1_555 1_555
H2 C3 1_555 1_555
C4 C3 1_555 1_555
C5 C4 1_555 1_555
H3 C5 1_555 1_555
C6 C1 1_555 1_555
H4 C6 1_555 1_555
C7 H5 1_555 1_555
Br1 C1 1_555 1_555
N2 C4 1_555 1_555
N1A N1 1_555 1_555
C1A C2A 1_555 1_555
C2A H1A 1_555 1_555
C3A C2A 1_555 1_555
H2A C3A 1_555 1_555
C4A C3A 1_555 1_555
C5A C4A 1_555 1_555
H3A C5A 1_555 1_555
C6A C1A 1_555 1_555
H4A C6A 1_555 1_555
Br1A C1A 1_555 1_555
N2A C7 1_555 1_555
C5 C6 1_555 1_555
C7 N2 1_555 1_555
N1A N2A 1_555 1_555
C4A N2A 1_555 1_555
C5A C6A 1_555 1_555

#END
