
#######################################################################
#
#                 Cambridge Crystallographic Data Centre
#                                CCDC 
#
#######################################################################
#
# If this CIF has been generated from an entry in the Cambridge 
# Structural Database, then it will include bibliographic, chemical, 
# crystal, experimental, refinement or atomic coordinate data resulting 
# from the CCDC's data processing and validation procedures.
#
#######################################################################

data_COSWIS
_chemical_formula_moiety         'C9 H13 N3 O1'
_chemical_name_systematic        
3-(1-Butyl-1H-1,2,3-triazol-4-yl)acrylaldehyde
_symmetry_cell_setting           rhombohedral
_symmetry_space_group_name_H-M   'R -3'
_symmetry_Int_Tables_number      148
_space_group_name_Hall           '-R 3'
loop_
_symmetry_equiv_pos_site_id
_symmetry_equiv_pos_as_xyz
1 x,y,z
2 -y,x-y,z
3 -x+y,-x,z
4 2/3+x,1/3+y,1/3+z
5 2/3-y,1/3+x-y,1/3+z
6 2/3-x+y,1/3-x,1/3+z
7 1/3+x,2/3+y,2/3+z
8 1/3-y,2/3+x-y,2/3+z
9 1/3-x+y,2/3-x,2/3+z
10 -x,-y,-z
11 y,-x+y,-z
12 x-y,x,-z
13 1/3-x,2/3-y,2/3-z
14 1/3+y,2/3-x+y,2/3-z
15 1/3+x-y,2/3+x,2/3-z
16 2/3-x,1/3-y,1/3-z
17 2/3+y,1/3-x+y,1/3-z
18 2/3+x-y,1/3+x,1/3-z
_cell_length_a                   31.114(3)
_cell_length_b                   31.114(3)
_cell_length_c                   5.4546(5)
_cell_angle_alpha                90
_cell_angle_beta                 90
_cell_angle_gamma                120
_cell_volume                     4573.04
_cell_formula_units_Z            18
loop_
_atom_site_label
_atom_site_type_symbol
_atom_site_fract_x
_atom_site_fract_y
_atom_site_fract_z
O1 O 0.37830(8) 0.39676(8) 1.0652(4)
N1 N 0.53271(8) 0.45634(8) 0.2896(3)
N2 N 0.58062(8) 0.48368(8) 0.2790(3)
N3 N 0.59664(7) 0.50002(7) 0.5069(3)
C1 C 0.39544(9) 0.39977(9) 0.8646(5)
H1 H 0.3735 0.3850 0.7348
C2 C 0.44789(9) 0.42487(9) 0.8118(4)
H2 H 0.4701 0.4394 0.9408
C3 C 0.46569(8) 0.42812(8) 0.5897(4)
H3 H 0.4429 0.4121 0.4643
C4 C 0.51723(8) 0.45426(7) 0.5248(4)
C5 C 0.55885(8) 0.48258(8) 0.6620(4)
H4 H 0.5603 0.4884 0.8299
C6 C 0.64962(10) 0.53190(10) 0.5542(5)
H5 H 0.6545 0.5601 0.6514
H6 H 0.6667 0.5444 0.3994
C7 C 0.67176(12) 0.50617(16) 0.6838(7)
H7 H 0.6543 0.4933 0.8376
H8 H 0.7061 0.5300 0.7221
C8 C 0.67007(19) 0.4648(2) 0.5416(14)
H9 H 0.6356 0.4386 0.5328
H10 H 0.6805 0.4766 0.3756
C9 C 0.6979(3) 0.4432(3) 0.6214(17)
H11 H 0.6898 0.4145 0.5235
H12 H 0.6904 0.4336 0.7902
H13 H 0.7327 0.4668 0.6049
loop_
_geom_bond_atom_site_label_1
_geom_bond_atom_site_label_2
_geom_bond_site_symmetry_1
_geom_bond_site_symmetry_2
O1 C1 1_555 1_555
N1 N2 1_555 1_555
N2 N3 1_555 1_555
N3 C5 1_555 1_555
C1 H1 1_555 1_555
C2 C1 1_555 1_555
H2 C2 1_555 1_555
C3 C2 1_555 1_555
H3 C3 1_555 1_555
C4 N1 1_555 1_555
C5 C4 1_555 1_555
H4 C5 1_555 1_555
C6 N3 1_555 1_555
H5 C6 1_555 1_555
H6 C6 1_555 1_555
C7 C6 1_555 1_555
H7 C7 1_555 1_555
H8 C7 1_555 1_555
C8 C7 1_555 1_555
H9 C8 1_555 1_555
H10 C8 1_555 1_555
C9 C8 1_555 1_555
H11 C9 1_555 1_555
H12 C9 1_555 1_555
H13 C9 1_555 1_555
C3 C4 1_555 1_555

#END
