
#######################################################################
#
#                 Cambridge Crystallographic Data Centre
#                                CCDC 
#
#######################################################################
#
# If this CIF has been generated from an entry in the Cambridge 
# Structural Database, then it will include bibliographic, chemical, 
# crystal, experimental, refinement or atomic coordinate data resulting 
# from the CCDC's data processing and validation procedures.
#
#######################################################################

data_COTGAV
_chemical_formula_moiety         'C13 H12 Br1 N3 O1'
_chemical_name_systematic        
4-(1-(4-bromobenzyl)-1H-1,2,3-triazol-4-yl)but-3-en-2-one
_symmetry_cell_setting           monoclinic
_symmetry_space_group_name_H-M   'P 21/c'
_symmetry_Int_Tables_number      14
_space_group_name_Hall           '-P 2ybc'
loop_
_symmetry_equiv_pos_site_id
_symmetry_equiv_pos_as_xyz
1 x,y,z
2 -x,1/2+y,1/2-z
3 -x,-y,-z
4 x,1/2-y,1/2+z
_cell_length_a                   8.6857(4)
_cell_length_b                   5.5312(3)
_cell_length_c                   26.9976(15)
_cell_angle_alpha                90
_cell_angle_beta                 95.174(5)
_cell_angle_gamma                90
_cell_volume                     1291.74
_cell_formula_units_Z            4
loop_
_atom_site_label
_atom_site_type_symbol
_atom_site_fract_x
_atom_site_fract_y
_atom_site_fract_z
Br1 Br 0.29788(5) 0.19764(9) 0.03259(2)
N1 N 0.0804(3) 0.8224(5) -0.18284(10)
C1 C 0.3291(4) 0.8060(7) -0.28222(15)
H1 H 0.3702 0.9409 -0.2968
C2 C 0.1992(4) 0.6865(7) -0.07975(16)
H2 H 0.2467 0.8235 -0.0913
C3 C -0.0208(5) 0.7536(7) -0.14549(15)
H3 H -0.1048 0.6569 -0.1611
H4 H -0.0652 0.8985 -0.1324
O1 O 0.4664(4) 0.3452(5) -0.35417(11)
N2 N 0.1974(4) 1.0667(5) -0.22721(12)
C4 C 0.2003(4) 0.3661(7) -0.02286(12)
C5 C 0.2308(4) 0.8439(7) -0.24145(12)
C6 C 0.1567(4) 0.6850(7) -0.21333(14)
H5 H 0.1587 0.5171 -0.2149
N3 N 0.1059(4) 1.0549(6) -0.19193(11)
C7 C 0.0619(5) 0.2861(7) -0.04527(15)
H6 H 0.0153 0.1485 -0.0336
C8 C 0.3612(4) 0.5968(7) -0.29865(15)
H7 H 0.3255 0.4630 -0.2822
C9 C 0.5194(5) 0.7510(7) -0.37020(17)
H8 H 0.5781 0.6852 -0.3955
H9 H 0.5860 0.8466 -0.3476
H10 H 0.4378 0.8506 -0.3853
C10 C -0.0072(4) 0.4122(7) -0.08520(13)
H11 H -0.1017 0.3594 -0.1003
C11 C 0.2694(4) 0.5636(7) -0.04007(14)
H12 H 0.3641 0.6157 -0.0250
C12 C 0.0599(4) 0.6123(6) -0.10300(12)
C13 C 0.4522(4) 0.5507(8) -0.34252(14)
loop_
_geom_bond_atom_site_label_1
_geom_bond_atom_site_label_2
_geom_bond_site_symmetry_1
_geom_bond_site_symmetry_2
Br1 C4 1_555 1_555
N1 C3 1_555 1_555
C1 H1 1_555 1_555
C2 H2 1_555 1_555
C3 H3 1_555 1_555
H4 C3 1_555 1_555
O1 C13 1_555 1_555
N2 C5 1_555 1_555
C4 C7 1_555 1_555
C5 C1 1_555 1_555
C6 N1 1_555 1_555
H5 C6 1_555 1_555
N3 N1 1_555 1_555
C7 H6 1_555 1_555
C8 C1 1_555 1_555
H7 C8 1_555 1_555
C9 H8 1_555 1_555
H9 C9 1_555 1_555
H10 C9 1_555 1_555
C10 C7 1_555 1_555
H11 C10 1_555 1_555
C11 C2 1_555 1_555
H12 C11 1_555 1_555
C12 C2 1_555 1_555
C13 C8 1_555 1_555
C3 C12 1_555 1_555
N2 N3 1_555 1_555
C4 C11 1_555 1_555
C5 C6 1_555 1_555
C9 C13 1_555 1_555
C10 C12 1_555 1_555

#END
