
#######################################################################
#
#                 Cambridge Crystallographic Data Centre
#                                CCDC 
#
#######################################################################
#
# If this CIF has been generated from an entry in the Cambridge 
# Structural Database, then it will include bibliographic, chemical, 
# crystal, experimental, refinement or atomic coordinate data resulting 
# from the CCDC's data processing and validation procedures.
#
#######################################################################

data_COTMOP
_chemical_formula_moiety         'C44 H44 N6 O10,2(C1 H1 Cl3)'
_chemical_name_systematic        
'diethyl 1,4-bis(benzoylamino)-8,11-dimethoxy-2,3-dimethyl-6,13-dioxo-5,7,12,14-tetrahydro-5a,6a,12a,13a-tetraazabenzo[5,6]azuleno[2,1,8-ija]benzo[f]azulene-13b,13c-dicarboxylate chloroform solvate'
_symmetry_cell_setting           triclinic
_symmetry_space_group_name_H-M   'P -1'
_symmetry_Int_Tables_number      2
_space_group_name_Hall           '-P 1'
loop_
_symmetry_equiv_pos_site_id
_symmetry_equiv_pos_as_xyz
1 x,y,z
2 -x,-y,-z
_cell_length_a                   11.0037(13)
_cell_length_b                   13.2032(14)
_cell_length_c                   17.428(3)
_cell_angle_alpha                89.128(2)
_cell_angle_beta                 76.376(2)
_cell_angle_gamma                72.207(11)
_cell_volume                     2338.65
_exptl_crystal_colour            colorless
_exptl_crystal_description       block
_cell_formula_units_Z            2
loop_
_atom_site_label
_atom_site_type_symbol
_atom_site_fract_x
_atom_site_fract_y
_atom_site_fract_z
O1 O 0.0076(4) 0.8727(3) 0.3095(3)
O2 O 0.0941(4) 0.3561(3) 0.2207(3)
O3 O 0.4866(3) 0.7276(3) 0.3221(2)
O4 O 0.5811(4) 0.3097(3) 0.2371(2)
O5 O 0.6614(4) 0.5229(3) 0.0130(2)
O6 O 0.7104(4) 0.6534(3) 0.0679(2)
O7 O 0.9167(4) 0.4332(3) 0.0988(2)
O8 O 0.9130(3) 0.5779(3) 0.1667(2)
O9 O 0.7165(4) 0.2419(3) 0.4182(2)
O10 O 0.6548(4) 0.6639(3) 0.4878(2)
N1 N 0.2043(4) 0.7784(3) 0.3310(3)
H1 H 0.2700 0.7827 0.3501
N2 N 0.2867(4) 0.3507(4) 0.2470(3)
H2 H 0.3635 0.3093 0.2525
N3 N 0.5278(4) 0.6425(4) 0.2002(3)
N4 N 0.5707(4) 0.4557(3) 0.1615(3)
N5 N 0.6834(4) 0.5974(3) 0.2667(3)
N6 N 0.7181(4) 0.4129(3) 0.2338(3)
C1 C 0.2659(6) 1.0693(5) 0.3814(4)
H3 H 0.3502 1.0717 0.3842
C2 C 0.2546(5) 0.9749(4) 0.3574(4)
H4 H 0.3300 0.9137 0.3429
C3 C 0.1310(5) 0.9698(4) 0.3546(3)
C4 C 0.0243(5) 1.0612(5) 0.3744(4)
H5 H -0.0605 1.0601 0.3717
C5 C 0.0417(6) 1.1544(5) 0.3982(4)
H6 H -0.0325 1.2165 0.4127
C6 C 0.1615(6) 1.1594(5) 0.4014(4)
H7 H 0.1723 1.2241 0.4172
C7 C 0.1081(5) 0.8703(5) 0.3291(3)
C8 C 0.2092(5) 0.6744(4) 0.3049(3)
C9 C 0.3060(5) 0.6259(4) 0.2381(3)
C10 C 0.3292(5) 0.5184(4) 0.2174(3)
C11 C 0.2533(5) 0.4632(4) 0.2649(3)
C12 C 0.1521(5) 0.5129(4) 0.3305(3)
C13 C 0.1287(5) 0.6214(4) 0.3507(3)
C14 C 0.0772(5) 0.4504(5) 0.3851(4)
H8 H 0.1112 0.3751 0.3664
H9 H -0.0164 0.4783 0.3857
H10 H 0.0884 0.4575 0.4387
C15 C 0.0255(5) 0.6744(5) 0.4240(4)
H11 H 0.0508 0.6406 0.4707
H12 H -0.0593 0.6669 0.4212
H13 H 0.0178 0.7502 0.4277
C16 C 0.2073(5) 0.3044(4) 0.2224(3)
C17 C 0.2638(6) 0.1888(5) 0.1967(3)
C18 C 0.3977(7) 0.1360(6) 0.1740(4)
H14 H 0.4593 0.1721 0.1766
C19 C 0.4405(8) 0.0297(6) 0.1474(5)
H15 H 0.5323 -0.0062 0.1315
C20 C 0.3566(8) -0.0246(5) 0.1432(4)
H16 H 0.3884 -0.0975 0.1248
C21 C 0.2270(7) 0.0266(5) 0.1656(4)
H17 H 0.1672 -0.0115 0.1633
C22 C 0.1775(7) 0.1324(5) 0.1916(4)
H18 H 0.0851 0.1667 0.2061
C23 C 0.3936(5) 0.6846(4) 0.1898(3)
H19 H 0.3949 0.6769 0.1332
H20 H 0.3578 0.7614 0.2066
C24 C 0.4416(5) 0.4652(4) 0.1472(3)
H21 H 0.4379 0.3932 0.1353
H22 H 0.4306 0.5071 0.1003
C25 C 0.5575(5) 0.6624(4) 0.2701(3)
C26 C 0.6195(5) 0.3845(4) 0.2138(3)
C27 C 0.6190(5) 0.5459(4) 0.1563(3)
C28 C 0.6669(5) 0.5705(4) 0.0687(3)
C29 C 0.7536(6) 0.6951(5) -0.0078(4)
H23 H 0.6932 0.6963 -0.0421
H24 H 0.8434 0.6507 -0.0353
C30 C 0.7522(11) 0.8049(7) 0.0108(5)
H25 H 0.6619 0.8487 0.0352
H26 H 0.7856 0.8358 -0.0381
H27 H 0.8081 0.8027 0.0474
C31 C 0.7283(5) 0.5137(4) 0.2045(3)
C32 C 0.8665(5) 0.5017(4) 0.1509(3)
C33 C 1.0388(5) 0.5784(5) 0.1144(4)
H28 H 1.0370 0.5701 0.0584
H29 H 1.1118 0.5189 0.1253
C34 C 1.0577(6) 0.6835(5) 0.1305(4)
H30 H 0.9902 0.7412 0.1142
H31 H 1.1451 0.6836 0.1007
H32 H 1.0502 0.6940 0.1872
C35 C 0.7446(5) 0.5924(4) 0.3327(3)
H33 H 0.7177 0.6651 0.3580
H34 H 0.8412 0.5700 0.3116
C36 C 0.7867(5) 0.3607(4) 0.2933(3)
H35 H 0.8793 0.3603 0.2768
H36 H 0.7872 0.2856 0.2940
C37 C 0.7119(5) 0.5177(4) 0.3957(3)
C38 C 0.7284(5) 0.4116(4) 0.3773(3)
C39 C 0.6988(5) 0.3456(4) 0.4395(3)
C40 C 0.6556(5) 0.3875(5) 0.5167(4)
H37 H 0.6355 0.3432 0.5580
C41 C 0.6410(5) 0.4929(5) 0.5350(3)
H38 H 0.6122 0.5202 0.5885
C42 C 0.6684(5) 0.5578(4) 0.4752(3)
C43 C 0.6933(6) 0.1740(5) 0.4810(4)
H39 H 0.7584 0.1658 0.5124
H40 H 0.7008 0.1040 0.4588
H41 H 0.6047 0.2057 0.5149
C44 C 0.6074(6) 0.7081(5) 0.5667(4)
H42 H 0.5217 0.6983 0.5896
H43 H 0.5979 0.7844 0.5673
H44 H 0.6698 0.6723 0.5979
Cl1 Cl 0.29902(19) 0.14370(14) 0.76267(11)
Cl2 Cl 0.3664(2) 0.09150(17) 0.59466(12)
Cl3 Cl 0.34662(17) -0.07316(12) 0.70303(10)
C45 C 0.2844(6) 0.0636(5) 0.6887(4)
H45 H 0.1889 0.0806 0.6899
Cl4 Cl 0.9059(3) -0.0032(2) 0.1069(3)
Cl5 Cl 0.7246(4) 0.1144(4) 0.0210(2)
Cl6 Cl 0.87768(19) 0.21756(15) 0.08327(12)
C46 C 0.7968(10) 0.1225(7) 0.0973(6)
H46 H 0.7260 0.1432 0.1474
loop_
_geom_bond_atom_site_label_1
_geom_bond_atom_site_label_2
_geom_bond_site_symmetry_1
_geom_bond_site_symmetry_2
O1 C7 1_555 1_555
O2 C16 1_555 1_555
O3 C25 1_555 1_555
O4 C26 1_555 1_555
O5 C28 1_555 1_555
O6 C28 1_555 1_555
O7 C32 1_555 1_555
O8 C32 1_555 1_555
O9 C39 1_555 1_555
O10 C42 1_555 1_555
N1 H1 1_555 1_555
N2 H2 1_555 1_555
N3 C23 1_555 1_555
N4 C24 1_555 1_555
N5 C25 1_555 1_555
N6 C26 1_555 1_555
C1 H3 1_555 1_555
C2 C1 1_555 1_555
H4 C2 1_555 1_555
C3 C2 1_555 1_555
C4 C3 1_555 1_555
H5 C4 1_555 1_555
C5 C4 1_555 1_555
H6 C5 1_555 1_555
C6 C1 1_555 1_555
H7 C6 1_555 1_555
C7 N1 1_555 1_555
C8 N1 1_555 1_555
C9 C8 1_555 1_555
C10 C9 1_555 1_555
C11 N2 1_555 1_555
C12 C11 1_555 1_555
C13 C8 1_555 1_555
C14 C12 1_555 1_555
H8 C14 1_555 1_555
H9 C14 1_555 1_555
H10 C14 1_555 1_555
C15 C13 1_555 1_555
H11 C15 1_555 1_555
H12 C15 1_555 1_555
H13 C15 1_555 1_555
C16 N2 1_555 1_555
C17 C16 1_555 1_555
C18 C17 1_555 1_555
H14 C18 1_555 1_555
C19 C18 1_555 1_555
H15 C19 1_555 1_555
C20 C19 1_555 1_555
H16 C20 1_555 1_555
C21 C20 1_555 1_555
H17 C21 1_555 1_555
C22 C17 1_555 1_555
H18 C22 1_555 1_555
C23 C9 1_555 1_555
H19 C23 1_555 1_555
H20 C23 1_555 1_555
C24 C10 1_555 1_555
H21 C24 1_555 1_555
H22 C24 1_555 1_555
C25 N3 1_555 1_555
C26 N4 1_555 1_555
C27 N3 1_555 1_555
C28 C27 1_555 1_555
C29 O6 1_555 1_555
H23 C29 1_555 1_555
H24 C29 1_555 1_555
C30 C29 1_555 1_555
H25 C30 1_555 1_555
H26 C30 1_555 1_555
H27 C30 1_555 1_555
C31 N5 1_555 1_555
C32 C31 1_555 1_555
C33 O8 1_555 1_555
H28 C33 1_555 1_555
H29 C33 1_555 1_555
C34 C33 1_555 1_555
H30 C34 1_555 1_555
H31 C34 1_555 1_555
H32 C34 1_555 1_555
C35 N5 1_555 1_555
H33 C35 1_555 1_555
H34 C35 1_555 1_555
C36 N6 1_555 1_555
H35 C36 1_555 1_555
H36 C36 1_555 1_555
C37 C35 1_555 1_555
C38 C36 1_555 1_555
C39 C38 1_555 1_555
C40 C39 1_555 1_555
H37 C40 1_555 1_555
C41 C40 1_555 1_555
H38 C41 1_555 1_555
C42 C37 1_555 1_555
C43 O9 1_555 1_555
H39 C43 1_555 1_555
H40 C43 1_555 1_555
H41 C43 1_555 1_555
C44 O10 1_555 1_555
H42 C44 1_555 1_555
H43 C44 1_555 1_555
H44 C44 1_555 1_555
Cl1 C45 1_555 1_555
Cl2 C45 1_555 1_555
Cl3 C45 1_555 1_555
C45 H45 1_555 1_555
Cl4 C46 1_555 1_555
Cl5 C46 1_555 1_555
Cl6 C46 1_555 1_555
C46 H46 1_555 1_555
N4 C27 1_555 1_555
N6 C31 1_555 1_555
C3 C7 1_555 1_555
C5 C6 1_555 1_555
C10 C11 1_555 1_555
C12 C13 1_555 1_555
C21 C22 1_555 1_555
C27 C31 1_555 1_555
C37 C38 1_555 1_555
C41 C42 1_555 1_555

#END
