
#######################################################################
#
#                 Cambridge Crystallographic Data Centre
#                                CCDC 
#
#######################################################################
#
# If this CIF has been generated from an entry in the Cambridge 
# Structural Database, then it will include bibliographic, chemical, 
# crystal, experimental, refinement or atomic coordinate data resulting 
# from the CCDC's data processing and validation procedures.
#
#######################################################################

data_COTMIJ
_chemical_formula_moiety         'C44 H32 F10 N4 O8,C1 H1 Cl3'
_chemical_name_systematic        
'diethyl 1,4-dimethoxy-6,13-dioxo-8,11-bis(2-(pentafluorophenyl)vinyl)-5,7,12,14-tetrahydro-5a,6a,12a,13a-tetraazabenzo[5,6]azuleno[2,1,8-ija]benzo[f]azulene-13b,13c-dicarboxylate chloroform solvate'
_symmetry_cell_setting           triclinic
_symmetry_space_group_name_H-M   'P -1'
_symmetry_Int_Tables_number      2
_space_group_name_Hall           '-P 1'
loop_
_symmetry_equiv_pos_site_id
_symmetry_equiv_pos_as_xyz
1 x,y,z
2 -x,-y,-z
_cell_length_a                   10.8333(15)
_cell_length_b                   14.2199(19)
_cell_length_c                   15.066(2)
_cell_angle_alpha                93.122(2)
_cell_angle_beta                 108.057(2)
_cell_angle_gamma                99.045(2)
_cell_volume                     2165.95
_exptl_crystal_colour            colorless
_exptl_crystal_description       block
_cell_formula_units_Z            2
loop_
_atom_site_label
_atom_site_type_symbol
_atom_site_fract_x
_atom_site_fract_y
_atom_site_fract_z
C1 C 0.6141(3) 0.6380(2) 0.1867(2)
C2 C 0.5393(4) 0.6144(3) 0.0922(3)
C3 C 0.5939(5) 0.6292(3) 0.0205(3)
C4 C 0.7253(4) 0.6675(3) 0.0413(3)
C5 C 0.8000(4) 0.6938(3) 0.1335(3)
C6 C 0.7448(4) 0.6794(2) 0.2036(2)
C7 C 0.5605(4) 0.6220(3) 0.2647(2)
H1 H 0.5993 0.6649 0.3206
C8 C 0.4627(4) 0.5526(3) 0.2625(3)
H2 H 0.4254 0.5104 0.2060
C9 C 0.4047(3) 0.5331(2) 0.3378(2)
C10 C 0.3063(3) 0.4527(2) 0.3286(2)
C11 C 0.2456(3) 0.4404(2) 0.3982(2)
C12 C 0.2882(3) 0.5050(2) 0.4814(2)
C13 C 0.3886(3) 0.5843(2) 0.4897(2)
H3 H 0.4184 0.6289 0.5445
C14 C 0.4441(3) 0.5982(2) 0.4202(2)
H4 H 0.5107 0.6528 0.4275
C15 C 0.2287(3) 0.4888(2) 0.5553(2)
H5 H 0.1891 0.4248 0.5572
C16 C 0.2239(3) 0.5551(2) 0.6213(2)
H6 H 0.2655 0.6194 0.6226
C17 C 0.1582(3) 0.5333(2) 0.6907(2)
C18 C 0.1977(3) 0.5894(3) 0.7773(2)
C19 C 0.1387(4) 0.5731(3) 0.8446(2)
C20 C 0.0314(4) 0.4995(3) 0.8276(3)
C21 C -0.0131(4) 0.4436(3) 0.7425(3)
C22 C 0.0495(4) 0.4605(3) 0.6765(2)
C23 C 0.2603(3) 0.3785(2) 0.2427(2)
H7 H 0.1678 0.3815 0.2064
H8 H 0.3150 0.3955 0.2021
C24 C 0.1251(3) 0.3619(2) 0.3802(2)
H9 H 0.0864 0.3712 0.4308
H10 H 0.0587 0.3704 0.3205
C25 C 0.3772(3) 0.2399(2) 0.2753(2)
C26 C 0.2138(3) 0.2248(2) 0.4541(2)
C27 C 0.1669(3) 0.2214(2) 0.2926(2)
C28 C 0.0363(3) 0.1975(2) 0.2091(2)
C29 C -0.0736(5) 0.1009(4) 0.0614(3)
H11 H -0.0740 0.0336 0.0404
H12 H -0.1534 0.1031 0.0797
C30 C -0.0717(6) 0.1609(4) -0.0132(4)
H13 H -0.0706 0.2272 0.0087
H14 H -0.1506 0.1382 -0.0679
H15 H 0.0074 0.1577 -0.0309
C31 C 0.2336(3) 0.1342(2) 0.3262(2)
C32 C 0.1466(3) 0.0351(2) 0.2835(2)
C33 C -0.0573(4) -0.0613(3) 0.2751(3)
H16 H -0.0126 -0.1169 0.2889
H17 H -0.1013 -0.0655 0.2064
C34 C -0.1563(4) -0.0605(3) 0.3258(4)
H18 H -0.1117 -0.0578 0.3935
H19 H -0.2237 -0.1188 0.3044
H20 H -0.1982 -0.0042 0.3126
C35 C 0.4603(3) 0.0978(2) 0.3409(2)
H21 H 0.5202 0.1041 0.3027
H22 H 0.4221 0.0289 0.3357
C36 C 0.3364(3) 0.0896(2) 0.4904(2)
H23 H 0.3140 0.0221 0.4620
H24 H 0.3142 0.0914 0.5493
C37 C 0.5414(3) 0.1308(2) 0.4427(2)
C38 C 0.4840(3) 0.1249(2) 0.5134(2)
C39 C 0.5626(3) 0.1510(2) 0.6077(2)
C40 C 0.6976(3) 0.1831(2) 0.6300(2)
H25 H 0.7510 0.2006 0.6937
C41 C 0.7541(3) 0.1895(2) 0.5597(3)
H26 H 0.8463 0.2122 0.5752
C42 C 0.6775(3) 0.1632(2) 0.4666(2)
C43 C 0.5754(4) 0.1656(3) 0.7698(2)
H27 H 0.6408 0.1237 0.7868
H28 H 0.5176 0.1565 0.8087
H29 H 0.6207 0.2325 0.7805
C44 C 0.8660(4) 0.1975(3) 0.4139(3)
H30 H 0.8920 0.2617 0.4484
H31 H 0.8873 0.1993 0.3553
H32 H 0.9139 0.1531 0.4525
F1 F 0.4091(2) 0.57901(19) 0.06617(16)
F2 F 0.5167(3) 0.6066(2) -0.06952(16)
F3 F 0.7787(3) 0.67960(19) -0.02725(16)
F4 F 0.9292(2) 0.73157(17) 0.15513(16)
F5 F 0.8243(2) 0.70547(14) 0.29312(14)
F6 F -0.0043(2) 0.40415(15) 0.59355(14)
F7 F -0.1193(2) 0.37329(16) 0.72362(17)
F8 F -0.0278(2) 0.48288(18) 0.89248(16)
F9 F 0.1816(2) 0.62846(17) 0.92720(15)
F10 F 0.2984(2) 0.66304(16) 0.79535(15)
N1 N 0.2671(3) 0.28039(19) 0.26438(19)
N2 N 0.1469(3) 0.26298(18) 0.37489(18)
N3 N 0.3532(2) 0.14953(18) 0.30076(18)
N4 N 0.2571(3) 0.14639(19) 0.42620(18)
O1 O 0.4784(2) 0.27801(16) 0.26214(16)
O2 O 0.2284(2) 0.25458(16) 0.53449(15)
O3 O -0.0619(2) 0.22717(18) 0.20760(17)
O4 O 0.0488(3) 0.1400(2) 0.14247(18)
O5 O 0.1733(2) -0.02463(17) 0.23685(17)
O6 O 0.0381(2) 0.02789(17) 0.30822(18)
O7 O 0.4980(2) 0.14228(17) 0.67296(16)
O8 O 0.7276(2) 0.16582(19) 0.39297(18)
C45 C 0.5195(4) 0.1437(3) 0.0996(3)
H33 H 0.5428 0.1982 0.1502
Cl1 Cl 0.57487(13) 0.18381(9) 0.00796(8)
Cl2 Cl 0.60075(15) 0.05098(9) 0.14634(9)
Cl3 Cl 0.34793(13) 0.10545(12) 0.06122(10)
loop_
_geom_bond_atom_site_label_1
_geom_bond_atom_site_label_2
_geom_bond_site_symmetry_1
_geom_bond_site_symmetry_2
C1 C2 1_555 1_555
C2 C3 1_555 1_555
C3 C4 1_555 1_555
C4 C5 1_555 1_555
C5 C6 1_555 1_555
C6 C1 1_555 1_555
C7 C1 1_555 1_555
H1 C7 1_555 1_555
C8 C7 1_555 1_555
H2 C8 1_555 1_555
C9 C8 1_555 1_555
C10 C9 1_555 1_555
C11 C10 1_555 1_555
C12 C11 1_555 1_555
C13 C12 1_555 1_555
H3 C13 1_555 1_555
C14 C9 1_555 1_555
H4 C14 1_555 1_555
C15 C12 1_555 1_555
H5 C15 1_555 1_555
C16 C15 1_555 1_555
H6 C16 1_555 1_555
C17 C16 1_555 1_555
C18 C17 1_555 1_555
C19 C18 1_555 1_555
C20 C19 1_555 1_555
C21 C20 1_555 1_555
C22 C17 1_555 1_555
C23 C10 1_555 1_555
H7 C23 1_555 1_555
H8 C23 1_555 1_555
C24 C11 1_555 1_555
H9 C24 1_555 1_555
H10 C24 1_555 1_555
C25 N1 1_555 1_555
C26 N2 1_555 1_555
C27 C28 1_555 1_555
C28 O3 1_555 1_555
C29 H11 1_555 1_555
H12 C29 1_555 1_555
C30 C29 1_555 1_555
H13 C30 1_555 1_555
H14 C30 1_555 1_555
H15 C30 1_555 1_555
C31 C27 1_555 1_555
C32 C31 1_555 1_555
C33 H16 1_555 1_555
H17 C33 1_555 1_555
C34 C33 1_555 1_555
H18 C34 1_555 1_555
H19 C34 1_555 1_555
H20 C34 1_555 1_555
C35 H21 1_555 1_555
H22 C35 1_555 1_555
C36 H23 1_555 1_555
H24 C36 1_555 1_555
C37 C35 1_555 1_555
C38 C36 1_555 1_555
C39 C38 1_555 1_555
C40 C39 1_555 1_555
H25 C40 1_555 1_555
C41 C40 1_555 1_555
H26 C41 1_555 1_555
C42 C37 1_555 1_555
C43 H27 1_555 1_555
H28 C43 1_555 1_555
H29 C43 1_555 1_555
C44 H30 1_555 1_555
H31 C44 1_555 1_555
H32 C44 1_555 1_555
F1 C2 1_555 1_555
F2 C3 1_555 1_555
F3 C4 1_555 1_555
F4 C5 1_555 1_555
F5 C6 1_555 1_555
F6 C22 1_555 1_555
F7 C21 1_555 1_555
F8 C20 1_555 1_555
F9 C19 1_555 1_555
F10 C18 1_555 1_555
N1 C23 1_555 1_555
N2 C24 1_555 1_555
N3 C25 1_555 1_555
N4 C26 1_555 1_555
O1 C25 1_555 1_555
O2 C26 1_555 1_555
O4 C28 1_555 1_555
O5 C32 1_555 1_555
O6 C32 1_555 1_555
O7 C39 1_555 1_555
O8 C42 1_555 1_555
C45 H33 1_555 1_555
Cl1 C45 1_555 1_555
Cl2 C45 1_555 1_555
Cl3 C45 1_555 1_555
C13 C14 1_555 1_555
C21 C22 1_555 1_555
C27 N1 1_555 1_555
C27 N2 1_555 1_555
C29 O4 1_555 1_555
C31 N3 1_555 1_555
C31 N4 1_555 1_555
C33 O6 1_555 1_555
C35 N3 1_555 1_555
C36 N4 1_555 1_555
C37 C38 1_555 1_555
C41 C42 1_555 1_555
C43 O7 1_555 1_555
C44 O8 1_555 1_555

#END
