
#######################################################################
#
#                 Cambridge Crystallographic Data Centre
#                                CCDC 
#
#######################################################################
#
# If this CIF has been generated from an entry in the Cambridge 
# Structural Database, then it will include bibliographic, chemical, 
# crystal, experimental, refinement or atomic coordinate data resulting 
# from the CCDC's data processing and validation procedures.
#
#######################################################################

data_COTMUV
_chemical_formula_moiety         'C44 H38 N4 O8,C1 H1 Cl3'
_chemical_name_systematic        
'diethyl 1,4-dimethoxy-6,13-dioxo-8,11-bis(phenylethynyl)-5,7,12,14-tetrahydro-5a,6a,12a,13a-tetraazabenzo[5,6]azuleno[2,1,8-ija]benzo[f]azulene-13b,13c-dicarboxylate chloroform solvate'
_symmetry_cell_setting           monoclinic
_symmetry_space_group_name_H-M   'P 21/n'
_symmetry_Int_Tables_number      14
_space_group_name_Hall           '-P 2yn'
loop_
_symmetry_equiv_pos_site_id
_symmetry_equiv_pos_as_xyz
1 x,y,z
2 1/2-x,1/2+y,1/2-z
3 -x,-y,-z
4 1/2+x,1/2-y,1/2+z
_cell_length_a                   11.1774(14)
_cell_length_b                   13.9112(18)
_cell_length_c                   26.663(3)
_cell_angle_alpha                90
_cell_angle_beta                 97.601(2)
_cell_angle_gamma                90
_cell_volume                     4109.43
_exptl_crystal_colour            colorless
_exptl_crystal_description       block
_cell_formula_units_Z            4
loop_
_atom_site_label
_atom_site_type_symbol
_atom_site_fract_x
_atom_site_fract_y
_atom_site_fract_z
C1 C 0.6161(7) 0.2801(7) 0.7755(3)
C2 C 0.5068(8) 0.2985(6) 0.7461(3)
H1 H 0.4749 0.3611 0.7456
C3 C 0.4439(7) 0.2286(6) 0.7177(3)
H2 H 0.3709 0.2434 0.6974
C4 C 0.4882(7) 0.1368(6) 0.7192(3)
H3 H 0.4461 0.0885 0.6994
C5 C 0.5926(7) 0.1151(5) 0.7490(3)
H4 H 0.6214 0.0515 0.7505
C6 C 0.6569(6) 0.1862(6) 0.7771(2)
H5 H 0.7293 0.1705 0.7975
C7 C 0.6820(8) 0.3554(7) 0.8043(3)
C8 C 0.7319(8) 0.4163(8) 0.8290(4)
C9 C 0.7909(9) 0.4907(9) 0.8594(3)
C10 C 0.7537(7) 0.5874(9) 0.8550(3)
C11 C 0.8176(8) 0.6584(7) 0.8845(3)
C12 C 0.9174(8) 0.6317(7) 0.9192(3)
C13 C 0.9525(7) 0.5365(8) 0.9240(3)
H6 H 1.0190 0.5192 0.9476
C14 C 0.8909(10) 0.4670(6) 0.8945(4)
H7 H 0.9163 0.4027 0.8979
C15 C 0.9874(8) 0.7008(7) 0.9495(3)
C16 C 1.0507(8) 0.7553(7) 0.9756(4)
C17 C 1.1251(8) 0.8243(10) 1.0053(4)
C18 C 1.1229(8) 0.9212(13) 0.9947(3)
H8 H 1.0711 0.9441 0.9666
C19 C 1.1945(14) 0.9850(7) 1.0242(6)
H9 H 1.1914 1.0508 1.0163
C20 C 1.2720(9) 0.9518(13) 1.0659(5)
H10 H 1.3215 0.9951 1.0861
C21 C 1.2755(9) 0.8556(14) 1.0772(3)
H11 H 1.3275 0.8326 1.1052
C22 C 1.2029(12) 0.7933(6) 1.0473(6)
H12 H 1.2057 0.7275 1.0554
C23 C 0.6471(8) 0.6122(5) 0.8160(3)
H13 H 0.6755 0.6520 0.7896
H14 H 0.6142 0.5527 0.8000
C24 C 0.7838(7) 0.7624(6) 0.8775(2)
H15 H 0.8408 0.8006 0.9005
H16 H 0.7941 0.7810 0.8429
C25 C 0.4456(10) 0.6190(9) 0.8470(3)
C26 C 0.6290(11) 0.7851(4) 0.9343(5)
C27 C 0.5595(8) 0.7629(7) 0.8495(4)
C28 C 0.5577(9) 0.8254(6) 0.8012(3)
C29 C 0.4474(8) 0.7759(7) 0.8784(3)
C30 C 0.3701(11) 0.8676(6) 0.8660(2)
C31 C 0.3970(6) 1.0386(6) 0.8661(3)
H17 H 0.3216 1.0408 0.8427
H18 H 0.4537 1.0847 0.8544
C32 C 0.3735(7) 1.0640(5) 0.9186(3)
H19 H 0.3145 1.0198 0.9293
H20 H 0.3425 1.1291 0.9189
H21 H 0.4480 1.0594 0.9417
C33 C 0.2870(6) 0.6587(5) 0.8987(3)
H22 H 0.2384 0.6080 0.8804
H23 H 0.2331 0.7131 0.9023
C34 C 0.4377(7) 0.7799(6) 0.9726(3)
H24 H 0.3645 0.8188 0.9647
H25 H 0.4863 0.8085 1.0021
C35 C 0.3324(9) 0.6215(12) 0.9509(4)
C36 C 0.4025(10) 0.6792(7) 0.9856(6)
C37 C 0.4405(7) 0.6443(11) 1.0340(6)
C38 C 0.4096(10) 0.5536(12) 1.0489(4)
H26 H 0.4348 0.5314 1.0819
C39 C 0.3412(10) 0.4970(6) 1.0143(7)
H27 H 0.3190 0.4352 1.0238
C40 C 0.3042(7) 0.5287(11) 0.9657(5)
C41 C 0.5496(6) 0.6746(5) 1.1163(3)
H28 H 0.4808 0.6579 1.1332
H29 H 0.5950 0.7258 1.1347
H30 H 0.6011 0.6188 1.1151
C42 C 0.2012(6) 0.3784(5) 0.9436(3)
H31 H 0.2731 0.3407 0.9542
H32 H 0.1546 0.3479 0.9146
H33 H 0.1528 0.3826 0.9711
N1 N 0.5506(8) 0.6632(6) 0.83648(19)
N2 N 0.6621(7) 0.7882(3) 0.8861(4)
N3 N 0.3772(6) 0.6896(6) 0.8676(2)
N4 N 0.5061(9) 0.7827(3) 0.9297(3)
O1 O 0.4171(4) 0.5365(4) 0.83866(16)
O2 O 0.6984(5) 0.7878(3) 0.9737(2)
O3 O 0.6365(5) 0.8761(4) 0.79191(18)
O4 O 0.4529(6) 0.8107(3) 0.7728(2)
O5 O 0.2630(6) 0.8722(4) 0.85887(17)
O6 O 0.4479(4) 0.9422(5) 0.86742(15)
O7 O 0.5087(5) 0.7059(4) 1.0663(3)
O8 O 0.2355(5) 0.4734(5) 0.9298(2)
C43 C 0.4330(19) 0.872(2) 0.7278(9)
H34 H 0.4840 0.8503 0.7027
H35 H 0.4542 0.9385 0.7369
C44 C 0.3047(13) 0.866(3) 0.7063(9)
H36 H 0.2812 0.7989 0.7022
H37 H 0.2929 0.8976 0.6736
H38 H 0.2557 0.8970 0.7289
C47 C 0.0395(6) 0.0378(5) 0.8418(2)
H44 H 0.0944 -0.0152 0.8546
Cl1 Cl 0.08757(18) 0.08302(17) 0.78689(7)
Cl2 Cl -0.10639(19) -0.00873(15) 0.82884(9)
Cl3 Cl 0.0459(2) 0.12621(18) 0.88891(9)
C45? C 0.434(2) 0.853(2) 0.7213(9)
H39? H 0.4339 0.8027 0.6955
H40? H 0.4976 0.8995 0.7169
C46? C 0.3113(17) 0.902(3) 0.7174(10)
H41? H 0.2503 0.8555 0.7234
H42? H 0.2914 0.9294 0.6838
H43? H 0.3141 0.9529 0.7425
loop_
_geom_bond_atom_site_label_1
_geom_bond_atom_site_label_2
_geom_bond_site_symmetry_1
_geom_bond_site_symmetry_2
C1 C2 1_555 1_555
C2 H1 1_555 1_555
C3 C2 1_555 1_555
H2 C3 1_555 1_555
C4 C3 1_555 1_555
H3 C4 1_555 1_555
C5 C4 1_555 1_555
H4 C5 1_555 1_555
C6 C1 1_555 1_555
H5 C6 1_555 1_555
C7 C1 1_555 1_555
C8 C7 1_555 1_555
C9 C8 1_555 1_555
C10 C9 1_555 1_555
C11 C10 1_555 1_555
C12 C11 1_555 1_555
C13 C12 1_555 1_555
H6 C13 1_555 1_555
C14 C9 1_555 1_555
H7 C14 1_555 1_555
C15 C12 1_555 1_555
C16 C15 1_555 1_555
C17 C16 1_555 1_555
C18 C17 1_555 1_555
H8 C18 1_555 1_555
C19 C18 1_555 1_555
H9 C19 1_555 1_555
C20 C19 1_555 1_555
H10 C20 1_555 1_555
C21 C20 1_555 1_555
H11 C21 1_555 1_555
C22 C17 1_555 1_555
H12 C22 1_555 1_555
C23 C10 1_555 1_555
H13 C23 1_555 1_555
H14 C23 1_555 1_555
C24 C11 1_555 1_555
H15 C24 1_555 1_555
H16 C24 1_555 1_555
C25 N1 1_555 1_555
C26 N2 1_555 1_555
C27 C28 1_555 1_555
C28 O3 1_555 1_555
C29 C27 1_555 1_555
C30 C29 1_555 1_555
C31 H17 1_555 1_555
H18 C31 1_555 1_555
C32 C31 1_555 1_555
H19 C32 1_555 1_555
H20 C32 1_555 1_555
H21 C32 1_555 1_555
C33 H22 1_555 1_555
H23 C33 1_555 1_555
C34 H24 1_555 1_555
H25 C34 1_555 1_555
C35 C33 1_555 1_555
C36 C34 1_555 1_555
C37 C36 1_555 1_555
C38 C37 1_555 1_555
H26 C38 1_555 1_555
C39 C38 1_555 1_555
H27 C39 1_555 1_555
C40 C35 1_555 1_555
C41 H28 1_555 1_555
H29 C41 1_555 1_555
H30 C41 1_555 1_555
C42 H31 1_555 1_555
H32 C42 1_555 1_555
H33 C42 1_555 1_555
N1 C23 1_555 1_555
N2 C24 1_555 1_555
N3 C25 1_555 1_555
N4 C26 1_555 1_555
O1 C25 1_555 1_555
O2 C26 1_555 1_555
O4 C28 1_555 1_555
O5 C30 1_555 1_555
O6 C30 1_555 1_555
O7 C37 1_555 1_555
O8 C40 1_555 1_555
C43 O4 1_555 1_555
H34 C43 1_555 1_555
H35 C43 1_555 1_555
C44 C43 1_555 1_555
H36 C44 1_555 1_555
H37 C44 1_555 1_555
H38 C44 1_555 1_555
C47 H44 1_555 1_555
Cl1 C47 1_555 1_555
Cl2 C47 1_555 1_555
Cl3 C47 1_555 1_555
C5 C6 1_555 1_555
C13 C14 1_555 1_555
C21 C22 1_555 1_555
C27 N1 1_555 1_555
C27 N2 1_555 1_555
C29 N3 1_555 1_555
C29 N4 1_555 1_555
C31 O6 1_555 1_555
C33 N3 1_555 1_555
C34 N4 1_555 1_555
C35 C36 1_555 1_555
C39 C40 1_555 1_555
C41 O7 1_555 1_555
C42 O8 1_555 1_555

#END
