
#######################################################################
#
#                 Cambridge Crystallographic Data Centre
#                                CCDC 
#
#######################################################################
#
# If this CIF has been generated from an entry in the Cambridge 
# Structural Database, then it will include bibliographic, chemical, 
# crystal, experimental, refinement or atomic coordinate data resulting 
# from the CCDC's data processing and validation procedures.
#
#######################################################################

data_COTMEF
_chemical_formula_moiety         'C42 H40 N6 O8,2(C1 H1 Cl3)'
_chemical_name_systematic        
'diethyl 1,4-dimethoxy-6,13-dioxo-8,11-bis(2-(pyridin-4-yl)vinyl)-5,7,12,14-tetrahydro-5a,6a,12a,13a-tetraazabenzo[5,6]azuleno[2,1,8-ija]benzo[f]azulene-13b,13c-dicarboxylate chloroform solvate'
_symmetry_cell_setting           triclinic
_symmetry_space_group_name_H-M   'P -1'
_symmetry_Int_Tables_number      2
_space_group_name_Hall           '-P 1'
loop_
_symmetry_equiv_pos_site_id
_symmetry_equiv_pos_as_xyz
1 x,y,z
2 -x,-y,-z
_cell_length_a                   10.7259(9)
_cell_length_b                   14.2208(12)
_cell_length_c                   14.8907(12)
_cell_angle_alpha                92.5080(10)
_cell_angle_beta                 93.7200(10)
_cell_angle_gamma                98.8250(10)
_cell_volume                     2236.35
_exptl_crystal_colour            colorless
_exptl_crystal_description       block
_cell_formula_units_Z            2
loop_
_atom_site_label
_atom_site_type_symbol
_atom_site_fract_x
_atom_site_fract_y
_atom_site_fract_z
C1 C 0.3942(6) 0.9364(4) 0.2563(4)
H1 H 0.3312 0.8815 0.2564
C2 C 0.4844(5) 0.9528(4) 0.3270(4)
H2 H 0.4830 0.9096 0.3740
C3 C 0.5789(5) 1.0333(4) 0.3302(4)
C4 C 0.5740(5) 1.0922(4) 0.2587(4)
H3 H 0.6352 1.1478 0.2570
C5 C 0.4797(6) 1.0696(5) 0.1898(4)
H4 H 0.4790 1.1110 0.1414
C6 C 0.6771(5) 1.0561(4) 0.4038(4)
H5 H 0.7204 1.1197 0.4103
C7 C 0.7110(5) 0.9953(4) 0.4626(3)
H6 H 0.6650 0.9324 0.4574
C8 C 0.8123(5) 1.0160(4) 0.5342(4)
C9 C 0.8181(5) 0.9594(3) 0.6092(3)
C10 C 0.9234(5) 0.9780(3) 0.6738(3)
C11 C 1.0217(5) 1.0538(3) 0.6649(3)
C12 C 1.0118(5) 1.1103(4) 0.5911(4)
H7 H 1.0760 1.1631 0.5850
C13 C 0.9116(5) 1.0915(4) 0.5270(4)
H8 H 0.9096 1.1304 0.4768
C14 C 1.1320(5) 1.0750(4) 0.7293(4)
H9 H 1.1457 1.0272 0.7698
C15 C 1.2148(5) 1.1546(4) 0.7363(4)
H10 H 1.2006 1.2023 0.6958
C16 C 1.3266(5) 1.1763(4) 0.8006(4)
C17 C 1.3550(5) 1.1197(4) 0.8693(4)
H11 H 1.3011 1.0615 0.8770
C18 C 1.4620(6) 1.1475(4) 0.9271(4)
H12 H 1.4795 1.1059 0.9729
C19 C 1.5144(9) 1.2794(6) 0.8555(6)
H13 H 1.5713 1.3363 0.8487
C20 C 1.4121(8) 1.2589(5) 0.7942(6)
H14 H 1.3997 1.3008 0.7476
C21 C 0.7080(5) 0.8828(3) 0.6243(3)
H15 H 0.6762 0.8972 0.6834
H16 H 0.6391 0.8863 0.5776
C22 C 0.9242(5) 0.9149(3) 0.7532(3)
H17 H 1.0015 0.9369 0.7932
H18 H 0.8503 0.9217 0.7880
C23 C 0.7519(5) 0.7371(3) 0.5434(4)
C24 C 1.0250(5) 0.7728(3) 0.7115(3)
C25 C 0.8036(5) 0.7538(4) 0.6989(3)
C26 C 0.7172(6) 0.7349(3) 0.7772(4)
C27 C 0.7171(6) 0.6962(5) 0.9299(4)
H19 H 0.6688 0.6310 0.9200
H20 H 0.6568 0.7409 0.9409
C28 C 0.8105(7) 0.7005(5) 1.0082(4)
H21 H 0.8732 0.6594 0.9950
H22 H 0.7670 0.6786 1.0612
H23 H 0.8531 0.7663 1.0204
C29 C 0.8509(5) 0.6615(3) 0.6590(3)
C30 C 0.7843(5) 0.5701(4) 0.6979(4)
C31 C 0.5784(5) 0.4800(4) 0.7039(5)
H24 H 0.5819 0.4911 0.7702
H25 H 0.6006 0.4162 0.6899
C32 C 0.4486(7) 0.4869(6) 0.6625(7)
H26 H 0.4269 0.5496 0.6789
H27 H 0.3867 0.4371 0.6849
H28 H 0.4478 0.4786 0.5968
C33 C 0.8550(5) 0.5979(3) 0.4979(3)
H29 H 0.7975 0.5932 0.4426
H30 H 0.8482 0.5339 0.5224
C34 C 1.0685(5) 0.6227(4) 0.6388(3)
H31 H 1.0334 0.5543 0.6412
H32 H 1.1515 0.6337 0.6740
C35 C 0.9899(5) 0.6294(3) 0.4740(3)
C36 C 1.0904(5) 0.6434(3) 0.5410(3)
C37 C 1.2132(5) 0.6747(3) 0.5164(4)
C38 C 1.2351(5) 0.6903(4) 0.4273(4)
H33 H 1.3186 0.7117 0.4113
C39 C 1.1360(5) 0.6751(4) 0.3615(4)
H34 H 1.1517 0.6860 0.3004
C40 C 1.0140(5) 0.6440(3) 0.3843(4)
C41 C 1.4340(5) 0.7134(4) 0.5615(4)
H35 H 1.4561 0.6654 0.5187
H36 H 1.4916 0.7187 0.6160
H37 H 1.4414 0.7751 0.5339
C42 C 0.9331(6) 0.6336(4) 0.2294(4)
H38 H 0.9636 0.7003 0.2184
H39 H 0.8541 0.6117 0.1925
H40 H 0.9967 0.5943 0.2136
N1 N 0.3894(5) 0.9930(4) 0.1870(3)
N2 N 1.5411(5) 1.2271(4) 0.9233(4)
N3 N 0.7348(4) 0.7853(3) 0.6223(3)
N4 N 0.9203(4) 0.8141(3) 0.7266(3)
N5 N 0.8153(4) 0.6636(3) 0.5639(3)
N6 N 0.9842(4) 0.6787(3) 0.6826(3)
O1 O 0.7126(3) 0.7548(2) 0.4684(2)
O2 O 1.1336(3) 0.8118(2) 0.7228(2)
O3 O 0.6065(4) 0.7310(3) 0.7710(3)
O4 O 0.7867(4) 0.7224(3) 0.8507(2)
O5 O 0.8317(4) 0.5239(3) 0.7505(3)
O6 O 0.6645(3) 0.5530(3) 0.6649(3)
O7 O 0.9106(3) 0.6254(2) 0.3229(2)
O8 O 1.3070(3) 0.6858(2) 0.5849(2)
C43 C 0.7566(7) 0.3844(6) 0.0379(4)
H41 H 0.7163 0.3169 0.0229
Cl1 Cl 0.81410(18) 0.43461(13) -0.06000(13)
Cl2 Cl 0.6416(3) 0.4496(3) 0.0782(2)
Cl3 Cl 0.8820(2) 0.38607(13) 0.11969(13)
C44? C 0.834(2) 0.0862(17) 0.9671(16)
H42? H 0.7602 0.0408 0.9381
Cl4? Cl 0.800(6) 0.1321(18) 1.072(2)
Cl5? Cl 0.8755(8) 0.1912(7) 0.8980(5)
C45? C 0.708(3) 0.373(2) 0.0437(19)
H43? H 0.6729 0.3141 0.0048
Cl6? Cl 0.855(2) 0.428(2) 0.009(2)
Cl7? Cl 0.606(2) 0.4608(16) 0.0386(16)
Cl8? Cl 0.736(3) 0.3461(18) 0.1563(15)
C46? C 0.7986(17) 0.0709(9) 0.9622(11)
H44? H 0.7096 0.0671 0.9361
Cl9? Cl 0.8335(4) -0.0405(2) 0.9697(2)
Cl10? Cl 0.816(5) 0.1355(13) 1.0651(15)
Cl11? Cl 0.9072(5) 0.1366(4) 0.8870(3)
Cl12? Cl 0.9674(7) 0.0323(5) 0.9821(4)
loop_
_geom_bond_atom_site_label_1
_geom_bond_atom_site_label_2
_geom_bond_site_symmetry_1
_geom_bond_site_symmetry_2
C1 H1 1_555 1_555
C2 C1 1_555 1_555
H2 C2 1_555 1_555
C3 C2 1_555 1_555
C4 C3 1_555 1_555
H3 C4 1_555 1_555
C5 C4 1_555 1_555
H4 C5 1_555 1_555
C6 C3 1_555 1_555
H5 C6 1_555 1_555
C7 C6 1_555 1_555
H6 C7 1_555 1_555
C8 C7 1_555 1_555
C9 C8 1_555 1_555
C10 C9 1_555 1_555
C11 C10 1_555 1_555
C12 C11 1_555 1_555
H7 C12 1_555 1_555
C13 C8 1_555 1_555
H8 C13 1_555 1_555
C14 C11 1_555 1_555
H9 C14 1_555 1_555
C15 C14 1_555 1_555
H10 C15 1_555 1_555
C16 C15 1_555 1_555
C17 C16 1_555 1_555
H11 C17 1_555 1_555
C18 C17 1_555 1_555
H12 C18 1_555 1_555
C19 H13 1_555 1_555
C20 C16 1_555 1_555
H14 C20 1_555 1_555
C21 C9 1_555 1_555
H15 C21 1_555 1_555
H16 C21 1_555 1_555
C22 C10 1_555 1_555
H17 C22 1_555 1_555
H18 C22 1_555 1_555
C23 N3 1_555 1_555
C24 N4 1_555 1_555
C25 C26 1_555 1_555
C26 O3 1_555 1_555
C27 H19 1_555 1_555
H20 C27 1_555 1_555
C28 C27 1_555 1_555
H21 C28 1_555 1_555
H22 C28 1_555 1_555
H23 C28 1_555 1_555
C29 C25 1_555 1_555
C30 C29 1_555 1_555
C31 H24 1_555 1_555
H25 C31 1_555 1_555
C32 C31 1_555 1_555
H26 C32 1_555 1_555
H27 C32 1_555 1_555
H28 C32 1_555 1_555
C33 H29 1_555 1_555
H30 C33 1_555 1_555
C34 H31 1_555 1_555
H32 C34 1_555 1_555
C35 C33 1_555 1_555
C36 C34 1_555 1_555
C37 C36 1_555 1_555
C38 C37 1_555 1_555
H33 C38 1_555 1_555
C39 C38 1_555 1_555
H34 C39 1_555 1_555
C40 C35 1_555 1_555
C41 H35 1_555 1_555
H36 C41 1_555 1_555
H37 C41 1_555 1_555
C42 H38 1_555 1_555
H39 C42 1_555 1_555
H40 C42 1_555 1_555
N1 C1 1_555 1_555
N2 C18 1_555 1_555
N3 C21 1_555 1_555
N4 C22 1_555 1_555
N5 C23 1_555 1_555
N6 C24 1_555 1_555
O1 C23 1_555 1_555
O2 C24 1_555 1_555
O4 C26 1_555 1_555
O5 C30 1_555 1_555
O6 C30 1_555 1_555
O7 C40 1_555 1_555
O8 C37 1_555 1_555
C43 H41 1_555 1_555
Cl1 C43 1_555 1_555
Cl2 C43 1_555 1_555
Cl3 C43 1_555 1_555
C5 N1 1_555 1_555
C12 C13 1_555 1_555
C19 C20 1_555 1_555
C19 N2 1_555 1_555
C25 N3 1_555 1_555
C25 N4 1_555 1_555
C27 O4 1_555 1_555
C29 N5 1_555 1_555
C29 N6 1_555 1_555
C31 O6 1_555 1_555
C33 N5 1_555 1_555
C34 N6 1_555 1_555
C35 C36 1_555 1_555
C39 C40 1_555 1_555
C41 O8 1_555 1_555
C42 O7 1_555 1_555

#END
