
#######################################################################
#
#                 Cambridge Crystallographic Data Centre
#                                CCDC 
#
#######################################################################
#
# If this CIF has been generated from an entry in the Cambridge 
# Structural Database, then it will include bibliographic, chemical, 
# crystal, experimental, refinement or atomic coordinate data resulting 
# from the CCDC's data processing and validation procedures.
#
#######################################################################

data_COTNAC
_chemical_formula_moiety         'C44 H36 F2 N4 O8,1.5(C1 H2 Cl2),0.5(C1 H4 O1)'
_chemical_name_systematic        
'diethyl 1,4-bis((4-fluorophenyl)ethynyl)-8,11-dimethoxy-6,13-dioxo-5,7,12,14-tetrahydro-5a,6a,12a,13a-tetraazabenzo[5,6]azuleno[2,1,8-ija]benzo[f]azulene-13b,13c-dicarboxylate dichloromethane methanol solvate'
_symmetry_cell_setting           triclinic
_symmetry_space_group_name_H-M   'P -1'
_symmetry_Int_Tables_number      2
_space_group_name_Hall           '-P 1'
loop_
_symmetry_equiv_pos_site_id
_symmetry_equiv_pos_as_xyz
1 x,y,z
2 -x,-y,-z
_cell_length_a                   12.9379(12)
_cell_length_b                   13.0294(12)
_cell_length_c                   15.7092(14)
_cell_angle_alpha                114.0830(10)
_cell_angle_beta                 93.5220(10)
_cell_angle_gamma                111.3440(10)
_cell_volume                     2182.1
_exptl_crystal_colour            colorless
_exptl_crystal_description       block
_cell_formula_units_Z            2
loop_
_atom_site_label
_atom_site_type_symbol
_atom_site_fract_x
_atom_site_fract_y
_atom_site_fract_z
C45 C 0.2336(12) 0.2114(12) 0.7541(9)
H37 H 0.2638 0.1762 0.7894
H38 H 0.1521 0.1542 0.7215
Cl1 Cl 0.2444(5) 0.3593(6) 0.8370(4)
Cl2 Cl 0.3102(2) 0.2232(2) 0.66834(16)
C1 C 0.1953(3) 1.0299(3) 0.2338(3)
C2 C 0.2177(3) 1.0878(3) 0.3330(3)
H1 H 0.2050 1.1597 0.3666
C3 C 0.2591(3) 1.0377(3) 0.3816(2)
H2 H 0.2757 1.0761 0.4499
C4 C 0.2770(3) 0.9318(3) 0.3320(2)
C5 C 0.2501(3) 0.8746(3) 0.2314(2)
H3 H 0.2600 0.8010 0.1967
C6 C 0.2089(3) 0.9251(3) 0.1818(3)
H4 H 0.1909 0.8873 0.1135
C7 C 0.3249(3) 0.8854(3) 0.3844(2)
C8 C 0.3672(3) 0.8528(3) 0.4338(2)
C9 C 0.4136(3) 0.8105(3) 0.4907(2)
C10 C 0.4266(3) 0.8639(3) 0.5913(2)
C11 C 0.4697(3) 0.8178(3) 0.6445(2)
C12 C 0.4998(3) 0.7189(3) 0.5974(2)
C13 C 0.4889(3) 0.6693(3) 0.4987(2)
H5 H 0.5105 0.6034 0.4673
C14 C 0.4473(3) 0.7142(3) 0.4457(2)
H6 H 0.4414 0.6799 0.3784
C15 C 0.5449(3) 0.6704(3) 0.6508(2)
C16 C 0.5812(3) 0.6291(3) 0.6951(2)
C17 C 0.6201(3) 0.5754(3) 0.7464(2)
C18 C 0.5497(3) 0.5220(3) 0.7951(2)
H7 H 0.4773 0.5247 0.7965
C19 C 0.5846(3) 0.4655(3) 0.8412(3)
H8 H 0.5368 0.4286 0.8739
C20 C 0.6900(3) 0.4639(3) 0.8386(3)
C21 C 0.7622(3) 0.5158(3) 0.7924(3)
H9 H 0.8347 0.5132 0.7922
C22 C 0.7269(3) 0.5718(3) 0.7462(2)
H10 H 0.7757 0.6084 0.7138
C23 C 0.3973(3) 0.9732(3) 0.6411(2)
H11 H 0.4683 1.0472 0.6845
H12 H 0.3676 0.9913 0.5919
C24 C 0.4903(3) 0.8781(3) 0.7538(2)
H13 H 0.5250 0.8360 0.7783
H14 H 0.5464 0.9661 0.7809
C25 C 0.1979(3) 0.9085(3) 0.6604(2)
C26 C 0.3035(3) 0.7617(3) 0.7759(2)
C27 C 0.3407(3) 0.9585(3) 0.7897(2)
C28 C 0.4194(3) 1.0932(3) 0.8654(2)
C29 C 0.5301(3) 1.2198(3) 1.0265(2)
H15 H 0.5254 1.2201 1.0893
H16 H 0.5064 1.2830 1.0245
C30 C 0.6511(3) 1.2521(4) 1.0172(3)
H17 H 0.6734 1.1874 1.0162
H18 H 0.7022 1.3321 1.0719
H19 H 0.6569 1.2580 0.9572
N1 N 0.1432(2) 0.8930(2) 0.72989(19)
C31 C 0.2188(3) 0.9010(3) 0.8070(2)
C32 C 0.2051(3) 0.9788(3) 0.9064(2)
C33 C 0.2042(3) 1.1740(3) 1.0063(3)
H20 H 0.2464 1.1709 1.0593
H21 H 0.2420 1.2593 1.0138
C34 C 0.0859(9) 1.1477(14) 1.0149(11)
H22 H 0.0457 1.1587 0.9667
H23 H 0.0866 1.2049 1.0794
H24 H 0.0466 1.0619 1.0043
C35 C 0.0186(3) 0.8198(3) 0.7057(2)
H25 H -0.0184 0.8444 0.6651
H26 H -0.0074 0.8419 0.7659
C36 C 0.1018(3) 0.6860(3) 0.7892(2)
H27 H 0.0665 0.7244 0.8400
H28 H 0.1190 0.6250 0.8022
C37 C -0.0229(3) 0.6794(3) 0.6533(2)
C38 C 0.0151(3) 0.6170(3) 0.6924(2)
C39 C -0.0292(3) 0.4872(3) 0.6448(2)
C40 C -0.1112(3) 0.4200(3) 0.5570(2)
H29 H -0.1409 0.3320 0.5239
C41 C -0.1489(3) 0.4814(3) 0.5186(2)
H30 H -0.2051 0.4353 0.4592
C42 C -0.1060(3) 0.6096(3) 0.5653(2)
C43 C -0.0241(4) 0.3033(3) 0.6403(3)
H31 H -0.1069 0.2600 0.6311
H32 H 0.0162 0.2787 0.6778
H33 H -0.0057 0.2812 0.5775
C44 C -0.2334(3) 0.6067(4) 0.4452(3)
H34 H -0.2076 0.5582 0.3922
H35 H -0.2534 0.6637 0.4296
H36 H -0.3007 0.5503 0.4547
F1 F 0.7248(2) 0.4087(2) 0.88424(16)
F2 F 0.15802(18) 1.0821(2) 0.18616(15)
N2 N 0.3135(2) 0.9531(2) 0.69675(18)
N3 N 0.2085(2) 0.7821(2) 0.79566(18)
N4 N 0.3884(2) 0.8740(2) 0.78873(18)
O1 O 0.15295(19) 0.8906(2) 0.58255(16)
O2 O 0.31444(19) 0.6667(2) 0.75504(15)
O3 O 0.4441(2) 1.1807(2) 0.84941(16)
O4 O 0.45262(18) 1.0965(2) 0.94832(15)
O5 O 0.1908(2) 0.9447(2) 0.96690(17)
O6 O 0.2119(2) 1.0864(2) 0.91405(16)
O7 O 0.0108(2) 0.4339(2) 0.69035(17)
O8 O -0.14270(19) 0.6771(2) 0.53214(16)
H39? H 0.2686 1.2569 1.0299
H40? H 0.2071 1.1450 1.0553
C46? C 0.0927(9) 1.1841(15) 0.9847(11)
H41? H 0.0954 1.2150 0.9371
H42? H 0.0830 1.2417 1.0440
H43? H 0.0282 1.1019 0.9590
C47? C 0.2157(10) 0.2381(10) 0.7850(10)
H44? H 0.2557 0.1887 0.7912
H45? H 0.2221 0.2424 0.7240
Cl3? Cl 0.2823(4) 0.3887(4) 0.8814(3)
Cl4? Cl 0.0708(2) 0.1637(2) 0.78117(19)
C48? C 0.0343(7) 0.0381(9) 0.5026(7)
H46? H -0.0223 0.0119 0.5370
H47? H 0.0227 -0.0336 0.4417
H48? H 0.0253 0.1021 0.4895
O9? O 0.1468(5) 0.0874(6) 0.5603(4)
H49? H 0.1947 0.0985 0.5275
C49? C -0.0172(9) 0.5500(9) 0.0608(7)
H50? H -0.0895 0.5538 0.0665
H51? H 0.0365 0.5998 0.1225
Cl5? Cl 0.03611(12) 0.60796(12) -0.01608(10)
loop_
_geom_bond_atom_site_label_1
_geom_bond_atom_site_label_2
_geom_bond_site_symmetry_1
_geom_bond_site_symmetry_2
C1 C2 1_555 1_555
C2 H1 1_555 1_555
C3 C2 1_555 1_555
H2 C3 1_555 1_555
C4 C3 1_555 1_555
C5 C4 1_555 1_555
H3 C5 1_555 1_555
C6 C1 1_555 1_555
H4 C6 1_555 1_555
C7 C4 1_555 1_555
C8 C7 1_555 1_555
C9 C8 1_555 1_555
C10 C9 1_555 1_555
C11 C10 1_555 1_555
C12 C11 1_555 1_555
C13 C12 1_555 1_555
H5 C13 1_555 1_555
C14 C9 1_555 1_555
H6 C14 1_555 1_555
C15 C12 1_555 1_555
C16 C15 1_555 1_555
C17 C16 1_555 1_555
C18 C17 1_555 1_555
H7 C18 1_555 1_555
C19 C18 1_555 1_555
H8 C19 1_555 1_555
C20 C19 1_555 1_555
C21 C20 1_555 1_555
H9 C21 1_555 1_555
C22 C17 1_555 1_555
H10 C22 1_555 1_555
C23 C10 1_555 1_555
H11 C23 1_555 1_555
H12 C23 1_555 1_555
C24 C11 1_555 1_555
H13 C24 1_555 1_555
H14 C24 1_555 1_555
C25 N1 1_555 1_555
C26 N3 1_555 1_555
C27 C28 1_555 1_555
C28 O3 1_555 1_555
C29 H15 1_555 1_555
H16 C29 1_555 1_555
C30 C29 1_555 1_555
H17 C30 1_555 1_555
H18 C30 1_555 1_555
H19 C30 1_555 1_555
N1 C31 1_555 1_555
C31 C27 1_555 1_555
C32 C31 1_555 1_555
C33 H20 1_555 1_555
H21 C33 1_555 1_555
C34 C33 1_555 1_555
H22 C34 1_555 1_555
H23 C34 1_555 1_555
H24 C34 1_555 1_555
C35 N1 1_555 1_555
H25 C35 1_555 1_555
H26 C35 1_555 1_555
C36 H27 1_555 1_555
H28 C36 1_555 1_555
C37 C35 1_555 1_555
C38 C36 1_555 1_555
C39 C38 1_555 1_555
C40 C39 1_555 1_555
H29 C40 1_555 1_555
C41 C40 1_555 1_555
H30 C41 1_555 1_555
C42 C37 1_555 1_555
C43 H31 1_555 1_555
H32 C43 1_555 1_555
H33 C43 1_555 1_555
C44 H34 1_555 1_555
H35 C44 1_555 1_555
H36 C44 1_555 1_555
F1 C20 1_555 1_555
F2 C1 1_555 1_555
N2 C23 1_555 1_555
N3 C31 1_555 1_555
N4 C24 1_555 1_555
O1 C25 1_555 1_555
O2 C26 1_555 1_555
O4 C28 1_555 1_555
O5 C32 1_555 1_555
O6 C32 1_555 1_555
O7 C39 1_555 1_555
O8 C42 1_555 1_555
C45 H37 1_555 1_555
H38 C45 1_555 1_555
Cl1 C45 1_555 1_555
Cl2 C45 1_555 1_555
C5 C6 1_555 1_555
C13 C14 1_555 1_555
C21 C22 1_555 1_555
C25 N2 1_555 1_555
C26 N4 1_555 1_555
C27 N2 1_555 1_555
C27 N4 1_555 1_555
C29 O4 1_555 1_555
C33 O6 1_555 1_555
C36 N3 1_555 1_555
C37 C38 1_555 1_555
C41 C42 1_555 1_555
C43 O7 1_555 1_555
C44 O8 1_555 1_555

#END
