
#######################################################################
#
#                 Cambridge Crystallographic Data Centre
#                                CCDC 
#
#######################################################################
#
# If this CIF has been generated from an entry in the Cambridge 
# Structural Database, then it will include bibliographic, chemical, 
# crystal, experimental, refinement or atomic coordinate data resulting 
# from the CCDC's data processing and validation procedures.
#
#######################################################################

data_COTZAN07
_chemical_compound_source        'Capsule of Grippostad by STADA'
_chemical_name_common            paracetamol
_chemical_formula_moiety         'C8 H9 N1 O2'
_chemical_name_systematic        N-(4-hydroxyphenyl)ethanamide
_symmetry_cell_setting           monoclinic
_symmetry_space_group_name_H-M   'P 21/n'
_symmetry_Int_Tables_number      14
_space_group_name_Hall           '-P 2yn'
loop_
_symmetry_equiv_pos_site_id
_symmetry_equiv_pos_as_xyz
1 x,y,z
2 1/2-x,1/2+y,1/2-z
3 -x,-y,-z
4 1/2+x,1/2-y,1/2+z
_cell_length_a                   6.9620(17)
_cell_length_b                   9.177(5)
_cell_length_c                   11.5564(19)
_cell_angle_alpha                90
_cell_angle_beta                 98.82(2)
_cell_angle_gamma                90
_cell_volume                     729.611
_exptl_crystal_colour            white
_exptl_crystal_description       'oblong block'
_cell_formula_units_Z            4
_exptl_crystal_recrystallization_method ethanol
loop_
_atom_site_label
_atom_site_type_symbol
_atom_site_fract_x
_atom_site_fract_y
_atom_site_fract_z
O1 O 0.851(2) 0.505(3) 0.3103(13)
O2 O 0.663(2) 0.924(3) 0.7206(10)
H1 H 0.536083 0.948688 0.746346
N1 N 0.546(2) 0.546(3) 0.3363(12)
H2 H 0.400431 0.526070 0.307543
C1 C 0.592(2) 0.641(4) 0.4381(14)
C2 C 0.671(3) 0.483(3) 0.2777(14)
C3 C 0.582(3) 0.403(4) 0.1785(13)
H3 H 0.426391 0.404362 0.174950
H4 H 0.619779 0.451667 0.099942
H5 H 0.633380 0.291531 0.185192
C4 C 0.442(2) 0.732(3) 0.4617(14)
H6 H 0.303983 0.731256 0.400785
C5 C 0.458(3) 0.819(4) 0.5542(14)
H7 H 0.334673 0.885993 0.571378
C6 C 0.632(2) 0.825(4) 0.6279(12)
C7 C 0.779(2) 0.742(3) 0.6086(11)
H8 H 0.918738 0.750612 0.666815
C8 C 0.756(2) 0.639(3) 0.5091(12)
H9 H 0.873877 0.563976 0.495730
loop_
_geom_bond_atom_site_label_1
_geom_bond_atom_site_label_2
_geom_bond_site_symmetry_1
_geom_bond_site_symmetry_2
O1 C2 1_555 1_555
O2 H1 1_555 1_555
N1 H2 1_555 1_555
C1 N1 1_555 1_555
C2 N1 1_555 1_555
C3 C2 1_555 1_555
H3 C3 1_555 1_555
H4 C3 1_555 1_555
H5 C3 1_555 1_555
C4 C1 1_555 1_555
H6 C4 1_555 1_555
C5 C4 1_555 1_555
H7 C5 1_555 1_555
C6 O2 1_555 1_555
C7 C6 1_555 1_555
H8 C7 1_555 1_555
C8 C1 1_555 1_555
H9 C8 1_555 1_555
C5 C6 1_555 1_555
C7 C8 1_555 1_555

#END
