
#######################################################################
#
#                 Cambridge Crystallographic Data Centre
#                                CCDC 
#
#######################################################################
#
# If this CIF has been generated from an entry in the Cambridge 
# Structural Database, then it will include bibliographic, chemical, 
# crystal, experimental, refinement or atomic coordinate data resulting 
# from the CCDC's data processing and validation procedures.
#
#######################################################################

data_COVGUR
_chemical_formula_moiety         'C17 H19 N1 O3 S1'
_chemical_name_systematic        
7-methylene-4-((4-methylphenyl)sulfonyl)-11-oxa-4-azatricyclo[6.2.1.0^1,6^]undec-9-ene
_symmetry_cell_setting           monoclinic
_symmetry_space_group_name_H-M   'P 21/c'
_symmetry_Int_Tables_number      14
_space_group_name_Hall           '-P 2ybc'
loop_
_symmetry_equiv_pos_site_id
_symmetry_equiv_pos_as_xyz
1 x,y,z
2 -x,1/2+y,1/2-z
3 -x,-y,-z
4 x,1/2-y,1/2+z
_cell_length_a                   14.5933(18)
_cell_length_b                   9.6858(12)
_cell_length_c                   11.3977(14)
_cell_angle_alpha                90
_cell_angle_beta                 92.745(3)
_cell_angle_gamma                90
_cell_volume                     1609.19
_exptl_crystal_colour            colorless
_exptl_crystal_description       prismatic
_cell_formula_units_Z            4
loop_
_atom_site_label
_atom_site_type_symbol
_atom_site_fract_x
_atom_site_fract_y
_atom_site_fract_z
S1 S 0.72225(3) 1.12370(5) 0.34466(4)
N1 N 0.79670(10) 1.03020(15) 0.27503(13)
O1 O 0.85917(9) 0.80723(14) 0.04061(11)
O2 O 0.70087(10) 1.04769(16) 0.44690(12)
O3 O 0.76025(11) 1.25907(15) 0.35685(14)
C1 C 0.91487(12) 0.86825(19) 0.13581(15)
C2 C 1.00397(14) 0.7909(2) 0.12478(17)
H1 H 1.0627 0.8243 0.1429
C3 C 0.98261(16) 0.6678(2) 0.08485(18)
H2 H 1.0227 0.5967 0.0680
C4 C 0.87916(16) 0.6656(2) 0.07190(18)
H3 H 0.8527 0.5956 0.0182
C5 C 0.84740(13) 0.66029(19) 0.19681(17)
C6 C 0.86698(12) 0.80467(17) 0.24300(15)
H4 H 0.9083 0.8028 0.3133
C7 C 0.77827(12) 0.88115(18) 0.26553(16)
H5 H 0.7334 0.8640 0.2016
H6 H 0.7533 0.8479 0.3377
C8 C 0.82629(14) 1.0886(2) 0.16320(18)
H7 H 0.8339 1.1877 0.1708
H8 H 0.7800 1.0708 0.1012
C9 C 0.91644(14) 1.0229(2) 0.13236(18)
H9 H 0.9313 1.0525 0.0542
H10 H 0.9646 1.0559 0.1869
C10 C 0.81180(17) 0.5556(2) 0.2504(2)
H11 H 0.7948 0.5647 0.3276
H12 H 0.8034 0.4719 0.2114
C11 C 0.62235(13) 1.13532(19) 0.25224(17)
C12 C 0.54948(15) 1.0471(2) 0.2674(2)
H13 H 0.5518 0.9828 0.3281
C13 C 0.47321(16) 1.0558(3) 0.1913(2)
H14 H 0.4237 0.9974 0.2024
C14 C 0.46827(15) 1.1480(3) 0.0996(2)
C15 C 0.54216(16) 1.2352(3) 0.0860(2)
H15 H 0.5401 1.2987 0.0247
C16 C 0.61858(14) 1.2301(2) 0.16126(19)
H16 H 0.6674 1.2899 0.1511
C17 C 0.38578(19) 1.1547(4) 0.0152(3)
H17 H 0.3498 1.0724 0.0226
H18 H 0.4056 1.1620 -0.0636
H19 H 0.3494 1.2338 0.0330
loop_
_geom_bond_atom_site_label_1
_geom_bond_atom_site_label_2
_geom_bond_site_symmetry_1
_geom_bond_site_symmetry_2
S1 N1 1_555 1_555
N1 C7 1_555 1_555
O1 C1 1_555 1_555
O2 S1 1_555 1_555
O3 S1 1_555 1_555
C1 C2 1_555 1_555
C2 H1 1_555 1_555
C3 C2 1_555 1_555
H2 C3 1_555 1_555
C4 O1 1_555 1_555
H3 C4 1_555 1_555
C5 C4 1_555 1_555
C6 C1 1_555 1_555
H4 C6 1_555 1_555
C7 C6 1_555 1_555
H5 C7 1_555 1_555
H6 C7 1_555 1_555
C8 N1 1_555 1_555
H7 C8 1_555 1_555
H8 C8 1_555 1_555
C9 C1 1_555 1_555
H9 C9 1_555 1_555
H10 C9 1_555 1_555
C10 C5 1_555 1_555
H11 C10 1_555 1_555
H12 C10 1_555 1_555
C11 S1 1_555 1_555
C12 C11 1_555 1_555
H13 C12 1_555 1_555
C13 C12 1_555 1_555
H14 C13 1_555 1_555
C14 C13 1_555 1_555
C15 C14 1_555 1_555
H15 C15 1_555 1_555
C16 C11 1_555 1_555
H16 C16 1_555 1_555
C17 C14 1_555 1_555
H17 C17 1_555 1_555
H18 C17 1_555 1_555
H19 C17 1_555 1_555
C3 C4 1_555 1_555
C5 C6 1_555 1_555
C8 C9 1_555 1_555
C15 C16 1_555 1_555

#END
