
#######################################################################
#
#                 Cambridge Crystallographic Data Centre
#                                CCDC 
#
#######################################################################
#
# If this CIF has been generated from an entry in the Cambridge 
# Structural Database, then it will include bibliographic, chemical, 
# crystal, experimental, refinement or atomic coordinate data resulting 
# from the CCDC's data processing and validation procedures.
#
#######################################################################

data_COVHUS
_chemical_formula_moiety         'C13 H14 N2 O7'
_chemical_name_systematic        
14,14-dimethyl-9,13,15,17-tetraoxa-2,4-diazatetracyclo[9.5.1.0^2,7^.0^12,16^]heptadec-6-ene-3,5,8-trione
_symmetry_cell_setting           orthorhombic
_symmetry_space_group_name_H-M   'P 21 21 21'
_symmetry_Int_Tables_number      19
_space_group_name_Hall           'P 2ac 2ab'
loop_
_symmetry_equiv_pos_site_id
_symmetry_equiv_pos_as_xyz
1 x,y,z
2 1/2-x,-y,1/2+z
3 -x,1/2+y,1/2-z
4 1/2+x,1/2-y,-z
_cell_length_a                   5.0946(2)
_cell_length_b                   14.4569(5)
_cell_length_c                   18.2887(7)
_cell_angle_alpha                90
_cell_angle_beta                 90
_cell_angle_gamma                90
_cell_volume                     1347
_exptl_crystal_colour            colorless
_exptl_crystal_description       Needle
_cell_formula_units_Z            4
loop_
_atom_site_label
_atom_site_type_symbol
_atom_site_fract_x
_atom_site_fract_y
_atom_site_fract_z
O1 O 0.2632(3) 0.65048(9) 0.67193(7)
O2 O 0.8408(3) 0.70484(10) 0.52671(7)
O3 O 0.5131(3) 0.52582(10) 0.53508(8)
O4 O 0.2045(3) 0.45792(11) 0.60660(8)
O5 O 1.1915(4) 0.92827(11) 0.67135(10)
O6 O 0.6050(3) 0.62341(10) 0.77431(8)
O7 O 0.4199(3) 0.75776(10) 0.81315(8)
N1 N 0.6776(3) 0.71962(11) 0.64186(9)
N2 N 1.0040(4) 0.81943(12) 0.59902(9)
H1 H 1.106(5) 0.837(2) 0.5636(14)
C1 C 0.4660(4) 0.65331(14) 0.61945(11)
H2 H 0.3893 0.6756 0.5723
C2 C 0.8424(4) 0.74527(14) 0.58528(11)
C3 C 0.5671(4) 0.55429(13) 0.60760(11)
H3 H 0.7573 0.5479 0.6202
C4 C 0.3923(4) 0.49457(14) 0.65645(11)
H4 H 0.4923 0.4453 0.6829
C5 C 1.0380(4) 0.86429(14) 0.66523(12)
C6 C 0.2514(4) 0.56032(13) 0.70786(11)
H5 H 0.0638 0.5409 0.7125
C7 C 0.8772(4) 0.82717(14) 0.72376(12)
H6 H 0.8921 0.8518 0.7717
C8 C 0.3699(4) 0.56953(14) 0.78355(11)
H7 H 0.2464 0.6012 0.8170
H8 H 0.4120 0.5079 0.8040
C9 C 0.7082(4) 0.75835(13) 0.71046(11)
C10 C 0.5560(4) 0.71560(14) 0.77141(11)
C11 C 0.3265(4) 0.45251(16) 0.53591(12)
C12 C 0.1254(5) 0.4734(3) 0.47810(14)
H9 H 0.0023 0.4215 0.4742
H10 H 0.2135 0.4826 0.4310
H11 H 0.0293 0.5297 0.4913
C13 C 0.4649(7) 0.36112(17) 0.52635(15)
H12 H 0.6012 0.3547 0.5638
H13 H 0.5457 0.3587 0.4778
H14 H 0.3379 0.3106 0.5312
loop_
_geom_bond_atom_site_label_1
_geom_bond_atom_site_label_2
_geom_bond_site_symmetry_1
_geom_bond_site_symmetry_2
O1 C1 1_555 1_555
O2 C2 1_555 1_555
O3 C3 1_555 1_555
O4 C4 1_555 1_555
O5 C5 1_555 1_555
O6 C8 1_555 1_555
O7 C10 1_555 1_555
N1 C1 1_555 1_555
N2 H1 1_555 1_555
C1 H2 1_555 1_555
C2 N1 1_555 1_555
C3 C1 1_555 1_555
H3 C3 1_555 1_555
C4 C3 1_555 1_555
H4 C4 1_555 1_555
C5 N2 1_555 1_555
C6 O1 1_555 1_555
H5 C6 1_555 1_555
C7 C5 1_555 1_555
H6 C7 1_555 1_555
C8 C6 1_555 1_555
H7 C8 1_555 1_555
H8 C8 1_555 1_555
C9 N1 1_555 1_555
C10 O6 1_555 1_555
C11 O3 1_555 1_555
C12 C11 1_555 1_555
H9 C12 1_555 1_555
H10 C12 1_555 1_555
H11 C12 1_555 1_555
C13 C11 1_555 1_555
H12 C13 1_555 1_555
H13 C13 1_555 1_555
H14 C13 1_555 1_555
O4 C11 1_555 1_555
N2 C2 1_555 1_555
C4 C6 1_555 1_555
C7 C9 1_555 1_555
C9 C10 1_555 1_555

#END
