
#######################################################################
#
#                 Cambridge Crystallographic Data Centre
#                                CCDC 
#
#######################################################################
#
# If this CIF has been generated from an entry in the Cambridge 
# Structural Database, then it will include bibliographic, chemical, 
# crystal, experimental, refinement or atomic coordinate data resulting 
# from the CCDC's data processing and validation procedures.
#
#######################################################################

data_COVLUV
_chemical_formula_moiety         '2(H12 Li1 N4 1+),H6 B6 2-,2(H3 N1)'
_chemical_name_systematic        
'bis(Tetra-ammine-lithium) closo-hexaborate bis(ammonia)'
_symmetry_cell_setting           monoclinic
_symmetry_space_group_name_H-M   'P 21/c'
_symmetry_Int_Tables_number      14
_space_group_name_Hall           '-P 2ybc'
loop_
_symmetry_equiv_pos_site_id
_symmetry_equiv_pos_as_xyz
1 x,y,z
2 -x,1/2+y,1/2-z
3 -x,-y,-z
4 x,1/2-y,1/2+z
_cell_length_a                   7.483(1)
_cell_length_b                   11.871(2)
_cell_length_c                   10.605(2)
_cell_angle_alpha                90
_cell_angle_beta                 95.371(3)
_cell_angle_gamma                90
_cell_volume                     937.913
_exptl_crystal_colour            colorless
_exptl_crystal_description       block
_cell_formula_units_Z            2
loop_
_atom_site_label
_atom_site_type_symbol
_atom_site_fract_x
_atom_site_fract_y
_atom_site_fract_z
N1 N 0.72772(6) 0.28503(4) -0.19922(5)
N2 N 0.25250(6) 0.29167(4) -0.21025(5)
N3 N 0.49377(6) 0.33816(4) -0.46644(4)
N4 N 0.44835(8) 0.07760(4) -0.34368(6)
Li1 Li 0.48030(11) 0.24936(8) -0.30176(8)
H1 H 0.1820(12) 0.3198(8) -0.2708(9)
H2 H 0.7939(14) 0.3173(9) -0.2515(10)
H3 H 0.1935(13) 0.2336(8) -0.1836(9)
H4 H 0.7887(13) 0.2274(8) -0.1668(9)
H5 H 0.7310(14) 0.3346(10) -0.1371(11)
H6 H 0.5850(13) 0.3803(8) -0.4658(8)
H7 H 0.4866(12) 0.2993(8) -0.5380(9)
H8 H 0.2539(15) 0.3420(9) -0.1514(11)
H9 H 0.4020(12) 0.3822(8) -0.4763(8)
H10 H 0.3713(13) 0.0547(8) -0.4048(9)
H11 H 0.4380(19) 0.0446(13) -0.2805(15)
H12 H 0.553(2) 0.0478(11) -0.3761(12)
N5 N 0.87047(8) 0.07009(7) -0.41071(6)
H13 H 0.9075(15) 0.0504(10) -0.3334(12)
H14 H 0.911(2) 0.1320(16) -0.4200(16)
H15 H 0.952(3) 0.039(2) -0.455(2)
B1 B -0.09434(6) 0.50465(4) -0.41206(4)
B2 B 0.01137(7) 0.39787(4) -0.48728(5)
B3 B 0.13340(6) 0.51230(4) -0.42564(4)
H16 H 0.2525(10) 0.5220(6) -0.3593(7)
H17 H -0.1784(11) 0.5093(6) -0.3327(8)
H18 H 0.0258(11) 0.3070(7) -0.4765(8)
B1B B 0.09434(6) 0.49535(4) -0.58794(4)
B2B B -0.01137(7) 0.60213(4) -0.51272(5)
B3B B -0.13340(6) 0.48770(4) -0.57436(4)
H16B H -0.2525(10) 0.4780(6) -0.6407(7)
H17B H 0.1784(11) 0.4907(6) -0.6673(8)
H18B H -0.0258(11) 0.6930(7) -0.5235(8)
loop_
_geom_bond_atom_site_label_1
_geom_bond_atom_site_label_2
_geom_bond_site_symmetry_1
_geom_bond_site_symmetry_2
N1 Li1 1_555 1_555
N2 Li1 1_555 1_555
N3 Li1 1_555 1_555
N4 Li1 1_555 1_555
H1 N2 1_555 1_555
H2 N1 1_555 1_555
H3 N2 1_555 1_555
H4 N1 1_555 1_555
H5 N1 1_555 1_555
H6 N3 1_555 1_555
H7 N3 1_555 1_555
H8 N2 1_555 1_555
H9 N3 1_555 1_555
H10 N4 1_555 1_555
H11 N4 1_555 1_555
H12 N4 1_555 1_555
N5 H13 1_555 1_555
H14 N5 1_555 1_555
H15 N5 1_555 1_555
B1 B2 1_555 1_555
B2 B3 1_555 1_555
B3 B1 1_555 1_555
H16 B3 1_555 1_555
H17 B1 1_555 1_555
H18 B2 1_555 1_555
B1B B2 1_555 1_555
B2B B1 1_555 1_555
B3B B1 1_555 1_555
H16B B3B 1_555 1_555
H17B B1B 1_555 1_555
H18B B2B 1_555 1_555
B2 B3B 1_555 1_555
B3 B1B 1_555 1_555
B3 B2B 1_555 1_555
B1B B2B 1_555 1_555
B1B B3B 1_555 1_555
B2B B3B 1_555 1_555

#END
