
#######################################################################
#
#                 Cambridge Crystallographic Data Centre
#                                CCDC 
#
#######################################################################
#
# If this CIF has been generated from an entry in the Cambridge 
# Structural Database, then it will include bibliographic, chemical, 
# crystal, experimental, refinement or atomic coordinate data resulting 
# from the CCDC's data processing and validation procedures.
#
#######################################################################

data_COVPEK
_chemical_formula_moiety         'C15 H10 N2 O2 S2'
_chemical_name_systematic        2,2'-methylenebis(1,2-benzothiazol-3(2H)-one)
_symmetry_cell_setting           monoclinic
_symmetry_space_group_name_H-M   'C 2/c'
_symmetry_Int_Tables_number      15
_space_group_name_Hall           '-C 2yn'
loop_
_symmetry_equiv_pos_site_id
_symmetry_equiv_pos_as_xyz
1 x,y,z
2 -x,y,1/2-z
3 1/2+x,1/2+y,z
4 1/2-x,1/2+y,1/2-z
5 -x,-y,-z
6 x,-y,1/2+z
7 1/2-x,1/2-y,-z
8 1/2+x,1/2-y,1/2+z
_cell_length_a                   25.052(8)
_cell_length_b                   4.5103(13)
_cell_length_c                   11.948(4)
_cell_angle_alpha                90
_cell_angle_beta                 100.992(4)
_cell_angle_gamma                90
_cell_volume                     1325.26
_exptl_crystal_colour            colorless
_exptl_crystal_description       Chunk
_cell_formula_units_Z            4
loop_
_atom_site_label
_atom_site_type_symbol
_atom_site_fract_x
_atom_site_fract_y
_atom_site_fract_z
S1 S 0.439650(14) 0.55523(8) 0.86678(3)
O1 O 0.42448(5) 0.7554(3) 0.55224(9)
N1 N 0.45174(5) 0.7300(3) 0.74616(10)
C1 C 0.38501(6) 0.3687(3) 0.78439(12)
C2 C 0.34980(6) 0.1671(4) 0.82215(14)
H1 H 0.3537 0.1179 0.9006
C3 C 0.30906(6) 0.0419(4) 0.74133(15)
H2 H 0.2848 -0.0959 0.7652
C4 C 0.30257(6) 0.1121(4) 0.62575(15)
H3 H 0.2743 0.0217 0.5723
C5 C 0.33707(6) 0.3123(4) 0.58883(14)
H4 H 0.3327 0.3619 0.5103
C6 C 0.37846(6) 0.4409(3) 0.66900(13)
C7 C 0.41875(6) 0.6536(3) 0.64474(12)
C8 C 0.5000 0.9096(5) 0.7500
H5 H 0.4945(7) 1.038(4) 0.6813(15)
S1A S 0.560350(14) 0.55523(8) 0.63322(3)
O1A O 0.57552(5) 0.7554(3) 0.94776(9)
N1A N 0.54826(5) 0.7300(3) 0.75384(10)
C1A C 0.61499(6) 0.3687(3) 0.71561(12)
C2A C 0.65020(6) 0.1671(4) 0.67785(14)
H1A H 0.6463 0.1179 0.5994
C3A C 0.69094(6) 0.0419(4) 0.75867(15)
H2A H 0.7152 -0.0959 0.7348
C4A C 0.69743(6) 0.1121(4) 0.87425(15)
H3A H 0.7257 0.0217 0.9277
C5A C 0.66293(6) 0.3123(4) 0.91117(14)
H4A H 0.6673 0.3619 0.9897
C6A C 0.62154(6) 0.4409(3) 0.83100(13)
C7A C 0.58125(6) 0.6536(3) 0.85526(12)
H5A H 0.5055(7) 1.038(4) 0.8187(15)
loop_
_geom_bond_atom_site_label_1
_geom_bond_atom_site_label_2
_geom_bond_site_symmetry_1
_geom_bond_site_symmetry_2
S1 N1 1_555 1_555
O1 C7 1_555 1_555
N1 C7 1_555 1_555
C1 S1 1_555 1_555
C2 C1 1_555 1_555
H1 C2 1_555 1_555
C3 C2 1_555 1_555
H2 C3 1_555 1_555
C4 C3 1_555 1_555
H3 C4 1_555 1_555
C5 C4 1_555 1_555
H4 C5 1_555 1_555
C6 C1 1_555 1_555
C7 C6 1_555 1_555
C8 N1 1_555 1_555
H5 C8 1_555 1_555
S1A N1A 1_555 1_555
O1A C7A 1_555 1_555
N1A C8 1_555 1_555
C1A S1A 1_555 1_555
C2A C1A 1_555 1_555
H1A C2A 1_555 1_555
C3A C2A 1_555 1_555
H2A C3A 1_555 1_555
C4A C3A 1_555 1_555
H3A C4A 1_555 1_555
C5A C4A 1_555 1_555
H4A C5A 1_555 1_555
C6A C1A 1_555 1_555
C7A N1A 1_555 1_555
H5A C8 1_555 1_555
C5 C6 1_555 1_555
C5A C6A 1_555 1_555
C6A C7A 1_555 1_555

#END
