
#######################################################################
#
#                 Cambridge Crystallographic Data Centre
#                                CCDC 
#
#######################################################################
#
# If this CIF has been generated from an entry in the Cambridge 
# Structural Database, then it will include bibliographic, chemical, 
# crystal, experimental, refinement or atomic coordinate data resulting 
# from the CCDC's data processing and validation procedures.
#
#######################################################################

data_COVROW
_chemical_formula_moiety         'C19 H16 Cl2 N2 O2'
_chemical_name_systematic        
'ethyl (4,5-bis(4-chlorophenyl)-1H-imidazol-1-yl)acetate'
_symmetry_cell_setting           monoclinic
_symmetry_space_group_name_H-M   'P 21/n'
_symmetry_Int_Tables_number      14
_space_group_name_Hall           '-P 2yn'
loop_
_symmetry_equiv_pos_site_id
_symmetry_equiv_pos_as_xyz
1 x,y,z
2 1/2-x,1/2+y,1/2-z
3 -x,-y,-z
4 1/2+x,1/2-y,1/2+z
_cell_length_a                   14.349(3)
_cell_length_b                   8.7918(18)
_cell_length_c                   15.352(3)
_cell_angle_alpha                90
_cell_angle_beta                 108.56(3)
_cell_angle_gamma                90
_cell_volume                     1835.98
_cell_formula_units_Z            4
loop_
_atom_site_label
_atom_site_type_symbol
_atom_site_fract_x
_atom_site_fract_y
_atom_site_fract_z
Cl1 Cl 0.67255(6) 1.18578(8) 1.03849(6)
Cl2 Cl 0.16704(5) 0.47538(10) 0.83133(7)
O1 O 0.47374(13) 0.4078(2) 0.58889(12)
O2 O 0.47521(11) 0.15548(18) 0.56772(11)
N1 N 0.73005(12) 0.5519(2) 0.81095(13)
N2 N 0.61221(12) 0.3792(2) 0.76210(12)
C1 C 0.56788(16) 0.8287(3) 0.87560(17)
H1 H 0.5068 0.7943 0.8387
C2 C 0.57360(17) 0.9650(3) 0.92315(18)
H2 H 0.5170 1.0205 0.9184
C3 C 0.66408(17) 1.0168(3) 0.97724(17)
C4 C 0.74836(17) 0.9354(3) 0.98435(17)
H3 H 0.8093 0.9713 1.0206
C5 C 0.74119(15) 0.8003(3) 0.93702(16)
H4 H 0.7982 0.7458 0.9419
C6 C 0.65074(14) 0.7429(2) 0.88182(14)
C7 C 0.64748(14) 0.5993(2) 0.83223(14)
C8 C 0.57346(14) 0.4944(2) 0.80215(14)
C9 C 0.47235(14) 0.4864(2) 0.80805(15)
C10 C 0.39485(16) 0.5562(3) 0.74279(17)
H5 H 0.4058 0.6066 0.6937
C11 C 0.30032(16) 0.5519(3) 0.74968(19)
H6 H 0.2483 0.5986 0.7053
C12 C 0.28483(17) 0.4782(3) 0.82250(19)
C13 C 0.3603(2) 0.4098(3) 0.8872(2)
H7 H 0.3490 0.3602 0.9364
C14 C 0.45375(17) 0.4132(3) 0.88031(18)
H8 H 0.5050 0.3656 0.9250
C15 C 0.70495(15) 0.4220(3) 0.76912(17)
H9 H 0.7465 0.3645 0.7464
C16 C 0.56297(15) 0.2453(3) 0.71343(15)
H10 H 0.5225 0.2010 0.7468
H11 H 0.6118 0.1705 0.7111
C17 C 0.49931(15) 0.2827(3) 0.61670(16)
C18 C 0.40897(17) 0.1707(3) 0.47334(17)
H12 H 0.3591 0.2462 0.4717
H13 H 0.3760 0.0744 0.4535
C19 C 0.4626(2) 0.2164(3) 0.40895(17)
H14 H 0.4875 0.3179 0.4232
H15 H 0.4185 0.2132 0.3470
H16 H 0.5163 0.1477 0.4151
loop_
_geom_bond_atom_site_label_1
_geom_bond_atom_site_label_2
_geom_bond_site_symmetry_1
_geom_bond_site_symmetry_2
Cl1 C3 1_555 1_555
Cl2 C12 1_555 1_555
O1 C17 1_555 1_555
O2 C17 1_555 1_555
N1 C7 1_555 1_555
N2 C8 1_555 1_555
C1 H1 1_555 1_555
C2 C1 1_555 1_555
H2 C2 1_555 1_555
C3 C2 1_555 1_555
C4 C3 1_555 1_555
H3 C4 1_555 1_555
C5 C4 1_555 1_555
H4 C5 1_555 1_555
C6 C1 1_555 1_555
C7 C6 1_555 1_555
C8 C7 1_555 1_555
C9 C8 1_555 1_555
C10 C9 1_555 1_555
H5 C10 1_555 1_555
C11 C10 1_555 1_555
H6 C11 1_555 1_555
C12 C11 1_555 1_555
C13 C12 1_555 1_555
H7 C13 1_555 1_555
C14 C9 1_555 1_555
H8 C14 1_555 1_555
C15 N1 1_555 1_555
H9 C15 1_555 1_555
C16 N2 1_555 1_555
H10 C16 1_555 1_555
H11 C16 1_555 1_555
C17 C16 1_555 1_555
C18 O2 1_555 1_555
H12 C18 1_555 1_555
H13 C18 1_555 1_555
C19 C18 1_555 1_555
H14 C19 1_555 1_555
H15 C19 1_555 1_555
H16 C19 1_555 1_555
N2 C15 1_555 1_555
C5 C6 1_555 1_555
C13 C14 1_555 1_555

#END
