
#######################################################################
#
#                 Cambridge Crystallographic Data Centre
#                                CCDC 
#
#######################################################################
#
# If this CIF has been generated from an entry in the Cambridge 
# Structural Database, then it will include bibliographic, chemical, 
# crystal, experimental, refinement or atomic coordinate data resulting 
# from the CCDC's data processing and validation procedures.
#
#######################################################################

data_COVTAK
_chemical_formula_moiety         'C25 H18 F6 O4'
_chemical_name_systematic        
'(E)-methyl 1-oxo-3-phenyl-3-(trifluoromethyl)-6a-(3,3,3-trifluoro-2-phenylprop-1-en-1-yl)-3,3a,4,6a-tetrahydro-1H-cyclopenta[c]furan-5-carboxylate'
_symmetry_cell_setting           monoclinic
_symmetry_space_group_name_H-M   'C c'
_symmetry_Int_Tables_number      9
_space_group_name_Hall           'C -2yc'
loop_
_symmetry_equiv_pos_site_id
_symmetry_equiv_pos_as_xyz
1 x,y,z
2 x,-y,1/2+z
3 1/2+x,1/2+y,z
4 1/2+x,1/2-y,1/2+z
_cell_length_a                   12.1236(11)
_cell_length_b                   17.9421(18)
_cell_length_c                   10.6878(10)
_cell_angle_alpha                90
_cell_angle_beta                 99.828(2)
_cell_angle_gamma                90
_cell_volume                     2290.72
_exptl_crystal_colour            colorless
_exptl_crystal_description       prismatic
_chemical_melting_point          '421 K'
_cell_formula_units_Z            4
_exptl_crystal_recrystallization_method 'n-hexane/ethyl acetate'
loop_
_atom_site_label
_atom_site_type_symbol
_atom_site_fract_x
_atom_site_fract_y
_atom_site_fract_z
F1 F 0.2831(2) 0.07599(14) -0.2595(2)
F2 F 0.1559(2) 0.15972(15) -0.2804(2)
F3 F 0.3285(2) 0.19124(14) -0.2420(2)
F4 F 0.7848(3) 0.2571(3) -0.0242(3)
F5 F 0.6566(3) 0.28957(16) -0.1746(3)
F6 F 0.7340(2) 0.18594(16) -0.1806(3)
O1 O 0.3186(2) 0.31919(13) 0.0127(3)
O2 O 0.22773(18) 0.21380(11) -0.0410(2)
O3 O 0.4267(3) 0.06112(18) 0.4046(3)
O4 O 0.5019(2) 0.17441(15) 0.4335(2)
C1 C 0.3215(3) 0.25371(18) 0.0009(3)
C2 C 0.2535(3) 0.13762(16) -0.0711(3)
C3 C 0.3737(2) 0.12265(17) 0.0018(3)
H1 H 0.4178 0.0965 -0.0533
C4 C 0.4224(3) 0.20198(17) 0.0334(3)
C5 C 0.4548(3) 0.20193(18) 0.1763(3)
H2 H 0.4870 0.2424 0.2233
C6 C 0.4321(2) 0.13772(18) 0.2269(3)
C7 C 0.3825(3) 0.08170(18) 0.1297(4)
H3 H 0.3092 0.0659 0.1443
H4 H 0.4304 0.0383 0.1319
C8 C 0.4526(3) 0.1196(2) 0.3637(4)
C9 C 0.5217(4) 0.1645(3) 0.5691(4)
H5 H 0.4883 0.1186 0.5898
H6 H 0.4890 0.2053 0.6082
H7 H 0.6008 0.1631 0.5999
C10 C 0.2548(3) 0.1405(2) -0.2147(4)
C11 C 0.1614(3) 0.08691(17) -0.0440(3)
C12 C 0.1709(3) 0.0107(2) -0.0565(4)
H8 H 0.2341 -0.0093 -0.0824
C13 C 0.0876(4) -0.0359(2) -0.0309(5)
H9 H 0.0952 -0.0871 -0.0397
C14 C -0.0045(4) -0.0086(3) 0.0068(6)
H10 H -0.0601 -0.0406 0.0246
C15 C -0.0157(4) 0.0665(3) 0.0186(8)
H11 H -0.0793 0.0857 0.0446
C16 C 0.0667(4) 0.1145(3) -0.0077(6)
H12 H 0.0576 0.1657 -0.0008
C17 C 0.5151(3) 0.22893(18) -0.0335(3)
H13 H 0.5013 0.2722 -0.0816
C18 C 0.6145(3) 0.19700(18) -0.0305(3)
C19 C 0.6971(3) 0.2327(2) -0.1016(4)
C20 C 0.6560(3) 0.12868(18) 0.0406(3)
C21 C 0.7068(4) 0.1336(2) 0.1672(4)
H14 H 0.7105 0.1795 0.2083
C22 C 0.7514(4) 0.0717(3) 0.2324(5)
H15 H 0.7856 0.0758 0.3168
C23 C 0.7454(4) 0.0034(3) 0.1723(6)
H16 H 0.7749 -0.0388 0.2163
C24 C 0.6958(3) -0.0019(2) 0.0479(5)
H17 H 0.6919 -0.0479 0.0073
C25 C 0.6518(3) 0.0598(2) -0.0176(4)
H18 H 0.6186 0.0553 -0.1024
loop_
_geom_bond_atom_site_label_1
_geom_bond_atom_site_label_2
_geom_bond_site_symmetry_1
_geom_bond_site_symmetry_2
F1 C10 1_555 1_555
F2 C10 1_555 1_555
F3 C10 1_555 1_555
F4 C19 1_555 1_555
F5 C19 1_555 1_555
F6 C19 1_555 1_555
O1 C1 1_555 1_555
O2 C1 1_555 1_555
O3 C8 1_555 1_555
O4 C8 1_555 1_555
C1 C4 1_555 1_555
C2 O2 1_555 1_555
C3 C2 1_555 1_555
H1 C3 1_555 1_555
C4 C3 1_555 1_555
C5 C4 1_555 1_555
H2 C5 1_555 1_555
C6 C5 1_555 1_555
C7 C3 1_555 1_555
H3 C7 1_555 1_555
H4 C7 1_555 1_555
C8 C6 1_555 1_555
C9 O4 1_555 1_555
H5 C9 1_555 1_555
H6 C9 1_555 1_555
H7 C9 1_555 1_555
C10 C2 1_555 1_555
C11 C2 1_555 1_555
C12 C11 1_555 1_555
H8 C12 1_555 1_555
C13 C12 1_555 1_555
H9 C13 1_555 1_555
C14 C13 1_555 1_555
H10 C14 1_555 1_555
C15 C14 1_555 1_555
H11 C15 1_555 1_555
C16 C11 1_555 1_555
H12 C16 1_555 1_555
C17 C4 1_555 1_555
H13 C17 1_555 1_555
C18 C17 1_555 1_555
C19 C18 1_555 1_555
C20 C18 1_555 1_555
C21 C20 1_555 1_555
H14 C21 1_555 1_555
C22 C21 1_555 1_555
H15 C22 1_555 1_555
C23 C22 1_555 1_555
H16 C23 1_555 1_555
C24 C23 1_555 1_555
H17 C24 1_555 1_555
C25 C20 1_555 1_555
H18 C25 1_555 1_555
C6 C7 1_555 1_555
C15 C16 1_555 1_555
C24 C25 1_555 1_555

#END
