
#######################################################################
#
#                 Cambridge Crystallographic Data Centre
#                                CCDC 
#
#######################################################################
#
# If this CIF has been generated from an entry in the Cambridge 
# Structural Database, then it will include bibliographic, chemical, 
# crystal, experimental, refinement or atomic coordinate data resulting 
# from the CCDC's data processing and validation procedures.
#
#######################################################################

data_COVXUH
_chemical_compound_source        'H. hainanensis stem bark'
_chemical_name_common            
4,8,10-trimethoxy-11b-(4-methoxyphenyl)-7-(4-oxocyclohexa-2,5-dien-1-ylidene)-7,11b-dihydro-2-oxadibenzo[cd,h]azulene-1,6-dione
_chemical_formula_moiety         'C32 H24 O8'
_chemical_name_systematic        'permethyl hopeahainol A ether'
_chemical_properties_biological  
'Hopeahainol A is an acetylcholinesterase inhibitor'
_symmetry_cell_setting           monoclinic
_symmetry_space_group_name_H-M   'P 21'
_symmetry_Int_Tables_number      4
_space_group_name_Hall           'P 2yb'
loop_
_symmetry_equiv_pos_site_id
_symmetry_equiv_pos_as_xyz
1 x,y,z
2 -x,1/2+y,-z
_cell_length_a                   14.5707(9)
_cell_length_b                   12.0398(7)
_cell_length_c                   14.7197(9)
_cell_angle_alpha                90
_cell_angle_beta                 94.1140(10)
_cell_angle_gamma                90
_cell_volume                     2575.6
_cell_formula_units_Z            4
loop_
_atom_site_label
_atom_site_type_symbol
_atom_site_fract_x
_atom_site_fract_y
_atom_site_fract_z
C1 C -0.1778(4) 0.2818(5) 0.3513(4)
H1 H -0.1446 0.2425 0.4000
H2 H -0.2339 0.2431 0.3339
H3 H -0.1918 0.3554 0.3712
C2 C 0.5353(4) 0.1260(5) 0.4235(4)
H4 H 0.5054 0.1258 0.4796
H5 H 0.5958 0.0949 0.4337
H6 H 0.5000 0.0825 0.3789
C3 C 0.2157(4) 0.6943(5) -0.0681(3)
H7 H 0.1623 0.7369 -0.0558
H8 H 0.2056 0.6585 -0.1262
H9 H 0.2680 0.7427 -0.0688
C4 C 0.2694(4) 0.9784(4) 0.1796(4)
H10 H 0.3255 0.9574 0.1539
H11 H 0.2790 1.0458 0.2139
H12 H 0.2222 0.9901 0.1316
C37 C 0.3143(3) 0.3949(4) 0.0923(3)
C38 C 0.3983(3) 0.4573(5) 0.0849(3)
H37 H 0.4002 0.5314 0.1027
C39 C 0.4731(4) 0.4118(6) 0.0531(4)
H38 H 0.5254 0.4554 0.0497
C40 C 0.4761(5) 0.2961(7) 0.0236(4)
C41 C 0.3926(5) 0.2351(6) 0.0336(4)
H39 H 0.3912 0.1605 0.0172
C42 C 0.3170(4) 0.2791(5) 0.0649(3)
H40 H 0.2652 0.2349 0.0692
C43 C 0.2384(3) 0.4428(4) 0.1250(3)
C44 C 0.1511(3) 0.3787(4) 0.1281(3)
C45 C 0.0985(3) 0.3866(3) 0.2111(3)
C46 C 0.0116(3) 0.3378(4) 0.2099(3)
H41 H -0.0124 0.3027 0.1572
C47 C -0.0397(3) 0.3406(4) 0.2859(3)
C48 C -0.0061(3) 0.3930(4) 0.3656(3)
H42 H -0.0396 0.3957 0.4170
C49 C 0.0796(3) 0.4406(4) 0.3641(3)
C50 C 0.1339(3) 0.4376(4) 0.2914(3)
C51 C 0.3069(3) 0.4244(4) 0.3297(3)
C52 C 0.2985(3) 0.3139(4) 0.3508(3)
H43 H 0.2403 0.2825 0.3522
C53 C 0.3759(3) 0.2484(4) 0.3701(3)
H44 H 0.3691 0.1732 0.3826
C54 C 0.4629(3) 0.2942(4) 0.3709(3)
C55 C 0.4707(3) 0.4032(5) 0.3483(3)
H45 H 0.5291 0.4337 0.3455
C56 C 0.3950(3) 0.4696(5) 0.3294(3)
H46 H 0.4025 0.5445 0.3165
C57 C 0.2222(3) 0.5000(4) 0.3155(3)
C58 C 0.2030(3) 0.5437(4) 0.4108(3)
C59 C 0.2344(3) 0.5932(4) 0.2467(3)
C60 C 0.2366(3) 0.5618(4) 0.1541(3)
C61 C 0.2375(3) 0.6466(4) 0.0895(3)
C62 C 0.2416(3) 0.7586(4) 0.1149(3)
H47 H 0.2443 0.8139 0.0710
C63 C 0.2415(3) 0.7855(4) 0.2054(3)
C64 C 0.2373(3) 0.7032(4) 0.2713(3)
H48 H 0.2363 0.7228 0.3323
O1 O 0.5438(3) 0.2535(5) -0.0064(3)
O2 O 0.1207(3) 0.3251(4) 0.0632(2)
O3 O -0.1222(2) 0.2885(3) 0.2745(3)
O4 O 0.5421(2) 0.2378(3) 0.3914(3)
O5 O 0.2484(2) 0.6024(3) 0.46056(19)
O6 O 0.12168(19) 0.5000(3) 0.43736(18)
O7 O 0.2323(2) 0.6124(3) 0.0012(2)
O8 O 0.2418(2) 0.8931(3) 0.2377(2)
C5 C 0.9915(4) 0.4775(6) -0.0872(4)
H13 H 0.9892 0.5546 -0.1038
H14 H 0.9845 0.4326 -0.1411
H15 H 1.0495 0.4615 -0.0549
C6 C 0.9139(3) 0.5150(4) 0.0466(3)
C7 C 0.9803(3) 0.5897(4) 0.0790(3)
H16 H 1.0330 0.6028 0.0485
C8 C 0.9646(3) 0.6438(4) 0.1586(3)
C9 C 0.8363(3) 0.4978(4) 0.0935(3)
H17 H 0.7922 0.4474 0.0705
C10 C 0.8220(3) 0.5534(4) 0.1742(3)
C11 C 0.8880(3) 0.6309(3) 0.2063(3)
C12 C 0.9937(3) 0.7510(4) 0.2817(3)
C13 C 0.8943(3) 0.7088(4) 0.2858(3)
C14 C 0.8339(3) 0.8131(3) 0.2708(3)
C15 C 0.7828(3) 0.8338(4) 0.1893(3)
H18 H 0.7879 0.7859 0.1404
C16 C 0.7245(3) 0.9242(4) 0.1797(3)
H19 H 0.6896 0.9356 0.1251
C17 C 0.7182(3) 0.9968(4) 0.2505(3)
C18 C 0.7720(3) 0.9808(4) 0.3306(3)
H20 H 0.7702 1.0321 0.3777
C19 C 0.8280(3) 0.8893(4) 0.3409(3)
H21 H 0.8626 0.8783 0.3957
C20 C 0.5904(4) 1.0963(6) 0.1785(4)
H22 H 0.6163 1.1044 0.1207
H23 H 0.5525 1.1595 0.1893
H24 H 0.5537 1.0301 0.1781
C21 C 0.4989(3) 0.8248(5) 0.3001(3)
C22 C 0.5052(3) 0.7435(5) 0.2276(3)
H25 H 0.4606 0.7435 0.1790
C23 C 0.5726(3) 0.6694(4) 0.2288(3)
H26 H 0.5758 0.6210 0.1799
C24 C 0.6419(3) 0.6624(4) 0.3053(3)
C25 C 0.6300(3) 0.7369(4) 0.3814(3)
H27 H 0.6707 0.7321 0.4329
C26 C 0.5626(3) 0.8116(5) 0.3795(3)
H28 H 0.5562 0.8562 0.4303
C27 C 0.7190(3) 0.5993(4) 0.3033(3)
C28 C 0.7361(3) 0.5301(4) 0.2207(3)
C29 C 0.7914(3) 0.5971(4) 0.3805(3)
C30 C 0.7734(3) 0.5427(4) 0.4612(3)
C31 C 0.8360(3) 0.5456(4) 0.5372(3)
H29 H 0.8232 0.5094 0.5907
C32 C 0.9179(3) 0.6035(4) 0.5320(3)
C33 C 0.9387(3) 0.6561(4) 0.4514(3)
H30 H 0.9941 0.6938 0.4483
C34 C 0.9648(4) 0.5741(5) 0.6882(3)
H31 H 0.9112 0.6111 0.7076
H32 H 1.0163 0.5891 0.7308
H33 H 0.9539 0.4955 0.6854
C35 C 0.6780(4) 0.4131(6) 0.5317(3)
H34 H 0.7289 0.3626 0.5385
H35 H 0.6222 0.3722 0.5178
H36 H 0.6734 0.4536 0.5874
C36 C 0.8759(3) 0.6516(3) 0.3764(3)
O9 O 0.9190(2) 0.4535(3) -0.0304(2)
O10 O 0.6812(2) 0.4624(3) 0.1913(2)
O11 O 0.4444(2) 0.9031(4) 0.2933(3)
O12 O 0.6918(2) 0.4883(3) 0.4601(2)
O13 O 0.9840(2) 0.6132(3) 0.6013(2)
O14 O 1.0388(2) 0.8077(3) 0.3341(2)
O15 O 1.0275(2) 0.7172(3) 0.2006(2)
O16 O 0.6627(3) 1.0889(3) 0.2488(2)
loop_
_geom_bond_atom_site_label_1
_geom_bond_atom_site_label_2
_geom_bond_site_symmetry_1
_geom_bond_site_symmetry_2
C1 H1 1_555 1_555
H2 C1 1_555 1_555
H3 C1 1_555 1_555
C2 H4 1_555 1_555
H5 C2 1_555 1_555
H6 C2 1_555 1_555
C3 H7 1_555 1_555
H8 C3 1_555 1_555
H9 C3 1_555 1_555
C4 H10 1_555 1_555
H11 C4 1_555 1_555
H12 C4 1_555 1_555
C5 H13 1_555 1_555
H14 C5 1_555 1_555
H15 C5 1_555 1_555
C6 C7 1_555 1_555
C7 H16 1_555 1_555
C8 C7 1_555 1_555
C9 C6 1_555 1_555
H17 C9 1_555 1_555
C10 C9 1_555 1_555
C11 C8 1_555 1_555
C12 C13 1_555 1_555
C13 C11 1_555 1_555
C14 C13 1_555 1_555
C15 C14 1_555 1_555
H18 C15 1_555 1_555
C16 C15 1_555 1_555
H19 C16 1_555 1_555
C17 C16 1_555 1_555
C18 C17 1_555 1_555
H20 C18 1_555 1_555
C19 C14 1_555 1_555
H21 C19 1_555 1_555
C20 H22 1_555 1_555
H23 C20 1_555 1_555
H24 C20 1_555 1_555
C21 C22 1_555 1_555
C22 H25 1_555 1_555
C23 C22 1_555 1_555
H26 C23 1_555 1_555
C24 C23 1_555 1_555
C25 C24 1_555 1_555
H27 C25 1_555 1_555
C26 C21 1_555 1_555
H28 C26 1_555 1_555
C27 C24 1_555 1_555
C28 C10 1_555 1_555
C29 C27 1_555 1_555
C30 C29 1_555 1_555
C31 C30 1_555 1_555
H29 C31 1_555 1_555
C32 C31 1_555 1_555
C33 C32 1_555 1_555
H30 C33 1_555 1_555
C34 H31 1_555 1_555
H32 C34 1_555 1_555
H33 C34 1_555 1_555
C35 H34 1_555 1_555
H35 C35 1_555 1_555
H36 C35 1_555 1_555
C36 C13 1_555 1_555
C37 C38 1_555 1_555
C38 H37 1_555 1_555
C39 C38 1_555 1_555
H38 C39 1_555 1_555
C40 C39 1_555 1_555
C41 C40 1_555 1_555
H39 C41 1_555 1_555
C42 C37 1_555 1_555
H40 C42 1_555 1_555
C43 C37 1_555 1_555
C44 C43 1_555 1_555
C45 C44 1_555 1_555
C46 C45 1_555 1_555
H41 C46 1_555 1_555
C47 C46 1_555 1_555
C48 C47 1_555 1_555
H42 C48 1_555 1_555
C49 C48 1_555 1_555
C50 C45 1_555 1_555
C51 C52 1_555 1_555
C52 H43 1_555 1_555
C53 C52 1_555 1_555
H44 C53 1_555 1_555
C54 C53 1_555 1_555
C55 C54 1_555 1_555
H45 C55 1_555 1_555
C56 C51 1_555 1_555
H46 C56 1_555 1_555
C57 C50 1_555 1_555
C58 C57 1_555 1_555
C59 C57 1_555 1_555
C60 C43 1_555 1_555
C61 C60 1_555 1_555
C62 C61 1_555 1_555
H47 C62 1_555 1_555
C63 C62 1_555 1_555
C64 C59 1_555 1_555
H48 C64 1_555 1_555
O1 C40 1_555 1_555
O2 C44 1_555 1_555
O3 C1 1_555 1_555
O4 C2 1_555 1_555
O5 C58 1_555 1_555
O6 C49 1_555 1_555
O7 C3 1_555 1_555
O8 C4 1_555 1_555
O9 C5 1_555 1_555
O10 C28 1_555 1_555
O11 C21 1_555 1_555
O12 C30 1_555 1_555
O13 C32 1_555 1_555
O14 C12 1_555 1_555
O15 C8 1_555 1_555
O16 C17 1_555 1_555
C6 O9 1_555 1_555
C10 C11 1_555 1_555
C12 O15 1_555 1_555
C18 C19 1_555 1_555
C20 O16 1_555 1_555
C25 C26 1_555 1_555
C27 C28 1_555 1_555
C29 C36 1_555 1_555
C33 C36 1_555 1_555
C34 O13 1_555 1_555
C35 O12 1_555 1_555
C41 C42 1_555 1_555
C47 O3 1_555 1_555
C49 C50 1_555 1_555
C51 C57 1_555 1_555
C54 O4 1_555 1_555
C55 C56 1_555 1_555
C58 O6 1_555 1_555
C59 C60 1_555 1_555
C61 O7 1_555 1_555
C63 C64 1_555 1_555
C63 O8 1_555 1_555

#END
