
#######################################################################
#
#                 Cambridge Crystallographic Data Centre
#                                CCDC 
#
#######################################################################
#
# If this CIF has been generated from an entry in the Cambridge 
# Structural Database, then it will include bibliographic, chemical, 
# crystal, experimental, refinement or atomic coordinate data resulting 
# from the CCDC's data processing and validation procedures.
#
#######################################################################

data_COVXAN01
_chemical_compound_source        'leaves of Paranephelium hainanensis'
_chemical_formula_moiety         'C4 H5 N3 O4'
_chemical_name_systematic        '(2,5-Dioxoimidazolidin-4-yl)carbamic acid'
_symmetry_cell_setting           monoclinic
_symmetry_space_group_name_H-M   'P 21/c'
_symmetry_Int_Tables_number      14
_space_group_name_Hall           '-P 2ybc'
loop_
_symmetry_equiv_pos_site_id
_symmetry_equiv_pos_as_xyz
1 x,y,z
2 -x,1/2+y,1/2-z
3 -x,-y,-z
4 x,1/2-y,1/2+z
_cell_length_a                   7.9723(2)
_cell_length_b                   5.14070(10)
_cell_length_c                   14.6945(3)
_cell_angle_alpha                90
_cell_angle_beta                 92.771(3)
_cell_angle_gamma                90
_cell_volume                     601.524
_exptl_crystal_colour            colorless
_exptl_crystal_description       block
_cell_formula_units_Z            4
loop_
_atom_site_label
_atom_site_type_symbol
_atom_site_fract_x
_atom_site_fract_y
_atom_site_fract_z
O1 O 0.0682(3) 0.1774(4) 0.92162(14)
O2 O 0.6379(3) 0.2871(4) 0.93757(15)
O3 O 0.2347(3) 0.3903(4) 0.74616(14)
O4 O 0.1060(3) 0.1775(5) 0.62672(17)
H1 H 0.0868 0.3263 0.6091
N1 N 0.3482(3) 0.2715(5) 0.94865(16)
H2 H 0.3400 0.3836 0.9916
N2 N 0.4669(3) 0.0117(5) 0.85009(17)
H3 H 0.5424 -0.0600 0.8186
N3 N 0.2110(3) -0.0468(5) 0.75221(16)
H4 H 0.1804 -0.1893 0.7256
C1 C 0.2891(4) -0.0539(5) 0.84193(19)
H5 H 0.2742 -0.2284 0.8671
C2 C 0.4986(4) 0.1977(5) 0.91274(19)
C3 C 0.2167(4) 0.1462(5) 0.90802(19)
C4 C 0.1849(3) 0.1846(5) 0.70889(19)
loop_
_geom_bond_atom_site_label_1
_geom_bond_atom_site_label_2
_geom_bond_site_symmetry_1
_geom_bond_site_symmetry_2
O1 C3 1_555 1_555
O2 C2 1_555 1_555
O3 C4 1_555 1_555
O4 H1 1_555 1_555
N1 H2 1_555 1_555
N2 H3 1_555 1_555
N3 H4 1_555 1_555
C1 N2 1_555 1_555
H5 C1 1_555 1_555
C2 N1 1_555 1_555
C3 N1 1_555 1_555
C4 O4 1_555 1_555
N2 C2 1_555 1_555
N3 C1 1_555 1_555
N3 C4 1_555 1_555
C1 C3 1_555 1_555

#END
