
#######################################################################
#
#                 Cambridge Crystallographic Data Centre
#                                CCDC 
#
#######################################################################
#
# If this CIF has been generated from an entry in the Cambridge 
# Structural Database, then it will include bibliographic, chemical, 
# crystal, experimental, refinement or atomic coordinate data resulting 
# from the CCDC's data processing and validation procedures.
#
#######################################################################

data_COVZAQ
_chemical_formula_moiety         'C24 H14 N4 O4 2+,H2 O1,2(I1 1-)'
_chemical_name_systematic        
"N,N'-bis(4-Pyridinio)-1,4,5,8-naphthalenedi-imide bis(iodide) monohydrate"
_symmetry_cell_setting           monoclinic
_symmetry_space_group_name_H-M   'C 2/c'
_symmetry_Int_Tables_number      15
_space_group_name_Hall           '-C 2yn'
loop_
_symmetry_equiv_pos_site_id
_symmetry_equiv_pos_as_xyz
1 x,y,z
2 -x,y,1/2-z
3 1/2+x,1/2+y,z
4 1/2-x,1/2+y,1/2-z
5 -x,-y,-z
6 x,-y,1/2+z
7 1/2-x,1/2-y,-z
8 1/2+x,1/2-y,1/2+z
_cell_length_a                   15.786(3)
_cell_length_b                   8.5029(17)
_cell_length_c                   17.617(4)
_cell_angle_alpha                90
_cell_angle_beta                 102.38(3)
_cell_angle_gamma                90
_cell_volume                     2309.69
_exptl_crystal_colour            red
_exptl_crystal_description       block
_cell_formula_units_Z            4
loop_
_atom_site_label
_atom_site_type_symbol
_atom_site_fract_x
_atom_site_fract_y
_atom_site_fract_z
I1 I 0.086727(13) 0.13768(3) 0.428074(11)
O1 O 0.26628(15) 0.2035(3) 0.88249(13)
O2 O 0.40956(16) -0.1687(3) 0.77352(14)
N1 N 0.1536(2) 0.0411(4) 0.62255(16)
H1 H 0.1151 0.0452 0.5799
N2 N 0.33943(16) 0.0201(3) 0.82780(14)
C1 C 0.1290(2) 0.0003(4) 0.6876(2)
H2 H 0.0712 -0.0234 0.6863
C2 C 0.1890(2) -0.0066(4) 0.75669(19)
H3 H 0.1725 -0.0340 0.8025
C3 C 0.2748(2) 0.0281(4) 0.75647(17)
C4 C 0.2989(2) 0.0711(4) 0.68828(18)
H4 H 0.3561 0.0962 0.6879
C5 C 0.2356(2) 0.0757(5) 0.62088(19)
H5 H 0.2501 0.1031 0.5742
C6 C 0.3276(2) 0.1147(4) 0.89033(18)
C7 C 0.39427(19) 0.1000(4) 0.96316(17)
C8 C 0.46757(19) 0.0035(3) 0.96554(16)
C9 C 0.47784(19) -0.0865(4) 0.90063(17)
C10 C 0.4093(2) -0.0850(4) 0.82873(17)
C11 C 0.3853(2) 0.1857(4) 1.02745(17)
H6 H 0.3366 0.2485 1.0252
C12 C 0.5501(2) -0.1783(4) 0.90327(18)
H7 H 0.5565 -0.2353 0.8598
O1D O 0.73372(15) -0.2035(3) 1.11751(13)
O2D O 0.59044(16) 0.1687(3) 1.22648(14)
N1D N 0.8464(2) -0.0411(4) 1.37745(16)
H1D H 0.8849 -0.0452 1.4201
N2D N 0.66057(16) -0.0201(3) 1.17220(14)
C1D C 0.8710(2) -0.0003(4) 1.3124(2)
H2D H 0.9288 0.0234 1.3137
C2D C 0.8110(2) 0.0066(4) 1.24331(19)
H3D H 0.8275 0.0340 1.1975
C3D C 0.7252(2) -0.0281(4) 1.24353(17)
C4D C 0.7011(2) -0.0711(4) 1.31172(18)
H4D H 0.6439 -0.0962 1.3121
C5D C 0.7644(2) -0.0757(5) 1.37912(19)
H5D H 0.7499 -0.1031 1.4258
C6D C 0.6724(2) -0.1147(4) 1.10967(18)
C7D C 0.60573(19) -0.1000(4) 1.03684(17)
C8D C 0.53243(19) -0.0035(3) 1.03446(16)
C9D C 0.52216(19) 0.0865(4) 1.09937(17)
C10D C 0.5907(2) 0.0850(4) 1.17127(17)
C11D C 0.6147(2) -0.1857(4) 0.97255(17)
H6D H 0.6634 -0.2485 0.9748
C12D C 0.4499(2) 0.1783(4) 1.09673(18)
H7D H 0.4435 0.2353 1.1402
O3 O 0.5000 0.1737(17) 0.7500
H8 H 0.517(12) 0.240(4) 0.788(2)
H8A H 0.483(12) 0.240(4) 0.712(2)
loop_
_geom_bond_atom_site_label_1
_geom_bond_atom_site_label_2
_geom_bond_site_symmetry_1
_geom_bond_site_symmetry_2
O1 C6 1_555 1_555
O2 C10 1_555 1_555
N1 H1 1_555 1_555
N2 C3 1_555 1_555
C1 N1 1_555 1_555
H2 C1 1_555 1_555
C2 C1 1_555 1_555
H3 C2 1_555 1_555
C3 C2 1_555 1_555
C4 C3 1_555 1_555
H4 C4 1_555 1_555
C5 N1 1_555 1_555
H5 C5 1_555 1_555
C6 N2 1_555 1_555
C7 C6 1_555 1_555
C8 C7 1_555 1_555
C9 C8 1_555 1_555
C10 N2 1_555 1_555
C11 C7 1_555 1_555
H6 C11 1_555 1_555
C12 C9 1_555 1_555
H7 C12 1_555 1_555
O3 H8 1_555 1_555
O1D C6D 1_555 1_555
O2D C10D 1_555 1_555
N1D H1D 1_555 1_555
N2D C3D 1_555 1_555
C1D N1D 1_555 1_555
H2D C1D 1_555 1_555
C2D C1D 1_555 1_555
H3D C2D 1_555 1_555
C3D C2D 1_555 1_555
C4D C3D 1_555 1_555
H4D C4D 1_555 1_555
C5D N1D 1_555 1_555
H5D C5D 1_555 1_555
C6D N2D 1_555 1_555
C7D C6D 1_555 1_555
C8D C8 1_555 1_555
C9D C8D 1_555 1_555
C10D N2D 1_555 1_555
C11D C12 1_555 1_555
H6D C11D 1_555 1_555
C12D C11 1_555 1_555
H7D C12D 1_555 1_555
H8A O3 1_555 1_555
C4 C5 1_555 1_555
C9 C10 1_555 1_555
C4D C5D 1_555 1_555
C7D C8D 1_555 1_555
C7D C11D 1_555 1_555
C9D C10D 1_555 1_555
C9D C12D 1_555 1_555

#END
