
#######################################################################
#
#                 Cambridge Crystallographic Data Centre
#                                CCDC 
#
#######################################################################
#
# If this CIF has been generated from an entry in the Cambridge 
# Structural Database, then it will include bibliographic, chemical, 
# crystal, experimental, refinement or atomic coordinate data resulting 
# from the CCDC's data processing and validation procedures.
#
#######################################################################

data_COWBIB
_chemical_formula_moiety         'C18 H21 N1 O4'
_chemical_name_systematic        
'Methyl 6-methoxy-5-oxo-5,6,7,8,9,10,11,12-octahydrocycloocta[c]isoquinoline-2-carboxylate'
_symmetry_cell_setting           triclinic
_symmetry_space_group_name_H-M   'P -1'
_symmetry_Int_Tables_number      2
_space_group_name_Hall           '-P 1'
loop_
_symmetry_equiv_pos_site_id
_symmetry_equiv_pos_as_xyz
1 x,y,z
2 -x,-y,-z
_cell_length_a                   5.7842(15)
_cell_length_b                   9.566(3)
_cell_length_c                   15.111(4)
_cell_angle_alpha                98.405(4)
_cell_angle_beta                 95.963(4)
_cell_angle_gamma                104.965(4)
_cell_volume                     790.26
_cell_formula_units_Z            2
loop_
_atom_site_label
_atom_site_type_symbol
_atom_site_fract_x
_atom_site_fract_y
_atom_site_fract_z
O1 O 1.1869(2) 0.66630(13) 0.40473(8)
O2 O 0.8513(3) 0.75109(14) 0.31261(10)
O3 O 0.0237(2) 0.25996(16) -0.03233(9)
N1 N 1.0534(3) 0.57833(15) 0.32371(10)
O4 O 0.2572(3) 0.10718(17) -0.04075(11)
C1 C 1.0872(3) 0.43823(18) 0.30148(12)
C2 C 0.7425(3) 0.38227(19) 0.18356(11)
C3 C 0.8727(3) 0.62896(19) 0.28425(13)
C4 C 0.9341(3) 0.33986(18) 0.23277(12)
C5 C 0.7152(3) 0.52452(19) 0.20781(12)
C6 C 0.5746(3) 0.2864(2) 0.11150(12)
H1 H 0.5898 0.1926 0.0928
C7 C 0.3889(3) 0.3285(2) 0.06820(12)
C8 C 0.9454(4) 0.1830(2) 0.21482(13)
H2 H 1.1109 0.1806 0.2309
H3 H 0.8972 0.1436 0.1507
C9 C 0.2212(4) 0.2195(2) -0.00665(13)
C10 C 1.2947(3) 0.4089(2) 0.35740(13)
H4 H 1.4191 0.5012 0.3786
H5 H 1.3635 0.3449 0.3189
C11 C 1.3594(4) 0.7947(2) 0.38796(15)
H6 H 1.4685 0.7647 0.3505
H7 H 1.4491 0.8519 0.4444
H8 H 1.2753 0.8528 0.3578
C12 C 1.2279(4) 0.3384(2) 0.43909(14)
H9 H 1.1390 0.3956 0.4728
H10 H 1.3764 0.3460 0.4781
C13 C 0.5276(4) 0.5666(2) 0.16241(13)
H11 H 0.5136 0.6613 0.1788
C14 C 0.7811(4) 0.0859(2) 0.26846(14)
H12 H 0.6139 0.0752 0.2446
H13 H 0.8066 -0.0112 0.2587
C15 C 1.0776(4) 0.1773(2) 0.41933(15)
H14 H 1.1635 0.1207 0.3836
H15 H 1.0691 0.1424 0.4764
C16 C 0.8204(4) 0.1436(2) 0.37011(15)
H16 H 0.7690 0.2328 0.3798
H17 H 0.7154 0.0716 0.3979
C17 C 0.3647(4) 0.4701(2) 0.09419(13)
H18 H 0.2387 0.4984 0.0653
C18 C -0.1505(4) 0.1592(3) -0.10435(16)
H19 H -0.0856 0.1604 -0.1603
H20 H -0.2971 0.1888 -0.1098
H21 H -0.1846 0.0616 -0.0908
loop_
_geom_bond_atom_site_label_1
_geom_bond_atom_site_label_2
_geom_bond_site_symmetry_1
_geom_bond_site_symmetry_2
O1 N1 1_555 1_555
O2 C3 1_555 1_555
O3 C9 1_555 1_555
N1 C1 1_555 1_555
O4 C9 1_555 1_555
C1 C4 1_555 1_555
C2 C4 1_555 1_555
C3 N1 1_555 1_555
C4 C8 1_555 1_555
C5 C2 1_555 1_555
C6 C2 1_555 1_555
H1 C6 1_555 1_555
C7 C6 1_555 1_555
C8 H2 1_555 1_555
H3 C8 1_555 1_555
C9 C7 1_555 1_555
C10 C1 1_555 1_555
H4 C10 1_555 1_555
H5 C10 1_555 1_555
C11 O1 1_555 1_555
H6 C11 1_555 1_555
H7 C11 1_555 1_555
H8 C11 1_555 1_555
C12 C10 1_555 1_555
H9 C12 1_555 1_555
H10 C12 1_555 1_555
C13 C5 1_555 1_555
H11 C13 1_555 1_555
C14 C8 1_555 1_555
H12 C14 1_555 1_555
H13 C14 1_555 1_555
C15 C12 1_555 1_555
H14 C15 1_555 1_555
H15 C15 1_555 1_555
C16 C14 1_555 1_555
H16 C16 1_555 1_555
H17 C16 1_555 1_555
C17 C7 1_555 1_555
H18 C17 1_555 1_555
C18 O3 1_555 1_555
H19 C18 1_555 1_555
H20 C18 1_555 1_555
H21 C18 1_555 1_555
C3 C5 1_555 1_555
C13 C17 1_555 1_555
C15 C16 1_555 1_555

#END
