
#######################################################################
#
#                 Cambridge Crystallographic Data Centre
#                                CCDC 
#
#######################################################################
#
# If this CIF has been generated from an entry in the Cambridge 
# Structural Database, then it will include bibliographic, chemical, 
# crystal, experimental, refinement or atomic coordinate data resulting 
# from the CCDC's data processing and validation procedures.
#
#######################################################################

data_COWGIF
_chemical_formula_moiety         'C11 H16 N4 O2'
_chemical_name_systematic        
'O^2^-Methyl 1-(4-phenylpiperazin-1-yl)diazen-1-ium-1,2-diolate'
_symmetry_cell_setting           orthorhombic
_symmetry_space_group_name_H-M   'P b c a'
_symmetry_Int_Tables_number      61
_space_group_name_Hall           '-P 2ac 2ab'
loop_
_symmetry_equiv_pos_site_id
_symmetry_equiv_pos_as_xyz
1 x,y,z
2 1/2-x,-y,1/2+z
3 1/2+x,1/2-y,-z
4 -x,1/2+y,1/2-z
5 -x,-y,-z
6 1/2+x,y,1/2-z
7 1/2-x,1/2+y,z
8 x,1/2-y,1/2+z
_cell_length_a                   10.638(2)
_cell_length_b                   7.5620(15)
_cell_length_c                   30.221(6)
_cell_angle_alpha                90
_cell_angle_beta                 90
_cell_angle_gamma                90
_cell_volume                     2431.11
_exptl_crystal_colour            colorless
_exptl_crystal_description       block
_chemical_melting_point          '86-87 deg.C'
_cell_formula_units_Z            8
loop_
_atom_site_label
_atom_site_type_symbol
_atom_site_fract_x
_atom_site_fract_y
_atom_site_fract_z
N1 N 1.0073(3) 0.1651(5) 0.13257(11)
O1 O 0.8638(3) 0.6696(5) 0.03826(11)
C1 C 1.0159(6) -0.2692(7) 0.22145(17)
H1 H 1.0188 -0.3624 0.2415
O2 O 1.0414(3) 0.8626(4) 0.03426(9)
N2 N 0.9480(3) 0.4937(4) 0.09331(11)
C2 C 0.9101(5) -0.2365(8) 0.19808(17)
H2 H 0.8395 -0.3076 0.2020
N3 N 0.9589(4) 0.6360(5) 0.06270(11)
C3 C 0.9068(5) -0.0992(6) 0.16878(15)
H3 H 0.8330 -0.0809 0.1529
N4 N 1.0574(3) 0.7289(5) 0.06304(11)
C4 C 1.0063(4) 0.0146(6) 0.16114(13)
C5 C 1.1154(4) -0.0266(6) 0.18536(15)
H4 H 1.1867 0.0419 0.1806
C6 C 1.1228(5) -0.1588(7) 0.21491(15)
H5 H 1.1964 -0.1780 0.2308
C7 C 0.8945(4) 0.1892(7) 0.10436(15)
H6 H 0.8232 0.2223 0.1226
H7 H 0.8744 0.0789 0.0896
C8 C 0.9192(4) 0.3337(6) 0.06982(14)
H8 H 0.9891 0.3003 0.0510
H9 H 0.8455 0.3505 0.0514
C9 C 1.0635(4) 0.4672(7) 0.11909(14)
H10 H 1.0875 0.5764 0.1336
H11 H 1.1316 0.4311 0.0997
C10 C 1.0381(4) 0.3242(6) 0.15337(14)
H12 H 1.1121 0.3075 0.1717
H13 H 0.9694 0.3607 0.1724
C11 C 1.1578(4) 0.9723(8) 0.03524(15)
H14 H 1.1478 1.0721 0.0159
H15 H 1.2279 0.9024 0.0256
H16 H 1.1726 1.0130 0.0649
loop_
_geom_bond_atom_site_label_1
_geom_bond_atom_site_label_2
_geom_bond_site_symmetry_1
_geom_bond_site_symmetry_2
N1 C4 1_555 1_555
O1 N3 1_555 1_555
C1 H1 1_555 1_555
O2 N4 1_555 1_555
N2 N3 1_555 1_555
C2 C1 1_555 1_555
H2 C2 1_555 1_555
N3 N4 1_555 1_555
C3 C2 1_555 1_555
H3 C3 1_555 1_555
C4 C3 1_555 1_555
C5 C4 1_555 1_555
H4 C5 1_555 1_555
C6 C1 1_555 1_555
H5 C6 1_555 1_555
C7 N1 1_555 1_555
H6 C7 1_555 1_555
H7 C7 1_555 1_555
C8 N2 1_555 1_555
H8 C8 1_555 1_555
H9 C8 1_555 1_555
C9 N2 1_555 1_555
H10 C9 1_555 1_555
H11 C9 1_555 1_555
C10 N1 1_555 1_555
H12 C10 1_555 1_555
H13 C10 1_555 1_555
C11 O2 1_555 1_555
H14 C11 1_555 1_555
H15 C11 1_555 1_555
H16 C11 1_555 1_555
C5 C6 1_555 1_555
C7 C8 1_555 1_555
C9 C10 1_555 1_555

#END
