
#######################################################################
#
#                 Cambridge Crystallographic Data Centre
#                                CCDC 
#
#######################################################################
#
# If this CIF has been generated from an entry in the Cambridge 
# Structural Database, then it will include bibliographic, chemical, 
# crystal, experimental, refinement or atomic coordinate data resulting 
# from the CCDC's data processing and validation procedures.
#
#######################################################################

data_COWGAX
_chemical_formula_moiety         'C12 H19 N4 O2 1+,Cl1 1-'
_chemical_name_systematic        
'O^2^-Methyl 1-(4-benzylpiperazin-4-ium-1-yl)diazen-1-ium-1,2-diolate chloride'
_symmetry_cell_setting           monoclinic
_symmetry_space_group_name_H-M   'P 21/c'
_symmetry_Int_Tables_number      14
_space_group_name_Hall           '-P 2ybc'
loop_
_symmetry_equiv_pos_site_id
_symmetry_equiv_pos_as_xyz
1 x,y,z
2 -x,1/2+y,1/2-z
3 -x,-y,-z
4 x,1/2-y,1/2+z
_cell_length_a                   7.0760(14)
_cell_length_b                   9.0240(18)
_cell_length_c                   22.863(5)
_cell_angle_alpha                90
_cell_angle_beta                 96.14(3)
_cell_angle_gamma                90
_cell_volume                     1451.52
_exptl_crystal_colour            colorless
_exptl_crystal_description       block
_chemical_melting_point          '198-200 deg.C'
_cell_formula_units_Z            4
_exptl_crystal_recrystallization_method ethanol
loop_
_atom_site_label
_atom_site_type_symbol
_atom_site_fract_x
_atom_site_fract_y
_atom_site_fract_z
Cl1 Cl 1.19467(12) 0.42284(10) 0.73602(4)
O1 O 0.6773(5) 0.6871(3) 0.55617(13)
O2 O 0.7448(4) 0.5231(4) 0.47435(12)
N1 N 0.7617(4) 0.3954(3) 0.73935(12)
N2 N 0.6733(4) 0.4968(3) 0.62114(12)
N3 N 0.7013(4) 0.5521(3) 0.56470(13)
N4 N 0.7445(5) 0.4546(4) 0.52787(13)
C1 C 0.6762(10) 0.5947(7) 0.9250(2)
H1 H 0.5838 0.6432 0.9439
C2 C 0.6211(7) 0.5053(6) 0.87668(19)
H2 H 0.4930 0.4934 0.8636
C3 C 0.7584(5) 0.4342(4) 0.84827(15)
C4 C 0.9473(6) 0.4516(5) 0.86941(17)
H3 H 1.0403 0.4030 0.8509
C5 C 1.0005(7) 0.5406(6) 0.9180(2)
H4 H 1.1280 0.5516 0.9321
C6 C 0.8610(10) 0.6124(6) 0.9451(2)
H5 H 0.8948 0.6733 0.9774
C7 C 0.7018(5) 0.3371(4) 0.79609(15)
H6 H 0.5647 0.3257 0.7918
H7 H 0.7573 0.2397 0.8035
C8 C 0.6892(5) 0.5482(3) 0.72571(15)
H8 H 0.7391 0.6155 0.7567
H9 H 0.5516 0.5489 0.7240
C9 C 0.7488(5) 0.5998(4) 0.66754(15)
H10 H 0.7003 0.6988 0.6587
H11 H 0.8864 0.6030 0.6696
C10 C 0.7516(5) 0.3468(4) 0.63185(16)
H12 H 0.8892 0.3490 0.6335
H13 H 0.7028 0.2805 0.6004
C11 C 0.6918(5) 0.2935(4) 0.69025(15)
H14 H 0.5543 0.2876 0.6875
H15 H 0.7423 0.1949 0.6986
C12 C 0.7886(7) 0.4128(6) 0.43293(19)
H16 H 0.7882 0.4570 0.3947
H17 H 0.6951 0.3354 0.4314
H18 H 0.9119 0.3719 0.4449
H19 H 0.905(7) 0.397(5) 0.741(2)
loop_
_geom_bond_atom_site_label_1
_geom_bond_atom_site_label_2
_geom_bond_site_symmetry_1
_geom_bond_site_symmetry_2
O1 N3 1_555 1_555
O2 N4 1_555 1_555
N1 C7 1_555 1_555
N2 N3 1_555 1_555
N3 N4 1_555 1_555
C1 H1 1_555 1_555
C2 C1 1_555 1_555
H2 C2 1_555 1_555
C3 C2 1_555 1_555
C4 C3 1_555 1_555
H3 C4 1_555 1_555
C5 C4 1_555 1_555
H4 C5 1_555 1_555
C6 C1 1_555 1_555
H5 C6 1_555 1_555
C7 C3 1_555 1_555
H6 C7 1_555 1_555
H7 C7 1_555 1_555
C8 N1 1_555 1_555
H8 C8 1_555 1_555
H9 C8 1_555 1_555
C9 N2 1_555 1_555
H10 C9 1_555 1_555
H11 C9 1_555 1_555
C10 N2 1_555 1_555
H12 C10 1_555 1_555
H13 C10 1_555 1_555
C11 N1 1_555 1_555
H14 C11 1_555 1_555
H15 C11 1_555 1_555
C12 O2 1_555 1_555
H16 C12 1_555 1_555
H17 C12 1_555 1_555
H18 C12 1_555 1_555
H19 N1 1_555 1_555
C5 C6 1_555 1_555
C8 C9 1_555 1_555
C10 C11 1_555 1_555

#END
