
#######################################################################
#
#                 Cambridge Crystallographic Data Centre
#                                CCDC 
#
#######################################################################
#
# If this CIF has been generated from an entry in the Cambridge 
# Structural Database, then it will include bibliographic, chemical, 
# crystal, experimental, refinement or atomic coordinate data resulting 
# from the CCDC's data processing and validation procedures.
#
#######################################################################

data_COWLAD
_chemical_formula_moiety         'C39 H44 N2 O6,0.5(H2 O1)'
_chemical_name_systematic        
'(3-acetamido-1-benzyl-4,5-bis(benzyloxy)-6-((benzyloxy)methyl)piperidin-2-yl)methyl acetate hemihydrate'
_symmetry_cell_setting           rhombohedral
_symmetry_space_group_name_H-M   'R 3'
_symmetry_Int_Tables_number      146
_space_group_name_Hall           'R 3'
loop_
_symmetry_equiv_pos_site_id
_symmetry_equiv_pos_as_xyz
1 x,y,z
2 -y,x-y,z
3 -x+y,-x,z
4 2/3+x,1/3+y,1/3+z
5 2/3-y,1/3+x-y,1/3+z
6 2/3-x+y,1/3-x,1/3+z
7 1/3+x,2/3+y,2/3+z
8 1/3-y,2/3+x-y,2/3+z
9 1/3-x+y,2/3-x,2/3+z
_cell_length_a                   41.2988(14)
_cell_length_b                   41.2988(14)
_cell_length_c                   5.3884(2)
_cell_angle_alpha                90
_cell_angle_beta                 90
_cell_angle_gamma                120
_cell_volume                     7959.12
_exptl_crystal_colour            colorless
_exptl_crystal_description       bar
_cell_formula_units_Z            9
loop_
_atom_site_label
_atom_site_type_symbol
_atom_site_fract_x
_atom_site_fract_y
_atom_site_fract_z
O1 O 0.53496(7) 0.95627(7) 0.7915(4)
O2 O 0.45436(7) 0.89443(6) 0.8933(4)
O3 O 0.39572(6) 0.88684(6) 0.5709(4)
O4 O 0.37771(7) 0.95533(8) 0.1866(5)
O5 O 0.46588(6) 1.05418(6) 0.7889(4)
O6 O 0.45422(10) 1.08787(7) 0.5204(5)
N1 N 0.48309(7) 0.99412(7) 0.7690(5)
N2 N 0.38042(7) 0.94783(7) 0.5990(5)
H1 H 0.3682 0.9432 0.7403
C1 C 0.48027(9) 0.96126(9) 0.8990(6)
H2 H 0.4661 0.9587 1.0549
C2 C 0.45645(9) 0.92509(9) 0.7555(6)
H3 H 0.4679 0.9266 0.5894
C3 C 0.41720(9) 0.91908(9) 0.7223(6)
H4 H 0.4050 0.9147 0.8888
C4 C 0.41800(8) 0.95289(9) 0.6026(6)
H5 H 0.4269 0.9551 0.4277
C5 C 0.44540(9) 0.98920(9) 0.7443(6)
H6 H 0.4352 0.9869 0.9160
C6 C 0.50539(9) 1.00472(9) 0.5380(6)
H7 H 0.4882 0.9962 0.3940
H8 H 0.5200 0.9916 0.5320
C7 C 0.53202(9) 1.04649(9) 0.5161(6)
C8 C 0.53172(10) 1.06674(11) 0.3141(6)
H9 H 0.5141 1.0544 0.1849
C9 C 0.55680(11) 1.10506(11) 0.2954(8)
H10 H 0.5558 1.1188 0.1571
C10 C 0.58297(12) 1.12278(12) 0.4781(8)
H11 H 0.6004 1.1488 0.4659
C11 C 0.58394(11) 1.10283(12) 0.6782(7)
H12 H 0.6021 1.1151 0.8043
C12 C 0.55880(11) 1.06527(11) 0.6979(7)
H13 H 0.5598 1.0519 0.8385
C13 C 0.51752(10) 0.96601(10) 0.9831(6)
H14 H 0.5343 0.9923 1.0328
H15 H 0.5135 0.9500 1.1299
C14 C 0.56498(10) 0.95290(11) 0.8917(6)
H16 H 0.5557 0.9347 1.0303
H17 H 0.5844 0.9774 0.9576
C15 C 0.58169(9) 0.94001(10) 0.6954(7)
C16 C 0.60504(10) 0.96432(11) 0.5157(7)
H18 H 0.6106 0.9896 0.5158
C17 C 0.62053(10) 0.95206(11) 0.3339(7)
H19 H 0.6367 0.9690 0.2114
C18 C 0.61235(11) 0.91540(11) 0.3325(7)
H20 H 0.6224 0.9069 0.2067
C19 C 0.58970(12) 0.89119(12) 0.5128(8)
H21 H 0.5846 0.8661 0.5141
C20 C 0.57428(11) 0.90344(11) 0.6935(7)
H22 H 0.5585 0.8865 0.8170
C21 C 0.46100(11) 0.86947(10) 0.7467(7)
H23 H 0.4855 0.8836 0.6621
H24 H 0.4413 0.8576 0.6183
C22 C 0.46077(10) 0.84033(10) 0.9088(7)
C23 C 0.48265(12) 0.84998(12) 1.1216(7)
H25 H 0.4970 0.8756 1.1673
C24 C 0.48417(15) 0.82320(15) 1.2694(8)
H26 H 0.4995 0.8303 1.4131
C25 C 0.46312(19) 0.78654(17) 1.2034(12)
H27 H 0.4639 0.7679 1.3025
C26 C 0.44075(19) 0.77603(13) 0.9959(13)
H28 H 0.4262 0.7503 0.9530
C27 C 0.43939(13) 0.80287(11) 0.8495(10)
H29 H 0.4237 0.7955 0.7074
C28 C 0.36779(10) 0.85602(9) 0.7056(7)
H30 H 0.3476 0.8611 0.7520
H31 H 0.3787 0.8527 0.8602
C29 C 0.35179(9) 0.82090(9) 0.5549(6)
C30 C 0.36928(10) 0.81715(10) 0.3480(7)
H32 H 0.3921 0.8378 0.2922
C31 C 0.35392(13) 0.78379(12) 0.2220(9)
H33 H 0.3664 0.7812 0.0816
C32 C 0.32010(15) 0.75379(14) 0.3003(12)
H34 H 0.3091 0.7309 0.2110
C33 C 0.30276(14) 0.75741(14) 0.5069(11)
H35 H 0.2800 0.7368 0.5633
C34 C 0.31823(11) 0.79082(11) 0.6325(8)
H36 H 0.3058 0.7933 0.7735
C35 C 0.36356(9) 0.94986(9) 0.3927(6)
C36 C 0.32554(10) 0.94602(11) 0.4323(8)
H37 H 0.3158 0.9490 0.2732
H38 H 0.3278 0.9654 0.5480
H39 H 0.3084 0.9213 0.5013
C37 C 0.44574(9) 1.02243(8) 0.6255(6)
H40 H 0.4582 1.0277 0.4616
H41 H 0.4198 1.0173 0.6011
C38 C 0.46752(12) 1.08576(10) 0.7119(7)
C39 C 0.48762(15) 1.11671(11) 0.8921(8)
H42 H 0.5142 1.1309 0.8480
H43 H 0.4849 1.1064 1.0594
H44 H 0.4770 1.1333 0.8878
O7 O 0.3333 0.6667 0.363(12)
O8 O 0.3333 0.6667 -0.289(18)
O9? O 0.3333 0.6667 0.033(11)
loop_
_geom_bond_atom_site_label_1
_geom_bond_atom_site_label_2
_geom_bond_site_symmetry_1
_geom_bond_site_symmetry_2
O1 C13 1_555 1_555
O2 C2 1_555 1_555
O3 C3 1_555 1_555
O4 C35 1_555 1_555
O5 C37 1_555 1_555
O6 C38 1_555 1_555
N1 C1 1_555 1_555
N2 H1 1_555 1_555
C1 H2 1_555 1_555
C2 C1 1_555 1_555
H3 C2 1_555 1_555
C3 C2 1_555 1_555
H4 C3 1_555 1_555
C4 N2 1_555 1_555
H5 C4 1_555 1_555
C5 N1 1_555 1_555
H6 C5 1_555 1_555
C6 N1 1_555 1_555
H7 C6 1_555 1_555
H8 C6 1_555 1_555
C7 C6 1_555 1_555
C8 C7 1_555 1_555
H9 C8 1_555 1_555
C9 C8 1_555 1_555
H10 C9 1_555 1_555
C10 C9 1_555 1_555
H11 C10 1_555 1_555
C11 C10 1_555 1_555
H12 C11 1_555 1_555
C12 C7 1_555 1_555
H13 C12 1_555 1_555
C13 C1 1_555 1_555
H14 C13 1_555 1_555
H15 C13 1_555 1_555
C14 O1 1_555 1_555
H16 C14 1_555 1_555
H17 C14 1_555 1_555
C15 C14 1_555 1_555
C16 C15 1_555 1_555
H18 C16 1_555 1_555
C17 C16 1_555 1_555
H19 C17 1_555 1_555
C18 C17 1_555 1_555
H20 C18 1_555 1_555
C19 C18 1_555 1_555
H21 C19 1_555 1_555
C20 C15 1_555 1_555
H22 C20 1_555 1_555
C21 O2 1_555 1_555
H23 C21 1_555 1_555
H24 C21 1_555 1_555
C22 C21 1_555 1_555
C23 C22 1_555 1_555
H25 C23 1_555 1_555
C24 C23 1_555 1_555
H26 C24 1_555 1_555
C25 C24 1_555 1_555
H27 C25 1_555 1_555
C26 C25 1_555 1_555
H28 C26 1_555 1_555
C27 C22 1_555 1_555
H29 C27 1_555 1_555
C28 O3 1_555 1_555
H30 C28 1_555 1_555
H31 C28 1_555 1_555
C29 C28 1_555 1_555
C30 C29 1_555 1_555
H32 C30 1_555 1_555
C31 C30 1_555 1_555
H33 C31 1_555 1_555
C32 C31 1_555 1_555
H34 C32 1_555 1_555
C33 C32 1_555 1_555
H35 C33 1_555 1_555
C34 C29 1_555 1_555
H36 C34 1_555 1_555
C35 N2 1_555 1_555
C36 C35 1_555 1_555
H37 C36 1_555 1_555
H38 C36 1_555 1_555
H39 C36 1_555 1_555
C37 C5 1_555 1_555
H40 C37 1_555 1_555
H41 C37 1_555 1_555
C38 O5 1_555 1_555
C39 C38 1_555 1_555
H42 C39 1_555 1_555
H43 C39 1_555 1_555
H44 C39 1_555 1_555
C3 C4 1_555 1_555
C4 C5 1_555 1_555
C11 C12 1_555 1_555
C19 C20 1_555 1_555
C26 C27 1_555 1_555
C33 C34 1_555 1_555

#END
