
#######################################################################
#
#                 Cambridge Crystallographic Data Centre
#                                CCDC 
#
#######################################################################
#
# If this CIF has been generated from an entry in the Cambridge 
# Structural Database, then it will include bibliographic, chemical, 
# crystal, experimental, refinement or atomic coordinate data resulting 
# from the CCDC's data processing and validation procedures.
#
#######################################################################

data_COWMIM
_chemical_formula_moiety         'C24 H21 N3 O1'
_chemical_name_systematic        
9-methoxy-4,6-dimethyl-3-(4-methylphenyl)[1,2,3]triazolo[1,5-f]phenanthridine
_symmetry_cell_setting           monoclinic
_symmetry_space_group_name_H-M   'P 21/n'
_symmetry_Int_Tables_number      14
_space_group_name_Hall           '-P 2yn'
loop_
_symmetry_equiv_pos_site_id
_symmetry_equiv_pos_as_xyz
1 x,y,z
2 1/2-x,1/2+y,1/2-z
3 -x,-y,-z
4 1/2+x,1/2-y,1/2+z
_cell_length_a                   7.19749(13)
_cell_length_b                   24.1670(5)
_cell_length_c                   10.9154(3)
_cell_angle_alpha                90
_cell_angle_beta                 100.3740(19)
_cell_angle_gamma                90
_cell_volume                     1867.61
_exptl_crystal_colour            yellow
_exptl_crystal_description       prism
_cell_formula_units_Z            4
_exptl_crystal_recrystallization_method 'ethyl acetate/petroleum ether'
loop_
_atom_site_label
_atom_site_type_symbol
_atom_site_fract_x
_atom_site_fract_y
_atom_site_fract_z
N1 N 0.17945(17) 0.06770(5) 0.91923(12)
O1 O 0.37772(17) -0.14733(5) 1.05358(12)
N2 N 0.14296(19) 0.13849(6) 0.80086(13)
N3 N 0.15748(19) 0.08428(6) 0.79967(13)
C1 C 0.2284(2) 0.01304(6) 0.95479(15)
C2 C 0.3319(2) -0.09299(7) 1.02733(17)
C3 C 0.26343(19) 0.00111(7) 1.08181(15)
C4 C 0.1798(2) 0.21710(7) 0.94247(15)
C5 C 0.3147(2) -0.05386(7) 1.11633(16)
H1 H 0.3371 -0.0637 1.2000
C6 C 0.0828(2) 0.31103(7) 0.88968(17)
H2 H 0.0002 0.3355 0.8416
C7 C 0.2371(2) 0.04430(7) 1.17181(15)
C8 C 0.17315(19) 0.11097(6) 0.99941(15)
C9 C 0.2584(2) 0.03156(7) 1.29869(16)
H3 H 0.3014 -0.0034 1.3257
C10 C 0.1182(2) 0.13551(7) 1.21597(16)
C11 C 0.17960(19) 0.09841(7) 1.13055(15)
C12 C 0.3549(2) 0.29449(7) 1.04594(15)
H4 H 0.4560 0.3076 1.1040
C13 C 0.0576(2) 0.25467(7) 0.87184(16)
H5 H -0.0417 0.2417 0.8123
C14 C 0.3311(2) 0.23771(7) 1.02781(15)
H6 H 0.4171 0.2133 1.0732
C15 C 0.1575(2) 0.15691(7) 0.92020(15)
C16 C 0.2480(2) -0.02656(7) 0.86430(16)
H7 H 0.2250 -0.0172 0.7803
C17 C 0.0154(2) 0.18860(7) 1.17802(17)
H8 H 0.1053 0.2177 1.1755
H9 H -0.0635 0.1978 1.2372
H10 H -0.0614 0.1842 1.0970
C18 C 0.3014(2) -0.07927(7) 0.90141(17)
H11 H 0.3172 -0.1059 0.8425
C19 C 0.1419(2) 0.12011(7) 1.34038(16)
H12 H 0.1057 0.1449 1.3968
C20 C 0.2297(2) 0.33184(7) 0.97842(16)
C21 C 0.2438(3) 0.05492(9) 1.52143(17)
H13 H 0.1310 0.0378 1.5387
H14 H 0.2690 0.0880 1.5702
H15 H 0.3481 0.0298 1.5423
C22 C 0.3940(3) -0.16468(8) 1.17914(19)
H16 H 0.4208 -0.2036 1.1849
H17 H 0.2775 -0.1575 1.2075
H18 H 0.4946 -0.1447 1.2301
C23 C 0.2175(2) 0.06927(8) 1.38492(16)
C24 C 0.2517(3) 0.39337(7) 0.9998(2)
H19 H 0.2938 0.4102 0.9300
H20 H 0.3428 0.4001 1.0741
H21 H 0.1323 0.4090 1.0091
loop_
_geom_bond_atom_site_label_1
_geom_bond_atom_site_label_2
_geom_bond_site_symmetry_1
_geom_bond_site_symmetry_2
N1 N3 1_555 1_555
O1 C2 1_555 1_555
N2 N3 1_555 1_555
C1 N1 1_555 1_555
C2 C5 1_555 1_555
C3 C1 1_555 1_555
C4 C13 1_555 1_555
C5 C3 1_555 1_555
H1 C5 1_555 1_555
C6 H2 1_555 1_555
C7 C3 1_555 1_555
C8 N1 1_555 1_555
C9 C7 1_555 1_555
H3 C9 1_555 1_555
C10 C11 1_555 1_555
C11 C7 1_555 1_555
C12 H4 1_555 1_555
C13 C6 1_555 1_555
H5 C13 1_555 1_555
C14 C4 1_555 1_555
H6 C14 1_555 1_555
C15 N2 1_555 1_555
C16 C1 1_555 1_555
H7 C16 1_555 1_555
C17 C10 1_555 1_555
H8 C17 1_555 1_555
H9 C17 1_555 1_555
H10 C17 1_555 1_555
C18 C2 1_555 1_555
H11 C18 1_555 1_555
C19 C10 1_555 1_555
H12 C19 1_555 1_555
C20 C6 1_555 1_555
C21 H13 1_555 1_555
H14 C21 1_555 1_555
H15 C21 1_555 1_555
C22 O1 1_555 1_555
H16 C22 1_555 1_555
H17 C22 1_555 1_555
H18 C22 1_555 1_555
C23 C9 1_555 1_555
C24 C20 1_555 1_555
H19 C24 1_555 1_555
H20 C24 1_555 1_555
H21 C24 1_555 1_555
C4 C15 1_555 1_555
C8 C11 1_555 1_555
C8 C15 1_555 1_555
C12 C14 1_555 1_555
C12 C20 1_555 1_555
C16 C18 1_555 1_555
C19 C23 1_555 1_555
C21 C23 1_555 1_555

#END
