
#######################################################################
#
#                 Cambridge Crystallographic Data Centre
#                                CCDC 
#
#######################################################################
#
# If this CIF has been generated from an entry in the Cambridge 
# Structural Database, then it will include bibliographic, chemical, 
# crystal, experimental, refinement or atomic coordinate data resulting 
# from the CCDC's data processing and validation procedures.
#
#######################################################################

data_COWMOS
_chemical_formula_moiety         'C24 H18 Cl1 N3 O2'
_chemical_name_systematic        
'methyl 3-(4-chlorophenyl)-4,6-dimethyl[1,2,3]triazolo[1,5-f]phenanthridine-10-carboxylate'
_symmetry_cell_setting           monoclinic
_symmetry_space_group_name_H-M   'P 21/c'
_symmetry_Int_Tables_number      14
_space_group_name_Hall           '-P 2ybc'
loop_
_symmetry_equiv_pos_site_id
_symmetry_equiv_pos_as_xyz
1 x,y,z
2 -x,1/2+y,1/2-z
3 -x,-y,-z
4 x,1/2-y,1/2+z
_cell_length_a                   11.79980(10)
_cell_length_b                   22.68583(16)
_cell_length_c                   15.42896(14)
_cell_angle_alpha                90
_cell_angle_beta                 110.1382(10)
_cell_angle_gamma                90
_cell_volume                     3877.65
_exptl_crystal_colour            white
_exptl_crystal_description       needle
_cell_formula_units_Z            8
_exptl_crystal_recrystallization_method 'dichloromethane/petroleum ether'
loop_
_atom_site_label
_atom_site_type_symbol
_atom_site_fract_x
_atom_site_fract_y
_atom_site_fract_z
Cl1 Cl 0.13229(3) 0.376330(14) 0.96247(2)
N1 N 0.57235(9) 0.43435(5) 0.66377(7)
O1 O 0.67970(10) 0.36957(4) 0.39285(7)
N2 N 0.54189(10) 0.37654(5) 0.65329(8)
O2 O 0.76798(10) 0.44765(5) 0.35260(7)
C1 C 0.53241(11) 0.46160(5) 0.72750(8)
C2 C 0.61987(11) 0.46240(6) 0.60282(8)
C3 C 0.63320(11) 0.52358(6) 0.61015(9)
C4 C 0.64590(11) 0.42957(6) 0.53572(9)
H1 H 0.6366 0.3888 0.5334
C5 C 0.67374(12) 0.55143(6) 0.54441(9)
H2 H 0.6833 0.5922 0.5464
N3 N 0.48168(10) 0.36598(5) 0.70844(8)
C6 C 0.68571(11) 0.45843(6) 0.47273(9)
C7 C 0.55925(11) 0.55378(6) 0.82644(9)
C8 C 0.23259(11) 0.39037(6) 0.90401(8)
C9 C 0.60877(11) 0.55461(6) 0.68516(9)
C10 C 0.56458(11) 0.52383(5) 0.74755(9)
C11 C 0.58707(12) 0.61348(6) 0.83615(9)
H3 H 0.5816 0.6332 0.8874
C12 C 0.40002(11) 0.35972(6) 0.86176(9)
H4 H 0.4596 0.3322 0.8647
C13 C 0.71596(12) 0.42569(6) 0.39967(9)
C14 C 0.69944(12) 0.51979(6) 0.47747(9)
H5 H 0.7261 0.5393 0.4350
C15 C 0.63503(13) 0.61482(6) 0.69875(10)
H6 H 0.6615 0.6350 0.6568
C16 C 0.30037(11) 0.45157(6) 0.80503(9)
H7 H 0.2926 0.4856 0.7698
C17 C 0.47036(11) 0.41627(6) 0.75367(8)
C18 C 0.39116(11) 0.41093(5) 0.80951(8)
C19 C 0.22126(11) 0.44161(6) 0.85288(9)
H8 H 0.1616 0.4690 0.8505
C20 C 0.53143(12) 0.52508(6) 0.90478(9)
H9 H 0.4478 0.5308 0.8965
H10 H 0.5806 0.5425 0.9621
H11 H 0.5482 0.4836 0.9056
C21 C 0.32150(12) 0.34935(6) 0.90918(9)
H12 H 0.3284 0.3152 0.9441
C22 C 0.62281(13) 0.64514(6) 0.77270(10)
C23 C 0.70248(16) 0.33592(7) 0.32054(10)
H13 H 0.6668 0.3557 0.2625
H14 H 0.6678 0.2973 0.3171
H15 H 0.7880 0.3325 0.3342
C24 C 0.6524(2) 0.70977(7) 0.78721(13)
H16 H 0.5802 0.7315 0.7809
H17 H 0.6857 0.7232 0.7420
H18 H 0.7102 0.7158 0.8479
Cl2 Cl -0.20497(3) 0.709287(15) 1.56981(3)
O3 O 0.36366(9) 0.72302(4) 1.00296(7)
N4 N 0.17730(11) 0.70895(5) 1.23553(8)
N5 N 0.16177(10) 0.65057(5) 1.21749(7)
O4 O 0.35154(10) 0.64954(5) 0.90248(7)
C25 C 0.10713(11) 0.53235(6) 1.18141(9)
N6 N 0.12597(11) 0.72067(5) 1.29622(8)
C26 C 0.19261(11) 0.62520(6) 1.14574(9)
C27 C 0.15934(11) 0.56645(6) 1.12359(9)
C28 C 0.04079(12) 0.43699(6) 1.21885(10)
C29 C 0.08191(11) 0.55948(6) 1.25624(9)
C30 C 0.04330(11) 0.52303(6) 1.31536(9)
C31 C 0.02285(12) 0.46337(6) 1.29448(10)
H19 H -0.0041 0.4400 1.3330
C32 C 0.10032(11) 0.62347(6) 1.26775(9)
C33 C 0.08495(12) 0.47206(6) 1.16420(10)
H20 H 0.1003 0.4551 1.1145
C34 C -0.00468(13) 0.71559(6) 1.52335(10)
H21 H 0.0318 0.7333 1.5806
C35 C 0.18130(12) 0.54343(6) 1.04597(9)
H22 H 0.1592 0.5048 1.0279
C36 C 0.33143(12) 0.66886(6) 0.96824(9)
C37 C 0.24918(12) 0.65934(6) 1.09771(9)
H23 H 0.2722 0.6979 1.1158
C38 C 0.05961(13) 0.70599(6) 1.46445(10)
H24 H 0.1399 0.7177 1.4823
C39 C 0.07598(12) 0.67084(6) 1.31706(9)
C40 C 0.23475(12) 0.57699(6) 0.99635(9)
H25 H 0.2471 0.5609 0.9449
C41 C 0.27053(11) 0.63492(6) 1.02261(9)
C42 C -0.12436(13) 0.69822(6) 1.49518(10)
C43 C 0.02442(13) 0.54377(7) 1.40191(10)
H26 H 0.0756 0.5770 1.4266
H27 H 0.0440 0.5125 1.4465
H28 H -0.0584 0.5550 1.3879
C44 C -0.11648(12) 0.66405(6) 1.35125(9)
H29 H -0.1543 0.6477 1.2931
C45 C 0.00529(12) 0.67902(6) 1.37878(9)
C46 C 0.42458(14) 0.75873(7) 0.95483(11)
H30 H 0.3680 0.7706 0.8962
H31 H 0.4883 0.7362 0.9454
H32 H 0.4579 0.7931 0.9910
C47 C -0.18220(12) 0.67322(6) 1.40940(10)
H33 H -0.2633 0.6628 1.3911
C48 C 0.01675(15) 0.37220(7) 1.19890(12)
H34 H 0.0749 0.3495 1.2461
H35 H 0.0231 0.3630 1.1400
H36 H -0.0630 0.3628 1.1979
loop_
_geom_bond_atom_site_label_1
_geom_bond_atom_site_label_2
_geom_bond_site_symmetry_1
_geom_bond_site_symmetry_2
Cl1 C8 1_555 1_555
N1 N2 1_555 1_555
O1 C13 1_555 1_555
N2 N3 1_555 1_555
O2 C13 1_555 1_555
C1 N1 1_555 1_555
C2 N1 1_555 1_555
C3 C2 1_555 1_555
C4 C2 1_555 1_555
H1 C4 1_555 1_555
C5 C3 1_555 1_555
H2 C5 1_555 1_555
N3 C17 1_555 1_555
C6 C4 1_555 1_555
C7 C10 1_555 1_555
C8 C19 1_555 1_555
C9 C3 1_555 1_555
C10 C1 1_555 1_555
C11 C7 1_555 1_555
H3 C11 1_555 1_555
C12 H4 1_555 1_555
C13 C6 1_555 1_555
C14 C5 1_555 1_555
H5 C14 1_555 1_555
C15 C9 1_555 1_555
H6 C15 1_555 1_555
C16 H7 1_555 1_555
C17 C1 1_555 1_555
C18 C12 1_555 1_555
C19 C16 1_555 1_555
H8 C19 1_555 1_555
C20 C7 1_555 1_555
H9 C20 1_555 1_555
H10 C20 1_555 1_555
H11 C20 1_555 1_555
C21 C8 1_555 1_555
H12 C21 1_555 1_555
C22 C11 1_555 1_555
C23 O1 1_555 1_555
H13 C23 1_555 1_555
H14 C23 1_555 1_555
H15 C23 1_555 1_555
C24 C22 1_555 1_555
H16 C24 1_555 1_555
H17 C24 1_555 1_555
H18 C24 1_555 1_555
Cl2 C42 1_555 1_555
O3 C36 1_555 1_555
N4 N5 1_555 1_555
N5 C26 1_555 1_555
O4 C36 1_555 1_555
C25 C27 1_555 1_555
N6 N4 1_555 1_555
C26 C27 1_555 1_555
C27 C35 1_555 1_555
C28 C31 1_555 1_555
C29 C25 1_555 1_555
C30 C29 1_555 1_555
C31 C30 1_555 1_555
H19 C31 1_555 1_555
C32 N5 1_555 1_555
C33 C25 1_555 1_555
H20 C33 1_555 1_555
C34 H21 1_555 1_555
C35 H22 1_555 1_555
C36 C41 1_555 1_555
C37 C26 1_555 1_555
H23 C37 1_555 1_555
C38 C34 1_555 1_555
H24 C38 1_555 1_555
C39 N6 1_555 1_555
C40 C35 1_555 1_555
H25 C40 1_555 1_555
C41 C37 1_555 1_555
C42 C34 1_555 1_555
C43 C30 1_555 1_555
H26 C43 1_555 1_555
H27 C43 1_555 1_555
H28 C43 1_555 1_555
C44 H29 1_555 1_555
C45 C38 1_555 1_555
C46 O3 1_555 1_555
H30 C46 1_555 1_555
H31 C46 1_555 1_555
H32 C46 1_555 1_555
C47 C42 1_555 1_555
H33 C47 1_555 1_555
C48 C28 1_555 1_555
H34 C48 1_555 1_555
H35 C48 1_555 1_555
H36 C48 1_555 1_555
C6 C14 1_555 1_555
C9 C10 1_555 1_555
C12 C21 1_555 1_555
C15 C22 1_555 1_555
C16 C18 1_555 1_555
C17 C18 1_555 1_555
C28 C33 1_555 1_555
C29 C32 1_555 1_555
C32 C39 1_555 1_555
C39 C45 1_555 1_555
C40 C41 1_555 1_555
C44 C45 1_555 1_555
C44 C47 1_555 1_555

#END
