
#######################################################################
#
#                 Cambridge Crystallographic Data Centre
#                                CCDC 
#
#######################################################################
#
# If this CIF has been generated from an entry in the Cambridge 
# Structural Database, then it will include bibliographic, chemical, 
# crystal, experimental, refinement or atomic coordinate data resulting 
# from the CCDC's data processing and validation procedures.
#
#######################################################################

data_COWNUZ
_chemical_formula_moiety         'C28 H12 N6 S5'
_chemical_name_systematic        
3,9-bis(2-thienyl)-6,16,25-trithia-5,7,15,17,24,26-hexaazaoctacyclo[9.9.9.0^2,10^.0^4,8^.0^12,20^.0^14,18^.0^21,29^.0^23,27^]nonacosa-2,4,7,9,12,14,17,19,21,23,26,28-dodecaene
_symmetry_cell_setting           monoclinic
_symmetry_space_group_name_H-M   'C 2/c'
_symmetry_Int_Tables_number      15
_space_group_name_Hall           '-C 2yn'
loop_
_symmetry_equiv_pos_site_id
_symmetry_equiv_pos_as_xyz
1 x,y,z
2 -x,y,1/2-z
3 1/2+x,1/2+y,z
4 1/2-x,1/2+y,1/2-z
5 -x,-y,-z
6 x,-y,1/2+z
7 1/2-x,1/2-y,-z
8 1/2+x,1/2-y,1/2+z
_cell_length_a                   17.2653(11)
_cell_length_b                   9.9127(6)
_cell_length_c                   13.9514(10)
_cell_angle_alpha                90
_cell_angle_beta                 97.8231(19)
_cell_angle_gamma                90
_cell_volume                     2365.5
_exptl_crystal_colour            orange
_exptl_crystal_description       polyhedron
_cell_formula_units_Z            4
loop_
_atom_site_label
_atom_site_type_symbol
_atom_site_fract_x
_atom_site_fract_y
_atom_site_fract_z
C1 C 0.04574(19) 0.7401(3) 0.8316(2)
H1 H 0.0814 0.7401 0.8944
C2 C -0.03039(19) 0.8141(3) 0.8391(2)
C3 C -0.08113(19) 0.8147(3) 0.7475(2)
C4 C -0.1485(2) 0.8857(3) 0.7340(2)
H2 H -0.1817 0.8841 0.6738
C5 C -0.1678(2) 0.9632(4) 0.8136(3)
C6 C -0.1183(2) 0.9606(3) 0.9048(2)
C7 C -0.0490(2) 0.8821(3) 0.9174(2)
H3 H -0.0169 0.8773 0.9782
N1 N -0.22863(18) 1.0488(3) 0.8112(2)
S1 S -0.22074(6) 1.11771(10) 0.91721(7)
N2 N -0.14264(18) 1.0454(3) 0.9710(2)
C8 C 0.02505(18) 0.5979(3) 0.7961(2)
C9 C 0.0240(2) 0.3589(3) 0.7964(2)
C10 C 0.04939(19) 0.4816(3) 0.8446(2)
S2 S 0.0000 0.13018(12) 0.7500
N3 N 0.04057(19) 0.2339(3) 0.8307(2)
C11 C 0.09697(19) 0.4760(3) 0.9408(2)
C12 C 0.09384(19) 0.5608(4) 1.0210(2)
H4 H 0.0595 0.6357 1.0212
C13 C 0.1480(2) 0.5212(4) 1.1015(3)
H5 H 0.1537 0.5672 1.1618
C14 C 0.1905(2) 0.4122(4) 1.0844(3)
H6 H 0.2296 0.3737 1.1308
S3 S 0.16629(6) 0.35117(9) 0.97021(7)
C1A C -0.04574(19) 0.7401(3) 0.6684(2)
H1A H -0.0814 0.7401 0.6056
C2A C 0.03039(19) 0.8141(3) 0.6609(2)
C3A C 0.08113(19) 0.8147(3) 0.7525(2)
C4A C 0.1485(2) 0.8857(3) 0.7660(2)
H2A H 0.1817 0.8841 0.8262
C5A C 0.1678(2) 0.9632(4) 0.6864(3)
C6A C 0.1183(2) 0.9606(3) 0.5952(2)
C7A C 0.0490(2) 0.8821(3) 0.5826(2)
H3A H 0.0169 0.8773 0.5218
N1A N 0.22863(18) 1.0488(3) 0.6888(2)
S1A S 0.22074(6) 1.11771(10) 0.58279(7)
N2A N 0.14264(18) 1.0454(3) 0.5290(2)
C8A C -0.02505(18) 0.5979(3) 0.7039(2)
C9A C -0.0240(2) 0.3589(3) 0.7036(2)
C10A C -0.04939(19) 0.4816(3) 0.6554(2)
N3A N -0.04057(19) 0.2339(3) 0.6693(2)
C11A C -0.09697(19) 0.4760(3) 0.5592(2)
C12A C -0.09384(19) 0.5608(4) 0.4790(2)
H4A H -0.0595 0.6357 0.4788
C13A C -0.1480(2) 0.5212(4) 0.3985(3)
H5A H -0.1537 0.5672 0.3382
C14A C -0.1905(2) 0.4122(4) 0.4156(3)
H6A H -0.2296 0.3737 0.3692
S3A S -0.16629(6) 0.35117(9) 0.52979(7)
loop_
_geom_bond_atom_site_label_1
_geom_bond_atom_site_label_2
_geom_bond_site_symmetry_1
_geom_bond_site_symmetry_2
C1 H1 1_555 1_555
C2 C1 1_555 1_555
C3 C2 1_555 1_555
C4 C3 1_555 1_555
H2 C4 1_555 1_555
C5 C4 1_555 1_555
C6 C5 1_555 1_555
C7 C2 1_555 1_555
H3 C7 1_555 1_555
N1 C5 1_555 1_555
S1 N1 1_555 1_555
N2 C6 1_555 1_555
C8 C1 1_555 1_555
C9 C10 1_555 1_555
C10 C8 1_555 1_555
S2 N3 1_555 1_555
N3 C9 1_555 1_555
C11 C10 1_555 1_555
C12 C11 1_555 1_555
H4 C12 1_555 1_555
C13 C12 1_555 1_555
H5 C13 1_555 1_555
C14 C13 1_555 1_555
H6 C14 1_555 1_555
S3 C11 1_555 1_555
C1A C3 1_555 1_555
H1A C1A 1_555 1_555
C2A C1A 1_555 1_555
C3A C1 1_555 1_555
C4A C3A 1_555 1_555
H2A C4A 1_555 1_555
C5A C4A 1_555 1_555
C6A C5A 1_555 1_555
C7A C2A 1_555 1_555
H3A C7A 1_555 1_555
N1A C5A 1_555 1_555
S1A N1A 1_555 1_555
N2A C6A 1_555 1_555
C8A C8 1_555 1_555
C9A C9 1_555 1_555
C10A C8A 1_555 1_555
N3A S2 1_555 1_555
C11A C10A 1_555 1_555
C12A C11A 1_555 1_555
H4A C12A 1_555 1_555
C13A C12A 1_555 1_555
H5A C13A 1_555 1_555
C14A C13A 1_555 1_555
H6A C14A 1_555 1_555
S3A C11A 1_555 1_555
C6 C7 1_555 1_555
S1 N2 1_555 1_555
C14 S3 1_555 1_555
C1A C8A 1_555 1_555
C2A C3A 1_555 1_555
C6A C7A 1_555 1_555
S1A N2A 1_555 1_555
C9A C10A 1_555 1_555
C9A N3A 1_555 1_555
C14A S3A 1_555 1_555

#END
