
#######################################################################
#
#                 Cambridge Crystallographic Data Centre
#                                CCDC 
#
#######################################################################
#
# If this CIF has been generated from an entry in the Cambridge 
# Structural Database, then it will include bibliographic, chemical, 
# crystal, experimental, refinement or atomic coordinate data resulting 
# from the CCDC's data processing and validation procedures.
#
#######################################################################

data_COWNIN
_chemical_formula_moiety         'C34 H20 N6 O2 S3'
_chemical_name_systematic        
3,9-bis(4-methoxyphenyl)-6,16,25-trithia-5,7,15,17,24,26-hexaazaoctacyclo[9.9.9.0^2,10^.0^4,8^.0^12,20^.0^14,18^.0^21,29^.0^23,27^]nonacosa-2,4,7,9,12,14,17,19,21,23,26,28-dodecaene
_symmetry_cell_setting           monoclinic
_symmetry_space_group_name_H-M   'P 21/n'
_symmetry_Int_Tables_number      14
_space_group_name_Hall           '-P 2yn'
loop_
_symmetry_equiv_pos_site_id
_symmetry_equiv_pos_as_xyz
1 x,y,z
2 1/2-x,1/2+y,1/2-z
3 -x,-y,-z
4 1/2+x,1/2-y,1/2+z
_cell_length_a                   16.177(3)
_cell_length_b                   10.0848(17)
_cell_length_c                   17.552(3)
_cell_angle_alpha                90
_cell_angle_beta                 96.892(5)
_cell_angle_gamma                90
_cell_volume                     2842.77
_exptl_crystal_colour            yellow
_exptl_crystal_description       polyhedron
_cell_formula_units_Z            4
loop_
_atom_site_label
_atom_site_type_symbol
_atom_site_fract_x
_atom_site_fract_y
_atom_site_fract_z
S1 S 1.09968(6) 0.67590(11) 0.20602(7)
S2 S 0.75706(7) -0.16861(9) 0.07981(6)
S3 S 0.46589(7) 0.75466(12) -0.02738(6)
C1 C 0.74758(19) 0.4285(3) 0.15350(18)
H1 H 0.7312 0.4276 0.2067
C2 C 0.7912(2) 0.4305(3) 0.01587(18)
H2 H 0.8081 0.4311 -0.0371
C3 C 0.8334(2) 0.4886(3) 0.15047(18)
C4 C 0.8559(2) 0.4950(3) 0.07402(18)
C5 C 0.9289(2) 0.5504(3) 0.0585(2)
H3 H 0.9418 0.5584 0.0073
C6 C 0.9848(2) 0.5955(3) 0.1212(2)
N1 N 1.06143(18) 0.6490(3) 0.11818(19)
C7 C 0.9642(2) 0.5815(3) 0.1975(2)
N2 N 1.02525(19) 0.6247(3) 0.25196(18)
C8 C 0.8869(2) 0.5291(3) 0.2120(2)
H4 H 0.8725 0.5223 0.2628
C9 C 0.75303(19) 0.2900(3) 0.12061(17)
C10 C 0.77851(19) 0.2912(3) 0.04475(17)
C11 C 0.7907(2) 0.1769(3) 0.00718(18)
H5 H 0.8088 0.1778 -0.0424
C12 C 0.7757(2) 0.0555(3) 0.04436(19)
N3 N 0.7837(2) -0.0670(3) 0.01571(17)
C13 C 0.7479(2) 0.0559(3) 0.11879(19)
N4 N 0.73439(19) -0.0672(3) 0.14529(16)
C14 C 0.7380(2) 0.1765(3) 0.15805(18)
H6 H 0.7217 0.1779 0.2083
C15 C 0.68603(19) 0.5044(3) 0.09763(17)
C16 C 0.7104(2) 0.5058(3) 0.02067(18)
C17 C 0.6667(2) 0.5703(3) -0.03966(18)
C18 C 0.5921(2) 0.6348(3) -0.02302(19)
N5 N 0.53946(19) 0.7023(3) -0.07395(17)
C19 C 0.5670(2) 0.6319(3) 0.05293(19)
N6 N 0.49518(17) 0.6983(3) 0.05753(17)
C20 C 0.61445(19) 0.5656(3) 0.11518(18)
C21 C 0.6944(2) 0.5756(3) -0.11759(19)
C22 C 0.7656(2) 0.6457(4) -0.1299(2)
H7 H 0.7940 0.6956 -0.0889
C23 C 0.7962(2) 0.6447(4) -0.2001(2)
H8 H 0.8462 0.6904 -0.2065
C24 C 0.7535(2) 0.5769(4) -0.2608(2)
C25 C 0.6814(2) 0.5103(4) -0.2502(2)
H9 H 0.6517 0.4638 -0.2919
C26 C 0.6519(2) 0.5104(4) -0.1792(2)
H10 H 0.6017 0.4649 -0.1729
O1 O 0.77727(17) 0.5672(3) -0.33258(14)
C27 C 0.8535(2) 0.6299(4) -0.3471(2)
H11 H 0.8483 0.7262 -0.3417
H12 H 0.8650 0.6088 -0.3993
H13 H 0.8993 0.5976 -0.3101
C28 C 0.5868(2) 0.5653(3) 0.19257(19)
C29 C 0.5663(2) 0.6829(3) 0.2273(2)
H14 H 0.5716 0.7641 0.2010
C30 C 0.5382(2) 0.6858(3) 0.29928(19)
H15 H 0.5243 0.7673 0.3217
C31 C 0.5312(2) 0.5658(4) 0.33743(19)
C32 C 0.5505(2) 0.4489(3) 0.3049(2)
H16 H 0.5457 0.3680 0.3318
C33 C 0.5772(2) 0.4478(3) 0.23253(19)
H17 H 0.5891 0.3655 0.2099
O2 O 0.50393(17) 0.5547(3) 0.40839(14)
C34 C 0.4804(3) 0.6709(4) 0.4449(2)
H18 H 0.4606 0.6476 0.4938
H19 H 0.4358 0.7156 0.4119
H20 H 0.5285 0.7302 0.4544
loop_
_geom_bond_atom_site_label_1
_geom_bond_atom_site_label_2
_geom_bond_site_symmetry_1
_geom_bond_site_symmetry_2
S1 N1 1_555 1_555
S2 N3 1_555 1_555
S3 N5 1_555 1_555
C1 H1 1_555 1_555
C2 H2 1_555 1_555
C3 C1 1_555 1_555
C4 C2 1_555 1_555
C5 C4 1_555 1_555
H3 C5 1_555 1_555
C6 C5 1_555 1_555
N1 C6 1_555 1_555
C7 C6 1_555 1_555
N2 S1 1_555 1_555
C8 C3 1_555 1_555
H4 C8 1_555 1_555
C9 C1 1_555 1_555
C10 C2 1_555 1_555
C11 C10 1_555 1_555
H5 C11 1_555 1_555
C12 C11 1_555 1_555
N3 C12 1_555 1_555
C13 C12 1_555 1_555
N4 S2 1_555 1_555
C14 C9 1_555 1_555
H6 C14 1_555 1_555
C15 C1 1_555 1_555
C16 C2 1_555 1_555
C17 C16 1_555 1_555
C18 C17 1_555 1_555
N5 C18 1_555 1_555
C19 C18 1_555 1_555
N6 S3 1_555 1_555
C20 C15 1_555 1_555
C21 C17 1_555 1_555
C22 C21 1_555 1_555
H7 C22 1_555 1_555
C23 C22 1_555 1_555
H8 C23 1_555 1_555
C24 C23 1_555 1_555
C25 C24 1_555 1_555
H9 C25 1_555 1_555
C26 C21 1_555 1_555
H10 C26 1_555 1_555
O1 C24 1_555 1_555
C27 O1 1_555 1_555
H11 C27 1_555 1_555
H12 C27 1_555 1_555
H13 C27 1_555 1_555
C28 C20 1_555 1_555
C29 C28 1_555 1_555
H14 C29 1_555 1_555
C30 C29 1_555 1_555
H15 C30 1_555 1_555
C31 C30 1_555 1_555
C32 C31 1_555 1_555
H16 C32 1_555 1_555
C33 C28 1_555 1_555
H17 C33 1_555 1_555
O2 C31 1_555 1_555
C34 O2 1_555 1_555
H18 C34 1_555 1_555
H19 C34 1_555 1_555
H20 C34 1_555 1_555
C3 C4 1_555 1_555
C7 N2 1_555 1_555
C7 C8 1_555 1_555
C9 C10 1_555 1_555
C13 N4 1_555 1_555
C13 C14 1_555 1_555
C15 C16 1_555 1_555
C19 N6 1_555 1_555
C19 C20 1_555 1_555
C25 C26 1_555 1_555
C32 C33 1_555 1_555

#END
