
#######################################################################
#
#                 Cambridge Crystallographic Data Centre
#                                CCDC 
#
#######################################################################
#
# If this CIF has been generated from an entry in the Cambridge 
# Structural Database, then it will include bibliographic, chemical, 
# crystal, experimental, refinement or atomic coordinate data resulting 
# from the CCDC's data processing and validation procedures.
#
#######################################################################

data_COWNEJ
_chemical_formula_moiety         'C20 H8 N6 S3'
_chemical_name_systematic        
6,16,25-trithia-5,7,15,17,24,26-hexaazaoctacyclo[9.9.9.0^2,10^.0^4,8^.0^12,20^.0^14,18^.0^21,29^.0^23,27^]nonacosa-2,4,7,9,12,14,17,19,21,23,26,28-dodecaene
_symmetry_cell_setting           monoclinic
_symmetry_space_group_name_H-M   'P 21/n'
_symmetry_Int_Tables_number      14
_space_group_name_Hall           '-P 2yn'
loop_
_symmetry_equiv_pos_site_id
_symmetry_equiv_pos_as_xyz
1 x,y,z
2 1/2-x,1/2+y,1/2-z
3 -x,-y,-z
4 1/2+x,1/2-y,1/2+z
_cell_length_a                   11.5762(18)
_cell_length_b                   13.295(2)
_cell_length_c                   11.7170(19)
_cell_angle_alpha                90
_cell_angle_beta                 94.065(4)
_cell_angle_gamma                90
_cell_volume                     1798.78
_exptl_crystal_colour            colorless
_exptl_crystal_description       polyhedron
_cell_formula_units_Z            4
loop_
_atom_site_label
_atom_site_type_symbol
_atom_site_fract_x
_atom_site_fract_y
_atom_site_fract_z
S1 S 0.48951(6) 0.90948(6) 1.23356(6)
S2 S 0.58553(7) 0.33798(6) 0.59704(7)
S3 S 0.15657(6) 1.01887(5) 0.41935(6)
N1 N 0.57141(18) 0.92019(16) 1.12825(19)
N2 N 0.38635(18) 0.84011(17) 1.17697(18)
N3 N 0.6521(2) 0.44481(18) 0.60213(19)
N4 N 0.4624(2) 0.36815(17) 0.64393(19)
N5 N 0.29464(19) 1.00883(16) 0.44646(18)
N6 N 0.10954(19) 0.93176(15) 0.49946(19)
C1 C 0.32286(18) 0.70257(17) 0.77897(19)
H1 H 0.2481 0.6717 0.7986
C2 C 0.51749(19) 0.78354(18) 0.7279(2)
H2 H 0.5922 0.8144 0.7080
C3 C 0.38539(19) 0.75615(17) 0.8807(2)
C4 C 0.49304(19) 0.80108(17) 0.8526(2)
C5 C 0.55939(19) 0.85641(17) 0.9295(2)
H3 H 0.6301 0.8860 0.9100
C6 C 0.5189(2) 0.86827(17) 1.0403(2)
C7 C 0.4125(2) 0.82286(18) 1.0682(2)
C8 C 0.3446(2) 0.76654(17) 0.9853(2)
H4 H 0.2730 0.7372 1.0027
C9 C 0.40524(19) 0.62600(17) 0.73316(19)
C10 C 0.51364(19) 0.67037(18) 0.7066(2)
C11 C 0.5987(2) 0.6154(2) 0.6626(2)
H5 H 0.6700 0.6452 0.6454
C12 C 0.5767(2) 0.5113(2) 0.6432(2)
C13 C 0.4684(2) 0.46744(18) 0.6669(2)
C14 C 0.3810(2) 0.52733(18) 0.7126(2)
H6 H 0.3083 0.4994 0.7283
C15 C 0.30601(19) 0.78251(16) 0.68667(19)
C16 C 0.41370(19) 0.82685(17) 0.6578(2)
C17 C 0.4176(2) 0.90026(17) 0.5772(2)
H7 H 0.4891 0.9280 0.5574
C18 C 0.3100(2) 0.93390(17) 0.5240(2)
C19 C 0.2038(2) 0.88960(17) 0.5539(2)
C20 C 0.20254(19) 0.81276(17) 0.6370(2)
H8 H 0.1320 0.7834 0.6572
loop_
_geom_bond_atom_site_label_1
_geom_bond_atom_site_label_2
_geom_bond_site_symmetry_1
_geom_bond_site_symmetry_2
S1 N1 1_555 1_555
S2 N3 1_555 1_555
S3 N5 1_555 1_555
N1 C6 1_555 1_555
N2 S1 1_555 1_555
N3 C12 1_555 1_555
N4 S2 1_555 1_555
N5 C18 1_555 1_555
N6 S3 1_555 1_555
C1 H1 1_555 1_555
C2 H2 1_555 1_555
C3 C1 1_555 1_555
C4 C2 1_555 1_555
C5 C4 1_555 1_555
H3 C5 1_555 1_555
C6 C5 1_555 1_555
C7 N2 1_555 1_555
C8 C3 1_555 1_555
H4 C8 1_555 1_555
C9 C1 1_555 1_555
C10 C2 1_555 1_555
C11 C10 1_555 1_555
H5 C11 1_555 1_555
C12 C11 1_555 1_555
C13 N4 1_555 1_555
C14 C9 1_555 1_555
H6 C14 1_555 1_555
C15 C1 1_555 1_555
C16 C2 1_555 1_555
C17 C16 1_555 1_555
H7 C17 1_555 1_555
C18 C17 1_555 1_555
C19 N6 1_555 1_555
C20 C15 1_555 1_555
H8 C20 1_555 1_555
C3 C4 1_555 1_555
C6 C7 1_555 1_555
C7 C8 1_555 1_555
C9 C10 1_555 1_555
C12 C13 1_555 1_555
C13 C14 1_555 1_555
C15 C16 1_555 1_555
C18 C19 1_555 1_555
C19 C20 1_555 1_555

#END
