
#######################################################################
#
#                 Cambridge Crystallographic Data Centre
#                                CCDC 
#
#######################################################################
#
# If this CIF has been generated from an entry in the Cambridge 
# Structural Database, then it will include bibliographic, chemical, 
# crystal, experimental, refinement or atomic coordinate data resulting 
# from the CCDC's data processing and validation procedures.
#
#######################################################################

data_COWPOT
_chemical_formula_moiety         'C17 H23 N1 O2'
_chemical_name_systematic        
(+-)-4\b-(2-Pyrrolylcarbonyl)-1\a-ethyl-3a\b,4,5,7a\a-tetrahydroindan-5\b-methanol
_symmetry_cell_setting           monoclinic
_symmetry_space_group_name_H-M   'P 2/n'
_symmetry_Int_Tables_number      13
_space_group_name_Hall           '-P 2yac'
loop_
_symmetry_equiv_pos_site_id
_symmetry_equiv_pos_as_xyz
1 x,y,z
2 1/2-x,y,1/2-z
3 -x,-y,-z
4 1/2+x,-y,1/2+z
_cell_length_a                   14.546(2)
_cell_length_b                   5.734(1)
_cell_length_c                   19.187(2)
_cell_angle_alpha                90
_cell_angle_beta                 105.60(1)
_cell_angle_gamma                90
_cell_volume                     1541.37
_chemical_melting_point          88-90deg.C
_cell_formula_units_Z            4
loop_
_atom_site_label
_atom_site_type_symbol
_atom_site_fract_x
_atom_site_fract_y
_atom_site_fract_z
C1 C 0.4187(2) 0.1479(4) 0.8160(1)
C2 C 0.5010(2) -0.0298(4) 0.8352(1)
C3 C 0.5589(2) 0.0006(4) 0.7792(1)
C4 C 0.4962(1) 0.1588(3) 0.7216(1)
C5 C 0.5415(1) 0.3051(3) 0.6737(1)
C6 C 0.4623(1) 0.4502(3) 0.6191(1)
C7 C 0.3859(1) 0.5306(4) 0.6523(1)
C8 C 0.3794(2) 0.4751(3) 0.7174(1)
C9 C 0.4504(1) 0.3157(4) 0.7655(1)
C10 C 0.4205(2) 0.3287(4) 0.5463(1)
C11 C 0.3952(2) 0.2601(5) 0.8810(1)
C12 C 0.3588(3) 0.0926(7) 0.9276(2)
C13 C 0.5984(1) 0.1697(3) 0.6327(1)
C14 C 0.6796(1) 0.2819(3) 0.6164(1)
C15 C 0.7267(1) 0.4886(4) 0.6391(1)
C16 C 0.7970(1) 0.5145(4) 0.6029(1)
C17 C 0.7910(1) 0.3274(4) 0.5582(1)
N1 N 0.7209(1) 0.1848(3) 0.5665(1)
O1 O 0.3775(1) 0.1085(3) 0.5525(1)
O2 O 0.5737(1) -0.0278(2) 0.6095(1)
H1 H 0.3582 0.0773 0.7935
H2 H 0.5409 -0.0009 0.8830
H3 H 0.4758 -0.1853 0.8327
H4 H 0.5691 -0.1469 0.7588
H5 H 0.6194 0.0729 0.8008
H6 H 0.4553 0.0606 0.6858
H7 H 0.5863 0.4045 0.7063
H8 H 0.4948 0.5855 0.6082
H9 H 0.3371 0.6302 0.6236
H10 H 0.3281 0.5381 0.7343
H11 H 0.4904 0.4305 0.7955
H12 H 0.4706 0.3050 0.5232
H13 H 0.3725 0.4283 0.5168
H14 H 0.3473 0.3771 0.8637
H15 H 0.4522 0.3322 0.9103
H16 H 0.3452 0.1740 0.9674
H17 H 0.4056 -0.0262 0.9458
H18 H 0.3014 0.0220 0.8985
H19 H 0.7134 0.5954 0.6736
H20 H 0.8416 0.6410 0.6083
H21 H 0.8303 0.3011 0.5259
H22 H 0.7029 0.0397 0.5417
H23 H 0.4289(20) 0.0137(47) 0.5685(15)
loop_
_geom_bond_atom_site_label_1
_geom_bond_atom_site_label_2
_geom_bond_site_symmetry_1
_geom_bond_site_symmetry_2
C1 C2 1_555 1_555
C2 C3 1_555 1_555
C3 C4 1_555 1_555
C4 C5 1_555 1_555
C5 C6 1_555 1_555
C6 C7 1_555 1_555
C7 C8 1_555 1_555
C8 C9 1_555 1_555
C9 C1 1_555 1_555
C10 C6 1_555 1_555
C11 C1 1_555 1_555
C12 C11 1_555 1_555
C13 C5 1_555 1_555
C14 C13 1_555 1_555
C15 C14 1_555 1_555
C16 C15 1_555 1_555
C17 C16 1_555 1_555
N1 C14 1_555 1_555
O1 C10 1_555 1_555
O2 C13 1_555 1_555
H1 C1 1_555 1_555
H2 C2 1_555 1_555
H3 C2 1_555 1_555
H4 C3 1_555 1_555
H5 C3 1_555 1_555
H6 C4 1_555 1_555
H7 C5 1_555 1_555
H8 C6 1_555 1_555
H9 C7 1_555 1_555
H10 C8 1_555 1_555
H11 C9 1_555 1_555
H12 C10 1_555 1_555
H13 C10 1_555 1_555
H14 C11 1_555 1_555
H15 C11 1_555 1_555
H16 C12 1_555 1_555
H17 C12 1_555 1_555
H18 C12 1_555 1_555
H19 C15 1_555 1_555
H20 C16 1_555 1_555
H21 C17 1_555 1_555
H22 N1 1_555 1_555
H23 O1 1_555 1_555
C4 C9 1_555 1_555
C17 N1 1_555 1_555

#END
