
#######################################################################
#
#                 Cambridge Crystallographic Data Centre
#                                CCDC 
#
#######################################################################
#
# If this CIF has been generated from an entry in the Cambridge 
# Structural Database, then it will include bibliographic, chemical, 
# crystal, experimental, refinement or atomic coordinate data resulting 
# from the CCDC's data processing and validation procedures.
#
#######################################################################

data_COWSEM
_chemical_formula_moiety         'C28 H29 K1 N2 O5 S1'
_chemical_name_systematic        
(1-(1-Naphthyloxy)-11-(8-quinolyloxy)-3,6,9-trioxa-undecane-N^1^,O^4^,O^7^,O^10^,O^13^,O^16^)-thiocyanato-potassium
_symmetry_cell_setting           orthorhombic
_symmetry_space_group_name_H-M   'P n a 21'
_symmetry_Int_Tables_number      33
_space_group_name_Hall           'P 2c -2n'
loop_
_symmetry_equiv_pos_site_id
_symmetry_equiv_pos_as_xyz
1 x,y,z
2 1/2-x,1/2+y,1/2+z
3 1/2+x,1/2-y,z
4 -x,-y,1/2+z
_cell_length_a                   8.389(2)
_cell_length_b                   14.344(3)
_cell_length_c                   22.159(5)
_cell_angle_alpha                90
_cell_angle_beta                 90
_cell_angle_gamma                90
_cell_volume                     2666.43
_exptl_crystal_colour            colorless
_cell_formula_units_Z            4
loop_
_atom_site_label
_atom_site_type_symbol
_atom_site_fract_x
_atom_site_fract_y
_atom_site_fract_z
K1 K 0.2709(1) 0.4948(5) 0.5062
S1 S -0.3521(2) 0.4946(1) 0.5863(1)
C1 C -0.1878(6) 0.4982(3) 0.5460(2)
N1 N -0.0718(6) 0.5012(3) 0.5181(3)
N2 N 0.1859(4) 0.4595(2) 0.3864(1)
C2 C 0.2677(4) 0.3973(2) 0.3510(2)
C3 C 0.3537(5) 0.3244(2) 0.3801(2)
O1 O 0.3544(4) 0.3272(2) 0.4415(1)
C4 C 0.3672(8) 0.2417(3) 0.4739(2)
C5 C 0.3850(7) 0.2623(4) 0.5388(2)
O2 O 0.2593(3) 0.3183(2) 0.5600(1)
C6 C 0.2533(8) 0.3214(4) 0.6239(2)
C7 C 0.1533(7) 0.4017(3) 0.6438(2)
O3 O 0.2342(4) 0.4852(2) 0.6301(1)
C8 C 0.1513(6) 0.5662(3) 0.6492(2)
C9 C 0.2528(7) 0.6496(3) 0.6344(2)
O4 O 0.2543(3) 0.6631(2) 0.5711(1)
C10 C 0.3498(7) 0.7405(3) 0.5540(2)
C11 C 0.3334(7) 0.7566(3) 0.4878(2)
O5 O 0.4092(3) 0.6793(2) 0.4580(1)
C12 C 0.4157(4) 0.6809(2) 0.3960(2)
C13 C 0.3417(6) 0.7456(3) 0.3608(2)
C14 C 0.3511(6) 0.7372(3) 0.2973(2)
C15 C 0.4335(5) 0.6677(3) 0.2706(2)
C16 C 0.6038(5) 0.5280(3) 0.2805(2)
C17 C 0.6867(5) 0.4666(3) 0.3167(2)
C18 C 0.6820(5) 0.4756(3) 0.3785(2)
C19 C 0.5948(5) 0.5436(3) 0.4059(2)
C20 C 0.5076(4) 0.6078(2) 0.3704(2)
C21 C 0.5144(4) 0.6010(3) 0.3062(2)
C22 C 0.1060(5) 0.5253(3) 0.3585(2)
C23 C 0.1003(6) 0.5378(4) 0.2970(2)
C24 C 0.1840(6) 0.4776(3) 0.2607(2)
C25 C 0.2682(56) 0.4033(3) 0.2874(2)
C26 C 0.3522(6) 0.3369(4) 0.2535(2)
C27 C 0.4295(6) 0.2656(4) 0.2822(2)
C28 C 0.4304(6) 0.2587(3) 0.3454(2)
H1 H 0.459(8) 0.206(4) 0.459(3)
H2 H 0.248(9) 0.201(5) 0.464(3)
H3 H 0.391(9) 0.205(5) 0.562(3)
H4 H 0.484(8) 0.297(4) 0.549(3)
H5 H 0.354(7) 0.322(3) 0.638(2)
H6 H 0.206(7) 0.262(4) 0.638(2)
H7 H 0.135(6) 0.401(3) 0.687(2)
H8 H 0.059(6) 0.400(3) 0.625(2)
H9 H 0.128(7) 0.565(4) 0.692(3)
H10 H 0.046(6) 0.574(3) 0.631(2)
H11 H 0.366(7) 0.640(3) 0.648(2)
H12 H 0.197(9) 0.708(5) 0.650(3)
H13 H 0.313(6) 0.794(4) 0.573(2)
H14 H 0.475(6) 0.728(3) 0.564(2)
H15 H 0.222(6) 0.757(3) 0.473(2)
H16 H 0.396(8) 0.811(5) 0.474(3)
H17 H 0.268(8) 0.797(5) 0.380(3)
H18 H 0.298(7) 0.779(4) 0.272(2)
H19 H 0.438(7) 0.657(4) 0.227(3)
H20 H 0.610(7) 0.524(4) 0.236(3)
H21 H 0.750(6) 0.417(4) 0.297(2)
H22 H 0.745(6) 0.436(4) 0.408(2)
H23 H 0.594(5) 0.549(3) 0.450(2)
H24 H 0.036(6) 0.566(3) 0.380(2)
H25 H 0.048(6) 0.582(3) 0.278(2)
H26 H 0.191(6) 0.485(3) 0.222(2)
H27 H 0.370(7) 0.347(4) 0.212(3)
H28 H 0.485(7) 0.225(4) 0.258(2)
H29 H 0.488(7) 0.199(4) 0.368(2)
loop_
_geom_bond_atom_site_label_1
_geom_bond_atom_site_label_2
_geom_bond_site_symmetry_1
_geom_bond_site_symmetry_2
K1 N1 1_555 1_555
S1 C1 1_555 1_555
C1 N1 1_555 1_555
N2 K1 1_555 1_555
C2 N2 1_555 1_555
C3 C2 1_555 1_555
O1 K1 1_555 1_555
C4 O1 1_555 1_555
C5 C4 1_555 1_555
O2 K1 1_555 1_555
C6 O2 1_555 1_555
C7 C6 1_555 1_555
O3 K1 1_555 1_555
C8 O3 1_555 1_555
C9 C8 1_555 1_555
O4 K1 1_555 1_555
C10 O4 1_555 1_555
C11 C10 1_555 1_555
O5 K1 1_555 1_555
C12 O5 1_555 1_555
C13 C12 1_555 1_555
C14 C13 1_555 1_555
C15 C14 1_555 1_555
C16 C17 1_555 1_555
C17 C18 1_555 1_555
C18 C19 1_555 1_555
C19 C20 1_555 1_555
C20 C12 1_555 1_555
C21 C15 1_555 1_555
C22 N2 1_555 1_555
C23 C22 1_555 1_555
C24 C23 1_555 1_555
C25 C2 1_555 1_555
C26 C25 1_555 1_555
C27 C26 1_555 1_555
C28 C3 1_555 1_555
H1 C4 1_555 1_555
H2 C4 1_555 1_555
H3 C5 1_555 1_555
H4 C5 1_555 1_555
H5 C6 1_555 1_555
H6 C6 1_555 1_555
H7 C7 1_555 1_555
H8 C7 1_555 1_555
H9 C8 1_555 1_555
H10 C8 1_555 1_555
H11 C9 1_555 1_555
H12 C9 1_555 1_555
H13 C10 1_555 1_555
H14 C10 1_555 1_555
H15 C11 1_555 1_555
H16 C11 1_555 1_555
H17 C13 1_555 1_555
H18 C14 1_555 1_555
H19 C15 1_555 1_555
H20 C16 1_555 1_555
H21 C17 1_555 1_555
H22 C18 1_555 1_555
H23 C19 1_555 1_555
H24 C22 1_555 1_555
H25 C23 1_555 1_555
H26 C24 1_555 1_555
H27 C26 1_555 1_555
H28 C27 1_555 1_555
H29 C28 1_555 1_555
C3 O1 1_555 1_555
C5 O2 1_555 1_555
C7 O3 1_555 1_555
C9 O4 1_555 1_555
C11 O5 1_555 1_555
C16 C21 1_555 1_555
C20 C21 1_555 1_555
C24 C25 1_555 1_555
C27 C28 1_555 1_555

#END
