
#######################################################################
#
#                 Cambridge Crystallographic Data Centre
#                                CCDC 
#
#######################################################################
#
# If this CIF has been generated from an entry in the Cambridge 
# Structural Database, then it will include bibliographic, chemical, 
# crystal, experimental, refinement or atomic coordinate data resulting 
# from the CCDC's data processing and validation procedures.
#
#######################################################################

data_COWXET
_chemical_formula_moiety         'C11 H12 N2 O1 S1'
_chemical_name_systematic        
2-methyl-N-(prop-2-yn-1-yloxy)-5,6-dihydro-1,3-benzothiazol-7(4H)-imine
_symmetry_cell_setting           monoclinic
_symmetry_space_group_name_H-M   'P 21/c'
_symmetry_Int_Tables_number      14
_space_group_name_Hall           '-P 2ybc'
loop_
_symmetry_equiv_pos_site_id
_symmetry_equiv_pos_as_xyz
1 x,y,z
2 -x,1/2+y,1/2-z
3 -x,-y,-z
4 x,1/2-y,1/2+z
_cell_length_a                   9.725(9)
_cell_length_b                   8.068(7)
_cell_length_c                   14.452(13)
_cell_angle_alpha                90
_cell_angle_beta                 98.68(2)
_cell_angle_gamma                90
_cell_volume                     1120.94
_exptl_crystal_colour            colorless
_exptl_crystal_description       prism
_cell_formula_units_Z            4
loop_
_atom_site_label
_atom_site_type_symbol
_atom_site_fract_x
_atom_site_fract_y
_atom_site_fract_z
C1 C 0.36394(17) 0.4124(2) 0.17282(12)
C2 C 0.49963(16) 0.31511(18) 0.07611(11)
C3 C 0.60133(16) 0.36949(19) 0.14521(10)
C4 C 0.74827(16) 0.3625(2) 0.13628(10)
C5 C 0.78045(19) 0.3068(3) 0.04252(12)
H1 H 0.8742 0.2625 0.0500
H2 H 0.7766 0.4016 0.0009
C6 C 0.6797(2) 0.1760(3) -0.00125(14)
H3 H 0.6892 0.0774 0.0376
H4 H 0.7023 0.1463 -0.0622
C7 C 0.53004(18) 0.2369(2) -0.01217(11)
H5 H 0.5143 0.3170 -0.0627
H6 H 0.4674 0.1443 -0.0283
C8 C 0.2345(2) 0.4608(4) 0.20934(18)
H7 H 0.1561 0.4069 0.1733
H8 H 0.2226 0.5788 0.2046
H9 H 0.2412 0.4279 0.2737
C9 C 0.92364(19) 0.5248(2) 0.34073(13)
H10 H 0.8906 0.5906 0.3891
H11 H 0.9763 0.5973 0.3056
C10 C 1.01527(18) 0.3947(3) 0.38479(12)
C11 C 1.0922(2) 0.2949(3) 0.42216(16)
H12 H 1.1532 0.2158 0.4518
O1 O 0.80706(12) 0.46123(18) 0.27949(9)
N1 N 0.36559(14) 0.33934(19) 0.09201(10)
N2 N 0.85248(14) 0.4025(2) 0.19709(10)
S1 S 0.52554(4) 0.45493(6) 0.23466(3)
loop_
_geom_bond_atom_site_label_1
_geom_bond_atom_site_label_2
_geom_bond_site_symmetry_1
_geom_bond_site_symmetry_2
C1 C8 1_555 1_555
C2 C3 1_555 1_555
C3 C4 1_555 1_555
C4 C5 1_555 1_555
C5 H1 1_555 1_555
H2 C5 1_555 1_555
C6 C5 1_555 1_555
H3 C6 1_555 1_555
H4 C6 1_555 1_555
C7 C2 1_555 1_555
H5 C7 1_555 1_555
H6 C7 1_555 1_555
C8 H7 1_555 1_555
H8 C8 1_555 1_555
H9 C8 1_555 1_555
C9 H10 1_555 1_555
H11 C9 1_555 1_555
C10 C9 1_555 1_555
C11 C10 1_555 1_555
H12 C11 1_555 1_555
O1 C9 1_555 1_555
N1 C1 1_555 1_555
N2 C4 1_555 1_555
S1 C1 1_555 1_555
C2 N1 1_555 1_555
C3 S1 1_555 1_555
C6 C7 1_555 1_555
O1 N2 1_555 1_555

#END
