
#######################################################################
#
#                 Cambridge Crystallographic Data Centre
#                                CCDC 
#
#######################################################################
#
# If this CIF has been generated from an entry in the Cambridge 
# Structural Database, then it will include bibliographic, chemical, 
# crystal, experimental, refinement or atomic coordinate data resulting 
# from the CCDC's data processing and validation procedures.
#
#######################################################################

data_COXBOG
_chemical_formula_moiety         'C21 H19 N1 O2 S2'
_chemical_name_systematic        
(+-)-1-Thia-10-(p-tolylsulfonyl)-10-aza(2.2)metacyclophane
_symmetry_cell_setting           monoclinic
_symmetry_space_group_name_H-M   'P 21/c'
_symmetry_Int_Tables_number      14
_space_group_name_Hall           '-P 2ybc'
loop_
_symmetry_equiv_pos_site_id
_symmetry_equiv_pos_as_xyz
1 x,y,z
2 -x,1/2+y,1/2-z
3 -x,-y,-z
4 x,1/2-y,1/2+z
_cell_length_a                   5.178(3)
_cell_length_b                   15.899(7)
_cell_length_c                   22.008(8)
_cell_angle_alpha                90
_cell_angle_beta                 90.86(4)
_cell_angle_gamma                90
_cell_volume                     1811.6
_exptl_crystal_colour            colorless
_chemical_melting_point          215-217deg.C
_cell_formula_units_Z            4
loop_
_atom_site_label
_atom_site_type_symbol
_atom_site_fract_x
_atom_site_fract_y
_atom_site_fract_z
S1 S 0.4695(8) -0.0244(3) 0.1630(2)
C1 C 0.2457(28) -0.1090(9) 0.1922(6)
C2 C 0.2787(17) -0.1190(5) 0.2599(4)
C3 C 0.4827(17) -0.1654(5) 0.2850(4)
C4 C 0.5477(17) -0.1563(5) 0.3464(4)
C5 C 0.4088(17) -0.1009(5) 0.3827(4)
C6 C 0.2049(17) -0.0546(5) 0.3575(4)
C7 C 0.1398(17) -0.0637(5) 0.2961(4)
C8 C 0.1065(29) 0.0238(9) 0.3887(7)
N1 N 0.2622(23) 0.1002(7) 0.3667(6)
C9 C 0.2540(15) 0.1188(5) 0.3040(4)
C10 C 0.0571(15) 0.1681(5) 0.2787(4)
C11 C 0.0071(15) 0.1656(5) 0.2163(4)
C12 C 0.1541(15) 0.1138(5) 0.1791(4)
C13 C 0.3510(15) 0.0645(5) 0.2044(4)
C14 C 0.4009(15) 0.0670(5) 0.2668(4)
S2 S 0.4306(8) 0.1538(2) 0.4152(2)
O1 O 0.6049(20) 0.2035(6) 0.3797(5)
O2 O 0.5287(19) 0.0981(6) 0.4610(5)
C15 C 0.2228(16) 0.2251(5) 0.4508(4)
C16 C 0.1793(16) 0.3047(5) 0.4261(4)
C17 C 0.0061(16) 0.3596(5) 0.4536(4)
C18 C -0.1236(16) 0.3348(5) 0.5057(4)
C19 C -0.0801(16) 0.2552(5) 0.5304(4)
C20 C 0.0931(16) 0.2003(5) 0.5030(4)
C21 C -0.3161(29) 0.3942(10) 0.5331(7)
loop_
_geom_bond_atom_site_label_1
_geom_bond_atom_site_label_2
_geom_bond_site_symmetry_1
_geom_bond_site_symmetry_2
S1 C1 1_555 1_555
C1 C2 1_555 1_555
C2 C3 1_555 1_555
C3 C4 1_555 1_555
C4 C5 1_555 1_555
C5 C6 1_555 1_555
C6 C7 1_555 1_555
C7 C2 1_555 1_555
C8 C6 1_555 1_555
N1 C8 1_555 1_555
C9 N1 1_555 1_555
C10 C9 1_555 1_555
C11 C10 1_555 1_555
C12 C11 1_555 1_555
C13 S1 1_555 1_555
C14 C9 1_555 1_555
S2 N1 1_555 1_555
O1 S2 1_555 1_555
O2 S2 1_555 1_555
C15 S2 1_555 1_555
C16 C15 1_555 1_555
C17 C16 1_555 1_555
C18 C17 1_555 1_555
C19 C18 1_555 1_555
C20 C15 1_555 1_555
C21 C18 1_555 1_555
C12 C13 1_555 1_555
C13 C14 1_555 1_555
C19 C20 1_555 1_555

#END
