
#######################################################################
#
#                 Cambridge Crystallographic Data Centre
#                                CCDC 
#
#######################################################################
#
# If this CIF has been generated from an entry in the Cambridge 
# Structural Database, then it will include bibliographic, chemical, 
# crystal, experimental, refinement or atomic coordinate data resulting 
# from the CCDC's data processing and validation procedures.
#
#######################################################################

data_COXBIA
_chemical_formula_moiety         'C14 H12 O1 S1'
_chemical_name_systematic        (+-)-1-Oxa-10-thia(2.2)metacyclophane
_symmetry_cell_setting           monoclinic
_symmetry_space_group_name_H-M   'P 21/c'
_symmetry_Int_Tables_number      14
_space_group_name_Hall           '-P 2ybc'
loop_
_symmetry_equiv_pos_site_id
_symmetry_equiv_pos_as_xyz
1 x,y,z
2 -x,1/2+y,1/2-z
3 -x,-y,-z
4 x,1/2-y,1/2+z
_cell_length_a                   14.532(3)
_cell_length_b                   5.538(11)
_cell_length_c                   14.595(3)
_cell_angle_alpha                90
_cell_angle_beta                 104.46(2)
_cell_angle_gamma                90
_cell_volume                     1137.37
_exptl_crystal_colour            colorless
_chemical_melting_point          93-94deg.C
_cell_formula_units_Z            4
loop_
_atom_site_label
_atom_site_type_symbol
_atom_site_fract_x
_atom_site_fract_y
_atom_site_fract_z
O1 O 0.3976(3) 0.3855(8) 0.7718(3)
C1 C 0.4073(5) 0.2658(14) 0.6840(5)
C2 C 0.3647(5) 0.4138(11) 0.5975(5)
C3 C 0.4171(5) 0.5961(13) 0.5669(5)
C4 C 0.3707(5) 0.7662(13) 0.5050(5)
C5 C 0.2739(5) 0.7815(13) 0.4805(5)
C6 C 0.2200(5) 0.6056(11) 0.5107(5)
C7 C 0.2662(5) 0.4138(12) 0.5631(5)
C8 C 0.1164(5) 0.6393(14) 0.5045(5)
S1 S 0.0971(2) 0.8121(4) 0.6069(2)
C9 C 0.1567(5) 0.6235(14) 0.6996(3)
C10 C 0.1074(5) 0.4446(13) 0.7375(5)
C11 C 0.1586(5) 0.2689(13) 0.7940(5)
C12 C 0.2546(5) 0.2423(13) 0.8077(5)
C13 C 0.3029(5) 0.4182(12) 0.7704(5)
C14 C 0.2547(5) 0.6164(11) 0.7227(5)
loop_
_geom_bond_atom_site_label_1
_geom_bond_atom_site_label_2
_geom_bond_site_symmetry_1
_geom_bond_site_symmetry_2
O1 C1 1_555 1_555
C1 C2 1_555 1_555
C2 C3 1_555 1_555
C3 C4 1_555 1_555
C4 C5 1_555 1_555
C5 C6 1_555 1_555
C6 C7 1_555 1_555
C7 C2 1_555 1_555
C8 C6 1_555 1_555
S1 C8 1_555 1_555
C9 S1 1_555 1_555
C10 C9 1_555 1_555
C11 C10 1_555 1_555
C12 C11 1_555 1_555
C13 O1 1_555 1_555
C14 C9 1_555 1_555
C12 C13 1_555 1_555
C13 C14 1_555 1_555

#END
