
#######################################################################
#
#                 Cambridge Crystallographic Data Centre
#                                CCDC 
#
#######################################################################
#
# If this CIF has been generated from an entry in the Cambridge 
# Structural Database, then it will include bibliographic, chemical, 
# crystal, experimental, refinement or atomic coordinate data resulting 
# from the CCDC's data processing and validation procedures.
#
#######################################################################

data_COXFIG
_chemical_formula_moiety         'C20 H16 Cl1 N1 O6'
_chemical_name_systematic        
"methyl 5-chloro-3-hydroxy-2-nitro-1'-oxo-1',2,3,3'-tetrahydro-1H,2'H-1,2'-biindene-2'-carboxylate"
_symmetry_cell_setting           orthorhombic
_symmetry_space_group_name_H-M   'P 21 21 21'
_symmetry_Int_Tables_number      19
_space_group_name_Hall           'P 2ac 2ab'
loop_
_symmetry_equiv_pos_site_id
_symmetry_equiv_pos_as_xyz
1 x,y,z
2 1/2-x,-y,1/2+z
3 -x,1/2+y,1/2-z
4 1/2+x,1/2-y,-z
_cell_length_a                   5.9948(8)
_cell_length_b                   13.4806(9)
_cell_length_c                   22.5066(10)
_cell_angle_alpha                90
_cell_angle_beta                 90
_cell_angle_gamma                90
_cell_volume                     1818.84
_exptl_crystal_colour            colorless
_exptl_crystal_description       needle
_cell_formula_units_Z            4
_exptl_crystal_recrystallization_method hexane
loop_
_atom_site_label
_atom_site_type_symbol
_atom_site_fract_x
_atom_site_fract_y
_atom_site_fract_z
C1 C 0.5112(4) 0.37888(16) 0.06863(10)
H1 H 0.5120 0.3094 0.0841
C2 C 0.7531(4) 0.41869(17) 0.06007(11)
H2 H 0.8532 0.3876 0.0903
C3 C 0.7279(4) 0.52810(17) 0.07381(10)
C4 C 0.8726(4) 0.60416(17) 0.05868(11)
H3 H 1.0075 0.5917 0.0378
C5 C 0.8109(4) 0.70019(18) 0.07551(11)
C6 C 0.6151(4) 0.71951(17) 0.10610(11)
H4 H 0.5782 0.7856 0.1169
C7 C 0.4731(4) 0.64213(17) 0.12099(11)
H5 H 0.3385 0.6547 0.1419
C8 C 0.5307(4) 0.54575(16) 0.10488(10)
C9 C 0.3979(4) 0.45050(15) 0.11307(10)
H6 H 0.2397 0.4619 0.1007
C10 C 0.4025(4) 0.40993(15) 0.17689(10)
C11 C 0.2806(4) 0.48429(16) 0.21915(10)
C12 C 0.4127(4) 0.49316(16) 0.27376(10)
C13 C 0.3582(4) 0.54312(18) 0.32600(11)
H7 H 0.2230 0.5795 0.3291
C14 C 0.5048(5) 0.53854(19) 0.37281(11)
H8 H 0.4709 0.5719 0.4089
C15 C 0.7049(4) 0.48477(19) 0.36767(11)
H9 H 0.8048 0.4824 0.4004
C16 C 0.7594(4) 0.43482(18) 0.31543(11)
H10 H 0.8946 0.3984 0.3122
C17 C 0.6100(4) 0.43970(16) 0.26807(10)
C18 C 0.6339(4) 0.39561(17) 0.20661(10)
H11 H 0.6727 0.3243 0.2090
H12 H 0.7514 0.4305 0.1838
C19 C 0.2583(4) 0.31610(16) 0.18113(10)
C20 C 0.1396(4) 0.18832(17) 0.24599(11)
H13 H 0.1746 0.1364 0.2170
H14 H -0.0178 0.2070 0.2423
H15 H 0.1681 0.1635 0.2862
Cl1 Cl 0.98315(12) 0.79867(4) 0.05548(3)
N1 N 0.3967(4) 0.38466(15) 0.00917(9)
O1 O 0.3608(4) 0.30644(14) -0.01769(9)
O2 O 0.3501(3) 0.46608(13) -0.01073(8)
O3 O 0.8427(3) 0.40292(13) 0.00288(8)
H16 H 0.8614 0.3419 -0.0026
O4 O 0.1044(3) 0.52343(12) 0.20666(7)
O5 O 0.1349(3) 0.28711(13) 0.14303(8)
O6 O 0.2795(3) 0.27495(12) 0.23474(8)
loop_
_geom_bond_atom_site_label_1
_geom_bond_atom_site_label_2
_geom_bond_site_symmetry_1
_geom_bond_site_symmetry_2
C1 H1 1_555 1_555
C2 C1 1_555 1_555
H2 C2 1_555 1_555
C3 C2 1_555 1_555
C4 C3 1_555 1_555
H3 C4 1_555 1_555
C5 C4 1_555 1_555
C6 C5 1_555 1_555
H4 C6 1_555 1_555
C7 C6 1_555 1_555
H5 C7 1_555 1_555
C8 C3 1_555 1_555
C9 C1 1_555 1_555
H6 C9 1_555 1_555
C10 C9 1_555 1_555
C11 C10 1_555 1_555
C12 C11 1_555 1_555
C13 C12 1_555 1_555
H7 C13 1_555 1_555
C14 C13 1_555 1_555
H8 C14 1_555 1_555
C15 C14 1_555 1_555
H9 C15 1_555 1_555
C16 C15 1_555 1_555
H10 C16 1_555 1_555
C17 C12 1_555 1_555
C18 C10 1_555 1_555
H11 C18 1_555 1_555
H12 C18 1_555 1_555
C19 C10 1_555 1_555
C20 H13 1_555 1_555
H14 C20 1_555 1_555
H15 C20 1_555 1_555
Cl1 C5 1_555 1_555
N1 C1 1_555 1_555
O1 N1 1_555 1_555
O2 N1 1_555 1_555
O3 C2 1_555 1_555
H16 O3 1_555 1_555
O4 C11 1_555 1_555
O5 C19 1_555 1_555
O6 C19 1_555 1_555
C7 C8 1_555 1_555
C8 C9 1_555 1_555
C16 C17 1_555 1_555
C17 C18 1_555 1_555
C20 O6 1_555 1_555

#END
