
#######################################################################
#
#                 Cambridge Crystallographic Data Centre
#                                CCDC 
#
#######################################################################
#
# If this CIF has been generated from an entry in the Cambridge 
# Structural Database, then it will include bibliographic, chemical, 
# crystal, experimental, refinement or atomic coordinate data resulting 
# from the CCDC's data processing and validation procedures.
#
#######################################################################

data_COXGUS01
_chemical_formula_moiety         'C8 H4 N1 O6 1-,C7 H8 N1 O2 1+'
_chemical_name_systematic        '4-carboxyanilinium 2-carboxy-6-nitrobenzoate'
_symmetry_cell_setting           monoclinic
_symmetry_space_group_name_H-M   'P 21/c'
_symmetry_Int_Tables_number      14
_space_group_name_Hall           '-P 2ybc'
loop_
_symmetry_equiv_pos_site_id
_symmetry_equiv_pos_as_xyz
1 x,y,z
2 -x,1/2+y,1/2-z
3 -x,-y,-z
4 x,1/2-y,1/2+z
_cell_length_a                   14.7057(12)
_cell_length_b                   7.9661(5)
_cell_length_c                   13.4212(11)
_cell_angle_alpha                90
_cell_angle_beta                 109.317(2)
_cell_angle_gamma                90
_cell_volume                     1483.74
_exptl_crystal_colour            colorless
_exptl_crystal_description       block
_cell_formula_units_Z            4
loop_
_atom_site_label
_atom_site_type_symbol
_atom_site_fract_x
_atom_site_fract_y
_atom_site_fract_z
N1 N 0.0922(3) 0.3860(5) 0.4368(3)
H1 H 0.1006 0.2920 0.4051
H2 H 0.0375 0.4352 0.3982
H3 H 0.0893 0.3616 0.5004
O1 O 0.3858(2) 0.9921(5) 0.4856(3)
O2 O 0.4844(2) 0.7763(5) 0.4919(4)
H4 H 0.5237 0.8522 0.4990
C1 C 0.4013(3) 0.8396(7) 0.4839(4)
C2 C 0.3227(3) 0.7174(6) 0.4711(4)
C3 C 0.2297(3) 0.7783(6) 0.4471(4)
H5 H 0.2182 0.8931 0.4387
C4 C 0.1543(3) 0.6697(6) 0.4355(4)
H6 H 0.0918 0.7102 0.4197
C5 C 0.1727(3) 0.4993(6) 0.4479(3)
C6 C 0.2643(3) 0.4360(6) 0.4709(4)
H7 H 0.2751 0.3209 0.4777
C7 C 0.3399(3) 0.5460(6) 0.4839(4)
H8 H 0.4024 0.5052 0.5012
N2 N 0.3338(3) 0.0686(5) 0.2466(3)
O3 O 0.0516(3) 0.6386(6) 0.1076(4)
O4 O 0.0237(2) 0.4377(4) 0.2074(3)
H9 H -0.0301 0.4801 0.1894
O5 O 0.1262(2) 0.1197(4) 0.3078(2)
O6 O 0.0759(2) 0.0974(4) 0.1320(2)
O7 O 0.2739(3) -0.0392(5) 0.2367(4)
O8 O 0.4192(3) 0.0387(6) 0.2666(4)
C8 C 0.0775(3) 0.5180(6) 0.1625(4)
C9 C 0.1301(3) 0.1550(5) 0.2177(4)
C10 C 0.1787(3) 0.4513(6) 0.1893(4)
C11 C 0.2047(3) 0.2837(6) 0.2131(3)
C12 C 0.3023(3) 0.2445(6) 0.2322(4)
C13 C 0.3706(4) 0.3650(7) 0.2351(5)
H10 H 0.4348 0.3348 0.2500
C14 C 0.3434(4) 0.5283(7) 0.2161(5)
H11 H 0.3893 0.6109 0.2208
C15 C 0.2476(4) 0.5708(6) 0.1901(4)
H12 H 0.2288 0.6814 0.1727
loop_
_geom_bond_atom_site_label_1
_geom_bond_atom_site_label_2
_geom_bond_site_symmetry_1
_geom_bond_site_symmetry_2
N1 H1 1_555 1_555
H2 N1 1_555 1_555
H3 N1 1_555 1_555
O1 C1 1_555 1_555
O2 H4 1_555 1_555
C1 O2 1_555 1_555
C2 C1 1_555 1_555
C3 C2 1_555 1_555
H5 C3 1_555 1_555
C4 C3 1_555 1_555
H6 C4 1_555 1_555
C5 N1 1_555 1_555
C6 C5 1_555 1_555
H7 C6 1_555 1_555
C7 C2 1_555 1_555
H8 C7 1_555 1_555
N2 O7 1_555 1_555
O3 C8 1_555 1_555
O4 H9 1_555 1_555
O5 C9 1_555 1_555
O6 C9 1_555 1_555
O8 N2 1_555 1_555
C8 O4 1_555 1_555
C9 C11 1_555 1_555
C10 C8 1_555 1_555
C11 C10 1_555 1_555
C12 N2 1_555 1_555
C13 C12 1_555 1_555
H10 C13 1_555 1_555
C14 C13 1_555 1_555
H11 C14 1_555 1_555
C15 C10 1_555 1_555
H12 C15 1_555 1_555
C4 C5 1_555 1_555
C6 C7 1_555 1_555
C11 C12 1_555 1_555
C14 C15 1_555 1_555

#END
