
#######################################################################
#
#                 Cambridge Crystallographic Data Centre
#                                CCDC 
#
#######################################################################
#
# If this CIF has been generated from an entry in the Cambridge 
# Structural Database, then it will include bibliographic, chemical, 
# crystal, experimental, refinement or atomic coordinate data resulting 
# from the CCDC's data processing and validation procedures.
#
#######################################################################

data_COXKAD
_chemical_formula_moiety         'C20 H18 Cl1 N1 O1'
_chemical_name_systematic        
N-((2-chlorophenyl)(phenyl)methyl)-4-methoxyaniline
_symmetry_cell_setting           monoclinic
_symmetry_space_group_name_H-M   'P 21'
_symmetry_Int_Tables_number      4
_space_group_name_Hall           'P 2yb'
loop_
_symmetry_equiv_pos_site_id
_symmetry_equiv_pos_as_xyz
1 x,y,z
2 -x,1/2+y,-z
_cell_length_a                   5.7905(3)
_cell_length_b                   16.4842(8)
_cell_length_c                   8.7818(5)
_cell_angle_alpha                90
_cell_angle_beta                 93.243(4)
_cell_angle_gamma                90
_cell_volume                     836.896
_cell_formula_units_Z            2
loop_
_atom_site_label
_atom_site_type_symbol
_atom_site_fract_x
_atom_site_fract_y
_atom_site_fract_z
Cl1 Cl 0.66822(18) 0.69712(7) 0.68916(12)
O1 O 0.0747(4) 1.13423(14) 0.6377(3)
N1 N 0.1579(5) 0.81221(15) 0.8254(3)
H1 H 0.0458 0.7799 0.7996
C1 C 0.3444(5) 0.68793(18) 0.9025(3)
C2 C 0.4788(5) 0.64573(19) 0.8036(4)
C3 C -0.0525(5) 0.9172(2) 0.6885(4)
H2 H -0.1680 0.8796 0.6634
C4 C 0.3514(5) 0.77985(17) 0.9175(4)
H3 H 0.4931 0.7986 0.8727
C5 C 0.0897(6) 1.05317(18) 0.6747(4)
C6 C 0.2858(5) 1.02916(19) 0.7598(4)
H4 H 0.4022 1.0667 0.7835
C7 C 0.3632(5) 0.80692(17) 1.0842(4)
C8 C 0.5571(6) 0.7879(2) 1.1773(4)
H5 H 0.6766 0.7583 1.1376
C9 C 0.1412(5) 0.89238(18) 0.7757(4)
C10 C 0.3113(5) 0.95001(18) 0.8103(4)
H6 H 0.4440 0.9352 0.8683
C11 C -0.0800(6) 0.9962(2) 0.6375(4)
H7 H -0.2118 1.0109 0.5786
C12 C 0.2104(7) 0.8775(2) 1.2963(5)
H8 H 0.0933 0.9082 1.3359
C13 C 0.1895(5) 0.8519(2) 1.1455(4)
H9 H 0.0575 0.8650 1.0853
C14 C 0.1898(6) 0.6423(2) 0.9819(4)
H10 H 0.0968 0.6681 1.0500
C15 C 0.1707(7) 0.5594(2) 0.9624(5)
H11 H 0.0641 0.5303 1.0160
C16 C 0.4629(6) 0.5626(2) 0.7851(4)
H12 H 0.5571 0.5359 0.7189
C17 C 0.3076(7) 0.5201(2) 0.8649(5)
H13 H 0.2950 0.4642 0.8527
C18 C 0.4029(7) 0.8578(2) 1.3872(4)
H14 H 0.4167 0.8752 1.4880
C19 C 0.5752(7) 0.8121(2) 1.3280(4)
H15 H 0.7044 0.7975 1.3896
C20 C -0.1253(7) 1.1603(2) 0.5520(5)
H16 H -0.1366 1.1321 0.4562
H17 H -0.1157 1.2176 0.5340
H18 H -0.2597 1.1488 0.6075
loop_
_geom_bond_atom_site_label_1
_geom_bond_atom_site_label_2
_geom_bond_site_symmetry_1
_geom_bond_site_symmetry_2
Cl1 C2 1_555 1_555
O1 C5 1_555 1_555
N1 H1 1_555 1_555
C1 C2 1_555 1_555
C2 C16 1_555 1_555
C3 H2 1_555 1_555
C4 N1 1_555 1_555
H3 C4 1_555 1_555
C5 C6 1_555 1_555
C6 H4 1_555 1_555
C7 C4 1_555 1_555
C8 C7 1_555 1_555
H5 C8 1_555 1_555
C9 N1 1_555 1_555
C10 C6 1_555 1_555
H6 C10 1_555 1_555
C11 C3 1_555 1_555
H7 C11 1_555 1_555
C12 H8 1_555 1_555
C13 C7 1_555 1_555
H9 C13 1_555 1_555
C14 C1 1_555 1_555
H10 C14 1_555 1_555
C15 C14 1_555 1_555
H11 C15 1_555 1_555
C16 H12 1_555 1_555
C17 C15 1_555 1_555
H13 C17 1_555 1_555
C18 C12 1_555 1_555
H14 C18 1_555 1_555
C19 C8 1_555 1_555
H15 C19 1_555 1_555
C20 O1 1_555 1_555
H16 C20 1_555 1_555
H17 C20 1_555 1_555
H18 C20 1_555 1_555
C1 C4 1_555 1_555
C3 C9 1_555 1_555
C5 C11 1_555 1_555
C9 C10 1_555 1_555
C12 C13 1_555 1_555
C16 C17 1_555 1_555
C18 C19 1_555 1_555

#END
