
#######################################################################
#
#                 Cambridge Crystallographic Data Centre
#                                CCDC 
#
#######################################################################
#
# If this CIF has been generated from an entry in the Cambridge 
# Structural Database, then it will include bibliographic, chemical, 
# crystal, experimental, refinement or atomic coordinate data resulting 
# from the CCDC's data processing and validation procedures.
#
#######################################################################

data_COXKOP
_chemical_compound_source        'Acanthella sp'
_chemical_formula_moiety         'C23 H33 N3 O2'
_chemical_name_systematic        'Kalihinol F'
_symmetry_cell_setting           monoclinic
_symmetry_space_group_name_H-M   'P 21'
_symmetry_Int_Tables_number      4
_space_group_name_Hall           'P 2yb'
loop_
_symmetry_equiv_pos_site_id
_symmetry_equiv_pos_as_xyz
1 x,y,z
2 -x,1/2+y,-z
_cell_length_a                   6.5835(7)
_cell_length_b                   35.676(6)
_cell_length_c                   10.363(1)
_cell_angle_alpha                90
_cell_angle_beta                 108.02(1)
_cell_angle_gamma                90
_cell_volume                     2314.6
_exptl_crystal_colour            colorless
_chemical_melting_point          176-178deg.C
_cell_formula_units_Z            4
loop_
_atom_site_label
_atom_site_type_symbol
_atom_site_fract_x
_atom_site_fract_y
_atom_site_fract_z
C1 C 0.5761(11) 0.2854(2) 0.4128(6)
C2 C 0.3970(12) 0.2773(2) 0.2752(7)
C3 C 0.3658(13) 0.2358(2) 0.2554(6)
C4 C 0.3048(12) 0.2167(2) 0.3703(7)
C5 C 0.4684(11) 0.2276(2) 0.5096(6)
C6 C 0.5084(11) 0.2698(2) 0.5296(6)
C7 C 0.6718(11) 0.2785(2) 0.6729(6)
C8 C 0.7352(14) 0.3207(2) 0.6810(6)
C9 C 0.8172(15) 0.3321(2) 0.5617(8)
C10 C 0.6424(14) 0.3270(2) 0.4293(7)
C11 C 0.5929(11) 0.2683(2) 0.7931(6)
C12 C 0.7671(14) 0.2745(2) 0.9311(7)
C13 C 0.7192(15) 0.2466(2) 1.0247(7)
C14 C 0.5907(11) 0.2151(2) 0.9278(6)
C15 C 0.6795(11) 0.1770(2) 0.9474(6)
C16 C 0.5455(15) 0.1507(2) 0.8282(8)
C17 C 0.6732(14) 0.1610(2) 1.0819(7)
C18 C 0.3806(15) 0.2870(3) 0.7861(8)
C19 C 0.2831(16) 0.1748(2) 0.3527(8)
C20 C 0.4603(17) 0.3542(2) 0.4080(9)
O1 O 0.1037(8) 0.2323(2) 0.3739(5)
N1 N 0.6689(10) 0.2083(1) 0.5203(6)
C21 C 0.8353(15) 0.1969(2) 0.5234(9)
N2 N 0.7440(11) 0.3349(2) 0.3233(6)
C22 C 0.8228(16) 0.3397(3) 0.2416(9)
O2 O 0.5698(7) 0.2285(1) 0.7939(4)
N3 N 0.8963(12) 0.1778(2) 0.9426(7)
C23 C 1.0838(21) 0.1843(5) 0.9366(13)
H1 H 0.714 0.272 0.409
H2 H 0.257 0.289 0.277
H3 H 0.437 0.289 0.195
H4 H 0.510 0.224 0.251
H5 H 0.254 0.231 0.165
H6 H 0.406 0.220 0.583
H7 H 0.445 0.290 0.577
H8 H 0.813 0.262 0.678
H9 H 0.847 0.326 0.773
H10 H 0.601 0.336 0.679
H11 H 0.949 0.315 0.562
H12 H 0.872 0.359 0.571
H13 H 0.764 0.302 0.966
H14 H 0.918 0.270 0.923
H15 H 0.628 0.258 1.079
H16 H 0.853 0.236 1.091
H17 H 0.448 0.212 0.948
H18 H 0.547 0.160 0.737
H19 H 0.604 0.123 0.842
H20 H 0.388 0.149 0.828
H21 H 0.520 0.162 1.087
H22 H 0.735 0.136 1.101
H23 H 0.762 0.179 1.161
H24 H 0.262 0.279 0.699
H25 H 0.335 0.280 0.869
H26 H 0.391 0.315 0.785
H27 H 0.424 0.164 0.350
H28 H 0.238 0.164 0.429
H29 H 0.168 0.169 0.262
H30 H 0.373 0.348 0.472
H31 H 0.514 0.381 0.422
H32 H 0.359 0.351 0.310
H33 H 0.123 0.261 0.392
C24 C 1.4054(12) -0.0333(2) 0.0896(7)
C25 C 1.3609(15) -0.0242(2) 0.2235(7)
C26 C 1.3631(14) 0.0185(2) 0.2455(7)
C27 C 1.1859(13) 0.0369(2) 0.1261(7)
C28 C 1.2156(11) 0.0267(2) -0.0100(6)
C29 C 1.2237(11) -0.0164(2) -0.0331(6)
C30 C 1.2463(11) -0.0266(2) -0.1721(6)
C31 C 1.3036(16) -0.0669(2) -0.1818(8)
C32 C 1.4876(16) -0.0808(2) -0.0641(8)
C33 C 1.4376(15) -0.0744(2) 0.0715(8)
C34 C 1.0460(11) -0.0157(2) -0.2957(6)
C35 C 1.0845(14) -0.0229(2) -0.4319(7)
C36 C 0.9430(14) 0.0061(2) -0.5231(7)
C37 C 0.9092(11) 0.0361(2) -0.4275(6)
C38 C 0.9811(10) 0.0760(2) -0.4471(6)
C39 C 0.9715(14) 0.1010(2) -0.3334(7)
C40 C 0.8421(13) 0.0921(2) -0.5871(7)
C41 C 0.8400(15) -0.0336(3) -0.2861(9)
C42 C 1.1918(16) 0.0802(2) 0.1439(8)
C43 C 1.2497(18) -0.0999(2) 0.0798(9)
O3 O 0.9873(9) 0.0230(2) 0.1286(5)
N4 N 1.4034(10) 0.0432(1) -0.0215(6)
C44 C 1.5665(15) 0.0545(3) -0.0273(9)
N5 N 1.6242(14) -0.0869(2) 0.1807(8)
C45 C 1.7731(21) -0.0954(4) 0.2634(12)
O4 O 1.0234(7) 0.0238(1) -0.2954(4)
N6 N 1.1987(12) 0.0762(2) -0.4436(7)
C46 C 1.3747(19) 0.0759(4) -0.4411(13)
H34 H 1.550 -0.020 0.094
H35 H 1.468 -0.038 0.302
H36 H 1.209 -0.035 0.217
H37 H 1.512 0.029 0.246
H38 H 1.341 0.025 0.335
H39 H 1.085 0.037 -0.083
H40 H 1.077 -0.028 -0.035
H41 H 1.373 -0.011 -0.180
H42 H 1.336 -0.071 -0.270
H43 H 1.173 -0.083 -0.182
H44 H 1.624 -0.065 -0.063
H45 H 1.522 -0.108 -0.078
H46 H 1.042 -0.049 -0.466
H47 H 1.241 -0.018 -0.424
H48 H 0.800 -0.005 -0.577
H49 H 1.014 0.017 -0.588
H50 H 0.750 0.038 -0.445
H51 H 1.066 0.091 -0.243
H52 H 1.014 0.128 -0.349
H53 H 0.816 0.102 -0.330
H54 H 0.686 0.092 -0.589
H55 H 0.889 0.118 -0.599
H56 H 0.859 0.075 -0.661
H57 H 0.807 -0.025 -0.200
H58 H 0.711 -0.026 -0.369
H59 H 0.849 -0.062 -0.285
H60 H 1.333 0.090 0.140
H61 H 1.070 0.092 0.064
H62 H 1.166 0.087 0.232
H63 H 1.110 -0.092 0.005
H64 H 1.277 -0.127 0.064
H65 H 1.222 -0.097 0.170
H66 H 0.964 0.029 0.218
loop_
_geom_bond_atom_site_label_1
_geom_bond_atom_site_label_2
_geom_bond_site_symmetry_1
_geom_bond_site_symmetry_2
C1 C2 1_555 1_555
C2 C3 1_555 1_555
C3 C4 1_555 1_555
C4 C5 1_555 1_555
C5 C6 1_555 1_555
C6 C1 1_555 1_555
C7 C6 1_555 1_555
C8 C7 1_555 1_555
C9 C8 1_555 1_555
C10 C1 1_555 1_555
C11 C7 1_555 1_555
C12 C11 1_555 1_555
C13 C12 1_555 1_555
C14 C13 1_555 1_555
C15 C14 1_555 1_555
C16 C15 1_555 1_555
C17 C15 1_555 1_555
C18 C11 1_555 1_555
C19 C4 1_555 1_555
C20 C10 1_555 1_555
O1 C4 1_555 1_555
N1 C5 1_555 1_555
C21 N1 1_555 1_555
N2 C10 1_555 1_555
C22 N2 1_555 1_555
O2 C11 1_555 1_555
N3 C15 1_555 1_555
C23 N3 1_555 1_555
H1 C1 1_555 1_555
H2 C2 1_555 1_555
H3 C2 1_555 1_555
H4 C3 1_555 1_555
H5 C3 1_555 1_555
H6 C5 1_555 1_555
H7 C6 1_555 1_555
H8 C7 1_555 1_555
H9 C8 1_555 1_555
H10 C8 1_555 1_555
H11 C9 1_555 1_555
H12 C9 1_555 1_555
H13 C12 1_555 1_555
H14 C12 1_555 1_555
H15 C13 1_555 1_555
H16 C13 1_555 1_555
H17 C14 1_555 1_555
H18 C16 1_555 1_555
H19 C16 1_555 1_555
H20 C16 1_555 1_555
H21 C17 1_555 1_555
H22 C17 1_555 1_555
H23 C17 1_555 1_555
H24 C18 1_555 1_555
H25 C18 1_555 1_555
H26 C18 1_555 1_555
H27 C19 1_555 1_555
H28 C19 1_555 1_555
H29 C19 1_555 1_555
H30 C20 1_555 1_555
H31 C20 1_555 1_555
H32 C20 1_555 1_555
H33 O1 1_555 1_555
C24 C25 1_555 1_555
C25 C26 1_555 1_555
C26 C27 1_555 1_555
C27 C28 1_555 1_555
C28 C29 1_555 1_555
C29 C24 1_555 1_555
C30 C29 1_555 1_555
C31 C30 1_555 1_555
C32 C31 1_555 1_555
C33 C24 1_555 1_555
C34 C30 1_555 1_555
C35 C34 1_555 1_555
C36 C35 1_555 1_555
C37 C36 1_555 1_555
C38 C37 1_555 1_555
C39 C38 1_555 1_555
C40 C38 1_555 1_555
C41 C34 1_555 1_555
C42 C27 1_555 1_555
C43 C33 1_555 1_555
O3 C27 1_555 1_555
N4 C28 1_555 1_555
C44 N4 1_555 1_555
N5 C33 1_555 1_555
C45 N5 1_555 1_555
O4 C34 1_555 1_555
N6 C38 1_555 1_555
C46 N6 1_555 1_555
H34 C24 1_555 1_555
H35 C25 1_555 1_555
H36 C25 1_555 1_555
H37 C26 1_555 1_555
H38 C26 1_555 1_555
H39 C28 1_555 1_555
H40 C29 1_555 1_555
H41 C30 1_555 1_555
H42 C31 1_555 1_555
H43 C31 1_555 1_555
H44 C32 1_555 1_555
H45 C32 1_555 1_555
H46 C35 1_555 1_555
H47 C35 1_555 1_555
H48 C36 1_555 1_555
H49 C36 1_555 1_555
H50 C37 1_555 1_555
H51 C39 1_555 1_555
H52 C39 1_555 1_555
H53 C39 1_555 1_555
H54 C40 1_555 1_555
H55 C40 1_555 1_555
H56 C40 1_555 1_555
H57 C41 1_555 1_555
H58 C41 1_555 1_555
H59 C41 1_555 1_555
H60 C42 1_555 1_555
H61 C42 1_555 1_555
H62 C42 1_555 1_555
H63 C43 1_555 1_555
H64 C43 1_555 1_555
H65 C43 1_555 1_555
H66 O3 1_555 1_555
C9 C10 1_555 1_555
C14 O2 1_555 1_555
C32 C33 1_555 1_555
C37 O4 1_555 1_555

#END
