
#######################################################################
#
#                 Cambridge Crystallographic Data Centre
#                                CCDC 
#
#######################################################################
#
# If this CIF has been generated from an entry in the Cambridge 
# Structural Database, then it will include bibliographic, chemical, 
# crystal, experimental, refinement or atomic coordinate data resulting 
# from the CCDC's data processing and validation procedures.
#
#######################################################################

data_COXLOQ
_chemical_formula_moiety         'C10 H6 Br2'
_chemical_name_systematic        1,5-Dibromonaphthalene
_symmetry_cell_setting           monoclinic
_symmetry_space_group_name_H-M   'C 2/c'
_symmetry_Int_Tables_number      15
_space_group_name_Hall           '-C 2yn'
loop_
_symmetry_equiv_pos_site_id
_symmetry_equiv_pos_as_xyz
1 x,y,z
2 1/2+x,1/2+y,z
3 -x,y,1/2-z
4 1/2-x,1/2+y,1/2-z
5 -x,-y,-z
6 1/2-x,1/2-y,-z
7 x,-y,1/2+z
8 1/2+x,1/2-y,1/2+z
_cell_length_a                   14.576(5)
_cell_length_b                   4.049(1)
_cell_length_c                   15.046(6)
_cell_angle_alpha                90
_cell_angle_beta                 92.18(3)
_cell_angle_gamma                90
_cell_volume                     887.346
_exptl_crystal_colour            colorless
_cell_formula_units_Z            4
loop_
_atom_site_label
_atom_site_type_symbol
_atom_site_fract_x
_atom_site_fract_y
_atom_site_fract_z
Br1 Br 0.09159(5) -0.05373(20) 0.16272(5)
C1 C 0.2045(5) 0.0480(15) 0.1032(4)
C2 C 0.2836(5) -0.0457(17) 0.1431(4)
C3 C 0.3683(5) 0.0292(17) 0.1016(5)
C4 C 0.3739(4) 0.1864(17) 0.0227(4)
C5 C 0.2064(4) 0.2166(16) 0.0207(4)
H1 H 0.2839 -0.176 0.2058
H2 H 0.4316 -0.045 0.1356
H3 H 0.4400 0.234 -0.0055
C5E C 0.2936(4) 0.2834(16) -0.0207(4)
C4E C 0.1261(4) 0.3136(17) -0.0227(4)
C1E C 0.2955(5) 0.4520(15) -0.1032(4)
C3E C 0.1317(5) 0.4708(17) -0.1016(5)
H3E H 0.0600 0.266 0.0055
Br1E Br 0.40841(5) 0.55373(20) -0.16272(5)
C2E C 0.2164(5) 0.5457(17) -0.1431(4)
H2E H 0.0684 0.545 -0.1356
H1E H 0.2161 0.676 -0.2058
loop_
_geom_bond_atom_site_label_1
_geom_bond_atom_site_label_2
_geom_bond_site_symmetry_1
_geom_bond_site_symmetry_2
Br1 C1 1_555 1_555
C1 C2 1_555 1_555
C2 C3 1_555 1_555
C3 C4 1_555 1_555
C4 H3 1_555 1_555
C5 C1 1_555 1_555
H1 C2 1_555 1_555
H2 C3 1_555 1_555
C5E C4 1_555 1_555
C4E C5 1_555 1_555
C1E C5E 1_555 1_555
C3E C4E 1_555 1_555
H3E C4E 1_555 1_555
Br1E C1E 1_555 1_555
C2E C1E 1_555 1_555
H2E C3E 1_555 1_555
H1E C2E 1_555 1_555
C5 C5E 1_555 1_555
C3E C2E 1_555 1_555

#END
