
#######################################################################
#
#                 Cambridge Crystallographic Data Centre
#                                CCDC 
#
#######################################################################
#
# If this CIF has been generated from an entry in the Cambridge 
# Structural Database, then it will include bibliographic, chemical, 
# crystal, experimental, refinement or atomic coordinate data resulting 
# from the CCDC's data processing and validation procedures.
#
#######################################################################

data_COXNOU
_chemical_formula_moiety         'C27 H32 N2 O5'
_chemical_name_systematic        
'(S)-t-Butyl 3-(6,7-dimethoxy-2-(4-methylphenyl)-1,2,3,4-tetrahydroisoquinolin-1-yl)-2-oxo-2,5-dihydro-1H-pyrrole-1-carboxylate'
_symmetry_cell_setting           hexagonal
_symmetry_space_group_name_H-M   'P 65'
_symmetry_Int_Tables_number      170
_space_group_name_Hall           'P 65'
loop_
_symmetry_equiv_pos_site_id
_symmetry_equiv_pos_as_xyz
1 x,y,z
2 x-y,x,5/6+z
3 -y,x-y,2/3+z
4 -x,-y,1/2+z
5 -x+y,-x,1/3+z
6 y,-x+y,1/6+z
_cell_length_a                   38.5889(17)
_cell_length_b                   38.5889(17)
_cell_length_c                   6.4839(3)
_cell_angle_alpha                90
_cell_angle_beta                 90
_cell_angle_gamma                120
_cell_volume                     8361.65
_exptl_crystal_colour            'light yellow'
_exptl_crystal_description       block
_cell_formula_units_Z            12
loop_
_atom_site_label
_atom_site_type_symbol
_atom_site_fract_x
_atom_site_fract_y
_atom_site_fract_z
O1 O -0.41235(19) -0.22690(17) -0.0947(15)
O2 O -0.4546(2) -0.22893(17) -0.3986(12)
O3 O -0.50617(13) -0.13393(16) -0.5702(6)
O4 O -0.62308(12) -0.17149(16) -0.3774(7)
O5 O -0.58767(13) -0.16631(16) -0.6650(6)
N1 N -0.42845(14) -0.06858(13) -0.0807(7)
N2 N -0.55892(13) -0.14836(15) -0.3467(6)
C1 C -0.4513(2) -0.0322(2) -0.2976(13)
H1 H -0.4566 -0.0505 -0.4033
C2 C -0.4586(3) -0.0010(2) -0.3298(17)
H2 H -0.4694 0.0002 -0.4559
C3 C -0.4510(2) 0.0277(2) -0.1904(18)
C4 C -0.4377(3) 0.0227(3) -0.0073(19)
H3 H -0.4342 0.0407 0.0975
C5 C -0.4286(3) -0.0077(2) 0.0379(15)
H4 H -0.4177 -0.0084 0.1647
C6 C -0.43638(16) -0.03691(17) -0.1141(10)
C7 C -0.4207(2) -0.0765(2) 0.1302(10)
H5 H -0.4459 -0.0925 0.2010
H6 H -0.4059 -0.0513 0.2036
C8 C -0.39712(18) -0.09798(19) 0.1340(14)
H7 H -0.3695 -0.0794 0.0972
H8 H -0.3974 -0.1076 0.2726
C9 C -0.41410(17) -0.13269(18) -0.0129(12)
C10 C -0.4049(2) -0.1638(2) 0.0140(16)
H9 H -0.3890 -0.1624 0.1248
C11 C -0.4183(2) -0.1944(2) -0.1128(17)
C12 C -0.4422(2) -0.19701(18) -0.2811(14)
C13 C -0.45166(18) -0.16647(18) -0.3112(11)
H10 H -0.4674 -0.1676 -0.4226
C14 C -0.43727(16) -0.13453(16) -0.1724(9)
C15 C -0.44967(15) -0.10326(15) -0.2155(8)
H11 H -0.4415 -0.0939 -0.3571
C16 C -0.4597(3) 0.0604(3) -0.225(2)
H12 H -0.4379 0.0817 -0.3002
H13 H -0.4628 0.0704 -0.0952
H14 H -0.4839 0.0506 -0.3039
C17 C -0.3927(4) -0.2290(4) 0.100(3)
H15 H -0.3733 -0.2024 0.1432
H16 H -0.3795 -0.2442 0.0759
H17 H -0.4125 -0.2417 0.2057
C18 C -0.4777(4) -0.2315(3) -0.5655(19)
H18 H -0.4654 -0.2063 -0.6370
H19 H -0.5038 -0.2378 -0.5193
H20 H -0.4800 -0.2521 -0.6568
C19 C -0.49569(15) -0.12179(15) -0.2059(8)
C20 C -0.52028(17) -0.12730(18) -0.0508(8)
H21 H -0.5124 -0.1211 0.0861
C21 C -0.56179(18) -0.1445(2) -0.1235(9)
H22 H -0.5789 -0.1704 -0.0606
H23 H -0.5722 -0.1269 -0.0922
C22 C -0.51922(16) -0.13509(17) -0.3980(8)
C23 C -0.59034(16) -0.16332(17) -0.4826(8)
C24 C -0.6622(2) -0.1873(3) -0.4823(13)
C25 C -0.6892(3) -0.1949(4) -0.3045(19)
H24 H -0.6860 -0.2117 -0.2064
H25 H -0.7165 -0.2080 -0.3517
H26 H -0.6827 -0.1700 -0.2403
C26 C -0.6611(3) -0.1567(3) -0.6274(18)
H27 H -0.6575 -0.1339 -0.5507
H28 H -0.6858 -0.1680 -0.7026
H29 H -0.6393 -0.1487 -0.7221
C27 C -0.6736(3) -0.2254(3) -0.592(2)
H30 H -0.6617 -0.2196 -0.7266
H31 H -0.7022 -0.2408 -0.6050
H32 H -0.6643 -0.2405 -0.5149
O6 O -0.3464(2) 0.0797(2) 0.3221(15)
O7 O -0.3076(3) 0.0777(3) 0.0144(17)
O8 O -0.23484(13) -0.0022(2) -0.0498(7)
O9 O -0.15347(15) 0.04496(15) -0.1416(7)
O10 O -0.11720(11) 0.06688(13) 0.1486(8)
N3 N -0.30914(15) -0.0627(3) 0.4556(9)
N4 N -0.18141(12) 0.02670(13) 0.1793(6)
C28 C -0.2876(2) -0.1036(3) 0.2492(18)
H33 H -0.2745 -0.0820 0.1595
C29 C -0.2876(2) -0.1413(2) 0.2125(17)
H34 H -0.2769 -0.1456 0.0932
C30 C -0.3034(4) -0.1681(3) 0.357(2)
C31 C -0.3265(6) -0.1662(5) 0.511(3)
H35 H -0.3402 -0.1885 0.5962
C32 C -0.3306(5) -0.1324(5) 0.550(3)
H36 H -0.3469 -0.1311 0.6517
C33 C -0.3070(3) -0.1013(2) 0.416(2)
C34 C -0.3267(3) -0.0620(3) 0.6401(14)
C35 C -0.3349(6) -0.0297(6) 0.653(3)
C36 C -0.3279(4) -0.0038(3) 0.4851(17)
C37 C -0.3455(4) 0.0241(3) 0.494(2)
H37 H -0.3618 0.0234 0.6023
C38 C -0.3359(2) 0.0497(2) 0.3355(17)
C39 C -0.3132(2) 0.0485(2) 0.1845(15)
C40 C -0.3008(3) 0.0218(3) 0.1739(18)
H38 H -0.2867 0.0214 0.0584
C41 C -0.30809(18) -0.0034(3) 0.3201(14)
C42 C -0.29050(18) -0.0345(2) 0.3078(10)
H39 H -0.2984 -0.0481 0.1739
C43 C -0.3022(3) -0.2060(3) 0.327(3)
H40 H -0.3251 -0.2246 0.2486
H41 H -0.3025 -0.2174 0.4590
H42 H -0.2782 -0.2002 0.2543
C44 C -0.3686(7) 0.0787(7) 0.504(4)
H43 H -0.3902 0.0519 0.5256
H44 H -0.3792 0.0963 0.4850
H45 H -0.3512 0.0872 0.6214
C45 C -0.2794(7) 0.0829(7) -0.158(3)
H46 H -0.2739 0.1062 -0.2378
H47 H -0.2915 0.0597 -0.2456
H48 H -0.2549 0.0863 -0.1023
C46 C -0.24523(15) -0.01169(17) 0.3155(8)
C47 C -0.22231(17) 0.00371(19) 0.1244(9)
C48 C -0.17762(17) 0.02695(18) 0.4006(9)
H49 H -0.1661 0.0539 0.4551
H50 H -0.1612 0.0157 0.4422
C49 C -0.21997(15) 0.00130(17) 0.4715(8)
H51 H -0.2275 -0.0047 0.6090
C50 C -0.15000(17) 0.04661(16) 0.0428(9)
C51 C -0.0790(2) 0.0919(3) 0.0459(17)
C52 C -0.0673(3) 0.0653(4) -0.073(2)
H52 H -0.0717 0.0430 0.0116
H53 H -0.0395 0.0805 -0.1099
H54 H -0.0832 0.0557 -0.1958
C53 C -0.0810(4) 0.1242(3) -0.085(2)
H55 H -0.1007 0.1116 -0.1913
H56 H -0.0553 0.1413 -0.1466
H57 H -0.0881 0.1398 0.0015
C54 C -0.0513(2) 0.1103(5) 0.230(2)
H58 H -0.0649 0.1161 0.3362
H59 H -0.0279 0.1347 0.1879
H60 H -0.0435 0.0919 0.2811
H61? H -0.3451 -0.0258 0.7745
H62? H -0.3325 -0.0805 0.7452
loop_
_geom_bond_atom_site_label_1
_geom_bond_atom_site_label_2
_geom_bond_site_symmetry_1
_geom_bond_site_symmetry_2
O1 C11 1_555 1_555
O2 C12 1_555 1_555
O3 C22 1_555 1_555
O4 C23 1_555 1_555
O5 C23 1_555 1_555
N1 C6 1_555 1_555
N2 C21 1_555 1_555
C1 H1 1_555 1_555
C2 C1 1_555 1_555
H2 C2 1_555 1_555
C3 C2 1_555 1_555
C4 C3 1_555 1_555
H3 C4 1_555 1_555
C5 C4 1_555 1_555
H4 C5 1_555 1_555
C6 C1 1_555 1_555
C7 N1 1_555 1_555
H5 C7 1_555 1_555
H6 C7 1_555 1_555
C8 C7 1_555 1_555
H7 C8 1_555 1_555
H8 C8 1_555 1_555
C9 C8 1_555 1_555
C10 C9 1_555 1_555
H9 C10 1_555 1_555
C11 C10 1_555 1_555
C12 C11 1_555 1_555
C13 C12 1_555 1_555
H10 C13 1_555 1_555
C14 C9 1_555 1_555
C15 N1 1_555 1_555
H11 C15 1_555 1_555
C16 C3 1_555 1_555
H12 C16 1_555 1_555
H13 C16 1_555 1_555
H14 C16 1_555 1_555
C17 O1 1_555 1_555
H15 C17 1_555 1_555
H16 C17 1_555 1_555
H17 C17 1_555 1_555
C18 O2 1_555 1_555
H18 C18 1_555 1_555
H19 C18 1_555 1_555
H20 C18 1_555 1_555
C19 C15 1_555 1_555
C20 C19 1_555 1_555
H21 C20 1_555 1_555
C21 C20 1_555 1_555
H22 C21 1_555 1_555
H23 C21 1_555 1_555
C22 N2 1_555 1_555
C23 N2 1_555 1_555
C24 O4 1_555 1_555
C25 C24 1_555 1_555
H24 C25 1_555 1_555
H25 C25 1_555 1_555
H26 C25 1_555 1_555
C26 C24 1_555 1_555
H27 C26 1_555 1_555
H28 C26 1_555 1_555
H29 C26 1_555 1_555
C27 C24 1_555 1_555
H30 C27 1_555 1_555
H31 C27 1_555 1_555
H32 C27 1_555 1_555
O6 C38 1_555 1_555
O7 C39 1_555 1_555
O8 C47 1_555 1_555
O9 C50 1_555 1_555
O10 C50 1_555 1_555
N3 C33 1_555 1_555
N4 C47 1_555 1_555
C28 H33 1_555 1_555
C29 C28 1_555 1_555
H34 C29 1_555 1_555
C30 C29 1_555 1_555
C31 C30 1_555 1_555
H35 C31 1_555 1_555
C32 C31 1_555 1_555
H36 C32 1_555 1_555
C33 C28 1_555 1_555
C34 N3 1_555 1_555
C35 C34 1_555 1_555
C36 C35 1_555 1_555
C37 C36 1_555 1_555
H37 C37 1_555 1_555
C38 C37 1_555 1_555
C39 C38 1_555 1_555
C40 C39 1_555 1_555
H38 C40 1_555 1_555
C41 C36 1_555 1_555
C42 N3 1_555 1_555
H39 C42 1_555 1_555
C43 C30 1_555 1_555
H40 C43 1_555 1_555
H41 C43 1_555 1_555
H42 C43 1_555 1_555
C44 O6 1_555 1_555
H43 C44 1_555 1_555
H44 C44 1_555 1_555
H45 C44 1_555 1_555
C45 O7 1_555 1_555
H46 C45 1_555 1_555
H47 C45 1_555 1_555
H48 C45 1_555 1_555
C46 C42 1_555 1_555
C47 C46 1_555 1_555
C48 N4 1_555 1_555
H49 C48 1_555 1_555
H50 C48 1_555 1_555
C49 C46 1_555 1_555
H51 C49 1_555 1_555
C50 N4 1_555 1_555
C51 O10 1_555 1_555
C52 C51 1_555 1_555
H52 C52 1_555 1_555
H53 C52 1_555 1_555
H54 C52 1_555 1_555
C53 C51 1_555 1_555
H55 C53 1_555 1_555
H56 C53 1_555 1_555
H57 C53 1_555 1_555
C54 C51 1_555 1_555
H58 C54 1_555 1_555
H59 C54 1_555 1_555
H60 C54 1_555 1_555
C5 C6 1_555 1_555
C13 C14 1_555 1_555
C14 C15 1_555 1_555
C19 C22 1_555 1_555
C32 C33 1_555 1_555
C40 C41 1_555 1_555
C41 C42 1_555 1_555
C48 C49 1_555 1_555

#END
