
#######################################################################
#
#                 Cambridge Crystallographic Data Centre
#                                CCDC 
#
#######################################################################
#
# If this CIF has been generated from an entry in the Cambridge 
# Structural Database, then it will include bibliographic, chemical, 
# crystal, experimental, refinement or atomic coordinate data resulting 
# from the CCDC's data processing and validation procedures.
#
#######################################################################

data_COXRAK
_chemical_formula_moiety         'C32 H24 B2 N2'
_chemical_name_systematic        
1,2,3,5-Tetraphenyl-1H,5H-[1,2,3]diazaborolo[2,1-a][1,2,3]benzodiazaborole
_symmetry_cell_setting           monoclinic
_symmetry_space_group_name_H-M   'P 21/n'
_symmetry_Int_Tables_number      14
_space_group_name_Hall           '-P 2yn'
loop_
_symmetry_equiv_pos_site_id
_symmetry_equiv_pos_as_xyz
1 x,y,z
2 1/2-x,1/2+y,1/2-z
3 -x,-y,-z
4 1/2+x,1/2-y,1/2+z
_cell_length_a                   9.938(2)
_cell_length_b                   15.052(3)
_cell_length_c                   16.599(3)
_cell_angle_alpha                90
_cell_angle_beta                 94.82(3)
_cell_angle_gamma                90
_cell_volume                     2474.21
_exptl_crystal_colour            yellow
_exptl_crystal_description       prism
_cell_formula_units_Z            4
loop_
_atom_site_label
_atom_site_type_symbol
_atom_site_fract_x
_atom_site_fract_y
_atom_site_fract_z
N1 N 0.25872(15) 0.53070(10) 0.03178(9)
C1 C 0.5310(2) 0.75393(14) 0.10590(13)
H1 H 0.5834 0.7872 0.0732
C2 C 0.70112(19) 0.45984(14) 0.27055(12)
H2 H 0.7862 0.4858 0.2719
N2 N 0.23036(15) 0.43966(10) 0.01494(9)
C3 C 0.1841(2) 0.13628(15) 0.06632(12)
H3 H 0.1054 0.1034 0.0553
C4 C 0.48117(19) 0.67236(13) 0.07986(12)
H4 H 0.4995 0.6513 0.0293
C5 C 0.60861(19) 0.47345(14) 0.20500(12)
H5 H 0.6325 0.5087 0.1625
C6 C 0.1795(2) 0.22800(14) 0.06211(12)
H6 H 0.0975 0.2558 0.0476
C7 C 0.01140(18) 0.53239(14) -0.14915(11)
H7 H -0.0189 0.5886 -0.1652
C8 C -0.03471(19) 0.45814(14) -0.19240(12)
H8 H -0.0973 0.4644 -0.2369
C9 C 0.1945(2) 0.84367(14) 0.01758(13)
H9 H 0.1935 0.8830 0.0608
C10 C 0.18997(18) 0.75305(14) 0.03135(12)
H10 H 0.1860 0.7324 0.0839
C11 C 0.6671(2) 0.40736(14) 0.33442(13)
H11 H 0.7290 0.3981 0.3788
C12 C 0.41628(19) 0.23431(14) 0.10215(11)
H12 H 0.4946 0.2667 0.1159
C13 C 0.4218(2) 0.14264(14) 0.10498(12)
H13 H 0.5034 0.1141 0.1190
C14 C 0.14187(18) 0.43720(13) -0.05668(11)
C15 C 0.2008(2) 0.81775(15) -0.12409(14)
H14 H 0.2042 0.8393 -0.1764
C16 C 0.44769(19) 0.38241(13) 0.26546(12)
H15 H 0.3631 0.3558 0.2641
C17 C 0.5030(2) 0.78627(15) 0.18075(13)
H16 H 0.5350 0.8417 0.1979
C18 C 0.10332(18) 0.52276(13) -0.08144(11)
C19 C 0.35126(18) 0.53361(13) 0.10001(11)
C20 C 0.4270(2) 0.73583(15) 0.22996(13)
H17 H 0.4083 0.7575 0.2803
C21 C 0.37872(19) 0.65322(14) 0.20456(12)
H18 H 0.3295 0.6190 0.2384
C22 C 0.47993(18) 0.43555(13) 0.20088(11)
C23 C 0.01266(19) 0.37438(14) -0.16914(12)
H19 H -0.0157 0.3253 -0.2001
C24 C 0.19618(19) 0.72701(14) -0.11057(13)
H20 H 0.1964 0.6884 -0.1543
C25 C 0.40374(17) 0.62128(13) 0.12846(11)
C26 C 0.5402(2) 0.36876(14) 0.33162(12)
H21 H 0.5170 0.3335 0.3743
C27 C 0.38091(18) 0.45075(13) 0.13043(11)
C28 C 0.3051(2) 0.09332(15) 0.08681(13)
H22 H 0.3084 0.0316 0.0884
C29 C 0.29581(18) 0.28031(13) 0.07917(11)
C30 C 0.19120(17) 0.69170(13) -0.03233(12)
C31 C 0.2004(2) 0.87622(15) -0.06017(14)
H23 H 0.2041 0.9371 -0.0692
C32 C 0.10154(19) 0.36191(14) -0.10068(12)
H24 H 0.1325 0.3057 -0.0851
B1 B 0.2987(2) 0.38382(16) 0.07518(13)
B2 B 0.1841(2) 0.58899(16) -0.02455(13)
loop_
_geom_bond_atom_site_label_1
_geom_bond_atom_site_label_2
_geom_bond_site_symmetry_1
_geom_bond_site_symmetry_2
N1 N2 1_555 1_555
C1 H1 1_555 1_555
C2 H2 1_555 1_555
N2 C14 1_555 1_555
C3 H3 1_555 1_555
C4 C1 1_555 1_555
H4 C4 1_555 1_555
C5 C2 1_555 1_555
H5 C5 1_555 1_555
C6 C3 1_555 1_555
H6 C6 1_555 1_555
C7 H7 1_555 1_555
C8 C7 1_555 1_555
H8 C8 1_555 1_555
C9 H9 1_555 1_555
C10 C9 1_555 1_555
H10 C10 1_555 1_555
C11 C2 1_555 1_555
H11 C11 1_555 1_555
C12 H12 1_555 1_555
C13 C12 1_555 1_555
H13 C13 1_555 1_555
C14 C18 1_555 1_555
C15 H14 1_555 1_555
C16 H15 1_555 1_555
C17 C1 1_555 1_555
H16 C17 1_555 1_555
C18 C7 1_555 1_555
C19 N1 1_555 1_555
C20 C17 1_555 1_555
H17 C20 1_555 1_555
C21 C20 1_555 1_555
H18 C21 1_555 1_555
C22 C5 1_555 1_555
C23 C8 1_555 1_555
H19 C23 1_555 1_555
C24 C15 1_555 1_555
H20 C24 1_555 1_555
C25 C4 1_555 1_555
C26 C11 1_555 1_555
H21 C26 1_555 1_555
C27 C19 1_555 1_555
C28 C3 1_555 1_555
H22 C28 1_555 1_555
C29 C6 1_555 1_555
C30 C10 1_555 1_555
C31 C9 1_555 1_555
H23 C31 1_555 1_555
C32 C14 1_555 1_555
H24 C32 1_555 1_555
B1 N2 1_555 1_555
B2 N1 1_555 1_555
C12 C29 1_555 1_555
C13 C28 1_555 1_555
C15 C31 1_555 1_555
C16 C22 1_555 1_555
C16 C26 1_555 1_555
C18 B2 1_555 1_555
C19 C25 1_555 1_555
C21 C25 1_555 1_555
C22 C27 1_555 1_555
C23 C32 1_555 1_555
C24 C30 1_555 1_555
C27 B1 1_555 1_555
C29 B1 1_555 1_555
C30 B2 1_555 1_555

#END
