
#######################################################################
#
#                 Cambridge Crystallographic Data Centre
#                                CCDC 
#
#######################################################################
#
# If this CIF has been generated from an entry in the Cambridge 
# Structural Database, then it will include bibliographic, chemical, 
# crystal, experimental, refinement or atomic coordinate data resulting 
# from the CCDC's data processing and validation procedures.
#
#######################################################################

data_COXREO
_chemical_formula_moiety         'C24 H18 B2 N2 S1'
_chemical_name_systematic        
1,5-Diphenyl-3-(2-thienyl)-1H,5H-[1,2,3]diazaborolo[2,1-a][1,2,3]benzodiazaborole
_symmetry_cell_setting           triclinic
_symmetry_space_group_name_H-M   'P -1'
_symmetry_Int_Tables_number      2
_space_group_name_Hall           '-P 1'
loop_
_symmetry_equiv_pos_site_id
_symmetry_equiv_pos_as_xyz
1 x,y,z
2 -x,-y,-z
_cell_length_a                   9.4920(19)
_cell_length_b                   10.356(2)
_cell_length_c                   10.494(2)
_cell_angle_alpha                76.69(3)
_cell_angle_beta                 80.05(3)
_cell_angle_gamma                77.48(3)
_cell_volume                     971.739
_exptl_crystal_colour            yellow
_exptl_crystal_description       prism
_cell_formula_units_Z            2
loop_
_atom_site_label
_atom_site_type_symbol
_atom_site_fract_x
_atom_site_fract_y
_atom_site_fract_z
S1 S 0.10853(9) 0.22402(14) 0.65198(11)
C1 C 0.1464(4) 0.0932(7) 0.4636(5)
H1 H 0.1294 0.0531 0.3961
C2 C 0.0403(4) 0.1678(6) 0.5367(5)
H2 H -0.0598 0.1866 0.5254
C3 C 0.2837(4) 0.0837(5) 0.5013(4)
H3 H 0.3707 0.0372 0.4598
C4 C 0.2818(2) 0.1470(2) 0.6029(2)
N1 N 0.47329(18) 0.05547(19) 0.75166(16)
N2 N 0.58992(18) 0.10061(19) 0.78662(17)
C5 C 0.6022(2) -0.1239(2) 0.8902(2)
C6 C 0.6630(2) -0.2426(2) 0.9716(2)
H4 H 0.6193 -0.3203 0.9898
C7 C 0.4060(2) 0.1630(2) 0.6602(2)
C8 C 0.6671(2) -0.0106(2) 0.86789(19)
C9 C 0.7939(2) -0.0135(2) 0.9189(2)
H5 H 0.8385 0.0637 0.9002
C10 C 0.2223(2) -0.1438(2) 0.7841(2)
H6 H 0.1710 -0.0583 0.8002
C11 C 0.4704(2) 0.2718(2) 0.6366(2)
H7 H 0.4436 0.3549 0.5777
C12 C 0.1467(2) -0.2344(2) 0.7602(2)
H8 H 0.0441 -0.2110 0.7614
C13 C 0.3741(2) -0.1766(2) 0.78468(19)
C14 C 0.6951(2) 0.3289(2) 0.7419(2)
C15 C 0.7875(2) -0.2464(2) 1.0258(2)
H9 H 0.8286 -0.3265 1.0820
C16 C 0.4442(2) -0.3048(2) 0.7624(2)
H10 H 0.5460 -0.3311 0.7654
C17 C 0.2195(2) -0.3591(3) 0.7347(2)
H11 H 0.1675 -0.4199 0.7163
C18 C 0.8525(2) -0.1330(2) 0.9979(2)
H12 H 0.9391 -0.1378 1.0340
C19 C 0.8550(2) 0.5137(3) 0.7786(3)
H13 H 0.9086 0.5766 0.7908
C20 C 0.7464(2) 0.4235(2) 0.6362(2)
H14 H 0.7261 0.4258 0.5501
B1 B 0.4711(3) -0.0838(3) 0.8092(2)
C21 C 0.3685(3) -0.3940(3) 0.7362(2)
H15 H 0.4190 -0.4794 0.7192
C22 C 0.8056(2) 0.4218(3) 0.8854(2)
H16 H 0.8257 0.4206 0.9713
B2 B 0.5942(3) 0.2374(3) 0.7218(2)
C23 C 0.7268(2) 0.3315(2) 0.8669(2)
H17 H 0.6930 0.2690 0.9414
C24 C 0.8262(2) 0.5140(3) 0.6533(3)
H18 H 0.8612 0.5763 0.5793
C25? C 0.1367(9) 0.2120(16) 0.6283(14)
H19? H 0.1043 0.2726 0.6874
C26? C 0.1260(8) 0.0978(19) 0.4686(16)
H20? H 0.0847 0.0674 0.4072
C27? C 0.0443(8) 0.1755(17) 0.5542(13)
H21? H -0.0587 0.2013 0.5628
S2? S 0.3090(3) 0.0598(3) 0.4813(3)
loop_
_geom_bond_atom_site_label_1
_geom_bond_atom_site_label_2
_geom_bond_site_symmetry_1
_geom_bond_site_symmetry_2
S1 C2 1_555 1_555
C1 H1 1_555 1_555
C2 C1 1_555 1_555
H2 C2 1_555 1_555
C3 C1 1_555 1_555
H3 C3 1_555 1_555
C4 S1 1_555 1_555
N1 N2 1_555 1_555
N2 C8 1_555 1_555
C5 C6 1_555 1_555
C6 H4 1_555 1_555
C7 C4 1_555 1_555
C8 C5 1_555 1_555
C9 C8 1_555 1_555
H5 C9 1_555 1_555
C10 H6 1_555 1_555
C11 C7 1_555 1_555
H7 C11 1_555 1_555
C12 C10 1_555 1_555
H8 C12 1_555 1_555
C13 C10 1_555 1_555
C14 C20 1_555 1_555
C15 C6 1_555 1_555
H9 C15 1_555 1_555
C16 C13 1_555 1_555
H10 C16 1_555 1_555
C17 C12 1_555 1_555
H11 C17 1_555 1_555
C18 C9 1_555 1_555
H12 C18 1_555 1_555
C19 H13 1_555 1_555
C20 H14 1_555 1_555
B1 N1 1_555 1_555
C21 C16 1_555 1_555
H15 C21 1_555 1_555
C22 C19 1_555 1_555
H16 C22 1_555 1_555
B2 N2 1_555 1_555
C23 C14 1_555 1_555
H17 C23 1_555 1_555
C24 C19 1_555 1_555
H18 C24 1_555 1_555
C3 C4 1_555 1_555
N1 C7 1_555 1_555
C5 B1 1_555 1_555
C11 B2 1_555 1_555
C13 B1 1_555 1_555
C14 B2 1_555 1_555
C15 C18 1_555 1_555
C17 C21 1_555 1_555
C20 C24 1_555 1_555
C22 C23 1_555 1_555

#END
