
#######################################################################
#
#                 Cambridge Crystallographic Data Centre
#                                CCDC 
#
#######################################################################
#
# If this CIF has been generated from an entry in the Cambridge 
# Structural Database, then it will include bibliographic, chemical, 
# crystal, experimental, refinement or atomic coordinate data resulting 
# from the CCDC's data processing and validation procedures.
#
#######################################################################

data_COXROY
_chemical_formula_moiety         'C20 H17 B1 N2'
_chemical_name_systematic        
2,3,5-Triphenyl-3,4-dihydro-2H-1,2,3-diazaborole
_symmetry_cell_setting           triclinic
_symmetry_space_group_name_H-M   'P -1'
_symmetry_Int_Tables_number      2
_space_group_name_Hall           '-P 1'
loop_
_symmetry_equiv_pos_site_id
_symmetry_equiv_pos_as_xyz
1 x,y,z
2 -x,-y,-z
_cell_length_a                   10.344(2)
_cell_length_b                   17.825(4)
_cell_length_c                   18.052(4)
_cell_angle_alpha                94.99(3)
_cell_angle_beta                 98.18(3)
_cell_angle_gamma                90.06(3)
_cell_volume                     3281.81
_exptl_crystal_colour            colorless
_exptl_crystal_description       prism
_cell_formula_units_Z            8
loop_
_atom_site_label
_atom_site_type_symbol
_atom_site_fract_x
_atom_site_fract_y
_atom_site_fract_z
N1 N 0.4920(2) 0.60141(13) 0.27263(13)
N2 N 0.3887(2) 0.55518(12) 0.23025(13)
C1 C 0.5285(3) 0.57172(15) 0.33494(16)
C2 C 0.6377(3) 0.60655(16) 0.38921(17)
C3 C 0.3421(3) 0.58112(17) 0.15891(16)
C4 C 0.4530(3) 0.50281(16) 0.34494(17)
H1 H 0.4048 0.5107 0.3885
H2 H 0.5106 0.4588 0.3513
C5 C 0.6620(3) 0.58407(19) 0.46150(18)
H3 H 0.6074 0.5467 0.4760
C6 C 0.3192(4) 0.65599(18) 0.1512(2)
H4 H 0.3332 0.6915 0.1940
C7 C 0.2507(3) 0.43045(16) 0.24338(16)
C8 C 0.7200(3) 0.66126(17) 0.36878(18)
H5 H 0.7054 0.6772 0.3194
B1 B 0.3567(3) 0.49276(19) 0.2685(2)
C9 C 0.3181(4) 0.52918(19) 0.09621(18)
H6 H 0.3332 0.4771 0.1009
C10 C 0.8224(3) 0.69223(19) 0.4201(2)
H7 H 0.8771 0.7297 0.4059
C11 C 0.2759(4) 0.6798(2) 0.0817(2)
H8 H 0.2623 0.7320 0.0768
C12 C 0.8457(4) 0.6692(2) 0.4918(2)
H9 H 0.9170 0.6902 0.5264
C13 C 0.1368(3) 0.43880(19) 0.19223(19)
H10 H 0.1214 0.4855 0.1710
C14 C 0.2661(4) 0.36012(19) 0.2731(2)
H11 H 0.3407 0.3522 0.3086
C15 C 0.7652(4) 0.6154(2) 0.5134(2)
H12 H 0.7800 0.5999 0.5629
C16 C 0.2719(4) 0.5542(2) 0.0269(2)
H13 H 0.2539 0.5188 -0.0159
C17 C 0.2519(4) 0.6293(2) 0.0192(2)
H14 H 0.2218 0.6462 -0.0286
C18 C 0.1761(4) 0.3023(2) 0.2522(3)
H15 H 0.1897 0.2551 0.2727
C19 C 0.0461(4) 0.3801(2) 0.1720(2)
H16 H -0.0302 0.3871 0.1374
C20 C 0.0669(4) 0.3131(2) 0.2018(2)
H17 H 0.0050 0.2731 0.1875
N3 N 0.6462(2) 0.10161(13) 0.27112(13)
N4 N 0.7290(2) 0.05514(13) 0.22965(13)
C21 C 0.6395(3) 0.07265(16) 0.33392(16)
C22 C 0.5564(3) 0.10741(16) 0.38626(16)
C23 C 0.8723(3) -0.06955(16) 0.24361(17)
C24 C 0.7401(3) 0.08077(17) 0.15804(17)
C25 C 0.7200(3) 0.00367(16) 0.34448(16)
H18 H 0.6653 -0.0402 0.3510
H19 H 0.7895 0.0119 0.3882
C26 C 0.5631(3) 0.08409(19) 0.45858(18)
H20 H 0.6235 0.0465 0.4741
C27 C 0.7590(4) 0.15522(18) 0.1501(2)
H21 H 0.7669 0.1909 0.1928
C28 C 0.4660(3) 0.16355(17) 0.36557(18)
H22 H 0.4593 0.1805 0.3167
C29 C 0.7341(4) 0.02874(18) 0.09545(19)
H23 H 0.7220 -0.0233 0.1004
C30 C 0.9613(3) -0.06300(19) 0.19331(19)
H24 H 0.9683 -0.0164 0.1722
B2 B 0.7793(3) -0.00723(19) 0.26863(19)
C31 C 0.3949(4) 0.1705(2) 0.4871(2)
H25 H 0.3405 0.1921 0.5212
C32 C 0.7666(4) 0.1787(2) 0.0800(2)
H26 H 0.7764 0.2309 0.0749
C33 C 0.3871(3) 0.19411(19) 0.4157(2)
H27 H 0.3266 0.2319 0.4008
C34 C 0.8709(4) -0.13906(19) 0.2739(2)
H28 H 0.8141 -0.1460 0.3099
C35 C 0.7459(4) 0.0531(2) 0.0259(2)
H29 H 0.7440 0.0174 -0.0165
C36 C 0.4821(4) 0.1155(2) 0.5082(2)
H30 H 0.4872 0.0987 0.5571
C37 C 0.7604(4) 0.1286(2) 0.0175(2)
H31 H 0.7659 0.1455 -0.0304
C38 C 0.9489(5) -0.1981(2) 0.2537(3)
H32 H 0.9437 -0.2448 0.2748
C39 C 1.0336(4) -0.1895(2) 0.2032(2)
H33 H 1.0874 -0.2299 0.1892
C40 C 1.0399(4) -0.1219(2) 0.1730(2)
H34 H 1.0985 -0.1154 0.1380
N5 N 0.1385(2) 0.10659(13) 0.26863(13)
N6 N 0.2282(2) 0.06553(13) 0.22727(13)
C41 C 0.1361(3) 0.07542(16) 0.33076(17)
C42 C 0.2387(3) 0.09549(16) 0.15766(16)
C43 C 0.0535(3) 0.10774(16) 0.38609(17)
C44 C 0.3751(3) -0.06011(17) 0.23874(17)
C45 C 0.0673(3) 0.08368(19) 0.45817(18)
H35 H 0.1294 0.0462 0.4716
C46 C 0.2618(4) 0.1544(2) 0.0216(2)
H36 H 0.2687 0.1719 -0.0260
C47 C 0.2226(3) 0.00823(16) 0.33988(16)
H37 H 0.1715 -0.0377 0.3444
H38 H 0.2907 0.0168 0.3843
C48 C -0.0385(3) 0.16329(18) 0.3674(2)
H39 H -0.0492 0.1806 0.3186
C49 C 0.1307(4) 0.11088(19) 0.1085(2)
H40 H 0.0464 0.1010 0.1208
C50 C 0.4003(4) -0.12020(19) 0.2824(2)
H41 H 0.3616 -0.1202 0.3271
C51 C 0.1417(4) 0.1407(2) 0.0410(2)
H42 H 0.0651 0.1516 0.0082
C52 C 0.3735(4) 0.1429(2) 0.0712(2)
H43 H 0.4572 0.1549 0.0592
B3 B 0.2840(3) 0.0027(2) 0.2643(2)
C53 C -0.0996(4) 0.1684(2) 0.4918(2)
H44 H -0.1520 0.1891 0.5275
C54 C -0.0089(4) 0.1140(2) 0.5108(2)
H45 H 0.0015 0.0972 0.5598
C55 C -0.1135(3) 0.1928(2) 0.4202(2)
H46 H -0.1756 0.2303 0.4073
C56 C 0.4346(4) -0.06447(19) 0.1742(2)
H47 H 0.4223 -0.0249 0.1420
C57 C 0.5343(4) -0.1827(2) 0.2004(2)
H48 H 0.5876 -0.2236 0.1873
C58 C 0.4787(4) -0.1802(2) 0.2646(3)
H49 H 0.4936 -0.2195 0.2970
C59 C 0.5119(4) -0.1252(2) 0.1554(2)
H50 H 0.5496 -0.1265 0.1103
C60 C 0.3615(4) 0.11380(18) 0.1386(2)
H51 H 0.4380 0.1060 0.1728
N7 N 0.8828(2) 0.56539(13) 0.22663(13)
N8 N 0.9933(2) 0.60667(13) 0.26733(14)
C61 C 1.0284(3) 0.57614(16) 0.32973(16)
C62 C 1.1386(3) 0.60855(16) 0.38358(16)
C63 C 0.8363(3) 0.59440(17) 0.15596(17)
C64 C 0.7437(3) 0.43947(16) 0.23940(17)
C65 C 0.9478(3) 0.50912(16) 0.33970(16)
H52 H 0.9026 0.5177 0.3845
H53 H 1.0016 0.4634 0.3441
C66 C 0.7060(4) 0.61274(18) 0.1385(2)
H54 H 0.6469 0.6061 0.1732
C67 C 1.1664(3) 0.58381(19) 0.45487(18)
H55 H 1.1137 0.5454 0.4691
C68 C 1.2196(3) 0.66532(18) 0.36400(19)
H56 H 1.2032 0.6829 0.3154
C69 C 0.7463(4) 0.6526(2) 0.0202(2)
H57 H 0.7149 0.6700 -0.0272
C70 C 0.9218(4) 0.60937(19) 0.1065(2)
H58 H 1.0121 0.5993 0.1188
C71 C 0.7423(4) 0.3795(2) 0.2836(2)
H59 H 0.8037 0.3799 0.3281
B4 B 0.8473(4) 0.5029(2) 0.26452(19)
C72 C 0.6615(4) 0.64100(19) 0.0696(2)
H60 H 0.5717 0.6522 0.0572
C73 C 1.3478(4) 0.6702(2) 0.4860(2)
H61 H 1.4186 0.6913 0.5210
C74 C 1.3227(3) 0.6955(2) 0.4153(2)
H62 H 1.3765 0.7338 0.4018
C75 C 0.8769(4) 0.6390(2) 0.0391(2)
H63 H 0.9366 0.6498 0.0060
C76 C 0.5686(4) 0.3154(2) 0.2018(2)
H64 H 0.5104 0.2735 0.1888
C77 C 0.6514(3) 0.43402(19) 0.1742(2)
H65 H 0.6472 0.4732 0.1415
C78 C 0.6558(4) 0.3191(2) 0.2660(2)
H66 H 0.6574 0.2802 0.2988
C79 C 1.2713(4) 0.6149(2) 0.5062(2)
H67 H 1.2893 0.5975 0.5548
C80 C 0.5661(4) 0.3729(2) 0.1562(2)
H68 H 0.5049 0.3711 0.1116
loop_
_geom_bond_atom_site_label_1
_geom_bond_atom_site_label_2
_geom_bond_site_symmetry_1
_geom_bond_site_symmetry_2
N1 N2 1_555 1_555
N2 C3 1_555 1_555
C1 N1 1_555 1_555
C2 C1 1_555 1_555
C3 C6 1_555 1_555
C4 C1 1_555 1_555
H1 C4 1_555 1_555
H2 C4 1_555 1_555
C5 C2 1_555 1_555
H3 C5 1_555 1_555
C6 H4 1_555 1_555
C7 B1 1_555 1_555
C8 C2 1_555 1_555
H5 C8 1_555 1_555
B1 N2 1_555 1_555
C9 C3 1_555 1_555
H6 C9 1_555 1_555
C10 C8 1_555 1_555
H7 C10 1_555 1_555
C11 C6 1_555 1_555
H8 C11 1_555 1_555
C12 C10 1_555 1_555
H9 C12 1_555 1_555
C13 C7 1_555 1_555
H10 C13 1_555 1_555
C14 C7 1_555 1_555
H11 C14 1_555 1_555
C15 C5 1_555 1_555
H12 C15 1_555 1_555
C16 C9 1_555 1_555
H13 C16 1_555 1_555
C17 C11 1_555 1_555
H14 C17 1_555 1_555
C18 C14 1_555 1_555
H15 C18 1_555 1_555
C19 C13 1_555 1_555
H16 C19 1_555 1_555
C20 C18 1_555 1_555
H17 C20 1_555 1_555
N3 N4 1_555 1_555
N4 C24 1_555 1_555
C21 N3 1_555 1_555
C22 C21 1_555 1_555
C23 C30 1_555 1_555
C24 C27 1_555 1_555
C25 C21 1_555 1_555
H18 C25 1_555 1_555
H19 C25 1_555 1_555
C26 C22 1_555 1_555
H20 C26 1_555 1_555
C27 H21 1_555 1_555
C28 C22 1_555 1_555
H22 C28 1_555 1_555
C29 C24 1_555 1_555
H23 C29 1_555 1_555
C30 H24 1_555 1_555
B2 N4 1_555 1_555
C31 H25 1_555 1_555
C32 C27 1_555 1_555
H26 C32 1_555 1_555
C33 C28 1_555 1_555
H27 C33 1_555 1_555
C34 C23 1_555 1_555
H28 C34 1_555 1_555
C35 C29 1_555 1_555
H29 C35 1_555 1_555
C36 C26 1_555 1_555
H30 C36 1_555 1_555
C37 C32 1_555 1_555
H31 C37 1_555 1_555
C38 C34 1_555 1_555
H32 C38 1_555 1_555
C39 C38 1_555 1_555
H33 C39 1_555 1_555
C40 C30 1_555 1_555
H34 C40 1_555 1_555
N5 N6 1_555 1_555
N6 C42 1_555 1_555
C41 N5 1_555 1_555
C42 C49 1_555 1_555
C43 C41 1_555 1_555
C44 C50 1_555 1_555
C45 C43 1_555 1_555
H35 C45 1_555 1_555
C46 H36 1_555 1_555
C47 C41 1_555 1_555
H37 C47 1_555 1_555
H38 C47 1_555 1_555
C48 C43 1_555 1_555
H39 C48 1_555 1_555
C49 H40 1_555 1_555
C50 H41 1_555 1_555
C51 C46 1_555 1_555
H42 C51 1_555 1_555
C52 C46 1_555 1_555
H43 C52 1_555 1_555
B3 N6 1_555 1_555
C53 H44 1_555 1_555
C54 C45 1_555 1_555
H45 C54 1_555 1_555
C55 C48 1_555 1_555
H46 C55 1_555 1_555
C56 C44 1_555 1_555
H47 C56 1_555 1_555
C57 H48 1_555 1_555
C58 C50 1_555 1_555
H49 C58 1_555 1_555
C59 C56 1_555 1_555
H50 C59 1_555 1_555
C60 C42 1_555 1_555
H51 C60 1_555 1_555
N7 N8 1_555 1_555
N8 C61 1_555 1_555
C61 C62 1_555 1_555
C62 C67 1_555 1_555
C63 N7 1_555 1_555
C64 C71 1_555 1_555
C65 C61 1_555 1_555
H52 C65 1_555 1_555
H53 C65 1_555 1_555
C66 C63 1_555 1_555
H54 C66 1_555 1_555
C67 H55 1_555 1_555
C68 C62 1_555 1_555
H56 C68 1_555 1_555
C69 H57 1_555 1_555
C70 C63 1_555 1_555
H58 C70 1_555 1_555
C71 H59 1_555 1_555
B4 N7 1_555 1_555
C72 C66 1_555 1_555
H60 C72 1_555 1_555
C73 H61 1_555 1_555
C74 C68 1_555 1_555
H62 C74 1_555 1_555
C75 C69 1_555 1_555
H63 C75 1_555 1_555
C76 H64 1_555 1_555
C77 C64 1_555 1_555
H65 C77 1_555 1_555
C78 C71 1_555 1_555
H66 C78 1_555 1_555
C79 C67 1_555 1_555
H67 C79 1_555 1_555
C80 C76 1_555 1_555
H68 C80 1_555 1_555
C4 B1 1_555 1_555
C12 C15 1_555 1_555
C16 C17 1_555 1_555
C19 C20 1_555 1_555
C23 B2 1_555 1_555
C25 B2 1_555 1_555
C31 C33 1_555 1_555
C31 C36 1_555 1_555
C35 C37 1_555 1_555
C39 C40 1_555 1_555
C44 B3 1_555 1_555
C47 B3 1_555 1_555
C49 C51 1_555 1_555
C52 C60 1_555 1_555
C53 C54 1_555 1_555
C53 C55 1_555 1_555
C57 C58 1_555 1_555
C57 C59 1_555 1_555
C64 B4 1_555 1_555
C65 B4 1_555 1_555
C69 C72 1_555 1_555
C70 C75 1_555 1_555
C73 C74 1_555 1_555
C73 C79 1_555 1_555
C76 C78 1_555 1_555
C77 C80 1_555 1_555

#END
