
#######################################################################
#
#                 Cambridge Crystallographic Data Centre
#                                CCDC 
#
#######################################################################
#
# If this CIF has been generated from an entry in the Cambridge 
# Structural Database, then it will include bibliographic, chemical, 
# crystal, experimental, refinement or atomic coordinate data resulting 
# from the CCDC's data processing and validation procedures.
#
#######################################################################

data_COXWAN
_chemical_compound_source        'Leaves of Panax notoginseng(Burk.)F.H.Chen'
_chemical_formula_moiety         'C30 H50 O2'
_chemical_name_systematic        
20(R),25(S)-(12,25)-Epoxy-(20,26)-cyclo-dammaran-3\b,12\b,25-triol
_symmetry_cell_setting           orthorhombic
_symmetry_space_group_name_H-M   'P 21 21 21'
_symmetry_Int_Tables_number      19
_space_group_name_Hall           'P 2ac 2ab'
loop_
_symmetry_equiv_pos_site_id
_symmetry_equiv_pos_as_xyz
1 x,y,z
2 1/2+x,1/2-y,-z
3 -x,1/2+y,1/2-z
4 1/2-x,-y,1/2+z
_cell_length_a                   8.296(4)
_cell_length_b                   11.439(2)
_cell_length_c                   27.419(5)
_cell_angle_alpha                90
_cell_angle_beta                 90
_cell_angle_gamma                90
_cell_volume                     2602.01
_cell_formula_units_Z            4
loop_
_atom_site_label
_atom_site_type_symbol
_atom_site_fract_x
_atom_site_fract_y
_atom_site_fract_z
C1 C -0.02906(71) 0.61740(60) 0.75073(25)
H1 H -0.05809(71) 0.69558(60) 0.77099(25)
H2 H -0.07380(71) 0.54184(60) 0.77009(25)
C2 C -0.11305(79) 0.62303(72) 0.70111(26)
H3 H -0.24099(79) 0.63456(72) 0.70659(26)
H4 H -0.09183(79) 0.54247(72) 0.68160(26)
C3 C -0.04982(80) 0.72441(60) 0.67106(24)
H5 H -0.06405(80) 0.80413(60) 0.69171(24)
O1 O -0.14063(65) 0.73202(51) 0.62692(19)
C4 C 0.13292(82) 0.71521(55) 0.66152(21)
C5 C 0.21671(69) 0.70568(50) 0.71190(19)
H6 H 0.17775(69) 0.78607(50) 0.72886(19)
C6 C 0.39911(73) 0.70758(55) 0.70989(22)
H7 H 0.44257(73) 0.62292(55) 0.69845(22)
H8 H 0.43759(73) 0.77314(55) 0.68405(22)
C7 C 0.46963(75) 0.73582(54) 0.76018(22)
H9 H 0.59960(75) 0.73540(54) 0.75792(22)
H10 H 0.42867(75) 0.82189(54) 0.77058(22)
C8 C 0.41760(65) 0.64921(47) 0.80023(21)
C9 C 0.23054(66) 0.63492(47) 0.79825(18)
H11 H 0.18360(66) 0.72110(47) 0.80579(18)
C10 C 0.15621(66) 0.60671(44) 0.74706(21)
C11 C 0.17100(69) 0.55258(51) 0.83876(19)
H12 H 0.20986(69) 0.46525(51) 0.82946(19)
H13 H 0.04101(69) 0.55592(51) 0.83926(19)
C12 C 0.23141(66) 0.57803(46) 0.89059(18)
H14 H 0.17808(66) 0.65467(46) 0.90699(18)
O2 O 0.19233(48) 0.47274(32) 0.91641(13)
C13 C 0.41168(62) 0.60222(47) 0.89044(20)
H15 H 0.44978(62) 0.51368(47) 0.88308(20)
C14 C 0.46013(72) 0.69542(46) 0.85231(22)
C15 C 0.64345(83) 0.70838(65) 0.86361(26)
H16 H 0.68001(83) 0.79829(65) 0.85891(26)
H17 H 0.71365(83) 0.65315(65) 0.83974(26)
C16 C 0.66602(87) 0.67098(69) 0.91716(24)
H18 H 0.71959(87) 0.74091(69) 0.93808(24)
H19 H 0.74191(87) 0.59443(69) 0.91919(24)
C17 C 0.49694(73) 0.64348(52) 0.93646(22)
H20 H 0.43939(73) 0.71830(52) 0.95301(22)
C18 C 0.19621(41) 0.48151(26) 0.72896(11)
H21 H 0.32204(41) 0.47325(26) 0.71947(11)
H22 H 0.12287(41) 0.46062(26) 0.69761(11)
H23 H 0.16812(41) 0.42208(26) 0.75836(11)
C19 C 0.50727(38) 0.53224(28) 0.79003(12)
H24 H 0.45302(38) 0.46671(28) 0.81315(12)
H25 H 0.63413(38) 0.53922(28) 0.79836(12)
H26 H 0.49238(38) 0.50755(28) 0.75228(12)
C20 C 0.48208(38) 0.56527(26) 0.98276(11)
C21 C 0.56626(49) 0.63101(34) 1.02476(14)
H27 H 0.51652(49) 0.71767(34) 1.02895(14)
H28 H 0.69178(49) 0.63743(34) 1.01466(14)
H29 H 0.55571(49) 0.58407(34) 1.05878(14)
C22 C 0.55866(41) 0.44237(28) 0.97935(13)
H30 H 0.58742(41) 0.41365(28) 1.01584(13)
H31 H 0.66832(41) 0.45069(28) 0.95840(13)
C23 C 0.45748(43) 0.34721(27) 0.95532(12)
H32 H 0.51450(43) 0.26338(27) 0.96087(12)
H33 H 0.44890(43) 0.36491(27) 0.91672(12)
C24 C 0.28805(40) 0.34366(26) 0.97662(12)
H34 H 0.21920(40) 0.27607(26) 0.95866(12)
H35 H 0.29574(40) 0.32470(26) 1.01513(12)
C25 C 0.20410(36) 0.46176(25) 0.96912(10)
C26 C 0.30211(39) 0.55609(26) 0.99526(10)
H36 H 0.24724(39) 0.63954(26) 0.98728(10)
H37 H 0.29336(39) 0.53868(26) 1.03388(10)
C27 C 0.03213(41) 0.46203(35) 0.98897(14)
H38 H 0.03152(41) 0.44661(35) 1.02783(14)
H39 H -0.02718(41) 0.39039(35) 0.97063(14)
H40 H -0.03088(41) 0.54248(35) 0.98113(14)
C28 C 0.18553(52) 0.83177(33) 0.63730(13)
H41 H 0.31160(52) 0.83379(33) 0.62752(13)
H42 H 0.16063(52) 0.90043(33) 0.66326(13)
H43 H 0.11300(52) 0.84476(33) 0.60504(13)
C29 C 0.17268(53) 0.61624(35) 0.62544(12)
H44 H 0.13702(53) 0.53460(35) 0.64202(12)
H45 H 0.30056(53) 0.61468(35) 0.61810(12)
H46 H 0.10762(53) 0.62819(35) 0.59169(12)
C30 C 0.38028(50) 0.81548(26) 0.86380(13)
H47 H 0.25119(50) 0.81472(26) 0.85872(13)
H48 H 0.43354(50) 0.88007(26) 0.84001(13)
H49 H 0.40769(50) 0.83687(26) 0.90126(13)
loop_
_geom_bond_atom_site_label_1
_geom_bond_atom_site_label_2
_geom_bond_site_symmetry_1
_geom_bond_site_symmetry_2
C1 H1 1_555 1_555
H2 C1 1_555 1_555
C2 C1 1_555 1_555
H3 C2 1_555 1_555
H4 C2 1_555 1_555
C3 C2 1_555 1_555
H5 C3 1_555 1_555
O1 C3 1_555 1_555
C4 C3 1_555 1_555
C5 C4 1_555 1_555
H6 C5 1_555 1_555
C6 C5 1_555 1_555
H7 C6 1_555 1_555
H8 C6 1_555 1_555
C7 C6 1_555 1_555
H9 C7 1_555 1_555
H10 C7 1_555 1_555
C8 C7 1_555 1_555
C9 C8 1_555 1_555
H11 C9 1_555 1_555
C10 C1 1_555 1_555
C11 C9 1_555 1_555
H12 C11 1_555 1_555
H13 C11 1_555 1_555
C12 C11 1_555 1_555
H14 C12 1_555 1_555
O2 C12 1_555 1_555
C13 C12 1_555 1_555
H15 C13 1_555 1_555
C14 C8 1_555 1_555
C15 C14 1_555 1_555
H16 C15 1_555 1_555
H17 C15 1_555 1_555
C16 C15 1_555 1_555
H18 C16 1_555 1_555
H19 C16 1_555 1_555
C17 C13 1_555 1_555
H20 C17 1_555 1_555
C18 C10 1_555 1_555
H21 C18 1_555 1_555
H22 C18 1_555 1_555
H23 C18 1_555 1_555
C19 C8 1_555 1_555
H24 C19 1_555 1_555
H25 C19 1_555 1_555
H26 C19 1_555 1_555
C20 C17 1_555 1_555
C21 C20 1_555 1_555
H27 C21 1_555 1_555
H28 C21 1_555 1_555
H29 C21 1_555 1_555
C22 C20 1_555 1_555
H30 C22 1_555 1_555
H31 C22 1_555 1_555
C23 C22 1_555 1_555
H32 C23 1_555 1_555
H33 C23 1_555 1_555
C24 C23 1_555 1_555
H34 C24 1_555 1_555
H35 C24 1_555 1_555
C25 O2 1_555 1_555
C26 C20 1_555 1_555
H36 C26 1_555 1_555
H37 C26 1_555 1_555
C27 C25 1_555 1_555
H38 C27 1_555 1_555
H39 C27 1_555 1_555
H40 C27 1_555 1_555
C28 C4 1_555 1_555
H41 C28 1_555 1_555
H42 C28 1_555 1_555
H43 C28 1_555 1_555
C29 C4 1_555 1_555
H44 C29 1_555 1_555
H45 C29 1_555 1_555
H46 C29 1_555 1_555
C30 C14 1_555 1_555
H47 C30 1_555 1_555
H48 C30 1_555 1_555
H49 C30 1_555 1_555
C5 C10 1_555 1_555
C9 C10 1_555 1_555
C13 C14 1_555 1_555
C16 C17 1_555 1_555
C24 C25 1_555 1_555
C25 C26 1_555 1_555

#END
