
#######################################################################
#
#                 Cambridge Crystallographic Data Centre
#                                CCDC 
#
#######################################################################
#
# If this CIF has been generated from an entry in the Cambridge 
# Structural Database, then it will include bibliographic, chemical, 
# crystal, experimental, refinement or atomic coordinate data resulting 
# from the CCDC's data processing and validation procedures.
#
#######################################################################

data_COXXAQ
_chemical_name_common            'Rubialatin B'
_chemical_formula_moiety         'C27 H20 O7'
_chemical_name_systematic        
'12-(5,5-dimethylfuran-2(5H)-ylidene)-6-hydroxy-5,13-dioxo-12,13-dihydro-5H-benzo[4,5]cyclohepta[1,2-b]naphthalen-11-yl methyl carbonate'
_symmetry_cell_setting           orthorhombic
_symmetry_space_group_name_H-M   'P c a 21'
_symmetry_Int_Tables_number      29
_space_group_name_Hall           'P 2c -2ac'
loop_
_symmetry_equiv_pos_site_id
_symmetry_equiv_pos_as_xyz
1 x,y,z
2 -x,-y,1/2+z
3 1/2-x,y,1/2+z
4 1/2+x,-y,z
_cell_length_a                   16.9537(3)
_cell_length_b                   8.6396(2)
_cell_length_c                   29.8296(5)
_cell_angle_alpha                90
_cell_angle_beta                 90
_cell_angle_gamma                90
_cell_volume                     4369.24
_exptl_crystal_colour            yellow
_exptl_crystal_description       block
_cell_formula_units_Z            8
loop_
_atom_site_label
_atom_site_type_symbol
_atom_site_fract_x
_atom_site_fract_y
_atom_site_fract_z
O1 O 0.83785(19) 1.3016(4) 0.45572(11)
O2 O 0.80601(18) 1.1483(3) 0.40281(10)
O3 O 0.92971(16) 0.9304(3) 0.41354(10)
O4 O 0.71624(16) 0.4810(3) 0.39261(11)
O5 O 0.79685(18) 0.8599(4) 0.52919(10)
O6 O 0.6781(2) 0.6351(4) 0.31964(12)
H1 H 0.6793 0.5567 0.3363
O7 O 0.72672(17) 1.1633(3) 0.46428(10)
C1 C 0.8254(3) 1.3648(6) 0.49993(18)
H2 H 0.7731 1.4127 0.5014
H3 H 0.8659 1.4428 0.5062
H4 H 0.8289 1.2816 0.5222
C2 C 0.7835(2) 1.2000(5) 0.44293(14)
C3 C 0.7675(2) 1.0170(5) 0.38521(14)
C4 C 0.7696(2) 0.8803(5) 0.40741(14)
C5 C 0.8128(2) 0.8599(5) 0.45026(14)
C6 C 0.8924(2) 0.8887(4) 0.45118(14)
C7 C 1.0139(2) 0.9587(6) 0.42332(15)
C8 C 1.0614(3) 0.8506(6) 0.39404(17)
H5 H 1.0389 0.7463 0.3957
H6 H 1.1162 0.8483 0.4045
H7 H 1.0598 0.8872 0.3630
C9 C 0.7345(2) 0.7471(4) 0.38581(14)
C10 C 0.7161(2) 0.6051(5) 0.41110(16)
C11 C 0.6798(3) 0.6195(5) 0.45632(16)
C12 C 0.6982(2) 0.7256(5) 0.49021(15)
C13 C 0.7728(2) 0.8215(5) 0.49188(15)
C14 C 1.0198(3) 0.9183(6) 0.47176(16)
H8 H 1.0671 0.9212 0.4888
C15 C 0.9489(3) 0.8773(5) 0.48810(16)
H9 H 0.9376 0.8467 0.5180
C16 C 1.0310(3) 1.1277(7) 0.4123(2)
H10 H 1.0207 1.1464 0.3804
H11 H 1.0864 1.1508 0.4190
H12 H 0.9969 1.1945 0.4304
C17 C 0.6502(3) 0.7334(5) 0.52864(15)
H13 H 0.6631 0.8041 0.5519
C18 C 0.5841(3) 0.6388(5) 0.53299(16)
H14 H 0.5512 0.6478 0.5586
C19 C 0.5663(2) 0.5311(6) 0.49986(16)
H15 H 0.5219 0.4649 0.5031
C20 C 0.6136(2) 0.5209(5) 0.46202(15)
H16 H 0.6015 0.4466 0.4396
C21 C 0.7073(2) 0.7574(5) 0.34190(14)
C22 C 0.7022(2) 0.9030(5) 0.32013(15)
C23 C 0.6625(3) 0.9180(6) 0.27877(15)
H17 H 0.6418 0.8294 0.2640
C24 C 0.6540(3) 1.0649(6) 0.25990(18)
H18 H 0.6267 1.0765 0.2323
C25 C 0.6856(3) 1.1957(6) 0.28129(16)
H19 H 0.6794 1.2948 0.2680
C26 C 0.7254(3) 1.1824(6) 0.32113(17)
H20 H 0.7478 1.2714 0.3348
C27 C 0.7330(2) 1.0341(5) 0.34204(13)
O8 O 0.67969(16) 0.5778(4) 0.19588(10)
O9 O 0.58351(18) 0.2052(4) 0.15246(10)
O10 O 0.47105(17) 0.3457(3) 0.14544(10)
O11 O 0.55177(17) 0.3568(3) 0.20633(10)
O12 O 0.46117(18) 1.0277(4) 0.21605(12)
O13 O 0.54906(18) 0.6496(4) 0.07984(11)
O14 O 0.4345(2) 0.8781(4) 0.28985(12)
H21 H 0.4443 0.9590 0.2752
C28 C 0.8024(3) 0.6872(7) 0.22087(16)
H22 H 0.7759 0.7876 0.2183
H23 H 0.8586 0.6994 0.2139
H24 H 0.7966 0.6480 0.2515
C29 C 0.7657(2) 0.5739(5) 0.18833(14)
C30 C 0.6420(2) 0.6220(5) 0.15833(13)
C31 C 0.5615(3) 0.6451(5) 0.15843(14)
C32 C 0.5190(2) 0.6280(5) 0.20173(14)
C33 C 0.51646(18) 0.4910(5) 0.22369(13)
C34 C 0.4809(2) 0.4748(5) 0.26713(14)
C35 C 0.4538(2) 0.6114(5) 0.28946(14)
C36 C 0.4186(2) 0.5939(6) 0.33260(17)
H25 H 0.4030 0.6826 0.3492
C37 C 0.4076(3) 0.4524(7) 0.34971(15)
H26 H 0.3825 0.4434 0.3780
C38 C 0.5706(3) 0.1428(6) 0.10757(17)
H27 H 0.5151 0.1131 0.1043
H28 H 0.6041 0.0518 0.1031
H29 H 0.5838 0.2217 0.0852
C39 C 0.5288(2) 0.3076(5) 0.16548(14)
C40 C 0.4851(2) 0.7614(5) 0.22254(15)
C41 C 0.4636(2) 0.9005(5) 0.19760(14)
C42 C 0.4254(2) 0.8820(5) 0.15222(15)
C43 C 0.4473(2) 0.7770(5) 0.11808(14)
C44 C 0.3994(2) 0.7685(5) 0.08023(15)
H30 H 0.4139 0.6997 0.0568
C45 C 0.3316(3) 0.8562(6) 0.07536(17)
H31 H 0.2994 0.8451 0.0495
C46 C 0.3108(3) 0.9625(6) 0.10937(17)
H32 H 0.2646 1.0238 0.1065
C47 C 0.3579(2) 0.9767(5) 0.14666(16)
H33 H 0.3451 1.0509 0.1690
C48 C 0.5224(2) 0.6851(5) 0.11672(15)
C49 C 0.7708(2) 0.6219(5) 0.14003(15)
H34 H 0.8187 0.6316 0.1238
C50 C 0.7006(3) 0.6487(5) 0.12306(15)
H35 H 0.6897 0.6799 0.0931
C51 C 0.7929(3) 0.4085(6) 0.19472(17)
H36 H 0.7823 0.3759 0.2256
H37 H 0.8496 0.4016 0.1887
H38 H 0.7643 0.3408 0.1739
C52 C 0.4590(2) 0.7546(5) 0.26661(16)
C53 C 0.4315(3) 0.3169(6) 0.32785(16)
H39 H 0.4216 0.2182 0.3407
C54 C 0.4695(2) 0.3300(5) 0.28749(14)
H40 H 0.4885 0.2394 0.2730
loop_
_geom_bond_atom_site_label_1
_geom_bond_atom_site_label_2
_geom_bond_site_symmetry_1
_geom_bond_site_symmetry_2
O1 C1 1_555 1_555
O2 C2 1_555 1_555
O3 C6 1_555 1_555
O4 C10 1_555 1_555
O5 C13 1_555 1_555
O6 H1 1_555 1_555
O7 C2 1_555 1_555
C1 H2 1_555 1_555
H3 C1 1_555 1_555
H4 C1 1_555 1_555
C2 O1 1_555 1_555
C3 O2 1_555 1_555
C4 C3 1_555 1_555
C5 C4 1_555 1_555
C6 C5 1_555 1_555
C7 O3 1_555 1_555
C8 C7 1_555 1_555
H5 C8 1_555 1_555
H6 C8 1_555 1_555
H7 C8 1_555 1_555
C9 C4 1_555 1_555
C10 C9 1_555 1_555
C11 C10 1_555 1_555
C12 C11 1_555 1_555
C13 C5 1_555 1_555
C14 C7 1_555 1_555
H8 C14 1_555 1_555
C15 C6 1_555 1_555
H9 C15 1_555 1_555
C16 C7 1_555 1_555
H10 C16 1_555 1_555
H11 C16 1_555 1_555
H12 C16 1_555 1_555
C17 C12 1_555 1_555
H13 C17 1_555 1_555
C18 C17 1_555 1_555
H14 C18 1_555 1_555
C19 C18 1_555 1_555
H15 C19 1_555 1_555
C20 C11 1_555 1_555
H16 C20 1_555 1_555
C21 O6 1_555 1_555
C22 C21 1_555 1_555
C23 C22 1_555 1_555
H17 C23 1_555 1_555
C24 C23 1_555 1_555
H18 C24 1_555 1_555
C25 C24 1_555 1_555
H19 C25 1_555 1_555
C26 C25 1_555 1_555
H20 C26 1_555 1_555
C27 C3 1_555 1_555
O8 C29 1_555 1_555
O9 C38 1_555 1_555
O10 C39 1_555 1_555
O11 C33 1_555 1_555
O12 C41 1_555 1_555
O13 C48 1_555 1_555
O14 H21 1_555 1_555
C28 H22 1_555 1_555
H23 C28 1_555 1_555
H24 C28 1_555 1_555
C29 C28 1_555 1_555
C30 O8 1_555 1_555
C31 C30 1_555 1_555
C32 C31 1_555 1_555
C33 C32 1_555 1_555
C34 C33 1_555 1_555
C35 C34 1_555 1_555
C36 C35 1_555 1_555
H25 C36 1_555 1_555
C37 C36 1_555 1_555
H26 C37 1_555 1_555
C38 H27 1_555 1_555
H28 C38 1_555 1_555
H29 C38 1_555 1_555
C39 O9 1_555 1_555
C40 C32 1_555 1_555
C41 C40 1_555 1_555
C42 C41 1_555 1_555
C43 C42 1_555 1_555
C44 C43 1_555 1_555
H30 C44 1_555 1_555
C45 C44 1_555 1_555
H31 C45 1_555 1_555
C46 C45 1_555 1_555
H32 C46 1_555 1_555
C47 C42 1_555 1_555
H33 C47 1_555 1_555
C48 C31 1_555 1_555
C49 C29 1_555 1_555
H34 C49 1_555 1_555
C50 C30 1_555 1_555
H35 C50 1_555 1_555
C51 C29 1_555 1_555
H36 C51 1_555 1_555
H37 C51 1_555 1_555
H38 C51 1_555 1_555
C52 O14 1_555 1_555
C53 C37 1_555 1_555
H39 C53 1_555 1_555
C54 C34 1_555 1_555
H40 C54 1_555 1_555
C9 C21 1_555 1_555
C12 C13 1_555 1_555
C14 C15 1_555 1_555
C19 C20 1_555 1_555
C22 C27 1_555 1_555
C26 C27 1_555 1_555
O11 C39 1_555 1_555
C35 C52 1_555 1_555
C40 C52 1_555 1_555
C43 C48 1_555 1_555
C46 C47 1_555 1_555
C49 C50 1_555 1_555
C53 C54 1_555 1_555

#END
