
#######################################################################
#
#                 Cambridge Crystallographic Data Centre
#                                CCDC 
#
#######################################################################
#
# If this CIF has been generated from an entry in the Cambridge 
# Structural Database, then it will include bibliographic, chemical, 
# crystal, experimental, refinement or atomic coordinate data resulting 
# from the CCDC's data processing and validation procedures.
#
#######################################################################

data_COYBAV
_chemical_name_common            'Thiamine monophosphate nitrate hydrate'
_chemical_formula_moiety         'C12 H18 N4 O4 P1 S1 1+,N1 O3 1-,2.5(H2 O1)'
_chemical_name_systematic        
'3-((4-Amino-2-methylpyrimidin-5-yl)methyl)-4-methyl-5-(2-(phosphonooxy)ethyl)-1,3-thiazol-3-ium nitrate hydrate'
_symmetry_cell_setting           monoclinic
_symmetry_space_group_name_H-M   'C 2/c'
_symmetry_Int_Tables_number      15
_space_group_name_Hall           '-C 2yn'
loop_
_symmetry_equiv_pos_site_id
_symmetry_equiv_pos_as_xyz
1 x,y,z
2 -x,y,1/2-z
3 1/2+x,1/2+y,z
4 1/2-x,1/2+y,1/2-z
5 -x,-y,-z
6 x,-y,1/2+z
7 1/2-x,1/2-y,-z
8 1/2+x,1/2-y,1/2+z
_cell_length_a                   25.461(9)
_cell_length_b                   10.483(6)
_cell_length_c                   15.040(6)
_cell_angle_alpha                90
_cell_angle_beta                 111.02(3)
_cell_angle_gamma                90
_cell_volume                     3747.16
_exptl_crystal_colour            colorless
_exptl_crystal_description       block
_cell_formula_units_Z            8
loop_
_atom_site_label
_atom_site_type_symbol
_atom_site_fract_x
_atom_site_fract_y
_atom_site_fract_z
C1 C 0.57986(10) 0.6026(2) 0.63320(17)
C2 C 0.43339(11) 0.9134(3) 0.51553(19)
H1 H 0.4684 0.8924 0.5603
C3 C 0.48515(10) 0.6325(2) 0.59955(17)
C4 C 0.35092(10) 0.8861(3) 0.39013(18)
C5 C 0.47722(10) 0.6695(2) 0.50371(17)
C6 C 0.34545(11) 1.0085(3) 0.41337(19)
C7 C 0.52346(10) 0.6646(2) 0.47887(18)
H2 H 0.5201 0.6853 0.4169
C8 C 0.63690(11) 0.5723(3) 0.7029(2)
H3 H 0.6345 0.5549 0.7640
H4 H 0.6614 0.6438 0.7081
H5 H 0.6516 0.4989 0.6815
C9 C 0.42097(10) 0.7057(2) 0.43246(17)
H6 H 0.4228 0.7031 0.3692
H7 H 0.3933 0.6434 0.4346
C10 C 0.31051(13) 0.8072(3) 0.3136(2)
H8 H 0.2777 0.8570 0.2801
H9 H 0.2997 0.7340 0.3414
H10 H 0.3280 0.7798 0.2700
C11 C 0.29806(12) 1.1002(3) 0.3663(2)
H11 H 0.2751 1.0667 0.3044
H12 H 0.3137 1.1809 0.3562
C12 C 0.26113(12) 1.1234(3) 0.4240(2)
H13 H 0.2839 1.1480 0.4886
H14 H 0.2346 1.1915 0.3957
N1 N 0.57461(9) 0.6300(2) 0.54278(15)
N2 N 0.53706(9) 0.6015(2) 0.66191(15)
N3 N 0.40228(8) 0.8347(2) 0.44944(14)
N4 N 0.44318(9) 0.6262(3) 0.63070(16)
H15 H 0.4492 0.6032 0.6884
H16 H 0.4096 0.6451 0.5934
P1 P 0.19795(3) 0.99373(7) 0.49547(5)
O1 O 0.24298(5) 1.00209(11) 0.59818(8)
H17 H 0.2658 0.9441 0.6061
O2 O 0.16022(8) 1.1067(2) 0.48520(16)
H18 H 0.1444 1.1233 0.4286
O3 O 0.17086(8) 0.8658(2) 0.47539(15)
O4 O 0.23160(8) 1.00705(19) 0.42486(14)
S1 S 0.40276(3) 1.05539(7) 0.50970(5)
N5 N 0.05802(11) 0.5068(3) 0.20784(18)
O5 O 0.09859(5) 0.47538(11) 0.27990(8)
O6 O 0.02495(5) 0.42581(11) 0.15971(8)
O7 O 0.05269(5) 0.61977(11) 0.18317(8)
O8 O 0.17951(5) 0.66956(11) 0.35635(8)
H19 H 0.1782 0.6244 0.4025
H20 H 0.1497 0.7140 0.3343
O9 O 0.59509(5) 0.29395(11) 0.80447(8)
H21 H 0.6238 0.3136 0.8527
H22 H 0.5731 0.2479 0.8221
O10 O 0.50000(5) 0.33992(11) 0.75000(8)
H23 H 0.5291 0.3473 0.8002
H23A H 0.4709 0.3473 0.6998
H24? H 0.4735 0.3070 0.7636
loop_
_geom_bond_atom_site_label_1
_geom_bond_atom_site_label_2
_geom_bond_site_symmetry_1
_geom_bond_site_symmetry_2
C1 C8 1_555 1_555
C2 H1 1_555 1_555
C3 C5 1_555 1_555
C4 C6 1_555 1_555
C5 C7 1_555 1_555
C6 C11 1_555 1_555
C7 H2 1_555 1_555
C8 H3 1_555 1_555
H4 C8 1_555 1_555
H5 C8 1_555 1_555
C9 C5 1_555 1_555
H6 C9 1_555 1_555
H7 C9 1_555 1_555
C10 C4 1_555 1_555
H8 C10 1_555 1_555
H9 C10 1_555 1_555
H10 C10 1_555 1_555
C11 H11 1_555 1_555
H12 C11 1_555 1_555
C12 C11 1_555 1_555
H13 C12 1_555 1_555
H14 C12 1_555 1_555
N1 C1 1_555 1_555
N2 C1 1_555 1_555
N3 C2 1_555 1_555
N4 C3 1_555 1_555
H15 N4 1_555 1_555
H16 N4 1_555 1_555
P1 O1 1_555 1_555
O1 H17 1_555 1_555
O2 P1 1_555 1_555
H18 O2 1_555 1_555
O3 P1 1_555 1_555
O4 C12 1_555 1_555
S1 C2 1_555 1_555
N5 O5 1_555 1_555
O6 N5 1_555 1_555
O7 N5 1_555 1_555
O8 H19 1_555 1_555
H20 O8 1_555 1_555
O9 H21 1_555 1_555
H22 O9 1_555 1_555
O10 H23 1_555 1_555
H23A O10 1_555 1_555
C3 N2 1_555 1_555
C4 N3 1_555 1_555
C6 S1 1_555 1_555
C7 N1 1_555 1_555
C9 N3 1_555 1_555
P1 O4 1_555 1_555

#END
