
#######################################################################
#
#                 Cambridge Crystallographic Data Centre
#                                CCDC 
#
#######################################################################
#
# If this CIF has been generated from an entry in the Cambridge 
# Structural Database, then it will include bibliographic, chemical, 
# crystal, experimental, refinement or atomic coordinate data resulting 
# from the CCDC's data processing and validation procedures.
#
#######################################################################

data_COYHUT10
_chemical_name_common            'Picotamide monohydrate'
_chemical_formula_moiety         'C21 H20 N4 O3,H2 O1'
_chemical_name_systematic        
"4-Methoxy-N,N'-bis(3-pyridylmethyl)isophthalamide monohydrate"
_chemical_properties_biological  'antithrombotic agent'
_symmetry_cell_setting           monoclinic
_symmetry_space_group_name_H-M   'P 21/c'
_symmetry_Int_Tables_number      14
_space_group_name_Hall           '-P 2ybc'
loop_
_symmetry_equiv_pos_site_id
_symmetry_equiv_pos_as_xyz
1 x,y,z
2 -x,1/2+y,1/2-z
3 -x,-y,-z
4 x,1/2-y,1/2+z
_cell_length_a                   6.354(2)
_cell_length_b                   14.043(1)
_cell_length_c                   21.418(3)
_cell_angle_alpha                90
_cell_angle_beta                 92.33(2)
_cell_angle_gamma                90
_cell_volume                     1909.53
_exptl_crystal_colour            colorless
_cell_formula_units_Z            4
loop_
_atom_site_label
_atom_site_type_symbol
_atom_site_fract_x
_atom_site_fract_y
_atom_site_fract_z
C1 C 0.1016(6) 0.0082(3) 0.2326(2)
C2 C 0.2410(6) -0.0434(3) 0.2706(2)
C3 C 0.4253(6) -0.0054(3) 0.2960(2)
C4 C 0.4691(6) 0.0912(3) 0.2838(2)
C5 C 0.3313(7) 0.1436(3) 0.2458(2)
C6 C 0.1474(7) 0.1033(3) 0.2204(2)
C7 C -0.0865(7) -0.0428(3) 0.2062(2)
O1 O -0.1168(5) -0.1282(2) 0.2158(1)
N1 N -0.2242(5) 0.0068(2) 0.1687(2)
C8 C -0.4081(6) -0.0374(3) 0.1392(2)
C9 C -0.3663(6) -0.0793(3) 0.0754(2)
C10 C -0.1684(7) -0.0869(4) 0.0513(2)
C11 C -0.1457(8) -0.1249(4) -0.0072(2)
C12 C -0.3217(9) -0.1549(3) -0.0400(2)
N2 N -0.5152(7) -0.1483(3) -0.0190(2)
C13 C -0.5325(7) -0.1115(3) 0.0387(2)
O2 O 0.6487(4) 0.1284(2) 0.3100(1)
C14 C 0.6974(8) 0.2265(3) 0.3024(3)
C15 C 0.5656(6) -0.0720(3) 0.3339(2)
O3 O 0.5166(5) -0.1567(2) 0.3385(1)
N3 N 0.7408(5) -0.0382(2) 0.3620(1)
C16 C 0.8974(6) -0.0995(3) 0.3932(2)
C17 C 0.8692(6) -0.1121(3) 0.4622(2)
C18 C 0.6753(7) -0.1082(3) 0.4894(2)
C19 C 0.6643(8) -0.1261(4) 0.5528(2)
C20 C 0.8448(9) -0.1453(4) 0.5860(2)
N4 N 1.0367(7) -0.1473(3) 0.5623(2)
C21 C 1.0430(7) -0.1312(3) 0.5011(2)
H1 H 0.2110 -0.1066 0.2783
H2 H 0.3759 0.2016 0.2355
H3 H 0.0388 0.1431 0.1910
H4 H -0.1971 0.0646 0.1609
H5 H -0.5269 0.0121 0.1347
H6 H -0.4399 -0.0878 0.1655
H7 H -0.0601 -0.0666 0.0718
H8 H 0.0009 -0.1420 -0.0179
H9 H -0.3029 -0.1861 -0.0855
H10 H -0.6881 -0.1069 0.0570
H11 H 0.6990 0.2410 0.2546
H12 H 0.8360 0.2436 0.3274
H13 H 0.5757 0.2573 0.3158
H14 H 0.7538 0.0234 0.3595
H15 H 0.8883 -0.1689 0.3715
H16 H 1.0513 -0.0692 0.3868
H17 H 0.5513 -0.0956 0.4623
H18 H 0.5329 -0.1280 0.5698
H19 H 0.8337 -0.1595 0.6354
H20 H 1.1728 -0.1294 0.4828
O4 O -0.7749(5) -0.2048(2) -0.1224(1)
H21 H -0.6909 -0.1868 -0.0859
H22 H -0.7092 -0.2544 -0.1376
loop_
_geom_bond_atom_site_label_1
_geom_bond_atom_site_label_2
_geom_bond_site_symmetry_1
_geom_bond_site_symmetry_2
C1 C2 1_555 1_555
C2 C3 1_555 1_555
C3 C4 1_555 1_555
C4 C5 1_555 1_555
C5 C6 1_555 1_555
C6 C1 1_555 1_555
C7 C1 1_555 1_555
O1 C7 1_555 1_555
N1 C7 1_555 1_555
C8 N1 1_555 1_555
C9 C8 1_555 1_555
C10 C9 1_555 1_555
C11 C10 1_555 1_555
C12 C11 1_555 1_555
N2 C12 1_555 1_555
C13 C9 1_555 1_555
O2 C4 1_555 1_555
C14 O2 1_555 1_555
C15 C3 1_555 1_555
O3 C15 1_555 1_555
N3 C15 1_555 1_555
C16 N3 1_555 1_555
C17 C16 1_555 1_555
C18 C17 1_555 1_555
C19 C18 1_555 1_555
C20 C19 1_555 1_555
N4 C20 1_555 1_555
C21 C17 1_555 1_555
H1 C2 1_555 1_555
H2 C5 1_555 1_555
H3 C6 1_555 1_555
H4 N1 1_555 1_555
H5 C8 1_555 1_555
H6 C8 1_555 1_555
H7 C10 1_555 1_555
H8 C11 1_555 1_555
H9 C12 1_555 1_555
H10 C13 1_555 1_555
H11 C14 1_555 1_555
H12 C14 1_555 1_555
H13 C14 1_555 1_555
H14 N3 1_555 1_555
H15 C16 1_555 1_555
H16 C16 1_555 1_555
H17 C18 1_555 1_555
H18 C19 1_555 1_555
H19 C20 1_555 1_555
H20 C21 1_555 1_555
O4 H21 1_555 1_555
H22 O4 1_555 1_555
N2 C13 1_555 1_555
N4 C21 1_555 1_555

#END
