
#######################################################################
#
#                 Cambridge Crystallographic Data Centre
#                                CCDC 
#
#######################################################################
#
# If this CIF has been generated from an entry in the Cambridge 
# Structural Database, then it will include bibliographic, chemical, 
# crystal, experimental, refinement or atomic coordinate data resulting 
# from the CCDC's data processing and validation procedures.
#
#######################################################################

data_COYJAB10
_chemical_formula_moiety         'C23 H24 N4 O3,0.5(H2 O1)'
_chemical_name_systematic        
"4-Methoxy-N,N'-dimethyl-N,N'-bis(3-pyridylmethyl)-isophthalamide hemihydrate"
_symmetry_cell_setting           monoclinic
_symmetry_space_group_name_H-M   'P 21/n'
_symmetry_Int_Tables_number      14
_space_group_name_Hall           '-P 2yn'
loop_
_symmetry_equiv_pos_site_id
_symmetry_equiv_pos_as_xyz
1 x,y,z
2 1/2-x,1/2+y,1/2-z
3 -x,-y,-z
4 1/2+x,1/2-y,1/2+z
_cell_length_a                   31.649(4)
_cell_length_b                   11.753(2)
_cell_length_c                   11.501(2)
_cell_angle_alpha                90
_cell_angle_beta                 93.11(2)
_cell_angle_gamma                90
_cell_volume                     4271.73
_exptl_crystal_colour            colorless
_cell_formula_units_Z            8
loop_
_atom_site_label
_atom_site_type_symbol
_atom_site_fract_x
_atom_site_fract_y
_atom_site_fract_z
C1 C 0.3258(1) 0.1060(3) 0.0868(3)
C2 C 0.2869(1) 0.0594(2) 0.0491(3)
C3 C 0.2496(1) 0.1091(2) 0.0809(2)
C4 C 0.2510(1) 0.2050(2) 0.1535(2)
C5 C 0.2896(1) 0.2505(3) 0.1943(3)
C6 C 0.3267(1) 0.2017(3) 0.1590(3)
C7 C 0.3668(1) 0.0503(3) 0.0605(3)
O1 O 0.3781(1) -0.0365(2) 0.1141(2)
N1 N 0.3909(1) 0.0999(2) -0.0173(2)
C8 C 0.4343(1) 0.0596(3) -0.0298(3)
C9 C 0.4406(1) 0.0035(3) -0.1461(3)
C10 C 0.4207(1) -0.0963(3) -0.1780(4)
C11 C 0.4280(2) -0.1441(4) -0.2825(5)
C12 C 0.4552(2) -0.0909(6) -0.3541(5)
N2 N 0.4748(1) 0.0064(4) -0.3262(3)
C13 C 0.4672(1) 0.0513(4) -0.2226(3)
O2 O 0.2126(1) 0.2474(2) 0.1809(2)
C14 C 0.2122(1) 0.3504(3) 0.2487(3)
C15 C 0.2077(1) 0.0543(2) 0.0440(3)
O3 O 0.1976(1) -0.0355(2) 0.0897(2)
N3 N 0.1833(1) 0.1060(2) -0.0394(2)
C16 C 0.1421(1) 0.0574(3) -0.0738(3)
C17 C 0.1058(1) 0.1112(2) -0.0119(2)
C18 C 0.0641(1) 0.0851(3) -0.0467(3)
C19 C 0.0316(1) 0.1316(3) 0.0150(3)
C20 C 0.0412(1) 0.2006(3) 0.1080(3)
N4 N 0.0810(1) 0.2277(3) 0.1416(2)
C21 C 0.1120(1) 0.1834(3) 0.0824(3)
C22 C 0.3773(1) 0.1997(3) -0.0865(3)
C23 C 0.1945(1) 0.2122(3) -0.0961(3)
H1 H 0.2860 -0.0156 -0.0053
H2 H 0.2907 0.3224 0.2530
H3 H 0.3568 0.2385 0.1874
H4 H 0.4557 0.1310 -0.0200
H5 H 0.4416 -0.0017 0.0383
H6 H 0.3993 -0.1369 -0.1208
H7 H 0.4129 -0.2234 -0.3083
H8 H 0.4607 -0.1287 -0.4375
H9 H 0.4828 0.1298 -0.1970
H10 H 0.1790 0.3696 0.2548
H11 H 0.2270 0.4165 0.1998
H12 H 0.2272 0.3457 0.3351
H13 H 0.1362 0.0697 -0.1663
H14 H 0.1429 -0.0326 -0.0547
H15 H 0.0570 0.0298 -0.1202
H16 H -0.0010 0.1133 -0.0105
H17 H 0.0157 0.2345 0.1562
H18 H 0.1441 0.2053 0.1101
H19 H 0.3992 0.2211 -0.1518
H20 H 0.3743 0.2709 -0.0282
H21 H 0.3468 0.1802 -0.1283
H22 H 0.2261 0.2383 -0.0682
H23 H 0.1724 0.2785 -0.0762
H24 H 0.1929 0.1970 -0.1889
C24 C 0.1741(1) 0.6226(2) -0.0917(2)
C25 C 0.2115(1) 0.6744(2) -0.0541(2)
C26 C 0.2501(1) 0.6315(2) -0.0863(2)
C27 C 0.2506(1) 0.5365(2) -0.1592(2)
C28 C 0.2131(1) 0.4861(3) -0.2007(3)
C29 C 0.1751(1) 0.5286(3) -0.1649(2)
C30 C 0.1321(1) 0.6725(3) -0.0600(2)
O4 O 0.1197(1) 0.7616(2) -0.1080(2)
N5 N 0.1102(1) 0.6176(2) 0.0191(2)
C31 C 0.0685(1) 0.6603(3) 0.0474(3)
C32 C 0.0707(1) 0.7399(2) 0.1505(3)
C33 C 0.0882(1) 0.8480(3) 0.1438(3)
C34 C 0.0886(1) 0.9191(3) 0.2393(3)
C35 C 0.0720(1) 0.8793(3) 0.3397(3)
N6 N 0.0555(1) 0.7758(3) 0.3485(2)
C36 C 0.0551(1) 0.7090(3) 0.2554(3)
O5 O 0.2899(1) 0.4997(2) -0.1857(2)
C37 C 0.2927(1) 0.3951(3) -0.2495(3)
C38 C 0.2902(1) 0.6916(2) -0.0470(2)
O6 O 0.2993(1) 0.7830(2) -0.0920(2)
N7 N 0.3148(1) 0.6436(2) 0.0388(2)
C39 C 0.3539(1) 0.7003(3) 0.0785(3)
C40 C 0.3927(1) 0.6595(2) 0.0194(2)
C41 C 0.4323(11) 0.6961(3) 0.0607(3)
C42 C 0.4673(1) 0.6612(3) 0.0046(3)
C43 C 0.4619(1) 0.5898(3) -0.0907(3)
N8 N 0.4244(1) 0.5530(2) -0.1305(2)
C44 C 0.3905(1) 0.5883(3) -0.0761(3)
C45 C 0.1266(1) 0.5192(3) 0.0857(3)
C46 C 0.3055(1) 0.5348(3) 0.0932(3)
H25 H 0.2107 0.7489 0.0007
H26 H 0.2134 0.4152 -0.2603
H27 H 0.1458 0.4876 -0.1935
H28 H 0.0546 0.7050 -0.0273
H29 H 0.0487 0.5888 0.0674
H30 H 0.1012 0.8764 0.0640
H31 H 0.1021 1.0034 0.2354
H32 H 0.0722 0.9350 0.4144
H33 H 0.0417 0.6249 0.2622
H34 H 0.3263 0.3807 -0.2534
H35 H 0.2779 0.3921 -0.3364
H36 H 0.2792 0.3299 -0.1966
H37 H 0.3503 0.7904 0.0625
H38 H 0.3590 0.6856 0.1710
H39 H 0.4357 0.7509 0.1360
H40 H 0.4986 0.6900 0.0332
H41 H 0.4896 0.5622 -0.1339
H42 H 0.3597 0.5597 -0.1090
H43 H 0.1023 0.4951 0.1431
H44 H 0.1554 0.5387 0.1365
H45 H 0.1323 0.4498 0.0271
H46 H 0.3300 0.5210 0.1609
H47 H 0.3057 0.4657 0.0314
H48 H 0.2751 0.5386 0.1313
O7 O 0.0502(1) 0.8492(2) -0.2450(2)
loop_
_geom_bond_atom_site_label_1
_geom_bond_atom_site_label_2
_geom_bond_site_symmetry_1
_geom_bond_site_symmetry_2
C1 C2 1_555 1_555
C2 C3 1_555 1_555
C3 C4 1_555 1_555
C4 C5 1_555 1_555
C5 C6 1_555 1_555
C6 C1 1_555 1_555
C7 C1 1_555 1_555
O1 C7 1_555 1_555
N1 C7 1_555 1_555
C8 N1 1_555 1_555
C9 C8 1_555 1_555
C10 C9 1_555 1_555
C11 C10 1_555 1_555
C12 C11 1_555 1_555
N2 C12 1_555 1_555
C13 C9 1_555 1_555
O2 C4 1_555 1_555
C14 O2 1_555 1_555
C15 C3 1_555 1_555
O3 C15 1_555 1_555
N3 C15 1_555 1_555
C16 N3 1_555 1_555
C17 C16 1_555 1_555
C18 C17 1_555 1_555
C19 C18 1_555 1_555
C20 C19 1_555 1_555
N4 C20 1_555 1_555
C21 C17 1_555 1_555
C22 N1 1_555 1_555
C23 N3 1_555 1_555
H1 C2 1_555 1_555
H2 C5 1_555 1_555
H3 C6 1_555 1_555
H4 C8 1_555 1_555
H5 C8 1_555 1_555
H6 C10 1_555 1_555
H7 C11 1_555 1_555
H8 C12 1_555 1_555
H9 C13 1_555 1_555
H10 C14 1_555 1_555
H11 C14 1_555 1_555
H12 C14 1_555 1_555
H13 C16 1_555 1_555
H14 C16 1_555 1_555
H15 C18 1_555 1_555
H16 C19 1_555 1_555
H17 C20 1_555 1_555
H18 C21 1_555 1_555
H19 C22 1_555 1_555
H20 C22 1_555 1_555
H21 C22 1_555 1_555
H22 C23 1_555 1_555
H23 C23 1_555 1_555
H24 C23 1_555 1_555
C24 C25 1_555 1_555
C25 C26 1_555 1_555
C26 C27 1_555 1_555
C27 C28 1_555 1_555
C28 C29 1_555 1_555
C29 C24 1_555 1_555
C30 C24 1_555 1_555
O4 C30 1_555 1_555
N5 C30 1_555 1_555
C31 N5 1_555 1_555
C32 C31 1_555 1_555
C33 C32 1_555 1_555
C34 C33 1_555 1_555
C35 C34 1_555 1_555
N6 C35 1_555 1_555
C36 C32 1_555 1_555
O5 C27 1_555 1_555
C37 O5 1_555 1_555
C38 C26 1_555 1_555
O6 C38 1_555 1_555
N7 C38 1_555 1_555
C39 N7 1_555 1_555
C40 C39 1_555 1_555
C41 C40 1_555 1_555
C42 C41 1_555 1_555
C43 C42 1_555 1_555
N8 C43 1_555 1_555
C44 C40 1_555 1_555
C45 N5 1_555 1_555
C46 N7 1_555 1_555
H25 C25 1_555 1_555
H26 C28 1_555 1_555
H27 C29 1_555 1_555
H28 C31 1_555 1_555
H29 C31 1_555 1_555
H30 C33 1_555 1_555
H31 C34 1_555 1_555
H32 C35 1_555 1_555
H33 C36 1_555 1_555
H34 C37 1_555 1_555
H35 C37 1_555 1_555
H36 C37 1_555 1_555
H37 C39 1_555 1_555
H38 C39 1_555 1_555
H39 C41 1_555 1_555
H40 C42 1_555 1_555
H41 C43 1_555 1_555
H42 C44 1_555 1_555
H43 C45 1_555 1_555
H44 C45 1_555 1_555
H45 C45 1_555 1_555
H46 C46 1_555 1_555
H47 C46 1_555 1_555
H48 C46 1_555 1_555
N2 C13 1_555 1_555
N4 C21 1_555 1_555
N6 C36 1_555 1_555
N8 C44 1_555 1_555

#END
