
#######################################################################
#
#                 Cambridge Crystallographic Data Centre
#                                CCDC 
#
#######################################################################
#
# If this CIF has been generated from an entry in the Cambridge 
# Structural Database, then it will include bibliographic, chemical, 
# crystal, experimental, refinement or atomic coordinate data resulting 
# from the CCDC's data processing and validation procedures.
#
#######################################################################

data_COYKEI
_chemical_formula_moiety         'C16 H15 Cl1 O2 S1'
_chemical_name_systematic        
1-Chloro-4-((4-phenylbut-3-en-2-yl)sulfonyl)benzene
_symmetry_cell_setting           orthorhombic
_symmetry_space_group_name_H-M   'P 21 21 21'
_symmetry_Int_Tables_number      19
_space_group_name_Hall           'P 2ac 2ab'
loop_
_symmetry_equiv_pos_site_id
_symmetry_equiv_pos_as_xyz
1 x,y,z
2 1/2-x,-y,1/2+z
3 1/2+x,1/2-y,-z
4 -x,1/2+y,1/2-z
_cell_length_a                   7.4769(5)
_cell_length_b                   10.9678(8)
_cell_length_c                   18.3282(13)
_cell_angle_alpha                90
_cell_angle_beta                 90
_cell_angle_gamma                90
_cell_volume                     1503.01
_cell_formula_units_Z            4
loop_
_atom_site_label
_atom_site_type_symbol
_atom_site_fract_x
_atom_site_fract_y
_atom_site_fract_z
S1 S 0.58997(11) 0.83287(8) 0.27310(4)
Cl1 Cl 0.55162(15) 0.92780(9) 0.60846(5)
O1 O 0.6117(4) 0.70407(19) 0.26183(12)
O2 O 0.7269(3) 0.9131(2) 0.24776(12)
C1 C 0.4975(4) 0.9896(3) 0.46864(19)
H1 H 0.4546 1.0631 0.4868
C2 C 0.3431(4) 0.7854(3) -0.0173(2)
H2 H 0.2846 0.7221 0.0066
C3 C 0.5057(3) 0.9692(3) 0.39463(18)
H3 H 0.4708 1.0301 0.3623
C4 C 0.5660(3) 0.8579(2) 0.36819(14)
C5 C 0.6198(4) 0.7680(2) 0.41604(17)
H4 H 0.6589 0.6931 0.3984
C6 C 0.4161(4) 0.8786(3) 0.02300(16)
C7 C 0.5009(4) 0.9704(3) -0.0136(2)
H5 H 0.5514 1.0342 0.0127
C8 C 0.6153(4) 0.7900(3) 0.49051(17)
H6 H 0.6538 0.7306 0.5231
C9 C 0.5132(4) 0.9709(3) -0.0874(2)
H7 H 0.5715 1.0345 -0.1111
C10 C 0.5542(4) 0.8988(3) 0.51554(16)
C11 C 0.3546(4) 0.7838(3) -0.0911(2)
H8 H 0.3051 0.7194 -0.1172
C12 C 0.4392(5) 0.8770(4) -0.12756(17)
H9 H 0.4465 0.8768 -0.1782
C13 C 0.3740(8) 0.8399(6) 0.1522(3)
H10 H 0.3312 0.7628 0.1403
C14 C 0.4279(8) 0.9130(5) 0.1015(3)
H11 H 0.4749 0.9885 0.1143
C15 C 0.3811(4) 0.8811(3) 0.23320(18)
H12 H 0.3620 0.9691 0.2384
C16 C 0.2280(5) 0.8081(4) 0.2644(2)
H13 H 0.2163 0.8254 0.3155
H14 H 0.2511 0.7227 0.2578
H15 H 0.1192 0.8296 0.2398
C17? C 0.3811(4) 0.8811(3) 0.23320(18)
H16? H 0.3629 0.9620 0.2547
C18? C 0.4373(10) 0.9108(6) 0.1545(4)
H17? H 0.5196 0.9723 0.1448
C19? C 0.3673(9) 0.8480(6) 0.1021(4)
H18? H 0.2881 0.7849 0.1123
C20? C 0.2280(5) 0.8081(4) 0.2644(2)
H19? H 0.2343 0.8093 0.3167
H20? H 0.2356 0.7254 0.2475
H21? H 0.1166 0.8431 0.2489
loop_
_geom_bond_atom_site_label_1
_geom_bond_atom_site_label_2
_geom_bond_site_symmetry_1
_geom_bond_site_symmetry_2
S1 O1 1_555 1_555
Cl1 C10 1_555 1_555
O2 S1 1_555 1_555
C1 H1 1_555 1_555
C2 H2 1_555 1_555
C3 C1 1_555 1_555
H3 C3 1_555 1_555
C4 S1 1_555 1_555
C5 C4 1_555 1_555
H4 C5 1_555 1_555
C6 C2 1_555 1_555
C7 C6 1_555 1_555
H5 C7 1_555 1_555
C8 C5 1_555 1_555
H6 C8 1_555 1_555
C9 C7 1_555 1_555
H7 C9 1_555 1_555
C10 C1 1_555 1_555
C11 C2 1_555 1_555
H8 C11 1_555 1_555
C12 C9 1_555 1_555
H9 C12 1_555 1_555
C13 H10 1_555 1_555
C14 C6 1_555 1_555
H11 C14 1_555 1_555
C15 S1 1_555 1_555
H12 C15 1_555 1_555
C16 C15 1_555 1_555
H13 C16 1_555 1_555
H14 C16 1_555 1_555
H15 C16 1_555 1_555
C3 C4 1_555 1_555
C8 C10 1_555 1_555
C11 C12 1_555 1_555
C13 C14 1_555 1_555
C13 C15 1_555 1_555

#END
