
#######################################################################
#
#                 Cambridge Crystallographic Data Centre
#                                CCDC 
#
#######################################################################
#
# If this CIF has been generated from an entry in the Cambridge 
# Structural Database, then it will include bibliographic, chemical, 
# crystal, experimental, refinement or atomic coordinate data resulting 
# from the CCDC's data processing and validation procedures.
#
#######################################################################

data_COYLAF03
_chemical_formula_moiety         'C6 H6 N10 O13'
_chemical_name_systematic        
N,N'-bis(2,2,2-Trinitroethyl)-1,2,5-oxadiazole-3,4-diamine
_symmetry_cell_setting           orthorhombic
_symmetry_space_group_name_H-M   'P 21 21 21'
_symmetry_Int_Tables_number      19
_space_group_name_Hall           'P 2ac 2ab'
loop_
_symmetry_equiv_pos_site_id
_symmetry_equiv_pos_as_xyz
1 x,y,z
2 1/2-x,-y,1/2+z
3 -x,1/2+y,1/2-z
4 1/2+x,1/2-y,-z
_cell_length_a                   11.757(2)
_cell_length_b                   12.192(2)
_cell_length_c                   21.542(4)
_cell_angle_alpha                90
_cell_angle_beta                 90
_cell_angle_gamma                90
_cell_volume                     3087.86
_exptl_crystal_description       block
_cell_formula_units_Z            8
loop_
_atom_site_label
_atom_site_type_symbol
_atom_site_fract_x
_atom_site_fract_y
_atom_site_fract_z
O1 O 0.9179(3) 0.4056(3) 0.33777(14)
O2 O 0.9445(3) 0.2291(3) 0.33071(15)
O3 O 1.0493(3) 0.2491(2) 0.19638(16)
O4 O 0.9021(3) 0.1443(2) 0.20437(17)
O5 O 0.7114(3) 0.2889(3) 0.28512(14)
O6 O 0.7256(2) 0.3052(2) 0.18533(14)
O7 O 0.6827(2) 0.6004(2) 0.09958(11)
O8 O 0.8253(2) 0.9117(2) 0.20576(13)
O9 O 0.6754(3) 0.9603(3) 0.15455(14)
O10 O 0.5866(3) 1.0919(2) 0.2453(2)
O11 O 0.4733(3) 0.9740(2) 0.28525(14)
O12 O 0.7813(3) 1.0089(3) 0.31790(14)
O13 O 0.7240(3) 0.8512(2) 0.35202(13)
N1 N 0.9212(3) 0.3198(3) 0.30982(16)
N2 N 0.9517(3) 0.2296(3) 0.21141(17)
N3 N 0.7638(3) 0.3031(2) 0.23768(16)
N4 N 0.8422(3) 0.5212(2) 0.22749(14)
H1 H 0.850(3) 0.552(3) 0.2618(12)
N5 N 0.7660(3) 0.5343(2) 0.12653(14)
N6 N 0.6370(3) 0.6747(2) 0.14268(15)
N7 N 0.6787(3) 0.7121(2) 0.24802(14)
H2 H 0.697(3) 0.676(3) 0.2793(12)
N8 N 0.7244(3) 0.9321(2) 0.20073(15)
N9 N 0.5617(3) 1.0019(3) 0.26299(17)
N10 N 0.7269(3) 0.9246(3) 0.31435(15)
C1 C 0.8907(3) 0.3251(3) 0.24148(16)
C2 C 0.9218(3) 0.4346(3) 0.21141(18)
H3 H 0.9975 0.4558 0.2246
H4 H 0.9231 0.4257 0.1667
C3 C 0.7723(3) 0.5667(3) 0.18423(16)
C4 C 0.6923(3) 0.6547(2) 0.19428(16)
C5 C 0.5952(3) 0.7983(3) 0.25311(17)
H5 H 0.5491 0.7862 0.2898
H6 H 0.5453 0.7961 0.2172
C6 C 0.6510(3) 0.9105(3) 0.25714(15)
O14 O 0.3525(2) 0.7298(2) -0.09594(13)
O15 O 0.2336(2) 0.6533(2) -0.03206(16)
O16 O 0.4640(3) 0.5252(2) -0.04267(15)
O17 O 0.6033(2) 0.6357(2) -0.01872(13)
O18 O 0.4109(3) 0.5666(3) 0.08282(15)
O19 O 0.3003(4) 0.7087(3) 0.08626(16)
O20 O 0.3708(3) 1.0037(2) 0.15829(12)
O21 O 0.0056(3) 1.3586(2) 0.05363(16)
O22 O 0.1382(3) 1.4624(2) 0.01761(18)
O23 O 0.3346(2) 1.3161(2) 0.01912(13)
O24 O 0.2862(3) 1.3127(3) -0.07704(15)
O25 O 0.0335(3) 1.3201(3) -0.08755(15)
O26 O 0.0793(2) 1.1486(2) -0.07494(13)
N11 N 0.3239(3) 0.6925(2) -0.04607(16)
N12 N 0.5035(3) 0.6106(3) -0.02158(14)
N13 N 0.3726(3) 0.6522(3) 0.06276(16)
N14 N 0.3849(2) 0.8947(2) 0.00929(14)
H7 H 0.371(3) 0.928(3) -0.0240(13)
N15 N 0.4149(3) 0.9284(2) 0.11565(14)
N16 N 0.2922(3) 1.0736(2) 0.12974(14)
N17 N 0.2277(3) 1.0938(2) 0.02592(13)
H8 H 0.204(3) 1.051(2) -0.0021(13)
N18 N 0.0920(3) 1.3746(3) 0.02521(16)
N19 N 0.2679(3) 1.3041(3) -0.02249(16)
N20 N 0.0800(3) 1.2448(3) -0.06035(15)
C7 C 0.4190(3) 0.6947(3) 0.00186(15)
C8 C 0.4706(3) 0.8099(3) 0.00639(17)
H9 H 0.5180 0.8141 0.0432
H10 H 0.5188 0.8227 -0.0294
C9 C 0.3658(3) 0.9516(3) 0.06360(16)
C10 C 0.2895(3) 1.0427(3) 0.07177(15)
C11 C 0.1490(3) 1.1802(3) 0.04483(16)
H11 H 0.1715 1.2084 0.0851
H12 H 0.0730 1.1499 0.0487
C12 C 0.1476(3) 1.2733(3) -0.00201(16)
loop_
_geom_bond_atom_site_label_1
_geom_bond_atom_site_label_2
_geom_bond_site_symmetry_1
_geom_bond_site_symmetry_2
O1 N1 1_555 1_555
O2 N1 1_555 1_555
O3 N2 1_555 1_555
O4 N2 1_555 1_555
O5 N3 1_555 1_555
O6 N3 1_555 1_555
O7 N5 1_555 1_555
O8 N8 1_555 1_555
O9 N8 1_555 1_555
O10 N9 1_555 1_555
O11 N9 1_555 1_555
O12 N10 1_555 1_555
O13 N10 1_555 1_555
N1 C1 1_555 1_555
N2 C1 1_555 1_555
N3 C1 1_555 1_555
N4 H1 1_555 1_555
N5 C3 1_555 1_555
N6 O7 1_555 1_555
N7 H2 1_555 1_555
N8 C6 1_555 1_555
N9 C6 1_555 1_555
N10 C6 1_555 1_555
C1 C2 1_555 1_555
C2 N4 1_555 1_555
H3 C2 1_555 1_555
H4 C2 1_555 1_555
C3 N4 1_555 1_555
C4 N6 1_555 1_555
C5 N7 1_555 1_555
H5 C5 1_555 1_555
H6 C5 1_555 1_555
C6 C5 1_555 1_555
O14 N11 1_555 1_555
O15 N11 1_555 1_555
O16 N12 1_555 1_555
O17 N12 1_555 1_555
O18 N13 1_555 1_555
O19 N13 1_555 1_555
O20 N15 1_555 1_555
O21 N18 1_555 1_555
O22 N18 1_555 1_555
O23 N19 1_555 1_555
O24 N19 1_555 1_555
O25 N20 1_555 1_555
O26 N20 1_555 1_555
N11 C7 1_555 1_555
N12 C7 1_555 1_555
N13 C7 1_555 1_555
N14 H7 1_555 1_555
N15 C9 1_555 1_555
N16 O20 1_555 1_555
N17 H8 1_555 1_555
N18 C12 1_555 1_555
N19 C12 1_555 1_555
N20 C12 1_555 1_555
C7 C8 1_555 1_555
C8 N14 1_555 1_555
H9 C8 1_555 1_555
H10 C8 1_555 1_555
C9 N14 1_555 1_555
C10 N16 1_555 1_555
C11 N17 1_555 1_555
H11 C11 1_555 1_555
H12 C11 1_555 1_555
C12 C11 1_555 1_555
N7 C4 1_555 1_555
C3 C4 1_555 1_555
N17 C10 1_555 1_555
C9 C10 1_555 1_555

#END
