
#######################################################################
#
#                 Cambridge Crystallographic Data Centre
#                                CCDC 
#
#######################################################################
#
# If this CIF has been generated from an entry in the Cambridge 
# Structural Database, then it will include bibliographic, chemical, 
# crystal, experimental, refinement or atomic coordinate data resulting 
# from the CCDC's data processing and validation procedures.
#
#######################################################################

data_COYPOW
_chemical_name_common            
4,4'-((4-Nitrophenyl)methylene)bis(2,6-di-isopropyl-N-((6-methyl-2-pyridinyl)methylene)aniline)
_chemical_formula_moiety         'C45 H51 N5 O2'
_chemical_name_systematic        
4-((4-((6-Methylpyridin-2-yl)methyleneamino)-3,5-di-isopropylphenyl)(4-nitrophenyl)methyl)-2,6-di-isopropyl-N-((6-methylpyridin-2-yl)methylene)benzenamine
_symmetry_cell_setting           triclinic
_symmetry_space_group_name_H-M   'P -1'
_symmetry_Int_Tables_number      2
_space_group_name_Hall           '-P 1'
loop_
_symmetry_equiv_pos_site_id
_symmetry_equiv_pos_as_xyz
1 x,y,z
2 -x,-y,-z
_cell_length_a                   10.3608(9)
_cell_length_b                   13.895(1)
_cell_length_c                   15.248(3)
_cell_angle_alpha                85.96(1)
_cell_angle_beta                 70.676(9)
_cell_angle_gamma                88.010(7)
_cell_volume                     2066.18
_exptl_crystal_colour            yellow
_exptl_crystal_description       block
_cell_formula_units_Z            2
loop_
_atom_site_label
_atom_site_type_symbol
_atom_site_fract_x
_atom_site_fract_y
_atom_site_fract_z
O1 O -0.2440(5) 0.7872(4) 0.6033(4)
O2 O -0.1884(6) 0.6772(4) 0.6904(4)
N1 N -0.1718(5) 0.7206(4) 0.6148(4)
N2 N 0.7389(4) 0.8608(3) 0.3192(3)
N3 N 0.9418(5) 1.0357(3) 0.1570(4)
N4 N 0.2588(4) 0.6649(3) -0.0603(3)
N5 N 0.4489(5) 0.6290(3) -0.2952(3)
C1 C -0.0572(5) 0.6898(4) 0.5335(4)
C2 C 0.0342(6) 0.6221(4) 0.5482(4)
H1 H 0.0210 0.5925 0.6070
C3 C 0.1467(6) 0.5988(4) 0.4728(4)
H2 H 0.2096 0.5533 0.4821
C4 C 0.1685(5) 0.6409(3) 0.3845(3)
C5 C 0.0701(5) 0.7057(4) 0.3724(4)
H3 H 0.0795 0.7324 0.3130
C6 C -0.0428(5) 0.7317(4) 0.4472(4)
H4 H -0.1068 0.7766 0.4385
C7 C 0.3028(5) 0.6220(3) 0.3071(3)
H5 H 0.3286 0.5546 0.3172
C8 C 0.4168(5) 0.6844(3) 0.3159(3)
C9 C 0.5498(5) 0.6487(3) 0.2912(3)
H6 H 0.5677 0.5857 0.2729
C10 C 0.6575(4) 0.7053(3) 0.2931(3)
C11 C 0.8037(5) 0.6665(4) 0.2647(4)
H7 H 0.8534 0.7062 0.2932
C12 C 0.8164(6) 0.5632(4) 0.3003(4)
H8 H 0.7663 0.5217 0.2757
H9 H 0.7800 0.5586 0.3671
H10 H 0.9110 0.5439 0.2806
C13 C 0.8745(7) 0.6784(5) 0.1612(5)
H11 H 0.8752 0.7455 0.1411
H12 H 0.8268 0.6427 0.1301
H13 H 0.9669 0.6546 0.1464
C14 C 0.6286(5) 0.8006(3) 0.3182(3)
C15 C 0.4956(5) 0.8388(3) 0.3446(3)
C16 C 0.4630(5) 0.9427(4) 0.3719(4)
H14 H 0.5418 0.9666 0.3855
C17 C 0.4459(8) 1.0065(5) 0.2909(5)
H15 H 0.3720 0.9831 0.2738
H16 H 0.5289 1.0051 0.2387
H17 H 0.4260 1.0716 0.3092
C18 C 0.3390(7) 0.9526(5) 0.4579(5)
H18 H 0.3532 0.9152 0.5094
H19 H 0.2598 0.9296 0.4468
H20 H 0.3254 1.0192 0.4721
C19 C 0.3912(5) 0.7779(3) 0.3435(3)
H21 H 0.3016 0.8012 0.3619
C20 C 0.7899(5) 0.9179(4) 0.2496(4)
H22 H 0.7555 0.9169 0.2005
C21 C 0.8999(5) 0.9862(4) 0.2397(4)
C22 C 0.9541(6) 0.9963(4) 0.3104(5)
H23 H 0.9220 0.9603 0.3669
C23 C 1.0586(7) 1.0626(5) 0.2928(7)
H24 H 1.0986 1.0723 0.3378
C24 C 1.1018(7) 1.1139(5) 0.2073(7)
H25 H 1.1709 1.1589 0.1948
C25 C 1.0432(8) 1.0986(5) 0.1401(6)
C26 C 1.0873(9) 1.1506(6) 0.0449(6)
H26 H 1.1065 1.1043 -0.0018
H27 H 1.1681 1.1870 0.0365
H28 H 1.0153 1.1935 0.0395
C27 C 0.2934(5) 0.6328(3) 0.2095(3)
C28 C 0.2593(5) 0.5535(3) 0.1691(3)
H29 H 0.2426 0.4944 0.2032
C29 C 0.2499(5) 0.5606(3) 0.0802(3)
C30 C 0.2164(5) 0.4725(3) 0.0384(4)
H30 H 0.2014 0.4950 -0.0199
C31 C 0.0857(6) 0.4244(5) 0.1004(4)
H31 H 0.0111 0.4699 0.1112
H32 H 0.0961 0.4022 0.1588
H33 H 0.0671 0.3705 0.0705
C32 C 0.3326(7) 0.4017(5) 0.0142(6)
H34 H 0.3521 0.3795 0.0696
H35 H 0.4120 0.4322 -0.0294
H36 H 0.3083 0.3479 -0.0130
C33 C 0.2749(5) 0.6501(3) 0.0292(3)
C34 C 0.3073(5) 0.7318(3) 0.0679(3)
C35 C 0.3342(7) 0.8288(4) 0.0121(4)
H37 H 0.2953 0.8262 -0.0381
C36 C 0.4829(9) 0.8459(6) -0.0320(7)
H38 H 0.5235 0.7948 -0.0720
H39 H 0.5248 0.8475 0.0154
H40 H 0.4966 0.9064 -0.0681
C37 C 0.2672(11) 0.9115(6) 0.0679(7)
H41 H 0.3025 0.9159 0.1183
H42 H 0.1702 0.9017 0.0925
H43 H 0.2858 0.9701 0.0289
C38 C 0.3168(5) 0.7201(3) 0.1556(3)
H44 H 0.3401 0.7733 0.1807
C39 C 0.3537(6) 0.6419(4) -0.1321(4)
H45 H 0.4309 0.6101 -0.1257
C40 C 0.3454(5) 0.6641(4) -0.2258(3)
C41 C 0.4499(6) 0.6506(4) -0.3823(4)
C42 C 0.5684(7) 0.6123(6) -0.4593(5)
H46 H 0.6138 0.6650 -0.5010
H47 H 0.5355 0.5684 -0.4928
H48 H 0.6315 0.5792 -0.4334
C43 C 0.3471(8) 0.7051(5) -0.4012(5)
H49 H 0.3501 0.7188 -0.4625
C44 C 0.2418(8) 0.7385(6) -0.3300(5)
H50 H 0.1721 0.7753 -0.3419
C45 C 0.2392(7) 0.7176(5) -0.2400(4)
H51 H 0.1674 0.7391 -0.1901
loop_
_geom_bond_atom_site_label_1
_geom_bond_atom_site_label_2
_geom_bond_site_symmetry_1
_geom_bond_site_symmetry_2
O1 N1 1_555 1_555
O2 N1 1_555 1_555
N1 C1 1_555 1_555
N2 C14 1_555 1_555
N3 C21 1_555 1_555
N4 C33 1_555 1_555
N5 C40 1_555 1_555
C1 C2 1_555 1_555
C2 H1 1_555 1_555
C3 C2 1_555 1_555
H2 C3 1_555 1_555
C4 C3 1_555 1_555
C5 C4 1_555 1_555
H3 C5 1_555 1_555
C6 C1 1_555 1_555
H4 C6 1_555 1_555
C7 C4 1_555 1_555
H5 C7 1_555 1_555
C8 C7 1_555 1_555
C9 C8 1_555 1_555
H6 C9 1_555 1_555
C10 C9 1_555 1_555
C11 C10 1_555 1_555
H7 C11 1_555 1_555
C12 C11 1_555 1_555
H8 C12 1_555 1_555
H9 C12 1_555 1_555
H10 C12 1_555 1_555
C13 C11 1_555 1_555
H11 C13 1_555 1_555
H12 C13 1_555 1_555
H13 C13 1_555 1_555
C14 C10 1_555 1_555
C15 C14 1_555 1_555
C16 C15 1_555 1_555
H14 C16 1_555 1_555
C17 C16 1_555 1_555
H15 C17 1_555 1_555
H16 C17 1_555 1_555
H17 C17 1_555 1_555
C18 C16 1_555 1_555
H18 C18 1_555 1_555
H19 C18 1_555 1_555
H20 C18 1_555 1_555
C19 C8 1_555 1_555
H21 C19 1_555 1_555
C20 N2 1_555 1_555
H22 C20 1_555 1_555
C21 C20 1_555 1_555
C22 C21 1_555 1_555
H23 C22 1_555 1_555
C23 C22 1_555 1_555
H24 C23 1_555 1_555
C24 C23 1_555 1_555
H25 C24 1_555 1_555
C25 N3 1_555 1_555
C26 C25 1_555 1_555
H26 C26 1_555 1_555
H27 C26 1_555 1_555
H28 C26 1_555 1_555
C27 C7 1_555 1_555
C28 C27 1_555 1_555
H29 C28 1_555 1_555
C29 C28 1_555 1_555
C30 C29 1_555 1_555
H30 C30 1_555 1_555
C31 C30 1_555 1_555
H31 C31 1_555 1_555
H32 C31 1_555 1_555
H33 C31 1_555 1_555
C32 C30 1_555 1_555
H34 C32 1_555 1_555
H35 C32 1_555 1_555
H36 C32 1_555 1_555
C33 C29 1_555 1_555
C34 C33 1_555 1_555
C35 C34 1_555 1_555
H37 C35 1_555 1_555
C36 C35 1_555 1_555
H38 C36 1_555 1_555
H39 C36 1_555 1_555
H40 C36 1_555 1_555
C37 C35 1_555 1_555
H41 C37 1_555 1_555
H42 C37 1_555 1_555
H43 C37 1_555 1_555
C38 C27 1_555 1_555
H44 C38 1_555 1_555
C39 N4 1_555 1_555
H45 C39 1_555 1_555
C40 C39 1_555 1_555
C41 N5 1_555 1_555
C42 C41 1_555 1_555
H46 C42 1_555 1_555
H47 C42 1_555 1_555
H48 C42 1_555 1_555
C43 C41 1_555 1_555
H49 C43 1_555 1_555
C44 C43 1_555 1_555
H50 C44 1_555 1_555
C45 C40 1_555 1_555
H51 C45 1_555 1_555
C5 C6 1_555 1_555
C15 C19 1_555 1_555
C24 C25 1_555 1_555
C34 C38 1_555 1_555
C44 C45 1_555 1_555

#END
