
#######################################################################
#
#                 Cambridge Crystallographic Data Centre
#                                CCDC 
#
#######################################################################
#
# If this CIF has been generated from an entry in the Cambridge 
# Structural Database, then it will include bibliographic, chemical, 
# crystal, experimental, refinement or atomic coordinate data resulting 
# from the CCDC's data processing and validation procedures.
#
#######################################################################

data_COYPOV
_chemical_formula_moiety         'C18 H20 O2'
_chemical_name_systematic        1,1-bis(p-Ethoxyphenyl)-ethylene
_symmetry_cell_setting           orthorhombic
_symmetry_space_group_name_H-M   'P b c n'
_symmetry_Int_Tables_number      60
_space_group_name_Hall           '-P 2n 2ab'
loop_
_symmetry_equiv_pos_site_id
_symmetry_equiv_pos_as_xyz
1 x,y,z
2 1/2-x,1/2+y,z
3 x,-y,1/2+z
4 1/2-x,1/2-y,1/2+z
5 -x,-y,-z
6 1/2+x,1/2-y,-z
7 -x,y,1/2-z
8 1/2+x,1/2+y,1/2-z
_cell_length_a                   7.714(13)
_cell_length_b                   6.656(15)
_cell_length_c                   29.682(4)
_cell_angle_alpha                90
_cell_angle_beta                 90
_cell_angle_gamma                90
_cell_volume                     1524
_cell_formula_units_Z            4
loop_
_atom_site_label
_atom_site_type_symbol
_atom_site_fract_x
_atom_site_fract_y
_atom_site_fract_z
O1 O -0.0049(2) 0.0059(2) 0.41713(4)
C1 C 0.0000 0.6154(4) 0.2500
C2 C 0.0000 0.4138(3) 0.2500
C3 C -0.0053(2) 0.3013(2) 0.29321(6)
C4 C 0.0886(2) 0.1245(3) 0.29874(5)
C5 C 0.0943(2) 0.0233(2) 0.33950(5)
C6 C 0.0019(2) 0.0967(3) 0.37582(6)
C7 C -0.0941(2) 0.2726(3) 0.37095(6)
C8 C -0.0966(2) 0.3706(3) 0.33049(6)
C9 C 0.0818(3) -0.1833(3) 0.42217(7)
C10 C 0.0401(5) -0.2634(5) 0.46735(9)
H1 H 0.002(2) 0.692(3) 0.2194(5)
H2 H 0.152(2) 0.071(2) 0.2729(5)
H3 H 0.163(2) -0.098(2) 0.3425(5)
H4 H -0.161(2) 0.319(3) 0.3972(6)
H5 H -0.160(2) 0.480(2) 0.3268(5)
H6 H 0.039(3) -0.264(4) 0.3965(7)
H7 H 0.214(3) -0.154(3) 0.4190(5)
H8 H -0.092(4) -0.280(5) 0.4641(11)
H9 H 0.063(4) -0.182(5) 0.4927(10)
H10 H 0.101(4) -0.395(5) 0.4723(8)
C3F C 0.0053(2) 0.3013(2) 0.20679(6)
H1F H -0.002(2) 0.692(3) 0.2806(5)
C4F C -0.0886(2) 0.1245(3) 0.20126(5)
C8F C 0.0966(2) 0.3706(3) 0.16951(6)
C5F C -0.0943(2) 0.0233(2) 0.16050(5)
H2F H -0.152(2) 0.071(2) 0.2271(5)
C7F C 0.0941(2) 0.2726(3) 0.12905(6)
H5F H 0.160(2) 0.480(2) 0.1732(5)
C6F C -0.0019(2) 0.0967(3) 0.12418(6)
H3F H -0.163(2) -0.098(2) 0.1575(5)
H4F H 0.161(2) 0.319(3) 0.1028(6)
O1F O 0.0049(2) 0.0059(2) 0.08287(4)
C9F C -0.0818(3) -0.1833(3) 0.07783(7)
C10F C -0.0401(5) -0.2634(5) 0.03265(9)
H6F H -0.039(3) -0.264(4) 0.1035(7)
H7F H -0.214(3) -0.154(3) 0.0810(5)
H8F H 0.092(4) -0.280(5) 0.0359(11)
H9F H -0.063(4) -0.182(5) 0.0073(10)
H10F H -0.101(4) -0.395(5) 0.0277(8)
loop_
_geom_bond_atom_site_label_1
_geom_bond_atom_site_label_2
_geom_bond_site_symmetry_1
_geom_bond_site_symmetry_2
O1 C6 1_555 1_555
C1 C2 1_555 1_555
C2 C3 1_555 1_555
C3 C4 1_555 1_555
C4 C5 1_555 1_555
C5 C6 1_555 1_555
C6 C7 1_555 1_555
C7 C8 1_555 1_555
C8 C3 1_555 1_555
C9 O1 1_555 1_555
C10 C9 1_555 1_555
H1 C1 1_555 1_555
H2 C4 1_555 1_555
H3 C5 1_555 1_555
H4 C7 1_555 1_555
H5 C8 1_555 1_555
H6 C9 1_555 1_555
H7 C9 1_555 1_555
H8 C10 1_555 1_555
H9 C10 1_555 1_555
H10 C10 1_555 1_555
C3F C2 1_555 1_555
H1F C1 1_555 1_555
C4F C3F 1_555 1_555
C8F C3F 1_555 1_555
C5F C4F 1_555 1_555
H2F C4F 1_555 1_555
C7F C8F 1_555 1_555
H5F C8F 1_555 1_555
C6F C5F 1_555 1_555
H3F C5F 1_555 1_555
H4F C7F 1_555 1_555
O1F C6F 1_555 1_555
C9F O1F 1_555 1_555
C10F C9F 1_555 1_555
H6F C9F 1_555 1_555
H7F C9F 1_555 1_555
H8F C10F 1_555 1_555
H9F C10F 1_555 1_555
H10F C10F 1_555 1_555
C7F C6F 1_555 1_555

#END
