
#######################################################################
#
#                 Cambridge Crystallographic Data Centre
#                                CCDC 
#
#######################################################################
#
# If this CIF has been generated from an entry in the Cambridge 
# Structural Database, then it will include bibliographic, chemical, 
# crystal, experimental, refinement or atomic coordinate data resulting 
# from the CCDC's data processing and validation procedures.
#
#######################################################################

data_COYPIP
_chemical_formula_moiety         'C16 H14 Cl2 O2'
_chemical_name_systematic        1,1-Dichloro-2,2-bis(p-methoxyphenyl)ethylene
_symmetry_cell_setting           monoclinic
_symmetry_space_group_name_H-M   'C 2/c'
_symmetry_Int_Tables_number      15
_space_group_name_Hall           '-C 2yn'
loop_
_symmetry_equiv_pos_site_id
_symmetry_equiv_pos_as_xyz
1 x,y,z
2 1/2+x,1/2+y,z
3 -x,y,1/2-z
4 1/2-x,1/2+y,1/2-z
5 -x,-y,-z
6 1/2-x,1/2-y,-z
7 x,-y,1/2+z
8 1/2+x,1/2-y,1/2+z
_cell_length_a                   18.290(4)
_cell_length_b                   7.964(1)
_cell_length_c                   11.103(2)
_cell_angle_alpha                90
_cell_angle_beta                 115.76(2)
_cell_angle_gamma                90
_cell_volume                     1456.56
_cell_formula_units_Z            4
loop_
_atom_site_label
_atom_site_type_symbol
_atom_site_fract_x
_atom_site_fract_y
_atom_site_fract_z
Cl1 Cl 0.43855(4) 0.09098(8) 0.11650(6)
O1 O 0.73124(8) 0.7394(2) 0.6900(1)
C1 C 0.5000 0.2150(4) 0.2500
C2 C 0.5000 0.3815(4) 0.2500
C3 C 0.5637(1) 0.4787(3) 0.3612(2)
C4 C 0.5414(1) 0.6113(3) 0.4208(2)
C5 C 0.5991(1) 0.6960(3) 0.5294(2)
C6 C 0.6800(1) 0.6514(3) 0.5801(2)
C7 C 0.7039(1) 0.5262(3) 0.5181(2)
C8 C 0.6456(1) 0.4414(3) 0.4097(2)
C9 C 0.8142(1) 0.6877(3) 0.7541(2)
H1 H 0.487(1) 0.638(2) 0.393(2)
H2 H 0.583(1) 0.778(3) 0.568(2)
H3 H 0.756(1) 0.498(3) 0.547(2)
H4 H 0.662(1) 0.364(2) 0.371(2)
H5 H 0.837(1) 0.752(3) 0.825(2)
H6 H 0.839(1) 0.700(3) 0.693(3)
H7 H 0.816(1) 0.567(3) 0.782(2)
Cl1B Cl 0.56145(4) 0.09098(8) 0.38350(6)
C3B C 0.4363(1) 0.4787(3) 0.1388(2)
C4B C 0.4586(1) 0.6113(3) 0.0792(2)
C8B C 0.3544(1) 0.4414(3) 0.0903(2)
C5B C 0.4009(1) 0.6960(3) -0.0294(2)
H1B H 0.513(1) 0.638(2) 0.107(2)
C7B C 0.2961(1) 0.5262(3) -0.0181(2)
H4B H 0.338(1) 0.364(2) 0.129(2)
C6B C 0.3200(1) 0.6514(3) -0.0801(2)
H2B H 0.417(1) 0.778(3) -0.068(2)
H3B H 0.244(1) 0.498(3) -0.047(2)
O1B O 0.26876(8) 0.7394(2) -0.1900(1)
C9B C 0.1858(1) 0.6877(3) -0.2541(2)
H5B H 0.163(1) 0.752(3) -0.325(2)
H6B H 0.161(1) 0.700(3) -0.193(3)
H7B H 0.184(1) 0.567(3) -0.282(2)
loop_
_geom_bond_atom_site_label_1
_geom_bond_atom_site_label_2
_geom_bond_site_symmetry_1
_geom_bond_site_symmetry_2
Cl1 C1 1_555 1_555
O1 C6 1_555 1_555
C1 C2 1_555 1_555
C2 C3 1_555 1_555
C3 C4 1_555 1_555
C4 C5 1_555 1_555
C5 C6 1_555 1_555
C6 C7 1_555 1_555
C7 C8 1_555 1_555
C8 C3 1_555 1_555
C9 O1 1_555 1_555
H1 C4 1_555 1_555
H2 C5 1_555 1_555
H3 C7 1_555 1_555
H4 C8 1_555 1_555
H5 C9 1_555 1_555
H6 C9 1_555 1_555
H7 C9 1_555 1_555
Cl1B C1 1_555 1_555
C3B C2 1_555 1_555
C4B C3B 1_555 1_555
C8B C3B 1_555 1_555
C5B C4B 1_555 1_555
H1B C4B 1_555 1_555
C7B C8B 1_555 1_555
H4B C8B 1_555 1_555
C6B C5B 1_555 1_555
H2B C5B 1_555 1_555
H3B C7B 1_555 1_555
O1B C6B 1_555 1_555
C9B O1B 1_555 1_555
H5B C9B 1_555 1_555
H6B C9B 1_555 1_555
H7B C9B 1_555 1_555
C7B C6B 1_555 1_555

#END
