
#######################################################################
#
#                 Cambridge Crystallographic Data Centre
#                                CCDC 
#
#######################################################################
#
# If this CIF has been generated from an entry in the Cambridge 
# Structural Database, then it will include bibliographic, chemical, 
# crystal, experimental, refinement or atomic coordinate data resulting 
# from the CCDC's data processing and validation procedures.
#
#######################################################################

data_COYQUD
_chemical_name_common            
4-Fluoro-N-(1-(pentafluorophenyl)-3-phenyl-2-propyn-1-yl)aniline
_chemical_formula_moiety         'C21 H11 F6 N1'
_chemical_name_systematic        
N-(4-Fluorophenyl)-3-amino-3-(pentafluorophenyl)-1-phenylprop-1-yne
_symmetry_cell_setting           monoclinic
_symmetry_space_group_name_H-M   'P 21/n'
_symmetry_Int_Tables_number      14
_space_group_name_Hall           '-P 2yn'
loop_
_symmetry_equiv_pos_site_id
_symmetry_equiv_pos_as_xyz
1 x,y,z
2 1/2-x,1/2+y,1/2-z
3 -x,-y,-z
4 1/2+x,1/2-y,1/2+z
_cell_length_a                   12.379(1)
_cell_length_b                   5.960(2)
_cell_length_c                   24.17(2)
_cell_angle_alpha                90
_cell_angle_beta                 101.869(14)
_cell_angle_gamma                90
_cell_volume                     1745.11
_cell_formula_units_Z            4
loop_
_atom_site_label
_atom_site_type_symbol
_atom_site_fract_x
_atom_site_fract_y
_atom_site_fract_z
C1 C 0.6232(4) 0.4725(8) 0.10996(19)
H1 H 0.6494 0.6185 0.1259
C2 C 0.7072(4) 0.3050(9) 0.1344(2)
C3 C 0.7772(4) 0.1698(8) 0.15333(18)
C4 C 0.8603(3) 0.0090(7) 0.17420(17)
C5 C 0.8395(4) -0.1679(8) 0.2087(2)
H2 H 0.7725 -0.1746 0.2205
C6 C 0.9176(5) -0.3314(10) 0.2253(2)
H3 H 0.9030 -0.4483 0.2482
C7 C 1.0166(5) -0.3247(10) 0.2085(3)
H4 H 1.0682 -0.4385 0.2189
C8 C 1.0385(5) -0.1484(11) 0.1765(3)
H5 H 1.1068 -0.1409 0.1662
C9 C 0.9626(4) 0.0177(9) 0.1591(2)
H6 H 0.9795 0.1359 0.1372
C10 C 0.6962(4) 0.5522(8) 0.02529(18)
C11 C 0.7300(5) 0.4081(9) -0.0129(2)
H7 H 0.6938 0.2721 -0.0220
C12 C 0.8163(5) 0.4660(11) -0.0371(2)
H8 H 0.8395 0.3693 -0.0626
C13 C 0.8688(5) 0.6677(12) -0.0238(2)
C14 C 0.8380(5) 0.8095(11) 0.0141(3)
H9 H 0.8759 0.9431 0.0238
C15 C 0.7495(5) 0.7528(9) 0.0380(2)
H10 H 0.7260 0.8515 0.0629
C16 C 0.5152(3) 0.4248(7) 0.12804(18)
C17 C 0.4723(4) 0.5696(8) 0.16178(19)
C18 C 0.3758(5) 0.5333(8) 0.1789(2)
C19 C 0.3182(4) 0.3367(9) 0.1633(2)
C20 C 0.3584(4) 0.1869(8) 0.1298(2)
C21 C 0.4545(4) 0.2309(8) 0.1128(2)
F1 F 0.9552(3) 0.7219(9) -0.04844(19)
F2 F 0.5265(3) 0.7639(5) 0.17923(13)
F3 F 0.3370(3) 0.6792(6) 0.21179(15)
F4 F 0.2241(3) 0.2957(6) 0.18028(15)
F5 F 0.3019(3) -0.0045(5) 0.11418(14)
F6 F 0.4909(2) 0.0800(5) 0.07953(12)
N1 N 0.6041(3) 0.4940(7) 0.04901(16)
H11 H 0.5398 0.4725 0.0281
loop_
_geom_bond_atom_site_label_1
_geom_bond_atom_site_label_2
_geom_bond_site_symmetry_1
_geom_bond_site_symmetry_2
C1 H1 1_555 1_555
C2 C1 1_555 1_555
C3 C2 1_555 1_555
C4 C3 1_555 1_555
C5 C4 1_555 1_555
H2 C5 1_555 1_555
C6 C5 1_555 1_555
H3 C6 1_555 1_555
C7 C6 1_555 1_555
H4 C7 1_555 1_555
C8 C7 1_555 1_555
H5 C8 1_555 1_555
C9 C4 1_555 1_555
H6 C9 1_555 1_555
C10 C11 1_555 1_555
C11 H7 1_555 1_555
C12 C11 1_555 1_555
H8 C12 1_555 1_555
C13 C12 1_555 1_555
C14 C13 1_555 1_555
H9 C14 1_555 1_555
C15 C10 1_555 1_555
H10 C15 1_555 1_555
C16 C1 1_555 1_555
C17 C16 1_555 1_555
C18 C17 1_555 1_555
C19 C18 1_555 1_555
C20 C19 1_555 1_555
C21 C16 1_555 1_555
F1 C13 1_555 1_555
F2 C17 1_555 1_555
F3 C18 1_555 1_555
F4 C19 1_555 1_555
F5 C20 1_555 1_555
F6 C21 1_555 1_555
N1 C1 1_555 1_555
H11 N1 1_555 1_555
C8 C9 1_555 1_555
C10 N1 1_555 1_555
C14 C15 1_555 1_555
C20 C21 1_555 1_555

#END
