
#######################################################################
#
#                 Cambridge Crystallographic Data Centre
#                                CCDC 
#
#######################################################################
#
# If this CIF has been generated from an entry in the Cambridge 
# Structural Database, then it will include bibliographic, chemical, 
# crystal, experimental, refinement or atomic coordinate data resulting 
# from the CCDC's data processing and validation procedures.
#
#######################################################################

data_COYRUD13
_chemical_name_common            (S)-Naproxen
_chemical_formula_moiety         'C14 H14 O3'
_chemical_name_systematic        '(S)-2-(6-Methoxy-2-naphthyl)propanoic acid'
_symmetry_cell_setting           monoclinic
_symmetry_space_group_name_H-M   'P 21'
_symmetry_Int_Tables_number      4
_space_group_name_Hall           'P 2yb'
loop_
_symmetry_equiv_pos_site_id
_symmetry_equiv_pos_as_xyz
1 x,y,z
2 -x,1/2+y,-z
_cell_length_a                   7.87590(10)
_cell_length_b                   5.78340(10)
_cell_length_c                   13.3230(2)
_cell_angle_alpha                90
_cell_angle_beta                 93.8770(10)
_cell_angle_gamma                90
_cell_volume                     605.467
_exptl_crystal_colour            colorless
_exptl_crystal_description       plate
_cell_formula_units_Z            2
loop_
_atom_site_label
_atom_site_type_symbol
_atom_site_fract_x
_atom_site_fract_y
_atom_site_fract_z
C1 C -0.2050(2) -0.2385(4) -0.07161(11)
C2 C -0.36192(19) -0.1769(3) -0.13801(11)
H1 H -0.4380 -0.3112 -0.1413
C3 C -0.4577(3) 0.0268(4) -0.09561(14)
H2 H -0.4902 -0.0109 -0.0294
H3 H -0.5577 0.0588 -0.1386
H4 H -0.3854 0.1606 -0.0921
C4 C -0.30599(17) -0.1300(3) -0.24369(11)
C5 C -0.21402(19) 0.0718(3) -0.26462(11)
H5 H -0.1826 0.1737 -0.2127
C6 C -0.17043(18) 0.1200(3) -0.35983(11)
H6 H -0.1093 0.2537 -0.3716
C7 C -0.21688(16) -0.0304(3) -0.44072(11)
C8 C -0.18465(18) 0.0252(3) -0.54200(11)
H7 H -0.1255 0.1591 -0.5562
C9 C -0.24134(18) -0.1198(3) -0.61800(11)
C10 C -0.32462(19) -0.3285(4) -0.59655(12)
H8 H -0.3600 -0.4274 -0.6489
C11 C -0.35373(18) -0.3866(3) -0.50055(11)
H9 H -0.4070 -0.5260 -0.4877
C12 C -0.30390(17) -0.2373(3) -0.41969(11)
C13 C -0.34704(17) -0.2826(3) -0.32007(11)
H10 H -0.4043 -0.4184 -0.3063
C14 C -0.1459(3) 0.1247(5) -0.74714(13)
H11 H -0.1433 0.1293 -0.8191
H12 H -0.0318 0.1300 -0.7171
H13 H -0.2088 0.2551 -0.7249
O1 O -0.1205(2) -0.0963(3) -0.02514(13)
O2 O -0.17103(18) -0.4597(3) -0.07226(10)
O3 O -0.22567(16) -0.0827(3) -0.71829(8)
H14 H -0.081(4) -0.497(5) -0.0362(18)
loop_
_geom_bond_atom_site_label_1
_geom_bond_atom_site_label_2
_geom_bond_site_symmetry_1
_geom_bond_site_symmetry_2
C1 C2 1_555 1_555
C2 H1 1_555 1_555
C3 C2 1_555 1_555
H2 C3 1_555 1_555
H3 C3 1_555 1_555
H4 C3 1_555 1_555
C4 C2 1_555 1_555
C5 C4 1_555 1_555
H5 C5 1_555 1_555
C6 C5 1_555 1_555
H6 C6 1_555 1_555
C7 C6 1_555 1_555
C8 C7 1_555 1_555
H7 C8 1_555 1_555
C9 C8 1_555 1_555
C10 C9 1_555 1_555
H8 C10 1_555 1_555
C11 C10 1_555 1_555
H9 C11 1_555 1_555
C12 C7 1_555 1_555
C13 C4 1_555 1_555
H10 C13 1_555 1_555
C14 H11 1_555 1_555
H12 C14 1_555 1_555
H13 C14 1_555 1_555
O1 C1 1_555 1_555
O2 C1 1_555 1_555
O3 C9 1_555 1_555
H14 O2 1_555 1_555
C11 C12 1_555 1_555
C12 C13 1_555 1_555
C14 O3 1_555 1_555

#END
