
#######################################################################
#
#                 Cambridge Crystallographic Data Centre
#                                CCDC 
#
#######################################################################
#
# If this CIF has been generated from an entry in the Cambridge 
# Structural Database, then it will include bibliographic, chemical, 
# crystal, experimental, refinement or atomic coordinate data resulting 
# from the CCDC's data processing and validation procedures.
#
#######################################################################

data_COYVIV
_chemical_formula_moiety         'C9 H10 N4 O2 S2'
_chemical_name_systematic        
2-(5-Amino-1,3,4-thiadiazol-2-yl)-N-methyl-benzenesulfonamide
_chemical_properties_biological  'antiviral agent'
_symmetry_cell_setting           monoclinic
_symmetry_space_group_name_H-M   'P 21/a'
_symmetry_Int_Tables_number      14
_space_group_name_Hall           '-P 2yab'
loop_
_symmetry_equiv_pos_site_id
_symmetry_equiv_pos_as_xyz
1 x,y,z
2 1/2-x,1/2+y,-z
3 -x,-y,-z
4 1/2+x,1/2-y,z
_cell_length_a                   21.308(8)
_cell_length_b                   13.420(6)
_cell_length_c                   8.155(2)
_cell_angle_alpha                90
_cell_angle_beta                 94.49(1)
_cell_angle_gamma                90
_cell_volume                     2324.79
_exptl_crystal_colour            colorless
_cell_formula_units_Z            8
loop_
_atom_site_label
_atom_site_type_symbol
_atom_site_fract_x
_atom_site_fract_y
_atom_site_fract_z
S1 S 0.0751(1) 0.2400(1) 0.5400(1)
C1 C 0.0401(2) 0.3564(3) 0.5362(4)
N1 N 0.0720(1) 0.4253(2) 0.4664(4)
N2 N 0.1285(2) 0.3884(2) 0.4143(4)
C2 C 0.1366(2) 0.2951(3) 0.4460(4)
C3 C 0.1947(2) 0.2376(3) 0.4188(5)
C4 C 0.2235(2) 0.1862(3) 0.5524(5)
C5 C 0.2804(2) 0.1364(3) 0.5395(5)
C6 C 0.3077(2) 0.1349(3) 0.3945(5)
C7 C 0.2794(2) 0.1832(3) 0.2577(5)
C8 C 0.2231(2) 0.2349(3) 0.2701(5)
N3 N -0.0144(2) 0.3746(2) 0.6051(5)
S2 S 0.1909(1) 0.2972(1) 0.0899(1)
O1 O 0.1239(2) 0.2838(2) 0.0768(4)
O2 O 0.2267(2) 0.2652(2) -0.0418(4)
N4 N 0.2021(2) 0.4153(3) 0.1166(4)
C9 C 0.2662(3) 0.4552(4) 0.1354(7)
H1 H -0.0404 0.3225 0.6433
H2 H -0.0364 0.4375 0.5826
H3 H 0.2053 0.1885 0.6468
H4 H 0.2968 0.1070 0.6431
H5 H 0.3434 0.0821 0.3742
H6 H 0.3009 0.1810 0.1411
H7 H 0.1760 0.4397 0.2095
H8 H 0.2924 0.4287 0.0356
H9 H 0.2900 0.4320 0.2511
H10 H 0.2650 0.5363 0.1313
S3 S -0.0390(1) 0.3245(1) 0.1441(1)
C10 C -0.0774(2) 0.4222(3) 0.0378(5)
N5 N -0.1164(2) 0.3935(2) -0.0842(4)
N6 N -0.1188(2) 0.2904(2) -0.0975(4)
C11 C -0.0821(2) 0.2443(3) 0.0111(4)
C12 C -0.0781(2) 0.1355(3) 0.0337(4)
C13 C -0.0681(2) 0.0995(3) 0.1940(5)
C14 C -0.0665(2) -0.0022(3) 0.2286(5)
C15 C -0.0753(2) -0.0702(3) 0.1020(5)
C16 C -0.0849(2) -0.0369(3) -0.0584(5)
C17 C -0.0858(2) 0.0644(3) -0.0943(4)
N7 N -0.0676(2) 0.5179(3) 0.0821(6)
S4 S -0.0963(1) 0.0954(1) -0.3059(1)
O3 O -0.0523(2) 0.1717(2) -0.3388(4)
O4 O -0.0951(2) 0.0034(2) -0.3953(3)
N8 N -0.1655(2) 0.1417(3) -0.3389(4)
C18 C -0.2198(3) 0.0752(4) -0.3356(6)
H11 H -0.0368 0.5354 0.1769
H12 H -0.0981 0.5805 0.0128
H13 H -0.0590 0.1459 0.2792
H14 H -0.0573 -0.0309 0.3508
H15 H -0.0746 -0.1488 0.1306
H16 H -0.0846 -0.0855 -0.1487
H17 H -0.1726 0.2213 -0.3627
H18 H -0.2636 0.1149 -0.3579
H19 H -0.2193 0.0391 -0.2145
H20 H -0.2175 0.0169 -0.4273
loop_
_geom_bond_atom_site_label_1
_geom_bond_atom_site_label_2
_geom_bond_site_symmetry_1
_geom_bond_site_symmetry_2
S1 C1 1_555 1_555
C1 N1 1_555 1_555
N1 N2 1_555 1_555
N2 C2 1_555 1_555
C2 S1 1_555 1_555
C3 C2 1_555 1_555
C4 C3 1_555 1_555
C5 C4 1_555 1_555
C6 C5 1_555 1_555
C7 C6 1_555 1_555
C8 C3 1_555 1_555
N3 C1 1_555 1_555
S2 C8 1_555 1_555
O1 S2 1_555 1_555
O2 S2 1_555 1_555
N4 S2 1_555 1_555
C9 N4 1_555 1_555
S3 C10 1_555 1_555
C10 N5 1_555 1_555
N5 N6 1_555 1_555
N6 C11 1_555 1_555
C11 S3 1_555 1_555
C12 C11 1_555 1_555
C13 C12 1_555 1_555
C14 C13 1_555 1_555
C15 C14 1_555 1_555
C16 C15 1_555 1_555
C17 C12 1_555 1_555
N7 C10 1_555 1_555
S4 C17 1_555 1_555
O3 S4 1_555 1_555
O4 S4 1_555 1_555
N8 S4 1_555 1_555
C18 N8 1_555 1_555
H1 N3 1_555 1_555
H2 N3 1_555 1_555
H3 C4 1_555 1_555
H4 C5 1_555 1_555
H5 C6 1_555 1_555
H6 C7 1_555 1_555
H7 N4 1_555 1_555
H8 C9 1_555 1_555
H9 C9 1_555 1_555
H10 C9 1_555 1_555
H11 N7 1_555 1_555
H12 N7 1_555 1_555
H13 C13 1_555 1_555
H14 C14 1_555 1_555
H15 C15 1_555 1_555
H16 C16 1_555 1_555
H17 N8 1_555 1_555
H18 C18 1_555 1_555
H19 C18 1_555 1_555
H20 C18 1_555 1_555
C7 C8 1_555 1_555
C16 C17 1_555 1_555

#END
