
#######################################################################
#
#                 Cambridge Crystallographic Data Centre
#                                CCDC 
#
#######################################################################
#
# If this CIF has been generated from an entry in the Cambridge 
# Structural Database, then it will include bibliographic, chemical, 
# crystal, experimental, refinement or atomic coordinate data resulting 
# from the CCDC's data processing and validation procedures.
#
#######################################################################

data_COYXAR
_chemical_formula_moiety         'C19 H15 N1 O4'
_chemical_name_systematic        
'ethyl 3-oxo-2-(3-oxo-1,3-dihydro-2H-indol-2-ylidene)-3-phenylpropanoate'
_symmetry_cell_setting           monoclinic
_symmetry_space_group_name_H-M   'P 21/c'
_symmetry_Int_Tables_number      14
_space_group_name_Hall           '-P 2ybc'
loop_
_symmetry_equiv_pos_site_id
_symmetry_equiv_pos_as_xyz
1 x,y,z
2 -x,1/2+y,1/2-z
3 -x,-y,-z
4 x,1/2-y,1/2+z
_cell_length_a                   7.7503(9)
_cell_length_b                   11.6487(15)
_cell_length_c                   18.179(2)
_cell_angle_alpha                90
_cell_angle_beta                 95.908(2)
_cell_angle_gamma                90
_cell_volume                     1632.5
_exptl_crystal_colour            red
_exptl_crystal_description       block
_cell_formula_units_Z            4
loop_
_atom_site_label
_atom_site_type_symbol
_atom_site_fract_x
_atom_site_fract_y
_atom_site_fract_z
O1 O 0.40593(18) 0.52952(12) 0.69690(6)
O2 O 0.48817(16) 0.29305(12) 0.61909(7)
O3 O 0.21697(19) 0.44612(11) 0.42191(6)
O4 O 0.20208(16) 0.27175(10) 0.47290(6)
N1 N 0.30874(19) 0.62476(12) 0.51652(8)
C1 C 0.3287(2) 0.53384(14) 0.56427(8)
C2 C 0.3829(2) 0.58440(15) 0.64004(8)
C3 C 0.3923(2) 0.70766(15) 0.62816(9)
C4 C 0.3479(2) 0.72790(14) 0.55305(9)
C5 C 0.3442(3) 0.83770(16) 0.52433(11)
H1 H 0.3145 0.8514 0.4737
C6 C 0.3860(3) 0.92631(17) 0.57314(12)
H2 H 0.3832 1.0020 0.5551
C7 C 0.4318(3) 0.90783(18) 0.64765(12)
H3 H 0.4612 0.9705 0.6790
C8 C 0.4348(3) 0.79911(17) 0.67625(11)
H4 H 0.4647 0.7863 0.7270
C9 C 0.30184(19) 0.42167(13) 0.55010(8)
C10 C 0.3413(2) 0.33016(14) 0.60833(8)
C11 C 0.1981(2) 0.28356(14) 0.64721(8)
C12 C 0.2232(3) 0.18285(15) 0.68715(10)
H5 H 0.3319 0.1463 0.6908
C13 C 0.0898(4) 0.13603(19) 0.72145(12)
H6 H 0.1071 0.0676 0.7486
C14 C -0.0690(3) 0.1896(2) 0.71594(13)
H7 H -0.1613 0.1560 0.7380
C15 C -0.0942(3) 0.2917(2) 0.67858(12)
H8 H -0.2018 0.3295 0.6769
C16 C 0.0389(2) 0.33876(19) 0.64351(10)
H9 H 0.0217 0.4080 0.6172
C17 C 0.2365(2) 0.38372(14) 0.47509(8)
C18 C 0.1275(3) 0.22648(17) 0.40234(11)
H10 H 0.2049 0.2416 0.3641
H11 H 0.0155 0.2633 0.3876
C19 C 0.1038(4) 0.1008(2) 0.41106(15)
H12 H 0.0374 0.0865 0.4525
H13 H 0.2163 0.0641 0.4200
H14 H 0.0421 0.0698 0.3663
H15 H 0.294(2) 0.6164(16) 0.4697(10)
loop_
_geom_bond_atom_site_label_1
_geom_bond_atom_site_label_2
_geom_bond_site_symmetry_1
_geom_bond_site_symmetry_2
O1 C2 1_555 1_555
O2 C10 1_555 1_555
O3 C17 1_555 1_555
O4 C17 1_555 1_555
N1 C1 1_555 1_555
C1 C2 1_555 1_555
C2 C3 1_555 1_555
C3 C4 1_555 1_555
C4 N1 1_555 1_555
C5 C4 1_555 1_555
H1 C5 1_555 1_555
C6 C5 1_555 1_555
H2 C6 1_555 1_555
C7 C6 1_555 1_555
H3 C7 1_555 1_555
C8 C3 1_555 1_555
H4 C8 1_555 1_555
C9 C1 1_555 1_555
C10 C9 1_555 1_555
C11 C10 1_555 1_555
C12 C11 1_555 1_555
H5 C12 1_555 1_555
C13 C12 1_555 1_555
H6 C13 1_555 1_555
C14 C13 1_555 1_555
H7 C14 1_555 1_555
C15 C14 1_555 1_555
H8 C15 1_555 1_555
C16 C11 1_555 1_555
H9 C16 1_555 1_555
C17 C9 1_555 1_555
C18 O4 1_555 1_555
H10 C18 1_555 1_555
H11 C18 1_555 1_555
C19 C18 1_555 1_555
H12 C19 1_555 1_555
H13 C19 1_555 1_555
H14 C19 1_555 1_555
H15 N1 1_555 1_555
C7 C8 1_555 1_555
C15 C16 1_555 1_555

#END
