
#######################################################################
#
#                 Cambridge Crystallographic Data Centre
#                                CCDC 
#
#######################################################################
#
# If this CIF has been generated from an entry in the Cambridge 
# Structural Database, then it will include bibliographic, chemical, 
# crystal, experimental, refinement or atomic coordinate data resulting 
# from the CCDC's data processing and validation procedures.
#
#######################################################################

data_COZKOS
_chemical_formula_moiety         'C20 H27 F1 O2'
_chemical_name_systematic        
'6-Propyldecahydro-2-naphthalenyl 4-fluorobenzoate'
_symmetry_cell_setting           triclinic
_symmetry_space_group_name_H-M   'P -1'
_symmetry_Int_Tables_number      2
_space_group_name_Hall           '-P 1'
loop_
_symmetry_equiv_pos_site_id
_symmetry_equiv_pos_as_xyz
1 x,y,z
2 -x,-y,-z
_cell_length_a                   5.668(2)
_cell_length_b                   9.382(4)
_cell_length_c                   17.461(7)
_cell_angle_alpha                100.135(6)
_cell_angle_beta                 95.294(6)
_cell_angle_gamma                100.085(6)
_cell_volume                     892.629
_exptl_crystal_colour            colorless
_exptl_crystal_description       plate
_chemical_melting_point          78deg.C
_cell_formula_units_Z            2
_exptl_crystal_recrystallization_method 'ethanol/ethyl acetate'
loop_
_atom_site_label
_atom_site_type_symbol
_atom_site_fract_x
_atom_site_fract_y
_atom_site_fract_z
F1 F 0.3082(4) -0.3855(2) 0.54766(14)
O1 O 0.5636(4) 0.0037(2) 0.29555(16)
O2 O 0.2350(3) 0.0811(2) 0.33658(13)
C1 C 0.3271(6) -0.2928(3) 0.4961(2)
C2 C 0.5023(6) -0.2992(4) 0.4484(3)
H1 H 0.6035 -0.3669 0.4503
C3 C 0.5267(5) -0.2040(4) 0.3975(2)
H2 H 0.6498 -0.2047 0.3658
C4 C 0.3698(5) -0.1054(3) 0.3921(2)
C5 C 0.1926(5) -0.1053(3) 0.4412(2)
H3 H 0.0864 -0.0406 0.4391
C6 C 0.1705(5) -0.1998(3) 0.4935(2)
H4 H 0.0502 -0.1996 0.5263
C7 C 0.4028(5) -0.0038(3) 0.3366(2)
C8 C 0.2402(5) 0.1817(3) 0.2819(2)
H5 H 0.4081 0.2280 0.2801
C9 C 0.1286(6) 0.0977(4) 0.2007(2)
H6 H -0.0309 0.0424 0.2034
H7 H 0.2273 0.0282 0.1811
C10 C 0.1094(6) 0.2046(4) 0.1451(2)
H8 H 0.2706 0.2523 0.1387
H9 H 0.0315 0.1495 0.0941
C11 C -0.0323(5) 0.3217(4) 0.17428(18)
H10 H -0.1955 0.2704 0.1783
C12 C -0.0576(6) 0.4278(4) 0.11895(18)
H11 H -0.1372 0.3719 0.0683
H12 H 0.1024 0.4759 0.1115
C13 C -0.2001(5) 0.5458(4) 0.14812(18)
H13 H -0.3632 0.4946 0.1524
C14 C -0.0881(5) 0.6268(3) 0.22993(17)
H14 H -0.1872 0.6958 0.2500
H15 H 0.0705 0.6832 0.2271
C15 C -0.0635(5) 0.5222(3) 0.28663(16)
H16 H 0.0176 0.5788 0.3370
H17 H -0.2233 0.4746 0.2945
C16 C 0.0779(5) 0.4046(3) 0.25663(17)
H18 H 0.2412 0.4558 0.2526
C17 C 0.1033(5) 0.2983(3) 0.31230(17)
H19 H 0.1859 0.3538 0.3627
H20 H -0.0564 0.2511 0.3205
C18 C -0.2259(6) 0.6497(4) 0.09110(18)
H21 H -0.0694 0.7118 0.0919
H22 H -0.2721 0.5909 0.0386
C19 C -0.4073(7) 0.7476(4) 0.1077(2)
H23 H -0.3607 0.8070 0.1601
H24 H -0.5638 0.6857 0.1071
C20 C -0.4326(6) 0.8503(4) 0.0501(2)
H25 H -0.2789 0.9126 0.0502
H26 H -0.5476 0.9103 0.0655
H27 H -0.4873 0.7927 -0.0016
loop_
_geom_bond_atom_site_label_1
_geom_bond_atom_site_label_2
_geom_bond_site_symmetry_1
_geom_bond_site_symmetry_2
F1 C1 1_555 1_555
O1 C7 1_555 1_555
O2 C7 1_555 1_555
C1 C2 1_555 1_555
C2 H1 1_555 1_555
C3 C2 1_555 1_555
H2 C3 1_555 1_555
C4 C3 1_555 1_555
C5 C4 1_555 1_555
H3 C5 1_555 1_555
C6 C1 1_555 1_555
H4 C6 1_555 1_555
C7 C4 1_555 1_555
C8 O2 1_555 1_555
H5 C8 1_555 1_555
C9 C8 1_555 1_555
H6 C9 1_555 1_555
H7 C9 1_555 1_555
C10 C9 1_555 1_555
H8 C10 1_555 1_555
H9 C10 1_555 1_555
C11 C10 1_555 1_555
H10 C11 1_555 1_555
C12 C11 1_555 1_555
H11 C12 1_555 1_555
H12 C12 1_555 1_555
C13 C12 1_555 1_555
H13 C13 1_555 1_555
C14 C13 1_555 1_555
H14 C14 1_555 1_555
H15 C14 1_555 1_555
C15 C14 1_555 1_555
H16 C15 1_555 1_555
H17 C15 1_555 1_555
C16 C11 1_555 1_555
H18 C16 1_555 1_555
C17 C8 1_555 1_555
H19 C17 1_555 1_555
H20 C17 1_555 1_555
C18 C13 1_555 1_555
H21 C18 1_555 1_555
H22 C18 1_555 1_555
C19 C18 1_555 1_555
H23 C19 1_555 1_555
H24 C19 1_555 1_555
C20 C19 1_555 1_555
H25 C20 1_555 1_555
H26 C20 1_555 1_555
H27 C20 1_555 1_555
C5 C6 1_555 1_555
C15 C16 1_555 1_555
C16 C17 1_555 1_555

#END
