
#######################################################################
#
#                 Cambridge Crystallographic Data Centre
#                                CCDC 
#
#######################################################################
#
# If this CIF has been generated from an entry in the Cambridge 
# Structural Database, then it will include bibliographic, chemical, 
# crystal, experimental, refinement or atomic coordinate data resulting 
# from the CCDC's data processing and validation procedures.
#
#######################################################################

data_COZLEK
_chemical_formula_moiety         'C29 H25 Br1 O4'
_chemical_name_systematic        
'2-Ethyl 1-methyl 1-(4-bromophenyl)-4-(diphenylmethylene)cyclopent-2-ene-1,2-dicarboxylate'
_symmetry_cell_setting           monoclinic
_symmetry_space_group_name_H-M   'P 21/c'
_symmetry_Int_Tables_number      14
_space_group_name_Hall           '-P 2ybc'
loop_
_symmetry_equiv_pos_site_id
_symmetry_equiv_pos_as_xyz
1 x,y,z
2 -x,1/2+y,1/2-z
3 -x,-y,-z
4 x,1/2-y,1/2+z
_cell_length_a                   9.867(6)
_cell_length_b                   22.495(13)
_cell_length_c                   11.670(7)
_cell_angle_alpha                90
_cell_angle_beta                 108.160(6)
_cell_angle_gamma                90
_cell_volume                     2461.23
_exptl_crystal_colour            colorless
_exptl_crystal_description       block
_cell_formula_units_Z            4
loop_
_atom_site_label
_atom_site_type_symbol
_atom_site_fract_x
_atom_site_fract_y
_atom_site_fract_z
Br1 Br 0.26091(7) 0.92206(3) 0.82220(6)
C1 C 0.8521(5) 0.76989(19) 0.6318(4)
C2 C 0.7445(5) 0.7728(2) 0.5144(4)
H1 H 0.7214 0.7411 0.4607
C3 C 0.6831(5) 0.8253(2) 0.4925(4)
C4 C 0.7390(5) 0.86814(18) 0.5980(4)
C5 C 0.8660(5) 0.83211(18) 0.6829(4)
H2 H 0.9563 0.8496 0.6840
H3 H 0.8608 0.8316 0.7645
C6 C 0.6248(4) 0.88278(18) 0.6562(4)
C7 C 0.5886(5) 0.84194(19) 0.7310(4)
H4 H 0.6375 0.8060 0.7475
C8 C 0.4827(5) 0.8531(2) 0.7811(4)
H5 H 0.4613 0.8256 0.8323
C9 C 0.4084(5) 0.9059(2) 0.7545(4)
C10 C 0.4400(5) 0.9468(2) 0.6806(5)
H6 H 0.3903 0.9826 0.6639
C11 C 0.5462(5) 0.9346(2) 0.6311(5)
H7 H 0.5659 0.9621 0.5789
C12 C 0.9197(5) 0.72032(19) 0.6820(4)
C13 C 0.8854(5) 0.6631(2) 0.6155(4)
C14 C 0.7648(6) 0.6317(2) 0.6097(6)
H8 H 0.7032 0.6461 0.6494
C15 C 0.7327(8) 0.5790(3) 0.5458(7)
H9 H 0.6514 0.5578 0.5447
C16 C 0.8193(9) 0.5585(3) 0.4853(6)
H10 H 0.7966 0.5235 0.4407
C17 C 0.9394(9) 0.5888(3) 0.4895(6)
H11 H 1.0002 0.5743 0.4492
C18 C 0.9718(6) 0.6411(2) 0.5534(5)
H12 H 1.0536 0.6619 0.5544
C19 C 1.0296(5) 0.71901(19) 0.8011(4)
C20 C 1.0274(6) 0.6742(2) 0.8831(5)
H13 H 0.9565 0.6453 0.8626
C21 C 1.1305(7) 0.6728(3) 0.9946(5)
H14 H 1.1277 0.6432 1.0495
C22 C 1.2366(7) 0.7143(3) 1.0251(5)
H15 H 1.3054 0.7128 1.1006
C23 C 1.2423(5) 0.7579(3) 0.9459(5)
H16 H 1.3150 0.7860 0.9666
C24 C 1.1389(5) 0.7600(2) 0.8344(5)
H17 H 1.1431 0.7899 0.7805
C25 C 0.5629(7) 0.8341(3) 0.3777(6)
C26 C 0.3595(9) 0.8898(4) 0.2736(7)
H18 H 0.3138 0.8511 0.2593
H19 H 0.2948 0.9177 0.2928
C27 C 0.3926(9) 0.9090(4) 0.1694(8)
H20 H 0.4616 0.9405 0.1910
H21 H 0.3075 0.9232 0.1103
H22 H 0.4310 0.8763 0.1366
C28 C 0.8012(5) 0.9245(2) 0.5621(6)
C29 C 0.9251(6) 1.0136(2) 0.6405(6)
H23 H 1.0105 1.0038 0.6218
H24 H 0.9492 1.0370 0.7129
H25 H 0.8625 1.0360 0.5752
O1 O 0.8088(4) 0.93510(16) 0.4647(4)
O2 O 0.8544(4) 0.95953(15) 0.6581(3)
O3 O 0.5008(4) 0.88611(19) 0.3795(3)
O4 O 0.5287(5) 0.7993(2) 0.2988(4)
loop_
_geom_bond_atom_site_label_1
_geom_bond_atom_site_label_2
_geom_bond_site_symmetry_1
_geom_bond_site_symmetry_2
Br1 C9 1_555 1_555
C1 C2 1_555 1_555
C2 H1 1_555 1_555
C3 C2 1_555 1_555
C4 C3 1_555 1_555
C5 C1 1_555 1_555
H2 C5 1_555 1_555
H3 C5 1_555 1_555
C6 C4 1_555 1_555
C7 C6 1_555 1_555
H4 C7 1_555 1_555
C8 C7 1_555 1_555
H5 C8 1_555 1_555
C9 C8 1_555 1_555
C10 C9 1_555 1_555
H6 C10 1_555 1_555
C11 C6 1_555 1_555
H7 C11 1_555 1_555
C12 C1 1_555 1_555
C13 C12 1_555 1_555
C14 C13 1_555 1_555
H8 C14 1_555 1_555
C15 C14 1_555 1_555
H9 C15 1_555 1_555
C16 C15 1_555 1_555
H10 C16 1_555 1_555
C17 C16 1_555 1_555
H11 C17 1_555 1_555
C18 C13 1_555 1_555
H12 C18 1_555 1_555
C19 C12 1_555 1_555
C20 C19 1_555 1_555
H13 C20 1_555 1_555
C21 C20 1_555 1_555
H14 C21 1_555 1_555
C22 C21 1_555 1_555
H15 C22 1_555 1_555
C23 C22 1_555 1_555
H16 C23 1_555 1_555
C24 C19 1_555 1_555
H17 C24 1_555 1_555
C25 C3 1_555 1_555
C26 H18 1_555 1_555
H19 C26 1_555 1_555
C27 C26 1_555 1_555
H20 C27 1_555 1_555
H21 C27 1_555 1_555
H22 C27 1_555 1_555
C28 C4 1_555 1_555
C29 H23 1_555 1_555
H24 C29 1_555 1_555
H25 C29 1_555 1_555
O1 C28 1_555 1_555
O2 C28 1_555 1_555
O3 C25 1_555 1_555
O4 C25 1_555 1_555
C4 C5 1_555 1_555
C10 C11 1_555 1_555
C17 C18 1_555 1_555
C23 C24 1_555 1_555
C26 O3 1_555 1_555
C29 O2 1_555 1_555

#END
