
#######################################################################
#
#                 Cambridge Crystallographic Data Centre
#                                CCDC 
#
#######################################################################
#
# If this CIF has been generated from an entry in the Cambridge 
# Structural Database, then it will include bibliographic, chemical, 
# crystal, experimental, refinement or atomic coordinate data resulting 
# from the CCDC's data processing and validation procedures.
#
#######################################################################

data_COZPEO
_chemical_formula_moiety         'C20 H15 N1 O2'
_chemical_name_systematic        
(8-methoxypyrido[2,1-a]isoindol-6-yl)(phenyl)methanone
_symmetry_cell_setting           monoclinic
_symmetry_space_group_name_H-M   'P 21/c'
_symmetry_Int_Tables_number      14
_space_group_name_Hall           '-P 2ybc'
loop_
_symmetry_equiv_pos_site_id
_symmetry_equiv_pos_as_xyz
1 x,y,z
2 -x,1/2+y,1/2-z
3 -x,-y,-z
4 x,1/2-y,1/2+z
_cell_length_a                   14.0620(15)
_cell_length_b                   5.4696(7)
_cell_length_c                   19.798(3)
_cell_angle_alpha                90
_cell_angle_beta                 92.266(4)
_cell_angle_gamma                90
_cell_volume                     1521.54
_exptl_crystal_colour            yellow
_exptl_crystal_description       Block
_cell_formula_units_Z            4
loop_
_atom_site_label
_atom_site_type_symbol
_atom_site_fract_x
_atom_site_fract_y
_atom_site_fract_z
C1 C 0.04356(13) 0.9178(4) 0.08490(10)
H1 H 0.1038 0.9985 0.0813
H2 H -0.0063 1.0376 0.0849
H3 H 0.0332 0.8095 0.0472
C2 C 0.10958(11) 0.5989(3) 0.15380(8)
C3 C 0.17674(10) 0.5483(3) 0.10779(7)
H4 H 0.1808 0.6407 0.0686
C4 C 0.23979(10) 0.3521(3) 0.12126(7)
C5 C 0.23531(11) 0.2241(3) 0.18292(7)
C6 C 0.16503(12) 0.2806(3) 0.22868(8)
H5 H 0.1612 0.1932 0.2688
C7 C 0.10260(12) 0.4639(4) 0.21394(8)
H6 H 0.0550 0.5006 0.2437
C8 C 0.30831(11) 0.0467(3) 0.18523(8)
C9 C 0.33715(13) -0.1295(4) 0.23216(9)
H7 H 0.3058 -0.1433 0.2725
C10 C 0.41081(14) -0.2824(4) 0.21977(11)
H8 H 0.4299 -0.4003 0.2513
C11 C 0.45715(13) -0.2600(3) 0.15937(10)
H9 H 0.5072 -0.3647 0.1505
C12 C 0.43044(11) -0.0880(3) 0.11329(8)
H10 H 0.4622 -0.0748 0.0731
C13 C 0.31516(10) 0.2501(3) 0.08435(7)
C14 C 0.35230(10) 0.3129(3) 0.02074(8)
C15 C 0.29575(10) 0.4779(3) -0.02554(7)
C16 C 0.20280(10) 0.4237(3) -0.04706(8)
H11 H 0.1731 0.2854 -0.0305
C17 C 0.15444(12) 0.5732(4) -0.09267(8)
H12 H 0.0928 0.5341 -0.1076
C18 C 0.19734(13) 0.7793(4) -0.11599(8)
H13 H 0.1641 0.8826 -0.1458
C19 C 0.28932(13) 0.8346(3) -0.09560(8)
H14 H 0.3181 0.9749 -0.1117
C20 C 0.33892(11) 0.6831(3) -0.05144(8)
H15 H 0.4018 0.7187 -0.0389
N1 N 0.35660(8) 0.0664(2) 0.12585(6)
O1 O 0.04355(8) 0.7820(2) 0.14580(6)
O2 O 0.42945(8) 0.2375(2) 0.00138(6)
loop_
_geom_bond_atom_site_label_1
_geom_bond_atom_site_label_2
_geom_bond_site_symmetry_1
_geom_bond_site_symmetry_2
C1 H1 1_555 1_555
H2 C1 1_555 1_555
H3 C1 1_555 1_555
C2 C3 1_555 1_555
C3 H4 1_555 1_555
C4 C3 1_555 1_555
C5 C4 1_555 1_555
C6 C5 1_555 1_555
H5 C6 1_555 1_555
C7 C2 1_555 1_555
H6 C7 1_555 1_555
C8 C5 1_555 1_555
C9 C8 1_555 1_555
H7 C9 1_555 1_555
C10 C9 1_555 1_555
H8 C10 1_555 1_555
C11 C10 1_555 1_555
H9 C11 1_555 1_555
C12 C11 1_555 1_555
H10 C12 1_555 1_555
C13 C4 1_555 1_555
C14 C13 1_555 1_555
C15 C14 1_555 1_555
C16 C15 1_555 1_555
H11 C16 1_555 1_555
C17 C16 1_555 1_555
H12 C17 1_555 1_555
C18 C17 1_555 1_555
H13 C18 1_555 1_555
C19 C18 1_555 1_555
H14 C19 1_555 1_555
C20 C15 1_555 1_555
H15 C20 1_555 1_555
N1 C8 1_555 1_555
O1 C1 1_555 1_555
O2 C14 1_555 1_555
C2 O1 1_555 1_555
C6 C7 1_555 1_555
C12 N1 1_555 1_555
C13 N1 1_555 1_555
C19 C20 1_555 1_555

#END
