
#######################################################################
#
#                 Cambridge Crystallographic Data Centre
#                                CCDC 
#
#######################################################################
#
# If this CIF has been generated from an entry in the Cambridge 
# Structural Database, then it will include bibliographic, chemical, 
# crystal, experimental, refinement or atomic coordinate data resulting 
# from the CCDC's data processing and validation procedures.
#
#######################################################################

data_COZQEP
_chemical_formula_moiety         'C22 H18 Cl1 N1 O1'
_chemical_name_systematic        
3-(benzylamino)-3-(4-chlorophenyl)-1-phenylprop-2-en-1-one
_symmetry_cell_setting           triclinic
_symmetry_space_group_name_H-M   'P -1'
_symmetry_Int_Tables_number      2
_space_group_name_Hall           '-P 1'
loop_
_symmetry_equiv_pos_site_id
_symmetry_equiv_pos_as_xyz
1 x,y,z
2 -x,-y,-z
_cell_length_a                   9.2150(19)
_cell_length_b                   9.921(2)
_cell_length_c                   10.223(2)
_cell_angle_alpha                87.841(3)
_cell_angle_beta                 70.798(3)
_cell_angle_gamma                89.959(3)
_cell_volume                     881.916
_cell_formula_units_Z            2
loop_
_atom_site_label
_atom_site_type_symbol
_atom_site_fract_x
_atom_site_fract_y
_atom_site_fract_z
Cl1 Cl 0.44295(7) 0.01691(6) 0.26344(6)
O1 O 0.14887(13) -0.69609(11) -0.07847(10)
N1 N 0.29762(15) -0.45557(13) -0.14947(12)
H1 H 0.2865 -0.5344 -0.1774
C1 C -0.04248(19) -0.87050(16) 0.12688(18)
H2 H -0.0396 -0.8792 0.0358
C2 C -0.1281(2) -0.96200(18) 0.2289(2)
H3 H -0.1824 -1.0310 0.2059
C3 C -0.1328(2) -0.95086(19) 0.3639(2)
H4 H -0.1923 -1.0107 0.4329
C4 C -0.0486(3) -0.8503(2) 0.39606(19)
H5 H -0.0496 -0.8439 0.4869
C5 C 0.0374(2) -0.75860(18) 0.29453(17)
H6 H 0.0944 -0.6917 0.3175
C6 C 0.03895(16) -0.76619(14) 0.15858(15)
C7 C 0.12444(15) -0.66604(15) 0.04491(14)
C8 C 0.17410(16) -0.54177(15) 0.08186(14)
H7 H 0.1500 -0.5261 0.1757
C9 C 0.25581(15) -0.44240(14) -0.01226(14)
C10 C 0.30340(16) -0.31996(14) 0.04475(14)
C11 C 0.19286(17) -0.24469(16) 0.13959(15)
H8 H 0.0893 -0.2659 0.1602
C12 C 0.2360(2) -0.13866(17) 0.20341(16)
H9 H 0.1620 -0.0870 0.2650
C13 C 0.3900(2) -0.11044(17) 0.17466(17)
C14 C 0.50196(19) -0.18170(18) 0.07947(19)
H10 H 0.6054 -0.1603 0.0599
C15 C 0.45782(17) -0.28560(16) 0.01354(17)
H11 H 0.5322 -0.3330 -0.0524
C16 C 0.36000(19) -0.35019(16) -0.25618(15)
H12 H 0.3673 -0.2671 -0.2116
H13 H 0.2886 -0.3355 -0.3068
C17 C 0.51652(17) -0.38021(15) -0.35862(14)
C18 C 0.6055(2) -0.48633(18) -0.34128(17)
H14 H 0.5696 -0.5436 -0.2630
C19 C 0.7486(2) -0.5094(2) -0.4394(2)
H15 H 0.8079 -0.5810 -0.4259
C20 C 0.8018(2) -0.4261(2) -0.5558(2)
H16 H 0.8969 -0.4419 -0.6217
C21 C 0.7153(3) -0.3202(2) -0.57492(18)
H17 H 0.7522 -0.2634 -0.6535
C22 C 0.5725(2) -0.29667(18) -0.47771(17)
H18 H 0.5139 -0.2248 -0.4921
loop_
_geom_bond_atom_site_label_1
_geom_bond_atom_site_label_2
_geom_bond_site_symmetry_1
_geom_bond_site_symmetry_2
Cl1 C13 1_555 1_555
O1 C7 1_555 1_555
N1 H1 1_555 1_555
C1 H2 1_555 1_555
C2 C1 1_555 1_555
H3 C2 1_555 1_555
C3 C2 1_555 1_555
H4 C3 1_555 1_555
C4 C3 1_555 1_555
H5 C4 1_555 1_555
C5 C4 1_555 1_555
H6 C5 1_555 1_555
C6 C1 1_555 1_555
C7 C6 1_555 1_555
C8 C7 1_555 1_555
H7 C8 1_555 1_555
C9 N1 1_555 1_555
C10 C9 1_555 1_555
C11 C10 1_555 1_555
H8 C11 1_555 1_555
C12 C11 1_555 1_555
H9 C12 1_555 1_555
C13 C12 1_555 1_555
C14 C13 1_555 1_555
H10 C14 1_555 1_555
C15 C10 1_555 1_555
H11 C15 1_555 1_555
C16 N1 1_555 1_555
H12 C16 1_555 1_555
H13 C16 1_555 1_555
C17 C16 1_555 1_555
C18 C17 1_555 1_555
H14 C18 1_555 1_555
C19 C18 1_555 1_555
H15 C19 1_555 1_555
C20 C19 1_555 1_555
H16 C20 1_555 1_555
C21 C20 1_555 1_555
H17 C21 1_555 1_555
C22 C17 1_555 1_555
H18 C22 1_555 1_555
C5 C6 1_555 1_555
C8 C9 1_555 1_555
C14 C15 1_555 1_555
C21 C22 1_555 1_555

#END
