
#######################################################################
#
#                 Cambridge Crystallographic Data Centre
#                                CCDC 
#
#######################################################################
#
# If this CIF has been generated from an entry in the Cambridge 
# Structural Database, then it will include bibliographic, chemical, 
# crystal, experimental, refinement or atomic coordinate data resulting 
# from the CCDC's data processing and validation procedures.
#
#######################################################################

data_COZQIT
_chemical_formula_moiety         'C22 H18 N2 O3'
_chemical_name_systematic        
3-(benzylamino)-3-(4-nitrophenyl)-1-phenylprop-2-en-1-one
_symmetry_cell_setting           triclinic
_symmetry_space_group_name_H-M   'P -1'
_symmetry_Int_Tables_number      2
_space_group_name_Hall           '-P 1'
loop_
_symmetry_equiv_pos_site_id
_symmetry_equiv_pos_as_xyz
1 x,y,z
2 -x,-y,-z
_cell_length_a                   9.464(2)
_cell_length_b                   10.023(2)
_cell_length_c                   10.326(2)
_cell_angle_alpha                86.468(4)
_cell_angle_beta                 68.571(4)
_cell_angle_gamma                89.483(4)
_cell_volume                     909.961
_cell_formula_units_Z            2
loop_
_atom_site_label
_atom_site_type_symbol
_atom_site_fract_x
_atom_site_fract_y
_atom_site_fract_z
O1 O 0.35840(15) 0.68722(13) 0.57583(12)
N1 N 0.20914(18) 0.44985(16) 0.65550(15)
H1 H 0.2300 0.5246 0.6817
C1 C 0.24567(17) 0.44113(17) 0.51852(17)
C2 C 0.46023(19) 0.76303(17) 0.33724(18)
C3 C 0.19385(18) 0.32271(16) 0.46571(17)
C4 C 0.37834(18) 0.66121(17) 0.45365(17)
C5 C 0.32626(19) 0.53971(17) 0.42066(17)
H2 H 0.3479 0.5258 0.3272
C6 C 0.1379(2) 0.34671(19) 0.76513(18)
H3 H 0.2027 0.3298 0.8184
H4 H 0.1310 0.2648 0.7223
C7 C 0.0398(2) 0.29762(18) 0.4989(2)
H5 H -0.0316 0.3491 0.5624
C8 C 0.30007(19) 0.24231(18) 0.37441(17)
H6 H 0.4031 0.2585 0.3524
C9 C 0.5325(2) 0.87027(19) 0.3673(2)
H7 H 0.5267 0.8786 0.4583
C10 C 0.1007(2) 0.11963(18) 0.3478(2)
C11 C 0.2542(2) 0.13890(19) 0.31620(18)
H8 H 0.3249 0.0835 0.2571
O2 O 0.1474(3) -0.0620(2) 0.2106(2)
N2 N 0.0520(3) 0.0119(2) 0.2823(2)
C12 C -0.0187(2) 0.38040(17) 0.86403(16)
C13 C 0.6128(2) 0.9647(2) 0.2639(3)
H9 H 0.6609 1.0358 0.2857
C14 C 0.4665(3) 0.7553(2) 0.2021(2)
H10 H 0.4160 0.6862 0.1802
C15 C -0.0856(3) 0.2975(2) 0.9835(2)
H11 H -0.0340 0.2229 1.0001
C16 C -0.0990(2) 0.4885(2) 0.8426(2)
H12 H -0.0564 0.5453 0.7632
C17 C -0.0077(2) 0.19678(19) 0.4382(2)
H13 H -0.1104 0.1814 0.4579
O3 O -0.0828(3) -0.0058(2) 0.3122(3)
C18 C 0.6220(3) 0.9540(2) 0.1299(3)
H14 H 0.6780 1.0165 0.0599
C19 C 0.5479(3) 0.8505(2) 0.0991(2)
H15 H 0.5523 0.8441 0.0082
C20 C -0.3065(3) 0.4329(3) 1.0543(3)
H16 H -0.4028 0.4505 1.1177
C21 C -0.2426(3) 0.5149(3) 0.9372(2)
H17 H -0.2953 0.5887 0.9205
C22 C -0.2285(3) 0.3245(3) 1.0783(2)
H18 H -0.2715 0.2688 1.1585
loop_
_geom_bond_atom_site_label_1
_geom_bond_atom_site_label_2
_geom_bond_site_symmetry_1
_geom_bond_site_symmetry_2
O1 C4 1_555 1_555
N1 H1 1_555 1_555
C1 N1 1_555 1_555
C2 C4 1_555 1_555
C3 C1 1_555 1_555
C4 C5 1_555 1_555
C5 C1 1_555 1_555
H2 C5 1_555 1_555
C6 N1 1_555 1_555
H3 C6 1_555 1_555
H4 C6 1_555 1_555
C7 C3 1_555 1_555
H5 C7 1_555 1_555
C8 C3 1_555 1_555
H6 C8 1_555 1_555
C9 C2 1_555 1_555
H7 C9 1_555 1_555
C10 C11 1_555 1_555
C11 C8 1_555 1_555
H8 C11 1_555 1_555
O2 N2 1_555 1_555
N2 C10 1_555 1_555
C12 C6 1_555 1_555
C13 C9 1_555 1_555
H9 C13 1_555 1_555
C14 C2 1_555 1_555
H10 C14 1_555 1_555
C15 C12 1_555 1_555
H11 C15 1_555 1_555
C16 C12 1_555 1_555
H12 C16 1_555 1_555
C17 C7 1_555 1_555
H13 C17 1_555 1_555
O3 N2 1_555 1_555
C18 C13 1_555 1_555
H14 C18 1_555 1_555
C19 C14 1_555 1_555
H15 C19 1_555 1_555
C20 H16 1_555 1_555
C21 C16 1_555 1_555
H17 C21 1_555 1_555
C22 C15 1_555 1_555
H18 C22 1_555 1_555
C10 C17 1_555 1_555
C18 C19 1_555 1_555
C20 C21 1_555 1_555
C20 C22 1_555 1_555

#END
