
#######################################################################
#
#                 Cambridge Crystallographic Data Centre
#                                CCDC 
#
#######################################################################
#
# If this CIF has been generated from an entry in the Cambridge 
# Structural Database, then it will include bibliographic, chemical, 
# crystal, experimental, refinement or atomic coordinate data resulting 
# from the CCDC's data processing and validation procedures.
#
#######################################################################

data_COZSIV
_chemical_formula_moiety         'C30 H31 Cl1 N2 O4 S1'
_chemical_name_systematic        
4,4'-(2-chloro-5-((4-methylphenyl)sulfonyl)-5H-indolo[2,3-b]quinoline-6,10b(5aH,11H)-diyl)dibutan-2-one
_symmetry_cell_setting           orthorhombic
_symmetry_space_group_name_H-M   'P 21 21 21'
_symmetry_Int_Tables_number      19
_space_group_name_Hall           'P 2ac 2ab'
loop_
_symmetry_equiv_pos_site_id
_symmetry_equiv_pos_as_xyz
1 x,y,z
2 1/2-x,-y,1/2+z
3 -x,1/2+y,1/2-z
4 1/2+x,1/2-y,-z
_cell_length_a                   10.9100(7)
_cell_length_b                   13.6900(9)
_cell_length_c                   19.1955(12)
_cell_angle_alpha                90
_cell_angle_beta                 90
_cell_angle_gamma                90
_cell_volume                     2867
_exptl_crystal_colour            colorless
_exptl_crystal_description       prismatic
_cell_formula_units_Z            4
loop_
_atom_site_label
_atom_site_type_symbol
_atom_site_fract_x
_atom_site_fract_y
_atom_site_fract_z
S1 S 0.43378(6) 0.25534(6) 0.80385(4)
Cl1 Cl 0.12037(16) -0.04858(8) 0.58586(10)
N1 N 0.38293(19) 0.27428(16) 0.72426(12)
N2 N 0.40895(19) 0.4012(2) 0.63921(14)
O1 O 0.1650(4) 0.6474(2) 0.80675(16)
O2 O 0.7995(2) 0.4067(2) 0.62853(16)
O3 O 0.4944(2) 0.34284(19) 0.82396(12)
O4 O 0.49977(18) 0.16551(17) 0.80281(13)
C1 C 0.3469(2) 0.3743(2) 0.70184(16)
H1 H 0.3687 0.4208 0.7387
C2 C 0.2071(2) 0.3860(2) 0.68425(15)
C3 C 0.1350(2) 0.2950(2) 0.70508(17)
H2 H 0.1283 0.2923 0.7554
H3 H 0.0528 0.2990 0.6860
C4 C 0.1955(3) 0.2033(2) 0.67930(15)
C5 C 0.1348(3) 0.1284(2) 0.6470(2)
H4 H 0.0512 0.1335 0.6382
C6 C 0.1979(4) 0.0454(3) 0.6277(2)
C7 C 0.3231(4) 0.0364(3) 0.6385(2)
H5 H 0.3646 -0.0197 0.6248
C8 C 0.3842(3) 0.1117(2) 0.66951(17)
H6 H 0.4683 0.1072 0.6768
C9 C 0.3217(3) 0.1946(2) 0.69019(15)
C10 C 0.2088(2) 0.4017(2) 0.60670(15)
C11 C 0.3290(3) 0.4132(2) 0.58409(16)
C12 C 0.3547(3) 0.4350(3) 0.51487(18)
H7 H 0.4348 0.4446 0.4998
C13 C 0.2579(4) 0.4417(3) 0.4698(2)
H8 H 0.2736 0.4543 0.4230
C14 C 0.1375(4) 0.4305(3) 0.49120(19)
H9 H 0.0735 0.4361 0.4595
C15 C 0.1139(3) 0.4107(2) 0.56113(16)
H10 H 0.0336 0.4037 0.5766
C16 C 0.1559(3) 0.4763(2) 0.72255(16)
H11 H 0.0677 0.4779 0.7161
H12 H 0.1715 0.4687 0.7720
C17 C 0.2086(3) 0.5736(2) 0.69910(18)
H13 H 0.2965 0.5661 0.6937
H14 H 0.1752 0.5888 0.6535
C18 C 0.1859(3) 0.6583(3) 0.7457(2)
C19 C 0.1906(3) 0.7550(3) 0.7143(2)
H15 H 0.1785 0.8036 0.7497
H16 H 0.1274 0.7607 0.6798
H17 H 0.2692 0.7645 0.6928
C20 C 0.5406(2) 0.4166(2) 0.6353(2)
H18 H 0.5721 0.4269 0.6820
H19 H 0.5565 0.4754 0.6086
C21 C 0.6076(3) 0.3337(3) 0.6028(3)
H20 H 0.5687 0.3172 0.5590
H21 H 0.6017 0.2771 0.6331
C22 C 0.7417(3) 0.3560(2) 0.5897(2)
C23 C 0.8002(4) 0.3088(4) 0.5288(3)
H22 H 0.8367 0.3579 0.4997
H23 H 0.7395 0.2736 0.5027
H24 H 0.8624 0.2644 0.5445
C24 C 0.3037(2) 0.2391(2) 0.85742(14)
C25 C 0.2605(3) 0.3167(2) 0.89542(17)
H25 H 0.2994 0.3770 0.8937
C26 C 0.1576(3) 0.3030(3) 0.93641(17)
H26 H 0.1285 0.3549 0.9630
C27 C 0.0975(3) 0.2154(3) 0.93900(17)
C28 C 0.1419(3) 0.1389(3) 0.8994(2)
H27 H 0.1015 0.0791 0.9001
C29 C 0.2457(3) 0.1499(2) 0.85874(17)
H28 H 0.2757 0.0978 0.8327
C30 C -0.0158(4) 0.2009(4) 0.9848(3)
H29 H -0.0813 0.1747 0.9572
H30 H -0.0404 0.2626 1.0040
H31 H 0.0033 0.1564 1.0219
loop_
_geom_bond_atom_site_label_1
_geom_bond_atom_site_label_2
_geom_bond_site_symmetry_1
_geom_bond_site_symmetry_2
S1 N1 1_555 1_555
Cl1 C6 1_555 1_555
N1 C1 1_555 1_555
N2 C1 1_555 1_555
O1 C18 1_555 1_555
O2 C22 1_555 1_555
O3 S1 1_555 1_555
O4 S1 1_555 1_555
C1 H1 1_555 1_555
C2 C1 1_555 1_555
C3 C2 1_555 1_555
H2 C3 1_555 1_555
H3 C3 1_555 1_555
C4 C3 1_555 1_555
C5 C4 1_555 1_555
H4 C5 1_555 1_555
C6 C5 1_555 1_555
C7 C6 1_555 1_555
H5 C7 1_555 1_555
C8 C7 1_555 1_555
H6 C8 1_555 1_555
C9 N1 1_555 1_555
C10 C2 1_555 1_555
C11 N2 1_555 1_555
C12 C11 1_555 1_555
H7 C12 1_555 1_555
C13 C12 1_555 1_555
H8 C13 1_555 1_555
C14 C13 1_555 1_555
H9 C14 1_555 1_555
C15 C10 1_555 1_555
H10 C15 1_555 1_555
C16 C2 1_555 1_555
H11 C16 1_555 1_555
H12 C16 1_555 1_555
C17 C16 1_555 1_555
H13 C17 1_555 1_555
H14 C17 1_555 1_555
C18 C17 1_555 1_555
C19 C18 1_555 1_555
H15 C19 1_555 1_555
H16 C19 1_555 1_555
H17 C19 1_555 1_555
C20 N2 1_555 1_555
H18 C20 1_555 1_555
H19 C20 1_555 1_555
C21 C20 1_555 1_555
H20 C21 1_555 1_555
H21 C21 1_555 1_555
C22 C21 1_555 1_555
C23 C22 1_555 1_555
H22 C23 1_555 1_555
H23 C23 1_555 1_555
H24 C23 1_555 1_555
C24 S1 1_555 1_555
C25 C24 1_555 1_555
H25 C25 1_555 1_555
C26 C25 1_555 1_555
H26 C26 1_555 1_555
C27 C26 1_555 1_555
C28 C27 1_555 1_555
H27 C28 1_555 1_555
C29 C24 1_555 1_555
H28 C29 1_555 1_555
C30 C27 1_555 1_555
H29 C30 1_555 1_555
H30 C30 1_555 1_555
H31 C30 1_555 1_555
C4 C9 1_555 1_555
C8 C9 1_555 1_555
C10 C11 1_555 1_555
C14 C15 1_555 1_555
C28 C29 1_555 1_555

#END
