
#######################################################################
#
#                 Cambridge Crystallographic Data Centre
#                                CCDC 
#
#######################################################################
#
# If this CIF has been generated from an entry in the Cambridge 
# Structural Database, then it will include bibliographic, chemical, 
# crystal, experimental, refinement or atomic coordinate data resulting 
# from the CCDC's data processing and validation procedures.
#
#######################################################################

data_COZTAM
_chemical_formula_moiety         'C13 H18 N2 O4'
_chemical_name_systematic        2,4-bis(Ethoxycarbonylamido)-toluene
_symmetry_cell_setting           monoclinic
_symmetry_space_group_name_H-M   'C c'
_symmetry_Int_Tables_number      9
_space_group_name_Hall           'C -2yc'
loop_
_symmetry_equiv_pos_site_id
_symmetry_equiv_pos_as_xyz
1 x,y,z
2 1/2+x,1/2+y,z
3 x,-y,1/2+z
4 1/2+x,1/2-y,1/2+z
_cell_length_a                   8.251(2)
_cell_length_b                   16.256(6)
_cell_length_c                   10.862(2)
_cell_angle_alpha                90
_cell_angle_beta                 104.66(4)
_cell_angle_gamma                90
_cell_volume                     1409.47
_exptl_crystal_colour            colorless
_chemical_melting_point          137-138deg.C
_cell_formula_units_Z            4
loop_
_atom_site_label
_atom_site_type_symbol
_atom_site_fract_x
_atom_site_fract_y
_atom_site_fract_z
C1 C -0.0009(3) 0.3688(2) 0.0177(2)
C2 C -0.0537(4) 0.3295(3) -0.0987(4)
C3 C -0.1677(3) 0.3654(3) -0.2004(4)
C4 C -0.2277(4) 0.4441(3) -0.1867(4)
C5 C -0.1739(4) 0.4846(2) -0.0703(3)
C6 C -0.0633(3) 0.4455(4) 0.0308(3)
C7 C 0.1234(2) 0.3293(2) 0.1284(3)
C8 C 0.0693(3) 0.2195(4) -0.2089(4)
C9 C 0.1263(3) 0.2442(3) -0.4053(4)
C10 C 0.0648(5) 0.2991(4) -0.5155(4)
C11 C -0.4458(4) 0.4513(4) -0.3899(5)
C12 C -0.6441(5) 0.4838(6) -0.5831(5)
C13 C -0.6929(6) 0.5650(4) -0.6583(4)
N1 N 0.0064(3) 0.2485(3) -0.1128(2)
N2 N -0.3428(4) 0.4855(2) -0.2863(4)
O1 O 0.1236(3) 0.1505(2) -0.2091(4)
O2 O 0.0605(4) 0.2721(6) -0.3017(6)
O3 O -0.4576(3) 0.3795(4) -0.4168(4)
O4 O -0.5363(4) 0.5108(5) -0.4619(5)
loop_
_geom_bond_atom_site_label_1
_geom_bond_atom_site_label_2
_geom_bond_site_symmetry_1
_geom_bond_site_symmetry_2
C1 C2 1_555 1_555
C2 C3 1_555 1_555
C3 C4 1_555 1_555
C4 C5 1_555 1_555
C5 C6 1_555 1_555
C6 C1 1_555 1_555
C7 C1 1_555 1_555
C8 N1 1_555 1_555
C9 C10 1_555 1_555
C11 N2 1_555 1_555
C12 C13 1_555 1_555
N1 C2 1_555 1_555
N2 C4 1_555 1_555
O1 C8 1_555 1_555
O2 C8 1_555 1_555
O3 C11 1_555 1_555
O4 C11 1_555 1_555
C9 O2 1_555 1_555
C12 O4 1_555 1_555

#END
