
#######################################################################
#
#                 Cambridge Crystallographic Data Centre
#                                CCDC 
#
#######################################################################
#
# If this CIF has been generated from an entry in the Cambridge 
# Structural Database, then it will include bibliographic, chemical, 
# crystal, experimental, refinement or atomic coordinate data resulting 
# from the CCDC's data processing and validation procedures.
#
#######################################################################

data_COZTIU
_chemical_formula_moiety         'C13 H17 N1 O3'
_chemical_name_systematic        'N-2-Propenyl cantharidinimide'
_chemical_properties_biological  'antitumour activity'
_symmetry_cell_setting           monoclinic
_symmetry_space_group_name_H-M   'P 21/c'
_symmetry_Int_Tables_number      14
_space_group_name_Hall           '-P 2ybc'
loop_
_symmetry_equiv_pos_site_id
_symmetry_equiv_pos_as_xyz
1 x,y,z
2 -x,1/2+y,1/2-z
3 -x,-y,-z
4 x,1/2-y,1/2+z
_cell_length_a                   6.995
_cell_length_b                   24.779
_cell_length_c                   7.359
_cell_angle_alpha                90
_cell_angle_beta                 111.39
_cell_angle_gamma                90
_cell_volume                     1187.67
_cell_formula_units_Z            4
loop_
_atom_site_label
_atom_site_type_symbol
_atom_site_fract_x
_atom_site_fract_y
_atom_site_fract_z
C1 C -0.3513(1) 0.6320 -0.2424(4)
C2 C -0.2822(4) 0.6417(1) -0.4162(4)
C3 C -0.3628(1) 0.5974(1) -0.5712(2)
C4 C -0.2233(5) 0.5490(1) -0.4730(5)
C5 C -0.0933(1) 0.5735 -0.2764(1)
C6 C -0.2213 0.5814 -0.1450
C7 C -0.0802 0.6012 0.0535(1)
C8 C -0.2614 0.6768 -0.0950
C9 C -0.5836 0.6301 -0.2914
C10 C -0.3349(1) 0.5317 -0.1166(1)
C11 C 0.0010 0.6876 0.2410(2)
C12 C 0.2050(2) 0.7061 0.2395(1)
C13 C 0.2821 0.6958 0.1087(1)
N1 N -0.1147(3) 0.6556 0.0701(1)
O1 O -0.3093 0.7239 -0.1147(1)
O2 O 0.0420 0.5749 0.1804(1)
O3 O -0.0664 0.6283 -0.3272(1)
H1 H -0.298(5) 0.685(1) -0.462(5)
H2 H -0.522(5) 0.587(1) -0.607(5)
H3 H -0.346(6) 0.606(1) -0.708(5)
H4 H -0.300(5) 0.514(1) -0.459(5)
H5 H -0.128(5) 0.537(1) -0.551(5)
H6 H 0.044(4) 0.554(1) -0.205(4)
H7 H -0.618(5) 0.621(1) -0.167(5)
H8 H -0.655(6) 0.669(1) -0.334(5)
H9 H -0.662(6) 0.600(2) -0.382(6)
H10 H -0.400(6) 0.535(2) -0.001(6)
H11 H -0.445(5) 0.520(1) -0.236(5)
H12 H -0.228(6) 0.500(2) -0.077(5)
H13 H -0.092(5) 0.721(1) 0.243(4)
H14 H 0.017(5) 0.667(1) 0.366(5)
H15 H 0.291(5) 0.728(1) 0.355(5)
H16 H 0.204(5) 0.681(1) 0.010(5)
H17 H 0.427(6) 0.715(2) 0.118(4)
loop_
_geom_bond_atom_site_label_1
_geom_bond_atom_site_label_2
_geom_bond_site_symmetry_1
_geom_bond_site_symmetry_2
C1 C2 1_555 1_555
C2 C3 1_555 1_555
C3 C4 1_555 1_555
C4 C5 1_555 1_555
C5 C6 1_555 1_555
C6 C1 1_555 1_555
C7 C6 1_555 1_555
C8 C1 1_555 1_555
C9 C1 1_555 1_555
C10 C6 1_555 1_555
C11 C12 1_555 1_555
C12 C13 1_555 1_555
C13 H16 1_555 1_555
N1 C7 1_555 1_555
O1 C8 1_555 1_555
O2 C7 1_555 1_555
O3 C2 1_555 1_555
H1 C2 1_555 1_555
H2 C3 1_555 1_555
H3 C3 1_555 1_555
H4 C4 1_555 1_555
H5 C4 1_555 1_555
H6 C5 1_555 1_555
H7 C9 1_555 1_555
H8 C9 1_555 1_555
H9 C9 1_555 1_555
H10 C10 1_555 1_555
H11 C10 1_555 1_555
H12 C10 1_555 1_555
H13 C11 1_555 1_555
H14 C11 1_555 1_555
H15 C12 1_555 1_555
H17 C13 1_555 1_555
C5 O3 1_555 1_555
C8 N1 1_555 1_555
C11 N1 1_555 1_555

#END
