
#######################################################################
#
#                 Cambridge Crystallographic Data Centre
#                                CCDC 
#
#######################################################################
#
# If this CIF has been generated from an entry in the Cambridge 
# Structural Database, then it will include bibliographic, chemical, 
# crystal, experimental, refinement or atomic coordinate data resulting 
# from the CCDC's data processing and validation procedures.
#
#######################################################################

data_CPQZOL
_chemical_formula_moiety         'C19 H18 N2 O2'
_chemical_name_systematic        
1-(Cyclopropylmethyl)-4-phenyl-6-methoxy-2(1H)-quinazolinone
_symmetry_cell_setting           monoclinic
_symmetry_space_group_name_H-M   'P 21/a'
_symmetry_Int_Tables_number      14
_space_group_name_Hall           '-P 2yab'
loop_
_symmetry_equiv_pos_site_id
_symmetry_equiv_pos_as_xyz
1 x,y,z
2 1/2-x,1/2+y,-z
3 -x,-y,-z
4 1/2+x,1/2-y,z
_cell_length_a                   17.395(11)
_cell_length_b                   8.371(5)
_cell_length_c                   10.871(7)
_cell_angle_alpha                90
_cell_angle_beta                 99.57(7)
_cell_angle_gamma                90
_cell_volume                     1560.94
_cell_formula_units_Z            4
loop_
_atom_site_label
_atom_site_type_symbol
_atom_site_fract_x
_atom_site_fract_y
_atom_site_fract_z
C1 C 0.40130 -0.17990 -0.43180
C2 C 0.40320 -0.31350 -0.62200
C3 C 0.35620 -0.37610 -0.73860
C4 C 0.28870 -0.46030 -0.73240
C5 C 0.24480 -0.52500 -0.84120
C6 C 0.27020 -0.50550 -0.95430
C7 C 0.33510 -0.41560 -0.96400
C8 C 0.37980 -0.35260 -0.85550
C9 C 0.48780 -0.32450 -0.59920
C10 C 0.53050 -0.40800 -0.67610
C11 C 0.61100 -0.40340 -0.65130
C12 C 0.72880 -0.52110 -0.69210
C13 C 0.65030 -0.31620 -0.54970
C14 C 0.60810 -0.23840 -0.46980
C15 C 0.52640 -0.24320 -0.49200
C16 C 0.52090 -0.08580 -0.29770
C17 C 0.55440 -0.20140 -0.19440
C18 C 0.56900 -0.13340 -0.06340
C19 C 0.50280 -0.25030 -0.10240
N1 N 0.48200 -0.16930 -0.41130
N2 N 0.36340 -0.24830 -0.54300
O1 O 0.36380 -0.12680 -0.35520
O2 O 0.64740 -0.48580 -0.73290
H1 H 0.26900 -0.47600 -0.64230
H2 H 0.19080 -0.58880 -0.83660
H3 H 0.23820 -0.56370 -1.03780
H4 H 0.35180 -0.39480 -1.05520
H5 H 0.43300 -0.28370 -0.86120
H6 H 0.50040 -0.47600 -0.75590
H7 H 0.71400 -0.31110 -0.53310
H8 H 0.63850 -0.17280 -0.38920
H9 H 0.47930 -0.00810 -0.26390
H10 H 0.56730 -0.01170 -0.32130
H11 H 0.50630 -0.37070 -0.06370
H12 H 0.44280 -0.21360 -0.11410
H13 H 0.61990 -0.16500 0.00220
H14 H 0.55650 -0.00780 -0.04820
H15 H 0.58810 -0.26700 -0.25200
H16 H 0.74000 -0.56000 -0.74000
H17 H 0.74000 -0.58000 -0.60000
loop_
_geom_bond_atom_site_label_1
_geom_bond_atom_site_label_2
_geom_bond_site_symmetry_1
_geom_bond_site_symmetry_2
C1 N1 1_555 1_555
C2 C3 1_555 1_555
C3 C4 1_555 1_555
C4 C5 1_555 1_555
C5 C6 1_555 1_555
C6 C7 1_555 1_555
C7 C8 1_555 1_555
C8 C3 1_555 1_555
C9 C2 1_555 1_555
C10 C9 1_555 1_555
C11 C10 1_555 1_555
C12 O2 1_555 1_555
C13 C11 1_555 1_555
C14 C13 1_555 1_555
C15 C9 1_555 1_555
C16 C17 1_555 1_555
C17 C18 1_555 1_555
C18 C19 1_555 1_555
C19 C17 1_555 1_555
N1 C15 1_555 1_555
N2 C1 1_555 1_555
O1 C1 1_555 1_555
O2 C11 1_555 1_555
H1 C4 1_555 1_555
H2 C5 1_555 1_555
H3 C6 1_555 1_555
H4 C7 1_555 1_555
H5 C8 1_555 1_555
H6 C10 1_555 1_555
H7 C13 1_555 1_555
H8 C14 1_555 1_555
H9 C16 1_555 1_555
H10 C16 1_555 1_555
H11 C19 1_555 1_555
H12 C19 1_555 1_555
H13 C18 1_555 1_555
H14 C18 1_555 1_555
H15 C17 1_555 1_555
H16 C12 1_555 1_555
H17 C12 1_555 1_555
C2 N2 1_555 1_555
C14 C15 1_555 1_555
C16 N1 1_555 1_555

#END
