
#######################################################################
#
#                 Cambridge Crystallographic Data Centre
#                                CCDC 
#
#######################################################################
#
# If this CIF has been generated from an entry in the Cambridge 
# Structural Database, then it will include bibliographic, chemical, 
# crystal, experimental, refinement or atomic coordinate data resulting 
# from the CCDC's data processing and validation procedures.
#
#######################################################################

data_CPTCET11
_chemical_name_common            DDT
_chemical_formula_moiety         'C14 H9 Cl5'
_chemical_name_systematic        1,1,1-trichloro-2,2-bis(4-chlorophenyl)ethane
_chemical_properties_biological  'contact insecticide'
_symmetry_cell_setting           orthorhombic
_symmetry_space_group_name_H-M   'P 21 21 21'
_symmetry_Int_Tables_number      19
_space_group_name_Hall           'P 2ac 2ab'
loop_
_symmetry_equiv_pos_site_id
_symmetry_equiv_pos_as_xyz
1 x,y,z
2 1/2-x,-y,1/2+z
3 -x,1/2+y,1/2-z
4 1/2+x,1/2-y,-z
_cell_length_a                   9.6675(8)
_cell_length_b                   15.7441(13)
_cell_length_c                   19.2261(17)
_cell_angle_alpha                90
_cell_angle_beta                 90
_cell_angle_gamma                90
_cell_volume                     2926.33
_exptl_crystal_colour            colorless
_exptl_crystal_description       plate
_cell_formula_units_Z            8
loop_
_atom_site_label
_atom_site_type_symbol
_atom_site_fract_x
_atom_site_fract_y
_atom_site_fract_z
Cl1 Cl 0.13946(12) 0.87305(7) 0.43892(6)
Cl2 Cl 0.36781(13) 0.98304(7) 0.40455(6)
Cl3 Cl 0.40935(14) 0.84190(8) 0.49675(6)
Cl4 Cl 0.26985(15) 0.95945(9) 0.07000(6)
Cl5 Cl 0.17604(17) 0.45950(7) 0.41239(6)
C1 C 0.3204(5) 0.8762(3) 0.4205(2)
C2 C 0.3628(4) 0.8193(3) 0.3587(2)
H1 H 0.465980 0.816507 0.361239
C3 C 0.3323(4) 0.8565(3) 0.2874(2)
C4 C 0.2049(5) 0.8887(3) 0.2665(2)
H2 H 0.129227 0.888209 0.298007
C5 C 0.1872(5) 0.9216(3) 0.1999(2)
H3 H 0.100614 0.944991 0.186430
C6 C 0.2954(5) 0.9202(3) 0.1540(2)
C7 C 0.4226(5) 0.8876(3) 0.1723(2)
H4 H 0.496690 0.886829 0.139800
C8 C 0.4404(5) 0.8560(3) 0.2388(2)
H5 H 0.527779 0.833566 0.251804
C9 C 0.3153(5) 0.7279(3) 0.3690(2)
C10 C 0.1824(5) 0.7010(3) 0.3498(2)
H6 H 0.121026 0.739486 0.327443
C11 C 0.1403(5) 0.6188(3) 0.3634(2)
H7 H 0.049694 0.600943 0.351062
C12 C 0.2305(6) 0.5626(3) 0.3948(2)
C13 C 0.3648(5) 0.5875(3) 0.4121(2)
H8 H 0.427482 0.548135 0.432203
C14 C 0.4049(5) 0.6697(3) 0.3995(2)
H9 H 0.495623 0.687202 0.411999
Cl6 Cl 0.56590(11) 0.41574(8) 0.69335(6)
Cl7 Cl 0.46387(11) 0.40467(7) 0.55392(6)
Cl8 Cl 0.41232(11) 0.26741(7) 0.65113(6)
Cl9 Cl -0.24725(12) 0.25677(8) 0.58307(7)
Cl10 Cl 0.27513(13) 0.80388(7) 0.65732(6)
C15 C 0.4245(4) 0.3796(3) 0.6419(2)
C16 C 0.2902(4) 0.4206(3) 0.6698(2)
H10 H 0.291417 0.409164 0.720935
C17 C 0.1563(4) 0.3799(3) 0.6438(2)
C18 C 0.0498(4) 0.3694(3) 0.6923(2)
H11 H 0.063328 0.387722 0.738844
C19 C -0.0741(5) 0.3331(3) 0.6736(2)
H12 H -0.146407 0.327207 0.706743
C20 C -0.0919(4) 0.3051(3) 0.6059(2)
C21 C 0.0100(4) 0.3142(3) 0.5574(2)
H13 H -0.004299 0.295128 0.511058
C22 C 0.1345(4) 0.3514(3) 0.5761(2)
H14 H 0.205680 0.357467 0.542461
C23 C 0.2897(4) 0.5171(3) 0.6636(2)
C24 C 0.2532(5) 0.5591(3) 0.6027(2)
H15 H 0.229117 0.527034 0.562606
C25 C 0.2515(4) 0.6474(3) 0.5995(2)
H16 H 0.228001 0.675815 0.557565
C26 C 0.2850(4) 0.6932(3) 0.6592(2)
C27 C 0.3209(5) 0.6528(3) 0.7200(2)
H17 H 0.343624 0.684678 0.760306
C28 C 0.3234(4) 0.5652(3) 0.7216(2)
H18 H 0.348817 0.537157 0.763404
loop_
_geom_bond_atom_site_label_1
_geom_bond_atom_site_label_2
_geom_bond_site_symmetry_1
_geom_bond_site_symmetry_2
Cl1 C1 1_555 1_555
Cl2 C1 1_555 1_555
Cl3 C1 1_555 1_555
Cl4 C6 1_555 1_555
Cl5 C12 1_555 1_555
C1 C2 1_555 1_555
C2 H1 1_555 1_555
C3 C2 1_555 1_555
C4 C3 1_555 1_555
H2 C4 1_555 1_555
C5 C4 1_555 1_555
H3 C5 1_555 1_555
C6 C5 1_555 1_555
C7 C6 1_555 1_555
H4 C7 1_555 1_555
C8 C3 1_555 1_555
H5 C8 1_555 1_555
C9 C2 1_555 1_555
C10 C9 1_555 1_555
H6 C10 1_555 1_555
C11 C10 1_555 1_555
H7 C11 1_555 1_555
C12 C11 1_555 1_555
C13 C12 1_555 1_555
H8 C13 1_555 1_555
C14 C9 1_555 1_555
H9 C14 1_555 1_555
Cl6 C15 1_555 1_555
Cl7 C15 1_555 1_555
Cl8 C15 1_555 1_555
Cl9 C20 1_555 1_555
Cl10 C26 1_555 1_555
C15 C16 1_555 1_555
C16 H10 1_555 1_555
C17 C16 1_555 1_555
C18 C17 1_555 1_555
H11 C18 1_555 1_555
C19 C18 1_555 1_555
H12 C19 1_555 1_555
C20 C19 1_555 1_555
C21 C20 1_555 1_555
H13 C21 1_555 1_555
C22 C17 1_555 1_555
H14 C22 1_555 1_555
C23 C16 1_555 1_555
C24 C23 1_555 1_555
H15 C24 1_555 1_555
C25 C24 1_555 1_555
H16 C25 1_555 1_555
C26 C25 1_555 1_555
C27 C26 1_555 1_555
H17 C27 1_555 1_555
C28 C23 1_555 1_555
H18 C28 1_555 1_555
C7 C8 1_555 1_555
C13 C14 1_555 1_555
C21 C22 1_555 1_555
C27 C28 1_555 1_555

#END
