
#######################################################################
#
#                 Cambridge Crystallographic Data Centre
#                                CCDC 
#
#######################################################################
#
# If this CIF has been generated from an entry in the Cambridge 
# Structural Database, then it will include bibliographic, chemical, 
# crystal, experimental, refinement or atomic coordinate data resulting 
# from the CCDC's data processing and validation procedures.
#
#######################################################################

data_CRBMZC10
_chemical_name_common            '(R)-Baclofen monohydrochloride'
_chemical_formula_moiety         'C10 H13 Cl1 N1 O2 1+,Cl1 1-'
_chemical_name_systematic        
'(R)-\g-Amino-\b-(p-chlorophenyl)-butyric acid monohydrochloride'
_chemical_properties_biological  'antispastic drug'
_symmetry_cell_setting           orthorhombic
_symmetry_space_group_name_H-M   'P 21 21 21'
_symmetry_Int_Tables_number      19
_space_group_name_Hall           'P 2ac 2ab'
loop_
_symmetry_equiv_pos_site_id
_symmetry_equiv_pos_as_xyz
1 x,y,z
2 1/2+x,1/2-y,-z
3 -x,1/2+y,1/2-z
4 1/2-x,-y,1/2+z
_cell_length_a                   6.373(1)
_cell_length_b                   7.318(2)
_cell_length_c                   25.699(5)
_cell_angle_alpha                90
_cell_angle_beta                 90
_cell_angle_gamma                90
_cell_volume                     1198.54
_exptl_crystal_colour            white
_cell_formula_units_Z            4
loop_
_atom_site_label
_atom_site_type_symbol
_atom_site_fract_x
_atom_site_fract_y
_atom_site_fract_z
Cl1 Cl 0.90430 0.49770 -0.17290
O1 O 0.14960 0.33940 -0.44110
O2 O 0.47060 0.25950 -0.41400
N1 N 0.57440 0.90320 -0.45010
C1 C 0.33580 0.37310 -0.41950
C2 C 0.35160 0.56790 -0.40190
C3 C 0.57550 0.63060 -0.38980
C4 C 0.59600 0.83760 -0.39510
C5 C 0.64680 0.58170 -0.33500
C6 C 0.54010 0.64480 -0.29150
C7 C 0.61680 0.61860 -0.24150
C8 C 0.80310 0.52750 -0.23540
C9 C 0.91000 0.45750 -0.27750
C10 C 0.83110 0.48610 -0.32720
H1 H 0.15800 0.23500 -0.44500
H2 H 0.29600 0.63600 -0.42400
H3 H 0.26400 0.58600 -0.36900
H4 H 0.67100 0.57900 -0.41400
H5 H 0.73900 0.87300 -0.38400
H6 H 0.51200 0.90000 -0.37400
H7 H 0.43300 0.71200 -0.29400
H8 H 0.56000 0.65700 -0.21100
H9 H 1.02700 0.39600 -0.27500
H10 H 0.90600 0.43600 -0.35400
H11 H 0.68500 0.83300 -0.45900
H12 H 0.59700 1.01900 -0.46100
H13 H 0.45700 0.86000 -0.46500
Cl2 Cl 0.06840 0.93810 -0.46930
loop_
_geom_bond_atom_site_label_1
_geom_bond_atom_site_label_2
_geom_bond_site_symmetry_1
_geom_bond_site_symmetry_2
Cl1 C8 1_555 1_555
O1 C1 1_555 1_555
O2 C1 1_555 1_555
N1 C4 1_555 1_555
C1 C2 1_555 1_555
C2 C3 1_555 1_555
C3 C4 1_555 1_555
C4 H5 1_555 1_555
C5 C3 1_555 1_555
C6 C5 1_555 1_555
C7 C6 1_555 1_555
C8 C7 1_555 1_555
C9 C8 1_555 1_555
C10 C5 1_555 1_555
H1 O1 1_555 1_555
H2 C2 1_555 1_555
H3 C2 1_555 1_555
H4 C3 1_555 1_555
H6 C4 1_555 1_555
H7 C6 1_555 1_555
H8 C7 1_555 1_555
H9 C9 1_555 1_555
H10 C10 1_555 1_555
H11 N1 1_555 1_555
H12 N1 1_555 1_555
H13 N1 1_555 1_555
C9 C10 1_555 1_555

#END
