
#######################################################################
#
#                 Cambridge Crystallographic Data Centre
#                                CCDC 
#
#######################################################################
#
# If this CIF has been generated from an entry in the Cambridge 
# Structural Database, then it will include bibliographic, chemical, 
# crystal, experimental, refinement or atomic coordinate data resulting 
# from the CCDC's data processing and validation procedures.
#
#######################################################################

data_CRBZOL12
_chemical_formula_moiety         'C12 H9 N1'
_chemical_name_systematic        9H-carbazole
_symmetry_cell_setting           orthorhombic
_symmetry_space_group_name_H-M   'P n m a'
_symmetry_Int_Tables_number      62
_space_group_name_Hall           '-P 2ac 2n'
loop_
_symmetry_equiv_pos_site_id
_symmetry_equiv_pos_as_xyz
1 x,y,z
2 1/2+x,1/2-y,1/2-z
3 -x,1/2+y,-z
4 1/2-x,-y,1/2+z
5 -x,-y,-z
6 1/2-x,1/2+y,1/2+z
7 x,1/2-y,z
8 1/2+x,y,1/2-z
_cell_length_a                   7.6589(2)
_cell_length_b                   19.0353(5)
_cell_length_c                   5.68140(10)
_cell_angle_alpha                90
_cell_angle_beta                 90
_cell_angle_gamma                90
_cell_volume                     828.288
_exptl_crystal_colour            yellow
_exptl_crystal_description       plate
_cell_formula_units_Z            4
loop_
_atom_site_label
_atom_site_type_symbol
_atom_site_fract_x
_atom_site_fract_y
_atom_site_fract_z
C1 C 0.29000(14) 0.30940(6) 0.35799(19)
C2 C 0.26313(16) 0.38000(7) 0.3040(2)
C3 C 0.32344(16) 0.42910(7) 0.4638(2)
C4 C 0.40862(16) 0.40909(7) 0.6717(2)
C5 C 0.43403(15) 0.33902(6) 0.7247(2)
C6 C 0.37399(13) 0.28818(6) 0.56803(19)
N1 N 0.24211(18) 0.2500 0.2332(2)
H1 H 0.2017 0.3942 0.1576
H2 H 0.3071 0.4805 0.4290
H3 H 0.4529 0.4465 0.7809
H4 H 0.4940 0.3244 0.8725
H5 H 0.1726 0.2500 0.1020
C1F C 0.29000(14) 0.19060(6) 0.35799(19)
C2F C 0.26313(16) 0.12000(7) 0.3040(2)
C3F C 0.32344(16) 0.07090(7) 0.4638(2)
C4F C 0.40862(16) 0.09091(7) 0.6717(2)
C5F C 0.43403(15) 0.16098(6) 0.7247(2)
C6F C 0.37399(13) 0.21182(6) 0.56803(19)
H1F H 0.2017 0.1058 0.1576
H2F H 0.3071 0.0195 0.4290
H3F H 0.4529 0.0535 0.7809
H4F H 0.4940 0.1756 0.8725
loop_
_geom_bond_atom_site_label_1
_geom_bond_atom_site_label_2
_geom_bond_site_symmetry_1
_geom_bond_site_symmetry_2
C1 C2 1_555 1_555
C2 C3 1_555 1_555
C3 C4 1_555 1_555
C4 C5 1_555 1_555
C5 C6 1_555 1_555
C6 C1 1_555 1_555
N1 C1 1_555 1_555
H1 C2 1_555 1_555
H2 C3 1_555 1_555
H3 C4 1_555 1_555
H4 C5 1_555 1_555
H5 N1 1_555 1_555
C1F N1 1_555 1_555
C2F C1F 1_555 1_555
C3F C2F 1_555 1_555
C4F C3F 1_555 1_555
C5F C4F 1_555 1_555
C6F C6 1_555 1_555
H1F C2F 1_555 1_555
H2F C3F 1_555 1_555
H3F C4F 1_555 1_555
H4F C5F 1_555 1_555
C1F C6F 1_555 1_555
C5F C6F 1_555 1_555

#END
