
#######################################################################
#
#                 Cambridge Crystallographic Data Centre
#                                CCDC 
#
#######################################################################
#
# If this CIF has been generated from an entry in the Cambridge 
# Structural Database, then it will include bibliographic, chemical, 
# crystal, experimental, refinement or atomic coordinate data resulting 
# from the CCDC's data processing and validation procedures.
#
#######################################################################

data_CUBVAY
_chemical_name_common            
"cesium 25,27-(2,2'-[(5,10,10,15,20,20-hexamethyl-5,10,15,20,22,24-hexahydroporphyrin-5,15-diyl)bis(benzene-4,1-diyloxy)]diethanolate)-26,28-bis(2-ethoxy-2-oxoethanolate)calix(4)arene fluoride methanol chloroform solvate"
_chemical_formula_moiety         
'C78 H80 N4 O10,C1 H4 O1,Cs1 1+,F1 1-,C1 H1 Cl3'
_chemical_name_systematic        
"cesium diethyl 2,2'-((1,37,42,42,51,51-hexamethyl-6,9,29,32-tetraoxa-56,57,58,59-tetraazatridecacyclo[35.9.9.7^11,27^.2^2,5^.2^33,36^.1^17,21^.1^38,41^.1^43,46^.1^47,50^.1^52,55^.1^63,67^.0^10,15^.0^23,28^]doheptaconta-2,4,10,12,14,17(69),18,20,23,25,27,33,35,38,40,43,45,47,49,52,54,60,63(72),64,66,70-hexacosaene-69,72-diyl)bis(oxy))diacetate fluoride methanol chloroform solvate"
_symmetry_cell_setting           monoclinic
_symmetry_space_group_name_H-M   'P 21/n'
_symmetry_Int_Tables_number      14
_space_group_name_Hall           '-P 2yn'
loop_
_symmetry_equiv_pos_site_id
_symmetry_equiv_pos_as_xyz
1 x,y,z
2 1/2-x,1/2+y,1/2-z
3 -x,-y,-z
4 1/2+x,1/2-y,1/2+z
_cell_length_a                   11.0900(12)
_cell_length_b                   33.038(3)
_cell_length_c                   20.233(2)
_cell_angle_alpha                90
_cell_angle_beta                 102.967(3)
_cell_angle_gamma                90
_cell_volume                     7224.16
_exptl_crystal_colour            colorless
_exptl_crystal_description       prisms
_cell_formula_units_Z            4
loop_
_atom_site_label
_atom_site_type_symbol
_atom_site_fract_x
_atom_site_fract_y
_atom_site_fract_z
Cs1 Cs 0.91194(3) 0.715387(8) 0.906291(14)
F1 F 0.51785(18) 0.69629(6) 0.53168(11)
O11 O 0.6002(3) 0.64102(11) 0.63021(18)
H81 H 0.5830 0.6578 0.6011
C79 C 0.5234(5) 0.60980(18) 0.6014(3)
H82 H 0.5552 0.5842 0.6228
H83 H 0.5206 0.6085 0.5527
H84 H 0.4399 0.6146 0.6084
O1 O 0.4420(2) 0.64560(8) 0.80087(13)
O2 O 0.6059(2) 0.58750(7) 0.87353(12)
O3 O 0.7561(3) 0.50965(8) 0.66493(13)
O4 O 0.7886(3) 0.55962(8) 0.55483(14)
O5 O 0.8122(2) 0.57101(7) 0.80293(13)
O6 O 0.8007(2) 0.66304(8) 0.78749(14)
O7 O 0.8879(3) 0.64036(8) 0.70426(14)
O8 O 0.5561(2) 0.51226(7) 0.76486(13)
O9 O 0.4234(3) 0.50918(10) 0.62653(16)
O10 O 0.2938(3) 0.55654(10) 0.65111(16)
N1 N 0.2724(3) 0.71986(10) 0.49533(16)
H1 H 0.3474 0.7099 0.5090
N2 N 0.5067(3) 0.77411(10) 0.57694(16)
H2 H 0.5157 0.7480 0.5707
N3 N 0.6795(3) 0.74048(9) 0.47391(15)
H3 H 0.6422 0.7237 0.4966
N4 N 0.4430(3) 0.68529(9) 0.39228(15)
H4 H 0.4689 0.6802 0.4359
C1 C 0.1894(3) 0.70819(12) 0.4373(2)
C2 C 0.0845(4) 0.73138(13) 0.4333(2)
H5 H 0.0117 0.7305 0.3981
C3 C 0.1054(4) 0.75668(12) 0.4912(2)
H6 H 0.0481 0.7756 0.5020
C4 C 0.2223(3) 0.74930(12) 0.5291(2)
C5 C 0.2897(4) 0.76693(12) 0.5963(2)
C6 C 0.4004(4) 0.79190(12) 0.58798(19)
C7 C 0.4240(4) 0.83250(13) 0.5939(2)
H7 H 0.3675 0.8527 0.6014
C8 C 0.5467(4) 0.83939(12) 0.5872(2)
H8 H 0.5869 0.8649 0.5894
C9 C 0.5966(4) 0.80276(12) 0.57696(19)
C10 C 0.7258(4) 0.79167(12) 0.5686(2)
C11 C 0.7254(3) 0.77797(11) 0.4967(2)
C12 C 0.7723(3) 0.79497(12) 0.4467(2)
H9 H 0.8085 0.8211 0.4478
C13 C 0.7576(3) 0.76667(12) 0.3923(2)
H10 H 0.7829 0.7705 0.3509
C14 C 0.7007(3) 0.73318(12) 0.4103(2)
C15 C 0.6595(3) 0.69391(11) 0.37348(19)
C16 C 0.5191(3) 0.69402(10) 0.34911(18)
C17 C 0.4446(4) 0.70099(11) 0.2865(2)
H11 H 0.4714 0.7081 0.2466
C18 C 0.3194(4) 0.69559(13) 0.2918(2)
H12 H 0.2480 0.6984 0.2560
C19 C 0.3207(3) 0.68560(11) 0.35795(19)
C20 C 0.2163(3) 0.67446(12) 0.3916(2)
C21 C 0.1997(4) 0.79476(13) 0.6235(2)
H13 H 0.2425 0.8065 0.6669
H14 H 0.1285 0.7789 0.6300
H15 H 0.1711 0.8165 0.5908
C22 C 0.7783(4) 0.75667(13) 0.6177(2)
H16 H 0.7265 0.7326 0.6057
H17 H 0.7785 0.7647 0.6643
H18 H 0.8630 0.7506 0.6140
C23 C 0.8111(4) 0.82835(13) 0.5866(2)
H19 H 0.8953 0.8209 0.5838
H20 H 0.8113 0.8372 0.6329
H21 H 0.7814 0.8504 0.5548
C24 C 0.7190(4) 0.69058(12) 0.31156(19)
H22 H 0.6953 0.7141 0.2820
H23 H 0.6903 0.6658 0.2864
H24 H 0.8093 0.6898 0.3271
C25 C 0.2504(4) 0.63573(12) 0.4345(2)
H25 H 0.2688 0.6138 0.4056
H26 H 0.1808 0.6278 0.4542
H27 H 0.3233 0.6410 0.4710
C26 C 0.0997(4) 0.66602(15) 0.3368(2)
H28 H 0.0756 0.6906 0.3099
H29 H 0.0325 0.6578 0.3582
H30 H 0.1163 0.6442 0.3072
C27 C 0.3342(4) 0.73347(12) 0.64996(19)
C28 C 0.4243(4) 0.74238(12) 0.7073(2)
H31 H 0.4605 0.7686 0.7119
C29 C 0.4636(4) 0.71388(12) 0.7587(2)
H32 H 0.5258 0.7207 0.7976
C30 C 0.4114(4) 0.67602(12) 0.7524(2)
C31 C 0.3213(4) 0.66594(13) 0.6951(2)
H33 H 0.2862 0.6396 0.6903
C32 C 0.2834(4) 0.69477(13) 0.6450(2)
H34 H 0.2210 0.6879 0.6062
C33 C 0.5346(3) 0.65557(11) 0.86034(19)
H35 H 0.5071 0.6790 0.8837
H36 H 0.6128 0.6629 0.8475
C34 C 0.5547(4) 0.61984(11) 0.9062(2)
H37 H 0.6122 0.6270 0.9496
H38 H 0.4752 0.6112 0.9162
C35 C 0.6752(3) 0.55934(11) 0.91819(18)
C36 C 0.7982(3) 0.56801(11) 0.94790(19)
C37 C 0.8661(4) 0.53969(12) 0.9921(2)
H39 H 0.9496 0.5454 1.0137
C38 C 0.8138(4) 0.50331(12) 1.0050(2)
H40 H 0.8608 0.4844 1.0358
C39 C 0.6925(4) 0.49462(12) 0.9727(2)
H41 H 0.6580 0.4692 0.9802
C40 C 0.6196(3) 0.52278(11) 0.92920(18)
C41 C 0.8610(3) 0.60622(11) 0.9298(2)
H42 H 0.7989 0.6234 0.8997
H43 H 0.8952 0.6217 0.9716
C42 C 0.9647(3) 0.59625(11) 0.8944(2)
C43 C 0.9365(3) 0.57779(11) 0.8311(2)
C44 C 1.0287(4) 0.56399(12) 0.7993(2)
C45 C 1.1507(4) 0.57281(14) 0.8310(3)
H44 H 1.2151 0.5647 0.8098
C46 C 1.1809(4) 0.59283(14) 0.8920(3)
H45 H 1.2649 0.5989 0.9119
C47 C 1.0886(4) 0.60415(13) 0.9245(2)
H46 H 1.1096 0.6173 0.9672
C48 C 0.9955(4) 0.53763(12) 0.7365(2)
H47 H 1.0709 0.5318 0.7197
H48 H 0.9366 0.5522 0.7004
C49 C 0.9378(4) 0.49823(12) 0.7525(2)
C50 C 0.8195(4) 0.48579(12) 0.7185(2)
C51 C 0.7617(4) 0.45149(12) 0.7375(2)
C52 C 0.8302(4) 0.42779(13) 0.7901(2)
H49 H 0.7941 0.4039 0.8034
C53 C 0.9490(4) 0.43830(13) 0.8232(2)
H50 H 0.9944 0.4213 0.8579
C54 C 1.0017(4) 0.47353(13) 0.8057(2)
H51 H 1.0822 0.4812 0.8299
C55 C 0.6278(4) 0.44128(13) 0.7059(2)
H52 H 0.5926 0.4620 0.6716
H53 H 0.6233 0.4147 0.6829
C56 C 0.5543(4) 0.43994(12) 0.7600(2)
C57 C 0.5268(3) 0.47544(11) 0.7915(2)
C58 C 0.4816(3) 0.47508(12) 0.8506(2)
C59 C 0.4452(4) 0.43789(13) 0.8725(2)
H54 H 0.4091 0.4369 0.9109
C60 C 0.4609(4) 0.40240(13) 0.8390(2)
H55 H 0.4329 0.3774 0.8533
C61 C 0.5177(4) 0.40343(13) 0.7845(2)
H56 H 0.5321 0.3788 0.7633
C62 C 0.4870(3) 0.51255(12) 0.8950(2)
H57 H 0.4492 0.5357 0.8667
H58 H 0.4388 0.5077 0.9299
C63 C 0.7556(4) 0.59517(11) 0.7440(2)
H59 H 0.6659 0.5980 0.7418
H60 H 0.7658 0.5813 0.7023
C64 C 0.8142(3) 0.63680(12) 0.7477(2)
C65 C 0.9560(4) 0.67792(14) 0.7072(2)
H61 H 0.9032 0.7006 0.7160
H62 H 0.9773 0.6828 0.6629
C66 C 1.0705(5) 0.67690(19) 0.7611(3)
H63 H 1.0495 0.6733 0.8052
H64 H 1.1156 0.7024 0.7609
H65 H 1.1226 0.6543 0.7528
C67 C 0.4523(4) 0.53796(12) 0.7401(2)
H66 H 0.4795 0.5665 0.7472
H67 H 0.3896 0.5331 0.7671
C68 C 0.3931(4) 0.53208(13) 0.6668(2)
C69 C 0.2189(6) 0.5547(2) 0.5806(3)
H68 H 0.2699 0.5625 0.5483
H69 H 0.1878 0.5269 0.5697
C70 C 0.1176(6) 0.5822(2) 0.5759(3)
H70 H 0.0779 0.5776 0.6139
H71 H 0.0573 0.5778 0.5331
H72 H 0.1483 0.6101 0.5775
C71 C 0.7697(5) 0.49480(13) 0.6004(2)
H73 H 0.7289 0.4681 0.5912
H74 H 0.8585 0.4915 0.6007
C72 C 0.7114(5) 0.52455(13) 0.5463(2)
H75 H 0.7055 0.5127 0.5007
H76 H 0.6271 0.5317 0.5510
C73 C 0.7567(4) 0.59012(12) 0.5077(2)
C74 C 0.6625(4) 0.58734(12) 0.4495(2)
H77 H 0.6176 0.5628 0.4387
C75 C 0.6353(4) 0.62063(11) 0.40743(19)
H78 H 0.5705 0.6185 0.3679
C76 C 0.6984(3) 0.65700(11) 0.42050(18)
C77 C 0.7976(3) 0.65829(12) 0.4777(2)
H79 H 0.8466 0.6821 0.4870
C78 C 0.8246(4) 0.62530(12) 0.5207(2)
H80 H 0.8908 0.6269 0.5596
loop_
_geom_bond_atom_site_label_1
_geom_bond_atom_site_label_2
_geom_bond_site_symmetry_1
_geom_bond_site_symmetry_2
O1 C30 1_555 1_555
O2 C34 1_555 1_555
O3 C50 1_555 1_555
O4 C72 1_555 1_555
O5 C43 1_555 1_555
O6 C64 1_555 1_555
O7 C64 1_555 1_555
O8 C57 1_555 1_555
O9 C68 1_555 1_555
O10 C68 1_555 1_555
N1 H1 1_555 1_555
N2 H2 1_555 1_555
N3 H3 1_555 1_555
N4 H4 1_555 1_555
C1 N1 1_555 1_555
C2 C1 1_555 1_555
H5 C2 1_555 1_555
C3 C2 1_555 1_555
H6 C3 1_555 1_555
C4 N1 1_555 1_555
C5 C4 1_555 1_555
C6 N2 1_555 1_555
C7 C6 1_555 1_555
H7 C7 1_555 1_555
C8 C7 1_555 1_555
H8 C8 1_555 1_555
C9 N2 1_555 1_555
C10 C9 1_555 1_555
C11 N3 1_555 1_555
C12 C11 1_555 1_555
H9 C12 1_555 1_555
C13 C12 1_555 1_555
H10 C13 1_555 1_555
C14 N3 1_555 1_555
C15 C14 1_555 1_555
C16 N4 1_555 1_555
C17 C16 1_555 1_555
H11 C17 1_555 1_555
C18 C17 1_555 1_555
H12 C18 1_555 1_555
C19 N4 1_555 1_555
C20 C1 1_555 1_555
C21 C5 1_555 1_555
H13 C21 1_555 1_555
H14 C21 1_555 1_555
H15 C21 1_555 1_555
C22 C10 1_555 1_555
H16 C22 1_555 1_555
H17 C22 1_555 1_555
H18 C22 1_555 1_555
C23 C10 1_555 1_555
H19 C23 1_555 1_555
H20 C23 1_555 1_555
H21 C23 1_555 1_555
C24 C15 1_555 1_555
H22 C24 1_555 1_555
H23 C24 1_555 1_555
H24 C24 1_555 1_555
C25 C20 1_555 1_555
H25 C25 1_555 1_555
H26 C25 1_555 1_555
H27 C25 1_555 1_555
C26 C20 1_555 1_555
H28 C26 1_555 1_555
H29 C26 1_555 1_555
H30 C26 1_555 1_555
C27 C5 1_555 1_555
C28 C27 1_555 1_555
H31 C28 1_555 1_555
C29 C28 1_555 1_555
H32 C29 1_555 1_555
C30 C29 1_555 1_555
C31 C30 1_555 1_555
H33 C31 1_555 1_555
C32 C27 1_555 1_555
H34 C32 1_555 1_555
C33 O1 1_555 1_555
H35 C33 1_555 1_555
H36 C33 1_555 1_555
C34 C33 1_555 1_555
H37 C34 1_555 1_555
H38 C34 1_555 1_555
C35 O2 1_555 1_555
C36 C35 1_555 1_555
C37 C36 1_555 1_555
H39 C37 1_555 1_555
C38 C37 1_555 1_555
H40 C38 1_555 1_555
C39 C38 1_555 1_555
H41 C39 1_555 1_555
C40 C35 1_555 1_555
C41 C36 1_555 1_555
H42 C41 1_555 1_555
H43 C41 1_555 1_555
C42 C41 1_555 1_555
C43 C42 1_555 1_555
C44 C43 1_555 1_555
C45 C44 1_555 1_555
H44 C45 1_555 1_555
C46 C45 1_555 1_555
H45 C46 1_555 1_555
C47 C42 1_555 1_555
H46 C47 1_555 1_555
C48 C44 1_555 1_555
H47 C48 1_555 1_555
H48 C48 1_555 1_555
C49 C48 1_555 1_555
C50 C49 1_555 1_555
C51 C50 1_555 1_555
C52 C51 1_555 1_555
H49 C52 1_555 1_555
C53 C52 1_555 1_555
H50 C53 1_555 1_555
C54 C49 1_555 1_555
H51 C54 1_555 1_555
C55 C51 1_555 1_555
H52 C55 1_555 1_555
H53 C55 1_555 1_555
C56 C55 1_555 1_555
C57 C56 1_555 1_555
C58 C57 1_555 1_555
C59 C58 1_555 1_555
H54 C59 1_555 1_555
C60 C59 1_555 1_555
H55 C60 1_555 1_555
C61 C56 1_555 1_555
H56 C61 1_555 1_555
C62 C40 1_555 1_555
H57 C62 1_555 1_555
H58 C62 1_555 1_555
C63 O5 1_555 1_555
H59 C63 1_555 1_555
H60 C63 1_555 1_555
C64 C63 1_555 1_555
C65 O7 1_555 1_555
H61 C65 1_555 1_555
H62 C65 1_555 1_555
C66 C65 1_555 1_555
H63 C66 1_555 1_555
H64 C66 1_555 1_555
H65 C66 1_555 1_555
C67 O8 1_555 1_555
H66 C67 1_555 1_555
H67 C67 1_555 1_555
C68 C67 1_555 1_555
C69 O10 1_555 1_555
H68 C69 1_555 1_555
H69 C69 1_555 1_555
C70 C69 1_555 1_555
H70 C70 1_555 1_555
H71 C70 1_555 1_555
H72 C70 1_555 1_555
C71 O3 1_555 1_555
H73 C71 1_555 1_555
H74 C71 1_555 1_555
C72 C71 1_555 1_555
H75 C72 1_555 1_555
H76 C72 1_555 1_555
C73 O4 1_555 1_555
C74 C73 1_555 1_555
H77 C74 1_555 1_555
C75 C74 1_555 1_555
H78 C75 1_555 1_555
C76 C15 1_555 1_555
C77 C76 1_555 1_555
H79 C77 1_555 1_555
C78 C73 1_555 1_555
H80 C78 1_555 1_555
O11 H81 1_555 1_555
C79 O11 1_555 1_555
H82 C79 1_555 1_555
H83 C79 1_555 1_555
H84 C79 1_555 1_555
C3 C4 1_555 1_555
C5 C6 1_555 1_555
C8 C9 1_555 1_555
C10 C11 1_555 1_555
C13 C14 1_555 1_555
C15 C16 1_555 1_555
C18 C19 1_555 1_555
C19 C20 1_555 1_555
C31 C32 1_555 1_555
C39 C40 1_555 1_555
C46 C47 1_555 1_555
C53 C54 1_555 1_555
C58 C62 1_555 1_555
C60 C61 1_555 1_555
C75 C76 1_555 1_555
C77 C78 1_555 1_555

#END
