
#######################################################################
#
#                 Cambridge Crystallographic Data Centre
#                                CCDC 
#
#######################################################################
#
# If this CIF has been generated from an entry in the Cambridge 
# Structural Database, then it will include bibliographic, chemical, 
# crystal, experimental, refinement or atomic coordinate data resulting 
# from the CCDC's data processing and validation procedures.
#
#######################################################################

data_CUBVUS
_chemical_formula_moiety         'C26 H21 N3 O4,C3 H6 O1'
_chemical_name_systematic        
'3-(1,3-dioxo-1,3-dihydro-2H-isoindol-2-yl)-1-(quinolin-8-yl)-1-azaspiro[4.5]decane-2,7-dione acetone'
_symmetry_cell_setting           triclinic
_symmetry_space_group_name_H-M   'P -1'
_symmetry_Int_Tables_number      2
_space_group_name_Hall           '-P 1'
loop_
_symmetry_equiv_pos_site_id
_symmetry_equiv_pos_as_xyz
1 x,y,z
2 -x,-y,-z
_cell_length_a                   8.472(3)
_cell_length_b                   10.696(3)
_cell_length_c                   14.252(4)
_cell_angle_alpha                96.111(6)
_cell_angle_beta                 90.184(6)
_cell_angle_gamma                94.806(6)
_cell_volume                     1279.52
_exptl_crystal_colour            colorless
_exptl_crystal_description       block
_cell_formula_units_Z            2
loop_
_atom_site_label
_atom_site_type_symbol
_atom_site_fract_x
_atom_site_fract_y
_atom_site_fract_z
C1 C 0.0531(3) 0.7432(2) 1.02180(17)
C2 C 0.0896(3) 0.8747(2) 1.06455(18)
C3 C 0.0199(4) 0.9409(3) 1.1397(2)
H1 H -0.0628 0.9036 1.1726
C4 C 0.0778(5) 1.0643(3) 1.1641(3)
H2 H 0.0336 1.1114 1.2144
C5 C 0.1993(5) 1.1187(3) 1.1154(3)
H3 H 0.2353 1.2023 1.1336
C6 C 0.2714(4) 1.0535(3) 1.0394(3)
H4 H 0.3541 1.0912 1.0067
C7 C 0.2126(3) 0.9294(2) 1.01544(19)
C8 C 0.2570(3) 0.8342(2) 0.93887(18)
C9 C 0.1726(3) 0.6047(2) 0.89319(16)
H5 H 0.0935 0.5431 0.9159
C10 C 0.1427(3) 0.6079(2) 0.78894(17)
C11 C 0.3344(3) 0.5531(2) 0.89962(17)
H6 H 0.3298 0.4862 0.9406
H7 H 0.4129 0.6195 0.9250
C12 C 0.3784(2) 0.5021(2) 0.79884(15)
C13 C 0.5390(3) 0.5600(3) 0.77023(18)
H8 H 0.5532 0.5372 0.7033
H9 H 0.5406 0.6512 0.7809
C14 C 0.6745(3) 0.5175(3) 0.8239(2)
H10 H 0.6661 0.5468 0.8903
H11 H 0.7737 0.5548 0.8013
C15 C 0.6748(3) 0.3745(3) 0.8119(2)
H12 H 0.6973 0.3457 0.7469
H13 H 0.7570 0.3492 0.8517
C16 C 0.5165(3) 0.3153(3) 0.8385(2)
C17 C 0.3769(3) 0.3569(2) 0.78874(19)
H14 H 0.2799 0.3213 0.8150
H15 H 0.3790 0.3256 0.7224
C18 C 0.2367(3) 0.5110(2) 0.64047(16)
C19 C 0.3136(3) 0.5854(2) 0.58070(18)
H16 H 0.3771 0.6568 0.6048
C20 C 0.2979(3) 0.5549(3) 0.4823(2)
H17 H 0.3513 0.6062 0.4420
C21 C 0.2055(3) 0.4513(3) 0.44596(19)
H18 H 0.1958 0.4326 0.3809
C22 C 0.1250(3) 0.3725(3) 0.50523(19)
C23 C 0.0278(4) 0.2623(3) 0.4713(2)
H19 H 0.0168 0.2382 0.4068
C24 C -0.0485(4) 0.1929(3) 0.5339(3)
H20 H -0.1115 0.1197 0.5130
C25 C -0.0315(4) 0.2324(3) 0.6301(2)
H21 H -0.0873 0.1843 0.6717
C26 C 0.1377(3) 0.4028(2) 0.60436(17)
N1 N 0.1589(2) 0.72499(16) 0.94878(13)
N2 N 0.2506(2) 0.54245(18) 0.74086(13)
N3 N 0.0578(3) 0.3326(2) 0.66649(16)
O1 O -0.0472(2) 0.66476(16) 1.04320(13)
O2 O 0.3545(2) 0.84308(18) 0.87773(14)
O3 O 0.0344(2) 0.65788(16) 0.75472(12)
O4 O 0.5024(3) 0.2424(2) 0.89739(19)
C27 C 0.5024(6) -0.0335(5) 0.3580(3)
C28 C 0.3987(7) 0.0646(7) 0.3486(7)
H22 H 0.3535 0.0544 0.2861
H23 H 0.4580 0.1454 0.3594
H24 H 0.3156 0.0595 0.3940
C29 C 0.6661(7) -0.0071(6) 0.3304(4)
H25 H 0.7326 -0.0591 0.3612
H26 H 0.6992 0.0802 0.3487
H27 H 0.6745 -0.0249 0.2633
O5 O 0.4543(5) -0.1294(4) 0.3882(3)
loop_
_geom_bond_atom_site_label_1
_geom_bond_atom_site_label_2
_geom_bond_site_symmetry_1
_geom_bond_site_symmetry_2
C1 C2 1_555 1_555
C2 C3 1_555 1_555
C3 H1 1_555 1_555
C4 C3 1_555 1_555
H2 C4 1_555 1_555
C5 C4 1_555 1_555
H3 C5 1_555 1_555
C6 C5 1_555 1_555
H4 C6 1_555 1_555
C7 C2 1_555 1_555
C8 C7 1_555 1_555
C9 H5 1_555 1_555
C10 C9 1_555 1_555
C11 C9 1_555 1_555
H6 C11 1_555 1_555
H7 C11 1_555 1_555
C12 C11 1_555 1_555
C13 C12 1_555 1_555
H8 C13 1_555 1_555
H9 C13 1_555 1_555
C14 C13 1_555 1_555
H10 C14 1_555 1_555
H11 C14 1_555 1_555
C15 C14 1_555 1_555
H12 C15 1_555 1_555
H13 C15 1_555 1_555
C16 C15 1_555 1_555
C17 C12 1_555 1_555
H14 C17 1_555 1_555
H15 C17 1_555 1_555
C18 C19 1_555 1_555
C19 H16 1_555 1_555
C20 C19 1_555 1_555
H17 C20 1_555 1_555
C21 C20 1_555 1_555
H18 C21 1_555 1_555
C22 C21 1_555 1_555
C23 C22 1_555 1_555
H19 C23 1_555 1_555
C24 C23 1_555 1_555
H20 C24 1_555 1_555
C25 C24 1_555 1_555
H21 C25 1_555 1_555
C26 C18 1_555 1_555
N1 C1 1_555 1_555
N2 C10 1_555 1_555
N3 C25 1_555 1_555
O1 C1 1_555 1_555
O2 C8 1_555 1_555
O3 C10 1_555 1_555
O4 C16 1_555 1_555
C27 C28 1_555 1_555
C28 H22 1_555 1_555
H23 C28 1_555 1_555
H24 C28 1_555 1_555
C29 C27 1_555 1_555
H25 C29 1_555 1_555
H26 C29 1_555 1_555
H27 C29 1_555 1_555
O5 C27 1_555 1_555
C6 C7 1_555 1_555
C8 N1 1_555 1_555
C9 N1 1_555 1_555
C12 N2 1_555 1_555
C16 C17 1_555 1_555
C18 N2 1_555 1_555
C22 C26 1_555 1_555
C26 N3 1_555 1_555

#END
