
#######################################################################
#
#                 Cambridge Crystallographic Data Centre
#                                CCDC 
#
#######################################################################
#
# If this CIF has been generated from an entry in the Cambridge 
# Structural Database, then it will include bibliographic, chemical, 
# crystal, experimental, refinement or atomic coordinate data resulting 
# from the CCDC's data processing and validation procedures.
#
#######################################################################

data_CUBWAY
_chemical_name_common            '1-Amino-3-(o-tolyl)isoquinolinium chloride'
_chemical_formula_moiety         'C16 H15 N2 1+,Cl1 1-'
_chemical_name_systematic        
'1-Amino-3-(2-methylphenyl)isoquinoline hydrochloride'
_symmetry_cell_setting           orthorhombic
_symmetry_space_group_name_H-M   'P n a 21'
_symmetry_Int_Tables_number      33
_space_group_name_Hall           'P 2c -2n'
loop_
_symmetry_equiv_pos_site_id
_symmetry_equiv_pos_as_xyz
1 x,y,z
2 -x,-y,1/2+z
3 1/2+x,1/2-y,z
4 1/2-x,1/2+y,1/2+z
_cell_length_a                   19.560(3)
_cell_length_b                   7.8500(14)
_cell_length_c                   18.428(3)
_cell_angle_alpha                90
_cell_angle_beta                 90
_cell_angle_gamma                90
_cell_volume                     2829.55
_exptl_crystal_colour            colorless
_exptl_crystal_description       needle
_chemical_melting_point          '188-189 deg.C'
_cell_formula_units_Z            8
_exptl_crystal_recrystallization_method 'ethyl acetate/petroleum ether'
loop_
_atom_site_label
_atom_site_type_symbol
_atom_site_fract_x
_atom_site_fract_y
_atom_site_fract_z
Cl1 Cl 0.26912(7) 0.2198(2) 0.39250(8)
Cl2 Cl 0.97984(7) 0.7214(2) 0.70952(8)
N1 N 0.1097(2) 0.5640(5) 0.6325(2)
H1 H 0.0659 0.5965 0.6389
N2 N 0.1362(2) 0.6269(6) 0.7509(2)
H2 H 0.0961 0.6722 0.7532
H3 H 0.1703 0.6472 0.7933
C1 C 0.1560(3) 0.5623(6) 0.6866(3)
C2 C 0.2228(3) 0.4952(7) 0.6737(3)
C3 C 0.2724(3) 0.4835(8) 0.7275(3)
H7 H 0.2627 0.5222 0.7740
C4 C 0.3348(3) 0.4161(8) 0.7128(4)
H8 H 0.3675 0.4081 0.7492
C5 C 0.3499(3) 0.3581(8) 0.6420(3)
H9 H 0.3928 0.3130 0.6318
C6 C 0.3019(3) 0.3679(7) 0.5886(3)
H10 H 0.3122 0.3282 0.5423
C7 C 0.2373(3) 0.4372(7) 0.6028(3)
C8 C 0.1861(3) 0.4431(7) 0.5477(3)
H11 H 0.1964 0.4037 0.5014
C9 C 0.1228(3) 0.5051(7) 0.5616(3)
C10 C 0.0634(3) 0.5023(7) 0.5130(3)
C11 C 0.0005(3) 0.4425(7) 0.5387(4)
H12 H -0.0037 0.4120 0.5873
C12 C -0.0559(3) 0.4277(8) 0.4933(4)
H13 H -0.0969 0.3832 0.5105
C13 C -0.0498(4) 0.4803(9) 0.4221(4)
H14 H -0.0876 0.4733 0.3917
C14 C 0.0105(4) 0.5425(9) 0.3953(4)
H15 H 0.0128 0.5803 0.3476
C15 C 0.0695(3) 0.5498(8) 0.4400(3)
C16 C 0.1326(4) 0.6234(8) 0.4086(4)
H16 H 0.1566 0.6865 0.4452
H17 H 0.1208 0.6982 0.3693
H18 H 0.1613 0.5334 0.3908
N3 N 0.1378(2) 0.0696(5) 0.4673(2)
H4 H 0.1793 0.1133 0.4560
N4 N 0.1105(2) 0.1648(6) 0.3535(2)
H5 H 0.0813 0.1925 0.3176
H6 H 0.1521 0.2112 0.3480
C17 C 0.0908(3) 0.0918(6) 0.4144(3)
C18 C 0.0222(3) 0.0321(7) 0.4273(3)
C19 C -0.0287(3) 0.0430(8) 0.3741(3)
H19 H -0.0187 0.0897 0.3290
C20 C -0.0931(3) -0.0153(8) 0.3887(3)
H20 H -0.1270 -0.0084 0.3534
C21 C -0.1081(3) -0.0851(8) 0.4564(3)
H21 H -0.1520 -0.1250 0.4657
C22 C -0.0593(3) -0.0957(7) 0.5091(3)
H22 H -0.0701 -0.1420 0.5542
C23 C 0.0075(3) -0.0367(6) 0.4954(3)
C24 C 0.0596(3) -0.0469(7) 0.5486(3)
H23 H 0.0486 -0.0895 0.5943
C25 C 0.1232(3) 0.0016(7) 0.5361(3)
C26 C 0.1831(3) -0.0141(7) 0.5859(3)
C27 C 0.2444(3) -0.0852(7) 0.5590(4)
H24 H 0.2480 -0.1151 0.5103
C28 C 0.2989(3) -0.1102(8) 0.6054(4)
H25 H 0.3392 -0.1577 0.5878
C29 C 0.2941(4) -0.0660(9) 0.6759(5)
H26 H 0.3312 -0.0824 0.7067
C30 C 0.2340(3) 0.0038(9) 0.7028(4)
H27 H 0.2314 0.0314 0.7518
C31 C 0.1780(3) 0.0335(7) 0.6590(3)
C32 C 0.1156(3) 0.1171(8) 0.6911(3)
H28 H 0.0829 0.0313 0.7042
H29 H 0.0958 0.1928 0.6561
H30 H 0.1285 0.1804 0.7335
loop_
_geom_bond_atom_site_label_1
_geom_bond_atom_site_label_2
_geom_bond_site_symmetry_1
_geom_bond_site_symmetry_2
N1 H1 1_555 1_555
N2 H2 1_555 1_555
H3 N2 1_555 1_555
N3 H4 1_555 1_555
N4 H5 1_555 1_555
H6 N4 1_555 1_555
C1 N1 1_555 1_555
C2 C1 1_555 1_555
C3 C2 1_555 1_555
H7 C3 1_555 1_555
C4 C3 1_555 1_555
H8 C4 1_555 1_555
C5 C4 1_555 1_555
H9 C5 1_555 1_555
C6 C5 1_555 1_555
H10 C6 1_555 1_555
C7 C2 1_555 1_555
C8 C7 1_555 1_555
H11 C8 1_555 1_555
C9 N1 1_555 1_555
C10 C9 1_555 1_555
C11 C10 1_555 1_555
H12 C11 1_555 1_555
C12 C11 1_555 1_555
H13 C12 1_555 1_555
C13 C12 1_555 1_555
H14 C13 1_555 1_555
C14 C13 1_555 1_555
H15 C14 1_555 1_555
C15 C10 1_555 1_555
C16 C15 1_555 1_555
H16 C16 1_555 1_555
H17 C16 1_555 1_555
H18 C16 1_555 1_555
C17 N3 1_555 1_555
C18 C17 1_555 1_555
C19 C18 1_555 1_555
H19 C19 1_555 1_555
C20 C19 1_555 1_555
H20 C20 1_555 1_555
C21 C20 1_555 1_555
H21 C21 1_555 1_555
C22 C21 1_555 1_555
H22 C22 1_555 1_555
C23 C18 1_555 1_555
C24 C23 1_555 1_555
H23 C24 1_555 1_555
C25 N3 1_555 1_555
C26 C25 1_555 1_555
C27 C26 1_555 1_555
H24 C27 1_555 1_555
C28 C27 1_555 1_555
H25 C28 1_555 1_555
C29 C28 1_555 1_555
H26 C29 1_555 1_555
C30 C29 1_555 1_555
H27 C30 1_555 1_555
C31 C26 1_555 1_555
C32 C31 1_555 1_555
H28 C32 1_555 1_555
H29 C32 1_555 1_555
H30 C32 1_555 1_555
N2 C1 1_555 1_555
N4 C17 1_555 1_555
C6 C7 1_555 1_555
C8 C9 1_555 1_555
C14 C15 1_555 1_555
C22 C23 1_555 1_555
C24 C25 1_555 1_555
C30 C31 1_555 1_555

#END
