
#######################################################################
#
#                 Cambridge Crystallographic Data Centre
#                                CCDC 
#
#######################################################################
#
# If this CIF has been generated from an entry in the Cambridge 
# Structural Database, then it will include bibliographic, chemical, 
# crystal, experimental, refinement or atomic coordinate data resulting 
# from the CCDC's data processing and validation procedures.
#
#######################################################################

data_CUBWEC
_chemical_name_common            
'2-(3-Amino-5-methyl-1H-1,2,4-triazol-1-yl)-6-(hydroxymethyl)tetrahydro-2H-pyran-3,4,5-triol dihydrate'
_chemical_formula_moiety         'C9 H16 N4 O5,2(H2 O1)'
_chemical_name_systematic        
'1-(\b-D-glucopyranosyl)-3-amino-5-methyl-1H-1,2,4-triazole dihydrate'
_chemical_properties_biological  
'Fungicidal activity against Gibberella zeae and Colletotrichum orbiculare, with little observed effect against Fussrium moniliform'
_symmetry_cell_setting           orthorhombic
_symmetry_space_group_name_H-M   'P 21 21 21'
_symmetry_Int_Tables_number      19
_space_group_name_Hall           'P 2ac 2ab'
loop_
_symmetry_equiv_pos_site_id
_symmetry_equiv_pos_as_xyz
1 x,y,z
2 1/2-x,-y,1/2+z
3 -x,1/2+y,1/2-z
4 1/2+x,1/2-y,-z
_cell_length_a                   7.7490(15)
_cell_length_b                   10.424(2)
_cell_length_c                   17.447(4)
_cell_angle_alpha                90
_cell_angle_beta                 90
_cell_angle_gamma                90
_cell_volume                     1409.29
_exptl_crystal_colour            colorless
_chemical_melting_point          '273 deg.C (dec.)'
_cell_formula_units_Z            4
_exptl_crystal_recrystallization_method water
loop_
_atom_site_label
_atom_site_type_symbol
_atom_site_fract_x
_atom_site_fract_y
_atom_site_fract_z
O1 O 0.4990(6) 1.1907(3) 0.2487(2)
H1 H 0.5331 1.1816 0.2028
O2 O 0.5587(5) 1.1126(4) 0.4030(2)
H2 H 0.6138 1.1752 0.3836
O3 O 0.2630(5) 0.9826(4) 0.46913(18)
H3 H 0.3410 1.0050 0.4980
O4 O 0.4828(6) 0.8987(4) 0.1483(2)
H4 H 0.5311 0.8756 0.1898
O5 O 0.2348(5) 0.8999(3) 0.26725(18)
N1 N 0.1802(8) 0.4725(5) 0.4040(4)
H5 H 0.2792 0.4483 0.3871
H6 H 0.1142 0.4185 0.4271
N2 N 0.2244(6) 0.6839(4) 0.3615(3)
N3 N 0.1188(6) 0.7928(4) 0.3683(2)
N4 N -0.0181(6) 0.6400(5) 0.4286(3)
C1 C -0.1608(9) 0.8533(8) 0.4292(5)
H7 H -0.2461 0.8101 0.4597
H8 H -0.2134 0.8852 0.3832
H9 H -0.1134 0.9236 0.4579
C2 C -0.0202(7) 0.7616(6) 0.4089(3)
C3 C 0.1328(8) 0.5949(5) 0.3971(3)
C4 C 0.1790(7) 0.9159(5) 0.3454(3)
H10 H 0.0849 0.9786 0.3480
C5 C 0.3313(7) 0.9610(5) 0.3941(3)
H11 H 0.4212 0.8950 0.3957
C6 C 0.4040(7) 1.0856(5) 0.3627(3)
H12 H 0.3208 1.1555 0.3694
C7 C 0.4500(7) 1.0705(5) 0.2789(3)
H13 H 0.5467 1.0105 0.2741
C8 C 0.2952(7) 1.0191(5) 0.2335(3)
H14 H 0.2020 1.0826 0.2332
C9 C 0.3431(11) 0.9824(8) 0.1516(5)
H15 H 0.2443 0.9425 0.1272
H16 H 0.3709 1.0596 0.1231
O6 O 0.8809(7) 1.1728(5) 0.3395(3)
H17 H 0.9895 1.1773 0.3331
H18 H 0.844(10) 1.241(5) 0.317(4)
O7 O 0.5516(7) 1.2822(4) 0.5238(2)
H19 H 0.5692 1.3021 0.4772
H20 H 0.4627 1.3211 0.5403
loop_
_geom_bond_atom_site_label_1
_geom_bond_atom_site_label_2
_geom_bond_site_symmetry_1
_geom_bond_site_symmetry_2
O1 H1 1_555 1_555
O2 H2 1_555 1_555
O3 H3 1_555 1_555
O4 H4 1_555 1_555
O5 C4 1_555 1_555
N1 H5 1_555 1_555
H6 N1 1_555 1_555
N2 N3 1_555 1_555
N3 C2 1_555 1_555
N4 C2 1_555 1_555
C1 H7 1_555 1_555
H8 C1 1_555 1_555
H9 C1 1_555 1_555
C2 C1 1_555 1_555
C3 N1 1_555 1_555
C4 N3 1_555 1_555
H10 C4 1_555 1_555
C5 O3 1_555 1_555
H11 C5 1_555 1_555
C6 O2 1_555 1_555
H12 C6 1_555 1_555
C7 O1 1_555 1_555
H13 C7 1_555 1_555
C8 O5 1_555 1_555
H14 C8 1_555 1_555
C9 O4 1_555 1_555
H15 C9 1_555 1_555
H16 C9 1_555 1_555
O6 H17 1_555 1_555
H18 O6 1_555 1_555
O7 H19 1_555 1_555
H20 O7 1_555 1_555
N2 C3 1_555 1_555
N4 C3 1_555 1_555
C4 C5 1_555 1_555
C5 C6 1_555 1_555
C6 C7 1_555 1_555
C7 C8 1_555 1_555
C8 C9 1_555 1_555

#END
