
#######################################################################
#
#                 Cambridge Crystallographic Data Centre
#                                CCDC 
#
#######################################################################
#
# If this CIF has been generated from an entry in the Cambridge 
# Structural Database, then it will include bibliographic, chemical, 
# crystal, experimental, refinement or atomic coordinate data resulting 
# from the CCDC's data processing and validation procedures.
#
#######################################################################

data_CUBWUT
_chemical_formula_moiety         'C19 H16 F3 N1 O2 S1'
_chemical_name_systematic        
2-(((4-methylphenyl)sulfonyl)methyl)-5-(4-(trifluoromethyl)phenyl)-1H-pyrrole
_symmetry_cell_setting           triclinic
_symmetry_space_group_name_H-M   'P -1'
_symmetry_Int_Tables_number      2
_space_group_name_Hall           '-P 1'
loop_
_symmetry_equiv_pos_site_id
_symmetry_equiv_pos_as_xyz
1 x,y,z
2 -x,-y,-z
_cell_length_a                   8.617(4)
_cell_length_b                   9.533(5)
_cell_length_c                   11.024(5)
_cell_angle_alpha                82.313(10)
_cell_angle_beta                 85.656(11)
_cell_angle_gamma                79.880(10)
_cell_volume                     882.208
_exptl_crystal_colour            colorless
_cell_formula_units_Z            2
loop_
_atom_site_label
_atom_site_type_symbol
_atom_site_fract_x
_atom_site_fract_y
_atom_site_fract_z
C1 C 0.36754(19) -0.07966(17) 0.28619(14)
C2 C 0.4920(2) -0.0248(2) 0.32364(16)
H1 H 0.4796 0.0230 0.3949
C3 C 0.6344(2) -0.0403(2) 0.25626(17)
H2 H 0.7202 -0.0038 0.2827
C4 C 0.6552(2) -0.1077(2) 0.15123(17)
C5 C 0.5304(2) -0.1627(2) 0.11633(18)
H3 H 0.5432 -0.2107 0.0451
C6 C 0.3869(2) -0.1498(2) 0.18251(17)
H4 H 0.3022 -0.1887 0.1571
C7 C 0.8100(3) -0.1179(3) 0.0757(2)
H5 H 0.8175 -0.1943 0.0231
H6 H 0.8979 -0.1399 0.1304
H7 H 0.8150 -0.0263 0.0246
C8 C 0.0851(2) 0.11941(18) 0.30803(15)
H8 H 0.0854 0.1240 0.2178
H9 H -0.0263 0.1314 0.3400
C9 C 0.15602(19) 0.24026(17) 0.33795(15)
C10 C 0.2455(2) 0.3287(2) 0.26675(17)
H10 H 0.2783 0.3240 0.1829
C11 C 0.2796(2) 0.4273(2) 0.34036(18)
H11 H 0.3392 0.5020 0.3148
C12 C 0.21194(18) 0.39732(17) 0.45625(16)
C13 C 0.21437(18) 0.46342(16) 0.56843(16)
C14 C 0.1282(2) 0.42234(19) 0.67595(18)
H12 H 0.0620 0.3524 0.6758
C15 C 0.1373(2) 0.4812(2) 0.78192(18)
H13 H 0.0769 0.4520 0.8536
C16 C 0.2333(2) 0.58233(18) 0.78520(17)
C17 C 0.3147(2) 0.6287(2) 0.67842(19)
H14 H 0.3775 0.7012 0.6786
C18 C 0.3052(2) 0.57028(19) 0.57164(18)
H15 H 0.3615 0.6035 0.4991
C19 C 0.2475(3) 0.6401(2) 0.9020(2)
F1 F 0.2735(12) 0.5402(4) 0.9934(4)
F2 F 0.1252(7) 0.7278(10) 0.9339(5)
F3 F 0.3668(8) 0.7110(9) 0.8993(4)
N1 N 0.13622(15) 0.28281(14) 0.45254(12)
H16 H 0.0827 0.2427 0.5148
O1 O 0.09207(16) -0.15679(14) 0.33948(12)
O2 O 0.20979(15) -0.04932(13) 0.49522(10)
S1 S 0.18374(5) -0.05405(4) 0.36849(4)
F4? F 0.1522(14) 0.5987(14) 0.9955(6)
F5? F 0.2147(17) 0.7760(5) 0.8940(7)
F6? F 0.3834(9) 0.6031(16) 0.9433(10)
loop_
_geom_bond_atom_site_label_1
_geom_bond_atom_site_label_2
_geom_bond_site_symmetry_1
_geom_bond_site_symmetry_2
C1 C2 1_555 1_555
C2 H1 1_555 1_555
C3 C2 1_555 1_555
H2 C3 1_555 1_555
C4 C3 1_555 1_555
C5 C4 1_555 1_555
H3 C5 1_555 1_555
C6 C1 1_555 1_555
H4 C6 1_555 1_555
C7 C4 1_555 1_555
H5 C7 1_555 1_555
H6 C7 1_555 1_555
H7 C7 1_555 1_555
C8 H8 1_555 1_555
H9 C8 1_555 1_555
C9 C8 1_555 1_555
C10 C9 1_555 1_555
H10 C10 1_555 1_555
C11 C10 1_555 1_555
H11 C11 1_555 1_555
C12 C11 1_555 1_555
C13 C12 1_555 1_555
C14 C13 1_555 1_555
H12 C14 1_555 1_555
C15 C14 1_555 1_555
H13 C15 1_555 1_555
C16 C15 1_555 1_555
C17 C16 1_555 1_555
H14 C17 1_555 1_555
C18 C13 1_555 1_555
H15 C18 1_555 1_555
C19 C16 1_555 1_555
F1 C19 1_555 1_555
F2 C19 1_555 1_555
F3 C19 1_555 1_555
N1 C9 1_555 1_555
H16 N1 1_555 1_555
O1 S1 1_555 1_555
O2 S1 1_555 1_555
S1 C1 1_555 1_555
C5 C6 1_555 1_555
C8 S1 1_555 1_555
C12 N1 1_555 1_555
C17 C18 1_555 1_555

#END
