
#######################################################################
#
#                 Cambridge Crystallographic Data Centre
#                                CCDC 
#
#######################################################################
#
# If this CIF has been generated from an entry in the Cambridge 
# Structural Database, then it will include bibliographic, chemical, 
# crystal, experimental, refinement or atomic coordinate data resulting 
# from the CCDC's data processing and validation procedures.
#
#######################################################################

data_CUBXAA
_chemical_formula_moiety         'C21 H14 B1 F2 N3'
_chemical_name_systematic        
5,5-difluoro-13-phenyl-5H,7H-pyrrolo[1'',2'':3',4'][1,3,2]diazaborinino[1',6':1,5]pyrrolo[2,3-b]indole
_symmetry_cell_setting           triclinic
_symmetry_space_group_name_H-M   'P -1'
_symmetry_Int_Tables_number      2
_space_group_name_Hall           '-P 1'
loop_
_symmetry_equiv_pos_site_id
_symmetry_equiv_pos_as_xyz
1 x,y,z
2 -x,-y,-z
_cell_length_a                   6.3291(5)
_cell_length_b                   11.9237(12)
_cell_length_c                   12.5356(15)
_cell_angle_alpha                64.953(11)
_cell_angle_beta                 82.314(8)
_cell_angle_gamma                87.201(7)
_cell_volume                     849.321
_exptl_crystal_colour            red
_cell_formula_units_Z            2
loop_
_atom_site_label
_atom_site_type_symbol
_atom_site_fract_x
_atom_site_fract_y
_atom_site_fract_z
F1 F 0.0755(3) 0.05016(14) 0.12041(13)
F2 F 0.2745(3) -0.08545(16) 0.06986(13)
N1 N 0.3447(3) -0.0588(2) 0.24228(19)
N2 N -0.1860(4) -0.2185(2) 0.1193(2)
H1 H -0.1232 -0.1779 0.0486
N3 N 0.0224(3) -0.1670(2) 0.24635(18)
C1 C -0.1889(4) -0.2947(2) 0.4155(2)
H2 H -0.2442 -0.3373 0.4947
C2 C -0.4226(4) -0.3467(2) 0.2756(2)
C3 C 0.1292(4) -0.1830(2) 0.4300(2)
C4 C -0.0103(4) -0.2139(2) 0.3717(2)
C5 C -0.3661(5) -0.2954(2) 0.1510(3)
C6 C 0.3082(4) -0.1068(2) 0.3659(2)
C7 C -0.0803(5) -0.1929(3) 0.6164(3)
H3 H -0.1778 -0.1393 0.5706
C8 C 0.4722(4) -0.0656(3) 0.4037(3)
H4 H 0.4873 -0.0834 0.4821
C9 C -0.2657(4) -0.2992(2) 0.3203(2)
C10 C 0.5268(4) 0.0080(3) 0.2080(3)
H5 H 0.5884 0.0495 0.1298
C11 C -0.6025(5) -0.4212(3) 0.3253(3)
H6 H -0.6448 -0.4531 0.4066
C12 C -0.1298(4) -0.2201(2) 0.2189(2)
C13 C -0.4805(5) -0.3229(3) 0.0788(3)
H7 H -0.4402 -0.2909 -0.0027
C14 C 0.2357(5) -0.3105(3) 0.6313(3)
H8 H 0.3548 -0.3365 0.5960
C15 C 0.6090(5) 0.0062(3) 0.3051(3)
H9 H 0.7327 0.0458 0.3043
C16 C 0.0946(4) -0.2304(2) 0.5618(2)
C17 C -0.7185(5) -0.4478(3) 0.2532(3)
H10 H -0.8389 -0.4983 0.2862
C18 C 0.0278(6) -0.3137(3) 0.8059(3)
H11 H 0.0055 -0.3418 0.8880
C19 C 0.2019(6) -0.3527(3) 0.7534(3)
H12 H 0.2974 -0.4074 0.7999
C20 C -0.6563(6) -0.3993(3) 0.1315(3)
H13 H -0.7356 -0.4190 0.0843
C21 C -0.1122(5) -0.2341(3) 0.7380(3)
H14 H -0.2298 -0.2073 0.7737
B1 B 0.1833(5) -0.0638(3) 0.1654(3)
loop_
_geom_bond_atom_site_label_1
_geom_bond_atom_site_label_2
_geom_bond_site_symmetry_1
_geom_bond_site_symmetry_2
F1 B1 1_555 1_555
F2 B1 1_555 1_555
N1 C6 1_555 1_555
N2 H1 1_555 1_555
N3 C4 1_555 1_555
C1 H2 1_555 1_555
C2 C5 1_555 1_555
C3 C4 1_555 1_555
C4 C1 1_555 1_555
C5 N2 1_555 1_555
C6 C3 1_555 1_555
C7 H3 1_555 1_555
C8 C6 1_555 1_555
H4 C8 1_555 1_555
C9 C1 1_555 1_555
C10 N1 1_555 1_555
H5 C10 1_555 1_555
C11 C2 1_555 1_555
H6 C11 1_555 1_555
C12 N2 1_555 1_555
C13 C5 1_555 1_555
H7 C13 1_555 1_555
C14 H8 1_555 1_555
C15 C8 1_555 1_555
H9 C15 1_555 1_555
C16 C3 1_555 1_555
C17 C11 1_555 1_555
H10 C17 1_555 1_555
C18 H11 1_555 1_555
C19 C14 1_555 1_555
H12 C19 1_555 1_555
C20 C13 1_555 1_555
H13 C20 1_555 1_555
C21 C7 1_555 1_555
H14 C21 1_555 1_555
B1 N1 1_555 1_555
N3 C12 1_555 1_555
N3 B1 1_555 1_555
C2 C9 1_555 1_555
C7 C16 1_555 1_555
C9 C12 1_555 1_555
C10 C15 1_555 1_555
C14 C16 1_555 1_555
C17 C20 1_555 1_555
C18 C19 1_555 1_555
C18 C21 1_555 1_555

#END
