
#######################################################################
#
#                 Cambridge Crystallographic Data Centre
#                                CCDC 
#
#######################################################################
#
# If this CIF has been generated from an entry in the Cambridge 
# Structural Database, then it will include bibliographic, chemical, 
# crystal, experimental, refinement or atomic coordinate data resulting 
# from the CCDC's data processing and validation procedures.
#
#######################################################################

data_CUBZUV
_chemical_formula_moiety         'C66 H72 N6 S6'
_chemical_name_systematic        
'2,23,25,46,65,66-Hexaethyl-12,13,35,36,55,56-hexathia-5,20,28,43,48,63-hexaazadecacyclo[22.22.18.1^3,45^.1^22,26^.0^6,11^.0^14,19^.0^29,34^.0^37,42^.0^49,54^.0^57,62^]hexahexaconta-1,3(65),6,8,10,14,16,18,22(66),23,25,29,31,33,37,39,41,45,49,51,53,57,59,61-tetracosaene unknown solvate'
_symmetry_cell_setting           rhombohedral
_symmetry_space_group_name_H-M   'R -3 c'
_symmetry_Int_Tables_number      167
_space_group_name_Hall           '-R 3 2"c'
loop_
_symmetry_equiv_pos_site_id
_symmetry_equiv_pos_as_xyz
1 x,y,z
2 -y,x-y,z
3 -x+y,-x,z
4 y,x,1/2-z
5 x-y,-y,1/2-z
6 -x,-x+y,1/2-z
7 2/3+x,1/3+y,1/3+z
8 2/3-y,1/3+x-y,1/3+z
9 2/3-x+y,1/3-x,1/3+z
10 2/3+y,1/3+x,5/6-z
11 2/3+x-y,1/3-y,5/6-z
12 2/3-x,1/3-x+y,5/6-z
13 1/3+x,2/3+y,2/3+z
14 1/3-y,2/3+x-y,2/3+z
15 1/3-x+y,2/3-x,2/3+z
16 1/3+y,2/3+x,1/6-z
17 1/3+x-y,2/3-y,1/6-z
18 1/3-x,2/3-x+y,1/6-z
19 -x,-y,-z
20 y,-x+y,-z
21 x-y,x,-z
22 -y,-x,1/2+z
23 -x+y,y,1/2+z
24 x,x-y,1/2+z
25 1/3-x,2/3-y,2/3-z
26 1/3+y,2/3-x+y,2/3-z
27 1/3+x-y,2/3+x,2/3-z
28 1/3-y,2/3-x,1/6+z
29 1/3-x+y,2/3+y,1/6+z
30 1/3+x,2/3+x-y,1/6+z
31 2/3-x,1/3-y,1/3-z
32 2/3+y,1/3-x+y,1/3-z
33 2/3+x-y,1/3+x,1/3-z
34 2/3-y,1/3-x,5/6+z
35 2/3-x+y,1/3+y,5/6+z
36 2/3+x,1/3+x-y,5/6+z
_cell_length_a                   17.0365(7)
_cell_length_b                   17.0365(7)
_cell_length_c                   51.238(4)
_cell_angle_alpha                90
_cell_angle_beta                 90
_cell_angle_gamma                120
_cell_volume                     12879
_exptl_crystal_colour            yellow
_exptl_crystal_description       block
_cell_formula_units_Z            6
_exptl_crystal_recrystallization_method dichloromethane
loop_
_atom_site_label
_atom_site_type_symbol
_atom_site_fract_x
_atom_site_fract_y
_atom_site_fract_z
C1 C 0.32509(19) 0.25782(19) 0.05207(5)
C2 C 0.2377(2) 0.2410(3) 0.05666(7)
H1 H 0.2159 0.2324 0.0737
C3 C 0.1828(2) 0.2369(3) 0.03646(8)
H2 H 0.1263 0.2305 0.0399
C4 C 0.21199(18) 0.2423(2) 0.01108(7)
H3 H 0.1736 0.2355 -0.0027
C5 C 0.29804(16) 0.25776(17) 0.00617(5)
H4 H 0.3175 0.2630 -0.0110
C6 C 0.35717(16) 0.26588(15) 0.02639(5)
C7 C 0.47778(15) 0.28876(16) -0.00490(4)
H5 H 0.4730 0.3352 -0.0145
H6 H 0.4415 0.2314 -0.0138
C8 C 0.57591(15) 0.31157(15) -0.00433(4)
C9 C 0.64498(15) 0.40285(15) -0.00418(4)
C10 C 0.62094(17) 0.47787(17) -0.00387(5)
H7 H 0.5653 0.4573 0.0059
H8 H 0.6686 0.5303 0.0050
C11 C 0.6087(2) 0.50599(18) -0.03108(5)
H9 H 0.5936 0.5531 -0.0297
H10 H 0.5607 0.4547 -0.0399
H11 H 0.6639 0.5278 -0.0408
N1 N 0.44302(14) 0.28263(15) 0.02143(4)
H12 H 0.4780 0.2899 0.0344
S1 S 0.39607(6) 0.26540(7) 0.078505(15)
C1A C 0.74218(19) 0.06727(27) 0.05207(5)
C1B C 0.93273(27) 0.67491(19) 0.05207(5)
C1O C 0.59115(19) -0.00824(19) 0.11460(5)
C1P C 0.40060(27) 0.40885(19) 0.11460(5)
C1Q C 1.00824(19) 0.59940(27) 0.11460(5)
C2A C 0.7590(3) -0.0033(4) 0.05666(7)
C2B C 1.0033(4) 0.7623(2) 0.05666(7)
C2O C 0.5743(3) -0.0956(2) 0.11001(7)
C2P C 0.3300(4) 0.4257(3) 0.11001(7)
C2Q C 1.0956(2) 0.6700(4) 0.11001(7)
H1A H 0.7676 -0.0165 0.0737
H1B H 1.0165 0.7841 0.0737
H1O H 0.5657 -0.1174 0.0930
H1P H 0.3168 0.4343 0.0930
H1Q H 1.1174 0.6832 0.0930
C3A C 0.7631(3) -0.0541(4) 0.03646(8)
C3B C 1.0541(4) 0.8172(2) 0.03646(8)
C3O C 0.5702(3) -0.1505(2) 0.13021(8)
C3P C 0.2792(4) 0.4298(3) 0.13021(8)
C3Q C 1.1505(2) 0.7208(4) 0.13021(8)
H2A H 0.7695 -0.1042 0.0399
H2B H 1.1042 0.8737 0.0399
H2O H 0.5638 -0.2070 0.1268
H2P H 0.2291 0.4362 0.1268
H2Q H 1.2070 0.7709 0.1268
C4A C 0.7577(2) -0.03031(27) 0.01108(7)
C4B C 1.03031(27) 0.78801(18) 0.01108(7)
C4O C 0.5756(2) -0.12134(18) 0.15559(7)
C4P C 0.30302(27) 0.4244(2) 0.15559(7)
C4Q C 1.12134(18) 0.69698(27) 0.15559(7)
H3A H 0.7645 -0.0619 -0.0027
H3B H 1.0619 0.8264 -0.0027
H3O H 0.5688 -0.1597 0.1694
H3P H 0.2714 0.4312 0.1694
H3Q H 1.1597 0.7286 0.1694
C5A C 0.74224(17) 0.04028(23) 0.00617(5)
C5B C 0.95972(23) 0.70196(16) 0.00617(5)
C5O C 0.59109(17) -0.03529(16) 0.16050(5)
C5P C 0.37361(23) 0.40891(17) 0.16050(5)
C5Q C 1.03529(16) 0.62639(23) 0.16050(5)
H4A H 0.7370 0.0545 -0.0110
H4B H 0.9455 0.6825 -0.0110
H4O H 0.5963 -0.0158 0.1777
H4P H 0.3878 0.4037 0.1777
H4Q H 1.0158 0.6122 0.1777
C6A C 0.73412(15) 0.09129(22) 0.02639(5)
C6B C 0.90871(22) 0.64283(16) 0.02639(5)
C6O C 0.59921(15) 0.02384(16) 0.14028(5)
C6P C 0.42462(22) 0.40079(15) 0.14028(5)
C6Q C 0.97616(16) 0.57538(22) 0.14028(5)
C7A C 0.71124(16) 0.18902(22) -0.00490(4)
C7B C 0.81098(22) 0.52222(15) -0.00490(4)
C7O C 0.62209(16) 0.14445(15) 0.17157(4)
C7P C 0.52235(22) 0.37791(16) 0.17157(4)
C7Q C 0.85555(15) 0.47765(22) 0.17157(4)
H5A H 0.6648 0.1378 -0.0145
H5B H 0.8622 0.5270 -0.0145
H5O H 0.6685 0.1397 0.1812
H5P H 0.4711 0.3315 0.1812
H5Q H 0.8603 0.5289 0.1812
H6A H 0.7686 0.2101 -0.0138
H6B H 0.7899 0.5585 -0.0138
H6O H 0.5647 0.1082 0.1805
H6P H 0.5434 0.4353 0.1805
H6Q H 0.8918 0.4566 0.1805
C8A C 0.68843(15) 0.26434(21) -0.00433(4)
C8B C 0.73566(21) 0.42409(15) -0.00433(4)
C8O C 0.64490(15) 0.24258(15) 0.17100(4)
C8P C 0.59767(21) 0.35510(15) 0.17100(4)
C8Q C 0.75742(15) 0.40233(21) 0.17100(4)
C9A C 0.59715(15) 0.24213(21) -0.00418(4)
C9B C 0.75787(21) 0.35502(15) -0.00418(4)
C9O C 0.73618(15) 0.31165(15) 0.17085(4)
C9P C 0.57546(21) 0.26382(15) 0.17085(4)
C9Q C 0.68835(15) 0.42454(21) 0.17085(4)
C10A C 0.52213(17) 0.14307(24) -0.00387(5)
C10B C 0.85693(24) 0.37906(17) -0.00387(5)
C10O C 0.81120(17) 0.28761(17) 0.17054(5)
C10P C 0.47640(24) 0.18880(17) 0.17054(5)
C10Q C 0.71239(17) 0.52360(24) 0.17054(5)
H7A H 0.5427 0.1080 0.0059
H7B H 0.8920 0.4347 0.0059
H7O H 0.7906 0.2320 0.1608
H7P H 0.4413 0.2094 0.1608
H7Q H 0.7680 0.5587 0.1608
H8A H 0.4697 0.1383 0.0050
H8B H 0.8617 0.3314 0.0050
H8O H 0.8636 0.3353 0.1617
H8P H 0.4716 0.1364 0.1617
H8Q H 0.6647 0.5284 0.1617
C11A C 0.49401(18) 0.10271(27) -0.03108(5)
C11B C 0.89729(27) 0.3913(2) -0.03108(5)
C11O C 0.83932(18) 0.2754(2) 0.19775(5)
C11P C 0.43604(27) 0.16068(18) 0.19775(5)
C11Q C 0.7246(2) 0.56396(27) 0.19775(5)
H9A H 0.4469 0.0405 -0.0297
H9B H 0.9595 0.4064 -0.0297
H9O H 0.8864 0.2603 0.1964
H9P H 0.3738 0.1136 0.1964
H9Q H 0.7397 0.6262 0.1964
H10A H 0.5453 0.1060 -0.0399
H10B H 0.8940 0.4393 -0.0399
H10O H 0.7880 0.2274 0.2066
H10P H 0.4393 0.2120 0.2066
H10Q H 0.7726 0.5607 0.2066
H11A H 0.4722 0.1361 -0.0408
H11B H 0.8639 0.3361 -0.0408
H11O H 0.8611 0.3306 0.2075
H11P H 0.4694 0.1389 0.2075
H11Q H 0.6694 0.5306 0.2075
N1A N 0.71737(15) 0.16039(21) 0.02143(4)
N1B N 0.83961(21) 0.55698(14) 0.02143(4)
N1O N 0.61596(15) 0.10969(14) 0.14524(4)
N1P N 0.49372(21) 0.38404(15) 0.14524(4)
N1Q N 0.89031(14) 0.50628(21) 0.14524(4)
H12A H 0.7101 0.1881 0.0344
H12B H 0.8119 0.5220 0.0344
H12O H 0.6232 0.1447 0.1323
H12P H 0.5214 0.3768 0.1323
H12Q H 0.8553 0.4786 0.1323
S1A S 0.73460(7) 0.13067(9) 0.078505(15)
S1B S 0.86933(9) 0.60393(6) 0.078505(15)
S1O S 0.59873(7) 0.06274(6) 0.088162(15)
S1P S 0.46400(9) 0.40127(7) 0.088162(15)
S1Q S 0.93726(6) 0.53600(9) 0.088162(15)
loop_
_geom_bond_atom_site_label_1
_geom_bond_atom_site_label_2
_geom_bond_site_symmetry_1
_geom_bond_site_symmetry_2
C1 C2 1_555 1_555
C2 H1 1_555 1_555
C3 C2 1_555 1_555
H2 C3 1_555 1_555
C4 C3 1_555 1_555
H3 C4 1_555 1_555
C5 C4 1_555 1_555
H4 C5 1_555 1_555
C6 C1 1_555 1_555
C7 H5 1_555 1_555
H6 C7 1_555 1_555
C8 C7 1_555 1_555
C9 C8 1_555 1_555
C10 C9 1_555 1_555
H7 C10 1_555 1_555
H8 C10 1_555 1_555
C11 C10 1_555 1_555
H9 C11 1_555 1_555
H10 C11 1_555 1_555
H11 C11 1_555 1_555
N1 C6 1_555 1_555
H12 N1 1_555 1_555
S1 C1 1_555 1_555
C1A C2A 1_555 1_555
C1B C2B 1_555 1_555
C1O C2O 1_555 1_555
C1P C2P 1_555 1_555
C1Q C2Q 1_555 1_555
C2A H1A 1_555 1_555
C2B H1B 1_555 1_555
C2O H1O 1_555 1_555
C2P H1P 1_555 1_555
C2Q H1Q 1_555 1_555
C3A C2A 1_555 1_555
C3B C2B 1_555 1_555
C3O C2O 1_555 1_555
C3P C2P 1_555 1_555
C3Q C2Q 1_555 1_555
H2A C3A 1_555 1_555
H2B C3B 1_555 1_555
H2O C3O 1_555 1_555
H2P C3P 1_555 1_555
H2Q C3Q 1_555 1_555
C4A C3A 1_555 1_555
C4B C3B 1_555 1_555
C4O C3O 1_555 1_555
C4P C3P 1_555 1_555
C4Q C3Q 1_555 1_555
H3A C4A 1_555 1_555
H3B C4B 1_555 1_555
H3O C4O 1_555 1_555
H3P C4P 1_555 1_555
H3Q C4Q 1_555 1_555
C5A C4A 1_555 1_555
C5B C4B 1_555 1_555
C5O C4O 1_555 1_555
C5P C4P 1_555 1_555
C5Q C4Q 1_555 1_555
H4A C5A 1_555 1_555
H4B C5B 1_555 1_555
H4O C5O 1_555 1_555
H4P C5P 1_555 1_555
H4Q C5Q 1_555 1_555
C6A C1A 1_555 1_555
C6B C1B 1_555 1_555
C6O C1O 1_555 1_555
C6P C1P 1_555 1_555
C6Q C1Q 1_555 1_555
C7A H5A 1_555 1_555
C7B H5B 1_555 1_555
C7O H5O 1_555 1_555
C7P H5P 1_555 1_555
C7Q H5Q 1_555 1_555
H6A C7A 1_555 1_555
H6B C7B 1_555 1_555
H6O C7O 1_555 1_555
H6P C7P 1_555 1_555
H6Q C7Q 1_555 1_555
C8A C7A 1_555 1_555
C8B C9 1_555 1_555
C8O C7O 1_555 1_555
C8P C7P 1_555 1_555
C8Q C7Q 1_555 1_555
C9A C8 1_555 1_555
C9B C8A 1_555 1_555
C9O C8O 1_555 1_555
C9P C8O 1_555 1_555
C9Q C8P 1_555 1_555
C10A C9A 1_555 1_555
C10B C9B 1_555 1_555
C10O C9O 1_555 1_555
C10P C9P 1_555 1_555
C10Q C9Q 1_555 1_555
H7A C10A 1_555 1_555
H7B C10B 1_555 1_555
H7O C10O 1_555 1_555
H7P C10P 1_555 1_555
H7Q C10Q 1_555 1_555
H8A C10A 1_555 1_555
H8B C10B 1_555 1_555
H8O C10O 1_555 1_555
H8P C10P 1_555 1_555
H8Q C10Q 1_555 1_555
C11A C10A 1_555 1_555
C11B C10B 1_555 1_555
C11O C10O 1_555 1_555
C11P C10P 1_555 1_555
C11Q C10Q 1_555 1_555
H9A C11A 1_555 1_555
H9B C11B 1_555 1_555
H9O C11O 1_555 1_555
H9P C11P 1_555 1_555
H9Q C11Q 1_555 1_555
H10A C11A 1_555 1_555
H10B C11B 1_555 1_555
H10O C11O 1_555 1_555
H10P C11P 1_555 1_555
H10Q C11Q 1_555 1_555
H11A C11A 1_555 1_555
H11B C11B 1_555 1_555
H11O C11O 1_555 1_555
H11P C11P 1_555 1_555
H11Q C11Q 1_555 1_555
N1A C6A 1_555 1_555
N1B C6B 1_555 1_555
N1O C6O 1_555 1_555
N1P C6P 1_555 1_555
N1Q C6Q 1_555 1_555
H12A N1A 1_555 1_555
H12B N1B 1_555 1_555
H12O N1O 1_555 1_555
H12P N1P 1_555 1_555
H12Q N1Q 1_555 1_555
S1A C1A 1_555 1_555
S1B C1B 1_555 1_555
S1O C1O 1_555 1_555
S1P S1 1_555 1_555
S1Q C1Q 1_555 1_555
C5 C6 1_555 1_555
C7 N1 1_555 1_555
C1P S1P 1_555 1_555
C5A C6A 1_555 1_555
C5B C6B 1_555 1_555
C5O C6O 1_555 1_555
C5P C6P 1_555 1_555
C5Q C6Q 1_555 1_555
C7A N1A 1_555 1_555
C7B C8B 1_555 1_555
C7B N1B 1_555 1_555
C7O N1O 1_555 1_555
C7P N1P 1_555 1_555
C7Q N1Q 1_555 1_555
C8A C9A 1_555 1_555
C8B C9B 1_555 1_555
C8P C9P 1_555 1_555
C8Q C9O 1_555 1_555
C8Q C9Q 1_555 1_555
S1A S1O 1_555 1_555
S1B S1Q 1_555 1_555

#END
