
#######################################################################
#
#                 Cambridge Crystallographic Data Centre
#                                CCDC 
#
#######################################################################
#
# If this CIF has been generated from an entry in the Cambridge 
# Structural Database, then it will include bibliographic, chemical, 
# crystal, experimental, refinement or atomic coordinate data resulting 
# from the CCDC's data processing and validation procedures.
#
#######################################################################

data_CUBZOP
_chemical_formula_moiety         'C36 H45 N3 S3'
_chemical_name_systematic        
N,N',N''-((2,4,6-Triethylbenzene-1,3,5-triyl)tris(methylene))tris(2-(methylsulfanyl)aniline)
_symmetry_cell_setting           monoclinic
_symmetry_space_group_name_H-M   'P 21/c'
_symmetry_Int_Tables_number      14
_space_group_name_Hall           '-P 2ybc'
loop_
_symmetry_equiv_pos_site_id
_symmetry_equiv_pos_as_xyz
1 x,y,z
2 -x,1/2+y,1/2-z
3 -x,-y,-z
4 x,1/2-y,1/2+z
_cell_length_a                   8.078(2)
_cell_length_b                   19.701(5)
_cell_length_c                   22.402(5)
_cell_angle_alpha                90
_cell_angle_beta                 109.793(9)
_cell_angle_gamma                90
_cell_volume                     3354.54
_exptl_crystal_colour            colorless
_exptl_crystal_description       needle
_cell_formula_units_Z            4
_exptl_crystal_recrystallization_method hexane/tetrahydrofuran
loop_
_atom_site_label
_atom_site_type_symbol
_atom_site_fract_x
_atom_site_fract_y
_atom_site_fract_z
S1 S 0.1852(3) 0.72897(10) 0.98953(9)
S2 S 0.7354(2) 0.62495(10) 0.80926(10)
S3 S -0.1392(2) 0.77059(10) 0.66875(9)
N1 N 0.3275(6) 0.8614(3) 0.9725(2)
H1 H 0.3431 0.8161 0.9544
N2 N 0.8024(6) 0.7743(3) 0.8300(2)
H2 H 0.7067 0.7452 0.8214
N3 N 0.0840(7) 0.8902(3) 0.6946(3)
H3 H 0.1033 0.8516 0.7136
C1 C 0.3173(8) 0.9316(3) 0.8399(3)
C2 C 0.4490(8) 0.9103(3) 0.8962(3)
C3 C 0.6043(8) 0.8811(3) 0.8935(3)
C4 C 0.6310(8) 0.8755(3) 0.8353(3)
C5 C 0.5011(8) 0.8962(3) 0.7789(3)
C6 C 0.3432(8) 0.9247(3) 0.7809(3)
C7 C 0.1503(8) 0.9654(3) 0.8424(3)
H4 H 0.0537 0.9541 0.8041
H5 H 0.1225 0.9471 0.8782
C8 C 0.1652(8) 1.0419(3) 0.8488(3)
H6 H 0.2586 1.0535 0.8872
H7 H 0.0564 1.0603 0.8501
H8 H 0.1900 1.0605 0.8131
C9 C 0.7445(8) 0.8579(3) 0.9540(3)
H9 H 0.8088 0.8203 0.9443
H10 H 0.6882 0.8414 0.9832
C10 C 0.8738(8) 0.9137(4) 0.9863(3)
H11 H 0.9370 0.9277 0.9590
H12 H 0.9552 0.8969 1.0254
H13 H 0.8107 0.9517 0.9947
C11 C 0.5300(9) 0.8924(4) 0.7152(3)
H14 H 0.6089 0.8550 0.7159
H15 H 0.4186 0.8833 0.6820
C12 C 0.6073(9) 0.9577(4) 0.7000(3)
H16 H 0.5341 0.9953 0.7023
H17 H 0.6134 0.9550 0.6580
H18 H 0.7234 0.9642 0.7301
C13 C 0.4216(8) 0.9186(3) 0.9584(3)
H19 H 0.5349 0.9231 0.9918
H20 H 0.3555 0.9599 0.9576
C14 C 0.8027(8) 0.8477(3) 0.8336(3)
H21 H 0.8260 0.8663 0.7971
H22 H 0.8969 0.8621 0.8714
C15 C 0.2025(8) 0.9463(3) 0.7210(3)
H23 H 0.1370 0.9840 0.7298
H24 H 0.2558 0.9614 0.6904
C16 C 0.3075(8) 0.8542(4) 1.0312(3)
C17 C 0.3477(8) 0.9077(4) 1.0747(3)
H25 H 0.3918 0.9480 1.0645
C18 C 0.3228(10) 0.9020(5) 1.1341(4)
H26 H 0.3539 0.9375 1.1631
C19 C 0.2520(11) 0.8434(6) 1.1483(4)
H27 H 0.2326 0.8392 1.1867
C20 C 0.2095(10) 0.7905(5) 1.1050(4)
H28 H 0.1608 0.7511 1.1148
C21 C 0.2377(8) 0.7946(4) 1.0472(3)
C22 C 0.9452(8) 0.7376(4) 0.8259(3)
C23 C 1.1019(8) 0.7703(3) 0.8310(3)
H29 H 1.1103 0.8170 0.8370
C24 C 1.2462(9) 0.7346(4) 0.8274(3)
H30 H 1.3497 0.7574 0.8308
C25 C 1.2365(10) 0.6650(4) 0.8187(3)
H31 H 1.3322 0.6404 0.8162
C26 C 1.0797(10) 0.6330(4) 0.8138(3)
H32 H 1.0713 0.5863 0.8076
C27 C 0.9359(8) 0.6676(4) 0.8177(3)
C28 C -0.0587(9) 0.8969(4) 0.6395(3)
C29 C -0.0875(9) 0.9563(4) 0.6038(3)
H33 H -0.0101 0.9926 0.6169
C30 C -0.2336(11) 0.9613(5) 0.5480(4)
H34 H -0.2517 1.0006 0.5237
C31 C -0.3498(11) 0.9082(5) 0.5292(4)
H35 H -0.4470 0.9125 0.4924
C32 C -0.3259(10) 0.8484(4) 0.5636(4)
H36 H -0.4057 0.8129 0.5498
C33 C -0.1807(9) 0.8419(4) 0.6195(3)
C34 C 0.1595(11) 0.6564(4) 1.0311(4)
H37 H 0.2560 0.6533 1.0704
H38 H 0.1573 0.6167 1.0060
H39 H 0.0511 0.6596 1.0397
C35 C 0.7460(10) 0.6225(4) 0.8900(4)
H40 H 0.8492 0.5980 0.9147
H41 H 0.6432 0.6003 0.8928
H42 H 0.7515 0.6680 0.9059
C36 C -0.3134(12) 0.7181(5) 0.6346(5)
H43 H -0.4211 0.7422 0.6284
H44 H -0.3069 0.6797 0.6618
H45 H -0.3102 0.7026 0.5943
loop_
_geom_bond_atom_site_label_1
_geom_bond_atom_site_label_2
_geom_bond_site_symmetry_1
_geom_bond_site_symmetry_2
S1 C21 1_555 1_555
S2 C27 1_555 1_555
S3 C33 1_555 1_555
N1 H1 1_555 1_555
N2 H2 1_555 1_555
N3 H3 1_555 1_555
C1 C2 1_555 1_555
C2 C3 1_555 1_555
C3 C4 1_555 1_555
C4 C5 1_555 1_555
C5 C6 1_555 1_555
C6 C1 1_555 1_555
C7 C1 1_555 1_555
H4 C7 1_555 1_555
H5 C7 1_555 1_555
C8 C7 1_555 1_555
H6 C8 1_555 1_555
H7 C8 1_555 1_555
H8 C8 1_555 1_555
C9 C3 1_555 1_555
H9 C9 1_555 1_555
H10 C9 1_555 1_555
C10 C9 1_555 1_555
H11 C10 1_555 1_555
H12 C10 1_555 1_555
H13 C10 1_555 1_555
C11 C5 1_555 1_555
H14 C11 1_555 1_555
H15 C11 1_555 1_555
C12 C11 1_555 1_555
H16 C12 1_555 1_555
H17 C12 1_555 1_555
H18 C12 1_555 1_555
C13 N1 1_555 1_555
H19 C13 1_555 1_555
H20 C13 1_555 1_555
C14 N2 1_555 1_555
H21 C14 1_555 1_555
H22 C14 1_555 1_555
C15 N3 1_555 1_555
H23 C15 1_555 1_555
H24 C15 1_555 1_555
C16 N1 1_555 1_555
C17 C16 1_555 1_555
H25 C17 1_555 1_555
C18 C17 1_555 1_555
H26 C18 1_555 1_555
C19 C18 1_555 1_555
H27 C19 1_555 1_555
C20 C19 1_555 1_555
H28 C20 1_555 1_555
C21 C16 1_555 1_555
C22 N2 1_555 1_555
C23 C22 1_555 1_555
H29 C23 1_555 1_555
C24 C23 1_555 1_555
H30 C24 1_555 1_555
C25 C24 1_555 1_555
H31 C25 1_555 1_555
C26 C25 1_555 1_555
H32 C26 1_555 1_555
C27 C22 1_555 1_555
C28 N3 1_555 1_555
C29 C28 1_555 1_555
H33 C29 1_555 1_555
C30 C29 1_555 1_555
H34 C30 1_555 1_555
C31 C30 1_555 1_555
H35 C31 1_555 1_555
C32 C31 1_555 1_555
H36 C32 1_555 1_555
C33 C28 1_555 1_555
C34 S1 1_555 1_555
H37 C34 1_555 1_555
H38 C34 1_555 1_555
H39 C34 1_555 1_555
C35 S2 1_555 1_555
H40 C35 1_555 1_555
H41 C35 1_555 1_555
H42 C35 1_555 1_555
C36 S3 1_555 1_555
H43 C36 1_555 1_555
H44 C36 1_555 1_555
H45 C36 1_555 1_555
C2 C13 1_555 1_555
C4 C14 1_555 1_555
C6 C15 1_555 1_555
C20 C21 1_555 1_555
C26 C27 1_555 1_555
C32 C33 1_555 1_555

#END
