
#######################################################################
#
#                 Cambridge Crystallographic Data Centre
#                                CCDC 
#
#######################################################################
#
# If this CIF has been generated from an entry in the Cambridge 
# Structural Database, then it will include bibliographic, chemical, 
# crystal, experimental, refinement or atomic coordinate data resulting 
# from the CCDC's data processing and validation procedures.
#
#######################################################################

data_CUCBUY
_chemical_name_common            
(+/-)-14-Cyclohexyl-13-oxa-3,10,14-triazatetracyclo[10.2.1.0$2,10!.0$4,9!]pentadeca-2,4,6,8-tetraene
_chemical_formula_moiety         'C17 H21 N3 O1'
_chemical_name_systematic        
(1R*,4S*)-2-Cyclohexyl-1,2,4,5-tetrahydro-1,4-methano[1,2,5]oxadiazepino[5,4-a]benzimidazole
_symmetry_cell_setting           monoclinic
_symmetry_space_group_name_H-M   'P 21/c'
_symmetry_Int_Tables_number      14
_space_group_name_Hall           '-P 2ybc'
loop_
_symmetry_equiv_pos_site_id
_symmetry_equiv_pos_as_xyz
1 x,y,z
2 -x,1/2+y,1/2-z
3 -x,-y,-z
4 x,1/2-y,1/2+z
_cell_length_a                   6.0901(7)
_cell_length_b                   26.031(3)
_cell_length_c                   9.6458(12)
_cell_angle_alpha                90
_cell_angle_beta                 107.776(2)
_cell_angle_gamma                90
_cell_volume                     1456.16
_exptl_crystal_colour            colorless
_exptl_crystal_description       plate
_chemical_melting_point          '224-225 deg.C'
_cell_formula_units_Z            4
loop_
_atom_site_label
_atom_site_type_symbol
_atom_site_fract_x
_atom_site_fract_y
_atom_site_fract_z
N1 N 0.5885(3) 0.69095(7) 0.0512(2)
O1 O 0.3352(2) 0.69954(6) 0.00392(17)
C1 C 0.6169(4) 0.63447(9) 0.0442(2)
H1 H 0.513(4) 0.6214(9) -0.051(3)
C2 C 0.5437(4) 0.61053(9) 0.1678(3)
H2 H 0.643(5) 0.6263(11) 0.260(3)
H3 H 0.384(5) 0.6206(10) 0.159(3)
C3 C 0.5671(4) 0.55234(10) 0.1707(3)
H4 H 0.458(5) 0.5372(10) 0.080(3)
H5 H 0.522(6) 0.5379(13) 0.256(4)
C4 C 0.8137(4) 0.53607(10) 0.1837(3)
H6 H 0.918(5) 0.5463(11) 0.280(4)
H7 H 0.826(4) 0.4973(10) 0.181(3)
C5 C 0.8925(4) 0.56084(10) 0.0635(3)
H8 H 0.802(6) 0.5462(12) -0.029(4)
H9 H 1.059(5) 0.5516(11) 0.080(3)
C6 C 0.8666(4) 0.61933(10) 0.0601(3)
H10 H 0.962(5) 0.6353(11) 0.156(4)
H11 H 0.909(5) 0.6345(11) -0.018(3)
C7 C 0.2644(4) 0.72034(9) -0.1440(2)
H12 H 0.124(5) 0.7024(10) -0.198(3)
C8 C 0.2224(4) 0.77733(9) -0.1348(3)
H13 H 0.160(4) 0.7924(10) -0.240(3)
H14 H 0.114(5) 0.7843(10) -0.086(3)
N2 N 0.4425(3) 0.80163(7) -0.0571(2)
C9 C 0.4824(4) 0.85092(9) -0.0031(2)
C10 C 0.3341(4) 0.89170(9) -0.0031(3)
H15 H 0.173(5) 0.8890(11) -0.042(3)
C11 C 0.4329(4) 0.93625(10) 0.0666(3)
H16 H 0.341(4) 0.9673(10) 0.065(3)
C12 C 0.6723(5) 0.94028(10) 0.1334(3)
H17 H 0.738(4) 0.9731(9) 0.181(3)
C13 C 0.8201(4) 0.89927(9) 0.1343(3)
H18 H 0.986(5) 0.9017(10) 0.184(3)
N3 N 0.8248(3) 0.80682(7) 0.0527(2)
C14 C 0.7234(4) 0.85388(9) 0.0655(2)
C15 C 0.6523(4) 0.77720(9) -0.0194(2)
C16 C 0.6595(4) 0.72151(9) -0.0573(2)
H19 H 0.817(4) 0.7105(9) -0.052(3)
C17 C 0.4696(4) 0.71146(10) -0.2005(3)
H20 H 0.476(4) 0.6757(9) -0.230(3)
H21 H 0.476(5) 0.7360(11) -0.277(3)
loop_
_geom_bond_atom_site_label_1
_geom_bond_atom_site_label_2
_geom_bond_site_symmetry_1
_geom_bond_site_symmetry_2
N1 O1 1_555 1_555
O1 C7 1_555 1_555
C1 N1 1_555 1_555
H1 C1 1_555 1_555
C2 C1 1_555 1_555
H2 C2 1_555 1_555
H3 C2 1_555 1_555
C3 C2 1_555 1_555
H4 C3 1_555 1_555
H5 C3 1_555 1_555
C4 C3 1_555 1_555
H6 C4 1_555 1_555
H7 C4 1_555 1_555
C5 C4 1_555 1_555
H8 C5 1_555 1_555
H9 C5 1_555 1_555
C6 C1 1_555 1_555
H10 C6 1_555 1_555
H11 C6 1_555 1_555
C7 H12 1_555 1_555
C8 C7 1_555 1_555
H13 C8 1_555 1_555
H14 C8 1_555 1_555
N2 C8 1_555 1_555
C9 N2 1_555 1_555
C10 C9 1_555 1_555
H15 C10 1_555 1_555
C11 C10 1_555 1_555
H16 C11 1_555 1_555
C12 C11 1_555 1_555
H17 C12 1_555 1_555
C13 C12 1_555 1_555
H18 C13 1_555 1_555
N3 C14 1_555 1_555
C14 C9 1_555 1_555
C15 N2 1_555 1_555
C16 N1 1_555 1_555
H19 C16 1_555 1_555
C17 C7 1_555 1_555
H20 C17 1_555 1_555
H21 C17 1_555 1_555
C5 C6 1_555 1_555
C13 C14 1_555 1_555
N3 C15 1_555 1_555
C15 C16 1_555 1_555
C16 C17 1_555 1_555

#END
