
#######################################################################
#
#                 Cambridge Crystallographic Data Centre
#                                CCDC 
#
#######################################################################
#
# If this CIF has been generated from an entry in the Cambridge 
# Structural Database, then it will include bibliographic, chemical, 
# crystal, experimental, refinement or atomic coordinate data resulting 
# from the CCDC's data processing and validation procedures.
#
#######################################################################

data_CUCBIM
_chemical_formula_moiety         'C21 H29 N3 O1'
_chemical_name_systematic        
(3S*,3aR*,10bR*)-1-Cyclohexyl-3-t-butyl-1,3a,4,10b-tetrahydro-3H-benzoimidazo[1',2':1,2]pyrrolo[3,4-c]isoxazole
_symmetry_cell_setting           monoclinic
_symmetry_space_group_name_H-M   'P 21/c'
_symmetry_Int_Tables_number      14
_space_group_name_Hall           '-P 2ybc'
loop_
_symmetry_equiv_pos_site_id
_symmetry_equiv_pos_as_xyz
1 x,y,z
2 -x,1/2+y,1/2-z
3 -x,-y,-z
4 x,1/2-y,1/2+z
_cell_length_a                   8.7705(15)
_cell_length_b                   23.279(4)
_cell_length_c                   9.3612(16)
_cell_angle_alpha                90
_cell_angle_beta                 105.028(3)
_cell_angle_gamma                90
_cell_volume                     1845.9
_exptl_crystal_colour            colorless
_exptl_crystal_description       plate
_chemical_melting_point          '216-217 deg.C'
_cell_formula_units_Z            4
loop_
_atom_site_label
_atom_site_type_symbol
_atom_site_fract_x
_atom_site_fract_y
_atom_site_fract_z
O1 O 0.45362(11) 0.32294(4) 0.36899(11)
C1 C 0.26661(17) 0.26425(6) 0.43330(16)
H1 H 0.1731(19) 0.2759(7) 0.471(2)
C2 C 0.25556(16) 0.20418(6) 0.37609(16)
N1 N 0.28936(14) 0.30570(5) 0.31797(13)
N2 N 0.15198(15) 0.17566(5) 0.27506(15)
C3 C 0.22521(17) 0.12255(6) 0.27239(16)
C4 C 0.17288(19) 0.07488(7) 0.18212(18)
H2 H 0.0697(19) 0.0744(7) 0.1124(19)
C5 C 0.2712(2) 0.02755(7) 0.19830(19)
H3 H 0.233(2) -0.0050(9) 0.135(2)
C6 C 0.4174(2) 0.02654(7) 0.30215(18)
H4 H 0.481(2) -0.0083(8) 0.312(2)
C7 C 0.47216(19) 0.07297(7) 0.39363(17)
H5 H 0.5713(19) 0.0722(7) 0.4680(19)
C8 C 0.37438(17) 0.12097(6) 0.37580(16)
N3 N 0.38876(14) 0.17456(5) 0.44083(13)
C9 C 0.50817(18) 0.20762(7) 0.54611(16)
H6 H 0.606(2) 0.2117(7) 0.507(2)
H7 H 0.541(2) 0.1857(8) 0.641(2)
C10 C 0.42233(17) 0.26469(6) 0.56004(16)
H8 H 0.3959(19) 0.2652(7) 0.655(2)
C11 C 0.49568(17) 0.32125(6) 0.52862(15)
H9 H 0.4318(16) 0.3527(6) 0.5646(16)
C12 C 0.18372(17) 0.35625(6) 0.30586(16)
H10 H 0.1782(19) 0.3684(8) 0.4073(19)
C13 C 0.02205(18) 0.33705(7) 0.21246(19)
H11 H -0.021(2) 0.3035(8) 0.263(2)
H12 H 0.036(2) 0.3228(8) 0.118(2)
C14 C -0.09579(19) 0.38687(8) 0.1852(2)
H13 H -0.112(2) 0.3993(9) 0.282(2)
H14 H -0.203(2) 0.3740(8) 0.122(2)
C15 C -0.0345(2) 0.43774(7) 0.11390(19)
H15 H -0.023(2) 0.4262(9) 0.013(2)
H16 H -0.112(2) 0.4707(9) 0.095(2)
C16 C 0.1264(2) 0.45634(7) 0.20757(19)
H17 H 0.118(2) 0.4722(9) 0.309(2)
H18 H 0.167(2) 0.4913(10) 0.166(2)
C17 C 0.24468(19) 0.40676(7) 0.23383(18)
H19 H 0.259(2) 0.3946(9) 0.136(2)
H20 H 0.346(2) 0.4191(8) 0.293(2)
C18 C 0.67171(17) 0.33643(7) 0.58618(16)
C19 C 0.6859(2) 0.40150(8) 0.5650(2)
H21 H 0.649(2) 0.4116(9) 0.456(3)
H22 H 0.799(2) 0.4132(8) 0.6099(19)
H23 H 0.618(2) 0.4224(8) 0.618(2)
C20 C 0.78007(19) 0.30638(8) 0.50457(18)
H24 H 0.790(2) 0.2652(8) 0.525(2)
H25 H 0.886(2) 0.3223(7) 0.5435(19)
H26 H 0.741(2) 0.3127(8) 0.397(2)
C21 C 0.7257(2) 0.32192(8) 0.75081(18)
H27 H 0.661(2) 0.3410(8) 0.804(2)
H28 H 0.839(2) 0.3333(8) 0.794(2)
H29 H 0.719(2) 0.2790(9) 0.769(2)
loop_
_geom_bond_atom_site_label_1
_geom_bond_atom_site_label_2
_geom_bond_site_symmetry_1
_geom_bond_site_symmetry_2
O1 N1 1_555 1_555
C1 H1 1_555 1_555
C2 C1 1_555 1_555
N1 C1 1_555 1_555
N2 C2 1_555 1_555
C3 N2 1_555 1_555
C4 C3 1_555 1_555
H2 C4 1_555 1_555
C5 C4 1_555 1_555
H3 C5 1_555 1_555
C6 C5 1_555 1_555
H4 C6 1_555 1_555
C7 C6 1_555 1_555
H5 C7 1_555 1_555
C8 C3 1_555 1_555
N3 C2 1_555 1_555
C9 N3 1_555 1_555
H6 C9 1_555 1_555
H7 C9 1_555 1_555
C10 C1 1_555 1_555
H8 C10 1_555 1_555
C11 O1 1_555 1_555
H9 C11 1_555 1_555
C12 N1 1_555 1_555
H10 C12 1_555 1_555
C13 C12 1_555 1_555
H11 C13 1_555 1_555
H12 C13 1_555 1_555
C14 C13 1_555 1_555
H13 C14 1_555 1_555
H14 C14 1_555 1_555
C15 C14 1_555 1_555
H15 C15 1_555 1_555
H16 C15 1_555 1_555
C16 C15 1_555 1_555
H17 C16 1_555 1_555
H18 C16 1_555 1_555
C17 C12 1_555 1_555
H19 C17 1_555 1_555
H20 C17 1_555 1_555
C18 C11 1_555 1_555
C19 C18 1_555 1_555
H21 C19 1_555 1_555
H22 C19 1_555 1_555
H23 C19 1_555 1_555
C20 C18 1_555 1_555
H24 C20 1_555 1_555
H25 C20 1_555 1_555
H26 C20 1_555 1_555
C21 C18 1_555 1_555
H27 C21 1_555 1_555
H28 C21 1_555 1_555
H29 C21 1_555 1_555
C7 C8 1_555 1_555
C8 N3 1_555 1_555
C9 C10 1_555 1_555
C10 C11 1_555 1_555
C16 C17 1_555 1_555

#END
