
#######################################################################
#
#                 Cambridge Crystallographic Data Centre
#                                CCDC 
#
#######################################################################
#
# If this CIF has been generated from an entry in the Cambridge 
# Structural Database, then it will include bibliographic, chemical, 
# crystal, experimental, refinement or atomic coordinate data resulting 
# from the CCDC's data processing and validation procedures.
#
#######################################################################

data_CUCDEL01
_chemical_compound_source        
'Penicillium bilaiae MA-267, a fungus obtained from the rhizospheric soil of the mangrove plant Lumnitzera racemosa'
_chemical_name_common            'Penicibilaene B'
_chemical_formula_moiety         'C17 H26 O3'
_chemical_name_systematic        
'6-Hydroxy-2,6,9-trimethyltricyclo[6.3.1.0^1,5^]dodec-9-en-4-yl acetate'
_symmetry_cell_setting           monoclinic
_symmetry_space_group_name_H-M   'P 21'
_symmetry_Int_Tables_number      4
_space_group_name_Hall           'P 2yb'
loop_
_symmetry_equiv_pos_site_id
_symmetry_equiv_pos_as_xyz
1 x,y,z
2 -x,1/2+y,-z
_cell_length_a                   6.9819(7)
_cell_length_b                   7.4115(6)
_cell_length_c                   15.4050(11)
_cell_angle_alpha                90
_cell_angle_beta                 93.279(6)
_cell_angle_gamma                90
_cell_volume                     795.847
_cell_formula_units_Z            2
loop_
_atom_site_label
_atom_site_type_symbol
_atom_site_fract_x
_atom_site_fract_y
_atom_site_fract_z
O1 O 0.5409(7) 0.3538(7) 0.2768(3)
H1 H 0.5480 0.3381 0.3296
O2 O 0.2992(6) 0.7806(7) 0.4039(2)
O3 O 0.4505(7) 0.7527(8) 0.5356(3)
C1 C 0.3684(10) 0.4546(9) 0.2524(4)
C2 C 0.4044(9) 0.6546(8) 0.2690(3)
H2 H 0.2831 0.7173 0.2548
C3 C 0.4644(8) 0.7007(9) 0.3636(4)
H3 H 0.5077 0.5920 0.3952
C4 C 0.6289(8) 0.8369(9) 0.3600(4)
H4 H 0.5807 0.9594 0.3547
H5 H 0.7158 0.8282 0.4113
C5 C 0.7265(8) 0.7797(10) 0.2790(4)
H6 H 0.7933 0.6655 0.2914
C6 C 0.5598(8) 0.7428(9) 0.2119(3)
C7 C 0.4737(9) 0.9121(9) 0.1692(4)
H7 H 0.4160 0.9856 0.2128
H8 H 0.5747 0.9822 0.1447
C8 C 0.3241(10) 0.8652(11) 0.0986(4)
H9 H 0.2438 0.9574 0.0776
C9 C 0.2984(10) 0.7054(10) 0.0644(4)
C10 C 0.4249(10) 0.5471(10) 0.0930(4)
H10 H 0.4572 0.4788 0.0414
C11 C 0.3234(10) 0.4192(9) 0.1551(4)
H11 H 0.1860 0.4293 0.1431
H12 H 0.3597 0.2961 0.1423
C12 C 0.6115(9) 0.6182(9) 0.1388(4)
H13 H 0.6882 0.5182 0.1619
H14 H 0.6859 0.6832 0.0977
C13 C 0.2052(9) 0.3818(10) 0.3054(4)
H15 H 0.2419 0.3894 0.3663
H16 H 0.1801 0.2583 0.2899
H17 H 0.0915 0.4524 0.2930
C14 C 0.3166(10) 0.7967(11) 0.4896(4)
C15 C 0.1428(10) 0.8844(14) 0.5232(5)
H18 H 0.1508 0.8809 0.5856
H19 H 0.0300 0.8210 0.5016
H20 H 0.1360 1.0076 0.5040
C16 C 0.8755(9) 0.9192(11) 0.2509(4)
H21 H 0.9801 0.9250 0.2940
H22 H 0.8159 1.0357 0.2450
H23 H 0.9229 0.8836 0.1962
C17 C 0.1423(10) 0.6685(12) -0.0051(4)
H24 H 0.0791 0.7795 -0.0215
H25 H 0.0508 0.5860 0.0169
H26 H 0.1976 0.6166 -0.0550
loop_
_geom_bond_atom_site_label_1
_geom_bond_atom_site_label_2
_geom_bond_site_symmetry_1
_geom_bond_site_symmetry_2
O1 H1 1_555 1_555
O2 C3 1_555 1_555
O3 C14 1_555 1_555
C1 O1 1_555 1_555
C2 C1 1_555 1_555
H2 C2 1_555 1_555
C3 C2 1_555 1_555
H3 C3 1_555 1_555
C4 C3 1_555 1_555
H4 C4 1_555 1_555
H5 C4 1_555 1_555
C5 C4 1_555 1_555
H6 C5 1_555 1_555
C6 C2 1_555 1_555
C7 C6 1_555 1_555
H7 C7 1_555 1_555
H8 C7 1_555 1_555
C8 C7 1_555 1_555
H9 C8 1_555 1_555
C9 C8 1_555 1_555
C10 C9 1_555 1_555
H10 C10 1_555 1_555
C11 C1 1_555 1_555
H11 C11 1_555 1_555
H12 C11 1_555 1_555
C12 C6 1_555 1_555
H13 C12 1_555 1_555
H14 C12 1_555 1_555
C13 C1 1_555 1_555
H15 C13 1_555 1_555
H16 C13 1_555 1_555
H17 C13 1_555 1_555
C14 O2 1_555 1_555
C15 C14 1_555 1_555
H18 C15 1_555 1_555
H19 C15 1_555 1_555
H20 C15 1_555 1_555
C16 C5 1_555 1_555
H21 C16 1_555 1_555
H22 C16 1_555 1_555
H23 C16 1_555 1_555
C17 C9 1_555 1_555
H24 C17 1_555 1_555
H25 C17 1_555 1_555
H26 C17 1_555 1_555
C5 C6 1_555 1_555
C10 C11 1_555 1_555
C10 C12 1_555 1_555

#END
