
#######################################################################
#
#                 Cambridge Crystallographic Data Centre
#                                CCDC 
#
#######################################################################
#
# If this CIF has been generated from an entry in the Cambridge 
# Structural Database, then it will include bibliographic, chemical, 
# crystal, experimental, refinement or atomic coordinate data resulting 
# from the CCDC's data processing and validation procedures.
#
#######################################################################

data_CUCKAO
_chemical_formula_moiety         'C29 H18 B1 F7 N2 O2'
_chemical_name_systematic        
2-(2,6-Dimethoxyphenyl)-5,5-difluoro-8-(pentafluorophenyl)-10-phenyl-5H-4\l^5^,5\l^5^-dipyrrolo[1,2-c:2',1'-f][1,3,2]diazaborinine
_symmetry_cell_setting           triclinic
_symmetry_space_group_name_H-M   'P -1'
_symmetry_Int_Tables_number      2
_space_group_name_Hall           '-P 1'
loop_
_symmetry_equiv_pos_site_id
_symmetry_equiv_pos_as_xyz
1 x,y,z
2 -x,-y,-z
_cell_length_a                   10.1332(13)
_cell_length_b                   10.6774(13)
_cell_length_c                   13.4051(13)
_cell_angle_alpha                113.010(10)
_cell_angle_beta                 92.431(9)
_cell_angle_gamma                102.849(10)
_cell_volume                     1287.96
_exptl_crystal_colour            'dark green'
_exptl_crystal_description       plate
_cell_formula_units_Z            2
loop_
_atom_site_label
_atom_site_type_symbol
_atom_site_fract_x
_atom_site_fract_y
_atom_site_fract_z
F1 F 0.0097(3) -0.1439(3) 0.6062(2)
F2 F 0.4029(3) -0.2485(3) 0.3739(2)
F3 F 0.5431(4) -0.3429(4) 0.2082(3)
F4 F 0.2003(3) -0.0258(3) 0.7284(2)
F5 F 0.3578(3) 0.1140(3) 0.2680(2)
F6 F 0.6001(3) -0.2069(4) 0.0761(3)
F7 F 0.5039(4) 0.0232(4) 0.1092(3)
O1 O -0.1181(4) 0.1360(4) 0.9825(3)
O2 O -0.1677(4) 0.4777(4) 0.8573(3)
N1 N 0.0453(4) 0.1064(4) 0.7099(3)
N2 N 0.1842(4) 0.0145(4) 0.5646(3)
C1 C 0.5273(5) -0.1607(6) 0.1575(4)
C2 C 0.1128(6) 0.4672(5) 0.6197(4)
H1 H 0.0210 0.4268 0.6184
C3 C 0.4990(5) -0.2279(6) 0.2252(4)
C4 C 0.2100(5) 0.3959(5) 0.6253(3)
C5 C 0.0846(5) 0.2376(5) 0.7053(3)
C6 C -0.0374(5) 0.1182(5) 0.7855(4)
H2 H -0.0785 0.0447 0.8039
C7 C 0.2917(4) 0.1353(5) 0.4743(3)
H3 H 0.3260 0.2077 0.4528
C8 C 0.4793(5) -0.0448(6) 0.1743(4)
C9 C -0.1992(5) 0.4192(5) 0.9301(4)
C10 C 0.3051(4) -0.0033(5) 0.4241(3)
C11 C 0.4266(5) -0.1774(5) 0.3102(4)
C12 C 0.1702(4) 0.2581(5) 0.6317(3)
C13 C 0.3468(6) 0.4580(5) 0.6262(4)
H4 H 0.4132 0.4111 0.6286
C14 C -0.0558(5) 0.2562(5) 0.8348(4)
C15 C -0.1423(5) 0.3076(5) 0.9195(4)
C16 C 0.0231(5) 0.3301(5) 0.7837(3)
H5 H 0.0336 0.4247 0.7986
C17 C 0.3773(5) -0.0601(5) 0.3315(3)
C18 C 0.1515(7) 0.5989(6) 0.6161(5)
H6 H 0.0856 0.6451 0.6109
C19 C -0.1749(5) 0.2439(5) 0.9930(4)
C20 C 0.2187(5) 0.1459(5) 0.5614(3)
C21 C 0.3840(7) 0.5901(6) 0.6234(5)
H7 H 0.4753 0.6311 0.6237
C22 C 0.2866(8) 0.6602(6) 0.6202(5)
H8 H 0.3126 0.7498 0.6209
C23 C -0.2097(8) 0.6006(7) 0.8680(6)
H9 H -0.1744 0.6327 0.8144
H10 H -0.1753 0.6733 0.9400
H11 H -0.3078 0.5787 0.8568
C24 C 0.2366(5) -0.0726(5) 0.4841(4)
H12 H 0.2285 -0.1667 0.4700
C25 C -0.2834(6) 0.4653(6) 1.0080(4)
H13 H -0.3188 0.5406 1.0135
C26 C -0.1511(8) 0.0660(8) 1.0520(6)
H14 H -0.1075 -0.0096 1.0343
H15 H -0.2484 0.0287 1.0420
H16 H -0.1198 0.1314 1.1268
C27 C -0.2589(6) 0.2909(6) 1.0711(4)
H17 H -0.2776 0.2487 1.1196
C28 C 0.4066(5) 0.0022(5) 0.2590(4)
C29 C -0.3144(6) 0.3990(7) 1.0771(4)
H18 H -0.3730 0.4278 1.1280
B1 B 0.1083(6) -0.0187(6) 0.6528(4)
loop_
_geom_bond_atom_site_label_1
_geom_bond_atom_site_label_2
_geom_bond_site_symmetry_1
_geom_bond_site_symmetry_2
F1 B1 1_555 1_555
F2 C11 1_555 1_555
F3 C3 1_555 1_555
F4 B1 1_555 1_555
F5 C28 1_555 1_555
F6 C1 1_555 1_555
F7 C8 1_555 1_555
O1 C19 1_555 1_555
O2 C9 1_555 1_555
N1 C5 1_555 1_555
N2 C20 1_555 1_555
C1 C3 1_555 1_555
C2 H1 1_555 1_555
C3 C11 1_555 1_555
C4 C2 1_555 1_555
C5 C12 1_555 1_555
C6 N1 1_555 1_555
H2 C6 1_555 1_555
C7 H3 1_555 1_555
C8 C1 1_555 1_555
C9 C15 1_555 1_555
C10 C7 1_555 1_555
C11 C17 1_555 1_555
C12 C4 1_555 1_555
C13 C4 1_555 1_555
H4 C13 1_555 1_555
C14 C6 1_555 1_555
C15 C14 1_555 1_555
C16 C5 1_555 1_555
H5 C16 1_555 1_555
C17 C10 1_555 1_555
C18 C2 1_555 1_555
H6 C18 1_555 1_555
C19 C15 1_555 1_555
C20 C7 1_555 1_555
C21 C13 1_555 1_555
H7 C21 1_555 1_555
C22 C18 1_555 1_555
H8 C22 1_555 1_555
C23 O2 1_555 1_555
H9 C23 1_555 1_555
H10 C23 1_555 1_555
H11 C23 1_555 1_555
C24 N2 1_555 1_555
H12 C24 1_555 1_555
C25 C9 1_555 1_555
H13 C25 1_555 1_555
C26 O1 1_555 1_555
H14 C26 1_555 1_555
H15 C26 1_555 1_555
H16 C26 1_555 1_555
C27 C19 1_555 1_555
H17 C27 1_555 1_555
C28 C8 1_555 1_555
C29 C25 1_555 1_555
H18 C29 1_555 1_555
B1 N1 1_555 1_555
N2 B1 1_555 1_555
C10 C24 1_555 1_555
C12 C20 1_555 1_555
C14 C16 1_555 1_555
C17 C28 1_555 1_555
C21 C22 1_555 1_555
C27 C29 1_555 1_555

#END
