
#######################################################################
#
#                 Cambridge Crystallographic Data Centre
#                                CCDC 
#
#######################################################################
#
# If this CIF has been generated from an entry in the Cambridge 
# Structural Database, then it will include bibliographic, chemical, 
# crystal, experimental, refinement or atomic coordinate data resulting 
# from the CCDC's data processing and validation procedures.
#
#######################################################################

data_CUCTAW
_chemical_formula_moiety         'C7 H7 N2 1+,B1 F4 1-'
_chemical_name_systematic        '2-Cyanoanilinium tetrafluoroborate'
_symmetry_cell_setting           monoclinic
_symmetry_space_group_name_H-M   'P 21/n'
_symmetry_Int_Tables_number      14
_space_group_name_Hall           '-P 2yn'
loop_
_symmetry_equiv_pos_site_id
_symmetry_equiv_pos_as_xyz
1 x,y,z
2 1/2-x,1/2+y,1/2-z
3 -x,-y,-z
4 1/2+x,1/2-y,1/2+z
_cell_length_a                   10.971(2)
_cell_length_b                   7.3565(15)
_cell_length_c                   11.022(2)
_cell_angle_alpha                90
_cell_angle_beta                 103.11(3)
_cell_angle_gamma                90
_cell_volume                     866.38
_exptl_crystal_colour            colorless
_exptl_crystal_description       block
_cell_formula_units_Z            4
loop_
_atom_site_label
_atom_site_type_symbol
_atom_site_fract_x
_atom_site_fract_y
_atom_site_fract_z
F1 F 0.36113(13) 0.72246(19) 0.25229(13)
F2 F 0.48625(14) 0.7353(2) 0.44366(13)
F3 F 0.34337(15) 0.9602(2) 0.37300(16)
F4 F 0.51445(14) 0.9330(3) 0.29556(18)
B1 B 0.4282(2) 0.8402(3) 0.3425(2)
N1 N 0.59296(16) 0.6600(3) 0.69414(15)
H1 H 0.6182 0.5482 0.6812
H2 H 0.6589 0.7275 0.7293
H3 H 0.5548 0.7094 0.6218
C1 C 0.50557(18) 0.6518(3) 0.77689(18)
C2 C 0.5337(2) 0.7425(3) 0.89064(19)
C3 C 0.3969(2) 0.5547(3) 0.7402(2)
H4 H 0.3792 0.4939 0.6643
N2 N 0.7317(2) 0.9429(3) 0.9488(2)
C4 C 0.6444(2) 0.8517(3) 0.9248(2)
C5 C 0.3405(3) 0.6365(4) 0.9311(3)
H5 H 0.2840 0.6313 0.9824
C6 C 0.4507(2) 0.7323(3) 0.9687(2)
H6 H 0.4693 0.7897 1.0458
C7 C 0.3138(2) 0.5485(4) 0.8180(3)
H7 H 0.2393 0.4842 0.7934
loop_
_geom_bond_atom_site_label_1
_geom_bond_atom_site_label_2
_geom_bond_site_symmetry_1
_geom_bond_site_symmetry_2
F1 B1 1_555 1_555
F2 B1 1_555 1_555
N1 H1 1_555 1_555
H2 N1 1_555 1_555
H3 N1 1_555 1_555
F3 B1 1_555 1_555
C1 N1 1_555 1_555
F4 B1 1_555 1_555
C2 C1 1_555 1_555
C3 C1 1_555 1_555
H4 C3 1_555 1_555
N2 C4 1_555 1_555
C4 C2 1_555 1_555
C5 H5 1_555 1_555
C6 C2 1_555 1_555
H6 C6 1_555 1_555
C7 C3 1_555 1_555
H7 C7 1_555 1_555
C5 C6 1_555 1_555
C5 C7 1_555 1_555

#END
