
#######################################################################
#
#                 Cambridge Crystallographic Data Centre
#                                CCDC 
#
#######################################################################
#
# If this CIF has been generated from an entry in the Cambridge 
# Structural Database, then it will include bibliographic, chemical, 
# crystal, experimental, refinement or atomic coordinate data resulting 
# from the CCDC's data processing and validation procedures.
#
#######################################################################

data_CUCXEE
_chemical_formula_moiety         'C14 H14 N2 O3'
_chemical_name_systematic        
1,3-Dimethyl-5-(2-methylbenzylidene)pyrimidine-2,4,6(1H,3H,5H)-trione
_symmetry_cell_setting           monoclinic
_symmetry_space_group_name_H-M   'P 21/n'
_symmetry_Int_Tables_number      14
_space_group_name_Hall           '-P 2yn'
loop_
_symmetry_equiv_pos_site_id
_symmetry_equiv_pos_as_xyz
1 x,y,z
2 1/2-x,1/2+y,1/2-z
3 -x,-y,-z
4 1/2+x,1/2-y,1/2+z
_cell_length_a                   8.182(5)
_cell_length_b                   8.334(4)
_cell_length_c                   18.202(5)
_cell_angle_alpha                90
_cell_angle_beta                 94.267(5)
_cell_angle_gamma                90
_cell_volume                     1237.73
_exptl_crystal_colour            colorless
_exptl_crystal_description       block
_cell_formula_units_Z            4
_exptl_crystal_recrystallization_method deuterochloroform
loop_
_atom_site_label
_atom_site_type_symbol
_atom_site_fract_x
_atom_site_fract_y
_atom_site_fract_z
C1 C 0.0138(2) 0.2553(2) 0.49118(10)
C2 C -0.1183(3) 0.2104(3) 0.44177(12)
H1 H -0.1974 0.1406 0.4573
C3 C -0.1326(3) 0.2681(4) 0.37060(12)
H2 H -0.2205 0.2370 0.3384
C4 C -0.0168(3) 0.3713(3) 0.34746(12)
H3 H -0.0285 0.4147 0.3003
C5 C 0.1166(3) 0.4106(3) 0.39422(12)
H4 H 0.1961 0.4785 0.3775
C6 C 0.1363(2) 0.3521(3) 0.46527(11)
C7 C 0.2861(3) 0.4007(4) 0.51198(15)
H5 H 0.3586 0.3105 0.5188
H6 H 0.2552 0.4370 0.5590
H7 H 0.3408 0.4859 0.4881
C8 C 0.0343(3) 0.2024(3) 0.56714(11)
H8 H 0.1412 0.2161 0.5873
C9 C -0.0641(2) 0.1379(2) 0.61602(10)
C10 C 0.0217(3) 0.0920(3) 0.68754(10)
C11 C -0.2160(2) -0.0676(2) 0.71455(10)
C12 C -0.2395(3) 0.1068(3) 0.60570(11)
C13 C 0.0281(3) -0.0647(3) 0.79980(12)
H9 H 0.1247 -0.1223 0.7885
H10 H -0.0416 -0.1340 0.8257
H11 H 0.0589 0.0263 0.8300
C14 C -0.4706(3) -0.0581(4) 0.63701(16)
H12 H -0.4822 -0.1675 0.6524
H13 H -0.5004 -0.0496 0.5851
H14 H -0.5409 0.0093 0.6636
N1 N -0.3007(2) -0.0073(2) 0.65217(9)
N2 N -0.0600(2) -0.0100(2) 0.73120(8)
O1 O 0.1595(2) 0.1369(3) 0.70726(9)
O2 O -0.3317(2) 0.1744(3) 0.56044(11)
O3 O -0.2774(2) -0.1642(2) 0.75393(10)
loop_
_geom_bond_atom_site_label_1
_geom_bond_atom_site_label_2
_geom_bond_site_symmetry_1
_geom_bond_site_symmetry_2
C1 C2 1_555 1_555
C2 H1 1_555 1_555
C3 C2 1_555 1_555
H2 C3 1_555 1_555
C4 C3 1_555 1_555
H3 C4 1_555 1_555
C5 C4 1_555 1_555
H4 C5 1_555 1_555
C6 C1 1_555 1_555
C7 C6 1_555 1_555
H5 C7 1_555 1_555
H6 C7 1_555 1_555
H7 C7 1_555 1_555
C8 C1 1_555 1_555
H8 C8 1_555 1_555
C9 C8 1_555 1_555
C10 C9 1_555 1_555
C11 N1 1_555 1_555
C12 C9 1_555 1_555
C13 H9 1_555 1_555
H10 C13 1_555 1_555
H11 C13 1_555 1_555
C14 H12 1_555 1_555
H13 C14 1_555 1_555
H14 C14 1_555 1_555
N1 C12 1_555 1_555
N2 C10 1_555 1_555
O1 C10 1_555 1_555
O2 C12 1_555 1_555
O3 C11 1_555 1_555
C5 C6 1_555 1_555
C11 N2 1_555 1_555
C13 N2 1_555 1_555
C14 N1 1_555 1_555

#END
