
#######################################################################
#
#                 Cambridge Crystallographic Data Centre
#                                CCDC 
#
#######################################################################
#
# If this CIF has been generated from an entry in the Cambridge 
# Structural Database, then it will include bibliographic, chemical, 
# crystal, experimental, refinement or atomic coordinate data resulting 
# from the CCDC's data processing and validation procedures.
#
#######################################################################

data_CUCXII
_chemical_formula_moiety         'C7 H7 N2 1+,N1 O3 1-'
_chemical_name_systematic        '3-Cyanoanilinium nitrate'
_symmetry_cell_setting           orthorhombic
_symmetry_space_group_name_H-M   'P b c a'
_symmetry_Int_Tables_number      61
_space_group_name_Hall           '-P 2ac 2ab'
loop_
_symmetry_equiv_pos_site_id
_symmetry_equiv_pos_as_xyz
1 x,y,z
2 1/2-x,-y,1/2+z
3 1/2+x,1/2-y,-z
4 -x,1/2+y,1/2-z
5 -x,-y,-z
6 1/2+x,y,1/2-z
7 1/2-x,1/2+y,z
8 x,1/2-y,1/2+z
_cell_length_a                   10.210(2)
_cell_length_b                   10.812(2)
_cell_length_c                   15.398(3)
_cell_angle_alpha                90
_cell_angle_beta                 90
_cell_angle_gamma                90
_cell_volume                     1699.79
_exptl_crystal_colour            colorless
_exptl_crystal_description       block
_cell_formula_units_Z            8
loop_
_atom_site_label
_atom_site_type_symbol
_atom_site_fract_x
_atom_site_fract_y
_atom_site_fract_z
N1 N 0.06292(19) 0.5067(2) 0.39061(13)
N2 N 0.39497(14) 0.44355(16) 0.69503(9)
H1 H 0.4110 0.5239 0.7016
H2 H 0.4620 0.4001 0.7158
H3 H 0.3224 0.4236 0.7238
C1 C 0.1482(2) 0.4737(2) 0.42791(13)
C2 C 0.25733(17) 0.43017(19) 0.47337(11)
C3 C 0.27221(17) 0.45958(18) 0.56150(11)
H4 H 0.2108 0.5080 0.5904
C4 C 0.37764(16) 0.41559(17) 0.60241(11)
C5 C 0.46585(19) 0.34385(19) 0.55934(12)
H5 H 0.5382 0.3131 0.5890
C6 C 0.4502(2) 0.3155(2) 0.47200(13)
H6 H 0.5119 0.2669 0.4436
C7 C 0.3461(2) 0.3585(2) 0.42905(12)
H7 H 0.3339 0.3403 0.3706
O1 O 0.23542(15) 0.20195(16) 0.71257(11)
O2 O 0.16047(13) 0.37804(14) 0.76798(10)
O3 O 0.04000(13) 0.21817(14) 0.73494(10)
N3 N 0.14567(15) 0.26571(16) 0.73782(10)
loop_
_geom_bond_atom_site_label_1
_geom_bond_atom_site_label_2
_geom_bond_site_symmetry_1
_geom_bond_site_symmetry_2
N1 C1 1_555 1_555
N2 H1 1_555 1_555
H2 N2 1_555 1_555
H3 N2 1_555 1_555
C1 C2 1_555 1_555
C2 C3 1_555 1_555
C3 H4 1_555 1_555
C4 N2 1_555 1_555
C5 C4 1_555 1_555
H5 C5 1_555 1_555
C6 C5 1_555 1_555
H6 C6 1_555 1_555
C7 C2 1_555 1_555
H7 C7 1_555 1_555
O1 N3 1_555 1_555
O2 N3 1_555 1_555
O3 N3 1_555 1_555
C3 C4 1_555 1_555
C6 C7 1_555 1_555

#END
