
#######################################################################
#
#                 Cambridge Crystallographic Data Centre
#                                CCDC 
#
#######################################################################
#
# If this CIF has been generated from an entry in the Cambridge 
# Structural Database, then it will include bibliographic, chemical, 
# crystal, experimental, refinement or atomic coordinate data resulting 
# from the CCDC's data processing and validation procedures.
#
#######################################################################

data_CUCYIJ
_chemical_formula_moiety         'C14 H8 N2 O8,2(C3 H7 N1 O1)'
_chemical_name_systematic        
"2,2'-(1,3,5,7-Tetraoxo-1,2,3,5,6,7-hexahydropyrrolo[3,4-f]isoindole-2,6-diyl)diacetic acid N,N-dimethylformamide solvate"
_symmetry_cell_setting           monoclinic
_symmetry_space_group_name_H-M   'P 21/c'
_symmetry_Int_Tables_number      14
_space_group_name_Hall           '-P 2ybc'
loop_
_symmetry_equiv_pos_site_id
_symmetry_equiv_pos_as_xyz
1 x,y,z
2 -x,1/2+y,1/2-z
3 -x,-y,-z
4 x,1/2-y,1/2+z
_cell_length_a                   7.7470(15)
_cell_length_b                   9.3100(19)
_cell_length_c                   16.334(5)
_cell_angle_alpha                90
_cell_angle_beta                 104.02(3)
_cell_angle_gamma                90
_cell_volume                     1142.99
_exptl_crystal_colour            colorless
_exptl_crystal_description       block
_cell_formula_units_Z            2
_exptl_crystal_recrystallization_method dimethylformamide/methanol
loop_
_atom_site_label
_atom_site_type_symbol
_atom_site_fract_x
_atom_site_fract_y
_atom_site_fract_z
O1 O 0.46550(18) 0.49571(11) 0.66856(7)
H1 H 0.4139 0.5238 0.6214
O2 O 0.48981(19) 0.29416(13) 0.59801(7)
O3 O 0.86755(14) 0.43154(15) 0.88375(8)
O4 O 0.27767(14) 0.31116(13) 0.79491(7)
N1 N 0.58016(15) 0.35733(14) 0.82137(7)
C1 C 0.51315(19) 0.36686(16) 0.66427(9)
C2 C 0.6117(2) 0.29280(17) 0.74458(10)
H2 H 0.5759 0.1928 0.7422
H3 H 0.7383 0.2956 0.7476
C3 C 0.71166(19) 0.42013(16) 0.88520(9)
C4 C 0.41265(18) 0.35918(15) 0.84052(9)
C5 C 0.43776(17) 0.43160(14) 0.92473(8)
C6 C 0.31300(17) 0.46298(15) 0.97165(9)
H4 H 0.1933 0.4390 0.9531
C7 C 0.61865(17) 0.46738(15) 0.95191(8)
O1B O 0.53450(18) 0.50429(11) 1.33144(7)
H1B H 0.5861 0.4762 1.3786
O2B O 0.51019(19) 0.70584(13) 1.40199(7)
O3B O 0.13245(14) 0.56846(15) 1.11625(8)
O4B O 0.72233(14) 0.68884(13) 1.20509(7)
N1B N 0.41984(15) 0.64267(14) 1.17863(7)
C1B C 0.48685(19) 0.63314(16) 1.33573(9)
C2B C 0.3883(2) 0.70720(17) 1.25542(10)
H2B H 0.4241 0.8072 1.2578
H3B H 0.2617 0.7044 1.2524
C3B C 0.28834(19) 0.57987(16) 1.11480(9)
C4B C 0.58735(18) 0.64082(15) 1.15948(9)
C5B C 0.56224(17) 0.56840(14) 1.07527(8)
C6B C 0.68700(17) 0.53702(15) 1.02835(9)
H4B H 0.8067 0.5610 1.0469
C7B C 0.38135(17) 0.53262(15) 1.04809(8)
N2 N 0.09136(18) 0.56664(15) 0.40440(9)
C8 C 0.2173(2) 0.5240(2) 0.46976(11)
H5 H 0.2662 0.4330 0.4691
C9 C 0.0213(3) 0.4691(2) 0.33408(13)
H6 H 0.0839 0.3793 0.3439
H7 H 0.0370 0.5110 0.2827
H8 H -0.1031 0.4529 0.3295
C10 C 0.0168(3) 0.7115(2) 0.40126(13)
H9 H 0.0662 0.7600 0.4536
H10 H -0.1101 0.7056 0.3925
H11 H 0.0454 0.7640 0.3557
O5 O 0.2757(3) 0.6081(2) 0.53640(13)
H12? H 0.2583 0.5849 0.5155
H13? H 0.4357 0.3423 0.5579
O6? O 0.2835(4) 0.3945(3) 0.46915(17)
loop_
_geom_bond_atom_site_label_1
_geom_bond_atom_site_label_2
_geom_bond_site_symmetry_1
_geom_bond_site_symmetry_2
O1 H1 1_555 1_555
O2 C1 1_555 1_555
O3 C3 1_555 1_555
O4 C4 1_555 1_555
N1 C2 1_555 1_555
C1 O1 1_555 1_555
C2 C1 1_555 1_555
H2 C2 1_555 1_555
H3 C2 1_555 1_555
C3 N1 1_555 1_555
C4 N1 1_555 1_555
C5 C4 1_555 1_555
C6 C5 1_555 1_555
H4 C6 1_555 1_555
C7 C3 1_555 1_555
N2 C8 1_555 1_555
C8 H5 1_555 1_555
C9 N2 1_555 1_555
H6 C9 1_555 1_555
H7 C9 1_555 1_555
H8 C9 1_555 1_555
C10 N2 1_555 1_555
H9 C10 1_555 1_555
H10 C10 1_555 1_555
H11 C10 1_555 1_555
O5 C8 1_555 1_555
O1B H1B 1_555 1_555
O2B C1B 1_555 1_555
O3B C3B 1_555 1_555
O4B C4B 1_555 1_555
N1B C2B 1_555 1_555
C1B O1B 1_555 1_555
C2B C1B 1_555 1_555
H2B C2B 1_555 1_555
H3B C2B 1_555 1_555
C3B N1B 1_555 1_555
C4B N1B 1_555 1_555
C5B C4B 1_555 1_555
C6B C7 1_555 1_555
H4B C6B 1_555 1_555
C7B C6 1_555 1_555
C5 C7 1_555 1_555
C3B C7B 1_555 1_555
C5B C6B 1_555 1_555
C5B C7B 1_555 1_555

#END
