
#######################################################################
#
#                 Cambridge Crystallographic Data Centre
#                                CCDC 
#
#######################################################################
#
# If this CIF has been generated from an entry in the Cambridge 
# Structural Database, then it will include bibliographic, chemical, 
# crystal, experimental, refinement or atomic coordinate data resulting 
# from the CCDC's data processing and validation procedures.
#
#######################################################################

data_CUCYUV
_chemical_name_common            'Haloperidol picrate'
_chemical_formula_moiety         'C21 H24 Cl1 F1 N1 O2 1+,C6 H2 N3 O7 1-'
_chemical_name_systematic        
'4-(4-Chlorophenyl)-1-(4-(4-fluorophenyl)-4-oxobutyl)-4-hydroxypiperidinium 2,4,6-trinitrophenolate'
_chemical_properties_biological  
'Haloperidol is a typical antipsychotic and neuroleptic drug. It also has minor antihistaminic and anticholinergic properties'
_symmetry_cell_setting           orthorhombic
_symmetry_space_group_name_H-M   'P n a 21'
_symmetry_Int_Tables_number      33
_space_group_name_Hall           'P 2c -2n'
loop_
_symmetry_equiv_pos_site_id
_symmetry_equiv_pos_as_xyz
1 x,y,z
2 -x,-y,1/2+z
3 1/2+x,1/2-y,z
4 1/2-x,1/2+y,1/2+z
_cell_length_a                   14.9089(5)
_cell_length_b                   12.5934(3)
_cell_length_c                   14.5074(5)
_cell_angle_alpha                90
_cell_angle_beta                 90
_cell_angle_gamma                90
_cell_volume                     2723.82
_exptl_crystal_colour            'pale yellow'
_exptl_crystal_description       chunk
_chemical_melting_point          '413-416 K'
_cell_formula_units_Z            4
_exptl_crystal_recrystallization_method dimethylformamide
loop_
_atom_site_label
_atom_site_type_symbol
_atom_site_fract_x
_atom_site_fract_y
_atom_site_fract_z
Cl1 Cl 1.34757(3) 0.42144(3) 0.45280(3)
F1 F 0.37134(7) 0.23216(9) 1.20789(10)
O1 O 0.7328(7) 0.3329(4) 0.9962(6)
O2 O 1.06195(7) 0.08904(7) 0.66072(9)
H1 H 1.1099 0.0624 0.6805
N1 N 0.90790(8) 0.20672(9) 0.80712(9)
H2 H 0.9070 0.2798 0.8163
C1 C 0.61183(12) 0.24014(12) 1.07122(12)
C2 C 0.57077(13) 0.33404(13) 1.10171(13)
H3 H 0.5990 0.4003 1.0900
C3 C 0.49075(13) 0.33187(13) 1.14801(13)
H4 H 0.4639 0.3956 1.1696
C4 C 0.45020(12) 0.23523(14) 1.16256(13)
C5 C 0.48711(12) 0.14068(13) 1.13194(13)
H5 H 0.4568 0.0752 1.1413
C6 C 0.56849(12) 0.14369(12) 1.08783(12)
H6 H 0.5957 0.0793 1.0683
C7 C 0.70033(13) 0.24665(12) 1.02276(14)
C8 C 0.75704(12) 0.14780(12) 1.01555(12)
H7 H 0.7222 0.0920 0.9836
H8 H 0.7707 0.1218 1.0784
C9 C 0.84472(12) 0.16547(13) 0.96399(13)
H9 H 0.8695 0.2359 0.9806
H10 H 0.8887 0.1108 0.9828
C10 C 0.83088(10) 0.15999(11) 0.86049(11)
H11 H 0.8230 0.0849 0.8421
H12 H 0.7752 0.1986 0.8443
C11 C 0.89490(10) 0.18710(12) 0.70629(11)
H13 H 0.8359 0.2155 0.6870
H14 H 0.8951 0.1097 0.6945
C12 C 0.96782(10) 0.23902(11) 0.64998(12)
H15 H 0.9642 0.3170 0.6576
H16 H 0.9583 0.2226 0.5840
C13 C 1.06140(10) 0.20075(10) 0.67912(12)
C14 C 1.07294(10) 0.21878(11) 0.78277(12)
H17 H 1.1314 0.1894 0.8026
H18 H 1.0733 0.2960 0.7955
C15 C 0.99821(10) 0.16667(11) 0.83823(12)
H19 H 1.0010 0.0887 0.8302
H20 H 1.0065 0.1826 0.9045
C16 C 1.13368(10) 0.25698(11) 0.62300(12)
C17 C 1.18453(11) 0.20234(12) 0.55825(12)
H21 H 1.1747 0.1285 0.5497
C18 C 1.24937(11) 0.25346(12) 0.50584(12)
H22 H 1.2838 0.2148 0.4621
C19 C 1.26326(10) 0.36054(12) 0.51775(12)
C20 C 1.21366(11) 0.41814(12) 0.58018(13)
H23 H 1.2231 0.4924 0.5869
C21 C 1.14966(11) 0.36643(12) 0.63330(12)
H24 H 1.1161 0.4056 0.6774
O3 O 0.94487(8) 0.41234(7) 0.84639(9)
O4 O 1.11786(8) 0.49095(10) 0.85835(11)
O5 O 1.09827(10) 0.58450(9) 0.98236(10)
O6 O 0.93213(9) 0.90496(8) 0.86429(10)
O7 O 0.80467(8) 0.87709(8) 0.79751(11)
O8 O 0.70990(7) 0.52946(8) 0.72810(9)
O9 O 0.78680(7) 0.39063(8) 0.76248(10)
N2 N 1.07400(10) 0.55211(10) 0.90649(11)
N3 N 0.87478(9) 0.84545(10) 0.83136(10)
N4 N 0.77742(8) 0.48709(9) 0.76187(10)
C22 C 0.92607(10) 0.50846(11) 0.83829(11)
C23 C 0.98785(10) 0.58939(11) 0.87141(11)
C24 C 0.97235(11) 0.69557(11) 0.87218(11)
H25 H 1.0146 0.7435 0.8981
C25 C 0.89221(10) 0.73212(11) 0.83366(12)
C26 C 0.82938(10) 0.66318(11) 0.79824(11)
H26 H 0.7754 0.6896 0.7721
C27 C 0.84571(9) 0.55469(11) 0.80103(11)
O10? O 0.7069(12) 0.3214(11) 0.9777(13)
loop_
_geom_bond_atom_site_label_1
_geom_bond_atom_site_label_2
_geom_bond_site_symmetry_1
_geom_bond_site_symmetry_2
Cl1 C19 1_555 1_555
F1 C4 1_555 1_555
O1 C7 1_555 1_555
O2 H1 1_555 1_555
N1 H2 1_555 1_555
C1 C2 1_555 1_555
C2 H3 1_555 1_555
C3 C2 1_555 1_555
H4 C3 1_555 1_555
C4 C3 1_555 1_555
C5 C4 1_555 1_555
H5 C5 1_555 1_555
C6 C1 1_555 1_555
H6 C6 1_555 1_555
C7 C1 1_555 1_555
C8 C7 1_555 1_555
H7 C8 1_555 1_555
H8 C8 1_555 1_555
C9 C8 1_555 1_555
H9 C9 1_555 1_555
H10 C9 1_555 1_555
C10 N1 1_555 1_555
H11 C10 1_555 1_555
H12 C10 1_555 1_555
C11 N1 1_555 1_555
H13 C11 1_555 1_555
H14 C11 1_555 1_555
C12 C11 1_555 1_555
H15 C12 1_555 1_555
H16 C12 1_555 1_555
C13 O2 1_555 1_555
C14 C13 1_555 1_555
H17 C14 1_555 1_555
H18 C14 1_555 1_555
C15 N1 1_555 1_555
H19 C15 1_555 1_555
H20 C15 1_555 1_555
C16 C13 1_555 1_555
C17 C16 1_555 1_555
H21 C17 1_555 1_555
C18 C17 1_555 1_555
H22 C18 1_555 1_555
C19 C18 1_555 1_555
C20 C19 1_555 1_555
H23 C20 1_555 1_555
C21 C16 1_555 1_555
H24 C21 1_555 1_555
O3 C22 1_555 1_555
O4 N2 1_555 1_555
O5 N2 1_555 1_555
O6 N3 1_555 1_555
O7 N3 1_555 1_555
O8 N4 1_555 1_555
O9 N4 1_555 1_555
N2 C23 1_555 1_555
N3 C25 1_555 1_555
N4 C27 1_555 1_555
C22 C23 1_555 1_555
C23 C24 1_555 1_555
C24 H25 1_555 1_555
C25 C24 1_555 1_555
C26 C25 1_555 1_555
H26 C26 1_555 1_555
C27 C22 1_555 1_555
C5 C6 1_555 1_555
C9 C10 1_555 1_555
C12 C13 1_555 1_555
C14 C15 1_555 1_555
C20 C21 1_555 1_555
C26 C27 1_555 1_555

#END
