
#######################################################################
#
#                 Cambridge Crystallographic Data Centre
#                                CCDC 
#
#######################################################################
#
# If this CIF has been generated from an entry in the Cambridge 
# Structural Database, then it will include bibliographic, chemical, 
# crystal, experimental, refinement or atomic coordinate data resulting 
# from the CCDC's data processing and validation procedures.
#
#######################################################################

data_CUDDUB
_chemical_formula_moiety         'C18 H16 N2 O2'
_chemical_name_systematic        1,4-bis(2-Pyridylmethoxy)benzene
_symmetry_cell_setting           monoclinic
_symmetry_space_group_name_H-M   'P 21/n'
_symmetry_Int_Tables_number      14
_space_group_name_Hall           '-P 2yn'
loop_
_symmetry_equiv_pos_site_id
_symmetry_equiv_pos_as_xyz
1 x,y,z
2 1/2-x,1/2+y,1/2-z
3 -x,-y,-z
4 1/2+x,1/2-y,1/2+z
_cell_length_a                   9.802(7)
_cell_length_b                   3.988(2)
_cell_length_c                   18.421(11)
_cell_angle_alpha                90
_cell_angle_beta                 93.77(3)
_cell_angle_gamma                90
_cell_volume                     718.526
_exptl_crystal_colour            colorless
_exptl_crystal_description       block
_cell_formula_units_Z            2
loop_
_atom_site_label
_atom_site_type_symbol
_atom_site_fract_x
_atom_site_fract_y
_atom_site_fract_z
C1 C 1.12833(12) 0.4754(4) 0.84073(7)
H1 H 1.2127 0.5728 0.8536
C2 C 1.09220(13) 0.4307(4) 0.76808(7)
H2 H 1.1505 0.4972 0.7329
C3 C 0.96805(14) 0.2856(4) 0.74848(7)
H3 H 0.9408 0.2502 0.6998
C4 C 0.88466(12) 0.1935(4) 0.80254(6)
H4 H 0.7999 0.0958 0.7908
C5 C 0.92844(11) 0.2482(3) 0.87452(6)
C6 C 0.84341(11) 0.1455(3) 0.93572(6)
H5 H 0.8602 -0.0879 0.9481
H6 H 0.8667 0.2812 0.9785
C7 C 0.60652(11) 0.0920(3) 0.95792(6)
C8 C 0.47231(12) 0.1610(3) 0.93481(6)
H7 H 0.4536 0.2702 0.8907
C9 C 0.63449(11) -0.0704(3) 1.02374(6)
H8 H 0.7243 -0.1181 1.0399
N1 N 1.04938(10) 0.3872(3) 0.89418(5)
O1 O 0.70397(8) 0.1927(3) 0.91212(4)
C1B C -0.12833(12) -0.4754(4) 1.15927(7)
H1B H -0.2127 -0.5728 1.1464
C2B C -0.09220(13) -0.4307(4) 1.23192(7)
H2B H -0.1505 -0.4972 1.2671
C3B C 0.03195(14) -0.2856(4) 1.25152(7)
H3B H 0.0592 -0.2502 1.3002
C4B C 0.11534(12) -0.1935(4) 1.19746(6)
H4B H 0.2001 -0.0958 1.2092
C5B C 0.07156(11) -0.2482(3) 1.12548(6)
C6B C 0.15659(11) -0.1455(3) 1.06428(6)
H5B H 0.1398 0.0879 1.0519
H6B H 0.1333 -0.2812 1.0215
C7B C 0.39348(11) -0.0920(3) 1.04208(6)
C8B C 0.52769(12) -0.1610(3) 1.06519(6)
H7B H 0.5464 -0.2702 1.1093
C9B C 0.36551(11) 0.0704(3) 0.97626(6)
H8B H 0.2757 0.1181 0.9601
N1B N -0.04938(10) -0.3872(3) 1.10582(5)
O1B O 0.29603(8) -0.1927(3) 1.08788(4)
loop_
_geom_bond_atom_site_label_1
_geom_bond_atom_site_label_2
_geom_bond_site_symmetry_1
_geom_bond_site_symmetry_2
C1 H1 1_555 1_555
C2 C1 1_555 1_555
H2 C2 1_555 1_555
C3 C2 1_555 1_555
H3 C3 1_555 1_555
C4 C3 1_555 1_555
H4 C4 1_555 1_555
C5 C4 1_555 1_555
C6 C5 1_555 1_555
H5 C6 1_555 1_555
H6 C6 1_555 1_555
C7 C8 1_555 1_555
C8 H7 1_555 1_555
C9 C7 1_555 1_555
H8 C9 1_555 1_555
N1 C1 1_555 1_555
O1 C6 1_555 1_555
C1B H1B 1_555 1_555
C2B C1B 1_555 1_555
H2B C2B 1_555 1_555
C3B C2B 1_555 1_555
H3B C3B 1_555 1_555
C4B C3B 1_555 1_555
H4B C4B 1_555 1_555
C5B C4B 1_555 1_555
C6B C5B 1_555 1_555
H5B C6B 1_555 1_555
H6B C6B 1_555 1_555
C7B C8B 1_555 1_555
C8B C9 1_555 1_555
H7B C8B 1_555 1_555
C9B C8 1_555 1_555
H8B C9B 1_555 1_555
N1B C1B 1_555 1_555
O1B C6B 1_555 1_555
C5 N1 1_555 1_555
C7 O1 1_555 1_555
C5B N1B 1_555 1_555
C7B C9B 1_555 1_555
C7B O1B 1_555 1_555

#END
