
#######################################################################
#
#                 Cambridge Crystallographic Data Centre
#                                CCDC 
#
#######################################################################
#
# If this CIF has been generated from an entry in the Cambridge 
# Structural Database, then it will include bibliographic, chemical, 
# crystal, experimental, refinement or atomic coordinate data resulting 
# from the CCDC's data processing and validation procedures.
#
#######################################################################

data_CUDJOC
_chemical_formula_moiety         'C18 H16 Br1 N1 O3,0.5(C3 H6 O1)'
_chemical_name_systematic        
'(3aR, 4R, 9aS)-(6-bromo-4-hydroxy-2,3,3a,9a-tetrahydrochromeno[2,3-b]pyrrol-1(4H)-yl)(phenyl)methanone acetone solvate'
_symmetry_cell_setting           monoclinic
_symmetry_space_group_name_H-M   'C 2'
_symmetry_Int_Tables_number      5
_space_group_name_Hall           'C 2y'
loop_
_symmetry_equiv_pos_site_id
_symmetry_equiv_pos_as_xyz
1 x,y,z
2 -x,y,-z
3 1/2+x,1/2+y,z
4 1/2-x,1/2+y,-z
_cell_length_a                   14.001(3)
_cell_length_b                   10.574(2)
_cell_length_c                   13.214(3)
_cell_angle_alpha                90
_cell_angle_beta                 110.89(3)
_cell_angle_gamma                90
_cell_volume                     1827.69
_exptl_crystal_colour            colorless
_exptl_crystal_description       plate
_cell_formula_units_Z            4
loop_
_atom_site_label
_atom_site_type_symbol
_atom_site_fract_x
_atom_site_fract_y
_atom_site_fract_z
Br1 Br 0.50760(3) 0.42695(4) 0.65717(2)
O1 O 0.59984(12) 0.96247(15) 0.74729(13)
H1 H 0.6503 0.9228 0.7430
O2 O 0.33587(11) 0.9296(2) 0.72395(13)
O3 O 0.23242(12) 1.32351(17) 0.68923(13)
N1 N 0.31021(14) 1.1417(2) 0.68067(15)
C1 C 0.4537(2) 0.5871(3) 0.6763(2)
C2 C 0.49760(18) 0.6954(3) 0.65592(17)
H2 H 0.5535 0.6899 0.6313
C3 C 0.46073(18) 0.8133(3) 0.67109(18)
C4 C 0.37888(19) 0.8184(3) 0.70657(19)
C5 C 0.3325(2) 0.7078(3) 0.7235(2)
H3 H 0.2747 0.7126 0.7451
C6 C 0.3703(2) 0.5912(3) 0.7089(2)
H4 H 0.3396 0.5154 0.7210
C7 C 0.51148(15) 0.9339(4) 0.65451(15)
H5 H 0.5315 0.9252 0.5893
C8 C 0.38790(17) 1.0465(2) 0.72269(18)
H6 H 0.4368 1.0691 0.7964
C9 C 0.43989(18) 1.0453(3) 0.63962(19)
H7 H 0.4815 1.1243 0.6496
C10 C 0.34850(19) 1.0576(3) 0.53259(19)
H8 H 0.3703 1.0885 0.4735
H9 H 0.3125 0.9758 0.5109
C11 C 0.2811(2) 1.1551(3) 0.56135(19)
H10 H 0.2953 1.2417 0.5419
H11 H 0.2077 1.1361 0.5235
C12 C 0.28253(16) 1.2315(2) 0.73717(18)
C13 C 0.31361(16) 1.2173(2) 0.85746(17)
C14 C 0.35040(18) 1.3230(3) 0.92153(19)
H12 H 0.3573 1.4009 0.8889
C15 C 0.3772(2) 1.3158(3) 1.0330(2)
H13 H 0.4042 1.3878 1.0770
C16 C 0.3645(2) 1.2029(3) 1.07971(19)
H14 H 0.3828 1.1977 1.1561
C17 C 0.3256(2) 1.0980(3) 1.0166(2)
H15 H 0.3162 1.0213 1.0493
C18 C 0.3001(2) 1.1048(3) 0.9043(2)
H16 H 0.2736 1.0326 0.8604
O4 O 0.5000 0.5817(4) 1.0000
C19 C 0.5000 0.6925(4) 1.0000
C20 C 0.5789(3) 0.7643(6) 0.9764(3)
H17 H 0.6289 0.7058 0.9660
H18 H 0.6134 0.8211 1.0371
H19 H 0.5473 0.8142 0.9104
C20A C 0.4211(3) 0.7643(6) 1.0236(3)
H17A H 0.3711 0.7058 1.0340
H18A H 0.3866 0.8211 0.9629
H19A H 0.4527 0.8142 1.0896
loop_
_geom_bond_atom_site_label_1
_geom_bond_atom_site_label_2
_geom_bond_site_symmetry_1
_geom_bond_site_symmetry_2
Br1 C1 1_555 1_555
O1 H1 1_555 1_555
O2 C4 1_555 1_555
O3 C12 1_555 1_555
N1 C8 1_555 1_555
C1 C2 1_555 1_555
C2 H2 1_555 1_555
C3 C2 1_555 1_555
C4 C3 1_555 1_555
C5 C4 1_555 1_555
H3 C5 1_555 1_555
C6 C1 1_555 1_555
H4 C6 1_555 1_555
C7 O1 1_555 1_555
H5 C7 1_555 1_555
C8 O2 1_555 1_555
H6 C8 1_555 1_555
C9 C7 1_555 1_555
H7 C9 1_555 1_555
C10 C9 1_555 1_555
H8 C10 1_555 1_555
H9 C10 1_555 1_555
C11 N1 1_555 1_555
H10 C11 1_555 1_555
H11 C11 1_555 1_555
C12 N1 1_555 1_555
C13 C12 1_555 1_555
C14 C13 1_555 1_555
H12 C14 1_555 1_555
C15 C14 1_555 1_555
H13 C15 1_555 1_555
C16 C15 1_555 1_555
H14 C16 1_555 1_555
C17 C16 1_555 1_555
H15 C17 1_555 1_555
C18 C13 1_555 1_555
H16 C18 1_555 1_555
O4 C19 1_555 1_555
C19 C20 1_555 1_555
C20 H17 1_555 1_555
H18 C20 1_555 1_555
H19 C20 1_555 1_555
C20A C19 1_555 1_555
H17A C20A 1_555 1_555
H18A C20A 1_555 1_555
H19A C20A 1_555 1_555
C3 C7 1_555 1_555
C5 C6 1_555 1_555
C8 C9 1_555 1_555
C10 C11 1_555 1_555
C17 C18 1_555 1_555

#END
