
#######################################################################
#
#                 Cambridge Crystallographic Data Centre
#                                CCDC 
#
#######################################################################
#
# If this CIF has been generated from an entry in the Cambridge 
# Structural Database, then it will include bibliographic, chemical, 
# crystal, experimental, refinement or atomic coordinate data resulting 
# from the CCDC's data processing and validation procedures.
#
#######################################################################

data_CUDJIV
_chemical_formula_moiety         'C20 H25 I1 O2'
_chemical_name_systematic        
2,3,4,5-Tetraethyl-2-(4-iodobenzoyl)cyclopent-3-en-1-one
_symmetry_cell_setting           triclinic
_symmetry_space_group_name_H-M   'P -1'
_symmetry_Int_Tables_number      2
_space_group_name_Hall           '-P 1'
loop_
_symmetry_equiv_pos_site_id
_symmetry_equiv_pos_as_xyz
1 x,y,z
2 -x,-y,-z
_cell_length_a                   7.5377(15)
_cell_length_b                   11.101(2)
_cell_length_c                   11.695(2)
_cell_angle_alpha                87.68(3)
_cell_angle_beta                 75.05(3)
_cell_angle_gamma                74.76(3)
_cell_volume                     911.826
_cell_formula_units_Z            2
loop_
_atom_site_label
_atom_site_type_symbol
_atom_site_fract_x
_atom_site_fract_y
_atom_site_fract_z
C1 C 0.6013(7) 0.2873(5) 0.3031(5)
C2 C 0.7793(7) 0.2019(5) 0.3325(5)
C3 C 0.7973(7) 0.0800(5) 0.2726(5)
C4 C 0.6545(7) 0.0824(5) 0.2250(4)
C5 C 0.5103(7) 0.2098(4) 0.2401(5)
C6 C 0.7648(8) 0.1913(5) 0.4664(5)
H1 H 0.6512 0.1617 0.5045
H2 H 0.8777 0.1272 0.4776
C7 C 0.7517(11) 0.3112(6) 0.5292(6)
H3 H 0.8594 0.3444 0.4894
H4 H 0.7550 0.2941 0.6117
H5 H 0.6324 0.3725 0.5273
C8 C 0.9742(7) -0.0279(5) 0.2605(5)
H6 H 0.9393 -0.1080 0.2615
H7 H 1.0287 -0.0254 0.3286
C9 C 1.1232(8) -0.0208(6) 0.1451(5)
H8 H 1.0694 -0.0236 0.0777
H9 H 1.2353 -0.0917 0.1386
H10 H 1.1604 0.0574 0.1450
C10 C 0.6285(7) -0.0259(5) 0.1618(5)
H11 H 0.7536 -0.0724 0.1119
H12 H 0.5447 0.0073 0.1088
C11 C 0.5430(9) -0.1156(5) 0.2466(6)
H13 H 0.6258 -0.1494 0.2989
H14 H 0.5312 -0.1841 0.2013
H15 H 0.4170 -0.0709 0.2942
C12 C 0.3112(7) 0.2092(5) 0.3196(5)
H16 H 0.2251 0.2939 0.3211
H17 H 0.2602 0.1513 0.2831
C13 C 0.3072(8) 0.1710(6) 0.4475(6)
H18 H 0.3993 0.0901 0.4473
H19 H 0.1794 0.1644 0.4887
H20 H 0.3403 0.2341 0.4882
C14 C 0.4858(7) 0.2620(5) 0.1192(5)
C15 C 0.6376(7) 0.3048(5) 0.0323(5)
C16 C 0.5925(8) 0.3664(5) -0.0680(5)
H21 H 0.4676 0.3793 -0.0776
C17 C 0.7254(8) 0.4086(5) -0.1525(5)
H22 H 0.6931 0.4484 -0.2205
C18 C 0.9077(8) 0.3923(5) -0.1373(5)
C19 C 0.9564(8) 0.3322(5) -0.0383(5)
H23 H 1.0809 0.3204 -0.0284
C20 C 0.8220(8) 0.2900(5) 0.0447(5)
H24 H 0.8552 0.2498 0.1124
I1 I 1.11208(5) 0.45964(3) -0.26075(3)
O1 O 0.5368(6) 0.3972(4) 0.3277(4)
O2 O 0.3401(6) 0.2603(4) 0.0904(4)
H25 H 0.883(8) 0.239(6) 0.290(6)
loop_
_geom_bond_atom_site_label_1
_geom_bond_atom_site_label_2
_geom_bond_site_symmetry_1
_geom_bond_site_symmetry_2
C1 C2 1_555 1_555
C2 C3 1_555 1_555
C3 C4 1_555 1_555
C4 C5 1_555 1_555
C5 C1 1_555 1_555
C6 C2 1_555 1_555
H1 C6 1_555 1_555
H2 C6 1_555 1_555
C7 C6 1_555 1_555
H3 C7 1_555 1_555
H4 C7 1_555 1_555
H5 C7 1_555 1_555
C8 C3 1_555 1_555
H6 C8 1_555 1_555
H7 C8 1_555 1_555
C9 C8 1_555 1_555
H8 C9 1_555 1_555
H9 C9 1_555 1_555
H10 C9 1_555 1_555
C10 C4 1_555 1_555
H11 C10 1_555 1_555
H12 C10 1_555 1_555
C11 C10 1_555 1_555
H13 C11 1_555 1_555
H14 C11 1_555 1_555
H15 C11 1_555 1_555
C12 C5 1_555 1_555
H16 C12 1_555 1_555
H17 C12 1_555 1_555
C13 C12 1_555 1_555
H18 C13 1_555 1_555
H19 C13 1_555 1_555
H20 C13 1_555 1_555
C14 C5 1_555 1_555
C15 C14 1_555 1_555
C16 C15 1_555 1_555
H21 C16 1_555 1_555
C17 C16 1_555 1_555
H22 C17 1_555 1_555
C18 C17 1_555 1_555
C19 C18 1_555 1_555
H23 C19 1_555 1_555
C20 C15 1_555 1_555
H24 C20 1_555 1_555
I1 C18 1_555 1_555
O1 C1 1_555 1_555
O2 C14 1_555 1_555
H25 C2 1_555 1_555
C19 C20 1_555 1_555

#END
