
#######################################################################
#
#                 Cambridge Crystallographic Data Centre
#                                CCDC 
#
#######################################################################
#
# If this CIF has been generated from an entry in the Cambridge 
# Structural Database, then it will include bibliographic, chemical, 
# crystal, experimental, refinement or atomic coordinate data resulting 
# from the CCDC's data processing and validation procedures.
#
#######################################################################

data_CUDKET
_chemical_formula_moiety         'C19 H19 N3'
_chemical_name_systematic        
3-(Dimethylamino)-3-(2-phenyl-1H-indol-3-yl)propanenitrile
_symmetry_cell_setting           monoclinic
_symmetry_space_group_name_H-M   'P 21/n'
_symmetry_Int_Tables_number      14
_space_group_name_Hall           '-P 2yn'
loop_
_symmetry_equiv_pos_site_id
_symmetry_equiv_pos_as_xyz
1 x,y,z
2 1/2-x,1/2+y,1/2-z
3 -x,-y,-z
4 1/2+x,1/2-y,1/2+z
_cell_length_a                   12.0600(13)
_cell_length_b                   7.9752(9)
_cell_length_c                   17.2441(19)
_cell_angle_alpha                90
_cell_angle_beta                 98.948(2)
_cell_angle_gamma                90
_cell_volume                     1638.37
_exptl_crystal_colour            colorless
_exptl_crystal_description       prismatic
_cell_formula_units_Z            4
loop_
_atom_site_label
_atom_site_type_symbol
_atom_site_fract_x
_atom_site_fract_y
_atom_site_fract_z
N1 N 0.96396(13) 0.5552(2) 0.12993(9)
N2 N 0.91474(16) 0.1605(2) -0.06150(12)
N3 N 0.72209(15) 0.1196(2) 0.16279(10)
C1 C 1.01930(15) 0.4516(2) 0.18633(11)
C2 C 1.11892(16) 0.4767(3) 0.23779(12)
H1 H 1.1596 0.5755 0.2370
C3 C 1.15492(19) 0.3504(4) 0.28963(14)
H2 H 1.2211 0.3641 0.3247
C4 C 1.0945(2) 0.2027(3) 0.29069(14)
H3 H 1.1210 0.1194 0.3266
C5 C 0.99588(19) 0.1765(3) 0.23956(13)
H4 H 0.9564 0.0765 0.2407
C6 C 0.95653(15) 0.3029(2) 0.18612(11)
C7 C 0.85942(14) 0.3227(2) 0.12673(11)
C8 C 0.86756(14) 0.4782(2) 0.09419(10)
C9 C 0.79237(15) 0.5660(2) 0.03117(11)
C10 C 0.67883(16) 0.5803(3) 0.03393(13)
H5 H 0.6490 0.5332 0.0755
C11 C 0.60916(18) 0.6644(3) -0.02499(15)
H6 H 0.5327 0.6723 -0.0231
C12 C 0.6526(2) 0.7359(3) -0.08591(14)
H7 H 0.6057 0.7928 -0.1251
C13 C 0.76509(19) 0.7238(3) -0.08932(12)
H8 H 0.7944 0.7725 -0.1307
C14 C 0.83500(17) 0.6389(2) -0.03099(11)
H9 H 0.9113 0.6306 -0.0335
C15 C 0.77391(15) 0.1893(2) 0.09922(11)
H10 H 0.7147 0.2402 0.0611
C16 C 0.82866(19) 0.0505(3) 0.05792(13)
H11 H 0.8879 -0.0008 0.0948
H12 H 0.7733 -0.0352 0.0405
C17 C 0.87608(17) 0.1140(3) -0.01016(13)
C18 C 0.6779(2) 0.2455(3) 0.20951(15)
H13 H 0.7356 0.3255 0.2277
H14 H 0.6524 0.1933 0.2537
H15 H 0.6161 0.3018 0.1782
C19 C 0.6326(2) 0.0010(3) 0.13304(15)
H16 H 0.5833 0.0513 0.0903
H17 H 0.5909 -0.0270 0.1743
H18 H 0.6651 -0.0988 0.1151
H19 H 0.9876(19) 0.652(3) 0.1148(13)
loop_
_geom_bond_atom_site_label_1
_geom_bond_atom_site_label_2
_geom_bond_site_symmetry_1
_geom_bond_site_symmetry_2
N1 C1 1_555 1_555
N2 C17 1_555 1_555
N3 C15 1_555 1_555
C1 C2 1_555 1_555
C2 H1 1_555 1_555
C3 C2 1_555 1_555
H2 C3 1_555 1_555
C4 C3 1_555 1_555
H3 C4 1_555 1_555
C5 C4 1_555 1_555
H4 C5 1_555 1_555
C6 C1 1_555 1_555
C7 C6 1_555 1_555
C8 N1 1_555 1_555
C9 C8 1_555 1_555
C10 C9 1_555 1_555
H5 C10 1_555 1_555
C11 C10 1_555 1_555
H6 C11 1_555 1_555
C12 C11 1_555 1_555
H7 C12 1_555 1_555
C13 C12 1_555 1_555
H8 C13 1_555 1_555
C14 C9 1_555 1_555
H9 C14 1_555 1_555
C15 C7 1_555 1_555
H10 C15 1_555 1_555
C16 C15 1_555 1_555
H11 C16 1_555 1_555
H12 C16 1_555 1_555
C17 C16 1_555 1_555
C18 N3 1_555 1_555
H13 C18 1_555 1_555
H14 C18 1_555 1_555
H15 C18 1_555 1_555
C19 N3 1_555 1_555
H16 C19 1_555 1_555
H17 C19 1_555 1_555
H18 C19 1_555 1_555
H19 N1 1_555 1_555
C5 C6 1_555 1_555
C7 C8 1_555 1_555
C13 C14 1_555 1_555

#END
