
#######################################################################
#
#                 Cambridge Crystallographic Data Centre
#                                CCDC 
#
#######################################################################
#
# If this CIF has been generated from an entry in the Cambridge 
# Structural Database, then it will include bibliographic, chemical, 
# crystal, experimental, refinement or atomic coordinate data resulting 
# from the CCDC's data processing and validation procedures.
#
#######################################################################

data_CUDXAB
_chemical_formula_moiety         'C16 H15 F5'
_chemical_name_systematic        1-(Pentafluorophenyl)adamantane
_symmetry_cell_setting           triclinic
_symmetry_space_group_name_H-M   'P -1'
_symmetry_Int_Tables_number      2
_space_group_name_Hall           '-P 1'
loop_
_symmetry_equiv_pos_site_id
_symmetry_equiv_pos_as_xyz
1 x,y,z
2 -x,-y,-z
_cell_length_a                   6.535(5)
_cell_length_b                   10.087(5)
_cell_length_c                   11.094(5)
_cell_angle_alpha                106.463(5)
_cell_angle_beta                 105.428(5)
_cell_angle_gamma                98.691(5)
_cell_volume                     655.442
_exptl_crystal_colour            colorless
_exptl_crystal_description       block
_cell_formula_units_Z            2
loop_
_atom_site_label
_atom_site_type_symbol
_atom_site_fract_x
_atom_site_fract_y
_atom_site_fract_z
F1 F -0.52541(17) 0.19369(12) -0.20081(10)
F2 F -0.39434(13) 0.15877(10) 0.03041(9)
F3 F -0.2353(2) 0.31911(13) -0.29626(10)
F4 F 0.33742(14) 0.37946(11) 0.08293(10)
F5 F 0.19541(19) 0.41009(12) -0.14776(11)
C1 C -0.0631(2) 0.32509(15) 0.29950(13)
H1 H -0.0136 0.4262 0.3160
H2 H -0.2204 0.2970 0.2560
C2 C -0.0864(2) 0.13781(16) 0.40523(16)
H3 H -0.0565 0.1201 0.4890
H4 H -0.2432 0.1065 0.3598
C3 C -0.0213(2) 0.07947(15) 0.18666(14)
H5 H -0.1773 0.0441 0.1393
H6 H 0.0550 0.0272 0.1330
C4 C -0.0085(2) 0.29715(16) 0.43150(14)
H7 H -0.0829 0.3501 0.4876
C5 C 0.1203(2) 0.32831(16) 0.01877(15)
C6 C 0.3523(2) 0.26215(17) 0.41501(15)
H8 H 0.5110 0.2941 0.4599
C7 C 0.2385(2) 0.34564(17) 0.50306(15)
H9 H 0.2891 0.4469 0.5210
H10 H 0.2727 0.3287 0.5872
C8 C 0.2979(2) 0.28911(16) 0.28267(14)
H11 H 0.3738 0.2378 0.2280
H12 H 0.3486 0.3900 0.2989
C9 C -0.0184(2) 0.26455(15) 0.07334(13)
C10 C 0.2779(2) 0.10372(17) 0.39202(16)
H13 H 0.3122 0.0875 0.4765
H14 H 0.3535 0.0501 0.3387
C11 C 0.0499(3) 0.34651(18) -0.10359(17)
C12 C -0.3111(3) 0.23927(18) -0.12922(16)
C13 C -0.1664(3) 0.30182(19) -0.17756(16)
C14 C -0.2377(2) 0.22218(16) -0.00798(15)
C15 C 0.0487(2) 0.24033(14) 0.20770(13)
C16 C 0.0310(2) 0.05441(16) 0.32013(15)
H15 H -0.0184 -0.0475 0.3046
loop_
_geom_bond_atom_site_label_1
_geom_bond_atom_site_label_2
_geom_bond_site_symmetry_1
_geom_bond_site_symmetry_2
F1 C12 1_555 1_555
F2 C14 1_555 1_555
F3 C13 1_555 1_555
F4 C5 1_555 1_555
F5 C11 1_555 1_555
C1 H1 1_555 1_555
H2 C1 1_555 1_555
C2 H3 1_555 1_555
H4 C2 1_555 1_555
C3 H5 1_555 1_555
H6 C3 1_555 1_555
C4 C1 1_555 1_555
H7 C4 1_555 1_555
C5 C9 1_555 1_555
C6 H8 1_555 1_555
C7 C4 1_555 1_555
H9 C7 1_555 1_555
H10 C7 1_555 1_555
C8 C6 1_555 1_555
H11 C8 1_555 1_555
H12 C8 1_555 1_555
C9 C14 1_555 1_555
C10 C6 1_555 1_555
H13 C10 1_555 1_555
H14 C10 1_555 1_555
C11 C5 1_555 1_555
C12 C13 1_555 1_555
C13 C11 1_555 1_555
C14 C12 1_555 1_555
C15 C1 1_555 1_555
C16 C2 1_555 1_555
H15 C16 1_555 1_555
C2 C4 1_555 1_555
C3 C15 1_555 1_555
C3 C16 1_555 1_555
C6 C7 1_555 1_555
C8 C15 1_555 1_555
C9 C15 1_555 1_555
C10 C16 1_555 1_555

#END
