
#######################################################################
#
#                 Cambridge Crystallographic Data Centre
#                                CCDC 
#
#######################################################################
#
# If this CIF has been generated from an entry in the Cambridge 
# Structural Database, then it will include bibliographic, chemical, 
# crystal, experimental, refinement or atomic coordinate data resulting 
# from the CCDC's data processing and validation procedures.
#
#######################################################################

data_CUFYIL01
_chemical_formula_moiety         'C12 H20 O6'
_chemical_name_systematic        
2,3:5,6-Di-O-isopropylidene-\a-D-mannofuranose
_symmetry_cell_setting           orthorhombic
_symmetry_space_group_name_H-M   'P 21 21 21'
_symmetry_Int_Tables_number      19
_space_group_name_Hall           'P 2ac 2ab'
loop_
_symmetry_equiv_pos_site_id
_symmetry_equiv_pos_as_xyz
1 x,y,z
2 1/2-x,-y,1/2+z
3 -x,1/2+y,1/2-z
4 1/2+x,1/2-y,-z
_cell_length_a                   6.5429(3)
_cell_length_b                   10.6909(5)
_cell_length_c                   18.6873(8)
_cell_angle_alpha                90
_cell_angle_beta                 90
_cell_angle_gamma                90
_cell_volume                     1307.17
_exptl_crystal_colour            colorless
_exptl_crystal_description       block
_cell_formula_units_Z            4
loop_
_atom_site_label
_atom_site_type_symbol
_atom_site_fract_x
_atom_site_fract_y
_atom_site_fract_z
C1 C 0.5767(3) -0.03790(16) 1.05148(9)
C2 C 0.4047(3) -0.12273(16) 1.07775(9)
C3 C 0.2199(2) -0.08585(15) 1.03064(9)
C4 C 0.3068(2) 0.01466(15) 0.98129(8)
C5 C 0.1593(3) 0.11859(16) 0.96228(8)
C6 C 0.2416(3) 0.20322(16) 0.90344(9)
C7 C -0.0052(3) 0.08202(17) 0.85275(9)
C8 C -0.1720(3) 0.1730(2) 0.83123(12)
C9 C -0.0191(3) -0.0422(2) 0.81481(10)
C10 C 0.1266(3) -0.08093(17) 1.14881(9)
C11 C 0.0317(3) -0.20952(18) 1.15885(11)
C12 C 0.0586(3) 0.01231(18) 1.20439(10)
H1 H 0.656(4) -0.005(2) 1.0881(13)
H2 H 0.766(5) -0.058(3) 0.9852(14)
H3 H 0.157(4) -0.158(2) 1.0061(13)
H4 H 0.354(4) -0.023(2) 0.9390(12)
H5 H 0.129(5) 0.161(2) 1.0039(13)
H6 H 0.441(4) -0.213(2) 1.0731(12)
H7 H 0.394(4) 0.211(2) 0.9055(12)
H8 H -0.159(5) 0.191(2) 0.7823(15)
H9 H 0.085(5) -0.097(3) 0.8316(14)
H10 H 0.080(4) -0.264(2) 1.1224(13)
H11 H -0.082(4) 0.023(3) 1.1985(14)
H12 H 0.174(4) 0.283(2) 0.9021(12)
H13 H -0.296(5) 0.132(2) 0.8416(14)
H14 H -0.147(5) -0.085(3) 0.8270(14)
H15 H 0.070(4) -0.245(2) 1.2032(14)
H16 H 0.093(4) -0.017(3) 1.2516(12)
H17 H -0.164(5) 0.250(2) 0.8547(14)
H18 H -0.004(5) -0.031(3) 0.7625(13)
H19 H -0.120(5) -0.201(3) 1.1580(13)
H20 H 0.120(5) 0.093(2) 1.1937(14)
O1 O 0.47609(18) 0.06699(11) 1.02030(6)
O2 O 0.68960(19) -0.10388(12) 1.00020(7)
O3 O 0.1912(2) 0.13377(12) 0.84033(7)
O4 O -0.01716(19) 0.06263(13) 0.92949(6)
O5 O 0.07865(17) -0.03175(12) 1.07981(6)
O6 O 0.34554(19) -0.08854(13) 1.14857(6)
loop_
_geom_bond_atom_site_label_1
_geom_bond_atom_site_label_2
_geom_bond_site_symmetry_1
_geom_bond_site_symmetry_2
C1 C2 1_555 1_555
C2 C3 1_555 1_555
C3 C4 1_555 1_555
C4 C5 1_555 1_555
C5 C6 1_555 1_555
C6 H7 1_555 1_555
C7 C8 1_555 1_555
C8 H8 1_555 1_555
C9 C7 1_555 1_555
C10 C11 1_555 1_555
C11 H10 1_555 1_555
C12 C10 1_555 1_555
H1 C1 1_555 1_555
H2 O2 1_555 1_555
H3 C3 1_555 1_555
H4 C4 1_555 1_555
H5 C5 1_555 1_555
H6 C2 1_555 1_555
H9 C9 1_555 1_555
H11 C12 1_555 1_555
H12 C6 1_555 1_555
H13 C8 1_555 1_555
H14 C9 1_555 1_555
H15 C11 1_555 1_555
H16 C12 1_555 1_555
H17 C8 1_555 1_555
H18 C9 1_555 1_555
H19 C11 1_555 1_555
H20 C12 1_555 1_555
O1 C1 1_555 1_555
O2 C1 1_555 1_555
O3 C6 1_555 1_555
O4 C5 1_555 1_555
O5 C3 1_555 1_555
O6 C2 1_555 1_555
C4 O1 1_555 1_555
C7 O3 1_555 1_555
C7 O4 1_555 1_555
C10 O5 1_555 1_555
C10 O6 1_555 1_555

#END
