
#######################################################################
#
#                 Cambridge Crystallographic Data Centre
#                                CCDC 
#
#######################################################################
#
# If this CIF has been generated from an entry in the Cambridge 
# Structural Database, then it will include bibliographic, chemical, 
# crystal, experimental, refinement or atomic coordinate data resulting 
# from the CCDC's data processing and validation procedures.
#
#######################################################################

data_CUGBEM
_chemical_formula_moiety         'C16 H13 N5 O2'
_chemical_name_systematic        
N-(4-(2,2-dicyanovinyl)-3-isopropyl-1,2,3-oxadiazol-3-ium-5-yl)benzamide
_symmetry_cell_setting           monoclinic
_symmetry_space_group_name_H-M   'P 21/n'
_symmetry_Int_Tables_number      14
_space_group_name_Hall           '-P 2yn'
loop_
_symmetry_equiv_pos_site_id
_symmetry_equiv_pos_as_xyz
1 x,y,z
2 1/2-x,1/2+y,1/2-z
3 -x,-y,-z
4 1/2+x,1/2-y,1/2+z
_cell_length_a                   12.225(2)
_cell_length_b                   8.9380(16)
_cell_length_c                   14.159(2)
_cell_angle_alpha                90
_cell_angle_beta                 103.565(4)
_cell_angle_gamma                90
_cell_volume                     1503.95
_exptl_crystal_colour            green
_exptl_crystal_description       prism
_cell_formula_units_Z            4
loop_
_atom_site_label
_atom_site_type_symbol
_atom_site_fract_x
_atom_site_fract_y
_atom_site_fract_z
O1 O 0.04541(8) 0.20907(11) 0.07984(7)
N1 N 0.10909(10) 0.09923(14) 0.05066(9)
N2 N 0.19782(9) 0.16678(13) 0.03742(8)
C1 C 0.20205(11) 0.31610(16) 0.05839(10)
C2 C 0.10112(11) 0.34624(16) 0.08762(10)
N3 N 0.06470(10) 0.47096(14) 0.11374(8)
C3 C -0.03916(12) 0.47945(17) 0.13766(11)
O2 O -0.10743(9) 0.37792(13) 0.13055(9)
C4 C -0.06136(11) 0.62979(16) 0.17614(10)
C5 C -0.14922(12) 0.64290(17) 0.22347(11)
H1 H -0.1945 0.5582 0.2285
C6 C -0.17086(12) 0.77831(18) 0.26306(11)
H2 H -0.2307 0.7865 0.2952
C7 C -0.10458(12) 0.90206(18) 0.25553(11)
H3 H -0.1183 0.9948 0.2835
C8 C -0.01820(12) 0.89036(17) 0.20715(10)
H4 H 0.0261 0.9756 0.2010
C9 C 0.00331(11) 0.75477(17) 0.16790(10)
H5 H 0.0626 0.7471 0.1352
C10 C 0.29163(11) 0.40917(16) 0.04535(10)
H6 H 0.3330 0.3735 0.0009
C11 C 0.32558(11) 0.54193(16) 0.08811(10)
C12 C 0.28865(11) 0.61022(17) 0.16716(10)
N4 N 0.27230(10) 0.67049(16) 0.23386(10)
C13 C 0.41836(12) 0.62011(17) 0.06340(11)
N5 N 0.49244(11) 0.68442(15) 0.04633(10)
C14 C 0.28762(12) 0.07384(16) 0.00937(10)
H7 H 0.3122 0.1252 -0.0449
C15 C 0.38768(12) 0.06392(18) 0.09643(11)
H8 H 0.4168 0.1646 0.1147
H9 H 0.4468 0.0028 0.0795
H10 H 0.3638 0.0179 0.1512
C16 C 0.24112(13) -0.07916(17) -0.02573(11)
H11 H 0.1727 -0.0670 -0.0774
H12 H 0.2233 -0.1346 0.0285
H13 H 0.2974 -0.1346 -0.0509
loop_
_geom_bond_atom_site_label_1
_geom_bond_atom_site_label_2
_geom_bond_site_symmetry_1
_geom_bond_site_symmetry_2
O1 N1 1_555 1_555
N1 N2 1_555 1_555
N2 C1 1_555 1_555
C1 C2 1_555 1_555
C2 O1 1_555 1_555
N3 C2 1_555 1_555
C3 N3 1_555 1_555
O2 C3 1_555 1_555
C4 C3 1_555 1_555
C5 C4 1_555 1_555
H1 C5 1_555 1_555
C6 C5 1_555 1_555
H2 C6 1_555 1_555
C7 C6 1_555 1_555
H3 C7 1_555 1_555
C8 C7 1_555 1_555
H4 C8 1_555 1_555
C9 C4 1_555 1_555
H5 C9 1_555 1_555
C10 C1 1_555 1_555
H6 C10 1_555 1_555
C11 C10 1_555 1_555
C12 C11 1_555 1_555
N4 C12 1_555 1_555
C13 C11 1_555 1_555
N5 C13 1_555 1_555
C14 N2 1_555 1_555
H7 C14 1_555 1_555
C15 C14 1_555 1_555
H8 C15 1_555 1_555
H9 C15 1_555 1_555
H10 C15 1_555 1_555
C16 C14 1_555 1_555
H11 C16 1_555 1_555
H12 C16 1_555 1_555
H13 C16 1_555 1_555
C8 C9 1_555 1_555

#END
