
#######################################################################
#
#                 Cambridge Crystallographic Data Centre
#                                CCDC 
#
#######################################################################
#
# If this CIF has been generated from an entry in the Cambridge 
# Structural Database, then it will include bibliographic, chemical, 
# crystal, experimental, refinement or atomic coordinate data resulting 
# from the CCDC's data processing and validation procedures.
#
#######################################################################

data_CUGDEN
_chemical_formula_moiety         'C8 I1 N7 O14'
_chemical_name_systematic        Iodoheptanitrocubane
_symmetry_cell_setting           monoclinic
_symmetry_space_group_name_H-M   'C 2/c'
_symmetry_Int_Tables_number      15
_space_group_name_Hall           '-C 2yn'
loop_
_symmetry_equiv_pos_site_id
_symmetry_equiv_pos_as_xyz
1 x,y,z
2 1/2+x,1/2+y,z
3 x,-y,1/2+z
4 1/2+x,1/2-y,1/2+z
5 -x,-y,-z
6 1/2-x,1/2-y,-z
7 -x,y,1/2-z
8 1/2-x,1/2+y,1/2-z
_cell_length_a                   13.0713(7)
_cell_length_b                   8.7215(4)
_cell_length_c                   13.8894(12)
_cell_angle_alpha                90
_cell_angle_beta                 95.386(7)
_cell_angle_gamma                90
_cell_volume                     1576.42
_exptl_crystal_description       pyramidal
_cell_formula_units_Z            4
loop_
_atom_site_label
_atom_site_type_symbol
_atom_site_fract_x
_atom_site_fract_y
_atom_site_fract_z
C1 C 0.4228(3) 0.1743(4) 0.3088(3)
I1 I 0.30762(6) 0.19429(10) 0.40204(7)
N1 N 0.3380(5) 0.1666(11) 0.3717(5)
O1 O 0.2666(4) 0.0835(7) 0.3473(5)
O2 O 0.3498(6) 0.2505(10) 0.4427(5)
C2 C 0.5083(3) 0.2985(4) 0.3059(3)
N2 N 0.5117(3) 0.4386(4) 0.3657(3)
O3 O 0.5789(3) 0.4485(5) 0.4312(3)
O4 O 0.4424(3) 0.5296(4) 0.3426(3)
C3 C 0.4082(3) 0.1725(4) 0.1956(3)
N3 N 0.3041(3) 0.1746(5) 0.1356(3)
O5 O 0.2478(3) 0.2671(6) 0.1639(3)
O6 O 0.2953(3) 0.0926(6) 0.0709(3)
C4 C 0.5066(3) 0.0471(4) 0.3065(3)
N4 N 0.5181(3) -0.0968(4) 0.3623(3)
O7 O 0.5816(4) -0.1840(4) 0.3351(3)
O8 O 0.4674(3) -0.1140(4) 0.4288(3)
C2F C 0.4917(3) 0.2985(4) 0.1941(3)
C1F C 0.5772(3) 0.1743(4) 0.1912(3)
I1F I 0.69238(6) 0.19429(10) 0.09796(7)
N1F N 0.6620(5) 0.1666(11) 0.1283(5)
C3F C 0.5918(3) 0.1725(4) 0.3044(3)
N3F N 0.6959(3) 0.1746(5) 0.3644(3)
O5F O 0.7522(3) 0.2671(6) 0.3361(3)
O6F O 0.7047(3) 0.0926(6) 0.4291(3)
N2F N 0.4883(3) 0.4386(4) 0.1343(3)
O3F O 0.4211(3) 0.4485(5) 0.0688(3)
O4F O 0.5576(3) 0.5296(4) 0.1574(3)
C4F C 0.4934(3) 0.0471(4) 0.1935(3)
N4F N 0.4819(3) -0.0968(4) 0.1377(3)
O7F O 0.4184(4) -0.1840(4) 0.1649(3)
O8F O 0.5326(3) -0.1140(4) 0.0712(3)
O1F O 0.7334(4) 0.0835(7) 0.1527(5)
O2F O 0.6502(6) 0.2505(10) 0.0573(5)
loop_
_geom_bond_atom_site_label_1
_geom_bond_atom_site_label_2
_geom_bond_site_symmetry_1
_geom_bond_site_symmetry_2
C1 I1 1_555 1_555
I1 N1 1_555 1_555
N1 C1 1_555 1_555
O1 I1 1_555 1_555
O2 I1 1_555 1_555
C2 C1 1_555 1_555
N2 C2 1_555 1_555
O3 N2 1_555 1_555
O4 N2 1_555 1_555
C3 C1 1_555 1_555
N3 C3 1_555 1_555
O5 N3 1_555 1_555
O6 N3 1_555 1_555
C4 C1 1_555 1_555
N4 C4 1_555 1_555
O7 N4 1_555 1_555
O8 N4 1_555 1_555
C2F C2 1_555 1_555
C1F C2F 1_555 1_555
I1F C1F 1_555 1_555
N1F C1F 1_555 1_555
C3F C2 1_555 1_555
N3F C3F 1_555 1_555
O5F N3F 1_555 1_555
O6F N3F 1_555 1_555
N2F C2F 1_555 1_555
O3F N2F 1_555 1_555
O4F N2F 1_555 1_555
C4F C3 1_555 1_555
N4F C4F 1_555 1_555
O7F N4F 1_555 1_555
O8F N4F 1_555 1_555
O1F I1F 1_555 1_555
O2F I1F 1_555 1_555
N1 O1 1_555 1_555
N1 O2 1_555 1_555
C3 C2F 1_555 1_555
C4 C3F 1_555 1_555
C4 C4F 1_555 1_555
C1F C3F 1_555 1_555
C1F C4F 1_555 1_555
I1F N1F 1_555 1_555
N1F O1F 1_555 1_555
N1F O2F 1_555 1_555

#END
