
#######################################################################
#
#                 Cambridge Crystallographic Data Centre
#                                CCDC 
#
#######################################################################
#
# If this CIF has been generated from an entry in the Cambridge 
# Structural Database, then it will include bibliographic, chemical, 
# crystal, experimental, refinement or atomic coordinate data resulting 
# from the CCDC's data processing and validation procedures.
#
#######################################################################

data_CUGFAM
_chemical_formula_moiety         'C22 H26 N1 O6 P1'
_chemical_name_systematic        
'Diethyl (((4-methoxyphenyl)amino)(6-methyl-4-oxo-4H-chromen-3-yl)methyl)phosphonate'
_symmetry_cell_setting           triclinic
_symmetry_space_group_name_H-M   'P -1'
_symmetry_Int_Tables_number      2
_space_group_name_Hall           '-P 1'
loop_
_symmetry_equiv_pos_site_id
_symmetry_equiv_pos_as_xyz
1 x,y,z
2 -x,-y,-z
_cell_length_a                   9.4200(4)
_cell_length_b                   10.5970(6)
_cell_length_c                   12.3506(5)
_cell_angle_alpha                84.178(2)
_cell_angle_beta                 73.5830(10)
_cell_angle_gamma                68.2720(10)
_cell_volume                     1098.59
_exptl_crystal_colour            colorless
_exptl_crystal_description       block
_cell_formula_units_Z            2
loop_
_atom_site_label
_atom_site_type_symbol
_atom_site_fract_x
_atom_site_fract_y
_atom_site_fract_z
N1 N -0.1444(3) 0.2198(3) 0.6120(2)
H1 H -0.1536 0.1769 0.5585
P1 P 0.14343(10) 0.16794(11) 0.47694(7)
O1 O 0.1014(3) 0.3006(2) 0.7916(2)
O2 O 0.1347(3) -0.0954(2) 0.7975(2)
O3 O -0.6900(3) 0.5363(3) 0.9241(3)
O4 O 0.2930(3) 0.1855(3) 0.4899(2)
O5 O 0.1621(5) 0.0409(5) 0.4338(3)
O6 O 0.0829(5) 0.2861(8) 0.3996(3)
C1 C 0.0843(4) -0.0081(3) 0.7179(3)
H2 H 0.0535 -0.0413 0.6630
C2 C 0.1808(4) -0.0495(3) 0.8775(3)
C3 C 0.2357(4) -0.1434(4) 0.9562(3)
H3 H 0.2421 -0.2346 0.9535
C4 C 0.2811(4) -0.1014(4) 1.0388(3)
H4 H 0.3198 -0.1655 1.0929
C5 C 0.2720(4) 0.0325(4) 1.0454(3)
C6 C 0.3220(5) 0.0761(5) 1.1372(3)
H5 H 0.3076 0.1727 1.1284
H6 H 0.4339 0.0225 1.1315
H7 H 0.2571 0.0613 1.2112
C7 C 0.2175(4) 0.1236(3) 0.9647(3)
H8 H 0.2112 0.2148 0.9674
C8 C 0.1711(3) 0.0843(3) 0.8788(2)
C9 C 0.1146(3) 0.1803(3) 0.7930(2)
C10 C 0.0738(3) 0.1225(3) 0.7092(2)
C11 C 0.0109(3) 0.2124(3) 0.6170(2)
H9 H 0.0005 0.3066 0.6329
C12 C -0.2798(3) 0.2965(3) 0.6939(2)
C13 C -0.2788(4) 0.3922(4) 0.7620(3)
H10 H -0.1824 0.4047 0.7570
C14 C -0.4180(4) 0.4699(4) 0.8377(3)
H11 H -0.4162 0.5359 0.8834
C15 C -0.5587(4) 0.4517(3) 0.8469(3)
C16 C -0.8299(5) 0.5213(6) 0.9459(6)
H12 H -0.9086 0.5892 1.0018
H13 H -0.8202 0.4301 0.9757
H14 H -0.8637 0.5337 0.8762
C17 C -0.5618(4) 0.3544(3) 0.7821(3)
H15 H -0.6577 0.3399 0.7894
C18 C -0.4220(4) 0.2776(3) 0.7059(3)
H16 H -0.4238 0.2108 0.6610
C19 C 0.4332(5) 0.1682(6) 0.3948(4)
H17 H 0.5124 0.0758 0.3965
H18 H 0.4030 0.1786 0.3229
C20 C 0.5014(7) 0.2678(7) 0.4008(5)
H19 H 0.5954 0.2550 0.3371
H20 H 0.5317 0.2570 0.4718
H21 H 0.4234 0.3592 0.3977
C21 C -0.0080(8) 0.3625(8) 0.3556(8)
H22 H 0.0357 0.3727 0.2774
C22 C -0.1707(7) 0.4439(6) 0.3940(6)
H23 H -0.2068 0.4976 0.3310
H24 H -0.1851 0.5051 0.4538
H25 H -0.2326 0.3854 0.4235
loop_
_geom_bond_atom_site_label_1
_geom_bond_atom_site_label_2
_geom_bond_site_symmetry_1
_geom_bond_site_symmetry_2
N1 H1 1_555 1_555
P1 O4 1_555 1_555
O1 C9 1_555 1_555
O2 C1 1_555 1_555
O3 C15 1_555 1_555
O4 C19 1_555 1_555
O5 P1 1_555 1_555
O6 P1 1_555 1_555
C1 H2 1_555 1_555
C2 O2 1_555 1_555
C3 C2 1_555 1_555
H3 C3 1_555 1_555
C4 C3 1_555 1_555
H4 C4 1_555 1_555
C5 C4 1_555 1_555
C6 C5 1_555 1_555
H5 C6 1_555 1_555
H6 C6 1_555 1_555
H7 C6 1_555 1_555
C7 C5 1_555 1_555
H8 C7 1_555 1_555
C8 C2 1_555 1_555
C9 C8 1_555 1_555
C10 C1 1_555 1_555
C11 N1 1_555 1_555
H9 C11 1_555 1_555
C12 N1 1_555 1_555
C13 C12 1_555 1_555
H10 C13 1_555 1_555
C14 C13 1_555 1_555
H11 C14 1_555 1_555
C15 C14 1_555 1_555
C16 O3 1_555 1_555
H12 C16 1_555 1_555
H13 C16 1_555 1_555
H14 C16 1_555 1_555
C17 C15 1_555 1_555
H15 C17 1_555 1_555
C18 C12 1_555 1_555
H16 C18 1_555 1_555
C19 H17 1_555 1_555
H18 C19 1_555 1_555
C20 C19 1_555 1_555
H19 C20 1_555 1_555
H20 C20 1_555 1_555
H21 C20 1_555 1_555
C21 O6 1_555 1_555
H22 C21 1_555 1_555
C22 C21 1_555 1_555
H23 C22 1_555 1_555
H24 C22 1_555 1_555
H25 C22 1_555 1_555
P1 C11 1_555 1_555
C7 C8 1_555 1_555
C9 C10 1_555 1_555
C10 C11 1_555 1_555
C17 C18 1_555 1_555

#END
