
#######################################################################
#
#                 Cambridge Crystallographic Data Centre
#                                CCDC 
#
#######################################################################
#
# If this CIF has been generated from an entry in the Cambridge 
# Structural Database, then it will include bibliographic, chemical, 
# crystal, experimental, refinement or atomic coordinate data resulting 
# from the CCDC's data processing and validation procedures.
#
#######################################################################

data_CUGGOB
_chemical_formula_moiety         'C20 H22 O6'
_chemical_name_systematic        
4-(7-(3-Hydroxy-4-methoxybenzyl)-1,5-dioxaspiro[2.4]hept-4-yl)-2-methoxyphenol
_symmetry_cell_setting           triclinic
_symmetry_space_group_name_H-M   'P 1'
_symmetry_Int_Tables_number      1
_space_group_name_Hall           'P 1'
loop_
_symmetry_equiv_pos_site_id
_symmetry_equiv_pos_as_xyz
1 x,y,z
_cell_length_a                   8.3656(17)
_cell_length_b                   9.5473(19)
_cell_length_c                   12.747(4)
_cell_angle_alpha                97.714(3)
_cell_angle_beta                 97.179(4)
_cell_angle_gamma                113.927(2)
_cell_volume                     903.906
_exptl_crystal_colour            colorless
_exptl_crystal_description       irregular
_cell_formula_units_Z            2
loop_
_atom_site_label
_atom_site_type_symbol
_atom_site_fract_x
_atom_site_fract_y
_atom_site_fract_z
C1 C 0.6707(6) 0.3232(6) 0.5417(4)
C2 C 0.5981(6) 0.4002(5) 0.4821(4)
H1 H 0.5739 0.3732 0.4071
C3 C 0.5602(6) 0.5184(5) 0.5330(4)
C4 C 0.6070(6) 0.5643(6) 0.6443(4)
H2 H 0.5871 0.6463 0.6789
C5 C 0.6830(7) 0.4888(6) 0.7042(4)
H3 H 0.7117 0.5188 0.7791
C6 C 0.7169(6) 0.3694(6) 0.6541(4)
C7 C 0.6970(8) 0.1649(7) 0.3875(5)
H4 H 0.5740 0.1209 0.3520
H5 H 0.7449 0.0905 0.3713
H6 H 0.7631 0.2582 0.3624
C8 C 0.4599(6) 0.5880(5) 0.4664(4)
H7 H 0.4687 0.5663 0.3905
C9 C 0.3931(6) 0.8019(6) 0.4757(4)
H8 H 0.3761 0.8051 0.3995
H9 H 0.4192 0.9039 0.5177
C10 C 0.2286(7) 0.6741(6) 0.5013(4)
H10 H 0.1209 0.6616 0.4530
C11 C 0.2609(7) 0.5309(6) 0.4753(4)
C12 C 0.1582(7) 0.3785(6) 0.5019(4)
H11 H 0.2220 0.3181 0.5223
H12 H 0.0600 0.3682 0.5382
C13 C 0.2101(7) 0.7066(6) 0.6178(4)
H13 H 0.3155 0.7143 0.6644
H14 H 0.1084 0.6183 0.6296
C14 C 0.1862(7) 0.8551(6) 0.6508(4)
C15 C 0.3277(7) 0.9914(7) 0.7113(4)
H15 H 0.4378 0.9910 0.7331
C16 C 0.3072(7) 1.1278(6) 0.7396(4)
H16 H 0.4039 1.2186 0.7782
C17 C 0.1436(7) 1.1287(6) 0.7105(4)
C18 C 0.0010(7) 0.9938(6) 0.6503(4)
C19 C 0.0221(7) 0.8589(6) 0.6213(4)
H17 H -0.0746 0.7691 0.5814
C40 C 0.2393(8) 1.3923(7) 0.8008(5)
H38 H 0.2787 1.3696 0.8678
H39 H 0.1927 1.4682 0.8148
H40 H 0.3381 1.4332 0.7652
O1 O 0.7105(5) 0.2027(4) 0.5021(3)
O2 O 0.7866(6) 0.2945(5) 0.7163(3)
H41 H 0.8240 0.2427 0.6786
O3 O 0.1057(5) 1.2547(4) 0.7346(3)
O4 O -0.1582(5) 1.0028(4) 0.6263(3)
H42 H -0.2314 0.9216 0.5857
O5 O 0.1401(5) 0.3992(4) 0.3908(3)
O6 O 0.5355(4) 0.7545(3) 0.5062(3)
C20 C 1.1426(7) -0.1281(6) 0.1809(4)
C21 C 1.1750(7) -0.2527(6) 0.1331(4)
C22 C 1.1361(7) -0.2974(7) 0.0223(5)
H18 H 1.1609 -0.3773 -0.0107
C23 C 1.0604(7) -0.2243(6) -0.0403(4)
H19 H 1.0354 -0.2547 -0.1152
C24 C 1.0657(6) -0.0561(6) 0.1197(4)
H20 H 1.0428 0.0252 0.1522
C25 C 1.0217(7) -0.1072(6) 0.0070(4)
C26 C 0.9208(7) -0.0368(7) -0.0609(4)
H21 H 0.9299 -0.0597 -0.1366
C27 C 0.7266(8) -0.0882(7) -0.0539(4)
C28 C 0.6924(8) 0.0559(7) -0.0296(4)
H22 H 0.5849 0.0435 -0.0781
C29 C 0.8585(7) 0.1795(7) -0.0555(4)
H23 H 0.8429 0.1811 -0.1320
H24 H 0.8866 0.2827 -0.0147
C30 C 0.6035(6) -0.2137(6) -0.1411(3)
H25 H 0.4984 -0.2044 -0.1743
H26 H 0.6534 -0.2631 -0.1907
C31 C 0.6783(7) 0.0939(6) 0.0894(4)
H27 H 0.5786 0.0067 0.1041
H28 H 0.7859 0.1050 0.1355
C32 C 0.6530(7) 0.2407(6) 0.1178(4)
C33 C 0.7871(8) 0.3763(6) 0.1755(4)
H29 H 0.8991 0.3790 0.1963
C34 C 0.7644(8) 0.5130(7) 0.2052(4)
H30 H 0.8594 0.6048 0.2441
C35 C 0.5976(9) 0.5078(6) 0.1753(4)
C36 C 0.4569(7) 0.3705(6) 0.1153(4)
C37 C 0.4840(7) 0.2394(7) 0.0873(4)
H31 H 0.3896 0.1480 0.0475
C38 C 0.6891(8) 0.7744(7) 0.2619(5)
H32 H 0.7266 0.7597 0.3323
H33 H 0.6424 0.8512 0.2689
H34 H 0.7892 0.8097 0.2267
C39 C 1.1740(9) 0.0457(7) 0.3456(5)
H35 H 1.2295 0.1313 0.3108
H36 H 1.2326 0.0730 0.4200
H37 H 1.0504 0.0235 0.3413
O7 O 1.2446(6) -0.3214(5) 0.2024(3)
H43 H 1.2912 -0.3695 0.1696
O8 O 1.1881(5) -0.0910(4) 0.2924(3)
O9 O 0.6107(8) -0.2434(7) -0.0370(7)
O10 O 0.9981(4) 0.1296(4) -0.0229(3)
O11 O 0.5550(5) 0.6308(4) 0.1997(3)
O12 O 0.2953(5) 0.3783(5) 0.0899(3)
H44 H 0.2289 0.3045 0.0409
loop_
_geom_bond_atom_site_label_1
_geom_bond_atom_site_label_2
_geom_bond_site_symmetry_1
_geom_bond_site_symmetry_2
C1 C2 1_555 1_555
C2 H1 1_555 1_555
C3 C2 1_555 1_555
C4 C3 1_555 1_555
H2 C4 1_555 1_555
C5 C4 1_555 1_555
H3 C5 1_555 1_555
C6 C1 1_555 1_555
C7 H4 1_555 1_555
H5 C7 1_555 1_555
H6 C7 1_555 1_555
C8 C3 1_555 1_555
H7 C8 1_555 1_555
C9 H8 1_555 1_555
H9 C9 1_555 1_555
C10 C9 1_555 1_555
H10 C10 1_555 1_555
C11 C8 1_555 1_555
C12 C11 1_555 1_555
H11 C12 1_555 1_555
H12 C12 1_555 1_555
C13 C10 1_555 1_555
H13 C13 1_555 1_555
H14 C13 1_555 1_555
C14 C13 1_555 1_555
C15 C14 1_555 1_555
H15 C15 1_555 1_555
C16 C15 1_555 1_555
H16 C16 1_555 1_555
C17 C16 1_555 1_555
C18 C17 1_555 1_555
C19 C14 1_555 1_555
H17 C19 1_555 1_555
C20 C21 1_555 1_555
C21 C22 1_555 1_555
C22 H18 1_555 1_555
C23 C22 1_555 1_555
H19 C23 1_555 1_555
C24 C20 1_555 1_555
H20 C24 1_555 1_555
C25 C23 1_555 1_555
C26 C25 1_555 1_555
H21 C26 1_555 1_555
C27 C26 1_555 1_555
C28 C27 1_555 1_555
H22 C28 1_555 1_555
C29 C28 1_555 1_555
H23 C29 1_555 1_555
H24 C29 1_555 1_555
C30 C27 1_555 1_555
H25 C30 1_555 1_555
H26 C30 1_555 1_555
C31 C28 1_555 1_555
H27 C31 1_555 1_555
H28 C31 1_555 1_555
C32 C31 1_555 1_555
C33 C32 1_555 1_555
H29 C33 1_555 1_555
C34 C33 1_555 1_555
H30 C34 1_555 1_555
C35 C34 1_555 1_555
C36 C35 1_555 1_555
C37 C32 1_555 1_555
H31 C37 1_555 1_555
C38 H32 1_555 1_555
H33 C38 1_555 1_555
H34 C38 1_555 1_555
C39 H35 1_555 1_555
H36 C39 1_555 1_555
H37 C39 1_555 1_555
C40 H38 1_555 1_555
H39 C40 1_555 1_555
H40 C40 1_555 1_555
O1 C1 1_555 1_555
O2 C6 1_555 1_555
H41 O2 1_555 1_555
O3 C17 1_555 1_555
O4 C18 1_555 1_555
H42 O4 1_555 1_555
O5 C11 1_555 1_555
O6 C8 1_555 1_555
O7 C21 1_555 1_555
H43 O7 1_555 1_555
O8 C20 1_555 1_555
O9 C27 1_555 1_555
O10 C26 1_555 1_555
O11 C35 1_555 1_555
O12 C36 1_555 1_555
H44 O12 1_555 1_555
C5 C6 1_555 1_555
C7 O1 1_555 1_555
C9 O6 1_555 1_555
C10 C11 1_555 1_555
C12 O5 1_555 1_555
C18 C19 1_555 1_555
C24 C25 1_555 1_555
C29 O10 1_555 1_555
C30 O9 1_555 1_555
C36 C37 1_555 1_555
C38 O11 1_555 1_555
C39 O8 1_555 1_555
C40 O3 1_555 1_555

#END
