
#######################################################################
#
#                 Cambridge Crystallographic Data Centre
#                                CCDC 
#
#######################################################################
#
# If this CIF has been generated from an entry in the Cambridge 
# Structural Database, then it will include bibliographic, chemical, 
# crystal, experimental, refinement or atomic coordinate data resulting 
# from the CCDC's data processing and validation procedures.
#
#######################################################################

data_CUGKEV
_chemical_formula_moiety         'C27 H44 N4 O8'
_chemical_name_systematic        
1-(4-Azidobutyl)-4-ethyl-10-hydroxy-11-methoxy-3a,7,9,11,13,15-hexamethyloctahydro-2H-oxacyclotetradecino[4,3-d][1,3]oxazole-2,6,8,14(1H,7H,9H)-tetrone
_symmetry_cell_setting           orthorhombic
_symmetry_space_group_name_H-M   'P 21 21 21'
_symmetry_Int_Tables_number      19
_space_group_name_Hall           'P 2ac 2ab'
loop_
_symmetry_equiv_pos_site_id
_symmetry_equiv_pos_as_xyz
1 x,y,z
2 1/2-x,-y,1/2+z
3 -x,1/2+y,1/2-z
4 1/2+x,1/2-y,-z
_cell_length_a                   8.3715(6)
_cell_length_b                   15.7263(13)
_cell_length_c                   21.8213(18)
_cell_angle_alpha                90
_cell_angle_beta                 90
_cell_angle_gamma                90
_cell_volume                     2872.83
_exptl_crystal_colour            colorless
_exptl_crystal_description       plate
_cell_formula_units_Z            4
loop_
_atom_site_label
_atom_site_type_symbol
_atom_site_fract_x
_atom_site_fract_y
_atom_site_fract_z
O1 O -0.0096(3) 0.14789(14) 0.26631(10)
O2 O -0.0542(2) 0.03121(14) 0.21076(10)
O3 O 0.1843(2) -0.12011(13) 0.12538(10)
O4 O 0.4484(3) -0.1117(2) 0.13982(13)
O5 O 0.5874(3) -0.15078(18) 0.01125(11)
O6 O 0.3736(3) -0.04783(16) -0.14347(10)
H1 H 0.4253 -0.0830 -0.1637
O7 O 0.3674(2) 0.01769(14) 0.01506(10)
O8 O 0.1894(4) 0.20188(17) 0.03293(11)
N1 N 0.1094(3) 0.12737(16) 0.17218(12)
N2 N 0.5482(8) 0.0244(4) 0.2260(3)
N3 N 0.6171(6) -0.0412(3) 0.2520(3)
N4 N 0.6686(7) -0.1036(3) 0.2644(2)
C1 C 0.0938(4) 0.06707(18) 0.12211(14)
H2 H 0.2017 0.0499 0.1083
C2 C 0.0152(4) -0.00867(18) 0.15687(13)
C3 C 0.1462(4) -0.06983(19) 0.17913(14)
H3 H 0.2414 -0.0367 0.1916
C4 C 0.3369(4) -0.1380(2) 0.11184(15)
C5 C 0.3463(4) -0.1981(2) 0.05783(15)
H4 H 0.2370 -0.2089 0.0424
C6 C 0.4452(4) -0.1578(2) 0.00691(16)
C7 C 0.3584(4) -0.1371(2) -0.05193(15)
H5 H 0.2430 -0.1314 -0.0428
C8 C 0.4169(4) -0.0542(2) -0.08084(14)
H6 H 0.5348 -0.0520 -0.0777
C9 C 0.3470(4) 0.0257(2) -0.05017(14)
C10 C 0.1663(4) 0.0306(2) -0.05943(15)
H7 H 0.1163 -0.0116 -0.0325
H8 H 0.1428 0.0139 -0.1017
C11 C 0.0862(4) 0.1170(2) -0.04742(15)
H9 H 0.1414 0.1599 -0.0730
C12 C 0.1010(4) 0.1446(2) 0.01840(15)
C13 C -0.0005(4) 0.10062(18) 0.06679(14)
H10 H -0.0502 0.0507 0.0468
C14 C 0.0165(4) 0.10712(19) 0.22024(14)
C15 C -0.1197(4) -0.0553(2) 0.12478(16)
H11 H -0.1579 -0.1010 0.1508
H12 H -0.0811 -0.0787 0.0864
H13 H -0.2064 -0.0160 0.1166
C16 C 0.0982(4) -0.1289(2) 0.23086(16)
H14 H 0.0452 -0.0954 0.2628
H15 H 0.0205 -0.1701 0.2152
C17 C 0.2342(5) -0.1760(3) 0.25878(19)
H16 H 0.1949 -0.2124 0.2913
H17 H 0.3105 -0.1358 0.2755
H18 H 0.2860 -0.2104 0.2277
C18 C 0.4192(6) -0.2818(3) 0.0789(2)
H19 H 0.3543 -0.3059 0.1114
H20 H 0.5265 -0.2717 0.0941
H21 H 0.4234 -0.3211 0.0447
C19 C 0.3818(6) -0.2138(2) -0.09429(18)
H22 H 0.3433 -0.2647 -0.0741
H23 H 0.4945 -0.2202 -0.1037
H24 H 0.3226 -0.2050 -0.1320
C20 C 0.4322(4) 0.1033(2) -0.07633(17)
H25 H 0.3900 0.1544 -0.0574
H26 H 0.4151 0.1058 -0.1203
H27 H 0.5457 0.0991 -0.0680
C21 C 0.5150(4) 0.0457(3) 0.04009(18)
H28 H 0.5144 0.0373 0.0841
H29 H 0.5297 0.1056 0.0311
H30 H 0.6018 0.0133 0.0221
C22 C -0.0861(5) 0.1137(3) -0.06784(17)
H31 H -0.1361 0.1684 -0.0606
H32 H -0.1422 0.0702 -0.0449
H33 H -0.0908 0.1005 -0.1112
C23 C -0.1374(4) 0.1603(2) 0.08564(16)
H34 H -0.1936 0.1796 0.0493
H35 H -0.0941 0.2090 0.1073
H36 H -0.2110 0.1301 0.1122
C24 C 0.2117(4) 0.2026(2) 0.17388(16)
H37 H 0.1745 0.2409 0.2063
H38 H 0.2036 0.2328 0.1347
C25 C 0.3845(4) 0.1794(2) 0.18560(17)
H39 H 0.4509 0.2298 0.1784
H40 H 0.4168 0.1359 0.1559
C26 C 0.4175(5) 0.1464(3) 0.2499(2)
H41 H 0.4190 0.1948 0.2781
H42 H 0.3290 0.1093 0.2621
C27 C 0.5689(6) 0.0986(3) 0.2571(3)
H43 H 0.6586 0.1309 0.2400
H44 H 0.5904 0.0874 0.3005
loop_
_geom_bond_atom_site_label_1
_geom_bond_atom_site_label_2
_geom_bond_site_symmetry_1
_geom_bond_site_symmetry_2
O1 C14 1_555 1_555
O2 C2 1_555 1_555
O3 C3 1_555 1_555
O4 C4 1_555 1_555
O5 C6 1_555 1_555
O6 H1 1_555 1_555
O7 C9 1_555 1_555
O8 C12 1_555 1_555
N1 C1 1_555 1_555
N2 N3 1_555 1_555
N3 N4 1_555 1_555
C1 H2 1_555 1_555
C2 C1 1_555 1_555
C3 C2 1_555 1_555
H3 C3 1_555 1_555
C4 O3 1_555 1_555
C5 C4 1_555 1_555
H4 C5 1_555 1_555
C6 C5 1_555 1_555
C7 C6 1_555 1_555
H5 C7 1_555 1_555
C8 O6 1_555 1_555
H6 C8 1_555 1_555
C9 C8 1_555 1_555
C10 C9 1_555 1_555
H7 C10 1_555 1_555
H8 C10 1_555 1_555
C11 C10 1_555 1_555
H9 C11 1_555 1_555
C12 C11 1_555 1_555
C13 C1 1_555 1_555
H10 C13 1_555 1_555
C14 O2 1_555 1_555
C15 C2 1_555 1_555
H11 C15 1_555 1_555
H12 C15 1_555 1_555
H13 C15 1_555 1_555
C16 C3 1_555 1_555
H14 C16 1_555 1_555
H15 C16 1_555 1_555
C17 C16 1_555 1_555
H16 C17 1_555 1_555
H17 C17 1_555 1_555
H18 C17 1_555 1_555
C18 C5 1_555 1_555
H19 C18 1_555 1_555
H20 C18 1_555 1_555
H21 C18 1_555 1_555
C19 C7 1_555 1_555
H22 C19 1_555 1_555
H23 C19 1_555 1_555
H24 C19 1_555 1_555
C20 C9 1_555 1_555
H25 C20 1_555 1_555
H26 C20 1_555 1_555
H27 C20 1_555 1_555
C21 O7 1_555 1_555
H28 C21 1_555 1_555
H29 C21 1_555 1_555
H30 C21 1_555 1_555
C22 C11 1_555 1_555
H31 C22 1_555 1_555
H32 C22 1_555 1_555
H33 C22 1_555 1_555
C23 C13 1_555 1_555
H34 C23 1_555 1_555
H35 C23 1_555 1_555
H36 C23 1_555 1_555
C24 N1 1_555 1_555
H37 C24 1_555 1_555
H38 C24 1_555 1_555
C25 C24 1_555 1_555
H39 C25 1_555 1_555
H40 C25 1_555 1_555
C26 C25 1_555 1_555
H41 C26 1_555 1_555
H42 C26 1_555 1_555
C27 N2 1_555 1_555
H43 C27 1_555 1_555
H44 C27 1_555 1_555
N1 C14 1_555 1_555
C7 C8 1_555 1_555
C12 C13 1_555 1_555
C26 C27 1_555 1_555

#END
