
#######################################################################
#
#                 Cambridge Crystallographic Data Centre
#                                CCDC 
#
#######################################################################
#
# If this CIF has been generated from an entry in the Cambridge 
# Structural Database, then it will include bibliographic, chemical, 
# crystal, experimental, refinement or atomic coordinate data resulting 
# from the CCDC's data processing and validation procedures.
#
#######################################################################

data_CUGKOF
_chemical_formula_moiety         'C41 H34 N4 Si1'
_chemical_name_systematic        
6,6'-(2,3-Diphenyl-5-silaspiro[4.5]deca-1,3-diene-1,4-diyl)bis(2,2'-bipyridine)
_symmetry_cell_setting           monoclinic
_symmetry_space_group_name_H-M   'C 2/c'
_symmetry_Int_Tables_number      15
_space_group_name_Hall           '-C 2yn'
loop_
_symmetry_equiv_pos_site_id
_symmetry_equiv_pos_as_xyz
1 x,y,z
2 -x,y,1/2-z
3 1/2+x,1/2+y,z
4 1/2-x,1/2+y,1/2-z
5 -x,-y,-z
6 x,-y,1/2+z
7 1/2-x,1/2-y,-z
8 1/2+x,1/2-y,1/2+z
_cell_length_a                   24.1053(18)
_cell_length_b                   12.0672(9)
_cell_length_c                   11.2330(8)
_cell_angle_alpha                90
_cell_angle_beta                 99.0750(10)
_cell_angle_gamma                90
_cell_volume                     3226.59
_exptl_crystal_colour            colorless
_exptl_crystal_description       block
_cell_formula_units_Z            4
loop_
_atom_site_label
_atom_site_type_symbol
_atom_site_fract_x
_atom_site_fract_y
_atom_site_fract_z
Si1 Si 0.5000 0.24433(6) 0.2500
N1 N 0.25366(10) 0.0433(2) 0.0704(2)
N2 N 0.37047(7) 0.22812(14) 0.14374(17)
C1 C 0.44388(9) 0.35225(17) 0.2195(2)
C2 C 0.46841(9) 0.45358(17) 0.2355(2)
C3 C 0.43884(9) 0.56213(17) 0.2281(2)
C4 C 0.43447(13) 0.6209(2) 0.3316(3)
H1 H 0.4512 0.5935 0.4060
C5 C 0.40543(15) 0.7198(3) 0.3257(4)
H2 H 0.4020 0.7577 0.3962
C6 C 0.38167(14) 0.7623(2) 0.2165(4)
H3 H 0.3619 0.8288 0.2127
C7 C 0.38711(13) 0.7066(2) 0.1133(4)
H4 H 0.3719 0.7364 0.0390
C8 C 0.41513(11) 0.6061(2) 0.1182(3)
H5 H 0.4180 0.5682 0.0473
C9 C 0.38356(9) 0.32639(17) 0.1987(2)
C10 C 0.34210(10) 0.39178(19) 0.2380(2)
H6 H 0.3515 0.4590 0.2765
C11 C 0.28743(10) 0.3561(2) 0.2192(2)
H7 H 0.2595 0.3992 0.2446
C12 C 0.27393(10) 0.2560(2) 0.1627(2)
H8 H 0.2371 0.2304 0.1496
C13 C 0.31673(9) 0.19478(18) 0.12601(18)
C14 C 0.30378(9) 0.08808(18) 0.0616(2)
C15 C 0.33998(10) 0.04054(19) -0.0075(2)
H9 H 0.3749 0.0723 -0.0108
C16 C 0.32369(12) -0.0547(2) -0.0717(3)
H10 H 0.3472 -0.0877 -0.1196
C17 C 0.27220(13) -0.0998(2) -0.0637(3)
H11 H 0.2599 -0.1635 -0.1064
C18 C 0.23990(14) -0.0493(3) 0.0080(3)
H12 H 0.2054 -0.0816 0.0142
C19 C 0.51282(13) 0.1521(2) 0.1251(3)
H13 H 0.4799 0.1533 0.0630
H14 H 0.5441 0.1814 0.0902
C20 C 0.5250(4) 0.0388(4) 0.1603(6)
H15 H 0.5169 -0.0051 0.0873
H16 H 0.5653 0.0347 0.1859
C21 C 0.5000 -0.0186(4) 0.2500
H17 H 0.5288 -0.0666 0.2926
N1A N 0.74634(10) 0.0433(2) 0.4296(2)
N2A N 0.62953(7) 0.22812(14) 0.35626(17)
C1A C 0.55612(9) 0.35225(17) 0.2805(2)
C2A C 0.53159(9) 0.45358(17) 0.2645(2)
C3A C 0.56116(9) 0.56213(17) 0.2719(2)
C4A C 0.56553(13) 0.6209(2) 0.1684(3)
H1A H 0.5488 0.5935 0.0940
C5A C 0.59457(15) 0.7198(3) 0.1743(4)
H2A H 0.5980 0.7577 0.1038
C6A C 0.61833(14) 0.7623(2) 0.2835(4)
H3A H 0.6381 0.8288 0.2873
C7A C 0.61289(13) 0.7066(2) 0.3867(4)
H4A H 0.6281 0.7364 0.4610
C8A C 0.58487(11) 0.6061(2) 0.3818(3)
H5A H 0.5820 0.5682 0.4527
C9A C 0.61644(9) 0.32639(17) 0.3013(2)
C10A C 0.65790(10) 0.39178(19) 0.2620(2)
H6A H 0.6485 0.4590 0.2235
C11A C 0.71257(10) 0.3561(2) 0.2808(2)
H7A H 0.7405 0.3992 0.2554
C12A C 0.72607(10) 0.2560(2) 0.3373(2)
H8A H 0.7629 0.2304 0.3504
C13A C 0.68327(9) 0.19478(18) 0.37399(18)
C14A C 0.69622(9) 0.08808(18) 0.4384(2)
C15A C 0.66002(10) 0.04054(19) 0.5075(2)
H9A H 0.6251 0.0723 0.5108
C16A C 0.67631(12) -0.0547(2) 0.5717(3)
H10A H 0.6528 -0.0877 0.6196
C17A C 0.72780(13) -0.0998(2) 0.5637(3)
H11A H 0.7401 -0.1635 0.6064
C18A C 0.76010(14) -0.0493(3) 0.4920(3)
H12A H 0.7946 -0.0816 0.4858
C19A C 0.48718(13) 0.1521(2) 0.3749(3)
H13A H 0.5201 0.1533 0.4370
H14A H 0.4559 0.1814 0.4098
C20A C 0.4750(4) 0.0388(4) 0.3397(6)
H15A H 0.4831 -0.0051 0.4127
H16A H 0.4347 0.0347 0.3141
H17A H 0.4712 -0.0666 0.2074
loop_
_geom_bond_atom_site_label_1
_geom_bond_atom_site_label_2
_geom_bond_site_symmetry_1
_geom_bond_site_symmetry_2
Si1 C1 1_555 1_555
N1 C14 1_555 1_555
N2 C9 1_555 1_555
C1 C2 1_555 1_555
C2 C3 1_555 1_555
C3 C4 1_555 1_555
C4 H1 1_555 1_555
C5 C4 1_555 1_555
H2 C5 1_555 1_555
C6 C5 1_555 1_555
H3 C6 1_555 1_555
C7 C6 1_555 1_555
H4 C7 1_555 1_555
C8 C3 1_555 1_555
H5 C8 1_555 1_555
C9 C1 1_555 1_555
C10 C9 1_555 1_555
H6 C10 1_555 1_555
C11 C10 1_555 1_555
H7 C11 1_555 1_555
C12 C11 1_555 1_555
H8 C12 1_555 1_555
C13 N2 1_555 1_555
C14 C13 1_555 1_555
C15 C14 1_555 1_555
H9 C15 1_555 1_555
C16 C15 1_555 1_555
H10 C16 1_555 1_555
C17 C16 1_555 1_555
H11 C17 1_555 1_555
C18 N1 1_555 1_555
H12 C18 1_555 1_555
C19 Si1 1_555 1_555
H13 C19 1_555 1_555
H14 C19 1_555 1_555
C20 C19 1_555 1_555
H15 C20 1_555 1_555
H16 C20 1_555 1_555
C21 C20 1_555 1_555
H17 C21 1_555 1_555
N1A C14A 1_555 1_555
N2A C9A 1_555 1_555
C1A Si1 1_555 1_555
C2A C2 1_555 1_555
C3A C2A 1_555 1_555
C4A C3A 1_555 1_555
H1A C4A 1_555 1_555
C5A C4A 1_555 1_555
H2A C5A 1_555 1_555
C6A C5A 1_555 1_555
H3A C6A 1_555 1_555
C7A C6A 1_555 1_555
H4A C7A 1_555 1_555
C8A C3A 1_555 1_555
H5A C8A 1_555 1_555
C9A C1A 1_555 1_555
C10A C9A 1_555 1_555
H6A C10A 1_555 1_555
C11A C10A 1_555 1_555
H7A C11A 1_555 1_555
C12A C11A 1_555 1_555
H8A C12A 1_555 1_555
C13A N2A 1_555 1_555
C14A C13A 1_555 1_555
C15A C14A 1_555 1_555
H9A C15A 1_555 1_555
C16A C15A 1_555 1_555
H10A C16A 1_555 1_555
C17A C16A 1_555 1_555
H11A C17A 1_555 1_555
C18A N1A 1_555 1_555
H12A C18A 1_555 1_555
C19A Si1 1_555 1_555
H13A C19A 1_555 1_555
H14A C19A 1_555 1_555
C20A C21 1_555 1_555
H15A C20A 1_555 1_555
H16A C20A 1_555 1_555
H17A C21 1_555 1_555
C7 C8 1_555 1_555
C12 C13 1_555 1_555
C17 C18 1_555 1_555
C1A C2A 1_555 1_555
C7A C8A 1_555 1_555
C12A C13A 1_555 1_555
C17A C18A 1_555 1_555
C19A C20A 1_555 1_555

#END
