
#######################################################################
#
#                 Cambridge Crystallographic Data Centre
#                                CCDC 
#
#######################################################################
#
# If this CIF has been generated from an entry in the Cambridge 
# Structural Database, then it will include bibliographic, chemical, 
# crystal, experimental, refinement or atomic coordinate data resulting 
# from the CCDC's data processing and validation procedures.
#
#######################################################################

data_CUGMOH
_chemical_formula_moiety         'C16 H16 S2'
_chemical_name_systematic        
7a-(2-Thienylmethyl)-6,7,7a,8-tetrahydro-5H-indeno[2,1-b]thiophene
_symmetry_cell_setting           orthorhombic
_symmetry_space_group_name_H-M   'P 21 21 21'
_symmetry_Int_Tables_number      19
_space_group_name_Hall           'P 2ac 2ab'
loop_
_symmetry_equiv_pos_site_id
_symmetry_equiv_pos_as_xyz
1 x,y,z
2 1/2-x,-y,1/2+z
3 1/2+x,1/2-y,-z
4 -x,1/2+y,1/2-z
_cell_length_a                   5.6428(2)
_cell_length_b                   9.6306(3)
_cell_length_c                   24.7591(8)
_cell_angle_alpha                90
_cell_angle_beta                 90
_cell_angle_gamma                90
_cell_volume                     1345.5
_exptl_crystal_colour            colorless
_exptl_crystal_description       cube
_cell_formula_units_Z            4
loop_
_atom_site_label
_atom_site_type_symbol
_atom_site_fract_x
_atom_site_fract_y
_atom_site_fract_z
S1 S -0.71764(16) -0.59506(8) -0.43790(3)
S2 S -0.90373(18) -0.30601(11) -0.24331(4)
C1 C -0.6552(5) -0.2156(3) -0.36693(12)
C2 C -0.8370(6) -0.3344(3) -0.37935(14)
C3 C -0.6871(6) -0.4284(3) -0.41430(12)
C4 C -0.4574(7) -0.5812(4) -0.47410(14)
C5 C -0.3546(6) -0.4540(3) -0.46889(13)
C6 C -0.4882(5) -0.3670(3) -0.43419(12)
C7 C -0.4795(5) -0.2232(3) -0.41408(11)
C8 C -0.3656(6) -0.1141(3) -0.43432(13)
C9 C -0.4058(7) 0.0316(3) -0.41419(16)
C10 C -0.5628(7) 0.0395(3) -0.36378(15)
C11 C -0.7600(6) -0.0684(3) -0.36465(14)
C12 C -0.5169(6) -0.2524(3) -0.31428(12)
C13 C -0.6433(6) -0.2239(3) -0.26194(12)
C14 C -0.9166(7) -0.2176(4) -0.18323(14)
C15 C -0.7334(7) -0.1318(4) -0.17682(14)
C16 C -0.5731(6) -0.1319(3) -0.22166(13)
H1 H -0.916(7) -0.382(4) -0.3467(15)
H2 H -0.976(8) -0.291(4) -0.3988(16)
H3 H -0.397(8) -0.664(4) -0.4950(15)
H4 H -0.198(7) -0.431(4) -0.4869(15)
H5 H -0.268(8) -0.121(4) -0.4626(16)
H6 H -0.259(7) 0.086(4) -0.4075(15)
H7 H -0.480(8) 0.076(5) -0.4417(18)
H8 H -0.634(7) 0.124(4) -0.3640(14)
H9 H -0.464(7) 0.020(4) -0.3277(16)
H10 H -0.865(6) -0.057(3) -0.3283(13)
H11 H -0.850(7) -0.057(4) -0.3955(14)
H12 H -0.363(6) -0.195(4) -0.3112(13)
H13 H -0.467(6) -0.361(4) -0.3206(14)
H14 H -1.044(8) -0.227(4) -0.1610(17)
H15 H -0.720(9) -0.064(5) -0.1408(18)
H16 H -0.424(8) -0.087(5) -0.2261(17)
loop_
_geom_bond_atom_site_label_1
_geom_bond_atom_site_label_2
_geom_bond_site_symmetry_1
_geom_bond_site_symmetry_2
S1 C3 1_555 1_555
S2 C13 1_555 1_555
C1 C2 1_555 1_555
C2 C3 1_555 1_555
C3 C6 1_555 1_555
C4 S1 1_555 1_555
C5 C4 1_555 1_555
C6 C5 1_555 1_555
C7 C1 1_555 1_555
C8 C7 1_555 1_555
C9 C8 1_555 1_555
C10 C9 1_555 1_555
C11 C1 1_555 1_555
C12 C1 1_555 1_555
C13 C12 1_555 1_555
C14 S2 1_555 1_555
C15 C14 1_555 1_555
C16 C13 1_555 1_555
H1 C2 1_555 1_555
H2 C2 1_555 1_555
H3 C4 1_555 1_555
H4 C5 1_555 1_555
H5 C8 1_555 1_555
H6 C9 1_555 1_555
H7 C9 1_555 1_555
H8 C10 1_555 1_555
H9 C10 1_555 1_555
H10 C11 1_555 1_555
H11 C11 1_555 1_555
H12 C12 1_555 1_555
H13 C12 1_555 1_555
H14 C14 1_555 1_555
H15 C15 1_555 1_555
H16 C16 1_555 1_555
C6 C7 1_555 1_555
C10 C11 1_555 1_555
C15 C16 1_555 1_555

#END
