
#######################################################################
#
#                 Cambridge Crystallographic Data Centre
#                                CCDC 
#
#######################################################################
#
# If this CIF has been generated from an entry in the Cambridge 
# Structural Database, then it will include bibliographic, chemical, 
# crystal, experimental, refinement or atomic coordinate data resulting 
# from the CCDC's data processing and validation procedures.
#
#######################################################################

data_CUGMIB
_chemical_formula_moiety         'C23 H22 N2 O2 S1'
_chemical_name_systematic        
1-((4-Methylphenyl)sulfonyl)-3-(2-phenylvinyl)-1,2,3,4-tetrahydroquinoxaline
_symmetry_cell_setting           orthorhombic
_symmetry_space_group_name_H-M   'P 21 21 21'
_symmetry_Int_Tables_number      19
_space_group_name_Hall           'P 2ac 2ab'
loop_
_symmetry_equiv_pos_site_id
_symmetry_equiv_pos_as_xyz
1 x,y,z
2 1/2-x,-y,1/2+z
3 -x,1/2+y,1/2-z
4 1/2+x,1/2-y,-z
_cell_length_a                   8.35970(10)
_cell_length_b                   12.0010(2)
_cell_length_c                   20.5131(3)
_cell_angle_alpha                90
_cell_angle_beta                 90
_cell_angle_gamma                90
_cell_volume                     2057.97
_exptl_crystal_colour            colorless
_exptl_crystal_description       block
_cell_formula_units_Z            4
loop_
_atom_site_label
_atom_site_type_symbol
_atom_site_fract_x
_atom_site_fract_y
_atom_site_fract_z
S1 S 0.41611(6) 0.46216(5) 0.41225(3)
O1 O 0.3619(2) 0.56340(15) 0.44142(9)
O2 O 0.3072(2) 0.37080(14) 0.40543(11)
N1 N 0.5652(2) 0.41518(14) 0.45801(9)
N2 N 0.8859(2) 0.35876(17) 0.42960(11)
C1 C 0.6938(2) 0.48964(17) 0.47490(10)
C2 C 0.8507(3) 0.4581(2) 0.46054(11)
C3 C 0.9737(3) 0.5287(2) 0.48008(14)
H1 H 1.0790 0.5093 0.4708
C4 C 0.9434(4) 0.6260(2) 0.51257(17)
H2 H 1.0278 0.6718 0.5250
C5 C 0.7893(4) 0.6563(2) 0.52695(15)
H3 H 0.7687 0.7227 0.5488
C6 C 0.6654(3) 0.58757(19) 0.50874(12)
H4 H 0.5609 0.6071 0.5193
C7 C 0.6161(3) 0.29901(17) 0.44791(12)
H5 H 0.5279 0.2565 0.4299
H6 H 0.6445 0.2662 0.4895
C8 C 0.7584(3) 0.29225(19) 0.40208(12)
H7 H 0.7280 0.3237 0.3598
C9 C 0.8099(3) 0.1724(2) 0.39255(12)
H8 H 0.8500 0.1348 0.4287
C10 C 0.8026(3) 0.1177(2) 0.33763(13)
H9 H 0.7609 0.1554 0.3019
C11 C 0.8536(3) 0.00322(19) 0.32706(12)
C12 C 0.9197(4) -0.0284(2) 0.26712(15)
H10 H 0.9222 0.0228 0.2331
C13 C 0.9799(6) -0.1317(3) 0.2576(2)
H11 H 1.0278 -0.1496 0.2180
C14 C 0.9706(6) -0.2090(3) 0.3055(2)
H12 H 1.0125 -0.2798 0.2987
C15 C 0.9001(5) -0.1837(2) 0.36386(19)
H13 H 0.8922 -0.2374 0.3964
C16 C 0.8411(4) -0.0784(2) 0.37405(14)
H14 H 0.7917 -0.0618 0.4135
C17 C 0.4946(3) 0.49570(17) 0.33514(12)
C18 C 0.5697(4) 0.59636(19) 0.32644(13)
H15 H 0.5764 0.6471 0.3606
C19 C 0.6354(4) 0.6214(2) 0.26611(15)
H16 H 0.6855 0.6898 0.2602
C20 C 0.6285(3) 0.5473(2) 0.21451(13)
C21 C 0.5533(4) 0.4475(2) 0.22476(15)
H17 H 0.5467 0.3966 0.1907
C22 C 0.4869(3) 0.4203(2) 0.28427(14)
H18 H 0.4374 0.3517 0.2901
C23 C 0.7020(5) 0.5759(3) 0.14930(15)
H19 H 0.6858 0.5152 0.1195
H20 H 0.8145 0.5888 0.1547
H21 H 0.6523 0.6419 0.1323
loop_
_geom_bond_atom_site_label_1
_geom_bond_atom_site_label_2
_geom_bond_site_symmetry_1
_geom_bond_site_symmetry_2
S1 O1 1_555 1_555
O2 S1 1_555 1_555
N1 S1 1_555 1_555
N2 C2 1_555 1_555
C1 N1 1_555 1_555
C2 C1 1_555 1_555
C3 C2 1_555 1_555
H1 C3 1_555 1_555
C4 C3 1_555 1_555
H2 C4 1_555 1_555
C5 C4 1_555 1_555
H3 C5 1_555 1_555
C6 C1 1_555 1_555
H4 C6 1_555 1_555
C7 N1 1_555 1_555
H5 C7 1_555 1_555
H6 C7 1_555 1_555
C8 N2 1_555 1_555
H7 C8 1_555 1_555
C9 C8 1_555 1_555
H8 C9 1_555 1_555
C10 C9 1_555 1_555
H9 C10 1_555 1_555
C11 C10 1_555 1_555
C12 C11 1_555 1_555
H10 C12 1_555 1_555
C13 C12 1_555 1_555
H11 C13 1_555 1_555
C14 C13 1_555 1_555
H12 C14 1_555 1_555
C15 C14 1_555 1_555
H13 C15 1_555 1_555
C16 C11 1_555 1_555
H14 C16 1_555 1_555
C17 S1 1_555 1_555
C18 C17 1_555 1_555
H15 C18 1_555 1_555
C19 C18 1_555 1_555
H16 C19 1_555 1_555
C20 C19 1_555 1_555
C21 C20 1_555 1_555
H17 C21 1_555 1_555
C22 C17 1_555 1_555
H18 C22 1_555 1_555
C23 C20 1_555 1_555
H19 C23 1_555 1_555
H20 C23 1_555 1_555
H21 C23 1_555 1_555
C5 C6 1_555 1_555
C7 C8 1_555 1_555
C15 C16 1_555 1_555
C21 C22 1_555 1_555

#END
