
#######################################################################
#
#                 Cambridge Crystallographic Data Centre
#                                CCDC 
#
#######################################################################
#
# If this CIF has been generated from an entry in the Cambridge 
# Structural Database, then it will include bibliographic, chemical, 
# crystal, experimental, refinement or atomic coordinate data resulting 
# from the CCDC's data processing and validation procedures.
#
#######################################################################

data_CUGWOS
_chemical_formula_moiety         'C66 H58 N4 O4 2+,5.5(H2 O1),2(Cl1 1-)'
_chemical_name_systematic        
'13,30-bis(diphenylmethylene)-9,17,26,34-tetramethoxy-6,23-diaza-3,20-diazoniaheptacyclo[29.3.1.1^3,6^.1^8,12^.1^14,18^.1^20,23^.1^25,29^]tetraconta-1(35),3(40),4,8(39),9,11,14(38),15,17,20(37),21,25(36),26,28,31,33-hexadecaene dichloride hydrate'
_symmetry_cell_setting           monoclinic
_symmetry_space_group_name_H-M   'C 2'
_symmetry_Int_Tables_number      5
_space_group_name_Hall           'C 2y'
loop_
_symmetry_equiv_pos_site_id
_symmetry_equiv_pos_as_xyz
1 x,y,z
2 -x,y,-z
3 1/2+x,1/2+y,z
4 1/2-x,1/2+y,-z
_cell_length_a                   33.698(7)
_cell_length_b                   8.9588(18)
_cell_length_c                   10.793(2)
_cell_angle_alpha                90
_cell_angle_beta                 107.81(3)
_cell_angle_gamma                90
_cell_volume                     3102.19
_cell_formula_units_Z            2
_exptl_crystal_recrystallization_method tetrahydrofuran/water
_exptl_crystal_preparation       Luminescent
loop_
_atom_site_label
_atom_site_type_symbol
_atom_site_fract_x
_atom_site_fract_y
_atom_site_fract_z
Cl1 Cl 0.03175(5) 0.5415(2) 0.79469(14)
O1 O 0.10966(10) 0.8287(4) 1.0045(3)
O2 O 0.06867(10) 1.1598(4) 0.1507(3)
N1 N 0.04959(12) 1.0759(5) 0.8079(4)
N2 N -0.01304(11) 0.9840(5) 0.7512(4)
C1 C 0.1189(2) 0.6927(8) 1.0819(7)
H1 H 0.1087 0.6062 1.0257
H2 H 0.1053 0.6965 1.1500
H3 H 0.1491 0.6839 1.1222
C2 C 0.12745(14) 0.8438(6) 0.9085(5)
C3 C 0.15137(15) 0.7348(6) 0.8750(5)
H4 H 0.1559 0.6415 0.9189
C4 C 0.16889(14) 0.7651(6) 0.7742(5)
H5 H 0.1849 0.6897 0.7498
C5 C 0.16357(13) 0.9009(5) 0.7100(4)
C6 C 0.13814(12) 1.0064(5) 0.7437(4)
H6 H 0.1329 1.0987 0.6982
C7 C 0.12026(13) 0.9804(5) 0.8423(4)
C8 C 0.09376(13) 1.0958(6) 0.8789(5)
H7 H 0.0978 1.0897 0.9735
H8 H 0.1027 1.1963 0.8601
C9 C 0.02713(16) 1.1437(8) 0.6955(6)
H9 H 0.0376 1.2174 0.6503
C10 C -0.01099(16) 1.0920(8) 0.6592(6)
H10 H -0.0330 1.1219 0.5849
C11 C 0.02385(13) 0.9767(6) 0.8391(5)
H11 H 0.0312 0.9123 0.9125
C12 C -0.04939(14) 0.8953(6) 0.7509(6)
H12 H -0.0476 0.8694 0.8416
H13 H -0.0493 0.8011 0.7030
C13 C 0.18383(13) 0.9336(5) 0.6091(5)
C14 C 0.22533(13) 0.9156(5) 0.6312(4)
C15 C 0.25297(13) 0.8765(5) 0.7669(4)
C16 C 0.25388(13) 0.9694(5) 0.8717(4)
H14 H 0.2381 1.0591 0.8578
C17 C 0.27794(14) 0.9297(6) 0.9959(5)
H15 H 0.2780 0.9919 1.0672
C18 C 0.30156(14) 0.8028(6) 1.0181(5)
H16 H 0.3183 0.7785 1.1038
C19 C 0.30109(15) 0.7096(6) 0.9150(5)
H17 H 0.3171 0.6205 0.9298
C20 C 0.27663(14) 0.7482(6) 0.7887(5)
H18 H 0.2764 0.6853 0.7176
C21 C 0.24714(13) 0.9228(5) 0.5319(4)
C22 C 0.28699(13) 0.9886(5) 0.5627(5)
H19 H 0.2987 1.0329 0.6458
C23 C 0.30953(15) 0.9901(6) 0.4745(5)
H20 H 0.3361 1.0365 0.4970
C24 C 0.29317(15) 0.9237(6) 0.3534(5)
H21 H 0.3091 0.9204 0.2944
C25 C 0.25327(16) 0.8619(6) 0.3186(5)
H22 H 0.2416 0.8194 0.2347
C26 C 0.23041(14) 0.8626(5) 0.4079(5)
H23 H 0.2031 0.8214 0.3833
C27 C 0.15563(13) 0.9950(6) 0.4851(4)
C28 C 0.16370(14) 1.1253(6) 0.4309(5)
H24 H 0.1891 1.1765 0.4707
C29 C 0.13563(15) 1.1844(6) 0.3194(5)
H25 H 0.1419 1.2752 0.2841
C30 C 0.09826(14) 1.1111(6) 0.2590(5)
C31 C 0.08932(13) 0.9768(6) 0.3109(5)
C32 C 0.11798(13) 0.9206(6) 0.4247(5)
H26 H 0.1118 0.8306 0.4616
C33 C 0.0712(2) 1.3118(8) 0.1150(6)
H27 H 0.0732 1.3761 0.1901
H28 H 0.0461 1.3380 0.0438
H29 H 0.0958 1.3257 0.0863
O1A O -0.10966(10) 0.8287(4) -0.0045(3)
O2A O -0.06867(10) 1.1598(4) 0.8493(3)
N1A N -0.04959(12) 1.0759(5) 0.1921(4)
N2A N 0.01304(11) 0.9840(5) 0.2488(4)
C1A C -0.1189(2) 0.6927(8) -0.0819(7)
H1A H -0.1087 0.6062 -0.0257
H2A H -0.1053 0.6965 -0.1500
H3A H -0.1491 0.6839 -0.1222
C2A C -0.12745(14) 0.8438(6) 0.0915(5)
C3A C -0.15137(15) 0.7348(6) 0.1250(5)
H4A H -0.1559 0.6415 0.0811
C4A C -0.16889(14) 0.7651(6) 0.2258(5)
H5A H -0.1849 0.6897 0.2502
C5A C -0.16357(13) 0.9009(5) 0.2900(4)
C6A C -0.13814(12) 1.0064(5) 0.2563(4)
H6A H -0.1329 1.0987 0.3018
C7A C -0.12026(13) 0.9804(5) 0.1577(4)
C8A C -0.09376(13) 1.0958(6) 0.1211(5)
H7A H -0.0978 1.0897 0.0265
H8A H -0.1027 1.1963 0.1399
C9A C -0.02713(16) 1.1437(8) 0.3045(6)
H9A H -0.0376 1.2174 0.3497
C10A C 0.01099(16) 1.0920(8) 0.3408(6)
H10A H 0.0330 1.1219 0.4151
C11A C -0.02385(13) 0.9767(6) 0.1609(5)
H11A H -0.0312 0.9123 0.0875
C12A C 0.04939(14) 0.8953(6) 0.2491(6)
H12A H 0.0476 0.8694 0.1584
H13A H 0.0493 0.8011 0.2970
C13A C -0.18383(13) 0.9336(5) 0.3909(5)
C14A C -0.22533(13) 0.9156(5) 0.3688(4)
C15A C -0.25297(13) 0.8765(5) 0.2331(4)
C16A C -0.25388(13) 0.9694(5) 0.1283(4)
H14A H -0.2381 1.0591 0.1422
C17A C -0.27794(14) 0.9297(6) 0.0041(5)
H15A H -0.2780 0.9919 -0.0672
C18A C -0.30156(14) 0.8028(6) -0.0181(5)
H16A H -0.3183 0.7785 -0.1038
C19A C -0.30109(15) 0.7096(6) 0.0850(5)
H17A H -0.3171 0.6205 0.0702
C20A C -0.27663(14) 0.7482(6) 0.2113(5)
H18A H -0.2764 0.6853 0.2824
C21A C -0.24714(13) 0.9228(5) 0.4681(4)
C22A C -0.28699(13) 0.9886(5) 0.4373(5)
H19A H -0.2987 1.0329 0.3542
C23A C -0.30953(15) 0.9901(6) 0.5255(5)
H20A H -0.3361 1.0365 0.5030
C24A C -0.29317(15) 0.9237(6) 0.6466(5)
H21A H -0.3091 0.9204 0.7056
C25A C -0.25327(16) 0.8619(6) 0.6814(5)
H22A H -0.2416 0.8194 0.7653
C26A C -0.23041(14) 0.8626(5) 0.5921(5)
H23A H -0.2031 0.8214 0.6167
C27A C -0.15563(13) 0.9950(6) 0.5149(4)
C28A C -0.16370(14) 1.1253(6) 0.5691(5)
H24A H -0.1891 1.1765 0.5293
C29A C -0.13563(15) 1.1844(6) 0.6806(5)
H25A H -0.1419 1.2752 0.7159
C30A C -0.09826(14) 1.1111(6) 0.7410(5)
C31A C -0.08932(13) 0.9768(6) 0.6891(5)
C32A C -0.11798(13) 0.9206(6) 0.5753(5)
H26A H -0.1118 0.8306 0.5384
C33A C -0.0712(2) 1.3118(8) 0.8850(6)
H27A H -0.0732 1.3761 0.8099
H28A H -0.0461 1.3380 0.9562
H29A H -0.0958 1.3257 0.9137
O3 O 0.06650(8) 0.5182(4) 0.4237(3)
H30 H 0.0771(12) 0.458(5) 0.485(3)
H31 H 0.0789(11) 0.543(5) 0.371(3)
O4 O 0.0989(2) 0.4357(10) 0.6873(9)
O6 O 0.0422(3) 0.7727(8) 0.5844(8)
O8 O 0.0000 0.7055(12) 1.0000
O5? O 0.1007(7) 0.363(3) 0.646(2)
O7? O 0.0043(6) 0.6462(19) 0.9650(18)
loop_
_geom_bond_atom_site_label_1
_geom_bond_atom_site_label_2
_geom_bond_site_symmetry_1
_geom_bond_site_symmetry_2
O1 C1 1_555 1_555
O2 C30 1_555 1_555
N1 C8 1_555 1_555
N2 C10 1_555 1_555
C1 H1 1_555 1_555
H2 C1 1_555 1_555
H3 C1 1_555 1_555
C2 O1 1_555 1_555
C3 C2 1_555 1_555
H4 C3 1_555 1_555
C4 C3 1_555 1_555
H5 C4 1_555 1_555
C5 C4 1_555 1_555
C6 C5 1_555 1_555
H6 C6 1_555 1_555
C7 C2 1_555 1_555
C8 C7 1_555 1_555
H7 C8 1_555 1_555
H8 C8 1_555 1_555
C9 N1 1_555 1_555
H9 C9 1_555 1_555
C10 C9 1_555 1_555
H10 C10 1_555 1_555
C11 N1 1_555 1_555
H11 C11 1_555 1_555
C12 N2 1_555 1_555
H12 C12 1_555 1_555
H13 C12 1_555 1_555
C13 C5 1_555 1_555
C14 C13 1_555 1_555
C15 C14 1_555 1_555
C16 C15 1_555 1_555
H14 C16 1_555 1_555
C17 C16 1_555 1_555
H15 C17 1_555 1_555
C18 C17 1_555 1_555
H16 C18 1_555 1_555
C19 C18 1_555 1_555
H17 C19 1_555 1_555
C20 C15 1_555 1_555
H18 C20 1_555 1_555
C21 C14 1_555 1_555
C22 C21 1_555 1_555
H19 C22 1_555 1_555
C23 C22 1_555 1_555
H20 C23 1_555 1_555
C24 C23 1_555 1_555
H21 C24 1_555 1_555
C25 C24 1_555 1_555
H22 C25 1_555 1_555
C26 C21 1_555 1_555
H23 C26 1_555 1_555
C27 C13 1_555 1_555
C28 C27 1_555 1_555
H24 C28 1_555 1_555
C29 C28 1_555 1_555
H25 C29 1_555 1_555
C30 C29 1_555 1_555
C31 C30 1_555 1_555
C32 C27 1_555 1_555
H26 C32 1_555 1_555
C33 O2 1_555 1_555
H27 C33 1_555 1_555
H28 C33 1_555 1_555
H29 C33 1_555 1_555
O3 H30 1_555 1_555
H31 O3 1_555 1_555
O1A C1A 1_555 1_555
O2A C30A 1_555 1_555
N1A C8A 1_555 1_555
N2A C10A 1_555 1_555
C1A H1A 1_555 1_555
H2A C1A 1_555 1_555
H3A C1A 1_555 1_555
C2A O1A 1_555 1_555
C3A C2A 1_555 1_555
H4A C3A 1_555 1_555
C4A C3A 1_555 1_555
H5A C4A 1_555 1_555
C5A C4A 1_555 1_555
C6A C5A 1_555 1_555
H6A C6A 1_555 1_555
C7A C2A 1_555 1_555
C8A C7A 1_555 1_555
H7A C8A 1_555 1_555
H8A C8A 1_555 1_555
C9A N1A 1_555 1_555
H9A C9A 1_555 1_555
C10A C9A 1_555 1_555
H10A C10A 1_555 1_555
C11A N1A 1_555 1_555
H11A C11A 1_555 1_555
C12A C31 1_555 1_555
H12A C12A 1_555 1_555
H13A C12A 1_555 1_555
C13A C5A 1_555 1_555
C14A C13A 1_555 1_555
C15A C14A 1_555 1_555
C16A C15A 1_555 1_555
H14A C16A 1_555 1_555
C17A C16A 1_555 1_555
H15A C17A 1_555 1_555
C18A C17A 1_555 1_555
H16A C18A 1_555 1_555
C19A C18A 1_555 1_555
H17A C19A 1_555 1_555
C20A C15A 1_555 1_555
H18A C20A 1_555 1_555
C21A C14A 1_555 1_555
C22A C21A 1_555 1_555
H19A C22A 1_555 1_555
C23A C22A 1_555 1_555
H20A C23A 1_555 1_555
C24A C23A 1_555 1_555
H21A C24A 1_555 1_555
C25A C24A 1_555 1_555
H22A C25A 1_555 1_555
C26A C21A 1_555 1_555
H23A C26A 1_555 1_555
C27A C13A 1_555 1_555
C28A C27A 1_555 1_555
H24A C28A 1_555 1_555
C29A C28A 1_555 1_555
H25A C29A 1_555 1_555
C30A C29A 1_555 1_555
C31A C12 1_555 1_555
C32A C27A 1_555 1_555
H26A C32A 1_555 1_555
C33A O2A 1_555 1_555
H27A C33A 1_555 1_555
H28A C33A 1_555 1_555
H29A C33A 1_555 1_555
N2 C11 1_555 1_555
C6 C7 1_555 1_555
C19 C20 1_555 1_555
C25 C26 1_555 1_555
C31 C32 1_555 1_555
N2A C11A 1_555 1_555
N2A C12A 1_555 1_555
C6A C7A 1_555 1_555
C19A C20A 1_555 1_555
C25A C26A 1_555 1_555
C30A C31A 1_555 1_555
C31A C32A 1_555 1_555

#END
