
#######################################################################
#
#                 Cambridge Crystallographic Data Centre
#                                CCDC 
#
#######################################################################
#
# If this CIF has been generated from an entry in the Cambridge 
# Structural Database, then it will include bibliographic, chemical, 
# crystal, experimental, refinement or atomic coordinate data resulting 
# from the CCDC's data processing and validation procedures.
#
#######################################################################

data_CUGYAE
_chemical_compound_source        'Ephemerantha lonchophylla'
_chemical_name_common            3,16-Dihydroxypimar-8(14)-en-15-one
_chemical_formula_moiety         'C20 H32 O3'
_chemical_name_systematic        'Lonchophylloid B'
_symmetry_cell_setting           orthorhombic
_symmetry_space_group_name_H-M   'P 21 21 21'
_symmetry_Int_Tables_number      19
_space_group_name_Hall           'P 2ac 2ab'
loop_
_symmetry_equiv_pos_site_id
_symmetry_equiv_pos_as_xyz
1 x,y,z
2 1/2-x,-y,1/2+z
3 1/2+x,1/2-y,-z
4 -x,1/2+y,1/2-z
_cell_length_a                   10.789(3)
_cell_length_b                   23.452(2)
_cell_length_c                   7.359(2)
_cell_angle_alpha                90
_cell_angle_beta                 90
_cell_angle_gamma                90
_cell_volume                     1862
_exptl_crystal_colour            colorless
_exptl_crystal_description       prismatic
_chemical_melting_point          132-133deg.C
_cell_formula_units_Z            4
_exptl_crystal_recrystallization_method 'chloroform/petroleum ether'
loop_
_atom_site_label
_atom_site_type_symbol
_atom_site_fract_x
_atom_site_fract_y
_atom_site_fract_z
O1 O -0.6004(4) -0.9200(2) -0.1550(7)
O2 O -0.3976(6) -0.5299(3) 0.1390(10)
O3 O -0.2388(4) -0.5303(2) -0.1289(9)
C1 C -0.5698(6) -0.7764(2) 0.0704(8)
C2 C -0.5357(6) -0.8380(3) 0.0227(9)
C3 C -0.6265(6) -0.8612(2) -0.1168(9)
C4 C -0.6265(6) -0.8276(3) -0.2961(9)
C5 C -0.6515(5) -0.7636(2) -0.2504(8)
C6 C -0.6527(6) -0.7250(2) -0.4196(8)
C7 C -0.7038(6) -0.6661(3) -0.3678(9)
C8 C -0.6462(5) -0.6399(2) -0.2038(8)
C9 C -0.6373(5) -0.6793(2) -0.0411(8)
C10 C -0.5723(5) -0.7368(2) -0.0982(8)
C11 C -0.5805(6) -0.6500(2) 0.1255(9)
C12 C -0.6245(7) -0.5880(3) 0.1381(9)
C13 C -0.5782(6) -0.5533(2) -0.0235(10)
C14 C -0.6140(6) -0.5849(3) -0.1961(8)
C15 C -0.4413(7) -0.5418(3) -0.003(1)
C16 C -0.3611(7) -0.5457(3) -0.167(1)
C17 C -0.6442(7) -0.4943(2) -0.026(1)
C18 C -0.5070(7) -0.8390(3) -0.4061(9)
C19 C -0.7338(7) -0.8507(3) -0.4131(10)
C20 C -0.4371(5) -0.7245(2) -0.1562(9)
H1 H -0.6645 -0.7778 0.1667
H2 H -0.5190 -0.7610 0.1852
H3 H -0.6028 -0.9423 -0.0397
H4 H -0.5209 -0.8693 0.1322
H5 H -0.4207 -0.8489 -0.0019
H6 H -0.7326 -0.8504 -0.0454
H7 H -0.1445 -0.5138 -0.1242
H8 H -0.7548 -0.7611 -0.2073
H9 H -0.7179 -0.7518 -0.5270
H10 H -0.5399 -0.7225 -0.4669
H11 H -0.7947 -0.6702 -0.3367
H12 H -0.7015 -0.6404 -0.4661
H13 H -0.7389 -0.6920 -0.0447
H14 H -0.5927 -0.6699 0.2354
H15 H -0.4866 -0.6481 0.1111
H16 H -0.6018 -0.5715 0.2501
H17 H -0.7145 -0.5901 0.1334
H18 H -0.6141 -0.5626 -0.3062
H19 H -0.3499 -0.5888 -0.2141
H20 H -0.7267 -0.4995 -0.0376
H21 H -0.6228 -0.4753 0.0863
H22 H -0.6081 -0.4734 -0.1233
H23 H -0.4368 -0.8259 -0.3399
H24 H -0.5110 -0.8183 -0.5188
H25 H -0.4982 -0.8783 -0.4321
H26 H -0.7343 -0.8334 -0.5271
H27 H -0.8103 -0.8450 -0.3520
H28 H -0.7231 -0.8917 -0.4290
H29 H -0.3989 -0.7587 -0.1950
H30 H -0.3921 -0.7088 -0.0570
H31 H -0.4370 -0.6977 -0.2541
loop_
_geom_bond_atom_site_label_1
_geom_bond_atom_site_label_2
_geom_bond_site_symmetry_1
_geom_bond_site_symmetry_2
O1 C3 1_555 1_555
O2 C15 1_555 1_555
O3 C16 1_555 1_555
C1 C2 1_555 1_555
C2 C3 1_555 1_555
C3 C4 1_555 1_555
C4 C5 1_555 1_555
C5 C6 1_555 1_555
C6 C7 1_555 1_555
C7 C8 1_555 1_555
C8 C9 1_555 1_555
C9 C10 1_555 1_555
C10 C1 1_555 1_555
C11 C9 1_555 1_555
C12 C11 1_555 1_555
C13 C12 1_555 1_555
C14 C8 1_555 1_555
C15 C13 1_555 1_555
C16 C15 1_555 1_555
C17 C13 1_555 1_555
C18 C4 1_555 1_555
C19 C4 1_555 1_555
C20 C10 1_555 1_555
H1 C1 1_555 1_555
H2 C1 1_555 1_555
H3 O1 1_555 1_555
H4 C2 1_555 1_555
H5 C2 1_555 1_555
H6 C3 1_555 1_555
H7 O3 1_555 1_555
H8 C5 1_555 1_555
H9 C6 1_555 1_555
H10 C6 1_555 1_555
H11 C7 1_555 1_555
H12 C7 1_555 1_555
H13 C9 1_555 1_555
H14 C11 1_555 1_555
H15 C11 1_555 1_555
H16 C12 1_555 1_555
H17 C12 1_555 1_555
H18 C14 1_555 1_555
H19 C16 1_555 1_555
H20 C17 1_555 1_555
H21 C17 1_555 1_555
H22 C17 1_555 1_555
H23 C18 1_555 1_555
H24 C18 1_555 1_555
H25 C18 1_555 1_555
H26 C19 1_555 1_555
H27 C19 1_555 1_555
H28 C19 1_555 1_555
H29 C20 1_555 1_555
H30 C20 1_555 1_555
H31 C20 1_555 1_555
C5 C10 1_555 1_555
C13 C14 1_555 1_555

#END
