
#######################################################################
#
#                 Cambridge Crystallographic Data Centre
#                                CCDC 
#
#######################################################################
#
# If this CIF has been generated from an entry in the Cambridge 
# Structural Database, then it will include bibliographic, chemical, 
# crystal, experimental, refinement or atomic coordinate data resulting 
# from the CCDC's data processing and validation procedures.
#
#######################################################################

data_CUGZUB
_chemical_formula_moiety         'C37 H36 O3 S1'
_chemical_name_systematic        
(5,7-bis(4'-propylbiphenyl-4-yl)-2,3-dihydrothieno[3,4-b][1,4]dioxin-2-yl)methanol
_symmetry_cell_setting           monoclinic
_symmetry_space_group_name_H-M   'P 21/c'
_symmetry_Int_Tables_number      14
_space_group_name_Hall           '-P 2ybc'
loop_
_symmetry_equiv_pos_site_id
_symmetry_equiv_pos_as_xyz
1 x,y,z
2 -x,1/2+y,1/2-z
3 -x,-y,-z
4 x,1/2-y,1/2+z
_cell_length_a                   10.1192(2)
_cell_length_b                   11.3017(2)
_cell_length_c                   25.1913(5)
_cell_angle_alpha                90
_cell_angle_beta                 97.8403(9)
_cell_angle_gamma                90
_cell_volume                     2854.05
_exptl_crystal_colour            yellow
_exptl_crystal_description       block
_cell_formula_units_Z            4
loop_
_atom_site_label
_atom_site_type_symbol
_atom_site_fract_x
_atom_site_fract_y
_atom_site_fract_z
S1 S 0.15318(4) 0.05596(4) 0.13570(2)
O1 O 0.39652(13) 0.31364(11) 0.11802(5)
O2 O 0.16959(13) 0.39308(11) 0.16603(5)
O3 O 0.4464(2) 0.52040(18) 0.06282(8)
H1 H 0.4515 0.4541 0.0481
C1 C 0.3966(2) 0.4269(2) 0.14713(11)
H2 H 0.4336 0.4160 0.1857
C2 C 0.2558(3) 0.4730(2) 0.14200(13)
H3 H 0.2556 0.5512 0.1597
H4 H 0.2212 0.4837 0.1036
C3 C 0.4845(3) 0.5087(5) 0.1199(3)
H5 H 0.4832 0.5880 0.1365
H6 H 0.5774 0.4790 0.1266
C4 C 0.29564(17) 0.11972(15) 0.11702(7)
C5 C 0.29669(17) 0.23831(15) 0.12808(7)
C6 C 0.18411(18) 0.27713(15) 0.15122(7)
C7 C 0.09598(17) 0.18914(15) 0.15917(7)
C8 C 0.39906(17) 0.04906(15) 0.09608(7)
C9 C 0.53158(17) 0.08883(15) 0.10268(7)
H7 H 0.5533 0.1622 0.1201
C10 C 0.63106(17) 0.02285(15) 0.08425(7)
H8 H 0.7201 0.0516 0.0896
C11 C 0.60383(17) -0.08539(14) 0.05786(7)
C12 C 0.47179(17) -0.12530(15) 0.05159(7)
H9 H 0.4500 -0.1984 0.0339
C13 C 0.37182(17) -0.06008(15) 0.07071(7)
H10 H 0.2833 -0.0902 0.0665
C14 C 0.71311(17) -0.15215(15) 0.03769(7)
C15 C 0.82847(18) -0.09434(15) 0.02732(8)
H11 H 0.8359 -0.0114 0.0330
C16 C 0.93275(19) -0.15435(16) 0.00892(8)
H12 H 1.0099 -0.1118 0.0024
C17 C 0.92648(18) -0.27530(15) -0.00018(7)
C18 C 0.81159(18) -0.33371(16) 0.00992(8)
H13 H 0.8044 -0.4166 0.0039
C19 C 0.70689(17) -0.27411(15) 0.02855(7)
H14 H 0.6300 -0.3169 0.0352
C20 C 1.04055(19) -0.34366(16) -0.01869(9)
H15 H 1.0806 -0.3943 0.0113
H16 H 1.0030 -0.3969 -0.0482
C21 C 1.15062(18) -0.27250(16) -0.03784(8)
H17 H 1.1904 -0.2197 -0.0086
H18 H 1.1124 -0.2222 -0.0683
C22 C 1.26022(19) -0.35031(17) -0.05556(9)
H19 H 1.2206 -0.4065 -0.0828
H20 H 1.3052 -0.3939 -0.0246
H21 H 1.3251 -0.3005 -0.0706
C23 C -0.02732(17) 0.19465(15) 0.18346(7)
C24 C -0.09330(17) 0.09211(15) 0.19662(7)
H22 H -0.0569 0.0170 0.1899
C25 C -0.21072(18) 0.09781(15) 0.21919(7)
H23 H -0.2535 0.0266 0.2273
C26 C -0.26730(17) 0.20640(15) 0.23017(7)
C27 C -0.20102(18) 0.30878(15) 0.21746(7)
H24 H -0.2370 0.3838 0.2247
C28 C -0.08428(19) 0.30368(16) 0.19461(8)
H25 H -0.0420 0.3751 0.1863
C29 C -0.39411(17) 0.21498(14) 0.25339(7)
C30 C -0.49810(17) 0.13457(14) 0.23893(7)
H26 H -0.4845 0.0697 0.2163
C31 C -0.62093(17) 0.14804(15) 0.25713(7)
H27 H -0.6902 0.0929 0.2463
C32 C -0.64446(17) 0.24126(14) 0.29113(7)
C33 C -0.53905(17) 0.31807(15) 0.30721(7)
H28 H -0.5513 0.3803 0.3314
C34 C -0.41638(17) 0.30614(15) 0.28879(7)
H29 H -0.3467 0.3605 0.3004
C35 C -0.77944(17) 0.26007(15) 0.30918(7)
H30 H -0.8413 0.2915 0.2786
H31 H -0.7704 0.3210 0.3377
C36 C -0.8415(2) 0.14992(17) 0.33028(9)
H32 H -0.7789 0.1160 0.3600
H33 H -0.8561 0.0901 0.3014
C37 C -0.9740(2) 0.1768(2) 0.35024(9)
H34 H -0.9603 0.2369 0.3785
H35 H -1.0090 0.1044 0.3646
H36 H -1.0380 0.2063 0.3204
loop_
_geom_bond_atom_site_label_1
_geom_bond_atom_site_label_2
_geom_bond_site_symmetry_1
_geom_bond_site_symmetry_2
S1 C4 1_555 1_555
O1 C1 1_555 1_555
O2 C2 1_555 1_555
O3 H1 1_555 1_555
C1 H2 1_555 1_555
C2 C1 1_555 1_555
H3 C2 1_555 1_555
H4 C2 1_555 1_555
C3 O3 1_555 1_555
H5 C3 1_555 1_555
H6 C3 1_555 1_555
C4 C5 1_555 1_555
C5 O1 1_555 1_555
C6 O2 1_555 1_555
C7 S1 1_555 1_555
C8 C4 1_555 1_555
C9 C8 1_555 1_555
H7 C9 1_555 1_555
C10 C9 1_555 1_555
H8 C10 1_555 1_555
C11 C10 1_555 1_555
C12 C11 1_555 1_555
H9 C12 1_555 1_555
C13 C8 1_555 1_555
H10 C13 1_555 1_555
C14 C11 1_555 1_555
C15 C14 1_555 1_555
H11 C15 1_555 1_555
C16 C15 1_555 1_555
H12 C16 1_555 1_555
C17 C16 1_555 1_555
C18 C17 1_555 1_555
H13 C18 1_555 1_555
C19 C14 1_555 1_555
H14 C19 1_555 1_555
C20 C17 1_555 1_555
H15 C20 1_555 1_555
H16 C20 1_555 1_555
C21 C20 1_555 1_555
H17 C21 1_555 1_555
H18 C21 1_555 1_555
C22 C21 1_555 1_555
H19 C22 1_555 1_555
H20 C22 1_555 1_555
H21 C22 1_555 1_555
C23 C7 1_555 1_555
C24 C23 1_555 1_555
H22 C24 1_555 1_555
C25 C24 1_555 1_555
H23 C25 1_555 1_555
C26 C25 1_555 1_555
C27 C26 1_555 1_555
H24 C27 1_555 1_555
C28 C23 1_555 1_555
H25 C28 1_555 1_555
C29 C26 1_555 1_555
C30 C29 1_555 1_555
H26 C30 1_555 1_555
C31 C30 1_555 1_555
H27 C31 1_555 1_555
C32 C31 1_555 1_555
C33 C32 1_555 1_555
H28 C33 1_555 1_555
C34 C29 1_555 1_555
H29 C34 1_555 1_555
C35 C32 1_555 1_555
H30 C35 1_555 1_555
H31 C35 1_555 1_555
C36 C35 1_555 1_555
H32 C36 1_555 1_555
H33 C36 1_555 1_555
C37 C36 1_555 1_555
H34 C37 1_555 1_555
H35 C37 1_555 1_555
H36 C37 1_555 1_555
C1 C3 1_555 1_555
C5 C6 1_555 1_555
C6 C7 1_555 1_555
C12 C13 1_555 1_555
C18 C19 1_555 1_555
C27 C28 1_555 1_555
C33 C34 1_555 1_555

#END
