
#######################################################################
#
#                 Cambridge Crystallographic Data Centre
#                                CCDC 
#
#######################################################################
#
# If this CIF has been generated from an entry in the Cambridge 
# Structural Database, then it will include bibliographic, chemical, 
# crystal, experimental, refinement or atomic coordinate data resulting 
# from the CCDC's data processing and validation procedures.
#
#######################################################################

data_CUHJIZ
_chemical_name_common            3,5-Dichloro-6-morpholinopyridin-2-ol
_chemical_formula_moiety         'C9 H10 Cl2 N2 O2'
_chemical_name_systematic        3,5-Dichloro-6-(morpholin-4-yl)pyridin-2-ol
_symmetry_cell_setting           monoclinic
_symmetry_space_group_name_H-M   'P 21/c'
_symmetry_Int_Tables_number      14
_space_group_name_Hall           '-P 2ybc'
loop_
_symmetry_equiv_pos_site_id
_symmetry_equiv_pos_as_xyz
1 x,y,z
2 -x,1/2+y,1/2-z
3 -x,-y,-z
4 x,1/2-y,1/2+z
_cell_length_a                   10.3609(6)
_cell_length_b                   10.5711(7)
_cell_length_c                   10.3190(5)
_cell_angle_alpha                90
_cell_angle_beta                 108.9433(15)
_cell_angle_gamma                90
_cell_volume                     1068.99
_exptl_crystal_colour            colorless
_exptl_crystal_description       parallelepiped
_chemical_melting_point          '157-159 deg.C'
_cell_formula_units_Z            4
_exptl_crystal_recrystallization_method dichloromethane/ether
loop_
_atom_site_label
_atom_site_type_symbol
_atom_site_fract_x
_atom_site_fract_y
_atom_site_fract_z
Cl1 Cl 0.82448(6) 0.18427(6) 0.39998(6)
Cl2 Cl 1.02817(6) 0.53401(6) 0.79208(6)
O1 O 0.79855(17) 0.68277(16) 0.62210(18)
O2 O 0.39408(14) 0.34062(16) 0.03286(16)
N1 N 0.70747(18) 0.53362(17) 0.45392(19)
N2 N 0.60538(17) 0.38165(18) 0.28372(19)
C1 C 0.8194(2) 0.3357(2) 0.4633(2)
C2 C 0.9195(2) 0.3708(2) 0.5837(2)
C3 C 0.9110(2) 0.4877(2) 0.6382(2)
C4 C 0.8041(2) 0.5678(2) 0.5692(2)
C5 C 0.7131(2) 0.4189(2) 0.3998(2)
C6 C 0.4744(2) 0.4465(2) 0.2549(2)
C7 C 0.3658(2) 0.3640(2) 0.1586(2)
C8 C 0.5263(2) 0.2829(2) 0.0603(2)
C9 C 0.6373(2) 0.3624(2) 0.1563(2)
H1 H 0.9910 0.3163 0.6267
H2 H 0.4542 0.4594 0.3393
H3 H 0.4778 0.5277 0.2122
H4 H 0.2782 0.4061 0.1374
H5 H 0.3626 0.2838 0.2031
H6 H 0.5256 0.2006 0.1015
H7 H 0.5449 0.2729 -0.0253
H8 H 0.7243 0.3192 0.1764
H9 H 0.6420 0.4435 0.1142
H10 H 0.7293 0.7276 0.5673
loop_
_geom_bond_atom_site_label_1
_geom_bond_atom_site_label_2
_geom_bond_site_symmetry_1
_geom_bond_site_symmetry_2
Cl1 C1 1_555 1_555
Cl2 C3 1_555 1_555
O1 C4 1_555 1_555
O2 C7 1_555 1_555
N1 C4 1_555 1_555
N2 C5 1_555 1_555
C1 C2 1_555 1_555
C2 C3 1_555 1_555
C3 C4 1_555 1_555
C5 N1 1_555 1_555
C6 N2 1_555 1_555
C7 C6 1_555 1_555
C8 O2 1_555 1_555
C9 N2 1_555 1_555
H1 C2 1_555 1_555
H2 C6 1_555 1_555
H3 C6 1_555 1_555
H4 C7 1_555 1_555
H5 C7 1_555 1_555
H6 C8 1_555 1_555
H7 C8 1_555 1_555
H8 C9 1_555 1_555
H9 C9 1_555 1_555
H10 O1 1_555 1_555
C1 C5 1_555 1_555
C8 C9 1_555 1_555

#END
