
#######################################################################
#
#                 Cambridge Crystallographic Data Centre
#                                CCDC 
#
#######################################################################
#
# If this CIF has been generated from an entry in the Cambridge 
# Structural Database, then it will include bibliographic, chemical, 
# crystal, experimental, refinement or atomic coordinate data resulting 
# from the CCDC's data processing and validation procedures.
#
#######################################################################

data_CUHRII
_chemical_formula_moiety         'C26 H20 N2 O4'
_chemical_name_systematic        
2,8-Di-isopropylpyrrolo[3',4':5,6]phenaleno[1,9-ef]isoindole-1,3,7,9(2H,8H)-tetrone
_symmetry_cell_setting           triclinic
_symmetry_space_group_name_H-M   'P -1'
_symmetry_Int_Tables_number      2
_space_group_name_Hall           '-P 1'
loop_
_symmetry_equiv_pos_site_id
_symmetry_equiv_pos_as_xyz
1 x,y,z
2 -x,-y,-z
_cell_length_a                   7.3610(5)
_cell_length_b                   8.3907(5)
_cell_length_c                   16.3626(10)
_cell_angle_alpha                80.826(5)
_cell_angle_beta                 89.447(5)
_cell_angle_gamma                85.419(5)
_cell_volume                     994.499
_exptl_crystal_colour            'light yellow'
_exptl_crystal_description       needle
_cell_formula_units_Z            2
_exptl_crystal_recrystallization_method chloroform
loop_
_atom_site_label
_atom_site_type_symbol
_atom_site_fract_x
_atom_site_fract_y
_atom_site_fract_z
C1 C 0.2166(3) 0.1203(2) 0.20386(12)
C2 C 0.1646(2) 0.2786(2) 0.15095(12)
C3 C 0.0953(2) 0.3127(2) 0.07052(11)
C4 C 0.0393(2) 0.4786(2) 0.04030(11)
C5 C 0.0586(2) 0.6012(2) 0.09014(11)
C6 C 0.1399(2) 0.5606(2) 0.16877(12)
H1 H 0.1603 0.6416 0.2014
C7 C 0.1891(2) 0.3997(2) 0.19702(11)
C8 C 0.2683(3) 0.3231(2) 0.27897(12)
C9 C 0.3303(3) 0.0317(2) 0.35023(13)
H2 H 0.3365 -0.0760 0.3311
C10 C 0.1827(3) 0.0322(3) 0.41581(15)
H3 H 0.1758 0.1355 0.4368
H4 H 0.2120 -0.0567 0.4615
H5 H 0.0651 0.0180 0.3914
C11 C 0.5171(3) 0.0539(3) 0.38282(14)
H6 H 0.6055 0.0584 0.3375
H7 H 0.5539 -0.0373 0.4262
H8 H 0.5126 0.1551 0.4058
C12 C 0.0790(2) 0.1939(2) 0.01790(12)
H9 H 0.1203 0.0842 0.0370
C13 C -0.0056(2) 0.7648(2) 0.05861(12)
H10 H 0.0037 0.8462 0.0923
N1 N 0.2795(2) 0.15677(19) 0.27841(10)
O1 O 0.2045(2) -0.01534(16) 0.18899(9)
O2 O 0.3155(2) 0.38953(17) 0.33478(9)
C1A C -0.2166(3) 0.8797(2) -0.20386(12)
C2A C -0.1646(2) 0.7214(2) -0.15095(12)
C3A C -0.0953(2) 0.6873(2) -0.07052(11)
C4A C -0.0393(2) 0.5214(2) -0.04030(11)
C5A C -0.0586(2) 0.3988(2) -0.09014(11)
C6A C -0.1399(2) 0.4394(2) -0.16877(12)
H1A H -0.1603 0.3584 -0.2014
C7A C -0.1891(2) 0.6003(2) -0.19702(11)
C8A C -0.2683(3) 0.6769(2) -0.27897(12)
C9A C -0.3303(3) 0.9683(2) -0.35023(13)
H2A H -0.3365 1.0760 -0.3311
C10A C -0.1827(3) 0.9678(3) -0.41581(15)
H3A H -0.1758 0.8645 -0.4368
H4A H -0.2120 1.0567 -0.4615
H5A H -0.0651 0.9820 -0.3914
C11A C -0.5171(3) 0.9461(3) -0.38282(14)
H6A H -0.6055 0.9416 -0.3375
H7A H -0.5539 1.0373 -0.4262
H8A H -0.5126 0.8449 -0.4058
C12A C -0.0790(2) 0.8061(2) -0.01790(12)
H9A H -0.1203 0.9158 -0.0370
C13A C 0.0056(2) 0.2352(2) -0.05861(12)
H10A H -0.0037 0.1538 -0.0923
N1A N -0.2795(2) 0.84323(19) -0.27841(10)
O1A O -0.2045(2) 1.01534(16) -0.18899(9)
O2A O -0.3155(2) 0.61047(17) -0.33478(9)
C14 C 0.7662(3) 0.4379(3) 0.28116(13)
C15 C 0.6893(3) 0.4297(3) 0.19752(13)
C16 C 0.6783(3) 0.2986(3) 0.15725(13)
H11 H 0.7203 0.1926 0.1829
C17 C 0.6033(2) 0.3260(2) 0.07732(12)
C18 C 0.5380(2) 0.4868(2) 0.04045(12)
C19 C 0.5482(2) 0.6195(2) 0.08421(12)
C20 C 0.6277(3) 0.5855(3) 0.16268(13)
C21 C 0.6647(3) 0.6978(3) 0.22260(14)
C22 C 0.7848(3) 0.6628(3) 0.36790(14)
H12 H 0.7507 0.7821 0.3568
C23 C 0.6621(4) 0.5916(4) 0.43648(15)
H13 H 0.5346 0.6148 0.4189
H14 H 0.6818 0.6397 0.4861
H15 H 0.6906 0.4741 0.4489
C24 C 0.9825(4) 0.6411(4) 0.38889(18)
H16 H 1.0218 0.5252 0.3997
H17 H 1.0037 0.6893 0.4383
H18 H 1.0522 0.6943 0.3425
C25 C 0.4771(3) 0.7776(2) 0.04702(14)
H19 H 0.4799 0.8657 0.0768
C26 C 0.4057(3) 0.8028(2) -0.03035(13)
H20 H 0.3603 0.9091 -0.0540
N2 N 0.7452(2) 0.5983(2) 0.29112(11)
O3 O 0.8361(2) 0.3257(2) 0.32959(10)
O4 O 0.6377(2) 0.8430(2) 0.21434(11)
C14A C 0.2338(3) 0.5621(3) -0.28116(13)
C15A C 0.3107(3) 0.5703(3) -0.19752(13)
C16A C 0.3217(3) 0.7014(3) -0.15725(13)
H11A H 0.2797 0.8074 -0.1829
C17A C 0.3967(2) 0.6740(2) -0.07732(12)
C18A C 0.4620(2) 0.5132(2) -0.04045(12)
C19A C 0.4518(2) 0.3805(2) -0.08421(12)
C20A C 0.3723(3) 0.4145(3) -0.16268(13)
C21A C 0.3353(3) 0.3022(3) -0.22260(14)
C22A C 0.2152(3) 0.3372(3) -0.36790(14)
H12A H 0.2493 0.2179 -0.3568
C23A C 0.3379(4) 0.4084(4) -0.43648(15)
H13A H 0.4654 0.3852 -0.4189
H14A H 0.3182 0.3603 -0.4861
H15A H 0.3094 0.5259 -0.4489
C24A C 0.0175(4) 0.3589(4) -0.38889(18)
H16A H -0.0218 0.4748 -0.3997
H17A H -0.0037 0.3107 -0.4383
H18A H -0.0522 0.3057 -0.3425
C25A C 0.5229(3) 0.2224(2) -0.04702(14)
H19A H 0.5201 0.1343 -0.0768
C26A C 0.5943(3) 0.1972(2) 0.03035(13)
H20A H 0.6397 0.0909 0.0540
N2A N 0.2548(2) 0.4017(2) -0.29112(11)
O3A O 0.1639(2) 0.6743(2) -0.32959(10)
O4A O 0.3623(2) 0.1570(2) -0.21434(11)
loop_
_geom_bond_atom_site_label_1
_geom_bond_atom_site_label_2
_geom_bond_site_symmetry_1
_geom_bond_site_symmetry_2
C1 C2 1_555 1_555
C2 C3 1_555 1_555
C3 C4 1_555 1_555
C4 C5 1_555 1_555
C5 C6 1_555 1_555
C6 H1 1_555 1_555
C7 C2 1_555 1_555
C8 C7 1_555 1_555
C9 H2 1_555 1_555
C10 C9 1_555 1_555
H3 C10 1_555 1_555
H4 C10 1_555 1_555
H5 C10 1_555 1_555
C11 C9 1_555 1_555
H6 C11 1_555 1_555
H7 C11 1_555 1_555
H8 C11 1_555 1_555
C12 C3 1_555 1_555
H9 C12 1_555 1_555
C13 C5 1_555 1_555
H10 C13 1_555 1_555
N1 C1 1_555 1_555
O1 C1 1_555 1_555
O2 C8 1_555 1_555
C14 C15 1_555 1_555
C15 C16 1_555 1_555
C16 H11 1_555 1_555
C17 C16 1_555 1_555
C18 C17 1_555 1_555
C19 C18 1_555 1_555
C20 C15 1_555 1_555
C21 C20 1_555 1_555
C22 H12 1_555 1_555
C23 C22 1_555 1_555
H13 C23 1_555 1_555
H14 C23 1_555 1_555
H15 C23 1_555 1_555
C24 C22 1_555 1_555
H16 C24 1_555 1_555
H17 C24 1_555 1_555
H18 C24 1_555 1_555
C25 C19 1_555 1_555
H19 C25 1_555 1_555
C26 C25 1_555 1_555
H20 C26 1_555 1_555
N2 C14 1_555 1_555
O3 C14 1_555 1_555
O4 C21 1_555 1_555
C1A C2A 1_555 1_555
C2A C3A 1_555 1_555
C3A C4A 1_555 1_555
C4A C4 1_555 1_555
C5A C4A 1_555 1_555
C6A C5A 1_555 1_555
H1A C6A 1_555 1_555
C7A C2A 1_555 1_555
C8A C7A 1_555 1_555
C9A H2A 1_555 1_555
C10A C9A 1_555 1_555
H3A C10A 1_555 1_555
H4A C10A 1_555 1_555
H5A C10A 1_555 1_555
C11A C9A 1_555 1_555
H6A C11A 1_555 1_555
H7A C11A 1_555 1_555
H8A C11A 1_555 1_555
C12A C13 1_555 1_555
H9A C12A 1_555 1_555
C13A C12 1_555 1_555
H10A C13A 1_555 1_555
N1A C1A 1_555 1_555
O1A C1A 1_555 1_555
O2A C8A 1_555 1_555
C14A C15A 1_555 1_555
C15A C16A 1_555 1_555
C16A H11A 1_555 1_555
C17A C26 1_555 1_555
C18A C18 1_555 1_555
C19A C18A 1_555 1_555
C20A C15A 1_555 1_555
C21A C20A 1_555 1_555
C22A H12A 1_555 1_555
C23A C22A 1_555 1_555
H13A C23A 1_555 1_555
H14A C23A 1_555 1_555
H15A C23A 1_555 1_555
C24A C22A 1_555 1_555
H16A C24A 1_555 1_555
H17A C24A 1_555 1_555
H18A C24A 1_555 1_555
C25A C19A 1_555 1_555
H19A C25A 1_555 1_555
C26A C17 1_555 1_555
H20A C26A 1_555 1_555
N2A C14A 1_555 1_555
O3A C14A 1_555 1_555
O4A C21A 1_555 1_555
C6 C7 1_555 1_555
C8 N1 1_555 1_555
C9 N1 1_555 1_555
C19 C20 1_555 1_555
C21 N2 1_555 1_555
C22 N2 1_555 1_555
C3A C12A 1_555 1_555
C5A C13A 1_555 1_555
C6A C7A 1_555 1_555
C8A N1A 1_555 1_555
C9A N1A 1_555 1_555
C16A C17A 1_555 1_555
C17A C18A 1_555 1_555
C19A C20A 1_555 1_555
C21A N2A 1_555 1_555
C22A N2A 1_555 1_555
C25A C26A 1_555 1_555

#END
