
#######################################################################
#
#                 Cambridge Crystallographic Data Centre
#                                CCDC 
#
#######################################################################
#
# If this CIF has been generated from an entry in the Cambridge 
# Structural Database, then it will include bibliographic, chemical, 
# crystal, experimental, refinement or atomic coordinate data resulting 
# from the CCDC's data processing and validation procedures.
#
#######################################################################

data_CUHWUX
_chemical_formula_moiety         'C12 H18 O6'
_chemical_name_systematic        
Perhydro-4a,9-epoxydibenzo-p-dioxin-9,9a,10-triol
_symmetry_cell_setting           triclinic
_symmetry_space_group_name_H-M   'P -1'
_symmetry_Int_Tables_number      2
_space_group_name_Hall           '-P 1'
loop_
_symmetry_equiv_pos_site_id
_symmetry_equiv_pos_as_xyz
1 x,y,z
2 -x,-y,-z
_cell_length_a                   10.708(2)
_cell_length_b                   9.551(1)
_cell_length_c                   6.346(1)
_cell_angle_alpha                85.88(1)
_cell_angle_beta                 96.38(1)
_cell_angle_gamma                116.18(1)
_cell_volume                     578.641
_chemical_melting_point          150-152deg.C
_cell_formula_units_Z            2
loop_
_atom_site_label
_atom_site_type_symbol
_atom_site_fract_x
_atom_site_fract_y
_atom_site_fract_z
O1 O 0.1311(4) 0.1338(5) 0.7124(6)
O2 O 0.3600(4) 0.3393(5) 0.5118(6)
O3 O 0.2926(4) 0.3364(5) 0.9248(6)
O4 O 0.5119(4) 0.3071(6) 0.7798(7)
O5 O 0.2470(4) 0.4875(6) 0.3920(6)
O6 O 0.4233(4) 0.5885(5) 0.7925(7)
C1 C 0.2645(6) 0.1968(8) 0.8290(9)
C2 C 0.2667(7) 0.0744(8) 0.9940(10)
C3 C 0.2551(8) -0.0690(9) 0.8985(12)
C4 C 0.3668(8) -0.0345(10) 0.7419(12)
C5 C 0.3641(7) 0.0901(8) 0.5756(10)
C6 C 0.3764(6) 0.2298(8) 0.6708(9)
C7 C 0.2910(6) 0.4568(7) 0.7748(9)
C8 C 0.1850(6) 0.5075(9) 0.8268(11)
C9 C 0.0379(7) 0.3702(10) 0.8170(12)
C10 C 0.0032(7) 0.2867(9) 0.6076(12)
C11 C 0.1145(6) 0.2457(8) 0.5572(10)
C12 C 0.2564(6) 0.3849(7) 0.5511(9)
H1 H 0.519(7) 0.356(8) 0.927(11)
H2 H 0.330(7) 0.580(8) 0.387(10)
H3 H 0.479(7) 0.558(8) 0.712(11)
H4 H 0.355(8) 0.116(8) 1.088(11)
H5 H 0.190(7) 0.054(8) 1.083(11)
H6 H 0.163(8) -0.120(8) 0.823(11)
H7 H 0.263(7) -0.147(8) 1.010(11)
H8 H 0.350(7) -0.134(8) 0.670(11)
H9 H 0.461(8) 0.001(8) 0.818(11)
H10 H 0.276(7) 0.047(8) 0.486(11)
H11 H 0.444(7) 0.116(8) 0.485(11)
H12 H 0.209(7) 0.555(8) 0.968(12)
H13 H 0.186(7) 0.597(8) 0.729(11)
H14 H 0.038(7) 0.296(8) 0.928(11)
H15 H -0.035(8) 0.412(8) 0.835(10)
H16 H -0.013(7) 0.358(8) 0.494(11)
H17 H -0.081(7) 0.194(8) 0.616(10)
H18 H 0.088(7) 0.193(8) 0.410(11)
loop_
_geom_bond_atom_site_label_1
_geom_bond_atom_site_label_2
_geom_bond_site_symmetry_1
_geom_bond_site_symmetry_2
O1 C1 1_555 1_555
O2 C6 1_555 1_555
O3 C1 1_555 1_555
O4 C6 1_555 1_555
O5 C12 1_555 1_555
O6 C7 1_555 1_555
C1 C2 1_555 1_555
C2 C3 1_555 1_555
C3 C4 1_555 1_555
C4 C5 1_555 1_555
C5 C6 1_555 1_555
C6 C1 1_555 1_555
C7 O3 1_555 1_555
C8 C7 1_555 1_555
C9 C8 1_555 1_555
C10 C9 1_555 1_555
C11 O1 1_555 1_555
C12 O2 1_555 1_555
H1 O4 1_555 1_555
H2 O5 1_555 1_555
H3 O6 1_555 1_555
H4 C2 1_555 1_555
H5 C2 1_555 1_555
H6 C3 1_555 1_555
H7 C3 1_555 1_555
H8 C4 1_555 1_555
H9 C4 1_555 1_555
H10 C5 1_555 1_555
H11 C5 1_555 1_555
H12 C8 1_555 1_555
H13 C8 1_555 1_555
H14 C9 1_555 1_555
H15 C9 1_555 1_555
H16 C10 1_555 1_555
H17 C10 1_555 1_555
H18 C11 1_555 1_555
C7 C12 1_555 1_555
C10 C11 1_555 1_555
C11 C12 1_555 1_555

#END
