
#######################################################################
#
#                 Cambridge Crystallographic Data Centre
#                                CCDC 
#
#######################################################################
#
# If this CIF has been generated from an entry in the Cambridge 
# Structural Database, then it will include bibliographic, chemical, 
# crystal, experimental, refinement or atomic coordinate data resulting 
# from the CCDC's data processing and validation procedures.
#
#######################################################################

data_CUHXOU
_chemical_formula_moiety         'C42 H38 N4 O4'
_chemical_name_systematic        
4,4'-(Hydrazine-1,2-diylidenedimethylylidene)bis(N,N-bis(4-methoxyphenyl)aniline)
_symmetry_cell_setting           monoclinic
_symmetry_space_group_name_H-M   'P 21/n'
_symmetry_Int_Tables_number      14
_space_group_name_Hall           '-P 2yn'
loop_
_symmetry_equiv_pos_site_id
_symmetry_equiv_pos_as_xyz
1 x,y,z
2 1/2-x,1/2+y,1/2-z
3 -x,-y,-z
4 1/2+x,1/2-y,1/2+z
_cell_length_a                   11.061(7)
_cell_length_b                   9.663(6)
_cell_length_c                   16.800(10)
_cell_angle_alpha                90
_cell_angle_beta                 91.609(10)
_cell_angle_gamma                90
_cell_volume                     1794.92
_exptl_crystal_colour            yellow
_exptl_crystal_description       block
_cell_formula_units_Z            2
loop_
_atom_site_label
_atom_site_type_symbol
_atom_site_fract_x
_atom_site_fract_y
_atom_site_fract_z
C1 C 0.4015(5) 0.8813(4) 0.5283(2)
H1 H 0.3333 0.9340 0.5155
C2 C 0.3843(4) 0.7427(4) 0.5613(2)
C3 C 0.2704(4) 0.6958(4) 0.5736(2)
H2 H 0.2050 0.7526 0.5603
C4 C 0.2492(5) 0.5670(4) 0.6051(2)
H3 H 0.1702 0.5382 0.6130
C5 C 0.3445(5) 0.4798(4) 0.6251(2)
C6 C 0.4600(5) 0.5257(4) 0.6122(2)
H4 H 0.5254 0.4686 0.6248
C7 C 0.4803(4) 0.6561(4) 0.5806(2)
H5 H 0.5590 0.6854 0.5723
C8 C 0.2077(5) 0.2856(4) 0.6437(2)
C9 C 0.1719(5) 0.2389(5) 0.5695(3)
H6 H 0.2239 0.2488 0.5273
C10 C 0.0616(5) 0.1784(5) 0.5562(3)
H7 H 0.0398 0.1467 0.5055
C11 C -0.0161(5) 0.1643(5) 0.6164(3)
C12 C 0.0181(5) 0.2069(6) 0.6912(3)
H8 H -0.0342 0.1953 0.7331
C13 C 0.1295(5) 0.2669(5) 0.7048(3)
H9 H 0.1521 0.2953 0.7560
C14 C -0.2137(6) 0.0979(10) 0.6570(4)
H10 H -0.1844 0.0409 0.7002
H11 H -0.2873 0.0593 0.6350
H12 H -0.2289 0.1896 0.6762
C15 C 0.4087(4) 0.2810(4) 0.7069(3)
C16 C 0.4402(5) 0.1455(5) 0.6922(4)
H13 H 0.4076 0.0981 0.6484
C17 C 0.5221(6) 0.0819(7) 0.7446(6)
H14 H 0.5368 -0.0118 0.7366
C18 C 0.5826(7) 0.1434(9) 0.8063(4)
C19 C 0.5411(8) 0.2741(9) 0.8189(3)
H15 H 0.5705 0.3202 0.8640
C20 C 0.4619(7) 0.3412(6) 0.7719(3)
H16 H 0.4424 0.4323 0.7840
C21 C 0.6793(7) 0.0052(10) 0.8913(4)
H17 H 0.6116 -0.0232 0.9218
H18 H 0.7529 -0.0116 0.9214
H19 H 0.6801 -0.0466 0.8425
N1 N 0.5035(4) 0.9325(3) 0.51627(18)
N2 N 0.3231(4) 0.3496(3) 0.6572(2)
O1 O -0.1251(4) 0.1035(5) 0.5969(2)
O2 O 0.6706(7) 0.1130(9) 0.8685(5)
C1B C 0.5985(5) 1.1187(4) 0.4717(2)
H1B H 0.6667 1.0660 0.4845
C2B C 0.6157(4) 1.2573(4) 0.4387(2)
C3B C 0.7296(4) 1.3042(4) 0.4264(2)
H2B H 0.7950 1.2474 0.4397
C4B C 0.7508(5) 1.4330(4) 0.3949(2)
H3B H 0.8298 1.4618 0.3870
C5B C 0.6555(5) 1.5202(4) 0.3749(2)
C6B C 0.5400(5) 1.4743(4) 0.3878(2)
H4B H 0.4746 1.5314 0.3752
C7B C 0.5197(4) 1.3439(4) 0.4194(2)
H5B H 0.4410 1.3146 0.4277
C8B C 0.7923(5) 1.7144(4) 0.3563(2)
C9B C 0.8281(5) 1.7611(5) 0.4305(3)
H6B H 0.7761 1.7512 0.4727
C10B C 0.9384(5) 1.8216(5) 0.4438(3)
H7B H 0.9602 1.8533 0.4945
C11B C 1.0161(5) 1.8357(5) 0.3836(3)
C12B C 0.9819(5) 1.7931(6) 0.3088(3)
H8B H 1.0342 1.8047 0.2669
C13B C 0.8705(5) 1.7331(5) 0.2952(3)
H9B H 0.8479 1.7047 0.2440
C14B C 1.2137(6) 1.9021(10) 0.3430(4)
H10B H 1.1844 1.9591 0.2998
H11B H 1.2873 1.9407 0.3650
H12B H 1.2289 1.8104 0.3238
C15B C 0.5913(4) 1.7190(4) 0.2931(3)
C16B C 0.5598(5) 1.8545(5) 0.3078(4)
H13B H 0.5924 1.9019 0.3516
C17B C 0.4779(6) 1.9181(7) 0.2554(6)
H14B H 0.4632 2.0118 0.2634
C18B C 0.4174(7) 1.8566(9) 0.1937(4)
C19B C 0.4589(8) 1.7259(9) 0.1811(3)
H15B H 0.4295 1.6798 0.1360
C20B C 0.5381(7) 1.6588(6) 0.2281(3)
H16B H 0.5576 1.5677 0.2160
C21B C 0.3207(7) 1.9948(10) 0.1087(4)
H17B H 0.3884 2.0232 0.0782
H18B H 0.2471 2.0116 0.0786
H19B H 0.3199 2.0466 0.1575
N1B N 0.4965(4) 1.0675(3) 0.48373(18)
N2B N 0.6769(4) 1.6504(3) 0.3428(2)
O1B O 1.1251(4) 1.8965(5) 0.4031(2)
O2B O 0.3294(7) 1.8870(9) 0.1315(5)
O3? O 0.6388(10) 0.0171(11) 0.8141(6)
loop_
_geom_bond_atom_site_label_1
_geom_bond_atom_site_label_2
_geom_bond_site_symmetry_1
_geom_bond_site_symmetry_2
C1 H1 1_555 1_555
C2 C1 1_555 1_555
C3 C2 1_555 1_555
H2 C3 1_555 1_555
C4 C3 1_555 1_555
H3 C4 1_555 1_555
C5 C4 1_555 1_555
C6 C5 1_555 1_555
H4 C6 1_555 1_555
C7 C2 1_555 1_555
H5 C7 1_555 1_555
C8 C9 1_555 1_555
C9 H6 1_555 1_555
C10 C9 1_555 1_555
H7 C10 1_555 1_555
C11 C10 1_555 1_555
C12 C11 1_555 1_555
H8 C12 1_555 1_555
C13 C8 1_555 1_555
H9 C13 1_555 1_555
C14 H10 1_555 1_555
H11 C14 1_555 1_555
H12 C14 1_555 1_555
C15 C16 1_555 1_555
C16 H13 1_555 1_555
C17 C16 1_555 1_555
H14 C17 1_555 1_555
C18 C17 1_555 1_555
C19 C18 1_555 1_555
H15 C19 1_555 1_555
C20 C15 1_555 1_555
H16 C20 1_555 1_555
C21 H17 1_555 1_555
H18 C21 1_555 1_555
H19 C21 1_555 1_555
N1 C1 1_555 1_555
N2 C5 1_555 1_555
O1 C11 1_555 1_555
O2 C18 1_555 1_555
C1B H1B 1_555 1_555
C2B C1B 1_555 1_555
C3B C2B 1_555 1_555
H2B C3B 1_555 1_555
C4B C3B 1_555 1_555
H3B C4B 1_555 1_555
C5B C4B 1_555 1_555
C6B C5B 1_555 1_555
H4B C6B 1_555 1_555
C7B C2B 1_555 1_555
H5B C7B 1_555 1_555
C8B C9B 1_555 1_555
C9B H6B 1_555 1_555
C10B C9B 1_555 1_555
H7B C10B 1_555 1_555
C11B C10B 1_555 1_555
C12B C11B 1_555 1_555
H8B C12B 1_555 1_555
C13B C8B 1_555 1_555
H9B C13B 1_555 1_555
C14B H10B 1_555 1_555
H11B C14B 1_555 1_555
H12B C14B 1_555 1_555
C15B C16B 1_555 1_555
C16B H13B 1_555 1_555
C17B C16B 1_555 1_555
H14B C17B 1_555 1_555
C18B C17B 1_555 1_555
C19B C18B 1_555 1_555
H15B C19B 1_555 1_555
C20B C15B 1_555 1_555
H16B C20B 1_555 1_555
C21B H17B 1_555 1_555
H18B C21B 1_555 1_555
H19B C21B 1_555 1_555
N1B N1 1_555 1_555
N2B C5B 1_555 1_555
O1B C11B 1_555 1_555
O2B C18B 1_555 1_555
C6 C7 1_555 1_555
C8 N2 1_555 1_555
C12 C13 1_555 1_555
C14 O1 1_555 1_555
C15 N2 1_555 1_555
C19 C20 1_555 1_555
C21 O2 1_555 1_555
C1B N1B 1_555 1_555
C6B C7B 1_555 1_555
C8B N2B 1_555 1_555
C12B C13B 1_555 1_555
C14B O1B 1_555 1_555
C15B N2B 1_555 1_555
C19B C20B 1_555 1_555
C21B O2B 1_555 1_555

#END
