
#######################################################################
#
#                 Cambridge Crystallographic Data Centre
#                                CCDC 
#
#######################################################################
#
# If this CIF has been generated from an entry in the Cambridge 
# Structural Database, then it will include bibliographic, chemical, 
# crystal, experimental, refinement or atomic coordinate data resulting 
# from the CCDC's data processing and validation procedures.
#
#######################################################################

data_CUHYOV
_chemical_formula_moiety         'C20 H29 N1 O7'
_chemical_name_systematic        
'3-(8-Acetoxy-8-cyano-4,4-dimethyl-3,5,10-trioxatricyclo[5.2.1.0^2,6^]dec-2-yl)propyl pivalate'
_symmetry_cell_setting           monoclinic
_symmetry_space_group_name_H-M   'P 21/c'
_symmetry_Int_Tables_number      14
_space_group_name_Hall           '-P 2ybc'
loop_
_symmetry_equiv_pos_site_id
_symmetry_equiv_pos_as_xyz
1 x,y,z
2 -x,1/2+y,1/2-z
3 -x,-y,-z
4 x,1/2-y,1/2+z
_cell_length_a                   13.484(6)
_cell_length_b                   7.029(3)
_cell_length_c                   22.340(9)
_cell_angle_alpha                90
_cell_angle_beta                 105.089(6)
_cell_angle_gamma                90
_cell_volume                     2044.36
_exptl_crystal_colour            colorless
_exptl_crystal_description       block
_chemical_melting_point          '362.2-363.2 K'
_cell_formula_units_Z            4
_exptl_crystal_recrystallization_method 'diethyl ether'
loop_
_atom_site_label
_atom_site_type_symbol
_atom_site_fract_x
_atom_site_fract_y
_atom_site_fract_z
O1 O 0.90980(14) -0.1776(3) 0.35692(8)
O2 O 0.93834(13) 0.1699(3) 0.29827(8)
O3 O 1.05364(13) 0.1245(3) 0.39207(8)
O4 O 0.83119(14) 0.0255(3) 0.48256(8)
O5 O 0.68454(17) -0.1010(4) 0.49439(11)
O6 O 0.60477(13) 0.4991(3) 0.31870(9)
O7 O 0.45027(16) 0.4043(3) 0.26035(9)
N1 N 0.8369(3) -0.4644(4) 0.47931(13)
C1 C 0.8248(2) -0.0522(4) 0.33030(12)
C2 C 0.87585(19) 0.1468(4) 0.34096(11)
C3 C 0.95529(19) 0.1144(4) 0.40440(12)
C4 C 0.9363(2) -0.0946(4) 0.41755(12)
C5 C 0.8343(2) -0.1154(4) 0.43676(12)
C6 C 0.7542(2) -0.0862(5) 0.37336(12)
C7 C 1.04230(19) 0.2091(4) 0.33233(12)
C8 C 1.1129(3) 0.1069(5) 0.30013(14)
C9 C 1.0640(3) 0.4210(5) 0.34107(14)
C10 C 0.8318(3) -0.3109(4) 0.46197(13)
C11 C 0.7504(2) 0.0163(4) 0.50915(13)
C12 C 0.7571(3) 0.1706(5) 0.55563(15)
C13 C 0.8018(2) 0.3134(4) 0.33601(12)
C14 C 0.7186(2) 0.3129(4) 0.27439(12)
C15 C 0.6496(2) 0.4861(5) 0.26637(13)
C16 C 0.5053(2) 0.4471(4) 0.30978(13)
C17 C 0.4761(2) 0.4492(5) 0.37116(13)
C18 C 0.5415(5) 0.2993(12) 0.4137(3)
C19 C 0.3640(3) 0.3973(7) 0.36041(18)
C20 C 0.4947(4) 0.6474(9) 0.3994(3)
H1 H 0.797(2) -0.081(4) 0.2851(13)
H2 H 0.947(2) 0.213(4) 0.4367(13)
H3 H 0.994(3) -0.158(4) 0.4429(13)
H4 H 0.707(3) 0.031(5) 0.3742(16)
H5 H 0.710(3) -0.205(5) 0.3596(15)
H6 H 1.184(3) 0.119(5) 0.3247(16)
H7 H 1.102(3) -0.038(6) 0.2983(18)
H8 H 1.114(3) 0.167(5) 0.2574(18)
H9 H 1.061(4) 0.471(6) 0.298(3)
H10 H 1.135(4) 0.437(6) 0.3669(19)
H11 H 1.008(3) 0.484(5) 0.3581(17)
H12 H 0.757(3) 0.290(6) 0.5398(19)
H13 H 0.824(3) 0.162(5) 0.5915(17)
H14 H 0.698(4) 0.165(7) 0.573(2)
H15 H 0.773(3) 0.309(5) 0.3714(14)
H16 H 0.836(3) 0.431(5) 0.3403(13)
H17 H 0.674(3) 0.200(5) 0.2702(16)
H18 H 0.749(3) 0.311(4) 0.2367(13)
H19 H 0.592(3) 0.486(5) 0.2249(16)
H20 H 0.685(3) 0.597(5) 0.2691(14)
H21 H 0.342(4) 0.394(6) 0.403(2)
H22 H 0.320(4) 0.487(6) 0.336(2)
H23 H 0.349(4) 0.278(7) 0.337(2)
H24 H 0.515(4) 0.289(7) 0.454(3)
H25 H 0.617(7) 0.342(11) 0.423(4)
H26 H 0.558(6) 0.195(10) 0.394(4)
H27 H 0.565(5) 0.678(7) 0.409(3)
H28 H 0.441(6) 0.728(9) 0.377(3)
H29 H 0.473(6) 0.642(10) 0.441(4)
loop_
_geom_bond_atom_site_label_1
_geom_bond_atom_site_label_2
_geom_bond_site_symmetry_1
_geom_bond_site_symmetry_2
O1 C1 1_555 1_555
O2 C2 1_555 1_555
O3 C3 1_555 1_555
O4 C5 1_555 1_555
O5 C11 1_555 1_555
O6 C15 1_555 1_555
O7 C16 1_555 1_555
N1 C10 1_555 1_555
C1 C2 1_555 1_555
C2 C3 1_555 1_555
C3 C4 1_555 1_555
C4 O1 1_555 1_555
C5 C4 1_555 1_555
C6 C1 1_555 1_555
C7 O2 1_555 1_555
C8 C7 1_555 1_555
C9 C7 1_555 1_555
C10 C5 1_555 1_555
C11 O4 1_555 1_555
C12 C11 1_555 1_555
C13 C2 1_555 1_555
C14 C13 1_555 1_555
C15 C14 1_555 1_555
C16 O6 1_555 1_555
C17 C16 1_555 1_555
C18 C17 1_555 1_555
C19 C17 1_555 1_555
C20 C17 1_555 1_555
H1 C1 1_555 1_555
H2 C3 1_555 1_555
H3 C4 1_555 1_555
H4 C6 1_555 1_555
H5 C6 1_555 1_555
H6 C8 1_555 1_555
H7 C8 1_555 1_555
H8 C8 1_555 1_555
H9 C9 1_555 1_555
H10 C9 1_555 1_555
H11 C9 1_555 1_555
H12 C12 1_555 1_555
H13 C12 1_555 1_555
H14 C12 1_555 1_555
H15 C13 1_555 1_555
H16 C13 1_555 1_555
H17 C14 1_555 1_555
H18 C14 1_555 1_555
H19 C15 1_555 1_555
H20 C15 1_555 1_555
H21 C19 1_555 1_555
H22 C19 1_555 1_555
H23 C19 1_555 1_555
H24 C18 1_555 1_555
H25 C18 1_555 1_555
H26 C18 1_555 1_555
H27 C20 1_555 1_555
H28 C20 1_555 1_555
H29 C20 1_555 1_555
O3 C7 1_555 1_555
C5 C6 1_555 1_555

#END
