
#######################################################################
#
#                 Cambridge Crystallographic Data Centre
#                                CCDC 
#
#######################################################################
#
# If this CIF has been generated from an entry in the Cambridge 
# Structural Database, then it will include bibliographic, chemical, 
# crystal, experimental, refinement or atomic coordinate data resulting 
# from the CCDC's data processing and validation procedures.
#
#######################################################################

data_CUJWAF
_chemical_compound_source        
'Goniothalamus giganteus Hook. fil & Thomas (Annonaceae)'
_chemical_formula_moiety         'C13 H12 O4'
_chemical_name_systematic        Goniothalenol
_symmetry_cell_setting           orthorhombic
_symmetry_space_group_name_H-M   'P 21 21 21'
_symmetry_Int_Tables_number      19
_space_group_name_Hall           'P 2ac 2ab'
loop_
_symmetry_equiv_pos_site_id
_symmetry_equiv_pos_as_xyz
1 x,y,z
2 1/2+x,1/2-y,-z
3 -x,1/2+y,1/2-z
4 1/2-x,-y,1/2+z
_cell_length_a                   7.177(3)
_cell_length_b                   12.045(6)
_cell_length_c                   13.060(3)
_cell_angle_alpha                90
_cell_angle_beta                 90
_cell_angle_gamma                90
_cell_volume                     1129
_chemical_melting_point          110deg.C
_cell_formula_units_Z            4
loop_
_atom_site_label
_atom_site_type_symbol
_atom_site_fract_x
_atom_site_fract_y
_atom_site_fract_z
O1 O 0.2999(4) 0.0559(3) 0.2337(3)
C1 C 0.1777(7) 0.1387(5) 0.2230(4)
O2 O 0.2315(5) 0.2240(3) 0.1851(4)
C2 C -0.0106(7) 0.1235(4) 0.2649(4)
C3 C -0.0514(6) 0.0391(5) 0.3236(4)
C4 C 0.0886(6) -0.0501(4) 0.3436(4)
C5 C 0.2395(6) -0.0544(4) 0.2636(4)
C6 C 0.4003(7) -0.1086(4) 0.3187(4)
O3 O 0.3912(6) -0.2230(3) 0.2960(4)
C7 C 0.3591(7) -0.0859(4) 0.4328(4)
O4 O 0.1852(4) -0.0257(4) 0.4357(2)
C8 C 0.5047(7) -0.0182(4) 0.4869(3)
C9 C 0.6591(8) -0.0708(4) 0.5274(4)
C10 C 0.7999(7) -0.0094(7) 0.5736(4)
C11 C 0.7875(9) 0.1032(7) 0.5810(5)
C12 C 0.6337(11) 0.1556(6) 0.5411(5)
C13 C 0.4954(9) 0.0966(5) 0.4952(5)
loop_
_geom_bond_atom_site_label_1
_geom_bond_atom_site_label_2
_geom_bond_site_symmetry_1
_geom_bond_site_symmetry_2
O1 C1 1_555 1_555
C1 O2 1_555 1_555
C2 C1 1_555 1_555
C3 C2 1_555 1_555
C4 C3 1_555 1_555
C5 O1 1_555 1_555
C6 C5 1_555 1_555
O3 C6 1_555 1_555
C7 C6 1_555 1_555
O4 C4 1_555 1_555
C8 C7 1_555 1_555
C9 C8 1_555 1_555
C10 C9 1_555 1_555
C11 C10 1_555 1_555
C12 C11 1_555 1_555
C13 C8 1_555 1_555
C4 C5 1_555 1_555
C7 O4 1_555 1_555
C12 C13 1_555 1_555

#END
