
#######################################################################
#
#                 Cambridge Crystallographic Data Centre
#                                CCDC 
#
#######################################################################
#
# If this CIF has been generated from an entry in the Cambridge 
# Structural Database, then it will include bibliographic, chemical, 
# crystal, experimental, refinement or atomic coordinate data resulting 
# from the CCDC's data processing and validation procedures.
#
#######################################################################

data_CUKQUU
_chemical_formula_moiety         'C30 H42 N6'
_chemical_name_systematic        
1,3,5-tris(3,5-Dimethylpyrazol-1-ylmethyl)-2,4,6-triethylbenzene
_symmetry_cell_setting           monoclinic
_symmetry_space_group_name_H-M   'C c'
_symmetry_Int_Tables_number      9
_space_group_name_Hall           'C -2yc'
loop_
_symmetry_equiv_pos_site_id
_symmetry_equiv_pos_as_xyz
1 x,y,z
2 x,-y,1/2+z
3 1/2+x,1/2+y,z
4 1/2+x,1/2-y,1/2+z
_cell_length_a                   11.2859(2)
_cell_length_b                   20.8673(4)
_cell_length_c                   24.1688(5)
_cell_angle_alpha                90
_cell_angle_beta                 97.3030(10)
_cell_angle_gamma                90
_cell_volume                     5645.73
_exptl_crystal_colour            colorless
_exptl_crystal_description       parallelogram
_cell_formula_units_Z            8
_exptl_crystal_recrystallization_method ethanol
loop_
_atom_site_label
_atom_site_type_symbol
_atom_site_fract_x
_atom_site_fract_y
_atom_site_fract_z
N1 N 0.2163(4) 0.5630(2) 0.96222(18)
N2 N 0.1504(4) 0.5106(2) 0.97510(19)
N3 N -0.0219(4) 0.6421(2) 0.70345(18)
N4 N 0.0770(4) 0.6804(2) 0.70968(19)
N5 N 0.2320(4) 0.36735(19) 0.75415(19)
N6 N 0.2782(4) 0.4051(2) 0.7160(2)
C1 C 0.1895(4) 0.5403(2) 0.8608(2)
C2 C 0.1075(4) 0.5835(2) 0.8313(2)
C3 C 0.0378(4) 0.5642(2) 0.7823(2)
C4 C 0.0472(4) 0.5007(2) 0.7623(2)
C5 C 0.1225(4) 0.4570(2) 0.7934(2)
C6 C 0.1946(4) 0.4767(2) 0.8423(2)
C7 C 0.0000(6) 0.6550(3) 0.8937(3)
H1 H -0.0044 0.6981 0.9071
H2 H 0.0212 0.6266 0.9246
H3 H -0.0762 0.6427 0.8744
C8 C 0.0943(5) 0.6512(2) 0.8538(2)
H4 H 0.1698 0.6649 0.8730
H5 H 0.0729 0.6798 0.8231
C9 C -0.1458(6) 0.4517(3) 0.7152(3)
H6 H -0.1869 0.4408 0.6791
H7 H -0.1928 0.4819 0.7330
H8 H -0.1339 0.4138 0.7376
C10 C -0.0251(5) 0.4814(3) 0.7083(2)
H9 H 0.0202 0.4512 0.6897
H10 H -0.0381 0.5186 0.6849
C11 C 0.4055(5) 0.4281(3) 0.8610(3)
H11 H 0.4506 0.3966 0.8838
H12 H 0.4414 0.4695 0.8681
H13 H 0.4051 0.4173 0.8224
C12 C 0.2772(5) 0.4294(2) 0.8752(2)
H14 H 0.2437 0.3873 0.8693
H15 H 0.2794 0.4391 0.9141
C13 C 0.2710(5) 0.5622(3) 0.9111(2)
H16 H 0.3394 0.5345 0.9162
H17 H 0.2988 0.6046 0.9042
C14 C 0.1259(6) 0.5225(3) 1.0267(3)
C15 C 0.1751(6) 0.5805(3) 1.0467(3)
H18 H 0.1690 0.5997 1.0824
C16 C 0.2334(5) 0.6044(2) 1.0057(3)
C17 C 0.0527(8) 0.4743(4) 1.0553(3)
H19 H 0.0314 0.4390 1.0306
H20 H -0.0186 0.4946 1.0645
H21 H 0.0990 0.4590 1.0887
C18 C 0.3075(7) 0.6643(3) 1.0037(4)
H22 H 0.3351 0.6676 0.9678
H23 H 0.3750 0.6624 1.0322
H24 H 0.2598 0.7011 1.0098
C19 C -0.0564(5) 0.6081(2) 0.7523(2)
H25 H -0.1264 0.5830 0.7404
H26 H -0.0779 0.6393 0.7784
C20 C 0.0757(5) 0.7100(3) 0.6606(3)
C21 C -0.0237(6) 0.6910(3) 0.6244(3)
H27 H -0.0448 0.7052 0.5867
C22 C -0.0856(6) 0.6485(3) 0.6524(3)
C23 C 0.1712(6) 0.7565(3) 0.6516(3)
H28 H 0.2274 0.7594 0.6848
H29 H 0.1363 0.7978 0.6430
H30 H 0.2116 0.7422 0.6212
C24 C -0.2009(6) 0.6145(4) 0.6343(3)
H31 H -0.2220 0.5887 0.6644
H32 H -0.1918 0.5875 0.6029
H33 H -0.2626 0.6454 0.6238
C25 C 0.1220(4) 0.3873(2) 0.7748(2)
H34 H 0.1089 0.3605 0.8057
H35 H 0.0564 0.3808 0.7459
C26 C 0.3752(6) 0.3731(3) 0.7049(3)
C27 C 0.3886(5) 0.3157(3) 0.7340(3)
H36 H 0.4502 0.2842 0.7325
C28 C 0.2954(5) 0.3132(2) 0.7652(2)
C29 C 0.4519(8) 0.4008(4) 0.6643(4)
H37 H 0.4207 0.4418 0.6515
H38 H 0.4520 0.3724 0.6331
H39 H 0.5321 0.4060 0.6825
C30 C 0.2606(6) 0.2628(3) 0.8044(3)
H40 H 0.1908 0.2766 0.8200
H41 H 0.3250 0.2562 0.8338
H42 H 0.2436 0.2235 0.7844
N7 N 0.4145(4) 0.68188(19) 0.73048(18)
N8 N 0.4814(4) 0.7333(2) 0.71864(19)
N9 N 0.3782(4) 0.87196(19) 0.93882(18)
N10 N 0.3174(4) 0.8293(2) 0.9668(2)
N11 N 0.6569(4) 0.5999(2) 0.98613(19)
N12 N 0.5538(4) 0.56376(19) 0.97962(19)
C31 C 0.4397(4) 0.7046(2) 0.8333(2)
C32 C 0.4315(4) 0.7679(2) 0.8526(2)
C33 C 0.5004(4) 0.7860(2) 0.9027(2)
C34 C 0.5782(4) 0.7425(2) 0.9329(2)
C35 C 0.5915(4) 0.6812(2) 0.9105(2)
C36 C 0.5220(5) 0.6608(2) 0.8613(2)
C37 C 0.2199(5) 0.8166(3) 0.8266(3)
H43 H 0.1784 0.8488 0.8033
H44 H 0.2127 0.8257 0.8649
H45 H 0.1857 0.7753 0.8168
C38 C 0.3522(4) 0.8164(2) 0.8180(2)
H46 H 0.3574 0.8083 0.7793
H47 H 0.3839 0.8585 0.8264
C39 C 0.7650(6) 0.7935(3) 0.9874(3)
H48 H 0.8007 0.8033 1.0246
H49 H 0.7527 0.8324 0.9662
H50 H 0.8170 0.7657 0.9700
C40 C 0.6444(5) 0.7601(3) 0.9895(2)
H51 H 0.6578 0.7217 1.0113
H52 H 0.5944 0.7877 1.0082
C41 C 0.6307(6) 0.5893(3) 0.7980(3)
H53 H 0.6338 0.5460 0.7850
H54 H 0.7074 0.6012 0.8171
H55 H 0.6100 0.6174 0.7668
C42 C 0.5374(5) 0.5946(2) 0.8379(2)
H56 H 0.4619 0.5809 0.8187
H57 H 0.5585 0.5656 0.8684
C43 C 0.3572(5) 0.6831(2) 0.7819(2)
H58 H 0.3280 0.6409 0.7885
H59 H 0.2896 0.7114 0.7765
C44 C 0.5133(6) 0.7210(3) 0.6682(2)
C45 C 0.4632(6) 0.6634(3) 0.6487(3)
H60 H 0.4705 0.6442 0.6132
C46 C 0.4018(6) 0.6389(3) 0.6889(3)
C47 C 0.5870(7) 0.7673(3) 0.6416(3)
H61 H 0.6067 0.8028 0.6663
H62 H 0.5432 0.7825 0.6074
H63 H 0.6591 0.7468 0.6337
C48 C 0.3305(6) 0.5781(3) 0.6919(3)
H64 H 0.2978 0.5767 0.7267
H65 H 0.3817 0.5417 0.6894
H66 H 0.2668 0.5771 0.6616
C49 C 0.4959(5) 0.8549(2) 0.9235(2)
H67 H 0.5551 0.8603 0.9553
H68 H 0.5152 0.8834 0.8948
C50 C 0.2160(5) 0.8595(3) 0.9733(2)
C51 C 0.2136(5) 0.9211(3) 0.9508(3)
H69 H 0.1509 0.9522 0.9508
C52 C 0.3191(5) 0.9284(2) 0.9283(2)
C53 C 0.1217(7) 0.8250(4) 1.0005(3)
H70 H 0.1503 0.7831 1.0121
H71 H 0.0506 0.8209 0.9744
H72 H 0.1040 0.8488 1.0324
C54 C 0.3663(6) 0.9824(3) 0.8982(3)
H73 H 0.4437 0.9715 0.8886
H74 H 0.3726 1.0198 0.9217
H75 H 0.3131 0.9912 0.8648
C55 C 0.6886(5) 0.6367(2) 0.9389(2)
H76 H 0.7108 0.6073 0.9115
H77 H 0.7577 0.6621 0.9515
C56 C 0.5568(5) 0.5328(3) 1.0275(2)
C57 C 0.6574(6) 0.5475(3) 1.0644(3)
H78 H 0.6784 0.5308 1.1013
C58 C 0.7218(5) 0.5915(3) 1.0366(3)
C59 C 0.4597(6) 0.4861(3) 1.0371(3)
H79 H 0.4014 0.4845 1.0045
H80 H 0.4221 0.4996 1.0685
H81 H 0.4938 0.4443 1.0442
C60 C 0.8389(6) 0.6222(4) 1.0533(3)
H82 H 0.8570 0.6505 1.0242
H83 H 0.8996 0.5899 1.0596
H84 H 0.8361 0.6462 1.0870
loop_
_geom_bond_atom_site_label_1
_geom_bond_atom_site_label_2
_geom_bond_site_symmetry_1
_geom_bond_site_symmetry_2
N1 N2 1_555 1_555
N2 C14 1_555 1_555
N3 N4 1_555 1_555
N4 C20 1_555 1_555
N5 N6 1_555 1_555
N6 C26 1_555 1_555
C1 C2 1_555 1_555
C2 C3 1_555 1_555
C3 C4 1_555 1_555
C4 C5 1_555 1_555
C5 C6 1_555 1_555
C6 C1 1_555 1_555
C7 H1 1_555 1_555
H2 C7 1_555 1_555
H3 C7 1_555 1_555
C8 C2 1_555 1_555
H4 C8 1_555 1_555
H5 C8 1_555 1_555
C9 H6 1_555 1_555
H7 C9 1_555 1_555
H8 C9 1_555 1_555
C10 C4 1_555 1_555
H9 C10 1_555 1_555
H10 C10 1_555 1_555
C11 H11 1_555 1_555
H12 C11 1_555 1_555
H13 C11 1_555 1_555
C12 C6 1_555 1_555
H14 C12 1_555 1_555
H15 C12 1_555 1_555
C13 N1 1_555 1_555
H16 C13 1_555 1_555
H17 C13 1_555 1_555
C14 C15 1_555 1_555
C15 H18 1_555 1_555
C16 N1 1_555 1_555
C17 C14 1_555 1_555
H19 C17 1_555 1_555
H20 C17 1_555 1_555
H21 C17 1_555 1_555
C18 C16 1_555 1_555
H22 C18 1_555 1_555
H23 C18 1_555 1_555
H24 C18 1_555 1_555
C19 N3 1_555 1_555
H25 C19 1_555 1_555
H26 C19 1_555 1_555
C20 C21 1_555 1_555
C21 H27 1_555 1_555
C22 N3 1_555 1_555
C23 C20 1_555 1_555
H28 C23 1_555 1_555
H29 C23 1_555 1_555
H30 C23 1_555 1_555
C24 C22 1_555 1_555
H31 C24 1_555 1_555
H32 C24 1_555 1_555
H33 C24 1_555 1_555
C25 N5 1_555 1_555
H34 C25 1_555 1_555
H35 C25 1_555 1_555
C26 C27 1_555 1_555
C27 H36 1_555 1_555
C28 N5 1_555 1_555
C29 C26 1_555 1_555
H37 C29 1_555 1_555
H38 C29 1_555 1_555
H39 C29 1_555 1_555
C30 C28 1_555 1_555
H40 C30 1_555 1_555
H41 C30 1_555 1_555
H42 C30 1_555 1_555
N7 N8 1_555 1_555
N8 C44 1_555 1_555
N9 N10 1_555 1_555
N10 C50 1_555 1_555
N11 N12 1_555 1_555
N12 C56 1_555 1_555
C31 C32 1_555 1_555
C32 C33 1_555 1_555
C33 C34 1_555 1_555
C34 C35 1_555 1_555
C35 C36 1_555 1_555
C36 C31 1_555 1_555
C37 H43 1_555 1_555
H44 C37 1_555 1_555
H45 C37 1_555 1_555
C38 C32 1_555 1_555
H46 C38 1_555 1_555
H47 C38 1_555 1_555
C39 H48 1_555 1_555
H49 C39 1_555 1_555
H50 C39 1_555 1_555
C40 C34 1_555 1_555
H51 C40 1_555 1_555
H52 C40 1_555 1_555
C41 H53 1_555 1_555
H54 C41 1_555 1_555
H55 C41 1_555 1_555
C42 C36 1_555 1_555
H56 C42 1_555 1_555
H57 C42 1_555 1_555
C43 N7 1_555 1_555
H58 C43 1_555 1_555
H59 C43 1_555 1_555
C44 C45 1_555 1_555
C45 H60 1_555 1_555
C46 N7 1_555 1_555
C47 C44 1_555 1_555
H61 C47 1_555 1_555
H62 C47 1_555 1_555
H63 C47 1_555 1_555
C48 C46 1_555 1_555
H64 C48 1_555 1_555
H65 C48 1_555 1_555
H66 C48 1_555 1_555
C49 N9 1_555 1_555
H67 C49 1_555 1_555
H68 C49 1_555 1_555
C50 C51 1_555 1_555
C51 H69 1_555 1_555
C52 N9 1_555 1_555
C53 C50 1_555 1_555
H70 C53 1_555 1_555
H71 C53 1_555 1_555
H72 C53 1_555 1_555
C54 C52 1_555 1_555
H73 C54 1_555 1_555
H74 C54 1_555 1_555
H75 C54 1_555 1_555
C55 N11 1_555 1_555
H76 C55 1_555 1_555
H77 C55 1_555 1_555
C56 C57 1_555 1_555
C57 H78 1_555 1_555
C58 N11 1_555 1_555
C59 C56 1_555 1_555
H79 C59 1_555 1_555
H80 C59 1_555 1_555
H81 C59 1_555 1_555
C60 C58 1_555 1_555
H82 C60 1_555 1_555
H83 C60 1_555 1_555
H84 C60 1_555 1_555
C1 C13 1_555 1_555
C3 C19 1_555 1_555
C5 C25 1_555 1_555
C7 C8 1_555 1_555
C9 C10 1_555 1_555
C11 C12 1_555 1_555
C15 C16 1_555 1_555
C21 C22 1_555 1_555
C27 C28 1_555 1_555
C31 C43 1_555 1_555
C33 C49 1_555 1_555
C35 C55 1_555 1_555
C37 C38 1_555 1_555
C39 C40 1_555 1_555
C41 C42 1_555 1_555
C45 C46 1_555 1_555
C51 C52 1_555 1_555
C57 C58 1_555 1_555

#END
