
#######################################################################
#
#                 Cambridge Crystallographic Data Centre
#                                CCDC 
#
#######################################################################
#
# If this CIF has been generated from an entry in the Cambridge 
# Structural Database, then it will include bibliographic, chemical, 
# crystal, experimental, refinement or atomic coordinate data resulting 
# from the CCDC's data processing and validation procedures.
#
#######################################################################

data_CUMJIF
_chemical_formula_moiety         'C18 H27 B1 O2'
_chemical_name_systematic        
2-(3,3-dimethyl-1-phenylbut-1-en-1-yl)-4,4,5,5-tetramethyl-1,3,2-dioxaborolane
_symmetry_cell_setting           monoclinic
_symmetry_space_group_name_H-M   'P 21/c'
_symmetry_Int_Tables_number      14
_space_group_name_Hall           '-P 2ybc'
loop_
_symmetry_equiv_pos_site_id
_symmetry_equiv_pos_as_xyz
1 x,y,z
2 -x,1/2+y,1/2-z
3 -x,-y,-z
4 x,1/2-y,1/2+z
_cell_length_a                   12.3010(16)
_cell_length_b                   6.1240(8)
_cell_length_c                   24.187(3)
_cell_angle_alpha                90
_cell_angle_beta                 94.165(7)
_cell_angle_gamma                90
_cell_volume                     1817.23
_exptl_crystal_colour            colorless
_exptl_crystal_description       BLOCK
_cell_formula_units_Z            4
loop_
_atom_site_label
_atom_site_type_symbol
_atom_site_fract_x
_atom_site_fract_y
_atom_site_fract_z
O1 O 0.16591(9) 0.5993(2) 0.01803(5)
O2 O 0.34167(9) 0.4929(2) 0.03643(5)
B1 B 0.25727(14) 0.6123(3) 0.05326(7)
C1 C 0.26341(12) 0.7485(2) 0.10820(6)
C2 C 0.37333(12) 0.7862(2) 0.13720(6)
C3 C 0.42605(15) 0.6223(3) 0.16868(7)
H1 H 0.3915 0.4884 0.1723
C4 C 0.52837(16) 0.6537(4) 0.19468(8)
H2 H 0.5616 0.5420 0.2158
C5 C 0.58146(16) 0.8492(4) 0.18959(8)
H3 H 0.6504 0.8705 0.2072
C6 C 0.53175(17) 1.0133(4) 0.15815(8)
H4 H 0.5674 1.1458 0.1544
C7 C 0.42864(15) 0.9820(3) 0.13198(7)
H5 H 0.3962 1.0938 0.1106
C8 C 0.16863(13) 0.8191(3) 0.12566(7)
H6 H 0.1085 0.7866 0.1015
C9 C 0.14037(15) 0.9421(3) 0.17733(8)
C10 C 0.2050(3) 0.8617(8) 0.22910(11)
H7 H 0.1911 0.7090 0.2341
H8 H 0.1834 0.9414 0.2607
H9 H 0.2813 0.8838 0.2253
C11 C 0.0220(2) 0.8997(6) 0.18644(13)
H10 H 0.0097 0.7451 0.1884
H11 H -0.0232 0.9601 0.1562
H12 H 0.0042 0.9668 0.2205
C12 C 0.1613(4) 1.1771(5) 0.17183(18)
H13 H 0.1435 1.2509 0.2050
H14 H 0.1172 1.2340 0.1408
H15 H 0.2369 1.1999 0.1661
C13 C 0.31130(13) 0.4140(3) -0.01965(7)
C14 C 0.18393(14) 0.4306(3) -0.02305(7)
C15 C 0.36402(18) 0.5653(4) -0.05892(9)
H16 H 0.3358 0.7103 -0.0551
H17 H 0.3484 0.5157 -0.0963
H18 H 0.4414 0.5664 -0.0503
C16 C 0.3556(2) 0.1868(4) -0.02535(9)
H19 H 0.3216 0.0906 -0.0004
H20 H 0.4329 0.1878 -0.0165
H21 H 0.3405 0.1371 -0.0628
C17 C 0.1275(2) 0.2275(4) -0.00434(11)
H22 H 0.1608 0.1811 0.0308
H23 H 0.1339 0.1137 -0.0312
H24 H 0.0518 0.2587 -0.0007
C18 C 0.1318(2) 0.5058(4) -0.07831(9)
H25 H 0.1683 0.6346 -0.0900
H26 H 0.0563 0.5382 -0.0747
H27 H 0.1377 0.3924 -0.1053
loop_
_geom_bond_atom_site_label_1
_geom_bond_atom_site_label_2
_geom_bond_site_symmetry_1
_geom_bond_site_symmetry_2
O1 B1 1_555 1_555
O2 B1 1_555 1_555
B1 C1 1_555 1_555
C1 C2 1_555 1_555
C2 C3 1_555 1_555
C3 H1 1_555 1_555
C4 C3 1_555 1_555
H2 C4 1_555 1_555
C5 C4 1_555 1_555
H3 C5 1_555 1_555
C6 C5 1_555 1_555
H4 C6 1_555 1_555
C7 C2 1_555 1_555
H5 C7 1_555 1_555
C8 C1 1_555 1_555
H6 C8 1_555 1_555
C9 C8 1_555 1_555
C10 C9 1_555 1_555
H7 C10 1_555 1_555
H8 C10 1_555 1_555
H9 C10 1_555 1_555
C11 C9 1_555 1_555
H10 C11 1_555 1_555
H11 C11 1_555 1_555
H12 C11 1_555 1_555
C12 C9 1_555 1_555
H13 C12 1_555 1_555
H14 C12 1_555 1_555
H15 C12 1_555 1_555
C13 O2 1_555 1_555
C14 O1 1_555 1_555
C15 C13 1_555 1_555
H16 C15 1_555 1_555
H17 C15 1_555 1_555
H18 C15 1_555 1_555
C16 C13 1_555 1_555
H19 C16 1_555 1_555
H20 C16 1_555 1_555
H21 C16 1_555 1_555
C17 C14 1_555 1_555
H22 C17 1_555 1_555
H23 C17 1_555 1_555
H24 C17 1_555 1_555
C18 C14 1_555 1_555
H25 C18 1_555 1_555
H26 C18 1_555 1_555
H27 C18 1_555 1_555
C6 C7 1_555 1_555
C13 C14 1_555 1_555

#END
