
#######################################################################
#
#                 Cambridge Crystallographic Data Centre
#                                CCDC 
#
#######################################################################
#
# If this CIF has been generated from an entry in the Cambridge 
# Structural Database, then it will include bibliographic, chemical, 
# crystal, experimental, refinement or atomic coordinate data resulting 
# from the CCDC's data processing and validation procedures.
#
#######################################################################

data_CUMLEB
_chemical_formula_moiety         'C22 H20 N2 O2'
_chemical_name_systematic        
2-N-Phenylimino-3-phenyl-5-phenoxymethyl-1,3-oxazolidine
_symmetry_cell_setting           orthorhombic
_symmetry_space_group_name_H-M   'P b c a'
_symmetry_Int_Tables_number      61
_space_group_name_Hall           '-P 2ac 2ab'
loop_
_symmetry_equiv_pos_site_id
_symmetry_equiv_pos_as_xyz
1 x,y,z
2 1/2-x,1/2+y,z
3 x,1/2-y,1/2+z
4 1/2-x,-y,1/2+z
5 -x,-y,-z
6 1/2+x,1/2-y,-z
7 -x,1/2+y,1/2-z
8 1/2+x,y,1/2-z
_cell_length_a                   36.535(3)
_cell_length_b                   10.2431(7)
_cell_length_c                   9.7945(3)
_cell_angle_alpha                90
_cell_angle_beta                 90
_cell_angle_gamma                90
_cell_volume                     3665.41
_cell_formula_units_Z            8
loop_
_atom_site_label
_atom_site_type_symbol
_atom_site_fract_x
_atom_site_fract_y
_atom_site_fract_z
O1 O 0.8601(1) 0.1823(2) 0.2078(3)
C1 C 0.8395(1) 0.0859(4) 0.2685(4)
N1 N 0.8203(1) 0.1370(3) 0.3774(3)
C2 C 0.8262(1) 0.2766(4) 0.3841(4)
C3 C 0.8602(1) 0.2956(4) 0.2961(4)
N2 N 0.8385(1) -0.0316(3) 0.2266(4)
C4 C 0.8633(1) -0.0699(4) 0.1220(4)
C5 C 0.9002(1) -0.0777(4) 0.1474(4)
C6 C 0.9236(1) -0.1278(5) 0.0489(5)
C7 C 0.9096(1) -0.1706(5) -0.0740(5)
C8 C 0.8736(1) -0.1620(5) -0.0999(4)
C9 C 0.8495(1) -0.1113(4) -0.0035(4)
C10 C 0.8953(1) 0.3001(4) 0.3741(4)
O2 O 0.8982(1) 0.1781(3) 0.4438(3)
C11 C 0.9298(1) 0.1531(4) 0.5163(4)
C12 C 0.9560(1) 0.2441(5) 0.5467(5)
C13 C 0.9854(1) 0.2041(7) 0.6274(6)
C14 C 0.9887(2) 0.0806(7) 0.6728(5)
C15 C 0.9635(2) -0.0079(6) 0.6382(5)
C16 C 0.9332(1) 0.0255(5) 0.5617(5)
C17 C 0.8030(1) 0.0665(4) 0.4817(4)
C18 C 0.7744(1) 0.1251(5) 0.5510(4)
C19 C 0.7568(1) 0.0584(5) 0.6553(5)
C20 C 0.7683(1) -0.0630(5) 0.6932(5)
C21 C 0.7969(1) -0.1214(5) 0.6264(5)
C22 C 0.8142(1) -0.0574(4) 0.5199(4)
H1 H 0.833(1) 0.304(3) 0.476(3)
H2 H 0.807(1) 0.322(3) 0.349(3)
H3 H 0.857(1) 0.369(3) 0.245(4)
H4 H 0.949(1) -0.136(3) 0.066(3)
H5 H 0.925(1) -0.203(3) -0.125(3)
H6 H 0.863(1) -0.186(3) -0.171(3)
H7 H 0.825(1) -0.104(3) -0.014(3)
H8 H 0.916(1) 0.310(3) 0.321(3)
H9 H 0.895(1) 0.373(3) 0.437(3)
H10 H 0.954(1) 0.323(3) 0.515(3)
H11 H 0.999(1) 0.270(3) 0.641(3)
H12 H 1.007(1) 0.056(3) 0.724(3)
H13 H 0.966(1) -0.098(3) 0.677(3)
H14 H 0.913(1) -0.042(3) 0.546(3)
H15 H 0.767(1) 0.208(3) 0.527(3)
H16 H 0.736(1) 0.099(3) 0.685(3)
H17 H 0.756(1) -0.109(3) 0.754(3)
H18 H 0.806(1) -0.210(3) 0.650(3)
H19 H 0.834(1) -0.091(3) 0.480(3)
loop_
_geom_bond_atom_site_label_1
_geom_bond_atom_site_label_2
_geom_bond_site_symmetry_1
_geom_bond_site_symmetry_2
O1 C1 1_555 1_555
C1 N1 1_555 1_555
N1 C2 1_555 1_555
C2 C3 1_555 1_555
C3 O1 1_555 1_555
N2 C1 1_555 1_555
C4 N2 1_555 1_555
C5 C4 1_555 1_555
C6 C5 1_555 1_555
C7 C6 1_555 1_555
C8 C7 1_555 1_555
C9 C4 1_555 1_555
C10 C3 1_555 1_555
O2 C10 1_555 1_555
C11 O2 1_555 1_555
C12 C11 1_555 1_555
C13 C12 1_555 1_555
C14 C13 1_555 1_555
C15 C14 1_555 1_555
C16 C11 1_555 1_555
C17 N1 1_555 1_555
C18 C17 1_555 1_555
C19 C18 1_555 1_555
C20 C19 1_555 1_555
C21 C20 1_555 1_555
C22 C17 1_555 1_555
H1 C2 1_555 1_555
H2 C2 1_555 1_555
H3 C3 1_555 1_555
H4 C6 1_555 1_555
H5 C7 1_555 1_555
H6 C8 1_555 1_555
H7 C9 1_555 1_555
H8 C10 1_555 1_555
H9 C10 1_555 1_555
H10 C12 1_555 1_555
H11 C13 1_555 1_555
H12 C14 1_555 1_555
H13 C15 1_555 1_555
H14 C16 1_555 1_555
H15 C18 1_555 1_555
H16 C19 1_555 1_555
H17 C20 1_555 1_555
H18 C21 1_555 1_555
H19 C22 1_555 1_555
C8 C9 1_555 1_555
C15 C16 1_555 1_555
C21 C22 1_555 1_555

#END
