
#######################################################################
#
#                 Cambridge Crystallographic Data Centre
#                                CCDC 
#
#######################################################################
#
# If this CIF has been generated from an entry in the Cambridge 
# Structural Database, then it will include bibliographic, chemical, 
# crystal, experimental, refinement or atomic coordinate data resulting 
# from the CCDC's data processing and validation procedures.
#
#######################################################################

data_CUMVOX
_chemical_formula_moiety         'C18 H13 F1 O3 S1'
_chemical_name_systematic        
2-(4-fluorophenyl)-3-(phenylsulfonyl)-5-vinylfuran
_symmetry_cell_setting           monoclinic
_symmetry_space_group_name_H-M   'P 21/n'
_symmetry_Int_Tables_number      14
_space_group_name_Hall           '-P 2yn'
loop_
_symmetry_equiv_pos_site_id
_symmetry_equiv_pos_as_xyz
1 x,y,z
2 1/2-x,1/2+y,1/2-z
3 -x,-y,-z
4 1/2+x,1/2-y,1/2+z
_cell_length_a                   8.2554(4)
_cell_length_b                   16.7563(10)
_cell_length_c                   11.6782(7)
_cell_angle_alpha                90
_cell_angle_beta                 107.395(2)
_cell_angle_gamma                90
_cell_volume                     1541.56
_exptl_crystal_colour            colorless
_cell_formula_units_Z            4
loop_
_atom_site_label
_atom_site_type_symbol
_atom_site_fract_x
_atom_site_fract_y
_atom_site_fract_z
S1 S 0.66267(6) 0.22436(3) 0.09992(4)
F1 F 1.1958(2) -0.08905(10) 0.42529(16)
O1 O 0.68450(18) 0.01858(9) -0.05812(12)
O2 O 0.83272(18) 0.23790(9) 0.17481(14)
O3 O 0.5814(2) 0.28525(9) 0.01591(14)
C1 C 0.3223(4) 0.18762(15) 0.3320(2)
H1 H 0.2507 0.1813 0.3796
C2 C 0.4937(3) 0.19225(15) 0.3850(2)
H2 H 0.5378 0.1888 0.4680
C3 C 0.6016(3) 0.20195(13) 0.31593(19)
H3 H 0.7183 0.2053 0.3515
C4 C 0.5324(2) 0.20655(11) 0.19248(17)
C5 C 0.6537(2) 0.13781(12) 0.01507(17)
C6 C 0.7348(2) 0.06522(12) 0.04182(17)
C7 C 0.8573(2) 0.02649(12) 0.14346(18)
C8 C 0.9110(3) 0.06066(15) 0.25728(19)
H4 H 0.8688 0.1103 0.2699
C9 C 1.0256(3) 0.02217(16) 0.3518(2)
H5 H 1.0617 0.0456 0.4274
C10 C 1.0849(3) -0.05087(15) 0.3320(2)
C11 C 0.5733(3) 0.06085(14) -0.14737(18)
C12 C 0.5134(3) 0.01982(17) -0.2631(2)
H6 H 0.5507 -0.0322 -0.2668
C13 C 0.4157(4) 0.0491(2) -0.3581(3)
H7 H 0.3755 0.1010 -0.3583
H8 H 0.3837 0.0189 -0.4281
C14 C 0.5500(3) 0.13385(13) -0.10690(18)
H9 H 0.4799 0.1739 -0.1500
C15 C 1.0392(3) -0.08617(15) 0.2229(3)
H10 H 1.0841 -0.1355 0.2118
C16 C 0.9244(3) -0.04756(14) 0.1277(2)
H11 H 0.8917 -0.0714 0.0523
C17 C 0.3591(3) 0.20138(14) 0.1384(2)
H12 H 0.3144 0.2040 0.0553
C18 C 0.2540(3) 0.19228(16) 0.2090(3)
H13 H 0.1372 0.1893 0.1740
loop_
_geom_bond_atom_site_label_1
_geom_bond_atom_site_label_2
_geom_bond_site_symmetry_1
_geom_bond_site_symmetry_2
S1 O2 1_555 1_555
F1 C10 1_555 1_555
O1 C6 1_555 1_555
O3 S1 1_555 1_555
C1 H1 1_555 1_555
C2 C1 1_555 1_555
H2 C2 1_555 1_555
C3 C2 1_555 1_555
H3 C3 1_555 1_555
C4 S1 1_555 1_555
C5 S1 1_555 1_555
C6 C5 1_555 1_555
C7 C6 1_555 1_555
C8 C7 1_555 1_555
H4 C8 1_555 1_555
C9 C8 1_555 1_555
H5 C9 1_555 1_555
C10 C9 1_555 1_555
C11 O1 1_555 1_555
C12 C11 1_555 1_555
H6 C12 1_555 1_555
C13 C12 1_555 1_555
H7 C13 1_555 1_555
H8 C13 1_555 1_555
C14 C5 1_555 1_555
H9 C14 1_555 1_555
C15 C10 1_555 1_555
H10 C15 1_555 1_555
C16 C7 1_555 1_555
H11 C16 1_555 1_555
C17 C4 1_555 1_555
H12 C17 1_555 1_555
C18 C1 1_555 1_555
H13 C18 1_555 1_555
C3 C4 1_555 1_555
C11 C14 1_555 1_555
C15 C16 1_555 1_555
C17 C18 1_555 1_555

#END
