
#######################################################################
#
#                 Cambridge Crystallographic Data Centre
#                                CCDC 
#
#######################################################################
#
# If this CIF has been generated from an entry in the Cambridge 
# Structural Database, then it will include bibliographic, chemical, 
# crystal, experimental, refinement or atomic coordinate data resulting 
# from the CCDC's data processing and validation procedures.
#
#######################################################################

data_CUNHUP
_chemical_formula_moiety         'C42 H30 N4,0.5(C6 H6)'
_chemical_name_systematic        
'3-(9-Anthryl)-1-(4-((5-(9-anthryl)-1H-pyrazol-1-yl)methyl)benzyl)-1H-pyrazole benzene solvate'
_symmetry_cell_setting           triclinic
_symmetry_space_group_name_H-M   'P -1'
_symmetry_Int_Tables_number      2
_space_group_name_Hall           '-P 1'
loop_
_symmetry_equiv_pos_site_id
_symmetry_equiv_pos_as_xyz
1 x,y,z
2 -x,-y,-z
_cell_length_a                   8.6557(17)
_cell_length_b                   11.868(2)
_cell_length_c                   16.994(3)
_cell_angle_alpha                108.11(3)
_cell_angle_beta                 96.30(3)
_cell_angle_gamma                92.46(3)
_cell_volume                     1643.73
_exptl_crystal_colour            colorless
_exptl_crystal_description       block
_cell_formula_units_Z            2
loop_
_atom_site_label
_atom_site_type_symbol
_atom_site_fract_x
_atom_site_fract_y
_atom_site_fract_z
C1 C 0.6891(4) 0.9660(3) 0.1533(2)
C2 C 0.5810(4) 0.9848(3) 0.2104(3)
C3 C 0.5722(5) 0.9221(4) 0.2674(3)
H1 H 0.6413 0.8643 0.2676
C4 C 0.4663(5) 0.9428(4) 0.3224(3)
H2 H 0.4630 0.8995 0.3594
C5 C 0.3613(6) 1.0305(6) 0.3232(4)
H3 H 0.2889 1.0453 0.3611
C6 C 0.3651(6) 1.0919(5) 0.2703(4)
H4 H 0.2954 1.1499 0.2721
C7 C 0.4720(4) 1.0720(3) 0.2110(3)
C8 C 0.4758(5) 1.1344(3) 0.1552(4)
H5 H 0.4054 1.1918 0.1565
C9 C 0.5794(5) 1.1156(3) 0.0975(3)
C10 C 0.5822(6) 1.1783(4) 0.0387(4)
H6 H 0.5110 1.2348 0.0387
C11 C 0.6832(7) 1.1586(4) -0.0159(4)
H7 H 0.6839 1.2024 -0.0528
C12 C 0.7897(5) 1.0716(4) -0.0188(3)
H8 H 0.8587 1.0569 -0.0584
C13 C 0.7924(4) 1.0093(3) 0.0355(3)
H9 H 0.8640 0.9524 0.0330
C14 C 0.6889(4) 1.0289(3) 0.0962(3)
C15 C 0.8140(4) 0.8850(3) 0.1581(2)
C16 C 0.9701(4) 0.9157(3) 0.1883(2)
H10 H 1.0210 0.9917 0.2067
C17 C 1.0335(4) 0.8130(3) 0.1853(2)
H11 H 1.1367 0.8044 0.2027
C18 C 0.9241(5) 0.6034(3) 0.1484(3)
H12 H 1.0318 0.5851 0.1558
H13 H 0.8773 0.5538 0.0933
C19 C 0.8403(5) 0.5738(3) 0.2121(3)
C20 C 0.8472(5) 0.6519(3) 0.2919(3)
H14 H 0.9078 0.7238 0.3070
C21 C 0.7663(5) 0.6250(3) 0.3487(3)
H15 H 0.7736 0.6786 0.4024
C22 C 0.6738(5) 0.5201(3) 0.3287(3)
C23 C 0.6707(5) 0.4425(3) 0.2500(3)
H16 H 0.6120 0.3698 0.2353
C24 C 0.7505(5) 0.4680(3) 0.1925(3)
H17 H 0.7444 0.4135 0.1391
C25 C 0.5771(5) 0.4962(3) 0.3901(3)
H18 H 0.5177 0.4198 0.3646
H19 H 0.6456 0.4913 0.4379
C26 C 0.4018(7) 0.7497(5) 0.4919(3)
H20 H 0.4014 0.8220 0.5339
C27 C 0.2786(6) 0.7029(4) 0.4287(3)
H21 H 0.1851 0.7358 0.4202
C28 C 0.3264(5) 0.5977(3) 0.3821(2)
C29 C 0.2491(4) 0.5053(3) 0.3073(3)
C30 C 0.1441(5) 0.4195(3) 0.3158(3)
C31 C 0.1017(5) 0.4171(4) 0.3932(3)
H22 H 0.1508 0.4732 0.4419
C32 C -0.0073(6) 0.3365(4) 0.3991(4)
H23 H -0.0341 0.3382 0.4509
C33 C -0.0801(8) 0.2502(5) 0.3259(5)
H24 H -0.1550 0.1942 0.3298
C34 C -0.0445(7) 0.2470(4) 0.2530(5)
H25 H -0.0958 0.1891 0.2058
C35 C 0.0703(5) 0.3291(3) 0.2428(3)
C36 C 0.1104(6) 0.3286(4) 0.1662(3)
H26 H 0.0658 0.2677 0.1189
C37 C 0.2120(5) 0.4130(4) 0.1565(3)
C38 C 0.2493(7) 0.4140(6) 0.0768(4)
H27 H 0.2074 0.3528 0.0290
C39 C 0.3427(7) 0.5009(7) 0.0700(4)
H28 H 0.3655 0.4994 0.0174
C40 C 0.4083(5) 0.5955(5) 0.1406(3)
H29 H 0.4717 0.6568 0.1346
C41 C 0.3781(5) 0.5964(4) 0.2170(3)
H30 H 0.4224 0.6589 0.2635
C42 C 0.2815(4) 0.5056(3) 0.2287(3)
N1 N 0.9206(3) 0.7266(2) 0.15287(18)
N2 N 0.7812(3) 0.7683(2) 0.13652(17)
N3 N 0.5184(5) 0.6823(4) 0.4867(2)
N4 N 0.4696(4) 0.5876(3) 0.41885(19)
C43 C -0.0811(12) 0.0198(7) 0.4352(4)
H31 H -0.1345 0.0322 0.3884
C44 C 0.0590(12) 0.0768(6) 0.4687(6)
H32 H 0.0993 0.1341 0.4479
C45 C 0.1409(7) 0.0525(5) 0.5313(6)
H33 H 0.2416 0.0877 0.5510
C43A C 0.0811(12) -0.0198(7) 0.5648(4)
H31A H 0.1345 -0.0322 0.6116
C44A C -0.0590(12) -0.0768(6) 0.5313(6)
H32A H -0.0993 -0.1341 0.5521
C45A C -0.1409(7) -0.0525(5) 0.4687(6)
H33A H -0.2416 -0.0877 0.4490
loop_
_geom_bond_atom_site_label_1
_geom_bond_atom_site_label_2
_geom_bond_site_symmetry_1
_geom_bond_site_symmetry_2
C1 C2 1_555 1_555
C2 C3 1_555 1_555
C3 H1 1_555 1_555
C4 C3 1_555 1_555
H2 C4 1_555 1_555
C5 C4 1_555 1_555
H3 C5 1_555 1_555
C6 C5 1_555 1_555
H4 C6 1_555 1_555
C7 C2 1_555 1_555
C8 C7 1_555 1_555
H5 C8 1_555 1_555
C9 C8 1_555 1_555
C10 C9 1_555 1_555
H6 C10 1_555 1_555
C11 C10 1_555 1_555
H7 C11 1_555 1_555
C12 C11 1_555 1_555
H8 C12 1_555 1_555
C13 C12 1_555 1_555
H9 C13 1_555 1_555
C14 C1 1_555 1_555
C15 C1 1_555 1_555
C16 C15 1_555 1_555
H10 C16 1_555 1_555
C17 C16 1_555 1_555
H11 C17 1_555 1_555
C18 H12 1_555 1_555
H13 C18 1_555 1_555
C19 C18 1_555 1_555
C20 C19 1_555 1_555
H14 C20 1_555 1_555
C21 C20 1_555 1_555
H15 C21 1_555 1_555
C22 C21 1_555 1_555
C23 C22 1_555 1_555
H16 C23 1_555 1_555
C24 C19 1_555 1_555
H17 C24 1_555 1_555
C25 C22 1_555 1_555
H18 C25 1_555 1_555
H19 C25 1_555 1_555
C26 H20 1_555 1_555
C27 C26 1_555 1_555
H21 C27 1_555 1_555
C28 C27 1_555 1_555
C29 C28 1_555 1_555
C30 C29 1_555 1_555
C31 C30 1_555 1_555
H22 C31 1_555 1_555
C32 C31 1_555 1_555
H23 C32 1_555 1_555
C33 C32 1_555 1_555
H24 C33 1_555 1_555
C34 C33 1_555 1_555
H25 C34 1_555 1_555
C35 C30 1_555 1_555
C36 C35 1_555 1_555
H26 C36 1_555 1_555
C37 C36 1_555 1_555
C38 C37 1_555 1_555
H27 C38 1_555 1_555
C39 C38 1_555 1_555
H28 C39 1_555 1_555
C40 C39 1_555 1_555
H29 C40 1_555 1_555
C41 C40 1_555 1_555
H30 C41 1_555 1_555
C42 C29 1_555 1_555
C43 H31 1_555 1_555
C44 C43 1_555 1_555
H32 C44 1_555 1_555
C45 C44 1_555 1_555
H33 C45 1_555 1_555
N1 C17 1_555 1_555
N2 C15 1_555 1_555
N3 C26 1_555 1_555
N4 C25 1_555 1_555
C43A C45 1_555 1_555
H31A C43A 1_555 1_555
C44A C43A 1_555 1_555
H32A C44A 1_555 1_555
C45A C43 1_555 1_555
H33A C45A 1_555 1_555
C6 C7 1_555 1_555
C9 C14 1_555 1_555
C13 C14 1_555 1_555
C18 N1 1_555 1_555
C23 C24 1_555 1_555
C28 N4 1_555 1_555
C34 C35 1_555 1_555
C37 C42 1_555 1_555
C41 C42 1_555 1_555
N1 N2 1_555 1_555
N3 N4 1_555 1_555
C44A C45A 1_555 1_555

#END
