
#######################################################################
#
#                 Cambridge Crystallographic Data Centre
#                                CCDC 
#
#######################################################################
#
# If this CIF has been generated from an entry in the Cambridge 
# Structural Database, then it will include bibliographic, chemical, 
# crystal, experimental, refinement or atomic coordinate data resulting 
# from the CCDC's data processing and validation procedures.
#
#######################################################################

data_CUNHID
_chemical_formula_moiety         'C42 H30 N4'
_chemical_name_systematic        
1,1'-(1,4-Phenylenebis(methylene))bis(3-(9-anthryl)-1H-pyrazole)
_symmetry_cell_setting           monoclinic
_symmetry_space_group_name_H-M   'C 2/c'
_symmetry_Int_Tables_number      15
_space_group_name_Hall           '-C 2yn'
loop_
_symmetry_equiv_pos_site_id
_symmetry_equiv_pos_as_xyz
1 x,y,z
2 -x,y,1/2-z
3 1/2+x,1/2+y,z
4 1/2-x,1/2+y,1/2-z
5 -x,-y,-z
6 x,-y,1/2+z
7 1/2-x,1/2-y,-z
8 1/2+x,1/2-y,1/2+z
_cell_length_a                   12.711(3)
_cell_length_b                   13.510(3)
_cell_length_c                   18.494(4)
_cell_angle_alpha                90
_cell_angle_beta                 104.54(3)
_cell_angle_gamma                90
_cell_volume                     3074.18
_exptl_crystal_colour            yellow
_exptl_crystal_description       block
_cell_formula_units_Z            4
loop_
_atom_site_label
_atom_site_type_symbol
_atom_site_fract_x
_atom_site_fract_y
_atom_site_fract_z
C1 C 0.16753(13) 0.26789(12) 0.60066(8)
C2 C 0.26014(12) 0.20918(12) 0.60267(8)
C3 C 0.36377(13) 0.22878(13) 0.65123(9)
H1 H 0.3723 0.2826 0.6835
C4 C 0.45044(15) 0.17019(16) 0.65125(10)
H2 H 0.5173 0.1845 0.6838
C5 C 0.44127(17) 0.08831(15) 0.60317(11)
H3 H 0.5016 0.0491 0.6038
C6 C 0.34430(17) 0.06715(14) 0.55615(10)
H4 H 0.3386 0.0128 0.5245
C7 C 0.25074(14) 0.12580(12) 0.55370(9)
C8 C 0.15077(15) 0.10483(13) 0.50495(9)
H5 H 0.1449 0.0502 0.4736
C9 C 0.05991(14) 0.16243(12) 0.50157(9)
C10 C -0.04166(16) 0.14186(16) 0.45049(10)
H6 H -0.0480 0.0870 0.4193
C11 C -0.12866(16) 0.20034(17) 0.44641(12)
H7 H -0.1941 0.1862 0.4121
C12 C -0.12097(15) 0.28273(17) 0.49381(12)
H8 H -0.1815 0.3227 0.4907
C13 C -0.02695(14) 0.30436(14) 0.54370(10)
H9 H -0.0241 0.3590 0.5747
C14 C 0.06790(13) 0.24608(12) 0.55030(9)
C15 C 0.17535(13) 0.35190(12) 0.65363(9)
C16 C 0.13966(17) 0.35571(16) 0.71872(11)
H10 H 0.1044 0.3062 0.7385
C17 C 0.16750(17) 0.44737(15) 0.74714(11)
H11 H 0.1553 0.4728 0.7910
C18 C 0.26432(15) 0.59203(13) 0.70785(11)
H12 H 0.2395 0.6291 0.7453
H13 H 0.2400 0.6267 0.6607
C19 C 0.38656(14) 0.58863(11) 0.72931(9)
C20 C 0.44268(15) 0.58743(13) 0.80362(10)
H14 H 0.4045 0.5858 0.8404
C21 C 0.44511(15) 0.58856(14) 0.67613(9)
H15 H 0.4086 0.5893 0.6258
N1 N 0.21540(11) 0.49413(11) 0.70077(7)
N2 N 0.22165(12) 0.43663(11) 0.64212(7)
C1A C 0.83247(13) 0.26789(12) 0.89934(8)
C2A C 0.73986(12) 0.20918(12) 0.89733(8)
C3A C 0.63623(13) 0.22878(13) 0.84877(9)
H1A H 0.6277 0.2826 0.8165
C4A C 0.54956(15) 0.17019(16) 0.84875(10)
H2A H 0.4827 0.1845 0.8162
C5A C 0.55873(17) 0.08831(15) 0.89683(11)
H3A H 0.4984 0.0491 0.8962
C6A C 0.65570(17) 0.06715(14) 0.94385(10)
H4A H 0.6614 0.0128 0.9755
C7A C 0.74926(14) 0.12580(12) 0.94630(9)
C8A C 0.84923(15) 0.10483(13) 0.99505(9)
H5A H 0.8551 0.0502 1.0264
C9A C 0.94009(14) 0.16243(12) 0.99843(9)
C10A C 1.04166(16) 0.14186(16) 1.04951(10)
H6A H 1.0480 0.0870 1.0807
C11A C 1.12866(16) 0.20034(17) 1.05359(12)
H7A H 1.1941 0.1862 1.0879
C12A C 1.12097(15) 0.28273(17) 1.00619(12)
H8A H 1.1815 0.3227 1.0093
C13A C 1.02695(14) 0.30436(14) 0.95630(10)
H9A H 1.0241 0.3590 0.9253
C14A C 0.93210(13) 0.24608(12) 0.94970(9)
C15A C 0.82465(13) 0.35190(12) 0.84637(9)
C16A C 0.86034(17) 0.35571(16) 0.78128(11)
H10A H 0.8956 0.3062 0.7615
C17A C 0.83250(17) 0.44737(15) 0.75286(11)
H11A H 0.8447 0.4728 0.7090
C18A C 0.73568(15) 0.59203(13) 0.79215(11)
H12A H 0.7605 0.6291 0.7547
H13A H 0.7600 0.6267 0.8393
C19A C 0.61344(14) 0.58863(11) 0.77069(9)
C20A C 0.55732(15) 0.58743(13) 0.69638(10)
H14A H 0.5955 0.5858 0.6596
C21A C 0.55489(15) 0.58856(14) 0.82387(9)
H15A H 0.5914 0.5893 0.8742
N1A N 0.78460(11) 0.49413(11) 0.79923(7)
N2A N 0.77835(12) 0.43663(11) 0.85788(7)
loop_
_geom_bond_atom_site_label_1
_geom_bond_atom_site_label_2
_geom_bond_site_symmetry_1
_geom_bond_site_symmetry_2
C1 C2 1_555 1_555
C2 C3 1_555 1_555
C3 H1 1_555 1_555
C4 C3 1_555 1_555
H2 C4 1_555 1_555
C5 C4 1_555 1_555
H3 C5 1_555 1_555
C6 C5 1_555 1_555
H4 C6 1_555 1_555
C7 C2 1_555 1_555
C8 C7 1_555 1_555
H5 C8 1_555 1_555
C9 C8 1_555 1_555
C10 C9 1_555 1_555
H6 C10 1_555 1_555
C11 C10 1_555 1_555
H7 C11 1_555 1_555
C12 C11 1_555 1_555
H8 C12 1_555 1_555
C13 C12 1_555 1_555
H9 C13 1_555 1_555
C14 C1 1_555 1_555
C15 C1 1_555 1_555
C16 C15 1_555 1_555
H10 C16 1_555 1_555
C17 C16 1_555 1_555
H11 C17 1_555 1_555
C18 H12 1_555 1_555
H13 C18 1_555 1_555
C19 C18 1_555 1_555
C20 C19 1_555 1_555
H14 C20 1_555 1_555
C21 C19 1_555 1_555
H15 C21 1_555 1_555
N1 C17 1_555 1_555
N2 C15 1_555 1_555
C1A C2A 1_555 1_555
C2A C3A 1_555 1_555
C3A H1A 1_555 1_555
C4A C3A 1_555 1_555
H2A C4A 1_555 1_555
C5A C4A 1_555 1_555
H3A C5A 1_555 1_555
C6A C5A 1_555 1_555
H4A C6A 1_555 1_555
C7A C2A 1_555 1_555
C8A C7A 1_555 1_555
H5A C8A 1_555 1_555
C9A C8A 1_555 1_555
C10A C9A 1_555 1_555
H6A C10A 1_555 1_555
C11A C10A 1_555 1_555
H7A C11A 1_555 1_555
C12A C11A 1_555 1_555
H8A C12A 1_555 1_555
C13A C12A 1_555 1_555
H9A C13A 1_555 1_555
C14A C1A 1_555 1_555
C15A C1A 1_555 1_555
C16A C15A 1_555 1_555
H10A C16A 1_555 1_555
C17A C16A 1_555 1_555
H11A C17A 1_555 1_555
C18A H12A 1_555 1_555
H13A C18A 1_555 1_555
C19A C18A 1_555 1_555
C20A C21 1_555 1_555
H14A C20A 1_555 1_555
C21A C20 1_555 1_555
H15A C21A 1_555 1_555
N1A C17A 1_555 1_555
N2A C15A 1_555 1_555
C6 C7 1_555 1_555
C9 C14 1_555 1_555
C13 C14 1_555 1_555
C18 N1 1_555 1_555
N1 N2 1_555 1_555
C6A C7A 1_555 1_555
C9A C14A 1_555 1_555
C13A C14A 1_555 1_555
C18A N1A 1_555 1_555
C19A C20A 1_555 1_555
C19A C21A 1_555 1_555
N1A N2A 1_555 1_555

#END
