
#######################################################################
#
#                 Cambridge Crystallographic Data Centre
#                                CCDC 
#
#######################################################################
#
# If this CIF has been generated from an entry in the Cambridge 
# Structural Database, then it will include bibliographic, chemical, 
# crystal, experimental, refinement or atomic coordinate data resulting 
# from the CCDC's data processing and validation procedures.
#
#######################################################################

data_CUNJAX
_chemical_formula_moiety         'C42 H30 N4'
_chemical_name_systematic        
3-(9-Anthryl)-1-(4-((5-(9-anthryl)-1H-pyrazol-1-yl)methyl)benzyl)-1H-pyrazole
_symmetry_cell_setting           triclinic
_symmetry_space_group_name_H-M   'P -1'
_symmetry_Int_Tables_number      2
_space_group_name_Hall           '-P 1'
loop_
_symmetry_equiv_pos_site_id
_symmetry_equiv_pos_as_xyz
1 x,y,z
2 -x,-y,-z
_cell_length_a                   8.5299(17)
_cell_length_b                   12.081(2)
_cell_length_c                   17.033(3)
_cell_angle_alpha                107.44(3)
_cell_angle_beta                 95.75(3)
_cell_angle_gamma                92.30(3)
_cell_volume                     1661.58
_exptl_crystal_colour            colorless
_exptl_crystal_description       block
_cell_formula_units_Z            2
loop_
_atom_site_label
_atom_site_type_symbol
_atom_site_fract_x
_atom_site_fract_y
_atom_site_fract_z
C1 C 0.8071(2) 0.03733(17) 0.34230(13)
C2 C 0.8118(2) -0.02500(17) 0.39960(14)
C3 C 0.6814(2) 0.11837(18) 0.34010(12)
C4 C 1.2444(2) 0.50751(18) 0.19428(13)
C5 C 0.9147(2) 0.01873(19) 0.28324(14)
C6 C 1.1658(2) 0.4193(2) 0.11991(13)
C7 C 1.3513(2) 0.59389(19) 0.18573(15)
C8 C 1.2145(2) 0.5037(2) 0.27254(13)
C9 C 1.0249(2) -0.0689(2) 0.28045(16)
C10 C 1.4248(3) 0.68147(19) 0.25884(18)
C11 C 0.9232(3) -0.11184(18) 0.39608(17)
C12 C 0.7092(2) -0.0066(2) 0.46309(15)
H1 H 0.6364 0.0496 0.4673
C13 C 0.7353(3) 0.5353(2) 0.31372(16)
H2 H 0.7408 0.5868 0.3671
C14 C 0.8136(2) 0.4906(2) 0.17665(15)
C15 C 1.2840(3) 0.5938(2) 0.34460(14)
C16 C 0.6475(2) 0.43156(18) 0.29389(13)
C17 C 0.4565(2) 0.1906(2) 0.31691(15)
H3 H 0.3515 0.2003 0.3014
C18 C 1.1183(2) 0.4118(3) 0.28415(15)
H4 H 1.0742 0.3515 0.2381
C19 C 1.3871(3) 0.6791(2) 0.33496(18)
H5 H 1.4326 0.7373 0.3820
C20 C 1.0258(3) -0.1312(2) 0.33640(19)
H6 H 1.0975 -0.1878 0.3338
C21 C 0.5638(3) 0.3974(2) 0.35771(15)
H7 H 0.6116 0.4432 0.4126
H8 H 0.4541 0.4151 0.3520
C22 C 0.5207(2) 0.0878(2) 0.30992(15)
H9 H 0.4699 0.0135 0.2897
C23 C 0.6416(3) 0.3573(2) 0.21336(15)
H10 H 0.5820 0.2865 0.1983
C24 C 1.3922(3) 0.5989(3) 0.10815(18)
H11 H 1.3439 0.5444 0.0599
C25 C 0.8155(3) 0.5646(2) 0.25605(17)
H12 H 0.8728 0.6364 0.2710
C26 C 0.9257(4) -0.1744(2) 0.4539(2)
H13 H 0.9990 -0.2297 0.4524
C27 C 1.2483(4) 0.5897(4) 0.42395(17)
H14 H 1.2900 0.6487 0.4714
C28 C 0.7154(3) -0.0690(3) 0.51728(18)
H15 H 0.6484 -0.0550 0.5585
C29 C 0.9111(3) 0.5193(2) 0.11586(16)
H16 H 0.8416 0.5275 0.0696
H17 H 0.9716 0.5932 0.1424
C30 C 0.9180(3) 0.0809(2) 0.22509(16)
H18 H 0.8470 0.1376 0.2258
C31 C 1.5368(3) 0.7649(2) 0.2498(3)
H19 H 1.5872 0.8209 0.2967
C32 C 1.1307(3) -0.0882(3) 0.2183(2)
H20 H 1.2025 -0.1449 0.2152
C33 C 0.7218(3) 0.3866(2) 0.15577(15)
H21 H 0.7145 0.3359 0.1021
C34 C 0.8247(4) -0.1559(3) 0.5109(2)
H22 H 0.8261 -0.2005 0.5469
C35 C 1.0895(3) 0.4102(3) 0.36059(18)
H23 H 1.0269 0.3489 0.3664
C36 C 1.1536(4) 0.5001(5) 0.4308(2)
H24 H 1.1314 0.4989 0.4829
C37 C 1.2139(3) 0.3169(2) 0.07161(16)
H25 H 1.3098 0.2850 0.0786
C38 C 1.4989(4) 0.6804(3) 0.1026(2)
H26 H 1.5252 0.6814 0.0511
C39 C 1.5711(4) 0.7647(3) 0.1759(3)
H27 H 1.6443 0.8213 0.1719
C40 C 1.1293(4) -0.0279(4) 0.1655(2)
H28 H 1.1995 -0.0432 0.1258
C41 C 1.0230(3) 0.0598(3) 0.16793(18)
H29 H 1.0248 0.1026 0.1308
C42 C 1.0887(4) 0.2706(3) 0.00974(17)
H30 H 1.0889 0.2003 -0.0321
N1 N 1.0190(2) 0.42963(18) 0.08500(11)
N2 N 0.9699(3) 0.3382(2) 0.01748(13)
N3 N 0.71163(18) 0.23285(15) 0.36378(10)
N4 N 0.57047(19) 0.27538(16) 0.34994(11)
loop_
_geom_bond_atom_site_label_1
_geom_bond_atom_site_label_2
_geom_bond_site_symmetry_1
_geom_bond_site_symmetry_2
C1 C2 1_555 1_555
C2 C11 1_555 1_555
C3 C1 1_555 1_555
C4 C6 1_555 1_555
C5 C1 1_555 1_555
C6 C37 1_555 1_555
C7 C4 1_555 1_555
C8 C4 1_555 1_555
C9 C5 1_555 1_555
C10 C7 1_555 1_555
C11 C20 1_555 1_555
C12 C2 1_555 1_555
H1 C12 1_555 1_555
C13 H2 1_555 1_555
C14 C25 1_555 1_555
C15 C8 1_555 1_555
C16 C13 1_555 1_555
C17 H3 1_555 1_555
C18 C8 1_555 1_555
H4 C18 1_555 1_555
C19 C10 1_555 1_555
H5 C19 1_555 1_555
C20 C9 1_555 1_555
H6 C20 1_555 1_555
C21 C16 1_555 1_555
H7 C21 1_555 1_555
H8 C21 1_555 1_555
C22 C3 1_555 1_555
H9 C22 1_555 1_555
C23 C16 1_555 1_555
H10 C23 1_555 1_555
C24 C7 1_555 1_555
H11 C24 1_555 1_555
C25 C13 1_555 1_555
H12 C25 1_555 1_555
C26 C11 1_555 1_555
H13 C26 1_555 1_555
C27 C15 1_555 1_555
H14 C27 1_555 1_555
C28 C12 1_555 1_555
H15 C28 1_555 1_555
C29 C14 1_555 1_555
H16 C29 1_555 1_555
H17 C29 1_555 1_555
C30 C5 1_555 1_555
H18 C30 1_555 1_555
C31 C10 1_555 1_555
H19 C31 1_555 1_555
C32 C9 1_555 1_555
H20 C32 1_555 1_555
C33 C14 1_555 1_555
H21 C33 1_555 1_555
C34 C26 1_555 1_555
H22 C34 1_555 1_555
C35 C18 1_555 1_555
H23 C35 1_555 1_555
C36 C27 1_555 1_555
H24 C36 1_555 1_555
C37 H25 1_555 1_555
C38 C24 1_555 1_555
H26 C38 1_555 1_555
C39 C31 1_555 1_555
H27 C39 1_555 1_555
C40 C32 1_555 1_555
H28 C40 1_555 1_555
C41 C30 1_555 1_555
H29 C41 1_555 1_555
C42 C37 1_555 1_555
H30 C42 1_555 1_555
N1 C6 1_555 1_555
N2 C42 1_555 1_555
N3 C3 1_555 1_555
N4 C17 1_555 1_555
C15 C19 1_555 1_555
C17 C22 1_555 1_555
C21 N4 1_555 1_555
C23 C33 1_555 1_555
C28 C34 1_555 1_555
C29 N1 1_555 1_555
C35 C36 1_555 1_555
C38 C39 1_555 1_555
C40 C41 1_555 1_555
N1 N2 1_555 1_555
N3 N4 1_555 1_555

#END
