
#######################################################################
#
#                 Cambridge Crystallographic Data Centre
#                                CCDC 
#
#######################################################################
#
# If this CIF has been generated from an entry in the Cambridge 
# Structural Database, then it will include bibliographic, chemical, 
# crystal, experimental, refinement or atomic coordinate data resulting 
# from the CCDC's data processing and validation procedures.
#
#######################################################################

data_CUNKON
_chemical_formula_moiety         'C30 H28 Br1 F1 N2 O4'
_chemical_name_systematic        
't-butyl (1-benzyl-6-bromo-3-(2-fluoro-1-oxo-1,2,3,4-tetrahydronaphthalen-2-yl)-2-oxo-2,3-dihydro-1H-indol-3-yl)carbamate'
_symmetry_cell_setting           monoclinic
_symmetry_space_group_name_H-M   'P 21'
_symmetry_Int_Tables_number      4
_space_group_name_Hall           'P 2yb'
loop_
_symmetry_equiv_pos_site_id
_symmetry_equiv_pos_as_xyz
1 x,y,z
2 -x,1/2+y,-z
_cell_length_a                   14.4818(7)
_cell_length_b                   8.7184(4)
_cell_length_c                   23.3607(11)
_cell_angle_alpha                90
_cell_angle_beta                 107.755(5)
_cell_angle_gamma                90
_cell_volume                     2808.99
_exptl_crystal_colour            'light yellow'
_cell_formula_units_Z            4
loop_
_atom_site_label
_atom_site_type_symbol
_atom_site_fract_x
_atom_site_fract_y
_atom_site_fract_z
Br1 Br -0.19306(9) -0.36467(17) -0.45747(5)
C1 C -0.0560(7) -0.3624(14) -0.8070(4)
N1 N -0.0394(6) -0.1687(10) -0.6239(4)
O1 O 0.0505(5) -0.1629(9) -0.6897(3)
C2 C -0.0314(6) -0.4226(12) -0.5986(4)
C3 C -0.1158(7) -0.2578(13) -0.5466(4)
H1 H -0.1388 -0.1621 -0.5397
N2 N 0.1209(5) -0.4600(10) -0.6270(3)
C4 C 0.0218(7) -0.4107(11) -0.6446(4)
O2 O 0.2737(5) -0.4458(9) -0.5712(3)
F1 F -0.0106(5) -0.6483(8) -0.6924(3)
O3 O 0.0892(6) -0.4867(12) -0.7527(4)
C5 C 0.3559(8) -0.4010(13) -0.5192(5)
C6 C 0.0080(8) -0.4496(15) -0.7558(5)
C7 C -0.0337(7) -0.4937(14) -0.7049(5)
C8 C -0.0963(7) -0.5318(12) -0.5262(5)
H2 H -0.1080 -0.6166 -0.5052
C9 C -0.0657(6) -0.2807(12) -0.5887(4)
C10 C -0.1285(6) -0.3868(14) -0.5163(4)
C11 C -0.0466(7) -0.5472(12) -0.5678(4)
H3 H -0.0236 -0.6428 -0.5747
C12 C -0.1643(8) 0.0170(13) -0.6764(6)
C13 C 0.0136(7) -0.2308(13) -0.6575(5)
C14 C 0.1824(7) -0.4054(15) -0.5760(6)
C15 C -0.1535(8) -0.3580(18) -0.8152(6)
C16 C -0.0688(8) -0.0058(12) -0.6290(5)
H4 H -0.0196 0.0550 -0.6388
H5 H -0.0735 0.0295 -0.5906
C17 C -0.1711(12) -0.1949(17) -0.9020(7)
H6 H -0.2107 -0.1390 -0.9340
C18 C -0.0173(10) -0.2866(17) -0.8468(6)
H7 H 0.0489 -0.2931 -0.8414
C19 C -0.0749(13) -0.202(2) -0.8937(6)
H8 H -0.0479 -0.1511 -0.9197
C20 C -0.3398(15) 0.045(3) -0.7617(11)
H9 H -0.3971 0.0875 -0.7864
C21 C -0.1420(8) -0.4794(18) -0.7211(5)
H10 H -0.1657 -0.5625 -0.7018
H11 H -0.1567 -0.3842 -0.7043
C22 C -0.2606(16) 0.063(3) -0.7774(8)
H12 H -0.2640 0.0867 -0.8169
C23 C 0.4405(9) -0.464(2) -0.5354(7)
H13 H 0.4177 -0.5301 -0.5697
H14 H 0.4810 -0.5216 -0.5021
H15 H 0.4771 -0.3813 -0.5447
C24 C 0.3475(13) -0.477(3) -0.4671(7)
H16 H 0.2838 -0.4602 -0.4638
H17 H 0.3950 -0.4364 -0.4321
H18 H 0.3582 -0.5847 -0.4701
C25 C 0.3647(12) -0.2386(19) -0.5112(10)
H19 H 0.4044 -0.1985 -0.5340
H20 H 0.3940 -0.2156 -0.4694
H21 H 0.3015 -0.1925 -0.5249
C26 C -0.1696(11) 0.045(2) -0.7325(7)
H22 H -0.1128 0.0531 -0.7430
C27 C -0.2111(10) -0.269(2) -0.8634(7)
H23 H -0.2773 -0.2606 -0.8692
C28 C -0.343(2) -0.025(3) -0.7152(15)
H24 H -0.3989 -0.0680 -0.7112
O4 O 0.1591(18) -0.369(3) -0.5293(12)
C29 C -0.2548(17) -0.032(3) -0.6707(11)
H25 H -0.2547 -0.0718 -0.6338
C30 C -0.1977(16) -0.482(3) -0.7870(9)
H26 H -0.2659 -0.4610 -0.7931
H27 H -0.1918 -0.5809 -0.8044
N3 N -0.6522(6) -0.3545(11) -0.9160(3)
C34 C -0.6043(7) -0.3446(12) -0.7597(4)
O6 O -0.8092(6) -0.2214(8) -0.8708(3)
O7 O -0.6030(6) -0.1858(9) -0.9702(3)
C35 C -0.6758(7) -0.4044(10) -0.8628(4)
N4 N -0.6941(6) -0.2666(10) -0.7799(4)
F2 F -0.6796(5) -0.6601(7) -0.8961(3)
C36 C -0.5894(7) -0.4230(11) -0.8074(4)
O8 O -0.8186(6) -0.4877(11) -0.9803(4)
C37 C -0.6157(8) 0.0311(14) -0.7363(5)
H35 H -0.5967 -0.0173 -0.7664
C38 C -0.4528(8) -0.4275(17) -0.6972(5)
C39 C -0.7609(7) -0.6185(13) -0.8251(5)
H36 H -0.7858 -0.5375 -0.8054
H37 H -0.7014 -0.6561 -0.7968
C40 C -0.8300(10) -0.5370(13) -0.9336(5)
C41 C -0.7364(8) -0.2841(12) -0.8400(5)
C42 C -0.6876(8) -0.0327(12) -0.7162(5)
C43 C -0.5047(8) -0.5084(13) -0.7994(5)
H38 H -0.4945 -0.5636 -0.8310
C44 C -0.7371(8) -0.1810(13) -0.7406(5)
H39 H -0.7373 -0.2462 -0.7070
H40 H -0.8042 -0.1588 -0.7628
C45 C -0.5377(8) -0.3443(14) -0.7045(4)
H41 H -0.5482 -0.2906 -0.6727
C46 C -0.7387(8) -0.5535(12) -0.8780(5)
C47 C -0.9261(10) -0.6949(16) -0.8855(7)
C48 C -0.5722(9) 0.1665(16) -0.7118(7)
H42 H -0.5237 0.2086 -0.7253
O9 O -0.5757(6) -0.1374(9) -0.8703(4)
C49 C -0.4368(8) -0.5086(16) -0.7434(7)
H43 H -0.3797 -0.5641 -0.7369
C50 C -0.6073(9) -0.2172(15) -0.9145(5)
Br2 Br -0.35792(11) -0.4284(2) -0.62079(7)
C51 C -0.8346(10) -0.7489(15) -0.8411(6)
H44 H -0.8082 -0.8340 -0.8578
H45 H -0.8479 -0.7846 -0.8050
C52 C -0.6269(10) 0.0925(14) -0.9708(6)
H46 H -0.6936 0.0708 -0.9919
H47 H -0.6087 0.1880 -0.9847
H48 H -0.6186 0.0993 -0.9285
C53 C -0.9225(10) -0.5934(18) -0.9299(7)
C54 C -0.5779(11) -0.0496(15) -1.0492(6)
H49 H -0.5363 -0.1284 -1.0561
H50 H -0.5625 0.0463 -1.0643
H51 H -0.6443 -0.0756 -1.0696
C55 C -0.5984(11) 0.2369(17) -0.6693(7)
H52 H -0.5672 0.3267 -0.6524
C56 C -0.4583(11) -0.0211(17) -0.9484(7)
H53 H -0.4510 0.0020 -0.9071
H54 H -0.4303 0.0598 -0.9655
H55 H -0.4260 -0.1160 -0.9508
C57 C -0.5633(11) -0.0355(13) -0.9822(6)
C58 C -1.0939(15) -0.603(3) -0.9720(10)
H56 H -1.1504 -0.5771 -1.0021
C59 C -1.0054(13) -0.5418(19) -0.9739(6)
H57 H -1.0022 -0.4707 -1.0029
C60 C -1.0998(16) -0.700(3) -0.9277(12)
H58 H -1.1601 -0.7311 -0.9256
C61 C -1.0156(13) -0.7515(19) -0.8854(9)
H59 H -1.0193 -0.8242 -0.8570
C62 C -0.7164(12) 0.0418(17) -0.6745(6)
H60 H -0.7666 0.0021 -0.6619
C63 C -0.6720(16) 0.178(2) -0.6500(8)
H61 H -0.6917 0.2284 -0.6207
H28? H -0.3986 0.0066 -0.7858
H29? H -0.1694 -0.5766 -0.7384
H30? H -0.1577 -0.4672 -0.6839
O5? O 0.1634(18) -0.293(3) -0.5490(13)
C31? C -0.316(3) 0.106(5) -0.6907(18)
H31? H -0.3631 0.1587 -0.6792
C32? C -0.227(3) 0.077(5) -0.6489(18)
H32? H -0.2118 0.0956 -0.6079
C33? C -0.1866(18) -0.375(4) -0.7566(13)
H33? H -0.1762 -0.2776 -0.7353
H34? H -0.2556 -0.3962 -0.7687
loop_
_geom_bond_atom_site_label_1
_geom_bond_atom_site_label_2
_geom_bond_site_symmetry_1
_geom_bond_site_symmetry_2
Br1 C10 1_555 1_555
C1 C6 1_555 1_555
N1 C9 1_555 1_555
O1 C13 1_555 1_555
C2 C4 1_555 1_555
C3 H1 1_555 1_555
N2 C4 1_555 1_555
C4 C7 1_555 1_555
O2 C5 1_555 1_555
F1 C7 1_555 1_555
O3 C6 1_555 1_555
C5 C23 1_555 1_555
C6 C7 1_555 1_555
C7 C21 1_555 1_555
C8 H2 1_555 1_555
C9 C2 1_555 1_555
C10 C3 1_555 1_555
C11 C2 1_555 1_555
H3 C11 1_555 1_555
C12 C16 1_555 1_555
C13 N1 1_555 1_555
C14 N2 1_555 1_555
C15 C1 1_555 1_555
C16 N1 1_555 1_555
H4 C16 1_555 1_555
H5 C16 1_555 1_555
C17 H6 1_555 1_555
C18 C1 1_555 1_555
H7 C18 1_555 1_555
C19 C17 1_555 1_555
H8 C19 1_555 1_555
C20 H9 1_555 1_555
C21 H10 1_555 1_555
H11 C21 1_555 1_555
C22 C20 1_555 1_555
H12 C22 1_555 1_555
C23 H13 1_555 1_555
H14 C23 1_555 1_555
H15 C23 1_555 1_555
C24 C5 1_555 1_555
H16 C24 1_555 1_555
H17 C24 1_555 1_555
H18 C24 1_555 1_555
C25 C5 1_555 1_555
H19 C25 1_555 1_555
H20 C25 1_555 1_555
H21 C25 1_555 1_555
C26 C12 1_555 1_555
H22 C26 1_555 1_555
C27 C15 1_555 1_555
H23 C27 1_555 1_555
C28 C20 1_555 1_555
H24 C28 1_555 1_555
O4 C14 1_555 1_555
C29 C12 1_555 1_555
H25 C29 1_555 1_555
C30 C15 1_555 1_555
H26 C30 1_555 1_555
H27 C30 1_555 1_555
N3 C35 1_555 1_555
C34 N4 1_555 1_555
O6 C41 1_555 1_555
O7 C50 1_555 1_555
C35 C36 1_555 1_555
N4 C41 1_555 1_555
F2 C46 1_555 1_555
C36 C34 1_555 1_555
O8 C40 1_555 1_555
C37 H35 1_555 1_555
C38 C45 1_555 1_555
C39 H36 1_555 1_555
H37 C39 1_555 1_555
C40 C46 1_555 1_555
C41 C35 1_555 1_555
C42 C37 1_555 1_555
C43 C36 1_555 1_555
H38 C43 1_555 1_555
C44 N4 1_555 1_555
H39 C44 1_555 1_555
H40 C44 1_555 1_555
C45 C34 1_555 1_555
H41 C45 1_555 1_555
C46 C35 1_555 1_555
C47 C51 1_555 1_555
C48 C37 1_555 1_555
H42 C48 1_555 1_555
O9 C50 1_555 1_555
C49 C38 1_555 1_555
H43 C49 1_555 1_555
C50 N3 1_555 1_555
Br2 C38 1_555 1_555
C51 C39 1_555 1_555
H44 C51 1_555 1_555
H45 C51 1_555 1_555
C52 H46 1_555 1_555
H47 C52 1_555 1_555
H48 C52 1_555 1_555
C53 C40 1_555 1_555
C54 H49 1_555 1_555
H50 C54 1_555 1_555
H51 C54 1_555 1_555
C55 C48 1_555 1_555
H52 C55 1_555 1_555
C56 H53 1_555 1_555
H54 C56 1_555 1_555
H55 C56 1_555 1_555
C57 O7 1_555 1_555
C58 H56 1_555 1_555
C59 C53 1_555 1_555
H57 C59 1_555 1_555
C60 C58 1_555 1_555
H58 C60 1_555 1_555
C61 C47 1_555 1_555
H59 C61 1_555 1_555
C62 C42 1_555 1_555
H60 C62 1_555 1_555
C63 C55 1_555 1_555
H61 C63 1_555 1_555
C3 C9 1_555 1_555
C4 C13 1_555 1_555
O2 C14 1_555 1_555
C8 C10 1_555 1_555
C8 C11 1_555 1_555
C17 C27 1_555 1_555
C18 C19 1_555 1_555
C21 C30 1_555 1_555
C22 C26 1_555 1_555
C28 C29 1_555 1_555
C39 C46 1_555 1_555
C42 C44 1_555 1_555
C43 C49 1_555 1_555
C47 C53 1_555 1_555
C52 C57 1_555 1_555
C54 C57 1_555 1_555
C56 C57 1_555 1_555
C58 C59 1_555 1_555
C60 C61 1_555 1_555
C62 C63 1_555 1_555

#END
