
#######################################################################
#
#                 Cambridge Crystallographic Data Centre
#                                CCDC 
#
#######################################################################
#
# If this CIF has been generated from an entry in the Cambridge 
# Structural Database, then it will include bibliographic, chemical, 
# crystal, experimental, refinement or atomic coordinate data resulting 
# from the CCDC's data processing and validation procedures.
#
#######################################################################

data_CUNKIH
_chemical_formula_moiety         
'C48 H36 N2 O2 2+,2(F6 P1 1-),1.7(C1 H2 Cl2),0.15(H2 O1)'
_chemical_name_systematic        
'8-methoxy-11-(4-methoxyphenyl)-7-methyl-4-(1-methylpyridinium-4-yl)-3,12-diphenyl-7-azoniabenzo[ghi]perylene bis(hexafluorophosphate) dichloromethane solvate hydrate'
_symmetry_cell_setting           orthorhombic
_symmetry_space_group_name_H-M   'P b c a'
_symmetry_Int_Tables_number      61
_space_group_name_Hall           '-P 2ac 2ab'
loop_
_symmetry_equiv_pos_site_id
_symmetry_equiv_pos_as_xyz
1 x,y,z
2 1/2-x,-y,1/2+z
3 1/2+x,1/2-y,-z
4 -x,1/2+y,1/2-z
5 -x,-y,-z
6 1/2+x,y,1/2-z
7 1/2-x,1/2+y,z
8 x,1/2-y,1/2+z
_cell_length_a                   11.94610(16)
_cell_length_b                   21.7494(3)
_cell_length_c                   39.4423(5)
_cell_angle_alpha                90
_cell_angle_beta                 90
_cell_angle_gamma                90
_cell_volume                     10247.9
_exptl_crystal_colour            orange
_exptl_crystal_description       block
_cell_formula_units_Z            8
_exptl_crystal_recrystallization_method dichloromethane-d2
_exptl_crystal_preparation       Luminescent
loop_
_atom_site_label
_atom_site_type_symbol
_atom_site_fract_x
_atom_site_fract_y
_atom_site_fract_z
P1 P 0.03856(7) 0.45238(4) 0.20692(2)
F1 F -0.02584(19) 0.42057(11) 0.17600(5)
F2 F 0.13371(18) 0.47624(10) 0.18164(5)
F3 F 0.1018(2) 0.48550(11) 0.23774(5)
F4 F -0.0558(2) 0.42926(12) 0.23243(6)
F5 F -0.0299(2) 0.51444(11) 0.20021(6)
F6 F 0.1077(2) 0.39083(10) 0.21322(5)
P2 P 0.82328(7) 0.20329(4) 0.19838(2)
F7 F 0.9082(2) 0.23669(11) 0.22375(6)
F8 F 0.71986(19) 0.23240(11) 0.21836(6)
F9 F 0.7395(2) 0.17009(10) 0.17295(7)
F10 F 0.92703(17) 0.17353(9) 0.17916(5)
F11 F 0.81967(19) 0.14392(11) 0.22244(6)
F12 F 0.82628(18) 0.26172(9) 0.17419(6)
C49 C 0.3825(14) 0.4673(8) 0.1544(5)
Cl1 Cl 0.4263(2) 0.42501(12) 0.12221(8)
Cl2 Cl 0.4104(3) 0.46400(14) 0.19544(8)
C50 C 0.0461(8) 0.3101(4) 0.1335(3)
Cl3 Cl 0.17601(13) 0.34383(10) 0.12823(4)
Cl4 Cl 0.0420(3) 0.24090(14) 0.11090(6)
O1 O 0.6727(2) 0.46695(10) 0.16349(7)
O2 O 1.1690(2) 0.45880(10) -0.03053(6)
N1 N 0.6287(2) 0.35297(11) 0.19244(6)
C1 C 0.5476(3) 0.32812(14) 0.21261(8)
H1 H 0.5422 0.3412 0.2355
C2 C 0.4741(2) 0.28508(14) 0.20089(8)
H2 H 0.4140 0.2715 0.2148
C3 C 0.4878(2) 0.26099(13) 0.16820(7)
C4 C 0.4277(2) 0.20822(14) 0.15622(7)
C5 C 0.4571(3) 0.18079(14) 0.12598(7)
C6 C 0.5461(3) 0.20559(14) 0.10567(7)
C7 C 0.5820(3) 0.17688(16) 0.07532(8)
H3 H 0.5466 0.1400 0.0682
C8 C 0.6659(3) 0.20081(16) 0.05622(8)
H4 H 0.6887 0.1797 0.0363
C9 C 0.7207(3) 0.25659(14) 0.06514(7)
C10 C 0.8046(3) 0.28360(14) 0.04403(7)
C11 C 0.8473(3) 0.34045(13) 0.05206(7)
C12 C 0.8090(2) 0.37246(13) 0.08165(7)
C13 C 0.8396(3) 0.43372(13) 0.08825(8)
H5 H 0.8919 0.4534 0.0737
C14 C 0.7959(3) 0.46559(14) 0.11498(9)
H6 H 0.8136 0.5079 0.1177
C15 C 0.7258(3) 0.43696(13) 0.13837(8)
C16 C 0.7014(2) 0.37339(13) 0.13515(7)
C17 C 0.6329(2) 0.33912(12) 0.15888(7)
C18 C 0.5718(2) 0.28729(12) 0.14732(7)
C19 C 0.6004(3) 0.26001(13) 0.11564(7)
C20 C 0.6869(2) 0.28572(13) 0.09532(7)
C21 C 0.7338(2) 0.34347(12) 0.10463(7)
C22 C 0.7225(3) 0.38375(16) 0.21057(8)
H7 H 0.6986 0.4247 0.2180
H8 H 0.7867 0.3877 0.1953
H9 H 0.7440 0.3591 0.2303
C23 C 0.0850(3) 0.1136(2) 0.24345(11)
H10 H 0.0676 0.1454 0.2603
H11 H 0.1140 0.0770 0.2550
H12 H 0.0170 0.1029 0.2309
C24 C 1.2832(3) 0.4623(2) -0.02082(12)
H13 H 1.3260 0.4831 -0.0386
H14 H 1.3129 0.4208 -0.0175
H15 H 1.2896 0.4856 0.0004
C25 C 0.7019(4) 0.53047(16) 0.16989(12)
H16 H 0.6829 0.5554 0.1500
H17 H 0.7825 0.5335 0.1743
H18 H 0.6603 0.5455 0.1896
C26 C 0.3363(3) 0.18264(15) 0.17762(7)
C27 C 0.2447(3) 0.21861(16) 0.18706(9)
H19 H 0.2384 0.2596 0.1789
C28 C 0.1636(3) 0.19514(18) 0.20805(9)
H20 H 0.1020 0.2201 0.2145
N2 N 0.1707(2) 0.13729(14) 0.21956(7)
C29 C 0.2579(3) 0.10118(15) 0.21112(8)
H21 H 0.2620 0.0603 0.2196
C30 C 0.3414(3) 0.12323(15) 0.19030(7)
H22 H 0.4029 0.0975 0.1846
C31 C 0.3966(3) 0.12550(16) 0.11279(7)
C32 C 0.2970(4) 0.1324(2) 0.09534(10)
H23 H 0.2653 0.1721 0.0923
C33 C 0.2436(5) 0.0805(3) 0.08226(12)
H24 H 0.1760 0.0851 0.0698
C34 C 0.2875(5) 0.0229(2) 0.08711(12)
H25 H 0.2501 -0.0121 0.0783
C35 C 0.3844(5) 0.01597(19) 0.10455(10)
H26 H 0.4141 -0.0240 0.1082
C36 C 0.4408(4) 0.06709(17) 0.11723(9)
H27 H 0.5097 0.0620 0.1289
C37 C 0.8479(4) 0.24887(16) 0.01369(8)
C38 C 0.7880(5) 0.24980(19) -0.01680(9)
H28 H 0.7200 0.2721 -0.0186
C39 C 0.8309(6) 0.2168(2) -0.04501(10)
H29 H 0.7915 0.2171 -0.0659
C40 C 0.9303(6) 0.1841(3) -0.04206(13)
H30 H 0.9585 0.1616 -0.0609
C41 C 0.9861(5) 0.1843(3) -0.01277(16)
H31 H 1.0544 0.1622 -0.0110
C42 C 0.9461(4) 0.2166(3) 0.01542(12)
H32 H 0.9876 0.2162 0.0360
C43 C 0.9349(3) 0.37058(13) 0.03047(7)
C44 C 0.9047(3) 0.40089(13) 0.00062(7)
H33 H 0.8287 0.4012 -0.0065
C45 C 0.9850(3) 0.43035(13) -0.01861(7)
H34 H 0.9637 0.4514 -0.0387
C46 C 1.0963(3) 0.42948(12) -0.00892(8)
C47 C 1.1281(3) 0.39978(13) 0.02061(8)
H35 H 1.2042 0.3992 0.0276
C48 C 1.0455(3) 0.37054(14) 0.04000(8)
H36 H 1.0666 0.3501 0.0603
Cl5? Cl 0.4446(5) 0.4378(3) 0.11218(16)
C51? C 0.032(2) 0.3107(12) 0.1391(8)
Cl6? Cl 0.1679(15) 0.3247(8) 0.1243(5)
Cl7? Cl 0.0350(12) 0.2231(6) 0.1074(3)
C52? C 0.3864(18) 0.4862(11) 0.1533(5)
C53? C 0.402(3) 0.4545(14) 0.1655(8)
Cl8? Cl 0.4204(4) 0.5370(2) 0.15893(13)
Cl9? Cl 0.4317(3) 0.5502(2) 0.14994(12)
Cl10? Cl 0.4064(8) 0.4142(4) 0.1338(3)
C54? C 0.0298(19) 0.2935(9) 0.1322(6)
Cl11? Cl 0.0071(4) 0.2427(2) 0.10859(10)
O3? O 0.5391(17) 0.5949(9) 0.0967(5)
loop_
_geom_bond_atom_site_label_1
_geom_bond_atom_site_label_2
_geom_bond_site_symmetry_1
_geom_bond_site_symmetry_2
O1 C15 1_555 1_555
O2 C24 1_555 1_555
N1 C1 1_555 1_555
C1 H1 1_555 1_555
C2 C1 1_555 1_555
H2 C2 1_555 1_555
C3 C2 1_555 1_555
C4 C3 1_555 1_555
C5 C4 1_555 1_555
C6 C5 1_555 1_555
C7 C6 1_555 1_555
H3 C7 1_555 1_555
C8 C7 1_555 1_555
H4 C8 1_555 1_555
C9 C8 1_555 1_555
C10 C9 1_555 1_555
C11 C10 1_555 1_555
C12 C11 1_555 1_555
C13 C12 1_555 1_555
H5 C13 1_555 1_555
C14 C13 1_555 1_555
H6 C14 1_555 1_555
C15 C14 1_555 1_555
C16 C15 1_555 1_555
C17 N1 1_555 1_555
C18 C3 1_555 1_555
C19 C6 1_555 1_555
C20 C9 1_555 1_555
C21 C12 1_555 1_555
C22 N1 1_555 1_555
H7 C22 1_555 1_555
H8 C22 1_555 1_555
H9 C22 1_555 1_555
C23 H10 1_555 1_555
H11 C23 1_555 1_555
H12 C23 1_555 1_555
C24 H13 1_555 1_555
H14 C24 1_555 1_555
H15 C24 1_555 1_555
C25 O1 1_555 1_555
H16 C25 1_555 1_555
H17 C25 1_555 1_555
H18 C25 1_555 1_555
C26 C4 1_555 1_555
C27 C26 1_555 1_555
H19 C27 1_555 1_555
C28 C27 1_555 1_555
H20 C28 1_555 1_555
N2 C23 1_555 1_555
C29 N2 1_555 1_555
H21 C29 1_555 1_555
C30 C26 1_555 1_555
H22 C30 1_555 1_555
C31 C5 1_555 1_555
C32 C31 1_555 1_555
H23 C32 1_555 1_555
C33 C32 1_555 1_555
H24 C33 1_555 1_555
C34 C33 1_555 1_555
H25 C34 1_555 1_555
C35 C34 1_555 1_555
H26 C35 1_555 1_555
C36 C31 1_555 1_555
H27 C36 1_555 1_555
C37 C10 1_555 1_555
C38 C37 1_555 1_555
H28 C38 1_555 1_555
C39 C38 1_555 1_555
H29 C39 1_555 1_555
C40 C39 1_555 1_555
H30 C40 1_555 1_555
C41 C40 1_555 1_555
H31 C41 1_555 1_555
C42 C37 1_555 1_555
H32 C42 1_555 1_555
C43 C11 1_555 1_555
C44 C43 1_555 1_555
H33 C44 1_555 1_555
C45 C44 1_555 1_555
H34 C45 1_555 1_555
C46 O2 1_555 1_555
C47 C46 1_555 1_555
H35 C47 1_555 1_555
C48 C43 1_555 1_555
H36 C48 1_555 1_555
P1 F1 1_555 1_555
F2 P1 1_555 1_555
F3 P1 1_555 1_555
F4 P1 1_555 1_555
F5 P1 1_555 1_555
F6 P1 1_555 1_555
P2 F7 1_555 1_555
F8 P2 1_555 1_555
F9 P2 1_555 1_555
F10 P2 1_555 1_555
F11 P2 1_555 1_555
F12 P2 1_555 1_555
C49 Cl1 1_555 1_555
Cl2 C49 1_555 1_555
C50 Cl3 1_555 1_555
Cl4 C50 1_555 1_555
C16 C17 1_555 1_555
C16 C21 1_555 1_555
C17 C18 1_555 1_555
C18 C19 1_555 1_555
C19 C20 1_555 1_555
C20 C21 1_555 1_555
C28 N2 1_555 1_555
C29 C30 1_555 1_555
C35 C36 1_555 1_555
C41 C42 1_555 1_555
C45 C46 1_555 1_555
C47 C48 1_555 1_555

#END
