
#######################################################################
#
#                 Cambridge Crystallographic Data Centre
#                                CCDC 
#
#######################################################################
#
# If this CIF has been generated from an entry in the Cambridge 
# Structural Database, then it will include bibliographic, chemical, 
# crystal, experimental, refinement or atomic coordinate data resulting 
# from the CCDC's data processing and validation procedures.
#
#######################################################################

data_CUNKUT
_chemical_name_common            
'methyl 4-((4-chloro-1-methyl-2-oxo-1,2-dihydro-3H-indol-3-ylidene)amino)-5,5,5-trifluoro-2-methylene-3-(1-naphthyl)pentanoate'
_chemical_formula_moiety         'C26 H20 Cl1 F3 N2 O3'
_chemical_name_systematic        
'(3R,4S)-methyl 4-((Z)-(4-chloro-1-methyl-2-oxoindolin-3-ylidene)amino)-5,5,5-trifluoro-2-methylene-3-(naphthalen-1-yl)pentanoate'
_symmetry_cell_setting           monoclinic
_symmetry_space_group_name_H-M   'P 21'
_symmetry_Int_Tables_number      4
_space_group_name_Hall           'P 2yb'
loop_
_symmetry_equiv_pos_site_id
_symmetry_equiv_pos_as_xyz
1 x,y,z
2 -x,1/2+y,-z
_cell_length_a                   10.2811(14)
_cell_length_b                   11.1490(16)
_cell_length_c                   11.3115(17)
_cell_angle_alpha                90
_cell_angle_beta                 115.560(2)
_cell_angle_gamma                90
_cell_volume                     1169.68
_exptl_crystal_colour            yellow
_exptl_crystal_description       block
_cell_formula_units_Z            2
loop_
_atom_site_label
_atom_site_type_symbol
_atom_site_fract_x
_atom_site_fract_y
_atom_site_fract_z
Cl1 Cl 0.67608(7) 0.80695(6) 0.68836(7)
O1 O 0.22356(16) 1.16105(14) 0.48511(15)
O2 O -0.01652(18) 0.72396(16) 0.10820(17)
O3 O 0.0918(2) 0.56600(16) 0.23297(17)
N1 N 0.32912(19) 1.11307(17) 0.70411(18)
N2 N 0.40861(17) 0.94394(16) 0.47581(16)
C1 C 0.6029(2) 0.8883(2) 0.7758(2)
C2 C 0.4891(2) 0.96575(19) 0.7116(2)
C3 C 0.4395(2) 1.0361(2) 0.7865(2)
C4 C 0.4972(3) 1.0282(2) 0.9213(2)
H1 H 0.4620 1.0743 0.9697
C5 C 0.6106(3) 0.9479(3) 0.9813(3)
H2 H 0.6524 0.9410 1.0721
C6 C 0.6629(3) 0.8789(2) 0.9113(2)
H3 H 0.7384 0.8258 0.9545
C7 C 0.40141(19) 0.99592(18) 0.5730(2)
C8 C 0.3038(2) 1.10027(19) 0.5758(2)
C9 C 0.2630(3) 1.2068(3) 0.7488(3)
H4 H 0.3366 1.2585 0.8088
H5 H 0.2103 1.1713 0.7922
H6 H 0.1984 1.2527 0.6750
C10 C 0.3101(2) 0.9728(2) 0.3414(2)
H7 H 0.2760 1.0553 0.3386
C11 C 0.3957(3) 0.9660(3) 0.2605(3)
C12 C 0.17624(19) 0.88708(19) 0.28562(19)
H8 H 0.1278 0.9026 0.1912
C13 C 0.06995(19) 0.92596(18) 0.34056(18)
C14 C 0.0731(2) 0.8710(2) 0.4497(2)
H9 H 0.1375 0.8083 0.4876
C15 C -0.0194(3) 0.9071(2) 0.5065(2)
H10 H -0.0147 0.8689 0.5814
C16 C -0.1142(2) 0.9971(2) 0.4518(2)
H11 H -0.1753 1.0199 0.4891
C17 C -0.1226(2) 1.0573(2) 0.3390(2)
C18 C -0.2218(2) 1.1522(2) 0.2809(3)
H12 H -0.2838 1.1746 0.3173
C19 C -0.2282(3) 1.2111(2) 0.1732(3)
H13 H -0.2949 1.2725 0.1362
C20 C -0.1348(3) 1.1796(2) 0.1183(3)
H14 H -0.1382 1.2208 0.0455
C21 C -0.0379(2) 1.0878(2) 0.1712(2)
H15 H 0.0235 1.0680 0.1334
C22 C -0.02884(19) 1.02264(18) 0.28183(19)
C23 C 0.2039(2) 0.7536(2) 0.3002(2)
C24 C 0.0806(2) 0.6821(2) 0.2028(2)
C25 C 0.3190(2) 0.6962(2) 0.3839(2)
H16 H 0.3226 0.6129 0.3818
H17 H 0.3965 0.7390 0.4449
C26 C -0.0166(3) 0.4868(3) 0.1445(3)
H18 H -0.1090 0.5088 0.1399
H19 H 0.0055 0.4058 0.1755
H20 H -0.0189 0.4929 0.0590
F1 F 0.50602(17) 1.04346(19) 0.30638(19)
F2 F 0.4523(2) 0.86026(19) 0.2581(2)
F3 F 0.31511(17) 0.9988(2) 0.13788(15)
loop_
_geom_bond_atom_site_label_1
_geom_bond_atom_site_label_2
_geom_bond_site_symmetry_1
_geom_bond_site_symmetry_2
Cl1 C1 1_555 1_555
O1 C8 1_555 1_555
O2 C24 1_555 1_555
O3 C24 1_555 1_555
N1 C3 1_555 1_555
N2 C7 1_555 1_555
C1 C2 1_555 1_555
C2 C3 1_555 1_555
C3 C4 1_555 1_555
C4 H1 1_555 1_555
C5 C4 1_555 1_555
H2 C5 1_555 1_555
C6 C1 1_555 1_555
H3 C6 1_555 1_555
C7 C2 1_555 1_555
C8 N1 1_555 1_555
C9 N1 1_555 1_555
H4 C9 1_555 1_555
H5 C9 1_555 1_555
H6 C9 1_555 1_555
C10 N2 1_555 1_555
H7 C10 1_555 1_555
C11 C10 1_555 1_555
C12 C10 1_555 1_555
H8 C12 1_555 1_555
C13 C12 1_555 1_555
C14 C13 1_555 1_555
H9 C14 1_555 1_555
C15 C14 1_555 1_555
H10 C15 1_555 1_555
C16 C15 1_555 1_555
H11 C16 1_555 1_555
C17 C16 1_555 1_555
C18 C17 1_555 1_555
H12 C18 1_555 1_555
C19 C18 1_555 1_555
H13 C19 1_555 1_555
C20 C19 1_555 1_555
H14 C20 1_555 1_555
C21 C20 1_555 1_555
H15 C21 1_555 1_555
C22 C13 1_555 1_555
C23 C12 1_555 1_555
C24 C23 1_555 1_555
C25 C23 1_555 1_555
H16 C25 1_555 1_555
H17 C25 1_555 1_555
C26 O3 1_555 1_555
H18 C26 1_555 1_555
H19 C26 1_555 1_555
H20 C26 1_555 1_555
F1 C11 1_555 1_555
F2 C11 1_555 1_555
F3 C11 1_555 1_555
C5 C6 1_555 1_555
C7 C8 1_555 1_555
C17 C22 1_555 1_555
C21 C22 1_555 1_555

#END
