
#######################################################################
#
#                 Cambridge Crystallographic Data Centre
#                                CCDC 
#
#######################################################################
#
# If this CIF has been generated from an entry in the Cambridge 
# Structural Database, then it will include bibliographic, chemical, 
# crystal, experimental, refinement or atomic coordinate data resulting 
# from the CCDC's data processing and validation procedures.
#
#######################################################################

data_CUNLEE
_chemical_name_common            
'methyl 4-((4-chloro-1-methyl-2-oxo-1,2-dihydro-3H-indol-3-ylidene)amino)-3-(2-chlorophenyl)-5,5,5-trifluoro-2-methylenepentanoate'
_chemical_formula_moiety         'C22 H17 Cl2 F3 N2 O3'
_chemical_name_systematic        
'(3S,4S)-methyl 4-((Z)-(4-chloro-1-methyl-2-oxoindolin-3-ylidene)amino)-3-(2-chlorophenyl)-5,5,5-trifluoro-2-methylenepentanoate'
_symmetry_cell_setting           orthorhombic
_symmetry_space_group_name_H-M   'P 21 21 21'
_symmetry_Int_Tables_number      19
_space_group_name_Hall           'P 2ac 2ab'
loop_
_symmetry_equiv_pos_site_id
_symmetry_equiv_pos_as_xyz
1 x,y,z
2 1/2-x,-y,1/2+z
3 -x,1/2+y,1/2-z
4 1/2+x,1/2-y,-z
_cell_length_a                   7.6378(5)
_cell_length_b                   15.9147(11)
_cell_length_c                   18.2712(13)
_cell_angle_alpha                90
_cell_angle_beta                 90
_cell_angle_gamma                90
_cell_volume                     2220.92
_exptl_crystal_colour            yellow
_exptl_crystal_description       block
_cell_formula_units_Z            4
loop_
_atom_site_label
_atom_site_type_symbol
_atom_site_fract_x
_atom_site_fract_y
_atom_site_fract_z
Cl1 Cl 0.03191(11) 0.26876(4) 0.85573(4)
Cl2 Cl 0.35466(13) 0.00262(7) 1.13554(5)
O1 O -0.0900(3) -0.08866(11) 0.81954(10)
O2 O -0.2315(3) 0.13819(15) 1.02877(18)
O3 O 0.0533(3) 0.15471(11) 1.04600(12)
N1 N -0.2367(3) 0.00882(13) 0.75090(11)
N2 N 0.0930(3) 0.07259(11) 0.87591(10)
C1 C -0.1233(3) 0.13284(14) 0.79289(12)
C2 C -0.1087(4) 0.21973(15) 0.79523(14)
C3 C -0.2075(4) 0.26817(19) 0.74804(17)
H1 H -0.1966 0.3264 0.7487
C4 C -0.3231(5) 0.2302(2) 0.69967(18)
H2 H -0.3899 0.2636 0.6686
C5 C -0.3414(4) 0.1433(2) 0.69667(16)
H3 H -0.4181 0.1179 0.6639
C6 C -0.2419(3) 0.09695(16) 0.74383(13)
C7 C -0.3349(4) -0.0505(2) 0.70591(16)
H4 H -0.2759 -0.0581 0.6600
H5 H -0.4504 -0.0288 0.6973
H6 H -0.3430 -0.1034 0.7308
C8 C -0.1193(3) -0.01586(15) 0.80191(12)
C9 C -0.0329(3) 0.06408(13) 0.83140(11)
C10 C 0.1759(3) -0.00270(15) 0.90721(12)
H7 H 0.1234 -0.0534 0.8861
C11 C 0.3654(4) 0.0027(2) 0.88611(17)
C12 C 0.1484(3) -0.00205(14) 0.99122(11)
H8 H 0.2254 0.0410 1.0120
C13 C -0.0413(4) 0.02250(14) 1.00895(13)
C14 C -0.1739(4) -0.0305(2) 1.00842(18)
H9 H -0.2861 -0.0116 1.0194
H10 H -0.1553 -0.0867 0.9971
C15 C -0.0857(4) 0.11065(17) 1.02769(15)
C16 C 0.0170(6) 0.24232(19) 1.0669(2)
H11 H -0.0471 0.2695 1.0284
H12 H 0.1255 0.2714 1.0748
H13 H -0.0510 0.2432 1.1111
C17 C 0.1945(3) -0.08569(15) 1.02687(14)
C18 C 0.1431(4) -0.16174(16) 0.99667(17)
H14 H 0.0873 -0.1620 0.9514
C19 C 0.1729(5) -0.2373(2) 1.0321(2)
H15 H 0.1345 -0.2873 1.0112
C20 C 0.2577(5) -0.2385(3) 1.0971(2)
H16 H 0.2769 -0.2893 1.1210
C21 C 0.3160(5) -0.1638(3) 1.1283(2)
H17 H 0.3766 -0.1644 1.1724
C22 C 0.2832(4) -0.0891(2) 1.09297(16)
F1 F 0.3830(3) 0.00800(19) 0.81367(12)
F2 F 0.4505(2) 0.06611(13) 0.91504(15)
F3 F 0.4531(2) -0.06650(12) 0.90627(13)
loop_
_geom_bond_atom_site_label_1
_geom_bond_atom_site_label_2
_geom_bond_site_symmetry_1
_geom_bond_site_symmetry_2
Cl1 C2 1_555 1_555
Cl2 C22 1_555 1_555
O1 C8 1_555 1_555
O2 C15 1_555 1_555
O3 C15 1_555 1_555
N1 C6 1_555 1_555
N2 C9 1_555 1_555
C1 C2 1_555 1_555
C2 C3 1_555 1_555
C3 H1 1_555 1_555
C4 C3 1_555 1_555
H2 C4 1_555 1_555
C5 C4 1_555 1_555
H3 C5 1_555 1_555
C6 C1 1_555 1_555
C7 N1 1_555 1_555
H4 C7 1_555 1_555
H5 C7 1_555 1_555
H6 C7 1_555 1_555
C8 N1 1_555 1_555
C9 C1 1_555 1_555
C10 N2 1_555 1_555
H7 C10 1_555 1_555
C11 C10 1_555 1_555
C12 C10 1_555 1_555
H8 C12 1_555 1_555
C13 C12 1_555 1_555
C14 C13 1_555 1_555
H9 C14 1_555 1_555
H10 C14 1_555 1_555
C15 C13 1_555 1_555
C16 O3 1_555 1_555
H11 C16 1_555 1_555
H12 C16 1_555 1_555
H13 C16 1_555 1_555
C17 C12 1_555 1_555
C18 C17 1_555 1_555
H14 C18 1_555 1_555
C19 C18 1_555 1_555
H15 C19 1_555 1_555
C20 C19 1_555 1_555
H16 C20 1_555 1_555
C21 C20 1_555 1_555
H17 C21 1_555 1_555
C22 C17 1_555 1_555
F1 C11 1_555 1_555
F2 C11 1_555 1_555
F3 C11 1_555 1_555
C5 C6 1_555 1_555
C8 C9 1_555 1_555
C21 C22 1_555 1_555

#END
