
#######################################################################
#
#                 Cambridge Crystallographic Data Centre
#                                CCDC 
#
#######################################################################
#
# If this CIF has been generated from an entry in the Cambridge 
# Structural Database, then it will include bibliographic, chemical, 
# crystal, experimental, refinement or atomic coordinate data resulting 
# from the CCDC's data processing and validation procedures.
#
#######################################################################

data_CUNPUY
_chemical_formula_moiety         'C21 H20 B1 Br1 N2'
_chemical_name_systematic        
2-(2-Bromophenyl)-1-mesityl-2,3-dihydro-1H-1,3,2-benzodiazaborole
_symmetry_cell_setting           orthorhombic
_symmetry_space_group_name_H-M   'P 21 21 21'
_symmetry_Int_Tables_number      19
_space_group_name_Hall           'P 2ac 2ab'
loop_
_symmetry_equiv_pos_site_id
_symmetry_equiv_pos_as_xyz
1 x,y,z
2 1/2-x,-y,1/2+z
3 1/2+x,1/2-y,-z
4 -x,1/2+y,1/2-z
_cell_length_a                   7.8983(6)
_cell_length_b                   14.4390(8)
_cell_length_c                   16.3846(9)
_cell_angle_alpha                90
_cell_angle_beta                 90
_cell_angle_gamma                90
_cell_volume                     1868.56
_exptl_crystal_colour            colorless
_exptl_crystal_description       block
_cell_formula_units_Z            4
loop_
_atom_site_label
_atom_site_type_symbol
_atom_site_fract_x
_atom_site_fract_y
_atom_site_fract_z
Br1 Br 0.12713(11) 0.40916(4) 0.44392(4)
N1 N 0.3614(4) 0.6530(2) 0.3013(2)
C1 C 0.3592(5) 0.7318(3) 0.3514(2)
C2 C 0.4530(5) 0.8125(3) 0.3471(3)
H1 H 0.5363 0.8207 0.3060
C3 C 0.4222(6) 0.8814(3) 0.4048(3)
H2 H 0.4844 0.9377 0.4031
C4 C 0.3002(6) 0.8677(3) 0.4649(3)
H3 H 0.2812 0.9152 0.5040
C5 C 0.2055(6) 0.7869(3) 0.4695(3)
H4 H 0.1225 0.7788 0.5109
C6 C 0.2352(5) 0.7191(3) 0.4125(3)
N2 N 0.1606(4) 0.6327(3) 0.3995(2)
H5 H 0.0847 0.6203 0.4331
B1 B 0.2361(6) 0.5886(3) 0.3303(3)
C7 C 0.1886(5) 0.4948(3) 0.2878(3)
C8 C 0.1398(6) 0.4134(3) 0.3282(3)
C9 C 0.0970(6) 0.3328(3) 0.2867(4)
H6 H 0.0667 0.2787 0.3163
C10 C 0.0984(7) 0.3312(4) 0.2035(4)
H7 H 0.0668 0.2765 0.1751
C11 C 0.1461(6) 0.4101(4) 0.1600(3)
H8 H 0.1471 0.4096 0.1021
C12 C 0.1922(5) 0.4892(3) 0.2026(3)
H9 H 0.2278 0.5420 0.1725
C13 C 0.4890(5) 0.6417(3) 0.2395(2)
C14 C 0.6248(5) 0.5819(3) 0.2544(2)
C15 C 0.7475(5) 0.5726(3) 0.1942(2)
H10 H 0.8396 0.5316 0.2034
C16 C 0.7405(5) 0.6210(3) 0.1213(2)
C17 C 0.6024(5) 0.6807(3) 0.1089(3)
H11 H 0.5957 0.7148 0.0594
C18 C 0.4759(5) 0.6912(3) 0.1665(2)
C19 C 0.6370(7) 0.5274(3) 0.3319(3)
H12 H 0.7510 0.5014 0.3371
H13 H 0.5537 0.4771 0.3310
H14 H 0.6140 0.5681 0.3785
C20 C 0.8759(7) 0.6106(4) 0.0568(3)
H15 H 0.9467 0.6663 0.0559
H16 H 0.8226 0.6022 0.0033
H17 H 0.9462 0.5566 0.0695
C21 C 0.3260(6) 0.7522(4) 0.1493(3)
H18 H 0.2234 0.7235 0.1715
H19 H 0.3135 0.7601 0.0902
H20 H 0.3432 0.8128 0.1749
loop_
_geom_bond_atom_site_label_1
_geom_bond_atom_site_label_2
_geom_bond_site_symmetry_1
_geom_bond_site_symmetry_2
Br1 C8 1_555 1_555
N1 C1 1_555 1_555
C1 C2 1_555 1_555
C2 H1 1_555 1_555
C3 C2 1_555 1_555
H2 C3 1_555 1_555
C4 C3 1_555 1_555
H3 C4 1_555 1_555
C5 C4 1_555 1_555
H4 C5 1_555 1_555
C6 C1 1_555 1_555
N2 C6 1_555 1_555
H5 N2 1_555 1_555
B1 N1 1_555 1_555
C7 B1 1_555 1_555
C8 C7 1_555 1_555
C9 C8 1_555 1_555
H6 C9 1_555 1_555
C10 C9 1_555 1_555
H7 C10 1_555 1_555
C11 C10 1_555 1_555
H8 C11 1_555 1_555
C12 C7 1_555 1_555
H9 C12 1_555 1_555
C13 N1 1_555 1_555
C14 C13 1_555 1_555
C15 C14 1_555 1_555
H10 C15 1_555 1_555
C16 C15 1_555 1_555
C17 C16 1_555 1_555
H11 C17 1_555 1_555
C18 C13 1_555 1_555
C19 C14 1_555 1_555
H12 C19 1_555 1_555
H13 C19 1_555 1_555
H14 C19 1_555 1_555
C20 C16 1_555 1_555
H15 C20 1_555 1_555
H16 C20 1_555 1_555
H17 C20 1_555 1_555
C21 C18 1_555 1_555
H18 C21 1_555 1_555
H19 C21 1_555 1_555
H20 C21 1_555 1_555
C5 C6 1_555 1_555
N2 B1 1_555 1_555
C11 C12 1_555 1_555
C17 C18 1_555 1_555

#END
