
#######################################################################
#
#                 Cambridge Crystallographic Data Centre
#                                CCDC 
#
#######################################################################
#
# If this CIF has been generated from an entry in the Cambridge 
# Structural Database, then it will include bibliographic, chemical, 
# crystal, experimental, refinement or atomic coordinate data resulting 
# from the CCDC's data processing and validation procedures.
#
#######################################################################

data_CUNWIT
_chemical_formula_moiety         'C18 H20 N2 O5 S1,C1 H1 Cl3'
_chemical_name_systematic        
'N-(2-(hydroxy(4-methylphenyl)methyl)but-3-en-1-yl)-4-nitrobenzenesulfonamide chloroform solvate'
_symmetry_cell_setting           monoclinic
_symmetry_space_group_name_H-M   'P 21'
_symmetry_Int_Tables_number      4
_space_group_name_Hall           'P 2yb'
loop_
_symmetry_equiv_pos_site_id
_symmetry_equiv_pos_as_xyz
1 x,y,z
2 -x,1/2+y,-z
_cell_length_a                   5.34030(10)
_cell_length_b                   12.4724(2)
_cell_length_c                   17.1880(3)
_cell_angle_alpha                90
_cell_angle_beta                 91.564(2)
_cell_angle_gamma                90
_cell_volume                     1144.4
_exptl_crystal_colour            colorless
_exptl_crystal_description       plates
_cell_formula_units_Z            2
loop_
_atom_site_label
_atom_site_type_symbol
_atom_site_fract_x
_atom_site_fract_y
_atom_site_fract_z
C1 C 0.8313(6) 0.6272(3) 0.71240(18)
C2 C 0.7783(7) 0.5680(3) 0.7778(2)
H1 H 0.8622 0.5022 0.7881
C3 C 0.6000(9) 0.6064(4) 0.8286(2)
H2 H 0.5585 0.5667 0.8736
C4 C 0.4859(7) 0.7024(3) 0.8122(2)
C5 C 0.5368(8) 0.7623(3) 0.7475(2)
H3 H 0.4541 0.8287 0.7380
C6 C 0.7114(7) 0.7238(3) 0.6962(2)
H4 H 0.7487 0.7630 0.6506
C7 C 0.7236(6) 0.4184(3) 0.60245(18)
H5 H 0.5647 0.4447 0.6239
H6 H 0.8144 0.3775 0.6437
C8 C 0.6671(5) 0.3450(2) 0.53244(17)
H7 H 0.8253 0.3082 0.5178
C9 C 0.5714(6) 0.4099(3) 0.46393(19)
H8 H 0.4095 0.4409 0.4670
C10 C 0.6971(7) 0.4266(3) 0.4000(2)
H9 H 0.8596 0.3967 0.3950
H10 H 0.6252 0.4684 0.3590
C11 C 0.4742(6) 0.2597(3) 0.55467(17)
H11 H 0.3138 0.2980 0.5646
C12 C 0.5454(6) 0.1982(3) 0.62824(18)
C13 C 0.7548(6) 0.1318(3) 0.6319(2)
H12 H 0.8579 0.1246 0.5881
C14 C 0.8128(6) 0.0756(3) 0.7005(2)
H13 H 0.9552 0.0300 0.7024
C15 C 0.6680(7) 0.0849(3) 0.7658(2)
C16 C 0.4616(7) 0.1524(3) 0.7618(2)
H14 H 0.3592 0.1599 0.8058
C17 C 0.4025(6) 0.2094(3) 0.6939(2)
H15 H 0.2626 0.2565 0.6927
C18 C 0.7292(10) 0.0229(4) 0.8397(3)
H16 H 0.6922 -0.0532 0.8313
H17 H 0.6278 0.0503 0.8820
H18 H 0.9073 0.0316 0.8535
N1 N 0.2943(8) 0.7416(4) 0.8654(2)
N2 N 0.8775(5) 0.5104(2) 0.57824(15)
O1 O 0.2457(9) 0.6877(4) 0.9214(3)
O2 O 0.1914(9) 0.8257(4) 0.8513(3)
O3 O 1.1914(4) 0.4960(2) 0.68566(15)
O4 O 1.1564(5) 0.6616(2) 0.60573(15)
O5 O 0.4264(5) 0.18769(19) 0.49075(14)
S1 S 1.04092(12) 0.57271(6) 0.64461(4)
H19 H 0.535(8) 0.178(3) 0.468(2)
H20 H 0.788(8) 0.560(4) 0.545(3)
C19 C 1.0387(10) 0.3370(5) 0.9579(3)
H21 H 0.9172 0.3255 0.9972
Cl1 Cl 0.9115(3) 0.29573(11) 0.86823(8)
Cl2 Cl 1.1142(5) 0.46730(18) 0.95641(11)
Cl3 Cl 1.3102(4) 0.2537(2) 0.97935(11)
H22? H 1.0020 0.2853 0.9974
Cl4? Cl 0.8880(10) 0.4797(4) 0.9843(3)
Cl5? Cl 1.3597(11) 0.3787(8) 0.9673(5)
loop_
_geom_bond_atom_site_label_1
_geom_bond_atom_site_label_2
_geom_bond_site_symmetry_1
_geom_bond_site_symmetry_2
C1 C2 1_555 1_555
C2 H1 1_555 1_555
C3 C2 1_555 1_555
H2 C3 1_555 1_555
C4 C3 1_555 1_555
C5 C4 1_555 1_555
H3 C5 1_555 1_555
C6 C1 1_555 1_555
H4 C6 1_555 1_555
C7 H5 1_555 1_555
H6 C7 1_555 1_555
C8 C7 1_555 1_555
H7 C8 1_555 1_555
C9 C8 1_555 1_555
H8 C9 1_555 1_555
C10 C9 1_555 1_555
H9 C10 1_555 1_555
H10 C10 1_555 1_555
C11 C8 1_555 1_555
H11 C11 1_555 1_555
C12 C11 1_555 1_555
C13 C12 1_555 1_555
H12 C13 1_555 1_555
C14 C13 1_555 1_555
H13 C14 1_555 1_555
C15 C14 1_555 1_555
C16 C15 1_555 1_555
H14 C16 1_555 1_555
C17 C12 1_555 1_555
H15 C17 1_555 1_555
C18 C15 1_555 1_555
H16 C18 1_555 1_555
H17 C18 1_555 1_555
H18 C18 1_555 1_555
N1 C4 1_555 1_555
N2 C7 1_555 1_555
O1 N1 1_555 1_555
O2 N1 1_555 1_555
O3 S1 1_555 1_555
O4 S1 1_555 1_555
O5 C11 1_555 1_555
S1 C1 1_555 1_555
H19 O5 1_555 1_555
H20 N2 1_555 1_555
C19 H21 1_555 1_555
Cl1 C19 1_555 1_555
Cl2 C19 1_555 1_555
Cl3 C19 1_555 1_555
C5 C6 1_555 1_555
C16 C17 1_555 1_555
N2 S1 1_555 1_555

#END
