
#######################################################################
#
#                 Cambridge Crystallographic Data Centre
#                                CCDC 
#
#######################################################################
#
# If this CIF has been generated from an entry in the Cambridge 
# Structural Database, then it will include bibliographic, chemical, 
# crystal, experimental, refinement or atomic coordinate data resulting 
# from the CCDC's data processing and validation procedures.
#
#######################################################################

data_CUPFOI
_chemical_formula_moiety         'C12 H18 N2 O4'
_chemical_name_systematic        
Dimethyl-3,4,4a,5,6,7,8,8a-octahydrophthalazine-1,4-dicarboxylate
_symmetry_cell_setting           triclinic
_symmetry_space_group_name_H-M   'P -1'
_symmetry_Int_Tables_number      2
_space_group_name_Hall           '-P 1'
loop_
_symmetry_equiv_pos_site_id
_symmetry_equiv_pos_as_xyz
1 x,y,z
2 -x,-y,-z
_cell_length_a                   5.7115(2)
_cell_length_b                   10.3406(4)
_cell_length_c                   11.0786(4)
_cell_angle_alpha                102.659(2)
_cell_angle_beta                 92.348(2)
_cell_angle_gamma                104.305(2)
_cell_volume                     615.468
_exptl_crystal_colour            colorless
_exptl_crystal_description       acicular
_chemical_melting_point          410-412K
_cell_formula_units_Z            2
loop_
_atom_site_label
_atom_site_type_symbol
_atom_site_fract_x
_atom_site_fract_y
_atom_site_fract_z
O1 O 0.34152(16) 0.90042(10) 0.83870(9)
C1 C 0.5020(2) 1.19264(13) 0.53588(11)
H1 H 0.5565 1.1112 0.4927
O2 O -0.01994(15) 0.93558(9) 0.79295(9)
N1 N 0.24449(19) 1.14751(12) 0.54937(11)
O3 O 0.38266(15) 1.33890(9) 0.41505(9)
N2 N 0.16906(18) 1.06592(11) 0.62832(10)
O4 O 0.77145(15) 1.32872(9) 0.43363(8)
C2 C 0.3220(2) 1.05891(12) 0.71448(11)
C3 C 0.7010(2) 1.18394(13) 0.87023(12)
H2 H 0.6510 1.1094 0.9141
H3 H 0.8803 1.2082 0.8731
C4 C 0.6230(3) 1.30897(14) 0.93835(12)
H4 H 0.7052 1.3414 1.0240
H5 H 0.4455 1.2831 0.9438
C5 C 0.6873(3) 1.42433(14) 0.87023(12)
H6 H 0.8656 1.4543 0.8693
H7 H 0.6320 1.5040 0.9142
C6 C 0.5656(2) 1.37410(13) 0.73709(12)
H8 H 0.6108 1.4491 0.6932
H9 H 0.3871 1.3502 0.7387
C7 C 0.2202(2) 0.95810(13) 0.78863(11)
C8 C -0.1276(2) 0.83635(14) 0.86245(13)
H10 H -0.1078 0.7460 0.8220
H11 H -0.3009 0.8312 0.8650
H12 H -0.0470 0.8647 0.9474
C9 C 0.5384(2) 1.29510(12) 0.45532(11)
C10 C 0.8341(2) 1.42546(14) 0.35568(13)
H13 H 0.7340 1.3889 0.2757
H14 H 1.0060 1.4396 0.3418
H15 H 0.8046 1.5132 0.3969
C11 C 0.5923(2) 1.13072(12) 0.73370(11)
H16 H 0.6789 1.0624 0.6928
C12 C 0.6402(2) 1.24832(12) 0.66572(11)
H17 H 0.8179 1.2764 0.6566
H18 H 0.146(3) 1.1205(17) 0.4806(16)
loop_
_geom_bond_atom_site_label_1
_geom_bond_atom_site_label_2
_geom_bond_site_symmetry_1
_geom_bond_site_symmetry_2
O1 C7 1_555 1_555
C1 H1 1_555 1_555
O2 C7 1_555 1_555
N1 C1 1_555 1_555
O3 C9 1_555 1_555
N2 N1 1_555 1_555
O4 C9 1_555 1_555
C2 N2 1_555 1_555
C3 H2 1_555 1_555
H3 C3 1_555 1_555
C4 C3 1_555 1_555
H4 C4 1_555 1_555
H5 C4 1_555 1_555
C5 C4 1_555 1_555
H6 C5 1_555 1_555
H7 C5 1_555 1_555
C6 C5 1_555 1_555
H8 C6 1_555 1_555
H9 C6 1_555 1_555
C7 C2 1_555 1_555
C8 O2 1_555 1_555
H10 C8 1_555 1_555
H11 C8 1_555 1_555
H12 C8 1_555 1_555
C9 C1 1_555 1_555
C10 O4 1_555 1_555
H13 C10 1_555 1_555
H14 C10 1_555 1_555
H15 C10 1_555 1_555
C11 C2 1_555 1_555
H16 C11 1_555 1_555
C12 C1 1_555 1_555
H17 C12 1_555 1_555
H18 N1 1_555 1_555
C3 C11 1_555 1_555
C6 C12 1_555 1_555
C11 C12 1_555 1_555

#END
