
#######################################################################
#
#                 Cambridge Crystallographic Data Centre
#                                CCDC 
#
#######################################################################
#
# If this CIF has been generated from an entry in the Cambridge 
# Structural Database, then it will include bibliographic, chemical, 
# crystal, experimental, refinement or atomic coordinate data resulting 
# from the CCDC's data processing and validation procedures.
#
#######################################################################

data_CUPGIF
_chemical_formula_moiety         'C24 H18 N2'
_chemical_name_systematic        1,8-bis[(E)-2-(4-Pyridyl)ethenyl]naphthalene
_symmetry_cell_setting           triclinic
_symmetry_space_group_name_H-M   'P -1'
_symmetry_Int_Tables_number      2
_space_group_name_Hall           '-P 1'
loop_
_symmetry_equiv_pos_site_id
_symmetry_equiv_pos_as_xyz
1 x,y,z
2 -x,-y,-z
_cell_length_a                   9.4274(9)
_cell_length_b                   12.3411(12)
_cell_length_c                   15.5934(16)
_cell_angle_alpha                83.302(5)
_cell_angle_beta                 82.714(5)
_cell_angle_gamma                79.240(5)
_cell_volume                     1759.85
_exptl_crystal_colour            colorless
_exptl_crystal_description       blade
_cell_formula_units_Z            4
loop_
_atom_site_label
_atom_site_type_symbol
_atom_site_fract_x
_atom_site_fract_y
_atom_site_fract_z
C1 C 0.2502(8) 0.8403(6) 0.7518(5)
C2 C 0.1589(9) 0.7923(7) 0.8210(5)
C3 C 0.3557(9) 1.0023(7) 0.6864(6)
H1 H 0.3562 1.0796 0.6834
C4 C 0.4377(9) 0.8289(7) 0.6276(5)
H2 H 0.4999 0.7877 0.5855
C5 C 0.3399(9) 0.7773(7) 0.6846(5)
C6 C 0.2583(9) 0.9546(7) 0.7501(5)
C7 C 0.0670(9) 0.8596(7) 0.8760(5)
H3 H 0.0014 0.8288 0.9191
C8 C 0.4469(9) 0.9414(7) 0.6307(6)
H4 H 0.5181 0.9738 0.5929
C9 C -0.0313(11) 0.3349(8) 0.9185(6)
H5 H -0.1182 0.3052 0.9330
C10 C -0.0455(10) 0.4489(7) 0.9057(5)
H6 H -0.1381 0.4948 0.9133
C11 C 0.1676(10) 1.0189(7) 0.8107(6)
H7 H 0.1750 1.0945 0.8112
C12 C 0.0620(10) 0.6171(7) 0.8636(6)
H8 H -0.0329 0.6594 0.8715
C13 C 0.0694(10) 0.9742(8) 0.8686(6)
H9 H 0.0015 1.0207 0.9046
C14 C 0.1707(10) 0.6717(7) 0.8373(5)
H10 H 0.2650 0.6286 0.8281
C15 C 0.2392(10) 0.4514(7) 0.6357(6)
H11 H 0.1576 0.5038 0.6551
C16 C 0.2240(11) 0.3470(8) 0.6198(7)
H12 H 0.1278 0.3320 0.6262
C17 C 0.4100(9) 0.5866(8) 0.6380(6)
H13 H 0.5070 0.5988 0.6233
N1 N 0.3297(10) 0.2650(6) 0.5965(6)
C18 C 0.4649(11) 0.2938(8) 0.5852(6)
H14 H 0.5459 0.2384 0.5701
C19 C 0.4902(10) 0.3949(8) 0.5942(6)
H15 H 0.5861 0.4103 0.5812
C20 C 0.3133(10) 0.6685(7) 0.6711(6)
H16 H 0.2174 0.6544 0.6875
C21 C 0.3780(10) 0.4779(7) 0.6224(5)
C22 C 0.0774(9) 0.4940(7) 0.8816(5)
C23 C 0.2078(10) 0.4225(8) 0.8744(7)
H17 H 0.2953 0.4510 0.8581
N2 N 0.0928(10) 0.2628(7) 0.9126(6)
C24 C 0.2125(11) 0.3105(8) 0.8904(6)
H18 H 0.3048 0.2636 0.8857
N3 N 0.0988(7) -0.2077(5) 0.4189(4)
C25 C 0.3337(8) 0.1484(6) 0.1083(5)
H19 H 0.3053 0.1971 0.0593
C26 C 0.1915(8) 0.3173(6) 0.3274(5)
C27 C 0.2711(8) 0.3695(6) 0.2548(5)
C28 C 0.1484(8) 0.0135(6) 0.4047(5)
C29 C 0.3353(8) -0.1203(7) 0.0203(6)
H20 H 0.3156 -0.1435 -0.0323
C30 C 0.2750(8) 0.4850(6) 0.2552(5)
N4 N 0.3776(8) -0.1985(6) 0.0831(5)
C31 C 0.3584(8) 0.1946(6) 0.1777(5)
H21 H 0.3847 0.1465 0.2275
C32 C 0.1773(8) -0.0594(6) 0.4773(5)
H22 H 0.2142 -0.0359 0.5246
C33 C 0.3468(7) 0.0294(6) 0.1018(5)
C34 C 0.1767(8) 0.1273(6) 0.3987(5)
H23 H 0.2083 0.1496 0.4484
C35 C 0.1522(9) -0.1673(7) 0.4806(6)
H24 H 0.1750 -0.2157 0.5309
C36 C 0.0932(9) -0.0282(7) 0.3390(5)
H25 H 0.0701 0.0175 0.2876
C37 C 0.1622(8) 0.2019(6) 0.3303(5)
H26 H 0.1314 0.1806 0.2800
C38 C 0.1306(9) 0.3748(7) 0.3967(5)
H27 H 0.0819 0.3383 0.4455
C39 C 0.3186(8) -0.0087(6) 0.0270(5)
H28 H 0.2875 0.0426 -0.0201
C40 C 0.4190(9) 0.3728(7) 0.1153(5)
H29 H 0.4676 0.3362 0.0667
C41 C 0.0727(9) -0.1369(7) 0.3498(6)
H30 H 0.0367 -0.1634 0.3035
C42 C 0.2063(9) 0.5412(7) 0.3279(6)
H31 H 0.2080 0.6179 0.3279
C43 C 0.1391(9) 0.4882(7) 0.3966(6)
H32 H 0.0970 0.5268 0.4454
C44 C 0.3478(8) 0.3134(6) 0.1821(5)
C45 C 0.3519(9) 0.5399(7) 0.1865(6)
H33 H 0.3557 0.6160 0.1881
C46 C 0.4218(10) 0.4862(7) 0.1172(6)
H34 H 0.4721 0.5252 0.0704
C47 C 0.3907(9) -0.0511(7) 0.1681(5)
H35 H 0.4122 -0.0306 0.2212
C48 C 0.4022(10) -0.1610(7) 0.1548(6)
H36 H 0.4302 -0.2144 0.2013
loop_
_geom_bond_atom_site_label_1
_geom_bond_atom_site_label_2
_geom_bond_site_symmetry_1
_geom_bond_site_symmetry_2
C1 C2 1_555 1_555
C2 C7 1_555 1_555
C3 H1 1_555 1_555
C4 H2 1_555 1_555
C5 C1 1_555 1_555
C6 C1 1_555 1_555
C7 H3 1_555 1_555
C8 C3 1_555 1_555
H4 C8 1_555 1_555
C9 H5 1_555 1_555
C10 C9 1_555 1_555
H6 C10 1_555 1_555
C11 C6 1_555 1_555
H7 C11 1_555 1_555
C12 H8 1_555 1_555
C13 C7 1_555 1_555
H9 C13 1_555 1_555
C14 C2 1_555 1_555
H10 C14 1_555 1_555
C15 H11 1_555 1_555
C16 C15 1_555 1_555
H12 C16 1_555 1_555
C17 H13 1_555 1_555
N1 C16 1_555 1_555
C18 N1 1_555 1_555
H14 C18 1_555 1_555
C19 C18 1_555 1_555
H15 C19 1_555 1_555
C20 C5 1_555 1_555
H16 C20 1_555 1_555
C21 C15 1_555 1_555
C22 C10 1_555 1_555
C23 C22 1_555 1_555
H17 C23 1_555 1_555
N2 C9 1_555 1_555
C24 C23 1_555 1_555
H18 C24 1_555 1_555
N3 C35 1_555 1_555
C25 H19 1_555 1_555
C26 C27 1_555 1_555
C27 C30 1_555 1_555
C28 C32 1_555 1_555
C29 H20 1_555 1_555
C30 C42 1_555 1_555
N4 C29 1_555 1_555
C31 C25 1_555 1_555
H21 C31 1_555 1_555
C32 H22 1_555 1_555
C33 C25 1_555 1_555
C34 C28 1_555 1_555
H23 C34 1_555 1_555
C35 C32 1_555 1_555
H24 C35 1_555 1_555
C36 C28 1_555 1_555
H25 C36 1_555 1_555
C37 C26 1_555 1_555
H26 C37 1_555 1_555
C38 C26 1_555 1_555
H27 C38 1_555 1_555
C39 C29 1_555 1_555
H28 C39 1_555 1_555
C40 H29 1_555 1_555
C41 N3 1_555 1_555
H30 C41 1_555 1_555
C42 H31 1_555 1_555
C43 C38 1_555 1_555
H32 C43 1_555 1_555
C44 C27 1_555 1_555
C45 C30 1_555 1_555
H33 C45 1_555 1_555
C46 C40 1_555 1_555
H34 C46 1_555 1_555
C47 C33 1_555 1_555
H35 C47 1_555 1_555
C48 N4 1_555 1_555
H36 C48 1_555 1_555
C3 C6 1_555 1_555
C4 C5 1_555 1_555
C4 C8 1_555 1_555
C11 C13 1_555 1_555
C12 C14 1_555 1_555
C12 C22 1_555 1_555
C17 C20 1_555 1_555
C17 C21 1_555 1_555
C19 C21 1_555 1_555
N2 C24 1_555 1_555
C31 C44 1_555 1_555
C33 C39 1_555 1_555
C34 C37 1_555 1_555
C36 C41 1_555 1_555
C40 C44 1_555 1_555
C42 C43 1_555 1_555
C45 C46 1_555 1_555
C47 C48 1_555 1_555

#END
