
#######################################################################
#
#                 Cambridge Crystallographic Data Centre
#                                CCDC 
#
#######################################################################
#
# If this CIF has been generated from an entry in the Cambridge 
# Structural Database, then it will include bibliographic, chemical, 
# crystal, experimental, refinement or atomic coordinate data resulting 
# from the CCDC's data processing and validation procedures.
#
#######################################################################

data_CUPGEB
_chemical_formula_moiety         'C24 H20 N2 2+,2(Br1 1-)'
_chemical_name_systematic        
'cis-bis(4-Pyridyl)naphthocyclobutane bis(hydrobromide)'
_symmetry_cell_setting           monoclinic
_symmetry_space_group_name_H-M   'C 2/c'
_symmetry_Int_Tables_number      15
_space_group_name_Hall           '-C 2yn'
loop_
_symmetry_equiv_pos_site_id
_symmetry_equiv_pos_as_xyz
1 x,y,z
2 -x,y,1/2-z
3 1/2+x,1/2+y,z
4 1/2-x,1/2+y,1/2-z
5 -x,-y,-z
6 x,-y,1/2+z
7 1/2-x,1/2-y,-z
8 1/2+x,1/2-y,1/2+z
_cell_length_a                   16.3504(16)
_cell_length_b                   14.9527(15)
_cell_length_c                   9.2389(9)
_cell_angle_alpha                90
_cell_angle_beta                 92.387(5)
_cell_angle_gamma                90
_cell_volume                     2256.79
_exptl_crystal_colour            'pale yellow'
_exptl_crystal_description       lath
_cell_formula_units_Z            4
loop_
_atom_site_label
_atom_site_type_symbol
_atom_site_fract_x
_atom_site_fract_y
_atom_site_fract_z
Br1 Br 0.21700(5) 0.59604(5) 0.16809(8)
C1 C 0.0555(9) -0.0151(9) 0.1594(16)
C2 C 0.1246(13) -0.0590(14) 0.1165(18)
H1 H 0.1647 -0.0252 0.0687
C3 C 0.1394(15) -0.150(2) 0.139(4)
H2 H 0.1880 -0.1774 0.1068
C4 C 0.0821(10) -0.2002(13) 0.2089(19)
H3 H 0.0917 -0.2622 0.2243
C5 C 0.0094(16) -0.1616(7) 0.258(4)
C6 C -0.007(2) -0.0683(7) 0.238(3)
C7 C 0.0959(10) 0.2312(8) 0.225(2)
C8 C 0.1279(10) 0.2427(9) 0.0944(17)
H4 H 0.1247 0.1955 0.0256
C9 C 0.1651(13) 0.3216(11) 0.0589(18)
H5 H 0.1856 0.3295 -0.0349
H6 H 0.1953 0.4388 0.1337
C10 C 0.1454(19) 0.3775(13) 0.2899(19)
H7 H 0.1531 0.4234 0.3601
C11 C 0.1061(12) 0.2988(12) 0.3245(16)
H8 H 0.0858 0.2915 0.4186
N1 N 0.164(3) 0.3896(16) 0.166(2)
C12 C 0.0232(7) 0.0791(8) 0.1517(13)
H9 H 0.0212 0.1051 0.0519
C13 C 0.0563(7) 0.1453(8) 0.2721(13)
H10 H 0.0955 0.1126 0.3390
C1A C -0.0555(9) -0.0151(9) 0.3406(16)
C2A C -0.1246(13) -0.0590(14) 0.3835(18)
H1A H -0.1647 -0.0252 0.4313
C3A C -0.1394(15) -0.150(2) 0.361(4)
H2A H -0.1880 -0.1774 0.3932
C4A C -0.0821(10) -0.2002(13) 0.2911(19)
H3A H -0.0917 -0.2622 0.2757
C5A C -0.0094(16) -0.1616(7) 0.242(4)
C6A C 0.007(2) -0.0683(7) 0.262(3)
C7A C -0.0959(10) 0.2312(8) 0.275(2)
C8A C -0.1279(10) 0.2427(9) 0.4056(17)
H4A H -0.1247 0.1955 0.4744
C9A C -0.1651(13) 0.3216(11) 0.4411(18)
H5A H -0.1856 0.3295 0.5349
H6A H -0.1953 0.4388 0.3663
C10A C -0.1454(19) 0.3775(13) 0.2101(19)
H7A H -0.1531 0.4234 0.1399
C11A C -0.1061(12) 0.2988(12) 0.1755(16)
H8A H -0.0858 0.2915 0.0814
N1A N -0.164(3) 0.3896(16) 0.334(2)
C12A C -0.0232(7) 0.0791(8) 0.3483(13)
H9A H -0.0212 0.1051 0.4481
C13A C -0.0563(7) 0.1453(8) 0.2279(13)
H10A H -0.0955 0.1126 0.1610
N2? N 0.172(3) 0.3879(15) 0.158(2)
H11? H -0.1904 0.4408 0.3338
C14? C -0.1344(18) 0.3592(14) 0.2117(19)
H12? H 0.1422 0.3922 0.3757
C15? C -0.1535(12) 0.3432(11) 0.4584(16)
H13? H 0.1758 0.3652 -0.0448
C16? C -0.0923(12) 0.2789(13) 0.2130(16)
H14? H 0.0723 0.2561 0.3748
C17? C -0.1108(10) 0.2641(10) 0.4602(15)
H15? H -0.1038 0.2318 0.5483
C18? C -0.0788(10) 0.2317(10) 0.3393(19)
C19? C -0.0308(7) 0.1456(9) 0.3398(14)
H16? H 0.0281 0.1183 0.0613
C20? C -0.0622(7) 0.0754(8) 0.2229(12)
H17? H 0.1088 0.0971 0.3413
C21? C -0.0707(9) -0.0194(8) 0.2725(15)
C22? C -0.1373(13) -0.0624(14) 0.3346(18)
H18? H 0.1871 -0.0334 0.1446
C23? C -0.1210(16) -0.156(2) 0.363(5)
H19? H 0.1608 -0.1879 0.0848
C24? C -0.0555(11) -0.2038(14) 0.3239(19)
H20? H 0.0535 -0.2665 0.1591
loop_
_geom_bond_atom_site_label_1
_geom_bond_atom_site_label_2
_geom_bond_site_symmetry_1
_geom_bond_site_symmetry_2
C1 C2 1_555 1_555
C2 H1 1_555 1_555
C3 C2 1_555 1_555
H2 C3 1_555 1_555
C4 C3 1_555 1_555
H3 C4 1_555 1_555
C5 C4 1_555 1_555
C6 C1 1_555 1_555
C7 C8 1_555 1_555
C8 H4 1_555 1_555
C9 C8 1_555 1_555
H5 C9 1_555 1_555
H6 N1 1_555 1_555
C10 H7 1_555 1_555
C11 C7 1_555 1_555
H8 C11 1_555 1_555
N1 C9 1_555 1_555
C12 C1 1_555 1_555
H9 C12 1_555 1_555
C13 C7 1_555 1_555
H10 C13 1_555 1_555
C1A C6 1_555 1_555
C2A C1A 1_555 1_555
H1A C2A 1_555 1_555
C3A C2A 1_555 1_555
H2A C3A 1_555 1_555
C4A C5 1_555 1_555
H3A C4A 1_555 1_555
C5A C4 1_555 1_555
C6A C1 1_555 1_555
C7A C8A 1_555 1_555
C8A H4A 1_555 1_555
C9A C8A 1_555 1_555
H5A C9A 1_555 1_555
H6A N1A 1_555 1_555
C10A H7A 1_555 1_555
C11A C7A 1_555 1_555
H8A C11A 1_555 1_555
N1A C9A 1_555 1_555
C12A C13 1_555 1_555
H9A C12A 1_555 1_555
C13A C12 1_555 1_555
H10A C13A 1_555 1_555
C5 C6 1_555 1_555
C5 C6A 1_555 1_555
C6 C5A 1_555 1_555
C10 C11 1_555 1_555
C10 N1 1_555 1_555
C12 C13 1_555 1_555
C1A C6A 1_555 1_555
C1A C12A 1_555 1_555
C3A C4A 1_555 1_555
C4A C5A 1_555 1_555
C5A C6A 1_555 1_555
C7A C13A 1_555 1_555
C10A C11A 1_555 1_555
C10A N1A 1_555 1_555
C12A C13A 1_555 1_555

#END
