
#######################################################################
#
#                 Cambridge Crystallographic Data Centre
#                                CCDC 
#
#######################################################################
#
# If this CIF has been generated from an entry in the Cambridge 
# Structural Database, then it will include bibliographic, chemical, 
# crystal, experimental, refinement or atomic coordinate data resulting 
# from the CCDC's data processing and validation procedures.
#
#######################################################################

data_CUPTAJ
_chemical_name_common            
14-(((2-Chlorobenzyl)oxy)imino)-10-((4-(dimethylamino)-3-hydroxy-6-methyltetrahydro-2H-pyran-2-yl)oxy)-4-ethyl-8-((3-(isoquinolin-4-yl)prop-1-en-1-yl)oxy)-11-methoxy-3a,7,9,11,13,15-hexamethyldecahydro-4H-[1,3]dioxolo[4,5-c]oxacyclotetradecine-2,6(3aH)-dione
_chemical_formula_moiety         'C50 H68 Cl1 N3 O11'
_chemical_name_systematic        
"3-O-(3-(4'-Isoquinolyl)-Z-1-propenyl)-6-O-methylerythromycin A 9-O-(2-chlorobenzyl)oxime 11,12-carbonate"
_chemical_properties_biological  'tested for antibacterial activity'
_symmetry_cell_setting           monoclinic
_symmetry_space_group_name_H-M   'P 21'
_symmetry_Int_Tables_number      4
_space_group_name_Hall           'P 2yb'
loop_
_symmetry_equiv_pos_site_id
_symmetry_equiv_pos_as_xyz
1 x,y,z
2 -x,1/2+y,-z
_cell_length_a                   17.854(4)
_cell_length_b                   7.8638(16)
_cell_length_c                   18.393(4)
_cell_angle_alpha                90
_cell_angle_beta                 99.17(3)
_cell_angle_gamma                90
_cell_volume                     2549.38
_exptl_crystal_colour            colorless
_exptl_crystal_description       plate
_cell_formula_units_Z            2
loop_
_atom_site_label
_atom_site_type_symbol
_atom_site_fract_x
_atom_site_fract_y
_atom_site_fract_z
O1 O 0.79414(13) 0.7929(3) 0.45305(12)
O2 O 0.85380(16) 0.9227(4) 0.55526(15)
O3 O 0.91979(13) 0.7731(3) 0.48235(11)
O4 O 0.91842(11) 0.7805(3) 0.28387(11)
O5 O 0.82512(13) 0.9526(3) 0.22796(13)
O6 O 0.83492(14) 0.6187(3) 0.04392(12)
O7 O 0.70183(12) 0.3195(3) 0.10020(12)
O8 O 0.76907(15) 0.1325(4) -0.00763(19)
O9 O 0.60468(12) 0.3937(3) 0.01127(11)
O10 O 0.69057(13) 0.6188(3) 0.25096(13)
N1 N 0.66125(19) 0.5413(5) 0.41748(18)
N2 N 0.8195(2) 0.4191(7) -0.29898(19)
C1 C 0.70859(17) 0.4503(5) 0.39033(18)
C2 C 0.79201(19) 0.4883(4) 0.41951(18)
H1 H 0.8228 0.4077 0.3943
C3 C 0.81588(17) 0.6687(4) 0.40077(16)
H2 H 0.7906 0.6988 0.3499
C4 C 0.90273(18) 0.7058(4) 0.40787(17)
C5 C 0.91540(18) 0.8556(4) 0.35614(16)
H3 H 0.8714 0.9356 0.3523
C6 C 0.87364(16) 0.8476(4) 0.22447(16)
C7 C 0.89263(17) 0.7726(4) 0.15380(15)
H4 H 0.9351 0.6894 0.1661
C8 C 0.82117(17) 0.6774(4) 0.11461(16)
H5 H 0.7773 0.7580 0.1073
C9 C 0.80115(16) 0.5247(4) 0.15939(17)
H6 H 0.8104 0.5614 0.2121
C10 C 0.71533(16) 0.4779(4) 0.14144(17)
H7 H 0.6885 0.5715 0.1109
C11 C 0.67846(17) 0.4587(5) 0.21208(18)
C12 C 0.71920(18) 0.3262(4) 0.26418(17)
H8 H 0.7735 0.3576 0.2751
H9 H 0.7159 0.2156 0.2382
C13 C 0.68983(19) 0.3018(5) 0.33794(18)
H10 H 0.6334 0.2889 0.3274
O11 O 0.5814(3) 0.4720(8) 0.3832(3)
C14 C 0.5257(3) 0.5627(10) 0.4153(4)
H11 H 0.5191 0.6780 0.3936
H12 H 0.5428 0.5750 0.4690
C15 C 0.4522(3) 0.4705(10) 0.4021(3)
C16 C 0.4452(4) 0.3078(9) 0.3677(4)
H13 H 0.4881 0.2564 0.3523
C17 C 0.3730(5) 0.2201(14) 0.3563(5)
H14 H 0.3675 0.1124 0.3326
C18 C 0.3127(4) 0.2972(13) 0.3806(5)
H15 H 0.2655 0.2389 0.3752
C19 C 0.3181(4) 0.4602(14) 0.4133(4)
H16 H 0.2751 0.5108 0.4290
C20 C 0.3846(4) 0.5424(12) 0.4219(4)
Cl1 Cl 0.39190(14) 0.7364(5) 0.4647(2)
C21 C 0.8093(2) 0.4471(6) 0.5030(2)
H17 H 0.8626 0.4729 0.5217
H18 H 0.7997 0.3262 0.5106
H19 H 0.7766 0.5161 0.5293
C22 C 0.95366(19) 0.5557(5) 0.4004(2)
H20 H 1.0065 0.5942 0.4058
H21 H 0.9391 0.5036 0.3518
H22 H 0.9485 0.4719 0.4387
C23 C 0.8555(2) 0.8373(5) 0.50184(18)
C24 C 0.9889(2) 0.9543(5) 0.37960(19)
H23 H 1.0324 0.8753 0.3825
H24 H 0.9889 1.0026 0.4293
C25 C 0.9989(3) 1.0982(6) 0.3260(2)
H25 H 1.0464 1.1585 0.3433
H26 H 0.9562 1.1776 0.3234
H27 H 1.0004 1.0506 0.2770
C26 C 0.9179(2) 0.9156(5) 0.10697(18)
H28 H 0.9632 0.9707 0.1340
H29 H 0.8770 0.9994 0.0961
H30 H 0.9297 0.8683 0.0608
C27 C 0.8023(2) 0.7041(5) -0.01789(19)
H31 H 0.7730 0.8035 -0.0140
C28 C 0.8123(2) 0.6461(5) -0.0831(2)
H32 H 0.7895 0.7047 -0.1262
C29 C 0.8589(2) 0.4896(5) -0.09088(19)
H33 H 0.9127 0.5193 -0.0739
H34 H 0.8448 0.4031 -0.0564
C30 C 0.8541(2) 0.4070(6) -0.16483(19)
C31 C 0.8245(3) 0.4899(6) -0.22954(19)
H35 H 0.8065 0.6027 -0.2260
C32 C 0.8449(3) 0.2641(9) -0.3035(2)
H36 H 0.8421 0.2153 -0.3511
C33 C 0.8760(2) 0.1651(6) -0.2426(2)
C34 C 0.9015(2) -0.0048(7) -0.2501(3)
H37 H 0.8976 -0.0536 -0.2978
C35 C 0.9310(2) -0.0979(7) -0.1905(3)
H38 H 0.9474 -0.2113 -0.1963
C36 C 0.9375(2) -0.0248(6) -0.1195(2)
H39 H 0.9588 -0.0900 -0.0778
C37 C 0.9136(2) 0.1383(6) -0.1096(2)
H40 H 0.9188 0.1839 -0.0612
C38 C 0.8811(2) 0.2402(5) -0.17038(18)
C39 C 0.85381(17) 0.3721(4) 0.1540(2)
H41 H 0.9068 0.4089 0.1659
H42 H 0.8444 0.3261 0.1039
H43 H 0.8438 0.2839 0.1889
C40 C 0.68153(17) 0.3404(4) 0.02437(17)
H44 H 0.7143 0.4294 0.0065
C41 C 0.69031(19) 0.1735(5) -0.0149(2)
H45 H 0.6623 0.0808 0.0066
C42 C 0.6606(2) 0.1922(6) -0.0969(2)
H46 H 0.6910 0.2861 -0.1145
C43 C 0.5795(2) 0.2551(5) -0.1080(2)
H47 H 0.5464 0.1692 -0.0898
H48 H 0.5612 0.2738 -0.1611
C44 C 0.5763(2) 0.4208(5) -0.06605(19)
H49 H 0.6088 0.5072 -0.0859
N3 N 0.6764(3) 0.0412(9) -0.1385(4)
C45 C 0.6264(4) -0.1021(11) -0.1304(6)
H50 H 0.6399 -0.1984 -0.1596
H51 H 0.5737 -0.0691 -0.1478
H52 H 0.6321 -0.1349 -0.0784
C46 C 0.6764(4) 0.0771(16) -0.2180(4)
H53 H 0.7104 0.1729 -0.2229
H54 H 0.6249 0.1057 -0.2417
H55 H 0.6941 -0.0237 -0.2416
C47 C 0.4961(3) 0.4914(7) -0.0708(3)
H56 H 0.4976 0.5970 -0.0422
H57 H 0.4641 0.4080 -0.0507
H58 H 0.4752 0.5148 -0.1223
C48 C 0.59359(19) 0.4185(6) 0.1913(2)
H59 H 0.5710 0.4059 0.2361
H60 H 0.5873 0.3124 0.1630
H61 H 0.5684 0.5114 0.1614
C49 C 0.6456(2) 0.7611(6) 0.2236(2)
H62 H 0.6600 0.8598 0.2553
H63 H 0.5919 0.7349 0.2233
H64 H 0.6539 0.7867 0.1734
C50 C 0.7239(3) 0.1383(5) 0.3762(2)
H65 H 0.7046 0.1230 0.4228
H66 H 0.7793 0.1478 0.3860
H67 H 0.7093 0.0403 0.3441
C51? C 0.5566(7) 0.6566(19) 0.4462(7)
C52? C 0.4754(6) 0.6362(18) 0.4306(7)
C53? C 0.4401(7) 0.528(2) 0.4741(8)
C54? C 0.3651(9) 0.502(2) 0.4625(11)
C55? C 0.3266(11) 0.599(3) 0.4120(10)
C56? C 0.3505(8) 0.704(2) 0.3644(9)
C57? C 0.4271(7) 0.7214(19) 0.3767(7)
C58? C 0.6259(18) -0.125(4) -0.0950(17)
C59? C 0.6853(13) 0.003(3) -0.1867(18)
Cl2? Cl 0.4669(2) 0.8541(6) 0.3148(2)
H68? H 0.5749 0.6336 0.4989
H69? H 0.5704 0.7748 0.4354
H70? H 0.4704 0.4693 0.5135
H71? H 0.3414 0.4200 0.4891
H72? H 0.2731 0.5928 0.4090
H73? H 0.3179 0.7611 0.3262
H74? H 0.6251 -0.1361 -0.0420
H75? H 0.6357 -0.2361 -0.1155
H76? H 0.5768 -0.0817 -0.1194
H77? H 0.7239 0.0864 -0.1947
H78? H 0.6356 0.0398 -0.2123
H79? H 0.6979 -0.1079 -0.2059
N4? N 0.6829(12) -0.012(3) -0.1062(17)
O12? O 0.5917(5) 0.5393(12) 0.4011(5)
loop_
_geom_bond_atom_site_label_1
_geom_bond_atom_site_label_2
_geom_bond_site_symmetry_1
_geom_bond_site_symmetry_2
O1 C3 1_555 1_555
O2 C23 1_555 1_555
O3 C4 1_555 1_555
O4 C5 1_555 1_555
O5 C6 1_555 1_555
O6 C8 1_555 1_555
O7 C10 1_555 1_555
O8 C41 1_555 1_555
O9 C40 1_555 1_555
O10 C11 1_555 1_555
N1 C1 1_555 1_555
N2 C31 1_555 1_555
C1 C2 1_555 1_555
C2 H1 1_555 1_555
C3 C2 1_555 1_555
H2 C3 1_555 1_555
C4 C3 1_555 1_555
C5 C4 1_555 1_555
H3 C5 1_555 1_555
C6 O4 1_555 1_555
C7 C6 1_555 1_555
H4 C7 1_555 1_555
C8 C7 1_555 1_555
H5 C8 1_555 1_555
C9 C8 1_555 1_555
H6 C9 1_555 1_555
C10 C9 1_555 1_555
H7 C10 1_555 1_555
C11 C10 1_555 1_555
C12 C11 1_555 1_555
H8 C12 1_555 1_555
H9 C12 1_555 1_555
C13 C1 1_555 1_555
H10 C13 1_555 1_555
O11 N1 1_555 1_555
C14 O11 1_555 1_555
H11 C14 1_555 1_555
H12 C14 1_555 1_555
C15 C14 1_555 1_555
C16 C15 1_555 1_555
H13 C16 1_555 1_555
C17 C16 1_555 1_555
H14 C17 1_555 1_555
C18 C17 1_555 1_555
H15 C18 1_555 1_555
C19 C18 1_555 1_555
H16 C19 1_555 1_555
C20 C15 1_555 1_555
Cl1 C20 1_555 1_555
C21 C2 1_555 1_555
H17 C21 1_555 1_555
H18 C21 1_555 1_555
H19 C21 1_555 1_555
C22 C4 1_555 1_555
H20 C22 1_555 1_555
H21 C22 1_555 1_555
H22 C22 1_555 1_555
C23 O1 1_555 1_555
C24 C5 1_555 1_555
H23 C24 1_555 1_555
H24 C24 1_555 1_555
C25 C24 1_555 1_555
H25 C25 1_555 1_555
H26 C25 1_555 1_555
H27 C25 1_555 1_555
C26 C7 1_555 1_555
H28 C26 1_555 1_555
H29 C26 1_555 1_555
H30 C26 1_555 1_555
C27 O6 1_555 1_555
H31 C27 1_555 1_555
C28 C27 1_555 1_555
H32 C28 1_555 1_555
C29 C28 1_555 1_555
H33 C29 1_555 1_555
H34 C29 1_555 1_555
C30 C29 1_555 1_555
C31 C30 1_555 1_555
H35 C31 1_555 1_555
C32 N2 1_555 1_555
H36 C32 1_555 1_555
C33 C32 1_555 1_555
C34 C33 1_555 1_555
H37 C34 1_555 1_555
C35 C34 1_555 1_555
H38 C35 1_555 1_555
C36 C35 1_555 1_555
H39 C36 1_555 1_555
C37 C36 1_555 1_555
H40 C37 1_555 1_555
C38 C30 1_555 1_555
C39 C9 1_555 1_555
H41 C39 1_555 1_555
H42 C39 1_555 1_555
H43 C39 1_555 1_555
C40 O7 1_555 1_555
H44 C40 1_555 1_555
C41 C40 1_555 1_555
H45 C41 1_555 1_555
C42 C41 1_555 1_555
H46 C42 1_555 1_555
C43 C42 1_555 1_555
H47 C43 1_555 1_555
H48 C43 1_555 1_555
C44 O9 1_555 1_555
H49 C44 1_555 1_555
N3 C42 1_555 1_555
C45 N3 1_555 1_555
H50 C45 1_555 1_555
H51 C45 1_555 1_555
H52 C45 1_555 1_555
C46 N3 1_555 1_555
H53 C46 1_555 1_555
H54 C46 1_555 1_555
H55 C46 1_555 1_555
C47 C44 1_555 1_555
H56 C47 1_555 1_555
H57 C47 1_555 1_555
H58 C47 1_555 1_555
C48 C11 1_555 1_555
H59 C48 1_555 1_555
H60 C48 1_555 1_555
H61 C48 1_555 1_555
C49 O10 1_555 1_555
H62 C49 1_555 1_555
H63 C49 1_555 1_555
H64 C49 1_555 1_555
C50 C13 1_555 1_555
H65 C50 1_555 1_555
H66 C50 1_555 1_555
H67 C50 1_555 1_555
O3 C23 1_555 1_555
C12 C13 1_555 1_555
C19 C20 1_555 1_555
C33 C38 1_555 1_555
C37 C38 1_555 1_555
C43 C44 1_555 1_555

#END
