
#######################################################################
#
#                 Cambridge Crystallographic Data Centre
#                                CCDC 
#
#######################################################################
#
# If this CIF has been generated from an entry in the Cambridge 
# Structural Database, then it will include bibliographic, chemical, 
# crystal, experimental, refinement or atomic coordinate data resulting 
# from the CCDC's data processing and validation procedures.
#
#######################################################################

data_CUPTEN
_chemical_formula_moiety         'C15 H21 N1 O3'
_chemical_name_systematic        
4-(2-[(3S,5R)-3,5-Dimethyl-2-oxocyclohexylidene]ethyl)-2,6-piperidinedione
_chemical_properties_biological  'tested for anti-hepatitis B virus activity'
_symmetry_cell_setting           orthorhombic
_symmetry_space_group_name_H-M   'C 2 2 21'
_symmetry_Int_Tables_number      20
_space_group_name_Hall           'C 2n 2'
loop_
_symmetry_equiv_pos_site_id
_symmetry_equiv_pos_as_xyz
1 x,y,z
2 -x,-y,1/2+z
3 -x,y,1/2-z
4 x,-y,-z
5 1/2+x,1/2+y,z
6 1/2-x,1/2-y,1/2+z
7 1/2-x,1/2+y,1/2-z
8 1/2+x,1/2-y,-z
_cell_length_a                   7.6330(15)
_cell_length_b                   8.5020(17)
_cell_length_c                   43.834(9)
_cell_angle_alpha                90
_cell_angle_beta                 90
_cell_angle_gamma                90
_cell_volume                     2844.64
_exptl_crystal_colour            colorless
_exptl_crystal_description       block
_chemical_melting_point          '118-120 deg.C'
_cell_formula_units_Z            8
loop_
_atom_site_label
_atom_site_type_symbol
_atom_site_fract_x
_atom_site_fract_y
_atom_site_fract_z
O1 O -0.30911(19) 0.5115(3) 0.06195(4)
O2 O 0.07832(18) 0.73114(19) -0.00184(4)
O3 O 0.2428(3) 0.59022(17) 0.18880(3)
N1 N -0.10996(19) 0.6298(2) 0.03176(3)
H1 H -0.1940 0.6699 0.0213
C1 C -0.1570(2) 0.5383(2) 0.05675(4)
C2 C 0.0568(2) 0.6623(2) 0.02223(4)
C3 C 0.2040(2) 0.6057(2) 0.04186(4)
H2 H 0.2992 0.6811 0.0409
H3 H 0.2470 0.5066 0.0338
C4 C 0.1514(2) 0.5829(2) 0.07495(4)
H4 H 0.1187 0.6855 0.0834
C5 C -0.0094(2) 0.4767(2) 0.07562(4)
H5 H 0.0231 0.3731 0.0682
H6 H -0.0486 0.4654 0.0966
C6 C 0.2994(2) 0.5147(2) 0.09435(4)
H7 H 0.3170 0.4054 0.0888
H8 H 0.4069 0.5711 0.0899
C7 C 0.2630(2) 0.52465(19) 0.12776(4)
H9 H 0.2440 0.6253 0.1354
C8 C 0.2542(2) 0.40885(19) 0.14804(4)
C9 C 0.2266(2) 0.4538(2) 0.18077(4)
C10 C 0.1752(3) 0.3290(2) 0.20364(4)
H10 H 0.0468 0.3267 0.2039
C11 C 0.2345(3) 0.1652(2) 0.19412(4)
H11 H 0.3609 0.1584 0.1959
H12 H 0.1837 0.0882 0.2078
C12 C 0.1819(2) 0.1268(2) 0.16190(4)
H13 H 0.0558 0.1456 0.1599
C13 C 0.2764(3) 0.2372(2) 0.14018(4)
H14 H 0.4003 0.2119 0.1403
H15 H 0.2329 0.2195 0.1197
C14 C 0.2331(5) 0.3743(3) 0.23587(5)
H16 H 0.1913 0.4781 0.2406
H17 H 0.3586 0.3727 0.2370
H18 H 0.1856 0.3006 0.2503
C15 C 0.2179(3) -0.0443(2) 0.15337(5)
H19 H 0.1817 -0.0626 0.1327
H20 H 0.1537 -0.1125 0.1668
H21 H 0.3410 -0.0655 0.1553
loop_
_geom_bond_atom_site_label_1
_geom_bond_atom_site_label_2
_geom_bond_site_symmetry_1
_geom_bond_site_symmetry_2
O1 C1 1_555 1_555
O2 C2 1_555 1_555
O3 C9 1_555 1_555
N1 H1 1_555 1_555
C1 N1 1_555 1_555
C2 N1 1_555 1_555
C3 C2 1_555 1_555
H2 C3 1_555 1_555
H3 C3 1_555 1_555
C4 C3 1_555 1_555
H4 C4 1_555 1_555
C5 C1 1_555 1_555
H5 C5 1_555 1_555
H6 C5 1_555 1_555
C6 C4 1_555 1_555
H7 C6 1_555 1_555
H8 C6 1_555 1_555
C7 C6 1_555 1_555
H9 C7 1_555 1_555
C8 C7 1_555 1_555
C9 C8 1_555 1_555
C10 C9 1_555 1_555
H10 C10 1_555 1_555
C11 C10 1_555 1_555
H11 C11 1_555 1_555
H12 C11 1_555 1_555
C12 C11 1_555 1_555
H13 C12 1_555 1_555
C13 C8 1_555 1_555
H14 C13 1_555 1_555
H15 C13 1_555 1_555
C14 C10 1_555 1_555
H16 C14 1_555 1_555
H17 C14 1_555 1_555
H18 C14 1_555 1_555
C15 C12 1_555 1_555
H19 C15 1_555 1_555
H20 C15 1_555 1_555
H21 C15 1_555 1_555
C4 C5 1_555 1_555
C12 C13 1_555 1_555

#END
