
#######################################################################
#
#                 Cambridge Crystallographic Data Centre
#                                CCDC 
#
#######################################################################
#
# If this CIF has been generated from an entry in the Cambridge 
# Structural Database, then it will include bibliographic, chemical, 
# crystal, experimental, refinement or atomic coordinate data resulting 
# from the CCDC's data processing and validation procedures.
#
#######################################################################

data_CUQBEX
_chemical_formula_moiety         'C63 H123 N3 O12 Sr3'
_chemical_name_systematic        
tris(\m-1-(isopropyl(2-methoxyethyl)amino)-2-methylpropan-2-olato)-bis(\m-2,2,6,6-tetramethyl-5-oxohept-3-en-3-olato)-(2,2,6,6-tetramethyl-5-oxohept-3-en-3-olato)-tri-strontium
_symmetry_cell_setting           triclinic
_symmetry_space_group_name_H-M   'P -1'
_symmetry_Int_Tables_number      2
_space_group_name_Hall           '-P 1'
loop_
_symmetry_equiv_pos_site_id
_symmetry_equiv_pos_as_xyz
1 x,y,z
2 -x,-y,-z
_cell_length_a                   14.1918(2)
_cell_length_b                   14.5190(2)
_cell_length_c                   21.0895(3)
_cell_angle_alpha                77.3070(10)
_cell_angle_beta                 71.7630(10)
_cell_angle_gamma                63.7730(10)
_cell_volume                     3685.39
_exptl_crystal_colour            silver
_exptl_crystal_description       Block
_cell_formula_units_Z            2
_chemical_properties_physical    
'Air-sensitive, Moisture-sensitive, Hygroscopic, Oxygen-sensitive'
_exptl_crystal_recrystallization_method hexane
loop_
_atom_site_label
_atom_site_type_symbol
_atom_site_fract_x
_atom_site_fract_y
_atom_site_fract_z
Sr1 Sr 0.19165(4) 0.86511(3) 0.20131(2)
O1 O 0.0412(3) 1.0354(2) 0.20638(17)
O2 O 0.2408(3) 0.9847(2) 0.10959(16)
O3 O 0.1583(2) 0.7280(2) 0.29286(15)
O4 O -0.1622(3) 0.5302(3) 0.36683(19)
N1 N -0.1358(3) 0.7731(3) 0.3590(2)
C1 C 0.0179(4) 1.1199(4) 0.1692(3)
C2 C 0.0871(4) 1.1411(4) 0.1088(3)
H1 H 0.0589 1.2057 0.0836
C3 C 0.1938(4) 1.0741(4) 0.0834(2)
C4 C -0.0951(4) 1.2055(4) 0.1954(3)
C5 C -0.1702(5) 1.1564(5) 0.2405(4)
H2 H -0.1382 1.1118 0.2771
H3 H -0.2402 1.2104 0.2592
H4 H -0.1808 1.1151 0.2145
C6 C -0.1445(5) 1.2737(5) 0.1394(3)
H5 H -0.1545 1.2322 0.1132
H6 H -0.2150 1.3272 0.1582
H7 H -0.0964 1.3062 0.1104
C7 C -0.0791(5) 1.2682(5) 0.2365(3)
H8 H -0.0469 1.2230 0.2728
H9 H -0.0308 1.3007 0.2077
H10 H -0.1494 1.3217 0.2556
C8 C 0.2655(4) 1.1085(4) 0.0189(3)
C9 C 0.3602(5) 1.1083(5) 0.0388(3)
H11 H 0.3972 1.0405 0.0611
H12 H 0.4112 1.1229 -0.0014
H13 H 0.3329 1.1613 0.0695
C10 C 0.3124(5) 1.0268(4) -0.0322(3)
H14 H 0.3507 0.9584 -0.0110
H15 H 0.2531 1.0263 -0.0463
H16 H 0.3630 1.0442 -0.0715
C11 C 0.2072(5) 1.2126(4) -0.0158(3)
H17 H 0.1467 1.2118 -0.0283
H18 H 0.1795 1.2660 0.0148
H19 H 0.2578 1.2275 -0.0561
C12 C 0.0589(4) 0.7551(3) 0.3437(2)
C13 C -0.0277(4) 0.7572(4) 0.3129(2)
H20 H -0.0376 0.8129 0.2756
H21 H 0.0009 0.6912 0.2933
C14 C -0.1772(4) 0.7024(4) 0.3500(3)
H22 H -0.1638 0.6986 0.3015
H23 H -0.2565 0.7292 0.3695
C15 C -0.1238(4) 0.5953(4) 0.3833(3)
H24 H -0.0439 0.5695 0.3667
H25 H -0.1428 0.5967 0.4325
C16 C -0.1259(5) 0.4304(4) 0.4018(3)
H26 H -0.1536 0.3877 0.3894
H27 H -0.0465 0.3985 0.3899
H28 H -0.1525 0.4362 0.4502
C17 C 0.0279(4) 0.8606(4) 0.3660(3)
H29 H -0.0402 0.8787 0.4009
H30 H 0.0853 0.8575 0.3839
H31 H 0.0189 0.9129 0.3275
C18 C 0.0728(4) 0.6734(4) 0.4041(2)
H32 H 0.0047 0.6920 0.4390
H33 H 0.0922 0.6060 0.3900
H34 H 0.1304 0.6701 0.4219
C19 C -0.2149(4) 0.8817(4) 0.3574(3)
H35 H -0.1748 0.9249 0.3545
C20 C -0.3028(4) 0.9005(4) 0.4230(3)
H36 H -0.3547 0.9727 0.4213
H37 H -0.3406 0.8554 0.4295
H38 H -0.2695 0.8854 0.4604
C21 C -0.2657(4) 0.9197(4) 0.2965(3)
H39 H -0.3169 0.9920 0.2993
H40 H -0.2083 0.9134 0.2550
H41 H -0.3040 0.8776 0.2966
Sr2 Sr 0.34605(4) 0.66386(3) 0.31042(2)
O5 O 0.3007(3) 0.8561(2) 0.28882(16)
O6 O 0.2787(3) 0.7371(2) 0.41895(16)
O7 O 0.3494(2) 0.6912(2) 0.19074(15)
O8 O 0.5192(3) 0.5750(3) 0.36180(16)
N2 N 0.5621(3) 0.5937(3) 0.22022(19)
C22 C 0.2983(4) 0.9184(3) 0.3231(2)
C23 C 0.2760(4) 0.9046(3) 0.3948(3)
H42 H 0.2715 0.9585 0.4158
C24 C 0.2598(4) 0.8216(4) 0.4381(2)
C25 C 0.3063(5) 1.0198(4) 0.2882(3)
C26 C 0.1960(6) 1.0958(5) 0.2774(5)
H43 H 0.1436 1.1104 0.3210
H44 H 0.2010 1.1600 0.2533
H45 H 0.1721 1.0661 0.2511
C27 C 0.3469(5) 1.0676(5) 0.3264(3)
H46 H 0.4181 1.0182 0.3332
H47 H 0.3529 1.1305 0.3005
H48 H 0.2955 1.0847 0.3701
C28 C 0.3881(6) 0.9971(5) 0.2201(3)
H49 H 0.4593 0.9481 0.2270
H50 H 0.3642 0.9674 0.1938
H51 H 0.3931 1.0613 0.1960
C29 C 0.2162(4) 0.8308(4) 0.5146(3)
C30 C 0.1009(5) 0.8394(5) 0.5323(3)
H52 H 0.0572 0.9019 0.5084
H53 H 0.1004 0.7789 0.5192
H54 H 0.0703 0.8428 0.5807
C31 C 0.2841(4) 0.7337(4) 0.5517(3)
H55 H 0.3587 0.7283 0.5402
H56 H 0.2536 0.7371 0.6002
H57 H 0.2837 0.6732 0.5386
C32 C 0.2189(6) 0.9229(4) 0.5363(3)
H58 H 0.2938 0.9165 0.5247
H59 H 0.1751 0.9866 0.5134
H60 H 0.1893 0.9247 0.5850
C33 C 0.4437(4) 0.6704(3) 0.1370(2)
C34 C 0.5384(4) 0.5793(3) 0.1604(2)
H61 H 0.5225 0.5171 0.1703
H62 H 0.6044 0.5662 0.1230
C35 C 0.6005(4) 0.4929(4) 0.2604(2)
H63 H 0.6699 0.4463 0.2336
H64 H 0.5472 0.4621 0.2692
C36 C 0.6168(4) 0.4985(4) 0.3262(2)
H65 H 0.6328 0.4305 0.3529
H66 H 0.6787 0.5176 0.3184
C37 C 0.5351(5) 0.5942(5) 0.4207(3)
H67 H 0.4678 0.6464 0.4441
H68 H 0.5555 0.5302 0.4504
H69 H 0.5930 0.6192 0.4077
C38 C 0.4277(4) 0.6369(4) 0.0782(2)
H70 H 0.4218 0.5703 0.0915
H71 H 0.4898 0.6306 0.0396
H72 H 0.3612 0.6887 0.0660
C39 C 0.4637(4) 0.7690(4) 0.1118(3)
H73 H 0.5289 0.7549 0.0747
H74 H 0.4013 0.8227 0.0963
H75 H 0.4739 0.7924 0.1484
C40 C 0.6408(4) 0.6439(4) 0.1997(3)
H76 H 0.6237 0.6908 0.1586
C41 C 0.7587(4) 0.5708(4) 0.1774(3)
H77 H 0.8046 0.6096 0.1649
H78 H 0.7794 0.5179 0.2141
H79 H 0.7683 0.5379 0.1386
C42 C 0.6229(5) 0.7143(4) 0.2495(3)
H80 H 0.6767 0.7446 0.2332
H81 H 0.5499 0.7695 0.2545
H82 H 0.6305 0.6746 0.2930
Sr3 Sr 0.22371(4) 0.60874(3) 0.20200(2)
O9 O 0.3221(2) 0.4994(2) 0.30337(16)
O10 O 0.3714(2) 0.4377(2) 0.17287(16)
O11 O 0.1313(2) 0.7786(2) 0.14690(16)
O12 O 0.1109(3) 0.4966(2) 0.23229(16)
N3 N 0.1204(3) 0.6152(3) 0.10483(19)
C43 C 0.3727(3) 0.4028(3) 0.3148(2)
C44 C 0.4287(4) 0.3315(3) 0.2673(2)
H83 H 0.4686 0.2623 0.2825
C45 C 0.4309(4) 0.3537(3) 0.1981(3)
C46 C 0.3623(4) 0.3602(4) 0.3901(2)
C47 C 0.2582(5) 0.3407(4) 0.4152(3)
H84 H 0.2631 0.2901 0.3890
H85 H 0.2494 0.3141 0.4626
H86 H 0.1958 0.4054 0.4099
C48 C 0.4590(5) 0.2582(4) 0.4022(3)
H87 H 0.4665 0.2061 0.3762
H88 H 0.5256 0.2702 0.3882
H89 H 0.4460 0.2338 0.4501
C49 C 0.3533(5) 0.4396(4) 0.4316(3)
H90 H 0.4194 0.4526 0.4160
H91 H 0.2906 0.5040 0.4264
H92 H 0.3442 0.4127 0.4790
C50 C 0.5100(4) 0.2721(3) 0.1489(2)
C51 C 0.4437(4) 0.2531(4) 0.1125(3)
H93 H 0.3948 0.2242 0.1449
H94 H 0.4012 0.3185 0.0903
H95 H 0.4926 0.2045 0.0789
C52 C 0.5782(4) 0.1685(4) 0.1819(3)
H96 H 0.6212 0.1797 0.2055
H97 H 0.5301 0.1383 0.2140
H98 H 0.6267 0.1215 0.1474
C53 C 0.5866(4) 0.3172(4) 0.0989(3)
H99 H 0.6289 0.3291 0.1227
H100 H 0.6358 0.2687 0.0653
H101 H 0.5444 0.3827 0.0767
C54 C 0.0810(4) 0.8086(3) 0.0930(2)
C55 C 0.1073(4) 0.7123(3) 0.0599(2)
H102 H 0.0487 0.7281 0.0381
H103 H 0.1751 0.6999 0.0241
C56 C 0.0175(4) 0.6255(4) 0.1554(2)
H104 H -0.0402 0.6457 0.1320
H105 H -0.0032 0.6816 0.1831
C57 C 0.0236(4) 0.5279(4) 0.2011(2)
H106 H -0.0455 0.5407 0.2358
H107 H 0.0365 0.4729 0.1749
C58 C 0.1462(4) 0.3895(4) 0.2585(3)
H108 H 0.2057 0.3712 0.2793
H109 H 0.0856 0.3782 0.2921
H110 H 0.1711 0.3463 0.2219
C59 C 0.1291(4) 0.8761(4) 0.0381(2)
H111 H 0.0940 0.8966 0.0009
H112 H 0.1168 0.9378 0.0567
H113 H 0.2071 0.8368 0.0216
C60 C -0.0405(4) 0.8736(4) 0.1163(3)
H114 H -0.0737 0.8935 0.0784
H115 H -0.0742 0.8333 0.1517
H116 H -0.0514 0.9357 0.1338
C61 C 0.1649(4) 0.5234(4) 0.0664(2)
H117 H 0.1781 0.4617 0.1001
C62 C 0.0876(4) 0.5213(4) 0.0307(3)
H118 H 0.1226 0.4592 0.0069
H119 H 0.0215 0.5209 0.0638
H120 H 0.0689 0.5826 -0.0014
C63 C 0.2738(4) 0.5089(4) 0.0180(2)
H121 H 0.2998 0.4483 -0.0060
H122 H 0.2661 0.5702 -0.0143
H123 H 0.3259 0.4990 0.0430
loop_
_geom_bond_atom_site_label_1
_geom_bond_atom_site_label_2
_geom_bond_site_symmetry_1
_geom_bond_site_symmetry_2
Sr1 O1 1_555 1_555
O1 C1 1_555 1_555
O2 Sr1 1_555 1_555
O3 Sr1 1_555 1_555
O4 C15 1_555 1_555
N1 C13 1_555 1_555
C1 C2 1_555 1_555
C2 H1 1_555 1_555
C3 O2 1_555 1_555
C4 C1 1_555 1_555
C5 C4 1_555 1_555
H2 C5 1_555 1_555
H3 C5 1_555 1_555
H4 C5 1_555 1_555
C6 C4 1_555 1_555
H5 C6 1_555 1_555
H6 C6 1_555 1_555
H7 C6 1_555 1_555
C7 C4 1_555 1_555
H8 C7 1_555 1_555
H9 C7 1_555 1_555
H10 C7 1_555 1_555
C8 C3 1_555 1_555
C9 C8 1_555 1_555
H11 C9 1_555 1_555
H12 C9 1_555 1_555
H13 C9 1_555 1_555
C10 C8 1_555 1_555
H14 C10 1_555 1_555
H15 C10 1_555 1_555
H16 C10 1_555 1_555
C11 C8 1_555 1_555
H17 C11 1_555 1_555
H18 C11 1_555 1_555
H19 C11 1_555 1_555
C12 O3 1_555 1_555
C13 C12 1_555 1_555
H20 C13 1_555 1_555
H21 C13 1_555 1_555
C14 N1 1_555 1_555
H22 C14 1_555 1_555
H23 C14 1_555 1_555
C15 C14 1_555 1_555
H24 C15 1_555 1_555
H25 C15 1_555 1_555
C16 O4 1_555 1_555
H26 C16 1_555 1_555
H27 C16 1_555 1_555
H28 C16 1_555 1_555
C17 C12 1_555 1_555
H29 C17 1_555 1_555
H30 C17 1_555 1_555
H31 C17 1_555 1_555
C18 C12 1_555 1_555
H32 C18 1_555 1_555
H33 C18 1_555 1_555
H34 C18 1_555 1_555
C19 N1 1_555 1_555
H35 C19 1_555 1_555
C20 C19 1_555 1_555
H36 C20 1_555 1_555
H37 C20 1_555 1_555
H38 C20 1_555 1_555
C21 C19 1_555 1_555
H39 C21 1_555 1_555
H40 C21 1_555 1_555
H41 C21 1_555 1_555
Sr2 O3 1_555 1_555
O5 Sr1 1_555 1_555
O6 Sr2 1_555 1_555
O7 Sr1 1_555 1_555
O8 Sr2 1_555 1_555
N2 Sr2 1_555 1_555
C22 O5 1_555 1_555
C23 C22 1_555 1_555
H42 C23 1_555 1_555
C24 O6 1_555 1_555
C25 C22 1_555 1_555
C26 C25 1_555 1_555
H43 C26 1_555 1_555
H44 C26 1_555 1_555
H45 C26 1_555 1_555
C27 C25 1_555 1_555
H46 C27 1_555 1_555
H47 C27 1_555 1_555
H48 C27 1_555 1_555
C28 C25 1_555 1_555
H49 C28 1_555 1_555
H50 C28 1_555 1_555
H51 C28 1_555 1_555
C29 C24 1_555 1_555
C30 C29 1_555 1_555
H52 C30 1_555 1_555
H53 C30 1_555 1_555
H54 C30 1_555 1_555
C31 C29 1_555 1_555
H55 C31 1_555 1_555
H56 C31 1_555 1_555
H57 C31 1_555 1_555
C32 C29 1_555 1_555
H58 C32 1_555 1_555
H59 C32 1_555 1_555
H60 C32 1_555 1_555
C33 O7 1_555 1_555
C34 N2 1_555 1_555
H61 C34 1_555 1_555
H62 C34 1_555 1_555
C35 N2 1_555 1_555
H63 C35 1_555 1_555
H64 C35 1_555 1_555
C36 O8 1_555 1_555
H65 C36 1_555 1_555
H66 C36 1_555 1_555
C37 O8 1_555 1_555
H67 C37 1_555 1_555
H68 C37 1_555 1_555
H69 C37 1_555 1_555
C38 C33 1_555 1_555
H70 C38 1_555 1_555
H71 C38 1_555 1_555
H72 C38 1_555 1_555
C39 C33 1_555 1_555
H73 C39 1_555 1_555
H74 C39 1_555 1_555
H75 C39 1_555 1_555
C40 N2 1_555 1_555
H76 C40 1_555 1_555
C41 C40 1_555 1_555
H77 C41 1_555 1_555
H78 C41 1_555 1_555
H79 C41 1_555 1_555
C42 C40 1_555 1_555
H80 C42 1_555 1_555
H81 C42 1_555 1_555
H82 C42 1_555 1_555
Sr3 O3 1_555 1_555
O9 Sr2 1_555 1_555
O10 Sr3 1_555 1_555
O11 Sr1 1_555 1_555
O12 Sr3 1_555 1_555
N3 Sr3 1_555 1_555
C43 O9 1_555 1_555
C44 C43 1_555 1_555
H83 C44 1_555 1_555
C45 O10 1_555 1_555
C46 C43 1_555 1_555
C47 C46 1_555 1_555
H84 C47 1_555 1_555
H85 C47 1_555 1_555
H86 C47 1_555 1_555
C48 C46 1_555 1_555
H87 C48 1_555 1_555
H88 C48 1_555 1_555
H89 C48 1_555 1_555
C49 C46 1_555 1_555
H90 C49 1_555 1_555
H91 C49 1_555 1_555
H92 C49 1_555 1_555
C50 C45 1_555 1_555
C51 C50 1_555 1_555
H93 C51 1_555 1_555
H94 C51 1_555 1_555
H95 C51 1_555 1_555
C52 C50 1_555 1_555
H96 C52 1_555 1_555
H97 C52 1_555 1_555
H98 C52 1_555 1_555
C53 C50 1_555 1_555
H99 C53 1_555 1_555
H100 C53 1_555 1_555
H101 C53 1_555 1_555
C54 O11 1_555 1_555
C55 N3 1_555 1_555
H102 C55 1_555 1_555
H103 C55 1_555 1_555
C56 N3 1_555 1_555
H104 C56 1_555 1_555
H105 C56 1_555 1_555
C57 O12 1_555 1_555
H106 C57 1_555 1_555
H107 C57 1_555 1_555
C58 O12 1_555 1_555
H108 C58 1_555 1_555
H109 C58 1_555 1_555
H110 C58 1_555 1_555
C59 C54 1_555 1_555
H111 C59 1_555 1_555
H112 C59 1_555 1_555
H113 C59 1_555 1_555
C60 C54 1_555 1_555
H114 C60 1_555 1_555
H115 C60 1_555 1_555
H116 C60 1_555 1_555
C61 N3 1_555 1_555
H117 C61 1_555 1_555
C62 C61 1_555 1_555
H118 C62 1_555 1_555
H119 C62 1_555 1_555
H120 C62 1_555 1_555
C63 C61 1_555 1_555
H121 C63 1_555 1_555
H122 C63 1_555 1_555
H123 C63 1_555 1_555
C2 C3 1_555 1_555
Sr2 O5 1_555 1_555
Sr2 O7 1_555 1_555
O7 Sr3 1_555 1_555
C23 C24 1_555 1_555
C33 C34 1_555 1_555
C35 C36 1_555 1_555
Sr3 O9 1_555 1_555
Sr3 O11 1_555 1_555
C44 C45 1_555 1_555
C54 C55 1_555 1_555
C56 C57 1_555 1_555

#END
