
#######################################################################
#
#                 Cambridge Crystallographic Data Centre
#                                CCDC 
#
#######################################################################
#
# If this CIF has been generated from an entry in the Cambridge 
# Structural Database, then it will include bibliographic, chemical, 
# crystal, experimental, refinement or atomic coordinate data resulting 
# from the CCDC's data processing and validation procedures.
#
#######################################################################

data_CUQBIA
_chemical_formula_moiety         'C24 H15 Br1 Cl2 F3 N7 O1'
_chemical_name_systematic        
2-(5-(4-Bromophenyl)-1-(2,4-dichlorophenyl)-4-(1H-1,2,4-triazol-1-ylmethyl)-1H-pyrazol-3-yl)-5-(1-(trifluoromethyl)cyclopropyl)-1,3,4-oxadiazole
_chemical_properties_biological  
'tested for binding at the two cannabinoid receptors CB1 and CB2'
_symmetry_cell_setting           monoclinic
_symmetry_space_group_name_H-M   'P 21/c'
_symmetry_Int_Tables_number      14
_space_group_name_Hall           '-P 2ybc'
loop_
_symmetry_equiv_pos_site_id
_symmetry_equiv_pos_as_xyz
1 x,y,z
2 -x,1/2+y,1/2-z
3 -x,-y,-z
4 x,1/2-y,1/2+z
_cell_length_a                   13.3830(6)
_cell_length_b                   7.7267(3)
_cell_length_c                   25.1510(8)
_cell_angle_alpha                90
_cell_angle_beta                 103.9167(12)
_cell_angle_gamma                90
_cell_volume                     2524.43
_cell_formula_units_Z            4
loop_
_atom_site_label
_atom_site_type_symbol
_atom_site_fract_x
_atom_site_fract_y
_atom_site_fract_z
C1 C 0.5730(3) 0.2683(6) 0.06285(18)
C2 C 0.6179(4) 0.1555(7) 0.03312(19)
C3 C 0.7191(3) 0.1064(7) 0.05306(19)
C4 C 0.7770(3) 0.1708(5) 0.10266(16)
C5 C 0.7307(3) 0.2856(6) 0.13164(19)
C6 C 0.6287(4) 0.3342(7) 0.1118(2)
C7 C 0.9133(4) 0.1006(7) 0.26375(18)
C8 C 0.8743(4) 0.0667(7) 0.30896(19)
C9 C 0.8013(3) -0.0605(6) 0.30528(16)
C10 C 0.7679(4) -0.1558(6) 0.25843(19)
C11 C 0.8077(3) -0.1222(5) 0.21348(17)
C12 C 0.8795(3) 0.0080(5) 0.21590(16)
C13 C 0.8853(3) 0.1177(5) 0.12136(15)
C14 C 0.9638(3) 0.1242(5) 0.09471(15)
C15 C 1.0481(3) 0.0446(5) 0.13115(16)
C16 C 0.9649(4) 0.2093(6) 0.04141(17)
C17 C 0.8305(4) 0.4321(7) 0.0006(2)
C18 C 0.8897(5) 0.6367(8) 0.0510(2)
C19 C 1.1472(3) 0.0004(5) 0.12107(16)
C20 C 1.3037(3) -0.0787(5) 0.13896(16)
C21 C 1.4068(3) -0.1248(6) 0.17152(17)
C22 C 1.4717(5) -0.2337(9) 0.1432(3)
C23 C 1.4963(4) -0.0499(10) 0.1526(3)
C24 C 1.4177(3) -0.1525(6) 0.23110(18)
O1 O 1.2282(2) -0.0361(4) 0.16436(10)
N1 N 0.9259(2) 0.0409(4) 0.17133(13)
N2 N 1.0255(2) -0.0052(5) 0.17781(14)
N3 N 0.9160(3) 0.3792(5) 0.03579(13)
N4 N 0.9566(3) 0.5120(5) 0.06902(16)
N5 N 0.8104(4) 0.5953(6) 0.0089(2)
N6 N 1.1700(3) -0.0175(5) 0.07470(14)
N7 N 1.2743(3) -0.0699(6) 0.08663(14)
Cl1 Cl 0.74928(12) -0.09991(19) 0.36105(5)
Cl2 Cl 0.76831(12) -0.24706(19) 0.15549(5)
Br1 Br 0.43168(4) 0.32675(7) 0.03640(2)
F1 F 1.5146(2) -0.1839(4) 0.25772(12)
F2 F 1.3881(2) -0.0152(4) 0.25605(11)
F3 F 1.3611(2) -0.2834(4) 0.24166(12)
H1 H 0.577(4) 0.106(7) 0.002(2)
H2 H 0.752(4) 0.025(6) 0.0331(19)
H3 H 0.768(4) 0.333(6) 0.165(2)
H4 H 0.598(3) 0.413(6) 0.1311(18)
H5 H 0.962(4) 0.189(7) 0.265(2)
H6 H 0.898(4) 0.131(7) 0.341(2)
H7 H 0.719(4) -0.242(7) 0.2560(19)
H8 H 1.033(3) 0.221(5) 0.0383(16)
H9 H 0.926(3) 0.140(6) 0.0104(19)
H10 H 0.792(4) 0.351(7) -0.027(2)
H11 H 0.900(4) 0.746(8) 0.068(2)
H12 H 1.518(4) -0.321(7) 0.166(2)
H13 H 1.437(4) -0.275(7) 0.106(2)
H14 H 1.559(4) -0.018(7) 0.182(2)
H15 H 1.480(4) 0.027(7) 0.122(2)
loop_
_geom_bond_atom_site_label_1
_geom_bond_atom_site_label_2
_geom_bond_site_symmetry_1
_geom_bond_site_symmetry_2
C1 C2 1_555 1_555
C2 C3 1_555 1_555
C3 C4 1_555 1_555
C4 C5 1_555 1_555
C5 C6 1_555 1_555
C6 C1 1_555 1_555
C7 C8 1_555 1_555
C8 C9 1_555 1_555
C9 C10 1_555 1_555
C10 C11 1_555 1_555
C11 C12 1_555 1_555
C12 C7 1_555 1_555
C13 C4 1_555 1_555
C14 C13 1_555 1_555
C15 C14 1_555 1_555
C16 C14 1_555 1_555
C17 N3 1_555 1_555
C18 N4 1_555 1_555
C19 C15 1_555 1_555
C20 C21 1_555 1_555
C21 C22 1_555 1_555
C22 C23 1_555 1_555
C23 C21 1_555 1_555
C24 C21 1_555 1_555
O1 C19 1_555 1_555
N1 C12 1_555 1_555
N2 C15 1_555 1_555
N3 C16 1_555 1_555
N4 N3 1_555 1_555
N5 C17 1_555 1_555
N6 C19 1_555 1_555
N7 C20 1_555 1_555
Cl1 C9 1_555 1_555
Cl2 C11 1_555 1_555
Br1 C1 1_555 1_555
F1 C24 1_555 1_555
F2 C24 1_555 1_555
F3 C24 1_555 1_555
H1 C2 1_555 1_555
H2 C3 1_555 1_555
H3 C5 1_555 1_555
H4 C6 1_555 1_555
H5 C7 1_555 1_555
H6 C8 1_555 1_555
H7 C10 1_555 1_555
H8 C16 1_555 1_555
H9 C16 1_555 1_555
H10 C17 1_555 1_555
H11 C18 1_555 1_555
H12 C22 1_555 1_555
H13 C22 1_555 1_555
H14 C23 1_555 1_555
H15 C23 1_555 1_555
C13 N1 1_555 1_555
C18 N5 1_555 1_555
C20 O1 1_555 1_555
N1 N2 1_555 1_555
N6 N7 1_555 1_555

#END
