
#######################################################################
#
#                 Cambridge Crystallographic Data Centre
#                                CCDC 
#
#######################################################################
#
# If this CIF has been generated from an entry in the Cambridge 
# Structural Database, then it will include bibliographic, chemical, 
# crystal, experimental, refinement or atomic coordinate data resulting 
# from the CCDC's data processing and validation procedures.
#
#######################################################################

data_CUQFEB
_chemical_formula_moiety         'C54 H102 O15 Sr3,0.5(C6 H14)'
_chemical_name_systematic        
'tris(\m-1-(2-methoxyethoxy)-2-methylpropan-2-olato)-(\m-2,2,6,6-tetramethyl-5-oxohept-3-en-3-olato)-bis(2,2,6,6-tetramethyl-5-oxohept-3-en-3-olato)-tri-strontium hexane solvate'
_symmetry_cell_setting           triclinic
_symmetry_space_group_name_H-M   'P -1'
_symmetry_Int_Tables_number      2
_space_group_name_Hall           '-P 1'
loop_
_symmetry_equiv_pos_site_id
_symmetry_equiv_pos_as_xyz
1 x,y,z
2 -x,-y,-z
_cell_length_a                   10.6143(5)
_cell_length_b                   16.2868(7)
_cell_length_c                   21.475(1)
_cell_angle_alpha                94.454(3)
_cell_angle_beta                 103.164(2)
_cell_angle_gamma                106.686(2)
_cell_volume                     3421.71
_exptl_crystal_colour            silver
_exptl_crystal_description       Block
_cell_formula_units_Z            2
_chemical_properties_physical    
'Air-sensitive, Moisture-sensitive, Hygroscopic'
loop_
_atom_site_label
_atom_site_type_symbol
_atom_site_fract_x
_atom_site_fract_y
_atom_site_fract_z
Sr1 Sr 0.12722(3) 0.831605(16) 0.379209(13)
Sr2 Sr 0.11114(3) 0.973866(16) 0.262186(13)
Sr3 Sr -0.03885(3) 0.715447(16) 0.217612(13)
O1 O -0.0091(2) 0.66861(12) 0.33025(10)
O2 O 0.2632(2) 0.73466(13) 0.41545(10)
O3 O 0.1946(2) 0.98660(12) 0.37731(10)
O4 O 0.2424(2) 0.93100(14) 0.49195(10)
O5 O 0.0245(2) 0.78773(14) 0.48055(10)
C1 C -0.0025(3) 0.59970(19) 0.35348(15)
C2 C 0.1152(4) 0.5904(2) 0.39246(16)
H1 H 0.1088 0.5343 0.4036
C3 C 0.2426(4) 0.6548(2) 0.41724(14)
C4 C -0.1336(4) 0.5207(2) 0.33532(17)
C5 C -0.2540(4) 0.5426(2) 0.2946(2)
H2 H -0.2707 0.5899 0.3191
H3 H -0.3353 0.4914 0.2839
H4 H -0.2333 0.5607 0.2546
C6 C -0.1102(4) 0.4460(2) 0.29587(19)
H5 H -0.0876 0.4648 0.2564
H6 H -0.1933 0.3959 0.2842
H7 H -0.0350 0.4298 0.3218
C7 C -0.1699(5) 0.4900(2) 0.3967(2)
H8 H -0.1859 0.5369 0.4220
H9 H -0.0945 0.4740 0.4227
H10 H -0.2525 0.4396 0.3845
C8 C 0.3692(4) 0.6296(2) 0.45015(17)
C9 C 0.3422(5) 0.5309(2) 0.4443(2)
H11 H 0.4257 0.5191 0.4658
H12 H 0.3139 0.5055 0.3985
H13 H 0.2698 0.5054 0.4650
C10 C 0.4119(4) 0.6688(2) 0.52134(17)
H14 H 0.4307 0.7317 0.5252
H15 H 0.4941 0.6559 0.5432
H16 H 0.3382 0.6438 0.5414
C11 C 0.4836(4) 0.6700(3) 0.41825(19)
H17 H 0.5008 0.7328 0.4221
H18 H 0.4560 0.6448 0.3724
H19 H 0.5668 0.6581 0.4399
C12 C 0.2760(4) 1.0483(2) 0.43076(16)
C13 C 0.2413(4) 1.0178(2) 0.49138(16)
H20 H 0.3087 1.0556 0.5301
H21 H 0.1500 1.0212 0.4923
C14 C 0.2149(6) 0.9021(3) 0.54825(19)
H22 H 0.1811 0.9440 0.5700
H23 H 0.3012 0.9017 0.5778
C15 C 0.1179(6) 0.8181(3) 0.5383(2)
H24 H 0.1693 0.7762 0.5464
H25 H 0.0677 0.8171 0.5720
C16 C 0.2482(5) 1.1351(2) 0.4247(2)
H26 H 0.3277 1.1825 0.4505
H27 H 0.1684 1.1348 0.4404
H28 H 0.2308 1.1436 0.3792
C17 C 0.4269(4) 1.0616(2) 0.43629(19)
H29 H 0.454(4) 1.080(2) 0.396(2)
H30 H 0.449(4) 1.006(3) 0.4407(18)
H31 H 0.486(4) 1.104(3) 0.473(2)
C18 C -0.0850(5) 0.7162(3) 0.4790(2)
H32 H -0.1013 0.7154 0.5221
H33 H -0.0651 0.6633 0.4660
H34 H -0.1662 0.7192 0.4479
O6 O 0.3312(2) 1.06787(12) 0.24867(10)
O7 O 0.1050(2) 1.12412(12) 0.25620(10)
O8 O -0.06257(19) 0.83927(12) 0.28841(9)
O9 O -0.1519(2) 0.93736(13) 0.20172(10)
O10 O 0.0388(2) 0.97806(13) 0.13145(10)
C19 C 0.3866(3) 1.14723(19) 0.24816(15)
C20 C 0.3224(3) 1.21136(19) 0.25257(15)
H35 H 0.3746 1.2694 0.2522
C21 C 0.1892(3) 1.19745(19) 0.25738(14)
C22 C 0.5364(3) 1.1755(2) 0.24470(17)
C23 C 0.6263(4) 1.2241(3) 0.31083(19)
H36 H 0.6012 1.2758 0.3216
H37 H 0.7221 1.2416 0.3097
H38 H 0.6136 1.1862 0.3437
C24 C 0.5574(4) 1.2340(3) 0.19334(19)
H39 H 0.5298 1.2850 0.2029
H40 H 0.5020 1.2020 0.1507
H41 H 0.6538 1.2526 0.1934
C25 C 0.5796(4) 1.0960(3) 0.2295(3)
H42 H 0.6747 1.1147 0.2273
H43 H 0.5212 1.0625 0.1878
H44 H 0.5705 1.0597 0.2635
C26 C 0.1336(4) 1.2753(2) 0.26574(16)
C27 C 0.1044(5) 1.2773(2) 0.33289(18)
H45 H 0.0689 1.3254 0.3407
H46 H 0.1888 1.2853 0.3663
H47 H 0.0368 1.2224 0.3344
C28 C 0.0005(4) 1.2571(2) 0.21314(17)
H48 H -0.0364 1.3053 0.2176
H49 H -0.0655 1.2033 0.2178
H50 H 0.0181 1.2510 0.1704
C29 C 0.2315(4) 1.3632(2) 0.26217(19)
H51 H 0.1892 1.4085 0.2679
H52 H 0.2518 1.3619 0.2199
H53 H 0.3161 1.3757 0.2964
C30 C -0.1839(3) 0.85712(19) 0.28967(14)
C31 C -0.2499(3) 0.87148(19) 0.22200(15)
H54 H -0.2799 0.8168 0.1913
H55 H -0.3308 0.8899 0.2228
C32 C -0.1931(3) 0.9392(2) 0.13381(15)
H56 H -0.2776 0.9554 0.1231
H57 H -0.2111 0.8812 0.1093
C33 C -0.0803(4) 1.0046(2) 0.11617(16)
H58 H -0.1064 1.0080 0.0694
H59 H -0.0623 1.0626 0.1407
C34 C -0.1557(3) 0.9383(2) 0.33908(16)
H60 H -0.2290 0.9295 0.3610
H61 H -0.1515 0.9887 0.3166
H62 H -0.0686 0.9483 0.3711
C35 C -0.2838(3) 0.7800(2) 0.30758(16)
H63 H -0.3706 0.7913 0.3048
H64 H -0.2457 0.7718 0.3518
H65 H -0.2990 0.7275 0.2776
C36 C 0.1431(4) 1.0294(2) 0.10611(16)
H66 H 0.1076 1.0268 0.0594
H67 H 0.2207 1.0069 0.1140
H68 H 0.1726 1.0897 0.1275
O11 O -0.0720(2) 0.72667(13) 0.10274(10)
O12 O -0.2852(2) 0.66073(13) 0.16038(10)
O13 O 0.17752(19) 0.83557(12) 0.26820(9)
O14 O 0.1885(2) 0.67820(12) 0.21546(9)
O15 O -0.0551(2) 0.55124(13) 0.17012(10)
C37 C -0.1680(3) 0.70889(18) 0.05199(15)
C38 C -0.3066(3) 0.67296(19) 0.04993(15)
H69 H -0.3708 0.6625 0.0090
C39 C -0.3579(3) 0.65128(19) 0.10307(15)
C40 C -0.1255(3) 0.72492(19) -0.01129(15)
C41 C -0.0146(4) 0.8135(2) 0.00210(16)
H70 H 0.0143 0.8254 -0.0374
H71 H 0.0637 0.8130 0.0364
H72 H -0.0509 0.8588 0.0158
C42 C -0.2417(4) 0.7241(2) -0.06863(16)
H73 H -0.2067 0.7345 -0.1068
H74 H -0.2802 0.7698 -0.0582
H75 H -0.3127 0.6676 -0.0778
C43 C -0.0647(4) 0.6535(2) -0.02742(17)
H76 H -0.0365 0.6611 -0.0675
H77 H -0.1335 0.5966 -0.0330
H78 H 0.0145 0.6573 0.0080
C44 C -0.5132(3) 0.6146(2) 0.09504(16)
C45 C -0.5411(4) 0.5372(2) 0.13143(19)
H79 H -0.6393 0.5132 0.1265
H80 H -0.4938 0.5561 0.1774
H81 H -0.5080 0.4926 0.1137
C46 C -0.5996(3) 0.5867(2) 0.02459(17)
H82 H -0.6962 0.5641 0.0238
H83 H -0.5726 0.5413 0.0035
H84 H -0.5852 0.6368 0.0015
C47 C -0.5549(3) 0.6876(2) 0.12592(17)
H85 H -0.6531 0.6674 0.1220
H86 H -0.5330 0.7381 0.1037
H87 H -0.5053 0.7039 0.1718
C48 C 0.3009(3) 0.82975(18) 0.25705(14)
C49 C 0.3053(3) 0.73775(18) 0.26142(14)
H88 H 0.3897 0.7319 0.2521
H89 H 0.3051 0.7247 0.3057
C50 C 0.1812(3) 0.59006(18) 0.21912(15)
H90 H 0.1637 0.5744 0.2607
H91 H 0.2681 0.5810 0.2162
C51 C 0.0672(3) 0.5357(2) 0.16376(16)
H92 H 0.0855 0.5512 0.1223
H93 H 0.0583 0.4736 0.1642
C52 C 0.4220(3) 0.89079(19) 0.30909(16)
H94 H 0.4150 0.8758 0.3518
H95 H 0.4218 0.9507 0.3075
H96 H 0.5069 0.8851 0.3014
C53 C 0.3100(3) 0.8525(2) 0.18988(15)
H97 H 0.2318 0.8130 0.1569
H98 H 0.3945 0.8468 0.1818
H99 H 0.3094 0.9124 0.1880
C54 C -0.1684(4) 0.5010(2) 0.11858(19)
H100 H -0.1583 0.4441 0.1075
H101 H -0.1721 0.5309 0.0807
H102 H -0.2527 0.4933 0.1321
C55 C 0.3227(6) 0.7995(3) 0.9679(3)
H103 H 0.2538 0.7636 0.9865
H104 H 0.3988 0.7759 0.9720
H105 H 0.2822 0.7995 0.9221
C56 C 0.3737(6) 0.8907(4) 1.0035(4)
H106 H 0.2942 0.9122 0.9994
H107 H 0.4084 0.8882 1.0499
C57 C 0.4770(5) 0.9542(3) 0.9851(3)
H108 H 0.4450 0.9526 0.9378
H109 H 0.5584 0.9345 0.9925
C55A C 0.6773(6) 1.2005(3) 1.0321(3)
H103A H 0.7462 1.2364 1.0135
H104A H 0.6012 1.2241 1.0280
H105A H 0.7178 1.2005 1.0779
C56A C 0.6263(6) 1.1093(4) 0.9965(4)
H106A H 0.7058 1.0878 1.0006
H107A H 0.5916 1.1118 0.9501
C57A C 0.5230(5) 1.0458(3) 1.0149(3)
H108A H 0.5550 1.0474 1.0622
H109A H 0.4416 1.0655 1.0075
loop_
_geom_bond_atom_site_label_1
_geom_bond_atom_site_label_2
_geom_bond_site_symmetry_1
_geom_bond_site_symmetry_2
Sr1 O1 1_555 1_555
Sr2 O3 1_555 1_555
Sr3 O1 1_555 1_555
O1 C1 1_555 1_555
O2 Sr1 1_555 1_555
O3 Sr1 1_555 1_555
O4 Sr1 1_555 1_555
O5 Sr1 1_555 1_555
C1 C2 1_555 1_555
C2 H1 1_555 1_555
C3 O2 1_555 1_555
C4 C1 1_555 1_555
C5 C4 1_555 1_555
H2 C5 1_555 1_555
H3 C5 1_555 1_555
H4 C5 1_555 1_555
C6 C4 1_555 1_555
H5 C6 1_555 1_555
H6 C6 1_555 1_555
H7 C6 1_555 1_555
C7 C4 1_555 1_555
H8 C7 1_555 1_555
H9 C7 1_555 1_555
H10 C7 1_555 1_555
C8 C3 1_555 1_555
C9 C8 1_555 1_555
H11 C9 1_555 1_555
H12 C9 1_555 1_555
H13 C9 1_555 1_555
C10 C8 1_555 1_555
H14 C10 1_555 1_555
H15 C10 1_555 1_555
H16 C10 1_555 1_555
C11 C8 1_555 1_555
H17 C11 1_555 1_555
H18 C11 1_555 1_555
H19 C11 1_555 1_555
C12 O3 1_555 1_555
C13 O4 1_555 1_555
H20 C13 1_555 1_555
H21 C13 1_555 1_555
C14 O4 1_555 1_555
H22 C14 1_555 1_555
H23 C14 1_555 1_555
C15 O5 1_555 1_555
H24 C15 1_555 1_555
H25 C15 1_555 1_555
C16 C12 1_555 1_555
H26 C16 1_555 1_555
H27 C16 1_555 1_555
H28 C16 1_555 1_555
C17 C12 1_555 1_555
H29 C17 1_555 1_555
H30 C17 1_555 1_555
H31 C17 1_555 1_555
C18 O5 1_555 1_555
H32 C18 1_555 1_555
H33 C18 1_555 1_555
H34 C18 1_555 1_555
O6 Sr2 1_555 1_555
O7 Sr2 1_555 1_555
O8 Sr1 1_555 1_555
O9 Sr2 1_555 1_555
O10 Sr2 1_555 1_555
C19 O6 1_555 1_555
C20 C19 1_555 1_555
H35 C20 1_555 1_555
C21 O7 1_555 1_555
C22 C19 1_555 1_555
C23 C22 1_555 1_555
H36 C23 1_555 1_555
H37 C23 1_555 1_555
H38 C23 1_555 1_555
C24 C22 1_555 1_555
H39 C24 1_555 1_555
H40 C24 1_555 1_555
H41 C24 1_555 1_555
C25 C22 1_555 1_555
H42 C25 1_555 1_555
H43 C25 1_555 1_555
H44 C25 1_555 1_555
C26 C21 1_555 1_555
C27 C26 1_555 1_555
H45 C27 1_555 1_555
H46 C27 1_555 1_555
H47 C27 1_555 1_555
C28 C26 1_555 1_555
H48 C28 1_555 1_555
H49 C28 1_555 1_555
H50 C28 1_555 1_555
C29 C26 1_555 1_555
H51 C29 1_555 1_555
H52 C29 1_555 1_555
H53 C29 1_555 1_555
C30 O8 1_555 1_555
C31 O9 1_555 1_555
H54 C31 1_555 1_555
H55 C31 1_555 1_555
C32 O9 1_555 1_555
H56 C32 1_555 1_555
H57 C32 1_555 1_555
C33 O10 1_555 1_555
H58 C33 1_555 1_555
H59 C33 1_555 1_555
C34 C30 1_555 1_555
H60 C34 1_555 1_555
H61 C34 1_555 1_555
H62 C34 1_555 1_555
C35 C30 1_555 1_555
H63 C35 1_555 1_555
H64 C35 1_555 1_555
H65 C35 1_555 1_555
C36 O10 1_555 1_555
H66 C36 1_555 1_555
H67 C36 1_555 1_555
H68 C36 1_555 1_555
O11 Sr3 1_555 1_555
O12 Sr3 1_555 1_555
O13 Sr1 1_555 1_555
O14 Sr3 1_555 1_555
O15 Sr3 1_555 1_555
C37 O11 1_555 1_555
C38 C37 1_555 1_555
H69 C38 1_555 1_555
C39 O12 1_555 1_555
C40 C37 1_555 1_555
C41 C40 1_555 1_555
H70 C41 1_555 1_555
H71 C41 1_555 1_555
H72 C41 1_555 1_555
C42 C40 1_555 1_555
H73 C42 1_555 1_555
H74 C42 1_555 1_555
H75 C42 1_555 1_555
C43 C40 1_555 1_555
H76 C43 1_555 1_555
H77 C43 1_555 1_555
H78 C43 1_555 1_555
C44 C39 1_555 1_555
C45 C44 1_555 1_555
H79 C45 1_555 1_555
H80 C45 1_555 1_555
H81 C45 1_555 1_555
C46 C44 1_555 1_555
H82 C46 1_555 1_555
H83 C46 1_555 1_555
H84 C46 1_555 1_555
C47 C44 1_555 1_555
H85 C47 1_555 1_555
H86 C47 1_555 1_555
H87 C47 1_555 1_555
C48 O13 1_555 1_555
C49 O14 1_555 1_555
H88 C49 1_555 1_555
H89 C49 1_555 1_555
C50 O14 1_555 1_555
H90 C50 1_555 1_555
H91 C50 1_555 1_555
C51 O15 1_555 1_555
H92 C51 1_555 1_555
H93 C51 1_555 1_555
C52 C48 1_555 1_555
H94 C52 1_555 1_555
H95 C52 1_555 1_555
H96 C52 1_555 1_555
C53 C48 1_555 1_555
H97 C53 1_555 1_555
H98 C53 1_555 1_555
H99 C53 1_555 1_555
C54 O15 1_555 1_555
H100 C54 1_555 1_555
H101 C54 1_555 1_555
H102 C54 1_555 1_555
C55 H103 1_555 1_555
H104 C55 1_555 1_555
H105 C55 1_555 1_555
C56 C55 1_555 1_555
H106 C56 1_555 1_555
H107 C56 1_555 1_555
C57 C56 1_555 1_555
H108 C57 1_555 1_555
H109 C57 1_555 1_555
C55A H103A 1_555 1_555
H104A C55A 1_555 1_555
H105A C55A 1_555 1_555
C56A C55A 1_555 1_555
H106A C56A 1_555 1_555
H107A C56A 1_555 1_555
C57A C57 1_555 1_555
H108A C57A 1_555 1_555
H109A C57A 1_555 1_555
Sr2 O8 1_555 1_555
Sr2 O13 1_555 1_555
Sr3 O8 1_555 1_555
Sr3 O13 1_555 1_555
C2 C3 1_555 1_555
C12 C13 1_555 1_555
C14 C15 1_555 1_555
C20 C21 1_555 1_555
C30 C31 1_555 1_555
C32 C33 1_555 1_555
C38 C39 1_555 1_555
C48 C49 1_555 1_555
C50 C51 1_555 1_555
C56A C57A 1_555 1_555

#END
