
#######################################################################
#
#                 Cambridge Crystallographic Data Centre
#                                CCDC 
#
#######################################################################
#
# If this CIF has been generated from an entry in the Cambridge 
# Structural Database, then it will include bibliographic, chemical, 
# crystal, experimental, refinement or atomic coordinate data resulting 
# from the CCDC's data processing and validation procedures.
#
#######################################################################

data_CUQHUR
_chemical_formula_moiety         'C16 H22 N2 O5 S1'
_chemical_name_systematic        
'(+-)-t-Butyl 3-(4-(phenylmethyl)-1,1,3-trioxo-1\l^6^,2,5-thiazdiazolan-2-yl)propanoate'
_symmetry_cell_setting           monoclinic
_symmetry_space_group_name_H-M   'P 21/n'
_symmetry_Int_Tables_number      14
_space_group_name_Hall           '-P 2yn'
loop_
_symmetry_equiv_pos_site_id
_symmetry_equiv_pos_as_xyz
1 x,y,z
2 1/2+x,1/2-y,1/2+z
3 -x,-y,-z
4 1/2-x,1/2+y,1/2-z
_cell_length_a                   14.491(5)
_cell_length_b                   7.715(5)
_cell_length_c                   15.862(5)
_cell_angle_alpha                90
_cell_angle_beta                 93.90(2)
_cell_angle_gamma                90
_cell_volume                     1769.23
_exptl_crystal_colour            colorless
_chemical_melting_point          86-88deg.C
_cell_formula_units_Z            4
_exptl_crystal_recrystallization_method 'hexane/ethyl acetate'
loop_
_atom_site_label
_atom_site_type_symbol
_atom_site_fract_x
_atom_site_fract_y
_atom_site_fract_z
S1 S 0.14406(4) 0.15299(7) 0.98047(3)
C1 C 0.37350(13) 0.4881(3) 0.95306(14)
C2 C 0.3804(2) 0.5102(3) 1.04008(15)
H1 H 0.3717(2) 0.4131(3) 1.07650(15)
C3 C 0.3968(2) 0.6735(4) 1.0748(2)
H2 H 0.4024(2) 0.6871(4) 1.1351(2)
C4 C 0.4056(2) 0.8159(3) 1.0232(2)
H3 H 0.4179(2) 0.9274(3) 1.0484(2)
C5 C 0.3988(2) 0.7964(3) 0.9370(2)
H4 H 0.4055(2) 0.8957(3) 0.9014(2)
C6 C 0.38271(15) 0.6332(3) 0.90168(15)
H5 H 0.37744(15) 0.6189(3) 0.84142(15)
C7 C 0.35262(13) 0.3128(3) 0.91463(14)
H6 H 0.36620(13) 0.2243(3) 0.95618(14)
H7 H 0.39123(13) 0.2940(3) 0.86864(14)
C8 C 0.25068(13) 0.3017(3) 0.88233(11)
H8 H 0.23874(13) 0.3871(3) 0.83896(11)
C9 C 0.22702(14) 0.1232(3) 0.84605(12)
O1 O 0.26100(13) 0.0595(2) 0.78580(10)
N1 N 0.16243(12) 0.0441(2) 0.89179(11)
O2 O 0.19938(15) 0.0760(3) 1.04755(10)
O3 O 0.04804(12) 0.1749(2) 0.98982(12)
N2 N 0.18865(12) 0.3331(2) 0.95019(11)
H9 H 0.1422(22) 0.4115(43) 0.9313(21)
C10 C 0.1357(2) -0.1385(3) 0.8817(2)
H10 H 0.1326(2) -0.1902(3) 0.9365(2)
H11 H 0.1817(2) -0.1994(3) 0.8526(2)
C11 C 0.04188(14) -0.1579(3) 0.83404(13)
H12 H 0.04682(14) -0.1196(3) 0.77693(13)
H13 H -0.00275(14) -0.0860(3) 0.85928(13)
C12 C 0.01044(14) -0.3436(3) 0.83341(13)
O4 O 0.05689(11) -0.4592(2) 0.86494(13)
O5 O -0.07284(10) -0.3638(2) 0.79532(10)
C13 C -0.11881(15) -0.5372(3) 0.79044(13)
C14 C -0.1325(2) -0.6041(3) 0.87841(15)
H14 H -0.1685(2) -0.5220(3) 0.90768(15)
H15 H -0.1642(2) -0.7134(3) 0.87489(15)
H16 H -0.0733(2) -0.6188(3) 0.90858(15)
C15 C -0.0624(2) -0.6586(4) 0.7398(2)
H17 H -0.0046(2) -0.6836(4) 0.7706(2)
H18 H -0.0961(2) -0.7643(4) 0.7292(2)
H19 H -0.0507(2) -0.6047(4) 0.6870(2)
C16 C -0.2114(2) -0.4948(4) 0.7452(2)
H20 H -0.2453(2) -0.4178(4) 0.7792(2)
H21 H -0.2009(2) -0.4396(4) 0.6924(2)
H22 H -0.2463(2) -0.5992(4) 0.7346(2)
loop_
_geom_bond_atom_site_label_1
_geom_bond_atom_site_label_2
_geom_bond_site_symmetry_1
_geom_bond_site_symmetry_2
S1 N1 1_555 1_555
C1 C2 1_555 1_555
C2 H1 1_555 1_555
C3 C2 1_555 1_555
H2 C3 1_555 1_555
C4 C3 1_555 1_555
H3 C4 1_555 1_555
C5 C4 1_555 1_555
H4 C5 1_555 1_555
C6 C1 1_555 1_555
H5 C6 1_555 1_555
C7 C1 1_555 1_555
H6 C7 1_555 1_555
H7 C7 1_555 1_555
C8 C7 1_555 1_555
H8 C8 1_555 1_555
C9 C8 1_555 1_555
O1 C9 1_555 1_555
N1 C9 1_555 1_555
O2 S1 1_555 1_555
O3 S1 1_555 1_555
N2 S1 1_555 1_555
H9 N2 1_555 1_555
C10 N1 1_555 1_555
H10 C10 1_555 1_555
H11 C10 1_555 1_555
C11 C10 1_555 1_555
H12 C11 1_555 1_555
H13 C11 1_555 1_555
C12 C11 1_555 1_555
O4 C12 1_555 1_555
O5 C12 1_555 1_555
C13 O5 1_555 1_555
C14 C13 1_555 1_555
H14 C14 1_555 1_555
H15 C14 1_555 1_555
H16 C14 1_555 1_555
C15 C13 1_555 1_555
H17 C15 1_555 1_555
H18 C15 1_555 1_555
H19 C15 1_555 1_555
C16 C13 1_555 1_555
H20 C16 1_555 1_555
H21 C16 1_555 1_555
H22 C16 1_555 1_555
C5 C6 1_555 1_555
C8 N2 1_555 1_555

#END
