
#######################################################################
#
#                 Cambridge Crystallographic Data Centre
#                                CCDC 
#
#######################################################################
#
# If this CIF has been generated from an entry in the Cambridge 
# Structural Database, then it will include bibliographic, chemical, 
# crystal, experimental, refinement or atomic coordinate data resulting 
# from the CCDC's data processing and validation procedures.
#
#######################################################################

data_CUQJEF01
_chemical_compound_source        'Cephalotaxus mannii'
_chemical_name_common            'Mannolide C'
_chemical_formula_moiety         'C20 H24 O4'
_chemical_name_systematic        
9,17-dimethyl-6,15-dioxahexacyclo[12.2.2.1^4,7^.1^10,13^.0^1,12^.0^4,11^]icos-8-ene-5,16-dione
_symmetry_cell_setting           orthorhombic
_symmetry_space_group_name_H-M   'P 21 21 21'
_symmetry_Int_Tables_number      19
_space_group_name_Hall           'P 2ac 2ab'
loop_
_symmetry_equiv_pos_site_id
_symmetry_equiv_pos_as_xyz
1 x,y,z
2 1/2+x,1/2-y,-z
3 -x,1/2+y,1/2-z
4 1/2-x,-y,1/2+z
_cell_length_a                   7.1625(2)
_cell_length_b                   7.7880(2)
_cell_length_c                   28.9103(7)
_cell_angle_alpha                90
_cell_angle_beta                 90
_cell_angle_gamma                90
_cell_volume                     1612.66
_exptl_crystal_colour            colorless
_exptl_crystal_description       prism
_cell_formula_units_Z            4
loop_
_atom_site_label
_atom_site_type_symbol
_atom_site_fract_x
_atom_site_fract_y
_atom_site_fract_z
O1 O -0.3001(2) 0.1475(2) 0.96244(6)
O2 O -0.5027(2) -0.0401(3) 0.93431(6)
O3 O 0.2008(3) -0.0342(3) 0.74803(5)
O4 O -0.1059(3) -0.0241(3) 0.74142(8)
C1 C -0.0847(3) 0.2722(3) 0.90824(8)
H1 H -0.1719 0.3708 0.9033
C2 C -0.1067(4) 0.2068(3) 0.95777(8)
H2 H -0.0831 0.3028 0.9800
C3 C 0.0202(3) 0.0569(3) 0.96908(7)
H3 H 0.0022 0.0220 1.0017
H4 H 0.1522 0.0912 0.9649
C4 C -0.0261(3) -0.0946(3) 0.93683(7)
H5 H 0.0873 -0.1205 0.9179
C5 C -0.1855(3) -0.0400(3) 0.90338(7)
C6 C -0.2491(18) -0.1701(18) 0.8659(4)
H6 H -0.3040 -0.2729 0.8807
H7 H -0.3449 -0.1172 0.8458
C7 C -0.0852(7) -0.2192(5) 0.83831(16)
H8 H -0.1289 -0.2932 0.8127
H9 H -0.0031 -0.2904 0.8581
C8 C 0.0349(4) -0.0747(3) 0.81726(8)
C9 C 0.0201(3) 0.1075(2) 0.84072(7)
H10 H -0.0069 0.1909 0.8153
C10 C -0.1397(3) 0.1248(2) 0.87544(7)
H11 H -0.2545 0.1601 0.8582
C11 C 0.1942(3) 0.1750(3) 0.86569(8)
H12 H 0.2369 0.0850 0.8880
C12 C 0.3570(3) 0.2190(3) 0.83395(8)
C13 C 0.4135(3) 0.1161(4) 0.79988(8)
H13 H 0.5160 0.1565 0.7821
C14 C 0.3370(4) -0.0540(4) 0.78604(8)
H14 H 0.4422 -0.1278 0.7750
C15 C 0.2273(5) -0.1521(3) 0.82152(8)
H15 H 0.2790 -0.1349 0.8529
H16 H 0.2256 -0.2764 0.8144
C16 C 0.4584(3) 0.3845(3) 0.84300(13)
H17 H 0.5718 0.3889 0.8241
H18 H 0.4922 0.3912 0.8758
H19 H 0.3773 0.4815 0.8350
C17 C 0.0282(3) -0.0421(3) 0.76534(8)
C18 C -0.0781(4) -0.2570(4) 0.96409(11)
H20 H 0.0264 -0.2900 0.9841
H21 H -0.1055 -0.3505 0.9425
H22 H -0.1885 -0.2340 0.9831
C19 C -0.3462(3) 0.0157(3) 0.93388(7)
C20 C 0.1137(3) 0.3269(3) 0.89380(9)
H23 H 0.1916 0.3498 0.9214
H24 H 0.1093 0.4322 0.8746
C21? C -0.216(3) -0.197(3) 0.8729(6)
H25? H -0.3475 -0.2341 0.8759
H26? H -0.1359 -0.2913 0.8842
C22? C -0.1725(9) -0.1649(7) 0.8207(2)
H27? H -0.2682 -0.0885 0.8070
H28? H -0.1733 -0.2750 0.8036
loop_
_geom_bond_atom_site_label_1
_geom_bond_atom_site_label_2
_geom_bond_site_symmetry_1
_geom_bond_site_symmetry_2
O1 C2 1_555 1_555
O2 C19 1_555 1_555
O3 C14 1_555 1_555
O4 C17 1_555 1_555
C1 H1 1_555 1_555
C2 C1 1_555 1_555
H2 C2 1_555 1_555
C3 C2 1_555 1_555
H3 C3 1_555 1_555
H4 C3 1_555 1_555
C4 C3 1_555 1_555
H5 C4 1_555 1_555
C5 C4 1_555 1_555
C6 C5 1_555 1_555
H6 C6 1_555 1_555
H7 C6 1_555 1_555
C7 C6 1_555 1_555
H8 C7 1_555 1_555
H9 C7 1_555 1_555
C8 C7 1_555 1_555
C9 C8 1_555 1_555
H10 C9 1_555 1_555
C10 C1 1_555 1_555
H11 C10 1_555 1_555
C11 C9 1_555 1_555
H12 C11 1_555 1_555
C12 C11 1_555 1_555
C13 C12 1_555 1_555
H13 C13 1_555 1_555
C14 C13 1_555 1_555
H14 C14 1_555 1_555
C15 C8 1_555 1_555
H15 C15 1_555 1_555
H16 C15 1_555 1_555
C16 C12 1_555 1_555
H17 C16 1_555 1_555
H18 C16 1_555 1_555
H19 C16 1_555 1_555
C17 O3 1_555 1_555
C18 C4 1_555 1_555
H20 C18 1_555 1_555
H21 C18 1_555 1_555
H22 C18 1_555 1_555
C19 O1 1_555 1_555
C20 C1 1_555 1_555
H23 C20 1_555 1_555
H24 C20 1_555 1_555
C5 C10 1_555 1_555
C5 C19 1_555 1_555
C8 C17 1_555 1_555
C9 C10 1_555 1_555
C11 C20 1_555 1_555
C14 C15 1_555 1_555

#END
