
#######################################################################
#
#                 Cambridge Crystallographic Data Centre
#                                CCDC 
#
#######################################################################
#
# If this CIF has been generated from an entry in the Cambridge 
# Structural Database, then it will include bibliographic, chemical, 
# crystal, experimental, refinement or atomic coordinate data resulting 
# from the CCDC's data processing and validation procedures.
#
#######################################################################

data_CUQWEQ
_chemical_name_common            'Isoflavone yellow'
_chemical_formula_moiety         'C19 H20 B1 F2 N1 O4'
_chemical_name_systematic        
1-(2'-Difluoroboryloxy-4'-methoxyphenyl)-3-dimethylamino-2-(4''-methoxyphenyl)prop-2-enone
_chemical_properties_biological  
'nematicidal mosquitocidal and topoisomerase I and II inhibitory activity'
_symmetry_cell_setting           orthorhombic
_symmetry_space_group_name_H-M   'P b c a'
_symmetry_Int_Tables_number      61
_space_group_name_Hall           '-P 2ac 2ab'
loop_
_symmetry_equiv_pos_site_id
_symmetry_equiv_pos_as_xyz
1 x,y,z
2 1/2+x,y,1/2-z
3 x,1/2-y,1/2+z
4 1/2-x,1/2+y,z
5 -x,-y,-z
6 1/2-x,-y,1/2+z
7 -x,1/2+y,1/2-z
8 1/2+x,1/2-y,-z
_cell_length_a                   14.056(3)
_cell_length_b                   13.921(3)
_cell_length_c                   18.250(4)
_cell_angle_alpha                90
_cell_angle_beta                 90
_cell_angle_gamma                90
_cell_volume                     3571.04
_exptl_crystal_colour            yellow
_exptl_crystal_description       prism
_cell_formula_units_Z            8
_exptl_crystal_recrystallization_method DMSO/acetone
loop_
_atom_site_label
_atom_site_type_symbol
_atom_site_fract_x
_atom_site_fract_y
_atom_site_fract_z
F1 F 0.04735(8) 0.68219(9) 0.35691(7)
F2 F -0.03431(8) 0.82317(8) 0.35675(6)
B1 B -0.01542(16) 0.73998(16) 0.39554(13)
O1 O -0.10840(9) 0.68787(10) 0.40298(7)
C1 C -0.12878(13) 0.63127(13) 0.45937(10)
C2 C -0.21676(13) 0.58268(14) 0.45573(10)
C3 C -0.25716(14) 0.57580(14) 0.38542(11)
H1 H -0.2175(14) 0.5916(14) 0.3445(11)
N1 N -0.34396(11) 0.55006(12) 0.36613(9)
C4 C -0.42438(15) 0.53828(18) 0.41682(14)
H2 H -0.4330(17) 0.4692(18) 0.4299(13)
H3 H -0.4167(16) 0.5802(17) 0.4607(13)
H4 H -0.4806(17) 0.5578(15) 0.3901(12)
C5 C -0.36720(19) 0.5341(2) 0.28848(13)
H5 H -0.4163(17) 0.5829(17) 0.2710(13)
H6 H -0.3959(16) 0.4697(17) 0.2840(12)
H7 H -0.3085(18) 0.5380(17) 0.2578(13)
C6 C -0.05879(13) 0.62649(13) 0.51823(10)
C7 C 0.01525(13) 0.69529(13) 0.51932(10)
C8 C 0.08433(14) 0.69495(14) 0.57457(11)
H8 H 0.1343(14) 0.7453(14) 0.5722(10)
C9 C 0.08297(13) 0.62273(14) 0.62663(10)
C10 C 0.01282(14) 0.55100(15) 0.62515(11)
H9 H 0.0158(14) 0.5019(15) 0.6600(11)
C11 C -0.05627(14) 0.55338(14) 0.57237(11)
H10 H -0.1038(14) 0.5024(14) 0.5718(10)
O2 O 0.02161(9) 0.76415(9) 0.46750(7)
O3 O 0.14929(10) 0.61257(10) 0.68051(8)
C12 C 0.2178(2) 0.6875(2) 0.68965(16)
H11 H 0.1818(16) 0.7452(18) 0.7035(12)
H12 H 0.255(2) 0.6946(18) 0.6427(14)
H13 H 0.2589(18) 0.6644(17) 0.7314(14)
C13 C -0.25956(13) 0.53241(14) 0.52025(10)
C14 C -0.28919(14) 0.58180(16) 0.58297(11)
H14 H -0.2853(14) 0.6528(15) 0.5841(11)
C15 C -0.32660(15) 0.53296(17) 0.64226(12)
H15 H -0.3491(15) 0.5676(15) 0.6843(12)
C16 C -0.33567(14) 0.43332(16) 0.64031(11)
C17 C -0.30903(14) 0.38294(16) 0.57807(12)
H16 H -0.3157(14) 0.3124(15) 0.5744(11)
C18 C -0.27119(14) 0.43329(15) 0.51901(12)
H17 H -0.2534(14) 0.3979(15) 0.4763(11)
O4 O -0.37327(11) 0.39153(12) 0.70209(8)
C19 C -0.3961(2) 0.2916(2) 0.69772(15)
H18 H -0.337(2) 0.253(2) 0.6862(14)
H19 H -0.4444(17) 0.2838(17) 0.6577(14)
H20 H -0.4232(17) 0.2739(16) 0.7450(14)
loop_
_geom_bond_atom_site_label_1
_geom_bond_atom_site_label_2
_geom_bond_site_symmetry_1
_geom_bond_site_symmetry_2
F1 B1 1_555 1_555
F2 B1 1_555 1_555
B1 O1 1_555 1_555
O1 C1 1_555 1_555
C1 C2 1_555 1_555
C2 C3 1_555 1_555
C3 H1 1_555 1_555
N1 C3 1_555 1_555
C4 N1 1_555 1_555
H2 C4 1_555 1_555
H3 C4 1_555 1_555
H4 C4 1_555 1_555
C5 N1 1_555 1_555
H5 C5 1_555 1_555
H6 C5 1_555 1_555
H7 C5 1_555 1_555
C6 C1 1_555 1_555
C7 C6 1_555 1_555
C8 C7 1_555 1_555
H8 C8 1_555 1_555
C9 C8 1_555 1_555
C10 C9 1_555 1_555
H9 C10 1_555 1_555
C11 C6 1_555 1_555
H10 C11 1_555 1_555
O2 B1 1_555 1_555
O3 C9 1_555 1_555
C12 O3 1_555 1_555
H11 C12 1_555 1_555
H12 C12 1_555 1_555
H13 C12 1_555 1_555
C13 C2 1_555 1_555
C14 C13 1_555 1_555
H14 C14 1_555 1_555
C15 C14 1_555 1_555
H15 C15 1_555 1_555
C16 C15 1_555 1_555
C17 C16 1_555 1_555
H16 C17 1_555 1_555
C18 C13 1_555 1_555
H17 C18 1_555 1_555
O4 C16 1_555 1_555
C19 O4 1_555 1_555
H18 C19 1_555 1_555
H19 C19 1_555 1_555
H20 C19 1_555 1_555
C7 O2 1_555 1_555
C10 C11 1_555 1_555
C17 C18 1_555 1_555

#END
