
#######################################################################
#
#                 Cambridge Crystallographic Data Centre
#                                CCDC 
#
#######################################################################
#
# If this CIF has been generated from an entry in the Cambridge 
# Structural Database, then it will include bibliographic, chemical, 
# crystal, experimental, refinement or atomic coordinate data resulting 
# from the CCDC's data processing and validation procedures.
#
#######################################################################

data_CURDEZ
_chemical_formula_moiety         'C49 H56 N2 P2'
_chemical_name_systematic        
Methylene-bis(((2,6-diisopropylphenyl)imino)(diphenyl)phosphorane)
_symmetry_cell_setting           triclinic
_symmetry_space_group_name_H-M   'P -1'
_symmetry_Int_Tables_number      2
_space_group_name_Hall           '-P 1'
loop_
_symmetry_equiv_pos_site_id
_symmetry_equiv_pos_as_xyz
1 x,y,z
2 -x,-y,-z
_cell_length_a                   10.9922(2)
_cell_length_b                   12.0139(2)
_cell_length_c                   17.9531(4)
_cell_angle_alpha                94.716(1)
_cell_angle_beta                 106.840(1)
_cell_angle_gamma                106.571(1)
_cell_volume                     2139.56
_exptl_crystal_colour            colorless
_exptl_crystal_description       block
_cell_formula_units_Z            2
loop_
_atom_site_label
_atom_site_type_symbol
_atom_site_fract_x
_atom_site_fract_y
_atom_site_fract_z
C1 C 0.95422(14) 0.72116(12) 0.22462(8)
H1 H 0.8620 0.7067 0.1884
H2 H 0.9746 0.6472 0.2151
P1 P 0.93861(4) 0.72842(3) 0.32380(2)
C2 C 0.85873(14) 0.83938(12) 0.33215(8)
C3 C 0.72573(15) 0.81012(13) 0.28238(9)
H3 H 0.6837 0.7360 0.2476
C4 C 0.65470(15) 0.88882(14) 0.28357(9)
H4 H 0.5649 0.8692 0.2492
C5 C 0.71575(16) 0.99617(14) 0.33532(10)
H5 H 0.6681 1.0508 0.3354
C6 C 0.84558(16) 1.02423(13) 0.38685(9)
H6 H 0.8856 1.0969 0.4232
C7 C 0.91768(15) 0.94618(13) 0.38558(9)
H7 H 1.0068 0.9656 0.4210
C8 C 1.10381(14) 0.77828(13) 0.39762(8)
C9 C 1.20017(15) 0.88775(13) 0.40547(9)
H8 H 1.1828 0.9385 0.3687
C10 C 1.32082(16) 0.92168(15) 0.46691(10)
H9 H 1.3857 0.9965 0.4729
C11 C 1.34767(16) 0.84690(16) 0.52001(10)
H10 H 1.4311 0.8708 0.5618
C12 C 1.25390(16) 0.73805(15) 0.51249(9)
H11 H 1.2728 0.6872 0.5489
C13 C 1.13199(16) 0.70364(13) 0.45143(9)
H12 H 1.0673 0.6290 0.4461
N1 N 0.85816(13) 0.60165(10) 0.32803(8)
C14 C 0.74202(14) 0.54394(12) 0.34392(9)
C15 C 0.72071(15) 0.57130(13) 0.41645(9)
C16 C 0.60802(16) 0.49923(14) 0.43036(10)
H13 H 0.5946 0.5163 0.4794
C17 C 0.51561(16) 0.40385(14) 0.37473(11)
H14 H 0.4403 0.3554 0.3858
C18 C 0.53353(16) 0.37918(14) 0.30240(11)
H15 H 0.4690 0.3144 0.2637
C19 C 0.64485(15) 0.44802(13) 0.28572(9)
C20 C 0.81761(16) 0.67469(13) 0.48063(9)
H16 H 0.8898 0.7174 0.4600
C21 C 0.74923(18) 0.76276(15) 0.50081(11)
H17 H 0.7141 0.7944 0.4536
H18 H 0.8149 0.8275 0.5427
H19 H 0.6752 0.7224 0.5190
C22 C 0.88490(19) 0.63220(16) 0.55513(10)
H20 H 0.9304 0.5783 0.5414
H21 H 0.8166 0.5909 0.5772
H22 H 0.9507 0.7002 0.5943
C23 C 0.66704(17) 0.41977(14) 0.20779(10)
H23 H 0.7158 0.4964 0.1957
C24 C 0.5387(2) 0.36318(17) 0.13771(12)
H24 H 0.4803 0.4122 0.1340
H25 H 0.4920 0.2844 0.1451
H26 H 0.5613 0.3566 0.0889
C25 C 0.7593(2) 0.34362(19) 0.21650(13)
H27 H 0.8428 0.3833 0.2603
H28 H 0.7798 0.3321 0.1674
H29 H 0.7141 0.2668 0.2273
P2 P 1.06320(4) 0.82876(3) 0.18430(2)
C26 C 1.04402(15) 0.96975(12) 0.20881(8)
C27 C 1.15858(15) 1.06839(13) 0.24374(9)
H30 H 1.2453 1.0603 0.2555
C28 C 1.14530(17) 1.17823(13) 0.26122(9)
H31 H 1.2232 1.2450 0.2858
C29 C 1.01894(17) 1.19089(13) 0.24292(9)
H32 H 1.0105 1.2664 0.2543
C30 C 0.90466(16) 1.09315(14) 0.20802(9)
H33 H 0.8181 1.1018 0.1957
C31 C 0.91701(15) 0.98288(13) 0.19111(9)
H34 H 0.8388 0.9161 0.1674
C32 C 0.97367(14) 0.77567(13) 0.07910(8)
C33 C 0.95139(16) 0.65824(13) 0.04782(9)
H35 H 0.9802 0.6077 0.0819
C34 C 0.88774(17) 0.61489(15) -0.03240(10)
H36 H 0.8723 0.5349 -0.0530
C35 C 0.84652(17) 0.68880(15) -0.08259(10)
H37 H 0.8022 0.6591 -0.1375
C36 C 0.86991(17) 0.80585(15) -0.05262(9)
H38 H 0.8425 0.8564 -0.0872
C37 C 0.93321(15) 0.84931(13) 0.02771(9)
H39 H 0.9492 0.9296 0.0479
N2 N 1.21588(12) 0.84371(10) 0.21135(7)
C38 C 1.27907(14) 0.77573(12) 0.17806(8)
C39 C 1.30901(14) 0.68075(12) 0.21257(8)
C40 C 1.37886(15) 0.61900(13) 0.18158(9)
H40 H 1.3994 0.5557 0.2050
C41 C 1.41862(16) 0.64850(14) 0.11731(10)
H41 H 1.4643 0.6047 0.0961
C42 C 1.39117(16) 0.74231(14) 0.08436(9)
H42 H 1.4195 0.7630 0.0407
C43 C 1.32283(15) 0.80751(13) 0.11368(9)
C44 C 1.27084(15) 0.64856(13) 0.28444(9)
H43 H 1.2193 0.7004 0.2961
C45 C 1.17989(19) 0.52046(14) 0.26966(11)
H44 H 1.1062 0.5040 0.2196
H45 H 1.1429 0.5079 0.3130
H46 H 1.2322 0.4674 0.2669
C46 C 1.39641(18) 0.67376(17) 0.35666(10)
H47 H 1.4483 0.7580 0.3679
H48 H 1.4516 0.6273 0.3459
H49 H 1.3698 0.6522 0.4025
C47 C 1.30493(17) 0.91501(14) 0.07923(10)
H50 H 1.2368 0.9385 0.0978
C48 C 1.2540(2) 0.8919(2) -0.01099(11)
H51 H 1.1695 0.8260 -0.0304
H52 H 1.3209 0.8722 -0.0308
H53 H 1.2390 0.9628 -0.0298
C49 C 1.4363(2) 1.01673(18) 0.11103(16)
H54 H 1.4584 1.0403 0.1682
H55 H 1.4270 1.0838 0.0849
H56 H 1.5081 0.9918 0.1006
loop_
_geom_bond_atom_site_label_1
_geom_bond_atom_site_label_2
_geom_bond_site_symmetry_1
_geom_bond_site_symmetry_2
C1 H1 1_555 1_555
H2 C1 1_555 1_555
P1 C1 1_555 1_555
C2 P1 1_555 1_555
C3 C2 1_555 1_555
H3 C3 1_555 1_555
C4 C3 1_555 1_555
H4 C4 1_555 1_555
C5 C4 1_555 1_555
H5 C5 1_555 1_555
C6 C5 1_555 1_555
H6 C6 1_555 1_555
C7 C2 1_555 1_555
H7 C7 1_555 1_555
C8 P1 1_555 1_555
C9 C8 1_555 1_555
H8 C9 1_555 1_555
C10 C9 1_555 1_555
H9 C10 1_555 1_555
C11 C10 1_555 1_555
H10 C11 1_555 1_555
C12 C11 1_555 1_555
H11 C12 1_555 1_555
C13 C8 1_555 1_555
H12 C13 1_555 1_555
N1 P1 1_555 1_555
C14 N1 1_555 1_555
C15 C14 1_555 1_555
C16 C15 1_555 1_555
H13 C16 1_555 1_555
C17 C16 1_555 1_555
H14 C17 1_555 1_555
C18 C17 1_555 1_555
H15 C18 1_555 1_555
C19 C14 1_555 1_555
C20 C15 1_555 1_555
H16 C20 1_555 1_555
C21 C20 1_555 1_555
H17 C21 1_555 1_555
H18 C21 1_555 1_555
H19 C21 1_555 1_555
C22 C20 1_555 1_555
H20 C22 1_555 1_555
H21 C22 1_555 1_555
H22 C22 1_555 1_555
C23 C19 1_555 1_555
H23 C23 1_555 1_555
C24 C23 1_555 1_555
H24 C24 1_555 1_555
H25 C24 1_555 1_555
H26 C24 1_555 1_555
C25 C23 1_555 1_555
H27 C25 1_555 1_555
H28 C25 1_555 1_555
H29 C25 1_555 1_555
P2 C1 1_555 1_555
C26 P2 1_555 1_555
C27 C26 1_555 1_555
H30 C27 1_555 1_555
C28 C27 1_555 1_555
H31 C28 1_555 1_555
C29 C28 1_555 1_555
H32 C29 1_555 1_555
C30 C29 1_555 1_555
H33 C30 1_555 1_555
C31 C26 1_555 1_555
H34 C31 1_555 1_555
C32 P2 1_555 1_555
C33 C32 1_555 1_555
H35 C33 1_555 1_555
C34 C33 1_555 1_555
H36 C34 1_555 1_555
C35 C34 1_555 1_555
H37 C35 1_555 1_555
C36 C35 1_555 1_555
H38 C36 1_555 1_555
C37 C32 1_555 1_555
H39 C37 1_555 1_555
N2 P2 1_555 1_555
C38 N2 1_555 1_555
C39 C38 1_555 1_555
C40 C39 1_555 1_555
H40 C40 1_555 1_555
C41 C40 1_555 1_555
H41 C41 1_555 1_555
C42 C41 1_555 1_555
H42 C42 1_555 1_555
C43 C38 1_555 1_555
C44 C39 1_555 1_555
H43 C44 1_555 1_555
C45 C44 1_555 1_555
H44 C45 1_555 1_555
H45 C45 1_555 1_555
H46 C45 1_555 1_555
C46 C44 1_555 1_555
H47 C46 1_555 1_555
H48 C46 1_555 1_555
H49 C46 1_555 1_555
C47 C43 1_555 1_555
H50 C47 1_555 1_555
C48 C47 1_555 1_555
H51 C48 1_555 1_555
H52 C48 1_555 1_555
H53 C48 1_555 1_555
C49 C47 1_555 1_555
H54 C49 1_555 1_555
H55 C49 1_555 1_555
H56 C49 1_555 1_555
C6 C7 1_555 1_555
C12 C13 1_555 1_555
C18 C19 1_555 1_555
C30 C31 1_555 1_555
C36 C37 1_555 1_555
C42 C43 1_555 1_555

#END
