
#######################################################################
#
#                 Cambridge Crystallographic Data Centre
#                                CCDC 
#
#######################################################################
#
# If this CIF has been generated from an entry in the Cambridge 
# Structural Database, then it will include bibliographic, chemical, 
# crystal, experimental, refinement or atomic coordinate data resulting 
# from the CCDC's data processing and validation procedures.
#
#######################################################################

data_CURFOL
_chemical_formula_moiety         'C15 H17 N1 O4'
_chemical_name_systematic        3-(4-Nitrophenyl)-2-oxaspiro[4.5]decan-6-one
_symmetry_cell_setting           monoclinic
_symmetry_space_group_name_H-M   'P 21/c'
_symmetry_Int_Tables_number      14
_space_group_name_Hall           '-P 2ybc'
loop_
_symmetry_equiv_pos_site_id
_symmetry_equiv_pos_as_xyz
1 x,y,z
2 -x,1/2+y,1/2-z
3 -x,-y,-z
4 x,1/2-y,1/2+z
_cell_length_a                   6.3966(7)
_cell_length_b                   10.012(1)
_cell_length_c                   22.003(2)
_cell_angle_alpha                90
_cell_angle_beta                 99.653(2)
_cell_angle_gamma                90
_cell_volume                     1389.18
_exptl_crystal_colour            colorless
_exptl_crystal_description       block
_cell_formula_units_Z            4
loop_
_atom_site_label
_atom_site_type_symbol
_atom_site_fract_x
_atom_site_fract_y
_atom_site_fract_z
O1 O 0.1112(3) 0.0590(2) 0.15555(8)
O2 O 0.3304(4) 0.2554(2) 0.3020(1)
O3 O 0.8837(5) 0.2110(4) -0.0376(1)
O4 O 0.6424(5) 0.3621(4) -0.0515(1)
N1 N 0.7217(5) 0.2619(4) -0.0260(1)
C1 C 0.6061(4) 0.0249(3) 0.0934(1)
C2 C 0.0491(4) 0.0315(3) 0.2121(1)
C3 C 0.2508(4) 0.0352(3) 0.2628(1)
C4 C 0.3378(4) 0.1925(3) 0.0789(1)
C5 C 0.7052(4) 0.0844(3) 0.0494(1)
C6 C 0.3243(4) 0.0147(3) 0.1592(1)
C7 C 0.2741(4) -0.0932(3) 0.3006(1)
C8 C 0.4274(4) 0.0526(3) 0.2237(1)
C9 C 0.2334(5) 0.1526(3) 0.3050(1)
C10 C 0.4225(4) 0.0792(3) 0.1088(1)
C11 C 0.6168(5) 0.1977(3) 0.0207(1)
C12 C 0.1095(6) 0.0066(4) 0.3847(1)
C13 C 0.1043(5) -0.1090(3) 0.3408(1)
C14 C 0.0819(6) 0.1378(3) 0.3495(2)
C15 C 0.4337(5) 0.2529(3) 0.0342(1)
H1 H 0.6630 -0.0524 0.1130
H2 H -0.0169 -0.0558 0.2110
H3 H -0.0526 0.0977 0.2208
H4 H 0.2141 0.2289 0.0888
H5 H 0.8292 0.0486 0.0394
H6 H 0.3266 -0.0826 0.1547
H7 H 0.2676 -0.1689 0.2729
H8 H 0.4124 -0.0939 0.3267
H9 H 0.4769 0.1443 0.2250
H10 H 0.5465 -0.0056 0.2383
H11 H 0.2437 0.0071 0.4128
H12 H -0.0032 -0.0034 0.4088
H13 H -0.0340 -0.1137 0.3149
H14 H 0.1273 -0.1916 0.3640
H15 H -0.0620 0.1433 0.3272
H16 H 0.1028 0.2112 0.3787
H17 H 0.3755 0.3291 0.0138
loop_
_geom_bond_atom_site_label_1
_geom_bond_atom_site_label_2
_geom_bond_site_symmetry_1
_geom_bond_site_symmetry_2
O1 C2 1_555 1_555
O2 C9 1_555 1_555
O3 N1 1_555 1_555
O4 N1 1_555 1_555
N1 C11 1_555 1_555
C1 C5 1_555 1_555
C2 C3 1_555 1_555
C3 C7 1_555 1_555
C4 C10 1_555 1_555
C5 C11 1_555 1_555
C6 O1 1_555 1_555
C7 C13 1_555 1_555
C8 C3 1_555 1_555
C9 C3 1_555 1_555
C10 C1 1_555 1_555
C11 C15 1_555 1_555
C12 C13 1_555 1_555
C13 H13 1_555 1_555
C14 C9 1_555 1_555
C15 C4 1_555 1_555
H1 C1 1_555 1_555
H2 C2 1_555 1_555
H3 C2 1_555 1_555
H4 C4 1_555 1_555
H5 C5 1_555 1_555
H6 C6 1_555 1_555
H7 C7 1_555 1_555
H8 C7 1_555 1_555
H9 C8 1_555 1_555
H10 C8 1_555 1_555
H11 C12 1_555 1_555
H12 C12 1_555 1_555
H14 C13 1_555 1_555
H15 C14 1_555 1_555
H16 C14 1_555 1_555
H17 C15 1_555 1_555
C6 C8 1_555 1_555
C6 C10 1_555 1_555
C12 C14 1_555 1_555

#END
