
#######################################################################
#
#                 Cambridge Crystallographic Data Centre
#                                CCDC 
#
#######################################################################
#
# If this CIF has been generated from an entry in the Cambridge 
# Structural Database, then it will include bibliographic, chemical, 
# crystal, experimental, refinement or atomic coordinate data resulting 
# from the CCDC's data processing and validation procedures.
#
#######################################################################

data_CURHEE
_chemical_formula_moiety         'C21 H32 O4,0.5(H2 O1)'
_chemical_name_systematic        
'5,9-dihydroxy-3-isopropyl-9-(methoxymethyl)-6,10a-dimethyl-4,5,6,6a,7,8,9,10a-octahydrodicyclopenta[a,d][8]annulen-2(1H)-one hemihydrate'
_symmetry_cell_setting           monoclinic
_symmetry_space_group_name_H-M   'P 21'
_symmetry_Int_Tables_number      4
_space_group_name_Hall           'P 2yb'
loop_
_symmetry_equiv_pos_site_id
_symmetry_equiv_pos_as_xyz
1 x,y,z
2 -x,1/2+y,-z
_cell_length_a                   11.2365(5)
_cell_length_b                   14.6572(6)
_cell_length_c                   13.0729(6)
_cell_angle_alpha                90
_cell_angle_beta                 109.815(2)
_cell_angle_gamma                90
_cell_volume                     2025.57
_exptl_crystal_colour            colorless
_exptl_crystal_description       prism
_cell_formula_units_Z            4
loop_
_atom_site_label
_atom_site_type_symbol
_atom_site_fract_x
_atom_site_fract_y
_atom_site_fract_z
C1 C 0.64435(11) 0.80001(8) 0.48493(10)
H1 H 0.6143 0.7404 0.4790
O1 O 0.97316(14) 0.83553(9) 0.36065(12)
O2 O 0.75035(9) 1.10893(8) 0.68002(8)
H2 H 0.8253 1.1226 0.7066
C2 C 0.82620(16) 0.75206(12) 0.64279(14)
H3 H 0.7896 0.7797 0.6917
H4 H 0.9167 0.7526 0.6751
H5 H 0.7971 0.6902 0.6285
C3 C 0.92397(19) 1.05058(13) 0.37152(17)
H6 H 0.9376 1.0098 0.3191
H7 H 0.9645 1.1079 0.3695
H8 H 0.8348 1.0602 0.3547
C4 C 0.97955(12) 1.00914(10) 0.48478(13)
H9 H 0.9651 1.0523 0.5366
C5 C 0.91170(11) 0.92152(9) 0.49110(11)
C6 C 0.84099(10) 0.90218(8) 0.55279(9)
C7 C 0.78653(12) 0.80600(8) 0.53547(10)
C8 C 0.55278(11) 0.86131(8) 0.44708(9)
C9 C 0.41826(11) 0.82670(9) 0.38493(10)
C10 C 0.34164(13) 0.81030(11) 0.45952(12)
H10 H 0.3324 0.8673 0.4938
H11 H 0.2578 0.7889 0.4168
O3 O 0.40062(12) 0.74550(8) 0.54020(10)
C11 C 0.3391(3) 0.73789(18) 0.6169(2)
H12 H 0.3497 0.7935 0.6579
H13 H 0.3748 0.6881 0.6653
H14 H 0.2506 0.7269 0.5802
C12 C 1.12224(15) 0.99402(14) 0.51735(19)
H15 H 1.1534 0.9671 0.5885
H16 H 1.1635 1.0515 0.5182
H17 H 1.1393 0.9540 0.4659
C13 C 0.91791(12) 0.84065(10) 0.42559(11)
C14 C 0.84612(13) 0.76449(10) 0.45478(13)
H18 H 0.9026 0.7147 0.4886
H19 H 0.7808 0.7416 0.3904
C15 C 0.55506(11) 0.96591(8) 0.44252(9)
H20 H 0.6118 0.9835 0.4032
C16 C 0.41787(13) 0.99157(10) 0.37048(12)
H21 H 0.3699 1.0121 0.4154
H22 H 0.4191 1.0401 0.3204
C17 C 0.35894(12) 0.90591(10) 0.30844(11)
H23 H 0.3778 0.9010 0.2415
H24 H 0.2678 0.9065 0.2908
O4 O 0.42390(9) 0.74638(6) 0.32492(8)
H25 H 0.3709 0.7096 0.3295
C18 C 0.59326(11) 1.02122(9) 0.54940(10)
H26 H 0.5495 1.0799 0.5300
C19 C 0.54598(16) 0.98050(15) 0.63516(13)
H27 H 0.5730 0.9181 0.6478
H28 H 0.4553 0.9831 0.6104
H29 H 0.5798 1.0145 0.7015
C20 C 0.73410(11) 1.04475(9) 0.59418(10)
H30 H 0.7574 1.0744 0.5365
C21 C 0.82328(12) 0.96401(9) 0.63774(10)
H31 H 0.9054 0.9876 0.6818
H32 H 0.7910 0.9282 0.6850
O5 O -0.00186(9) 0.15821(12) 0.75498(14)
H33 H 0.0016 0.1565 0.6923
H34 H 0.0836 0.1401 0.7499
O6 O 0.61236(12) 0.73090(8) 0.97260(10)
C22 C 0.36369(11) 0.78672(8) 1.02158(10)
H35 H 0.3945 0.7273 1.0297
O7 O 0.24626(9) 1.08489(8) 0.80525(8)
H36 H 0.2963 1.1277 0.8198
O8 O 0.02899(15) 0.83081(10) 1.13869(13)
C23 C 0.6713(3) 0.72431(19) 0.8943(2)
H37 H 0.6599 0.7803 0.8541
H38 H 0.6345 0.6749 0.8456
H39 H 0.7600 0.7131 0.9296
C24 C 0.66878(13) 0.79787(11) 1.05094(12)
H40 H 0.6789 0.8537 1.0148
H41 H 0.7521 0.7774 1.0962
C25 C 0.58871(11) 0.81706(9) 1.12203(10)
C26 C 0.45401(10) 0.84893(8) 1.05698(9)
C27 C 0.22141(11) 0.79163(8) 0.97081(10)
C28 C 0.16549(10) 0.88726(8) 0.94644(10)
C29 C 0.09309(12) 0.90959(9) 1.00532(11)
C30 C 0.02309(13) 0.99769(10) 1.00457(14)
H42 H 0.0391 1.0386 0.9513
C31 C 0.0747(2) 1.04345(13) 1.11584(18)
H43 H 0.0575 1.0056 1.1692
H44 H 0.0346 1.1017 1.1131
H45 H 0.1644 1.0518 1.1352
C32 C 0.44981(11) 0.95344(8) 1.05570(9)
H46 H 0.3910 0.9728 1.0923
C33 C 0.41296(11) 1.00338(9) 0.94494(10)
H47 H 0.4569 1.0622 0.9604
C34 C 0.27221(11) 1.02664(8) 0.89798(10)
H48 H 0.2482 1.0587 0.9538
C35 C 0.18378(11) 0.94503(9) 0.85833(10)
H49 H 0.1018 0.9674 0.8124
H50 H 0.2170 0.9068 0.8137
C36 C 0.08735(13) 0.83274(10) 1.07613(12)
C37 C 0.16279(13) 0.75526(9) 1.05445(12)
H51 H 0.1086 0.7032 1.0251
H52 H 0.2287 0.7367 1.1209
C38 C 0.18219(15) 0.73200(11) 0.86757(13)
H53 H 0.2183 0.7565 0.8166
H54 H 0.0917 0.7315 0.8354
H55 H 0.2122 0.6708 0.8864
C39 C -0.11998(15) 0.98176(14) 0.9694(2)
H56 H -0.1480 0.9498 0.9013
H57 H -0.1627 1.0394 0.9613
H58 H -0.1389 0.9461 1.0236
C40 C 0.46101(16) 0.95669(15) 0.86293(13)
H59 H 0.4353 0.8939 0.8559
H60 H 0.5517 0.9602 0.8873
H61 H 0.4264 0.9865 0.7937
C41 C 0.58551(13) 0.98172(10) 1.12841(12)
H62 H 0.6347 1.0005 1.0837
H63 H 0.5820 1.0321 1.1754
C42 C 0.64488(12) 0.89861(10) 1.19564(11)
H64 H 0.6237 0.8960 1.2616
H65 H 0.7362 0.8999 1.2152
O9 O 0.59124(9) 0.73525(6) 1.18232(8)
H66 H 0.5464 0.7416 1.2199
loop_
_geom_bond_atom_site_label_1
_geom_bond_atom_site_label_2
_geom_bond_site_symmetry_1
_geom_bond_site_symmetry_2
C1 H1 1_555 1_555
O1 C13 1_555 1_555
O2 H2 1_555 1_555
C2 H3 1_555 1_555
H4 C2 1_555 1_555
H5 C2 1_555 1_555
C3 H6 1_555 1_555
H7 C3 1_555 1_555
H8 C3 1_555 1_555
C4 C3 1_555 1_555
H9 C4 1_555 1_555
C5 C4 1_555 1_555
C6 C5 1_555 1_555
C7 C1 1_555 1_555
C8 C1 1_555 1_555
C9 C8 1_555 1_555
C10 C9 1_555 1_555
H10 C10 1_555 1_555
H11 C10 1_555 1_555
O3 C10 1_555 1_555
C11 O3 1_555 1_555
H12 C11 1_555 1_555
H13 C11 1_555 1_555
H14 C11 1_555 1_555
C12 C4 1_555 1_555
H15 C12 1_555 1_555
H16 C12 1_555 1_555
H17 C12 1_555 1_555
C13 C5 1_555 1_555
C14 C7 1_555 1_555
H18 C14 1_555 1_555
H19 C14 1_555 1_555
C15 C8 1_555 1_555
H20 C15 1_555 1_555
C16 C15 1_555 1_555
H21 C16 1_555 1_555
H22 C16 1_555 1_555
C17 C9 1_555 1_555
H23 C17 1_555 1_555
H24 C17 1_555 1_555
O4 C9 1_555 1_555
H25 O4 1_555 1_555
C18 C15 1_555 1_555
H26 C18 1_555 1_555
C19 C18 1_555 1_555
H27 C19 1_555 1_555
H28 C19 1_555 1_555
H29 C19 1_555 1_555
C20 O2 1_555 1_555
H30 C20 1_555 1_555
C21 C6 1_555 1_555
H31 C21 1_555 1_555
H32 C21 1_555 1_555
O5 H33 1_555 1_555
H34 O5 1_555 1_555
O6 C23 1_555 1_555
C22 H35 1_555 1_555
O7 H36 1_555 1_555
O8 C36 1_555 1_555
C23 H37 1_555 1_555
H38 C23 1_555 1_555
H39 C23 1_555 1_555
C24 O6 1_555 1_555
H40 C24 1_555 1_555
H41 C24 1_555 1_555
C25 C24 1_555 1_555
C26 C22 1_555 1_555
C27 C22 1_555 1_555
C28 C27 1_555 1_555
C29 C28 1_555 1_555
C30 C29 1_555 1_555
H42 C30 1_555 1_555
C31 C30 1_555 1_555
H43 C31 1_555 1_555
H44 C31 1_555 1_555
H45 C31 1_555 1_555
C32 C26 1_555 1_555
H46 C32 1_555 1_555
C33 C32 1_555 1_555
H47 C33 1_555 1_555
C34 O7 1_555 1_555
H48 C34 1_555 1_555
C35 C28 1_555 1_555
H49 C35 1_555 1_555
H50 C35 1_555 1_555
C36 C29 1_555 1_555
C37 C27 1_555 1_555
H51 C37 1_555 1_555
H52 C37 1_555 1_555
C38 C27 1_555 1_555
H53 C38 1_555 1_555
H54 C38 1_555 1_555
H55 C38 1_555 1_555
C39 C30 1_555 1_555
H56 C39 1_555 1_555
H57 C39 1_555 1_555
H58 C39 1_555 1_555
C40 C33 1_555 1_555
H59 C40 1_555 1_555
H60 C40 1_555 1_555
H61 C40 1_555 1_555
C41 C32 1_555 1_555
H62 C41 1_555 1_555
H63 C41 1_555 1_555
C42 C25 1_555 1_555
H64 C42 1_555 1_555
H65 C42 1_555 1_555
O9 C25 1_555 1_555
H66 O9 1_555 1_555
C2 C7 1_555 1_555
C6 C7 1_555 1_555
C13 C14 1_555 1_555
C16 C17 1_555 1_555
C18 C20 1_555 1_555
C20 C21 1_555 1_555
C25 C26 1_555 1_555
C33 C34 1_555 1_555
C34 C35 1_555 1_555
C36 C37 1_555 1_555
C41 C42 1_555 1_555

#END
