
#######################################################################
#
#                 Cambridge Crystallographic Data Centre
#                                CCDC 
#
#######################################################################
#
# If this CIF has been generated from an entry in the Cambridge 
# Structural Database, then it will include bibliographic, chemical, 
# crystal, experimental, refinement or atomic coordinate data resulting 
# from the CCDC's data processing and validation procedures.
#
#######################################################################

data_CURKIL
_chemical_formula_moiety         
'C17 H20 F2 N3 O3 1+,C8 H6 O4,C4 H3 N2 O3 1-,C1 H4 O1,H2 O1'
_chemical_name_systematic        
'4-(3-carboxy-1-ethyl-6,8-difluoro-4-oxo-1,4-dihydroquinolin-7-yl)-2-methylpiperazin-1-ium 2,6-dioxo-1,2,3,6-tetrahydropyrimidin-4-olate isophthalic acid methanol solvate monohydrate'
_symmetry_cell_setting           triclinic
_symmetry_space_group_name_H-M   'P -1'
_symmetry_Int_Tables_number      2
_space_group_name_Hall           '-P 1'
loop_
_symmetry_equiv_pos_site_id
_symmetry_equiv_pos_as_xyz
1 x,y,z
2 -x,-y,-z
_cell_length_a                   10.032(4)
_cell_length_b                   12.123(5)
_cell_length_c                   14.336(6)
_cell_angle_alpha                86.396(12)
_cell_angle_beta                 71.375(11)
_cell_angle_gamma                74.221(12)
_cell_volume                     1589.4
_exptl_crystal_colour            colorless
_exptl_crystal_description       block
_cell_formula_units_Z            2
loop_
_atom_site_label
_atom_site_type_symbol
_atom_site_fract_x
_atom_site_fract_y
_atom_site_fract_z
C1 C 0.0648(8) 0.1484(7) 0.6973(5)
H1 H 0.1693 0.1272 0.6860
H2 H 0.0259 0.2262 0.7243
C2 C 0.0021(8) 0.0746(7) 0.7679(5)
H3 H 0.0555 -0.0034 0.7420
C3 C -0.1744(9) 0.0843(8) 0.6777(5)
H4 H -0.1312 0.0071 0.6495
H5 H -0.2782 0.1029 0.6871
C4 C -0.1127(8) 0.1621(8) 0.6096(5)
H6 H -0.1681 0.2403 0.6306
H7 H -0.1177 0.1487 0.5450
C5 C 0.0162(8) 0.0787(7) 0.8696(4)
H8 H 0.1140 0.0792 0.8638
H9 H -0.0056 0.0125 0.9049
H10 H -0.0510 0.1468 0.9045
C6 C 0.1463(7) 0.1525(6) 0.5147(4)
C7 C 0.1183(7) 0.2358(5) 0.4476(4)
C8 C 0.2209(7) 0.2398(5) 0.3526(4)
C9 C 0.3570(7) 0.1603(5) 0.3332(4)
C10 C 0.3863(7) 0.0773(6) 0.4027(5)
H11 H 0.4762 0.0230 0.3883
C11 C 0.2845(9) 0.0775(6) 0.4885(5)
C12 C 0.4731(7) 0.1565(6) 0.2389(5)
C13 C 0.4312(7) 0.2396(6) 0.1709(4)
C14 C 0.2990(7) 0.3151(5) 0.1947(4)
H12 H 0.2790 0.3681 0.1479
C15 C 0.5383(10) 0.2421(7) 0.0673(5)
C16 C 0.0566(7) 0.4157(5) 0.2981(5)
H13 H -0.0269 0.3893 0.3372
H14 H 0.0430 0.4393 0.2351
C17 C 0.0654(8) 0.5163(6) 0.3499(5)
H15 H 0.0839 0.4920 0.4107
H16 H -0.0253 0.5748 0.3634
H17 H 0.1431 0.5463 0.3088
F1 F -0.0098(4) 0.3151(3) 0.4739(2)
F2 F 0.3102(5) -0.0062(4) 0.5539(3)
N1 N 0.0394(6) 0.1466(5) 0.6040(3)
N2 N -0.1525(6) 0.0863(5) 0.7752(3)
H18 H -0.1822 0.0288 0.8110
H19 H -0.2085 0.1527 0.8071
N3 N 0.1929(6) 0.3195(4) 0.2820(3)
O1 O 0.5988(6) 0.0897(4) 0.2208(3)
O2 O 0.6615(6) 0.1717(5) 0.0520(4)
H20 H 0.6687 0.1644 0.1076
O3 O 0.5027(6) 0.3077(5) 0.0077(4)
C18 C 0.6637(6) 0.3064(5) 0.3644(4)
C19 C 0.6006(7) 0.2837(5) 0.4624(4)
H21 H 0.6529 0.2268 0.4936
C20 C 0.4608(6) 0.3451(5) 0.5139(4)
C21 C 0.3839(7) 0.4292(6) 0.4661(4)
H22 H 0.2907 0.4716 0.5016
C22 C 0.4384(7) 0.4517(6) 0.3712(5)
H23 H 0.3831 0.5069 0.3406
C23 C 0.5847(7) 0.3887(6) 0.3174(4)
H24 H 0.6256 0.4033 0.2514
C24 C 0.8106(7) 0.2425(5) 0.3165(4)
C25 C 0.3944(8) 0.3194(6) 0.6211(5)
O4 O 0.8688(5) 0.2551(4) 0.2184(3)
H25 H 0.9431 0.2030 0.1965
O5 O 0.8919(5) 0.1779(4) 0.3588(3)
O6 O 0.4688(7) 0.2426(5) 0.6585(3)
O7 O 0.2681(6) 0.3843(4) 0.6656(3)
H26 H 0.2346 0.3695 0.7237
C26 C 0.4171(7) 0.1209(5) 0.9144(4)
N4 N 0.3344(5) 0.1041(4) 1.0071(3)
H27 H 0.3733 0.0500 1.0396
C27 C 0.1936(6) 0.1666(5) 1.0530(4)
C28 C 0.2059(7) 0.2719(6) 0.9031(4)
C29 C 0.1306(6) 0.2538(6) 1.0010(4)
H28 H 0.0377 0.3007 1.0311
N5 N 0.3441(6) 0.2047(4) 0.8653(3)
H29 H 0.3905 0.2155 0.8051
O8 O 0.1514(5) 0.3449(4) 0.8485(3)
O9 O 0.5428(5) 0.0650(4) 0.8776(3)
O10 O 0.1357(5) 0.1394(4) 1.1407(3)
C30 C 0.2187(9) 0.5482(8) -0.0095(6)
H30 H 0.1997 0.6200 -0.0416
H31 H 0.1803 0.4954 -0.0334
H32 H 0.3221 0.5173 -0.0233
O11 O 0.1516(6) 0.5653(5) 0.0924(4)
H33 H 0.0632 0.5913 0.1042
O12 O 0.2977(6) 0.6792(5) 0.1713(3)
H34 H 0.3810 0.6727 0.1343
H35 H 0.2397 0.6538 0.1557
loop_
_geom_bond_atom_site_label_1
_geom_bond_atom_site_label_2
_geom_bond_site_symmetry_1
_geom_bond_site_symmetry_2
C1 H1 1_555 1_555
H2 C1 1_555 1_555
C2 C1 1_555 1_555
H3 C2 1_555 1_555
C3 H4 1_555 1_555
H5 C3 1_555 1_555
C4 C3 1_555 1_555
H6 C4 1_555 1_555
H7 C4 1_555 1_555
C5 C2 1_555 1_555
H8 C5 1_555 1_555
H9 C5 1_555 1_555
H10 C5 1_555 1_555
C6 C7 1_555 1_555
C7 C8 1_555 1_555
C8 C9 1_555 1_555
C9 C10 1_555 1_555
C10 H11 1_555 1_555
C11 C6 1_555 1_555
C12 C9 1_555 1_555
C13 C12 1_555 1_555
C14 C13 1_555 1_555
H12 C14 1_555 1_555
C15 C13 1_555 1_555
C16 H13 1_555 1_555
H14 C16 1_555 1_555
C17 C16 1_555 1_555
H15 C17 1_555 1_555
H16 C17 1_555 1_555
H17 C17 1_555 1_555
F1 C7 1_555 1_555
F2 C11 1_555 1_555
N1 C1 1_555 1_555
N2 C2 1_555 1_555
H18 N2 1_555 1_555
H19 N2 1_555 1_555
N3 C8 1_555 1_555
O1 C12 1_555 1_555
O2 C15 1_555 1_555
H20 O2 1_555 1_555
O3 C15 1_555 1_555
C18 C19 1_555 1_555
C19 H21 1_555 1_555
C20 C19 1_555 1_555
C21 C20 1_555 1_555
H22 C21 1_555 1_555
C22 C21 1_555 1_555
H23 C22 1_555 1_555
C23 C18 1_555 1_555
H24 C23 1_555 1_555
C24 C18 1_555 1_555
C25 C20 1_555 1_555
O4 C24 1_555 1_555
H25 O4 1_555 1_555
O5 C24 1_555 1_555
O6 C25 1_555 1_555
O7 C25 1_555 1_555
H26 O7 1_555 1_555
C26 N4 1_555 1_555
N4 H27 1_555 1_555
C27 N4 1_555 1_555
C28 C29 1_555 1_555
C29 C27 1_555 1_555
H28 C29 1_555 1_555
N5 C26 1_555 1_555
H29 N5 1_555 1_555
O8 C28 1_555 1_555
O9 C26 1_555 1_555
O10 C27 1_555 1_555
C30 H30 1_555 1_555
H31 C30 1_555 1_555
H32 C30 1_555 1_555
O11 C30 1_555 1_555
H33 O11 1_555 1_555
O12 H34 1_555 1_555
H35 O12 1_555 1_555
C3 N2 1_555 1_555
C4 N1 1_555 1_555
C6 N1 1_555 1_555
C10 C11 1_555 1_555
C14 N3 1_555 1_555
C16 N3 1_555 1_555
C22 C23 1_555 1_555
C28 N5 1_555 1_555

#END
