
#######################################################################
#
#                 Cambridge Crystallographic Data Centre
#                                CCDC 
#
#######################################################################
#
# If this CIF has been generated from an entry in the Cambridge 
# Structural Database, then it will include bibliographic, chemical, 
# crystal, experimental, refinement or atomic coordinate data resulting 
# from the CCDC's data processing and validation procedures.
#
#######################################################################

data_CURLAD
_chemical_name_common            '2-epi-glaucogenin A'
_chemical_formula_moiety         'C21 H28 O6'
_chemical_name_systematic        
"(2aR,6aS,6bR,8S,9R,12aR,14aS,14bR)-8,9-dihydroxy-2a,6b-dimethyl-1,2a,6,6a,6b,7,8,9,10,12,12a,13,14a,14b-tetradecahydro-5H-2,3,14-trioxapentalenol [1',6 ':5,6,7]cyclononal[a]naphthalen-13-one"
_symmetry_cell_setting           monoclinic
_symmetry_space_group_name_H-M   'P 21'
_symmetry_Int_Tables_number      4
_space_group_name_Hall           'P 2yb'
loop_
_symmetry_equiv_pos_site_id
_symmetry_equiv_pos_as_xyz
1 x,y,z
2 -x,1/2+y,-z
_cell_length_a                   7.548(1)
_cell_length_b                   9.721(1)
_cell_length_c                   13.190(2)
_cell_angle_alpha                90
_cell_angle_beta                 74.89(1)
_cell_angle_gamma                90
_cell_volume                     934.345
_chemical_melting_point          '220-224 deg.C'
_cell_formula_units_Z            2
loop_
_atom_site_label
_atom_site_type_symbol
_atom_site_fract_x
_atom_site_fract_y
_atom_site_fract_z
O1 O -0.2875(6) -0.0380 -0.4283(4)
O2 O 0.0288(8) 0.0404(8) -0.5775(4)
O3 O 0.0973(8) 0.1002(7) 0.0539(4)
O4 O -0.0997(7) -0.0771(6) 0.0980(3)
O5 O -0.3628(7) -0.0692(6) 0.3648(4)
O6 O -0.6006(7) 0.0128(6) 0.2984(4)
C1 C -0.2060(10) 0.0943(9) -0.2928(5)
C2 C -0.1826(10) 0.0774(9) -0.4103(5)
C3 C 0.0212(11) 0.0640(10) -0.4692(5)
C4 C 0.1088(9) -0.0557(8) -0.4231(5)
C5 C 0.0902(9) -0.0322(8) -0.3057(5)
C6 C 0.2334(10) -0.0239(8) -0.2685(5)
C7 C 0.2239(10) -0.0086(9) -0.1524(5)
C8 C 0.0297(9) -0.0400(8) -0.0843(5)
C9 C -0.1133(9) 0.0400(8) -0.1276(5)
C10 C -0.1127(9) -0.0175(8) -0.2389(5)
C11 C -0.3100(10) 0.0315(9) -0.0519(5)
C12 C -0.3418(11) 0.1456(9) 0.0325(6)
C13 C -0.4092(10) 0.0937(9) 0.1443(5)
C14 C 0.0168(9) 0.0038(8) 0.0284(5)
C15 C -0.2554(12) -0.1413(9) 0.2754(6)
C16 C -0.1499(10) -0.0268(9) 0.2062(5)
C17 C -0.2929(10) 0.0921(8) 0.2229(5)
C18 C -0.5702(11) 0.0495(10) 0.1918(6)
C19 C -0.2080(11) -0.1550(9) -0.2316(6)
C20 C -0.4311(11) 0.0504(9) 0.3276(5)
C21 C -0.4766(11) 0.1581(9) 0.4118(5)
H1 H -0.254 -0.056 -0.506
H2 H -0.052 -0.048 -0.607
H3 H -0.351 0.099 -0.254
H4 H -0.146 0.195 -0.281
H5 H -0.236 0.170 -0.439
H6 H 0.093 0.159 -0.460
H7 H 0.040 -0.151 -0.434
H8 H 0.253 -0.065 -0.466
H9 H 0.369 -0.028 -0.325
H10 H 0.263 0.095 -0.137
H11 H 0.322 -0.080 -0.132
H12 H 0.002 -0.150 -0.088
H13 H -0.072 0.149 -0.136
H14 H -0.327 -0.069 -0.015
H15 H -0.410 0.041 -0.098
H16 H -0.211 0.199 0.026
H17 H -0.440 0.219 0.019
H18 H -0.344 -0.198 0.234
H19 H -0.164 -0.217 0.296
H20 H -0.030 0.002 0.232
H21 H -0.231 0.192 0.228
H22 H -0.683 0.039 0.150
H23 H -0.204 -0.190 -0.310
H24 H -0.137 -0.229 -0.195
H25 H -0.347 -0.138 -0.185
H26 H -0.546 0.244 0.387
H27 H -0.561 0.117 0.484
H28 H -0.344 0.191 0.422
loop_
_geom_bond_atom_site_label_1
_geom_bond_atom_site_label_2
_geom_bond_site_symmetry_1
_geom_bond_site_symmetry_2
O1 C2 1_555 1_555
O2 C3 1_555 1_555
O3 C14 1_555 1_555
O4 C14 1_555 1_555
O5 C15 1_555 1_555
O6 C18 1_555 1_555
C1 C2 1_555 1_555
C2 C3 1_555 1_555
C3 C4 1_555 1_555
C4 C5 1_555 1_555
C5 C6 1_555 1_555
C6 C7 1_555 1_555
C7 C8 1_555 1_555
C8 C9 1_555 1_555
C9 C10 1_555 1_555
C10 C1 1_555 1_555
C11 C9 1_555 1_555
C12 C11 1_555 1_555
C13 C12 1_555 1_555
C14 C8 1_555 1_555
C15 C16 1_555 1_555
C16 O4 1_555 1_555
C17 C13 1_555 1_555
C18 C13 1_555 1_555
C19 C10 1_555 1_555
C20 O5 1_555 1_555
C21 C20 1_555 1_555
H1 O1 1_555 1_555
H2 O2 1_555 1_555
H3 C1 1_555 1_555
H4 C1 1_555 1_555
H5 C2 1_555 1_555
H6 C3 1_555 1_555
H7 C4 1_555 1_555
H8 C4 1_555 1_555
H9 C6 1_555 1_555
H10 C7 1_555 1_555
H11 C7 1_555 1_555
H12 C8 1_555 1_555
H13 C9 1_555 1_555
H14 C11 1_555 1_555
H15 C11 1_555 1_555
H16 C12 1_555 1_555
H17 C12 1_555 1_555
H18 C15 1_555 1_555
H19 C15 1_555 1_555
H20 C16 1_555 1_555
H21 C17 1_555 1_555
H22 C18 1_555 1_555
H23 C19 1_555 1_555
H24 C19 1_555 1_555
H25 C19 1_555 1_555
H26 C21 1_555 1_555
H27 C21 1_555 1_555
H28 C21 1_555 1_555
O6 C20 1_555 1_555
C5 C10 1_555 1_555
C16 C17 1_555 1_555
C17 C20 1_555 1_555

#END
