
#######################################################################
#
#                 Cambridge Crystallographic Data Centre
#                                CCDC 
#
#######################################################################
#
# If this CIF has been generated from an entry in the Cambridge 
# Structural Database, then it will include bibliographic, chemical, 
# crystal, experimental, refinement or atomic coordinate data resulting 
# from the CCDC's data processing and validation procedures.
#
#######################################################################

data_CURNUZ
_chemical_formula_moiety         'C29 H44 N2 2+,2(I1 1-)'
_chemical_name_systematic        
'Trimethylenebis(1-benzyl-1-methylpiperidinium) diiodide'
_symmetry_cell_setting           monoclinic
_symmetry_space_group_name_H-M   'P 21/n'
_symmetry_Int_Tables_number      14
_space_group_name_Hall           '-P 2yn'
loop_
_symmetry_equiv_pos_site_id
_symmetry_equiv_pos_as_xyz
1 x,y,z
2 1/2-x,1/2+y,1/2-z
3 -x,-y,-z
4 1/2+x,1/2-y,1/2+z
_cell_length_a                   16.962(3)
_cell_length_b                   9.348(2)
_cell_length_c                   18.832(4)
_cell_angle_alpha                90
_cell_angle_beta                 91.39(3)
_cell_angle_gamma                90
_cell_volume                     2985.14
_exptl_crystal_colour            colorless
_exptl_crystal_description       pyramidal
_cell_formula_units_Z            4
_exptl_crystal_recrystallization_method methanol/tetrahydrofuran
loop_
_atom_site_label
_atom_site_type_symbol
_atom_site_fract_x
_atom_site_fract_y
_atom_site_fract_z
I1 I 0.1255(1) 0.0435(1) 0.3153(1)
I2 I 0.3736(1) -0.0358(1) 0.6679(1)
N1 N 0.3570(1) -0.0105(2) 0.2235(1)
N2 N 0.3580(1) 0.5115(2) 0.7358(1)
C1 C 0.3724(1) 0.0982(2) 0.3731(1)
C2 C 0.3933(1) 0.1893(2) 0.3089(1)
C3 C 0.3466(1) 0.1463(2) 0.2425(1)
C4 C 0.3396(1) -0.1024(2) 0.2881(1)
C5 C 0.3874(1) -0.0581(2) 0.3538(1)
C6 C 0.4388(1) -0.0404(2) 0.1989(1)
C7 C 0.2961(1) -0.0533(2) 0.1658(1)
C8 C 0.3045(1) 0.0240(2) 0.0962(1)
C9 C 0.2643(1) 0.1519(2) 0.0830(1)
C10 C 0.2716(1) 0.2233(2) 0.0190(1)
C11 C 0.3189(1) 0.1671(2) -0.0330(1)
C12 C 0.3578(1) 0.0383(2) -0.0216(1)
C13 C 0.3504(1) -0.0322(2) 0.0427(1)
C14 C 0.4190(1) 0.1406(2) 0.4402(1)
C15 C 0.3907(1) 0.2781(2) 0.4750(1)
C16 C 0.4401(1) 0.3107(2) 0.5418(1)
C17 C 0.4104(1) 0.4292(2) 0.5900(1)
C18 C 0.3269(1) 0.3986(2) 0.6163(1)
C19 C 0.3010(1) 0.5040(2) 0.6725(1)
C20 C 0.4670(1) 0.4434(2) 0.6542(1)
C21 C 0.4391(1) 0.5490(2) 0.7089(1)
C22 C 0.3590(1) 0.3736(2) 0.7756(1)
C23 C 0.3290(1) 0.6318(2) 0.7841(1)
C24 C 0.3735(1) 0.6439(2) 0.8539(1)
C25 C 0.4440(1) 0.7196(2) 0.8599(1)
C26 C 0.4855(1) 0.7267(2) 0.9245(1)
C27 C 0.4557(1) 0.6602(2) 0.9840(1)
C28 C 0.3842(1) 0.5880(2) 0.9792(1)
C29 C 0.3433(1) 0.5803(2) 0.9144(1)
loop_
_geom_bond_atom_site_label_1
_geom_bond_atom_site_label_2
_geom_bond_site_symmetry_1
_geom_bond_site_symmetry_2
N1 C3 1_555 1_555
N2 C19 1_555 1_555
C1 C2 1_555 1_555
C2 C3 1_555 1_555
C4 N1 1_555 1_555
C5 C1 1_555 1_555
C6 N1 1_555 1_555
C7 N1 1_555 1_555
C8 C7 1_555 1_555
C9 C8 1_555 1_555
C10 C9 1_555 1_555
C11 C10 1_555 1_555
C12 C11 1_555 1_555
C13 C8 1_555 1_555
C14 C1 1_555 1_555
C15 C14 1_555 1_555
C16 C15 1_555 1_555
C17 C16 1_555 1_555
C18 C17 1_555 1_555
C19 C18 1_555 1_555
C20 C17 1_555 1_555
C21 N2 1_555 1_555
C22 N2 1_555 1_555
C23 N2 1_555 1_555
C24 C23 1_555 1_555
C25 C24 1_555 1_555
C26 C25 1_555 1_555
C27 C26 1_555 1_555
C28 C27 1_555 1_555
C29 C24 1_555 1_555
C4 C5 1_555 1_555
C12 C13 1_555 1_555
C20 C21 1_555 1_555
C28 C29 1_555 1_555

#END
