
#######################################################################
#
#                 Cambridge Crystallographic Data Centre
#                                CCDC 
#
#######################################################################
#
# If this CIF has been generated from an entry in the Cambridge 
# Structural Database, then it will include bibliographic, chemical, 
# crystal, experimental, refinement or atomic coordinate data resulting 
# from the CCDC's data processing and validation procedures.
#
#######################################################################

data_CURQOW
_chemical_formula_moiety         'C15 H14 Cl1 N3 O3'
_chemical_name_systematic        
2-(4-Chlorophenyl)-4-hydroxy-4-methyl-3-nitrocyclohexane-1,1-dicarbonitrile
_symmetry_cell_setting           triclinic
_symmetry_space_group_name_H-M   'P -1'
_symmetry_Int_Tables_number      2
_space_group_name_Hall           '-P 1'
loop_
_symmetry_equiv_pos_site_id
_symmetry_equiv_pos_as_xyz
1 x,y,z
2 -x,-y,-z
_cell_length_a                   7.6094(15)
_cell_length_b                   9.0216(18)
_cell_length_c                   11.456(2)
_cell_angle_alpha                93.14(3)
_cell_angle_beta                 104.39(3)
_cell_angle_gamma                93.15(3)
_cell_volume                     758.712
_cell_formula_units_Z            2
loop_
_atom_site_label
_atom_site_type_symbol
_atom_site_fract_x
_atom_site_fract_y
_atom_site_fract_z
Cl1 Cl 0.32281(8) 0.53040(7) 0.15490(6)
O1 O 0.5204(2) -0.1311(2) 0.14917(15)
O2 O 0.6194(2) -0.1238(2) 0.34359(16)
O3 O 0.9865(2) -0.1945(2) 0.40749(13)
H1 H 0.9060 -0.2513 0.4197
N1 N 0.6430(3) -0.1114(2) 0.2426(2)
N2 N 1.0770(3) 0.1709(2) 0.0578(2)
N3 N 1.1908(3) 0.3847(3) 0.42047(19)
C1 C 0.8321(3) -0.0668(3) 0.2318(2)
H2 H 0.8274 -0.0589 0.1461
C2 C 0.9640(3) -0.1874(3) 0.2806(2)
C3 C 1.1497(3) -0.1338(3) 0.2647(2)
H3 H 1.1422 -0.1289 0.1792
H4 H 1.2371 -0.2053 0.2959
C4 C 1.2169(3) 0.0189(3) 0.3296(2)
H5 H 1.3343 0.0487 0.3161
H6 H 1.2323 0.0129 0.4158
C5 C 1.0809(3) 0.1377(3) 0.2837(2)
C6 C 0.8875(3) 0.0867(3) 0.2974(2)
H7 H 0.8994 0.0748 0.3835
C7 C 0.8987(3) -0.3387(3) 0.2146(2)
H8 H 0.9827 -0.4107 0.2469
H9 H 0.8915 -0.3330 0.1301
H10 H 0.7807 -0.3680 0.2251
C8 C 1.0765(3) 0.1608(3) 0.1558(2)
C9 C 1.1435(3) 0.2801(3) 0.3579(2)
C10 C 0.7482(3) 0.2001(3) 0.2596(2)
C11 C 0.7021(3) 0.2918(3) 0.3466(2)
H11 H 0.7594 0.2840 0.4275
C12 C 0.5731(3) 0.3946(3) 0.3163(2)
H12 H 0.5448 0.4563 0.3758
C13 C 0.4872(3) 0.4040(3) 0.1957(2)
C14 C 0.5304(3) 0.3147(3) 0.1072(2)
H13 H 0.4723 0.3228 0.0264
C15 C 0.6597(3) 0.2134(3) 0.1383(2)
H14 H 0.6887 0.1532 0.0783
loop_
_geom_bond_atom_site_label_1
_geom_bond_atom_site_label_2
_geom_bond_site_symmetry_1
_geom_bond_site_symmetry_2
Cl1 C13 1_555 1_555
O1 N1 1_555 1_555
O2 N1 1_555 1_555
O3 H1 1_555 1_555
N1 C1 1_555 1_555
N2 C8 1_555 1_555
N3 C9 1_555 1_555
C1 H2 1_555 1_555
C2 O3 1_555 1_555
C3 C2 1_555 1_555
H3 C3 1_555 1_555
H4 C3 1_555 1_555
C4 C3 1_555 1_555
H5 C4 1_555 1_555
H6 C4 1_555 1_555
C5 C4 1_555 1_555
C6 C1 1_555 1_555
H7 C6 1_555 1_555
C7 C2 1_555 1_555
H8 C7 1_555 1_555
H9 C7 1_555 1_555
H10 C7 1_555 1_555
C8 C5 1_555 1_555
C9 C5 1_555 1_555
C10 C6 1_555 1_555
C11 C10 1_555 1_555
H11 C11 1_555 1_555
C12 C11 1_555 1_555
H12 C12 1_555 1_555
C13 C12 1_555 1_555
C14 C13 1_555 1_555
H13 C14 1_555 1_555
C15 C10 1_555 1_555
H14 C15 1_555 1_555
C1 C2 1_555 1_555
C5 C6 1_555 1_555
C14 C15 1_555 1_555

#END
