
#######################################################################
#
#                 Cambridge Crystallographic Data Centre
#                                CCDC 
#
#######################################################################
#
# If this CIF has been generated from an entry in the Cambridge 
# Structural Database, then it will include bibliographic, chemical, 
# crystal, experimental, refinement or atomic coordinate data resulting 
# from the CCDC's data processing and validation procedures.
#
#######################################################################

data_CUSMUZ
_chemical_formula_moiety         'C26 H68 Li4 O2 Si4'
_chemical_name_systematic        
'tetrakis(\m~3~-Trimethylsilylmethylidyne)-bis(t-butyl methyl ether)-tetra-lithium'
_symmetry_cell_setting           orthorhombic
_symmetry_space_group_name_H-M   'P n a 21'
_symmetry_Int_Tables_number      33
_space_group_name_Hall           'P 2c -2n'
loop_
_symmetry_equiv_pos_site_id
_symmetry_equiv_pos_as_xyz
1 x,y,z
2 -x,-y,1/2+z
3 1/2+x,1/2-y,z
4 1/2-x,1/2+y,1/2+z
_cell_length_a                   21.569(3)
_cell_length_b                   10.6442(14)
_cell_length_c                   17.116(2)
_cell_angle_alpha                90
_cell_angle_beta                 90
_cell_angle_gamma                90
_cell_volume                     3929.57
_exptl_crystal_colour            colorless
_exptl_crystal_description       block
_cell_formula_units_Z            4
loop_
_atom_site_label
_atom_site_type_symbol
_atom_site_fract_x
_atom_site_fract_y
_atom_site_fract_z
Li1 Li 0.3643(3) 0.5924(7) 0.1790(4)
Li2 Li 0.2866(3) 0.7706(6) 0.1222(4)
Li3 Li 0.4025(3) 0.7506(5) 0.0775(4)
Li4 Li 0.3297(3) 0.5967(6) 0.0356(4)
O1 O 0.22136(15) 0.8748(3) 0.1777(2)
C1 C 0.2037(4) 0.8253(7) 0.2511(5)
H1 H 0.2181 0.7382 0.2553
H2 H 0.1585 0.8277 0.2559
H3 H 0.2224 0.8756 0.2928
C2 C 0.2027(2) 1.0048(4) 0.1651(4)
C3 C 0.2349(3) 1.0925(6) 0.2220(5)
H4 H 0.2206 1.0745 0.2752
H5 H 0.2250 1.1797 0.2087
H6 H 0.2798 1.0798 0.2190
C4 C 0.1323(3) 1.0194(7) 0.1681(6)
H7 H 0.1176 1.0013 0.2211
H8 H 0.1131 0.9606 0.1312
H9 H 0.1210 1.1056 0.1538
C5 C 0.2252(3) 1.0333(7) 0.0820(4)
H10 H 0.2045 0.9767 0.0451
H11 H 0.2701 1.0209 0.0791
H12 H 0.2152 1.1206 0.0688
O2 O 0.39724(15) 0.4863(4) 0.2672(2)
C6 C 0.4538(3) 0.4204(7) 0.2565(4)
H13 H 0.4733 0.4477 0.2077
H14 H 0.4454 0.3300 0.2540
H15 H 0.4816 0.4380 0.3004
C7 C 0.3614(2) 0.4556(5) 0.3369(3)
C8 C 0.4032(4) 0.4486(10) 0.4071(4)
H16 H 0.4241 0.5295 0.4143
H17 H 0.4342 0.3825 0.3992
H18 H 0.3784 0.4293 0.4536
C9 C 0.3245(3) 0.3378(6) 0.3246(6)
H19 H 0.3527 0.2658 0.3206
H20 H 0.3003 0.3452 0.2763
H21 H 0.2963 0.3253 0.3689
C10 C 0.3168(2) 0.5689(6) 0.3476(3)
H22 H 0.3410 0.6465 0.3524
H23 H 0.2920 0.5567 0.3949
H24 H 0.2893 0.5751 0.3022
C11 C 0.42532(18) 0.5496(4) 0.0666(3)
Si1 Si 0.42808(5) 0.38394(9) 0.02969(8)
C12 C 0.50360(18) 0.2992(4) 0.0443(3)
H25 H 0.5015 0.2164 0.0194
H26 H 0.5115 0.2890 0.1003
H27 H 0.5373 0.3481 0.0207
C13 C 0.4101(2) 0.3850(4) -0.0771(3)
H28 H 0.3713 0.4306 -0.0861
H29 H 0.4058 0.2984 -0.0958
H30 H 0.4439 0.4264 -0.1055
C14 C 0.36898(19) 0.2810(4) 0.0791(3)
H31 H 0.3272 0.3120 0.0672
H32 H 0.3757 0.2828 0.1357
H33 H 0.3732 0.1946 0.0601
C15 C 0.2618(4) 0.5595(8) 0.1348(4)
H34 H 0.2792 0.4802 0.1503
H35 H 0.2447 0.5957 0.1809
Si2 Si 0.1927(2) 0.5170(5) 0.0714(3)
C16 C 0.1353(5) 0.4084(10) 0.1173(9)
H36 H 0.1170 0.4487 0.1633
H37 H 0.1562 0.3306 0.1331
H38 H 0.1025 0.3887 0.0796
C17 C 0.1495(7) 0.6623(11) 0.0434(11)
H39 H 0.1365 0.7070 0.0907
H40 H 0.1130 0.6394 0.0126
H41 H 0.1766 0.7168 0.0123
C18 C 0.2213(4) 0.4438(10) -0.0221(5)
H42 H 0.2487 0.3731 -0.0098
H43 H 0.2441 0.5066 -0.0525
H44 H 0.1858 0.4136 -0.0526
C19 C 0.3255(3) 0.7736(11) -0.0128(5)
H45 H 0.2953 0.8402 0.0007
H46 H 0.3032 0.7149 -0.0478
Si3 Si 0.3844(3) 0.8625(5) -0.0715(4)
C20 C 0.3580(9) 1.0126(12) -0.1187(11)
H47 H 0.3909 1.0447 -0.1528
H48 H 0.3488 1.0749 -0.0782
H49 H 0.3206 0.9965 -0.1497
C21 C 0.4160(7) 0.7597(11) -0.1487(6)
H50 H 0.4457 0.8071 -0.1805
H51 H 0.3821 0.7297 -0.1819
H52 H 0.4369 0.6878 -0.1247
C22 C 0.4516(5) 0.9101(12) -0.0073(8)
H53 H 0.4838 0.9496 -0.0393
H54 H 0.4687 0.8355 0.0185
H55 H 0.4372 0.9698 0.0323
C23 C 0.37455(17) 0.8109(4) 0.1929(3)
H56 H 0.3487 0.7889 0.2387
H57 H 0.3561 0.8894 0.1724
Si4 Si 0.44643(5) 0.86950(10) 0.24009(8)
C24 C 0.4482(4) 0.8415(12) 0.3477(4)
H58 H 0.4392 0.7529 0.3583
H59 H 0.4170 0.8944 0.3732
H60 H 0.4894 0.8625 0.3680
C25 C 0.4605(5) 1.0377(6) 0.2244(8)
H61 H 0.4988 1.0624 0.2509
H62 H 0.4257 1.0861 0.2457
H63 H 0.4643 1.0543 0.1683
C26 C 0.5171(2) 0.7814(7) 0.2063(5)
H64 H 0.5119 0.6917 0.2176
H65 H 0.5537 0.8132 0.2338
H66 H 0.5224 0.7932 0.1499
H67 H 0.451(2) 0.532(4) 0.110(3)
H68 H 0.455(3) 0.596(6) 0.041(4)
C27? C 0.2939(7) 0.523(3) 0.3130(19)
C28? C 0.1892(17) 0.810(2) 0.249(2)
C29? C 0.2698(6) 0.5780(15) 0.1163(9)
C30? C 0.1524(9) 0.3948(15) 0.0693(16)
C31? C 0.1484(11) 0.672(2) 0.0360(19)
C32? C 0.2365(7) 0.5107(17) -0.0524(9)
C33? C 0.3328(6) 0.8167(17) 0.0026(8)
C34? C 0.3912(9) 0.7338(15) -0.1522(8)
C35? C 0.4675(6) 0.883(2) -0.0383(11)
C36? C 0.3672(14) 1.0087(19) -0.1340(16)
C37? C 0.3920(6) 0.4202(16) 0.3313(9)
C38? C 0.4379(12) 0.950(3) 0.3380(11)
C39? C 0.4920(12) 0.984(3) 0.1788(14)
C40? C 0.5009(10) 0.7389(17) 0.2631(19)
C41? C 0.3504(12) 0.3059(18) 0.327(2)
C42? C 0.4087(15) 0.450(3) 0.4155(10)
C43? C 0.4498(9) 0.401(3) 0.2820(16)
C44? C 0.2429(14) 1.038(2) 0.1031(16)
C45? C 0.1932(7) 0.9417(16) 0.2115(9)
C46? C 0.2246(9) 1.039(2) 0.2631(12)
C47? C 0.1270(8) 0.983(3) 0.1928(19)
H69? H 0.1683 0.7527 0.2125
H70? H 0.1658 0.8150 0.2975
H71? H 0.2312 0.7791 0.2592
H72? H 0.2827 0.4971 0.1350
H73? H 0.2475 0.6153 0.1590
H74? H 0.1791 0.3225 0.0807
H75? H 0.1264 0.3760 0.0238
H76? H 0.1259 0.4121 0.1146
H77? H 0.1724 0.7446 0.0187
H78? H 0.1283 0.6907 0.0860
H79? H 0.1167 0.6518 -0.0032
H80? H 0.2627 0.4354 -0.0522
H81? H 0.2618 0.5841 -0.0659
H82? H 0.2034 0.5008 -0.0911
H83? H 0.2931 0.8051 -0.0216
H84? H 0.3291 0.8926 0.0325
H85? H 0.4200 0.7592 -0.1935
H86? H 0.3501 0.7184 -0.1749
H87? H 0.4063 0.6567 -0.1273
H88? H 0.4932 0.9255 -0.0776
H89? H 0.4858 0.8015 -0.0256
H90? H 0.4655 0.9351 0.0089
H91? H 0.4023 1.0310 -0.1675
H92? H 0.3595 1.0769 -0.0967
H93? H 0.3302 0.9957 -0.1662
H94? H 0.2741 0.5984 0.2921
H95? H 0.2858 0.5170 0.3693
H96? H 0.2769 0.4484 0.2868
H97? H 0.4109 1.0231 0.3325
H98? H 0.4787 0.9763 0.3568
H99? H 0.4195 0.8908 0.3756
H100? H 0.4636 1.0434 0.1540
H101? H 0.5148 0.9376 0.1383
H102? H 0.5214 1.0292 0.2120
H103? H 0.5066 0.6863 0.2167
H104? H 0.4839 0.6880 0.3057
H105? H 0.5410 0.7738 0.2791
H106? H 0.3367 0.2935 0.2729
H107? H 0.3141 0.3185 0.3606
H108? H 0.3733 0.2316 0.3444
H109? H 0.3711 0.4482 0.4477
H110? H 0.4274 0.5338 0.4182
H111? H 0.4382 0.3875 0.4349
H112? H 0.4378 0.3792 0.2285
H113? H 0.4747 0.3329 0.3043
H114? H 0.4742 0.4787 0.2814
H115? H 0.2656 1.0225 0.0544
H116? H 0.2689 1.0869 0.1388
H117? H 0.2049 1.0848 0.0916
H118? H 0.2273 1.1193 0.2349
H119? H 0.2664 1.0106 0.2767
H120? H 0.2003 1.0511 0.3109
H121? H 0.1282 1.0599 0.1612
H122? H 0.1047 0.9996 0.2416
H123? H 0.1058 0.9166 0.1637
O3? O 0.3593(6) 0.5289(14) 0.2999(9)
O4? O 0.2273(6) 0.9207(13) 0.1386(8)
Si5? Si 0.2011(4) 0.5339(9) 0.0484(7)
Si6? Si 0.3856(3) 0.8594(8) -0.0789(6)
loop_
_geom_bond_atom_site_label_1
_geom_bond_atom_site_label_2
_geom_bond_site_symmetry_1
_geom_bond_site_symmetry_2
Li1 O2 1_555 1_555
Li2 O1 1_555 1_555
Li3 C11 1_555 1_555
Li4 C11 1_555 1_555
O1 C1 1_555 1_555
C1 H1 1_555 1_555
H2 C1 1_555 1_555
H3 C1 1_555 1_555
C2 O1 1_555 1_555
C3 C2 1_555 1_555
H4 C3 1_555 1_555
H5 C3 1_555 1_555
H6 C3 1_555 1_555
C4 C2 1_555 1_555
H7 C4 1_555 1_555
H8 C4 1_555 1_555
H9 C4 1_555 1_555
C5 C2 1_555 1_555
H10 C5 1_555 1_555
H11 C5 1_555 1_555
H12 C5 1_555 1_555
O2 C6 1_555 1_555
C6 H13 1_555 1_555
H14 C6 1_555 1_555
H15 C6 1_555 1_555
C7 O2 1_555 1_555
C8 C7 1_555 1_555
H16 C8 1_555 1_555
H17 C8 1_555 1_555
H18 C8 1_555 1_555
C9 C7 1_555 1_555
H19 C9 1_555 1_555
H20 C9 1_555 1_555
H21 C9 1_555 1_555
C10 C7 1_555 1_555
H22 C10 1_555 1_555
H23 C10 1_555 1_555
H24 C10 1_555 1_555
C11 Li1 1_555 1_555
Si1 C11 1_555 1_555
C12 Si1 1_555 1_555
H25 C12 1_555 1_555
H26 C12 1_555 1_555
H27 C12 1_555 1_555
C13 Si1 1_555 1_555
H28 C13 1_555 1_555
H29 C13 1_555 1_555
H30 C13 1_555 1_555
C14 Si1 1_555 1_555
H31 C14 1_555 1_555
H32 C14 1_555 1_555
H33 C14 1_555 1_555
C15 Li1 1_555 1_555
H34 C15 1_555 1_555
H35 C15 1_555 1_555
Si2 C15 1_555 1_555
C16 Si2 1_555 1_555
H36 C16 1_555 1_555
H37 C16 1_555 1_555
H38 C16 1_555 1_555
C17 Si2 1_555 1_555
H39 C17 1_555 1_555
H40 C17 1_555 1_555
H41 C17 1_555 1_555
C18 Si2 1_555 1_555
H42 C18 1_555 1_555
H43 C18 1_555 1_555
H44 C18 1_555 1_555
C19 Li2 1_555 1_555
H45 C19 1_555 1_555
H46 C19 1_555 1_555
Si3 C19 1_555 1_555
C20 Si3 1_555 1_555
H47 C20 1_555 1_555
H48 C20 1_555 1_555
H49 C20 1_555 1_555
C21 Si3 1_555 1_555
H50 C21 1_555 1_555
H51 C21 1_555 1_555
H52 C21 1_555 1_555
C22 Si3 1_555 1_555
H53 C22 1_555 1_555
H54 C22 1_555 1_555
H55 C22 1_555 1_555
C23 Li1 1_555 1_555
H56 C23 1_555 1_555
H57 C23 1_555 1_555
Si4 C23 1_555 1_555
C24 Si4 1_555 1_555
H58 C24 1_555 1_555
H59 C24 1_555 1_555
H60 C24 1_555 1_555
C25 Si4 1_555 1_555
H61 C25 1_555 1_555
H62 C25 1_555 1_555
H63 C25 1_555 1_555
C26 Si4 1_555 1_555
H64 C26 1_555 1_555
H65 C26 1_555 1_555
H66 C26 1_555 1_555
H67 C11 1_555 1_555
H68 C11 1_555 1_555
Li2 C15 1_555 1_555
Li2 C23 1_555 1_555
Li3 C19 1_555 1_555
Li3 C23 1_555 1_555
Li4 C15 1_555 1_555
Li4 C19 1_555 1_555

#END
