
#######################################################################
#
#                 Cambridge Crystallographic Data Centre
#                                CCDC 
#
#######################################################################
#
# If this CIF has been generated from an entry in the Cambridge 
# Structural Database, then it will include bibliographic, chemical, 
# crystal, experimental, refinement or atomic coordinate data resulting 
# from the CCDC's data processing and validation procedures.
#
#######################################################################

data_CUSPOX
_chemical_formula_moiety         'C27 H39 B1 O3'
_chemical_name_systematic        
2,6-di-t-butyl-4-(phenyl(4,4,5,5-tetramethyl-1,3,2-dioxaborolan-2-yl)methyl)phenol
_symmetry_cell_setting           trigonal
_symmetry_space_group_name_H-M   'P 32 2 1'
_symmetry_Int_Tables_number      154
_space_group_name_Hall           'P 32 2"'
loop_
_symmetry_equiv_pos_site_id
_symmetry_equiv_pos_as_xyz
1 x,y,z
2 -y,x-y,2/3+z
3 -x+y,-x,1/3+z
4 x-y,-y,1/3-z
5 -x,-x+y,2/3-z
6 y,x,-z
_cell_length_a                   13.04689(12)
_cell_length_b                   13.04689(12)
_cell_length_c                   26.0863(3)
_cell_angle_alpha                90
_cell_angle_beta                 90
_cell_angle_gamma                120
_cell_volume                     3845.54
_exptl_crystal_colour            'light colorless'
_exptl_crystal_description       block
_cell_formula_units_Z            6
loop_
_atom_site_label
_atom_site_type_symbol
_atom_site_fract_x
_atom_site_fract_y
_atom_site_fract_z
O1 O -0.01009(17) 0.12114(12) 0.16975(6)
C1 C 0.20775(15) 0.43377(15) 0.18268(6)
H1 H 0.2723 0.4827 0.2032
C2 C 0.14836(17) 0.31206(15) 0.19162(6)
C3 C 0.05115(18) 0.24130(15) 0.16003(7)
C4 C 0.01384(17) 0.28856(16) 0.12044(7)
C5 C 0.07738(16) 0.41091(16) 0.11370(6)
H2 H 0.0544 0.4444 0.0879
C6 C 0.17369(15) 0.48454(14) 0.14412(6)
C7 C 0.23664(15) 0.61783(14) 0.13624(6)
H3 H 0.1875 0.6330 0.1125
C8 C 0.35949(16) 0.67375(15) 0.11227(6)
C9 C 0.43320(17) 0.62613(17) 0.11492(7)
H4 H 0.4070 0.5537 0.1311
C10 C 0.54629(19) 0.6853(2) 0.09358(8)
H5 H 0.5952 0.6526 0.0960
C11 C 0.5863(2) 0.7926(2) 0.06876(8)
H6 H 0.6616 0.8319 0.0544
C12 C 0.5134(2) 0.83998(19) 0.06568(9)
H7 H 0.5397 0.9119 0.0490
C13 C 0.40149(19) 0.78230(17) 0.08704(8)
H8 H 0.3535 0.8160 0.0846
C14 C 0.18555(17) 0.26011(16) 0.23619(7)
C15 C 0.2099(3) 0.1619(2) 0.21841(9)
H9 H 0.1383 0.0965 0.2053
H10 H 0.2377 0.1358 0.2469
H11 H 0.2690 0.1921 0.1920
C16 C 0.08668(19) 0.21166(19) 0.27677(8)
H12 H 0.0765 0.2750 0.2895
H13 H 0.1078 0.1775 0.3045
H14 H 0.0141 0.1522 0.2616
C17 C 0.2992(2) 0.35509(19) 0.26207(8)
H15 H 0.3615 0.3901 0.2372
H16 H 0.3214 0.3195 0.2888
H17 H 0.2857 0.4151 0.2764
C18 C -0.0929(2) 0.21001(18) 0.08552(7)
C19 C -0.0686(3) 0.1230(2) 0.05564(10)
H18 H 0.0023 0.1663 0.0357
H19 H -0.1340 0.0761 0.0332
H20 H -0.0589 0.0721 0.0793
C20 C -0.2082(2) 0.1431(2) 0.11664(10)
H21 H -0.2010 0.0916 0.1408
H22 H -0.2730 0.0970 0.0938
H23 H -0.2225 0.1989 0.1346
C21 C -0.1143(2) 0.2837(2) 0.04565(9)
H24 H -0.1267 0.3416 0.0628
H25 H -0.1829 0.2326 0.0256
H26 H -0.0466 0.3228 0.0236
C22 C 0.0896(4) 0.7750(4) 0.27115(12)
H27 H 0.0554 0.8088 0.2490
H28 H 0.1056 0.8130 0.3041
H29 H 0.0352 0.6919 0.2751
C23 C 0.3577(3) 0.7995(3) 0.30951(9)
H30 H 0.3931 0.7558 0.3228
H31 H 0.3267 0.8240 0.3373
H32 H 0.4164 0.8680 0.2915
B1 B 0.23729(19) 0.67914(17) 0.18890(7)
O2 O 0.1754(3) 0.7335(3) 0.19755(10)
O3 O 0.3077(3) 0.6867(3) 0.23178(12)
C24 C 0.2097(4) 0.7941(4) 0.24670(13)
C25 C 0.2632(4) 0.7256(4) 0.27488(13)
C26 C 0.2968(16) 0.9202(13) 0.2376(5)
H33 H 0.3692 0.9272 0.2250
H34 H 0.3119 0.9634 0.2691
H35 H 0.2660 0.9519 0.2127
C27 C 0.1772(6) 0.6158(6) 0.3020(2)
H36 H 0.1165 0.5642 0.2786
H37 H 0.1422 0.6356 0.3299
H38 H 0.2174 0.5767 0.3152
H39? H 0.1141 0.8096 0.3046
H40? H 0.0055 0.7225 0.2710
H41? H 0.1099 0.8365 0.2463
H42? H 0.3405 0.7220 0.3200
H43? H 0.3358 0.8352 0.3363
H44? H 0.4409 0.8475 0.3026
O4? O 0.3242(4) 0.7346(4) 0.21936(17)
O5? O 0.1303(4) 0.6690(5) 0.20462(14)
C28? C 0.1504(5) 0.7074(6) 0.25816(19)
C29? C 0.2839(5) 0.7892(6) 0.2583(2)
C30? C 0.3216(16) 0.9184(12) 0.2350(7)
H45? H 0.4033 0.9574 0.2249
H46? H 0.3107 0.9650 0.2606
H47? H 0.2733 0.9095 0.2057
C31? C 0.1163(8) 0.5987(7) 0.2924(3)
H48? H 0.1681 0.5680 0.2854
H49? H 0.0361 0.5389 0.2855
H50? H 0.1236 0.6216 0.3278
loop_
_geom_bond_atom_site_label_1
_geom_bond_atom_site_label_2
_geom_bond_site_symmetry_1
_geom_bond_site_symmetry_2
O1 C3 1_555 1_555
C1 H1 1_555 1_555
C2 C1 1_555 1_555
C3 C2 1_555 1_555
C4 C3 1_555 1_555
C5 C4 1_555 1_555
H2 C5 1_555 1_555
C6 C1 1_555 1_555
C7 C6 1_555 1_555
H3 C7 1_555 1_555
C8 C7 1_555 1_555
C9 C8 1_555 1_555
H4 C9 1_555 1_555
C10 C9 1_555 1_555
H5 C10 1_555 1_555
C11 C10 1_555 1_555
H6 C11 1_555 1_555
C12 C11 1_555 1_555
H7 C12 1_555 1_555
C13 C8 1_555 1_555
H8 C13 1_555 1_555
C14 C2 1_555 1_555
C15 C14 1_555 1_555
H9 C15 1_555 1_555
H10 C15 1_555 1_555
H11 C15 1_555 1_555
C16 C14 1_555 1_555
H12 C16 1_555 1_555
H13 C16 1_555 1_555
H14 C16 1_555 1_555
C17 C14 1_555 1_555
H15 C17 1_555 1_555
H16 C17 1_555 1_555
H17 C17 1_555 1_555
C18 C4 1_555 1_555
C19 C18 1_555 1_555
H18 C19 1_555 1_555
H19 C19 1_555 1_555
H20 C19 1_555 1_555
C20 C18 1_555 1_555
H21 C20 1_555 1_555
H22 C20 1_555 1_555
H23 C20 1_555 1_555
C21 C18 1_555 1_555
H24 C21 1_555 1_555
H25 C21 1_555 1_555
H26 C21 1_555 1_555
C22 H27 1_555 1_555
H28 C22 1_555 1_555
H29 C22 1_555 1_555
C23 H30 1_555 1_555
H31 C23 1_555 1_555
H32 C23 1_555 1_555
B1 C7 1_555 1_555
O2 B1 1_555 1_555
O3 B1 1_555 1_555
C24 C22 1_555 1_555
C25 C23 1_555 1_555
C26 C24 1_555 1_555
H33 C26 1_555 1_555
H34 C26 1_555 1_555
H35 C26 1_555 1_555
C27 C25 1_555 1_555
H36 C27 1_555 1_555
H37 C27 1_555 1_555
H38 C27 1_555 1_555
C5 C6 1_555 1_555
C12 C13 1_555 1_555
O2 C24 1_555 1_555
O3 C25 1_555 1_555
C24 C25 1_555 1_555

#END
