
#######################################################################
#
#                 Cambridge Crystallographic Data Centre
#                                CCDC 
#
#######################################################################
#
# If this CIF has been generated from an entry in the Cambridge 
# Structural Database, then it will include bibliographic, chemical, 
# crystal, experimental, refinement or atomic coordinate data resulting 
# from the CCDC's data processing and validation procedures.
#
#######################################################################

data_CUSPEN
_chemical_formula_moiety         'C11 H21 N2 O2 P1'
_chemical_name_systematic        
1,3-di-t-butyl-2-(formyloxy)-2,3-dihydro-1H-1,3,2-diazaphosphole
_symmetry_cell_setting           monoclinic
_symmetry_space_group_name_H-M   'P 21/c'
_symmetry_Int_Tables_number      14
_space_group_name_Hall           '-P 2ybc'
loop_
_symmetry_equiv_pos_site_id
_symmetry_equiv_pos_as_xyz
1 x,y,z
2 -x,1/2+y,1/2-z
3 -x,-y,-z
4 x,1/2-y,1/2+z
_cell_length_a                   11.2962(5)
_cell_length_b                   9.5410(4)
_cell_length_c                   12.6825(6)
_cell_angle_alpha                90
_cell_angle_beta                 97.406(2)
_cell_angle_gamma                90
_cell_volume                     1355.48
_exptl_crystal_colour            colorless
_exptl_crystal_description       plate
_cell_formula_units_Z            4
loop_
_atom_site_label
_atom_site_type_symbol
_atom_site_fract_x
_atom_site_fract_y
_atom_site_fract_z
C1 C 0.26104(12) 0.07017(13) 0.33078(11)
H1 H 0.2753 0.1066 0.401
C2 C 0.32691(12) -0.02897(13) 0.29301(11)
H2 H 0.3938 -0.0723 0.3332
C3 C 0.08589(12) 0.22963(13) 0.27792(11)
C4 C 0.02696(14) 0.18717(17) 0.37496(13)
H3 H -0.0181 0.1002 0.3596
H4 H -0.0273 0.2616 0.3918
H5 H 0.0885 0.1724 0.4358
C5 C 0.15843(15) 0.36396(15) 0.30136(14)
H6 H 0.2229 0.3468 0.3593
H7 H 0.1063 0.4383 0.3222
H8 H 0.1926 0.3929 0.2375
C6 C -0.00957(13) 0.25303(15) 0.18323(13)
H9 H 0.0284 0.2822 0.1215
H10 H -0.0647 0.3263 0.2006
H11 H -0.0538 0.1657 0.1667
C7 C 0.34857(12) -0.16842(14) 0.12842(11)
C8 C 0.34438(15) -0.30957(15) 0.18593(15)
H12 H 0.3828 -0.3 0.2594
H13 H 0.3866 -0.3805 0.1492
H14 H 0.2611 -0.3382 0.186
C9 C 0.47797(13) -0.12196(16) 0.12657(13)
H15 H 0.4792 -0.0334 0.0876
H16 H 0.5208 -0.1939 0.0914
H17 H 0.5167 -0.1089 0.1996
C10 C 0.28647(15) -0.18203(18) 0.01486(13)
H18 H 0.2031 -0.2098 0.0161
H19 H 0.3272 -0.2533 -0.0229
H20 H 0.2891 -0.0918 -0.0217
C11 C 0.36067(13) 0.23916(15) 0.12075(12)
H21 H 0.3903 0.2059 0.1897
N1 N 0.16739(10) 0.11443(11) 0.25368(9)
N2 N 0.28564(10) -0.06201(11) 0.18634(9)
O1 O 0.26176(9) 0.18268(10) 0.07229(8)
O2 O 0.41538(11) 0.32964(12) 0.08328(10)
P1 P 0.17884(3) 0.04885(3) 0.13223(3)
loop_
_geom_bond_atom_site_label_1
_geom_bond_atom_site_label_2
_geom_bond_site_symmetry_1
_geom_bond_site_symmetry_2
C1 H1 1_555 1_555
C2 C1 1_555 1_555
H2 C2 1_555 1_555
C3 C4 1_555 1_555
C4 H3 1_555 1_555
H4 C4 1_555 1_555
H5 C4 1_555 1_555
C5 C3 1_555 1_555
H6 C5 1_555 1_555
H7 C5 1_555 1_555
H8 C5 1_555 1_555
C6 C3 1_555 1_555
H9 C6 1_555 1_555
H10 C6 1_555 1_555
H11 C6 1_555 1_555
C7 C8 1_555 1_555
C8 H12 1_555 1_555
H13 C8 1_555 1_555
H14 C8 1_555 1_555
C9 C7 1_555 1_555
H15 C9 1_555 1_555
H16 C9 1_555 1_555
H17 C9 1_555 1_555
C10 C7 1_555 1_555
H18 C10 1_555 1_555
H19 C10 1_555 1_555
H20 C10 1_555 1_555
C11 H21 1_555 1_555
N1 C1 1_555 1_555
N2 C2 1_555 1_555
O1 C11 1_555 1_555
O2 C11 1_555 1_555
P1 N1 1_555 1_555
C3 N1 1_555 1_555
C7 N2 1_555 1_555
N2 P1 1_555 1_555
O1 P1 1_555 1_555

#END
