
#######################################################################
#
#                 Cambridge Crystallographic Data Centre
#                                CCDC 
#
#######################################################################
#
# If this CIF has been generated from an entry in the Cambridge 
# Structural Database, then it will include bibliographic, chemical, 
# crystal, experimental, refinement or atomic coordinate data resulting 
# from the CCDC's data processing and validation procedures.
#
#######################################################################

data_CUSXOD
_chemical_compound_source        'Psammaplysilla purpurea'
_chemical_formula_moiety         'C25 H27 Br4 N3 O8'
_chemical_name_systematic        'Psammaplysin-A acetamide acetate'
_symmetry_cell_setting           monoclinic
_symmetry_space_group_name_H-M   'I 2'
_symmetry_Int_Tables_number      5
_space_group_name_Hall           'I 2y'
loop_
_symmetry_equiv_pos_site_id
_symmetry_equiv_pos_as_xyz
1 x,y,z
2 1/2+x,1/2+y,1/2+z
3 -x,y,-z
4 1/2-x,1/2+y,1/2-z
_cell_length_a                   16.340(2)
_cell_length_b                   4.9619(7)
_cell_length_c                   38.126(9)
_cell_angle_alpha                90
_cell_angle_beta                 101.88(3)
_cell_angle_gamma                90
_cell_volume                     3024.95
_exptl_crystal_colour            colorless
_chemical_melting_point          161-163deg.C
_cell_formula_units_Z            4
loop_
_atom_site_label
_atom_site_type_symbol
_atom_site_fract_x
_atom_site_fract_y
_atom_site_fract_z
C1 C 0.4999(26) 1.0804(81) 0.6796(9)
C2 C 0.5960(28) 1.005(14) 0.6993(11)
C3 C 0.6506(30) 1.053(14) 0.6745(11)
C4 C 0.6283(24) 0.9374(86) 0.6379(8)
C5 C 0.5539(21) 0.739(12) 0.6292(14)
C6 C 0.4720(32) 1.003(17) 0.6149(9)
C7 C 0.4514(23) 1.1098(99) 0.5830(8)
C8 C 0.3546(18) 0.9924(81) 0.5705(7)
C9 C 0.2920(24) 1.1175(77) 0.5369(8)
C10 C 0.1715(23) 0.986(11) 0.4917(8)
C11 C 0.2033(20) 0.905(11) 0.4582(8)
C12 C 0.1276(20) 0.924(13) 0.4228(7)
C13 C -0.0035(21) 0.749(13) 0.4049(8)
C14 C -0.0316(21) 0.6608(84) 0.3707(10)
C15 C -0.0601(32) 0.923(18) 0.4151(13)
C16 C -0.1092(44) 0.652(13) 0.3481(10)
C17 C -0.1580(19) 0.919(16) 0.3920(9)
C18 C -0.1812(22) 0.806(13) 0.3611(9)
C19 C -0.2523(26) 0.774(20) 0.3354(14)
C20 C -0.2576(27) 0.964(12) 0.3025(11)
C21 C 0.7245(31) 1.4341(96) 0.6922(11)
C22 C 0.5361(29) 1.1246(99) 0.5462(10)
C23 C 0.5781(23) 0.998(15) 0.5179(10)
C24 C -0.3831(26) 1.103(13) 0.2568(8)
C25 C -0.4625(29) 1.021(14) 0.2323(14)
O1 O 0.4648(15) 1.1419(62) 0.6457(5)
O2 O 0.7295(13) 1.1293(65) 0.6836(6)
O3 O 0.3968(16) 0.7605(69) 0.6214(6)
N1 N 0.3372(17) 0.8385(72) 0.5906(8)
O4 O 0.4867(12) 1.0018(61) 0.5561(5)
O5 O 0.5580(16) 1.3645(76) 0.5583(7)
O6 O 0.2914(15) 1.3418(52) 0.5309(6)
N2 N 0.2411(21) 0.9252(82) 0.5208(6)
O7 O 0.0635(15) 0.7424(62) 0.4278(6)
N3 N -0.3409(19) 0.8953(89) 0.2744(10)
O8 O -0.3746(25) 1.375(10) 0.2634(10)
Br1 Br 0.6262(3) 0.9979(17) 0.7422(1)
Br2 Br 0.7099(3) 0.9076(16) 0.6100(1)
Br3 Br 0.0595(3) 0.4851(20) 0.3528(1)
Br4 Br -0.0567(3) 1.0569(21) 0.4600(1)
loop_
_geom_bond_atom_site_label_1
_geom_bond_atom_site_label_2
_geom_bond_site_symmetry_1
_geom_bond_site_symmetry_2
C1 C2 1_555 1_555
C2 C3 1_555 1_555
C3 C4 1_555 1_555
C4 C5 1_555 1_555
C5 C6 1_555 1_555
C6 C7 1_555 1_555
C7 C8 1_555 1_555
C8 C9 1_555 1_555
C9 O6 1_555 1_555
C10 C11 1_555 1_555
C11 C12 1_555 1_555
C12 O7 1_555 1_555
C13 C14 1_555 1_555
C14 C16 1_555 1_555
C15 C13 1_555 1_555
C16 C18 1_555 1_555
C17 C15 1_555 1_555
C18 C17 1_555 1_555
C19 C18 1_555 1_555
C20 C19 1_555 1_555
C21 O2 1_555 1_555
C22 C23 1_555 1_555
C24 C25 1_555 1_555
O1 C1 1_555 1_555
O2 C3 1_555 1_555
O3 C6 1_555 1_555
N1 C8 1_555 1_555
O4 C7 1_555 1_555
O5 C22 1_555 1_555
N2 C9 1_555 1_555
O7 C13 1_555 1_555
N3 C20 1_555 1_555
O8 C24 1_555 1_555
Br1 C2 1_555 1_555
Br2 C4 1_555 1_555
Br3 C14 1_555 1_555
Br4 C15 1_555 1_555
C6 O1 1_555 1_555
C10 N2 1_555 1_555
C22 O4 1_555 1_555
C24 N3 1_555 1_555
O3 N1 1_555 1_555

#END
