
#######################################################################
#
#                 Cambridge Crystallographic Data Centre
#                                CCDC 
#
#######################################################################
#
# If this CIF has been generated from an entry in the Cambridge 
# Structural Database, then it will include bibliographic, chemical, 
# crystal, experimental, refinement or atomic coordinate data resulting 
# from the CCDC's data processing and validation procedures.
#
#######################################################################

data_CUTCOK
_chemical_name_common            '4-methoxybenzylidine C2 Ceramide'
_chemical_formula_moiety         'C28 H45 N1 O4'
_chemical_name_systematic        
N-(2-(4-Methoxyphenyl)-4-(pentadec-1-en-1-yl)-1,3-dioxan-5-yl)acetamide
_symmetry_cell_setting           monoclinic
_symmetry_space_group_name_H-M   'P 21'
_symmetry_Int_Tables_number      4
_space_group_name_Hall           'P 2yb'
loop_
_symmetry_equiv_pos_site_id
_symmetry_equiv_pos_as_xyz
1 x,y,z
2 -x,1/2+y,-z
_cell_length_a                   9.4304(5)
_cell_length_b                   4.9089(3)
_cell_length_c                   30.3484(16)
_cell_angle_alpha                90
_cell_angle_beta                 91.2750(10)
_cell_angle_gamma                90
_cell_volume                     1404.57
_exptl_crystal_colour            colorless
_exptl_crystal_description       plate
_cell_formula_units_Z            2
loop_
_atom_site_label
_atom_site_type_symbol
_atom_site_fract_x
_atom_site_fract_y
_atom_site_fract_z
C1 C 1.1822(4) 0.8354(9) 0.29586(9)
H1 H 1.1014 0.8498 0.2762
H2 H 1.2533 0.7241 0.2826
H3 H 1.2202 1.0137 0.3016
C2 C 1.1392(3) 0.7117(8) 0.33725(10)
H4 H 1.2227 0.6945 0.3563
H5 H 1.1052 0.5290 0.3309
C3 C 1.0273(3) 0.8586(7) 0.36227(8)
H6 H 0.9434 0.8752 0.3434
H7 H 1.0610 1.0414 0.3687
C4 C 0.9850(3) 0.7283(7) 0.40474(8)
H8 H 0.9497 0.5468 0.3982
H9 H 1.0694 0.7081 0.4233
C5 C 0.8753(3) 0.8755(6) 0.43055(7)
H10 H 0.7910 0.8973 0.4120
H11 H 0.9108 1.0562 0.4375
C6 C 0.8337(2) 0.7392(7) 0.47263(8)
H12 H 0.9182 0.7172 0.4911
H13 H 0.7983 0.5586 0.4656
C7 C 0.7237(3) 0.8857(6) 0.49881(7)
H14 H 0.6393 0.9092 0.4803
H15 H 0.7594 1.0656 0.5062
C8 C 0.6821(2) 0.7442(6) 0.54081(7)
H16 H 0.6461 0.5646 0.5333
H17 H 0.7667 0.7194 0.5591
C9 C 0.5726(3) 0.8897(6) 0.56751(7)
H18 H 0.4874 0.9121 0.5494
H19 H 0.6080 1.0702 0.5747
C10 C 0.5333(3) 0.7483(6) 0.60977(7)
H20 H 0.4956 0.5697 0.6024
H21 H 0.6190 0.7213 0.6275
C11 C 0.4271(3) 0.8947(7) 0.63729(7)
H22 H 0.3395 0.9140 0.6202
H23 H 0.4626 1.0763 0.6437
C12 C 0.3947(3) 0.7552(7) 0.68027(8)
H24 H 0.4836 0.7117 0.6954
H25 H 0.3466 0.5848 0.6738
C13 C 0.3032(8) 0.9220(15) 0.71145(19)
H26 H 0.3457 1.1006 0.7153
H27 H 0.2102 0.9473 0.6978
C14 C 0.2857(5) 0.7944(12) 0.75594(18)
H28 H 0.3657 0.7853 0.7744
C15 C 0.1701(7) 0.6970(18) 0.77071(17)
H29 H 0.0884 0.6995 0.7530
C16 C 0.1644(3) 0.5769(6) 0.81709(7)
H30 H 0.1423 0.3828 0.8138
O1 O 0.29515(17) 0.5954(4) 0.84226(5)
C17 C 0.0460(3) 0.7034(6) 0.84366(7)
H31 H 0.0631 0.8998 0.8461
N1 N -0.0918(2) 0.6606(4) 0.82314(6)
H32 H -0.1157 0.4970 0.8161
C18 C -0.1843(3) 0.8605(7) 0.81453(8)
O2 O -0.1531(3) 1.0993(4) 0.82006(8)
C19 C -0.3288(3) 0.7750(7) 0.79777(9)
H33 H -0.3983 0.8205 0.8192
H34 H -0.3296 0.5819 0.7928
H35 H -0.3507 0.8681 0.7706
C20 C 0.0475(3) 0.5815(8) 0.88964(7)
H36 H -0.0196 0.6785 0.9077
H37 H 0.0180 0.3924 0.8880
O3 O 0.18523(19) 0.5977(5) 0.90960(5)
C21 C 0.2857(3) 0.4674(7) 0.88386(8)
H38 H 0.2574 0.2771 0.8795
C22 C 0.4280(3) 0.4753(7) 0.90702(8)
C23 C 0.5411(7) 0.344(2) 0.8908(3)
H39 H 0.5306 0.2478 0.8645
C24 C 0.4439(7) 0.609(2) 0.9479(2)
H40 H 0.3669 0.6978 0.9601
C25 C 0.6721(8) 0.350(2) 0.9120(3)
H41 H 0.7488 0.2621 0.8994
C26 C 0.5753(7) 0.609(2) 0.9703(3)
H42 H 0.5856 0.6933 0.9976
C27 C 0.6899(3) 0.4819(8) 0.95124(10)
O4 O 0.8213(2) 0.4693(6) 0.97155(6)
C28 C 0.8479(3) 0.6453(10) 1.00816(11)
H43 H 0.8320 0.8308 0.9993
H44 H 0.9443 0.6240 1.0183
H45 H 0.7851 0.5997 1.0315
C29? C 0.3947(3) 0.7552(7) 0.68027(8)
C30? C 0.2558(11) 0.851(3) 0.7006(3)
C31? C 0.2159(12) 0.693(2) 0.7405(2)
C32? C 0.2166(17) 0.768(2) 0.7808(2)
C33? C 0.1644(3) 0.5769(6) 0.81709(7)
C34? C 0.4280(3) 0.4753(7) 0.90702(8)
C35? C 0.5255(9) 0.273(2) 0.9004(4)
C36? C 0.4670(10) 0.6909(19) 0.9333(5)
C37? C 0.6560(10) 0.272(2) 0.9225(4)
C38? C 0.5971(10) 0.690(2) 0.9559(5)
C39? C 0.6899(3) 0.4819(8) 0.95124(10)
H46? H 0.4722 0.7886 0.7011
H47? H 0.3893 0.5603 0.6753
H48? H 0.2650 1.0421 0.7085
H49? H 0.1800 0.8364 0.6786
H50? H 0.1865 0.5147 0.7353
H51? H 0.2492 0.9408 0.7882
H52? H 0.1429 0.3922 0.8066
H53? H 0.5037 0.1338 0.8807
H54? H 0.4063 0.8390 0.9360
H55? H 0.7200 0.1312 0.9180
H56? H 0.6206 0.8341 0.9746
loop_
_geom_bond_atom_site_label_1
_geom_bond_atom_site_label_2
_geom_bond_site_symmetry_1
_geom_bond_site_symmetry_2
C1 H1 1_555 1_555
H2 C1 1_555 1_555
H3 C1 1_555 1_555
C2 C1 1_555 1_555
H4 C2 1_555 1_555
H5 C2 1_555 1_555
C3 C2 1_555 1_555
H6 C3 1_555 1_555
H7 C3 1_555 1_555
C4 C3 1_555 1_555
H8 C4 1_555 1_555
H9 C4 1_555 1_555
C5 C4 1_555 1_555
H10 C5 1_555 1_555
H11 C5 1_555 1_555
C6 C5 1_555 1_555
H12 C6 1_555 1_555
H13 C6 1_555 1_555
C7 C6 1_555 1_555
H14 C7 1_555 1_555
H15 C7 1_555 1_555
C8 C7 1_555 1_555
H16 C8 1_555 1_555
H17 C8 1_555 1_555
C9 C8 1_555 1_555
H18 C9 1_555 1_555
H19 C9 1_555 1_555
C10 C9 1_555 1_555
H20 C10 1_555 1_555
H21 C10 1_555 1_555
C11 C10 1_555 1_555
H22 C11 1_555 1_555
H23 C11 1_555 1_555
C12 C11 1_555 1_555
H24 C12 1_555 1_555
H25 C12 1_555 1_555
C13 C12 1_555 1_555
H26 C13 1_555 1_555
H27 C13 1_555 1_555
C14 C13 1_555 1_555
H28 C14 1_555 1_555
C15 C14 1_555 1_555
H29 C15 1_555 1_555
C16 C15 1_555 1_555
H30 C16 1_555 1_555
O1 C16 1_555 1_555
C17 C16 1_555 1_555
H31 C17 1_555 1_555
N1 C17 1_555 1_555
H32 N1 1_555 1_555
C18 N1 1_555 1_555
O2 C18 1_555 1_555
C19 C18 1_555 1_555
H33 C19 1_555 1_555
H34 C19 1_555 1_555
H35 C19 1_555 1_555
C20 C17 1_555 1_555
H36 C20 1_555 1_555
H37 C20 1_555 1_555
O3 C20 1_555 1_555
C21 O1 1_555 1_555
H38 C21 1_555 1_555
C22 C21 1_555 1_555
C23 C22 1_555 1_555
H39 C23 1_555 1_555
C24 C22 1_555 1_555
H40 C24 1_555 1_555
C25 C23 1_555 1_555
H41 C25 1_555 1_555
C26 C24 1_555 1_555
H42 C26 1_555 1_555
C27 C25 1_555 1_555
O4 C27 1_555 1_555
C28 O4 1_555 1_555
H43 C28 1_555 1_555
H44 C28 1_555 1_555
H45 C28 1_555 1_555
O3 C21 1_555 1_555
C26 C27 1_555 1_555

#END
