
#######################################################################
#
#                 Cambridge Crystallographic Data Centre
#                                CCDC 
#
#######################################################################
#
# If this CIF has been generated from an entry in the Cambridge 
# Structural Database, then it will include bibliographic, chemical, 
# crystal, experimental, refinement or atomic coordinate data resulting 
# from the CCDC's data processing and validation procedures.
#
#######################################################################

data_CUTHOQ
_chemical_formula_moiety         'C16 H34 N4 O2'
_chemical_name_systematic        1,1'-ethane-1,2-diylbis(3-hexylurea)
_symmetry_cell_setting           triclinic
_symmetry_space_group_name_H-M   'P -1'
_symmetry_Int_Tables_number      2
_space_group_name_Hall           '-P 1'
loop_
_symmetry_equiv_pos_site_id
_symmetry_equiv_pos_as_xyz
1 x,y,z
2 -x,-y,-z
_cell_length_a                   4.5320(8)
_cell_length_b                   4.6056(13)
_cell_length_c                   22.821(6)
_cell_angle_alpha                86.485(13)
_cell_angle_beta                 87.267(16)
_cell_angle_gamma                72.76(3)
_cell_volume                     453.859
_exptl_crystal_colour            colorless
_cell_formula_units_Z            1
_exptl_crystal_recrystallization_method Ethanol
loop_
_atom_site_label
_atom_site_type_symbol
_atom_site_fract_x
_atom_site_fract_y
_atom_site_fract_z
O1 O 0.37607(15) 0.74388(16) 0.89040(3)
N1 N 0.87593(18) 0.53895(19) 0.85946(4)
H1 H 1.065(2) 0.550(3) 0.8611(5)
N2 N 0.75777(18) 0.87333(19) 0.93380(4)
H2 H 0.953(2) 0.864(3) 0.9316(5)
C1 C 0.2309(3) 0.7400(3) 0.55512(5)
H3 H 0.0485 0.8970 0.5693
H4 H 0.1720 0.6333 0.5239
H5 H 0.3872 0.8354 0.5397
C2 C 0.3634(3) 0.5131(2) 0.60568(5)
H6 H 0.2066 0.4131 0.6202
H7 H 0.5457 0.3536 0.5909
C3 C 0.4588(2) 0.6618(2) 0.65648(4)
H8 H 0.2772 0.8247 0.6705
H9 H 0.6181 0.7585 0.6419
C4 C 0.5862(2) 0.4411(2) 0.70830(4)
H10 H 0.4271 0.3449 0.7233
H11 H 0.7683 0.2781 0.6946
C5 C 0.6800(2) 0.5973(2) 0.75830(4)
H12 H 0.5005 0.7674 0.7705
H13 H 0.8461 0.6849 0.7437
C6 C 0.7933(2) 0.3851(2) 0.81192(4)
H14 H 0.6290 0.2945 0.8263
H15 H 0.9758 0.2172 0.8001
C7 C 0.6554(2) 0.7214(2) 0.89409(4)
C8 C 0.5443(2) 1.0827(2) 0.97246(4)
H16 H 0.3553 1.1912 0.9510
H17 H 0.6411 1.2361 0.9841
O1A O 0.62393(15) 1.25612(16) 1.10960(3)
N1A N 0.12407(18) 1.46105(19) 1.14054(4)
H1A H -0.065(2) 1.450(3) 1.1389(5)
N2A N 0.24223(18) 1.12667(19) 1.06620(4)
H2A H 0.047(2) 1.136(3) 1.0684(5)
C1A C 0.7691(3) 1.2600(3) 1.44488(5)
H3A H 0.9515 1.1030 1.4307
H4A H 0.8280 1.3667 1.4761
H5A H 0.6128 1.1646 1.4603
C2A C 0.6366(3) 1.4869(2) 1.39432(5)
H6A H 0.7934 1.5869 1.3798
H7A H 0.4543 1.6464 1.4091
C3A C 0.5412(2) 1.3382(2) 1.34352(4)
H8A H 0.7228 1.1753 1.3295
H9A H 0.3819 1.2415 1.3581
C4A C 0.4138(2) 1.5589(2) 1.29170(4)
H10A H 0.5729 1.6551 1.2767
H11A H 0.2317 1.7219 1.3054
C5A C 0.3200(2) 1.4027(2) 1.24170(4)
H12A H 0.4995 1.2326 1.2295
H13A H 0.1539 1.3151 1.2563
C6A C 0.2067(2) 1.6149(2) 1.18808(4)
H14A H 0.3710 1.7055 1.1737
H15A H 0.0242 1.7828 1.1999
C7A C 0.3446(2) 1.2786(2) 1.10591(4)
C8A C 0.4557(2) 0.9173(2) 1.02754(4)
H16A H 0.6447 0.8088 1.0490
H17A H 0.3589 0.7639 1.0159
loop_
_geom_bond_atom_site_label_1
_geom_bond_atom_site_label_2
_geom_bond_site_symmetry_1
_geom_bond_site_symmetry_2
O1 C7 1_555 1_555
N1 H1 1_555 1_555
N2 H2 1_555 1_555
C1 H3 1_555 1_555
H4 C1 1_555 1_555
H5 C1 1_555 1_555
C2 C1 1_555 1_555
H6 C2 1_555 1_555
H7 C2 1_555 1_555
C3 C2 1_555 1_555
H8 C3 1_555 1_555
H9 C3 1_555 1_555
C4 C3 1_555 1_555
H10 C4 1_555 1_555
H11 C4 1_555 1_555
C5 C4 1_555 1_555
H12 C5 1_555 1_555
H13 C5 1_555 1_555
C6 N1 1_555 1_555
H14 C6 1_555 1_555
H15 C6 1_555 1_555
C7 N1 1_555 1_555
C8 N2 1_555 1_555
H16 C8 1_555 1_555
H17 C8 1_555 1_555
O1A C7A 1_555 1_555
N1A H1A 1_555 1_555
N2A H2A 1_555 1_555
C1A H3A 1_555 1_555
H4A C1A 1_555 1_555
H5A C1A 1_555 1_555
C2A C1A 1_555 1_555
H6A C2A 1_555 1_555
H7A C2A 1_555 1_555
C3A C2A 1_555 1_555
H8A C3A 1_555 1_555
H9A C3A 1_555 1_555
C4A C3A 1_555 1_555
H10A C4A 1_555 1_555
H11A C4A 1_555 1_555
C5A C4A 1_555 1_555
H12A C5A 1_555 1_555
H13A C5A 1_555 1_555
C6A N1A 1_555 1_555
H14A C6A 1_555 1_555
H15A C6A 1_555 1_555
C7A N1A 1_555 1_555
C8A C8 1_555 1_555
H16A C8A 1_555 1_555
H17A C8A 1_555 1_555
N2 C7 1_555 1_555
C5 C6 1_555 1_555
N2A C7A 1_555 1_555
N2A C8A 1_555 1_555
C5A C6A 1_555 1_555

#END
