
#######################################################################
#
#                 Cambridge Crystallographic Data Centre
#                                CCDC 
#
#######################################################################
#
# If this CIF has been generated from an entry in the Cambridge 
# Structural Database, then it will include bibliographic, chemical, 
# crystal, experimental, refinement or atomic coordinate data resulting 
# from the CCDC's data processing and validation procedures.
#
#######################################################################

data_CUTHUW
_chemical_formula_moiety         'C17 H16 N2 O5'
_chemical_name_systematic        1,3-bis(1,3-benzodioxol-5-ylmethyl)urea
_symmetry_cell_setting           monoclinic
_symmetry_space_group_name_H-M   'C 2/c'
_symmetry_Int_Tables_number      15
_space_group_name_Hall           '-C 2yn'
loop_
_symmetry_equiv_pos_site_id
_symmetry_equiv_pos_as_xyz
1 x,y,z
2 -x,y,1/2-z
3 1/2+x,1/2+y,z
4 1/2-x,1/2+y,1/2-z
5 -x,-y,-z
6 x,-y,1/2+z
7 1/2-x,1/2-y,-z
8 1/2+x,1/2-y,1/2+z
_cell_length_a                   28.7712(7)
_cell_length_b                   4.55440(10)
_cell_length_c                   11.9512(3)
_cell_angle_alpha                90
_cell_angle_beta                 110.0570(10)
_cell_angle_gamma                90
_cell_volume                     1471.06
_exptl_crystal_colour            colorless
_exptl_crystal_description       Prism
_cell_formula_units_Z            4
loop_
_atom_site_label
_atom_site_type_symbol
_atom_site_fract_x
_atom_site_fract_y
_atom_site_fract_z
O1 O 0.20845(3) 1.1092(2) 0.69933(8)
O2 O 0.20360(3) 0.9566(2) 0.51037(8)
O3 O 0.0000 0.0243(3) 0.2500
N1 N 0.02687(4) 0.4562(2) 0.34593(9)
H1 H 0.0263 0.6489 0.3402
C1 C 0.23300(5) 1.1191(3) 0.61322(11)
H2 H 0.2664 1.0312 0.6469
H3 H 0.2366 1.3251 0.5910
C2 C 0.16966(4) 0.9169(3) 0.65438(11)
C3 C 0.13640(5) 0.8242(3) 0.70573(11)
H4 H 0.1381 0.8897 0.7825
C4 C 0.09977(5) 0.6279(3) 0.63949(11)
H5 H 0.0760 0.5595 0.6724
C5 C 0.09703(4) 0.5303(3) 0.52753(11)
C6 C 0.13165(5) 0.6308(3) 0.47671(11)
H6 H 0.1305 0.5674 0.4001
C7 C 0.16704(4) 0.8234(3) 0.54226(11)
C8 C 0.05668(5) 0.3219(3) 0.45825(11)
H7 H 0.0716 0.1375 0.4424
H8 H 0.0354 0.2734 0.5056
C9 C 0.0000 0.2969(4) 0.2500
O1A O -0.20845(3) 1.1092(2) -0.19933(8)
O2A O -0.20360(3) 0.9566(2) -0.01037(8)
N1A N -0.02687(4) 0.4562(2) 0.15407(9)
H1A H -0.0263 0.6489 0.1598
C1A C -0.23300(5) 1.1191(3) -0.11322(11)
H2A H -0.2664 1.0312 -0.1469
H3A H -0.2366 1.3251 -0.0910
C2A C -0.16966(4) 0.9169(3) -0.15438(11)
C3A C -0.13640(5) 0.8242(3) -0.20573(11)
H4A H -0.1381 0.8897 -0.2825
C4A C -0.09977(5) 0.6279(3) -0.13949(11)
H5A H -0.0760 0.5595 -0.1724
C5A C -0.09703(4) 0.5303(3) -0.02753(11)
C6A C -0.13165(5) 0.6308(3) 0.02329(11)
H6A H -0.1305 0.5674 0.0999
C7A C -0.16704(4) 0.8234(3) -0.04226(11)
C8A C -0.05668(5) 0.3219(3) 0.04175(11)
H7A H -0.0716 0.1375 0.0576
H8A H -0.0354 0.2734 -0.0056
loop_
_geom_bond_atom_site_label_1
_geom_bond_atom_site_label_2
_geom_bond_site_symmetry_1
_geom_bond_site_symmetry_2
O1 C1 1_555 1_555
O2 C1 1_555 1_555
O3 C9 1_555 1_555
N1 H1 1_555 1_555
C1 H2 1_555 1_555
H3 C1 1_555 1_555
C2 O1 1_555 1_555
C3 C2 1_555 1_555
H4 C3 1_555 1_555
C4 C3 1_555 1_555
H5 C4 1_555 1_555
C5 C4 1_555 1_555
C6 C5 1_555 1_555
H6 C6 1_555 1_555
C7 O2 1_555 1_555
C8 N1 1_555 1_555
H7 C8 1_555 1_555
H8 C8 1_555 1_555
C9 N1 1_555 1_555
O1A C1A 1_555 1_555
O2A C1A 1_555 1_555
N1A C9 1_555 1_555
H1A N1A 1_555 1_555
C1A H2A 1_555 1_555
H3A C1A 1_555 1_555
C2A O1A 1_555 1_555
C3A C2A 1_555 1_555
H4A C3A 1_555 1_555
C4A C3A 1_555 1_555
H5A C4A 1_555 1_555
C5A C4A 1_555 1_555
C6A C5A 1_555 1_555
H6A C6A 1_555 1_555
C7A O2A 1_555 1_555
C8A N1A 1_555 1_555
H7A C8A 1_555 1_555
H8A C8A 1_555 1_555
C2 C7 1_555 1_555
C5 C8 1_555 1_555
C6 C7 1_555 1_555
C2A C7A 1_555 1_555
C5A C8A 1_555 1_555
C6A C7A 1_555 1_555

#END
