
#######################################################################
#
#                 Cambridge Crystallographic Data Centre
#                                CCDC 
#
#######################################################################
#
# If this CIF has been generated from an entry in the Cambridge 
# Structural Database, then it will include bibliographic, chemical, 
# crystal, experimental, refinement or atomic coordinate data resulting 
# from the CCDC's data processing and validation procedures.
#
#######################################################################

data_CUTJIM
_chemical_formula_moiety         'C26 H20 N4'
_chemical_name_systematic        
N,N',1,3-tetraphenyl-1,3-diazetidine-2,4-diimine
_symmetry_cell_setting           monoclinic
_symmetry_space_group_name_H-M   'P 21/n'
_symmetry_Int_Tables_number      14
_space_group_name_Hall           '-P 2yn'
loop_
_symmetry_equiv_pos_site_id
_symmetry_equiv_pos_as_xyz
1 x,y,z
2 1/2-x,1/2+y,1/2-z
3 -x,-y,-z
4 1/2+x,1/2-y,1/2+z
_cell_length_a                   9.275(2)
_cell_length_b                   11.069(2)
_cell_length_c                   10.062(3)
_cell_angle_alpha                90
_cell_angle_beta                 110.070(13)
_cell_angle_gamma                90
_cell_volume                     970.284
_exptl_crystal_colour            colorless
_exptl_crystal_description       tablet
_cell_formula_units_Z            2
loop_
_atom_site_label
_atom_site_type_symbol
_atom_site_fract_x
_atom_site_fract_y
_atom_site_fract_z
N1 N 0.58086(10) 0.44786(8) 0.56888(10)
N2 N 0.30608(10) 0.38317(8) 0.51042(10)
C1 C 0.41796(12) 0.44444(9) 0.50735(11)
C2 C 0.69637(12) 0.35842(9) 0.61567(11)
C3 C 0.84743(12) 0.39646(10) 0.68188(11)
H1 H 0.8711 0.4801 0.6946
C4 C 0.96283(12) 0.31048(11) 0.72900(12)
H2 H 1.0663 0.3357 0.7728
C5 C 0.92863(13) 0.18826(11) 0.71280(12)
H3 H 1.0080 0.1300 0.7467
C6 C 0.77825(13) 0.15152(10) 0.64697(12)
H4 H 0.7548 0.0678 0.6361
C7 C 0.66124(12) 0.23604(10) 0.59660(11)
H5 H 0.5585 0.2105 0.5497
C8 C 0.32204(12) 0.28529(10) 0.60434(12)
C9 C 0.38952(12) 0.29959(10) 0.75009(12)
H6 H 0.4317 0.3755 0.7881
C10 C 0.39534(13) 0.20318(11) 0.84020(12)
H7 H 0.4405 0.2137 0.9396
C11 C 0.33550(13) 0.09180(11) 0.78562(12)
H8 H 0.3398 0.0258 0.8473
C12 C 0.26914(13) 0.07728(10) 0.63992(13)
H9 H 0.2293 0.0008 0.6020
C13 C 0.26072(12) 0.17370(10) 0.54964(12)
H10 H 0.2131 0.1636 0.4504
N1B N 0.41914(10) 0.55214(8) 0.43112(10)
N2B N 0.69392(10) 0.61683(8) 0.48958(10)
C1B C 0.58204(12) 0.55556(9) 0.49265(11)
C2B C 0.30363(12) 0.64158(9) 0.38433(11)
C3B C 0.15257(12) 0.60354(10) 0.31812(11)
H1B H 0.1289 0.5199 0.3054
C4B C 0.03717(12) 0.68952(11) 0.27100(12)
H2B H -0.0663 0.6643 0.2272
C5B C 0.07137(13) 0.81174(11) 0.28720(12)
H3B H -0.0080 0.8700 0.2533
C6B C 0.22175(13) 0.84848(10) 0.35303(12)
H4B H 0.2452 0.9322 0.3639
C7B C 0.33876(12) 0.76396(10) 0.40340(11)
H5B H 0.4415 0.7895 0.4503
C8B C 0.67796(12) 0.71471(10) 0.39566(12)
C9B C 0.61048(12) 0.70041(10) 0.24991(12)
H6B H 0.5683 0.6245 0.2119
C10B C 0.60466(13) 0.79682(11) 0.15980(12)
H7B H 0.5595 0.7863 0.0604
C11B C 0.66450(13) 0.90820(11) 0.21438(12)
H8B H 0.6602 0.9742 0.1527
C12B C 0.73086(13) 0.92272(10) 0.36008(13)
H9B H 0.7707 0.9992 0.3980
C13B C 0.73928(12) 0.82630(10) 0.45036(12)
H10B H 0.7869 0.8364 0.5496
loop_
_geom_bond_atom_site_label_1
_geom_bond_atom_site_label_2
_geom_bond_site_symmetry_1
_geom_bond_site_symmetry_2
N1 C1 1_555 1_555
N2 C1 1_555 1_555
C1 N1B 1_555 1_555
C2 N1 1_555 1_555
C3 C2 1_555 1_555
H1 C3 1_555 1_555
C4 C3 1_555 1_555
H2 C4 1_555 1_555
C5 C4 1_555 1_555
H3 C5 1_555 1_555
C6 C5 1_555 1_555
H4 C6 1_555 1_555
C7 C2 1_555 1_555
H5 C7 1_555 1_555
C8 N2 1_555 1_555
C9 C8 1_555 1_555
H6 C9 1_555 1_555
C10 C9 1_555 1_555
H7 C10 1_555 1_555
C11 C10 1_555 1_555
H8 C11 1_555 1_555
C12 C11 1_555 1_555
H9 C12 1_555 1_555
C13 C8 1_555 1_555
H10 C13 1_555 1_555
N1B C1B 1_555 1_555
N2B C1B 1_555 1_555
C1B N1 1_555 1_555
C2B N1B 1_555 1_555
C3B C2B 1_555 1_555
H1B C3B 1_555 1_555
C4B C3B 1_555 1_555
H2B C4B 1_555 1_555
C5B C4B 1_555 1_555
H3B C5B 1_555 1_555
C6B C5B 1_555 1_555
H4B C6B 1_555 1_555
C7B C2B 1_555 1_555
H5B C7B 1_555 1_555
C8B N2B 1_555 1_555
C9B C8B 1_555 1_555
H6B C9B 1_555 1_555
C10B C9B 1_555 1_555
H7B C10B 1_555 1_555
C11B C10B 1_555 1_555
H8B C11B 1_555 1_555
C12B C11B 1_555 1_555
H9B C12B 1_555 1_555
C13B C8B 1_555 1_555
H10B C13B 1_555 1_555
C6 C7 1_555 1_555
C12 C13 1_555 1_555
C6B C7B 1_555 1_555
C12B C13B 1_555 1_555

#END
