
#######################################################################
#
#                 Cambridge Crystallographic Data Centre
#                                CCDC 
#
#######################################################################
#
# If this CIF has been generated from an entry in the Cambridge 
# Structural Database, then it will include bibliographic, chemical, 
# crystal, experimental, refinement or atomic coordinate data resulting 
# from the CCDC's data processing and validation procedures.
#
#######################################################################

data_CUTJUY
_chemical_formula_moiety         'C15 H14 N2 O3'
_chemical_name_systematic        1-(1,3-benzodioxol-5-ylmethyl)-3-phenylurea
_symmetry_cell_setting           monoclinic
_symmetry_space_group_name_H-M   'P 21/c'
_symmetry_Int_Tables_number      14
_space_group_name_Hall           '-P 2ybc'
loop_
_symmetry_equiv_pos_site_id
_symmetry_equiv_pos_as_xyz
1 x,y,z
2 -x,1/2+y,1/2-z
3 -x,-y,-z
4 x,1/2-y,1/2+z
_cell_length_a                   5.2360(5)
_cell_length_b                   9.0670(10)
_cell_length_c                   26.619(3)
_cell_angle_alpha                90
_cell_angle_beta                 96.510(5)
_cell_angle_gamma                90
_cell_volume                     1255.58
_exptl_crystal_colour            colorless
_cell_formula_units_Z            4
_exptl_crystal_recrystallization_method methanol
loop_
_atom_site_label
_atom_site_type_symbol
_atom_site_fract_x
_atom_site_fract_y
_atom_site_fract_z
O1 O 0.87213(17) 0.23021(10) 0.51098(3)
O2 O 0.74437(15) 0.42878(9) 0.45892(3)
O3 O 0.93364(14) 0.44476(8) 0.27031(3)
N1 N 1.15888(16) 0.23115(9) 0.28661(3)
H1 H 1.169(3) 0.1393(17) 0.2782(5)
N2 N 0.82534(17) 0.23529(9) 0.22372(3)
H2 H 0.881(3) 0.1465(17) 0.2184(5)
C1 C 1.2920(2) 0.15454(11) 0.41158(4)
H3 H 1.4215 0.0896 0.4025
C2 C 1.1870(2) 0.13079(12) 0.45722(4)
H4 H 1.2413 0.0510 0.4790
C3 C 1.0024(2) 0.22841(12) 0.46877(4)
C4 C 0.7063(2) 0.35578(12) 0.50539(4)
H5 H 0.7467 0.4239 0.5343
H6 H 0.5249 0.3243 0.5047
C5 C 0.92282(19) 0.34531(11) 0.43731(4)
C6 C 1.02029(19) 0.36939(11) 0.39218(4)
H7 H 0.9618 0.4488 0.3706
C7 C 1.21146(18) 0.27070(11) 0.37933(4)
C8 C 1.32474(19) 0.28939(11) 0.32978(4)
H8 H 1.3554 0.3956 0.3242
H9 H 1.4928 0.2383 0.3321
C9 C 0.97042(18) 0.31282(10) 0.26089(4)
C10 C 0.61940(18) 0.28829(10) 0.18998(4)
C11 C 0.46443(19) 0.40723(11) 0.20062(4)
H10 H 0.5014 0.4610 0.2312
C12 C 0.25512(19) 0.44661(11) 0.16604(4)
H11 H 0.1521 0.5287 0.1731
C13 C 0.19458(19) 0.36793(12) 0.12147(4)
H12 H 0.0502 0.3949 0.0984
C14 C 0.3480(2) 0.24941(12) 0.11110(4)
H13 H 0.3075 0.1944 0.0809
C15 C 0.5606(2) 0.21071(11) 0.14462(4)
H14 H 0.6668 0.1310 0.1367
loop_
_geom_bond_atom_site_label_1
_geom_bond_atom_site_label_2
_geom_bond_site_symmetry_1
_geom_bond_site_symmetry_2
O1 C3 1_555 1_555
O2 C4 1_555 1_555
O3 C9 1_555 1_555
N1 H1 1_555 1_555
N2 H2 1_555 1_555
C1 H3 1_555 1_555
C2 C1 1_555 1_555
H4 C2 1_555 1_555
C3 C2 1_555 1_555
C4 O1 1_555 1_555
H5 C4 1_555 1_555
H6 C4 1_555 1_555
C5 O2 1_555 1_555
C6 C5 1_555 1_555
H7 C6 1_555 1_555
C7 C1 1_555 1_555
C8 N1 1_555 1_555
H8 C8 1_555 1_555
H9 C8 1_555 1_555
C9 N1 1_555 1_555
C10 N2 1_555 1_555
C11 C10 1_555 1_555
H10 C11 1_555 1_555
C12 C11 1_555 1_555
H11 C12 1_555 1_555
C13 C12 1_555 1_555
H12 C13 1_555 1_555
C14 C13 1_555 1_555
H13 C14 1_555 1_555
C15 C10 1_555 1_555
H14 C15 1_555 1_555
N2 C9 1_555 1_555
C3 C5 1_555 1_555
C6 C7 1_555 1_555
C7 C8 1_555 1_555
C14 C15 1_555 1_555

#END
