
#######################################################################
#
#                 Cambridge Crystallographic Data Centre
#                                CCDC 
#
#######################################################################
#
# If this CIF has been generated from an entry in the Cambridge 
# Structural Database, then it will include bibliographic, chemical, 
# crystal, experimental, refinement or atomic coordinate data resulting 
# from the CCDC's data processing and validation procedures.
#
#######################################################################

data_CUTPOY
_chemical_formula_moiety         'C24 H18 N2 O1,C2 H6 O1'
_chemical_name_systematic        
'2-(4-methoxyphenyl)-5-(1-naphthyl)-1H-benzimidazole ethanol'
_symmetry_cell_setting           triclinic
_symmetry_space_group_name_H-M   'P -1'
_symmetry_Int_Tables_number      2
_space_group_name_Hall           '-P 1'
loop_
_symmetry_equiv_pos_site_id
_symmetry_equiv_pos_as_xyz
1 x,y,z
2 -x,-y,-z
_cell_length_a                   7.3120(3)
_cell_length_b                   12.2054(7)
_cell_length_c                   12.9196(9)
_cell_angle_alpha                107.682(6)
_cell_angle_beta                 93.720(4)
_cell_angle_gamma                98.303(4)
_cell_volume                     1079.78
_cell_formula_units_Z            2
loop_
_atom_site_label
_atom_site_type_symbol
_atom_site_fract_x
_atom_site_fract_y
_atom_site_fract_z
C1 C 0.7067(3) 0.1866(2) 0.99094(18)
H1 H 0.7573 0.1289 1.0103
C2 C 0.7894(3) 0.2996(2) 1.03641(19)
H2 H 0.8948 0.3187 1.0869
C3 C 0.7169(3) 0.3877(2) 1.00782(18)
H3 H 0.7738 0.4652 1.0396
C4 C 0.5627(3) 0.36017(16) 0.93323(15)
H4 H 0.5163 0.4196 0.9146
C5 C 0.4718(3) 0.24340(16) 0.88369(15)
C6 C 0.5447(3) 0.15417(18) 0.91456(16)
C7 C 0.4554(4) 0.03698(19) 0.86871(19)
H5 H 0.5033 -0.0214 0.8883
C8 C 0.2997(4) 0.00887(19) 0.7961(2)
H6 H 0.2415 -0.0686 0.7664
C9 C 0.2262(3) 0.09657(18) 0.76551(19)
H7 H 0.1188 0.0760 0.7163
C10 C 0.3090(3) 0.21120(16) 0.80652(16)
C11 C 0.3251(2) 0.36886(16) 0.71831(15)
H8 H 0.4472 0.3614 0.7057
C12 C 0.2258(3) 0.30067(16) 0.77099(15)
C13 C 0.0421(3) 0.31502(17) 0.79102(16)
H9 H -0.0228 0.2695 0.8273
C14 C -0.0443(2) 0.39420(17) 0.75870(16)
H10 H -0.1655 0.4028 0.7726
C15 C 0.0558(2) 0.46037(15) 0.70485(14)
C16 C 0.2386(2) 0.44914(15) 0.68432(14)
C17 C 0.1679(2) 0.58282(15) 0.61957(14)
C18 C 0.1761(2) 0.67449(15) 0.56829(14)
C19 C 0.3332(3) 0.70400(17) 0.52086(16)
H11 H 0.4326 0.6644 0.5216
C20 C 0.3446(3) 0.79110(17) 0.47254(17)
H12 H 0.4507 0.8096 0.4410
C21 C 0.1975(3) 0.85078(16) 0.47128(15)
C22 C 0.0403(3) 0.82206(17) 0.51775(16)
H13 H -0.0588 0.8619 0.5168
C23 C 0.0289(3) 0.73535(16) 0.56522(15)
H14 H -0.0782 0.7167 0.5958
C24 C 0.3295(4) 0.9527(2) 0.3554(2)
H15 H 0.3240 0.8802 0.2980
H16 H 0.4512 0.9756 0.3958
H17 H 0.3045 1.0118 0.3242
N1 N 0.01484(19) 0.54584(12) 0.66277(12)
H18 H -0.0888 0.5714 0.6636
N2 N 0.3065(2) 0.52662(13) 0.63079(13)
O1 O 0.1950(2) 0.93865(13) 0.42651(13)
C25 C 0.6732(7) 0.6775(6) 0.8133(5)
H19 H 0.7253 0.6310 0.8529
H20 H 0.5461 0.6812 0.8294
C26 C 0.7858(6) 0.7979(4) 0.8476(4)
H21 H 0.9130 0.7931 0.8357
H22 H 0.7791 0.8359 0.9238
H23 H 0.7374 0.8420 0.8053
O2 O 0.6767(2) 0.62517(18) 0.69717(16)
H24 H 0.565(5) 0.586(3) 0.666(2)
C27? C 0.6426(13) 0.7349(10) 0.7825(9)
H25? H 0.5898 0.7828 0.7448
H26? H 0.5502 0.7123 0.8261
H27? H 0.8936 0.7950 0.8089
H28? H 0.8046 0.7686 0.9078
H29? H 0.7659 0.8772 0.8747
loop_
_geom_bond_atom_site_label_1
_geom_bond_atom_site_label_2
_geom_bond_site_symmetry_1
_geom_bond_site_symmetry_2
C1 H1 1_555 1_555
C2 C1 1_555 1_555
H2 C2 1_555 1_555
C3 C2 1_555 1_555
H3 C3 1_555 1_555
C4 C3 1_555 1_555
H4 C4 1_555 1_555
C5 C4 1_555 1_555
C6 C1 1_555 1_555
C7 C6 1_555 1_555
H5 C7 1_555 1_555
C8 C7 1_555 1_555
H6 C8 1_555 1_555
C9 C8 1_555 1_555
H7 C9 1_555 1_555
C10 C5 1_555 1_555
C11 H8 1_555 1_555
C12 C10 1_555 1_555
C13 C12 1_555 1_555
H9 C13 1_555 1_555
C14 C13 1_555 1_555
H10 C14 1_555 1_555
C15 C14 1_555 1_555
C16 C11 1_555 1_555
C17 C18 1_555 1_555
C18 C19 1_555 1_555
C19 H11 1_555 1_555
C20 C19 1_555 1_555
H12 C20 1_555 1_555
C21 C20 1_555 1_555
C22 C21 1_555 1_555
H13 C22 1_555 1_555
C23 C18 1_555 1_555
H14 C23 1_555 1_555
C24 H15 1_555 1_555
H16 C24 1_555 1_555
H17 C24 1_555 1_555
N1 C15 1_555 1_555
H18 N1 1_555 1_555
N2 C16 1_555 1_555
O1 C21 1_555 1_555
C25 H19 1_555 1_555
H20 C25 1_555 1_555
C26 C25 1_555 1_555
H21 C26 1_555 1_555
H22 C26 1_555 1_555
H23 C26 1_555 1_555
O2 C25 1_555 1_555
H24 O2 1_555 1_555
C5 C6 1_555 1_555
C9 C10 1_555 1_555
C11 C12 1_555 1_555
C15 C16 1_555 1_555
C17 N1 1_555 1_555
C17 N2 1_555 1_555
C22 C23 1_555 1_555
C24 O1 1_555 1_555

#END
