
#######################################################################
#
#                 Cambridge Crystallographic Data Centre
#                                CCDC 
#
#######################################################################
#
# If this CIF has been generated from an entry in the Cambridge 
# Structural Database, then it will include bibliographic, chemical, 
# crystal, experimental, refinement or atomic coordinate data resulting 
# from the CCDC's data processing and validation procedures.
#
#######################################################################

data_CUTQOZ
_chemical_formula_moiety         'C16 H13 Br1 N2 O2'
_chemical_name_systematic        
2-amino-4-(3-bromophenyl)-5-oxo-5,6,7,8-tetrahydro-4H-chromene-3-carbonitrile
_chemical_properties_biological  'antibacterial activity; antitumour activity'
_symmetry_cell_setting           monoclinic
_symmetry_space_group_name_H-M   'C 2/c'
_symmetry_Int_Tables_number      15
_space_group_name_Hall           '-C 2yn'
loop_
_symmetry_equiv_pos_site_id
_symmetry_equiv_pos_as_xyz
1 x,y,z
2 -x,y,1/2-z
3 1/2+x,1/2+y,z
4 1/2-x,1/2+y,1/2-z
5 -x,-y,-z
6 x,-y,1/2+z
7 1/2-x,1/2-y,-z
8 1/2+x,1/2-y,1/2+z
_cell_length_a                   20.7948(17)
_cell_length_b                   8.9806(4)
_cell_length_c                   16.1358(13)
_cell_angle_alpha                90
_cell_angle_beta                 98.608(7)
_cell_angle_gamma                90
_cell_volume                     2979.41
_exptl_crystal_colour            colorless
_exptl_crystal_description       block
_cell_formula_units_Z            8
loop_
_atom_site_label
_atom_site_type_symbol
_atom_site_fract_x
_atom_site_fract_y
_atom_site_fract_z
Br1 Br 0.18554(4) 0.01230(8) 0.10208(5)
C1 C 0.0709(3) 0.3270(5) 0.4879(3)
C2 C 0.0603(2) 0.2586(5) 0.4123(3)
C3 C 0.0838(2) 0.3210(5) 0.3356(3)
H1 H 0.0480 0.3125 0.2889
C4 C 0.1075(3) 0.5440(5) 0.4266(3)
C5 C 0.1253(3) 0.7013(6) 0.4475(4)
H2 H 0.1593 0.7042 0.4957
H3 H 0.0877 0.7535 0.4622
C6 C 0.1484(3) 0.7776(6) 0.3746(4)
H4 H 0.1920 0.7436 0.3700
H5 H 0.1503 0.8841 0.3846
C7 C 0.1043(4) 0.7472(6) 0.2929(4)
H6 H 0.1232 0.7906 0.2471
H7 H 0.0626 0.7946 0.2943
C8 C 0.0940(3) 0.5821(6) 0.2772(4)
C9 C 0.0980(3) 0.4845(5) 0.3496(3)
C10 C 0.1411(2) 0.2338(5) 0.3118(3)
C11 C 0.1393(2) 0.1780(5) 0.2318(3)
H8 H 0.1038 0.1986 0.1911
C12 C 0.1901(3) 0.0912(6) 0.2119(4)
C13 C 0.2433(3) 0.0598(7) 0.2708(5)
H9 H 0.2767 -0.0001 0.2573
C14 C 0.2463(3) 0.1182(7) 0.3495(5)
H10 H 0.2827 0.1002 0.3892
C15 C 0.1959(3) 0.2036(6) 0.3707(4)
H11 H 0.1985 0.2414 0.4247
C16 C 0.0288(2) 0.1198(5) 0.4057(3)
O1 O 0.10093(19) 0.4640(4) 0.4967(2)
O2 O 0.0801(2) 0.5332(4) 0.2067(3)
N1 N 0.0565(2) 0.2810(5) 0.5607(3)
H12 H 0.0376 0.1965 0.5642
H13 H 0.0659 0.3356 0.6046
N2 N 0.0033(3) 0.0066(5) 0.3965(3)
loop_
_geom_bond_atom_site_label_1
_geom_bond_atom_site_label_2
_geom_bond_site_symmetry_1
_geom_bond_site_symmetry_2
Br1 C12 1_555 1_555
C1 C2 1_555 1_555
C2 C3 1_555 1_555
C3 H1 1_555 1_555
C4 C5 1_555 1_555
C5 H2 1_555 1_555
H3 C5 1_555 1_555
C6 C5 1_555 1_555
H4 C6 1_555 1_555
H5 C6 1_555 1_555
C7 C6 1_555 1_555
H6 C7 1_555 1_555
H7 C7 1_555 1_555
C8 C7 1_555 1_555
C9 C3 1_555 1_555
C10 C3 1_555 1_555
C11 C10 1_555 1_555
H8 C11 1_555 1_555
C12 C11 1_555 1_555
C13 C12 1_555 1_555
H9 C13 1_555 1_555
C14 C13 1_555 1_555
H10 C14 1_555 1_555
C15 C10 1_555 1_555
H11 C15 1_555 1_555
C16 C2 1_555 1_555
O1 C1 1_555 1_555
O2 C8 1_555 1_555
N1 C1 1_555 1_555
H12 N1 1_555 1_555
H13 N1 1_555 1_555
N2 C16 1_555 1_555
C4 C9 1_555 1_555
C4 O1 1_555 1_555
C8 C9 1_555 1_555
C14 C15 1_555 1_555

#END
