
#######################################################################
#
#                 Cambridge Crystallographic Data Centre
#                                CCDC 
#
#######################################################################
#
# If this CIF has been generated from an entry in the Cambridge 
# Structural Database, then it will include bibliographic, chemical, 
# crystal, experimental, refinement or atomic coordinate data resulting 
# from the CCDC's data processing and validation procedures.
#
#######################################################################

data_CUTQUF
_chemical_formula_moiety         'C19 H17 N3 O2'
_chemical_name_systematic        
2-amino-4-(2-cyanophenyl)-7,7-dimethyl-5-oxo-5,6,7,8-tetrahydro-4H-chromene-3-carbonitrile
_chemical_properties_biological  'antibacterial activity; antitumour activity'
_symmetry_cell_setting           monoclinic
_symmetry_space_group_name_H-M   'P 21/n'
_symmetry_Int_Tables_number      14
_space_group_name_Hall           '-P 2yn'
loop_
_symmetry_equiv_pos_site_id
_symmetry_equiv_pos_as_xyz
1 x,y,z
2 1/2-x,1/2+y,1/2-z
3 -x,-y,-z
4 1/2+x,1/2-y,1/2+z
_cell_length_a                   7.3119(5)
_cell_length_b                   25.5752(14)
_cell_length_c                   9.4014(6)
_cell_angle_alpha                90
_cell_angle_beta                 111.680(8)
_cell_angle_gamma                90
_cell_volume                     1633.73
_exptl_crystal_colour            colorless
_exptl_crystal_description       block
_cell_formula_units_Z            4
loop_
_atom_site_label
_atom_site_type_symbol
_atom_site_fract_x
_atom_site_fract_y
_atom_site_fract_z
C1 C 0.6657(3) 0.02189(7) -0.1202(2)
C2 C 0.5414(2) 0.06001(7) -0.19951(19)
C3 C 0.4997(2) 0.10912(6) -0.1259(2)
H1 H 0.3577 0.1103 -0.1487
C4 C 0.6014(3) 0.10482(7) 0.0454(2)
C5 C 0.7172(3) 0.06491(7) 0.1140(2)
C6 C 0.5647(3) 0.14572(8) 0.1415(2)
C7 C 0.6435(3) 0.13696(8) 0.3113(2)
H2 H 0.5491 0.1164 0.3377
H3 H 0.6566 0.1705 0.3623
C8 C 0.8428(3) 0.10905(7) 0.3715(2)
C9 C 0.8224(3) 0.05815(7) 0.2813(2)
H4 H 0.9526 0.0442 0.3000
H5 H 0.7521 0.0328 0.3186
C10 C 0.4531(3) 0.05469(7) -0.3601(2)
C11 C 0.9985(3) 0.14430(8) 0.3489(2)
H6 H 1.1236 0.1268 0.3862
H7 H 1.0076 0.1763 0.4043
H8 H 0.9623 0.1519 0.2420
C12 C 0.9019(3) 0.09592(9) 0.5410(2)
H9 H 1.0274 0.0787 0.5769
H10 H 0.8049 0.0733 0.5546
H11 H 0.9106 0.1275 0.5981
C13 C 0.5529(3) 0.15783(7) -0.19551(19)
C14 C 0.7453(3) 0.16904(7) -0.1817(2)
C15 C 0.7865(3) 0.21312(7) -0.2529(2)
H12 H 0.9157 0.2207 -0.2407
C16 C 0.6369(4) 0.24509(8) -0.3403(3)
H13 H 0.6643 0.2741 -0.3887
C17 C 0.4466(4) 0.23428(8) -0.3564(3)
H14 H 0.3447 0.2558 -0.4165
C18 C 0.4063(3) 0.19134(7) -0.2832(2)
H15 H 0.2769 0.1849 -0.2934
C19 C 0.9056(3) 0.13532(8) -0.0980(2)
O1 O 0.75497(18) 0.02327(4) 0.03577(13)
O2 O 0.4701(2) 0.18470(6) 0.08339(16)
N1 N 0.7191(2) -0.02116(6) -0.17504(18)
H16 H 0.6729 -0.0272 -0.2719
H17 H 0.7997 -0.0429 -0.1136
N2 N 0.3805(3) 0.05015(7) -0.49023(19)
N3 N 1.0365(3) 0.10927(7) -0.0334(2)
loop_
_geom_bond_atom_site_label_1
_geom_bond_atom_site_label_2
_geom_bond_site_symmetry_1
_geom_bond_site_symmetry_2
C1 C2 1_555 1_555
C2 C3 1_555 1_555
C3 H1 1_555 1_555
C4 C3 1_555 1_555
C5 C4 1_555 1_555
C6 C4 1_555 1_555
C7 C6 1_555 1_555
H2 C7 1_555 1_555
H3 C7 1_555 1_555
C8 C7 1_555 1_555
C9 C5 1_555 1_555
H4 C9 1_555 1_555
H5 C9 1_555 1_555
C10 C2 1_555 1_555
C11 C8 1_555 1_555
H6 C11 1_555 1_555
H7 C11 1_555 1_555
H8 C11 1_555 1_555
C12 C8 1_555 1_555
H9 C12 1_555 1_555
H10 C12 1_555 1_555
H11 C12 1_555 1_555
C13 C3 1_555 1_555
C14 C13 1_555 1_555
C15 C14 1_555 1_555
H12 C15 1_555 1_555
C16 C15 1_555 1_555
H13 C16 1_555 1_555
C17 C16 1_555 1_555
H14 C17 1_555 1_555
C18 C13 1_555 1_555
H15 C18 1_555 1_555
C19 C14 1_555 1_555
O1 C1 1_555 1_555
O2 C6 1_555 1_555
N1 C1 1_555 1_555
H16 N1 1_555 1_555
H17 N1 1_555 1_555
N2 C10 1_555 1_555
N3 C19 1_555 1_555
C5 O1 1_555 1_555
C8 C9 1_555 1_555
C17 C18 1_555 1_555

#END
