
#######################################################################
#
#                 Cambridge Crystallographic Data Centre
#                                CCDC 
#
#######################################################################
#
# If this CIF has been generated from an entry in the Cambridge 
# Structural Database, then it will include bibliographic, chemical, 
# crystal, experimental, refinement or atomic coordinate data resulting 
# from the CCDC's data processing and validation procedures.
#
#######################################################################

data_CUTRUG
_chemical_formula_moiety         'C17 H18 Cl1 N3 O1'
_chemical_name_systematic        
2-(4-t-butylbenzyl)-8-chloro[1,2,4]triazolo[4,3-a]pyridin-3(2H)-one
_chemical_properties_biological  'herbicidal activity'
_symmetry_cell_setting           monoclinic
_symmetry_space_group_name_H-M   'P 21/n'
_symmetry_Int_Tables_number      14
_space_group_name_Hall           '-P 2yn'
loop_
_symmetry_equiv_pos_site_id
_symmetry_equiv_pos_as_xyz
1 x,y,z
2 1/2-x,1/2+y,1/2-z
3 -x,-y,-z
4 1/2+x,1/2-y,1/2+z
_cell_length_a                   13.433(8)
_cell_length_b                   6.668(4)
_cell_length_c                   17.622(10)
_cell_angle_alpha                90
_cell_angle_beta                 94.465(14)
_cell_angle_gamma                90
_cell_volume                     1573.63
_exptl_crystal_colour            colorless
_exptl_crystal_description       Prism
_cell_formula_units_Z            4
loop_
_atom_site_label
_atom_site_type_symbol
_atom_site_fract_x
_atom_site_fract_y
_atom_site_fract_z
Cl1 Cl -0.12541(3) 0.18185(7) 0.04642(2)
O1 O 0.26333(8) -0.19535(19) 0.18774(7)
N1 N 0.09487(9) -0.14893(19) 0.14472(8)
N2 N 0.10014(9) 0.17432(19) 0.10994(7)
N3 N 0.19280(9) 0.1058(2) 0.14044(7)
C1 C 0.04326(11) 0.0153(2) 0.11330(8)
C2 C -0.05966(12) -0.0174(2) 0.08852(9)
C3 C -0.10090(13) -0.1993(3) 0.09636(10)
H1 H -0.1690 -0.2203 0.0796
C4 C -0.04328(15) -0.3611(3) 0.12968(11)
H2 H -0.0739 -0.4880 0.1357
C5 C 0.05316(14) -0.3364(2) 0.15258(11)
H3 H 0.0920 -0.4449 0.1737
C6 C 0.19415(12) -0.0904(3) 0.16127(9)
C7 C 0.28019(11) 0.2365(3) 0.14232(9)
H4 H 0.3352 0.1747 0.1750
H5 H 0.2637 0.3665 0.1654
C8 C 0.31518(10) 0.2735(2) 0.06418(8)
C9 C 0.35473(11) 0.1186(2) 0.02274(9)
H6 H 0.3602 -0.0123 0.0439
C10 C 0.38619(11) 0.1541(2) -0.04921(9)
H7 H 0.4127 0.0462 -0.0765
C11 C 0.38001(10) 0.3441(2) -0.08262(9)
C12 C 0.34156(11) 0.4975(2) -0.04002(9)
H8 H 0.3373 0.6292 -0.0606
C13 C 0.30920(11) 0.4626(2) 0.03192(9)
H9 H 0.2826 0.5702 0.0593
C14 C 0.40916(11) 0.3779(2) -0.16402(9)
C15 C 0.42884(13) 0.5999(3) -0.17985(10)
H10 H 0.4801 0.6509 -0.1421
H11 H 0.3670 0.6764 -0.1766
H12 H 0.4520 0.6143 -0.2309
C16 C 0.50387(14) 0.2621(3) -0.17940(11)
H13 H 0.4911 0.1178 -0.1762
H14 H 0.5579 0.2994 -0.1415
H15 H 0.5233 0.2950 -0.2304
C17 C 0.32241(13) 0.3067(3) -0.21860(10)
H16 H 0.3387 0.3287 -0.2712
H17 H 0.2621 0.3824 -0.2091
H18 H 0.3108 0.1635 -0.2105
loop_
_geom_bond_atom_site_label_1
_geom_bond_atom_site_label_2
_geom_bond_site_symmetry_1
_geom_bond_site_symmetry_2
Cl1 C2 1_555 1_555
O1 C6 1_555 1_555
N1 C1 1_555 1_555
N2 N3 1_555 1_555
N3 C6 1_555 1_555
C1 N2 1_555 1_555
C2 C1 1_555 1_555
C3 C2 1_555 1_555
H1 C3 1_555 1_555
C4 C3 1_555 1_555
H2 C4 1_555 1_555
C5 N1 1_555 1_555
H3 C5 1_555 1_555
C6 N1 1_555 1_555
C7 N3 1_555 1_555
H4 C7 1_555 1_555
H5 C7 1_555 1_555
C8 C7 1_555 1_555
C9 C8 1_555 1_555
H6 C9 1_555 1_555
C10 C9 1_555 1_555
H7 C10 1_555 1_555
C11 C10 1_555 1_555
C12 C11 1_555 1_555
H8 C12 1_555 1_555
C13 C8 1_555 1_555
H9 C13 1_555 1_555
C14 C11 1_555 1_555
C15 C14 1_555 1_555
H10 C15 1_555 1_555
H11 C15 1_555 1_555
H12 C15 1_555 1_555
C16 C14 1_555 1_555
H13 C16 1_555 1_555
H14 C16 1_555 1_555
H15 C16 1_555 1_555
C17 C14 1_555 1_555
H16 C17 1_555 1_555
H17 C17 1_555 1_555
H18 C17 1_555 1_555
C4 C5 1_555 1_555
C12 C13 1_555 1_555

#END
