
#######################################################################
#
#                 Cambridge Crystallographic Data Centre
#                                CCDC 
#
#######################################################################
#
# If this CIF has been generated from an entry in the Cambridge 
# Structural Database, then it will include bibliographic, chemical, 
# crystal, experimental, refinement or atomic coordinate data resulting 
# from the CCDC's data processing and validation procedures.
#
#######################################################################

data_CUTXEV
_chemical_formula_moiety         'C34 H30 B10'
_chemical_name_systematic        
1,2-(1,3,6-triphenyl-2-(phenylethynyl)-3-hexa-5-yn-1,3-dien-1,4-diyl)-1,2-dicarba-closo-dodecaborane
_symmetry_cell_setting           triclinic
_symmetry_space_group_name_H-M   'P -1'
_symmetry_Int_Tables_number      2
_space_group_name_Hall           '-P 1'
loop_
_symmetry_equiv_pos_site_id
_symmetry_equiv_pos_as_xyz
1 x,y,z
2 -x,-y,-z
_cell_length_a                   11.1709(19)
_cell_length_b                   11.415(2)
_cell_length_c                   13.505(3)
_cell_angle_alpha                94.326(3)
_cell_angle_beta                 106.817(4)
_cell_angle_gamma                99.083(3)
_cell_volume                     1614.37
_exptl_crystal_colour            colorless
_exptl_crystal_description       block
_cell_formula_units_Z            2
loop_
_atom_site_label
_atom_site_type_symbol
_atom_site_fract_x
_atom_site_fract_y
_atom_site_fract_z
C1 C 0.1455(2) 0.3554(2) 0.2443(2)
C2 C 0.0273(2) 0.4275(2) 0.2074(2)
C3 C 0.2755(2) 0.4292(2) 0.27312(19)
C4 C 0.3867(2) 0.3683(2) 0.3009(2)
C5 C 0.4426(2) 0.3498(2) 0.4017(2)
H1 H 0.4087 0.3732 0.4538
C6 C 0.5487(3) 0.2967(3) 0.4268(3)
H2 H 0.5856 0.2843 0.4954
C7 C 0.5993(3) 0.2625(3) 0.3508(3)
H3 H 0.6708 0.2270 0.3677
C8 C 0.5451(3) 0.2805(3) 0.2510(3)
H4 H 0.5800 0.2575 0.1996
C9 C 0.4389(3) 0.3323(3) 0.2248(2)
H5 H 0.4019 0.3432 0.1558
C10 C 0.2920(2) 0.5492(2) 0.2727(2)
C11 C 0.4198(2) 0.6168(2) 0.3011(2)
C12 C 0.5259(2) 0.6722(2) 0.3251(2)
C13 C 0.6527(2) 0.7378(3) 0.3516(2)
C14 C 0.6749(3) 0.8600(3) 0.3493(3)
H6 H 0.6075 0.9010 0.3330
C15 C 0.7987(5) 0.9204(4) 0.3714(4)
H7 H 0.8143 1.0023 0.3687
C16 C 0.8985(4) 0.8619(6) 0.3972(4)
H8 H 0.9814 0.9040 0.4127
C17 C 0.8768(3) 0.7430(5) 0.4002(3)
H9 H 0.9453 0.7034 0.4174
C18 C 0.7560(3) 0.6799(3) 0.3782(3)
H10 H 0.7426 0.5978 0.3810
C19 C 0.1870(2) 0.6161(2) 0.2444(2)
C20 C 0.2227(2) 0.7492(2) 0.2583(2)
C21 C 0.2744(3) 0.8083(3) 0.1908(3)
H11 H 0.2815 0.7656 0.1320
C22 C 0.3158(4) 0.9309(3) 0.2098(4)
H12 H 0.3506 0.9699 0.1637
C23 C 0.3063(3) 0.9942(3) 0.2943(4)
H13 H 0.3345 1.0767 0.3065
C24 C 0.2555(4) 0.9377(3) 0.3621(4)
H14 H 0.2492 0.9814 0.4208
C25 C 0.2131(3) 0.8153(3) 0.3435(3)
H15 H 0.1776 0.7773 0.3897
C26 C 0.0641(2) 0.5599(2) 0.2108(2)
C27 C -0.0397(2) 0.6206(2) 0.1775(2)
C28 C -0.1334(2) 0.6620(2) 0.1448(2)
C29 C -0.2461(2) 0.7104(2) 0.1062(2)
C30 C -0.2382(3) 0.8257(3) 0.0808(3)
H16 H -0.1594 0.8720 0.0869
C31 C -0.3484(5) 0.8718(4) 0.0463(3)
H17 H -0.3432 0.9502 0.0309
C32 C -0.4636(5) 0.8036(6) 0.0348(3)
H18 H -0.5370 0.8351 0.0105
C33 C -0.4726(3) 0.6906(5) 0.0581(3)
H19 H -0.5522 0.6447 0.0501
C34 C -0.3645(3) 0.6425(3) 0.0938(3)
H20 H -0.3714 0.5643 0.1095
B1 B 0.0593(3) 0.3375(3) 0.1128(3)
H21 H 0.0959 0.3699 0.0505
B2 B 0.1082(3) 0.2154(3) 0.1771(3)
H22 H 0.1776 0.1681 0.1560
B3 B 0.1071(3) 0.2390(3) 0.3078(3)
H23 H 0.1757 0.2068 0.3710
B4 B 0.0572(3) 0.3757(3) 0.3281(3)
H24 H 0.0929 0.4327 0.4038
B5 B -0.0987(3) 0.3411(3) 0.1136(3)
H25 H -0.1651 0.3761 0.0508
B6 B -0.0503(3) 0.2018(3) 0.0943(3)
H26 H -0.0860 0.1442 0.0189
B7 B -0.0204(3) 0.1414(3) 0.2143(3)
H27 H -0.0364 0.0442 0.2168
B8 B -0.0524(3) 0.2412(3) 0.3065(3)
H28 H -0.0895 0.2091 0.3687
B9 B -0.0997(3) 0.3643(3) 0.2441(3)
H29 H -0.1668 0.4144 0.2655
B10 B -0.1481(3) 0.2198(3) 0.1749(3)
H30 H -0.2481 0.1738 0.1513
loop_
_geom_bond_atom_site_label_1
_geom_bond_atom_site_label_2
_geom_bond_site_symmetry_1
_geom_bond_site_symmetry_2
C1 C2 1_555 1_555
C2 C26 1_555 1_555
C3 C1 1_555 1_555
C4 C3 1_555 1_555
C5 C4 1_555 1_555
H1 C5 1_555 1_555
C6 C5 1_555 1_555
H2 C6 1_555 1_555
C7 C6 1_555 1_555
H3 C7 1_555 1_555
C8 C7 1_555 1_555
H4 C8 1_555 1_555
C9 C4 1_555 1_555
H5 C9 1_555 1_555
C10 C3 1_555 1_555
C11 C10 1_555 1_555
C12 C11 1_555 1_555
C13 C12 1_555 1_555
C14 C13 1_555 1_555
H6 C14 1_555 1_555
C15 C14 1_555 1_555
H7 C15 1_555 1_555
C16 C15 1_555 1_555
H8 C16 1_555 1_555
C17 C16 1_555 1_555
H9 C17 1_555 1_555
C18 C13 1_555 1_555
H10 C18 1_555 1_555
C19 C10 1_555 1_555
C20 C19 1_555 1_555
C21 C20 1_555 1_555
H11 C21 1_555 1_555
C22 C21 1_555 1_555
H12 C22 1_555 1_555
C23 C22 1_555 1_555
H13 C23 1_555 1_555
C24 C23 1_555 1_555
H14 C24 1_555 1_555
C25 C20 1_555 1_555
H15 C25 1_555 1_555
C26 C19 1_555 1_555
C27 C26 1_555 1_555
C28 C27 1_555 1_555
C29 C28 1_555 1_555
C30 C29 1_555 1_555
H16 C30 1_555 1_555
C31 C30 1_555 1_555
H17 C31 1_555 1_555
C32 C31 1_555 1_555
H18 C32 1_555 1_555
C33 C32 1_555 1_555
H19 C33 1_555 1_555
C34 C29 1_555 1_555
H20 C34 1_555 1_555
B1 C1 1_555 1_555
H21 B1 1_555 1_555
B2 C1 1_555 1_555
H22 B2 1_555 1_555
B3 C1 1_555 1_555
H23 B3 1_555 1_555
B4 C1 1_555 1_555
H24 B4 1_555 1_555
B5 C2 1_555 1_555
H25 B5 1_555 1_555
B6 B1 1_555 1_555
H26 B6 1_555 1_555
B7 B2 1_555 1_555
H27 B7 1_555 1_555
B8 B3 1_555 1_555
H28 B8 1_555 1_555
B9 C2 1_555 1_555
H29 B9 1_555 1_555
B10 B5 1_555 1_555
H30 B10 1_555 1_555
C2 B1 1_555 1_555
C2 B4 1_555 1_555
C8 C9 1_555 1_555
C17 C18 1_555 1_555
C24 C25 1_555 1_555
C33 C34 1_555 1_555
B1 B2 1_555 1_555
B1 B5 1_555 1_555
B2 B3 1_555 1_555
B2 B6 1_555 1_555
B3 B4 1_555 1_555
B3 B7 1_555 1_555
B4 B8 1_555 1_555
B4 B9 1_555 1_555
B5 B6 1_555 1_555
B5 B9 1_555 1_555
B6 B7 1_555 1_555
B6 B10 1_555 1_555
B7 B8 1_555 1_555
B7 B10 1_555 1_555
B8 B9 1_555 1_555
B8 B10 1_555 1_555
B9 B10 1_555 1_555

#END
