
#######################################################################
#
#                 Cambridge Crystallographic Data Centre
#                                CCDC 
#
#######################################################################
#
# If this CIF has been generated from an entry in the Cambridge 
# Structural Database, then it will include bibliographic, chemical, 
# crystal, experimental, refinement or atomic coordinate data resulting 
# from the CCDC's data processing and validation procedures.
#
#######################################################################

data_CUTYEW
_chemical_formula_moiety         'C23 H34 N2 O6 S1'
_chemical_name_systematic        
'Ethyl 4-acetamido-2-((4-methylphenyl)sulfanyl)-5-nitro-3-(pentan-3-yloxy)cyclohexanecarboxylate'
_symmetry_cell_setting           orthorhombic
_symmetry_space_group_name_H-M   'P 21 21 21'
_symmetry_Int_Tables_number      19
_space_group_name_Hall           'P 2ac 2ab'
loop_
_symmetry_equiv_pos_site_id
_symmetry_equiv_pos_as_xyz
1 x,y,z
2 1/2-x,-y,1/2+z
3 -x,1/2+y,1/2-z
4 1/2+x,1/2-y,-z
_cell_length_a                   5.3384(6)
_cell_length_b                   19.194(2)
_cell_length_c                   24.524(3)
_cell_angle_alpha                90
_cell_angle_beta                 90
_cell_angle_gamma                90
_cell_volume                     2512.86
_exptl_crystal_colour            colorless
_exptl_crystal_description       prismatic
_cell_formula_units_Z            4
loop_
_atom_site_label
_atom_site_type_symbol
_atom_site_fract_x
_atom_site_fract_y
_atom_site_fract_z
S1 S 1.02117(16) 0.03694(5) 0.18318(4)
N1 N 0.8966(6) -0.13231(15) 0.05190(12)
N2 N 1.0587(6) -0.20840(16) 0.14855(13)
O1 O 0.7499(8) -0.0556(2) 0.30394(12)
O2 O 0.4963(5) 0.02165(15) 0.26867(9)
O3 O 0.8020(5) 0.00922(12) 0.06848(9)
O4 O 1.3111(5) -0.14588(13) 0.03995(11)
O5 O 1.2636(5) -0.19447(14) 0.16821(12)
O6 O 1.0115(7) -0.26244(14) 0.12619(13)
C1 C 0.7256(6) -0.00632(17) 0.16555(13)
H1 H 0.5928 0.0289 0.1661
C2 C 0.7302(5) -0.03900(17) 0.10882(12)
H2 H 0.5614 -0.0558 0.1002
C3 C 0.9112(6) -0.10000(16) 0.10492(12)
H3 H 1.0816 -0.0822 0.1099
C4 C 0.8583(7) -0.15273(17) 0.15006(14)
H4 H 0.6958 -0.1747 0.1429
C5 C 0.8525(7) -0.12112(18) 0.20686(13)
H5 H 1.0176 -0.1039 0.2164
H6 H 0.8053 -0.1564 0.2333
C6 C 0.6624(7) -0.06090(18) 0.20824(13)
H7 H 0.4982 -0.0803 0.1989
C7 C 0.6448(8) -0.0325(2) 0.26539(16)
C8 C 0.4539(11) 0.0511(3) 0.32281(18)
H8 H 0.3969 0.0148 0.3474
H9 H 0.6095 0.0698 0.3370
C9 C 0.2764(17) 0.1032(5) 0.3199(2)
H10 H 0.3305 0.1381 0.2945
H11 H 0.2553 0.1238 0.3553
H12 H 0.1199 0.0839 0.3079
C10 C 0.9492(7) 0.12649(19) 0.17534(16)
C11 C 0.7483(11) 0.1571(2) 0.19928(19)
H13 H 0.6391 0.1306 0.2203
C12 C 0.7053(11) 0.2271(3) 0.1927(2)
H14 H 0.5695 0.2469 0.2106
C13 C 0.8499(12) 0.2682(3) 0.1616(2)
C14 C 1.0540(13) 0.2386(3) 0.1405(3)
H15 H 1.1662 0.2663 0.1212
C15 C 1.1053(9) 0.1681(3) 0.1464(2)
H16 H 1.2479 0.1493 0.1303
C16 C 0.7849(13) 0.3447(2) 0.1522(3)
H17 H 0.8001 0.3698 0.1859
H18 H 0.6161 0.3483 0.1390
H19 H 0.8977 0.3641 0.1258
C17 C 0.6100(9) 0.0529(2) 0.04583(17)
H20 H 0.4857 0.0622 0.0743
C18 C 0.4807(13) 0.0177(3) -0.0007(3)
H21 H 0.3439 0.0469 -0.0131
H22 H 0.4098 -0.0259 0.0119
C19 C 0.652(3) 0.0035(4) -0.0473(3)
H23 H 0.7333 0.0459 -0.0579
H24 H 0.5567 -0.0144 -0.0774
H25 H 0.7752 -0.0301 -0.0365
C20 C 0.7290(15) 0.1210(3) 0.0297(2)
H26 H 0.8434 0.1128 -0.0004
H27 H 0.8263 0.1385 0.0601
C21 C 0.5401(18) 0.1763(3) 0.0128(3)
H28 H 0.4984 0.1703 -0.0250
H29 H 0.6113 0.2217 0.0181
H30 H 0.3914 0.1718 0.0345
C22 C 1.0968(8) -0.15178(18) 0.02245(14)
C23 C 1.0410(9) -0.1820(2) -0.03186(14)
H31 H 1.1873 -0.1791 -0.0545
H32 H 0.9063 -0.1566 -0.0485
H33 H 0.9933 -0.2300 -0.0277
H34 H 0.752(4) -0.142(2) 0.0431(16)
loop_
_geom_bond_atom_site_label_1
_geom_bond_atom_site_label_2
_geom_bond_site_symmetry_1
_geom_bond_site_symmetry_2
S1 C1 1_555 1_555
N1 C3 1_555 1_555
N2 O5 1_555 1_555
O1 C7 1_555 1_555
O2 C7 1_555 1_555
O3 C2 1_555 1_555
O4 C22 1_555 1_555
O6 N2 1_555 1_555
C1 H1 1_555 1_555
C2 C1 1_555 1_555
H2 C2 1_555 1_555
C3 C2 1_555 1_555
H3 C3 1_555 1_555
C4 N2 1_555 1_555
H4 C4 1_555 1_555
C5 C4 1_555 1_555
H5 C5 1_555 1_555
H6 C5 1_555 1_555
C6 C1 1_555 1_555
H7 C6 1_555 1_555
C7 C6 1_555 1_555
C8 O2 1_555 1_555
H8 C8 1_555 1_555
H9 C8 1_555 1_555
C9 C8 1_555 1_555
H10 C9 1_555 1_555
H11 C9 1_555 1_555
H12 C9 1_555 1_555
C10 S1 1_555 1_555
C11 C10 1_555 1_555
H13 C11 1_555 1_555
C12 C11 1_555 1_555
H14 C12 1_555 1_555
C13 C12 1_555 1_555
C14 C13 1_555 1_555
H15 C14 1_555 1_555
C15 C10 1_555 1_555
H16 C15 1_555 1_555
C16 C13 1_555 1_555
H17 C16 1_555 1_555
H18 C16 1_555 1_555
H19 C16 1_555 1_555
C17 O3 1_555 1_555
H20 C17 1_555 1_555
C18 C17 1_555 1_555
H21 C18 1_555 1_555
H22 C18 1_555 1_555
C19 C18 1_555 1_555
H23 C19 1_555 1_555
H24 C19 1_555 1_555
H25 C19 1_555 1_555
C20 C17 1_555 1_555
H26 C20 1_555 1_555
H27 C20 1_555 1_555
C21 C20 1_555 1_555
H28 C21 1_555 1_555
H29 C21 1_555 1_555
H30 C21 1_555 1_555
C22 N1 1_555 1_555
C23 C22 1_555 1_555
H31 C23 1_555 1_555
H32 C23 1_555 1_555
H33 C23 1_555 1_555
H34 N1 1_555 1_555
C3 C4 1_555 1_555
C5 C6 1_555 1_555
C14 C15 1_555 1_555

#END
