
#######################################################################
#
#                 Cambridge Crystallographic Data Centre
#                                CCDC 
#
#######################################################################
#
# If this CIF has been generated from an entry in the Cambridge 
# Structural Database, then it will include bibliographic, chemical, 
# crystal, experimental, refinement or atomic coordinate data resulting 
# from the CCDC's data processing and validation procedures.
#
#######################################################################

data_CUTZOG
_chemical_formula_moiety         'C30 H32 N2 P2'
_chemical_name_systematic        
meso-1,5-Diphenyl-8,12-diazadibenzo(a,h)-1,5-diphosphacyclotetradecane
_symmetry_cell_setting           monoclinic
_symmetry_space_group_name_H-M   'P 21/c'
_symmetry_Int_Tables_number      14
_space_group_name_Hall           '-P 2ybc'
loop_
_symmetry_equiv_pos_site_id
_symmetry_equiv_pos_as_xyz
1 x,y,z
2 -x,1/2+y,1/2-z
3 -x,-y,-z
4 x,1/2-y,1/2+z
_cell_length_a                   8.982(2)
_cell_length_b                   19.671(4)
_cell_length_c                   14.886(3)
_cell_angle_alpha                90
_cell_angle_beta                 95.04(3)
_cell_angle_gamma                90
_cell_volume                     2619.96
_cell_formula_units_Z            4
loop_
_atom_site_label
_atom_site_type_symbol
_atom_site_fract_x
_atom_site_fract_y
_atom_site_fract_z
P1 P 0.4205(4) 0.4375(2) 0.2126(2)
C1 C 0.3469(13) 0.5057(6) 0.3769(8)
N1 N 0.4140(12) 0.5649(6) 0.3529(7)
C2 C 0.4473(14) 0.6211(6) 0.4138(7)
C3 C 0.5421(14) 0.6762(5) 0.3758(7)
C4 C 0.6149(15) 0.4626(7) 0.2407(8)
C5 C 0.6895(20) 0.5175(7) 0.2002(8)
C6 C 0.8414(23) 0.5289(8) 0.2265(12)
C7 C 0.9155(19) 0.4843(11) 0.2917(12)
C8 C 0.8483(22) 0.4327(10) 0.3284(11)
C9 C 0.6996(21) 0.4212(7) 0.3040(9)
C10 C 0.0745(17) 0.6722(7) -0.1185(9)
C11 C 0.0192(19) 0.7148(10) -0.1861(10)
C12 C 0.0087(17) 0.7837(10) -0.1726(12)
C13 C 0.0494(18) 0.8104(7) -0.0940(12)
C14 C 0.1016(14) 0.7677(7) -0.0231(9)
C15 C 0.1186(13) 0.6995(6) -0.0346(8)
C16 C 0.4527(14) 0.7269(6) 0.3165(7)
N2 N 0.3887(12) 0.7011(6) 0.2287(7)
C17 C 0.4640(14) 0.6914(5) 0.1547(7)
P2 P 0.1868(4) 0.6497(2) 0.0673(2)
C18 C 0.2045(23) 0.5085(9) 0.1166(13)
C19 C 0.3553(17) 0.5119(7) 0.1445(9)
C20 C 0.3427(12) 0.4460(6) 0.3221(7)
C21 C 0.2739(12) 0.3881(6) 0.3521(7)
C22 C 0.2077(14) 0.3846(7) 0.4297(8)
C23 C 0.2066(14) 0.4437(7) 0.4846(9)
C24 C 0.2761(14) 0.5030(6) 0.4582(8)
C25 C 0.6196(13) 0.7039(5) 0.1570(7)
C26 C 0.6941(14) 0.6921(5) 0.0863(8)
C27 C 0.6226(13) 0.6689(5) 0.0037(7)
C28 C 0.4700(12) 0.6573(5) -0.0004(7)
C29 C 0.3864(11) 0.6681(5) 0.0740(6)
C30 C 0.1744(14) 0.5599(6) 0.0204(8)
H1 H 0.2737 0.3430 0.3108
H2 H 0.1561 0.3381 0.4497
H3 H 0.1525 0.4428 0.5466
H4 H 0.2761 0.5475 0.5006
H5 H 0.3428 0.6434 0.4295
H6 H 0.5064 0.6016 0.4747
H7 H 0.6228 0.6524 0.3362
H8 H 0.5999 0.7033 0.4315
H9 H 0.6305 0.5496 0.1501
H10 H 0.9009 0.5704 0.1985
H11 H 1.0323 0.4931 0.3121
H12 H 0.9097 0.3999 0.3765
H13 H 0.6448 0.3794 0.3346
H14 H 0.0851 0.6183 -0.1307
H15 H -0.0180 0.6938 -0.2512
H16 H -0.0348 0.8161 -0.2273
H17 H 0.0448 0.8647 -0.0840
H18 H 0.1288 0.7892 0.0430
H19 H 0.5260 0.7687 0.3038
H20 H 0.3628 0.7451 0.3537
H21 H 0.6783 0.7238 0.2178
H22 H 0.8135 0.7002 0.0918
H23 H 0.6848 0.6605 -0.0542
H24 H 0.4131 0.6394 -0.0629
H25 H 0.4827 0.5608 0.3311
H26 H 0.2958 0.7009 0.2086
loop_
_geom_bond_atom_site_label_1
_geom_bond_atom_site_label_2
_geom_bond_site_symmetry_1
_geom_bond_site_symmetry_2
P1 C4 1_555 1_555
C1 N1 1_555 1_555
N1 C2 1_555 1_555
C2 C3 1_555 1_555
C3 C16 1_555 1_555
C4 C5 1_555 1_555
C5 C6 1_555 1_555
C6 C7 1_555 1_555
C7 C8 1_555 1_555
C8 C9 1_555 1_555
C9 C4 1_555 1_555
C10 C11 1_555 1_555
C11 C12 1_555 1_555
C12 C13 1_555 1_555
C13 C14 1_555 1_555
C14 C15 1_555 1_555
C15 C10 1_555 1_555
C16 N2 1_555 1_555
N2 C17 1_555 1_555
C17 C25 1_555 1_555
P2 C15 1_555 1_555
C18 C19 1_555 1_555
C19 P1 1_555 1_555
C20 P1 1_555 1_555
C21 C20 1_555 1_555
C22 C21 1_555 1_555
C23 C22 1_555 1_555
C24 C1 1_555 1_555
C25 C26 1_555 1_555
C26 C27 1_555 1_555
C27 C28 1_555 1_555
C28 C29 1_555 1_555
C29 C17 1_555 1_555
C30 P2 1_555 1_555
H1 C21 1_555 1_555
H2 C22 1_555 1_555
H3 C23 1_555 1_555
H4 C24 1_555 1_555
H5 C2 1_555 1_555
H6 C2 1_555 1_555
H7 C3 1_555 1_555
H8 C3 1_555 1_555
H9 C5 1_555 1_555
H10 C6 1_555 1_555
H11 C7 1_555 1_555
H12 C8 1_555 1_555
H13 C9 1_555 1_555
H14 C10 1_555 1_555
H15 C11 1_555 1_555
H16 C12 1_555 1_555
H17 C13 1_555 1_555
H18 C14 1_555 1_555
H19 C16 1_555 1_555
H20 C16 1_555 1_555
H21 C25 1_555 1_555
H22 C26 1_555 1_555
H23 C27 1_555 1_555
H24 C28 1_555 1_555
H25 N1 1_555 1_555
H26 N2 1_555 1_555
C1 C20 1_555 1_555
P2 C29 1_555 1_555
C18 C30 1_555 1_555
C23 C24 1_555 1_555

#END
