
#######################################################################
#
#                 Cambridge Crystallographic Data Centre
#                                CCDC 
#
#######################################################################
#
# If this CIF has been generated from an entry in the Cambridge 
# Structural Database, then it will include bibliographic, chemical, 
# crystal, experimental, refinement or atomic coordinate data resulting 
# from the CCDC's data processing and validation procedures.
#
#######################################################################

data_CUTZOH
_chemical_formula_moiety         'C22 H20 F3 N1 O1'
_chemical_name_systematic        
4-Phenyl-7-(trifluoromethyl)-1,3,3a,3b,4,5,9b,11a-octahydrofuro[3,4-i]phenanthridine
_symmetry_cell_setting           monoclinic
_symmetry_space_group_name_H-M   'P 21/c'
_symmetry_Int_Tables_number      14
_space_group_name_Hall           '-P 2ybc'
loop_
_symmetry_equiv_pos_site_id
_symmetry_equiv_pos_as_xyz
1 x,y,z
2 -x,1/2+y,1/2-z
3 -x,-y,-z
4 x,1/2-y,1/2+z
_cell_length_a                   11.7515(4)
_cell_length_b                   14.8191(7)
_cell_length_c                   10.1800(4)
_cell_angle_alpha                90
_cell_angle_beta                 90.893(3)
_cell_angle_gamma                90
_cell_volume                     1772.6
_exptl_crystal_colour            colorless
_exptl_crystal_description       cube
_cell_formula_units_Z            4
loop_
_atom_site_label
_atom_site_type_symbol
_atom_site_fract_x
_atom_site_fract_y
_atom_site_fract_z
F1 F 0.61689(11) 0.61032(11) 0.92806(13)
F2 F 0.52033(13) 0.65329(10) 0.75892(15)
F3 F 0.45943(11) 0.54428(11) 0.87603(15)
O1 O 0.96490(12) 0.08087(10) 0.66735(15)
N1 N 0.90701(13) 0.43568(12) 0.67716(16)
C1 C 0.97059(15) 0.38835(13) 0.57668(18)
C2 C 0.90389(14) 0.30398(13) 0.52953(16)
C3 C 0.78859(15) 0.33716(13) 0.47392(17)
C4 C 0.60924(16) 0.40512(15) 0.5700(2)
C5 C 0.55315(17) 0.46349(15) 0.6529(2)
C6 C 0.61660(16) 0.51479(14) 0.74168(19)
C7 C 0.73414(15) 0.50677(13) 0.74907(18)
C8 C 0.79034(15) 0.44689(13) 0.66489(17)
C9 C 0.72702(15) 0.39651(13) 0.57242(18)
C10 C 1.09008(15) 0.36819(13) 0.62724(18)
C11 C 1.11538(17) 0.35728(15) 0.7604(2)
C12 C 1.22538(19) 0.33660(16) 0.8026(2)
C13 C 1.31118(18) 0.32663(18) 0.7122(3)
C14 C 1.28707(18) 0.33766(18) 0.5793(3)
C15 C 1.17735(17) 0.35890(16) 0.5369(2)
C16 C 0.88984(14) 0.23011(13) 0.63382(17)
C17 C 0.99902(16) 0.17328(14) 0.6583(2)
C18 C 0.87333(18) 0.07232(15) 0.5731(2)
C19 C 0.80113(15) 0.15638(13) 0.59449(18)
C20 C 0.72469(15) 0.17771(14) 0.47910(18)
C21 C 0.71725(15) 0.25885(14) 0.42521(18)
C22 C 0.55461(17) 0.57997(16) 0.8269(2)
H1 H 0.9469(17) 0.2785(17) 0.455(2)
H2 H 0.8084(17) 0.3766(16) 0.403(2)
H3 H 1.0556(19) 0.3643(16) 0.825(2)
H4 H 0.8692(16) 0.2607(15) 0.717(2)
H5 H 0.778(2) 0.5441(18) 0.811(2)
H6 H 0.7559(19) 0.1463(17) 0.675(2)
H7 H 1.0444(17) 0.1887(16) 0.744(2)
H8 H 0.9811(16) 0.4290(15) 0.496(2)
H9 H 0.9419(19) 0.4789(17) 0.725(2)
H10 H 1.047(2) 0.1787(19) 0.585(3)
H11 H 0.6624(18) 0.2670(16) 0.351(2)
H12 H 0.565(2) 0.3693(18) 0.509(2)
H13 H 1.238(2) 0.3258(19) 0.890(3)
H14 H 1.387(2) 0.3089(19) 0.738(2)
H15 H 0.9067(18) 0.0688(17) 0.482(2)
H16 H 0.676(2) 0.1255(18) 0.441(2)
H17 H 1.1616(19) 0.3683(18) 0.441(2)
H18 H 0.478(2) 0.4695(19) 0.653(3)
H19 H 0.832(2) 0.018(2) 0.592(2)
H20 H 1.350(2) 0.337(2) 0.516(3)
loop_
_geom_bond_atom_site_label_1
_geom_bond_atom_site_label_2
_geom_bond_site_symmetry_1
_geom_bond_site_symmetry_2
F1 C22 1_555 1_555
F2 C22 1_555 1_555
F3 C22 1_555 1_555
O1 C17 1_555 1_555
N1 C1 1_555 1_555
C1 C2 1_555 1_555
C2 C3 1_555 1_555
C3 C9 1_555 1_555
C4 C5 1_555 1_555
C5 C6 1_555 1_555
C6 C7 1_555 1_555
C7 C8 1_555 1_555
C8 N1 1_555 1_555
C9 C4 1_555 1_555
C10 C1 1_555 1_555
C11 C10 1_555 1_555
C12 C11 1_555 1_555
C13 C12 1_555 1_555
C14 C13 1_555 1_555
C15 C10 1_555 1_555
C16 C2 1_555 1_555
C17 C16 1_555 1_555
C18 O1 1_555 1_555
C19 C16 1_555 1_555
C20 C19 1_555 1_555
C21 C3 1_555 1_555
C22 C6 1_555 1_555
H1 C2 1_555 1_555
H2 C3 1_555 1_555
H3 C11 1_555 1_555
H4 C16 1_555 1_555
H5 C7 1_555 1_555
H6 C19 1_555 1_555
H7 C17 1_555 1_555
H8 C1 1_555 1_555
H9 N1 1_555 1_555
H10 C17 1_555 1_555
H11 C21 1_555 1_555
H12 C4 1_555 1_555
H13 C12 1_555 1_555
H14 C13 1_555 1_555
H15 C18 1_555 1_555
H16 C20 1_555 1_555
H17 C15 1_555 1_555
H18 C5 1_555 1_555
H19 C18 1_555 1_555
H20 C14 1_555 1_555
C8 C9 1_555 1_555
C14 C15 1_555 1_555
C18 C19 1_555 1_555
C20 C21 1_555 1_555

#END
