
#######################################################################
#
#                 Cambridge Crystallographic Data Centre
#                                CCDC 
#
#######################################################################
#
# If this CIF has been generated from an entry in the Cambridge 
# Structural Database, then it will include bibliographic, chemical, 
# crystal, experimental, refinement or atomic coordinate data resulting 
# from the CCDC's data processing and validation procedures.
#
#######################################################################

data_CUVHIK
_chemical_formula_moiety         'C12 H8 O4 S1 2-,2(C12 H10 O4 S1),C4 H15 N3 2+'
_chemical_name_systematic        
"bis(2-Aminoethyl)amine bis(4,4'-sulfonyldiphenol) 4,4'-sulfonyldiphenolate"
_symmetry_cell_setting           orthorhombic
_symmetry_space_group_name_H-M   'P c c n'
_symmetry_Int_Tables_number      56
_space_group_name_Hall           '-P 2ab 2ac'
loop_
_symmetry_equiv_pos_site_id
_symmetry_equiv_pos_as_xyz
1 x,y,z
2 1/2+x,1/2+y,-z
3 1/2-x,y,1/2+z
4 x,1/2-y,1/2+z
5 -x,-y,-z
6 1/2-x,1/2-y,z
7 1/2+x,-y,1/2-z
8 -x,1/2+y,1/2-z
_cell_length_a                   13.7305(5)
_cell_length_b                   14.9948(6)
_cell_length_c                   19.4209(9)
_cell_angle_alpha                90
_cell_angle_beta                 90
_cell_angle_gamma                90
_cell_volume                     3998.49
_exptl_crystal_colour            yellow
_exptl_crystal_description       block
_cell_formula_units_Z            4
loop_
_atom_site_label
_atom_site_type_symbol
_atom_site_fract_x
_atom_site_fract_y
_atom_site_fract_z
S1 S 0.2500 0.2500 0.46038(3)
O1 O 0.29670(11) 0.17957(11) 0.42222(7)
O2 O -0.03963(9) 0.08335(9) 0.64074(7)
C5 C 0.16364(13) 0.20056(12) 0.51435(8)
C6 C 0.16358(15) 0.10917(13) 0.52380(11)
C7 C 0.09555(15) 0.07048(13) 0.56593(12)
C8 C 0.02545(12) 0.12113(12) 0.60010(9)
C9 C 0.02731(14) 0.21310(13) 0.58994(10)
C10 C 0.09532(14) 0.25233(13) 0.54797(9)
H16 H 0.2097 0.0740 0.5016
H17 H 0.0962 0.0089 0.5719
H18 H -0.0185 0.2486 0.6121
H19 H 0.0954 0.3139 0.5421
O1E O 0.20330(11) 0.32043(11) 0.42222(7)
C5E C 0.33636(13) 0.29944(12) 0.51435(8)
C6E C 0.33642(15) 0.39083(13) 0.52380(11)
C7E C 0.40445(15) 0.42952(13) 0.56593(12)
C8E C 0.47455(12) 0.37887(12) 0.60010(9)
O2E O 0.53963(9) 0.41665(9) 0.64074(7)
C9E C 0.47269(14) 0.28690(13) 0.58994(10)
C10E C 0.40468(14) 0.24767(13) 0.54797(9)
H19E H 0.4046 0.1861 0.5421
H18E H 0.5185 0.2514 0.6121
H17E H 0.4038 0.4911 0.5719
H16E H 0.2903 0.4260 0.5016
S2 S 0.59820(4) 0.10219(3) 0.35832(2)
O3 O 0.50476(11) 0.06029(10) 0.36764(8)
O4 O 0.66654(12) 0.06396(9) 0.31071(7)
O5 O 0.54328(10) 0.47638(9) 0.28015(7)
O6 O 0.77739(9) 0.10225(11) 0.63285(6)
C11 C 0.57837(12) 0.21348(12) 0.33431(9)
C12 C 0.62341(14) 0.24728(13) 0.27612(9)
C13 C 0.60986(14) 0.33513(13) 0.25869(9)
C14 C 0.55164(12) 0.39045(12) 0.29860(8)
C15 C 0.50524(12) 0.35554(12) 0.35635(9)
C16 C 0.51899(12) 0.26757(12) 0.37403(9)
C17 C 0.65288(13) 0.10675(11) 0.44011(9)
C18 C 0.75036(13) 0.12870(12) 0.44667(9)
C19 C 0.79360(12) 0.12864(13) 0.51077(9)
C20 C 0.73928(13) 0.10644(11) 0.56885(9)
C21 C 0.64068(13) 0.08705(12) 0.56184(10)
C22 C 0.59795(13) 0.08748(12) 0.49786(10)
H20 H 0.5111 0.5032 0.3091
H21 H 0.8370 0.1012 0.6304
H22 H 0.6625 0.2108 0.2491
H23 H 0.6401 0.3579 0.2196
H24 H 0.4650 0.3916 0.3830
H25 H 0.4883 0.2444 0.4128
H26 H 0.7867 0.1435 0.4079
H27 H 0.8591 0.1434 0.5152
H28 H 0.6036 0.0738 0.6006
H29 H 0.5319 0.0748 0.4934
H12 H 0.2896 0.4672 0.2717
N1 N 0.3048(3) 0.0557(2) 0.2986(2)
C1 C 0.2511(4) 0.1210(4) 0.2580(4)
C2 C 0.3071(3) 0.2045(3) 0.2464(2)
N2 N 0.2451(10) 0.2700(2) 0.2121(2)
H1 H 0.3532 0.0334 0.2734
H2 H 0.2649 0.0119 0.3112
H3 H 0.3292 0.0820 0.3359
H4 H 0.1908 0.1353 0.2815
H5 H 0.2345 0.0949 0.2138
H6 H 0.3296 0.2280 0.2901
H7 H 0.3637 0.1920 0.2180
H8 H 0.2330 0.2517 0.1688
H9 H 0.2368 0.1079 0.1715
C2E C 0.1929(3) 0.2955(3) 0.2464(2)
C1E C 0.2489(4) 0.3790(4) 0.2580(4)
N1E N 0.1952(3) 0.4443(2) 0.2986(2)
H1E H 0.1468 0.4666 0.2734
H2E H 0.2351 0.4881 0.3112
H3E H 0.1708 0.4180 0.3359
H4E H 0.3092 0.3647 0.2815
H5E H 0.2655 0.4051 0.2138
H9E H 0.2632 0.3921 0.1715
N2E N 0.2549(10) 0.2300(2) 0.2121(2)
H8E H 0.2670 0.2483 0.1688
H6E H 0.1704 0.2720 0.2901
H7E H 0.1363 0.3080 0.2180
C3? C 0.2894(4) 0.3585(3) 0.2100(2)
C4? C 0.2682(3) 0.4058(4) 0.2755(4)
N3? N 0.1648(3) 0.4041(3) 0.2925(3)
H10? H 0.3592 0.3531 0.2037
H11? H 0.3048 0.3781 0.3125
H13? H 0.1325 0.4394 0.2637
H14? H 0.1564 0.4232 0.3355
H15? H 0.1425 0.3485 0.2888
loop_
_geom_bond_atom_site_label_1
_geom_bond_atom_site_label_2
_geom_bond_site_symmetry_1
_geom_bond_site_symmetry_2
N1 C1 1_555 1_555
C1 C2 1_555 1_555
C2 N2 1_555 1_555
N2 H8 1_555 1_555
S1 O1 1_555 1_555
O2 C8 1_555 1_555
C5 S1 1_555 1_555
C6 C5 1_555 1_555
C7 C6 1_555 1_555
C8 C7 1_555 1_555
C9 C8 1_555 1_555
C10 C5 1_555 1_555
S2 O3 1_555 1_555
O4 S2 1_555 1_555
O5 C14 1_555 1_555
O6 C20 1_555 1_555
C11 S2 1_555 1_555
C12 C11 1_555 1_555
C13 C12 1_555 1_555
C14 C13 1_555 1_555
C15 C14 1_555 1_555
C16 C11 1_555 1_555
C17 S2 1_555 1_555
C18 C17 1_555 1_555
C19 C18 1_555 1_555
C20 C19 1_555 1_555
C21 C20 1_555 1_555
C22 C17 1_555 1_555
H1 N1 1_555 1_555
H2 N1 1_555 1_555
H3 N1 1_555 1_555
H4 C1 1_555 1_555
H5 C1 1_555 1_555
H6 C2 1_555 1_555
H7 C2 1_555 1_555
H8 N2E 1_555 1_555
H9 H5 1_555 1_555
H16 C6 1_555 1_555
H17 C7 1_555 1_555
H18 C9 1_555 1_555
H19 C10 1_555 1_555
H20 O5 1_555 1_555
H21 O6 1_555 1_555
H22 C12 1_555 1_555
H23 C13 1_555 1_555
H24 C15 1_555 1_555
H25 C16 1_555 1_555
H26 C18 1_555 1_555
H27 C19 1_555 1_555
H28 C21 1_555 1_555
H29 C22 1_555 1_555
C2E N2 1_555 1_555
C1E C2E 1_555 1_555
N1E C1E 1_555 1_555
H1E N1E 1_555 1_555
H2E N1E 1_555 1_555
H3E N1E 1_555 1_555
H4E C1E 1_555 1_555
H5E C1E 1_555 1_555
H9E H5E 1_555 1_555
N2E C2 1_555 1_555
H8E N2 1_555 1_555
H6E C2E 1_555 1_555
H7E C2E 1_555 1_555
O1E S1 1_555 1_555
C5E S1 1_555 1_555
C6E C5E 1_555 1_555
C7E C6E 1_555 1_555
C8E C7E 1_555 1_555
O2E C8E 1_555 1_555
C9E C8E 1_555 1_555
C10E C5E 1_555 1_555
H19E C10E 1_555 1_555
H18E C9E 1_555 1_555
H17E C7E 1_555 1_555
H16E C6E 1_555 1_555
N2 N2E 1_555 1_555
C9 C10 1_555 1_555
C15 C16 1_555 1_555
C21 C22 1_555 1_555
H8 H8E 1_555 1_555
C2E N2E 1_555 1_555
N2E H8E 1_555 1_555
C9E C10E 1_555 1_555

#END
