
#######################################################################
#
#                 Cambridge Crystallographic Data Centre
#                                CCDC 
#
#######################################################################
#
# If this CIF has been generated from an entry in the Cambridge 
# Structural Database, then it will include bibliographic, chemical, 
# crystal, experimental, refinement or atomic coordinate data resulting 
# from the CCDC's data processing and validation procedures.
#
#######################################################################

data_CUVJUZ
_chemical_formula_moiety         'C26 H22 N2 O1'
_chemical_name_systematic        
2-(4-Methylphenyl)-3-oxo-4-phenyl-2,3,3a,4,9,9a-hexahydro-1H-benzo[f]isoindole-6-carbonitrile
_symmetry_cell_setting           orthorhombic
_symmetry_space_group_name_H-M   'P c a 21'
_symmetry_Int_Tables_number      29
_space_group_name_Hall           'P 2c -2ac'
loop_
_symmetry_equiv_pos_site_id
_symmetry_equiv_pos_as_xyz
1 x,y,z
2 -x,-y,1/2+z
3 1/2+x,-y,z
4 1/2-x,y,1/2+z
_cell_length_a                   25.140(5)
_cell_length_b                   5.5234(11)
_cell_length_c                   14.770(3)
_cell_angle_alpha                90
_cell_angle_beta                 90
_cell_angle_gamma                90
_cell_volume                     2050.94
_cell_formula_units_Z            4
loop_
_atom_site_label
_atom_site_type_symbol
_atom_site_fract_x
_atom_site_fract_y
_atom_site_fract_z
C1 C 0.51374(13) 0.9002(6) 0.6790(2)
C2 C 0.42782(12) 0.6910(6) 0.6220(2)
H1 H 0.4178 0.8445 0.5934
C3 C 0.60160(12) 1.1041(6) 0.6658(2)
C4 C 0.57066(13) 0.7766(6) 0.5617(2)
H2 H 0.5939 0.6435 0.5782
H3 H 0.5859 0.8623 0.5106
C5 C 0.48716(11) 0.6937(6) 0.6313(2)
H4 H 0.4972 0.5455 0.6635
C6 C 0.43114(15) 0.1999(6) 0.4363(2)
H5 H 0.4552 0.1280 0.3967
C7 C 0.40164(13) 0.4846(7) 0.7675(2)
H6 H 0.4248 0.3586 0.7535
C8 C 0.50635(13) 0.4521(6) 0.4940(3)
H7 H 0.5274 0.3283 0.5236
H8 H 0.5182 0.4643 0.4317
C9 C 0.37929(16) 0.1282(6) 0.4353(2)
H9 H 0.3686 0.0047 0.3965
C10 C 0.44886(13) 0.3804(6) 0.4959(2)
C11 C 0.72570(15) 1.6139(7) 0.7379(3)
H10 H 0.7103 1.7521 0.7673
H11 H 0.7434 1.6647 0.6835
H12 H 0.7509 1.5384 0.7777
C12 C 0.51464(12) 0.6866(6) 0.5401(2)
H13 H 0.4978 0.8108 0.5023
C13 C 0.59422(14) 1.2691(7) 0.7350(2)
H14 H 0.5623 1.2722 0.7668
C14 C 0.41221(13) 0.4889(6) 0.5551(2)
C15 C 0.35946(13) 0.4176(7) 0.5506(2)
H15 H 0.3348 0.4925 0.5882
C16 C 0.68915(14) 1.2701(6) 0.6459(3)
H16 H 0.7212 1.2676 0.6146
C17 C 0.68258(14) 1.4361(6) 0.7144(3)
C18 C 0.39713(12) 0.6759(6) 0.7094(2)
C19 C 0.65003(14) 1.1074(7) 0.6218(3)
H17 H 0.6564 0.9981 0.5752
C20 C 0.34225(15) 0.2375(7) 0.4917(2)
C21 C 0.63440(15) 1.4297(7) 0.7566(3)
H18 H 0.6282 1.5403 0.8028
C22 C 0.28789(18) 0.1734(9) 0.4878(3)
C23 C 0.37252(16) 0.4752(9) 0.8463(3)
H19 H 0.3758 0.3433 0.8850
C24 C 0.33893(19) 0.6603(11) 0.8671(3)
H20 H 0.3197 0.6544 0.9209
C25 C 0.36181(15) 0.8593(6) 0.7325(3)
H21 H 0.3575 0.9906 0.6937
C26 C 0.33294(18) 0.8500(9) 0.8121(4)
H22 H 0.3096 0.9744 0.8272
O1 O 0.49628(9) 1.0130(5) 0.74417(18)
N1 N 0.56193(9) 0.9392(4) 0.63832(16)
N2 N 0.24390(18) 0.1221(8) 0.4852(3)
loop_
_geom_bond_atom_site_label_1
_geom_bond_atom_site_label_2
_geom_bond_site_symmetry_1
_geom_bond_site_symmetry_2
C1 C5 1_555 1_555
C2 H1 1_555 1_555
C3 C13 1_555 1_555
C4 H2 1_555 1_555
H3 C4 1_555 1_555
C5 C2 1_555 1_555
H4 C5 1_555 1_555
C6 H5 1_555 1_555
C7 H6 1_555 1_555
C8 H7 1_555 1_555
H8 C8 1_555 1_555
C9 C6 1_555 1_555
H9 C9 1_555 1_555
C10 C6 1_555 1_555
C11 H10 1_555 1_555
H11 C11 1_555 1_555
H12 C11 1_555 1_555
C12 C4 1_555 1_555
H13 C12 1_555 1_555
C13 H14 1_555 1_555
C14 C2 1_555 1_555
C15 C14 1_555 1_555
H15 C15 1_555 1_555
C16 H16 1_555 1_555
C17 C11 1_555 1_555
C18 C2 1_555 1_555
C19 C3 1_555 1_555
H17 C19 1_555 1_555
C20 C9 1_555 1_555
C21 C13 1_555 1_555
H18 C21 1_555 1_555
C22 C20 1_555 1_555
C23 C7 1_555 1_555
H19 C23 1_555 1_555
C24 C23 1_555 1_555
H20 C24 1_555 1_555
C25 C18 1_555 1_555
H21 C25 1_555 1_555
C26 C24 1_555 1_555
H22 C26 1_555 1_555
O1 C1 1_555 1_555
N1 C1 1_555 1_555
N2 C22 1_555 1_555
C3 N1 1_555 1_555
C4 N1 1_555 1_555
C5 C12 1_555 1_555
C7 C18 1_555 1_555
C8 C10 1_555 1_555
C8 C12 1_555 1_555
C10 C14 1_555 1_555
C15 C20 1_555 1_555
C16 C17 1_555 1_555
C16 C19 1_555 1_555
C17 C21 1_555 1_555
C25 C26 1_555 1_555

#END
