
#######################################################################
#
#                 Cambridge Crystallographic Data Centre
#                                CCDC 
#
#######################################################################
#
# If this CIF has been generated from an entry in the Cambridge 
# Structural Database, then it will include bibliographic, chemical, 
# crystal, experimental, refinement or atomic coordinate data resulting 
# from the CCDC's data processing and validation procedures.
#
#######################################################################

data_CUVJOT
_chemical_formula_moiety         'C25 H23 N1 O1'
_chemical_name_systematic        
2-(4-Methylphenyl)-4-phenyl-2,3,3a,4,9,9a-hexahydro-1H-benzo[f]isoindol-1-one
_symmetry_cell_setting           monoclinic
_symmetry_space_group_name_H-M   'P 21'
_symmetry_Int_Tables_number      4
_space_group_name_Hall           'P 2yb'
loop_
_symmetry_equiv_pos_site_id
_symmetry_equiv_pos_as_xyz
1 x,y,z
2 -x,1/2+y,-z
_cell_length_a                   8.6005(11)
_cell_length_b                   9.9189(13)
_cell_length_c                   11.3747(15)
_cell_angle_alpha                90
_cell_angle_beta                 91.360(2)
_cell_angle_gamma                90
_cell_volume                     970.074
_cell_formula_units_Z            2
loop_
_atom_site_label
_atom_site_type_symbol
_atom_site_fract_x
_atom_site_fract_y
_atom_site_fract_z
C1 C 0.0658(2) 0.6907(2) 0.61230(17)
C2 C -0.0208(2) 0.6842(2) 0.72697(17)
H1 H -0.0293 0.7765 0.7568
C3 C 0.3773(3) 0.6013(2) 1.05016(17)
C4 C 0.0720(2) 0.6031(2) 0.81811(16)
H2 H 0.1012 0.5174 0.7819
C5 C 0.2174(2) 0.6660(2) 0.87096(17)
H3 H 0.3055 0.6539 0.8204
H4 H 0.2029 0.7614 0.8858
C6 C -0.0220(2) 0.5720(2) 0.92434(17)
H5 H -0.0668 0.6569 0.9517
C7 C 0.6526(3) 0.6378(3) 1.1852(2)
C8 C 0.0753(3) 0.5795(2) 0.53882(19)
H6 H 0.0271 0.4993 0.5596
C9 C 0.1012(3) 0.5297(3) 1.0131(2)
C10 C 0.4868(3) 0.6973(3) 1.0201(2)
H7 H 0.4692 0.7513 0.9542
C11 C -0.1852(2) 0.6282(2) 0.7132(2)
C12 C -0.2467(3) 0.5327(3) 0.7889(2)
C13 C 0.1555(3) 0.5865(3) 0.4353(2)
H8 H 0.1599 0.5112 0.3868
C14 C 0.2279(3) 0.7020(3) 0.4035(2)
H9 H 0.2811 0.7062 0.3334
C15 C 0.1419(3) 0.8058(2) 0.5799(2)
H10 H 0.1402 0.8812 0.6284
C16 C 0.2220(3) 0.8109(3) 0.4748(3)
H11 H 0.2720 0.8901 0.4535
C17 C 0.4090(3) 0.5205(3) 1.14712(19)
H12 H 0.3394 0.4535 1.1683
C18 C 0.5450(3) 0.5404(3) 1.2122(2)
H13 H 0.5646 0.4855 1.2771
C19 C 0.6210(3) 0.7134(3) 1.0869(2)
H14 H 0.6928 0.7779 1.0644
C20 C -0.2804(3) 0.6770(3) 0.6215(2)
H15 H -0.2417 0.7422 0.5712
C21 C -0.1550(3) 0.4780(3) 0.8938(2)
H16 H -0.2225 0.4695 0.9605
H17 H -0.1148 0.3893 0.8755
C22 C -0.4303(3) 0.6311(4) 0.6037(3)
H18 H -0.4919 0.6655 0.5425
C23 C 0.7980(3) 0.6594(3) 1.2599(2)
H19 H 0.8778 0.5988 1.2350
H20 H 0.7758 0.6424 1.3409
H21 H 0.8329 0.7507 1.2513
C24 C -0.3981(3) 0.4881(4) 0.7680(3)
H22 H -0.4394 0.4241 0.8182
C25 C -0.4879(3) 0.5345(4) 0.6768(3)
H23 H -0.5879 0.5009 0.6641
N1 N 0.23788(19) 0.58999(18) 0.98156(14)
O1 O 0.0828(2) 0.4592(2) 1.09909(15)
loop_
_geom_bond_atom_site_label_1
_geom_bond_atom_site_label_2
_geom_bond_site_symmetry_1
_geom_bond_site_symmetry_2
C1 C2 1_555 1_555
C2 H1 1_555 1_555
C3 C10 1_555 1_555
C4 C2 1_555 1_555
H2 C4 1_555 1_555
C5 C4 1_555 1_555
H3 C5 1_555 1_555
H4 C5 1_555 1_555
C6 C4 1_555 1_555
H5 C6 1_555 1_555
C7 C18 1_555 1_555
C8 C1 1_555 1_555
H6 C8 1_555 1_555
C9 C6 1_555 1_555
C10 H7 1_555 1_555
C11 C2 1_555 1_555
C12 C11 1_555 1_555
C13 C8 1_555 1_555
H8 C13 1_555 1_555
C14 C13 1_555 1_555
H9 C14 1_555 1_555
C15 C1 1_555 1_555
H10 C15 1_555 1_555
C16 C14 1_555 1_555
H11 C16 1_555 1_555
C17 C3 1_555 1_555
H12 C17 1_555 1_555
C18 C17 1_555 1_555
H13 C18 1_555 1_555
C19 C7 1_555 1_555
H14 C19 1_555 1_555
C20 C11 1_555 1_555
H15 C20 1_555 1_555
C21 C6 1_555 1_555
H16 C21 1_555 1_555
H17 C21 1_555 1_555
C22 C20 1_555 1_555
H18 C22 1_555 1_555
C23 C7 1_555 1_555
H19 C23 1_555 1_555
H20 C23 1_555 1_555
H21 C23 1_555 1_555
C24 C12 1_555 1_555
H22 C24 1_555 1_555
C25 C22 1_555 1_555
H23 C25 1_555 1_555
N1 C3 1_555 1_555
O1 C9 1_555 1_555
C5 N1 1_555 1_555
C9 N1 1_555 1_555
C10 C19 1_555 1_555
C12 C21 1_555 1_555
C15 C16 1_555 1_555
C24 C25 1_555 1_555

#END
