
#######################################################################
#
#                 Cambridge Crystallographic Data Centre
#                                CCDC 
#
#######################################################################
#
# If this CIF has been generated from an entry in the Cambridge 
# Structural Database, then it will include bibliographic, chemical, 
# crystal, experimental, refinement or atomic coordinate data resulting 
# from the CCDC's data processing and validation procedures.
#
#######################################################################

data_CUVJAG
_chemical_formula_moiety         'C15 H21 N1 O3 S1'
_chemical_name_systematic        
'Ethyl (S)-1-((S)-t-butylsulfinyl)-2-phenylaziridine-2-carboxylate'
_symmetry_cell_setting           orthorhombic
_symmetry_space_group_name_H-M   'P 21 21 21'
_symmetry_Int_Tables_number      19
_space_group_name_Hall           'P 2ac 2ab'
loop_
_symmetry_equiv_pos_site_id
_symmetry_equiv_pos_as_xyz
1 x,y,z
2 1/2+x,1/2-y,-z
3 -x,1/2+y,1/2-z
4 1/2-x,-y,1/2+z
_cell_length_a                   5.92510(10)
_cell_length_b                   14.3949(3)
_cell_length_c                   17.8151(4)
_cell_angle_alpha                90
_cell_angle_beta                 90
_cell_angle_gamma                90
_cell_volume                     1519.47
_chemical_melting_point          '42-45 deg.C'
_cell_formula_units_Z            4
_exptl_crystal_recrystallization_method pentane
loop_
_atom_site_label
_atom_site_type_symbol
_atom_site_fract_x
_atom_site_fract_y
_atom_site_fract_z
S1 S 0.14084(7) 0.51595(3) 0.30040(3)
O1 O 0.3069(2) 0.43564(9) 0.45020(8)
O2 O -0.0286(2) 0.36983(10) 0.47568(10)
O3 O 0.0363(2) 0.42280(9) 0.29235(9)
N1 N 0.0070(2) 0.57716(11) 0.37015(10)
C1 C 0.4432(4) 0.29762(15) 0.38624(15)
H1 H 0.2935 0.2894 0.3637
H2 H 0.5137 0.2367 0.3938
H3 H 0.5374 0.3352 0.3527
C2 C 0.4200(3) 0.34580(13) 0.46024(13)
H4 H 0.3311 0.3066 0.4950
H5 H 0.5712 0.3556 0.4825
C3 C 0.0822(3) 0.43524(13) 0.45749(12)
C4 C -0.0123(3) 0.53228(13) 0.44472(12)
C5 C 0.0209(3) 0.59501(13) 0.51083(13)
C6 C 0.2122(3) 0.65036(13) 0.51757(13)
H6 H 0.3209 0.6515 0.4784
C7 C 0.2446(4) 0.70386(13) 0.58130(14)
H7 H 0.3756 0.7415 0.5859
C8 C 0.0861(4) 0.70249(13) 0.63827(14)
H8 H 0.1103 0.7383 0.6823
C9 C 0.1167(3) 0.68636(13) 0.23210(13)
H9 H 0.0822 0.7226 0.1870
H10 H 0.2801 0.6866 0.2407
H11 H 0.0400 0.7140 0.2754
C10 C 0.0356(3) 0.58656(13) 0.22147(13)
C11 C 0.1468(4) 0.54164(14) 0.15299(13)
H12 H 0.0958 0.5732 0.1073
H13 H 0.1047 0.4759 0.1506
H14 H 0.3112 0.5470 0.1572
C12 C -0.2209(3) 0.57988(14) 0.21623(13)
H15 H -0.2892 0.6149 0.2575
H16 H -0.2668 0.5146 0.2196
H17 H -0.2713 0.6058 0.1682
C13 C -0.2147(3) 0.53976(13) 0.39630(13)
H18 H -0.3327 0.5849 0.4109
H19 H -0.2716 0.4823 0.3723
C14 C -0.1083(4) 0.64906(13) 0.63155(13)
H20 H -0.2185 0.6494 0.6703
C15 C -0.1397(4) 0.59542(13) 0.56790(13)
H21 H -0.2719 0.5586 0.5631
loop_
_geom_bond_atom_site_label_1
_geom_bond_atom_site_label_2
_geom_bond_site_symmetry_1
_geom_bond_site_symmetry_2
S1 O3 1_555 1_555
O1 C2 1_555 1_555
O2 C3 1_555 1_555
N1 S1 1_555 1_555
C1 H1 1_555 1_555
H2 C1 1_555 1_555
H3 C1 1_555 1_555
C2 C1 1_555 1_555
H4 C2 1_555 1_555
H5 C2 1_555 1_555
C3 O1 1_555 1_555
C4 N1 1_555 1_555
C5 C4 1_555 1_555
C6 C5 1_555 1_555
H6 C6 1_555 1_555
C7 C6 1_555 1_555
H7 C7 1_555 1_555
C8 C7 1_555 1_555
H8 C8 1_555 1_555
C9 H9 1_555 1_555
H10 C9 1_555 1_555
H11 C9 1_555 1_555
C10 S1 1_555 1_555
C11 C10 1_555 1_555
H12 C11 1_555 1_555
H13 C11 1_555 1_555
H14 C11 1_555 1_555
C12 C10 1_555 1_555
H15 C12 1_555 1_555
H16 C12 1_555 1_555
H17 C12 1_555 1_555
C13 N1 1_555 1_555
H18 C13 1_555 1_555
H19 C13 1_555 1_555
C14 C8 1_555 1_555
H20 C14 1_555 1_555
C15 C5 1_555 1_555
H21 C15 1_555 1_555
C3 C4 1_555 1_555
C4 C13 1_555 1_555
C9 C10 1_555 1_555
C14 C15 1_555 1_555

#END
