
#######################################################################
#
#                 Cambridge Crystallographic Data Centre
#                                CCDC 
#
#######################################################################
#
# If this CIF has been generated from an entry in the Cambridge 
# Structural Database, then it will include bibliographic, chemical, 
# crystal, experimental, refinement or atomic coordinate data resulting 
# from the CCDC's data processing and validation procedures.
#
#######################################################################

data_CUVJIN
_chemical_formula_moiety         'C28 H27 N1 O3'
_chemical_name_systematic        
'Ethyl 2-(4-methylphenyl)-3-oxo-4-phenyl-2,3,3a,4,9,9a-hexahydro-1H-benzo[f]isoindole-6-carboxylate'
_symmetry_cell_setting           triclinic
_symmetry_space_group_name_H-M   'P -1'
_symmetry_Int_Tables_number      2
_space_group_name_Hall           '-P 1'
loop_
_symmetry_equiv_pos_site_id
_symmetry_equiv_pos_as_xyz
1 x,y,z
2 -x,-y,-z
_cell_length_a                   9.0540(17)
_cell_length_b                   10.912(2)
_cell_length_c                   12.930(4)
_cell_angle_alpha                109.090(3)
_cell_angle_beta                 103.017(3)
_cell_angle_gamma                99.943(2)
_cell_volume                     1133.3
_cell_formula_units_Z            2
loop_
_atom_site_label
_atom_site_type_symbol
_atom_site_fract_x
_atom_site_fract_y
_atom_site_fract_z
C1 C 0.13943(17) 0.21994(15) 0.55871(13)
H1 H 0.1727 0.1369 0.5351
C2 C -0.04142(18) 0.18017(15) 0.52389(13)
C3 C -0.28878(19) 0.10190(16) 0.37072(14)
C4 C 0.20175(17) 0.30615(16) 0.49831(13)
C5 C -0.12587(18) 0.13870(15) 0.40853(14)
H2 H -0.0712 0.1356 0.3553
C6 C 0.20507(17) 0.28752(16) 0.68859(13)
H3 H 0.1889 0.3779 0.7107
C7 C -0.12513(19) 0.18358(16) 0.60327(14)
C8 C 0.1795(2) 0.43335(17) 0.52009(15)
H4 H 0.1223 0.4646 0.5697
C9 C -0.3698(2) 0.05948(17) 0.24612(16)
C10 C -0.04371(19) 0.22688(19) 0.73062(15)
H5 H -0.0432 0.3193 0.7707
H6 H -0.1008 0.1706 0.7611
C11 C 0.12287(19) 0.21532(17) 0.75032(14)
H7 H 0.1193 0.1198 0.7173
C12 C 0.3761(2) 0.30270(17) 0.74380(15)
C13 C 0.23618(19) 0.27574(19) 0.87150(15)
H8 H 0.2175 0.3586 0.9168
H9 H 0.2278 0.2131 0.9099
C14 C 0.5317(2) 0.32458(16) 0.93755(14)
C15 C -0.3703(2) 0.10752(18) 0.45037(16)
H10 H -0.4797 0.0843 0.4266
C16 C -0.28891(19) 0.14744(18) 0.56419(16)
H11 H -0.3447 0.1505 0.6168
C17 C 0.2409(2) 0.5144(2) 0.46935(17)
H12 H 0.2251 0.5998 0.4852
C18 C 0.28323(19) 0.26143(19) 0.42204(15)
H13 H 0.2971 0.1753 0.4045
C19 C 0.5288(2) 0.33730(17) 1.04715(15)
H14 H 0.4353 0.3379 1.0655
C20 C -0.6104(2) 0.0162(2) 0.10370(16)
H15 H -0.6094 -0.0743 0.0590
H16 H -0.5624 0.0773 0.0731
C21 C 0.8062(2) 0.35163(19) 1.10717(16)
C22 C 0.3251(2) 0.4699(2) 0.39551(18)
H17 H 0.3682 0.5253 0.3624
C23 C 0.6754(2) 0.33282(19) 0.91541(16)
H18 H 0.6821 0.3293 0.8438
C24 C 0.6641(2) 0.34915(18) 1.12969(16)
H19 H 0.6590 0.3556 1.2022
C25 C 0.3449(2) 0.3432(2) 0.37111(17)
H20 H 0.4002 0.3117 0.3200
C26 C 0.8087(2) 0.3462(2) 0.99997(17)
H21 H 0.9040 0.3518 0.9836
C27 C 0.9507(3) 0.3567(3) 1.19524(19)
H22 H 0.9558 0.2667 1.1859
H23 H 0.9454 0.4031 1.2709
H24 H 1.0428 0.4034 1.1849
C28 C -0.7758(2) 0.0227(3) 0.09681(19)
H25 H -0.8203 -0.0341 0.1313
H26 H -0.8370 -0.0074 0.0178
H27 H -0.7762 0.1137 0.1369
N1 N 0.38993(15) 0.30098(14) 0.85145(11)
O1 O -0.52303(14) 0.05400(13) 0.22397(10)
O2 O 0.48233(15) 0.31578(16) 0.70218(11)
O3 O -0.30528(16) 0.03294(15) 0.17273(11)
loop_
_geom_bond_atom_site_label_1
_geom_bond_atom_site_label_2
_geom_bond_site_symmetry_1
_geom_bond_site_symmetry_2
C1 H1 1_555 1_555
C2 C1 1_555 1_555
C3 C5 1_555 1_555
C4 C1 1_555 1_555
C5 C2 1_555 1_555
H2 C5 1_555 1_555
C6 C1 1_555 1_555
H3 C6 1_555 1_555
C7 C2 1_555 1_555
C8 C4 1_555 1_555
H4 C8 1_555 1_555
C9 C3 1_555 1_555
C10 C7 1_555 1_555
H5 C10 1_555 1_555
H6 C10 1_555 1_555
C11 C6 1_555 1_555
H7 C11 1_555 1_555
C12 C6 1_555 1_555
C13 C11 1_555 1_555
H8 C13 1_555 1_555
H9 C13 1_555 1_555
C14 C19 1_555 1_555
C15 C3 1_555 1_555
H10 C15 1_555 1_555
C16 C7 1_555 1_555
H11 C16 1_555 1_555
C17 C8 1_555 1_555
H12 C17 1_555 1_555
C18 C4 1_555 1_555
H13 C18 1_555 1_555
C19 H14 1_555 1_555
C20 H15 1_555 1_555
H16 C20 1_555 1_555
C21 C24 1_555 1_555
C22 C17 1_555 1_555
H17 C22 1_555 1_555
C23 C14 1_555 1_555
H18 C23 1_555 1_555
C24 C19 1_555 1_555
H19 C24 1_555 1_555
C25 C18 1_555 1_555
H20 C25 1_555 1_555
C26 C21 1_555 1_555
H21 C26 1_555 1_555
C27 C21 1_555 1_555
H22 C27 1_555 1_555
H23 C27 1_555 1_555
H24 C27 1_555 1_555
C28 C20 1_555 1_555
H25 C28 1_555 1_555
H26 C28 1_555 1_555
H27 C28 1_555 1_555
N1 C12 1_555 1_555
O1 C9 1_555 1_555
O2 C12 1_555 1_555
O3 C9 1_555 1_555
C10 C11 1_555 1_555
C13 N1 1_555 1_555
C14 N1 1_555 1_555
C15 C16 1_555 1_555
C20 O1 1_555 1_555
C22 C25 1_555 1_555
C23 C26 1_555 1_555

#END
