
#######################################################################
#
#                 Cambridge Crystallographic Data Centre
#                                CCDC 
#
#######################################################################
#
# If this CIF has been generated from an entry in the Cambridge 
# Structural Database, then it will include bibliographic, chemical, 
# crystal, experimental, refinement or atomic coordinate data resulting 
# from the CCDC's data processing and validation procedures.
#
#######################################################################

data_CUVJAF
_chemical_formula_moiety         'C26 H48 N6 6+,6(Cl1 1-),2.34(H2 O1)'
_chemical_name_systematic        
'6,19-Dimethyl-3,6,9,16,19,22-hexaazoniatricyclo[22.2.2.2^11,14^]triaconta-1(26),11,13,24,27,29-hexaene hexachloride hydrate'
_symmetry_cell_setting           monoclinic
_symmetry_space_group_name_H-M   'P 21/c'
_symmetry_Int_Tables_number      14
_space_group_name_Hall           '-P 2ybc'
loop_
_symmetry_equiv_pos_site_id
_symmetry_equiv_pos_as_xyz
1 x,y,z
2 -x,1/2+y,1/2-z
3 -x,-y,-z
4 x,1/2-y,1/2+z
_cell_length_a                   10.925(3)
_cell_length_b                   12.736(2)
_cell_length_c                   12.453(3)
_cell_angle_alpha                90
_cell_angle_beta                 98.413(9)
_cell_angle_gamma                90
_cell_volume                     1714.07
_exptl_crystal_colour            colorless
_cell_formula_units_Z            2
loop_
_atom_site_label
_atom_site_type_symbol
_atom_site_fract_x
_atom_site_fract_y
_atom_site_fract_z
Cl1 Cl 0.47936(5) 0.62441(4) 0.62051(5)
Cl2 Cl 0.79896(6) 0.13104(4) 0.67234(4)
Cl3 Cl 0.71040(8) 0.84755(5) 0.42646(5)
N1 N 0.47140(18) 0.85047(14) 0.70415(14)
H1 H 0.4756 0.7822 0.6783
N2 N 0.72442(17) 0.75474(14) 0.65708(15)
H2 H 0.7191 0.7752 0.5857
H3 H 0.6617 0.7076 0.6619
N3 N 0.76246(17) 0.24462(14) 0.45330(15)
H4 H 0.7538 0.2161 0.5196
H5 H 0.6973 0.2898 0.4337
C1 C 0.5877(2) 0.90710(17) 0.68544(18)
H6 H 0.5904 0.9760 0.7226
H7 H 0.5836 0.9207 0.6067
C2 C 0.7063(2) 0.84860(17) 0.72483(17)
H8 H 0.7772 0.8969 0.7243
H9 H 0.7053 0.8258 0.8007
C3 C 0.8462(2) 0.70113(18) 0.69032(19)
H10 H 0.8581 0.6884 0.7696
H11 H 0.9140 0.7474 0.6740
C4 C 0.8519(2) 0.59794(18) 0.63142(18)
C5 C 0.8197(2) 0.59014(18) 0.51978(19)
H12 H 0.7914 0.6508 0.4791
C6 C 0.8280(2) 0.49546(18) 0.46668(18)
H13 H 0.8043 0.4914 0.3903
C7 C 0.8711(2) 0.40636(17) 0.52465(18)
C8 C 0.9027(2) 0.41379(18) 0.63608(18)
H14 H 0.9318 0.3533 0.6767
C9 C 0.8924(2) 0.50841(18) 0.68929(18)
H15 H 0.9133 0.5119 0.7660
C10 C 0.8816(2) 0.30512(17) 0.46346(18)
H16 H 0.9018 0.3210 0.3902
H17 H 0.9495 0.2620 0.5023
C11 C 0.7578(2) 0.15858(17) 0.37081(18)
H18 H 0.8286 0.1105 0.3915
H19 H 0.7664 0.1895 0.2993
C12 C 0.3613(2) 0.90344(18) 0.6391(2)
H20 H 0.3807 0.9176 0.5652
H21 H 0.3481 0.9720 0.6732
C13 C 0.4589(2) 0.84450(19) 0.82262(18)
H22 H 0.4556 0.9157 0.8520
H23 H 0.5302 0.8071 0.8618
H24 H 0.3828 0.8068 0.8313
N1B N 0.52860(18) 0.14953(14) 0.29585(14)
H1B H 0.5244 0.2178 0.3217
N2B N 0.27558(17) 0.24526(14) 0.34292(15)
H2B H 0.2809 0.2248 0.4143
H3B H 0.3383 0.2924 0.3381
N3B N 0.23754(17) 0.75538(14) 0.54670(15)
H4B H 0.2462 0.7839 0.4804
H5B H 0.3027 0.7102 0.5663
C1B C 0.4123(2) 0.09290(17) 0.31456(18)
H6B H 0.4096 0.0240 0.2774
H7B H 0.4164 0.0793 0.3933
C2B C 0.2937(2) 0.15140(17) 0.27517(17)
H8B H 0.2228 0.1031 0.2757
H9B H 0.2947 0.1742 0.1993
C3B C 0.1538(2) 0.29887(18) 0.30968(19)
H10B H 0.1419 0.3116 0.2304
H11B H 0.0860 0.2526 0.3260
C4B C 0.1481(2) 0.40206(18) 0.36858(18)
C5B C 0.1803(2) 0.40986(18) 0.48022(19)
H12B H 0.2086 0.3492 0.5209
C6B C 0.1720(2) 0.50454(18) 0.53332(18)
H13B H 0.1957 0.5086 0.6097
C7B C 0.1289(2) 0.59364(17) 0.47535(18)
C8B C 0.0973(2) 0.58621(18) 0.36392(18)
H14B H 0.0682 0.6467 0.3233
C9B C 0.1076(2) 0.49159(18) 0.31071(18)
H15B H 0.0867 0.4881 0.2340
C10B C 0.1184(2) 0.69488(17) 0.53654(18)
H16B H 0.0982 0.6790 0.6098
H17B H 0.0505 0.7380 0.4977
C11B C 0.2422(2) 0.84142(17) 0.62919(18)
H18B H 0.1714 0.8895 0.6085
H19B H 0.2336 0.8105 0.7007
C12B C 0.6387(2) 0.09656(18) 0.3609(2)
H20B H 0.6193 0.0824 0.4348
H21B H 0.6519 0.0280 0.3268
C13B C 0.5411(2) 0.15550(19) 0.17738(18)
H22B H 0.5444 0.0843 0.1480
H23B H 0.4698 0.1929 0.1382
H24B H 0.6172 0.1932 0.1687
O1 O 0.9414(2) -0.07260(18) 0.5879(2)
H25 H 0.905(3) -0.097(3) 0.522(2)
H26 H 0.908(3) -0.0099(18) 0.600(3)
O2 O 0.4610(12) 0.8722(9) 0.4384(10)
loop_
_geom_bond_atom_site_label_1
_geom_bond_atom_site_label_2
_geom_bond_site_symmetry_1
_geom_bond_site_symmetry_2
N1 H1 1_555 1_555
N2 H2 1_555 1_555
H3 N2 1_555 1_555
N3 H4 1_555 1_555
H5 N3 1_555 1_555
C1 N1 1_555 1_555
H6 C1 1_555 1_555
H7 C1 1_555 1_555
C2 N2 1_555 1_555
H8 C2 1_555 1_555
H9 C2 1_555 1_555
C3 N2 1_555 1_555
H10 C3 1_555 1_555
H11 C3 1_555 1_555
C4 C3 1_555 1_555
C5 C4 1_555 1_555
H12 C5 1_555 1_555
C6 C5 1_555 1_555
H13 C6 1_555 1_555
C7 C6 1_555 1_555
C8 C7 1_555 1_555
H14 C8 1_555 1_555
C9 C4 1_555 1_555
H15 C9 1_555 1_555
C10 N3 1_555 1_555
H16 C10 1_555 1_555
H17 C10 1_555 1_555
C11 N3 1_555 1_555
H18 C11 1_555 1_555
H19 C11 1_555 1_555
C12 N1 1_555 1_555
H20 C12 1_555 1_555
H21 C12 1_555 1_555
C13 N1 1_555 1_555
H22 C13 1_555 1_555
H23 C13 1_555 1_555
H24 C13 1_555 1_555
O1 H25 1_555 1_555
H26 O1 1_555 1_555
N1B H1B 1_555 1_555
N2B H2B 1_555 1_555
H3B N2B 1_555 1_555
N3B H4B 1_555 1_555
H5B N3B 1_555 1_555
C1B N1B 1_555 1_555
H6B C1B 1_555 1_555
H7B C1B 1_555 1_555
C2B N2B 1_555 1_555
H8B C2B 1_555 1_555
H9B C2B 1_555 1_555
C3B N2B 1_555 1_555
H10B C3B 1_555 1_555
H11B C3B 1_555 1_555
C4B C3B 1_555 1_555
C5B C4B 1_555 1_555
H12B C5B 1_555 1_555
C6B C5B 1_555 1_555
H13B C6B 1_555 1_555
C7B C6B 1_555 1_555
C8B C7B 1_555 1_555
H14B C8B 1_555 1_555
C9B C4B 1_555 1_555
H15B C9B 1_555 1_555
C10B N3B 1_555 1_555
H16B C10B 1_555 1_555
H17B C10B 1_555 1_555
C11B C12 1_555 1_555
H18B C11B 1_555 1_555
H19B C11B 1_555 1_555
C12B C11 1_555 1_555
H20B C12B 1_555 1_555
H21B C12B 1_555 1_555
C13B N1B 1_555 1_555
H22B C13B 1_555 1_555
H23B C13B 1_555 1_555
H24B C13B 1_555 1_555
C1 C2 1_555 1_555
C7 C10 1_555 1_555
C8 C9 1_555 1_555
N1B C12B 1_555 1_555
N3B C11B 1_555 1_555
C1B C2B 1_555 1_555
C7B C10B 1_555 1_555
C8B C9B 1_555 1_555

#END
