
#######################################################################
#
#                 Cambridge Crystallographic Data Centre
#                                CCDC 
#
#######################################################################
#
# If this CIF has been generated from an entry in the Cambridge 
# Structural Database, then it will include bibliographic, chemical, 
# crystal, experimental, refinement or atomic coordinate data resulting 
# from the CCDC's data processing and validation procedures.
#
#######################################################################

data_CUVMUC
_chemical_formula_moiety         'C11 H16 Cl3 N1 O3'
_chemical_name_systematic        
'ethyl 2-(trichloroacetylamino)-5-methylcyclopentanecarboxylate'
_symmetry_cell_setting           monoclinic
_symmetry_space_group_name_H-M   'P 21/n'
_symmetry_Int_Tables_number      14
_space_group_name_Hall           '-P 2yn'
loop_
_symmetry_equiv_pos_site_id
_symmetry_equiv_pos_as_xyz
1 x,y,z
2 1/2-x,1/2+y,1/2-z
3 -x,-y,-z
4 1/2+x,1/2-y,1/2+z
_cell_length_a                   11.972(2)
_cell_length_b                   9.6026(19)
_cell_length_c                   13.277(3)
_cell_angle_alpha                90
_cell_angle_beta                 106.58(3)
_cell_angle_gamma                90
_cell_volume                     1462.89
_cell_formula_units_Z            4
loop_
_atom_site_label
_atom_site_type_symbol
_atom_site_fract_x
_atom_site_fract_y
_atom_site_fract_z
Cl1 Cl 0.92793 0.07765 0.281636
Cl2 Cl 0.803861 -0.178381 0.230313
Cl3 Cl 0.991029 -0.155981 0.418896
O1 O 1.03139 -0.290522 0.223922
O2 O 1.379 -0.2675 0.325718
O3 O 1.32432 -0.064753 0.379251
N1 N 1.08687 -0.077565 0.189326
H1 H 1.07658 0.012004 0.196667
C1 C 1.17429 -0.128238 0.140895
H2 H 1.17034 -0.23017 0.13863
C2 C 1.15892 -0.074952 0.028884
H3 H 1.10579 -0.134167 -0.022135
H4 H 1.12887 0.019461 0.020983
C3 C 1.28067 -0.07999 0.014662
H5 H 1.30414 0.011913 -0.00184
H6 H 1.2823 -0.142814 -0.042115
C4 C 1.36322 -0.132427 0.119513
H7 H 1.36389 -0.234451 0.117936
C5 C 1.2993 -0.085965 0.198947
H8 H 1.30382 0.015601 0.206184
C6 C 1.34063 -0.152033 0.306197
C7 C 1.48787 -0.081401 0.142648
H9 H 1.52151 -0.11611 0.090043
H10 H 1.5323 -0.114352 0.210523
H11 H 1.4887 0.01856 0.142023
C8 C 1.35021 -0.11702 0.486101
H12 H 1.43166 -0.143205 0.511895
H13 H 1.30284 -0.198181 0.488608
C9 C 1.32339 -0.002495 0.551507
H14 H 1.34009 -0.03297 0.623142
H15 H 1.24245 0.021834 0.525558
H16 H 1.37036 0.077346 0.547908
C10 C 1.02665 -0.164381 0.229478
C11 C 0.941565 -0.104399 0.287111
loop_
_geom_bond_atom_site_label_1
_geom_bond_atom_site_label_2
_geom_bond_site_symmetry_1
_geom_bond_site_symmetry_2
Cl1 C11 1_555 1_555
Cl2 C11 1_555 1_555
Cl3 C11 1_555 1_555
O1 C10 1_555 1_555
O2 C6 1_555 1_555
O3 C6 1_555 1_555
N1 H1 1_555 1_555
C1 N1 1_555 1_555
H2 C1 1_555 1_555
C2 C1 1_555 1_555
H3 C2 1_555 1_555
H4 C2 1_555 1_555
C3 C2 1_555 1_555
H5 C3 1_555 1_555
H6 C3 1_555 1_555
C4 C3 1_555 1_555
H7 C4 1_555 1_555
C5 C1 1_555 1_555
H8 C5 1_555 1_555
C6 C5 1_555 1_555
C7 C4 1_555 1_555
H9 C7 1_555 1_555
H10 C7 1_555 1_555
H11 C7 1_555 1_555
C8 O3 1_555 1_555
H12 C8 1_555 1_555
H13 C8 1_555 1_555
C9 C8 1_555 1_555
H14 C9 1_555 1_555
H15 C9 1_555 1_555
H16 C9 1_555 1_555
C10 N1 1_555 1_555
C11 C10 1_555 1_555
C4 C5 1_555 1_555

#END
