
#######################################################################
#
#                 Cambridge Crystallographic Data Centre
#                                CCDC 
#
#######################################################################
#
# If this CIF has been generated from an entry in the Cambridge 
# Structural Database, then it will include bibliographic, chemical, 
# crystal, experimental, refinement or atomic coordinate data resulting 
# from the CCDC's data processing and validation procedures.
#
#######################################################################

data_CUVPEQ
_chemical_formula_moiety         'C23 H31 N1 O2'
_chemical_name_systematic        9-(1-(t-Butylperoxy)heptyl)-9H-carbazole
_symmetry_cell_setting           monoclinic
_symmetry_space_group_name_H-M   'P 21/c'
_symmetry_Int_Tables_number      14
_space_group_name_Hall           '-P 2ybc'
loop_
_symmetry_equiv_pos_site_id
_symmetry_equiv_pos_as_xyz
1 x,y,z
2 -x,1/2+y,1/2-z
3 -x,-y,-z
4 x,1/2-y,1/2+z
_cell_length_a                   12.335(3)
_cell_length_b                   13.080(3)
_cell_length_c                   12.657(3)
_cell_angle_alpha                90
_cell_angle_beta                 102.79(3)
_cell_angle_gamma                90
_cell_volume                     1991.43
_exptl_crystal_colour            colorless
_exptl_crystal_description       block
_cell_formula_units_Z            4
loop_
_atom_site_label
_atom_site_type_symbol
_atom_site_fract_x
_atom_site_fract_y
_atom_site_fract_z
N1 N 0.2813(2) 0.38035(19) 0.2341(2)
C1 C 0.3487(3) 0.4219(2) 0.0830(3)
C2 C 0.2699(3) 0.4451(2) 0.1441(3)
C3 C 0.4134(3) 0.3394(2) 0.1412(3)
C4 C 0.3522(3) 0.4768(2) -0.0128(3)
H1 H 0.4048 0.4603 -0.0525
C5 C 0.2138(3) 0.3778(2) 0.3153(3)
C6 C 0.4153(3) 0.2397(3) 0.3099(3)
H2 H 0.3853 0.2251 0.3695
C7 C 0.1952(3) 0.5241(3) 0.1093(3)
H3 H 0.1422 0.5411 0.1484
C8 C 0.5484(3) 0.2099(3) 0.1990(3)
H4 H 0.6092 0.1724 0.1884
C9 C 0.5035(3) 0.1887(3) 0.2909(3)
H5 H 0.5360 0.1380 0.3392
C10 C 0.2005(4) 0.5775(3) 0.0158(3)
H6 H 0.1507 0.6308 -0.0064
C11 C 0.5037(3) 0.2856(2) 0.1245(3)
H7 H 0.5342 0.2993 0.0651
C12 C 0.3706(3) 0.3166(2) 0.2350(2)
C13 C 0.2785(4) 0.5537(3) -0.0465(3)
H8 H 0.2796 0.5899 -0.1096
C14 C 0.3039(4) 0.5337(3) 0.5373(3)
O1 O 0.3131(2) 0.4992(2) 0.4292(2)
C15 C 0.4234(5) 0.5498(4) 0.5939(5)
H9 H 0.4621 0.4856 0.5998
H10 H 0.4268 0.5769 0.6650
H11 H 0.4575 0.5970 0.5531
C16 C 0.0960(4) 0.3476(3) 0.2645(4)
C17 C 0.2460(6) 0.6349(5) 0.5229(5)
H12 H 0.2658 0.6710 0.4638
H13 H 0.2680 0.6743 0.5881
H14 H 0.1671 0.6244 0.5074
C18 C 0.2545(6) 0.4530(5) 0.5950(4)
H15 H 0.1770 0.4455 0.5617
H16 H 0.2624 0.4722 0.6695
H17 H 0.2921 0.3894 0.5909
O2 O 0.2047(2) 0.4771(2) 0.3615(2)
C19 C 0.0257(5) 0.3294(5) 0.3525(6)
C20 C 0.0031(10) 0.1845(9) 0.2427(11)
C21 C -0.0510(11) 0.2509(8) 0.2967(17)
C22 C 0.0870(5) 0.2393(5) 0.2073(5)
C23 C 0.0740(6) 0.1881(13) 0.3842(9)
H18? H 0.1636 0.2403 0.2027
H19? H 0.0558 0.3064 0.1925
H20? H 0.0468 0.1918 0.1551
H21? H 0.0421 0.2144 0.1916
H22? H -0.0357 0.1216 0.2172
H23? H -0.1116 0.2833 0.2457
H24? H -0.0822 0.2136 0.3492
H25? H 0.0475 0.2299 0.4324
H26? H 0.1369 0.1482 0.4088
loop_
_geom_bond_atom_site_label_1
_geom_bond_atom_site_label_2
_geom_bond_site_symmetry_1
_geom_bond_site_symmetry_2
N1 C2 1_555 1_555
C1 C2 1_555 1_555
C2 C7 1_555 1_555
C3 C1 1_555 1_555
C4 C1 1_555 1_555
H1 C4 1_555 1_555
C5 N1 1_555 1_555
C6 H2 1_555 1_555
C7 H3 1_555 1_555
C8 H4 1_555 1_555
C9 C6 1_555 1_555
H5 C9 1_555 1_555
C10 C7 1_555 1_555
H6 C10 1_555 1_555
C11 C3 1_555 1_555
H7 C11 1_555 1_555
C12 N1 1_555 1_555
C13 C4 1_555 1_555
H8 C13 1_555 1_555
C14 O1 1_555 1_555
O1 O2 1_555 1_555
C15 C14 1_555 1_555
H9 C15 1_555 1_555
H10 C15 1_555 1_555
H11 C15 1_555 1_555
C16 C5 1_555 1_555
C17 C14 1_555 1_555
H12 C17 1_555 1_555
H13 C17 1_555 1_555
H14 C17 1_555 1_555
C18 C14 1_555 1_555
H15 C18 1_555 1_555
H16 C18 1_555 1_555
H17 C18 1_555 1_555
O2 C5 1_555 1_555
C19 C16 1_555 1_555
C20 C21 1_555 1_555
C21 C19 1_555 1_555
C22 C16 1_555 1_555
C23 C20 1_555 1_555
C3 C12 1_555 1_555
C6 C12 1_555 1_555
C8 C9 1_555 1_555
C8 C11 1_555 1_555
C10 C13 1_555 1_555
C20 C22 1_555 1_555

#END
