
#######################################################################
#
#                 Cambridge Crystallographic Data Centre
#                                CCDC 
#
#######################################################################
#
# If this CIF has been generated from an entry in the Cambridge 
# Structural Database, then it will include bibliographic, chemical, 
# crystal, experimental, refinement or atomic coordinate data resulting 
# from the CCDC's data processing and validation procedures.
#
#######################################################################

data_CUVWAT
_chemical_name_common            styrenylphtmsindene
_chemical_formula_moiety         'C21 H21 N1 Si1'
_chemical_name_systematic        
5-phenyl-4-(trimethylsilyl)pyrrolo[1,2-a]quinoline
_symmetry_cell_setting           triclinic
_symmetry_space_group_name_H-M   'P -1'
_symmetry_Int_Tables_number      2
_space_group_name_Hall           '-P 1'
loop_
_symmetry_equiv_pos_site_id
_symmetry_equiv_pos_as_xyz
1 x,y,z
2 -x,-y,-z
_cell_length_a                   10.2204(5)
_cell_length_b                   10.3756(7)
_cell_length_c                   18.4485(12)
_cell_angle_alpha                95.235(5)
_cell_angle_beta                 105.120(5)
_cell_angle_gamma                108.782(5)
_cell_volume                     1754.87
_exptl_crystal_colour            'metallic yellowish white'
_exptl_crystal_description       block
_cell_formula_units_Z            4
loop_
_atom_site_label
_atom_site_type_symbol
_atom_site_fract_x
_atom_site_fract_y
_atom_site_fract_z
Si1 Si 0.26913(8) 0.63853(9) -0.09756(5)
N1 N 0.1879(2) 0.2511(2) -0.03287(14)
C1 C 0.2156(3) 0.3596(3) -0.07290(16)
C2 C 0.2397(3) 0.4993(3) -0.03721(15)
C3 C 0.2398(3) 0.5199(3) 0.03711(15)
C4 C 0.2115(3) 0.4063(3) 0.07856(16)
C5 C 0.1831(3) 0.2703(3) 0.04248(16)
C6 C 0.1547(3) 0.1607(3) 0.08109(19)
H1 H 0.1347 0.0712 0.0564
C7 C 0.1561(3) 0.1844(3) 0.1554(2)
H2 H 0.1361 0.1104 0.1808
C8 C 0.1870(3) 0.3169(3) 0.19321(19)
H3 H 0.1897 0.3323 0.2441
C9 C 0.2139(3) 0.4265(3) 0.15510(17)
H4 H 0.2341 0.5154 0.1807
C10 C 0.2164(3) 0.3046(3) -0.14370(18)
H5 H 0.2317 0.3530 -0.1826
C11 C 0.1900(3) 0.1624(4) -0.1466(2)
H6 H 0.1851 0.1004 -0.1878
C12 C 0.1728(3) 0.1306(3) -0.0783(2)
H7 H 0.1542 0.0436 -0.0651
C13 C 0.2732(3) 0.6609(3) 0.08085(15)
C14 C 0.1640(3) 0.7017(3) 0.09425(16)
H8 H 0.0684 0.6399 0.0760
C15 C 0.1944(3) 0.8327(3) 0.13424(17)
H9 H 0.1197 0.8587 0.1425
C16 C 0.3362(3) 0.9244(3) 0.16187(17)
H10 H 0.3575 1.0130 0.1884
C17 C 0.4462(3) 0.8842(3) 0.15003(19)
H11 H 0.5419 0.9456 0.1694
C18 C 0.4161(3) 0.7537(3) 0.10971(17)
H12 H 0.4912 0.7279 0.1019
C19 C 0.2354(4) 0.7969(4) -0.0644(2)
H13 H 0.1412 0.7703 -0.0574
H14 H 0.2396 0.8550 -0.1020
H15 H 0.3082 0.8469 -0.0168
C20 C 0.4589(3) 0.6867(4) -0.0999(2)
H16 H 0.5244 0.7234 -0.0488
H17 H 0.4774 0.7557 -0.1310
H18 H 0.4732 0.6061 -0.1210
C21 C 0.1358(3) 0.5689(4) -0.19534(19)
H19 H 0.1779 0.5290 -0.2279
H20 H 0.1112 0.6429 -0.2158
H21 H 0.0497 0.4991 -0.1926
Si2 Si 0.39727(10) 0.75014(10) 0.60046(5)
N2 N 0.2744(3) 0.3179(3) 0.57159(17)
C22 C 0.1845(3) 0.2641(3) 0.49532(19)
C23 C 0.1602(3) 0.3590(3) 0.44933(17)
C24 C 0.2252(3) 0.5078(3) 0.47961(16)
C25 C 0.3101(3) 0.5584(3) 0.55399(16)
C26 C 0.3354(3) 0.4600(4) 0.60137(18)
C27 C 0.1244(4) 0.1239(4) 0.4664(3)
H22 H 0.1419 0.0621 0.4978
C28 C 0.0411(5) 0.0758(4) 0.3938(3)
H23 H 0.0013 -0.0193 0.3748
C29 C 0.0144(4) 0.1634(4) 0.3480(2)
H24 H -0.0442 0.1280 0.2975
C30 C 0.0716(3) 0.3036(3) 0.37374(18)
H25 H 0.0515 0.3625 0.3409
C31 C 0.3150(4) 0.2460(5) 0.6278(3)
H26 H 0.2889 0.1503 0.6227
C32 C 0.4052(4) 0.3478(5) 0.6952(2)
H27 H 0.4484 0.3304 0.7424
C33 C 0.4163(4) 0.4781(4) 0.67711(19)
H28 H 0.4692 0.5629 0.7104
C34 C 0.1940(3) 0.6002(3) 0.42410(15)
C35 C 0.2870(3) 0.6496(3) 0.38235(18)
H29 H 0.3699 0.6272 0.3888
C36 C 0.2561(4) 0.7328(4) 0.33073(19)
H30 H 0.3199 0.7683 0.3035
C37 C 0.1322(4) 0.7631(4) 0.31953(18)
H31 H 0.1127 0.8201 0.2853
C38 C 0.0363(4) 0.7087(3) 0.35927(19)
H32 H -0.0489 0.7274 0.3510
C39 C 0.0666(3) 0.6273(3) 0.41072(17)
H33 H 0.0012 0.5900 0.4369
C40 C 0.3364(8) 0.8705(5) 0.5445(3)
H34 H 0.3699 0.9601 0.5767
H35 H 0.2322 0.8355 0.5253
H36 H 0.3754 0.8785 0.5024
C41 C 0.5949(4) 0.8026(5) 0.6257(3)
H37 H 0.6219 0.7922 0.5800
H38 H 0.6269 0.7452 0.6588
H39 H 0.6394 0.8978 0.6515
C42 C 0.3439(5) 0.7762(5) 0.6878(3)
H40 H 0.3479 0.8699 0.6987
H41 H 0.4093 0.7588 0.7302
H42 H 0.2467 0.7133 0.6797
loop_
_geom_bond_atom_site_label_1
_geom_bond_atom_site_label_2
_geom_bond_site_symmetry_1
_geom_bond_site_symmetry_2
Si1 C2 1_555 1_555
N1 C1 1_555 1_555
C1 C2 1_555 1_555
C2 C3 1_555 1_555
C3 C4 1_555 1_555
C4 C5 1_555 1_555
C5 N1 1_555 1_555
C6 C5 1_555 1_555
H1 C6 1_555 1_555
C7 C6 1_555 1_555
H2 C7 1_555 1_555
C8 C7 1_555 1_555
H3 C8 1_555 1_555
C9 C4 1_555 1_555
H4 C9 1_555 1_555
C10 C1 1_555 1_555
H5 C10 1_555 1_555
C11 C10 1_555 1_555
H6 C11 1_555 1_555
C12 N1 1_555 1_555
H7 C12 1_555 1_555
C13 C3 1_555 1_555
C14 C13 1_555 1_555
H8 C14 1_555 1_555
C15 C14 1_555 1_555
H9 C15 1_555 1_555
C16 C15 1_555 1_555
H10 C16 1_555 1_555
C17 C16 1_555 1_555
H11 C17 1_555 1_555
C18 C13 1_555 1_555
H12 C18 1_555 1_555
C19 Si1 1_555 1_555
H13 C19 1_555 1_555
H14 C19 1_555 1_555
H15 C19 1_555 1_555
C20 Si1 1_555 1_555
H16 C20 1_555 1_555
H17 C20 1_555 1_555
H18 C20 1_555 1_555
C21 Si1 1_555 1_555
H19 C21 1_555 1_555
H20 C21 1_555 1_555
H21 C21 1_555 1_555
Si2 C25 1_555 1_555
N2 C22 1_555 1_555
C22 C23 1_555 1_555
C23 C24 1_555 1_555
C24 C25 1_555 1_555
C25 C26 1_555 1_555
C26 N2 1_555 1_555
C27 C22 1_555 1_555
H22 C27 1_555 1_555
C28 C27 1_555 1_555
H23 C28 1_555 1_555
C29 C28 1_555 1_555
H24 C29 1_555 1_555
C30 C23 1_555 1_555
H25 C30 1_555 1_555
C31 N2 1_555 1_555
H26 C31 1_555 1_555
C32 C31 1_555 1_555
H27 C32 1_555 1_555
C33 C26 1_555 1_555
H28 C33 1_555 1_555
C34 C24 1_555 1_555
C35 C34 1_555 1_555
H29 C35 1_555 1_555
C36 C35 1_555 1_555
H30 C36 1_555 1_555
C37 C36 1_555 1_555
H31 C37 1_555 1_555
C38 C37 1_555 1_555
H32 C38 1_555 1_555
C39 C34 1_555 1_555
H33 C39 1_555 1_555
C40 Si2 1_555 1_555
H34 C40 1_555 1_555
H35 C40 1_555 1_555
H36 C40 1_555 1_555
C41 Si2 1_555 1_555
H37 C41 1_555 1_555
H38 C41 1_555 1_555
H39 C41 1_555 1_555
C42 Si2 1_555 1_555
H40 C42 1_555 1_555
H41 C42 1_555 1_555
H42 C42 1_555 1_555
C8 C9 1_555 1_555
C11 C12 1_555 1_555
C17 C18 1_555 1_555
C29 C30 1_555 1_555
C32 C33 1_555 1_555
C38 C39 1_555 1_555

#END
