
#######################################################################
#
#                 Cambridge Crystallographic Data Centre
#                                CCDC 
#
#######################################################################
#
# If this CIF has been generated from an entry in the Cambridge 
# Structural Database, then it will include bibliographic, chemical, 
# crystal, experimental, refinement or atomic coordinate data resulting 
# from the CCDC's data processing and validation procedures.
#
#######################################################################

data_CUVZUQ
_chemical_formula_moiety         'C10 H14 Cl1 N5'
_chemical_name_systematic        6-chloro-9-pentyl-9H-purin-2-amine
_symmetry_cell_setting           triclinic
_symmetry_space_group_name_H-M   'P -1'
_symmetry_Int_Tables_number      2
_space_group_name_Hall           '-P 1'
loop_
_symmetry_equiv_pos_site_id
_symmetry_equiv_pos_as_xyz
1 x,y,z
2 -x,-y,-z
_cell_length_a                   15.078(3)
_cell_length_b                   15.132(3)
_cell_length_c                   21.864(4)
_cell_angle_alpha                81.61(3)
_cell_angle_beta                 80.08(3)
_cell_angle_gamma                89.95(3)
_cell_volume                     4859.82
_exptl_crystal_colour            colorless
_exptl_crystal_description       'square plate'
_cell_formula_units_Z            16
_exptl_crystal_recrystallization_method Sublimation
loop_
_atom_site_label
_atom_site_type_symbol
_atom_site_fract_x
_atom_site_fract_y
_atom_site_fract_z
Cl1 Cl 1.16885(14) 0.36710(16) 0.42560(13)
N1 N 1.0056(4) 0.4222(4) 0.4320(3)
N2 N 0.8713(4) 0.3369(4) 0.4260(3)
N3 N 1.0562(4) 0.1869(4) 0.4145(3)
N4 N 0.9054(4) 0.1818(4) 0.4147(3)
N5 N 0.8643(5) 0.4855(5) 0.4402(4)
H1 H 0.8074 0.4835 0.4397
H2 H 0.8896 0.5344 0.4450
C1 C 1.0562(5) 0.3522(5) 0.4268(4)
C2 C 0.9142(5) 0.4115(5) 0.4334(4)
C3 C 0.9273(4) 0.2689(5) 0.4213(4)
C4 C 1.0203(5) 0.2707(5) 0.4201(4)
C5 C 0.9845(6) 0.1381(6) 0.4117(4)
H3 H 0.9881 0.0778 0.4079
C6 C 0.8185(5) 0.1497(6) 0.4092(5)
H4 H 0.7735 0.1719 0.4403
H5 H 0.8165 0.0850 0.4184
C7 C 0.7957(6) 0.1767(8) 0.3471(5)
H6 H 0.7345 0.1565 0.3477
H7 H 0.7973 0.2414 0.3384
C8 C 0.8548(9) 0.1425(16) 0.2963(7)
H8 H 0.9061 0.1839 0.2851
H9 H 0.8772 0.0870 0.3156
C9 C 0.8360(12) 0.1251(19) 0.2417(7)
H10 H 0.8842 0.0894 0.2234
H11 H 0.8379 0.1814 0.2139
C10 C 0.7516(14) 0.0798(15) 0.2416(7)
H12 H 0.7620 0.0335 0.2158
H13 H 0.7107 0.1219 0.2253
H14 H 0.7260 0.0540 0.2838
Cl2 Cl -0.13052(14) 0.86692(17) 0.42597(13)
N6 N 0.0294(4) 0.9224(4) 0.4307(3)
N7 N 0.1665(4) 0.8364(4) 0.4259(3)
N8 N -0.0114(4) 0.6867(5) 0.4140(3)
N9 N 0.1383(4) 0.6834(4) 0.4134(3)
N10 N 0.1644(4) 0.9859(5) 0.4389(4)
H15 H 0.1371 1.0354 0.4422
H16 H 0.2210 0.9831 0.4401
C11 C -0.0169(5) 0.8517(6) 0.4252(4)
C12 C 0.1183(5) 0.9129(5) 0.4320(4)
C13 C 0.1132(5) 0.7693(5) 0.4192(4)
C14 C 0.0215(5) 0.7702(5) 0.4200(4)
C15 C 0.0607(6) 0.6383(6) 0.4101(4)
H17 H 0.0595 0.5782 0.4054
C16 C 0.2301(6) 0.6485(6) 0.4086(5)
H18 H 0.2269 0.5837 0.4167
H19 H 0.2596 0.6693 0.4401
C17 C 0.2840(7) 0.6784(8) 0.3451(5)
H20 H 0.3444 0.6560 0.3439
H21 H 0.2884 0.7431 0.3380
C18 C 0.2447(10) 0.6474(16) 0.2928(8)
H22 H 0.1946 0.6069 0.3123
H23 H 0.2195 0.6993 0.2710
C19 C 0.2978(17) 0.605(2) 0.2466(9)
H24 H 0.2995 0.6445 0.2074
H25 H 0.2630 0.5522 0.2434
C20 C 0.390(2) 0.575(2) 0.2466(13)
H26 H 0.4234 0.6169 0.2635
H27 H 0.4191 0.5707 0.2044
H28 H 0.3895 0.5173 0.2719
Cl3 Cl -0.10244(15) 0.58328(13) 0.08225(12)
N11 N -0.1595(4) 0.7449(4) 0.0769(3)
N12 N -0.0754(4) 0.8810(4) 0.0738(3)
N13 N 0.0818(4) 0.7010(4) 0.0815(3)
N14 N 0.0834(4) 0.8513(4) 0.0781(3)
N15 N -0.2242(4) 0.8834(4) 0.0731(3)
H29 H -0.2216 0.9405 0.0713
H30 H -0.2748 0.8568 0.0737
C21 C -0.0870(5) 0.6973(5) 0.0795(4)
C22 C -0.1499(5) 0.8360(5) 0.0749(4)
C23 C -0.0013(4) 0.8278(4) 0.0774(3)
C24 C -0.0030(4) 0.7345(5) 0.0785(4)
C25 C 0.1295(5) 0.7736(5) 0.0817(4)
H31 H 0.1905 0.7721 0.0840
C26 C 0.1175(5) 0.9408(5) 0.0812(4)
H32 H 0.0929 0.9839 0.0516
H33 H 0.1825 0.9429 0.0688
C27 C 0.0935(6) 0.9673(6) 0.1463(4)
H34 H 0.0288 0.9615 0.1599
H35 H 0.1108 1.0295 0.1444
C28 C 0.1402(7) 0.9095(7) 0.1954(4)
H36 H 0.1222 0.8474 0.1979
H37 H 0.2049 0.9145 0.1815
C29 C 0.1170(10) 0.9374(9) 0.2610(5)
H38 H 0.0524 0.9319 0.2752
H39 H 0.1457 0.8976 0.2903
C30 C 0.1484(13) 1.0337(11) 0.2602(7)
H40 H 0.1620 1.0632 0.2176
H41 H 0.2014 1.0336 0.2790
H42 H 0.1016 1.0646 0.2835
Cl4 Cl 0.39731(14) 0.88168(13) 0.08274(12)
N16 N 0.3403(4) 0.7229(4) 0.0773(3)
N17 N 0.4250(4) 0.5870(4) 0.0745(3)
N18 N 0.5830(4) 0.7644(4) 0.0814(3)
N19 N 0.5852(4) 0.6161(4) 0.0776(3)
N20 N 0.2737(4) 0.5867(4) 0.0729(3)
H43 H 0.2752 0.5300 0.0723
H44 H 0.2237 0.6140 0.0726
C31 C 0.4122(5) 0.7687(5) 0.0781(4)
C32 C 0.3500(5) 0.6329(5) 0.0741(4)
C33 C 0.4974(5) 0.6406(5) 0.0758(4)
C34 C 0.4964(5) 0.7334(5) 0.0789(3)
C35 C 0.6298(5) 0.6927(5) 0.0806(4)
H45 H 0.6911 0.6937 0.0821
C36 C 0.6190(5) 0.5256(5) 0.0798(4)
H46 H 0.6840 0.5284 0.0671
H47 H 0.5938 0.4954 0.0503
C37 C 0.5954(5) 0.4726(5) 0.1445(3)
H48 H 0.5305 0.4720 0.1574
H49 H 0.6132 0.4114 0.1424
C38 C 0.6380(8) 0.5070(8) 0.1933(5)
H50 H 0.6181 0.5672 0.1971
H51 H 0.7028 0.5098 0.1800
C39 C 0.6157(11) 0.4499(10) 0.2568(5)
H52 H 0.6398 0.4791 0.2872
H53 H 0.5508 0.4454 0.2694
C40 C 0.6523(16) 0.3572(13) 0.2580(7)
H54 H 0.6483 0.3362 0.2192
H55 H 0.6177 0.3179 0.2922
H56 H 0.7141 0.3584 0.2634
Cl5 Cl 0.67269(13) -0.04827(14) 0.41703(12)
N21 N 0.5068(4) -0.1062(4) 0.4265(3)
N22 N 0.3746(4) -0.0180(4) 0.4272(3)
N23 N 0.5584(4) 0.1363(4) 0.4147(3)
N24 N 0.4073(4) 0.1392(4) 0.4194(3)
N25 N 0.3679(4) -0.1710(4) 0.4347(3)
H57 H 0.3932 -0.2220 0.4360
H58 H 0.3105 -0.1680 0.4368
C41 C 0.5570(5) -0.0330(5) 0.4210(4)
C42 C 0.4181(5) -0.0958(5) 0.4295(4)
C43 C 0.4299(5) 0.0514(5) 0.4225(4)
C44 C 0.5228(5) 0.0505(5) 0.4194(4)
C45 C 0.4845(6) 0.1865(6) 0.4149(4)
H59 H 0.4866 0.2484 0.4121
C46 C 0.3200(5) 0.1756(6) 0.4171(5)
H60 H 0.3195 0.2356 0.4278
H61 H 0.2757 0.1395 0.4482
C47 C 0.2942(7) 0.1785(7) 0.3537(5)
H62 H 0.2947 0.1183 0.3433
H63 H 0.2332 0.1996 0.3556
C48 C 0.3548(10) 0.2372(11) 0.3026(6)
H64 H 0.3647 0.2926 0.3181
H65 H 0.4126 0.2085 0.2960
C49 C 0.3290(12) 0.2597(15) 0.2433(7)
H66 H 0.3237 0.2052 0.2256
H67 H 0.3768 0.2964 0.2158
C50 C 0.2453(15) 0.3070(17) 0.2432(7)
H68 H 0.2045 0.2870 0.2815
H69 H 0.2189 0.2952 0.2081
H70 H 0.2571 0.3700 0.2398
Cl6 Cl 0.37012(13) 0.45190(14) 0.41794(12)
N26 N 0.5314(4) 0.3936(4) 0.4274(3)
N27 N 0.6642(4) 0.4816(4) 0.4261(3)
N28 N 0.4862(4) 0.6365(4) 0.4145(3)
N29 N 0.6333(4) 0.6414(4) 0.4177(3)
N30 N 0.6658(4) 0.3302(4) 0.4349(3)
H71 H 0.7220 0.3327 0.4375
H72 H 0.6393 0.2794 0.4365
C51 C 0.4829(5) 0.4656(6) 0.4220(4)
C52 C 0.6192(5) 0.4061(5) 0.4282(4)
C53 C 0.6105(5) 0.5522(5) 0.4207(4)
C54 C 0.5194(5) 0.5505(5) 0.4193(4)
C55 C 0.5573(6) 0.6880(6) 0.4138(4)
H73 H 0.5552 0.7498 0.4110
C56 C 0.7254(6) 0.6756(6) 0.4152(5)
H74 H 0.7534 0.6385 0.4462
H75 H 0.7229 0.7359 0.4256
C57 C 0.7810(6) 0.6763(7) 0.3521(5)
H76 H 0.7852 0.6156 0.3428
H77 H 0.8414 0.6976 0.3529
C58 C 0.7446(10) 0.7336(14) 0.3007(7)
H78 H 0.6957 0.7000 0.2906
H79 H 0.7183 0.7851 0.3179
C59 C 0.8019(13) 0.7656(18) 0.2437(8)
H80 H 0.7688 0.8085 0.2194
H81 H 0.8147 0.7159 0.2204
C60 C 0.8906(17) 0.8094(18) 0.2471(8)
H82 H 0.8833 0.8727 0.2454
H83 H 0.9350 0.7979 0.2122
H84 H 0.9097 0.7854 0.2856
Cl7 Cl 0.18838(14) 0.61804(13) 0.92250(12)
N31 N 0.1300(4) 0.7796(4) 0.9243(3)
N32 N 0.2169(4) 0.9134(4) 0.9264(3)
N33 N 0.3741(4) 0.7339(4) 0.9220(3)
N34 N 0.3765(4) 0.8826(4) 0.9239(3)
N35 N 0.0653(4) 0.9171(4) 0.9257(3)
H85 H 0.0682 0.9740 0.9252
H86 H 0.0145 0.8913 0.9257
C61 C 0.2051(5) 0.7302(5) 0.9256(4)
C62 C 0.1416(5) 0.8677(5) 0.9265(3)
C63 C 0.2884(5) 0.8597(5) 0.9258(4)
C64 C 0.2860(4) 0.7669(5) 0.9246(4)
C65 C 0.4251(5) 0.8047(6) 0.9222(4)
H87 H 0.4869 0.8026 0.9213
C66 C 0.4153(5) 0.9733(5) 0.9201(4)
H88 H 0.4750 0.9690 0.9309
H89 H 0.3781 1.0052 0.9501
C67 C 0.4209(6) 1.0245(5) 0.8547(4)
H90 H 0.3617 1.0240 0.8430
H91 H 0.4377 1.0862 0.8553
C68 C 0.4874(8) 0.9880(8) 0.8051(5)
H92 H 0.5457 0.9842 0.8182
H93 H 0.4681 0.9278 0.8021
C69 C 0.4977(11) 1.0432(9) 0.7413(5)
H94 H 0.4388 1.0525 0.7297
H95 H 0.5332 1.0111 0.7107
C70 C 0.5426(15) 1.1322(12) 0.7401(7)
H96 H 0.5360 1.1463 0.7820
H97 H 0.5151 1.1775 0.7145
H98 H 0.6054 1.1298 0.7229
Cl8 Cl 0.31109(14) 0.08515(13) 0.07819(12)
N36 N 0.3693(4) 0.2470(4) 0.0760(3)
N37 N 0.2824(4) 0.3823(4) 0.0738(3)
N38 N 0.1259(4) 0.1995(4) 0.0788(3)
N39 N 0.1242(4) 0.3508(4) 0.0774(3)
N40 N 0.4330(4) 0.3852(4) 0.0754(3)
H99 H 0.4304 0.4422 0.0742
H100 H 0.4835 0.3591 0.0766
C71 C 0.2960(5) 0.1983(5) 0.0764(4)
C72 C 0.3592(5) 0.3377(5) 0.0756(4)
C73 C 0.2111(4) 0.3268(5) 0.0752(4)
C74 C 0.2117(5) 0.2340(5) 0.0755(4)
C75 C 0.0762(5) 0.2712(5) 0.0778(4)
H101 H 0.0146 0.2692 0.0775
C76 C 0.0858(5) 0.4384(5) 0.0826(4)
H102 H 0.0260 0.4388 0.0718
H103 H 0.1226 0.4831 0.0526
C77 C 0.0795(6) 0.4634(6) 0.1473(4)
H104 H 0.0628 0.5255 0.1461
H105 H 0.1383 0.4577 0.1596
C78 C 0.0115(8) 0.4058(8) 0.1960(4)
H106 H -0.0461 0.4085 0.1818
H107 H 0.0304 0.3443 0.1984
C79 C -0.0016(10) 0.4313(10) 0.2607(5)
H108 H 0.0550 0.4244 0.2762
H109 H -0.0454 0.3902 0.2883
C80 C -0.0327(14) 0.5256(12) 0.2644(7)
H110 H 0.0102 0.5670 0.2374
H111 H -0.0381 0.5373 0.3069
H112 H -0.0902 0.5324 0.2513
loop_
_geom_bond_atom_site_label_1
_geom_bond_atom_site_label_2
_geom_bond_site_symmetry_1
_geom_bond_site_symmetry_2
Cl1 C1 1_555 1_555
N1 C1 1_555 1_555
N2 C2 1_555 1_555
N3 C4 1_555 1_555
N4 C3 1_555 1_555
N5 H1 1_555 1_555
H2 N5 1_555 1_555
C1 C4 1_555 1_555
C2 N1 1_555 1_555
C3 N2 1_555 1_555
C4 C3 1_555 1_555
C5 N3 1_555 1_555
H3 C5 1_555 1_555
C6 N4 1_555 1_555
H4 C6 1_555 1_555
H5 C6 1_555 1_555
C7 C6 1_555 1_555
H6 C7 1_555 1_555
H7 C7 1_555 1_555
C8 C7 1_555 1_555
H8 C8 1_555 1_555
H9 C8 1_555 1_555
C9 C8 1_555 1_555
H10 C9 1_555 1_555
H11 C9 1_555 1_555
C10 C9 1_555 1_555
H12 C10 1_555 1_555
H13 C10 1_555 1_555
H14 C10 1_555 1_555
Cl2 C11 1_555 1_555
N6 C11 1_555 1_555
N7 C12 1_555 1_555
N8 C14 1_555 1_555
N9 C13 1_555 1_555
N10 H15 1_555 1_555
H16 N10 1_555 1_555
C11 C14 1_555 1_555
C12 N6 1_555 1_555
C13 N7 1_555 1_555
C14 C13 1_555 1_555
C15 N8 1_555 1_555
H17 C15 1_555 1_555
C16 N9 1_555 1_555
H18 C16 1_555 1_555
H19 C16 1_555 1_555
C17 C16 1_555 1_555
H20 C17 1_555 1_555
H21 C17 1_555 1_555
C18 C17 1_555 1_555
H22 C18 1_555 1_555
H23 C18 1_555 1_555
C19 C18 1_555 1_555
H24 C19 1_555 1_555
H25 C19 1_555 1_555
C20 C19 1_555 1_555
H26 C20 1_555 1_555
H27 C20 1_555 1_555
H28 C20 1_555 1_555
Cl3 C21 1_555 1_555
N11 C21 1_555 1_555
N12 C22 1_555 1_555
N13 C24 1_555 1_555
N14 C23 1_555 1_555
N15 H29 1_555 1_555
H30 N15 1_555 1_555
C21 C24 1_555 1_555
C22 N11 1_555 1_555
C23 N12 1_555 1_555
C24 C23 1_555 1_555
C25 N13 1_555 1_555
H31 C25 1_555 1_555
C26 N14 1_555 1_555
H32 C26 1_555 1_555
H33 C26 1_555 1_555
C27 C26 1_555 1_555
H34 C27 1_555 1_555
H35 C27 1_555 1_555
C28 C27 1_555 1_555
H36 C28 1_555 1_555
H37 C28 1_555 1_555
C29 C28 1_555 1_555
H38 C29 1_555 1_555
H39 C29 1_555 1_555
C30 C29 1_555 1_555
H40 C30 1_555 1_555
H41 C30 1_555 1_555
H42 C30 1_555 1_555
Cl4 C31 1_555 1_555
N16 C31 1_555 1_555
N17 C32 1_555 1_555
N18 C34 1_555 1_555
N19 C33 1_555 1_555
N20 H43 1_555 1_555
H44 N20 1_555 1_555
C31 C34 1_555 1_555
C32 N16 1_555 1_555
C33 N17 1_555 1_555
C34 C33 1_555 1_555
C35 N18 1_555 1_555
H45 C35 1_555 1_555
C36 N19 1_555 1_555
H46 C36 1_555 1_555
H47 C36 1_555 1_555
C37 C36 1_555 1_555
H48 C37 1_555 1_555
H49 C37 1_555 1_555
C38 C37 1_555 1_555
H50 C38 1_555 1_555
H51 C38 1_555 1_555
C39 C38 1_555 1_555
H52 C39 1_555 1_555
H53 C39 1_555 1_555
C40 C39 1_555 1_555
H54 C40 1_555 1_555
H55 C40 1_555 1_555
H56 C40 1_555 1_555
Cl5 C41 1_555 1_555
N21 C41 1_555 1_555
N22 C42 1_555 1_555
N23 C44 1_555 1_555
N24 C43 1_555 1_555
N25 H57 1_555 1_555
H58 N25 1_555 1_555
C41 C44 1_555 1_555
C42 N21 1_555 1_555
C43 N22 1_555 1_555
C44 C43 1_555 1_555
C45 N23 1_555 1_555
H59 C45 1_555 1_555
C46 N24 1_555 1_555
H60 C46 1_555 1_555
H61 C46 1_555 1_555
C47 C46 1_555 1_555
H62 C47 1_555 1_555
H63 C47 1_555 1_555
C48 C47 1_555 1_555
H64 C48 1_555 1_555
H65 C48 1_555 1_555
C49 C48 1_555 1_555
H66 C49 1_555 1_555
H67 C49 1_555 1_555
C50 C49 1_555 1_555
H68 C50 1_555 1_555
H69 C50 1_555 1_555
H70 C50 1_555 1_555
Cl6 C51 1_555 1_555
N26 C51 1_555 1_555
N27 C52 1_555 1_555
N28 C54 1_555 1_555
N29 C53 1_555 1_555
N30 H71 1_555 1_555
H72 N30 1_555 1_555
C51 C54 1_555 1_555
C52 N26 1_555 1_555
C53 N27 1_555 1_555
C54 C53 1_555 1_555
C55 N28 1_555 1_555
H73 C55 1_555 1_555
C56 N29 1_555 1_555
H74 C56 1_555 1_555
H75 C56 1_555 1_555
C57 C56 1_555 1_555
H76 C57 1_555 1_555
H77 C57 1_555 1_555
C58 C57 1_555 1_555
H78 C58 1_555 1_555
H79 C58 1_555 1_555
C59 C58 1_555 1_555
H80 C59 1_555 1_555
H81 C59 1_555 1_555
C60 C59 1_555 1_555
H82 C60 1_555 1_555
H83 C60 1_555 1_555
H84 C60 1_555 1_555
Cl7 C61 1_555 1_555
N31 C61 1_555 1_555
N32 C62 1_555 1_555
N33 C64 1_555 1_555
N34 C63 1_555 1_555
N35 H85 1_555 1_555
H86 N35 1_555 1_555
C61 C64 1_555 1_555
C62 N31 1_555 1_555
C63 N32 1_555 1_555
C64 C63 1_555 1_555
C65 N33 1_555 1_555
H87 C65 1_555 1_555
C66 N34 1_555 1_555
H88 C66 1_555 1_555
H89 C66 1_555 1_555
C67 C66 1_555 1_555
H90 C67 1_555 1_555
H91 C67 1_555 1_555
C68 C67 1_555 1_555
H92 C68 1_555 1_555
H93 C68 1_555 1_555
C69 C68 1_555 1_555
H94 C69 1_555 1_555
H95 C69 1_555 1_555
C70 C69 1_555 1_555
H96 C70 1_555 1_555
H97 C70 1_555 1_555
H98 C70 1_555 1_555
Cl8 C71 1_555 1_555
N36 C71 1_555 1_555
N37 C72 1_555 1_555
N38 C74 1_555 1_555
N39 C73 1_555 1_555
N40 H99 1_555 1_555
H100 N40 1_555 1_555
C71 C74 1_555 1_555
C72 N36 1_555 1_555
C73 N37 1_555 1_555
C74 C73 1_555 1_555
C75 N38 1_555 1_555
H101 C75 1_555 1_555
C76 N39 1_555 1_555
H102 C76 1_555 1_555
H103 C76 1_555 1_555
C77 C76 1_555 1_555
H104 C77 1_555 1_555
H105 C77 1_555 1_555
C78 C77 1_555 1_555
H106 C78 1_555 1_555
H107 C78 1_555 1_555
C79 C78 1_555 1_555
H108 C79 1_555 1_555
H109 C79 1_555 1_555
C80 C79 1_555 1_555
H110 C80 1_555 1_555
H111 C80 1_555 1_555
H112 C80 1_555 1_555
N4 C5 1_555 1_555
N5 C2 1_555 1_555
N9 C15 1_555 1_555
N10 C12 1_555 1_555
N14 C25 1_555 1_555
N15 C22 1_555 1_555
N19 C35 1_555 1_555
N20 C32 1_555 1_555
N24 C45 1_555 1_555
N25 C42 1_555 1_555
N29 C55 1_555 1_555
N30 C52 1_555 1_555
N34 C65 1_555 1_555
N35 C62 1_555 1_555
N39 C75 1_555 1_555
N40 C72 1_555 1_555

#END
