
#######################################################################
#
#                 Cambridge Crystallographic Data Centre
#                                CCDC 
#
#######################################################################
#
# If this CIF has been generated from an entry in the Cambridge 
# Structural Database, then it will include bibliographic, chemical, 
# crystal, experimental, refinement or atomic coordinate data resulting 
# from the CCDC's data processing and validation procedures.
#
#######################################################################

data_CUWBAZ
_chemical_formula_moiety         'C8 H10 Cl1 N5,0.5(C8 H10)'
_chemical_name_systematic        '6-Chloro-9-propyl-purin-2-amine p-xylene'
_symmetry_cell_setting           orthorhombic
_symmetry_space_group_name_H-M   'C c c a'
_symmetry_Int_Tables_number      68
_space_group_name_Hall           '-C 2b 2bc'
loop_
_symmetry_equiv_pos_site_id
_symmetry_equiv_pos_as_xyz
1 x,y,z
2 1/2-x,-y,z
3 -x,y,1/2-z
4 1/2+x,-y,1/2-z
5 1/2+x,1/2+y,z
6 -x,1/2-y,z
7 1/2-x,1/2+y,1/2-z
8 x,1/2-y,1/2-z
9 -x,-y,-z
10 1/2+x,y,-z
11 x,-y,1/2+z
12 1/2-x,y,1/2+z
13 1/2-x,1/2-y,-z
14 x,1/2+y,-z
15 1/2+x,1/2-y,1/2+z
16 -x,1/2+y,1/2+z
_cell_length_a                   15.022(3)
_cell_length_b                   44.140(9)
_cell_length_c                   15.211(3)
_cell_angle_alpha                90
_cell_angle_beta                 90
_cell_angle_gamma                90
_cell_volume                     10086
_exptl_crystal_colour            colorless
_exptl_crystal_description       'rectangular thin plate'
_cell_formula_units_Z            32
_exptl_crystal_recrystallization_method 
'Re-crystallisation from solvent: p-xylene'
_exptl_crystal_preparation       'Very thin and fragile plate crystals'
loop_
_atom_site_label
_atom_site_type_symbol
_atom_site_fract_x
_atom_site_fract_y
_atom_site_fract_z
Cl1 Cl 0.54342(10) 0.58573(4) 0.35317(7)
N1 N 0.48446(8) 0.58825(4) 0.51221(8)
N2 N 0.57099(11) 0.58973(5) 0.64711(7)
N3 N 0.41762(11) 0.59072(6) 0.64741(10)
H1 H 0.4191 0.5917 0.7052
H2 H 0.3662 0.5906 0.6198
N4 N 0.72785(8) 0.58641(5) 0.47046(10)
N5 N 0.72865(10) 0.58857(5) 0.61803(10)
C1 C 0.55857(8) 0.58739(3) 0.46513(7)
C2 C 0.49418(10) 0.58946(4) 0.60128(8)
C3 C 0.64112(10) 0.58856(4) 0.59280(8)
C4 C 0.64083(8) 0.58715(4) 0.50222(8)
C5 C 0.77615(9) 0.58748(5) 0.54164(12)
H3 H 0.8394 0.5875 0.5404
C6 C 0.76366(13) 0.58841(6) 0.70803(11)
H4 H 0.7269 0.6020 0.7449
H5 H 0.8251 0.5965 0.7075
C7 C 0.76444(15) 0.55798(7) 0.74789(11)
H6 H 0.7040 0.5492 0.7433
H7 H 0.7787 0.5600 0.8112
C8 C 0.83066(15) 0.53609(7) 0.70601(14)
H8 H 0.8202 0.5352 0.6425
H9 H 0.8229 0.5159 0.7315
H10 H 0.8915 0.5432 0.7171
C9 C 0.6603(2) 0.7505(2) 0.4754(7)
H11 H 0.5993 0.7508 0.4586
C10 C 0.6865(5) 0.7629(3) 0.5559(6)
H12 H 0.6434 0.7717 0.5938
C11 C 0.7762(6) 0.7624(2) 0.5806(4)
C12 C 0.8039(13) 0.7756(5) 0.6658(8)
H13 H 0.7762 0.7955 0.6732
H14 H 0.8688 0.7777 0.6670
H15 H 0.7850 0.7622 0.7137
C9L C 0.8397(2) 0.7495(2) 0.5246(7)
H11L H 0.9007 0.7492 0.5414
C10L C 0.8135(5) 0.7371(3) 0.4441(6)
H12L H 0.8566 0.7283 0.4062
C11L C 0.7238(6) 0.7376(2) 0.4194(4)
C12L C 0.6961(13) 0.7244(5) 0.3342(8)
H13L H 0.7238 0.7045 0.3268
H14L H 0.6312 0.7223 0.3330
H15L H 0.7150 0.7378 0.2863
Cl2? Cl 0.2938(3) 0.66289(13) 0.64613(18)
N6? N 0.2366(2) 0.66158(13) 0.4864(2)
N7? N 0.3246(3) 0.66048(16) 0.35235(17)
N8? N 0.1712(3) 0.6602(2) 0.3503(3)
H16? H 0.1733 0.6596 0.2925
H17? H 0.1194 0.6604 0.3774
N9? N 0.4795(2) 0.66202(13) 0.5308(2)
N10? N 0.4819(2) 0.66072(13) 0.3832(2)
C13? C 0.3102(2) 0.66182(10) 0.53427(18)
C14? C 0.2472(2) 0.66085(16) 0.3973(2)
C15? C 0.3941(2) 0.66100(11) 0.40747(18)
C16? C 0.3928(2) 0.66188(9) 0.49810(18)
C17? C 0.5286(2) 0.66113(14) 0.4601(3)
H18? H 0.5918 0.6608 0.4621
C18? C 0.5653(4) 0.7510(5) 0.4493(14)
H19? H 0.5309 0.7623 0.4930
H20? H 0.5428 0.7302 0.4458
H21? H 0.5594 0.7608 0.3917
Cl3? Cl 0.29402(15) 0.66514(6) 0.35318(15)
N11? N 0.23314(14) 0.66184(7) 0.51139(16)
N12? N 0.31801(17) 0.66020(7) 0.64730(14)
N13? N 0.16465(16) 0.65914(9) 0.64575(18)
H22? H 0.1654 0.6583 0.7035
H23? H 0.1135 0.6592 0.6175
N14? N 0.47596(16) 0.66206(5) 0.62021(13)
C19? C 0.30778(14) 0.66345(5) 0.46531(15)
C20? C 0.24177(15) 0.66037(7) 0.60053(16)
C21? C 0.38878(15) 0.66169(5) 0.59388(13)
C22? C 0.38961(14) 0.66315(5) 0.50330(13)
C23? C 0.52436(15) 0.66402(4) 0.54452(13)
H24? H 0.5875 0.6649 0.5444
C24? C 0.51003(18) 0.65953(6) 0.71027(13)
H25? H 0.5723 0.6522 0.7113
H26? H 0.4726 0.6460 0.7466
C25? C 0.5030(18) 0.6930(2) 0.741(2)
H27? H 0.4452 0.7011 0.7199
H28? H 0.5014 0.6931 0.8058
C26? C 0.5765(10) 0.7149(4) 0.7109(11)
H29? H 0.6346 0.7070 0.7292
H30? H 0.5667 0.7348 0.7376
H31? H 0.5751 0.7168 0.6467
N15? N 0.4768(2) 0.66456(12) 0.4713(2)
C27? C 0.0179(3) 0.66123(18) 0.7064(3)
H32? H -0.0157 0.6466 0.7427
H33? H 0.0807 0.6544 0.7045
C28? C 0.0142(13) 0.6924(2) 0.7511(14)
H34? H -0.0475 0.7003 0.7504
H35? H 0.0338 0.6907 0.8131
C29? C 0.0763(8) 0.7141(3) 0.7002(10)
H36? H 0.0602 0.7140 0.6378
H37? H 0.0700 0.7347 0.7236
H38? H 0.1381 0.7074 0.7069
C30? C 0.5770(10) 0.5052(4) 0.4498(8)
H39? H 0.6294 0.5090 0.4166
C31? C 0.5736(9) 0.5130(5) 0.5390(8)
H40? H 0.6244 0.5219 0.5657
C32? C 0.4973(9) 0.5081(4) 0.5900(7)
C33? C 0.4915(14) 0.5156(4) 0.6846(7)
H41? H 0.4941 0.5377 0.6921
H42? H 0.5413 0.5062 0.7159
H43? H 0.4352 0.5080 0.7084
C34? C 0.6679(4) 0.7549(3) 0.5409(7)
H44? H 0.6121 0.7581 0.5687
C35? C 0.7382(7) 0.7419(3) 0.5882(3)
C36? C 0.7257(15) 0.7334(6) 0.6815(5)
H45? H 0.6852 0.7160 0.6853
H46? H 0.7003 0.7506 0.7138
H47? H 0.7833 0.7280 0.7073
C37? C 0.6797(5) 0.7629(3) 0.4528(6)
H48? H 0.6319 0.7717 0.4208
C38? C 0.5360(10) 0.4881(5) 0.4222(10)
H49? H 0.5596 0.4798 0.3695
C39? C 0.4436(11) 0.4867(5) 0.4405(11)
H50? H 0.4034 0.4778 0.3998
C40? C 0.4125(11) 0.4990(4) 0.5205(10)
C41? C 0.3245(10) 0.5006(5) 0.5583(12)
H51? H 0.2892 0.5158 0.5266
H52? H 0.3291 0.5065 0.6203
H53? H 0.2956 0.4808 0.5537
loop_
_geom_bond_atom_site_label_1
_geom_bond_atom_site_label_2
_geom_bond_site_symmetry_1
_geom_bond_site_symmetry_2
Cl1 C1 1_555 1_555
N1 C1 1_555 1_555
N2 C2 1_555 1_555
N3 H1 1_555 1_555
H2 N3 1_555 1_555
N4 C4 1_555 1_555
N5 C3 1_555 1_555
C1 C4 1_555 1_555
C2 N1 1_555 1_555
C3 N2 1_555 1_555
C4 C3 1_555 1_555
C5 N4 1_555 1_555
H3 C5 1_555 1_555
C6 N5 1_555 1_555
H4 C6 1_555 1_555
H5 C6 1_555 1_555
C7 C6 1_555 1_555
H6 C7 1_555 1_555
H7 C7 1_555 1_555
C8 C7 1_555 1_555
H8 C8 1_555 1_555
H9 C8 1_555 1_555
H10 C8 1_555 1_555
C9 H11 1_555 1_555
C10 C9 1_555 1_555
H12 C10 1_555 1_555
C11 C10 1_555 1_555
C12 C11 1_555 1_555
H13 C12 1_555 1_555
H14 C12 1_555 1_555
H15 C12 1_555 1_555
C9L C11 1_555 1_555
H11L C9L 1_555 1_555
C10L C9L 1_555 1_555
H12L C10L 1_555 1_555
C11L C9 1_555 1_555
C12L C11L 1_555 1_555
H13L C12L 1_555 1_555
H14L C12L 1_555 1_555
H15L C12L 1_555 1_555
N3 C2 1_555 1_555
N5 C5 1_555 1_555
C10L C11L 1_555 1_555

#END
