
#######################################################################
#
#                 Cambridge Crystallographic Data Centre
#                                CCDC 
#
#######################################################################
#
# If this CIF has been generated from an entry in the Cambridge 
# Structural Database, then it will include bibliographic, chemical, 
# crystal, experimental, refinement or atomic coordinate data resulting 
# from the CCDC's data processing and validation procedures.
#
#######################################################################

data_CUWPER
_chemical_compound_source        'Penicillium brocae MA-231'
_chemical_formula_moiety         'C20 H26 N2 O6 S2,2(H2 O1)'
_chemical_name_systematic        
"1,4,8,11-tetrahydroxy-6a,13a-bis(methylsulfanyl)-1,4,4a,6a,7,7a,8,11,11a,13a,14,14a-dodecahydro-6H,13H-indolo[1',2':4,5]pyrazino[1,2-a]indole-6,13-dione dihydrate"
_chemical_properties_biological  'antimicrobial activity'
_symmetry_cell_setting           orthorhombic
_symmetry_space_group_name_H-M   'P 21 21 21'
_symmetry_Int_Tables_number      19
_space_group_name_Hall           'P 2ac 2ab'
loop_
_symmetry_equiv_pos_site_id
_symmetry_equiv_pos_as_xyz
1 x,y,z
2 1/2-x,-y,1/2+z
3 -x,1/2+y,1/2-z
4 1/2+x,1/2-y,-z
_cell_length_a                   8.3513(7)
_cell_length_b                   11.8611(12)
_cell_length_c                   24.024(3)
_cell_angle_alpha                90
_cell_angle_beta                 90
_cell_angle_gamma                90
_cell_volume                     2379.71
_cell_formula_units_Z            4
loop_
_atom_site_label
_atom_site_type_symbol
_atom_site_fract_x
_atom_site_fract_y
_atom_site_fract_z
N1 N 0.4875(3) 0.7458(2) 0.73544(10)
N2 N 0.3431(3) 0.7128(2) 0.83832(10)
O1 O 0.7246(3) 0.6900(2) 0.77175(9)
O2 O 0.1037(3) 0.6963(2) 0.79491(10)
O3 O 0.8204(3) 0.7299(2) 0.66572(10)
H1 H 0.8149 0.7046 0.6974
O4 O 0.2403(3) 0.7310(2) 0.55717(10)
H2 H 0.1587 0.6979 0.5668
O5 O 0.0057(3) 0.6374(3) 0.89697(11)
H3 H 0.0087 0.6477 0.8632
O6 O 0.5727(3) 0.5597(2) 1.00424(10)
H4 H 0.6565 0.5374 0.9903
S1 S 0.55784(12) 0.87943(8) 0.85851(4)
S2 S 0.29840(11) 0.92754(8) 0.74473(4)
C1 C 0.5847(4) 0.7200(3) 0.77829(14)
C2 C 0.5163(4) 0.7323(3) 0.83614(13)
C3 C 0.2465(4) 0.7238(3) 0.79396(14)
C4 C 0.3165(4) 0.7724(3) 0.74176(13)
C5 C 0.2439(4) 0.7227(3) 0.68883(13)
H5 H 0.2261 0.6422 0.6924
H6 H 0.1438 0.7594 0.6793
C6 C 0.3734(4) 0.7483(3) 0.64656(14)
H7 H 0.3747 0.8300 0.6407
C7 C 0.5275(4) 0.7165(3) 0.67704(13)
H8 H 0.5425 0.6348 0.6744
C8 C 0.6683(4) 0.7743(3) 0.64985(14)
H9 H 0.6649 0.8550 0.6585
C9 C 0.6534(5) 0.7584(4) 0.58804(16)
H10 H 0.7426 0.7761 0.5666
C10 C 0.5260(5) 0.7218(4) 0.56156(15)
H11 H 0.5321 0.7138 0.5231
C11 C 0.3720(5) 0.6923(3) 0.58953(14)
H12 H 0.3650 0.6103 0.5940
C12 C 0.5830(4) 0.6467(3) 0.87803(14)
H13 H 0.5971 0.5731 0.8612
H14 H 0.6841 0.6718 0.8936
C13 C 0.4515(4) 0.6453(3) 0.92175(13)
H15 H 0.4540 0.7173 0.9417
C14 C 0.2991(4) 0.6412(3) 0.88710(13)
H16 H 0.2846 0.5637 0.8739
C15 C 0.1531(5) 0.6732(3) 0.92121(15)
H17 H 0.1512 0.7549 0.9273
C16 C 0.1647(5) 0.6127(4) 0.97614(15)
H18 H 0.0752 0.6144 0.9992
C17 C 0.2903(5) 0.5578(4) 0.99403(16)
H19 H 0.2815 0.5199 1.0278
C18 C 0.4467(5) 0.5517(3) 0.96422(14)
H20 H 0.4545 0.4790 0.9450
C19 C 0.7739(5) 0.8812(4) 0.8572(2)
H21 H 0.8146 0.8329 0.8859
H22 H 0.8113 0.9568 0.8633
H23 H 0.8109 0.8550 0.8216
C20 C 0.0890(5) 0.9493(4) 0.7378(3)
H24 H 0.0570 0.9328 0.7002
H25 H 0.0639 1.0263 0.7463
H26 H 0.0329 0.9004 0.7629
O7 O 1.0011(3) 0.5948(2) 0.59163(12)
H27 H 0.9285 0.6288 0.6099
H28 H 0.9569 0.5526 0.5675
O8 O 0.8138(4) 0.4661(3) 0.94702(14)
H29 H 0.8176 0.3965 0.9389
H30 H 0.8811 0.5014 0.9270
loop_
_geom_bond_atom_site_label_1
_geom_bond_atom_site_label_2
_geom_bond_site_symmetry_1
_geom_bond_site_symmetry_2
N1 C1 1_555 1_555
N2 C2 1_555 1_555
O1 C1 1_555 1_555
O2 C3 1_555 1_555
O3 H1 1_555 1_555
O4 H2 1_555 1_555
O5 H3 1_555 1_555
O6 H4 1_555 1_555
S1 C2 1_555 1_555
S2 C4 1_555 1_555
C1 C2 1_555 1_555
C2 C12 1_555 1_555
C3 N2 1_555 1_555
C4 N1 1_555 1_555
C5 C4 1_555 1_555
H5 C5 1_555 1_555
H6 C5 1_555 1_555
C6 C5 1_555 1_555
H7 C6 1_555 1_555
C7 N1 1_555 1_555
H8 C7 1_555 1_555
C8 O3 1_555 1_555
H9 C8 1_555 1_555
C9 C8 1_555 1_555
H10 C9 1_555 1_555
C10 C9 1_555 1_555
H11 C10 1_555 1_555
C11 O4 1_555 1_555
H12 C11 1_555 1_555
C12 H13 1_555 1_555
H14 C12 1_555 1_555
C13 C12 1_555 1_555
H15 C13 1_555 1_555
C14 N2 1_555 1_555
H16 C14 1_555 1_555
C15 O5 1_555 1_555
H17 C15 1_555 1_555
C16 C15 1_555 1_555
H18 C16 1_555 1_555
C17 C16 1_555 1_555
H19 C17 1_555 1_555
C18 O6 1_555 1_555
H20 C18 1_555 1_555
C19 S1 1_555 1_555
H21 C19 1_555 1_555
H22 C19 1_555 1_555
H23 C19 1_555 1_555
C20 S2 1_555 1_555
H24 C20 1_555 1_555
H25 C20 1_555 1_555
H26 C20 1_555 1_555
O7 H27 1_555 1_555
H28 O7 1_555 1_555
O8 H29 1_555 1_555
H30 O8 1_555 1_555
C3 C4 1_555 1_555
C6 C7 1_555 1_555
C6 C11 1_555 1_555
C7 C8 1_555 1_555
C10 C11 1_555 1_555
C13 C14 1_555 1_555
C13 C18 1_555 1_555
C14 C15 1_555 1_555
C17 C18 1_555 1_555

#END
