
#######################################################################
#
#                 Cambridge Crystallographic Data Centre
#                                CCDC 
#
#######################################################################
#
# If this CIF has been generated from an entry in the Cambridge 
# Structural Database, then it will include bibliographic, chemical, 
# crystal, experimental, refinement or atomic coordinate data resulting 
# from the CCDC's data processing and validation procedures.
#
#######################################################################

data_CUWPIV
_chemical_name_common            
"1,1'-(1,3-phenylene)bis(2-(diphenylphosphino)-1H-imidazole) unknown solvate"
_chemical_formula_moiety         'C36 H28 N4 P2'
_chemical_name_systematic        
'1, 3-Bis(2-diphenylphosphino-3-methylimidazolyl)benzene unknown solvate'
_symmetry_cell_setting           triclinic
_symmetry_space_group_name_H-M   'P -1'
_symmetry_Int_Tables_number      2
_space_group_name_Hall           '-P 1'
loop_
_symmetry_equiv_pos_site_id
_symmetry_equiv_pos_as_xyz
1 x,y,z
2 -x,-y,-z
_cell_length_a                   8.8542(3)
_cell_length_b                   12.9976(4)
_cell_length_c                   14.0901(5)
_cell_angle_alpha                100.0760(10)
_cell_angle_beta                 90.9690(10)
_cell_angle_gamma                92.4060(10)
_cell_volume                     1594.63
_exptl_crystal_colour            colorless
_exptl_crystal_description       block
_cell_formula_units_Z            2
loop_
_atom_site_label
_atom_site_type_symbol
_atom_site_fract_x
_atom_site_fract_y
_atom_site_fract_z
P1 P 0.82524(7) 0.26109(5) 0.15141(5)
P2 P 0.89104(7) 0.26811(5) -0.28550(5)
N1 N 0.6376(2) 0.11416(18) 0.02686(16)
N2 N 0.8626(2) 0.13844(15) -0.03322(14)
N3 N 1.2044(2) 0.27743(16) -0.22677(14)
N4 N 1.1583(3) 0.33236(19) -0.36464(16)
C1 C 0.8175(3) 0.3291(2) -0.38404(18)
C2 C 0.8569(4) 0.4283(3) -0.4022(2)
H1 H 0.9316 0.4691 -0.3642
C3 C 0.7864(5) 0.4673(3) -0.4760(3)
H2 H 0.8145 0.5333 -0.4886
C4 C 0.6731(5) 0.4061(4) -0.5309(3)
H3 H 0.6236 0.4317 -0.5801
C5 C 0.6343(4) 0.3104(4) -0.5136(3)
H4 H 0.5581 0.2702 -0.5507
C6 C 0.7073(4) 0.2713(3) -0.4407(2)
H5 H 0.6805 0.2043 -0.4303
C7 C 0.8406(3) 0.36425(19) -0.18065(17)
C8 C 0.7217(3) 0.3363(2) -0.12681(18)
H6 H 0.6735 0.2705 -0.1440
C9 C 0.6728(3) 0.4044(2) -0.0477(2)
H7 H 0.5918 0.3847 -0.0126
C10 C 0.7443(3) 0.5008(2) -0.0213(2)
H8 H 0.7121 0.5466 0.0320
C11 C 0.8630(3) 0.5302(2) -0.0731(2)
H9 H 0.9108 0.5959 -0.0549
C12 C 0.9120(3) 0.4626(2) -0.15233(19)
H10 H 0.9932 0.4829 -0.1869
C13 C 0.6360(3) 0.2893(2) 0.19724(18)
C14 C 0.5864(3) 0.3897(2) 0.1998(2)
H11 H 0.6496 0.4401 0.1795
C15 C 0.4447(4) 0.4155(3) 0.2323(2)
H12 H 0.4132 0.4832 0.2345
C16 C 0.3504(4) 0.3417(3) 0.2612(2)
H13 H 0.2536 0.3586 0.2813
C17 C 0.3989(3) 0.2421(3) 0.2606(2)
H14 H 0.3356 0.1924 0.2820
C18 C 0.5398(3) 0.2163(2) 0.22874(19)
H15 H 0.5714 0.1489 0.2282
C19 C 0.8978(3) 0.1858(2) 0.23913(18)
C20 C 0.9018(4) 0.0778(2) 0.2265(2)
H16 H 0.8615 0.0369 0.1703
C21 C 0.9653(5) 0.0306(3) 0.2970(2)
H17 H 0.9681 -0.0419 0.2874
C22 C 1.0238(4) 0.0884(4) 0.3802(3)
H18 H 1.0664 0.0556 0.4271
C23 C 1.0197(4) 0.1960(3) 0.3949(2)
H19 H 1.0581 0.2358 0.4522
C24 C 0.9587(3) 0.2445(3) 0.3247(2)
H20 H 0.9581 0.3172 0.3344
C25 C 1.0950(3) 0.2973(2) -0.29211(17)
C26 C 1.3420(3) 0.3051(2) -0.2625(2)
H21 H 1.4371 0.3020 -0.2345
C27 C 1.3107(3) 0.3372(3) -0.3452(2)
H22 H 1.3832 0.3601 -0.3847
C28 C 1.1843(2) 0.23607(18) -0.14093(17)
C29 C 1.0430(2) 0.20808(15) -0.12458(14)
H23 H 0.9649 0.2140 -0.1681
C30 C 1.0164(2) 0.17135(18) -0.04412(16)
C31 C 1.1261(3) 0.1610(2) 0.02315(18)
H24 H 1.1025 0.1364 0.0795
C32 C 1.2736(3) 0.1890(2) 0.00347(19)
H25 H 1.3518 0.1828 0.0467
C33 C 1.3034(3) 0.2259(2) -0.08016(19)
H26 H 1.4019 0.2436 -0.0952
C34 C 0.7771(3) 0.0750(2) -0.10426(18)
H27 H 0.8069 0.0474 -0.1662
C35 C 0.6405(3) 0.0608(2) -0.0655(2)
H28 H 0.5598 0.0203 -0.0975
C36 C 0.7732(3) 0.16140(19) 0.04644(17)
loop_
_geom_bond_atom_site_label_1
_geom_bond_atom_site_label_2
_geom_bond_site_symmetry_1
_geom_bond_site_symmetry_2
P1 C13 1_555 1_555
P2 C1 1_555 1_555
N1 C35 1_555 1_555
N2 C30 1_555 1_555
N3 C25 1_555 1_555
N4 C25 1_555 1_555
C1 C2 1_555 1_555
C2 H1 1_555 1_555
C3 C2 1_555 1_555
H2 C3 1_555 1_555
C4 C3 1_555 1_555
H3 C4 1_555 1_555
C5 C4 1_555 1_555
H4 C5 1_555 1_555
C6 C1 1_555 1_555
H5 C6 1_555 1_555
C7 P2 1_555 1_555
C8 C7 1_555 1_555
H6 C8 1_555 1_555
C9 C8 1_555 1_555
H7 C9 1_555 1_555
C10 C9 1_555 1_555
H8 C10 1_555 1_555
C11 C10 1_555 1_555
H9 C11 1_555 1_555
C12 C7 1_555 1_555
H10 C12 1_555 1_555
C13 C14 1_555 1_555
C14 H11 1_555 1_555
C15 C14 1_555 1_555
H12 C15 1_555 1_555
C16 C15 1_555 1_555
H13 C16 1_555 1_555
C17 C16 1_555 1_555
H14 C17 1_555 1_555
C18 C13 1_555 1_555
H15 C18 1_555 1_555
C19 P1 1_555 1_555
C20 C19 1_555 1_555
H16 C20 1_555 1_555
C21 C20 1_555 1_555
H17 C21 1_555 1_555
C22 C21 1_555 1_555
H18 C22 1_555 1_555
C23 C22 1_555 1_555
H19 C23 1_555 1_555
C24 C19 1_555 1_555
H20 C24 1_555 1_555
C25 P2 1_555 1_555
C26 N3 1_555 1_555
H21 C26 1_555 1_555
C27 N4 1_555 1_555
H22 C27 1_555 1_555
C28 N3 1_555 1_555
C29 C28 1_555 1_555
H23 C29 1_555 1_555
C30 C29 1_555 1_555
C31 C30 1_555 1_555
H24 C31 1_555 1_555
C32 C31 1_555 1_555
H25 C32 1_555 1_555
C33 C28 1_555 1_555
H26 C33 1_555 1_555
C34 N2 1_555 1_555
H27 C34 1_555 1_555
C35 C34 1_555 1_555
H28 C35 1_555 1_555
C36 P1 1_555 1_555
N1 C36 1_555 1_555
N2 C36 1_555 1_555
C5 C6 1_555 1_555
C11 C12 1_555 1_555
C17 C18 1_555 1_555
C23 C24 1_555 1_555
C26 C27 1_555 1_555
C32 C33 1_555 1_555

#END
