
#######################################################################
#
#                 Cambridge Crystallographic Data Centre
#                                CCDC 
#
#######################################################################
#
# If this CIF has been generated from an entry in the Cambridge 
# Structural Database, then it will include bibliographic, chemical, 
# crystal, experimental, refinement or atomic coordinate data resulting 
# from the CCDC's data processing and validation procedures.
#
#######################################################################

data_CUWQUI
_chemical_formula_moiety         'C24 H34 N2 O11 S1'
_chemical_name_systematic        
'methyl 1-(t-butylsulfonyl)-4-(4,5-dimethoxy-2-nitrophenyl)-3-(4-methoxy-4-oxobutyl)-2-oxopiperidine-3-carboxylate'
_symmetry_cell_setting           orthorhombic
_symmetry_space_group_name_H-M   'P 21 21 21'
_symmetry_Int_Tables_number      19
_space_group_name_Hall           'P 2ac 2ab'
loop_
_symmetry_equiv_pos_site_id
_symmetry_equiv_pos_as_xyz
1 x,y,z
2 1/2-x,-y,1/2+z
3 1/2+x,1/2-y,-z
4 -x,1/2+y,1/2-z
_cell_length_a                   7.0707(5)
_cell_length_b                   18.3628(16)
_cell_length_c                   21.0368(14)
_cell_angle_alpha                90
_cell_angle_beta                 90
_cell_angle_gamma                90
_cell_volume                     2731.37
_cell_formula_units_Z            4
loop_
_atom_site_label
_atom_site_type_symbol
_atom_site_fract_x
_atom_site_fract_y
_atom_site_fract_z
C1 C -1.1158(6) -0.8669(3) -0.4947(2)
C2 C -1.1462(6) -0.9378(3) -0.4761(2)
H1 H -1.1560 -0.9746 -0.5063
C3 C -1.1618(6) -0.9540(2) -0.4121(2)
C4 C -1.1404(6) -0.9030(2) -0.36432(19)
C5 C -1.1144(6) -0.8314(3) -0.3852(2)
H2 H -1.1021 -0.7948 -0.3548
C6 C -1.1061(6) -0.8126(3) -0.4480(2)
C7 C -1.1225(6) -0.9218(2) -0.29420(18)
H3 H -1.1963 -0.9663 -0.2871
C8 C -1.2001(7) -0.8641(3) -0.2491(2)
H4 H -1.1209 -0.8210 -0.2506
H5 H -1.3268 -0.8504 -0.2621
C9 C -1.2045(7) -0.8934(3) -0.1828(2)
H6 H -1.2509 -0.8562 -0.1540
H7 H -1.2904 -0.9346 -0.1807
C10 C -0.8680(7) -0.9321(3) -0.2042(2)
C11 C -0.9121(6) -0.9398(3) -0.27590(18)
C12 C -0.8565(6) -1.0182(3) -0.2938(2)
H8 H -0.8838 -1.0260 -0.3385
H9 H -0.7213 -1.0241 -0.2879
C13 C -0.9601(8) -1.0766(3) -0.2545(2)
H10 H -0.9149 -1.0749 -0.2110
H11 H -1.0943 -1.0657 -0.2541
C14 C -0.9311(7) -1.1524(3) -0.2805(3)
H12 H -1.0115 -1.1864 -0.2577
H13 H -0.9671 -1.1536 -0.3250
C15 C -0.7277(11) -1.1754(3) -0.2739(4)
C16 C -0.4459(11) -1.2127(5) -0.3133(6)
H14 H -0.3764 -1.2073 -0.3522
H15 H -0.4292 -1.2613 -0.2973
H16 H -0.4001 -1.1783 -0.2826
C17 C -0.8492(8) -0.8626(3) -0.0469(2)
C18 C -0.9282(10) -0.7908(4) -0.0700(4)
H17 H -0.9097 -0.7869 -0.1151
H18 H -0.8641 -0.7515 -0.0490
H19 H -1.0609 -0.7885 -0.0606
C19 C -0.8777(13) -0.8737(5) 0.0238(3)
H20 H -1.0082 -0.8658 0.0343
H21 H -0.8002 -0.8399 0.0469
H22 H -0.8427 -0.9226 0.0350
C20 C -0.6408(8) -0.8698(4) -0.0626(3)
H23 H -0.5975 -0.9175 -0.0508
H24 H -0.5704 -0.8337 -0.0396
H25 H -0.6225 -0.8629 -0.1074
C21 C -0.7894(7) -0.8827(3) -0.3070(2)
C22 C -0.6159(8) -0.8499(5) -0.3987(3)
H26 H -0.5461 -0.8727 -0.4324
H27 H -0.5308 -0.8227 -0.3722
H28 H -0.7086 -0.8175 -0.4165
C23 C -1.0857(10) -0.6859(3) -0.4259(3)
H29 H -1.0739 -0.6404 -0.4480
H30 H -0.9822 -0.6913 -0.3967
H31 H -1.2029 -0.6867 -0.4028
C24 C -1.0902(10) -0.8996(4) -0.6034(2)
H32 H -1.0756 -0.8773 -0.6444
H33 H -1.2054 -0.9273 -0.6026
H34 H -0.9850 -0.9313 -0.5954
N1 N -1.2095(7) -1.0308(2) -0.3977(2)
N2 N -1.0121(5) -0.9169(2) -0.16255(15)
O1 O -0.6473(9) -1.1757(4) -0.2257(4)
O2 O -0.6594(8) -1.1987(3) -0.3260(2)
O3 O -1.1292(6) -1.0785(2) -0.42756(18)
O4 O -1.3307(7) -1.0425(2) -0.35753(19)
O5 O -1.0972(5) -0.8447(2) -0.55585(15)
O6 O -1.0830(5) -0.74376(19) -0.47021(16)
O7 O -0.7111(5) -0.9059(2) -0.36050(16)
O8 O -0.7713(6) -0.8217(3) -0.2868(2)
O9 O -0.7077(5) -0.9434(3) -0.18717(15)
O10 O -0.8872(7) -1.0028(2) -0.07853(17)
O11 O -1.1736(5) -0.9302(2) -0.06034(14)
S1 S -0.9847(2) -0.93562(8) -0.08405(5)
loop_
_geom_bond_atom_site_label_1
_geom_bond_atom_site_label_2
_geom_bond_site_symmetry_1
_geom_bond_site_symmetry_2
C1 C2 1_555 1_555
C2 H1 1_555 1_555
C3 C2 1_555 1_555
C4 C3 1_555 1_555
C5 C4 1_555 1_555
H2 C5 1_555 1_555
C6 C1 1_555 1_555
C7 C4 1_555 1_555
H3 C7 1_555 1_555
C8 C7 1_555 1_555
H4 C8 1_555 1_555
H5 C8 1_555 1_555
C9 C8 1_555 1_555
H6 C9 1_555 1_555
H7 C9 1_555 1_555
C10 C11 1_555 1_555
C11 C7 1_555 1_555
C12 C11 1_555 1_555
H8 C12 1_555 1_555
H9 C12 1_555 1_555
C13 C12 1_555 1_555
H10 C13 1_555 1_555
H11 C13 1_555 1_555
C14 C13 1_555 1_555
H12 C14 1_555 1_555
H13 C14 1_555 1_555
C15 C14 1_555 1_555
C16 H14 1_555 1_555
H15 C16 1_555 1_555
H16 C16 1_555 1_555
C17 C18 1_555 1_555
C18 H17 1_555 1_555
H18 C18 1_555 1_555
H19 C18 1_555 1_555
C19 C17 1_555 1_555
H20 C19 1_555 1_555
H21 C19 1_555 1_555
H22 C19 1_555 1_555
C20 C17 1_555 1_555
H23 C20 1_555 1_555
H24 C20 1_555 1_555
H25 C20 1_555 1_555
C21 C11 1_555 1_555
C22 H26 1_555 1_555
H27 C22 1_555 1_555
H28 C22 1_555 1_555
C23 H29 1_555 1_555
H30 C23 1_555 1_555
H31 C23 1_555 1_555
C24 H32 1_555 1_555
H33 C24 1_555 1_555
H34 C24 1_555 1_555
N1 C3 1_555 1_555
N2 C9 1_555 1_555
O1 C15 1_555 1_555
O2 C15 1_555 1_555
O3 N1 1_555 1_555
O4 N1 1_555 1_555
O5 C1 1_555 1_555
O6 C6 1_555 1_555
O7 C21 1_555 1_555
O8 C21 1_555 1_555
O9 C10 1_555 1_555
O10 S1 1_555 1_555
O11 S1 1_555 1_555
S1 C17 1_555 1_555
C5 C6 1_555 1_555
C10 N2 1_555 1_555
C16 O2 1_555 1_555
C22 O7 1_555 1_555
C23 O6 1_555 1_555
C24 O5 1_555 1_555
N2 S1 1_555 1_555

#END
