
#######################################################################
#
#                 Cambridge Crystallographic Data Centre
#                                CCDC 
#
#######################################################################
#
# If this CIF has been generated from an entry in the Cambridge 
# Structural Database, then it will include bibliographic, chemical, 
# crystal, experimental, refinement or atomic coordinate data resulting 
# from the CCDC's data processing and validation procedures.
#
#######################################################################

data_CUWROD
_chemical_formula_moiety         'C72 H52 N4 O4'
_chemical_name_systematic        
4,4'-(1,6-bis(4-(pyridin-4-ylethynyl)phenyl)hex-3-ene-1,5-diyne-3,4-diyl)bis(N,N-bis(4-methoxyphenyl)aniline)
_symmetry_cell_setting           triclinic
_symmetry_space_group_name_H-M   'P -1'
_symmetry_Int_Tables_number      2
_space_group_name_Hall           '-P 1'
loop_
_symmetry_equiv_pos_site_id
_symmetry_equiv_pos_as_xyz
1 x,y,z
2 -x,-y,-z
_cell_length_a                   9.9916(6)
_cell_length_b                   15.6617(9)
_cell_length_c                   18.6841(11)
_cell_angle_alpha                67.994(2)
_cell_angle_beta                 85.859(2)
_cell_angle_gamma                89.203(2)
_cell_volume                     2703.43
_exptl_crystal_colour            'light red'
_exptl_crystal_description       prism
_cell_formula_units_Z            2
_exptl_crystal_recrystallization_method ethanol/dichloromethane
loop_
_atom_site_label
_atom_site_type_symbol
_atom_site_fract_x
_atom_site_fract_y
_atom_site_fract_z
O1 O -0.03033(11) -0.11130(8) 0.49902(6)
O2 O 0.35827(11) -0.20785(7) 0.07533(6)
O3 O 0.16163(13) 1.17489(7) -0.09780(6)
O4 O 0.53474(12) 0.88835(8) -0.46243(7)
N1 N -0.55391(16) 0.30041(12) 0.71306(8)
N2 N 1.02143(15) 0.67857(11) -0.67723(8)
N3 N 0.22537(13) 0.05310(8) 0.20394(7)
N4 N 0.25970(13) 0.87550(8) -0.18719(7)
C1 C 0.27763(14) 0.43567(9) 0.01674(8)
C2 C 0.21046(14) 0.50531(9) 0.03103(8)
C3 C 0.11666(14) 0.48424(9) 0.09675(8)
C4 C 0.03965(15) 0.46590(10) 0.15284(8)
C5 C -0.04295(15) 0.43934(10) 0.22380(8)
C6 C -0.16214(16) 0.48519(11) 0.22829(9)
C7 C -0.23757(17) 0.46208(12) 0.29807(9)
C8 C -0.19528(16) 0.39316(11) 0.36460(9)
C9 C -0.07875(18) 0.34557(12) 0.35969(9)
C10 C -0.00361(17) 0.36837(11) 0.28995(9)
C11 C -0.27088(18) 0.37301(12) 0.43756(10)
C12 C -0.33289(17) 0.35987(12) 0.49794(9)
C13 C -0.40736(16) 0.34113(11) 0.57064(9)
C14 C -0.53480(18) 0.37628(13) 0.57511(10)
C15 C -0.60212(19) 0.35339(14) 0.64755(11)
C16 C -0.4324(2) 0.26781(15) 0.70765(11)
C17 C -0.35637(19) 0.28597(12) 0.63932(10)
C18 C 0.36186(15) 0.45493(9) -0.05266(8)
C19 C 0.43601(15) 0.47004(10) -0.10973(8)
C20 C 0.52022(15) 0.49839(10) -0.18006(8)
C21 C 0.51378(16) 0.58906(11) -0.23315(9)
C22 C 0.59020(16) 0.61749(11) -0.30306(9)
C23 C 0.67354(16) 0.55555(11) -0.32169(9)
C24 C 0.68298(19) 0.46606(12) -0.26789(10)
C25 C 0.60781(18) 0.43776(12) -0.19770(10)
C26 C 0.74754(17) 0.58352(11) -0.39579(9)
C27 C 0.80746(16) 0.60531(11) -0.45796(9)
C28 C 0.87990(15) 0.63030(11) -0.53205(8)
C29 C 0.92040(18) 0.72065(12) -0.57477(9)
C30 C 0.98968(18) 0.74068(13) -0.64606(10)
C31 C 0.98084(17) 0.59269(13) -0.63631(10)
C32 C 0.91053(16) 0.56521(11) -0.56478(9)
C33 C 0.26206(14) 0.33688(9) 0.06762(8)
C34 C 0.24589(15) 0.27170(10) 0.03455(8)
C35 C 0.23043(15) 0.17903(10) 0.07899(8)
C36 C 0.23431(14) 0.14759(9) 0.15925(8)
C37 C 0.25150(15) 0.21208(10) 0.19314(8)
C38 C 0.26399(15) 0.30487(10) 0.14833(8)
C39 C 0.15954(15) 0.01724(9) 0.27956(8)
C40 C 0.03908(16) 0.05159(10) 0.29801(9)
C41 C -0.02688(16) 0.01102(11) 0.37102(9)
C42 C 0.02680(15) -0.06521(10) 0.42578(8)
C43 C 0.14770(15) -0.09985(10) 0.40781(9)
C44 C 0.21363(15) -0.05875(10) 0.33570(8)
C45 C -0.16729(19) -0.09183(15) 0.51354(12)
C46 C 0.26128(15) -0.01153(9) 0.16864(8)
C47 C 0.39067(15) -0.01282(10) 0.13740(8)
C48 C 0.42697(15) -0.07603(10) 0.10398(8)
C49 C 0.33236(15) -0.13987(9) 0.10362(8)
C50 C 0.20189(16) -0.13847(10) 0.13436(9)
C51 C 0.16612(16) -0.07433(10) 0.16619(9)
C52 C 0.49116(18) -0.21118(12) 0.04372(11)
C53 C 0.22459(14) 0.60359(9) -0.02179(8)
C54 C 0.11238(15) 0.65896(10) -0.03921(9)
C55 C 0.12265(16) 0.74861(10) -0.09299(9)
C56 C 0.24691(15) 0.78463(9) -0.12901(8)
C57 C 0.36033(15) 0.73143(10) -0.10930(9)
C58 C 0.34955(15) 0.64196(10) -0.05628(8)
C59 C 0.23690(14) 0.95283(10) -0.16666(8)
C60 C 0.22022(16) 0.94269(11) -0.08888(9)
C61 C 0.19415(17) 1.01734(11) -0.06844(9)
C62 C 0.18735(16) 1.10527(10) -0.12451(9)
C63 C 0.20675(16) 1.11685(10) -0.20187(9)
C64 C 0.22858(15) 1.04126(10) -0.22243(9)
C65 C 0.1447(2) 1.26452(11) -0.15428(10)
C66 C 0.32776(15) 0.88135(10) -0.25870(8)
C67 C 0.43905(16) 0.93889(11) -0.29213(9)
C68 C 0.50470(17) 0.93933(11) -0.36002(9)
C69 C 0.46146(15) 0.88248(10) -0.39567(9)
C70 C 0.35242(16) 0.82418(11) -0.36262(9)
C71 C 0.28666(16) 0.82450(10) -0.29473(10)
C72 C 0.4964(2) 0.83059(14) -0.50055(11)
H1 H -0.1902(17) 0.5330(12) 0.1819(10)
H2 H -0.3218(19) 0.4945(12) 0.2994(10)
H3 H -0.0481(19) 0.2970(13) 0.4050(11)
H4 H 0.0792(19) 0.3381(13) 0.2858(10)
H5 H -0.576(2) 0.4163(14) 0.5261(12)
H6 H -0.691(2) 0.3749(15) 0.6503(12)
H7 H -0.395(2) 0.2306(16) 0.7577(14)
H8 H -0.265(2) 0.2608(14) 0.6396(11)
H9 H 0.4549(18) 0.6329(12) -0.2206(10)
H10 H 0.5808(18) 0.6826(13) -0.3419(10)
H11 H 0.746(2) 0.4205(13) -0.2795(11)
H12 H 0.6157(18) 0.3751(13) -0.1608(11)
H13 H 0.8941(18) 0.7696(13) -0.5537(11)
H14 H 1.0179(19) 0.8065(14) -0.6786(11)
H15 H 1.0039(19) 0.5453(13) -0.6606(11)
H16 H 0.8843(19) 0.5019(13) -0.5376(11)
H17 H 0.2415(17) 0.2924(11) -0.0217(10)
H18 H 0.2181(15) 0.1356(11) 0.0563(9)
H19 H 0.2586(16) 0.1912(11) 0.2483(10)
H20 H 0.2770(17) 0.3486(12) 0.1727(10)
H21 H 0.0000(17) 0.1043(12) 0.2585(10)
H22 H -0.1087(18) 0.0370(12) 0.3824(10)
H23 H 0.1838(19) -0.1509(14) 0.4463(11)
H24 H 0.2976(17) -0.0813(11) 0.3223(9)
H25 H -0.2252(19) -0.1022(13) 0.4756(11)
H26 H -0.1813(18) -0.0265(13) 0.5100(10)
H27 H -0.195(2) -0.1377(14) 0.5662(13)
H28 H 0.4548(17) 0.0312(11) 0.1395(9)
H29 H 0.5186(16) -0.0767(10) 0.0828(8)
H30 H 0.1347(18) -0.1837(12) 0.1322(10)
H31 H 0.0759(18) -0.0704(11) 0.1857(10)
H32 H 0.5554(18) -0.2203(11) 0.0830(10)
H33 H 0.4893(16) -0.2646(12) 0.0278(9)
H34 H 0.5120(19) -0.1506(14) -0.0007(11)
H35 H 0.0208(19) 0.6346(12) -0.0144(10)
H36 H 0.0463(18) 0.7855(12) -0.1057(10)
H37 H 0.4479(16) 0.7571(11) -0.1314(9)
H38 H 0.4291(17) 0.6066(11) -0.0420(9)
H39 H 0.2270(17) 0.8850(12) -0.0493(10)
H40 H 0.1789(16) 1.0130(11) -0.0178(10)
H41 H 0.2030(18) 1.1753(13) -0.2414(11)
H42 H 0.2403(16) 1.0520(11) -0.2773(10)
H43 H 0.0700(18) 1.2641(11) -0.1882(10)
H44 H 0.2317(19) 1.2884(12) -0.1839(11)
H45 H 0.1095(17) 1.3012(12) -0.1246(10)
H46 H 0.4688(16) 0.9786(11) -0.2680(9)
H47 H 0.5820(18) 0.9803(12) -0.3842(10)
H48 H 0.3247(17) 0.7835(12) -0.3848(10)
H49 H 0.2147(19) 0.7857(13) -0.2722(10)
H50 H 0.509(2) 0.7629(16) -0.4649(13)
H51 H 0.402(2) 0.8432(13) -0.5163(11)
H52 H 0.5622(19) 0.8438(13) -0.5486(12)
loop_
_geom_bond_atom_site_label_1
_geom_bond_atom_site_label_2
_geom_bond_site_symmetry_1
_geom_bond_site_symmetry_2
O1 C42 1_555 1_555
O2 C49 1_555 1_555
O3 C62 1_555 1_555
O4 C69 1_555 1_555
N1 C15 1_555 1_555
N2 C30 1_555 1_555
N3 C36 1_555 1_555
N4 C56 1_555 1_555
C1 C2 1_555 1_555
C2 C3 1_555 1_555
C3 C4 1_555 1_555
C4 C5 1_555 1_555
C5 C6 1_555 1_555
C6 C7 1_555 1_555
C7 C8 1_555 1_555
C8 C9 1_555 1_555
C9 C10 1_555 1_555
C10 C5 1_555 1_555
C11 C8 1_555 1_555
C12 C11 1_555 1_555
C13 C12 1_555 1_555
C14 C13 1_555 1_555
C15 C14 1_555 1_555
C16 N1 1_555 1_555
C17 C13 1_555 1_555
C18 C1 1_555 1_555
C19 C18 1_555 1_555
C20 C19 1_555 1_555
C21 C20 1_555 1_555
C22 C21 1_555 1_555
C23 C22 1_555 1_555
C24 C23 1_555 1_555
C25 C20 1_555 1_555
C26 C23 1_555 1_555
C27 C26 1_555 1_555
C28 C27 1_555 1_555
C29 C28 1_555 1_555
C30 C29 1_555 1_555
C31 N2 1_555 1_555
C32 C28 1_555 1_555
C33 C1 1_555 1_555
C34 C33 1_555 1_555
C35 C34 1_555 1_555
C36 C35 1_555 1_555
C37 C36 1_555 1_555
C38 C33 1_555 1_555
C39 N3 1_555 1_555
C40 C39 1_555 1_555
C41 C40 1_555 1_555
C42 C41 1_555 1_555
C43 C42 1_555 1_555
C44 C39 1_555 1_555
C45 O1 1_555 1_555
C46 N3 1_555 1_555
C47 C46 1_555 1_555
C48 C47 1_555 1_555
C49 C48 1_555 1_555
C50 C49 1_555 1_555
C51 C46 1_555 1_555
C52 O2 1_555 1_555
C53 C2 1_555 1_555
C54 C53 1_555 1_555
C55 C54 1_555 1_555
C56 C55 1_555 1_555
C57 C56 1_555 1_555
C58 C53 1_555 1_555
C59 N4 1_555 1_555
C60 C59 1_555 1_555
C61 C60 1_555 1_555
C62 C61 1_555 1_555
C63 C62 1_555 1_555
C64 C59 1_555 1_555
C65 O3 1_555 1_555
C66 N4 1_555 1_555
C67 C66 1_555 1_555
C68 C67 1_555 1_555
C69 C68 1_555 1_555
C70 C69 1_555 1_555
C71 C66 1_555 1_555
C72 O4 1_555 1_555
H1 C6 1_555 1_555
H2 C7 1_555 1_555
H3 C9 1_555 1_555
H4 C10 1_555 1_555
H5 C14 1_555 1_555
H6 C15 1_555 1_555
H7 C16 1_555 1_555
H8 C17 1_555 1_555
H9 C21 1_555 1_555
H10 C22 1_555 1_555
H11 C24 1_555 1_555
H12 C25 1_555 1_555
H13 C29 1_555 1_555
H14 C30 1_555 1_555
H15 C31 1_555 1_555
H16 C32 1_555 1_555
H17 C34 1_555 1_555
H18 C35 1_555 1_555
H19 C37 1_555 1_555
H20 C38 1_555 1_555
H21 C40 1_555 1_555
H22 C41 1_555 1_555
H23 C43 1_555 1_555
H24 C44 1_555 1_555
H25 C45 1_555 1_555
H26 C45 1_555 1_555
H27 C45 1_555 1_555
H28 C47 1_555 1_555
H29 C48 1_555 1_555
H30 C50 1_555 1_555
H31 C51 1_555 1_555
H32 C52 1_555 1_555
H33 C52 1_555 1_555
H34 C52 1_555 1_555
H35 C54 1_555 1_555
H36 C55 1_555 1_555
H37 C57 1_555 1_555
H38 C58 1_555 1_555
H39 C60 1_555 1_555
H40 C61 1_555 1_555
H41 C63 1_555 1_555
H42 C64 1_555 1_555
H43 C65 1_555 1_555
H44 C65 1_555 1_555
H45 C65 1_555 1_555
H46 C67 1_555 1_555
H47 C68 1_555 1_555
H48 C70 1_555 1_555
H49 C71 1_555 1_555
H50 C72 1_555 1_555
H51 C72 1_555 1_555
H52 C72 1_555 1_555
C16 C17 1_555 1_555
C24 C25 1_555 1_555
C31 C32 1_555 1_555
C37 C38 1_555 1_555
C43 C44 1_555 1_555
C50 C51 1_555 1_555
C57 C58 1_555 1_555
C63 C64 1_555 1_555
C70 C71 1_555 1_555

#END
