
#######################################################################
#
#                 Cambridge Crystallographic Data Centre
#                                CCDC 
#
#######################################################################
#
# If this CIF has been generated from an entry in the Cambridge 
# Structural Database, then it will include bibliographic, chemical, 
# crystal, experimental, refinement or atomic coordinate data resulting 
# from the CCDC's data processing and validation procedures.
#
#######################################################################

data_CUWRUJ
_chemical_formula_moiety         'C24 H26 Br2 Si2'
_chemical_name_systematic        
(3,4-bis(4-bromophenyl)hex-3-ene-1,5-diyne-1,6-diyl)bis(trimethylsilane)
_symmetry_cell_setting           triclinic
_symmetry_space_group_name_H-M   'P -1'
_symmetry_Int_Tables_number      2
_space_group_name_Hall           '-P 1'
loop_
_symmetry_equiv_pos_site_id
_symmetry_equiv_pos_as_xyz
1 x,y,z
2 -x,-y,-z
_cell_length_a                   7.5780(5)
_cell_length_b                   9.1129(6)
_cell_length_c                   9.9879(7)
_cell_angle_alpha                114.280(2)
_cell_angle_beta                 94.306(2)
_cell_angle_gamma                95.903(2)
_cell_volume                     620.134
_exptl_crystal_colour            'light colorless'
_exptl_crystal_description       plate
_cell_formula_units_Z            1
_exptl_crystal_recrystallization_method ethanol/dichloromethane
loop_
_atom_site_label
_atom_site_type_symbol
_atom_site_fract_x
_atom_site_fract_y
_atom_site_fract_z
Br1 Br 1.29237(4) 0.83854(4) 0.46576(4)
Si1 Si 0.28932(11) 0.20850(9) -0.03162(8)
C1 C 0.5386(3) 0.4944(3) 0.4388(3)
C2 C 0.4506(3) 0.3959(3) 0.2913(3)
C3 C 0.3885(3) 0.3210(3) 0.1637(3)
C4 C 0.2404(5) -0.0108(4) -0.0713(4)
C5 C 0.0795(5) 0.2897(4) -0.0552(4)
C6 C 0.4496(6) 0.2416(5) -0.1502(4)
C7 C 0.7193(3) 0.5816(3) 0.4461(3)
C8 C 0.7728(3) 0.7447(3) 0.5426(3)
C9 C 0.9421(3) 0.8222(3) 0.5471(3)
C10 C 1.0582(3) 0.7351(3) 0.4552(3)
C11 C 1.0076(4) 0.5745(3) 0.3565(3)
C12 C 0.8383(3) 0.4994(3) 0.3515(3)
H1 H 0.342(5) -0.052(4) -0.072(4)
H2 H 0.164(6) -0.065(5) -0.157(5)
H3 H 0.177(6) -0.024(5) 0.006(5)
H4 H 0.025(5) 0.233(5) -0.152(5)
H5 H 0.113(5) 0.394(5) -0.037(4)
H6 H -0.011(5) 0.282(5) 0.024(4)
H7 H 0.557(5) 0.214(4) -0.139(4)
H8 H 0.402(6) 0.185(6) -0.245(6)
H9 H 0.494(6) 0.365(6) -0.122(5)
H10 H 0.697(4) 0.801(4) 0.603(3)
H11 H 0.978(4) 0.937(4) 0.614(3)
H12 H 1.084(4) 0.516(4) 0.290(4)
H13 H 0.798(4) 0.389(4) 0.287(3)
Br1A Br -0.29237(4) 0.16146(4) 0.53424(4)
Si1A Si 0.71068(11) 0.79150(9) 1.03162(8)
C1A C 0.4614(3) 0.5056(3) 0.5612(3)
C2A C 0.5494(3) 0.6041(3) 0.7087(3)
C3A C 0.6115(3) 0.6790(3) 0.8363(3)
C4A C 0.7596(5) 1.0108(4) 1.0713(4)
C5A C 0.9205(5) 0.7103(4) 1.0552(4)
C6A C 0.5504(6) 0.7584(5) 1.1502(4)
C7A C 0.2807(3) 0.4184(3) 0.5539(3)
C8A C 0.2272(3) 0.2553(3) 0.4574(3)
C9A C 0.0579(3) 0.1778(3) 0.4529(3)
C10A C -0.0582(3) 0.2649(3) 0.5448(3)
C11A C -0.0076(4) 0.4255(3) 0.6435(3)
C12A C 0.1617(3) 0.5006(3) 0.6485(3)
H1A H 0.658(5) 1.052(4) 1.072(4)
H2A H 0.836(6) 1.065(5) 1.157(5)
H3A H 0.823(6) 1.024(5) 0.994(5)
H4A H 0.975(5) 0.767(5) 1.152(5)
H5A H 0.887(5) 0.606(5) 1.037(4)
H6A H 1.011(5) 0.718(5) 0.976(4)
H7A H 0.443(5) 0.786(4) 1.139(4)
H8A H 0.598(6) 0.815(6) 1.245(6)
H9A H 0.506(6) 0.635(6) 1.122(5)
H10A H 0.303(4) 0.199(4) 0.397(3)
H11A H 0.022(4) 0.063(4) 0.386(3)
H12A H -0.084(4) 0.484(4) 0.710(4)
H13A H 0.202(4) 0.611(4) 0.713(3)
loop_
_geom_bond_atom_site_label_1
_geom_bond_atom_site_label_2
_geom_bond_site_symmetry_1
_geom_bond_site_symmetry_2
Br1 C10 1_555 1_555
Si1 C3 1_555 1_555
C1 C2 1_555 1_555
C2 C3 1_555 1_555
C4 Si1 1_555 1_555
C5 Si1 1_555 1_555
C6 Si1 1_555 1_555
C7 C1 1_555 1_555
C8 C7 1_555 1_555
C9 C8 1_555 1_555
C10 C9 1_555 1_555
C11 C10 1_555 1_555
C12 C7 1_555 1_555
H1 C4 1_555 1_555
H2 C4 1_555 1_555
H3 C4 1_555 1_555
H4 C5 1_555 1_555
H5 C5 1_555 1_555
H6 C5 1_555 1_555
H7 C6 1_555 1_555
H8 C6 1_555 1_555
H9 C6 1_555 1_555
H10 C8 1_555 1_555
H11 C9 1_555 1_555
H12 C11 1_555 1_555
H13 C12 1_555 1_555
Br1A C10A 1_555 1_555
Si1A C3A 1_555 1_555
C1A C1 1_555 1_555
C2A C1A 1_555 1_555
C3A C2A 1_555 1_555
C4A Si1A 1_555 1_555
C5A Si1A 1_555 1_555
C6A Si1A 1_555 1_555
C7A C1A 1_555 1_555
C8A C7A 1_555 1_555
C9A C8A 1_555 1_555
C10A C9A 1_555 1_555
C11A C10A 1_555 1_555
C12A C7A 1_555 1_555
H1A C4A 1_555 1_555
H2A C4A 1_555 1_555
H3A C4A 1_555 1_555
H4A C5A 1_555 1_555
H5A C5A 1_555 1_555
H6A C5A 1_555 1_555
H7A C6A 1_555 1_555
H8A C6A 1_555 1_555
H9A C6A 1_555 1_555
H10A C8A 1_555 1_555
H11A C9A 1_555 1_555
H12A C11A 1_555 1_555
H13A C12A 1_555 1_555
C11 C12 1_555 1_555
C11A C12A 1_555 1_555

#END
