
#######################################################################
#
#                 Cambridge Crystallographic Data Centre
#                                CCDC 
#
#######################################################################
#
# If this CIF has been generated from an entry in the Cambridge 
# Structural Database, then it will include bibliographic, chemical, 
# crystal, experimental, refinement or atomic coordinate data resulting 
# from the CCDC's data processing and validation procedures.
#
#######################################################################

data_CUWRAP
_chemical_formula_moiety         'C18 H22 N2 O6'
_chemical_name_systematic        
'methyl 4-(4,5-dimethoxy-2-nitrophenyl)-2,3,4,4a,5,6-hexahydro-1H-cyclopenta[b]pyridine-7-carboxylate'
_symmetry_cell_setting           monoclinic
_symmetry_space_group_name_H-M   'C 2'
_symmetry_Int_Tables_number      5
_space_group_name_Hall           'C 2y'
loop_
_symmetry_equiv_pos_site_id
_symmetry_equiv_pos_as_xyz
1 x,y,z
2 -x,y,-z
3 1/2+x,1/2+y,z
4 1/2-x,1/2+y,-z
_cell_length_a                   27.344(2)
_cell_length_b                   8.4211(9)
_cell_length_c                   7.8112(8)
_cell_angle_alpha                90
_cell_angle_beta                 93.348(7)
_cell_angle_gamma                90
_cell_volume                     1795.59
_cell_formula_units_Z            4
loop_
_atom_site_label
_atom_site_type_symbol
_atom_site_fract_x
_atom_site_fract_y
_atom_site_fract_z
C1 C 0.37527(16) 1.3382(7) 0.1108(7)
H1 H 0.3671 1.2836 0.0051
H2 H 0.3734 1.4507 0.0920
H3 H 0.3526 1.3082 0.1945
C2 C 0.43409(14) 1.1387(5) 0.1894(4)
C3 C 0.48497(14) 1.1108(5) 0.2274(4)
C4 C 0.50514(12) 0.9619(5) 0.2261(4)
C5 C 0.50695(16) 0.6694(5) 0.2406(6)
H4 H 0.4956 0.5933 0.1540
H5 H 0.4977 0.6304 0.3510
C6 C 0.56280(15) 0.6816(5) 0.2421(6)
H6 H 0.5773 0.5874 0.2956
H7 H 0.5727 0.6860 0.1250
C7 C 0.58188(12) 0.8282(5) 0.3387(5)
H8 H 0.5686 0.8267 0.4524
C8 C 0.56027(12) 0.9715(5) 0.2422(4)
H9 H 0.5723 0.9711 0.1265
C9 C 0.56883(14) 1.1367(5) 0.3185(5)
H10 H 0.5988 1.1825 0.2800
H11 H 0.5710 1.1322 0.4428
C10 C 0.52407(14) 1.2347(5) 0.2529(5)
H12 H 0.5153 1.3131 0.3367
H13 H 0.5301 1.2878 0.1459
C11 C 0.63767(12) 0.8323(5) 0.3639(4)
C12 C 0.66432(13) 0.7831(5) 0.5114(5)
C13 C 0.71489(14) 0.7977(6) 0.5335(6)
H14 H 0.7311 0.7632 0.6347
C14 C 0.74093(14) 0.8630(6) 0.4061(6)
C15 C 0.71583(13) 0.9092(5) 0.2522(5)
C16 C 0.66586(13) 0.8958(5) 0.2350(5)
H15 H 0.6498 0.9303 0.1335
C17 C 0.72388(16) 1.0425(8) -0.0135(6)
H16 H 0.7492 1.0831 -0.0814
H17 H 0.7032 1.1282 0.0187
H18 H 0.7047 0.9659 -0.0790
C18 C 0.81704(18) 0.8441(12) 0.5686(10)
H19 H 0.8502 0.8810 0.5643
H20 H 0.8170 0.7308 0.5818
H21 H 0.8022 0.8923 0.6640
N1 N 0.48304(11) 0.8216(4) 0.2055(4)
H22 H 0.4527 0.8208 0.1691
N2 N 0.64045(13) 0.7124(5) 0.6566(5)
O1 O 0.40176(9) 1.0383(4) 0.1692(4)
O2 O 0.42428(10) 1.2963(4) 0.1722(4)
O3 O 0.60260(11) 0.6366(5) 0.6283(4)
O4 O 0.66010(12) 0.7278(4) 0.8004(4)
O5 O 0.74505(9) 0.9702(5) 0.1343(4)
O6 O 0.79018(10) 0.8857(5) 0.4143(4)
loop_
_geom_bond_atom_site_label_1
_geom_bond_atom_site_label_2
_geom_bond_site_symmetry_1
_geom_bond_site_symmetry_2
C1 H1 1_555 1_555
H2 C1 1_555 1_555
H3 C1 1_555 1_555
C2 C3 1_555 1_555
C3 C4 1_555 1_555
C4 C8 1_555 1_555
C5 H4 1_555 1_555
H5 C5 1_555 1_555
C6 C5 1_555 1_555
H6 C6 1_555 1_555
H7 C6 1_555 1_555
C7 C6 1_555 1_555
H8 C7 1_555 1_555
C8 C7 1_555 1_555
H9 C8 1_555 1_555
C9 C8 1_555 1_555
H10 C9 1_555 1_555
H11 C9 1_555 1_555
C10 C3 1_555 1_555
H12 C10 1_555 1_555
H13 C10 1_555 1_555
C11 C7 1_555 1_555
C12 C11 1_555 1_555
C13 C12 1_555 1_555
H14 C13 1_555 1_555
C14 C13 1_555 1_555
C15 C14 1_555 1_555
C16 C11 1_555 1_555
H15 C16 1_555 1_555
C17 H16 1_555 1_555
H17 C17 1_555 1_555
H18 C17 1_555 1_555
C18 H19 1_555 1_555
H20 C18 1_555 1_555
H21 C18 1_555 1_555
N1 C4 1_555 1_555
H22 N1 1_555 1_555
N2 C12 1_555 1_555
O1 C2 1_555 1_555
O2 C1 1_555 1_555
O3 N2 1_555 1_555
O4 N2 1_555 1_555
O5 C15 1_555 1_555
O6 C14 1_555 1_555
C2 O2 1_555 1_555
C5 N1 1_555 1_555
C9 C10 1_555 1_555
C15 C16 1_555 1_555
C17 O5 1_555 1_555
C18 O6 1_555 1_555

#END
