
#######################################################################
#
#                 Cambridge Crystallographic Data Centre
#                                CCDC 
#
#######################################################################
#
# If this CIF has been generated from an entry in the Cambridge 
# Structural Database, then it will include bibliographic, chemical, 
# crystal, experimental, refinement or atomic coordinate data resulting 
# from the CCDC's data processing and validation procedures.
#
#######################################################################

data_CUWSAQ
_chemical_formula_moiety         'C36 H50 Br2 Si2'
_chemical_name_systematic        
(3,4-bis(4-bromophenyl)hex-3-ene-1,5-diyne-1,6-diyl)bis(triisopropylsilane)
_symmetry_cell_setting           monoclinic
_symmetry_space_group_name_H-M   'P 21/c'
_symmetry_Int_Tables_number      14
_space_group_name_Hall           '-P 2ybc'
loop_
_symmetry_equiv_pos_site_id
_symmetry_equiv_pos_as_xyz
1 x,y,z
2 -x,1/2+y,1/2-z
3 -x,-y,-z
4 x,1/2-y,1/2+z
_cell_length_a                   10.5232(5)
_cell_length_b                   8.0808(4)
_cell_length_c                   20.8850(11)
_cell_angle_alpha                90
_cell_angle_beta                 102.194(2)
_cell_angle_gamma                90
_cell_volume                     1735.9
_exptl_crystal_colour            'light colorless'
_exptl_crystal_description       prism
_cell_formula_units_Z            2
_exptl_crystal_recrystallization_method ethanol/dichloromethane
loop_
_atom_site_label
_atom_site_type_symbol
_atom_site_fract_x
_atom_site_fract_y
_atom_site_fract_z
Br1 Br 0.272086(18) -0.71592(2) 0.380443(9)
Si1 Si 0.75598(4) 0.17205(5) 0.34042(2)
C1 C 0.51088(16) -0.03834(19) 0.47282(8)
C2 C 0.59258(16) 0.03305(19) 0.43276(8)
C3 C 0.65669(16) 0.08692(19) 0.39601(8)
C4 C 0.45153(17) -0.20129(19) 0.44955(8)
C5 C 0.53012(17) -0.3301(2) 0.43579(8)
C6 C 0.47699(18) -0.4834(2) 0.41549(8)
C7 C 0.34451(17) -0.5059(2) 0.40761(8)
C8 C 0.26406(17) -0.3794(2) 0.41946(8)
C9 C 0.31854(17) -0.2272(2) 0.44086(8)
C10 C 0.89705(17) 0.2854(2) 0.39250(8)
C11 C 0.9754(2) 0.1756(3) 0.44637(10)
C12 C 0.8520(2) 0.4429(2) 0.42206(10)
C13 C 0.65018(16) 0.3202(2) 0.28297(8)
C14 C 0.7215(2) 0.3934(2) 0.23301(10)
C15 C 0.5220(2) 0.2433(3) 0.24851(11)
C16 C 0.81134(17) -0.0051(2) 0.29384(9)
C17 C 0.8313(2) -0.1683(2) 0.33135(11)
C18 C 0.9332(2) 0.0383(3) 0.26786(11)
H1 H 0.6202(19) -0.312(2) 0.4405(9)
H2 H 0.5273(18) -0.569(2) 0.4084(9)
H3 H 0.1737(18) -0.398(2) 0.4117(8)
H4 H 0.2660(18) -0.140(2) 0.4489(8)
H5 H 0.950(2) 0.317(2) 0.3621(10)
H6 H 1.043(2) 0.239(3) 0.4713(11)
H7 H 0.922(2) 0.136(3) 0.4748(10)
H8 H 1.013(2) 0.078(3) 0.4300(10)
H9 H 0.798(2) 0.417(3) 0.4513(11)
H10 H 0.924(2) 0.499(3) 0.4460(11)
H11 H 0.804(2) 0.520(3) 0.3871(9)
H12 H 0.6310(17) 0.413(2) 0.3091(8)
H13 H 0.666(2) 0.475(3) 0.2036(10)
H14 H 0.803(2) 0.444(2) 0.2524(9)
H15 H 0.744(2) 0.309(2) 0.2036(10)
H16 H 0.540(2) 0.151(3) 0.2241(11)
H17 H 0.470(2) 0.321(3) 0.2173(12)
H18 H 0.469(3) 0.210(3) 0.2787(14)
H19 H 0.740(2) -0.024(2) 0.2574(10)
H20 H 0.899(2) -0.163(3) 0.3681(10)
H21 H 0.753(2) -0.202(2) 0.3472(11)
H22 H 0.857(2) -0.257(3) 0.3060(12)
H23 H 0.955(2) -0.054(3) 0.2398(11)
H24 H 0.922(2) 0.139(3) 0.2415(10)
H25 H 1.006(2) 0.050(3) 0.3015(10)
Br1B Br 0.727914(18) 0.71592(2) 0.619557(9)
Si1B Si 0.24402(4) -0.17205(5) 0.65958(2)
C1B C 0.48912(16) 0.03834(19) 0.52718(8)
C2B C 0.40742(16) -0.03305(19) 0.56724(8)
C3B C 0.34331(16) -0.08692(19) 0.60399(8)
C4B C 0.54847(17) 0.20129(19) 0.55045(8)
C5B C 0.46988(17) 0.3301(2) 0.56421(8)
C6B C 0.52301(18) 0.4834(2) 0.58451(8)
C7B C 0.65549(17) 0.5059(2) 0.59239(8)
C8B C 0.73594(17) 0.3794(2) 0.58054(8)
C9B C 0.68146(17) 0.2272(2) 0.55914(8)
C10B C 0.10295(17) -0.2854(2) 0.60750(8)
C11B C 0.0246(2) -0.1756(3) 0.55363(10)
C12B C 0.1480(2) -0.4429(2) 0.57794(10)
C13B C 0.34982(16) -0.3202(2) 0.71703(8)
C14B C 0.2785(2) -0.3934(2) 0.76699(10)
C15B C 0.4780(2) -0.2433(3) 0.75149(11)
C16B C 0.18866(17) 0.0051(2) 0.70616(9)
C17B C 0.1687(2) 0.1683(2) 0.66865(11)
C18B C 0.0668(2) -0.0383(3) 0.73214(11)
H1B H 0.3798(19) 0.312(2) 0.5595(9)
H2B H 0.4727(18) 0.569(2) 0.5916(9)
H3B H 0.8263(18) 0.398(2) 0.5883(8)
H4B H 0.7340(18) 0.140(2) 0.5511(8)
H5B H 0.050(2) -0.317(2) 0.6379(10)
H6B H -0.043(2) -0.239(3) 0.5287(11)
H7B H 0.078(2) -0.136(3) 0.5252(10)
H8B H -0.013(2) -0.078(3) 0.5700(10)
H9B H 0.202(2) -0.417(3) 0.5487(11)
H10B H 0.076(2) -0.499(3) 0.5540(11)
H11B H 0.196(2) -0.520(3) 0.6129(9)
H12B H 0.3690(17) -0.413(2) 0.6909(8)
H13B H 0.334(2) -0.475(3) 0.7964(10)
H14B H 0.197(2) -0.444(2) 0.7476(9)
H15B H 0.256(2) -0.309(2) 0.7964(10)
H16B H 0.460(2) -0.151(3) 0.7759(11)
H17B H 0.530(2) -0.321(3) 0.7827(12)
H18B H 0.531(3) -0.210(3) 0.7213(14)
H19B H 0.260(2) 0.024(2) 0.7426(10)
H20B H 0.101(2) 0.163(3) 0.6319(10)
H21B H 0.247(2) 0.202(2) 0.6528(11)
H22B H 0.143(2) 0.257(3) 0.6940(12)
H23B H 0.045(2) 0.054(3) 0.7602(11)
H24B H 0.078(2) -0.139(3) 0.7585(10)
H25B H -0.006(2) -0.050(3) 0.6985(10)
loop_
_geom_bond_atom_site_label_1
_geom_bond_atom_site_label_2
_geom_bond_site_symmetry_1
_geom_bond_site_symmetry_2
Br1 C7 1_555 1_555
Si1 C3 1_555 1_555
C1 C2 1_555 1_555
C2 C3 1_555 1_555
C4 C1 1_555 1_555
C5 C4 1_555 1_555
C6 C5 1_555 1_555
C7 C6 1_555 1_555
C8 C7 1_555 1_555
C9 C4 1_555 1_555
C10 Si1 1_555 1_555
C11 C10 1_555 1_555
C12 C10 1_555 1_555
C13 Si1 1_555 1_555
C14 C13 1_555 1_555
C15 C13 1_555 1_555
C16 Si1 1_555 1_555
C17 C16 1_555 1_555
C18 C16 1_555 1_555
H1 C5 1_555 1_555
H2 C6 1_555 1_555
H3 C8 1_555 1_555
H4 C9 1_555 1_555
H5 C10 1_555 1_555
H6 C11 1_555 1_555
H7 C11 1_555 1_555
H8 C11 1_555 1_555
H9 C12 1_555 1_555
H10 C12 1_555 1_555
H11 C12 1_555 1_555
H12 C13 1_555 1_555
H13 C14 1_555 1_555
H14 C14 1_555 1_555
H15 C14 1_555 1_555
H16 C15 1_555 1_555
H17 C15 1_555 1_555
H18 C15 1_555 1_555
H19 C16 1_555 1_555
H20 C17 1_555 1_555
H21 C17 1_555 1_555
H22 C17 1_555 1_555
H23 C18 1_555 1_555
H24 C18 1_555 1_555
H25 C18 1_555 1_555
Br1B C7B 1_555 1_555
Si1B C3B 1_555 1_555
C1B C1 1_555 1_555
C2B C1B 1_555 1_555
C3B C2B 1_555 1_555
C4B C1B 1_555 1_555
C5B C4B 1_555 1_555
C6B C5B 1_555 1_555
C7B C6B 1_555 1_555
C8B C7B 1_555 1_555
C9B C4B 1_555 1_555
C10B Si1B 1_555 1_555
C11B C10B 1_555 1_555
C12B C10B 1_555 1_555
C13B Si1B 1_555 1_555
C14B C13B 1_555 1_555
C15B C13B 1_555 1_555
C16B Si1B 1_555 1_555
C17B C16B 1_555 1_555
C18B C16B 1_555 1_555
H1B C5B 1_555 1_555
H2B C6B 1_555 1_555
H3B C8B 1_555 1_555
H4B C9B 1_555 1_555
H5B C10B 1_555 1_555
H6B C11B 1_555 1_555
H7B C11B 1_555 1_555
H8B C11B 1_555 1_555
H9B C12B 1_555 1_555
H10B C12B 1_555 1_555
H11B C12B 1_555 1_555
H12B C13B 1_555 1_555
H13B C14B 1_555 1_555
H14B C14B 1_555 1_555
H15B C14B 1_555 1_555
H16B C15B 1_555 1_555
H17B C15B 1_555 1_555
H18B C15B 1_555 1_555
H19B C16B 1_555 1_555
H20B C17B 1_555 1_555
H21B C17B 1_555 1_555
H22B C17B 1_555 1_555
H23B C18B 1_555 1_555
H24B C18B 1_555 1_555
H25B C18B 1_555 1_555
C8 C9 1_555 1_555
C8B C9B 1_555 1_555

#END
