
#######################################################################
#
#                 Cambridge Crystallographic Data Centre
#                                CCDC 
#
#######################################################################
#
# If this CIF has been generated from an entry in the Cambridge 
# Structural Database, then it will include bibliographic, chemical, 
# crystal, experimental, refinement or atomic coordinate data resulting 
# from the CCDC's data processing and validation procedures.
#
#######################################################################

data_CUXHUA
_chemical_formula_moiety         'C16 H10 N4 O3'
_chemical_name_systematic        
2-(2-(imidazo[1,2-a]pyrimidin-3-yl)-2-oxoethyl)-1H-isoindole-1,3(2H)-dione
_symmetry_cell_setting           monoclinic
_symmetry_space_group_name_H-M   'P 21/c'
_symmetry_Int_Tables_number      14
_space_group_name_Hall           '-P 2ybc'
loop_
_symmetry_equiv_pos_site_id
_symmetry_equiv_pos_as_xyz
1 x,y,z
2 -x,1/2+y,1/2-z
3 -x,-y,-z
4 x,1/2-y,1/2+z
_cell_length_a                   6.8351(10)
_cell_length_b                   14.195(2)
_cell_length_c                   27.980(7)
_cell_angle_alpha                90
_cell_angle_beta                 96.596(16)
_cell_angle_gamma                90
_cell_volume                     2696.77
_exptl_crystal_colour            colorless
_exptl_crystal_description       block
_cell_formula_units_Z            8
loop_
_atom_site_label
_atom_site_type_symbol
_atom_site_fract_x
_atom_site_fract_y
_atom_site_fract_z
C1 C 0.0489(3) 0.49582(15) 0.71423(8)
C2 C -0.0173(3) 0.52747(14) 0.76029(8)
C3 C -0.0652(3) 0.47580(16) 0.79896(8)
H1 H -0.0625 0.4103 0.7987
C4 C -0.1177(3) 0.52552(18) 0.83824(9)
H2 H -0.1513 0.4928 0.8649
C5 C -0.1208(3) 0.62234(18) 0.83837(9)
H3 H -0.1546 0.6537 0.8654
C6 C -0.0749(3) 0.67443(16) 0.79927(8)
H4 H -0.0784 0.7399 0.7994
C7 C -0.0239(3) 0.62473(14) 0.76026(7)
C8 C 0.0340(3) 0.65837(15) 0.71382(8)
C9 C 0.1562(3) 0.58128(18) 0.64302(8)
H5 H 0.2234 0.5222 0.6387
H6 H 0.2539 0.6311 0.6446
C10 C 0.0069(3) 0.59799(15) 0.59960(8)
C11 C 0.0922(3) 0.61197(15) 0.55560(8)
C12 C 0.2857(4) 0.61877(18) 0.54643(10)
H7 H 0.3919 0.6129 0.5702
C13 C 0.1220(4) 0.63882(17) 0.47803(9)
C14 C -0.2095(3) 0.62721(15) 0.49539(8)
H8 H -0.3021 0.6185 0.5169
C15 C -0.2655(4) 0.64228(17) 0.44818(9)
H9 H -0.3984 0.6441 0.4365
C16 C -0.1222(5) 0.65514(18) 0.41719(9)
H10 H -0.1637 0.6652 0.3848
N1 N 0.0740(3) 0.57791(13) 0.68815(6)
N2 N 0.3064(3) 0.63464(16) 0.50005(8)
N3 N -0.0139(3) 0.62521(11) 0.51056(6)
N4 N 0.0674(4) 0.65384(15) 0.43099(8)
O1 O 0.0832(2) 0.41760(11) 0.70030(6)
O2 O 0.0494(2) 0.73781(11) 0.69881(6)
O3 O -0.1702(2) 0.59838(12) 0.60224(5)
C17 C 0.5278(3) 0.75054(16) 0.71670(8)
C18 C 0.4700(3) 0.78874(15) 0.76227(7)
C19 C 0.4147(3) 0.74265(17) 0.80199(8)
H11 H 0.4094 0.6773 0.8033
C20 C 0.3677(3) 0.79781(18) 0.83967(9)
H12 H 0.3298 0.7689 0.8670
C21 C 0.3756(3) 0.89430(18) 0.83771(9)
H13 H 0.3416 0.9294 0.8636
C22 C 0.4331(3) 0.94065(16) 0.79801(8)
H14 H 0.4396 1.0060 0.7969
C23 C 0.4800(3) 0.88597(14) 0.76043(8)
C24 C 0.5490(3) 0.91258(16) 0.71387(8)
C25 C 0.6613(3) 0.82151(19) 0.64534(8)
H15 H 0.7183 0.7593 0.6433
H16 H 0.7678 0.8669 0.6463
C26 C 0.5214(3) 0.83851(14) 0.60062(8)
C27 C 0.6187(3) 0.84969(15) 0.55779(8)
C28 C 0.8144(3) 0.84765(16) 0.55102(9)
H17 H 0.9145 0.8356 0.5757
C29 C 0.6688(4) 0.87887(16) 0.48193(9)
C30 C 0.3296(3) 0.88142(15) 0.49540(8)
H18 H 0.2311 0.8752 0.5155
C31 C 0.2864(4) 0.90232(17) 0.44842(9)
H19 H 0.1563 0.9105 0.4353
C32 C 0.4393(5) 0.91155(18) 0.41958(9)
H20 H 0.4064 0.9267 0.3873
N5 N 0.5732(3) 0.82814(13) 0.68975(6)
N6 N 0.8477(3) 0.86463(15) 0.50558(8)
N7 N 0.5231(3) 0.86981(11) 0.51232(6)
N8 N 0.6275(4) 0.90016(15) 0.43527(8)
O4 O 0.5387(2) 0.66994(12) 0.70326(6)
O5 O 0.5835(2) 0.98927(11) 0.69807(6)
O6 O 0.3431(2) 0.84210(12) 0.60089(5)
loop_
_geom_bond_atom_site_label_1
_geom_bond_atom_site_label_2
_geom_bond_site_symmetry_1
_geom_bond_site_symmetry_2
C1 C2 1_555 1_555
C2 C3 1_555 1_555
C3 H1 1_555 1_555
C4 C3 1_555 1_555
H2 C4 1_555 1_555
C5 C4 1_555 1_555
H3 C5 1_555 1_555
C6 C5 1_555 1_555
H4 C6 1_555 1_555
C7 C2 1_555 1_555
C8 C7 1_555 1_555
C9 H5 1_555 1_555
H6 C9 1_555 1_555
C10 C9 1_555 1_555
C11 C10 1_555 1_555
C12 C11 1_555 1_555
H7 C12 1_555 1_555
C13 N2 1_555 1_555
C14 H8 1_555 1_555
C15 C14 1_555 1_555
H9 C15 1_555 1_555
C16 C15 1_555 1_555
H10 C16 1_555 1_555
N1 C1 1_555 1_555
N2 C12 1_555 1_555
N3 C11 1_555 1_555
N4 C13 1_555 1_555
O1 C1 1_555 1_555
O2 C8 1_555 1_555
O3 C10 1_555 1_555
C17 C18 1_555 1_555
C18 C19 1_555 1_555
C19 H11 1_555 1_555
C20 C19 1_555 1_555
H12 C20 1_555 1_555
C21 C20 1_555 1_555
H13 C21 1_555 1_555
C22 C21 1_555 1_555
H14 C22 1_555 1_555
C23 C18 1_555 1_555
C24 C23 1_555 1_555
C25 H15 1_555 1_555
H16 C25 1_555 1_555
C26 C25 1_555 1_555
C27 C26 1_555 1_555
C28 C27 1_555 1_555
H17 C28 1_555 1_555
C29 N6 1_555 1_555
C30 H18 1_555 1_555
C31 C30 1_555 1_555
H19 C31 1_555 1_555
C32 C31 1_555 1_555
H20 C32 1_555 1_555
N5 C17 1_555 1_555
N6 C28 1_555 1_555
N7 C27 1_555 1_555
N8 C29 1_555 1_555
O4 C17 1_555 1_555
O5 C24 1_555 1_555
O6 C26 1_555 1_555
C6 C7 1_555 1_555
C8 N1 1_555 1_555
C9 N1 1_555 1_555
C13 N3 1_555 1_555
C14 N3 1_555 1_555
C16 N4 1_555 1_555
C22 C23 1_555 1_555
C24 N5 1_555 1_555
C25 N5 1_555 1_555
C29 N7 1_555 1_555
C30 N7 1_555 1_555
C32 N8 1_555 1_555

#END
