
#######################################################################
#
#                 Cambridge Crystallographic Data Centre
#                                CCDC 
#
#######################################################################
#
# If this CIF has been generated from an entry in the Cambridge 
# Structural Database, then it will include bibliographic, chemical, 
# crystal, experimental, refinement or atomic coordinate data resulting 
# from the CCDC's data processing and validation procedures.
#
#######################################################################

data_CUXHEK
_chemical_formula_moiety         'C17 H12 O4'
_chemical_name_systematic        
1a-(4-methoxyphenyl)-1a,7a-dihydronaphtho[2,3-b]oxirene-2,7-dione
_symmetry_cell_setting           monoclinic
_symmetry_space_group_name_H-M   'P 21/c'
_symmetry_Int_Tables_number      14
_space_group_name_Hall           '-P 2ybc'
loop_
_symmetry_equiv_pos_site_id
_symmetry_equiv_pos_as_xyz
1 x,y,z
2 -x,1/2+y,1/2-z
3 -x,-y,-z
4 x,1/2-y,1/2+z
_cell_length_a                   13.1784(10)
_cell_length_b                   13.4880(10)
_cell_length_c                   7.4749(6)
_cell_angle_alpha                90
_cell_angle_beta                 92.706(2)
_cell_angle_gamma                90
_cell_volume                     1327.18
_cell_formula_units_Z            4
loop_
_atom_site_label
_atom_site_type_symbol
_atom_site_fract_x
_atom_site_fract_y
_atom_site_fract_z
O1 O 1.30904(8) 0.72316(9) 0.11132(16)
O2 O 0.84663(8) 0.69970(9) -0.00879(13)
O3 O 0.75152(9) 0.59471(10) 0.63795(14)
O4 O 0.89189(7) 0.51071(7) 0.29178(13)
C1 C 1.33908(14) 0.82403(15) 0.1225(3)
H1 H 1.2993 0.8622 0.0365
H2 H 1.4097 0.8295 0.0977
H3 H 1.3286 0.8486 0.2407
C2 C 1.21070(10) 0.70115(11) 0.14982(18)
C3 C 1.14147(11) 0.77034(11) 0.20222(18)
H4 H 1.1601 0.8366 0.2148
C4 C 1.04414(11) 0.74049(11) 0.23594(18)
H5 H 0.9973 0.7871 0.2722
C5 C 1.01508(10) 0.64267(10) 0.21675(16)
C6 C 0.90886(10) 0.61313(10) 0.24848(17)
C7 C 0.87854(11) 0.58342(11) 0.42912(18)
H6 H 0.9314 0.5864 0.5257
C8 C 0.77188(12) 0.59478(11) 0.48196(19)
C9 C 0.69297(11) 0.60403(11) 0.33536(18)
C10 C 0.59138(12) 0.58904(13) 0.3704(2)
H7 H 0.5734 0.5718 0.4851
C11 C 0.51785(13) 0.59969(15) 0.2363(3)
H8 H 0.4501 0.5886 0.2600
C12 C 1.18333(11) 0.60311(11) 0.1324(2)
H9 H 1.2307 0.5565 0.0985
C13 C 1.08575(11) 0.57379(11) 0.16530(18)
H10 H 1.0674 0.5075 0.1528
C14 C 0.82584(10) 0.65291(10) 0.12220(17)
C15 C 0.71891(10) 0.63152(10) 0.16297(17)
C16 C 0.64346(12) 0.64320(13) 0.0293(2)
H11 H 0.6602 0.6621 -0.0853
C17 C 0.54338(13) 0.62674(15) 0.0669(2)
H12 H 0.4927 0.6340 -0.0231
loop_
_geom_bond_atom_site_label_1
_geom_bond_atom_site_label_2
_geom_bond_site_symmetry_1
_geom_bond_site_symmetry_2
O1 C1 1_555 1_555
O2 C14 1_555 1_555
O3 C8 1_555 1_555
O4 C6 1_555 1_555
C1 H1 1_555 1_555
H2 C1 1_555 1_555
H3 C1 1_555 1_555
C2 O1 1_555 1_555
C3 C2 1_555 1_555
H4 C3 1_555 1_555
C4 C3 1_555 1_555
H5 C4 1_555 1_555
C5 C4 1_555 1_555
C6 C5 1_555 1_555
C7 O4 1_555 1_555
H6 C7 1_555 1_555
C8 C7 1_555 1_555
C9 C8 1_555 1_555
C10 C9 1_555 1_555
H7 C10 1_555 1_555
C11 C10 1_555 1_555
H8 C11 1_555 1_555
C12 C2 1_555 1_555
H9 C12 1_555 1_555
C13 C5 1_555 1_555
H10 C13 1_555 1_555
C14 C6 1_555 1_555
C15 C9 1_555 1_555
C16 C15 1_555 1_555
H11 C16 1_555 1_555
C17 C11 1_555 1_555
H12 C17 1_555 1_555
C6 C7 1_555 1_555
C12 C13 1_555 1_555
C14 C15 1_555 1_555
C16 C17 1_555 1_555

#END
