
#######################################################################
#
#                 Cambridge Crystallographic Data Centre
#                                CCDC 
#
#######################################################################
#
# If this CIF has been generated from an entry in the Cambridge 
# Structural Database, then it will include bibliographic, chemical, 
# crystal, experimental, refinement or atomic coordinate data resulting 
# from the CCDC's data processing and validation procedures.
#
#######################################################################

data_CUXNOA
_chemical_formula_moiety         'C57 H59 B1 N4 O2'
_chemical_name_systematic        
(3',6'-bis(diethylamino)-2-(2-((4-(triphenylvinyl)benzyl)amino-\kN)ethyl)spiro[isoindole-1,9'-xanthen]-3(2H)-one)(trihydrido)boron
_symmetry_cell_setting           triclinic
_symmetry_space_group_name_H-M   'P -1'
_symmetry_Int_Tables_number      2
_space_group_name_Hall           '-P 1'
loop_
_symmetry_equiv_pos_site_id
_symmetry_equiv_pos_as_xyz
1 x,y,z
2 -x,-y,-z
_cell_length_a                   12.213(2)
_cell_length_b                   15.049(3)
_cell_length_c                   15.778(3)
_cell_angle_alpha                62.70(3)
_cell_angle_beta                 77.85(3)
_cell_angle_gamma                74.89(3)
_cell_volume                     2473.8
_exptl_crystal_colour            colorless
_exptl_crystal_description       block
_cell_formula_units_Z            2
loop_
_atom_site_label
_atom_site_type_symbol
_atom_site_fract_x
_atom_site_fract_y
_atom_site_fract_z
O1 O 0.28349(12) 0.65782(11) 0.03057(10)
O2 O -0.01308(14) 0.43506(14) 0.42570(11)
N1 N 0.61315(17) 0.42889(19) 0.17463(18)
N2 N -0.0110(2) 0.92787(16) -0.12560(17)
N3 N 0.07276(14) 0.54057(13) 0.28398(12)
N4 N 0.17797(16) 0.64694(13) 0.41925(12)
H1 H 0.1183 0.6237 0.4722
C1 C 0.7111(2) 0.5765(3) 0.1043(2)
H2 H 0.7537 0.6162 0.0466
H3 H 0.7541 0.5516 0.1577
H4 H 0.6400 0.6181 0.1144
C2 C 0.6881(2) 0.4874(2) 0.0951(2)
H5 H 0.6541 0.5128 0.0360
H6 H 0.7601 0.4427 0.0906
C3 C 0.49587(18) 0.45875(18) 0.17726(18)
C4 C 0.44276(18) 0.54433(17) 0.10372(16)
H7 H 0.4870 0.5841 0.0510
C5 C 0.32437(17) 0.57121(15) 0.10797(14)
C6 C 0.25351(16) 0.51558(15) 0.18412(14)
C7 C 0.30786(18) 0.42986(17) 0.25757(17)
H8 H 0.2632 0.3902 0.3100
C8 C 0.42442(19) 0.40165(18) 0.25564(19)
H9 H 0.4566 0.3443 0.3066
C9 C 0.12393(16) 0.54305(15) 0.18815(14)
C10 C 0.08875(17) 0.64533(15) 0.10674(14)
C11 C -0.02495(19) 0.69396(17) 0.09961(16)
H10 H -0.0801 0.6627 0.1471
C12 C -0.0592(2) 0.78666(18) 0.02496(17)
H11 H -0.1360 0.8168 0.0236
C13 C 0.0213(2) 0.83614(16) -0.04940(17)
C14 C 0.1353(2) 0.78753(16) -0.04315(16)
H12 H 0.1907 0.8175 -0.0912
C15 C 0.16775(17) 0.69496(15) 0.03376(14)
C16 C 0.07760(17) 0.45760(16) 0.19063(15)
C17 C 0.0851(2) 0.42753(19) 0.11857(19)
H13 H 0.1182 0.4636 0.0571
C18 C 0.0418(2) 0.3419(2) 0.1408(2)
H14 H 0.0455 0.3205 0.0935
C19 C -0.0069(2) 0.2879(2) 0.2326(2)
H15 H -0.0339 0.2299 0.2460
C20 C -0.0161(2) 0.31843(19) 0.3044(2)
H16 H -0.0491 0.2823 0.3659
C21 C 0.02586(17) 0.40523(16) 0.28168(16)
C22 C 0.02474(17) 0.45783(17) 0.34106(15)
C23 C 0.07768(19) 0.61544(17) 0.31638(15)
H17 H 0.0128 0.6182 0.3633
H18 H 0.0722 0.6820 0.2623
C24 C 0.18665(19) 0.59122(18) 0.36081(16)
H19 H 0.2043 0.5186 0.4009
H20 H 0.2489 0.6086 0.3102
C25 C 0.2858(2) 0.62000(18) 0.46331(17)
H21 H 0.2762 0.6568 0.5020
H22 H 0.3465 0.6427 0.4125
C26 C 0.32161(18) 0.50813(16) 0.52499(15)
C27 C 0.27730(19) 0.46531(17) 0.62044(16)
H23 H 0.2246 0.5062 0.6459
C28 C 0.31021(19) 0.36295(17) 0.67835(15)
H24 H 0.2808 0.3362 0.7425
C29 C 0.38672(18) 0.29949(16) 0.64180(14)
C30 C 0.43172(18) 0.34280(17) 0.54567(15)
H25 H 0.4837 0.3020 0.5198
C31 C 0.39977(19) 0.44549(17) 0.48878(15)
H26 H 0.4312 0.4730 0.4252
C32 C 0.42441(18) 0.18936(17) 0.70579(15)
C33 C 0.42642(19) 0.11519(17) 0.68039(15)
C34 C 0.3686(2) 0.13672(16) 0.59620(16)
C35 C 0.2552(2) 0.18611(17) 0.58817(18)
H27 H 0.2146 0.2049 0.6361
C36 C 0.2018(2) 0.20766(19) 0.5097(2)
H28 H 0.1259 0.2405 0.5056
C37 C 0.2609(3) 0.18063(19) 0.4384(2)
H29 H 0.2252 0.1952 0.3857
C38 C 0.3733(3) 0.1318(2) 0.44479(19)
H30 H 0.4137 0.1143 0.3960
C39 C 0.4265(2) 0.10867(19) 0.52400(17)
H31 H 0.5017 0.0740 0.5286
C40 C 0.4876(2) 0.00776(18) 0.73189(16)
C41 C 0.4344(2) -0.07462(19) 0.76271(18)
H32 H 0.3580 -0.0633 0.7545
C42 C 0.4941(3) -0.1736(2) 0.8056(2)
H33 H 0.4567 -0.2280 0.8279
C43 C 0.6078(3) -0.1917(2) 0.8153(2)
H34 H 0.6480 -0.2582 0.8424
C44 C 0.6618(3) -0.1116(3) 0.7849(2)
H35 H 0.7389 -0.1239 0.7917
C45 C 0.6029(2) -0.0121(2) 0.74405(18)
H36 H 0.6404 0.0417 0.7247
C46 C 0.45787(19) 0.17164(17) 0.79872(15)
C47 C 0.3988(3) 0.1162(2) 0.88475(17)
H37 H 0.3434 0.0838 0.8852
C48 C 0.4218(3) 0.1092(3) 0.9692(2)
H38 H 0.3807 0.0727 1.0263
C49 C 0.5035(3) 0.1544(3) 0.9712(2)
H39 H 0.5189 0.1475 1.0294
C50 C 0.5635(3) 0.2100(2) 0.8874(2)
H40 H 0.6194 0.2413 0.8882
C51 C 0.5392(2) 0.2190(2) 0.80139(18)
H41 H 0.5786 0.2578 0.7443
B1 B 0.1408(3) 0.7693(2) 0.3632(3)
H42 H 0.0654 0.7860 0.3445
H43 H 0.1935 0.7946 0.3071
H44 H 0.1413 0.8000 0.4046
C52 C 0.6926(5) 0.2564(5) 0.2966(6)
H45 H 0.7310 0.2465 0.2411
H46 H 0.6227 0.2309 0.3162
H47 H 0.7406 0.2205 0.3478
C53 C 0.6664(4) 0.3689(4) 0.2726(5)
H48 H 0.7358 0.3917 0.2677
H49 H 0.6131 0.3813 0.3229
C54 C 0.1083(6) 0.9647(4) -0.2806(4)
H50 H 0.1620 1.0058 -0.3247
H51 H 0.0410 0.9807 -0.3111
H52 H 0.1419 0.8940 -0.2619
C55 C 0.0768(9) 0.9861(7) -0.1926(6)
H53 H 0.1443 0.9673 -0.1603
H54 H 0.0479 1.0583 -0.2120
C56 C -0.1520(11) 1.0446(9) -0.0827(7)
H55 H -0.1022 1.0931 -0.1100
H56 H -0.1392 1.0013 -0.0169
H57 H -0.2299 1.0800 -0.0860
C57 C -0.1279(7) 0.9804(9) -0.1384(8)
H58 H -0.1790 0.9322 -0.1131
H59 H -0.1369 1.0231 -0.2058
C58? C 0.6794(9) 0.3336(9) 0.3283(8)
H60? H 0.7291 0.3799 0.3136
H61? H 0.7111 0.2671 0.3737
H62? H 0.6060 0.3571 0.3553
C59? C 0.6663(5) 0.3282(6) 0.2362(6)
H63? H 0.7403 0.3081 0.2061
H64? H 0.6191 0.2793 0.2502
C60? C 0.1259(9) 1.0333(7) -0.1749(7)
H65? H 0.1867 1.0601 -0.2226
H66? H 0.1566 0.9850 -0.1159
H67? H 0.0726 1.0880 -0.1648
C61? C 0.0647(16) 0.9805(16) -0.2093(9)
H68? H 0.0214 1.0300 -0.2622
H69? H 0.1190 0.9325 -0.2299
C62? C -0.1569(13) 1.0320(9) -0.0415(10)
H70? H -0.1098 1.0812 -0.0592
H71? H -0.1429 0.9789 0.0212
H72? H -0.2357 1.0646 -0.0410
C63? C -0.1285(9) 0.9858(11) -0.1146(10)
H73? H -0.1815 0.9408 -0.0980
H74? H -0.1442 1.0410 -0.1770
loop_
_geom_bond_atom_site_label_1
_geom_bond_atom_site_label_2
_geom_bond_site_symmetry_1
_geom_bond_site_symmetry_2
O1 C5 1_555 1_555
O2 C22 1_555 1_555
N1 C2 1_555 1_555
N2 C13 1_555 1_555
N3 C9 1_555 1_555
N4 H1 1_555 1_555
C1 H2 1_555 1_555
H3 C1 1_555 1_555
H4 C1 1_555 1_555
C2 C1 1_555 1_555
H5 C2 1_555 1_555
H6 C2 1_555 1_555
C3 N1 1_555 1_555
C4 C3 1_555 1_555
H7 C4 1_555 1_555
C5 C4 1_555 1_555
C6 C5 1_555 1_555
C7 C6 1_555 1_555
H8 C7 1_555 1_555
C8 C3 1_555 1_555
H9 C8 1_555 1_555
C9 C6 1_555 1_555
C10 C9 1_555 1_555
C11 C10 1_555 1_555
H10 C11 1_555 1_555
C12 C11 1_555 1_555
H11 C12 1_555 1_555
C13 C12 1_555 1_555
C14 C13 1_555 1_555
H12 C14 1_555 1_555
C15 O1 1_555 1_555
C16 C9 1_555 1_555
C17 C16 1_555 1_555
H13 C17 1_555 1_555
C18 C17 1_555 1_555
H14 C18 1_555 1_555
C19 C18 1_555 1_555
H15 C19 1_555 1_555
C20 C19 1_555 1_555
H16 C20 1_555 1_555
C21 C16 1_555 1_555
C22 N3 1_555 1_555
C23 N3 1_555 1_555
H17 C23 1_555 1_555
H18 C23 1_555 1_555
C24 N4 1_555 1_555
H19 C24 1_555 1_555
H20 C24 1_555 1_555
C25 N4 1_555 1_555
H21 C25 1_555 1_555
H22 C25 1_555 1_555
C26 C25 1_555 1_555
C27 C26 1_555 1_555
H23 C27 1_555 1_555
C28 C27 1_555 1_555
H24 C28 1_555 1_555
C29 C28 1_555 1_555
C30 C29 1_555 1_555
H25 C30 1_555 1_555
C31 C26 1_555 1_555
H26 C31 1_555 1_555
C32 C29 1_555 1_555
C33 C32 1_555 1_555
C34 C33 1_555 1_555
C35 C34 1_555 1_555
H27 C35 1_555 1_555
C36 C35 1_555 1_555
H28 C36 1_555 1_555
C37 C36 1_555 1_555
H29 C37 1_555 1_555
C38 C37 1_555 1_555
H30 C38 1_555 1_555
C39 C34 1_555 1_555
H31 C39 1_555 1_555
C40 C33 1_555 1_555
C41 C40 1_555 1_555
H32 C41 1_555 1_555
C42 C41 1_555 1_555
H33 C42 1_555 1_555
C43 C42 1_555 1_555
H34 C43 1_555 1_555
C44 C43 1_555 1_555
H35 C44 1_555 1_555
C45 C40 1_555 1_555
H36 C45 1_555 1_555
C46 C32 1_555 1_555
C47 C46 1_555 1_555
H37 C47 1_555 1_555
C48 C47 1_555 1_555
H38 C48 1_555 1_555
C49 C48 1_555 1_555
H39 C49 1_555 1_555
C50 C49 1_555 1_555
H40 C50 1_555 1_555
C51 C46 1_555 1_555
H41 C51 1_555 1_555
B1 N4 1_555 1_555
H42 B1 1_555 1_555
H43 B1 1_555 1_555
H44 B1 1_555 1_555
C52 H45 1_555 1_555
H46 C52 1_555 1_555
H47 C52 1_555 1_555
C53 N1 1_555 1_555
H48 C53 1_555 1_555
H49 C53 1_555 1_555
C54 H50 1_555 1_555
H51 C54 1_555 1_555
H52 C54 1_555 1_555
C55 N2 1_555 1_555
H53 C55 1_555 1_555
H54 C55 1_555 1_555
C56 H55 1_555 1_555
H56 C56 1_555 1_555
H57 C56 1_555 1_555
C57 N2 1_555 1_555
H58 C57 1_555 1_555
H59 C57 1_555 1_555
C7 C8 1_555 1_555
C10 C15 1_555 1_555
C14 C15 1_555 1_555
C20 C21 1_555 1_555
C21 C22 1_555 1_555
C23 C24 1_555 1_555
C30 C31 1_555 1_555
C38 C39 1_555 1_555
C44 C45 1_555 1_555
C50 C51 1_555 1_555
C52 C53 1_555 1_555
C54 C55 1_555 1_555
C56 C57 1_555 1_555

#END
