
#######################################################################
#
#                 Cambridge Crystallographic Data Centre
#                                CCDC 
#
#######################################################################
#
# If this CIF has been generated from an entry in the Cambridge 
# Structural Database, then it will include bibliographic, chemical, 
# crystal, experimental, refinement or atomic coordinate data resulting 
# from the CCDC's data processing and validation procedures.
#
#######################################################################

data_CUYKUD
_chemical_formula_moiety         'C17 H16 Br2 N2 O3'
_chemical_name_systematic        
(E)-N-(2-((3,5-Dibromo-2-hydroxybenzylidene)amino)propyl)-2-hydroxybenzamide
_chemical_properties_biological  'inhibitor activity against ecKAS III'
_symmetry_cell_setting           monoclinic
_symmetry_space_group_name_H-M   'P 21/c'
_symmetry_Int_Tables_number      14
_space_group_name_Hall           '-P 2ybc'
loop_
_symmetry_equiv_pos_site_id
_symmetry_equiv_pos_as_xyz
1 x,y,z
2 -x,1/2+y,1/2-z
3 -x,-y,-z
4 x,1/2-y,1/2+z
_cell_length_a                   14.860(3)
_cell_length_b                   16.964(3)
_cell_length_c                   7.0660(14)
_cell_angle_alpha                90
_cell_angle_beta                 95.71(3)
_cell_angle_gamma                90
_cell_volume                     1772.39
_chemical_melting_point          163-165deg.C
_cell_formula_units_Z            4
loop_
_atom_site_label
_atom_site_type_symbol
_atom_site_fract_x
_atom_site_fract_y
_atom_site_fract_z
Br1 Br 0.92704(6) 0.57167(5) 1.13842(12)
Br2 Br 1.12954(6) 0.85098(5) 1.27512(13)
N1 N 0.6485(4) 0.9265(3) 0.6289(8)
H1 H 0.6941 0.9074 0.5783
O1 O 0.5883(4) 1.1662(3) 0.5589(8)
H2 H 0.5680 1.1330 0.6275
C1 C 0.6474(5) 1.1311(5) 0.4481(12)
N2 N 0.7041(4) 0.8268(3) 0.9885(8)
O2 O 0.5673(4) 1.0321(3) 0.6966(8)
C2 C 0.6715(5) 1.0522(4) 0.4683(10)
O3 O 0.7776(3) 0.6905(3) 1.0231(6)
H3 H 0.7319 0.7192 0.9899
C3 C 0.7333(5) 1.0232(5) 0.3509(11)
H4 H 0.7504 0.9706 0.3617
C4 C 0.7695(6) 1.0689(5) 0.2216(12)
H5 H 0.8131 1.0486 0.1494
C5 C 0.7409(6) 1.1467(5) 0.1972(12)
H6 H 0.7621 1.1777 0.1026
C6 C 0.6818(6) 1.1770(5) 0.3127(13)
H7 H 0.6644 1.2295 0.2998
C7 C 0.6268(5) 1.0031(5) 0.6091(11)
C8 C 0.5931(5) 0.8765(4) 0.7378(11)
H8 H 0.5954 0.8229 0.6905
H9 H 0.5309 0.8941 0.7175
C9 C 0.6227(5) 0.8765(4) 0.9502(10)
H10 H 0.6370 0.9306 0.9918
C10 C 0.5495(5) 0.8453(5) 1.0576(12)
H11 H 0.5686 0.8469 1.1914
H12 H 0.5363 0.7918 1.0197
H13 H 0.4961 0.8769 1.0311
C11 C 0.7829(5) 0.8564(4) 1.0337(9)
H14 H 0.7889 0.9110 1.0370
C12 C 0.8615(5) 0.8092(4) 1.0789(9)
C13 C 0.8541(5) 0.7250(4) 1.0767(9)
C14 C 0.9341(5) 0.6831(4) 1.1346(9)
C15 C 1.0141(5) 0.7196(5) 1.1900(9)
H15 H 1.0655 0.6900 1.2272
C16 C 1.0181(5) 0.8026(4) 1.1905(9)
C17 C 0.9439(5) 0.8456(4) 1.1376(9)
H16 H 0.9475 0.9004 1.1401
loop_
_geom_bond_atom_site_label_1
_geom_bond_atom_site_label_2
_geom_bond_site_symmetry_1
_geom_bond_site_symmetry_2
Br1 C14 1_555 1_555
Br2 C16 1_555 1_555
N1 H1 1_555 1_555
O1 H2 1_555 1_555
C1 O1 1_555 1_555
N2 C9 1_555 1_555
O2 C7 1_555 1_555
C2 C1 1_555 1_555
O3 H3 1_555 1_555
C3 C2 1_555 1_555
H4 C3 1_555 1_555
C4 C3 1_555 1_555
H5 C4 1_555 1_555
C5 C4 1_555 1_555
H6 C5 1_555 1_555
C6 C1 1_555 1_555
H7 C6 1_555 1_555
C7 N1 1_555 1_555
C8 N1 1_555 1_555
H8 C8 1_555 1_555
H9 C8 1_555 1_555
C9 C8 1_555 1_555
H10 C9 1_555 1_555
C10 C9 1_555 1_555
H11 C10 1_555 1_555
H12 C10 1_555 1_555
H13 C10 1_555 1_555
C11 N2 1_555 1_555
H14 C11 1_555 1_555
C12 C11 1_555 1_555
C13 O3 1_555 1_555
C14 C13 1_555 1_555
C15 C14 1_555 1_555
H15 C15 1_555 1_555
C16 C15 1_555 1_555
C17 C12 1_555 1_555
H16 C17 1_555 1_555
C2 C7 1_555 1_555
C5 C6 1_555 1_555
C12 C13 1_555 1_555
C16 C17 1_555 1_555

#END
