
#######################################################################
#
#                 Cambridge Crystallographic Data Centre
#                                CCDC 
#
#######################################################################
#
# If this CIF has been generated from an entry in the Cambridge 
# Structural Database, then it will include bibliographic, chemical, 
# crystal, experimental, refinement or atomic coordinate data resulting 
# from the CCDC's data processing and validation procedures.
#
#######################################################################

data_CUYSUM
_chemical_formula_moiety         'C23 H14 N2 O2'
_chemical_name_systematic        
2,9-diphenyl-1H-pyrrolo[3,4-b]quinoline-1,3(2H)-dione
_symmetry_cell_setting           monoclinic
_symmetry_space_group_name_H-M   'C c'
_symmetry_Int_Tables_number      9
_space_group_name_Hall           'C -2yc'
loop_
_symmetry_equiv_pos_site_id
_symmetry_equiv_pos_as_xyz
1 x,y,z
2 x,-y,1/2+z
3 1/2+x,1/2+y,z
4 1/2+x,1/2-y,1/2+z
_cell_length_a                   9.7121(5)
_cell_length_b                   22.7125(11)
_cell_length_c                   7.7773(4)
_cell_angle_alpha                90
_cell_angle_beta                 100.556(5)
_cell_angle_gamma                90
_cell_volume                     1686.53
_cell_formula_units_Z            4
_exptl_crystal_recrystallization_method 'Re-crystallisation from solvent:'
loop_
_atom_site_label
_atom_site_type_symbol
_atom_site_fract_x
_atom_site_fract_y
_atom_site_fract_z
C1 C 0.0977(4) 0.35881(15) 0.4494(5)
H1 H 0.1552 0.3915 0.4488
C2 C -0.0442(4) 0.36648(17) 0.4388(5)
H2 H -0.0820 0.4042 0.4274
C3 C -0.1322(4) 0.31792(18) 0.4449(5)
H3 H -0.2276 0.3237 0.4405
C4 C -0.0789(4) 0.26249(18) 0.4573(5)
H4 H -0.1383 0.2306 0.4611
C5 C 0.0652(3) 0.25274(15) 0.4646(4)
C6 C 0.1571(3) 0.30175(15) 0.4610(4)
C7 C 0.3033(3) 0.29206(13) 0.4610(4)
C8 C 0.3404(3) 0.23381(14) 0.4563(4)
C9 C 0.2430(3) 0.18886(14) 0.4680(4)
C10 C 0.3146(3) 0.13081(14) 0.4735(4)
C11 C 0.4767(3) 0.20512(13) 0.4460(4)
C12 C 0.4034(3) 0.34234(13) 0.4680(4)
C13 C 0.4722(3) 0.35414(14) 0.3317(4)
H5 H 0.4582 0.3300 0.2335
C14 C 0.5625(3) 0.40206(16) 0.3406(5)
H6 H 0.6065 0.4105 0.2468
C15 C 0.5871(4) 0.43725(16) 0.4881(6)
H7 H 0.6479 0.4691 0.4947
C16 C 0.5208(4) 0.42450(17) 0.6245(5)
H8 H 0.5379 0.4477 0.7246
C17 C 0.4286(4) 0.37761(16) 0.6161(5)
H9 H 0.3838 0.3698 0.7094
C18 C 0.5492(3) 0.09944(13) 0.4212(4)
C19 C 0.5027(4) 0.05278(14) 0.3115(4)
H10 H 0.4088 0.0500 0.2595
C20 C 0.5964(4) 0.01049(16) 0.2797(5)
H11 H 0.5654 -0.0209 0.2058
C21 C 0.7357(4) 0.01412(15) 0.3563(5)
H12 H 0.7984 -0.0148 0.3350
C22 C 0.7816(3) 0.06106(15) 0.4650(5)
H13 H 0.8757 0.0639 0.5159
C23 C 0.6887(3) 0.10372(14) 0.4987(4)
H14 H 0.7197 0.1350 0.5728
N1 N 0.1105(3) 0.19529(13) 0.4745(4)
N2 N 0.4512(3) 0.14371(11) 0.4501(3)
O1 O 0.2692(2) 0.08271(10) 0.4947(4)
O2 O 0.5861(3) 0.22670(11) 0.4333(4)
loop_
_geom_bond_atom_site_label_1
_geom_bond_atom_site_label_2
_geom_bond_site_symmetry_1
_geom_bond_site_symmetry_2
C1 H1 1_555 1_555
C2 C1 1_555 1_555
H2 C2 1_555 1_555
C3 C2 1_555 1_555
H3 C3 1_555 1_555
C4 C3 1_555 1_555
H4 C4 1_555 1_555
C5 C4 1_555 1_555
C6 C1 1_555 1_555
C7 C6 1_555 1_555
C8 C7 1_555 1_555
C9 C8 1_555 1_555
C10 C9 1_555 1_555
C11 C8 1_555 1_555
C12 C7 1_555 1_555
C13 C12 1_555 1_555
H5 C13 1_555 1_555
C14 C13 1_555 1_555
H6 C14 1_555 1_555
C15 C14 1_555 1_555
H7 C15 1_555 1_555
C16 C15 1_555 1_555
H8 C16 1_555 1_555
C17 C12 1_555 1_555
H9 C17 1_555 1_555
C18 C19 1_555 1_555
C19 H10 1_555 1_555
C20 C19 1_555 1_555
H11 C20 1_555 1_555
C21 C20 1_555 1_555
H12 C21 1_555 1_555
C22 C21 1_555 1_555
H13 C22 1_555 1_555
C23 C18 1_555 1_555
H14 C23 1_555 1_555
N1 C5 1_555 1_555
N2 C10 1_555 1_555
O1 C10 1_555 1_555
O2 C11 1_555 1_555
C5 C6 1_555 1_555
C9 N1 1_555 1_555
C11 N2 1_555 1_555
C16 C17 1_555 1_555
C18 N2 1_555 1_555
C22 C23 1_555 1_555

#END
