
#######################################################################
#
#                 Cambridge Crystallographic Data Centre
#                                CCDC 
#
#######################################################################
#
# If this CIF has been generated from an entry in the Cambridge 
# Structural Database, then it will include bibliographic, chemical, 
# crystal, experimental, refinement or atomic coordinate data resulting 
# from the CCDC's data processing and validation procedures.
#
#######################################################################

data_CUZPOE
_chemical_formula_moiety         'C27 H35 Cl3 N2 Si1,C4 H8 O1'
_chemical_name_systematic        
'1,3-bis(2,6-diisopropylphenyl)-4-(trichlorosilyl)imidazol-2-ylidene dicarbene tetrahydrofuran solvate'
_symmetry_cell_setting           monoclinic
_symmetry_space_group_name_H-M   'P 2/n'
_symmetry_Int_Tables_number      13
_space_group_name_Hall           '-P 2yac'
loop_
_symmetry_equiv_pos_site_id
_symmetry_equiv_pos_as_xyz
1 x,y,z
2 1/2-x,y,1/2-z
3 -x,-y,-z
4 1/2+x,-y,1/2+z
_cell_length_a                   17.5567(10)
_cell_length_b                   11.8858(7)
_cell_length_c                   32.4529(18)
_cell_angle_alpha                90
_cell_angle_beta                 96.6710(10)
_cell_angle_gamma                90
_cell_volume                     6726.27
_exptl_crystal_colour            colorless
_exptl_crystal_description       plate
_cell_formula_units_Z            8
loop_
_atom_site_label
_atom_site_type_symbol
_atom_site_fract_x
_atom_site_fract_y
_atom_site_fract_z
Si1 Si 0.36090(6) 0.73570(8) 0.05610(3)
Cl1 Cl 0.28014(8) 0.75081(11) 0.00715(4)
Cl2 Cl 0.46254(7) 0.77023(11) 0.03677(5)
Cl3 Cl 0.34077(9) 0.85704(9) 0.09663(4)
N1 N 0.31260(15) 0.4256(2) 0.09046(8)
N2 N 0.40375(14) 0.5388(2) 0.10806(7)
C1 C 0.37919(18) 0.4345(3) 0.11698(10)
C2 C 0.29791(19) 0.5199(3) 0.06665(10)
H1 H 0.2560 0.5307 0.0468
C3 C 0.35469(18) 0.5945(3) 0.07702(10)
C4 C 0.47575(18) 0.5839(3) 0.12754(10)
C5 C 0.54262(19) 0.5549(3) 0.11053(11)
C6 C 0.6106(2) 0.5992(4) 0.13029(13)
H2 H 0.6566 0.5822 0.1200
C7 C 0.6118(3) 0.6665(4) 0.16409(15)
H3 H 0.6582 0.6953 0.1764
C8 C 0.5455(3) 0.6925(4) 0.18038(13)
H4 H 0.5476 0.7382 0.2037
C9 C 0.4751(2) 0.6518(3) 0.16258(11)
C10 C 0.4022(2) 0.6752(3) 0.18223(12)
H5 H 0.3593 0.6746 0.1600
C11 C 0.3879(3) 0.5818(4) 0.21274(13)
H6 H 0.3871 0.5104 0.1989
H7 H 0.3395 0.5942 0.2231
H8 H 0.4281 0.5821 0.2355
C12 C 0.4025(3) 0.7907(4) 0.20370(15)
H9 H 0.4108 0.8487 0.1841
H10 H 0.4428 0.7928 0.2264
H11 H 0.3540 0.8027 0.2140
C13 C 0.5435(2) 0.4750(3) 0.07459(12)
H12 H 0.4906 0.4675 0.0614
C14 C 0.5701(3) 0.3585(4) 0.09082(17)
H13 H 0.5385 0.3341 0.1114
H14 H 0.6225 0.3628 0.1030
H15 H 0.5659 0.3059 0.0683
C15 C 0.5925(3) 0.5155(4) 0.04154(14)
H16 H 0.5744 0.5876 0.0313
H17 H 0.5889 0.4625 0.0191
H18 H 0.6450 0.5218 0.0535
C16 C 0.26376(19) 0.3277(3) 0.08924(11)
C17 C 0.2796(2) 0.2373(3) 0.06423(11)
C18 C 0.2324(2) 0.1434(3) 0.06435(13)
H19 H 0.2419 0.0809 0.0485
C19 C 0.1719(2) 0.1417(3) 0.08769(14)
H20 H 0.1406 0.0785 0.0871
C20 C 0.1573(2) 0.2318(4) 0.11165(13)
H21 H 0.1164 0.2287 0.1274
C21 C 0.2025(2) 0.3279(3) 0.11290(11)
C22 C 0.1839(2) 0.4282(4) 0.13874(13)
H22 H 0.2251 0.4831 0.1373
C23 C 0.1819(5) 0.4023(6) 0.18309(17)
H23 H 0.2298 0.3691 0.1942
H24 H 0.1409 0.3504 0.1860
H25 H 0.1737 0.4703 0.1979
C24 C 0.1104(3) 0.4834(6) 0.1190(2)
H26 H 0.0991 0.5477 0.1351
H27 H 0.0689 0.4305 0.1181
H28 H 0.1168 0.5068 0.0913
C25 C 0.3461(2) 0.2373(3) 0.03794(12)
H29 H 0.3693 0.3124 0.0400
C26 C 0.3187(3) 0.2157(6) -0.00766(15)
H30 H 0.2805 0.2704 -0.0173
H31 H 0.2971 0.1416 -0.0108
H32 H 0.3613 0.2215 -0.0236
C27 C 0.4071(3) 0.1542(5) 0.0542(2)
H33 H 0.4483 0.1564 0.0372
H34 H 0.3856 0.0799 0.0535
H35 H 0.4263 0.1733 0.0822
Si2 Si 0.60765(6) -0.20436(10) 0.32368(3)
Cl4 Cl 0.53058(8) -0.32941(11) 0.32054(5)
Cl5 Cl 0.67466(7) -0.23020(12) 0.27821(4)
Cl6 Cl 0.67460(8) -0.22043(12) 0.37802(4)
N3 N 0.53999(16) 0.1058(3) 0.29272(8)
N4 N 0.51333(14) -0.0088(2) 0.33862(7)
C28 C 0.49616(19) 0.0976(3) 0.32519(10)
C29 C 0.5806(2) 0.0110(3) 0.28694(11)
H36 H 0.6131 0.0003 0.2666
C30 C 0.56542(18) -0.0658(3) 0.31602(10)
C31 C 0.48046(18) -0.0590(3) 0.37332(9)
C32 C 0.41315(19) -0.1214(3) 0.36525(10)
C33 C 0.3847(2) -0.1702(3) 0.39902(12)
H37 H 0.3406 -0.2140 0.3948
C34 C 0.4200(2) -0.1556(3) 0.43862(12)
H38 H 0.3993 -0.1885 0.4608
C35 C 0.4853(2) -0.0930(3) 0.44557(11)
H39 H 0.5086 -0.0843 0.4726
C36 C 0.51787(19) -0.0420(3) 0.41337(9)
C37 C 0.5872(2) 0.0337(3) 0.42195(11)
H40 H 0.6132 0.0364 0.3968
C38 C 0.5611(3) 0.1532(3) 0.43102(14)
H41 H 0.5250 0.1788 0.4085
H42 H 0.6047 0.2025 0.4341
H43 H 0.5372 0.1532 0.4562
C39 C 0.6449(2) -0.0074(4) 0.45752(12)
H44 H 0.6615 -0.0820 0.4515
H45 H 0.6213 -0.0084 0.4827
H46 H 0.6884 0.0422 0.4607
C40 C 0.3695(2) -0.1305(3) 0.32221(11)
H47 H 0.4067 -0.1222 0.3021
C41 C 0.3131(2) -0.0334(4) 0.31555(13)
H48 H 0.3399 0.0364 0.3209
H49 H 0.2746 -0.0410 0.3341
H50 H 0.2892 -0.0342 0.2874
C42 C 0.3286(3) -0.2418(4) 0.31355(14)
H51 H 0.3650 -0.3022 0.3174
H52 H 0.3041 -0.2426 0.2855
H53 H 0.2906 -0.2512 0.3323
C43 C 0.5443(2) 0.2059(3) 0.26725(11)
C44 C 0.4924(2) 0.2169(3) 0.23137(11)
C45 C 0.5011(3) 0.3112(4) 0.20685(13)
H54 H 0.4677 0.3220 0.1828
C46 C 0.5575(3) 0.3879(4) 0.21742(16)
H55 H 0.5627 0.4491 0.2001
C47 C 0.6068(3) 0.3763(4) 0.25316(17)
H56 H 0.6443 0.4305 0.2601
C48 C 0.6012(2) 0.2849(4) 0.27909(13)
C49 C 0.6553(3) 0.2745(6) 0.31868(18)
H57 H 0.6528 0.1969 0.3286
C50 C 0.7374(4) 0.2990(10) 0.3123(3)
H58 H 0.7534 0.2481 0.2920
H59 H 0.7696 0.2895 0.3381
H60 H 0.7414 0.3750 0.3028
C51 C 0.6311(6) 0.3523(7) 0.3521(2)
H61 H 0.5796 0.3349 0.3570
H62 H 0.6337 0.4290 0.3431
H63 H 0.6650 0.3421 0.3773
C52 C 0.4265(2) 0.1369(4) 0.22078(12)
H64 H 0.4391 0.0656 0.2351
C53 C 0.4099(4) 0.1123(5) 0.17397(17)
H65 H 0.4548 0.0812 0.1641
H66 H 0.3960 0.1809 0.1594
H67 H 0.3684 0.0595 0.1693
C54 C 0.3556(3) 0.1830(6) 0.2359(2)
H68 H 0.3654 0.1981 0.2651
H69 H 0.3149 0.1290 0.2310
H70 H 0.3410 0.2514 0.2214
O1 O 0.1514(4) 0.4730(7) -0.0004(2)
C55 C 0.1475(6) 0.5214(9) -0.0373(3)
H71 H 0.1409 0.6020 -0.0346
H72 H 0.1944 0.5078 -0.0496
C56 C 0.0876(6) 0.4772(9) -0.0611(3)
H73 H 0.1026 0.4545 -0.0877
H74 H 0.0467 0.5322 -0.0659
C57 C 0.0620(6) 0.3812(8) -0.0394(3)
H75 H 0.0087 0.3897 -0.0350
H76 H 0.0674 0.3129 -0.0552
C58 C 0.1087(5) 0.3768(7) -0.0016(3)
H77 H 0.1414 0.3109 -0.0003
H78 H 0.0779 0.3745 0.0213
O2 O 0.6172(9) 0.0052(12) 0.1642(5)
C59 C 0.5894(9) -0.0200(17) 0.1184(5)
H79 H 0.5839 -0.1009 0.1154
H80 H 0.5386 0.0124 0.1121
C60 C 0.6339(14) 0.0174(17) 0.0885(5)
H81 H 0.6089 0.0751 0.0707
H82 H 0.6519 -0.0432 0.0721
C61 C 0.6929(10) 0.0615(14) 0.1193(7)
H83 H 0.7426 0.0569 0.1090
H84 H 0.6826 0.1398 0.1250
C62 C 0.6932(11) -0.0045(18) 0.1566(7)
H85 H 0.7279 0.0266 0.1792
H86 H 0.7069 -0.0822 0.1521
loop_
_geom_bond_atom_site_label_1
_geom_bond_atom_site_label_2
_geom_bond_site_symmetry_1
_geom_bond_site_symmetry_2
Si1 Cl1 1_555 1_555
Cl2 Si1 1_555 1_555
Cl3 Si1 1_555 1_555
N1 C1 1_555 1_555
N2 C1 1_555 1_555
C2 N1 1_555 1_555
H1 C2 1_555 1_555
C3 Si1 1_555 1_555
C4 N2 1_555 1_555
C5 C4 1_555 1_555
C6 C5 1_555 1_555
H2 C6 1_555 1_555
C7 C6 1_555 1_555
H3 C7 1_555 1_555
C8 C7 1_555 1_555
H4 C8 1_555 1_555
C9 C4 1_555 1_555
C10 C9 1_555 1_555
H5 C10 1_555 1_555
C11 C10 1_555 1_555
H6 C11 1_555 1_555
H7 C11 1_555 1_555
H8 C11 1_555 1_555
C12 C10 1_555 1_555
H9 C12 1_555 1_555
H10 C12 1_555 1_555
H11 C12 1_555 1_555
C13 C5 1_555 1_555
H12 C13 1_555 1_555
C14 C13 1_555 1_555
H13 C14 1_555 1_555
H14 C14 1_555 1_555
H15 C14 1_555 1_555
C15 C13 1_555 1_555
H16 C15 1_555 1_555
H17 C15 1_555 1_555
H18 C15 1_555 1_555
C16 N1 1_555 1_555
C17 C16 1_555 1_555
C18 C17 1_555 1_555
H19 C18 1_555 1_555
C19 C18 1_555 1_555
H20 C19 1_555 1_555
C20 C19 1_555 1_555
H21 C20 1_555 1_555
C21 C16 1_555 1_555
C22 C21 1_555 1_555
H22 C22 1_555 1_555
C23 C22 1_555 1_555
H23 C23 1_555 1_555
H24 C23 1_555 1_555
H25 C23 1_555 1_555
C24 C22 1_555 1_555
H26 C24 1_555 1_555
H27 C24 1_555 1_555
H28 C24 1_555 1_555
C25 C17 1_555 1_555
H29 C25 1_555 1_555
C26 C25 1_555 1_555
H30 C26 1_555 1_555
H31 C26 1_555 1_555
H32 C26 1_555 1_555
C27 C25 1_555 1_555
H33 C27 1_555 1_555
H34 C27 1_555 1_555
H35 C27 1_555 1_555
Si2 Cl4 1_555 1_555
Cl5 Si2 1_555 1_555
Cl6 Si2 1_555 1_555
N3 C28 1_555 1_555
N4 C28 1_555 1_555
C29 N3 1_555 1_555
H36 C29 1_555 1_555
C30 Si2 1_555 1_555
C31 N4 1_555 1_555
C32 C31 1_555 1_555
C33 C32 1_555 1_555
H37 C33 1_555 1_555
C34 C33 1_555 1_555
H38 C34 1_555 1_555
C35 C34 1_555 1_555
H39 C35 1_555 1_555
C36 C31 1_555 1_555
C37 C36 1_555 1_555
H40 C37 1_555 1_555
C38 C37 1_555 1_555
H41 C38 1_555 1_555
H42 C38 1_555 1_555
H43 C38 1_555 1_555
C39 C37 1_555 1_555
H44 C39 1_555 1_555
H45 C39 1_555 1_555
H46 C39 1_555 1_555
C40 C32 1_555 1_555
H47 C40 1_555 1_555
C41 C40 1_555 1_555
H48 C41 1_555 1_555
H49 C41 1_555 1_555
H50 C41 1_555 1_555
C42 C40 1_555 1_555
H51 C42 1_555 1_555
H52 C42 1_555 1_555
H53 C42 1_555 1_555
C43 N3 1_555 1_555
C44 C43 1_555 1_555
C45 C44 1_555 1_555
H54 C45 1_555 1_555
C46 C45 1_555 1_555
H55 C46 1_555 1_555
C47 C46 1_555 1_555
H56 C47 1_555 1_555
C48 C43 1_555 1_555
C49 C48 1_555 1_555
H57 C49 1_555 1_555
C50 C49 1_555 1_555
H58 C50 1_555 1_555
H59 C50 1_555 1_555
H60 C50 1_555 1_555
C51 C49 1_555 1_555
H61 C51 1_555 1_555
H62 C51 1_555 1_555
H63 C51 1_555 1_555
C52 C44 1_555 1_555
H64 C52 1_555 1_555
C53 C52 1_555 1_555
H65 C53 1_555 1_555
H66 C53 1_555 1_555
H67 C53 1_555 1_555
C54 C52 1_555 1_555
H68 C54 1_555 1_555
H69 C54 1_555 1_555
H70 C54 1_555 1_555
O1 C55 1_555 1_555
C55 H71 1_555 1_555
H72 C55 1_555 1_555
C56 C55 1_555 1_555
H73 C56 1_555 1_555
H74 C56 1_555 1_555
C57 C56 1_555 1_555
H75 C57 1_555 1_555
H76 C57 1_555 1_555
C58 O1 1_555 1_555
H77 C58 1_555 1_555
H78 C58 1_555 1_555
O2 C59 1_555 1_555
C59 H79 1_555 1_555
H80 C59 1_555 1_555
C60 C59 1_555 1_555
H81 C60 1_555 1_555
H82 C60 1_555 1_555
C61 C60 1_555 1_555
H83 C61 1_555 1_555
H84 C61 1_555 1_555
C62 O2 1_555 1_555
H85 C62 1_555 1_555
H86 C62 1_555 1_555
N2 C3 1_555 1_555
C2 C3 1_555 1_555
C8 C9 1_555 1_555
C20 C21 1_555 1_555
N4 C30 1_555 1_555
C29 C30 1_555 1_555
C35 C36 1_555 1_555
C47 C48 1_555 1_555
C57 C58 1_555 1_555
C61 C62 1_555 1_555

#END
