
#######################################################################
#
#                 Cambridge Crystallographic Data Centre
#                                CCDC 
#
#######################################################################
#
# If this CIF has been generated from an entry in the Cambridge 
# Structural Database, then it will include bibliographic, chemical, 
# crystal, experimental, refinement or atomic coordinate data resulting 
# from the CCDC's data processing and validation procedures.
#
#######################################################################

data_CUZQAR
_chemical_formula_moiety         'C54 H72 Cl3 N4 Si1 1+,C1 H2 Cl2,Cl1 1-'
_chemical_name_systematic        
'bis(1,3-bis(2,6-diisopropylphenyl)-1H-imidazol-3-ium-5-yl)-trichloro-silicon chloride dichloromethane solvate'
_symmetry_cell_setting           orthorhombic
_symmetry_space_group_name_H-M   'P n a 21'
_symmetry_Int_Tables_number      33
_space_group_name_Hall           'P 2c -2n'
loop_
_symmetry_equiv_pos_site_id
_symmetry_equiv_pos_as_xyz
1 x,y,z
2 -x,-y,1/2+z
3 1/2-x,1/2+y,1/2+z
4 1/2+x,1/2-y,z
_cell_length_a                   22.491(2)
_cell_length_b                   24.236(2)
_cell_length_c                   10.5002(10)
_cell_angle_alpha                90
_cell_angle_beta                 90
_cell_angle_gamma                90
_cell_volume                     5723.57
_exptl_crystal_colour            colorless
_exptl_crystal_description       plate
_cell_formula_units_Z            4
loop_
_atom_site_label
_atom_site_type_symbol
_atom_site_fract_x
_atom_site_fract_y
_atom_site_fract_z
Si1 Si 0.87295(5) 0.61079(5) 0.39622(14)
Cl1 Cl 0.86323(6) 0.65469(5) 0.21175(12)
Cl2 Cl 0.87056(7) 0.57017(5) 0.58857(13)
Cl3 Cl 0.95828(5) 0.58558(5) 0.35837(15)
N1 N 0.71885(16) 0.52731(15) 0.3196(4)
N2 N 0.81316(17) 0.51035(15) 0.3018(4)
N3 N 0.82966(17) 0.71539(15) 0.5165(4)
N4 N 0.91046(17) 0.75137(15) 0.5899(4)
C1 C 0.7587(2) 0.48965(19) 0.2837(5)
H1 H 0.751(3) 0.4536(15) 0.249(6)
C2 C 0.7488(2) 0.57450(18) 0.3604(5)
H2 H 0.7310 0.6077 0.3900
C3 C 0.8085(2) 0.56444(18) 0.3501(5)
C4 C 0.8674(2) 0.48168(18) 0.2693(5)
C5 C 0.8933(2) 0.44677(19) 0.3615(5)
C6 C 0.9476(2) 0.4225(2) 0.3277(6)
H3 H 0.9673 0.3992 0.3870
C7 C 0.9734(2) 0.4319(2) 0.2094(6)
H4 H 1.0107 0.4158 0.1895
C8 C 0.9450(2) 0.4642(2) 0.1210(6)
H5 H 0.9624 0.4689 0.0393
C9 C 0.8911(2) 0.4905(2) 0.1481(5)
C10 C 0.8587(2) 0.5224(2) 0.0448(5)
H6 H 0.8301 0.5480 0.0877
C11 C 0.8220(3) 0.4820(2) -0.0372(6)
H7 H 0.7961 0.4600 0.0180
H8 H 0.8490 0.4574 -0.0837
H9 H 0.7978 0.5028 -0.0980
C12 C 0.9000(3) 0.5574(3) -0.0375(6)
H10 H 0.9225 0.5828 0.0169
H11 H 0.8764 0.5785 -0.0989
H12 H 0.9277 0.5332 -0.0832
C13 C 0.8639(2) 0.4328(2) 0.4860(5)
H13 H 0.8344 0.4624 0.5057
C14 C 0.8299(3) 0.3775(2) 0.4732(6)
H14 H 0.8016 0.3800 0.4024
H15 H 0.8083 0.3699 0.5524
H16 H 0.8582 0.3476 0.4566
C15 C 0.9078(3) 0.4294(3) 0.5968(6)
H17 H 0.9293 0.4644 0.6044
H18 H 0.9361 0.3994 0.5811
H19 H 0.8860 0.4221 0.6759
C16 C 0.6551(2) 0.51967(19) 0.3203(5)
C17 C 0.6303(2) 0.4916(2) 0.4236(5)
C18 C 0.5687(2) 0.4836(2) 0.4208(6)
H20 H 0.5499 0.4650 0.4895
C19 C 0.5351(2) 0.5019(2) 0.3211(6)
H21 H 0.4935 0.4952 0.3205
C20 C 0.5611(2) 0.5300(2) 0.2210(6)
H22 H 0.5370 0.5432 0.1532
C21 C 0.6224(2) 0.5392(2) 0.2184(5)
C22 C 0.6511(3) 0.5659(2) 0.1037(5)
H23 H 0.6933 0.5744 0.1256
C23 C 0.6510(4) 0.5244(3) -0.0056(7)
H24 H 0.6706 0.4903 0.0221
H25 H 0.6725 0.5399 -0.0784
H26 H 0.6099 0.5163 -0.0305
C24 C 0.6206(3) 0.6197(3) 0.0662(7)
H27 H 0.6215 0.6453 0.1383
H28 H 0.5792 0.6122 0.0424
H29 H 0.6415 0.6362 -0.0064
C25 C 0.6666(3) 0.4691(3) 0.5321(6)
H30 H 0.7088 0.4806 0.5183
C26 C 0.6646(4) 0.4052(3) 0.5315(7)
H31 H 0.6778 0.3915 0.4483
H32 H 0.6238 0.3928 0.5475
H33 H 0.6909 0.3909 0.5981
C27 C 0.6469(3) 0.4918(3) 0.6599(6)
H34 H 0.6492 0.5321 0.6586
H35 H 0.6729 0.4774 0.7270
H36 H 0.6058 0.4804 0.6768
C28 C 0.8523(2) 0.75820(19) 0.5823(5)
H37 H 0.826(2) 0.7860(18) 0.617(5)
C29 C 0.8757(2) 0.6792(2) 0.4829(5)
C30 C 0.9262(2) 0.70311(18) 0.5285(5)
H38 H 0.9654 0.6890 0.5196
C31 C 0.9519(2) 0.79199(19) 0.6391(5)
C32 C 0.9709(2) 0.8330(2) 0.5541(6)
C33 C 1.0105(2) 0.8715(2) 0.6012(7)
H39 H 1.0245 0.9001 0.5472
C34 C 1.0302(3) 0.8689(2) 0.7262(7)
H40 H 1.0576 0.8957 0.7565
C35 C 1.0107(3) 0.8281(3) 0.8070(6)
H41 H 1.0248 0.8270 0.8922
C36 C 0.9703(2) 0.7881(2) 0.7652(6)
C37 C 0.9464(3) 0.7436(3) 0.8552(6)
H42 H 0.9339 0.7115 0.8016
C38 C 0.8916(3) 0.7646(4) 0.9244(8)
H43 H 0.8766 0.7358 0.9814
H44 H 0.8608 0.7742 0.8621
H45 H 0.9020 0.7974 0.9743
C39 C 0.9911(3) 0.7225(3) 0.9513(7)
H46 H 0.9725 0.6942 1.0047
H47 H 1.0046 0.7531 1.0051
H48 H 1.0253 0.7065 0.9065
C40 C 0.9469(3) 0.8368(2) 0.4201(7)
H49 H 0.9194 0.8048 0.4073
C41 C 0.9955(3) 0.8326(3) 0.3199(7)
H50 H 1.0179 0.7983 0.3325
H51 H 1.0225 0.8642 0.3279
H52 H 0.9776 0.8326 0.2349
C42 C 0.9100(3) 0.8895(3) 0.4046(9)
H53 H 0.8791 0.8907 0.4703
H54 H 0.8914 0.8898 0.3202
H55 H 0.9359 0.9218 0.4134
C43 C 0.7664(2) 0.70650(19) 0.4998(5)
C44 C 0.7360(2) 0.6799(2) 0.5986(5)
C45 C 0.6753(2) 0.6701(2) 0.5777(5)
H56 H 0.6527 0.6518 0.6414
C46 C 0.6480(2) 0.6862(2) 0.4681(6)
H57 H 0.6072 0.6779 0.4553
C47 C 0.6790(2) 0.7146(2) 0.3751(5)
H58 H 0.6588 0.7265 0.3005
C48 C 0.7391(2) 0.72593(19) 0.3891(5)
C49 C 0.7712(2) 0.7633(2) 0.2948(5)
H59 H 0.8148 0.7558 0.3017
C50 C 0.7524(3) 0.7532(3) 0.1573(5)
H60 H 0.7744 0.7782 0.1010
H61 H 0.7096 0.7601 0.1487
H62 H 0.7610 0.7149 0.1339
C51 C 0.7601(3) 0.8237(2) 0.3324(6)
H63 H 0.7731 0.8296 0.4204
H64 H 0.7176 0.8319 0.3254
H65 H 0.7825 0.8480 0.2754
C52 C 0.7636(3) 0.6687(2) 0.7269(5)
H66 H 0.8078 0.6695 0.7169
C53 C 0.7459(3) 0.6123(3) 0.7804(7)
H67 H 0.7577 0.5834 0.7203
H68 H 0.7028 0.6111 0.7931
H69 H 0.7660 0.6063 0.8620
C54 C 0.7460(4) 0.7147(3) 0.8189(6)
H70 H 0.7577 0.7504 0.7832
H71 H 0.7661 0.7090 0.9007
H72 H 0.7028 0.7141 0.8318
Cl4 Cl 0.71777(7) 0.36864(5) 0.17777(15)
C55 C 0.6314(3) 0.8321(3) 0.5806(7)
H73 H 0.6720 0.8176 0.5659
H74 H 0.6350 0.8687 0.6220
Cl5 Cl 0.59163(8) 0.78659(7) 0.68075(19)
Cl6 Cl 0.59373(8) 0.83898(7) 0.4330(2)
loop_
_geom_bond_atom_site_label_1
_geom_bond_atom_site_label_2
_geom_bond_site_symmetry_1
_geom_bond_site_symmetry_2
Si1 Cl1 1_555 1_555
Cl2 Si1 1_555 1_555
Cl3 Si1 1_555 1_555
N1 C1 1_555 1_555
N2 C1 1_555 1_555
N3 C28 1_555 1_555
N4 C28 1_555 1_555
C1 H1 1_555 1_555
C2 N1 1_555 1_555
H2 C2 1_555 1_555
C3 Si1 1_555 1_555
C4 N2 1_555 1_555
C5 C4 1_555 1_555
C6 C5 1_555 1_555
H3 C6 1_555 1_555
C7 C6 1_555 1_555
H4 C7 1_555 1_555
C8 C7 1_555 1_555
H5 C8 1_555 1_555
C9 C4 1_555 1_555
C10 C9 1_555 1_555
H6 C10 1_555 1_555
C11 C10 1_555 1_555
H7 C11 1_555 1_555
H8 C11 1_555 1_555
H9 C11 1_555 1_555
C12 C10 1_555 1_555
H10 C12 1_555 1_555
H11 C12 1_555 1_555
H12 C12 1_555 1_555
C13 C5 1_555 1_555
H13 C13 1_555 1_555
C14 C13 1_555 1_555
H14 C14 1_555 1_555
H15 C14 1_555 1_555
H16 C14 1_555 1_555
C15 C13 1_555 1_555
H17 C15 1_555 1_555
H18 C15 1_555 1_555
H19 C15 1_555 1_555
C16 N1 1_555 1_555
C17 C16 1_555 1_555
C18 C17 1_555 1_555
H20 C18 1_555 1_555
C19 C18 1_555 1_555
H21 C19 1_555 1_555
C20 C19 1_555 1_555
H22 C20 1_555 1_555
C21 C16 1_555 1_555
C22 C21 1_555 1_555
H23 C22 1_555 1_555
C23 C22 1_555 1_555
H24 C23 1_555 1_555
H25 C23 1_555 1_555
H26 C23 1_555 1_555
C24 C22 1_555 1_555
H27 C24 1_555 1_555
H28 C24 1_555 1_555
H29 C24 1_555 1_555
C25 C17 1_555 1_555
H30 C25 1_555 1_555
C26 C25 1_555 1_555
H31 C26 1_555 1_555
H32 C26 1_555 1_555
H33 C26 1_555 1_555
C27 C25 1_555 1_555
H34 C27 1_555 1_555
H35 C27 1_555 1_555
H36 C27 1_555 1_555
C28 H37 1_555 1_555
C29 Si1 1_555 1_555
C30 N4 1_555 1_555
H38 C30 1_555 1_555
C31 N4 1_555 1_555
C32 C31 1_555 1_555
C33 C32 1_555 1_555
H39 C33 1_555 1_555
C34 C33 1_555 1_555
H40 C34 1_555 1_555
C35 C34 1_555 1_555
H41 C35 1_555 1_555
C36 C31 1_555 1_555
C37 C36 1_555 1_555
H42 C37 1_555 1_555
C38 C37 1_555 1_555
H43 C38 1_555 1_555
H44 C38 1_555 1_555
H45 C38 1_555 1_555
C39 C37 1_555 1_555
H46 C39 1_555 1_555
H47 C39 1_555 1_555
H48 C39 1_555 1_555
C40 C32 1_555 1_555
H49 C40 1_555 1_555
C41 C40 1_555 1_555
H50 C41 1_555 1_555
H51 C41 1_555 1_555
H52 C41 1_555 1_555
C42 C40 1_555 1_555
H53 C42 1_555 1_555
H54 C42 1_555 1_555
H55 C42 1_555 1_555
C43 N3 1_555 1_555
C44 C43 1_555 1_555
C45 C44 1_555 1_555
H56 C45 1_555 1_555
C46 C45 1_555 1_555
H57 C46 1_555 1_555
C47 C46 1_555 1_555
H58 C47 1_555 1_555
C48 C43 1_555 1_555
C49 C48 1_555 1_555
H59 C49 1_555 1_555
C50 C49 1_555 1_555
H60 C50 1_555 1_555
H61 C50 1_555 1_555
H62 C50 1_555 1_555
C51 C49 1_555 1_555
H63 C51 1_555 1_555
H64 C51 1_555 1_555
H65 C51 1_555 1_555
C52 C44 1_555 1_555
H66 C52 1_555 1_555
C53 C52 1_555 1_555
H67 C53 1_555 1_555
H68 C53 1_555 1_555
H69 C53 1_555 1_555
C54 C52 1_555 1_555
H70 C54 1_555 1_555
H71 C54 1_555 1_555
H72 C54 1_555 1_555
C55 H73 1_555 1_555
H74 C55 1_555 1_555
Cl5 C55 1_555 1_555
Cl6 C55 1_555 1_555
N2 C3 1_555 1_555
N3 C29 1_555 1_555
C2 C3 1_555 1_555
C8 C9 1_555 1_555
C20 C21 1_555 1_555
C29 C30 1_555 1_555
C35 C36 1_555 1_555
C47 C48 1_555 1_555

#END
