
#######################################################################
#
#                 Cambridge Crystallographic Data Centre
#                                CCDC 
#
#######################################################################
#
# If this CIF has been generated from an entry in the Cambridge 
# Structural Database, then it will include bibliographic, chemical, 
# crystal, experimental, refinement or atomic coordinate data resulting 
# from the CCDC's data processing and validation procedures.
#
#######################################################################

data_CUZQOE
_chemical_formula_moiety         'C11 H15 N1 O4 S1'
_chemical_name_systematic        
'Diethyl 5-amino-3-methylthiophene-2,4-dicarboxylate'
_symmetry_cell_setting           monoclinic
_symmetry_space_group_name_H-M   'P 21/c'
_symmetry_Int_Tables_number      14
_space_group_name_Hall           '-P 2ybc'
loop_
_symmetry_equiv_pos_site_id
_symmetry_equiv_pos_as_xyz
1 x,y,z
2 -x,1/2+y,1/2-z
3 -x,-y,-z
4 x,1/2-y,1/2+z
_cell_length_a                   8.1325(6)
_cell_length_b                   13.7696(10)
_cell_length_c                   11.4871(9)
_cell_angle_alpha                90
_cell_angle_beta                 100.629(2)
_cell_angle_gamma                90
_cell_volume                     1264.27
_exptl_crystal_colour            red
_exptl_crystal_description       block
_chemical_melting_point          366-368K
_cell_formula_units_Z            4
_exptl_crystal_recrystallization_method ethanol
loop_
_atom_site_label
_atom_site_type_symbol
_atom_site_fract_x
_atom_site_fract_y
_atom_site_fract_z
S1 S 0.50840(5) 0.62224(2) 1.30439(3)
O1 O 0.82791(13) 0.82987(7) 1.61771(9)
O2 O 0.85690(15) 0.67128(8) 1.65506(10)
O3 O 0.39791(17) 0.87881(8) 1.16541(11)
O4 O 0.32636(14) 0.72402(8) 1.11908(9)
N1 N 0.6952(2) 0.54327(9) 1.49594(14)
C1 C 0.9530(3) 0.95517(15) 1.7464(2)
H1 H 1.0246 0.9694 1.8206
H2 H 0.8444 0.9828 1.7456
H3 H 1.0001 0.9823 1.6829
C2 C 0.9372(2) 0.84777(12) 1.73087(15)
H4 H 1.0462 0.8190 1.7316
H5 H 0.8900 0.8194 1.7947
C3 C 0.79557(18) 0.73685(10) 1.59033(13)
C4 C 0.68335(17) 0.72147(9) 1.47682(12)
C5 C 0.64227(17) 0.62562(9) 1.43964(13)
C6 C 0.50842(17) 0.74902(10) 1.29495(12)
C7 C 0.60576(17) 0.79203(10) 1.39185(13)
C8 C 0.6278(2) 0.90026(11) 1.40467(16)
H6 H 0.5635 0.9319 1.3367
H7 H 0.7439 0.9164 1.4106
H8 H 0.5899 0.9215 1.4748
C9 C 0.40904(18) 0.79320(10) 1.18969(13)
C10 C 0.2207(2) 0.75435(12) 1.00971(13)
H9 H 0.2846 0.7918 0.9620
H10 H 0.1290 0.7940 1.0259
C11 C 0.1560(2) 0.66326(14) 0.94668(16)
H11 H 0.0849 0.6795 0.8729
H12 H 0.0931 0.6271 0.9950
H13 H 0.2482 0.6247 0.9317
H14 H 0.673(2) 0.4861(15) 1.4634(18)
H15 H 0.759(3) 0.5526(14) 1.558(2)
loop_
_geom_bond_atom_site_label_1
_geom_bond_atom_site_label_2
_geom_bond_site_symmetry_1
_geom_bond_site_symmetry_2
S1 C5 1_555 1_555
O1 C2 1_555 1_555
O2 C3 1_555 1_555
O3 C9 1_555 1_555
O4 C9 1_555 1_555
N1 C5 1_555 1_555
C1 H1 1_555 1_555
H2 C1 1_555 1_555
H3 C1 1_555 1_555
C2 C1 1_555 1_555
H4 C2 1_555 1_555
H5 C2 1_555 1_555
C3 O1 1_555 1_555
C4 C3 1_555 1_555
C5 C4 1_555 1_555
C6 S1 1_555 1_555
C7 C4 1_555 1_555
C8 C7 1_555 1_555
H6 C8 1_555 1_555
H7 C8 1_555 1_555
H8 C8 1_555 1_555
C9 C6 1_555 1_555
C10 O4 1_555 1_555
H9 C10 1_555 1_555
H10 C10 1_555 1_555
C11 C10 1_555 1_555
H11 C11 1_555 1_555
H12 C11 1_555 1_555
H13 C11 1_555 1_555
H14 N1 1_555 1_555
H15 N1 1_555 1_555
C6 C7 1_555 1_555

#END
