
#######################################################################
#
#                 Cambridge Crystallographic Data Centre
#                                CCDC 
#
#######################################################################
#
# If this CIF has been generated from an entry in the Cambridge 
# Structural Database, then it will include bibliographic, chemical, 
# crystal, experimental, refinement or atomic coordinate data resulting 
# from the CCDC's data processing and validation procedures.
#
#######################################################################

data_CUZQIZ
_chemical_formula_moiety         'C18 H21 N1 O2'
_chemical_name_systematic        
4-ethyl-8,9-dimethoxy-5-methyl-5,6-dihydrophenanthridine
_symmetry_cell_setting           monoclinic
_symmetry_space_group_name_H-M   'P 21/c'
_symmetry_Int_Tables_number      14
_space_group_name_Hall           '-P 2ybc'
loop_
_symmetry_equiv_pos_site_id
_symmetry_equiv_pos_as_xyz
1 x,y,z
2 -x,1/2+y,1/2-z
3 -x,-y,-z
4 x,1/2-y,1/2+z
_cell_length_a                   20.412(7)
_cell_length_b                   9.126(3)
_cell_length_c                   8.164(3)
_cell_angle_alpha                90
_cell_angle_beta                 95.825(5)
_cell_angle_gamma                90
_cell_volume                     1512.94
_exptl_crystal_colour            colorless
_exptl_crystal_description       block
_cell_formula_units_Z            4
loop_
_atom_site_label
_atom_site_type_symbol
_atom_site_fract_x
_atom_site_fract_y
_atom_site_fract_z
O1 O 0.90753(11) 0.4493(2) 0.9275(3)
O2 O 0.94098(11) 0.6268(3) 0.7046(3)
C1 C 0.89133(16) 0.3517(4) 1.0537(4)
H1 H 0.8505 0.3841 1.0959
H2 H 0.9271 0.3513 1.1435
H3 H 0.8853 0.2526 1.0085
C2 C 0.86257(14) 0.4621(3) 0.7910(4)
C3 C 0.80308(14) 0.3894(3) 0.7682(4)
H4 H 0.7905 0.3250 0.8510
C4 C 0.76101(14) 0.4104(3) 0.6231(4)
C5 C 0.77914(14) 0.5047(3) 0.5010(4)
C6 C 0.73229(14) 0.5246(3) 0.3514(4)
C7 C 0.66543(14) 0.4895(3) 0.3598(3)
C8 C 0.61843(14) 0.5144(3) 0.2243(4)
C9 C 0.54683(15) 0.4732(3) 0.2305(4)
H5 H 0.5194 0.5297 0.1456
H6 H 0.5332 0.5006 0.3393
C10 C 0.53424(15) 0.3100(3) 0.2017(4)
H7 H 0.5479 0.2819 0.0945
H8 H 0.4872 0.2895 0.2036
H9 H 0.5595 0.2536 0.2887
C11 C 0.63977(16) 0.5720(3) 0.0803(4)
H10 H 0.6085 0.5887 -0.0121
C12 C 0.70566(16) 0.6056(4) 0.0687(4)
H11 H 0.7191 0.6438 -0.0309
C13 C 0.75176(15) 0.5828(3) 0.2045(4)
H12 H 0.7967 0.6067 0.1977
N1 N 0.64427(12) 0.4273(3) 0.5072(3)
C14 C 0.62193(15) 0.5411(4) 0.6175(4)
H13 H 0.6595 0.6020 0.6595
H14 H 0.6030 0.4943 0.7099
H15 H 0.5885 0.6025 0.5563
C15 C 0.69548(14) 0.3324(3) 0.5910(4)
H16 H 0.7010 0.2448 0.5222
H17 H 0.6811 0.2989 0.6970
C16 C 0.83971(14) 0.5786(3) 0.5257(4)
H18 H 0.8523 0.6431 0.4432
C17 C 0.88136(14) 0.5585(3) 0.6694(4)
C18 C 0.9603(2) 0.7268(5) 0.5845(5)
H19 H 0.9653 0.6740 0.4819
H20 H 1.0024 0.7722 0.6250
H21 H 0.9266 0.8029 0.5639
loop_
_geom_bond_atom_site_label_1
_geom_bond_atom_site_label_2
_geom_bond_site_symmetry_1
_geom_bond_site_symmetry_2
O1 C1 1_555 1_555
O2 C17 1_555 1_555
C1 H1 1_555 1_555
H2 C1 1_555 1_555
H3 C1 1_555 1_555
C2 O1 1_555 1_555
C3 C2 1_555 1_555
H4 C3 1_555 1_555
C4 C3 1_555 1_555
C5 C4 1_555 1_555
C6 C5 1_555 1_555
C7 C6 1_555 1_555
C8 C7 1_555 1_555
C9 C8 1_555 1_555
H5 C9 1_555 1_555
H6 C9 1_555 1_555
C10 C9 1_555 1_555
H7 C10 1_555 1_555
H8 C10 1_555 1_555
H9 C10 1_555 1_555
C11 C8 1_555 1_555
H10 C11 1_555 1_555
C12 C11 1_555 1_555
H11 C12 1_555 1_555
C13 C6 1_555 1_555
H12 C13 1_555 1_555
N1 C7 1_555 1_555
C14 N1 1_555 1_555
H13 C14 1_555 1_555
H14 C14 1_555 1_555
H15 C14 1_555 1_555
C15 C4 1_555 1_555
H16 C15 1_555 1_555
H17 C15 1_555 1_555
C16 C5 1_555 1_555
H18 C16 1_555 1_555
C17 C2 1_555 1_555
C18 O2 1_555 1_555
H19 C18 1_555 1_555
H20 C18 1_555 1_555
H21 C18 1_555 1_555
C12 C13 1_555 1_555
N1 C15 1_555 1_555
C16 C17 1_555 1_555

#END
