
#######################################################################
#
#                 Cambridge Crystallographic Data Centre
#                                CCDC 
#
#######################################################################
#
# If this CIF has been generated from an entry in the Cambridge 
# Structural Database, then it will include bibliographic, chemical, 
# crystal, experimental, refinement or atomic coordinate data resulting 
# from the CCDC's data processing and validation procedures.
#
#######################################################################

data_CUZSEW
_chemical_formula_moiety         'C13 H10 Cl2 N2 O2'
_chemical_name_systematic        N-(2,4-Dichlorobenzyl)-4-nitroaniline
_symmetry_cell_setting           monoclinic
_symmetry_space_group_name_H-M   'P 21/c'
_symmetry_Int_Tables_number      14
_space_group_name_Hall           '-P 2ybc'
loop_
_symmetry_equiv_pos_site_id
_symmetry_equiv_pos_as_xyz
1 x,y,z
2 -x,1/2+y,1/2-z
3 -x,-y,-z
4 x,1/2-y,1/2+z
_cell_length_a                   10.4862(13)
_cell_length_b                   15.742(3)
_cell_length_c                   8.0034(16)
_cell_angle_alpha                90
_cell_angle_beta                 91.688(13)
_cell_angle_gamma                90
_cell_volume                     1320.58
_exptl_crystal_colour            colorless
_exptl_crystal_description       block
_cell_formula_units_Z            4
loop_
_atom_site_label
_atom_site_type_symbol
_atom_site_fract_x
_atom_site_fract_y
_atom_site_fract_z
Cl1 Cl 0.21581(7) 0.61936(6) 0.05972(9)
Cl2 Cl 0.04410(7) 0.65079(6) 0.67883(8)
C1 C -0.1094(2) 0.60663(14) 0.4160(3)
C2 C -0.4895(2) 0.84734(17) 0.3141(3)
N1 N -0.34330(17) 0.61430(13) 0.4564(2)
H1 H -0.3913 0.5709 0.4368
C3 C -0.3745(3) 0.84375(17) 0.4011(3)
H2 H -0.3311 0.8938 0.4274
C4 C -0.3893(2) 0.69179(17) 0.4125(3)
C5 C -0.5564(2) 0.77389(18) 0.2771(3)
H3 H -0.6345 0.7767 0.2191
C6 C 0.1135(2) 0.63258(16) 0.3628(3)
H4 H 0.1947 0.6475 0.4023
C7 C 0.0131(2) 0.62807(14) 0.4690(3)
C8 C -0.2188(2) 0.59939(17) 0.5341(3)
H5 H -0.2177 0.5430 0.5829
H6 H -0.2055 0.6399 0.6243
C9 C 0.0908(2) 0.61460(16) 0.1974(3)
C10 C -0.5079(2) 0.69738(17) 0.3258(3)
H7 H -0.5536 0.6481 0.3016
N2 N -0.5381(3) 0.92748(17) 0.2536(3)
C11 C -0.0291(2) 0.59336(17) 0.1383(3)
H8 H -0.0438 0.5818 0.0255
C12 C -0.1269(2) 0.58941(16) 0.2477(3)
H9 H -0.2080 0.5746 0.2073
C13 C -0.3229(2) 0.76678(18) 0.4496(3)
H10 H -0.2444 0.7647 0.5067
O1 O -0.6351(2) 0.92852(13) 0.1626(3)
O2 O -0.4775(2) 0.99196(14) 0.2874(3)
loop_
_geom_bond_atom_site_label_1
_geom_bond_atom_site_label_2
_geom_bond_site_symmetry_1
_geom_bond_site_symmetry_2
Cl1 C9 1_555 1_555
Cl2 C7 1_555 1_555
C1 C7 1_555 1_555
C2 C3 1_555 1_555
N1 H1 1_555 1_555
C3 H2 1_555 1_555
C4 N1 1_555 1_555
C5 C2 1_555 1_555
H3 C5 1_555 1_555
C6 H4 1_555 1_555
C7 C6 1_555 1_555
C8 C1 1_555 1_555
H5 C8 1_555 1_555
H6 C8 1_555 1_555
C9 C6 1_555 1_555
C10 C4 1_555 1_555
H7 C10 1_555 1_555
N2 C2 1_555 1_555
C11 C9 1_555 1_555
H8 C11 1_555 1_555
C12 C1 1_555 1_555
H9 C12 1_555 1_555
C13 C3 1_555 1_555
H10 C13 1_555 1_555
O1 N2 1_555 1_555
O2 N2 1_555 1_555
N1 C8 1_555 1_555
C4 C13 1_555 1_555
C5 C10 1_555 1_555
C11 C12 1_555 1_555

#END
