
#######################################################################
#
#                 Cambridge Crystallographic Data Centre
#                                CCDC 
#
#######################################################################
#
# If this CIF has been generated from an entry in the Cambridge 
# Structural Database, then it will include bibliographic, chemical, 
# crystal, experimental, refinement or atomic coordinate data resulting 
# from the CCDC's data processing and validation procedures.
#
#######################################################################

data_CUZTOI
_chemical_formula_moiety         'C19 H13 N3 O3,H2 O1'
_chemical_name_systematic        
'6-benzyl-4-phenyl-2H-pyrrolo[3,4-d]pyrimidine-2,5,7(3H,6H)-trione monohydrate'
_symmetry_cell_setting           monoclinic
_symmetry_space_group_name_H-M   'P 21/c'
_symmetry_Int_Tables_number      14
_space_group_name_Hall           '-P 2ybc'
loop_
_symmetry_equiv_pos_site_id
_symmetry_equiv_pos_as_xyz
1 x,y,z
2 -x,1/2+y,1/2-z
3 -x,-y,-z
4 x,1/2-y,1/2+z
_cell_length_a                   20.183(11)
_cell_length_b                   7.336(4)
_cell_length_c                   11.490(6)
_cell_angle_alpha                90
_cell_angle_beta                 105.155(9)
_cell_angle_gamma                90
_cell_volume                     1642.07
_cell_formula_units_Z            4
loop_
_atom_site_label
_atom_site_type_symbol
_atom_site_fract_x
_atom_site_fract_y
_atom_site_fract_z
N1 N 0.4129(2) 0.5935(6) 0.8254(4)
N2 N 0.4039(2) 0.5082(6) 0.6212(3)
C1 C 0.3483(2) 0.5485(6) 0.8223(4)
C2 C 0.3257(2) 0.5687(6) 0.9361(4)
C3 C 0.3087(2) 0.4831(7) 0.7128(4)
N3 N 0.2309(2) 0.3673(6) 0.5460(3)
C4 C 0.2380(3) 0.4195(7) 0.6678(4)
C5 C 0.3699(3) 0.5180(7) 1.0449(4)
C6 C 0.3416(2) 0.4696(7) 0.6186(4)
C7 C 0.3467(3) 0.5239(8) 1.1492(4)
C8 C 0.2602(3) 0.6298(7) 0.9313(4)
C9 C 0.2817(3) 0.5806(8) 1.1433(5)
C10 C 0.2894(3) 0.3972(7) 0.5085(4)
C11 C 0.1225(2) 0.4533(7) 0.3997(4)
C12 C 0.2385(3) 0.6376(8) 1.0363(5)
C13 C 0.1662(3) 0.3002(8) 0.4664(5)
C14 C 0.0794(3) 0.5524(9) 0.4526(6)
C15 C 0.1271(3) 0.5029(10) 0.2871(6)
C16 C 0.0413(4) 0.6961(11) 0.3888(8)
C17 C 0.0892(4) 0.6460(12) 0.2264(7)
C18 C 0.0464(4) 0.7428(11) 0.2762(8)
O1 O 0.19099(18) 0.4075(6) 0.7140(3)
O2 O 0.50091(18) 0.6385(6) 0.7401(3)
O3 O 0.29685(19) 0.3724(5) 0.4091(3)
C19 C 0.4431(2) 0.5849(7) 0.7284(4)
H1 H 0.439(2) 0.622(7) 0.884(5)
H2 H 0.377(3) 0.482(8) 1.224(5)
H3 H 0.012(4) 0.775(11) 0.431(7)
H4 H 0.073(2) 0.517(7) 0.534(5)
H5 H 0.414(2) 0.480(6) 1.047(4)
H6 H 0.190(2) 0.678(7) 1.036(4)
H7 H 0.143(3) 0.243(9) 0.528(6)
H8 H 0.227(3) 0.683(11) 0.851(7)
H9 H 0.092(5) 0.68(2) 0.138(10)
H10 H 0.268(3) 0.580(8) 1.221(6)
H11 H 0.156(3) 0.413(9) 0.246(6)
H12 H 0.180(3) 0.199(9) 0.406(5)
H13 H 0.018(4) 0.858(15) 0.207(9)
O4 O 0.5130(2) 0.7652(6) 1.0079(3)
H14 H 0.469(3) 0.779(7) 0.986(5)
H15 H 0.545(3) 0.814(8) 1.000(5)
loop_
_geom_bond_atom_site_label_1
_geom_bond_atom_site_label_2
_geom_bond_site_symmetry_1
_geom_bond_site_symmetry_2
N1 C1 1_555 1_555
N2 C6 1_555 1_555
C1 C2 1_555 1_555
C2 C5 1_555 1_555
C3 C1 1_555 1_555
N3 C4 1_555 1_555
C4 C3 1_555 1_555
C5 C7 1_555 1_555
C6 C3 1_555 1_555
C7 C9 1_555 1_555
C8 C2 1_555 1_555
C9 C12 1_555 1_555
C10 N3 1_555 1_555
C11 C13 1_555 1_555
C12 C8 1_555 1_555
C13 N3 1_555 1_555
C14 C11 1_555 1_555
C15 C11 1_555 1_555
C16 C14 1_555 1_555
C17 C15 1_555 1_555
C18 C16 1_555 1_555
O1 C4 1_555 1_555
O2 C19 1_555 1_555
O3 C10 1_555 1_555
C19 N1 1_555 1_555
H1 N1 1_555 1_555
H2 C7 1_555 1_555
H3 C16 1_555 1_555
H4 C14 1_555 1_555
H5 C5 1_555 1_555
H6 C12 1_555 1_555
H7 C13 1_555 1_555
H8 C8 1_555 1_555
H9 C17 1_555 1_555
H10 C9 1_555 1_555
H11 C15 1_555 1_555
H12 C13 1_555 1_555
H13 C18 1_555 1_555
O4 H14 1_555 1_555
H15 O4 1_555 1_555
N2 C19 1_555 1_555
C6 C10 1_555 1_555
C17 C18 1_555 1_555

#END
