
#######################################################################
#
#                 Cambridge Crystallographic Data Centre
#                                CCDC 
#
#######################################################################
#
# If this CIF has been generated from an entry in the Cambridge 
# Structural Database, then it will include bibliographic, chemical, 
# crystal, experimental, refinement or atomic coordinate data resulting 
# from the CCDC's data processing and validation procedures.
#
#######################################################################

data_CUZVAW
_chemical_formula_moiety         'C18 H15 N3 O3,C2 H6 O1 S1'
_chemical_name_systematic        
'7-hydroxy-4,6-diphenyl-3,4,6,7-tetrahydro-1H-pyrrolo[3,4-d]pyrimidine-2,5-dione dimethyl sulfoxide solvate'
_symmetry_cell_setting           triclinic
_symmetry_space_group_name_H-M   'P -1'
_symmetry_Int_Tables_number      2
_space_group_name_Hall           '-P 1'
loop_
_symmetry_equiv_pos_site_id
_symmetry_equiv_pos_as_xyz
1 x,y,z
2 -x,-y,-z
_cell_length_a                   6.3684(8)
_cell_length_b                   11.9380(17)
_cell_length_c                   13.6604(11)
_cell_angle_alpha                110.843(10)
_cell_angle_beta                 90.133(9)
_cell_angle_gamma                99.523(11)
_cell_volume                     955.095
_cell_formula_units_Z            2
loop_
_atom_site_label
_atom_site_type_symbol
_atom_site_fract_x
_atom_site_fract_y
_atom_site_fract_z
S1 S 0.29075(18) 0.29770(10) 0.89922(9)
O1 O 0.5152(4) 0.3179(2) 0.9487(2)
C1 C 0.3062(9) 0.4001(4) 0.8307(4)
H1 H 0.3582 0.4816 0.8785
H2 H 0.1670 0.3960 0.8011
H3 H 0.4017 0.3782 0.7755
C2 C 0.1450(7) 0.3770(4) 1.0050(4)
H4 H 0.2168 0.4600 1.0371
H5 H 0.1355 0.3385 1.0560
H6 H 0.0040 0.3755 0.9788
O2 O 0.1655(4) 0.1145(2) -0.0002(2)
O3 O 0.2217(4) -0.1923(2) 0.1842(2)
H7 H 0.306(8) -0.238(5) 0.137(3)
O4 O 0.8702(4) 0.0481(2) 0.2971(2)
N1 N 0.4960(5) 0.1549(3) 0.0767(2)
H8 H 0.528(5) 0.211(3) 0.046(3)
N2 N 0.2252(5) 0.0261(3) 0.1169(3)
H9 H 0.128(6) -0.015(4) 0.099(3)
N3 N 0.5298(4) -0.0637(3) 0.2930(2)
C3 C 0.2910(6) 0.0995(3) 0.0613(3)
C4 C 0.6638(5) 0.1542(3) 0.1513(3)
H10 H 0.7854 0.1262 0.1120
C5 C 0.5708(5) 0.0633(3) 0.1984(3)
C6 C 0.3694(5) 0.0093(3) 0.1831(3)
C7 C 0.3168(5) -0.0741(3) 0.2434(3)
H11 H 0.2228 -0.0390 0.2985
C8 C 0.6814(6) 0.0193(3) 0.2673(3)
C9 C 0.7395(5) 0.2809(3) 0.2326(3)
C10 C 0.5990(6) 0.3546(4) 0.2814(3)
H12 H 0.4536 0.3278 0.2633
C11 C 0.6681(7) 0.4674(4) 0.3565(3)
H13 H 0.5702 0.5165 0.3887
C12 C 0.8797(8) 0.5072(4) 0.3838(4)
H14 H 0.9273 0.5836 0.4348
C13 C 1.0207(8) 0.4354(5) 0.3366(4)
H15 H 1.1659 0.4629 0.3547
C14 C 0.9514(7) 0.3227(4) 0.2625(4)
H16 H 1.0501 0.2735 0.2318
C15 C 0.5560(6) -0.1169(3) 0.3688(3)
C16 C 0.3800(6) -0.1724(4) 0.4042(3)
H17 H 0.2441 -0.1768 0.3765
C17 C 0.4046(7) -0.2216(4) 0.4808(3)
H18 H 0.2853 -0.2587 0.5042
C18 C 0.6050(7) -0.2154(4) 0.5221(3)
H19 H 0.6220 -0.2476 0.5738
C19 C 0.7796(7) -0.1615(4) 0.4865(3)
H20 H 0.9154 -0.1579 0.5139
C20 C 0.7564(6) -0.1127(4) 0.4108(3)
H21 H 0.8768 -0.0764 0.3876
loop_
_geom_bond_atom_site_label_1
_geom_bond_atom_site_label_2
_geom_bond_site_symmetry_1
_geom_bond_site_symmetry_2
S1 O1 1_555 1_555
C1 S1 1_555 1_555
H1 C1 1_555 1_555
H2 C1 1_555 1_555
H3 C1 1_555 1_555
C2 S1 1_555 1_555
H4 C2 1_555 1_555
H5 C2 1_555 1_555
H6 C2 1_555 1_555
O2 C3 1_555 1_555
O3 H7 1_555 1_555
O4 C8 1_555 1_555
N1 H8 1_555 1_555
N2 H9 1_555 1_555
N3 C7 1_555 1_555
C3 N1 1_555 1_555
C4 N1 1_555 1_555
H10 C4 1_555 1_555
C5 C4 1_555 1_555
C6 N2 1_555 1_555
C7 O3 1_555 1_555
H11 C7 1_555 1_555
C8 N3 1_555 1_555
C9 C4 1_555 1_555
C10 C9 1_555 1_555
H12 C10 1_555 1_555
C11 C10 1_555 1_555
H13 C11 1_555 1_555
C12 C11 1_555 1_555
H14 C12 1_555 1_555
C13 C12 1_555 1_555
H15 C13 1_555 1_555
C14 C9 1_555 1_555
H16 C14 1_555 1_555
C15 N3 1_555 1_555
C16 C15 1_555 1_555
H17 C16 1_555 1_555
C17 C16 1_555 1_555
H18 C17 1_555 1_555
C18 C17 1_555 1_555
H19 C18 1_555 1_555
C19 C18 1_555 1_555
H20 C19 1_555 1_555
C20 C15 1_555 1_555
H21 C20 1_555 1_555
N2 C3 1_555 1_555
C5 C6 1_555 1_555
C5 C8 1_555 1_555
C6 C7 1_555 1_555
C13 C14 1_555 1_555
C19 C20 1_555 1_555

#END
