
#######################################################################
#
#                 Cambridge Crystallographic Data Centre
#                                CCDC 
#
#######################################################################
#
# If this CIF has been generated from an entry in the Cambridge 
# Structural Database, then it will include bibliographic, chemical, 
# crystal, experimental, refinement or atomic coordinate data resulting 
# from the CCDC's data processing and validation procedures.
#
#######################################################################

data_CUZZOM
_chemical_name_common            
'4-((4-Hydroxybenzylidene)amino)-1,2,4-triazole hemihydrate'
_chemical_formula_moiety         'C9 H8 N4 O1,0.5(H2 O1)'
_chemical_name_systematic        
'4-(4H-1,2,4-Triazol-4-ylimino)phenol hemihydrate'
_chemical_properties_biological  
'related to Schiff bases exhibiting antiinflammatory activity'
_symmetry_cell_setting           monoclinic
_symmetry_space_group_name_H-M   'C 2/c'
_symmetry_Int_Tables_number      15
_space_group_name_Hall           '-C 2yn'
loop_
_symmetry_equiv_pos_site_id
_symmetry_equiv_pos_as_xyz
1 x,y,z
2 1/2+x,1/2+y,z
3 x,-y,1/2+z
4 1/2+x,1/2-y,1/2+z
5 -x,-y,-z
6 1/2-x,1/2-y,-z
7 -x,y,1/2-z
8 1/2-x,1/2+y,1/2-z
_cell_length_a                   14.134(2)
_cell_length_b                   12.491(2)
_cell_length_c                   12.063(2)
_cell_angle_alpha                90
_cell_angle_beta                 119.483(10)
_cell_angle_gamma                90
_cell_volume                     1853.9
_exptl_crystal_colour            colorless
_exptl_crystal_description       Block
_cell_formula_units_Z            8
_exptl_crystal_recrystallization_method ethanol
loop_
_atom_site_label
_atom_site_type_symbol
_atom_site_fract_x
_atom_site_fract_y
_atom_site_fract_z
N1 N 0.36269(10) -0.22004(12) -0.36220(12)
N2 N 0.42052(10) -0.21906(12) -0.42969(12)
N3 N 0.50164(10) -0.17763(14) -0.53779(13)
N4 N 0.51432(10) -0.28616(13) -0.51165(13)
C1 C 0.15648(12) -0.07820(15) -0.14843(14)
C2 C 0.18684(13) 0.0064(2) -0.1978(2)
H1 H 0.18893 0.0928 -0.1669
C3 C 0.24364(13) -0.0127(2) -0.2618(2)
H2 H 0.28024 0.0600 -0.2960
C4 C 0.27119(12) -0.11595(14) -0.27746(14)
C5 C 0.24019(12) -0.20009(14) -0.22722(15)
H3 H 0.25066 -0.28161 -0.24444
C6 C 0.18306(12) -0.1821(2) -0.16360(15)
H4 H 0.16998 -0.2554 -0.11770
C7 C 0.33137(12) -0.1293(2) -0.34578(14)
H5 H 0.34949 -0.0561 -0.38294
C8 C 0.44556(12) -0.1390(2) -0.4875(2)
H6 H 0.43028 -0.0563 -0.4773
C9 C 0.46542(12) -0.3090(2) -0.4471(2)
H7 H 0.44066 -0.3905 -0.4192
O1 O 0.10159(9) -0.05461(11) -0.08634(11)
H8 H 0.07073 -0.12318 -0.07222
O2 O 0.5000 -0.0672(2) -0.7500
H9 H 0.5097 -0.1098(2) -0.6731
H9F H 0.4903 -0.1098(2) -0.8269
loop_
_geom_bond_atom_site_label_1
_geom_bond_atom_site_label_2
_geom_bond_site_symmetry_1
_geom_bond_site_symmetry_2
N1 N2 1_555 1_555
N2 C8 1_555 1_555
N3 N4 1_555 1_555
N4 C9 1_555 1_555
C1 C2 1_555 1_555
C2 H1 1_555 1_555
C3 C2 1_555 1_555
H2 C3 1_555 1_555
C4 C3 1_555 1_555
C5 C4 1_555 1_555
H3 C5 1_555 1_555
C6 C1 1_555 1_555
H4 C6 1_555 1_555
C7 N1 1_555 1_555
H5 C7 1_555 1_555
C8 N3 1_555 1_555
H6 C8 1_555 1_555
C9 N2 1_555 1_555
H7 C9 1_555 1_555
O1 C1 1_555 1_555
H8 O1 1_555 1_555
O2 H9 1_555 1_555
H9F O2 1_555 1_555
C4 C7 1_555 1_555
C5 C6 1_555 1_555

#END
