
#######################################################################
#
#                 Cambridge Crystallographic Data Centre
#                                CCDC 
#
#######################################################################
#
# If this CIF has been generated from an entry in the Cambridge 
# Structural Database, then it will include bibliographic, chemical, 
# crystal, experimental, refinement or atomic coordinate data resulting 
# from the CCDC's data processing and validation procedures.
#
#######################################################################

data_CYHXUR06
_chemical_formula_moiety         'C13 H24 N2 O1'
_chemical_name_systematic        1,3-Dicyclohexylurea
_symmetry_cell_setting           triclinic
_symmetry_space_group_name_H-M   'P -1'
_symmetry_Int_Tables_number      2
_space_group_name_Hall           '-P 1'
loop_
_symmetry_equiv_pos_site_id
_symmetry_equiv_pos_as_xyz
1 x,y,z
2 -x,-y,-z
_cell_length_a                   12.432(4)
_cell_length_b                   12.899(4)
_cell_length_c                   14.097(4)
_cell_angle_alpha                68.623(4)
_cell_angle_beta                 67.804(4)
_cell_angle_gamma                86.895(4)
_cell_volume                     1939.91
_cell_formula_units_Z            6
loop_
_atom_site_label
_atom_site_type_symbol
_atom_site_fract_x
_atom_site_fract_y
_atom_site_fract_z
O1 O 0.4997(6) 0.7490(7) 0.0565(6)
N1 N 0.5806(9) 0.7021(9) 0.1850(8)
H1 H 0.5778 0.7088 0.2444
C1 C 0.5008(12) 0.7503(11) 0.1436(10)
C2 C 0.6693(9) 0.6410(11) 0.1370(10)
H2 H 0.6685 0.6517 0.0648
C3 C 0.6442(10) 0.5151(11) 0.2063(11)
H3 H 0.6327 0.5030 0.2817
H4 H 0.5726 0.4874 0.2073
C4 C 0.7886(11) 0.6821(10) 0.1178(11)
H5 H 0.7888 0.6802 0.1872
H6 H 0.8057 0.7595 0.0670
N2 N 0.4194(9) 0.7943(9) 0.2072(7)
H7 H 0.4199 0.7833 0.2710
C5 C 0.3295(9) 0.8596(9) 0.1776(10)
H8 H 0.3304 0.8505 0.1112
C6 C 0.2078(9) 0.8144(10) 0.2668(11)
H9 H 0.1911 0.7380 0.2759
H10 H 0.2064 0.8134 0.3364
C7 C 0.3592(10) 0.9878(10) 0.1452(10)
H11 H 0.3679 0.9999 0.2061
H12 H 0.4325 1.0138 0.0818
C8 C 0.2620(10) 1.0544(11) 0.1175(12)
H13 H 0.2768 1.1317 0.1070
H14 H 0.2632 1.0532 0.0487
C9 C 0.1418(10) 1.0078(10) 0.2077(11)
H15 H 0.0832 1.0476 0.1826
H16 H 0.1363 1.0214 0.2725
C10 C 0.8591(10) 0.4938(10) 0.1415(11)
H17 H 0.9167 0.4529 0.1045
H18 H 0.8651 0.4814 0.2114
C11 C 0.7408(12) 0.4508(10) 0.1624(12)
H19 H 0.7250 0.3740 0.2145
H20 H 0.7406 0.4502 0.0939
C12 C 0.1151(10) 0.8827(10) 0.2398(12)
H21 H 0.0418 0.8570 0.3033
H22 H 0.1053 0.8707 0.1794
C13 C 0.8843(10) 0.6157(10) 0.0720(11)
H23 H 0.8928 0.6266 -0.0024
H24 H 0.9576 0.6431 0.0682
O2 O 0.5004(7) 0.7498(7) 0.3887(7)
N3 N 0.5818(8) 0.7046(9) 0.5137(9)
H25 H 0.5823 0.7160 0.5700
C14 C 0.4997(8) 0.7491(10) 0.4788(10)
C15 C 0.6704(9) 0.6398(10) 0.4708(10)
H26 H 0.6699 0.6481 0.3991
C16 C 0.7919(10) 0.6828(10) 0.4477(12)
H27 H 0.8090 0.7587 0.3938
H28 H 0.7934 0.6854 0.5152
N4 N 0.4174(8) 0.7962(9) 0.5423(9)
H29 H 0.4182 0.7876 0.6054
C17 C 0.3287(10) 0.8596(11) 0.5107(10)
H30 H 0.3301 0.8491 0.4448
C18 C 0.2098(11) 0.8170(11) 0.5981(12)
H31 H 0.2094 0.8163 0.6673
H32 H 0.1923 0.7406 0.6079
C19 C 0.3542(10) 0.9807(10) 0.4805(10)
H33 H 0.4279 1.0065 0.4175
H34 H 0.3633 0.9919 0.5415
C20 C 0.2613(10) 1.0514(10) 0.4523(10)
H35 H 0.2608 1.0509 0.3838
H36 H 0.2797 1.1281 0.4413
C21 C 0.1404(11) 1.0078(12) 0.5437(11)
H37 H 0.1365 1.0203 0.6087
H38 H 0.0817 1.0484 0.5194
C22 C 0.1162(10) 0.8858(11) 0.5720(12)
H39 H 0.1072 0.8755 0.5105
H40 H 0.0428 0.8584 0.6352
C23 C 0.8590(11) 0.4900(11) 0.4766(11)
H41 H 0.9181 0.4487 0.4416
H42 H 0.8616 0.4778 0.5477
C24 C 0.6456(10) 0.5181(10) 0.5385(11)
H43 H 0.5714 0.4923 0.5428
H44 H 0.6374 0.5069 0.6128
C25 C 0.8870(10) 0.6140(11) 0.4055(11)
H45 H 0.9596 0.6402 0.4038
H46 H 0.8980 0.6246 0.3306
C26 C 0.7400(11) 0.4452(11) 0.4940(12)
H47 H 0.7219 0.3685 0.5464
H48 H 0.7406 0.4461 0.4248
O3 O 0.5001(7) 0.7512(7) 0.7230(7)
N5 N 0.5816(8) 0.7057(8) 0.8510(8)
H49 H 0.5815 0.7152 0.9084
C27 C 0.4995(9) 0.7521(10) 0.8126(10)
C28 C 0.7913(9) 0.6857(11) 0.7833(11)
H50 H 0.8076 0.7626 0.7313
H51 H 0.7918 0.6851 0.8521
C29 C 0.6723(10) 0.6400(10) 0.8029(9)
H52 H 0.6716 0.6495 0.7309
N6 N 0.4189(8) 0.7979(9) 0.8719(9)
H53 H 0.4202 0.7896 0.9348
C30 C 0.3300(10) 0.8593(11) 0.8447(10)
H54 H 0.3303 0.8503 0.7786
C31 C 0.2116(11) 0.8175(11) 0.9315(11)
H55 H 0.2113 0.8184 1.0001
H56 H 0.1952 0.7403 0.9426
C32 C 0.3519(10) 0.9814(11) 0.8162(11)
H57 H 0.4254 1.0092 0.7534
H58 H 0.3601 0.9922 0.8779
C33 C 0.2581(12) 1.0497(11) 0.7893(13)
H59 H 0.2749 1.1263 0.7796
H60 H 0.2591 1.0501 0.7200
C34 C 0.1397(10) 1.0062(10) 0.8765(11)
H61 H 0.0819 1.0468 0.8506
H62 H 0.1338 1.0192 0.9417
C35 C 0.7380(10) 0.4493(11) 0.8275(11)
H63 H 0.7364 0.4512 0.7586
H64 H 0.7212 0.3721 0.8785
C36 C 0.8578(10) 0.4921(10) 0.8071(11)
H65 H 0.9154 0.4521 0.7688
H66 H 0.8639 0.4775 0.8774
C37 C 0.1138(11) 0.8839(12) 0.9064(12)
H67 H 0.1039 0.8723 0.8458
H68 H 0.0413 0.8567 0.9706
C38 C 0.6463(9) 0.5161(10) 0.8734(10)
H69 H 0.6398 0.5050 0.9472
H70 H 0.5719 0.4896 0.8788
C39 C 0.8844(11) 0.6175(11) 0.7386(12)
H71 H 0.9579 0.6430 0.7359
H72 H 0.8937 0.6301 0.6636
loop_
_geom_bond_atom_site_label_1
_geom_bond_atom_site_label_2
_geom_bond_site_symmetry_1
_geom_bond_site_symmetry_2
O1 C1 1_555 1_555
N1 H1 1_555 1_555
C1 N1 1_555 1_555
C2 N1 1_555 1_555
H2 C2 1_555 1_555
C3 C2 1_555 1_555
H3 C3 1_555 1_555
H4 C3 1_555 1_555
C4 C2 1_555 1_555
H5 C4 1_555 1_555
H6 C4 1_555 1_555
N2 C1 1_555 1_555
H7 N2 1_555 1_555
C5 N2 1_555 1_555
H8 C5 1_555 1_555
C6 C5 1_555 1_555
H9 C6 1_555 1_555
H10 C6 1_555 1_555
C7 C5 1_555 1_555
H11 C7 1_555 1_555
H12 C7 1_555 1_555
C8 C7 1_555 1_555
H13 C8 1_555 1_555
H14 C8 1_555 1_555
C9 C8 1_555 1_555
H15 C9 1_555 1_555
H16 C9 1_555 1_555
C10 H17 1_555 1_555
H18 C10 1_555 1_555
C11 C3 1_555 1_555
H19 C11 1_555 1_555
H20 C11 1_555 1_555
C12 C6 1_555 1_555
H21 C12 1_555 1_555
H22 C12 1_555 1_555
C13 C4 1_555 1_555
H23 C13 1_555 1_555
H24 C13 1_555 1_555
O2 C14 1_555 1_555
N3 H25 1_555 1_555
C14 N3 1_555 1_555
C15 N3 1_555 1_555
H26 C15 1_555 1_555
C16 C15 1_555 1_555
H27 C16 1_555 1_555
H28 C16 1_555 1_555
N4 C14 1_555 1_555
H29 N4 1_555 1_555
C17 N4 1_555 1_555
H30 C17 1_555 1_555
C18 C17 1_555 1_555
H31 C18 1_555 1_555
H32 C18 1_555 1_555
C19 C17 1_555 1_555
H33 C19 1_555 1_555
H34 C19 1_555 1_555
C20 C19 1_555 1_555
H35 C20 1_555 1_555
H36 C20 1_555 1_555
C21 C20 1_555 1_555
H37 C21 1_555 1_555
H38 C21 1_555 1_555
C22 C18 1_555 1_555
H39 C22 1_555 1_555
H40 C22 1_555 1_555
C23 H41 1_555 1_555
H42 C23 1_555 1_555
C24 C15 1_555 1_555
H43 C24 1_555 1_555
H44 C24 1_555 1_555
C25 C16 1_555 1_555
H45 C25 1_555 1_555
H46 C25 1_555 1_555
C26 C23 1_555 1_555
H47 C26 1_555 1_555
H48 C26 1_555 1_555
O3 C27 1_555 1_555
N5 H49 1_555 1_555
C27 N5 1_555 1_555
C28 H50 1_555 1_555
H51 C28 1_555 1_555
C29 N5 1_555 1_555
H52 C29 1_555 1_555
N6 C27 1_555 1_555
H53 N6 1_555 1_555
C30 N6 1_555 1_555
H54 C30 1_555 1_555
C31 C30 1_555 1_555
H55 C31 1_555 1_555
H56 C31 1_555 1_555
C32 C30 1_555 1_555
H57 C32 1_555 1_555
H58 C32 1_555 1_555
C33 C32 1_555 1_555
H59 C33 1_555 1_555
H60 C33 1_555 1_555
C34 C33 1_555 1_555
H61 C34 1_555 1_555
H62 C34 1_555 1_555
C35 H63 1_555 1_555
H64 C35 1_555 1_555
C36 C35 1_555 1_555
H65 C36 1_555 1_555
H66 C36 1_555 1_555
C37 C31 1_555 1_555
H67 C37 1_555 1_555
H68 C37 1_555 1_555
C38 C29 1_555 1_555
H69 C38 1_555 1_555
H70 C38 1_555 1_555
C39 C28 1_555 1_555
H71 C39 1_555 1_555
H72 C39 1_555 1_555
C9 C12 1_555 1_555
C10 C11 1_555 1_555
C10 C13 1_555 1_555
C21 C22 1_555 1_555
C23 C25 1_555 1_555
C24 C26 1_555 1_555
C28 C29 1_555 1_555
C34 C37 1_555 1_555
C35 C38 1_555 1_555
C36 C39 1_555 1_555

#END
