
#######################################################################
#
#                 Cambridge Crystallographic Data Centre
#                                CCDC 
#
#######################################################################
#
# If this CIF has been generated from an entry in the Cambridge 
# Structural Database, then it will include bibliographic, chemical, 
# crystal, experimental, refinement or atomic coordinate data resulting 
# from the CCDC's data processing and validation procedures.
#
#######################################################################

data_CYPYRO
_chemical_formula_moiety         'C6 H4 N2 O1'
_chemical_name_systematic        '4-Cyano-pyridine N-oxide'
_symmetry_cell_setting           monoclinic
_symmetry_space_group_name_H-M   'P 21/c'
_symmetry_Int_Tables_number      14
_space_group_name_Hall           '-P 2ybc'
loop_
_symmetry_equiv_pos_site_id
_symmetry_equiv_pos_as_xyz
1 x,y,z
2 -x,1/2+y,1/2-z
3 -x,-y,-z
4 x,1/2-y,1/2+z
_cell_length_a                   7.88(2)
_cell_length_b                   6.10(2)
_cell_length_c                   11.61(3)
_cell_angle_alpha                90
_cell_angle_beta                 88.6(4)
_cell_angle_gamma                90
_cell_volume                     557.903
_chemical_melting_point          221-4deg.C
_cell_formula_units_Z            4
loop_
_atom_site_label
_atom_site_type_symbol
_atom_site_fract_x
_atom_site_fract_y
_atom_site_fract_z
C1 C 0.17380 0.01080 0.13460
C2 C 0.26340 -0.14610 0.07480
C3 C 0.30890 -0.11160 -0.04060
C4 C 0.26110 0.08490 -0.09090
C5 C 0.16910 0.23770 -0.02840
C6 C 0.40640 -0.27180 -0.10530
H1 H 0.12210 -0.01340 0.21370
H2 H 0.29320 -0.29030 0.11090
H3 H 0.28960 0.10690 -0.17410
H4 H 0.12960 0.35880 -0.05550
N1 N 0.12850 0.20230 0.08460
N2 N 0.48310 -0.39940 -0.15550
O1 O 0.04490 0.35080 0.14350
loop_
_geom_bond_atom_site_label_1
_geom_bond_atom_site_label_2
_geom_bond_site_symmetry_1
_geom_bond_site_symmetry_2
C1 C2 1_555 1_555
C2 C3 1_555 1_555
C3 C4 1_555 1_555
C4 C5 1_555 1_555
C5 H4 1_555 1_555
C6 C3 1_555 1_555
H1 C1 1_555 1_555
H2 C2 1_555 1_555
H3 C4 1_555 1_555
N1 C1 1_555 1_555
N2 C6 1_555 1_555
O1 N1 1_555 1_555
C5 N1 1_555 1_555

#END
