
#######################################################################
#
#                 Cambridge Crystallographic Data Centre
#                                CCDC 
#
#######################################################################
#
# If this CIF has been generated from an entry in the Cambridge 
# Structural Database, then it will include bibliographic, chemical, 
# crystal, experimental, refinement or atomic coordinate data resulting 
# from the CCDC's data processing and validation procedures.
#
#######################################################################

data_CYTIDI01
_chemical_name_common            beta-Cytidine
_chemical_formula_moiety         'C9 H13 N3 O5'
_chemical_name_systematic        
4-Amino-1-\b-D-ribofuranosyl-2(1H)-pyrimidinone
_symmetry_cell_setting           orthorhombic
_symmetry_space_group_name_H-M   'P 21 21 21'
_symmetry_Int_Tables_number      19
_space_group_name_Hall           'P 2ac 2ab'
loop_
_symmetry_equiv_pos_site_id
_symmetry_equiv_pos_as_xyz
1 x,y,z
2 1/2+x,1/2-y,-z
3 -x,1/2+y,1/2-z
4 1/2-x,-y,1/2+z
_cell_length_a                   13.980(4)
_cell_length_b                   14.788(3)
_cell_length_c                   5.119(3)
_cell_angle_alpha                90
_cell_angle_beta                 90
_cell_angle_gamma                90
_cell_volume                     1058.28
_exptl_crystal_colour            colorless
_cell_formula_units_Z            4
loop_
_atom_site_label
_atom_site_type_symbol
_atom_site_fract_x
_atom_site_fract_y
_atom_site_fract_z
O1 O 0.9864(2) 0.6011(1) 1.2658(5)
O2 O 0.9539(2) 0.7915(1) 0.7096(5)
O3 O 0.7860(2) 0.6300(2) 1.0305(6)
O4 O 0.8251(2) 0.4480(2) 0.9380(6)
O5 O 1.0829(2) 0.4248(2) 1.1388(6)
N1 N 1.0374(2) 0.6742(2) 0.8809(6)
N2 N 1.1024(2) 0.7668(2) 0.5473(6)
N3 N 1.2468(2) 0.7338(2) 0.3689(8)
C1 C 0.9552(2) 0.6566(2) 1.0589(7)
C2 C 1.0288(2) 0.7465(2) 0.7082(7)
C3 C 0.8746(3) 0.6055(2) 0.9188(8)
C4 C 0.9025(3) 0.5081(2) 0.9733(7)
C5 C 1.1800(2) 0.7130(2) 0.5405(8)
C6 C 0.9404(3) 0.5125(2) 1.2503(7)
C7 C 1.1895(3) 0.6391(3) 0.7147(9)
C8 C 1.0098(3) 0.4392(3) 1.3268(8)
C9 C 1.1181(3) 0.6225(2) 0.8806(9)
H1 H 0.934(2) 0.716(2) 1.133(7)
H2 H 0.759(3) 0.587(2) 1.106(8)
H3 H 0.877(2) 0.618(2) 0.743(7)
H4 H 0.850(3) 0.392(3) 0.96(1)
H5 H 0.955(2) 0.495(2) 0.858(7)
H6 H 1.296(3) 0.703(3) 0.35(1)
H7 H 1.244(3) 0.785(3) 0.240(9)
H8 H 0.887(2) 0.512(2) 1.363(7)
H9 H 1.247(2) 0.604(2) 0.706(7)
H10 H 1.061(3) 0.380(3) 1.011(8)
H11 H 0.972(2) 0.377(2) 1.358(8)
H12 H 1.048(3) 0.458(3) 1.492(8)
H13 H 1.117(2) 0.571(2) 0.988(7)
loop_
_geom_bond_atom_site_label_1
_geom_bond_atom_site_label_2
_geom_bond_site_symmetry_1
_geom_bond_site_symmetry_2
O1 C1 1_555 1_555
O2 C2 1_555 1_555
O3 C3 1_555 1_555
O4 C4 1_555 1_555
O5 C8 1_555 1_555
N1 C1 1_555 1_555
N2 C2 1_555 1_555
N3 C5 1_555 1_555
C1 C3 1_555 1_555
C2 N1 1_555 1_555
C3 C4 1_555 1_555
C4 C6 1_555 1_555
C5 N2 1_555 1_555
C6 O1 1_555 1_555
C7 C5 1_555 1_555
C8 C6 1_555 1_555
C9 N1 1_555 1_555
H1 C1 1_555 1_555
H2 O3 1_555 1_555
H3 C3 1_555 1_555
H4 O4 1_555 1_555
H5 C4 1_555 1_555
H6 N3 1_555 1_555
H7 N3 1_555 1_555
H8 C6 1_555 1_555
H9 C7 1_555 1_555
H10 O5 1_555 1_555
H11 C8 1_555 1_555
H12 C8 1_555 1_555
H13 C9 1_555 1_555
C7 C9 1_555 1_555

#END
