
#######################################################################
#
#                 Cambridge Crystallographic Data Centre
#                                CCDC 
#
#######################################################################
#
# If this CIF has been generated from an entry in the Cambridge 
# Structural Database, then it will include bibliographic, chemical, 
# crystal, experimental, refinement or atomic coordinate data resulting 
# from the CCDC's data processing and validation procedures.
#
#######################################################################

data_CYTOSM13
_chemical_name_common            'Cytosine monohydrate'
_chemical_formula_moiety         'C4 H5 N3 O1,H2 O1'
_chemical_name_systematic        '4-Aminopyrimidin-2(1H)-one monohydrate'
_symmetry_cell_setting           monoclinic
_symmetry_space_group_name_H-M   'P 21/c'
_symmetry_Int_Tables_number      14
_space_group_name_Hall           '-P 2ybc'
loop_
_symmetry_equiv_pos_site_id
_symmetry_equiv_pos_as_xyz
1 x,y,z
2 -x,1/2+y,1/2-z
3 -x,-y,-z
4 x,1/2-y,1/2+z
_cell_length_a                   7.7179(2)
_cell_length_b                   9.8143(2)
_cell_length_c                   7.5218(2)
_cell_angle_alpha                90
_cell_angle_beta                 100.4830(10)
_cell_angle_gamma                90
_cell_volume                     560.235
_exptl_crystal_colour            colorless
_exptl_crystal_description       tabular
_cell_formula_units_Z            4
loop_
_atom_site_label
_atom_site_type_symbol
_atom_site_fract_x
_atom_site_fract_y
_atom_site_fract_z
C1 C 0.49816(18) 0.12520(12) 0.26006(18)
C2 C 0.25764(18) 0.00205(14) 0.33971(18)
C3 C 0.17840(18) 0.11837(14) 0.37355(19)
C4 C 0.26387(18) 0.24316(14) 0.34333(18)
N1 N 0.42121(15) 0.24494(12) 0.28906(16)
N2 N 0.41473(15) 0.00438(12) 0.28140(15)
N3 N 0.18952(15) 0.36192(12) 0.36869(17)
O1 O 0.64844(13) 0.12088(10) 0.21687(14)
H1 H 0.4657 -0.0733 0.2568
H2 H 0.2108 -0.0841 0.3590
H3 H 0.0720 0.1216 0.4176
H4 H 0.0944 0.3655 0.4076
H5 H 0.2410 0.4444 0.3442
O2 O 0.14553(13) 0.70852(10) 0.52543(14)
H6 H 0.2221 0.6820 0.4601
H7 H 0.2115 0.7470 0.6062
loop_
_geom_bond_atom_site_label_1
_geom_bond_atom_site_label_2
_geom_bond_site_symmetry_1
_geom_bond_site_symmetry_2
C1 N1 1_555 1_555
C2 C3 1_555 1_555
C3 C4 1_555 1_555
C4 N1 1_555 1_555
N2 C1 1_555 1_555
N3 C4 1_555 1_555
O1 C1 1_555 1_555
H1 N2 1_555 1_555
H2 C2 1_555 1_555
H3 C3 1_555 1_555
H4 N3 1_555 1_555
H5 N3 1_555 1_555
O2 H6 1_555 1_555
H7 O2 1_555 1_555
C2 N2 1_555 1_555

#END
