
#######################################################################
#
#                 Cambridge Crystallographic Data Centre
#                                CCDC 
#
#######################################################################
#
# If this CIF has been generated from an entry in the Cambridge 
# Structural Database, then it will include bibliographic, chemical, 
# crystal, experimental, refinement or atomic coordinate data resulting 
# from the CCDC's data processing and validation procedures.
#
#######################################################################

data_DABCUG
_chemical_formula_moiety         'C20 H14 N4'
_chemical_name_systematic        
4-((3-(Pyridin-2-yl)-1H-pyrazol-1-yl)methyl)-1-naphthonitrile
_symmetry_cell_setting           monoclinic
_symmetry_space_group_name_H-M   'P 21/c'
_symmetry_Int_Tables_number      14
_space_group_name_Hall           '-P 2ybc'
loop_
_symmetry_equiv_pos_site_id
_symmetry_equiv_pos_as_xyz
1 x,y,z
2 -x,1/2+y,1/2-z
3 -x,-y,-z
4 x,1/2-y,1/2+z
_cell_length_a                   7.2760(5)
_cell_length_b                   13.4222(9)
_cell_length_c                   15.4417(10)
_cell_angle_alpha                90
_cell_angle_beta                 89.253(4)
_cell_angle_gamma                90
_cell_volume                     1507.91
_exptl_crystal_colour            colorless
_exptl_crystal_description       block
_cell_formula_units_Z            4
_exptl_crystal_recrystallization_method 'diethyl ether/dichloromethane'
loop_
_atom_site_label
_atom_site_type_symbol
_atom_site_fract_x
_atom_site_fract_y
_atom_site_fract_z
N1 N 0.0167(2) 1.03882(11) 0.10840(9)
C1 C -0.0641(2) 0.94969(12) 0.12157(10)
C2 C -0.2523(2) 0.93540(13) 0.11274(10)
H1 H -0.3052 0.8716 0.1224
C3 C -0.3615(2) 1.01505(14) 0.08980(11)
H2 H -0.4905 1.0071 0.0842
C4 C -0.2796(3) 1.10640(14) 0.07515(12)
H3 H -0.3506 1.1625 0.0586
C5 C -0.0926(3) 1.11419(13) 0.08507(12)
H4 H -0.0372 1.1772 0.0747
N2 N 0.14529(19) 0.72114(10) 0.17793(9)
N3 N 0.00104(19) 0.77347(10) 0.14729(8)
C6 C 0.0581(2) 0.86848(12) 0.14859(10)
C7 C 0.2379(2) 0.87622(13) 0.18007(11)
H5 H 0.3084 0.9351 0.1875
C8 C 0.2892(2) 0.78021(13) 0.19768(11)
H6 H 0.4042 0.7591 0.2196
C9 C 0.1421(2) 0.61307(12) 0.17730(10)
H7 H 0.0172 0.5901 0.1939
H8 H 0.2283 0.5881 0.2213
C10 C 0.1940(2) 0.56834(12) 0.08969(10)
C11 C 0.2093(2) 0.62607(12) 0.01672(11)
H9 H 0.1855 0.6955 0.0206
C12 C 0.2596(2) 0.58440(12) -0.06377(10)
H10 H 0.2693 0.6255 -0.1137
C13 C 0.2945(2) 0.48404(12) -0.07000(10)
C14 C 0.2786(2) 0.42042(12) 0.00385(10)
C15 C 0.2275(2) 0.46367(12) 0.08456(10)
C16 C 0.3117(2) 0.31662(12) -0.00123(11)
H11 H 0.3456 0.2875 -0.0552
C17 C 0.2953(2) 0.25781(13) 0.07092(12)
H12 H 0.3173 0.1882 0.0667
C18 C 0.2459(2) 0.30004(13) 0.15114(11)
H13 H 0.2360 0.2590 0.2011
C19 C 0.2122(2) 0.39995(13) 0.15767(10)
H14 H 0.1779 0.4273 0.2123
C20 C 0.3511(2) 0.44158(12) -0.15176(11)
N4 N 0.3961(2) 0.40687(11) -0.21703(9)
loop_
_geom_bond_atom_site_label_1
_geom_bond_atom_site_label_2
_geom_bond_site_symmetry_1
_geom_bond_site_symmetry_2
N1 C1 1_555 1_555
C1 C2 1_555 1_555
C2 H1 1_555 1_555
C3 C2 1_555 1_555
H2 C3 1_555 1_555
C4 C3 1_555 1_555
H3 C4 1_555 1_555
C5 N1 1_555 1_555
H4 C5 1_555 1_555
N2 N3 1_555 1_555
N3 C6 1_555 1_555
C6 C1 1_555 1_555
C7 C6 1_555 1_555
H5 C7 1_555 1_555
C8 N2 1_555 1_555
H6 C8 1_555 1_555
C9 N2 1_555 1_555
H7 C9 1_555 1_555
H8 C9 1_555 1_555
C10 C9 1_555 1_555
C11 C10 1_555 1_555
H9 C11 1_555 1_555
C12 C11 1_555 1_555
H10 C12 1_555 1_555
C13 C12 1_555 1_555
C14 C13 1_555 1_555
C15 C10 1_555 1_555
C16 C14 1_555 1_555
H11 C16 1_555 1_555
C17 C16 1_555 1_555
H12 C17 1_555 1_555
C18 C17 1_555 1_555
H13 C18 1_555 1_555
C19 C15 1_555 1_555
H14 C19 1_555 1_555
C20 C13 1_555 1_555
N4 C20 1_555 1_555
C4 C5 1_555 1_555
C7 C8 1_555 1_555
C14 C15 1_555 1_555
C18 C19 1_555 1_555

#END
