
#######################################################################
#
#                 Cambridge Crystallographic Data Centre
#                                CCDC 
#
#######################################################################
#
# If this CIF has been generated from an entry in the Cambridge 
# Structural Database, then it will include bibliographic, chemical, 
# crystal, experimental, refinement or atomic coordinate data resulting 
# from the CCDC's data processing and validation procedures.
#
#######################################################################

data_DABDOC
_chemical_formula_moiety         'C28 H34 N4 O2'
_chemical_name_systematic        
N,N'-bis(4-Pentylphenyl)pyrazine-2,5-dicarboxamide
_symmetry_cell_setting           triclinic
_symmetry_space_group_name_H-M   'P -1'
_symmetry_Int_Tables_number      2
_space_group_name_Hall           '-P 1'
loop_
_symmetry_equiv_pos_site_id
_symmetry_equiv_pos_as_xyz
1 x,y,z
2 -x,-y,-z
_cell_length_a                   5.3499
_cell_length_b                   6.6535
_cell_length_c                   17.1551
_cell_angle_alpha                85.8810
_cell_angle_beta                 82.6239
_cell_angle_gamma                88.9109
_cell_volume                     603.998
_exptl_crystal_colour            colorless
_exptl_crystal_description       plate
_cell_formula_units_Z            1
loop_
_atom_site_label
_atom_site_type_symbol
_atom_site_fract_x
_atom_site_fract_y
_atom_site_fract_z
O1 O -0.2878(4) 0.4007(3) 0.38648(13)
N1 N 0.1271(5) 0.4806(4) 0.38348(15)
N2 N 0.1691(5) 0.1578(4) 0.49626(17)
C1 C -0.0304(6) 0.1747(5) 0.45591(17)
C2 C -0.1985(6) 0.0176(5) 0.45870(18)
C3 C -0.0769(6) 0.3627(4) 0.40556(18)
C4 C 0.1369(5) 0.6684(4) 0.33754(17)
C5 C 0.3344(6) 0.7961(5) 0.34467(17)
C6 C 0.3563(6) 0.9798(4) 0.30060(18)
C7 C 0.1867(5) 1.0392(4) 0.24865(17)
C8 C -0.0069(6) 0.9074(4) 0.24182(17)
C9 C -0.0349(6) 0.7227(4) 0.28600(17)
C10 C 0.2032(5) 1.2409(4) 0.20043(18)
C11 C 0.4669(6) 1.3218(4) 0.17473(18)
C12 C 0.4686(6) 1.5237(5) 0.12664(18)
C13 C 0.7310(6) 1.5896(4) 0.08910(18)
C14 C 0.7300(7) 1.7927(5) 0.04264(19)
H1 H -0.334(5) 0.038(4) 0.4284(15)
H2 H 0.290(6) 0.440(4) 0.3998(17)
H3 H 0.45395 0.75772 0.37957
H4 H 0.49068 1.06666 0.30623
H5 H -0.12391 0.9442 0.20593
H6 H -0.16977 0.63589 0.28068
H7 H 0.12033 1.22757 0.1527
H8 H 0.10578 1.34191 0.23181
H9 H 0.56565 1.22239 0.14288
H10 H 0.55083 1.3374 0.22209
H11 H 0.39519 1.62817 0.16133
H12 H 0.35971 1.51446 0.08455
H13 H 0.84099 1.59688 0.13101
H14 H 0.80336 1.48675 0.05352
H15 H 0.60387 1.79269 0.00597
H16 H 0.89697 1.81736 0.01296
H17 H 0.68869 1.89899 0.079
O1A O 0.2878(4) -0.4007(3) 0.61352(13)
N1A N -0.1271(5) -0.4806(4) 0.61652(15)
N2A N -0.1691(5) -0.1578(4) 0.50374(17)
C1A C 0.0304(6) -0.1747(5) 0.54409(17)
C2A C 0.1985(6) -0.0176(5) 0.54130(18)
C3A C 0.0769(6) -0.3627(4) 0.59444(18)
C4A C -0.1369(5) -0.6684(4) 0.66246(17)
C5A C -0.3344(6) -0.7961(5) 0.65533(17)
C6A C -0.3563(6) -0.9798(4) 0.69940(18)
C7A C -0.1867(5) -1.0392(4) 0.75135(17)
C8A C 0.0069(6) -0.9074(4) 0.75818(17)
C9A C 0.0349(6) -0.7227(4) 0.71400(17)
C10A C -0.2032(5) -1.2409(4) 0.79957(18)
C11A C -0.4669(6) -1.3218(4) 0.82527(18)
C12A C -0.4686(6) -1.5237(5) 0.87336(18)
C13A C -0.7310(6) -1.5896(4) 0.91090(18)
C14A C -0.7300(7) -1.7927(5) 0.95736(19)
H1A H 0.334(5) -0.038(4) 0.5716(15)
H2A H -0.290(6) -0.440(4) 0.6002(17)
H3A H -0.45395 -0.75772 0.62043
H4A H -0.49068 -1.06666 0.69377
H5A H 0.12391 -0.9442 0.79407
H6A H 0.16977 -0.63589 0.71932
H7A H -0.12033 -1.22757 0.8473
H8A H -0.10578 -1.34191 0.76819
H9A H -0.56565 -1.22239 0.85712
H10A H -0.55083 -1.3374 0.77791
H11A H -0.39519 -1.62817 0.83867
H12A H -0.35971 -1.51446 0.91545
H13A H -0.84099 -1.59688 0.86899
H14A H -0.80336 -1.48675 0.94648
H15A H -0.60387 -1.79269 0.99403
H16A H -0.89697 -1.81736 0.98704
H17A H -0.68869 -1.89899 0.921
loop_
_geom_bond_atom_site_label_1
_geom_bond_atom_site_label_2
_geom_bond_site_symmetry_1
_geom_bond_site_symmetry_2
O1 C3 1_555 1_555
N1 C3 1_555 1_555
N2 C1 1_555 1_555
C1 C2 1_555 1_555
C2 H1 1_555 1_555
C3 C1 1_555 1_555
C4 N1 1_555 1_555
C5 C4 1_555 1_555
C6 C5 1_555 1_555
C7 C6 1_555 1_555
C8 C7 1_555 1_555
C9 C4 1_555 1_555
C10 C7 1_555 1_555
C11 C10 1_555 1_555
C12 C11 1_555 1_555
C13 C12 1_555 1_555
C14 C13 1_555 1_555
H2 N1 1_555 1_555
H3 C5 1_555 1_555
H4 C6 1_555 1_555
H5 C8 1_555 1_555
H6 C9 1_555 1_555
H7 C10 1_555 1_555
H8 C10 1_555 1_555
H9 C11 1_555 1_555
H10 C11 1_555 1_555
H11 C12 1_555 1_555
H12 C12 1_555 1_555
H13 C13 1_555 1_555
H14 C13 1_555 1_555
H15 C14 1_555 1_555
H16 C14 1_555 1_555
H17 C14 1_555 1_555
O1A C3A 1_555 1_555
N1A C3A 1_555 1_555
N2A C2 1_555 1_555
C1A N2A 1_555 1_555
C2A N2 1_555 1_555
C3A C1A 1_555 1_555
C4A N1A 1_555 1_555
C5A C4A 1_555 1_555
C6A C5A 1_555 1_555
C7A C6A 1_555 1_555
C8A C7A 1_555 1_555
C9A C4A 1_555 1_555
C10A C7A 1_555 1_555
C11A C10A 1_555 1_555
C12A C11A 1_555 1_555
C13A C12A 1_555 1_555
C14A C13A 1_555 1_555
H1A C2A 1_555 1_555
H2A N1A 1_555 1_555
H3A C5A 1_555 1_555
H4A C6A 1_555 1_555
H5A C8A 1_555 1_555
H6A C9A 1_555 1_555
H7A C10A 1_555 1_555
H8A C10A 1_555 1_555
H9A C11A 1_555 1_555
H10A C11A 1_555 1_555
H11A C12A 1_555 1_555
H12A C12A 1_555 1_555
H13A C13A 1_555 1_555
H14A C13A 1_555 1_555
H15A C14A 1_555 1_555
H16A C14A 1_555 1_555
H17A C14A 1_555 1_555
C8 C9 1_555 1_555
C1A C2A 1_555 1_555
C8A C9A 1_555 1_555

#END
