
#######################################################################
#
#                 Cambridge Crystallographic Data Centre
#                                CCDC 
#
#######################################################################
#
# If this CIF has been generated from an entry in the Cambridge 
# Structural Database, then it will include bibliographic, chemical, 
# crystal, experimental, refinement or atomic coordinate data resulting 
# from the CCDC's data processing and validation procedures.
#
#######################################################################

data_DABDEQ01
_chemical_formula_moiety         'H12 B12 2-,H12 Mg1 O6 2+,6(H2 O1)'
_chemical_name_systematic        
'hexaaqua-magnesium closo-dodecaborate(12) hexahydrate'
_symmetry_cell_setting           cubic
_symmetry_space_group_name_H-M   'F 2 3'
_symmetry_Int_Tables_number      196
_space_group_name_Hall           'F 2 2 3'
loop_
_symmetry_equiv_pos_site_id
_symmetry_equiv_pos_as_xyz
1 x,y,z
2 -x,-y,z
3 x,-y,-z
4 -x,y,-z
5 z,x,y
6 y,z,x
7 -z,-x,y
8 -y,z,-x
9 z,-x,-y
10 -y,-z,x
11 -z,x,-y
12 y,-z,-x
13 x,1/2+y,1/2+z
14 -x,1/2-y,1/2+z
15 x,1/2-y,1/2-z
16 -x,1/2+y,1/2-z
17 z,1/2+x,1/2+y
18 y,1/2+z,1/2+x
19 -z,1/2-x,1/2+y
20 -y,1/2+z,1/2-x
21 z,1/2-x,1/2-y
22 -y,1/2-z,1/2+x
23 -z,1/2+x,1/2-y
24 y,1/2-z,1/2-x
25 1/2+x,y,1/2+z
26 1/2-x,-y,1/2+z
27 1/2+x,-y,1/2-z
28 1/2-x,y,1/2-z
29 1/2+z,x,1/2+y
30 1/2+y,z,1/2+x
31 1/2-z,-x,1/2+y
32 1/2-y,z,1/2-x
33 1/2+z,-x,1/2-y
34 1/2-y,-z,1/2+x
35 1/2-z,x,1/2-y
36 1/2+y,-z,1/2-x
37 1/2+x,1/2+y,z
38 1/2-x,1/2-y,z
39 1/2+x,1/2-y,-z
40 1/2-x,1/2+y,-z
41 1/2+z,1/2+x,y
42 1/2+y,1/2+z,x
43 1/2-z,1/2-x,y
44 1/2-y,1/2+z,-x
45 1/2+z,1/2-x,-y
46 1/2-y,1/2-z,x
47 1/2-z,1/2+x,-y
48 1/2+y,1/2-z,-x
_cell_length_a                   16.3149(3)
_cell_length_b                   16.3149(3)
_cell_length_c                   16.3149(3)
_cell_angle_alpha                90
_cell_angle_beta                 90
_cell_angle_gamma                90
_cell_volume                     4342.63
_exptl_crystal_colour            colorless
_exptl_crystal_description       chunk
_cell_formula_units_Z            8
loop_
_atom_site_label
_atom_site_type_symbol
_atom_site_fract_x
_atom_site_fract_y
_atom_site_fract_z
Mg1 Mg 0.000 0.000 0.000
O1 O 0.000 0.12536(11) 0.000
H1 H 0.001(2) 0.1522(14) 0.0355(13)
H1C H -0.001(2) 0.1522(14) -0.0355(13)
O1A O 0.000 -0.12536(11) 0.000
H1A H -0.001(2) -0.1522(14) 0.0355(13)
H1B H 0.001(2) -0.1522(14) -0.0355(13)
O1D O 0.000 0.000 0.12536(11)
H1D H 0.0355(13) 0.001(2) 0.1522(14)
H1F H -0.0355(13) -0.001(2) 0.1522(14)
O1E O 0.12536(11) 0.000 0.000
H1E H 0.1522(14) 0.0355(13) 0.001(2)
H1K H 0.1522(14) -0.0355(13) -0.001(2)
O1G O -0.12536(11) 0.000 0.000
H1G H -0.1522(14) 0.0355(13) -0.001(2)
H1I H -0.1522(14) -0.0355(13) 0.001(2)
O1H O 0.000 0.000 -0.12536(11)
H1H H 0.0355(13) -0.001(2) -0.1522(14)
H1J H -0.0355(13) 0.001(2) -0.1522(14)
O2 O 0.12983(8) 0.01482(7) 0.23678(9)
H2 H 0.1546(13) -0.0100(18) 0.2284(16)
H3 H 0.1126(12) 0.0120(16) 0.2783(15)
B1 B 0.08853(9) 0.00008(12) 0.44539(10)
H4 H 0.1444(10) 0.0008(13) 0.4129(11)
B1B B 0.08853(9) -0.00008(12) 0.55461(10)
H4B H 0.1444(10) -0.0008(13) 0.5871(11)
B1S B -0.00008(12) -0.05461(10) 0.41147(9)
H4S H -0.0008(13) -0.0871(11) 0.3556(10)
B1W B 0.00008(12) 0.05461(10) 0.41147(9)
H4W H 0.0008(13) 0.0871(11) 0.3556(10)
B1DA B 0.05461(10) -0.08853(9) 0.50008(12)
H4DA H 0.0871(11) -0.1444(10) 0.5008(13)
B1HA B 0.05461(10) 0.08853(9) 0.49992(12)
H4HA H 0.0871(11) 0.1444(10) 0.4992(13)
B1A B -0.08853(9) -0.00008(12) 0.44539(10)
H4A H -0.1444(10) -0.0008(13) 0.4129(11)
B1C B -0.08853(9) 0.00008(12) 0.55461(10)
H4C H -0.1444(10) 0.0008(13) 0.5871(11)
B1Q B 0.00008(12) -0.05461(10) 0.58853(9)
H4Q H 0.0008(13) -0.0871(11) 0.6444(10)
B1U B -0.00008(12) 0.05461(10) 0.58853(9)
H4U H -0.0008(13) 0.0871(11) 0.6444(10)
B1BA B -0.05461(10) 0.08853(9) 0.50008(12)
H4BA H -0.0871(11) 0.1444(10) 0.5008(13)
B1FA B -0.05461(10) -0.08853(9) 0.49992(12)
H4FA H -0.0871(11) -0.1444(10) 0.4992(13)
B2 B 0.16149(9) -0.19540(9) 0.24994(13)
H5 H 0.1079(12) -0.1602(12) 0.2473(15)
B2H B 0.24994(13) -0.16149(9) 0.19540(9)
H5H H 0.2473(15) -0.1079(12) 0.1602(12)
B2I B 0.19540(9) -0.24994(13) 0.16149(9)
H5I H 0.1602(12) -0.2473(15) 0.1079(12)
B2N B 0.16149(9) -0.30460(9) 0.25006(13)
H5N H 0.1079(12) -0.3398(12) 0.2527(15)
B2S B 0.19540(9) -0.25006(13) 0.33851(9)
H5S H 0.1602(12) -0.2527(15) 0.3921(12)
B2DA B 0.25006(13) -0.16149(9) 0.30460(9)
H5DA H 0.2527(15) -0.1079(12) 0.3398(12)
B2P B 0.24994(13) -0.33851(9) 0.30460(9)
H5P H 0.2473(15) -0.3921(12) 0.3398(12)
B2AA B 0.33851(9) -0.19540(9) 0.25006(13)
H5AA H 0.3921(12) -0.1602(12) 0.2527(15)
B2IA B 0.30460(9) -0.24994(13) 0.33851(9)
H5IA H 0.3398(12) -0.2473(15) 0.3921(12)
B2KA B 0.33851(9) -0.30460(9) 0.24994(13)
H5KA H 0.3921(12) -0.3398(12) 0.2473(15)
B2OA B 0.30460(9) -0.25006(13) 0.16149(9)
H5OA H 0.3398(12) -0.2527(15) 0.1079(12)
B2TA B 0.25006(13) -0.33851(9) 0.19540(9)
H5TA H 0.2527(15) -0.3921(12) 0.1602(12)
O3? O 0.250 0.250 0.1239(19)
O4? O 0.3199(3) 0.2895(3) 0.1514(3)
O5? O 0.3159(3) 0.2088(3) 0.1530(3)
Mg2? Mg 0.250 0.250 0.250
loop_
_geom_bond_atom_site_label_1
_geom_bond_atom_site_label_2
_geom_bond_site_symmetry_1
_geom_bond_site_symmetry_2
Mg1 O1 1_555 1_555
O1 H1 1_555 1_555
O2 H2 1_555 1_555
H3 O2 1_555 1_555
B1 H4 1_555 1_555
B2 H5 1_555 1_555
H1C O1 1_555 1_555
O1A Mg1 1_555 1_555
H1A O1A 1_555 1_555
H1B O1A 1_555 1_555
O1D Mg1 1_555 1_555
H1D O1D 1_555 1_555
H1F O1D 1_555 1_555
O1E Mg1 1_555 1_555
H1E O1E 1_555 1_555
H1K O1E 1_555 1_555
O1G Mg1 1_555 1_555
H1G O1G 1_555 1_555
H1I O1G 1_555 1_555
O1H Mg1 1_555 1_555
H1H O1H 1_555 1_555
H1J O1H 1_555 1_555
B1B B1 1_555 1_555
H4B B1B 1_555 1_555
B1S B1 1_555 1_555
H4S B1S 1_555 1_555
B1W B1 1_555 1_555
H4W B1W 1_555 1_555
B1DA B1 1_555 1_555
H4DA B1DA 1_555 1_555
B1HA B1 1_555 1_555
H4HA B1HA 1_555 1_555
B1A B1S 1_555 1_555
H4A B1A 1_555 1_555
B1C B1A 1_555 1_555
H4C B1C 1_555 1_555
B1Q B1B 1_555 1_555
H4Q B1Q 1_555 1_555
B1U B1B 1_555 1_555
H4U B1U 1_555 1_555
B1BA B1W 1_555 1_555
H4BA B1BA 1_555 1_555
B1FA B1S 1_555 1_555
H4FA B1FA 1_555 1_555
B2H B2 1_555 1_555
H5H B2H 1_555 1_555
B2I B2 1_555 1_555
H5I B2I 1_555 1_555
B2N B2 1_555 1_555
H5N B2N 1_555 1_555
B2S B2 1_555 1_555
H5S B2S 1_555 1_555
B2DA B2 1_555 1_555
H5DA B2DA 1_555 1_555
B2P B2N 1_555 1_555
H5P B2P 1_555 1_555
B2AA B2H 1_555 1_555
H5AA B2AA 1_555 1_555
B2IA B2S 1_555 1_555
H5IA B2IA 1_555 1_555
B2KA B2P 1_555 1_555
H5KA B2KA 1_555 1_555
B2OA B2H 1_555 1_555
H5OA B2OA 1_555 1_555
B2TA B2I 1_555 1_555
H5TA B2TA 1_555 1_555
B1B B1DA 1_555 1_555
B1B B1HA 1_555 1_555
B1S B1W 1_555 1_555
B1S B1DA 1_555 1_555
B1W B1HA 1_555 1_555
B1W B1A 1_555 1_555
B1DA B1Q 1_555 1_555
B1DA B1FA 1_555 1_555
B1HA B1U 1_555 1_555
B1HA B1BA 1_555 1_555
B1A B1BA 1_555 1_555
B1A B1FA 1_555 1_555
B1C B1Q 1_555 1_555
B1C B1U 1_555 1_555
B1C B1BA 1_555 1_555
B1C B1FA 1_555 1_555
B1Q B1U 1_555 1_555
B1Q B1FA 1_555 1_555
B1U B1BA 1_555 1_555
B2H B2I 1_555 1_555
B2H B2DA 1_555 1_555
B2I B2N 1_555 1_555
B2I B2OA 1_555 1_555
B2N B2S 1_555 1_555
B2N B2TA 1_555 1_555
B2S B2DA 1_555 1_555
B2S B2P 1_555 1_555
B2DA B2AA 1_555 1_555
B2DA B2IA 1_555 1_555
B2P B2IA 1_555 1_555
B2P B2TA 1_555 1_555
B2AA B2IA 1_555 1_555
B2AA B2KA 1_555 1_555
B2AA B2OA 1_555 1_555
B2IA B2KA 1_555 1_555
B2KA B2OA 1_555 1_555
B2KA B2TA 1_555 1_555
B2OA B2TA 1_555 1_555

#END
