
#######################################################################
#
#                 Cambridge Crystallographic Data Centre
#                                CCDC 
#
#######################################################################
#
# If this CIF has been generated from an entry in the Cambridge 
# Structural Database, then it will include bibliographic, chemical, 
# crystal, experimental, refinement or atomic coordinate data resulting 
# from the CCDC's data processing and validation procedures.
#
#######################################################################

data_DABDIW
_chemical_formula_moiety         'C30 H36 N2 O2'
_chemical_name_systematic        N,N'-bis(4-Pentylphenyl)terephthalamide
_symmetry_cell_setting           triclinic
_symmetry_space_group_name_H-M   'P -1'
_symmetry_Int_Tables_number      2
_space_group_name_Hall           '-P 1'
loop_
_symmetry_equiv_pos_site_id
_symmetry_equiv_pos_as_xyz
1 x,y,z
2 -x,-y,-z
_cell_length_a                   5.3489
_cell_length_b                   6.6509
_cell_length_c                   17.1429
_cell_angle_alpha                85.8818
_cell_angle_beta                 82.6144
_cell_angle_gamma                88.9028
_cell_volume                     603.207
_exptl_crystal_colour            white
_exptl_crystal_description       plate
_cell_formula_units_Z            1
loop_
_atom_site_label
_atom_site_type_symbol
_atom_site_fract_x
_atom_site_fract_y
_atom_site_fract_z
O1 O 0.7880(4) 0.5991(4) 0.11357(15)
N1 N 0.3736(6) 0.5187(5) 0.11625(17)
C1 C 0.6991(7) 0.9821(6) 0.0414(2)
C2 C 0.5306(6) 0.8262(6) 0.04469(19)
C3 C 0.3310(6) 0.8440(5) 0.00341(19)
C4 C 0.5768(6) 0.6368(5) 0.09486(19)
C5 C 0.3619(6) 0.3323(5) 0.16214(19)
C6 C 0.5342(6) 0.2754(5) 0.21428(19)
C7 C 0.5078(6) 0.0934(5) 0.25806(19)
C8 C 0.3147(6) -0.0395(5) 0.25205(19)
C9 C 0.1437(6) 0.0203(5) 0.19932(19)
C10 C 0.1658(6) 0.2041(5) 0.1563(2)
C11 C 0.2973(6) -0.2404(5) 0.2997(2)
C12 C 0.0330(6) -0.3218(5) 0.3255(2)
C13 C 0.0323(6) -0.5232(6) 0.3735(2)
C14 C -0.2297(7) -0.5904(6) 0.4108(2)
C15 C -0.2292(8) -0.7924(6) 0.4579(2)
H1 H 0.83509 0.96802 0.07026
H2 H 0.249(7) 0.559(5) 0.1044(19)
H3 H 0.21673 0.73941 0.00563
H4 H 0.66661 0.35996 0.2195
H5 H 0.62349 0.05813 0.29294
H6 H 0.01312 -0.06511 0.19313
H7 H 0.04675 0.24235 0.12293
H8 H 0.37853 -0.228 0.34656
H9 H 0.39267 -0.33925 0.26882
H10 H -0.0641 -0.22446 0.35667
H11 H -0.0491 -0.33737 0.27902
H12 H 0.13841 -0.51345 0.41487
H13 H 0.10542 -0.62527 0.33953
H14 H -0.30212 -0.48919 0.44532
H15 H -0.33646 -0.59878 0.36954
H16 H -0.14486 -0.89119 0.42537
H17 H -0.39971 -0.83344 0.47497
H18 H -0.14267 -0.78057 0.50301
O1A O 0.2120(4) 1.4009(4) -0.11357(15)
N1A N 0.6264(6) 1.4813(5) -0.11625(17)
C1A C 0.3009(7) 1.0179(6) -0.0414(2)
C2A C 0.4694(6) 1.1738(6) -0.04469(19)
C3A C 0.6690(6) 1.1560(5) -0.00341(19)
C4A C 0.4232(6) 1.3632(5) -0.09486(19)
C5A C 0.6381(6) 1.6677(5) -0.16214(19)
C6A C 0.4658(6) 1.7246(5) -0.21428(19)
C7A C 0.4922(6) 1.9066(5) -0.25806(19)
C8A C 0.6853(6) 2.0395(5) -0.25205(19)
C9A C 0.8563(6) 1.9797(5) -0.19932(19)
C10A C 0.8342(6) 1.7959(5) -0.1563(2)
C11A C 0.7027(6) 2.2404(5) -0.2997(2)
C12A C 0.9670(6) 2.3218(5) -0.3255(2)
C13A C 0.9677(6) 2.5232(6) -0.3735(2)
C14A C 1.2297(7) 2.5904(6) -0.4108(2)
C15A C 1.2292(8) 2.7924(6) -0.4579(2)
H1A H 0.16491 1.03198 -0.07026
H2A H 0.751(7) 1.441(5) -0.1044(19)
H3A H 0.78327 1.26059 -0.00563
H4A H 0.33339 1.64004 -0.2195
H5A H 0.37651 1.94187 -0.29294
H6A H 0.98688 2.06511 -0.19313
H7A H 0.95325 1.75765 -0.12293
H8A H 0.62147 2.228 -0.34656
H9A H 0.60733 2.33925 -0.26882
H10A H 1.0641 2.22446 -0.35667
H11A H 1.0491 2.33737 -0.27902
H12A H 0.86159 2.51345 -0.41487
H13A H 0.89458 2.62527 -0.33953
H14A H 1.30212 2.48919 -0.44532
H15A H 1.33646 2.59878 -0.36954
H16A H 1.14486 2.89119 -0.42537
H17A H 1.39971 2.83344 -0.47497
H18A H 1.14267 2.78057 -0.50301
loop_
_geom_bond_atom_site_label_1
_geom_bond_atom_site_label_2
_geom_bond_site_symmetry_1
_geom_bond_site_symmetry_2
O1 C4 1_555 1_555
N1 C4 1_555 1_555
C1 C2 1_555 1_555
C2 C3 1_555 1_555
C3 H3 1_555 1_555
C4 C2 1_555 1_555
C5 N1 1_555 1_555
C6 C5 1_555 1_555
C7 C6 1_555 1_555
C8 C7 1_555 1_555
C9 C8 1_555 1_555
C10 C5 1_555 1_555
C11 C8 1_555 1_555
C12 C11 1_555 1_555
C13 C12 1_555 1_555
C14 C13 1_555 1_555
C15 C14 1_555 1_555
H1 C1 1_555 1_555
H2 N1 1_555 1_555
H4 C6 1_555 1_555
H5 C7 1_555 1_555
H6 C9 1_555 1_555
H7 C10 1_555 1_555
H8 C11 1_555 1_555
H9 C11 1_555 1_555
H10 C12 1_555 1_555
H11 C12 1_555 1_555
H12 C13 1_555 1_555
H13 C13 1_555 1_555
H14 C14 1_555 1_555
H15 C14 1_555 1_555
H16 C15 1_555 1_555
H17 C15 1_555 1_555
H18 C15 1_555 1_555
O1A C4A 1_555 1_555
N1A C4A 1_555 1_555
C1A C3 1_555 1_555
C2A C1A 1_555 1_555
C3A C1 1_555 1_555
C4A C2A 1_555 1_555
C5A N1A 1_555 1_555
C6A C5A 1_555 1_555
C7A C6A 1_555 1_555
C8A C7A 1_555 1_555
C9A C8A 1_555 1_555
C10A C5A 1_555 1_555
C11A C8A 1_555 1_555
C12A C11A 1_555 1_555
C13A C12A 1_555 1_555
C14A C13A 1_555 1_555
C15A C14A 1_555 1_555
H1A C1A 1_555 1_555
H2A N1A 1_555 1_555
H3A C3A 1_555 1_555
H4A C6A 1_555 1_555
H5A C7A 1_555 1_555
H6A C9A 1_555 1_555
H7A C10A 1_555 1_555
H8A C11A 1_555 1_555
H9A C11A 1_555 1_555
H10A C12A 1_555 1_555
H11A C12A 1_555 1_555
H12A C13A 1_555 1_555
H13A C13A 1_555 1_555
H14A C14A 1_555 1_555
H15A C14A 1_555 1_555
H16A C15A 1_555 1_555
H17A C15A 1_555 1_555
H18A C15A 1_555 1_555
C9 C10 1_555 1_555
C2A C3A 1_555 1_555
C9A C10A 1_555 1_555

#END
