
#######################################################################
#
#                 Cambridge Crystallographic Data Centre
#                                CCDC 
#
#######################################################################
#
# If this CIF has been generated from an entry in the Cambridge 
# Structural Database, then it will include bibliographic, chemical, 
# crystal, experimental, refinement or atomic coordinate data resulting 
# from the CCDC's data processing and validation procedures.
#
#######################################################################

data_DABJUN
_chemical_formula_moiety         'C17 H18 N2 O1'
_chemical_name_systematic        
1,5-Dimethyl-8-(4-methylphenyl)-5,6-dihydropyrrolo[3,2-c]azepin-4(1H)-one
_symmetry_cell_setting           monoclinic
_symmetry_space_group_name_H-M   'P 21/c'
_symmetry_Int_Tables_number      14
_space_group_name_Hall           '-P 2ybc'
loop_
_symmetry_equiv_pos_site_id
_symmetry_equiv_pos_as_xyz
1 x,y,z
2 -x,1/2+y,1/2-z
3 -x,-y,-z
4 x,1/2-y,1/2+z
_cell_length_a                   9.358(2)
_cell_length_b                   10.587(2)
_cell_length_c                   14.841(3)
_cell_angle_alpha                90
_cell_angle_beta                 105.18(3)
_cell_angle_gamma                90
_cell_volume                     1419.04
_exptl_crystal_colour            yellow
_exptl_crystal_description       prism
_cell_formula_units_Z            4
loop_
_atom_site_label
_atom_site_type_symbol
_atom_site_fract_x
_atom_site_fract_y
_atom_site_fract_z
C1 C 0.45901(17) 0.17450(15) 0.32710(11)
C2 C 0.32257(17) 0.14737(14) 0.35598(10)
C3 C 0.17649(16) 0.15992(13) 0.30386(10)
C4 C 0.11959(16) 0.20608(14) 0.20791(10)
C5 C -0.00741(16) 0.14218(14) 0.14200(10)
C6 C -0.01666(17) 0.01078(15) 0.13547(10)
H1 H 0.0562 -0.0394 0.1767
C7 C -0.13027(18) -0.04771(15) 0.06999(11)
H2 H -0.1331 -0.1373 0.0667
C8 C -0.24016(18) 0.02182(17) 0.00906(10)
C9 C -0.23250(18) 0.15323(17) 0.01663(11)
H3 H -0.3069 0.2033 -0.0235
C10 C -0.11833(17) 0.21187(16) 0.08159(10)
H4 H -0.1156 0.3015 0.0850
C11 C -0.07307(19) 0.12592(17) 0.33772(12)
H5 H -0.1206 0.0565 0.2972
H6 H -0.1040 0.2067 0.3065
H7 H -0.1023 0.1228 0.3964
C12 C 0.1759(2) 0.07232(15) 0.44057(11)
H8 H 0.1415 0.0367 0.4898
C13 C 0.3194(2) 0.08985(16) 0.44234(11)
H9 H 0.4028 0.0680 0.4919
C14 C 0.32756(17) 0.35944(15) 0.24331(12)
H10 H 0.3552 0.4355 0.2129
H11 H 0.3028 0.3866 0.3012
C15 C 0.19474(17) 0.29915(15) 0.17935(11)
H12 H 0.1626 0.3276 0.1166
C16 C 0.57966(19) 0.2945(2) 0.22752(14)
H13 H 0.6562 0.3426 0.2721
H14 H 0.5461 0.3427 0.1694
H15 H 0.6206 0.2135 0.2145
C17 C -0.3618(2) -0.04276(19) -0.06348(12)
H16 H -0.3269 -0.0612 -0.1188
H17 H -0.4485 0.0128 -0.0809
H18 H -0.3890 -0.1218 -0.0378
N1 N 0.08748(15) 0.11363(11) 0.35725(9)
N2 N 0.45434(14) 0.27203(13) 0.26725(10)
O1 O 0.57316(13) 0.11123(11) 0.35673(9)
loop_
_geom_bond_atom_site_label_1
_geom_bond_atom_site_label_2
_geom_bond_site_symmetry_1
_geom_bond_site_symmetry_2
C1 C2 1_555 1_555
C2 C3 1_555 1_555
C3 C4 1_555 1_555
C4 C5 1_555 1_555
C5 C6 1_555 1_555
C6 H1 1_555 1_555
C7 C6 1_555 1_555
H2 C7 1_555 1_555
C8 C7 1_555 1_555
C9 C8 1_555 1_555
H3 C9 1_555 1_555
C10 C5 1_555 1_555
H4 C10 1_555 1_555
C11 H5 1_555 1_555
H6 C11 1_555 1_555
H7 C11 1_555 1_555
C12 H8 1_555 1_555
C13 C2 1_555 1_555
H9 C13 1_555 1_555
C14 H10 1_555 1_555
H11 C14 1_555 1_555
C15 C4 1_555 1_555
H12 C15 1_555 1_555
C16 H13 1_555 1_555
H14 C16 1_555 1_555
H15 C16 1_555 1_555
C17 C8 1_555 1_555
H16 C17 1_555 1_555
H17 C17 1_555 1_555
H18 C17 1_555 1_555
N1 C3 1_555 1_555
N2 C1 1_555 1_555
O1 C1 1_555 1_555
C9 C10 1_555 1_555
C11 N1 1_555 1_555
C12 C13 1_555 1_555
C12 N1 1_555 1_555
C14 C15 1_555 1_555
C14 N2 1_555 1_555
C16 N2 1_555 1_555

#END
