
#######################################################################
#
#                 Cambridge Crystallographic Data Centre
#                                CCDC 
#
#######################################################################
#
# If this CIF has been generated from an entry in the Cambridge 
# Structural Database, then it will include bibliographic, chemical, 
# crystal, experimental, refinement or atomic coordinate data resulting 
# from the CCDC's data processing and validation procedures.
#
#######################################################################

data_DABKIC
_chemical_formula_moiety         'C34 H22'
_chemical_name_systematic        syn-9,10-bis(1-naphthyl)anthracene
_symmetry_cell_setting           monoclinic
_symmetry_space_group_name_H-M   'C 2/c'
_symmetry_Int_Tables_number      15
_space_group_name_Hall           '-C 2yn'
loop_
_symmetry_equiv_pos_site_id
_symmetry_equiv_pos_as_xyz
1 x,y,z
2 -x,y,1/2-z
3 1/2+x,1/2+y,z
4 1/2-x,1/2+y,1/2-z
5 -x,-y,-z
6 x,-y,1/2+z
7 1/2-x,1/2-y,-z
8 1/2+x,1/2-y,1/2+z
_cell_length_a                   18.1453(10)
_cell_length_b                   16.5882(10)
_cell_length_c                   14.8692(7)
_cell_angle_alpha                90
_cell_angle_beta                 96.094(3)
_cell_angle_gamma                90
_cell_volume                     4450.31
_exptl_crystal_colour            colorless
_exptl_crystal_description       block
_cell_formula_units_Z            8
_exptl_crystal_recrystallization_method tetrahydrofuran/hexane
loop_
_atom_site_label
_atom_site_type_symbol
_atom_site_fract_x
_atom_site_fract_y
_atom_site_fract_z
C1 C 0.18222(19) 0.0902(3) 0.8157(2)
C2 C 0.13306(19) 0.0466(3) 0.7535(2)
C3 C 0.1257(2) -0.0379(3) 0.7582(2)
H1 H 0.1537 -0.0662 0.8038
C4 C 0.0783(2) -0.0788(3) 0.6974(2)
H2 H 0.0751 -0.1346 0.7009
C5 C 0.0340(2) -0.0368(4) 0.6288(3)
H3 H 0.0007 -0.065 0.5887
C6 C 0.0396(2) 0.0432(4) 0.6211(2)
H4 H 0.0101 0.0693 0.5751
C7 C 0.08969(19) 0.0902(3) 0.6817(2)
C8 C 0.0985(2) 0.1724(3) 0.6722(2)
C9 C 0.1495(2) 0.2158(3) 0.7330(2)
C10 C 0.1606(2) 0.3000(4) 0.7260(3)
H5 H 0.1334 0.3284 0.6798
C11 C 0.2093(2) 0.3403(3) 0.7844(3)
H6 H 0.2158 0.3955 0.7773
C12 C 0.2511(2) 0.2987(3) 0.8570(3)
H7 H 0.2849 0.3266 0.8969
C13 C 0.2412(2) 0.2195(3) 0.8671(2)
H8 H 0.2676 0.1935 0.9157
C14 C 0.19141(19) 0.1731(3) 0.8060(2)
C15 C 0.22673(19) 0.0470(2) 0.8916(2)
C16 C 0.30103(19) 0.0249(2) 0.8831(2)
C17 C 0.3366(2) 0.0427(2) 0.8051(2)
H9 H 0.3105 0.0703 0.7576
C18 C 0.4080(2) 0.0205(3) 0.7978(2)
H10 H 0.43 0.033 0.7458
C19 C 0.4485(2) -0.0218(3) 0.8694(3)
H11 H 0.4971 -0.0375 0.8646
C20 C 0.4161(2) -0.0393(3) 0.9453(3)
H12 H 0.4433 -0.067 0.9921
C21 C 0.3424(2) -0.0169(2) 0.9555(2)
C22 C 0.3085(2) -0.0332(3) 1.0341(2)
H13 H 0.3351 -0.0602 1.0818
C23 C 0.2380(2) -0.0103(3) 1.0417(2)
H14 H 0.217 -0.0211 1.0948
C24 C 0.1958(2) 0.0301(3) 0.9694(2)
H15 H 0.147 0.0449 0.9749
C25 C 0.0527(2) 0.2170(3) 0.5971(3)
C26 C 0.0804(3) 0.2287(3) 0.5125(2)
C27 C 0.1508(3) 0.2032(3) 0.4945(2)
H16 H 0.1788 0.1802 0.544
C28 C 0.1874(5) 0.2059(12) 0.4154(13)
H17 H 0.2336 0.1832 0.4097
C29 C 0.1437(7) 0.2481(10) 0.3459(10)
H18 H 0.164 0.2612 0.2928
C30 C 0.0735(8) 0.2696(6) 0.3556(9)
H19 H 0.0442 0.2916 0.3065
C31 C 0.0442(6) 0.2598(9) 0.4360(9)
C32 C -0.0313(10) 0.2815(8) 0.4497(10)
H20 H -0.0616 0.3054 0.4028
C33 C -0.0585(7) 0.2674(7) 0.5311(9)
H21 H -0.1064 0.283 0.54
C34 C -0.0138(6) 0.2295(7) 0.5995(6)
H22 H -0.0353 0.2126 0.6503
C35? C 0.1598(7) 0.2293(17) 0.4083(19)
C36? C 0.1117(11) 0.2743(16) 0.3434(15)
C37? C 0.0463(10) 0.3031(7) 0.3652(13)
C38? C 0.0194(10) 0.2869(14) 0.4517(13)
C39? C -0.0445(14) 0.3162(12) 0.4750(14)
C40? C -0.0669(11) 0.3092(10) 0.5567(14)
C41? C -0.0201(9) 0.2674(9) 0.6270(9)
H23? H 0.2051 0.2154 0.3886
H24? H 0.1257 0.2837 0.2859
H25? H 0.0175 0.3344 0.3231
H26? H -0.0753 0.3433 0.431
H27? H -0.1121 0.3308 0.5688
H28? H -0.0305 0.2689 0.6869
loop_
_geom_bond_atom_site_label_1
_geom_bond_atom_site_label_2
_geom_bond_site_symmetry_1
_geom_bond_site_symmetry_2
C1 C2 1_555 1_555
C2 C3 1_555 1_555
C3 H1 1_555 1_555
C4 C3 1_555 1_555
H2 C4 1_555 1_555
C5 C4 1_555 1_555
H3 C5 1_555 1_555
C6 C5 1_555 1_555
H4 C6 1_555 1_555
C7 C2 1_555 1_555
C8 C7 1_555 1_555
C9 C8 1_555 1_555
C10 C9 1_555 1_555
H5 C10 1_555 1_555
C11 C10 1_555 1_555
H6 C11 1_555 1_555
C12 C11 1_555 1_555
H7 C12 1_555 1_555
C13 C12 1_555 1_555
H8 C13 1_555 1_555
C14 C1 1_555 1_555
C15 C1 1_555 1_555
C16 C15 1_555 1_555
C17 C16 1_555 1_555
H9 C17 1_555 1_555
C18 C17 1_555 1_555
H10 C18 1_555 1_555
C19 C18 1_555 1_555
H11 C19 1_555 1_555
C20 C19 1_555 1_555
H12 C20 1_555 1_555
C21 C16 1_555 1_555
C22 C21 1_555 1_555
H13 C22 1_555 1_555
C23 C22 1_555 1_555
H14 C23 1_555 1_555
C24 C15 1_555 1_555
H15 C24 1_555 1_555
C25 C8 1_555 1_555
C26 C25 1_555 1_555
C27 C26 1_555 1_555
H16 C27 1_555 1_555
C28 C27 1_555 1_555
H17 C28 1_555 1_555
C29 C28 1_555 1_555
H18 C29 1_555 1_555
C30 C29 1_555 1_555
H19 C30 1_555 1_555
C31 C26 1_555 1_555
C32 C31 1_555 1_555
H20 C32 1_555 1_555
C33 C32 1_555 1_555
H21 C33 1_555 1_555
C34 C25 1_555 1_555
H22 C34 1_555 1_555
C6 C7 1_555 1_555
C9 C14 1_555 1_555
C13 C14 1_555 1_555
C20 C21 1_555 1_555
C23 C24 1_555 1_555
C30 C31 1_555 1_555
C33 C34 1_555 1_555

#END
