
#######################################################################
#
#                 Cambridge Crystallographic Data Centre
#                                CCDC 
#
#######################################################################
#
# If this CIF has been generated from an entry in the Cambridge 
# Structural Database, then it will include bibliographic, chemical, 
# crystal, experimental, refinement or atomic coordinate data resulting 
# from the CCDC's data processing and validation procedures.
#
#######################################################################

data_DABKUM01
_chemical_formula_moiety         'C23 H32 O2'
_chemical_name_systematic        2,2'-methylenebis(6-t-butyl-4-methylphenol)
_symmetry_cell_setting           orthorhombic
_symmetry_space_group_name_H-M   'P n a 21'
_symmetry_Int_Tables_number      33
_space_group_name_Hall           'P 2c -2n'
loop_
_symmetry_equiv_pos_site_id
_symmetry_equiv_pos_as_xyz
1 x,y,z
2 -x,-y,1/2+z
3 1/2+x,1/2-y,z
4 1/2-x,1/2+y,1/2+z
_cell_length_a                   16.105(2)
_cell_length_b                   12.7778(18)
_cell_length_c                   10.1418(15)
_cell_angle_alpha                90
_cell_angle_beta                 90
_cell_angle_gamma                90
_cell_volume                     2087.05
_exptl_crystal_colour            colorless
_exptl_crystal_description       prismatic
_cell_formula_units_Z            4
loop_
_atom_site_label
_atom_site_type_symbol
_atom_site_fract_x
_atom_site_fract_y
_atom_site_fract_z
O1 O 0.07968(11) 0.76979(14) 0.0487(2)
H1 H 0.0704 0.8324 0.0388
O2 O 0.03267(13) 0.97626(13) 0.0140(2)
C1 C 0.14371(13) 0.75698(16) 0.1365(2)
C2 C 0.15190(13) 0.65907(16) 0.1970(3)
C3 C 0.21758(14) 0.64784(17) 0.2843(3)
H2 H 0.2240 0.5838 0.3267
C4 C 0.27404(14) 0.72639(18) 0.3120(3)
C5 C 0.26420(13) 0.82111(18) 0.2479(3)
H3 H 0.3016 0.8750 0.2644
C6 C 0.20017(12) 0.83748(15) 0.1599(2)
C7 C 0.19422(14) 0.94200(18) 0.0916(3)
H4 H 0.1734 0.9309 0.0029
H5 H 0.2496 0.9713 0.0842
C8 C 0.13882(13) 1.02107(15) 0.1601(2)
C9 C 0.16894(14) 1.07998(17) 0.2636(3)
H6 H 0.2226 1.0678 0.2936
C10 C 0.12207(15) 1.15607(16) 0.3237(3)
C11 C 0.04195(13) 1.17372(17) 0.2760(2)
H7 H 0.0101 1.2258 0.3153
C12 C 0.00779(12) 1.11718(16) 0.1727(2)
C13 C 0.05810(13) 1.03956(16) 0.1171(2)
C14 C 0.34378(19) 0.7107(3) 0.4078(4)
H8 H 0.3227 0.6791 0.4869
H9 H 0.3683 0.7771 0.4287
H10 H 0.3850 0.6658 0.3692
C15 C 0.09228(15) 0.56891(19) 0.1672(3)
C16 C 0.1121(2) 0.4715(2) 0.2486(5)
H11 H 0.0718 0.4181 0.2302
H12 H 0.1104 0.4887 0.3407
H13 H 0.1664 0.4464 0.2260
C17 C 0.0998(3) 0.5391(3) 0.0222(4)
H14 H 0.0891 0.5995 -0.0316
H15 H 0.0602 0.4853 0.0019
H16 H 0.1549 0.5138 0.0050
C18 C 0.00263(16) 0.5996(3) 0.2004(5)
H17 H -0.0123 0.6613 0.1520
H18 H -0.0019 0.6132 0.2932
H19 H -0.0340 0.5434 0.1768
C19 C 0.15565(19) 1.2199(2) 0.4365(3)
H20 H 0.1981 1.1809 0.4812
H21 H 0.1116 1.2355 0.4971
H22 H 0.1787 1.2840 0.4033
C20 C -0.07981(13) 1.1416(2) 0.1201(3)
C21 C -0.13620(19) 1.0463(3) 0.1424(4)
H23 H -0.1430 1.0348 0.2353
H24 H -0.1114 0.9856 0.1029
H25 H -0.1895 1.0590 0.1030
C22 C -0.07689(17) 1.1684(3) -0.0260(3)
H26 H -0.1324 1.1782 -0.0583
H27 H -0.0509 1.1123 -0.0734
H28 H -0.0456 1.2316 -0.0385
C23 C -0.11925(19) 1.2335(3) 0.1919(4)
H29 H -0.0852 1.2945 0.1810
H30 H -0.1240 1.2172 0.2840
H31 H -0.1734 1.2466 0.1561
H32 H -0.0144(19) 0.9829(17) -0.009(3)
loop_
_geom_bond_atom_site_label_1
_geom_bond_atom_site_label_2
_geom_bond_site_symmetry_1
_geom_bond_site_symmetry_2
O1 H1 1_555 1_555
O2 C13 1_555 1_555
C1 O1 1_555 1_555
C2 C1 1_555 1_555
C3 C2 1_555 1_555
H2 C3 1_555 1_555
C4 C3 1_555 1_555
C5 C4 1_555 1_555
H3 C5 1_555 1_555
C6 C1 1_555 1_555
C7 C6 1_555 1_555
H4 C7 1_555 1_555
H5 C7 1_555 1_555
C8 C7 1_555 1_555
C9 C8 1_555 1_555
H6 C9 1_555 1_555
C10 C9 1_555 1_555
C11 C10 1_555 1_555
H7 C11 1_555 1_555
C12 C11 1_555 1_555
C13 C8 1_555 1_555
C14 C4 1_555 1_555
H8 C14 1_555 1_555
H9 C14 1_555 1_555
H10 C14 1_555 1_555
C15 C2 1_555 1_555
C16 C15 1_555 1_555
H11 C16 1_555 1_555
H12 C16 1_555 1_555
H13 C16 1_555 1_555
C17 C15 1_555 1_555
H14 C17 1_555 1_555
H15 C17 1_555 1_555
H16 C17 1_555 1_555
C18 C15 1_555 1_555
H17 C18 1_555 1_555
H18 C18 1_555 1_555
H19 C18 1_555 1_555
C19 C10 1_555 1_555
H20 C19 1_555 1_555
H21 C19 1_555 1_555
H22 C19 1_555 1_555
C20 C12 1_555 1_555
C21 C20 1_555 1_555
H23 C21 1_555 1_555
H24 C21 1_555 1_555
H25 C21 1_555 1_555
C22 C20 1_555 1_555
H26 C22 1_555 1_555
H27 C22 1_555 1_555
H28 C22 1_555 1_555
C23 C20 1_555 1_555
H29 C23 1_555 1_555
H30 C23 1_555 1_555
H31 C23 1_555 1_555
H32 O2 1_555 1_555
C5 C6 1_555 1_555
C12 C13 1_555 1_555

#END
