
#######################################################################
#
#                 Cambridge Crystallographic Data Centre
#                                CCDC 
#
#######################################################################
#
# If this CIF has been generated from an entry in the Cambridge 
# Structural Database, then it will include bibliographic, chemical, 
# crystal, experimental, refinement or atomic coordinate data resulting 
# from the CCDC's data processing and validation procedures.
#
#######################################################################

data_DABMOK
_chemical_formula_moiety         'C15 H17 F1 N2 O5'
_chemical_name_systematic        
'Ethyl 7-fluoro-2-methyl-4-oxo-5-(tetrahydro-2H-pyran-2-yl)-4,5-dihydrofuro[2,3-d]pyridazine-3-carboxylate'
_symmetry_cell_setting           monoclinic
_symmetry_space_group_name_H-M   'P 2/c'
_symmetry_Int_Tables_number      13
_space_group_name_Hall           '-P 2yc'
loop_
_symmetry_equiv_pos_site_id
_symmetry_equiv_pos_as_xyz
1 x,y,z
2 -x,y,1/2-z
3 -x,-y,-z
4 x,-y,1/2+z
_cell_length_a                   11.1242(6)
_cell_length_b                   7.2292(4)
_cell_length_c                   18.7744(10)
_cell_angle_alpha                90
_cell_angle_beta                 94.35(2)
_cell_angle_gamma                90
_cell_volume                     1505.47
_exptl_crystal_colour            colorless
_exptl_crystal_description       block
_chemical_melting_point          '113-115 deg.C'
_cell_formula_units_Z            4
loop_
_atom_site_label
_atom_site_type_symbol
_atom_site_fract_x
_atom_site_fract_y
_atom_site_fract_z
F1 F 0.62963(9) 0.17215(17) 0.49651(5)
O1 O 0.74030(15) 0.4754(2) 0.27498(8)
O2 O 1.01635(11) 0.2964(2) 0.35017(7)
O3 O 0.86610(10) 0.18631(17) 0.57011(6)
O4 O 1.24164(11) 0.22385(18) 0.56352(7)
O5 O 1.19848(11) 0.40835(18) 0.46826(7)
N1 N 0.81307(12) 0.2614(2) 0.35822(8)
N2 N 0.71269(12) 0.2318(2) 0.39453(8)
C1 C 0.93293(15) 0.2719(2) 0.38811(9)
C2 C 0.94259(15) 0.2477(2) 0.46476(9)
C3 C 0.84233(15) 0.2084(2) 0.49875(9)
C4 C 0.72813(15) 0.2042(3) 0.46157(10)
C5 C 1.04005(16) 0.2509(2) 0.52040(9)
C6 C 0.98884(16) 0.2143(2) 0.58271(10)
C7 C 1.0330(2) 0.2052(3) 0.65901(11)
C8 C 1.16703(16) 0.3038(3) 0.51294(10)
C9 C 1.36835(17) 0.2790(3) 0.56357(12)
C10 C 1.4329(2) 0.1991(3) 0.62865(13)
C11 C 0.78724(16) 0.2915(3) 0.28181(9)
C12 C 0.6993(2) 0.1531(3) 0.24661(12)
H1 H 0.6239 0.1530 0.2715
H2 H 0.7345 0.0275 0.2502
C13 C 0.6709(3) 0.2040(4) 0.16748(15)
H3 H 0.7438 0.1868 0.1410
H4 H 0.6068 0.1219 0.1460
C14 C 0.6296(2) 0.4047(4) 0.16181(14)
H5 H 0.6196 0.4418 0.1109
H6 H 0.5508 0.4180 0.1824
C15 C 0.7215(2) 0.5283(4) 0.20136(11)
H7 H 0.7988 0.5206 0.1786
H8 H 0.6933 0.6581 0.1982
H9 H 1.0105(19) 0.089(4) 0.6810(12)
H10 H 0.996(2) 0.302(4) 0.6830(13)
H11 H 1.119(2) 0.218(3) 0.6656(13)
H12 H 1.3997(17) 0.235(3) 0.5203(11)
H13 H 1.3709(15) 0.416(3) 0.5638(9)
H14 H 1.4186(17) 0.068(3) 0.6291(10)
H15 H 1.4028(19) 0.251(3) 0.6735(12)
H16 H 1.5184(19) 0.219(3) 0.6290(10)
H17 H 0.8618(15) 0.289(2) 0.2605(8)
C16? C 0.691(2) 0.424(4) 0.2639(13)
C17? C 0.671(2) 0.431(3) 0.1854(11)
C18? C 0.632(2) 0.241(4) 0.1660(16)
C19? C 0.7314(14) 0.091(2) 0.1903(8)
H18? H 0.6165 0.3853 0.2851
H19? H 0.7146 0.5478 0.2828
H20? H 0.6082 0.5224 0.1703
H21? H 0.7466 0.4633 0.1633
H22? H 0.5567 0.2127 0.1888
H23? H 0.6143 0.2333 0.1136
H24? H 0.7011 -0.0349 0.1780
H25? H 0.8053 0.1123 0.1652
O6? O 0.7575(10) 0.1054(15) 0.2641(6)
loop_
_geom_bond_atom_site_label_1
_geom_bond_atom_site_label_2
_geom_bond_site_symmetry_1
_geom_bond_site_symmetry_2
F1 C4 1_555 1_555
O1 C11 1_555 1_555
O2 C1 1_555 1_555
O3 C3 1_555 1_555
O4 C8 1_555 1_555
O5 C8 1_555 1_555
N1 N2 1_555 1_555
N2 C4 1_555 1_555
C1 N1 1_555 1_555
C2 C1 1_555 1_555
C3 C2 1_555 1_555
C4 C3 1_555 1_555
C5 C2 1_555 1_555
C6 O3 1_555 1_555
C7 C6 1_555 1_555
C8 C5 1_555 1_555
C9 O4 1_555 1_555
C10 C9 1_555 1_555
C11 N1 1_555 1_555
C12 C11 1_555 1_555
H1 C12 1_555 1_555
H2 C12 1_555 1_555
C13 C12 1_555 1_555
H3 C13 1_555 1_555
H4 C13 1_555 1_555
C14 C13 1_555 1_555
H5 C14 1_555 1_555
H6 C14 1_555 1_555
C15 O1 1_555 1_555
H7 C15 1_555 1_555
H8 C15 1_555 1_555
H9 C7 1_555 1_555
H10 C7 1_555 1_555
H11 C7 1_555 1_555
H12 C9 1_555 1_555
H13 C9 1_555 1_555
H14 C10 1_555 1_555
H15 C10 1_555 1_555
H16 C10 1_555 1_555
H17 C11 1_555 1_555
C5 C6 1_555 1_555
C14 C15 1_555 1_555

#END
