
#######################################################################
#
#                 Cambridge Crystallographic Data Centre
#                                CCDC 
#
#######################################################################
#
# If this CIF has been generated from an entry in the Cambridge 
# Structural Database, then it will include bibliographic, chemical, 
# crystal, experimental, refinement or atomic coordinate data resulting 
# from the CCDC's data processing and validation procedures.
#
#######################################################################

data_DABPAZ
_chemical_formula_moiety         'C25 H20 N2 O3'
_chemical_name_systematic        
2-(1,3-Dibenzoylimidazolidin-2-ylidene)-1-phenylethanone
_symmetry_cell_setting           triclinic
_symmetry_space_group_name_H-M   'P -1'
_symmetry_Int_Tables_number      2
_space_group_name_Hall           '-P 1'
loop_
_symmetry_equiv_pos_site_id
_symmetry_equiv_pos_as_xyz
1 x,y,z
2 -x,-y,-z
_cell_length_a                   9.1403(15)
_cell_length_b                   10.5499(17)
_cell_length_c                   12.440(3)
_cell_angle_alpha                96.863(2)
_cell_angle_beta                 107.970(3)
_cell_angle_gamma                114.829(2)
_cell_volume                     991.56
_cell_formula_units_Z            2
loop_
_atom_site_label
_atom_site_type_symbol
_atom_site_fract_x
_atom_site_fract_y
_atom_site_fract_z
O1 O 0.70829(15) 0.51692(12) 0.16518(10)
O2 O 0.53831(14) 0.37561(12) 0.51923(9)
O3 O 0.77451(14) 0.27915(12) 0.50603(10)
N1 N 0.79191(16) 0.56091(14) 0.52094(11)
N2 N 0.81281(16) 0.63398(14) 0.36104(11)
C1 C 0.9132(2) 0.62375(18) 0.95065(15)
H1 H 0.9648 0.6558 1.0345
C2 C 0.7394(2) 0.58809(17) 0.89040(15)
H2 H 0.6711 0.5941 0.9329
C3 C 0.6655(2) 0.54356(17) 0.76795(15)
H3 H 0.5462 0.5184 0.7267
C4 C 0.7647(2) 0.53553(17) 0.70544(14)
C5 C 0.6837(2) 0.48089(18) 0.57465(15)
C6 C 0.7651(2) 0.51232(18) 0.40436(14)
C7 C 0.7086(2) 0.37367(17) 0.34407(14)
H4 H 0.6713 0.3506 0.2607
C8 C 0.7014(2) 0.25782(18) 0.39850(15)
C9 C 0.6022(2) 0.10380(17) 0.31836(14)
C10 C 0.5736(2) -0.00827(18) 0.37107(15)
H5 H 0.6237 0.0147 0.4547
C11 C 0.4738(2) -0.15232(18) 0.30416(15)
H6 H 0.4541 -0.2278 0.3416
C12 C 0.4024(2) -0.18671(19) 0.18239(15)
H7 H 0.3331 -0.2859 0.1361
C13 C 1.0318(3) 1.02987(19) 0.16550(16)
H8 H 1.0851 1.1176 0.1458
C14 C 1.1342(2) 0.99140(19) 0.24686(15)
H9 H 1.2581 1.0525 0.2827
C15 C 1.0578(2) 0.86413(18) 0.27667(15)
H10 H 1.1287 0.8381 0.3331
C16 C 0.8767(2) 0.77475(18) 0.22338(14)
C17 C 0.7745(2) 0.81322(19) 0.14092(15)
H11 H 0.6508 0.7516 0.1037
C18 C 0.8521(3) 0.94137(19) 0.11257(15)
H12 H 0.7816 0.9682 0.0567
C19 C 0.7917(2) 0.63111(19) 0.24553(15)
C20 C 0.8697(2) 0.76789(17) 0.45277(14)
H13 H 0.7796 0.7998 0.4351
H14 H 0.9820 0.8483 0.4593
C21 C 0.8919(2) 0.72105(16) 0.56496(14)
H15 H 1.0173 0.7551 0.6130
H16 H 0.8430 0.7594 0.6131
C22 C 1.0114(2) 0.61253(18) 0.88819(15)
H17 H 1.1295 0.6343 0.9294
C23 C 0.9380(2) 0.56970(17) 0.76595(14)
H18 H 1.0063 0.5637 0.7235
C24 C 0.4319(2) -0.07717(19) 0.12821(15)
H19 H 0.3845 -0.1011 0.0445
C25 C 0.5307(2) 0.06832(18) 0.19567(15)
H20 H 0.5493 0.1435 0.1580
loop_
_geom_bond_atom_site_label_1
_geom_bond_atom_site_label_2
_geom_bond_site_symmetry_1
_geom_bond_site_symmetry_2
O1 C19 1_555 1_555
O2 C5 1_555 1_555
O3 C8 1_555 1_555
N1 C5 1_555 1_555
N2 C6 1_555 1_555
C1 H1 1_555 1_555
C2 C1 1_555 1_555
H2 C2 1_555 1_555
C3 C2 1_555 1_555
H3 C3 1_555 1_555
C4 C3 1_555 1_555
C5 C4 1_555 1_555
C6 N1 1_555 1_555
C7 C6 1_555 1_555
H4 C7 1_555 1_555
C8 C7 1_555 1_555
C9 C8 1_555 1_555
C10 C9 1_555 1_555
H5 C10 1_555 1_555
C11 C10 1_555 1_555
H6 C11 1_555 1_555
C12 C11 1_555 1_555
H7 C12 1_555 1_555
C13 H8 1_555 1_555
C14 C13 1_555 1_555
H9 C14 1_555 1_555
C15 C14 1_555 1_555
H10 C15 1_555 1_555
C16 C15 1_555 1_555
C17 C16 1_555 1_555
H11 C17 1_555 1_555
C18 C13 1_555 1_555
H12 C18 1_555 1_555
C19 N2 1_555 1_555
C20 N2 1_555 1_555
H13 C20 1_555 1_555
H14 C20 1_555 1_555
C21 N1 1_555 1_555
H15 C21 1_555 1_555
H16 C21 1_555 1_555
C22 C1 1_555 1_555
H17 C22 1_555 1_555
C23 C4 1_555 1_555
H18 C23 1_555 1_555
C24 C12 1_555 1_555
H19 C24 1_555 1_555
C25 C9 1_555 1_555
H20 C25 1_555 1_555
C16 C19 1_555 1_555
C17 C18 1_555 1_555
C20 C21 1_555 1_555
C22 C23 1_555 1_555
C24 C25 1_555 1_555

#END
