
#######################################################################
#
#                 Cambridge Crystallographic Data Centre
#                                CCDC 
#
#######################################################################
#
# If this CIF has been generated from an entry in the Cambridge 
# Structural Database, then it will include bibliographic, chemical, 
# crystal, experimental, refinement or atomic coordinate data resulting 
# from the CCDC's data processing and validation procedures.
#
#######################################################################

data_DABQEF
_chemical_formula_moiety         'C31 H27 N1 O6'
_chemical_name_systematic        
4a-hydroxy-9-(3-nitrophenyl)-3,6-diphenyl-3,4,4a,5,6,7,9,9a-octahydro-1H-xanthene-1,8(2H)-dione
_symmetry_cell_setting           orthorhombic
_symmetry_space_group_name_H-M   'P 21 21 21'
_symmetry_Int_Tables_number      19
_space_group_name_Hall           'P 2ac 2ab'
loop_
_symmetry_equiv_pos_site_id
_symmetry_equiv_pos_as_xyz
1 x,y,z
2 1/2-x,-y,1/2+z
3 -x,1/2+y,1/2-z
4 1/2+x,1/2-y,-z
_cell_length_a                   8.973(4)
_cell_length_b                   13.520(6)
_cell_length_c                   21.251(9)
_cell_angle_alpha                90
_cell_angle_beta                 90
_cell_angle_gamma                90
_cell_volume                     2578.06
_exptl_crystal_colour            colorless
_exptl_crystal_description       block
_cell_formula_units_Z            4
loop_
_atom_site_label
_atom_site_type_symbol
_atom_site_fract_x
_atom_site_fract_y
_atom_site_fract_z
C1 C 0.3896(4) 0.0908(2) -0.07887(14)
C2 C 0.3277(3) 0.09893(19) -0.01590(13)
C3 C 0.1786(3) 0.1037(2) -0.00994(13)
C4 C 0.0696(3) 0.0842(2) -0.06132(15)
H1 H 0.0206 0.1457 -0.0725
H2 H -0.0061 0.0390 -0.0460
C5 C 0.1411(4) 0.0405(3) -0.11952(16)
H3 H 0.1651 -0.0280 -0.1084
C6 C 0.2850(4) 0.0872(3) -0.13382(17)
H4 H 0.2672 0.1541 -0.1484
H5 H 0.3323 0.0511 -0.1678
C7 C 0.0334(4) 0.0332(3) -0.17443(15)
C8 C 0.0491(5) 0.0871(3) -0.22896(16)
H6 H 0.1254 0.1333 -0.2324
C9 C -0.0483(8) 0.0729(4) -0.27876(19)
H7 H -0.0365 0.1097 -0.3154
C10 C -0.1603(7) 0.0061(5) -0.2747(2)
H8 H -0.2248 -0.0033 -0.3084
C11 C -0.1778(6) -0.0470(5) -0.2208(3)
H9 H -0.2546 -0.0929 -0.2176
C12 C -0.0816(5) -0.0329(4) -0.1710(2)
H10 H -0.0952 -0.0692 -0.1342
C13 C 0.4348(3) 0.1112(2) 0.03895(13)
H11 H 0.4897 0.1731 0.0329
C14 C 0.3463(3) 0.1195(2) 0.10028(13)
H12 H 0.3183 0.0525 0.1133
C15 C 0.4323(4) 0.1669(2) 0.15441(14)
C16 C 0.3445(4) 0.1767(3) 0.21452(15)
H13 H 0.4040 0.2117 0.2455
H14 H 0.3230 0.1114 0.2310
C17 C 0.1982(4) 0.2325(2) 0.20407(14)
H15 H 0.2239 0.2996 0.1905
C18 C 0.1095(4) 0.1841(2) 0.15049(13)
H16 H 0.0795 0.1180 0.1629
H17 H 0.0202 0.2223 0.1422
C19 C 0.2036(3) 0.1785(2) 0.09110(13)
C20 C 0.1030(4) 0.2418(3) 0.26275(14)
C21 C 0.0884(7) 0.1681(4) 0.3066(2)
H18 H 0.1430 0.1101 0.3018
C22 C -0.0045(7) 0.1777(5) 0.3573(2)
H19 H -0.0120 0.1263 0.3862
C23 C -0.0851(5) 0.2603(6) 0.3660(2)
H20 H -0.1489 0.2661 0.4003
C24 C -0.0718(6) 0.3356(5) 0.3235(2)
H21 H -0.1272 0.3931 0.3289
C25 C 0.0237(5) 0.3272(3) 0.27247(18)
H22 H 0.0341 0.3798 0.2446
C26 C 0.5470(3) 0.0276(2) 0.04296(13)
C27 C 0.6988(3) 0.0467(3) 0.04997(15)
H23 H 0.7324 0.1117 0.0502
C28 C 0.7995(4) -0.0294(3) 0.05661(17)
H24 H 0.9002 -0.0150 0.0617
C29 C 0.7535(4) -0.1262(3) 0.05574(17)
H25 H 0.8214 -0.1777 0.0599
C30 C 0.6046(4) -0.1444(2) 0.04855(14)
C31 C 0.4998(3) -0.0703(2) 0.04240(14)
H26 H 0.3993 -0.0856 0.0379
N1 N 0.5518(4) -0.2479(2) 0.04813(15)
O1 O 0.5249(2) 0.09640(17) -0.08882(11)
O2 O 0.5583(3) 0.19545(18) 0.14823(11)
O3 O 0.1096(2) 0.12872(16) 0.04468(9)
O4 O 0.2463(2) 0.27061(15) 0.06846(10)
H27 H 0.1792 0.3106 0.0746
O5 O 0.6420(4) -0.3133(2) 0.03810(18)
O6 O 0.4215(4) -0.2637(2) 0.0582(2)
loop_
_geom_bond_atom_site_label_1
_geom_bond_atom_site_label_2
_geom_bond_site_symmetry_1
_geom_bond_site_symmetry_2
C1 C2 1_555 1_555
C2 C3 1_555 1_555
C3 C4 1_555 1_555
C4 H1 1_555 1_555
H2 C4 1_555 1_555
C5 C4 1_555 1_555
H3 C5 1_555 1_555
C6 C1 1_555 1_555
H4 C6 1_555 1_555
H5 C6 1_555 1_555
C7 C5 1_555 1_555
C8 C7 1_555 1_555
H6 C8 1_555 1_555
C9 C8 1_555 1_555
H7 C9 1_555 1_555
C10 C9 1_555 1_555
H8 C10 1_555 1_555
C11 C10 1_555 1_555
H9 C11 1_555 1_555
C12 C7 1_555 1_555
H10 C12 1_555 1_555
C13 C2 1_555 1_555
H11 C13 1_555 1_555
C14 C13 1_555 1_555
H12 C14 1_555 1_555
C15 C14 1_555 1_555
C16 C15 1_555 1_555
H13 C16 1_555 1_555
H14 C16 1_555 1_555
C17 C16 1_555 1_555
H15 C17 1_555 1_555
C18 C17 1_555 1_555
H16 C18 1_555 1_555
H17 C18 1_555 1_555
C19 C14 1_555 1_555
C20 C17 1_555 1_555
C21 C20 1_555 1_555
H18 C21 1_555 1_555
C22 C21 1_555 1_555
H19 C22 1_555 1_555
C23 C22 1_555 1_555
H20 C23 1_555 1_555
C24 C23 1_555 1_555
H21 C24 1_555 1_555
C25 C20 1_555 1_555
H22 C25 1_555 1_555
C26 C13 1_555 1_555
C27 C26 1_555 1_555
H23 C27 1_555 1_555
C28 C27 1_555 1_555
H24 C28 1_555 1_555
C29 C28 1_555 1_555
H25 C29 1_555 1_555
C30 C29 1_555 1_555
C31 C26 1_555 1_555
H26 C31 1_555 1_555
N1 C30 1_555 1_555
O1 C1 1_555 1_555
O2 C15 1_555 1_555
O3 C3 1_555 1_555
O4 C19 1_555 1_555
H27 O4 1_555 1_555
O5 N1 1_555 1_555
O6 N1 1_555 1_555
C5 C6 1_555 1_555
C11 C12 1_555 1_555
C18 C19 1_555 1_555
C19 O3 1_555 1_555
C24 C25 1_555 1_555
C30 C31 1_555 1_555

#END
