
#######################################################################
#
#                 Cambridge Crystallographic Data Centre
#                                CCDC 
#
#######################################################################
#
# If this CIF has been generated from an entry in the Cambridge 
# Structural Database, then it will include bibliographic, chemical, 
# crystal, experimental, refinement or atomic coordinate data resulting 
# from the CCDC's data processing and validation procedures.
#
#######################################################################

data_DABQUV
_chemical_formula_moiety         'C28 H34 N4 S1'
_chemical_name_systematic        
4,4'-((2-(butylsulfanyl)pyrimidine-4,6-diyl)diethene-2,1-diyl)bis(N,N-dimethylaniline)
_symmetry_cell_setting           monoclinic
_symmetry_space_group_name_H-M   'P 21/c'
_symmetry_Int_Tables_number      14
_space_group_name_Hall           '-P 2ybc'
loop_
_symmetry_equiv_pos_site_id
_symmetry_equiv_pos_as_xyz
1 x,y,z
2 -x,1/2+y,1/2-z
3 -x,-y,-z
4 x,1/2-y,1/2+z
_cell_length_a                   7.4425(15)
_cell_length_b                   12.583(3)
_cell_length_c                   27.448(6)
_cell_angle_alpha                90
_cell_angle_beta                 99.31(3)
_cell_angle_gamma                90
_cell_volume                     2536.62
_exptl_crystal_colour            colorless
_exptl_crystal_description       Prism
_cell_formula_units_Z            4
loop_
_atom_site_label
_atom_site_type_symbol
_atom_site_fract_x
_atom_site_fract_y
_atom_site_fract_z
S1 S 0.26097(5) 1.10814(3) 0.80444(2)
N1 N 0.24791(15) 0.95402(9) 0.73631(4)
N2 N 0.35953(16) 0.91412(9) 0.82151(4)
N3 N 0.12735(17) 0.58633(10) 0.45410(4)
N4 N 0.75955(18) 0.54619(10) 1.07267(5)
C1 C 0.34216(19) 0.77758(11) 0.76064(5)
H1 H 0.3574 0.7068 0.7525
C2 C 0.15843(18) 0.62194(11) 0.50181(5)
C3 C 0.23233(18) 0.69834(11) 0.60088(5)
C4 C 0.08957(19) 0.72030(11) 0.51535(5)
H2 H 0.0180 0.7611 0.4915
C5 C 0.12613(18) 0.75688(11) 0.56307(5)
H3 H 0.0793 0.8223 0.5706
C6 C 0.26230(19) 0.56204(11) 0.53969(5)
H4 H 0.3075 0.4960 0.5324
C7 C 0.23083(18) 0.82523(11) 0.67185(5)
H5 H 0.1684 0.8759 0.6509
C8 C 0.29778(19) 0.59998(11) 0.58746(5)
H6 H 0.3676 0.5588 0.6116
C9 C 0.56244(18) 0.75441(11) 0.98657(5)
H7 H 0.5156 0.8226 0.9881
C10 C 0.27343(18) 0.73315(11) 0.65182(5)
H8 H 0.3383 0.6850 0.6736
C11 C 0.69693(19) 0.59909(11) 1.02945(5)
C12 C 0.27576(18) 0.85130(11) 0.72417(5)
C13 C 0.70746(19) 0.55396(11) 0.98288(5)
H9 H 0.7569 0.4864 0.9812
C14 C 0.64582(19) 0.60825(11) 0.93992(5)
H10 H 0.6542 0.5763 0.9098
C15 C 0.29105(18) 0.97763(11) 0.78419(5)
C16 C 0.46067(18) 0.73921(11) 0.84922(5)
H11 H 0.4841 0.6691 0.8416
C17 C 0.62066(19) 0.70111(11) 1.03003(5)
H12 H 0.6094 0.7328 1.0600
C18 C 0.38519(18) 0.81161(11) 0.80933(5)
C19 C 0.49716(18) 0.77085(11) 0.89650(5)
H13 H 0.4716 0.8418 0.9021
C20 C 0.20267(19) 1.29855(11) 0.76013(5)
H14 H 0.3254 1.3142 0.7764
H15 H 0.1200 1.3153 0.7830
C21 C 0.2041(2) 0.48648(12) 0.44047(6)
H16 H 0.3341 0.4882 0.4498
H17 H 0.1737 0.4764 0.4054
H18 H 0.1553 0.4290 0.4572
C22 C 0.1885(2) 1.18094(11) 0.74790(5)
H19 H 0.2656 1.1635 0.7237
H20 H 0.0639 1.1626 0.7343
C23 C 0.0143(2) 0.64497(13) 0.41538(6)
H21 H -0.0994 0.6621 0.4257
H22 H -0.0079 0.6024 0.3860
H23 H 0.0754 0.7093 0.4087
C24 C 0.1577(2) 1.36854(12) 0.71461(6)
H24 H 0.2276 1.3449 0.6897
H25 H 0.0296 1.3610 0.7011
C25 C 0.57083(18) 0.71020(11) 0.94023(5)
C26 C 0.7276(3) 0.58937(14) 1.11936(6)
H26 H 0.7862 0.6573 1.1247
H27 H 0.7764 0.5419 1.1456
H28 H 0.5991 0.5976 1.1188
C27 C 0.1994(2) 1.48477(13) 0.72632(7)
H29 H 0.1323 1.5080 0.7514
H30 H 0.1648 1.5266 0.6971
H31 H 0.3274 1.4931 0.7378
C28 C 0.8384(2) 0.44130(12) 1.07180(6)
H32 H 0.7500 0.3935 1.0544
H33 H 0.8745 0.4165 1.1050
H34 H 0.9429 0.4443 1.0554
loop_
_geom_bond_atom_site_label_1
_geom_bond_atom_site_label_2
_geom_bond_site_symmetry_1
_geom_bond_site_symmetry_2
S1 C15 1_555 1_555
N1 C12 1_555 1_555
N2 C15 1_555 1_555
N3 C2 1_555 1_555
N4 C11 1_555 1_555
C1 H1 1_555 1_555
C2 C4 1_555 1_555
C3 C5 1_555 1_555
C4 H2 1_555 1_555
C5 C4 1_555 1_555
H3 C5 1_555 1_555
C6 C2 1_555 1_555
H4 C6 1_555 1_555
C7 H5 1_555 1_555
C8 C3 1_555 1_555
H6 C8 1_555 1_555
C9 H7 1_555 1_555
C10 C3 1_555 1_555
H8 C10 1_555 1_555
C11 C13 1_555 1_555
C12 C1 1_555 1_555
C13 H9 1_555 1_555
C14 C13 1_555 1_555
H10 C14 1_555 1_555
C15 N1 1_555 1_555
C16 H11 1_555 1_555
C17 C9 1_555 1_555
H12 C17 1_555 1_555
C18 N2 1_555 1_555
C19 C16 1_555 1_555
H13 C19 1_555 1_555
C20 H14 1_555 1_555
H15 C20 1_555 1_555
C21 N3 1_555 1_555
H16 C21 1_555 1_555
H17 C21 1_555 1_555
H18 C21 1_555 1_555
C22 S1 1_555 1_555
H19 C22 1_555 1_555
H20 C22 1_555 1_555
C23 N3 1_555 1_555
H21 C23 1_555 1_555
H22 C23 1_555 1_555
H23 C23 1_555 1_555
C24 C20 1_555 1_555
H24 C24 1_555 1_555
H25 C24 1_555 1_555
C25 C9 1_555 1_555
C26 N4 1_555 1_555
H26 C26 1_555 1_555
H27 C26 1_555 1_555
H28 C26 1_555 1_555
C27 C24 1_555 1_555
H29 C27 1_555 1_555
H30 C27 1_555 1_555
H31 C27 1_555 1_555
C28 N4 1_555 1_555
H32 C28 1_555 1_555
H33 C28 1_555 1_555
H34 C28 1_555 1_555
C1 C18 1_555 1_555
C6 C8 1_555 1_555
C7 C10 1_555 1_555
C7 C12 1_555 1_555
C11 C17 1_555 1_555
C14 C25 1_555 1_555
C16 C18 1_555 1_555
C19 C25 1_555 1_555
C20 C22 1_555 1_555

#END
