
#######################################################################
#
#                 Cambridge Crystallographic Data Centre
#                                CCDC 
#
#######################################################################
#
# If this CIF has been generated from an entry in the Cambridge 
# Structural Database, then it will include bibliographic, chemical, 
# crystal, experimental, refinement or atomic coordinate data resulting 
# from the CCDC's data processing and validation procedures.
#
#######################################################################

data_DABSOR
_chemical_name_common            
1,2,3,4-di-O-methylene-alpha-D-galactopyranose
_chemical_formula_moiety         'C8 H12 O6'
_chemical_name_systematic        
tetrahydro-3aH-bis[1,3]dioxolo[4,5-b:4',5'-d]pyran-5-ylmethanol
_symmetry_cell_setting           orthorhombic
_symmetry_space_group_name_H-M   'P 21 21 21'
_symmetry_Int_Tables_number      19
_space_group_name_Hall           'P 2ac 2ab'
loop_
_symmetry_equiv_pos_site_id
_symmetry_equiv_pos_as_xyz
1 x,y,z
2 1/2-x,-y,1/2+z
3 1/2+x,1/2-y,-z
4 -x,1/2+y,1/2-z
_cell_length_a                   6.4876(6)
_cell_length_b                   6.6364(5)
_cell_length_c                   20.1224(16)
_cell_angle_alpha                90
_cell_angle_beta                 90
_cell_angle_gamma                90
_cell_volume                     866.356
_exptl_crystal_colour            colorless
_exptl_crystal_description       plate
_cell_formula_units_Z            4
loop_
_atom_site_label
_atom_site_type_symbol
_atom_site_fract_x
_atom_site_fract_y
_atom_site_fract_z
O1 O 0.34564(16) 0.56520(14) 0.10994(5)
C1 C 0.2020(2) 0.4035(2) 0.11836(7)
H1 H 0.2178 0.3452 0.1639
O2 O 0.44408(19) 0.15283(16) 0.08328(5)
H2 H 0.479(4) 0.093(4) 0.0465(13)
C2 C -0.0156(2) 0.4835(2) 0.11004(6)
H3 H -0.1186 0.3778 0.1224
O3 O 0.12624(15) 0.64670(16) 0.25197(5)
C3 C -0.0551(2) 0.6797(2) 0.15012(6)
H4 H -0.1768 0.6608 0.1800
O4 O 0.45725(16) 0.63594(16) 0.21656(5)
C4 C 0.1274(2) 0.7537(2) 0.19020(6)
H5 H 0.1135 0.9015 0.1987
O5 O -0.04486(17) 0.54598(15) 0.04200(5)
C5 C 0.3420(2) 0.70826(19) 0.16104(7)
H6 H 0.4051 0.8365 0.1447
O6 O -0.10172(18) 0.82816(16) 0.10055(5)
C6 C 0.3323(2) 0.6556(2) 0.27434(7)
H7 H 0.3608 0.5448 0.3060
H8 H 0.3596 0.7857 0.2968
C7 C -0.1757(2) 0.7162(2) 0.04575(7)
H9 H -0.1678 0.7967 0.0044
H10 H -0.3206 0.6746 0.0530
C8 C 0.2518(3) 0.2439(2) 0.06717(7)
H11 H 0.1419 0.1405 0.0666
H12 H 0.2594 0.3057 0.0225
loop_
_geom_bond_atom_site_label_1
_geom_bond_atom_site_label_2
_geom_bond_site_symmetry_1
_geom_bond_site_symmetry_2
O1 C1 1_555 1_555
C1 H1 1_555 1_555
O2 H2 1_555 1_555
C2 C1 1_555 1_555
H3 C2 1_555 1_555
O3 C4 1_555 1_555
C3 C2 1_555 1_555
H4 C3 1_555 1_555
O4 C5 1_555 1_555
C4 C3 1_555 1_555
H5 C4 1_555 1_555
O5 C2 1_555 1_555
C5 O1 1_555 1_555
H6 C5 1_555 1_555
O6 C3 1_555 1_555
C6 O3 1_555 1_555
H7 C6 1_555 1_555
H8 C6 1_555 1_555
C7 O5 1_555 1_555
H9 C7 1_555 1_555
H10 C7 1_555 1_555
C8 C1 1_555 1_555
H11 C8 1_555 1_555
H12 C8 1_555 1_555
O2 C8 1_555 1_555
O4 C6 1_555 1_555
C4 C5 1_555 1_555
O6 C7 1_555 1_555

#END
