
#######################################################################
#
#                 Cambridge Crystallographic Data Centre
#                                CCDC 
#
#######################################################################
#
# If this CIF has been generated from an entry in the Cambridge 
# Structural Database, then it will include bibliographic, chemical, 
# crystal, experimental, refinement or atomic coordinate data resulting 
# from the CCDC's data processing and validation procedures.
#
#######################################################################

data_DABYEK
_chemical_formula_moiety         'C14 H16 O3'
_chemical_name_systematic        
4,7,12-Trimethyl-3,11-dioxatetracyclo(6.2.1.1^1,4^.1^7,12^)trideca-5,9-dien-13-one
_symmetry_cell_setting           triclinic
_symmetry_space_group_name_H-M   'P -1'
_symmetry_Int_Tables_number      2
_space_group_name_Hall           '-P 1'
loop_
_symmetry_equiv_pos_site_id
_symmetry_equiv_pos_as_xyz
1 x,y,z
2 -x,-y,-z
_cell_length_a                   6.920(1)
_cell_length_b                   8.780(1)
_cell_length_c                   10.278(2)
_cell_angle_alpha                97.69(1)
_cell_angle_beta                 90.34(1)
_cell_angle_gamma                111.45(1)
_cell_volume                     574.967
_chemical_melting_point          129-130deg.C
_cell_formula_units_Z            2
loop_
_atom_site_label
_atom_site_type_symbol
_atom_site_fract_x
_atom_site_fract_y
_atom_site_fract_z
O1 O 0.1809(2) 0.2929(1) 0.5447(1)
O2 O 0.2796(2) 0.0479(1) 0.9030(1)
O3 O 0.5237(1) 0.3731(1) 0.8841(1)
C1 C 0.2486(2) 0.3047(2) 0.6562(1)
C2 C 0.2992(2) 0.4567(2) 0.7569(1)
C3 C 0.1563(2) 0.3953(2) 0.8657(1)
C4 C 0.1016(2) 0.2448(2) 0.8964(1)
C5 C 0.1528(2) 0.1055(2) 0.8210(1)
C6 C 0.2911(2) 0.1662(2) 0.7081(1)
C7 C 0.5105(2) 0.2380(2) 0.7858(1)
C8 C 0.6720(2) 0.3250(2) 0.6940(1)
C9 C 0.6725(2) 0.4761(2) 0.7027(2)
C10 C 0.5310(2) 0.4994(2) 0.8095(1)
C11 C 0.4920(2) 0.0995(2) 0.8631(2)
C12 C 0.2819(3) 0.0306(2) 0.5962(2)
C13 C 0.2766(3) 0.6022(2) 0.7028(2)
C14 C -0.0491(2) -0.0422(2) 0.7802(2)
H1 H 0.113(2) 0.475(2) 0.912(1)
H2 H 0.014(2) 0.213(2) 0.969(1)
H3 H 0.737(2) 0.267(2) 0.632(1)
H4 H 0.737(2) 0.558(2) 0.647(1)
H5 H 0.583(2) 0.610(2) 0.870(1)
H6 H 0.589(2) 0.142(2) 0.948(1)
H7 H 0.518(2) 0.003(2) 0.806(1)
H8 H 0.315(2) -0.061(2) 0.628(1)
H9 H 0.384(2) 0.076(2) 0.531(1)
H10 H 0.141(2) -0.019(2) 0.547(1)
H11 H 0.294(2) 0.692(2) 0.770(1)
H12 H 0.136(3) 0.576(2) 0.662(2)
H13 H 0.381(2) 0.642(2) 0.635(2)
H14 H -0.132(2) -0.013(2) 0.712(1)
H15 H -0.130(2) -0.070(2) 0.857(1)
H16 H -0.019(2) -0.142(2) 0.737(1)
loop_
_geom_bond_atom_site_label_1
_geom_bond_atom_site_label_2
_geom_bond_site_symmetry_1
_geom_bond_site_symmetry_2
O1 C1 1_555 1_555
O2 C5 1_555 1_555
O3 C7 1_555 1_555
C1 C2 1_555 1_555
C2 C3 1_555 1_555
C3 C4 1_555 1_555
C4 C5 1_555 1_555
C5 C6 1_555 1_555
C6 C1 1_555 1_555
C7 C6 1_555 1_555
C8 C7 1_555 1_555
C9 C8 1_555 1_555
C10 O3 1_555 1_555
C11 O2 1_555 1_555
C12 C6 1_555 1_555
C13 C2 1_555 1_555
C14 C5 1_555 1_555
H1 C3 1_555 1_555
H2 C4 1_555 1_555
H3 C8 1_555 1_555
H4 C9 1_555 1_555
H5 C10 1_555 1_555
H6 C11 1_555 1_555
H7 C11 1_555 1_555
H8 C12 1_555 1_555
H9 C12 1_555 1_555
H10 C12 1_555 1_555
H11 C13 1_555 1_555
H12 C13 1_555 1_555
H13 C13 1_555 1_555
H14 C14 1_555 1_555
H15 C14 1_555 1_555
H16 C14 1_555 1_555
C2 C10 1_555 1_555
C7 C11 1_555 1_555
C9 C10 1_555 1_555

#END
