
#######################################################################
#
#                 Cambridge Crystallographic Data Centre
#                                CCDC 
#
#######################################################################
#
# If this CIF has been generated from an entry in the Cambridge 
# Structural Database, then it will include bibliographic, chemical, 
# crystal, experimental, refinement or atomic coordinate data resulting 
# from the CCDC's data processing and validation procedures.
#
#######################################################################

data_DACBOZ
_chemical_formula_moiety         '4(C1 H6 N3 1+),C24 H24 O9 P1 S3 3-,Cl1 1-'
_chemical_name_systematic        
"Tetraguanidinium 3,3',3''-phosphinetriyltris(4,6-dimethylbenzenesulfonate) chloride"
_symmetry_cell_setting           trigonal
_symmetry_space_group_name_H-M   'P 3 1 c'
_symmetry_Int_Tables_number      159
_space_group_name_Hall           "P 3 -2'c"
loop_
_symmetry_equiv_pos_site_id
_symmetry_equiv_pos_as_xyz
1 x,y,z
2 -y,x-y,z
3 -x+y,-x,z
4 y,x,1/2+z
5 -x,-x+y,1/2+z
6 x-y,-y,1/2+z
_cell_length_a                   13.580(2)
_cell_length_b                   13.580(2)
_cell_length_c                   25.541(3)
_cell_angle_alpha                90
_cell_angle_beta                 90
_cell_angle_gamma                120
_cell_volume                     4079.13
_exptl_crystal_colour            colorless
_exptl_crystal_description       block
_cell_formula_units_Z            4
loop_
_atom_site_label
_atom_site_type_symbol
_atom_site_fract_x
_atom_site_fract_y
_atom_site_fract_z
C9 C 0.3501(12) 0.4646(13) 0.7112(6)
N1 N 0.3718(8) 0.4400(8) 0.6643(5)
H17 H 0.441 0.4668 0.6542
H18 H 0.3167 0.3972 0.6437
N2 N 0.4363(11) 0.5318(11) 0.7435(4)
H19 H 0.5055 0.5586 0.7334
H20 H 0.4222 0.5478 0.7742
N3 N 0.2434(11) 0.4261(11) 0.7291(5)
H21 H 0.1861 0.3836 0.7096
H22 H 0.2329 0.4441 0.7601
C10 C 0.9229(10) 0.0640(10) 0.7843(4)
C11 C 0.8189(11) 0.0390(10) 0.8078(5)
C12 C 0.7612(10) 0.0853(11) 0.7874(6)
H9 H 0.6934 0.0693 0.8035
C13 C 0.7944(11) 0.1543(11) 0.7447(6)
C14 C 0.9004(9) 0.1835(9) 0.7190(5)
C15 C 0.9598(10) 0.1334(11) 0.7400(5)
H10 H 1.0266 0.1468 0.7237
C16 C 0.7686(11) -0.0421(11) 0.8531(5)
H11 H 0.7524 -0.1165 0.8424
H12 H 0.6996 -0.0452 0.8642
H13 H 0.8218 -0.0164 0.8816
C17 C 0.7291(11) 0.2098(11) 0.7233(6)
H14 H 0.768 0.2888 0.7326
H15 H 0.6539 0.1729 0.7378
H16 H 0.7245 0.2026 0.6858
O4 O 1.0661(9) 0.2876(8) 0.6560(4)
O5 O 0.8789(9) 0.2116(8) 0.6214(4)
O6 O 0.9613(8) 0.3783(7) 0.6769(4)
P2 P 1.0000 0.0000 0.8159(2)
S2 S 0.9569(4) 0.2728(3) 0.66510(15)
C10B C 1.1411(14) 0.0771(10) 0.7843(4)
C11B C 1.2201(15) 0.1811(11) 0.8078(5)
C12B C 1.3241(15) 0.2388(10) 0.7874(6)
H9B H 1.3759 0.3066 0.8035
C13B C 1.3599(16) 0.2056(11) 0.7447(6)
C14B C 1.2831(13) 0.0996(9) 0.7190(5)
C15B C 1.1736(15) 0.0402(10) 0.7400(5)
H10B H 1.1202 -0.0266 0.7237
S2B S 1.3159(5) 0.0431(4) 0.66510(15)
O4B O 1.2215(12) -0.0661(9) 0.6560(4)
O5B O 1.3327(12) 0.1211(9) 0.6214(4)
O6B O 1.4170(11) 0.0387(8) 0.6769(4)
C17B C 1.4807(16) 0.2709(11) 0.7233(6)
H14B H 1.5208 0.232 0.7326
H15B H 1.5190 0.3461 0.7378
H16B H 1.4781 0.2755 0.6858
C16B C 1.1893(16) 0.2314(11) 0.8531(5)
H11B H 1.1311 0.2476 0.8424
H12B H 1.2552 0.3004 0.8642
H13B H 1.1618 0.1782 0.8816
C10A C 0.9360(10) -0.1411(14) 0.7843(4)
C11A C 0.9610(10) -0.2201(15) 0.8078(5)
C12A C 0.9147(11) -0.3241(15) 0.7874(6)
H9A H 0.9307 -0.3759 0.8035
C13A C 0.8457(11) -0.3599(16) 0.7447(6)
C14A C 0.8165(9) -0.2831(13) 0.7190(5)
C15A C 0.8666(11) -0.1736(15) 0.7400(5)
H10A H 0.8532 -0.1202 0.7237
S2A S 0.7272(3) -0.3159(5) 0.66510(15)
O4A O 0.7124(8) -0.2215(12) 0.6560(4)
O5A O 0.7884(8) -0.3327(12) 0.6214(4)
O6A O 0.6217(7) -0.4170(11) 0.6769(4)
C17A C 0.7902(11) -0.4807(16) 0.7233(6)
H14A H 0.7112 -0.5208 0.7326
H15A H 0.8271 -0.5190 0.7378
H16A H 0.7974 -0.4781 0.6858
C16A C 1.0421(11) -0.1893(16) 0.8531(5)
H11A H 1.1165 -0.1311 0.8424
H12A H 1.0452 -0.2552 0.8642
H13A H 1.0164 -0.1618 0.8816
C18 C 0.6667 0.3333 0.0752(13)
N4 N 0.7579(9) 0.3304(8) 0.0800(4)
H23 H 0.7553 0.267 0.0864
H24 H 0.8225 0.3918 0.0768
N4A N 0.6696(8) 0.4275(12) 0.0800(4)
H23A H 0.733 0.4883 0.0864
H24A H 0.6082 0.4307 0.0768
N4B N 0.5725(12) 0.2421(9) 0.0800(4)
H23B H 0.5117 0.2447 0.0864
H24B H 0.5693 0.1775 0.0768
C19 C 0.840(3) 0.319(2) 0.4749(9)
N5 N 0.7785(17) 0.2265(13) 0.4433(7)
H25 H 0.7673 0.1607 0.4524
H26 H 0.751 0.2343 0.4143
N6 N 0.8947(11) 0.3373(11) 0.5221(5)
H27 H 0.8942 0.2818 0.5385
H28 H 0.9295 0.4046 0.5353
N7 N 0.846(3) 0.401(3) 0.4416(11)
H29 H 0.8143 0.3826 0.4112
H30 H 0.8812 0.4715 0.4511
C20 C 0.0000 0.0000 0.1085(7)
N8 N -0.0981(8) -0.0001(9) 0.1092(4)
H31 H -0.0982 0.0631 0.1101
H32 H -0.1614 -0.0635 0.1088
N8A N 0.0001(9) -0.0980(12) 0.1092(4)
H31A H -0.0631 -0.1613 0.1101
H32A H 0.0635 -0.0979 0.1088
N8B N 0.0980(12) 0.0981(8) 0.1092(4)
H31B H 0.1613 0.0982 0.1101
H32B H 0.0979 0.1614 0.1088
C21 C 0.3333 0.6667 0.0892(19)
N9 N 0.2218(14) 0.6529(17) 0.0862(8)
H33 H 0.2138 0.7114 0.0826
H34 H 0.1629 0.5861 0.088
N9A N 0.3471(17) 0.5689(22) 0.0862(8)
H33A H 0.2886 0.5024 0.0826
H34A H 0.4139 0.5768 0.088
N9B N 0.4311(22) 0.7782(14) 0.0862(8)
H33B H 0.4976 0.7862 0.0826
H34B H 0.4232 0.8371 0.088
Cl1 Cl 0.2443(9) 0.5309(8) 0.8333(3)
C1 C 0.7426(8) 0.2719(8) 0.9061(4)
C2 C 0.8527(9) 0.3009(9) 0.8883(5)
C3 C 0.9097(9) 0.2519(10) 0.9145(4)
H1 H 0.9822 0.2707 0.9033
C4 C 0.8616(10) 0.1763(10) 0.9566(5)
C5 C 0.7530(8) 0.1462(8) 0.9731(4)
C6 C 0.6962(8) 0.1944(8) 0.9478(4)
H2 H 0.6234 0.174 0.9592
C7 C 0.9113(10) 0.3869(10) 0.8458(5)
H3 H 0.9674 0.3739 0.8294
H4 H 0.9476 0.4619 0.8606
H5 H 0.8564 0.38 0.8202
C8 C 0.9352(11) 0.1320(11) 0.9814(5)
H6 H 0.8926 0.0505 0.9829
H7 H 0.9566 0.1621 1.0162
H8 H 1.0023 0.1558 0.9607
O1 O 0.6789(9) -0.0553(7) 1.0110(4)
O2 O 0.7586(7) 0.1041(7) 1.0702(3)
O3 O 0.5784(7) 0.0447(7) 1.0337(3)
P1 P 0.6667 0.3333 0.87393(18)
S1 S 0.6887(3) 0.0520(3) 1.02443(13)
C1B C 0.5293(11) 0.2574(8) 0.9061(4)
C2B C 0.4482(13) 0.1473(9) 0.8883(5)
C3B C 0.3422(13) 0.0903(9) 0.9145(4)
H1B H 0.2885 0.0178 0.9033
C4B C 0.3147(14) 0.1384(10) 0.9566(5)
C5B C 0.3932(11) 0.2470(8) 0.9731(4)
C6B C 0.4982(11) 0.3038(8) 0.9478(4)
H2B H 0.5506 0.3766 0.9592
S1B S 0.3633(4) 0.3113(3) 1.02443(13)
O1B O 0.2658(11) 0.3211(9) 1.0110(4)
O2B O 0.3455(10) 0.2414(7) 1.0702(3)
O3B O 0.4663(10) 0.4216(7) 1.0337(3)
C8B C 0.1968(16) 0.0648(11) 0.9814(5)
H6B H 0.1579 0.1074 0.9829
H7B H 0.2055 0.0434 1.0162
H8B H 0.1535 -0.0023 0.9607
C7B C 0.4756(14) 0.0887(10) 0.8458(5)
H3B H 0.4065 0.0326 0.8294
H4B H 0.5143 0.0524 0.8606
H5B H 0.5236 0.1436 0.8202
C1A C 0.7281(8) 0.4707(11) 0.9061(4)
C2A C 0.6991(9) 0.5518(13) 0.8883(5)
C3A C 0.7481(10) 0.6578(13) 0.9145(4)
H1A H 0.7293 0.7115 0.9033
C4A C 0.8237(10) 0.6853(14) 0.9566(5)
C5A C 0.8538(8) 0.6068(11) 0.9731(4)
C6A C 0.8056(8) 0.5018(11) 0.9478(4)
H2A H 0.826 0.4494 0.9592
S1A S 0.9480(3) 0.6367(4) 1.02443(13)
O1A O 1.0553(7) 0.7342(11) 1.0110(4)
O2A O 0.8959(7) 0.6545(10) 1.0702(3)
O3A O 0.9553(7) 0.5337(10) 1.0337(3)
C8A C 0.8680(11) 0.8032(16) 0.9814(5)
H6A H 0.9495 0.8421 0.9829
H7A H 0.8379 0.7945 1.0162
H8A H 0.8442 0.8465 0.9607
C7A C 0.6131(10) 0.5244(14) 0.8458(5)
H3A H 0.6261 0.5935 0.8294
H4A H 0.5381 0.4857 0.8606
H5A H 0.62 0.4764 0.8202
loop_
_geom_bond_atom_site_label_1
_geom_bond_atom_site_label_2
_geom_bond_site_symmetry_1
_geom_bond_site_symmetry_2
C1 C2 1_555 1_555
C2 C3 1_555 1_555
C3 H1 1_555 1_555
C4 C3 1_555 1_555
C5 C4 1_555 1_555
C6 C1 1_555 1_555
H2 C6 1_555 1_555
C7 C2 1_555 1_555
H3 C7 1_555 1_555
H4 C7 1_555 1_555
H5 C7 1_555 1_555
C8 C4 1_555 1_555
H6 C8 1_555 1_555
H7 C8 1_555 1_555
H8 C8 1_555 1_555
C9 N1 1_555 1_555
C10 C11 1_555 1_555
C11 C12 1_555 1_555
C12 H9 1_555 1_555
C13 C12 1_555 1_555
C14 C13 1_555 1_555
C15 C10 1_555 1_555
H10 C15 1_555 1_555
C16 C11 1_555 1_555
H11 C16 1_555 1_555
H12 C16 1_555 1_555
H13 C16 1_555 1_555
C17 C13 1_555 1_555
H14 C17 1_555 1_555
H15 C17 1_555 1_555
H16 C17 1_555 1_555
C18 N4 1_555 1_555
C19 N5 1_555 1_555
C20 N8 1_555 1_555
C21 N9 1_555 1_555
N1 H17 1_555 1_555
H18 N1 1_555 1_555
N2 C9 1_555 1_555
H19 N2 1_555 1_555
H20 N2 1_555 1_555
N3 C9 1_555 1_555
H21 N3 1_555 1_555
H22 N3 1_555 1_555
N4 H23 1_555 1_555
H24 N4 1_555 1_555
N5 H25 1_555 1_555
H26 N5 1_555 1_555
N6 C19 1_555 1_555
H27 N6 1_555 1_555
H28 N6 1_555 1_555
N7 C19 1_555 1_555
H29 N7 1_555 1_555
H30 N7 1_555 1_555
N8 H31 1_555 1_555
H32 N8 1_555 1_555
N9 H33 1_555 1_555
H34 N9 1_555 1_555
O1 S1 1_555 1_555
O2 S1 1_555 1_555
O3 S1 1_555 1_555
O4 S2 1_555 1_555
O5 S2 1_555 1_555
O6 S2 1_555 1_555
P1 C1 1_555 1_555
P2 C10 1_555 1_555
S1 C5 1_555 1_555
S2 C14 1_555 1_555
C1B P1 1_555 1_555
C2B C1B 1_555 1_555
C3B C2B 1_555 1_555
H1B C3B 1_555 1_555
C4B C3B 1_555 1_555
C5B C4B 1_555 1_555
C6B C1B 1_555 1_555
H2B C6B 1_555 1_555
S1B C5B 1_555 1_555
O1B S1B 1_555 1_555
O2B S1B 1_555 1_555
O3B S1B 1_555 1_555
C8B C4B 1_555 1_555
H6B C8B 1_555 1_555
H7B C8B 1_555 1_555
H8B C8B 1_555 1_555
C7B C2B 1_555 1_555
H3B C7B 1_555 1_555
H4B C7B 1_555 1_555
H5B C7B 1_555 1_555
C1A P1 1_555 1_555
C2A C1A 1_555 1_555
C3A C2A 1_555 1_555
H1A C3A 1_555 1_555
C4A C3A 1_555 1_555
C5A C4A 1_555 1_555
C6A C1A 1_555 1_555
H2A C6A 1_555 1_555
S1A C5A 1_555 1_555
O1A S1A 1_555 1_555
O2A S1A 1_555 1_555
O3A S1A 1_555 1_555
C8A C4A 1_555 1_555
H6A C8A 1_555 1_555
H7A C8A 1_555 1_555
H8A C8A 1_555 1_555
C7A C2A 1_555 1_555
H3A C7A 1_555 1_555
H4A C7A 1_555 1_555
H5A C7A 1_555 1_555
C10B P2 1_555 1_555
C11B C10B 1_555 1_555
C12B C11B 1_555 1_555
H9B C12B 1_555 1_555
C13B C12B 1_555 1_555
C14B C13B 1_555 1_555
C15B C10B 1_555 1_555
H10B C15B 1_555 1_555
S2B C14B 1_555 1_555
O4B S2B 1_555 1_555
O5B S2B 1_555 1_555
O6B S2B 1_555 1_555
C17B C13B 1_555 1_555
H14B C17B 1_555 1_555
H15B C17B 1_555 1_555
H16B C17B 1_555 1_555
C16B C11B 1_555 1_555
H11B C16B 1_555 1_555
H12B C16B 1_555 1_555
H13B C16B 1_555 1_555
C10A P2 1_555 1_555
C11A C10A 1_555 1_555
C12A C11A 1_555 1_555
H9A C12A 1_555 1_555
C13A C12A 1_555 1_555
C14A C13A 1_555 1_555
C15A C10A 1_555 1_555
H10A C15A 1_555 1_555
S2A C14A 1_555 1_555
O4A S2A 1_555 1_555
O5A S2A 1_555 1_555
O6A S2A 1_555 1_555
C17A C13A 1_555 1_555
H14A C17A 1_555 1_555
H15A C17A 1_555 1_555
H16A C17A 1_555 1_555
C16A C11A 1_555 1_555
H11A C16A 1_555 1_555
H12A C16A 1_555 1_555
H13A C16A 1_555 1_555
N4A C18 1_555 1_555
H23A N4A 1_555 1_555
H24A N4A 1_555 1_555
N4B C18 1_555 1_555
H23B N4B 1_555 1_555
H24B N4B 1_555 1_555
N8A C20 1_555 1_555
H31A N8A 1_555 1_555
H32A N8A 1_555 1_555
N8B C20 1_555 1_555
H31B N8B 1_555 1_555
H32B N8B 1_555 1_555
N9A C21 1_555 1_555
H33A N9A 1_555 1_555
H34A N9A 1_555 1_555
N9B C21 1_555 1_555
H33B N9B 1_555 1_555
H34B N9B 1_555 1_555
C5 C6 1_555 1_555
C14 C15 1_555 1_555
C5B C6B 1_555 1_555
C5A C6A 1_555 1_555
C14B C15B 1_555 1_555
C14A C15A 1_555 1_555

#END
