
#######################################################################
#
#                 Cambridge Crystallographic Data Centre
#                                CCDC 
#
#######################################################################
#
# If this CIF has been generated from an entry in the Cambridge 
# Structural Database, then it will include bibliographic, chemical, 
# crystal, experimental, refinement or atomic coordinate data resulting 
# from the CCDC's data processing and validation procedures.
#
#######################################################################

data_DACDOD
_chemical_formula_moiety         'C30 H32 B2 F4 N4'
_chemical_name_systematic        
2,13-diethyl-5,5,10,10-tetrafluoro-1,3,12,14,16,17-hexamethyl-5,10-dihydro-4,11,5,10-pyrrolo[1',2':3,4][1,3,2]diazaborinino[1,6-a]pyrrolo[1'',2'':3',4'][1,3,2]diazaborinino[1',6':1,5]pyrrolo[3,2-e]indole
_symmetry_cell_setting           monoclinic
_symmetry_space_group_name_H-M   'P 2/c'
_symmetry_Int_Tables_number      13
_space_group_name_Hall           '-P 2yc'
loop_
_symmetry_equiv_pos_site_id
_symmetry_equiv_pos_as_xyz
1 x,y,z
2 -x,y,1/2-z
3 -x,-y,-z
4 x,-y,1/2+z
_cell_length_a                   12.718(2)
_cell_length_b                   8.6639(16)
_cell_length_c                   12.342(2)
_cell_angle_alpha                90
_cell_angle_beta                 101.101(3)
_cell_angle_gamma                90
_cell_volume                     1334.49
_exptl_crystal_colour            green
_exptl_crystal_description       block
_cell_formula_units_Z            2
loop_
_atom_site_label
_atom_site_type_symbol
_atom_site_fract_x
_atom_site_fract_y
_atom_site_fract_z
B1 B 0.1878(5) 0.3295(6) 0.5279(4)
C1 C 0.3052(4) 0.3145(5) 0.7242(3)
C2 C 0.3533(5) 0.1987(6) 0.8010(4)
C3 C 0.3166(4) 0.0593(5) 0.7562(4)
C4 C 0.2502(4) 0.0892(5) 0.6521(4)
C5 C 0.1959(3) -0.0082(5) 0.5734(4)
H1 H 0.1986 -0.1138 0.5873
C6 C 0.1367(3) 0.0444(4) 0.4736(4)
C7 C 0.0799(3) -0.0372(4) 0.3828(3)
C8 C 0.0333(3) 0.0732(4) 0.3046(3)
C9 C 0.0635(3) 0.2204(4) 0.3521(3)
C10 C 0.3198(4) 0.4848(5) 0.7362(3)
H2 H 0.3226 0.5135 0.8119
H3 H 0.2608 0.5364 0.6902
H4 H 0.3855 0.5142 0.7143
C11 C 0.3424(4) -0.0988(5) 0.8039(4)
H5 H 0.4072 -0.1354 0.7836
H6 H 0.2847 -0.1680 0.7756
H7 H 0.3519 -0.0940 0.8829
C12 C 0.0743(3) -0.2099(4) 0.3769(3)
H8 H 0.1119 -0.2459 0.3213
H9 H 0.0008 -0.2418 0.3584
H10 H 0.1068 -0.2527 0.4471
C13 C 0.0317(3) 0.3629(4) 0.3013(3)
H11 H 0.0536 0.4553 0.3370
F1 F 0.2643(2) 0.3955(3) 0.47602(18)
F2 F 0.1204(2) 0.4417(3) 0.5520(2)
N1 N 0.2458(3) 0.2483(4) 0.6356(3)
N2 N 0.1262(3) 0.2019(3) 0.4539(3)
C14 C 0.4512(11) 0.2249(13) 0.9013(9)
H12 H 0.4948 0.1323 0.9134
H13 H 0.4958 0.3089 0.8842
C15 C 0.4090(7) 0.2624(10) 1.0024(8)
H14 H 0.3592 0.3466 0.9872
H15 H 0.4672 0.2912 1.0606
H16 H 0.3732 0.1737 1.0247
B1A B -0.1878(5) 0.3295(6) -0.0279(4)
C1A C -0.3052(4) 0.3145(5) -0.2242(3)
C2A C -0.3533(5) 0.1987(6) -0.3010(4)
C3A C -0.3166(4) 0.0593(5) -0.2562(4)
C4A C -0.2502(4) 0.0892(5) -0.1521(4)
C5A C -0.1959(3) -0.0082(5) -0.0734(4)
H1A H -0.1986 -0.1138 -0.0873
C6A C -0.1367(3) 0.0444(4) 0.0264(4)
C7A C -0.0799(3) -0.0372(4) 0.1172(3)
C8A C -0.0333(3) 0.0732(4) 0.1954(3)
C9A C -0.0635(3) 0.2204(4) 0.1479(3)
C10A C -0.3198(4) 0.4848(5) -0.2362(3)
H2A H -0.3226 0.5135 -0.3119
H3A H -0.2608 0.5364 -0.1902
H4A H -0.3855 0.5142 -0.2143
C11A C -0.3424(4) -0.0988(5) -0.3039(4)
H5A H -0.4072 -0.1354 -0.2836
H6A H -0.2847 -0.1680 -0.2756
H7A H -0.3519 -0.0940 -0.3829
C12A C -0.0743(3) -0.2099(4) 0.1231(3)
H8A H -0.1119 -0.2459 0.1787
H9A H -0.0008 -0.2418 0.1416
H10A H -0.1068 -0.2527 0.0529
C13A C -0.0317(3) 0.3629(4) 0.1987(3)
H11A H -0.0536 0.4553 0.1630
F1A F -0.2643(2) 0.3955(3) 0.02398(18)
F2A F -0.1204(2) 0.4417(3) -0.0520(2)
N1A N -0.2458(3) 0.2483(4) -0.1356(3)
N2A N -0.1262(3) 0.2019(3) 0.0461(3)
C14A C -0.4512(11) 0.2249(13) -0.4013(9)
H12A H -0.4948 0.1323 -0.4134
H13A H -0.4958 0.3089 -0.3842
C15A C -0.4090(7) 0.2624(10) -0.5024(8)
H14A H -0.3592 0.3466 -0.4872
H15A H -0.4672 0.2912 -0.5606
H16A H -0.3732 0.1737 -0.5247
C16? C 0.4908(13) 0.279(2) 0.921(2)
H17? H 0.4900 0.3629 0.8702
H18? H 0.5294 0.1937 0.8990
H19? H 0.5251 0.3124 0.9939
C17? C 0.3783(12) 0.231(2) 0.9234(12)
H20? H 0.3351 0.3137 0.9451
H21? H 0.3742 0.1399 0.9680
loop_
_geom_bond_atom_site_label_1
_geom_bond_atom_site_label_2
_geom_bond_site_symmetry_1
_geom_bond_site_symmetry_2
B1 F1 1_555 1_555
C1 C2 1_555 1_555
C2 C3 1_555 1_555
C3 C4 1_555 1_555
C4 C5 1_555 1_555
C5 H1 1_555 1_555
C6 C5 1_555 1_555
C7 C6 1_555 1_555
C8 C7 1_555 1_555
C9 C8 1_555 1_555
C10 C1 1_555 1_555
H2 C10 1_555 1_555
H3 C10 1_555 1_555
H4 C10 1_555 1_555
C11 C3 1_555 1_555
H5 C11 1_555 1_555
H6 C11 1_555 1_555
H7 C11 1_555 1_555
C12 C7 1_555 1_555
H8 C12 1_555 1_555
H9 C12 1_555 1_555
H10 C12 1_555 1_555
C13 C9 1_555 1_555
H11 C13 1_555 1_555
F2 B1 1_555 1_555
N1 B1 1_555 1_555
N2 B1 1_555 1_555
C14 C2 1_555 1_555
H12 C14 1_555 1_555
H13 C14 1_555 1_555
C15 C14 1_555 1_555
H14 C15 1_555 1_555
H15 C15 1_555 1_555
H16 C15 1_555 1_555
B1A F1A 1_555 1_555
C1A C2A 1_555 1_555
C2A C3A 1_555 1_555
C3A C4A 1_555 1_555
C4A C5A 1_555 1_555
C5A H1A 1_555 1_555
C6A C5A 1_555 1_555
C7A C6A 1_555 1_555
C8A C8 1_555 1_555
C9A C8A 1_555 1_555
C10A C1A 1_555 1_555
H2A C10A 1_555 1_555
H3A C10A 1_555 1_555
H4A C10A 1_555 1_555
C11A C3A 1_555 1_555
H5A C11A 1_555 1_555
H6A C11A 1_555 1_555
H7A C11A 1_555 1_555
C12A C7A 1_555 1_555
H8A C12A 1_555 1_555
H9A C12A 1_555 1_555
H10A C12A 1_555 1_555
C13A C13 1_555 1_555
H11A C13A 1_555 1_555
F2A B1A 1_555 1_555
N1A B1A 1_555 1_555
N2A B1A 1_555 1_555
C14A C2A 1_555 1_555
H12A C14A 1_555 1_555
H13A C14A 1_555 1_555
C15A C14A 1_555 1_555
H14A C15A 1_555 1_555
H15A C15A 1_555 1_555
H16A C15A 1_555 1_555
C1 N1 1_555 1_555
C4 N1 1_555 1_555
C6 N2 1_555 1_555
C9 N2 1_555 1_555
C1A N1A 1_555 1_555
C4A N1A 1_555 1_555
C6A N2A 1_555 1_555
C7A C8A 1_555 1_555
C9A C13A 1_555 1_555
C9A N2A 1_555 1_555

#END
