
#######################################################################
#
#                 Cambridge Crystallographic Data Centre
#                                CCDC 
#
#######################################################################
#
# If this CIF has been generated from an entry in the Cambridge 
# Structural Database, then it will include bibliographic, chemical, 
# crystal, experimental, refinement or atomic coordinate data resulting 
# from the CCDC's data processing and validation procedures.
#
#######################################################################

data_DACGAS
_chemical_formula_moiety         'C33 H35 N3 O9'
_chemical_name_systematic        
"tetraethyl 2,2'-(5-(benzyloxy)-1-(pyrimidin-2-yl)-1H-indole-2,7-diyl)dimalonate"
_symmetry_cell_setting           orthorhombic
_symmetry_space_group_name_H-M   'P 21 21 21'
_symmetry_Int_Tables_number      19
_space_group_name_Hall           'P 2ac 2ab'
loop_
_symmetry_equiv_pos_site_id
_symmetry_equiv_pos_as_xyz
1 x,y,z
2 1/2-x,-y,1/2+z
3 -x,1/2+y,1/2-z
4 1/2+x,1/2-y,-z
_cell_length_a                   9.2781(11)
_cell_length_b                   12.6514(15)
_cell_length_c                   27.166(3)
_cell_angle_alpha                90
_cell_angle_beta                 90
_cell_angle_gamma                90
_cell_volume                     3188.77
_exptl_crystal_colour            colorless
_exptl_crystal_description       block
_cell_formula_units_Z            4
loop_
_atom_site_label
_atom_site_type_symbol
_atom_site_fract_x
_atom_site_fract_y
_atom_site_fract_z
C1 C 0.3361(2) 0.04462(14) 0.14930(6)
C2 C 0.3484(2) -0.02937(15) 0.11210(6)
H1 H 0.4121 -0.0158 0.0864
C3 C 0.2700(2) -0.12333(16) 0.11127(6)
C4 C 0.1709(2) -0.14489(16) 0.14757(7)
H2 H 0.1151 -0.2060 0.1468
C5 C 0.1572(2) -0.07132(15) 0.18583(6)
C6 C 0.24123(19) 0.02063(14) 0.18769(6)
C7 C 0.0607(2) -0.06887(17) 0.22732(7)
H3 H -0.0075 -0.1200 0.2352
C8 C 0.0867(2) 0.02100(16) 0.25288(7)
C9 C 0.4228(2) 0.14564(15) 0.14499(7)
H4 H 0.3819 0.1983 0.1675
C10 C 0.4129(3) 0.18786(19) 0.09279(9)
C11 C 0.2251(11) 0.2496(6) 0.0310(3)
H5 H 0.2781 0.2081 0.0070
H6 H 0.1229 0.2364 0.0264
C12 C 0.2553(17) 0.3593(8) 0.0245(4)
H7 H 0.2111 0.3990 0.0505
H8 H 0.2176 0.3824 -0.0066
H9 H 0.3577 0.3703 0.0251
O1 O 0.5155(10) 0.1925(8) 0.0664(4)
O2 O 0.2695(7) 0.2193(6) 0.0821(2)
C13 C 0.5808(3) 0.12883(16) 0.15830(8)
C14 C 0.8002(4) 0.2182(3) 0.17812(17)
H10 H 0.8278 0.2810 0.1963
H11 H 0.8219 0.1570 0.1983
C15 C 0.8825(5) 0.2126(4) 0.1322(2)
H12 H 0.8559 0.1499 0.1145
H13 H 0.9837 0.2105 0.1396
H14 H 0.8620 0.2736 0.1125
C16 C 0.2801(2) 0.15630(14) 0.25416(6)
C17 C 0.4961(3) 0.21956(19) 0.27701(9)
H15 H 0.5962 0.2168 0.2763
C18 C 0.4315(3) 0.2981(2) 0.30361(9)
H16 H 0.4850 0.3469 0.3215
C19 C 0.2841(3) 0.30104(18) 0.30254(9)
H17 H 0.2369 0.3540 0.3200
C20 C 0.0187(2) 0.05684(17) 0.29980(7)
H18 H -0.0169 0.1292 0.2957
C21 C 0.1256(2) 0.05390(19) 0.34249(7)
C22 C 0.1634(4) 0.1120(3) 0.42502(11)
H19 H 0.1375 0.1730 0.4447
H20 H 0.2637 0.1192 0.4155
C23 C 0.1447(7) 0.0142(5) 0.45462(14)
H21 H 0.0438 -0.0003 0.4585
H22 H 0.1880 0.0237 0.4864
H23 H 0.1901 -0.0439 0.4381
C24 C -0.1074(2) -0.01538(18) 0.31283(8)
C25 C -0.3600(3) -0.0425(2) 0.30549(12)
H24 H -0.4326 -0.0272 0.2808
H25 H -0.3345 -0.1167 0.3030
C26 C -0.4169(4) -0.0195(3) 0.35493(14)
H26 H -0.3485 -0.0420 0.3793
H27 H -0.5061 -0.0566 0.3596
H28 H -0.4332 0.0551 0.3581
C27 C 0.2251(3) -0.28428(18) 0.06798(8)
H29 H 0.1219 -0.2727 0.0662
H30 H 0.2454 -0.3272 0.0967
C28 C 0.2772(3) -0.33865(17) 0.02235(8)
C29 C 0.4160(3) -0.3737(2) 0.01834(10)
H31 H 0.4790 -0.3656 0.0447
C30 C 0.4639(4) -0.4214(3) -0.02471(14)
H32 H 0.5586 -0.4448 -0.0273
C31 C 0.3696(5) -0.4337(3) -0.06356(12)
H33 H 0.4009 -0.4655 -0.0925
C32 C 0.2322(4) -0.4000(3) -0.05971(10)
H34 H 0.1691 -0.4091 -0.0859
C33 C 0.1849(3) -0.3521(2) -0.01718(9)
H35 H 0.0902 -0.3286 -0.0150
N1 N 0.19808(17) 0.07854(12) 0.22970(5)
N2 N 0.42254(19) 0.14699(14) 0.25215(6)
N3 N 0.2051(2) 0.23079(13) 0.27744(6)
O3 O 0.64019(19) 0.04534(13) 0.15972(7)
O4 O 0.6435(2) 0.22138(13) 0.16745(8)
O5 O 0.2386(2) 0.01213(18) 0.34164(6)
O6 O 0.0728(2) 0.10817(17) 0.38091(6)
O7 O -0.0957(2) -0.09649(17) 0.33327(9)
O8 O -0.23079(17) 0.02405(14) 0.29716(7)
O9 O 0.29881(18) -0.18613(12) 0.07124(5)
C34? C 0.2963(17) 0.2887(12) 0.0379(4)
H36? H 0.3775 0.3327 0.0287
H37? H 0.2904 0.2299 0.0150
C35? C 0.1653(18) 0.3490(16) 0.0369(5)
H38? H 0.0859 0.3047 0.0463
H39? H 0.1494 0.3756 0.0042
H40? H 0.1728 0.4072 0.0594
O10? O 0.4879(17) 0.1633(11) 0.0581(6)
O11? O 0.3142(13) 0.2486(8) 0.0901(3)
loop_
_geom_bond_atom_site_label_1
_geom_bond_atom_site_label_2
_geom_bond_site_symmetry_1
_geom_bond_site_symmetry_2
C1 C2 1_555 1_555
C2 H1 1_555 1_555
C3 C2 1_555 1_555
C4 C3 1_555 1_555
H2 C4 1_555 1_555
C5 C4 1_555 1_555
C6 C1 1_555 1_555
C7 C5 1_555 1_555
H3 C7 1_555 1_555
C8 C7 1_555 1_555
C9 C1 1_555 1_555
H4 C9 1_555 1_555
C10 C9 1_555 1_555
C11 H5 1_555 1_555
H6 C11 1_555 1_555
C12 C11 1_555 1_555
H7 C12 1_555 1_555
H8 C12 1_555 1_555
H9 C12 1_555 1_555
O1 C10 1_555 1_555
O2 C10 1_555 1_555
C13 C9 1_555 1_555
C14 H10 1_555 1_555
H11 C14 1_555 1_555
C15 C14 1_555 1_555
H12 C15 1_555 1_555
H13 C15 1_555 1_555
H14 C15 1_555 1_555
C16 N1 1_555 1_555
C17 H15 1_555 1_555
C18 C17 1_555 1_555
H16 C18 1_555 1_555
C19 C18 1_555 1_555
H17 C19 1_555 1_555
C20 C8 1_555 1_555
H18 C20 1_555 1_555
C21 C20 1_555 1_555
C22 H19 1_555 1_555
H20 C22 1_555 1_555
C23 C22 1_555 1_555
H21 C23 1_555 1_555
H22 C23 1_555 1_555
H23 C23 1_555 1_555
C24 C20 1_555 1_555
C25 H24 1_555 1_555
H25 C25 1_555 1_555
C26 C25 1_555 1_555
H26 C26 1_555 1_555
H27 C26 1_555 1_555
H28 C26 1_555 1_555
C27 H29 1_555 1_555
H30 C27 1_555 1_555
C28 C27 1_555 1_555
C29 C28 1_555 1_555
H31 C29 1_555 1_555
C30 C29 1_555 1_555
H32 C30 1_555 1_555
C31 C30 1_555 1_555
H33 C31 1_555 1_555
C32 C31 1_555 1_555
H34 C32 1_555 1_555
C33 C28 1_555 1_555
H35 C33 1_555 1_555
N1 C6 1_555 1_555
N2 C16 1_555 1_555
N3 C16 1_555 1_555
O3 C13 1_555 1_555
O4 C13 1_555 1_555
O5 C21 1_555 1_555
O6 C21 1_555 1_555
O7 C24 1_555 1_555
O8 C24 1_555 1_555
O9 C3 1_555 1_555
C5 C6 1_555 1_555
C8 N1 1_555 1_555
C11 O2 1_555 1_555
C14 O4 1_555 1_555
C17 N2 1_555 1_555
C19 N3 1_555 1_555
C22 O6 1_555 1_555
C25 O8 1_555 1_555
C27 O9 1_555 1_555
C32 C33 1_555 1_555

#END
