
#######################################################################
#
#                 Cambridge Crystallographic Data Centre
#                                CCDC 
#
#######################################################################
#
# If this CIF has been generated from an entry in the Cambridge 
# Structural Database, then it will include bibliographic, chemical, 
# crystal, experimental, refinement or atomic coordinate data resulting 
# from the CCDC's data processing and validation procedures.
#
#######################################################################

data_DACJAS
_chemical_formula_moiety         'C22 H14 O2'
_chemical_name_systematic        \a-Naphthil
_symmetry_cell_setting           triclinic
_symmetry_space_group_name_H-M   'P -1'
_symmetry_Int_Tables_number      2
_space_group_name_Hall           '-P 1'
loop_
_symmetry_equiv_pos_site_id
_symmetry_equiv_pos_as_xyz
1 x,y,z
2 -x,-y,-z
_cell_length_a                   12.455(1)
_cell_length_b                   7.832(1)
_cell_length_c                   8.806(2)
_cell_angle_alpha                115.72(1)
_cell_angle_beta                 94.96(1)
_cell_angle_gamma                94.82(1)
_cell_volume                     763.898
_cell_formula_units_Z            2
loop_
_atom_site_label
_atom_site_type_symbol
_atom_site_fract_x
_atom_site_fract_y
_atom_site_fract_z
O1 O -0.2877(1) 0.1522(2) -0.1920(2)
O2 O -0.3050(1) -0.2254(2) -0.5061(2)
C1 C -0.3562(1) 0.0040(2) 0.0507(2)
C2 C -0.3643(1) 0.2019(2) 0.1230(2)
C3 C -0.4003(2) 0.2921(3) 0.2784(2)
C4 C -0.4316(2) 0.1900(3) 0.3680(3)
C5 C -0.4259(2) -0.0008(3) 0.3022(3)
C6 C -0.3882(1) -0.0987(3) 0.1425(2)
C7 C -0.3809(2) -0.2967(3) 0.0766(3)
C8 C -0.3425(2) -0.3921(3) -0.0744(3)
C9 C -0.3105(2) -0.2928(2) -0.1665(3)
C10 C -0.3171(1) -0.1000(2) -0.1084(2)
C11 C -0.2810(1) -0.0122(2) -0.2166(2)
C12 C -0.2362(1) -0.1381(2) -0.3813(2)
C13 C -0.1182(1) -0.1392(2) -0.3783(2)
C14 C -0.0527(2) -0.0131(2) -0.2292(2)
C15 C 0.0610(2) 0.0004(3) -0.2142(2)
C16 C 0.1087(2) -0.1150(3) -0.3490(3)
C17 C 0.0458(1) -0.2482(2) -0.5031(3)
C18 C 0.0979(2) -0.3672(3) -0.6406(3)
C19 C 0.0380(2) -0.4980(3) -0.7891(3)
C20 C -0.0755(2) -0.5140(3) -0.8067(3)
C21 C -0.1289(2) -0.3997(3) -0.6777(2)
C22 C -0.0695(1) -0.2627(2) -0.5210(2)
H1 H -0.344(2) 0.276(3) 0.056(2)
H2 H -0.404(2) 0.440(3) 0.329(3)
H3 H -0.463(2) 0.254(3) 0.483(3)
H4 H -0.451(2) -0.079(3) 0.376(3)
H5 H -0.407(2) -0.372(3) 0.142(3)
H6 H -0.336(2) -0.536(3) -0.121(3)
H7 H -0.283(2) -0.373(3) -0.284(3)
H8 H -0.086(2) 0.074(3) -0.129(2)
H9 H 0.104(2) 0.096(3) -0.105(3)
H10 H 0.194(2) -0.108(3) -0.340(3)
H11 H 0.186(2) -0.348(3) -0.621(3)
H12 H 0.079(2) -0.588(3) -0.892(3)
H13 H -0.121(2) -0.611(3) -0.918(3)
H14 H -0.212(2) -0.407(3) -0.690(3)
loop_
_geom_bond_atom_site_label_1
_geom_bond_atom_site_label_2
_geom_bond_site_symmetry_1
_geom_bond_site_symmetry_2
O1 C11 1_555 1_555
O2 C12 1_555 1_555
C1 C2 1_555 1_555
C2 C3 1_555 1_555
C3 C4 1_555 1_555
C4 C5 1_555 1_555
C5 C6 1_555 1_555
C6 C1 1_555 1_555
C7 C6 1_555 1_555
C8 C7 1_555 1_555
C9 C8 1_555 1_555
C10 C1 1_555 1_555
C11 C10 1_555 1_555
C12 C11 1_555 1_555
C13 C12 1_555 1_555
C14 C13 1_555 1_555
C15 C14 1_555 1_555
C16 C15 1_555 1_555
C17 C16 1_555 1_555
C18 C17 1_555 1_555
C19 C18 1_555 1_555
C20 C19 1_555 1_555
C21 C20 1_555 1_555
C22 C13 1_555 1_555
H1 C2 1_555 1_555
H2 C3 1_555 1_555
H3 C4 1_555 1_555
H4 C5 1_555 1_555
H5 C7 1_555 1_555
H6 C8 1_555 1_555
H7 C9 1_555 1_555
H8 C14 1_555 1_555
H9 C15 1_555 1_555
H10 C16 1_555 1_555
H11 C18 1_555 1_555
H12 C19 1_555 1_555
H13 C20 1_555 1_555
H14 C21 1_555 1_555
C9 C10 1_555 1_555
C17 C22 1_555 1_555
C21 C22 1_555 1_555

#END
