
#######################################################################
#
#                 Cambridge Crystallographic Data Centre
#                                CCDC 
#
#######################################################################
#
# If this CIF has been generated from an entry in the Cambridge 
# Structural Database, then it will include bibliographic, chemical, 
# crystal, experimental, refinement or atomic coordinate data resulting 
# from the CCDC's data processing and validation procedures.
#
#######################################################################

data_DACMOL
_chemical_formula_moiety         'C17 H38 N6'
_chemical_name_systematic        
2,2'-Propane-1,3-diylbis(1,3-di-isopropylguanidine)
_symmetry_cell_setting           monoclinic
_symmetry_space_group_name_H-M   'P 21/n'
_symmetry_Int_Tables_number      14
_space_group_name_Hall           '-P 2yn'
loop_
_symmetry_equiv_pos_site_id
_symmetry_equiv_pos_as_xyz
1 x,y,z
2 1/2-x,1/2+y,1/2-z
3 -x,-y,-z
4 1/2+x,1/2-y,1/2+z
_cell_length_a                   9.1519(13)
_cell_length_b                   16.485(2)
_cell_length_c                   13.926(2)
_cell_angle_alpha                90
_cell_angle_beta                 97.549(5)
_cell_angle_gamma                90
_cell_volume                     2082.79
_exptl_crystal_colour            colorless
_exptl_crystal_description       block
_cell_formula_units_Z            4
loop_
_atom_site_label
_atom_site_type_symbol
_atom_site_fract_x
_atom_site_fract_y
_atom_site_fract_z
N1 N 0.9528(3) 0.65815(17) 0.7919(2)
H1 H 0.978(4) 0.6174(14) 0.757(2)
N2 N 1.0102(3) 0.78798(16) 0.8517(2)
H2 H 0.928(2) 0.7874(19) 0.877(2)
N3 N 1.1622(3) 0.72740(15) 0.75367(19)
N4 N 1.0319(3) 0.69482(17) 0.3759(2)
H3 H 0.9470(18) 0.7169(16) 0.356(2)
N5 N 1.0395(4) 0.7869(2) 0.5008(3)
H4 H 1.084(4) 0.801(3) 0.5579(16)
N6 N 1.2377(3) 0.69817(16) 0.48734(18)
C1 C 1.0464(4) 0.72373(19) 0.7972(2)
C2 C 1.1077(4) 0.72541(19) 0.4591(2)
C3 C 1.1975(4) 0.65455(19) 0.7010(2)
H5 H 1.1164 0.6424 0.6498
H6 H 1.2094 0.6082 0.7454
C4 C 1.3379(4) 0.6671(2) 0.6567(2)
H7 H 1.3684 0.6150 0.6317
H8 H 1.4157 0.6849 0.7074
C5 C 1.3236(4) 0.7286(2) 0.5754(2)
H9 H 1.2765 0.7777 0.5965
H10 H 1.4222 0.7435 0.5613
C6 C 0.8321(4) 0.6419(2) 0.8466(3)
H11 H 0.7905 0.6943 0.8645
C7 C 0.8834(5) 0.5958(3) 0.9381(3)
H12 H 0.9223 0.5436 0.9219
H13 H 0.8010 0.5877 0.9744
H14 H 0.9599 0.6265 0.9771
C8 C 0.7141(4) 0.5962(3) 0.7828(4)
H15 H 0.6887 0.6255 0.7225
H16 H 0.6274 0.5910 0.8156
H17 H 0.7503 0.5426 0.7692
C9 C 1.0955(4) 0.86318(19) 0.8582(2)
H18 H 1.2014 0.8488 0.8667
C10 C 1.0647(5) 0.9103(2) 0.9465(3)
H19 H 0.9599 0.9213 0.9421
H20 H 1.1185 0.9611 0.9497
H21 H 1.0958 0.8787 1.0044
C11 C 1.0632(5) 0.9140(2) 0.7669(3)
H22 H 1.0823 0.8821 0.7114
H23 H 1.1260 0.9616 0.7723
H24 H 0.9607 0.9307 0.7588
C12 C 1.0799(4) 0.6206(2) 0.3322(2)
H25 H 1.1878 0.6239 0.3315
C13 C 1.0483(6) 0.5481(3) 0.3912(3)
H26 H 1.0924 0.5557 0.4578
H27 H 1.0895 0.4999 0.3650
H28 H 0.9425 0.5416 0.3890
C14 C 1.0066(5) 0.6155(3) 0.2291(3)
H29 H 0.9004 0.6146 0.2282
H30 H 1.0378 0.5662 0.1995
H31 H 1.0342 0.6622 0.1932
C15 C 0.8833(4) 0.8074(2) 0.4861(3)
H32 H 0.845(4) 0.792(2) 0.427(3)
C16 C 0.8073(11) 0.7544(6) 0.5487(7)
H33 H 0.8317 0.6982 0.5374
H34 H 0.7016 0.7620 0.5338
H35 H 0.8384 0.7680 0.6160
C17 C 0.8606(14) 0.8983(8) 0.4997(8)
H36 H 0.8796 0.9116 0.5680
H37 H 0.7599 0.9127 0.4749
H38 H 0.9279 0.9284 0.4647
C18? C 0.8032(11) 0.7853(6) 0.5718(7)
C19? C 0.8737(14) 0.8982(8) 0.4686(9)
H39? H 0.8172 0.7281 0.5865
H40? H 0.6988 0.7966 0.5557
H41? H 0.8427 0.8173 0.6278
H42? H 0.9266 0.9264 0.5237
H43? H 0.7711 0.9149 0.4604
H44? H 0.9171 0.9114 0.4107
loop_
_geom_bond_atom_site_label_1
_geom_bond_atom_site_label_2
_geom_bond_site_symmetry_1
_geom_bond_site_symmetry_2
N1 H1 1_555 1_555
N2 H2 1_555 1_555
N3 C1 1_555 1_555
N4 H3 1_555 1_555
N5 H4 1_555 1_555
N6 C2 1_555 1_555
C1 N1 1_555 1_555
C2 N4 1_555 1_555
C3 N3 1_555 1_555
H5 C3 1_555 1_555
H6 C3 1_555 1_555
C4 C3 1_555 1_555
H7 C4 1_555 1_555
H8 C4 1_555 1_555
C5 N6 1_555 1_555
H9 C5 1_555 1_555
H10 C5 1_555 1_555
C6 N1 1_555 1_555
H11 C6 1_555 1_555
C7 C6 1_555 1_555
H12 C7 1_555 1_555
H13 C7 1_555 1_555
H14 C7 1_555 1_555
C8 C6 1_555 1_555
H15 C8 1_555 1_555
H16 C8 1_555 1_555
H17 C8 1_555 1_555
C9 N2 1_555 1_555
H18 C9 1_555 1_555
C10 C9 1_555 1_555
H19 C10 1_555 1_555
H20 C10 1_555 1_555
H21 C10 1_555 1_555
C11 C9 1_555 1_555
H22 C11 1_555 1_555
H23 C11 1_555 1_555
H24 C11 1_555 1_555
C12 N4 1_555 1_555
H25 C12 1_555 1_555
C13 C12 1_555 1_555
H26 C13 1_555 1_555
H27 C13 1_555 1_555
H28 C13 1_555 1_555
C14 C12 1_555 1_555
H29 C14 1_555 1_555
H30 C14 1_555 1_555
H31 C14 1_555 1_555
C15 N5 1_555 1_555
H32 C15 1_555 1_555
C16 C15 1_555 1_555
H33 C16 1_555 1_555
H34 C16 1_555 1_555
H35 C16 1_555 1_555
C17 C15 1_555 1_555
H36 C17 1_555 1_555
H37 C17 1_555 1_555
H38 C17 1_555 1_555
N2 C1 1_555 1_555
N5 C2 1_555 1_555
C4 C5 1_555 1_555

#END
