
#######################################################################
#
#                 Cambridge Crystallographic Data Centre
#                                CCDC 
#
#######################################################################
#
# If this CIF has been generated from an entry in the Cambridge 
# Structural Database, then it will include bibliographic, chemical, 
# crystal, experimental, refinement or atomic coordinate data resulting 
# from the CCDC's data processing and validation procedures.
#
#######################################################################

data_DACMIF
_chemical_formula_moiety         'C16 H19 N1 O6'
_chemical_name_systematic        
'Methyl 2,2,4,4-tetramethyl-5-(4-nitrophenyl)-3,5-dioxopentanoate'
_symmetry_cell_setting           monoclinic
_symmetry_space_group_name_H-M   'C 2/c'
_symmetry_Int_Tables_number      15
_space_group_name_Hall           '-C 2yn'
loop_
_symmetry_equiv_pos_site_id
_symmetry_equiv_pos_as_xyz
1 x,y,z
2 -x,y,1/2-z
3 1/2+x,1/2+y,z
4 1/2-x,1/2+y,1/2-z
5 -x,-y,-z
6 x,-y,1/2+z
7 1/2-x,1/2-y,-z
8 1/2+x,1/2-y,1/2+z
_cell_length_a                   29.3136(14)
_cell_length_b                   6.8899(2)
_cell_length_c                   15.4908(7)
_cell_angle_alpha                90
_cell_angle_beta                 91.301(4)
_cell_angle_gamma                90
_cell_volume                     3127.84
_exptl_crystal_colour            colorless
_exptl_crystal_description       needle
_cell_formula_units_Z            8
loop_
_atom_site_label
_atom_site_type_symbol
_atom_site_fract_x
_atom_site_fract_y
_atom_site_fract_z
C1 C 0.09901(4) 1.08834(17) 0.51744(7)
C2 C 0.14537(4) 1.01462(18) 0.48485(7)
C3 C 0.16941(4) 0.87091(18) 0.54750(7)
C4 C 0.19610(4) 0.93616(18) 0.62990(7)
C5 C 0.18387(4) 1.13621(18) 0.66215(7)
C6 C 0.12237(5) 1.3374(2) 0.70177(9)
H1 H 0.1403 1.3788 0.7527
H2 H 0.0902 1.3266 0.7167
H3 H 0.1256 1.4331 0.6555
C7 C 0.13526(5) 0.9117(2) 0.39782(8)
H4 H 0.1196 1.0018 0.3582
H5 H 0.1158 0.7985 0.4074
H6 H 0.1640 0.8694 0.3727
C8 C 0.17605(4) 1.1892(2) 0.46635(9)
H7 H 0.1807 1.2650 0.5193
H8 H 0.1615 1.2708 0.4219
H9 H 0.2056 1.1433 0.4460
C9 C 0.18613(5) 0.79200(19) 0.70297(8)
H10 H 0.2033 0.8300 0.7553
H11 H 0.1953 0.6612 0.6856
H12 H 0.1534 0.7930 0.7146
C10 C 0.24709(4) 0.9270(2) 0.60985(9)
H13 H 0.2537 1.0177 0.5631
H14 H 0.2550 0.7949 0.5921
H15 H 0.2651 0.9624 0.6615
C11 C 0.06481(4) 0.95328(17) 0.55687(7)
C12 C 0.06548(4) 0.75255(18) 0.54802(8)
H16 H 0.0897 0.6920 0.5186
C13 C 0.03103(4) 0.64040(18) 0.58179(8)
H17 H 0.0311 0.5034 0.5749
C14 C -0.00335(4) 0.73033(18) 0.62552(7)
C15 C -0.00486(4) 0.92869(19) 0.63670(8)
H18 H -0.0288 0.9877 0.6677
C16 C 0.02923(4) 1.03876(18) 0.60175(8)
H19 H 0.0286 1.1758 0.6083
N1 N -0.03971(4) 0.60962(18) 0.66170(7)
O1 O 0.08842(3) 1.25682(12) 0.50646(6)
O2 O 0.17070(3) 0.70049(13) 0.52979(6)
O3 O 0.21019(3) 1.26453(14) 0.67953(7)
O4 O 0.13868(3) 1.15093(12) 0.67281(5)
O5 O -0.07019(3) 0.69061(16) 0.70001(7)
O6 O -0.03760(4) 0.43409(16) 0.65147(8)
loop_
_geom_bond_atom_site_label_1
_geom_bond_atom_site_label_2
_geom_bond_site_symmetry_1
_geom_bond_site_symmetry_2
C1 C2 1_555 1_555
C2 C3 1_555 1_555
C3 C4 1_555 1_555
C4 C5 1_555 1_555
C5 O3 1_555 1_555
C6 H1 1_555 1_555
H2 C6 1_555 1_555
H3 C6 1_555 1_555
C7 C2 1_555 1_555
H4 C7 1_555 1_555
H5 C7 1_555 1_555
H6 C7 1_555 1_555
C8 C2 1_555 1_555
H7 C8 1_555 1_555
H8 C8 1_555 1_555
H9 C8 1_555 1_555
C9 C4 1_555 1_555
H10 C9 1_555 1_555
H11 C9 1_555 1_555
H12 C9 1_555 1_555
C10 C4 1_555 1_555
H13 C10 1_555 1_555
H14 C10 1_555 1_555
H15 C10 1_555 1_555
C11 C1 1_555 1_555
C12 C11 1_555 1_555
H16 C12 1_555 1_555
C13 C12 1_555 1_555
H17 C13 1_555 1_555
C14 C13 1_555 1_555
C15 C14 1_555 1_555
H18 C15 1_555 1_555
C16 C11 1_555 1_555
H19 C16 1_555 1_555
N1 C14 1_555 1_555
O1 C1 1_555 1_555
O2 C3 1_555 1_555
O4 C5 1_555 1_555
O5 N1 1_555 1_555
O6 N1 1_555 1_555
C6 O4 1_555 1_555
C15 C16 1_555 1_555

#END
