
#######################################################################
#
#                 Cambridge Crystallographic Data Centre
#                                CCDC 
#
#######################################################################
#
# If this CIF has been generated from an entry in the Cambridge 
# Structural Database, then it will include bibliographic, chemical, 
# crystal, experimental, refinement or atomic coordinate data resulting 
# from the CCDC's data processing and validation procedures.
#
#######################################################################

data_DACQOO
_chemical_formula_moiety         'C26 H17 Cl2 N1 O4'
_chemical_name_systematic        
3-(2-p-tolyl-1,3-dioxo-2,3-dihydro-1H-inden-2-yl)-1-(3,4-dichlorophenyl)pyrrolidine-2,5-dione
_symmetry_cell_setting           orthorhombic
_symmetry_space_group_name_H-M   'P b c a'
_symmetry_Int_Tables_number      61
_space_group_name_Hall           '-P 2ac 2ab'
loop_
_symmetry_equiv_pos_site_id
_symmetry_equiv_pos_as_xyz
1 x,y,z
2 1/2+x,y,1/2-z
3 x,1/2-y,1/2+z
4 1/2-x,1/2+y,z
5 -x,-y,-z
6 1/2-x,-y,1/2+z
7 -x,1/2+y,1/2-z
8 1/2+x,1/2-y,-z
_cell_length_a                   14.980(2)
_cell_length_b                   12.115(2)
_cell_length_c                   24.997(4)
_cell_angle_alpha                90
_cell_angle_beta                 90
_cell_angle_gamma                90
_cell_volume                     4536.52
_chemical_melting_point          '237-238 deg.C'
_cell_formula_units_Z            8
loop_
_atom_site_label
_atom_site_type_symbol
_atom_site_fract_x
_atom_site_fract_y
_atom_site_fract_z
Cl1 Cl 0.61317(5) 0.65497(6) 0.76271(2)
Cl2 Cl 0.49867(6) 0.84868(6) 0.81083(2)
O1 O 0.52462(9) 0.61009(11) 0.43175(5)
O2 O 0.29668(10) 0.80938(11) 0.51631(6)
O3 O 0.50899(9) 0.68816(12) 0.55818(5)
O4 O 0.25658(11) 0.55995(17) 0.63794(6)
N1 N 0.38858(10) 0.63499(13) 0.60890(6)
C1 C 0.49150(14) 0.64999(17) 0.68368(7)
H1 H 0.5254 0.5931 0.6692
C2 C 0.51768(15) 0.70046(18) 0.73106(8)
C3 C 0.46682(18) 0.78498(18) 0.75199(8)
C4 C 0.39032(18) 0.81921(19) 0.72632(10)
H2 H 0.3560 0.8759 0.7407
C5 C 0.36488(17) 0.7693(2) 0.67934(9)
H3 H 0.3137 0.7929 0.6617
C6 C 0.41494(14) 0.68489(16) 0.65846(7)
C7 C 0.43738(14) 0.64318(16) 0.56212(7)
C8 C 0.38466(12) 0.58918(15) 0.51748(7)
H4 H 0.4159 0.5216 0.5067
C9 C 0.29632(13) 0.55644(18) 0.54352(7)
H5 H 0.2475 0.5992 0.5287
H6 H 0.2842 0.4787 0.5378
C10 C 0.30717(14) 0.58031(19) 0.60199(8)
C11 C 0.38003(12) 0.66652(14) 0.46876(7)
C12 C 0.47368(13) 0.68376(16) 0.44342(7)
C13 C 0.48624(13) 0.80333(16) 0.43462(7)
C14 C 0.55544(14) 0.85666(18) 0.40871(8)
H7 H 0.6033 0.8173 0.3946
C15 C 0.55123(17) 0.97037(19) 0.40448(9)
H8 H 0.5967 1.0083 0.3871
C16 C 0.48007(16) 1.02845(18) 0.42589(9)
H9 H 0.4784 1.1048 0.4222
C17 C 0.41159(15) 0.97601(16) 0.45262(8)
H10 H 0.3645 1.0157 0.4673
C18 C 0.41549(13) 0.86157(15) 0.45681(7)
C19 C 0.35454(13) 0.78549(15) 0.48428(8)
C20 C 0.31901(13) 0.62179(16) 0.42465(7)
C21 C 0.25254(16) 0.68502(19) 0.40183(9)
H11 H 0.2412 0.7554 0.4150
C22 C 0.20230(17) 0.6449(2) 0.35941(10)
H12 H 0.1584 0.6895 0.3444
C23 C 0.21562(16) 0.5412(2) 0.33900(9)
C24 C 0.28052(15) 0.47760(18) 0.36242(8)
H13 H 0.2906 0.4066 0.3496
C25 C 0.33160(14) 0.51655(17) 0.40482(8)
H14 H 0.3748 0.4712 0.4200
C26 C 0.1584(2) 0.4980(2) 0.29366(11)
H15 H 0.0997 0.4815 0.3069
H16 H 0.1849 0.4321 0.2793
H17 H 0.1544 0.5529 0.2661
loop_
_geom_bond_atom_site_label_1
_geom_bond_atom_site_label_2
_geom_bond_site_symmetry_1
_geom_bond_site_symmetry_2
Cl1 C2 1_555 1_555
Cl2 C3 1_555 1_555
O1 C12 1_555 1_555
O2 C19 1_555 1_555
O3 C7 1_555 1_555
O4 C10 1_555 1_555
N1 C6 1_555 1_555
C1 H1 1_555 1_555
C2 C1 1_555 1_555
C3 C2 1_555 1_555
C4 C3 1_555 1_555
H2 C4 1_555 1_555
C5 C4 1_555 1_555
H3 C5 1_555 1_555
C6 C1 1_555 1_555
C7 N1 1_555 1_555
C8 C7 1_555 1_555
H4 C8 1_555 1_555
C9 C8 1_555 1_555
H5 C9 1_555 1_555
H6 C9 1_555 1_555
C10 N1 1_555 1_555
C11 C8 1_555 1_555
C12 C11 1_555 1_555
C13 C12 1_555 1_555
C14 C13 1_555 1_555
H7 C14 1_555 1_555
C15 C14 1_555 1_555
H8 C15 1_555 1_555
C16 C15 1_555 1_555
H9 C16 1_555 1_555
C17 C16 1_555 1_555
H10 C17 1_555 1_555
C18 C13 1_555 1_555
C19 C11 1_555 1_555
C20 C11 1_555 1_555
C21 C20 1_555 1_555
H11 C21 1_555 1_555
C22 C21 1_555 1_555
H12 C22 1_555 1_555
C23 C22 1_555 1_555
C24 C23 1_555 1_555
H13 C24 1_555 1_555
C25 C20 1_555 1_555
H14 C25 1_555 1_555
C26 C23 1_555 1_555
H15 C26 1_555 1_555
H16 C26 1_555 1_555
H17 C26 1_555 1_555
C5 C6 1_555 1_555
C9 C10 1_555 1_555
C17 C18 1_555 1_555
C18 C19 1_555 1_555
C24 C25 1_555 1_555

#END
