
#######################################################################
#
#                 Cambridge Crystallographic Data Centre
#                                CCDC 
#
#######################################################################
#
# If this CIF has been generated from an entry in the Cambridge 
# Structural Database, then it will include bibliographic, chemical, 
# crystal, experimental, refinement or atomic coordinate data resulting 
# from the CCDC's data processing and validation procedures.
#
#######################################################################

data_DACSUY
_chemical_name_common            
4-(3-fluoro-6-(morpholin-4-yl)-5-(phenylsulfanyl)pyridazin-4-yl)morpholine
_chemical_formula_moiety         'C18 H21 F1 N4 O2 S1'
_chemical_name_systematic        
4,4'-(6-fluoro-4-(phenylthio)pyridazine-3,5-diyl)dimorpholine
_symmetry_cell_setting           monoclinic
_symmetry_space_group_name_H-M   'P 21'
_symmetry_Int_Tables_number      4
_space_group_name_Hall           'P 2yb'
loop_
_symmetry_equiv_pos_site_id
_symmetry_equiv_pos_as_xyz
1 x,y,z
2 -x,1/2+y,-z
_cell_length_a                   6.5813(2)
_cell_length_b                   13.5706(4)
_cell_length_c                   10.4143(4)
_cell_angle_alpha                90
_cell_angle_beta                 107.70(2)
_cell_angle_gamma                90
_cell_volume                     886.093
_exptl_crystal_colour            colorless
_exptl_crystal_description       prism
_cell_formula_units_Z            2
loop_
_atom_site_label
_atom_site_type_symbol
_atom_site_fract_x
_atom_site_fract_y
_atom_site_fract_z
S1 S 0.06082(5) 0.40423(3) 0.35039(3)
F1 F 0.62310(16) 0.61418(7) 0.22102(10)
O1 O 0.2875(2) 0.74976(9) 0.54560(14)
O2 O -0.1320(2) 0.13389(11) -0.01570(14)
N1 N 0.4185(2) 0.38441(10) 0.10109(13)
N2 N 0.5443(2) 0.46574(11) 0.13135(13)
N3 N 0.3348(2) 0.59673(10) 0.37288(13)
N4 N 0.1395(2) 0.28776(10) 0.12444(13)
C1 C 0.5056(2) 0.53123(12) 0.21077(15)
C2 C 0.3541(2) 0.52576(11) 0.28221(14)
C3 C 0.2345(2) 0.43871(12) 0.25787(14)
C4 C 0.2645(2) 0.37277(11) 0.15872(14)
C5 C 0.5181(3) 0.65589(13) 0.44759(18)
C6 C 0.4797(3) 0.69301(15) 0.57599(19)
C7 C 0.1092(3) 0.68935(14) 0.4774(2)
C8 C 0.1317(3) 0.64970(13) 0.34654(18)
C9 C -0.0889(2) 0.30543(14) 0.05483(17)
C10 C -0.2118(3) 0.21079(15) 0.0503(2)
C11 C 0.0895(3) 0.11769(14) 0.0510(2)
C12 C 0.2203(3) 0.21018(12) 0.05483(17)
C13 C 0.2206(2) 0.42216(10) 0.52046(14)
C14 C 0.1107(3) 0.43627(13) 0.61475(16)
C15 C 0.2239(3) 0.44381(16) 0.75133(17)
C16 C 0.4453(3) 0.43907(16) 0.79460(17)
C17 C 0.5535(3) 0.42451(13) 0.69996(16)
C18 C 0.4424(2) 0.41593(12) 0.56401(15)
H1 H 0.539(3) 0.7104(17) 0.395(2)
H2 H 0.647(4) 0.6140(18) 0.467(2)
H3 H 0.473(3) 0.6401(16) 0.636(2)
H4 H 0.605(4) 0.7363(17) 0.626(2)
H5 H 0.100(3) 0.6319(16) 0.536(2)
H6 H -0.021(4) 0.7311(19) 0.461(2)
H7 H 0.012(3) 0.6065(17) 0.303(2)
H8 H 0.129(4) 0.7048(19) 0.286(2)
H9 H -0.112(3) 0.3293(16) -0.042(2)
H10 H -0.146(4) 0.3639(19) 0.098(3)
H11 H -0.375(4) 0.2151(19) -0.007(3)
H12 H -0.199(4) 0.1860(18) 0.144(2)
H13 H 0.117(3) 0.0938(17) 0.141(2)
H14 H 0.133(4) 0.069(2) -0.007(3)
H15 H 0.212(4) 0.2305(19) -0.038(2)
H16 H 0.366(3) 0.1971(17) 0.106(2)
H17 H -0.043(3) 0.4438(16) 0.583(2)
H18 H 0.144(3) 0.4545(17) 0.815(2)
H19 H 0.518(4) 0.4471(19) 0.888(3)
H20 H 0.715(4) 0.4175(19) 0.727(2)
H21 H 0.530(3) 0.3984(17) 0.499(2)
loop_
_geom_bond_atom_site_label_1
_geom_bond_atom_site_label_2
_geom_bond_site_symmetry_1
_geom_bond_site_symmetry_2
S1 C3 1_555 1_555
F1 C1 1_555 1_555
O1 C6 1_555 1_555
O2 C10 1_555 1_555
N1 N2 1_555 1_555
N2 C1 1_555 1_555
N3 C2 1_555 1_555
N4 C4 1_555 1_555
C1 C2 1_555 1_555
C2 C3 1_555 1_555
C3 C4 1_555 1_555
C4 N1 1_555 1_555
C5 N3 1_555 1_555
C6 C5 1_555 1_555
C7 O1 1_555 1_555
C8 N3 1_555 1_555
C9 N4 1_555 1_555
C10 C9 1_555 1_555
C11 O2 1_555 1_555
C12 N4 1_555 1_555
C13 S1 1_555 1_555
C14 C13 1_555 1_555
C15 C14 1_555 1_555
C16 C15 1_555 1_555
C17 C16 1_555 1_555
C18 C13 1_555 1_555
H1 C5 1_555 1_555
H2 C5 1_555 1_555
H3 C6 1_555 1_555
H4 C6 1_555 1_555
H5 C7 1_555 1_555
H6 C7 1_555 1_555
H7 C8 1_555 1_555
H8 C8 1_555 1_555
H9 C9 1_555 1_555
H10 C9 1_555 1_555
H11 C10 1_555 1_555
H12 C10 1_555 1_555
H13 C11 1_555 1_555
H14 C11 1_555 1_555
H15 C12 1_555 1_555
H16 C12 1_555 1_555
H17 C14 1_555 1_555
H18 C15 1_555 1_555
H19 C16 1_555 1_555
H20 C17 1_555 1_555
H21 C18 1_555 1_555
C7 C8 1_555 1_555
C11 C12 1_555 1_555
C17 C18 1_555 1_555

#END
