
#######################################################################
#
#                 Cambridge Crystallographic Data Centre
#                                CCDC 
#
#######################################################################
#
# If this CIF has been generated from an entry in the Cambridge 
# Structural Database, then it will include bibliographic, chemical, 
# crystal, experimental, refinement or atomic coordinate data resulting 
# from the CCDC's data processing and validation procedures.
#
#######################################################################

data_DACVIO
_chemical_formula_moiety         'C26 H37 N1 O6'
_chemical_name_systematic        
'Diethyl 3-(((benzyloxy)carbonyl)amino)-4,6-diisopropylcyclohex-4-ene-1,2-dicarboxylate'
_symmetry_cell_setting           monoclinic
_symmetry_space_group_name_H-M   'P 21/c'
_symmetry_Int_Tables_number      14
_space_group_name_Hall           '-P 2ybc'
loop_
_symmetry_equiv_pos_site_id
_symmetry_equiv_pos_as_xyz
1 x,y,z
2 -x,1/2+y,1/2-z
3 -x,-y,-z
4 x,1/2-y,1/2+z
_cell_length_a                   13.7746(9)
_cell_length_b                   11.7176(8)
_cell_length_c                   19.9018(12)
_cell_angle_alpha                90
_cell_angle_beta                 127.838(4)
_cell_angle_gamma                90
_cell_volume                     2536.87
_exptl_crystal_colour            colorless
_exptl_crystal_description       prism
_cell_formula_units_Z            4
loop_
_atom_site_label
_atom_site_type_symbol
_atom_site_fract_x
_atom_site_fract_y
_atom_site_fract_z
O1 O 0.59280(10) -0.09975(10) -0.02614(7)
O2 O 0.44695(10) -0.21538(10) -0.04125(7)
O3 O 0.56046(9) -0.41552(9) -0.09644(6)
O4 O 0.37837(10) -0.49772(10) -0.14941(7)
O5 O 0.21584(9) -0.58672(9) -0.38474(7)
O6 O 0.42005(9) -0.55843(9) -0.29116(7)
N1 N 0.44763(12) -0.17276(12) -0.15259(8)
H1 H 0.4889(13) -0.1395(13) -0.1664(9)
C1 C 0.49105(15) -0.16870(14) -0.07093(10)
C2 C 0.34263(13) -0.24323(13) -0.21579(9)
H2 H 0.2996 -0.2658 -0.1917
C3 C 0.38699(14) -0.35397(13) -0.23175(9)
H3 H 0.4525 -0.3348 -0.2373
C4 C 0.43971(15) -0.43205(14) -0.15600(10)
C5 C 0.61653(14) -0.47572(15) -0.01551(10)
H4 H 0.5921 -0.5571 -0.0261
H5 H 0.5897 -0.4411 0.0160
C6 C 0.75346(14) -0.46476(15) 0.03469(10)
H6 H 0.7786 -0.4989 0.0026
H7 H 0.7946 -0.5044 0.0893
H8 H 0.7764 -0.3839 0.0450
C7 C 0.28032(14) -0.41148(13) -0.31292(9)
H9 H 0.2152 -0.4257 -0.3061
C8 C 0.31573(15) -0.52548(14) -0.32648(10)
C9 C 0.23746(14) -0.69800(13) -0.40597(10)
H10 H 0.2943 -0.7437 -0.3538
H11 H 0.2738 -0.6893 -0.4359
C10 C 0.11378(14) -0.75499(14) -0.46281(11)
H12 H 0.0782 -0.7611 -0.4328
H13 H 0.1233 -0.8314 -0.4780
H14 H 0.0592 -0.7095 -0.5146
C11 C 0.22217(14) -0.33509(13) -0.39283(10)
H15 H 0.1383 -0.3670 -0.4367
C12 C 0.20233(14) -0.21759(13) -0.37314(10)
H16 H 0.1488 -0.1688 -0.4203
C13 C 0.25205(14) -0.17498(13) -0.29646(10)
C14 C 0.21934(14) -0.05694(13) -0.28362(10)
H17 H 0.2409 -0.0558 -0.2256
C15 C 0.29430(14) 0.03681(13) -0.28584(11)
H18 H 0.2764 0.0373 -0.3417
H19 H 0.3821 0.0223 -0.2416
H20 H 0.2725 0.1109 -0.2756
C16 C 0.08214(14) -0.02924(14) -0.34751(10)
H21 H 0.0599 -0.0205 -0.4044
H22 H 0.0647 0.0419 -0.3309
H23 H 0.0340 -0.0914 -0.3481
C17 C 0.28771(14) -0.33518(14) -0.43422(10)
H24 H 0.3061 -0.4164 -0.4381
C18 C 0.40911(15) -0.26976(15) -0.38498(10)
H25 H 0.4374 -0.2642 -0.4196
H26 H 0.4708 -0.3102 -0.3319
H27 H 0.3970 -0.1929 -0.3718
C19 C 0.20032(15) -0.28895(15) -0.52528(10)
H28 H 0.1802 -0.2092 -0.5238
H29 H 0.1248 -0.3345 -0.5578
H30 H 0.2402 -0.2936 -0.5524
C20 C 0.64376(15) -0.07509(15) 0.06141(10)
H31 H 0.5814 -0.0923 0.0698
H32 H 0.6637 0.0072 0.0728
C21 C 0.75789(15) -0.14385(15) 0.12348(10)
C22 C 0.75368(18) -0.24057(15) 0.16091(11)
H33 H 0.6771 -0.2658 0.1458
C23 C 0.85857(19) -0.30111(18) 0.21971(12)
H34 H 0.8541 -0.3671 0.2454
C24 C 0.9696(2) -0.26676(18) 0.24152(12)
H35 H 1.0419 -0.3088 0.2823
C25 C 0.97617(17) -0.17067(19) 0.20405(12)
H36 H 1.0529 -0.1471 0.2185
C26 C 0.86951(16) -0.10843(17) 0.14486(11)
H37 H 0.8737 -0.0420 0.1194
loop_
_geom_bond_atom_site_label_1
_geom_bond_atom_site_label_2
_geom_bond_site_symmetry_1
_geom_bond_site_symmetry_2
O1 C1 1_555 1_555
O2 C1 1_555 1_555
O3 C4 1_555 1_555
O4 C4 1_555 1_555
O5 C8 1_555 1_555
O6 C8 1_555 1_555
N1 H1 1_555 1_555
C1 N1 1_555 1_555
C2 N1 1_555 1_555
H2 C2 1_555 1_555
C3 C2 1_555 1_555
H3 C3 1_555 1_555
C4 C3 1_555 1_555
C5 O3 1_555 1_555
H4 C5 1_555 1_555
H5 C5 1_555 1_555
C6 C5 1_555 1_555
H6 C6 1_555 1_555
H7 C6 1_555 1_555
H8 C6 1_555 1_555
C7 C3 1_555 1_555
H9 C7 1_555 1_555
C8 C7 1_555 1_555
C9 O5 1_555 1_555
H10 C9 1_555 1_555
H11 C9 1_555 1_555
C10 C9 1_555 1_555
H12 C10 1_555 1_555
H13 C10 1_555 1_555
H14 C10 1_555 1_555
C11 C7 1_555 1_555
H15 C11 1_555 1_555
C12 C11 1_555 1_555
H16 C12 1_555 1_555
C13 C2 1_555 1_555
C14 C13 1_555 1_555
H17 C14 1_555 1_555
C15 C14 1_555 1_555
H18 C15 1_555 1_555
H19 C15 1_555 1_555
H20 C15 1_555 1_555
C16 C14 1_555 1_555
H21 C16 1_555 1_555
H22 C16 1_555 1_555
H23 C16 1_555 1_555
C17 C11 1_555 1_555
H24 C17 1_555 1_555
C18 C17 1_555 1_555
H25 C18 1_555 1_555
H26 C18 1_555 1_555
H27 C18 1_555 1_555
C19 C17 1_555 1_555
H28 C19 1_555 1_555
H29 C19 1_555 1_555
H30 C19 1_555 1_555
C20 O1 1_555 1_555
H31 C20 1_555 1_555
H32 C20 1_555 1_555
C21 C20 1_555 1_555
C22 C21 1_555 1_555
H33 C22 1_555 1_555
C23 C22 1_555 1_555
H34 C23 1_555 1_555
C24 C23 1_555 1_555
H35 C24 1_555 1_555
C25 C24 1_555 1_555
H36 C25 1_555 1_555
C26 C21 1_555 1_555
H37 C26 1_555 1_555
C12 C13 1_555 1_555
C25 C26 1_555 1_555

#END
