
#######################################################################
#
#                 Cambridge Crystallographic Data Centre
#                                CCDC 
#
#######################################################################
#
# If this CIF has been generated from an entry in the Cambridge 
# Structural Database, then it will include bibliographic, chemical, 
# crystal, experimental, refinement or atomic coordinate data resulting 
# from the CCDC's data processing and validation procedures.
#
#######################################################################

data_DACVOU
_chemical_formula_moiety         'C26 H37 N1 O6'
_chemical_name_systematic        
'Diethyl 3-(((benzyloxy)carbonyl)amino)-4,6-diisopropylcyclohex-4-ene-1,2-dicarboxylate'
_symmetry_cell_setting           orthorhombic
_symmetry_space_group_name_H-M   'P 21 21 21'
_symmetry_Int_Tables_number      19
_space_group_name_Hall           'P 2ac 2ab'
loop_
_symmetry_equiv_pos_site_id
_symmetry_equiv_pos_as_xyz
1 x,y,z
2 1/2-x,-y,1/2+z
3 1/2+x,1/2-y,-z
4 -x,1/2+y,1/2-z
_cell_length_a                   10.4445(10)
_cell_length_b                   14.899(2)
_cell_length_c                   16.596(2)
_cell_angle_alpha                90
_cell_angle_beta                 90
_cell_angle_gamma                90
_cell_volume                     2582.55
_exptl_crystal_colour            colorless
_exptl_crystal_description       needle
_cell_formula_units_Z            4
loop_
_atom_site_label
_atom_site_type_symbol
_atom_site_fract_x
_atom_site_fract_y
_atom_site_fract_z
O1 O -0.7585(3) -0.0045(2) 0.1332(2)
O2 O -0.5598(3) -0.0573(2) 0.1632(2)
O3 O -0.4171(3) -0.0012(3) 0.0003(2)
O4 O -0.5062(4) 0.1052(3) -0.0739(3)
O5 O -0.4876(4) 0.3028(3) -0.0979(2)
O6 O -0.2825(4) 0.2643(2) -0.0766(2)
N1 N -0.5941(4) 0.0879(3) 0.1236(3)
H1 H -0.657(4) 0.127(3) 0.120(3)
C1 C -0.6289(5) 0.0037(4) 0.1419(3)
C2 C -0.4600(4) 0.1180(4) 0.1305(4)
H2 H -0.4088 0.0655 0.1497
C3 C -0.4042(5) 0.1467(4) 0.0493(3)
H3 H -0.3089 0.1430 0.0533
C4 C -0.4465(5) 0.0824(4) -0.0160(4)
C5 C -0.4697(7) -0.0686(4) -0.0546(4)
H4 H -0.4302 -0.0620 -0.1085
H5 H -0.5633 -0.0599 -0.0602
C6 C -0.4431(7) -0.1595(5) -0.0223(4)
H6 H -0.3504 -0.1681 -0.0178
H7 H -0.4788 -0.2047 -0.0588
H8 H -0.4825 -0.1656 0.0310
C7 C -0.4390(5) 0.2428(4) 0.0308(3)
H9 H -0.5342 0.2494 0.0332
C8 C -0.3927(6) 0.2698(4) -0.0535(4)
C9 C -0.4567(5) 0.3241(4) -0.1810(3)
H10 H -0.4075 0.2746 -0.2061
H11 H -0.4051 0.3798 -0.1840
C10 C -0.5822(5) 0.3364(4) -0.2228(4)
H12 H -0.6344 0.2823 -0.2160
H13 H -0.5673 0.3470 -0.2804
H14 H -0.6271 0.3880 -0.1996
C11 C -0.3782(5) 0.3063(4) 0.0924(3)
H15 H -0.2832 0.3023 0.0859
C12 C -0.4104(4) 0.2737(4) 0.1752(3)
H16 H -0.4025 0.3156 0.2181
C13 C -0.4498(4) 0.1901(4) 0.1942(3)
C14 C -0.4900(5) 0.1642(4) 0.2787(3)
H17 H -0.5142 0.0993 0.2775
C15 C -0.3835(5) 0.1747(4) 0.3398(3)
H18 H -0.3107 0.1371 0.3241
H19 H -0.4143 0.1562 0.3930
H20 H -0.3565 0.2377 0.3418
C16 C -0.6075(6) 0.2167(4) 0.3060(4)
H21 H -0.5860 0.2806 0.3098
H22 H -0.6352 0.1948 0.3589
H23 H -0.6768 0.2085 0.2669
C17 C -0.4171(5) 0.4052(4) 0.0792(4)
H24 H -0.4074 0.4186 0.0205
C18 C -0.3306(5) 0.4683(3) 0.1243(4)
H25 H -0.3453 0.4618 0.1823
H26 H -0.3491 0.5302 0.1080
H27 H -0.2412 0.4541 0.1119
C19 C -0.5576(5) 0.4231(4) 0.1019(4)
H28 H -0.5695 0.4127 0.1598
H29 H -0.6134 0.3826 0.0714
H30 H -0.5795 0.4855 0.0891
C20 C -0.8063(4) -0.0950(4) 0.1494(4)
H31 H -0.7699 -0.1183 0.2004
H32 H -0.7821 -0.1362 0.1051
C21 C -0.9499(5) -0.0877(4) 0.1556(4)
C22 C -1.0102(5) -0.0951(4) 0.2282(4)
H33 H -0.9610 -0.1032 0.2757
C23 C -1.1438(6) -0.0908(4) 0.2334(5)
H34 H -1.1856 -0.0968 0.2839
C24 C -1.2145(6) -0.0777(4) 0.1635(6)
H35 H -1.3053 -0.0749 0.1658
C25 C -1.1528(6) -0.0689(4) 0.0911(5)
H36 H -1.2014 -0.0585 0.0437
C26 C -1.0210(5) -0.0748(4) 0.0861(4)
H37 H -0.9794 -0.0700 0.0353
loop_
_geom_bond_atom_site_label_1
_geom_bond_atom_site_label_2
_geom_bond_site_symmetry_1
_geom_bond_site_symmetry_2
O1 C1 1_555 1_555
O2 C1 1_555 1_555
O3 C4 1_555 1_555
O4 C4 1_555 1_555
O5 C8 1_555 1_555
O6 C8 1_555 1_555
N1 H1 1_555 1_555
C1 N1 1_555 1_555
C2 N1 1_555 1_555
H2 C2 1_555 1_555
C3 C2 1_555 1_555
H3 C3 1_555 1_555
C4 C3 1_555 1_555
C5 O3 1_555 1_555
H4 C5 1_555 1_555
H5 C5 1_555 1_555
C6 C5 1_555 1_555
H6 C6 1_555 1_555
H7 C6 1_555 1_555
H8 C6 1_555 1_555
C7 C3 1_555 1_555
H9 C7 1_555 1_555
C8 C7 1_555 1_555
C9 O5 1_555 1_555
H10 C9 1_555 1_555
H11 C9 1_555 1_555
C10 C9 1_555 1_555
H12 C10 1_555 1_555
H13 C10 1_555 1_555
H14 C10 1_555 1_555
C11 C7 1_555 1_555
H15 C11 1_555 1_555
C12 C11 1_555 1_555
H16 C12 1_555 1_555
C13 C2 1_555 1_555
C14 C13 1_555 1_555
H17 C14 1_555 1_555
C15 C14 1_555 1_555
H18 C15 1_555 1_555
H19 C15 1_555 1_555
H20 C15 1_555 1_555
C16 C14 1_555 1_555
H21 C16 1_555 1_555
H22 C16 1_555 1_555
H23 C16 1_555 1_555
C17 C11 1_555 1_555
H24 C17 1_555 1_555
C18 C17 1_555 1_555
H25 C18 1_555 1_555
H26 C18 1_555 1_555
H27 C18 1_555 1_555
C19 C17 1_555 1_555
H28 C19 1_555 1_555
H29 C19 1_555 1_555
H30 C19 1_555 1_555
C20 O1 1_555 1_555
H31 C20 1_555 1_555
H32 C20 1_555 1_555
C21 C20 1_555 1_555
C22 C21 1_555 1_555
H33 C22 1_555 1_555
C23 C22 1_555 1_555
H34 C23 1_555 1_555
C24 C23 1_555 1_555
H35 C24 1_555 1_555
C25 C24 1_555 1_555
H36 C25 1_555 1_555
C26 C21 1_555 1_555
H37 C26 1_555 1_555
C12 C13 1_555 1_555
C25 C26 1_555 1_555

#END
