
#######################################################################
#
#                 Cambridge Crystallographic Data Centre
#                                CCDC 
#
#######################################################################
#
# If this CIF has been generated from an entry in the Cambridge 
# Structural Database, then it will include bibliographic, chemical, 
# crystal, experimental, refinement or atomic coordinate data resulting 
# from the CCDC's data processing and validation procedures.
#
#######################################################################

data_DACWAH
_chemical_formula_moiety         'C26 H25 N1 O5'
_chemical_name_systematic        
'Dimethyl 2-(benzoylamino)-5-isopropylbiphenyl-3,4-dicarboxylate'
_symmetry_cell_setting           monoclinic
_symmetry_space_group_name_H-M   'C c'
_symmetry_Int_Tables_number      9
_space_group_name_Hall           'C -2yc'
loop_
_symmetry_equiv_pos_site_id
_symmetry_equiv_pos_as_xyz
1 x,y,z
2 x,-y,1/2+z
3 1/2+x,1/2+y,z
4 1/2+x,1/2-y,1/2+z
_cell_length_a                   14.6003(6)
_cell_length_b                   17.4066(8)
_cell_length_c                   9.8449(3)
_cell_angle_alpha                90
_cell_angle_beta                 115.519(2)
_cell_angle_gamma                90
_cell_volume                     2257.91
_exptl_crystal_colour            colorless
_exptl_crystal_description       prism
_cell_formula_units_Z            4
loop_
_atom_site_label
_atom_site_type_symbol
_atom_site_fract_x
_atom_site_fract_y
_atom_site_fract_z
O1 O 0.05322(11) 0.27469(10) 0.35441(15)
O2 O 0.08240(12) 0.07328(9) 0.39921(17)
O3 O 0.11154(12) 0.15532(10) 0.59013(16)
O4 O 0.27705(11) 0.02981(9) 0.68559(15)
O5 O 0.15226(13) 0.33569(10) 0.56906(19)
N1 N 0.29215(13) 0.03535(10) 0.46722(19)
H1 H 0.2888(18) 0.0097(15) 0.390(3)
C1 C 0.22559(16) 0.24225(13) 0.4660(2)
C2 C 0.22117(16) 0.16220(13) 0.4735(2)
C3 C 0.13126(16) 0.12400(13) 0.4810(2)
C4 C 0.0286(2) 0.12112(19) 0.6118(3)
H2 H -0.0333 0.1231 0.5172
H3 H 0.0179 0.1496 0.6897
H4 H 0.0450 0.0675 0.6432
C5 C 0.29857(16) 0.11710(12) 0.4662(2)
C6 C 0.27172(15) -0.00259(13) 0.5704(2)
C7 C 0.23919(15) -0.08467(13) 0.5404(2)
C8 C 0.26760(16) -0.13318(13) 0.4528(2)
H5 H 0.3069 -0.1138 0.4046
C9 C 0.23867(18) -0.20976(14) 0.4358(2)
H6 H 0.2589 -0.2428 0.3769
C10 C 0.18068(18) -0.23815(14) 0.5038(2)
H7 H 0.1627 -0.2910 0.4940
C11 C 0.14843(18) -0.18989(15) 0.5866(2)
H8 H 0.1066 -0.2092 0.6307
C12 C 0.17754(17) -0.11337(13) 0.6047(2)
H9 H 0.1554 -0.0802 0.6613
C13 C 0.37797(16) 0.15261(12) 0.4464(2)
C14 C 0.37774(17) 0.23262(13) 0.4356(2)
H10 H 0.4311 0.2565 0.4206
C15 C 0.30370(16) 0.27898(13) 0.4457(2)
C16 C 0.30887(18) 0.36615(13) 0.4353(2)
H11 H 0.2379 0.3863 0.3963
C17 C 0.3531(2) 0.39335(15) 0.3281(3)
H12 H 0.4257 0.3810 0.3711
H13 H 0.3440 0.4490 0.3138
H14 H 0.3181 0.3674 0.2309
C18 C 0.3695(2) 0.40061(15) 0.5925(3)
H15 H 0.3367 0.3871 0.6576
H16 H 0.3717 0.4566 0.5847
H17 H 0.4387 0.3801 0.6357
C19 C 0.46180(15) 0.10992(12) 0.4329(2)
C20 C 0.48412(16) 0.12549(13) 0.3116(2)
H18 H 0.4424 0.1601 0.2354
C21 C 0.56637(17) 0.09128(14) 0.3006(2)
H19 H 0.5803 0.1020 0.2168
C22 C 0.62794(17) 0.04167(14) 0.4119(2)
H20 H 0.6853 0.0190 0.4058
C23 C 0.60609(17) 0.02502(14) 0.5321(2)
H21 H 0.6480 -0.0097 0.6078
C24 C 0.52351(17) 0.05873(13) 0.5429(2)
H22 H 0.5089 0.0469 0.6257
C25 C 0.14165(17) 0.28965(14) 0.4724(2)
C26 C -0.03361(19) 0.31449(17) 0.3557(3)
H23 H -0.0401 0.3016 0.4481
H24 H -0.0953 0.2987 0.2681
H25 H -0.0242 0.3701 0.3518
loop_
_geom_bond_atom_site_label_1
_geom_bond_atom_site_label_2
_geom_bond_site_symmetry_1
_geom_bond_site_symmetry_2
O1 C25 1_555 1_555
O2 C3 1_555 1_555
O3 C3 1_555 1_555
O4 C6 1_555 1_555
O5 C25 1_555 1_555
N1 H1 1_555 1_555
C1 C2 1_555 1_555
C2 C3 1_555 1_555
C4 O3 1_555 1_555
H2 C4 1_555 1_555
H3 C4 1_555 1_555
H4 C4 1_555 1_555
C5 N1 1_555 1_555
C6 N1 1_555 1_555
C7 C6 1_555 1_555
C8 C7 1_555 1_555
H5 C8 1_555 1_555
C9 C8 1_555 1_555
H6 C9 1_555 1_555
C10 C9 1_555 1_555
H7 C10 1_555 1_555
C11 C10 1_555 1_555
H8 C11 1_555 1_555
C12 C7 1_555 1_555
H9 C12 1_555 1_555
C13 C5 1_555 1_555
C14 C13 1_555 1_555
H10 C14 1_555 1_555
C15 C1 1_555 1_555
C16 C15 1_555 1_555
H11 C16 1_555 1_555
C17 C16 1_555 1_555
H12 C17 1_555 1_555
H13 C17 1_555 1_555
H14 C17 1_555 1_555
C18 C16 1_555 1_555
H15 C18 1_555 1_555
H16 C18 1_555 1_555
H17 C18 1_555 1_555
C19 C13 1_555 1_555
C20 C19 1_555 1_555
H18 C20 1_555 1_555
C21 C20 1_555 1_555
H19 C21 1_555 1_555
C22 C21 1_555 1_555
H20 C22 1_555 1_555
C23 C22 1_555 1_555
H21 C23 1_555 1_555
C24 C19 1_555 1_555
H22 C24 1_555 1_555
C25 C1 1_555 1_555
C26 O1 1_555 1_555
H23 C26 1_555 1_555
H24 C26 1_555 1_555
H25 C26 1_555 1_555
C2 C5 1_555 1_555
C11 C12 1_555 1_555
C14 C15 1_555 1_555
C23 C24 1_555 1_555

#END
