
#######################################################################
#
#                 Cambridge Crystallographic Data Centre
#                                CCDC 
#
#######################################################################
#
# If this CIF has been generated from an entry in the Cambridge 
# Structural Database, then it will include bibliographic, chemical, 
# crystal, experimental, refinement or atomic coordinate data resulting 
# from the CCDC's data processing and validation procedures.
#
#######################################################################

data_DACWEL
_chemical_formula_moiety         'C12 H16 N2 O3'
_chemical_name_systematic        
N-(2,5-Dimethyl-1,3-dioxo-2,3,3a,4,7,7a-hexahydro-1H-isoindol-4-yl)acetamide
_symmetry_cell_setting           orthorhombic
_symmetry_space_group_name_H-M   'P b c a'
_symmetry_Int_Tables_number      61
_space_group_name_Hall           '-P 2ac 2ab'
loop_
_symmetry_equiv_pos_site_id
_symmetry_equiv_pos_as_xyz
1 x,y,z
2 1/2-x,-y,1/2+z
3 1/2+x,1/2-y,-z
4 -x,1/2+y,1/2-z
5 -x,-y,-z
6 1/2+x,y,1/2-z
7 1/2-x,1/2+y,z
8 x,1/2-y,1/2+z
_cell_length_a                   10.9806(6)
_cell_length_b                   8.1088(4)
_cell_length_c                   26.2218(15)
_cell_angle_alpha                90
_cell_angle_beta                 90
_cell_angle_gamma                90
_cell_volume                     2334.78
_exptl_crystal_colour            colorless
_exptl_crystal_description       platelet
_cell_formula_units_Z            8
loop_
_atom_site_label
_atom_site_type_symbol
_atom_site_fract_x
_atom_site_fract_y
_atom_site_fract_z
O1 O 0.26318(12) 0.11664(15) 0.13571(6)
O2 O 0.01635(13) -0.23344(18) 0.22375(6)
O3 O -0.01271(12) 0.27600(16) -0.01410(5)
N1 N 0.15634(14) -0.05540(19) 0.18895(6)
H1 H 0.192(2) 0.209(2) 0.0653(8)
N2 N 0.11534(15) 0.20211(19) 0.04961(7)
C1 C 0.18060(17) 0.0177(2) 0.14293(8)
C2 C 0.05418(18) -0.1574(2) 0.18731(9)
C3 C 0.00111(16) -0.1515(2) 0.13424(8)
H2 H -0.0015 -0.2650 0.1194
C4 C 0.08965(16) -0.0434(2) 0.10380(8)
H3 H 0.1325 -0.1123 0.0778
C5 C 0.02609(16) 0.1038(2) 0.07721(8)
H4 H -0.0325 0.0579 0.0517
C6 C 0.08888(18) 0.2823(2) 0.00581(8)
C7 C 0.19163(18) 0.3817(2) -0.01690(8)
H5 H 0.1903 0.3708 -0.0541
H6 H 0.2695 0.3408 -0.0038
H7 H 0.1818 0.4980 -0.0076
C8 C -0.04735(16) 0.1967(2) 0.11732(8)
C9 C -0.12228(17) 0.1050(2) 0.14520(8)
H8 H -0.1717 0.1548 0.1707
C10 C -0.12861(16) -0.0781(2) 0.13629(8)
H9 H -0.1713 -0.1005 0.1038
H10 H -0.1753 -0.1310 0.1642
C11 C -0.02764(19) 0.3782(2) 0.12472(9)
H11 H -0.0862 0.4203 0.1498
H12 H -0.0393 0.4355 0.0922
H13 H 0.0554 0.3975 0.1371
C12 C 0.2272(2) -0.0283(4) 0.23508(10)
H14 H 0.296(2) 0.042(3) 0.2281(10)
H15 H 0.260(3) -0.129(4) 0.2454(12)
H16 H 0.177(3) 0.024(4) 0.2639(12)
loop_
_geom_bond_atom_site_label_1
_geom_bond_atom_site_label_2
_geom_bond_site_symmetry_1
_geom_bond_site_symmetry_2
O1 C1 1_555 1_555
O2 C2 1_555 1_555
O3 C6 1_555 1_555
N1 C1 1_555 1_555
H1 N2 1_555 1_555
N2 C5 1_555 1_555
C1 C4 1_555 1_555
C2 N1 1_555 1_555
C3 C2 1_555 1_555
H2 C3 1_555 1_555
C4 C3 1_555 1_555
H3 C4 1_555 1_555
C5 C4 1_555 1_555
H4 C5 1_555 1_555
C6 N2 1_555 1_555
C7 C6 1_555 1_555
H5 C7 1_555 1_555
H6 C7 1_555 1_555
H7 C7 1_555 1_555
C8 C5 1_555 1_555
C9 C8 1_555 1_555
H8 C9 1_555 1_555
C10 C3 1_555 1_555
H9 C10 1_555 1_555
H10 C10 1_555 1_555
C11 C8 1_555 1_555
H11 C11 1_555 1_555
H12 C11 1_555 1_555
H13 C11 1_555 1_555
C12 N1 1_555 1_555
H14 C12 1_555 1_555
H15 C12 1_555 1_555
H16 C12 1_555 1_555
C9 C10 1_555 1_555

#END
