
#######################################################################
#
#                 Cambridge Crystallographic Data Centre
#                                CCDC 
#
#######################################################################
#
# If this CIF has been generated from an entry in the Cambridge 
# Structural Database, then it will include bibliographic, chemical, 
# crystal, experimental, refinement or atomic coordinate data resulting 
# from the CCDC's data processing and validation procedures.
#
#######################################################################

data_DACWUB
_chemical_formula_moiety         'C16 H20 N2 O3'
_chemical_name_systematic        
N-(2,4-Dimethyl-6-nitro-5-phenylcyclohex-2-en-1-yl)acetamide
_symmetry_cell_setting           monoclinic
_symmetry_space_group_name_H-M   'P 21/n'
_symmetry_Int_Tables_number      14
_space_group_name_Hall           '-P 2yn'
loop_
_symmetry_equiv_pos_site_id
_symmetry_equiv_pos_as_xyz
1 x,y,z
2 1/2-x,1/2+y,1/2-z
3 -x,-y,-z
4 1/2+x,1/2-y,1/2+z
_cell_length_a                   11.9261(5)
_cell_length_b                   17.9405(14)
_cell_length_c                   15.2365(11)
_cell_angle_alpha                90
_cell_angle_beta                 96.061(4)
_cell_angle_gamma                90
_cell_volume                     3241.78
_exptl_crystal_colour            colorless
_exptl_crystal_description       prism
_cell_formula_units_Z            8
loop_
_atom_site_label
_atom_site_type_symbol
_atom_site_fract_x
_atom_site_fract_y
_atom_site_fract_z
O1 O 0.54635(10) 0.31492(8) 0.06186(9)
O2 O 0.54363(11) 0.21406(9) -0.01659(9)
O3 O 0.38496(10) 0.18537(8) 0.15176(9)
N1 N 0.58099(12) 0.25248(11) 0.04639(11)
N2 N 0.54416(11) 0.22644(10) 0.22979(10)
C1 C 0.67236(13) 0.21866(11) 0.11005(12)
H1 H 0.7132 0.1807 0.0773
C2 C 0.61704(14) 0.17817(11) 0.18345(11)
H2 H 0.5700 0.1366 0.1557
C3 C 0.43107(14) 0.22638(12) 0.20956(13)
C4 C 0.36529(14) 0.28020(12) 0.25938(13)
H3 H 0.3441 0.3235 0.2221
H4 H 0.4117 0.2966 0.3128
H5 H 0.2971 0.2557 0.2758
C5 C 0.70760(15) 0.14473(11) 0.24771(12)
C6 C 0.81206(15) 0.17101(12) 0.25380(12)
H6 H 0.8659 0.1469 0.2946
C7 C 0.85368(14) 0.23480(12) 0.20300(12)
H7 H 0.9045 0.2137 0.1611
C8 C 0.75769(13) 0.27679(11) 0.14729(11)
H8 H 0.7197 0.3100 0.1878
C9 C 0.80437(13) 0.32543(12) 0.07789(12)
C10 C 0.86277(14) 0.29398(12) 0.01229(12)
H9 H 0.8693 0.2413 0.0084
C11 C 0.91140(15) 0.33910(13) -0.04730(13)
H10 H 0.9517 0.3170 -0.0912
C12 C 0.90184(14) 0.41552(12) -0.04348(13)
H11 H 0.9353 0.4462 -0.0844
C13 C 0.84287(14) 0.44712(12) 0.02059(13)
H12 H 0.8349 0.4997 0.0234
C14 C 0.79528(14) 0.40201(12) 0.08078(13)
H13 H 0.7556 0.4244 0.1249
C15 C 0.92340(17) 0.28823(15) 0.26363(15)
H14 H 0.8756 0.3108 0.3049
H15 H 0.9544 0.3274 0.2284
H16 H 0.9853 0.2610 0.2968
C16 C 0.67084(16) 0.08326(12) 0.30512(12)
H17 H 0.7360 0.0651 0.3438
H18 H 0.6389 0.0423 0.2679
H19 H 0.6137 0.1023 0.3411
H40 H 0.5739(15) 0.2524(12) 0.2774(13)
O4 O 0.07258(9) 0.16777(8) 0.11800(9)
O5 O -0.04969(9) 0.10658(8) 0.03068(9)
O6 O 0.12765(10) 0.18837(8) -0.11633(9)
N3 N 0.04333(12) 0.11294(10) 0.07380(10)
N4 N 0.24196(12) 0.14471(10) 0.00004(11)
C17 C 0.12595(13) 0.05035(11) 0.06886(12)
H20 H 0.0827 0.0038 0.0520
C18 C 0.20030(14) 0.06887(11) -0.00507(12)
H21 H 0.1528 0.0631 -0.0628
C19 C 0.19862(15) 0.20011(12) -0.05232(13)
C20 C 0.24122(15) 0.27657(12) -0.02729(13)
H22 H 0.2711 0.3000 -0.0781
H23 H 0.3012 0.2729 0.0217
H24 H 0.1793 0.3068 -0.0091
C21 C 0.29606(14) 0.01367(12) -0.00343(13)
C22 C 0.32349(14) -0.02998(12) 0.06533(14)
H25 H 0.3836 -0.0641 0.0609
C23 C 0.26920(14) -0.03103(12) 0.14958(13)
H26 H 0.2203 -0.0764 0.1490
C24 C 0.19395(13) 0.03750(11) 0.15829(12)
H27 H 0.2436 0.0818 0.1722
C25 C 0.11840(13) 0.02812(11) 0.23207(13)
C26 C 0.13214(14) 0.07183(12) 0.30700(12)
H28 H 0.1872 0.1103 0.3113
C27 C 0.06696(15) 0.06050(13) 0.37607(13)
H29 H 0.0778 0.0909 0.4273
C28 C -0.01372(16) 0.00494(14) 0.37038(15)
H30 H -0.0579 -0.0033 0.4178
C29 C -0.02974(15) -0.03855(13) 0.29543(15)
H31 H -0.0856 -0.0765 0.2910
C30 C 0.03581(14) -0.02698(12) 0.22619(13)
H32 H 0.0240 -0.0569 0.1746
C31 C 0.35807(16) -0.03675(15) 0.22946(14)
H33 H 0.4037 -0.0817 0.2242
H34 H 0.3206 -0.0396 0.2836
H35 H 0.4069 0.0073 0.2318
C32 C 0.35506(17) 0.01338(14) -0.08586(14)
H36 H 0.4191 -0.0211 -0.0784
H37 H 0.3822 0.0637 -0.0969
H38 H 0.3023 -0.0027 -0.1360
H39 H 0.2902(16) 0.1580(12) 0.0486(13)
loop_
_geom_bond_atom_site_label_1
_geom_bond_atom_site_label_2
_geom_bond_site_symmetry_1
_geom_bond_site_symmetry_2
O1 N1 1_555 1_555
O2 N1 1_555 1_555
O3 C3 1_555 1_555
N1 C1 1_555 1_555
N2 C2 1_555 1_555
C1 H1 1_555 1_555
C2 C1 1_555 1_555
H2 C2 1_555 1_555
C3 N2 1_555 1_555
C4 C3 1_555 1_555
H3 C4 1_555 1_555
H4 C4 1_555 1_555
H5 C4 1_555 1_555
C5 C2 1_555 1_555
C6 C5 1_555 1_555
H6 C6 1_555 1_555
C7 C6 1_555 1_555
H7 C7 1_555 1_555
C8 C1 1_555 1_555
H8 C8 1_555 1_555
C9 C8 1_555 1_555
C10 C9 1_555 1_555
H9 C10 1_555 1_555
C11 C10 1_555 1_555
H10 C11 1_555 1_555
C12 C11 1_555 1_555
H11 C12 1_555 1_555
C13 C12 1_555 1_555
H12 C13 1_555 1_555
C14 C9 1_555 1_555
H13 C14 1_555 1_555
C15 C7 1_555 1_555
H14 C15 1_555 1_555
H15 C15 1_555 1_555
H16 C15 1_555 1_555
C16 C5 1_555 1_555
H17 C16 1_555 1_555
H18 C16 1_555 1_555
H19 C16 1_555 1_555
O4 N3 1_555 1_555
O5 N3 1_555 1_555
O6 C19 1_555 1_555
N3 C17 1_555 1_555
N4 C18 1_555 1_555
C17 H20 1_555 1_555
C18 C17 1_555 1_555
H21 C18 1_555 1_555
C19 N4 1_555 1_555
C20 C19 1_555 1_555
H22 C20 1_555 1_555
H23 C20 1_555 1_555
H24 C20 1_555 1_555
C21 C18 1_555 1_555
C22 C21 1_555 1_555
H25 C22 1_555 1_555
C23 C22 1_555 1_555
H26 C23 1_555 1_555
C24 C17 1_555 1_555
H27 C24 1_555 1_555
C25 C24 1_555 1_555
C26 C25 1_555 1_555
H28 C26 1_555 1_555
C27 C26 1_555 1_555
H29 C27 1_555 1_555
C28 C27 1_555 1_555
H30 C28 1_555 1_555
C29 C28 1_555 1_555
H31 C29 1_555 1_555
C30 C25 1_555 1_555
H32 C30 1_555 1_555
C31 C23 1_555 1_555
H33 C31 1_555 1_555
H34 C31 1_555 1_555
H35 C31 1_555 1_555
C32 C21 1_555 1_555
H36 C32 1_555 1_555
H37 C32 1_555 1_555
H38 C32 1_555 1_555
H39 N4 1_555 1_555
H40 N2 1_555 1_555
C7 C8 1_555 1_555
C13 C14 1_555 1_555
C23 C24 1_555 1_555
C29 C30 1_555 1_555

#END
