
#######################################################################
#
#                 Cambridge Crystallographic Data Centre
#                                CCDC 
#
#######################################################################
#
# If this CIF has been generated from an entry in the Cambridge 
# Structural Database, then it will include bibliographic, chemical, 
# crystal, experimental, refinement or atomic coordinate data resulting 
# from the CCDC's data processing and validation procedures.
#
#######################################################################

data_DACWOV
_chemical_formula_moiety         'C12 H15 Br1 N2 O3'
_chemical_name_systematic        
N-(5-Bromo-2,7-dimethyl-1,3-dioxo-2,3,3a,4,7,7a-hexahydro-1H-isoindol-4-yl)acetamide
_symmetry_cell_setting           monoclinic
_symmetry_space_group_name_H-M   'P 21/c'
_symmetry_Int_Tables_number      14
_space_group_name_Hall           '-P 2ybc'
loop_
_symmetry_equiv_pos_site_id
_symmetry_equiv_pos_as_xyz
1 x,y,z
2 -x,1/2+y,1/2-z
3 -x,-y,-z
4 x,1/2-y,1/2+z
_cell_length_a                   10.8021(12)
_cell_length_b                   10.5357(7)
_cell_length_c                   13.5435(12)
_cell_angle_alpha                90
_cell_angle_beta                 124.200(6)
_cell_angle_gamma                90
_cell_volume                     1274.82
_exptl_crystal_colour            colorless
_exptl_crystal_description       'part of a platelet'
_cell_formula_units_Z            4
loop_
_atom_site_label
_atom_site_type_symbol
_atom_site_fract_x
_atom_site_fract_y
_atom_site_fract_z
Br1 Br 0.24099(4) -0.07933(3) -0.46469(3)
O1 O 0.2388(3) 0.15041(17) -0.26047(19)
O2 O 0.4398(3) -0.29656(18) -0.12003(19)
O3 O 0.0189(3) -0.53765(19) -0.3214(2)
N1 N 0.3299(3) -0.0487(2) -0.2062(2)
H1 H 0.402(4) -0.084(3) -0.176(3)
N2 N 0.2474(3) -0.4385(2) -0.2178(2)
C1 C 0.1342(4) -0.1474(3) -0.4035(3)
C2 C 0.1851(4) -0.1088(2) -0.2777(3)
H2 H 0.1098 -0.0472 -0.2853
C3 C 0.3468(4) 0.0783(3) -0.2054(3)
C4 C 0.5040(4) 0.1270(3) -0.1335(3)
H3 H 0.5249 0.1718 -0.1860
H4 H 0.5735 0.0556 -0.0953
H5 H 0.5167 0.1854 -0.0722
C5 C 0.1800(3) -0.2275(2) -0.2127(3)
H6 H 0.1886 -0.1987 -0.1387
C6 C 0.3075(4) -0.3192(3) -0.1765(3)
C7 C 0.0925(4) -0.4413(3) -0.2809(3)
C8 C 0.0357(3) -0.3077(3) -0.2873(3)
H7 H -0.0182 -0.3067 -0.2468
C9 C -0.0716(3) -0.2571(3) -0.4166(3)
H8 H -0.1162 -0.1773 -0.4096
C10 C 0.0156(4) -0.2186(3) -0.4680(3)
H9 H -0.0151 -0.2454 -0.5455
C11 C -0.2026(4) -0.3445(3) -0.4980(3)
H10 H -0.2729 -0.3010 -0.5736
H11 H -0.2536 -0.3672 -0.4593
H12 H -0.1656 -0.4217 -0.5137
C12 C 0.3404(4) -0.5517(3) -0.1869(3)
H13 H 0.4130 -0.5383 -0.2076
H14 H 0.2768 -0.6246 -0.2314
H15 H 0.3936 -0.5680 -0.1011
loop_
_geom_bond_atom_site_label_1
_geom_bond_atom_site_label_2
_geom_bond_site_symmetry_1
_geom_bond_site_symmetry_2
Br1 C1 1_555 1_555
O1 C3 1_555 1_555
O2 C6 1_555 1_555
O3 C7 1_555 1_555
N1 H1 1_555 1_555
N2 C6 1_555 1_555
C1 C2 1_555 1_555
C2 N1 1_555 1_555
H2 C2 1_555 1_555
C3 N1 1_555 1_555
C4 C3 1_555 1_555
H3 C4 1_555 1_555
H4 C4 1_555 1_555
H5 C4 1_555 1_555
C5 C2 1_555 1_555
H6 C5 1_555 1_555
C6 C5 1_555 1_555
C7 N2 1_555 1_555
C8 C5 1_555 1_555
H7 C8 1_555 1_555
C9 C8 1_555 1_555
H8 C9 1_555 1_555
C10 C1 1_555 1_555
H9 C10 1_555 1_555
C11 C9 1_555 1_555
H10 C11 1_555 1_555
H11 C11 1_555 1_555
H12 C11 1_555 1_555
C12 N2 1_555 1_555
H13 C12 1_555 1_555
H14 C12 1_555 1_555
H15 C12 1_555 1_555
C7 C8 1_555 1_555
C9 C10 1_555 1_555

#END
