
#######################################################################
#
#                 Cambridge Crystallographic Data Centre
#                                CCDC 
#
#######################################################################
#
# If this CIF has been generated from an entry in the Cambridge 
# Structural Database, then it will include bibliographic, chemical, 
# crystal, experimental, refinement or atomic coordinate data resulting 
# from the CCDC's data processing and validation procedures.
#
#######################################################################

data_DACYIQ
_chemical_formula_moiety         'C16 H22 O5'
_chemical_name_systematic        
'Methyl 3-methoxy-3,4-dimethyl-8-oxo-3,3a,5a,6,7,8,8a,8b-octahydro-1H-indeno(4,5-c)furan-7-carboxylate'
_symmetry_cell_setting           orthorhombic
_symmetry_space_group_name_H-M   'P 21 21 21'
_symmetry_Int_Tables_number      19
_space_group_name_Hall           'P 2ac 2ab'
loop_
_symmetry_equiv_pos_site_id
_symmetry_equiv_pos_as_xyz
1 x,y,z
2 1/2-x,-y,1/2+z
3 1/2+x,1/2-y,-z
4 -x,1/2+y,1/2-z
_cell_length_a                   5.74240(10)
_cell_length_b                   10.35470(10)
_cell_length_c                   25.0662(3)
_cell_angle_alpha                90
_cell_angle_beta                 90
_cell_angle_gamma                90
_cell_volume                     1490.46
_exptl_crystal_colour            colorless
_cell_formula_units_Z            4
loop_
_atom_site_label
_atom_site_type_symbol
_atom_site_fract_x
_atom_site_fract_y
_atom_site_fract_z
O1 O 0.4604(3) -0.13143(15) 0.39334(7)
O2 O 0.5079(4) 0.21538(17) 0.48516(7)
O3 O 0.8245(3) -0.15538(14) 0.35582(7)
O4 O 0.3144(3) 0.4774(2) 0.39782(7)
O5 O 0.4777(3) 0.53039(15) 0.47599(6)
C1 C 0.3476(4) -0.00971(19) 0.40178(9)
C2 C 0.5880(4) -0.13053(18) 0.34433(8)
C3 C 0.7919(4) 0.05967(18) 0.29600(7)
C4 C 0.9154(4) 0.15722(18) 0.31643(8)
C5 C 0.7603(4) 0.35492(17) 0.36719(7)
C6 C 0.6719(3) 0.37539(16) 0.42433(7)
C7 C 0.6119(3) 0.23890(17) 0.44420(7)
C8 C 0.8748(5) -0.2800(2) 0.37644(11)
C9 C 0.4799(7) -0.2302(3) 0.30739(13)
C10 C 0.8605(6) -0.0040(2) 0.24412(9)
C11 C 0.4672(3) 0.46533(17) 0.43002(7)
C12 C 0.2859(7) 0.6174(3) 0.4863(1)
C13 C 0.5747(4) 0.01006(18) 0.32318(7)
C14 C 0.8689(3) 0.21816(16) 0.36937(7)
C15 C 0.7014(3) 0.14035(15) 0.40436(7)
C16 C 0.4942(3) 0.08868(17) 0.37168(7)
H1 H 0.3412(4) 0.01169(19) 0.44066(9)
H2 H 0.1861(4) -0.01152(19) 0.38692(9)
H3 H 1.0470(4) 0.19194(18) 0.29459(8)
H4 H 0.8796(4) 0.42126(17) 0.35750(7)
H5 H 0.6291(4) 0.35823(17) 0.34101(7)
H6 H 0.7953(3) 0.41959(16) 0.44577(7)
H7 H 1.0460(5) -0.2874(2) 0.38313(11)
H8 H 0.7884(5) -0.2932(2) 0.41065(11)
H9 H 0.8260(5) -0.3473(2) 0.35006(11)
H10 H 0.3131(7) -0.2076(3) 0.30073(13)
H11 H 0.4893(7) -0.3175(3) 0.32428(13)
H12 H 0.5666(7) -0.2309(3) 0.27279(13)
H13 H 1.0057(6) 0.0378(2) 0.23044(9)
H14 H 0.8895(6) -0.0982(2) 0.25002(9)
H15 H 0.7326(6) 0.0071(2) 0.21743(9)
H16 H 0.3102(7) 0.6610(3) 0.5214(1)
H17 H 0.1365(7) 0.5678(3) 0.4871(1)
H18 H 0.2787(7) 0.6839(3) 0.4574(1)
H19 H 0.4634(4) 0.01731(18) 0.29264(7)
H20 H 1.0302(3) 0.22188(16) 0.38433(7)
H21 H 0.7797(3) 0.06394(15) 0.42090(7)
H22 H 0.4062(3) 0.16916(17) 0.36272(7)
loop_
_geom_bond_atom_site_label_1
_geom_bond_atom_site_label_2
_geom_bond_site_symmetry_1
_geom_bond_site_symmetry_2
O1 C1 1_555 1_555
O2 C7 1_555 1_555
O3 C2 1_555 1_555
O4 C11 1_555 1_555
O5 C11 1_555 1_555
C1 C16 1_555 1_555
C2 O1 1_555 1_555
C3 C4 1_555 1_555
C4 C14 1_555 1_555
C5 C6 1_555 1_555
C6 C7 1_555 1_555
C7 C15 1_555 1_555
C8 O3 1_555 1_555
C9 C2 1_555 1_555
C10 C3 1_555 1_555
C11 C6 1_555 1_555
C12 O5 1_555 1_555
C13 C2 1_555 1_555
C14 C5 1_555 1_555
C15 C14 1_555 1_555
C16 C13 1_555 1_555
H1 C1 1_555 1_555
H2 C1 1_555 1_555
H3 C4 1_555 1_555
H4 C5 1_555 1_555
H5 C5 1_555 1_555
H6 C6 1_555 1_555
H7 C8 1_555 1_555
H8 C8 1_555 1_555
H9 C8 1_555 1_555
H10 C9 1_555 1_555
H11 C9 1_555 1_555
H12 C9 1_555 1_555
H13 C10 1_555 1_555
H14 C10 1_555 1_555
H15 C10 1_555 1_555
H16 C12 1_555 1_555
H17 C12 1_555 1_555
H18 C12 1_555 1_555
H19 C13 1_555 1_555
H20 C14 1_555 1_555
H21 C15 1_555 1_555
H22 C16 1_555 1_555
C3 C13 1_555 1_555
C15 C16 1_555 1_555

#END
