
#######################################################################
#
#                 Cambridge Crystallographic Data Centre
#                                CCDC 
#
#######################################################################
#
# If this CIF has been generated from an entry in the Cambridge 
# Structural Database, then it will include bibliographic, chemical, 
# crystal, experimental, refinement or atomic coordinate data resulting 
# from the CCDC's data processing and validation procedures.
#
#######################################################################

data_DADBES
_chemical_name_common            
'lup-20(29)-ene-3beta,28-diol butan-2-ol solvate'
_chemical_formula_moiety         'C30 H50 O2,C4 H10 O1'
_chemical_name_systematic        'Betulin butan-2-ol solvate'
_chemical_properties_biological  
'Betulin has been shown to possess anti-HIV and anticancer activities'
_symmetry_cell_setting           monoclinic
_symmetry_space_group_name_H-M   'P 21'
_symmetry_Int_Tables_number      4
_space_group_name_Hall           'P 2yb'
loop_
_symmetry_equiv_pos_site_id
_symmetry_equiv_pos_as_xyz
1 x,y,z
2 -x,1/2+y,-z
_cell_length_a                   6.906(4)
_cell_length_b                   12.495(5)
_cell_length_c                   18.480(7)
_cell_angle_alpha                90
_cell_angle_beta                 91.477(10)
_cell_angle_gamma                90
_cell_volume                     1594.12
_exptl_crystal_colour            colorless
_exptl_crystal_description       Prism
_cell_formula_units_Z            2
loop_
_atom_site_label
_atom_site_type_symbol
_atom_site_fract_x
_atom_site_fract_y
_atom_site_fract_z
O1 O 1.7257(5) 1.6878(3) 1.28857(17)
H1 H 1.6430 1.7289 1.3032
O2 O 1.6045(6) 1.2982(3) 0.67632(19)
H2 H 1.6811 1.2484 0.6733
C1 C 1.6304(8) 1.5028(4) 0.9486(3)
C2 C 1.8013(7) 1.5812(4) 1.0673(2)
C3 C 1.7371(8) 1.5648(4) 0.8244(2)
H3 H 1.8147 1.4991 0.8260
C4 C 1.6784(8) 1.5831(4) 0.7447(3)
H4 H 1.5867 1.6430 0.7435
C5 C 1.6099(7) 1.5599(4) 1.1066(3)
H5 H 1.5251 1.6190 1.0912
C6 C 1.5703(8) 1.4855(4) 0.7127(3)
C7 C 1.7034(8) 1.6761(4) 1.2115(2)
H6 H 1.6148 1.7322 1.1940
C8 C 1.7483(7) 1.5955(4) 0.9846(3)
H7 H 1.6608 1.6572 0.9826
C9 C 1.3844(8) 1.4707(4) 0.7532(3)
H8 H 1.3171 1.4080 0.7346
H9 H 1.3015 1.5323 0.7447
C10 C 1.6140(7) 1.5665(4) 1.1902(2)
C11 C 1.4206(8) 1.4574(4) 0.8351(3)
H10 H 1.4770 1.3873 0.8439
H11 H 1.2969 1.4593 0.8587
C12 C 1.8632(8) 1.6534(4) 0.8588(3)
H12 H 1.7928 1.7205 0.8568
H13 H 1.9798 1.6618 0.8312
C13 C 1.5559(7) 1.5435(4) 0.8706(3)
C14 C 1.9197(8) 1.6279(4) 0.9381(3)
H14 H 2.0138 1.5703 0.9389
H15 H 1.9816 1.6904 0.9595
C15 C 1.5100(7) 1.4599(4) 1.0754(3)
H16 H 1.5954 1.3987 1.0816
H17 H 1.3932 1.4457 1.1019
C16 C 1.4584(8) 1.4739(4) 0.9960(3)
H18 H 1.3613 1.5297 0.9910
H19 H 1.4008 1.4080 0.9779
C17 C 1.6927(8) 1.3833(4) 0.7171(3)
H20 H 1.8203 1.3977 0.6987
H21 H 1.7082 1.3615 0.7673
C18 C 1.8870(8) 1.6879(4) 1.0965(3)
H22 H 2.0164 1.6966 1.0781
H23 H 1.8084 1.7466 1.0778
C19 C 1.4068(8) 1.5675(5) 1.2166(3)
H24 H 1.3322 1.6190 1.1892
H25 H 1.4070 1.5863 1.2669
H26 H 1.3505 1.4978 1.2101
C20 C 1.7221(9) 1.4752(4) 1.2290(3)
H27 H 1.6723 1.4078 1.2119
H28 H 1.7041 1.4808 1.2802
H29 H 1.8577 1.4798 1.2192
C21 C 1.8974(8) 1.6950(4) 1.1782(3)
H30 H 1.9891 1.6423 1.1968
H31 H 1.9446 1.7653 1.1923
C22 C 1.8355(9) 1.6093(4) 0.6900(3)
H32 H 1.9499 1.5652 0.7010
C23 C 1.4332(8) 1.6462(4) 0.8754(3)
H33 H 1.3313 1.6353 0.9091
H34 H 1.3779 1.6627 0.8286
H35 H 1.5139 1.7044 0.8917
C24 C 1.7541(8) 1.4001(4) 0.9414(3)
H36 H 1.8824 1.4192 0.9273
H37 H 1.6958 1.3541 0.9054
H38 H 1.7608 1.3635 0.9871
C25 C 2.0848(11) 1.7490(5) 0.6786(3)
H39 H 2.1221 1.8198 0.6720
H40 H 2.1779 1.6952 0.6808
C26 C 1.9573(8) 1.4940(5) 1.0816(3)
H41 H 2.0284 1.5102 1.1255
H42 H 2.0445 1.4922 1.0419
H43 H 1.8957 1.4255 1.0860
C27 C 1.8968(10) 1.7245(4) 0.6849(3)
C28 C 1.7398(10) 1.5703(5) 0.6158(3)
H44 H 1.7202 1.6305 0.5833
H45 H 1.8232 1.5188 0.5927
C29 C 1.7472(17) 1.8092(6) 0.6815(5)
H46 H 1.6480 1.7898 0.6466
H47 H 1.8053 1.8756 0.6676
H48 H 1.6911 1.8171 0.7282
C30 C 1.5452(9) 1.5187(5) 0.6331(3)
H49 H 1.5200 1.4570 0.6024
H50 H 1.4399 1.5694 0.6267
O3 O 1.9163(7) 1.1764(4) 0.6409(2)
H51 H 2.0131 1.1549 0.6630
C31 C 1.9436(12) 1.1661(7) 0.5656(3)
H52 H 2.0483 1.1156 0.5560
C32 C 1.977(4) 1.2652(13) 0.5316(6)
H53 H 1.9819 1.2534 0.4798
H54 H 1.8676 1.3118 0.5402
C33 C 2.146(3) 1.318(2) 0.5541(9)
H55 H 2.1696 1.3770 0.5221
H56 H 2.2533 1.2693 0.5532
H57 H 2.1316 1.3445 0.6024
C34 C 1.734(2) 1.1195(19) 0.5350(6)
H58 H 1.7368 1.0427 0.5358
H59 H 1.7112 1.1438 0.4863
H60 H 1.6326 1.1448 0.5651
loop_
_geom_bond_atom_site_label_1
_geom_bond_atom_site_label_2
_geom_bond_site_symmetry_1
_geom_bond_site_symmetry_2
O1 H1 1_555 1_555
O2 H2 1_555 1_555
C1 C8 1_555 1_555
C2 C5 1_555 1_555
C3 H3 1_555 1_555
C4 C3 1_555 1_555
H4 C4 1_555 1_555
C5 H5 1_555 1_555
C6 C4 1_555 1_555
C7 O1 1_555 1_555
H6 C7 1_555 1_555
C8 C2 1_555 1_555
H7 C8 1_555 1_555
C9 C6 1_555 1_555
H8 C9 1_555 1_555
H9 C9 1_555 1_555
C10 C5 1_555 1_555
C11 C9 1_555 1_555
H10 C11 1_555 1_555
H11 C11 1_555 1_555
C12 C3 1_555 1_555
H12 C12 1_555 1_555
H13 C12 1_555 1_555
C13 C1 1_555 1_555
C14 C8 1_555 1_555
H14 C14 1_555 1_555
H15 C14 1_555 1_555
C15 C5 1_555 1_555
H16 C15 1_555 1_555
H17 C15 1_555 1_555
C16 C1 1_555 1_555
H18 C16 1_555 1_555
H19 C16 1_555 1_555
C17 O2 1_555 1_555
H20 C17 1_555 1_555
H21 C17 1_555 1_555
C18 C2 1_555 1_555
H22 C18 1_555 1_555
H23 C18 1_555 1_555
C19 C10 1_555 1_555
H24 C19 1_555 1_555
H25 C19 1_555 1_555
H26 C19 1_555 1_555
C20 C10 1_555 1_555
H27 C20 1_555 1_555
H28 C20 1_555 1_555
H29 C20 1_555 1_555
C21 C7 1_555 1_555
H30 C21 1_555 1_555
H31 C21 1_555 1_555
C22 C4 1_555 1_555
H32 C22 1_555 1_555
C23 C13 1_555 1_555
H33 C23 1_555 1_555
H34 C23 1_555 1_555
H35 C23 1_555 1_555
C24 C1 1_555 1_555
H36 C24 1_555 1_555
H37 C24 1_555 1_555
H38 C24 1_555 1_555
C25 H39 1_555 1_555
H40 C25 1_555 1_555
C26 C2 1_555 1_555
H41 C26 1_555 1_555
H42 C26 1_555 1_555
H43 C26 1_555 1_555
C27 C22 1_555 1_555
C28 C22 1_555 1_555
H44 C28 1_555 1_555
H45 C28 1_555 1_555
C29 C27 1_555 1_555
H46 C29 1_555 1_555
H47 C29 1_555 1_555
H48 C29 1_555 1_555
C30 C6 1_555 1_555
H49 C30 1_555 1_555
H50 C30 1_555 1_555
O3 H51 1_555 1_555
C31 O3 1_555 1_555
H52 C31 1_555 1_555
C32 C31 1_555 1_555
H53 C32 1_555 1_555
H54 C32 1_555 1_555
C33 C32 1_555 1_555
H55 C33 1_555 1_555
H56 C33 1_555 1_555
H57 C33 1_555 1_555
C34 C31 1_555 1_555
H58 C34 1_555 1_555
H59 C34 1_555 1_555
H60 C34 1_555 1_555
C3 C13 1_555 1_555
C6 C17 1_555 1_555
C7 C10 1_555 1_555
C11 C13 1_555 1_555
C12 C14 1_555 1_555
C15 C16 1_555 1_555
C18 C21 1_555 1_555
C25 C27 1_555 1_555
C28 C30 1_555 1_555

#END
