
#######################################################################
#
#                 Cambridge Crystallographic Data Centre
#                                CCDC 
#
#######################################################################
#
# If this CIF has been generated from an entry in the Cambridge 
# Structural Database, then it will include bibliographic, chemical, 
# crystal, experimental, refinement or atomic coordinate data resulting 
# from the CCDC's data processing and validation procedures.
#
#######################################################################

data_DADGUK01
_chemical_formula_moiety         'C7 H13 N1 O3 S1'
_chemical_name_systematic        N-Acetyl-(DL)-methionine
_chemical_properties_biological  'isomer of lipotropic agent'
_symmetry_cell_setting           monoclinic
_symmetry_space_group_name_H-M   'P 21/c'
_symmetry_Int_Tables_number      14
_space_group_name_Hall           '-P 2ybc'
loop_
_symmetry_equiv_pos_site_id
_symmetry_equiv_pos_as_xyz
1 x,y,z
2 -x,1/2+y,1/2-z
3 -x,-y,-z
4 x,1/2-y,1/2+z
_cell_length_a                   5.8849(6)
_cell_length_b                   9.290(1)
_cell_length_c                   18.024(2)
_cell_angle_alpha                90
_cell_angle_beta                 92.51(1)
_cell_angle_gamma                90
_cell_volume                     984.44
_exptl_crystal_colour            colorless
_cell_formula_units_Z            4
loop_
_atom_site_label
_atom_site_type_symbol
_atom_site_fract_x
_atom_site_fract_y
_atom_site_fract_z
O1 O 1.2008(3) 0.1175(2) 0.6177(1)
O2 O 0.9205(3) 0.0519(2) 0.6884(1)
C1 C 1.0063(4) 0.1265(2) 0.6354(1)
C2 C 0.8333(4) 0.2230(3) 0.5948(1)
C3 C 0.7456(5) 0.1468(3) 0.5245(1)
C4 C 0.5937(6) 0.2393(3) 0.4729(2)
S1 S 0.7211(2) 0.4013(1) 0.4399
C5 C 0.9530(10) 0.3337(5) 0.3918(3)
N1 N 0.6453(4) 0.2617(2) 0.6399(1)
C6 C 0.6769(5) 0.3417(3) 0.7007(1)
O3 O 0.8690(3) 0.3876(2) 0.7185(1)
C7 C 0.4762(6) 0.3700(5) 0.7455(2)
loop_
_geom_bond_atom_site_label_1
_geom_bond_atom_site_label_2
_geom_bond_site_symmetry_1
_geom_bond_site_symmetry_2
O1 C1 1_555 1_555
O2 C1 1_555 1_555
C1 C2 1_555 1_555
C2 C3 1_555 1_555
C3 C4 1_555 1_555
C4 S1 1_555 1_555
S1 C5 1_555 1_555
N1 C2 1_555 1_555
C6 N1 1_555 1_555
O3 C6 1_555 1_555
C7 C6 1_555 1_555

#END
