
#######################################################################
#
#                 Cambridge Crystallographic Data Centre
#                                CCDC 
#
#######################################################################
#
# If this CIF has been generated from an entry in the Cambridge 
# Structural Database, then it will include bibliographic, chemical, 
# crystal, experimental, refinement or atomic coordinate data resulting 
# from the CCDC's data processing and validation procedures.
#
#######################################################################

data_DADQOQ
_chemical_formula_moiety         'C11 H12 Br2 N2 O4'
_chemical_name_systematic        
'Ethyl (2,2-dibromo-2-nitro-1-phenylethyl)carbamate'
_symmetry_cell_setting           orthorhombic
_symmetry_space_group_name_H-M   'P n a 21'
_symmetry_Int_Tables_number      33
_space_group_name_Hall           'P 2c -2n'
loop_
_symmetry_equiv_pos_site_id
_symmetry_equiv_pos_as_xyz
1 x,y,z
2 -x,-y,1/2+z
3 1/2+x,1/2-y,z
4 1/2-x,1/2+y,1/2+z
_cell_length_a                   16.4625(6)
_cell_length_b                   10.7251(4)
_cell_length_c                   16.8253(6)
_cell_angle_alpha                90
_cell_angle_beta                 90
_cell_angle_gamma                90
_cell_volume                     2970.71
_exptl_crystal_colour            colorless
_exptl_crystal_description       block
_cell_formula_units_Z            8
loop_
_atom_site_label
_atom_site_type_symbol
_atom_site_fract_x
_atom_site_fract_y
_atom_site_fract_z
Br1 Br -0.07915(9) 0.19626(12) 0.72154(8)
Br2 Br 0.08611(6) 0.25868(9) 0.80754(6)
C1 C 0.1243(6) 0.3571(8) 0.5387(5)
H1 H 0.1786 0.3410 0.5273
C2 C 0.0690(7) 0.3515(9) 0.4801(5)
H2 H 0.0851 0.3351 0.4281
C3 C -0.0118(7) 0.3702(10) 0.4977(6)
H3 H -0.0509 0.3619 0.4581
C4 C -0.0349(6) 0.4011(9) 0.5738(5)
H4 H -0.0891 0.4188 0.5846
C5 C 0.0215(5) 0.4061(7) 0.6342(4)
C6 C 0.1024(5) 0.3862(7) 0.6151(5)
H5 H 0.1420 0.3927 0.6543
C7 C -0.0068(4) 0.4378(6) 0.7182(4)
H6 H -0.0614 0.4734 0.7129
C8 C -0.0151(5) 0.3249(7) 0.7718(5)
C9 C 0.0148(5) 0.6464(7) 0.7701(4)
C10 C 0.0520(7) 0.8459(8) 0.8177(6)
H7 H 0.0016 0.8508 0.8473
H8 H 0.0450 0.8910 0.7681
C11 C 0.1169(9) 0.9012(10) 0.8631(8)
H9 H 0.1269 0.8518 0.9096
H10 H 0.1018 0.9841 0.8786
H11 H 0.1653 0.9044 0.8312
N1 N -0.0658(5) 0.3684(7) 0.8537(6)
N2 N 0.0423(3) 0.5316(5) 0.7574(3)
H23 H 0.0905 0.5125 0.7729
O1 O 0.0714(3) 0.7181(4) 0.8015(3)
O2 O -0.0542(4) 0.6810(5) 0.7576(4)
O3 O -0.0472(5) 0.3406(11) 0.9056(5)
O4 O -0.1256(5) 0.4209(9) 0.8321(4)
Br3 Br 0.25100(6) 0.64475(9) 0.47030(6)
Br4 Br 0.40250(5) 0.76979(8) 0.55286(5)
C12 C 0.1418(7) 1.0283(13) 0.6327(7)
H12 H 0.1157 1.1050 0.6290
C13 C 0.2166(7) 1.0194(10) 0.6683(6)
H13 H 0.2402 1.0899 0.6906
C14 C 0.2569(5) 0.9071(8) 0.6711(5)
H14 H 0.3078 0.9019 0.6949
C15 C 0.2215(4) 0.8018(7) 0.6385(4)
C16 C 0.1458(5) 0.8123(10) 0.6057(5)
H15 H 0.1209 0.7416 0.5850
C17 C 0.1060(6) 0.9230(14) 0.6026(7)
H16 H 0.0545 0.9274 0.5801
C18 C 0.2630(4) 0.6777(8) 0.6404(4)
H17 H 0.2199 0.6147 0.6401
C19 C 0.3156(4) 0.6525(7) 0.5665(4)
C20 C 0.2826(4) 0.5757(7) 0.7674(4)
C21 C 0.3081(6) 0.4992(11) 0.8968(5)
H18 H 0.3548 0.4867 0.9310
H19 H 0.2918 0.4184 0.8762
C22 C 0.2407(6) 0.5524(13) 0.9439(6)
H20 H 0.2552 0.6345 0.9616
H21 H 0.2303 0.5002 0.9891
H22 H 0.1927 0.5570 0.9116
N3 N 0.3543(4) 0.5139(6) 0.5745(3)
N4 N 0.3113(3) 0.6541(5) 0.7110(3)
H24 H 0.3578 0.6896 0.7169
O5 O 0.2234(3) 0.5114(5) 0.7617(3)
O6 O 0.3310(3) 0.5790(5) 0.8312(3)
O7 O 0.3063(5) 0.4399(6) 0.5930(4)
O8 O 0.4201(4) 0.5009(7) 0.5570(7)
loop_
_geom_bond_atom_site_label_1
_geom_bond_atom_site_label_2
_geom_bond_site_symmetry_1
_geom_bond_site_symmetry_2
Br1 C8 1_555 1_555
Br2 C8 1_555 1_555
Br3 C19 1_555 1_555
Br4 C19 1_555 1_555
C1 H1 1_555 1_555
C2 C1 1_555 1_555
H2 C2 1_555 1_555
C3 C2 1_555 1_555
H3 C3 1_555 1_555
C4 C3 1_555 1_555
H4 C4 1_555 1_555
C5 C4 1_555 1_555
C6 C1 1_555 1_555
H5 C6 1_555 1_555
C7 C5 1_555 1_555
H6 C7 1_555 1_555
C8 C7 1_555 1_555
C9 N2 1_555 1_555
C10 H7 1_555 1_555
H8 C10 1_555 1_555
C11 C10 1_555 1_555
H9 C11 1_555 1_555
H10 C11 1_555 1_555
H11 C11 1_555 1_555
C12 H12 1_555 1_555
C13 C12 1_555 1_555
H13 C13 1_555 1_555
C14 C13 1_555 1_555
H14 C14 1_555 1_555
C15 C14 1_555 1_555
C16 C15 1_555 1_555
H15 C16 1_555 1_555
C17 C12 1_555 1_555
H16 C17 1_555 1_555
C18 C15 1_555 1_555
H17 C18 1_555 1_555
C19 C18 1_555 1_555
C20 N4 1_555 1_555
C21 H18 1_555 1_555
H19 C21 1_555 1_555
C22 C21 1_555 1_555
H20 C22 1_555 1_555
H21 C22 1_555 1_555
H22 C22 1_555 1_555
N1 C8 1_555 1_555
N2 C7 1_555 1_555
H23 N2 1_555 1_555
N3 C19 1_555 1_555
N4 C18 1_555 1_555
H24 N4 1_555 1_555
O1 C9 1_555 1_555
O2 C9 1_555 1_555
O3 N1 1_555 1_555
O4 N1 1_555 1_555
O5 C20 1_555 1_555
O6 C20 1_555 1_555
O7 N3 1_555 1_555
O8 N3 1_555 1_555
C5 C6 1_555 1_555
C10 O1 1_555 1_555
C16 C17 1_555 1_555
C21 O6 1_555 1_555

#END
