
#######################################################################
#
#                 Cambridge Crystallographic Data Centre
#                                CCDC 
#
#######################################################################
#
# If this CIF has been generated from an entry in the Cambridge 
# Structural Database, then it will include bibliographic, chemical, 
# crystal, experimental, refinement or atomic coordinate data resulting 
# from the CCDC's data processing and validation procedures.
#
#######################################################################

data_DADZUE
_chemical_formula_moiety         'C18 H10 Cl2 O2'
_chemical_name_systematic        
1,4-Dichloro-trans-9,10-diethynyl-9,10-dihydroanthracene-9,10-diol
_symmetry_cell_setting           triclinic
_symmetry_space_group_name_H-M   'P -1'
_symmetry_Int_Tables_number      2
_space_group_name_Hall           '-P 1'
loop_
_symmetry_equiv_pos_site_id
_symmetry_equiv_pos_as_xyz
1 x,y,z
2 -x,-y,-z
_cell_length_a                   6.7496(4)
_cell_length_b                   7.2021(4)
_cell_length_c                   15.5160(8)
_cell_angle_alpha                76.992(2)
_cell_angle_beta                 87.075(2)
_cell_angle_gamma                74.353(2)
_cell_volume                     707.626
_exptl_crystal_colour            yellow
_exptl_crystal_description       prism
_chemical_melting_point          'decomposes at 553-554 K'
_cell_formula_units_Z            2
_exptl_crystal_recrystallization_method ethanol/benzene
loop_
_atom_site_label
_atom_site_type_symbol
_atom_site_fract_x
_atom_site_fract_y
_atom_site_fract_z
O1 O 0.2701(7) 0.4302(7) 0.0910(3)
H1 H 0.2564 0.5274 0.0480
O2 O 0.3052(7) 0.4559(7) 0.4273(3)
H2 H 0.2380 0.5487 0.4502
Cl1 Cl 0.2889(3) 0.8576(3) 0.02355(10)
Cl2 Cl -0.0243(2) 0.8377(2) 0.40859(10)
C1 C 0.2020(10) 0.8347(10) 0.1329(4)
C2 C 0.0920(10) 1.0097(10) 0.1554(4)
H3 H 0.0649 1.1309 0.1125
C3 C 0.0227(10) 1.0055(10) 0.2407(4)
H4 H -0.0526 1.1237 0.2574
C4 C 0.0639(10) 0.8279(10) 0.3012(4)
C5 C 0.1710(10) 0.6467(9) 0.2800(4)
C6 C 0.1976(10) 0.4535(9) 0.3501(4)
C7 C 0.3264(9) 0.2702(10) 0.3200(4)
C8 C 0.3661(10) 0.0888(10) 0.3837(4)
H5 H 0.3160 0.0854 0.4422
C9 C 0.4781(10) -0.0829(10) 0.3601(5)
H6 H 0.5066 -0.2044 0.4028
C10 C 0.5496(10) -0.0793(10) 0.2737(5)
H7 H 0.6237 -0.1984 0.2575
C11 C 0.5127(10) 0.0973(10) 0.2121(5)
H8 H 0.5630 0.0996 0.1537
C12 C 0.4009(10) 0.2744(9) 0.2352(4)
C13 C 0.3723(10) 0.4649(10) 0.1637(4)
C14 C 0.2443(9) 0.6514(9) 0.1941(4)
C15 C 0.5800(11) 0.4916(10) 0.1388(4)
C16 C 0.7497(11) 0.5070(11) 0.1245(4)
H9 H 0.8857 0.5193 0.1130
C17 C -0.0120(10) 0.4246(10) 0.3716(4)
C18 C -0.1782(10) 0.3987(10) 0.3821(4)
H10 H -0.3116 0.3779 0.3904
loop_
_geom_bond_atom_site_label_1
_geom_bond_atom_site_label_2
_geom_bond_site_symmetry_1
_geom_bond_site_symmetry_2
O1 H1 1_555 1_555
O2 H2 1_555 1_555
Cl1 C1 1_555 1_555
Cl2 C4 1_555 1_555
C1 C2 1_555 1_555
C2 H3 1_555 1_555
C3 C2 1_555 1_555
H4 C3 1_555 1_555
C4 C3 1_555 1_555
C5 C4 1_555 1_555
C6 O2 1_555 1_555
C7 C6 1_555 1_555
C8 C7 1_555 1_555
H5 C8 1_555 1_555
C9 C8 1_555 1_555
H6 C9 1_555 1_555
C10 C9 1_555 1_555
H7 C10 1_555 1_555
C11 C10 1_555 1_555
H8 C11 1_555 1_555
C12 C7 1_555 1_555
C13 O1 1_555 1_555
C14 C1 1_555 1_555
C15 C13 1_555 1_555
C16 C15 1_555 1_555
H9 C16 1_555 1_555
C17 C6 1_555 1_555
C18 C17 1_555 1_555
H10 C18 1_555 1_555
C5 C6 1_555 1_555
C5 C14 1_555 1_555
C11 C12 1_555 1_555
C12 C13 1_555 1_555
C13 C14 1_555 1_555

#END
