
#######################################################################
#
#                 Cambridge Crystallographic Data Centre
#                                CCDC 
#
#######################################################################
#
# If this CIF has been generated from an entry in the Cambridge 
# Structural Database, then it will include bibliographic, chemical, 
# crystal, experimental, refinement or atomic coordinate data resulting 
# from the CCDC's data processing and validation procedures.
#
#######################################################################

data_DADZEO
_chemical_formula_moiety         'C18 H11 Cl1 O2'
_chemical_name_systematic        
1-Chloro-trans-9,10-diethynyl-9,10-dihydroanthracene-9,10-diol
_symmetry_cell_setting           triclinic
_symmetry_space_group_name_H-M   'P -1'
_symmetry_Int_Tables_number      2
_space_group_name_Hall           '-P 1'
loop_
_symmetry_equiv_pos_site_id
_symmetry_equiv_pos_as_xyz
1 x,y,z
2 -x,-y,-z
_cell_length_a                   8.4500(17)
_cell_length_b                   9.2334(18)
_cell_length_c                   14.108(3)
_cell_angle_alpha                84.52(3)
_cell_angle_beta                 89.85(3)
_cell_angle_gamma                73.53(3)
_cell_volume                     1050.4
_exptl_crystal_colour            colorless
_exptl_crystal_description       plate
_chemical_melting_point          '437 K'
_cell_formula_units_Z            3
_exptl_crystal_recrystallization_method ethanol/benzene
loop_
_atom_site_label
_atom_site_type_symbol
_atom_site_fract_x
_atom_site_fract_y
_atom_site_fract_z
O3 O 0.09883(16) 0.27364(16) 0.63819(9)
H12 H 0.031(3) 0.329(3) 0.6659(18)
C19 C 0.3168(2) 0.4668(3) 0.58629(14)
H13 H 0.3784 0.3720 0.6138
C20 C 0.3795(2) 0.5888(3) 0.58819(15)
H14 H 0.4815 0.5763 0.6177
C21 C 0.2917(3) 0.7293(3) 0.54620(16)
H15 H 0.3346 0.8116 0.5462
C22 C 0.1389(2) 0.7473(3) 0.50416(14)
H16 H 0.0772 0.8452 0.4750
C23 C 0.0992(2) 0.3432(2) 0.54306(12)
C24 C 0.1613(2) 0.4824(2) 0.54359(11)
C25 C -0.0723(2) 0.3748(2) 0.49664(12)
C26 C 0.2162(2) 0.2302(2) 0.48852(13)
C27 C 0.3041(2) 0.1484(3) 0.43857(15)
H17 H 0.367(3) 0.084(3) 0.3994(18)
C25A C 0.0723(2) 0.6252(2) 0.50336(12)
C23A C -0.0992(2) 0.6568(2) 0.45694(12)
O3A O -0.09883(16) 0.72636(16) 0.36181(9)
H12A H -0.031(3) 0.671(3) 0.3341(18)
C24A C -0.1613(2) 0.5176(2) 0.45641(11)
C19A C -0.3168(2) 0.5332(3) 0.41371(14)
H13A H -0.3784 0.6280 0.3862
C20A C -0.3795(2) 0.4112(3) 0.41181(15)
H14A H -0.4815 0.4237 0.3823
C21A C -0.2917(3) 0.2707(3) 0.45380(16)
H15A H -0.3346 0.1884 0.4538
C22A C -0.1389(2) 0.2527(3) 0.49584(14)
H16A H -0.0772 0.1548 0.5250
C26A C -0.2162(2) 0.7698(2) 0.51148(13)
C27A C -0.3041(2) 0.8516(3) 0.56143(15)
H17A H -0.367(3) 0.916(3) 0.6006(18)
Cl1 Cl 0.26789(5) 0.81766(6) 0.96342(3)
O1 O 0.61341(16) 0.86444(14) 0.96966(9)
O2 O 0.83428(15) 0.50605(15) 0.69912(8)
H1 H 0.794(3) 0.591(3) 0.6594(19)
C1 C 0.39926(19) 0.67088(19) 0.90786(11)
C2 C 0.3476(2) 0.5427(2) 0.90228(12)
H2 H 0.2471 0.5375 0.9272
C3 C 0.4466(2) 0.4221(2) 0.85920(13)
H3 H 0.4113 0.3367 0.8530
C4 C 0.5983(2) 0.42858(19) 0.82520(12)
H4 H 0.6658 0.3461 0.7977
C5 C 1.0174(2) 0.7083(2) 0.75500(12)
H5 H 1.0878 0.6229 0.7319
C6 C 1.0610(2) 0.8420(2) 0.75027(13)
H6 H 1.1606 0.8466 0.7237
C7 C 0.9565(2) 0.9697(2) 0.78525(14)
H7 H 0.9853 1.0601 0.7817
C8 C 0.8093(2) 0.9623(2) 0.82490(14)
H8 H 0.7397 1.0476 0.8487
C9 C 0.59802(19) 0.83010(18) 0.87356(11)
C10 C 0.82342(19) 0.55200(19) 0.79516(11)
C11 C 0.55093(18) 0.68267(18) 0.87133(11)
C12 C 0.65152(18) 0.55764(18) 0.83175(11)
C13 C 0.76350(19) 0.82709(19) 0.82987(11)
C14 C 0.86697(19) 0.70056(19) 0.79491(11)
C15 C 0.4705(2) 0.9529(2) 0.81769(13)
C16 C 0.3722(2) 1.0476(2) 0.76876(16)
H9 H 0.286(3) 1.123(3) 0.7288(19)
C17 C 0.94699(19) 0.42944(19) 0.85286(12)
C18 C 1.0455(2) 0.3323(2) 0.90019(14)
H10 H 1.123(3) 0.260(3) 0.9361(16)
H11 H 0.535(3) 0.874(3) 0.994(2)
Cl2? Cl 0.6951(8) 0.2960(7) 0.7538(5)
Cl3? Cl 0.45333(14) 0.30006(15) 0.63056(9)
Cl4? Cl 0.0694(4) 0.8991(3) 0.4566(2)
loop_
_geom_bond_atom_site_label_1
_geom_bond_atom_site_label_2
_geom_bond_site_symmetry_1
_geom_bond_site_symmetry_2
Cl1 C1 1_555 1_555
O1 C9 1_555 1_555
O2 H1 1_555 1_555
C1 C2 1_555 1_555
C2 H2 1_555 1_555
C3 C2 1_555 1_555
H3 C3 1_555 1_555
C4 C3 1_555 1_555
H4 C4 1_555 1_555
C5 H5 1_555 1_555
C6 C5 1_555 1_555
H6 C6 1_555 1_555
C7 C6 1_555 1_555
H7 C7 1_555 1_555
C8 C7 1_555 1_555
H8 C8 1_555 1_555
C9 C11 1_555 1_555
C10 O2 1_555 1_555
C11 C1 1_555 1_555
C12 C4 1_555 1_555
C13 C8 1_555 1_555
C14 C5 1_555 1_555
C15 C9 1_555 1_555
C16 C15 1_555 1_555
H9 C16 1_555 1_555
C17 C10 1_555 1_555
C18 C17 1_555 1_555
H10 C18 1_555 1_555
H11 O1 1_555 1_555
O3 H12 1_555 1_555
C19 H13 1_555 1_555
C20 C19 1_555 1_555
H14 C20 1_555 1_555
C21 C20 1_555 1_555
H15 C21 1_555 1_555
C22 C21 1_555 1_555
H16 C22 1_555 1_555
C23 O3 1_555 1_555
C24 C19 1_555 1_555
C25 C23 1_555 1_555
C26 C23 1_555 1_555
C27 C26 1_555 1_555
H17 C27 1_555 1_555
C25A C22 1_555 1_555
C23A C25A 1_555 1_555
O3A C23A 1_555 1_555
H12A O3A 1_555 1_555
C24A C25 1_555 1_555
C19A C24A 1_555 1_555
H13A C19A 1_555 1_555
C20A C19A 1_555 1_555
H14A C20A 1_555 1_555
C21A C20A 1_555 1_555
H15A C21A 1_555 1_555
C22A C25 1_555 1_555
H16A C22A 1_555 1_555
C26A C23A 1_555 1_555
C27A C26A 1_555 1_555
H17A C27A 1_555 1_555
C9 C13 1_555 1_555
C10 C12 1_555 1_555
C10 C14 1_555 1_555
C11 C12 1_555 1_555
C13 C14 1_555 1_555
C23 C24 1_555 1_555
C24 C25A 1_555 1_555
C23A C24A 1_555 1_555
C21A C22A 1_555 1_555

#END
