
#######################################################################
#
#                 Cambridge Crystallographic Data Centre
#                                CCDC 
#
#######################################################################
#
# If this CIF has been generated from an entry in the Cambridge 
# Structural Database, then it will include bibliographic, chemical, 
# crystal, experimental, refinement or atomic coordinate data resulting 
# from the CCDC's data processing and validation procedures.
#
#######################################################################

data_DADZOY
_chemical_formula_moiety         'C16 H8 Cl2 O2'
_chemical_name_systematic        
1,5-Dichloro-10-ethynyl-10-hydroxy-9,10-dihydroanthracene-9-one
_symmetry_cell_setting           monoclinic
_symmetry_space_group_name_H-M   'P 21/n'
_symmetry_Int_Tables_number      14
_space_group_name_Hall           '-P 2yn'
loop_
_symmetry_equiv_pos_site_id
_symmetry_equiv_pos_as_xyz
1 x,y,z
2 1/2+x,1/2-y,1/2+z
3 -x,-y,-z
4 1/2-x,1/2+y,1/2-z
_cell_length_a                   7.2693(2)
_cell_length_b                   11.5276(3)
_cell_length_c                   15.4191(4)
_cell_angle_alpha                90
_cell_angle_beta                 98.7750(10)
_cell_angle_gamma                90
_cell_volume                     1276.96
_exptl_crystal_colour            colorless
_exptl_crystal_description       plate
_chemical_melting_point          '470 K'
_cell_formula_units_Z            4
_exptl_crystal_recrystallization_method chloroform/benzene
loop_
_atom_site_label
_atom_site_type_symbol
_atom_site_fract_x
_atom_site_fract_y
_atom_site_fract_z
Cl1 Cl 0.25008(6) 0.44424(4) 0.39359(3)
Cl2 Cl 1.08912(5) 0.08484(4) 0.69102(3)
O1 O 0.80103(17) 0.26703(11) 0.71176(7)
C1 C 0.4839(2) 0.31937(13) 0.51786(10)
O2 O 0.52829(16) 0.27488(11) 0.37233(7)
C2 C 0.8372(2) 0.19326(13) 0.56735(10)
C3 C 0.7801(2) 0.22778(14) 0.48038(10)
C4 C 0.7075(2) 0.20885(14) 0.63610(9)
C5 C 0.5381(2) 0.28523(13) 0.60519(10)
C6 C 0.5910(2) 0.27552(14) 0.45022(10)
C7 C 0.8959(2) 0.21316(15) 0.41686(11)
C8 C 1.0687(2) 0.16274(16) 0.43894(12)
C9 C 1.1262(2) 0.12444(16) 0.52366(12)
C10 C 0.3278(2) 0.39261(15) 0.49867(10)
C11 C 1.0106(2) 0.13971(14) 0.58679(11)
C12 C 0.2288(2) 0.42871(16) 0.56385(12)
C13 C 0.5853(2) 0.00059(17) 0.67400(12)
C14 C 0.4342(2) 0.31889(15) 0.66968(11)
C15 C 0.6395(2) 0.09264(14) 0.65749(10)
C16 C 0.2798(2) 0.38943(17) 0.64870(12)
H1 H 0.855(2) 0.2419(17) 0.3589(12)
H2 H 1.143(3) 0.1525(18) 0.3934(13)
H3 H 1.233(3) 0.0852(16) 0.5399(12)
H4 H 0.473(3) 0.2922(16) 0.7261(13)
H5 H 0.128(3) 0.4793(17) 0.5486(12)
H6 H 0.208(3) 0.4156(18) 0.6971(14)
H7 H 0.856(3) 0.223(2) 0.7399(14)
H8 H 0.548(3) -0.071(2) 0.6888(15)
loop_
_geom_bond_atom_site_label_1
_geom_bond_atom_site_label_2
_geom_bond_site_symmetry_1
_geom_bond_site_symmetry_2
Cl1 C10 1_555 1_555
Cl2 C11 1_555 1_555
O1 C4 1_555 1_555
C1 C5 1_555 1_555
O2 C6 1_555 1_555
C2 C3 1_555 1_555
C3 C6 1_555 1_555
C4 C2 1_555 1_555
C5 C4 1_555 1_555
C6 C1 1_555 1_555
C7 C3 1_555 1_555
C8 C7 1_555 1_555
C9 C8 1_555 1_555
C10 C1 1_555 1_555
C11 C2 1_555 1_555
C12 C10 1_555 1_555
C13 C15 1_555 1_555
C14 C5 1_555 1_555
C15 C4 1_555 1_555
C16 C12 1_555 1_555
H1 C7 1_555 1_555
H2 C8 1_555 1_555
H3 C9 1_555 1_555
H4 C14 1_555 1_555
H5 C12 1_555 1_555
H6 C16 1_555 1_555
H7 O1 1_555 1_555
H8 C13 1_555 1_555
C9 C11 1_555 1_555
C14 C16 1_555 1_555

#END
