
#######################################################################
#
#                 Cambridge Crystallographic Data Centre
#                                CCDC 
#
#######################################################################
#
# If this CIF has been generated from an entry in the Cambridge 
# Structural Database, then it will include bibliographic, chemical, 
# crystal, experimental, refinement or atomic coordinate data resulting 
# from the CCDC's data processing and validation procedures.
#
#######################################################################

data_DADZAM
_chemical_formula_moiety         'C17 H19 N3 O6 S1'
_chemical_name_systematic        
2-((2-(3,4,5-trimethoxybenzylidene)hydrazino)carbonyl)benzenesulfonamide
_symmetry_cell_setting           orthorhombic
_symmetry_space_group_name_H-M   'P 21 21 21'
_symmetry_Int_Tables_number      19
_space_group_name_Hall           'P 2ac 2ab'
loop_
_symmetry_equiv_pos_site_id
_symmetry_equiv_pos_as_xyz
1 x,y,z
2 1/2-x,-y,1/2+z
3 1/2+x,1/2-y,-z
4 -x,1/2+y,1/2-z
_cell_length_a                   7.9021(7)
_cell_length_b                   8.6475(6)
_cell_length_c                   27.018(2)
_cell_angle_alpha                90
_cell_angle_beta                 90
_cell_angle_gamma                90
_cell_volume                     1846.23
_cell_formula_units_Z            4
loop_
_atom_site_label
_atom_site_type_symbol
_atom_site_fract_x
_atom_site_fract_y
_atom_site_fract_z
S1 S 0.06825(7) 0.50394(7) 0.016111(19)
O1 O 0.96317(17) 1.01371(17) -0.26875(5)
O2 O 0.7758(2) 0.8315(2) -0.32463(6)
C1 C -0.0769(2) 0.5159(2) -0.03416(7)
O3 O 0.8966(2) 1.0595(2) -0.17293(6)
O4 O 0.1778(2) 0.7748(2) -0.05461(6)
N1 N 0.3366(2) 0.7499(2) -0.14305(7)
C2 C 0.5823(3) 0.7766(2) -0.25624(8)
H1 H 0.5142 0.7128 -0.2755
C3 C -0.0374(2) 0.5935(2) -0.07855(7)
N2 N 0.1936(2) 0.6673(2) -0.13069(7)
H2 H 0.1499 0.6039 -0.1516
O5 O -0.0034(2) 0.3997(2) 0.05137(6)
C4 C 0.5417(2) 0.8045(2) -0.20661(7)
C5 C 0.8274(2) 0.9400(2) -0.24748(8)
N3 N 0.0737(3) 0.6702(3) 0.04290(8)
C6 C 0.1219(3) 0.6861(2) -0.08541(7)
C7 C -0.3111(3) 0.5179(3) -0.11036(9)
H3 H -0.3892 0.5181 -0.1361
C8 C 0.7256(3) 0.8452(2) -0.27640(8)
C9 C 0.3895(3) 0.7288(2) -0.18723(8)
H4 H 0.3291 0.6629 -0.2079
C10 C -0.1574(3) 0.5915(2) -0.11626(8)
H5 H -0.1335 0.6408 -0.1460
O6 O 0.2308(2) 0.4724(2) -0.00437(6)
C11 C 0.7865(3) 0.9662(2) -0.19757(8)
C12 C 0.6425(3) 0.8989(2) -0.17733(8)
H6 H 0.6140 0.9169 -0.1444
C13 C 0.6859(3) 0.7286(3) -0.35591(9)
H7 H 0.7284 0.7371 -0.3891
H8 H 0.5678 0.7546 -0.3555
H9 H 0.7006 0.6245 -0.3443
C14 C -0.2319(3) 0.4424(2) -0.02885(9)
H10 H -0.2569 0.3912 0.0005
C15 C -0.3495(3) 0.4445(3) -0.06665(9)
H11 H -0.4539 0.3965 -0.0626
C16 C 0.8652(4) 1.0877(4) -0.12142(10)
H12 H 0.7525 1.1270 -0.1173
H13 H 0.9452 1.1620 -0.1092
H14 H 0.8770 0.9928 -0.1033
C17 C 1.1214(3) 0.9368(3) -0.26013(10)
H15 H 1.1197 0.8370 -0.2757
H16 H 1.1383 0.9243 -0.2252
H17 H 1.2119 0.9975 -0.2737
H18 H -0.021(4) 0.686(3) 0.0561(11)
H19 H 0.104(4) 0.737(4) 0.0253(11)
loop_
_geom_bond_atom_site_label_1
_geom_bond_atom_site_label_2
_geom_bond_site_symmetry_1
_geom_bond_site_symmetry_2
S1 C1 1_555 1_555
O1 C5 1_555 1_555
O2 C8 1_555 1_555
C1 C3 1_555 1_555
O3 C11 1_555 1_555
O4 C6 1_555 1_555
N1 N2 1_555 1_555
C2 H1 1_555 1_555
C3 C6 1_555 1_555
N2 H2 1_555 1_555
O5 S1 1_555 1_555
C4 C2 1_555 1_555
C5 C8 1_555 1_555
N3 S1 1_555 1_555
C6 N2 1_555 1_555
C7 H3 1_555 1_555
C8 C2 1_555 1_555
C9 N1 1_555 1_555
H4 C9 1_555 1_555
C10 C3 1_555 1_555
H5 C10 1_555 1_555
O6 S1 1_555 1_555
C11 C5 1_555 1_555
C12 C4 1_555 1_555
H6 C12 1_555 1_555
C13 O2 1_555 1_555
H7 C13 1_555 1_555
H8 C13 1_555 1_555
H9 C13 1_555 1_555
C14 C1 1_555 1_555
H10 C14 1_555 1_555
C15 C7 1_555 1_555
H11 C15 1_555 1_555
C16 O3 1_555 1_555
H12 C16 1_555 1_555
H13 C16 1_555 1_555
H14 C16 1_555 1_555
C17 O1 1_555 1_555
H15 C17 1_555 1_555
H16 C17 1_555 1_555
H17 C17 1_555 1_555
H18 N3 1_555 1_555
H19 N3 1_555 1_555
C4 C9 1_555 1_555
C7 C10 1_555 1_555
C11 C12 1_555 1_555
C14 C15 1_555 1_555

#END
