
#######################################################################
#
#                 Cambridge Crystallographic Data Centre
#                                CCDC 
#
#######################################################################
#
# If this CIF has been generated from an entry in the Cambridge 
# Structural Database, then it will include bibliographic, chemical, 
# crystal, experimental, refinement or atomic coordinate data resulting 
# from the CCDC's data processing and validation procedures.
#
#######################################################################

data_DAFBIX
_chemical_formula_moiety         'C19 H25 N1 O4'
_chemical_name_systematic        
(+-)-3-Acetoxy-7(e)-ethyl-1-(4-methoxyphenyl)-2-oxo-1-zaspiro[3.5]nonane
_symmetry_cell_setting           monoclinic
_symmetry_space_group_name_H-M   'P 21/c'
_symmetry_Int_Tables_number      14
_space_group_name_Hall           '-P 2ybc'
loop_
_symmetry_equiv_pos_site_id
_symmetry_equiv_pos_as_xyz
1 x,y,z
2 -x,1/2+y,1/2-z
3 -x,-y,-z
4 x,1/2-y,1/2+z
_cell_length_a                   14.822(5)
_cell_length_b                   7.990(5)
_cell_length_c                   15.408(5)
_cell_angle_alpha                90
_cell_angle_beta                 92.480(5)
_cell_angle_gamma                90
_cell_volume                     1823.03
_cell_formula_units_Z            4
loop_
_atom_site_label
_atom_site_type_symbol
_atom_site_fract_x
_atom_site_fract_y
_atom_site_fract_z
C1 C 0.2770(2) 0.0719(5) 0.2103(2)
C2 C 0.2866(3) 0.1174(5) 0.3058(2)
H1 H 0.2295 0.1589 0.3254
H2 H 0.3314 0.2049 0.3143
C3 C 0.3153(3) -0.0375(6) 0.3584(3)
H3 H 0.3737 -0.0755 0.34
H4 H 0.3216 -0.0081 0.4194
C4 C 0.2473(3) -0.1781(6) 0.3467(2)
H5 H 0.189 -0.1347 0.3643
C5 C 0.2367(3) -0.2224(6) 0.2510(3)
H6 H 0.2924 -0.2723 0.2327
H7 H 0.1893 -0.3053 0.2432
C6 C 0.2140(3) -0.0729(5) 0.1935(3)
H8 H 0.2166 -0.1063 0.1331
H9 H 0.1527 -0.0372 0.2033
C7 C 0.2700(4) -0.3292(8) 0.4042(4)
H10 H 0.2717 -0.292 0.4642
H11 H 0.2208 -0.4086 0.3972
C8 C 0.3560(6) -0.4208(11) 0.3896(5)
H12 H 0.3623 -0.512 0.43
H13 H 0.4062 -0.3456 0.3982
H14 H 0.3549 -0.4635 0.3313
C9 C 0.3349(3) 0.2030(5) 0.1066(3)
C10 C 0.3687(3) 0.0633(5) 0.1646(3)
H15 H 0.42 0.097 0.203
C11 C 0.4517(3) -0.1919(6) 0.1497(3)
C12 C 0.4610(3) -0.3379(6) 0.0933(3)
H16 H 0.4192 -0.3287 0.0441
H17 H 0.4483 -0.4378 0.1251
H18 H 0.5215 -0.3428 0.0735
C13 C 0.1842(3) 0.3315(5) 0.1413(2)
C14 C 0.1118(3) 0.3202(6) 0.1943(3)
H19 H 0.1107 0.2371 0.2365
C15 C 0.0414(3) 0.4311(7) 0.1848(3)
H20 H -0.0068 0.4233 0.2213
C16 C 0.0413(3) 0.5555(6) 0.1213(3)
C17 C 0.1127(3) 0.5657(6) 0.0681(3)
H21 H 0.1137 0.6479 0.0254
C18 C 0.1837(3) 0.4529(5) 0.0781(3)
H22 H 0.2317 0.4597 0.0414
C19 C -0.0305(4) 0.7974(7) 0.0594(4)
H23 H -0.0845 0.8627 0.0639
H24 H -0.0272 0.7554 0.0013
H25 H 0.0213 0.8662 0.0731
N1 N 0.2577(2) 0.2181(4) 0.1507(2)
O1 O 0.38651(18) -0.0859(4) 0.11674(17)
O2 O 0.4934(2) -0.1637(5) 0.2162(2)
O3 O 0.3624(2) 0.2769(4) 0.0445(2)
O4 O -0.0321(2) 0.6615(5) 0.1184(2)
loop_
_geom_bond_atom_site_label_1
_geom_bond_atom_site_label_2
_geom_bond_site_symmetry_1
_geom_bond_site_symmetry_2
C1 C2 1_555 1_555
C2 H1 1_555 1_555
H2 C2 1_555 1_555
C3 C2 1_555 1_555
H3 C3 1_555 1_555
H4 C3 1_555 1_555
C4 C3 1_555 1_555
H5 C4 1_555 1_555
C5 C4 1_555 1_555
H6 C5 1_555 1_555
H7 C5 1_555 1_555
C6 C1 1_555 1_555
H8 C6 1_555 1_555
H9 C6 1_555 1_555
C7 C4 1_555 1_555
H10 C7 1_555 1_555
H11 C7 1_555 1_555
C8 C7 1_555 1_555
H12 C8 1_555 1_555
H13 C8 1_555 1_555
H14 C8 1_555 1_555
C9 C10 1_555 1_555
C10 C1 1_555 1_555
H15 C10 1_555 1_555
C11 C12 1_555 1_555
C12 H16 1_555 1_555
H17 C12 1_555 1_555
H18 C12 1_555 1_555
C13 C14 1_555 1_555
C14 H19 1_555 1_555
C15 C14 1_555 1_555
H20 C15 1_555 1_555
C16 C15 1_555 1_555
C17 C16 1_555 1_555
H21 C17 1_555 1_555
C18 C13 1_555 1_555
H22 C18 1_555 1_555
C19 H23 1_555 1_555
H24 C19 1_555 1_555
H25 C19 1_555 1_555
N1 C1 1_555 1_555
O1 C10 1_555 1_555
O2 C11 1_555 1_555
O3 C9 1_555 1_555
O4 C16 1_555 1_555
C5 C6 1_555 1_555
C9 N1 1_555 1_555
C11 O1 1_555 1_555
C13 N1 1_555 1_555
C17 C18 1_555 1_555
C19 O4 1_555 1_555

#END
