
#######################################################################
#
#                 Cambridge Crystallographic Data Centre
#                                CCDC 
#
#######################################################################
#
# If this CIF has been generated from an entry in the Cambridge 
# Structural Database, then it will include bibliographic, chemical, 
# crystal, experimental, refinement or atomic coordinate data resulting 
# from the CCDC's data processing and validation procedures.
#
#######################################################################

data_DAFCEU
_chemical_formula_moiety         'C18 H23 N1 O4'
_chemical_name_systematic        
(+-)-3-Acetoxy-1-(4-methoxyphenyl)-7(a)-methyl-2-oxo-1-azaspiro[3.5]nonane
_symmetry_cell_setting           monoclinic
_symmetry_space_group_name_H-M   'P 21/c'
_symmetry_Int_Tables_number      14
_space_group_name_Hall           '-P 2ybc'
loop_
_symmetry_equiv_pos_site_id
_symmetry_equiv_pos_as_xyz
1 x,y,z
2 -x,1/2+y,1/2-z
3 -x,-y,-z
4 x,1/2-y,1/2+z
_cell_length_a                   9.698(5)
_cell_length_b                   15.006(5)
_cell_length_c                   13.004(5)
_cell_angle_alpha                90
_cell_angle_beta                 111.660(5)
_cell_angle_gamma                90
_cell_volume                     1758.82
_cell_formula_units_Z            4
loop_
_atom_site_label
_atom_site_type_symbol
_atom_site_fract_x
_atom_site_fract_y
_atom_site_fract_z
C1 C 0.1860(6) 0.3723(4) 0.8954(4)
C2 C 0.2999(6) 0.3183(4) 0.8688(5)
H1 H 0.3468 0.3555 0.8301
H2 H 0.2512 0.2693 0.8205
C3 C 0.4189(7) 0.2814(5) 0.9747(5)
H3 H 0.474 0.3304 1.0199
H4 H 0.488 0.2448 0.9551
C4 C 0.3481(10) 0.2253(5) 1.0414(6)
H5 H 0.4274 0.211 1.112
C5 C 0.2376(8) 0.2808(5) 1.0678(5)
H6 H 0.2891 0.3292 1.1161
H7 H 0.1909 0.2446 1.1075
C6 C 0.1170(6) 0.3198(4) 0.9646(4)
H8 H 0.0568 0.2719 0.9204
H9 H 0.053 0.3587 0.9868
C7 C 0.2873(10) 0.1364(5) 0.9848(7)
H10 H 0.3644 0.1048 0.9706
H11 H 0.2064 0.1474 0.9163
H12 H 0.2529 0.1012 1.0323
C8 C 0.2330(7) 0.4697(4) 0.9335(4)
H13 H 0.3309 0.4847 0.9324
C9 C 0.1081(7) 0.4989(5) 0.8295(5)
C10 C 0.3365(8) 0.5123(5) 1.1224(5)
C11 C 0.2986(7) 0.5482(5) 1.2155(5)
H14 H 0.193 0.5552 1.1918
H15 H 0.3459 0.6049 1.2378
H16 H 0.3324 0.5075 1.2768
C12 C -0.0188(6) 0.3784(4) 0.6904(4)
C13 C -0.0600(6) 0.2898(4) 0.6763(4)
H17 H -0.028 0.2515 0.7367
C14 C -0.1468(6) 0.2579(4) 0.5752(5)
H18 H -0.1742 0.1982 0.5678
C15 C -0.1947(6) 0.3123(4) 0.4838(5)
C16 C -0.1579(7) 0.4009(4) 0.4974(5)
H19 H -0.1919 0.4392 0.437
C17 C -0.0711(7) 0.4334(4) 0.5996(5)
H20 H -0.0473 0.4937 0.6075
C18 C -0.3358(8) 0.3303(5) 0.2911(5)
H21 H -0.3921 0.2958 0.2272
H22 H -0.2551 0.3591 0.2783
H23 H -0.3986 0.3746 0.3045
N1 N 0.0718(5) 0.4136(3) 0.7937(3)
O1 O 0.0548(6) 0.5693(3) 0.7890(4)
O2 O 0.2140(4) 0.5006(3) 1.0302(3)
O3 O 0.4588(5) 0.4964(3) 1.1253(3)
O4 O -0.2782(5) 0.2730(3) 0.3852(3)
loop_
_geom_bond_atom_site_label_1
_geom_bond_atom_site_label_2
_geom_bond_site_symmetry_1
_geom_bond_site_symmetry_2
C1 C2 1_555 1_555
C2 H1 1_555 1_555
H2 C2 1_555 1_555
C3 C2 1_555 1_555
H3 C3 1_555 1_555
H4 C3 1_555 1_555
C4 C3 1_555 1_555
H5 C4 1_555 1_555
C5 C4 1_555 1_555
H6 C5 1_555 1_555
H7 C5 1_555 1_555
C6 C1 1_555 1_555
H8 C6 1_555 1_555
H9 C6 1_555 1_555
C7 C4 1_555 1_555
H10 C7 1_555 1_555
H11 C7 1_555 1_555
H12 C7 1_555 1_555
C8 C1 1_555 1_555
H13 C8 1_555 1_555
C9 C8 1_555 1_555
C10 C11 1_555 1_555
C11 H14 1_555 1_555
H15 C11 1_555 1_555
H16 C11 1_555 1_555
C12 C13 1_555 1_555
C13 H17 1_555 1_555
C14 C13 1_555 1_555
H18 C14 1_555 1_555
C15 C14 1_555 1_555
C16 C15 1_555 1_555
H19 C16 1_555 1_555
C17 C12 1_555 1_555
H20 C17 1_555 1_555
C18 H21 1_555 1_555
H22 C18 1_555 1_555
H23 C18 1_555 1_555
N1 C1 1_555 1_555
O1 C9 1_555 1_555
O2 C8 1_555 1_555
O3 C10 1_555 1_555
O4 C15 1_555 1_555
C5 C6 1_555 1_555
C9 N1 1_555 1_555
C10 O2 1_555 1_555
C12 N1 1_555 1_555
C16 C17 1_555 1_555
C18 O4 1_555 1_555

#END
