
#######################################################################
#
#                 Cambridge Crystallographic Data Centre
#                                CCDC 
#
#######################################################################
#
# If this CIF has been generated from an entry in the Cambridge 
# Structural Database, then it will include bibliographic, chemical, 
# crystal, experimental, refinement or atomic coordinate data resulting 
# from the CCDC's data processing and validation procedures.
#
#######################################################################

data_DAFCAQ
_chemical_formula_moiety         'C18 H23 N1 O4'
_chemical_name_systematic        
(+-)-3-Acetoxy-1-(4-methoxyphenyl)-7(e)-methyl-2-oxo-1-azaspiro[3.5]nonane
_symmetry_cell_setting           monoclinic
_symmetry_space_group_name_H-M   'P 21/n'
_symmetry_Int_Tables_number      14
_space_group_name_Hall           '-P 2yn'
loop_
_symmetry_equiv_pos_site_id
_symmetry_equiv_pos_as_xyz
1 x,y,z
2 1/2-x,1/2+y,1/2-z
3 -x,-y,-z
4 1/2+x,1/2-y,1/2+z
_cell_length_a                   9.7290(10)
_cell_length_b                   13.881(2)
_cell_length_c                   13.3770(10)
_cell_angle_alpha                90
_cell_angle_beta                 104.05
_cell_angle_gamma                90
_cell_volume                     1752.5
_cell_formula_units_Z            4
loop_
_atom_site_label
_atom_site_type_symbol
_atom_site_fract_x
_atom_site_fract_y
_atom_site_fract_z
C1 C 0.3289(3) 0.3323(2) 0.6413(2)
C2 C 0.2060(3) 0.2657(2) 0.5959(2)
H1 H 0.1187 0.3026 0.5799
H2 H 0.1982 0.2173 0.6465
C3 C 0.2250(4) 0.2162(2) 0.4986(3)
H3 H 0.1478 0.1712 0.4747
H4 H 0.2205 0.2642 0.4452
C4 C 0.3635(4) 0.1630(3) 0.5156(3)
H5 H 0.3648 0.1137 0.5683
C5 C 0.4844(4) 0.2322(3) 0.5570(3)
H6 H 0.4866 0.2806 0.5051
H7 H 0.5732 0.1972 0.5705
C6 C 0.4706(3) 0.2820(3) 0.6555(3)
H8 H 0.4809 0.2347 0.7102
H9 H 0.5462 0.3289 0.6761
C7 C 0.3819(6) 0.1120(3) 0.4181(3)
H10 H 0.4709 0.0786 0.4329
H11 H 0.3802 0.1589 0.3649
H12 H 0.3061 0.0668 0.3952
C8 C 0.3222(3) 0.4348(2) 0.5909(3)
H13 H 0.4117 0.4542 0.5755
C9 C 0.3037(4) 0.4743(2) 0.6922(3)
C10 C 0.2217(4) 0.4773(2) 0.4156(3)
C11 C 0.0848(4) 0.4967(3) 0.3411(3)
H14 H 0.0088 0.4889 0.3747
H15 H 0.0725 0.4523 0.2846
H16 H 0.0844 0.5614 0.3158
C12 C 0.3233(3) 0.3569(2) 0.8390(2)
C13 C 0.3129(3) 0.2612(2) 0.8639(3)
H17 H 0.2974 0.2148 0.8122
C14 C 0.3251(4) 0.2340(2) 0.9639(3)
H18 H 0.3175 0.1692 0.9796
C15 C 0.3485(3) 0.3014(2) 1.0416(2)
C16 C 0.3577(4) 0.3966(2) 1.0172(3)
H19 H 0.3721 0.4429 1.0691
C17 C 0.3459(3) 0.4246(2) 0.9166(3)
H20 H 0.3532 0.4894 0.9011
C18 C 0.3813(5) 0.3344(3) 1.2204(3)
H21 H 0.3879 0.3014 1.2845
H22 H 0.303 0.3785 1.2083
H23 H 0.4674 0.3694 1.2236
N1 N 0.3136(3) 0.38563(16) 0.73547(19)
O1 O 0.2861(3) 0.55356(17) 0.7244(2)
O2 O 0.2016(2) 0.45427(16) 0.50883(17)
O3 O 0.3359(3) 0.4811(3) 0.3988(2)
O4 O 0.3600(3) 0.26616(18) 1.13867(18)
loop_
_geom_bond_atom_site_label_1
_geom_bond_atom_site_label_2
_geom_bond_site_symmetry_1
_geom_bond_site_symmetry_2
C1 C2 1_555 1_555
C2 H1 1_555 1_555
H2 C2 1_555 1_555
C3 C2 1_555 1_555
H3 C3 1_555 1_555
H4 C3 1_555 1_555
C4 C3 1_555 1_555
H5 C4 1_555 1_555
C5 C4 1_555 1_555
H6 C5 1_555 1_555
H7 C5 1_555 1_555
C6 C1 1_555 1_555
H8 C6 1_555 1_555
H9 C6 1_555 1_555
C7 C4 1_555 1_555
H10 C7 1_555 1_555
H11 C7 1_555 1_555
H12 C7 1_555 1_555
C8 C1 1_555 1_555
H13 C8 1_555 1_555
C9 C8 1_555 1_555
C10 C11 1_555 1_555
C11 H14 1_555 1_555
H15 C11 1_555 1_555
H16 C11 1_555 1_555
C12 C13 1_555 1_555
C13 H17 1_555 1_555
C14 C13 1_555 1_555
H18 C14 1_555 1_555
C15 C14 1_555 1_555
C16 C15 1_555 1_555
H19 C16 1_555 1_555
C17 C12 1_555 1_555
H20 C17 1_555 1_555
C18 H21 1_555 1_555
H22 C18 1_555 1_555
H23 C18 1_555 1_555
N1 C1 1_555 1_555
O1 C9 1_555 1_555
O2 C8 1_555 1_555
O3 C10 1_555 1_555
O4 C15 1_555 1_555
C5 C6 1_555 1_555
C9 N1 1_555 1_555
C10 O2 1_555 1_555
C12 N1 1_555 1_555
C16 C17 1_555 1_555
C18 O4 1_555 1_555

#END
