
#######################################################################
#
#                 Cambridge Crystallographic Data Centre
#                                CCDC 
#
#######################################################################
#
# If this CIF has been generated from an entry in the Cambridge 
# Structural Database, then it will include bibliographic, chemical, 
# crystal, experimental, refinement or atomic coordinate data resulting 
# from the CCDC's data processing and validation procedures.
#
#######################################################################

data_DAFCIY
_chemical_formula_moiety         'C15 H19 N1 O3'
_chemical_name_systematic        
(-)-3-Hydroxy-1-(4-methoxyphenyl)-2-oxo-1-azaspiro[3.5]nonane
_symmetry_cell_setting           monoclinic
_symmetry_space_group_name_H-M   'P 21'
_symmetry_Int_Tables_number      4
_space_group_name_Hall           'P 2yb'
loop_
_symmetry_equiv_pos_site_id
_symmetry_equiv_pos_as_xyz
1 x,y,z
2 -x,1/2+y,-z
_cell_length_a                   5.875(5)
_cell_length_b                   9.353(4)
_cell_length_c                   12.520(5)
_cell_angle_alpha                90
_cell_angle_beta                 97.430(5)
_cell_angle_gamma                90
_cell_volume                     682.184
_cell_formula_units_Z            2
loop_
_atom_site_label
_atom_site_type_symbol
_atom_site_fract_x
_atom_site_fract_y
_atom_site_fract_z
C1 C -0.0298(14) 0.2488(10) 0.4352(6)
H1 H -0.1199 0.2687 0.4922
H2 H -0.1269 0.2101 0.3745
H3 H 0.0397 0.3356 0.4143
C2 C 0.2892(13) 0.1057(9) 0.3998(6)
C3 C 0.4355(13) -0.0056(10) 0.4328(6)
H4 H 0.4329 -0.0448 0.5009
C4 C 0.5841(14) -0.0594(9) 0.3678(6)
H5 H 0.6820 -0.1340 0.3920
C5 C 0.5896(11) -0.0034(8) 0.2661(5)
C6 C 0.4453(14) 0.1084(9) 0.2332(5)
H6 H 0.4487 0.1475 0.1651
C7 C 0.2946(14) 0.1642(8) 0.2991(6)
H7 H 0.1985 0.2401 0.2756
C8 C 0.8340(12) -0.0026(9) 0.1139(6)
C9 C 0.9301(13) -0.1457(8) 0.0805(6)
H8 H 1.0972 -0.1503 0.0986
C10 C 0.8033(12) -0.2120(7) 0.1721(5)
C11 C 0.5932(12) -0.3015(8) 0.1349(6)
H9 H 0.5098 -0.2585 0.0709
H10 H 0.4928 -0.3022 0.1906
C12 C 0.6570(15) -0.4561(8) 0.1095(6)
H11 H 0.5179 -0.5123 0.0939
H12 H 0.7352 -0.4567 0.0459
C13 C 0.8100(14) -0.5237(9) 0.2022(6)
H13 H 0.8525 -0.6195 0.1826
H14 H 0.7287 -0.5304 0.2647
C14 C 1.0244(14) -0.4326(9) 0.2288(6)
H15 H 1.1253 -0.4768 0.2869
H16 H 1.1059 -0.4272 0.1663
C15 C 0.9619(13) -0.2830(8) 0.2618(6)
H17 H 0.8867 -0.2880 0.3263
H18 H 1.1004 -0.2264 0.2781
N1 N 0.7395(10) -0.0608(6) 0.1962(4)
O1 O 0.1437(9) 0.1486(7) 0.4714(4)
O2 O 0.8360(9) 0.1203(6) 0.0812(4)
O3 O 0.8623(9) -0.1836(6) -0.0252(4)
H19 H 0.7260 -0.1644 -0.0415
loop_
_geom_bond_atom_site_label_1
_geom_bond_atom_site_label_2
_geom_bond_site_symmetry_1
_geom_bond_site_symmetry_2
C1 H1 1_555 1_555
H2 C1 1_555 1_555
H3 C1 1_555 1_555
C2 C3 1_555 1_555
C3 H4 1_555 1_555
C4 C3 1_555 1_555
H5 C4 1_555 1_555
C5 C4 1_555 1_555
C6 C5 1_555 1_555
H6 C6 1_555 1_555
C7 C2 1_555 1_555
H7 C7 1_555 1_555
C8 C9 1_555 1_555
C9 H8 1_555 1_555
C10 C9 1_555 1_555
C11 C10 1_555 1_555
H9 C11 1_555 1_555
H10 C11 1_555 1_555
C12 C11 1_555 1_555
H11 C12 1_555 1_555
H12 C12 1_555 1_555
C13 C12 1_555 1_555
H13 C13 1_555 1_555
H14 C13 1_555 1_555
C14 C13 1_555 1_555
H15 C14 1_555 1_555
H16 C14 1_555 1_555
C15 C10 1_555 1_555
H17 C15 1_555 1_555
H18 C15 1_555 1_555
N1 C5 1_555 1_555
O1 C1 1_555 1_555
O2 C8 1_555 1_555
O3 C9 1_555 1_555
H19 O3 1_555 1_555
C2 O1 1_555 1_555
C6 C7 1_555 1_555
C8 N1 1_555 1_555
C10 N1 1_555 1_555
C14 C15 1_555 1_555

#END
