
#######################################################################
#
#                 Cambridge Crystallographic Data Centre
#                                CCDC 
#
#######################################################################
#
# If this CIF has been generated from an entry in the Cambridge 
# Structural Database, then it will include bibliographic, chemical, 
# crystal, experimental, refinement or atomic coordinate data resulting 
# from the CCDC's data processing and validation procedures.
#
#######################################################################

data_DAFCUI
_chemical_formula_moiety         'C24 H32 N2 2+,2(Cl1 1-)'
_chemical_name_systematic        
'4,10-Dibenzyl-4,10-diazabicyclo(5.5.0)dodec-1(7)-ene dihydrochloride'
_symmetry_cell_setting           orthorhombic
_symmetry_space_group_name_H-M   'P c a b'
_symmetry_Int_Tables_number      61
_space_group_name_Hall           '-P 2bc 2ac'
loop_
_symmetry_equiv_pos_site_id
_symmetry_equiv_pos_as_xyz
1 x,y,z
2 1/2-x,y,1/2+z
3 1/2+x,1/2-y,z
4 -x,1/2-y,1/2+z
5 -x,-y,-z
6 1/2+x,-y,1/2-z
7 1/2-x,1/2+y,-z
8 x,1/2+y,1/2-z
_cell_length_a                   12.737(2)
_cell_length_b                   16.796(2)
_cell_length_c                   10.364(1)
_cell_angle_alpha                90
_cell_angle_beta                 90
_cell_angle_gamma                90
_cell_volume                     2217.18
_exptl_crystal_colour            colorless
_chemical_melting_point          503-508K(dec.)
_cell_formula_units_Z            4
loop_
_atom_site_label
_atom_site_type_symbol
_atom_site_fract_x
_atom_site_fract_y
_atom_site_fract_z
Cl1 Cl 0.65127(3) 0.47338(3) 0.4055(4)
N1 N 0.50141(9) 0.59063(7) 0.2736(1)
C1 C 0.5525(1) 0.70253(9) 0.4230(1)
C2 C 0.5944(1) 0.67315(9) 0.5375(2)
C3 C 0.6746(2) 0.71400(9) 0.5994(2)
C4 C 0.7136(1) 0.78315(9) 0.5482(2)
C5 C 0.6729(2) 0.81303(9) 0.4350(2)
C6 C 0.5920(1) 0.77310(9) 0.3727(2)
C7 C 0.4642(1) 0.65790(9) 0.3593(2)
C8 C 0.4066(1) 0.54147(9) 0.2352(1)
C9 C 0.4337(1) 0.46685(9) 0.1603(2)
C10 C 0.4580(1) 0.47928(8) 0.0186(1)
C11 C 0.3853(1) 0.4419(1) -0.0791(2)
C12 C 0.5639(1) 0.62221(9) 0.1624(1)
H1 H 0.563(1) 0.624(1) 0.574(2)
H2 H 0.700(2) 0.693(1) 0.686(2)
H3 H 0.765(2) 0.809(1) 0.600(2)
H4 H 0.699(2) 0.862(1) 0.395(2)
H5 H 0.558(1) 0.797(1) 0.292(2)
H6 H 0.422(1) 0.6944(9) 0.302(1)
H7 H 0.418(1) 0.631(1) 0.426(2)
H8 H 0.360(1) 0.5763(9) 0.185(2)
H9 H 0.373(1) 0.5290(9) 0.318(2)
H10 H 0.372(1) 0.427(1) 0.170(2)
H11 H 0.496(1) 0.437(1) 0.208(2)
H12 H 0.325(1) 0.416(1) -0.034(2)
H13 H 0.353(2) 0.486(1) -0.144(2)
H14 H 0.620(1) 0.6554(9) 0.204(2)
H15 H 0.516(2) 0.659(1) 0.109(2)
H16 H 0.549(1) 0.554(1) 0.325(2)
C10D C 0.5420(1) 0.52072(8) -0.0186(1)
C12D C 0.4361(1) 0.37779(9) -0.1624(1)
C11D C 0.6147(1) 0.5581(1) 0.0791(2)
C9D C 0.5663(1) 0.53315(9) -0.1603(2)
N1D N 0.49859(9) 0.40937(7) -0.2736(1)
H14D H 0.380(1) 0.3446(9) -0.204(2)
H15D H 0.484(2) 0.341(1) -0.109(2)
H12D H 0.675(1) 0.584(1) 0.034(2)
H13D H 0.647(2) 0.514(1) 0.144(2)
C8D C 0.5934(1) 0.45853(9) -0.2352(1)
H10D H 0.628(1) 0.573(1) -0.170(2)
H11D H 0.504(1) 0.563(1) -0.208(2)
C7D C 0.5358(1) 0.34210(9) -0.3593(2)
H16D H 0.451(1) 0.446(1) -0.325(2)
H8D H 0.640(1) 0.4237(9) -0.185(2)
H9D H 0.627(1) 0.4710(9) -0.318(2)
C1D C 0.4475(1) 0.29747(9) -0.4230(1)
H6D H 0.578(1) 0.3056(9) -0.302(1)
H7D H 0.582(1) 0.369(1) -0.426(2)
C2D C 0.4056(1) 0.32685(9) -0.5375(2)
C6D C 0.4080(1) 0.22690(9) -0.3727(2)
C3D C 0.3254(2) 0.28600(9) -0.5994(2)
H1D H 0.437(1) 0.376(1) -0.574(2)
C5D C 0.3271(2) 0.18697(9) -0.4350(2)
H5D H 0.442(1) 0.203(1) -0.292(2)
C4D C 0.2864(1) 0.21685(9) -0.5482(2)
H2D H 0.300(2) 0.307(1) -0.686(2)
H4D H 0.301(2) 0.138(1) -0.395(2)
H3D H 0.235(2) 0.191(1) -0.600(2)
loop_
_geom_bond_atom_site_label_1
_geom_bond_atom_site_label_2
_geom_bond_site_symmetry_1
_geom_bond_site_symmetry_2
N1 C7 1_555 1_555
C1 C2 1_555 1_555
C2 C3 1_555 1_555
C3 C4 1_555 1_555
C4 C5 1_555 1_555
C5 C6 1_555 1_555
C6 C1 1_555 1_555
C7 C1 1_555 1_555
C8 N1 1_555 1_555
C9 C8 1_555 1_555
C10 C9 1_555 1_555
C11 C10 1_555 1_555
C12 N1 1_555 1_555
H1 C2 1_555 1_555
H2 C3 1_555 1_555
H3 C4 1_555 1_555
H4 C5 1_555 1_555
H5 C6 1_555 1_555
H6 C7 1_555 1_555
H7 C7 1_555 1_555
H8 C8 1_555 1_555
H9 C8 1_555 1_555
H10 C9 1_555 1_555
H11 C9 1_555 1_555
H12 C11 1_555 1_555
H13 C11 1_555 1_555
H14 C12 1_555 1_555
H15 C12 1_555 1_555
H16 N1 1_555 1_555
C10D C10 1_555 1_555
C12D C11 1_555 1_555
C11D C12 1_555 1_555
C9D C10D 1_555 1_555
N1D C12D 1_555 1_555
H14D C12D 1_555 1_555
H15D C12D 1_555 1_555
H12D C11D 1_555 1_555
H13D C11D 1_555 1_555
C8D C9D 1_555 1_555
H10D C9D 1_555 1_555
H11D C9D 1_555 1_555
C7D N1D 1_555 1_555
H16D N1D 1_555 1_555
H8D C8D 1_555 1_555
H9D C8D 1_555 1_555
C1D C7D 1_555 1_555
H6D C7D 1_555 1_555
H7D C7D 1_555 1_555
C2D C1D 1_555 1_555
C6D C1D 1_555 1_555
C3D C2D 1_555 1_555
H1D C2D 1_555 1_555
C5D C6D 1_555 1_555
H5D C6D 1_555 1_555
C4D C3D 1_555 1_555
H2D C3D 1_555 1_555
H4D C5D 1_555 1_555
H3D C4D 1_555 1_555
C10D C11D 1_555 1_555
N1D C8D 1_555 1_555
C5D C4D 1_555 1_555

#END
