
#######################################################################
#
#                 Cambridge Crystallographic Data Centre
#                                CCDC 
#
#######################################################################
#
# If this CIF has been generated from an entry in the Cambridge 
# Structural Database, then it will include bibliographic, chemical, 
# crystal, experimental, refinement or atomic coordinate data resulting 
# from the CCDC's data processing and validation procedures.
#
#######################################################################

data_DAFKOM
_chemical_formula_moiety         'C17 H28 O5'
_chemical_name_systematic        
(3S,4R,9S,10R,E)-4,9-dihydroxy-3-methyl-10-pentyl-3,4,7,8,9,10-hexahydrooxecin-2-one
_symmetry_cell_setting           orthorhombic
_symmetry_space_group_name_H-M   'P 21 21 21'
_symmetry_Int_Tables_number      19
_space_group_name_Hall           'P 2ac 2ab'
loop_
_symmetry_equiv_pos_site_id
_symmetry_equiv_pos_as_xyz
1 x,y,z
2 1/2-x,-y,1/2+z
3 -x,1/2+y,1/2-z
4 1/2+x,1/2-y,-z
_cell_length_a                   5.2934(2)
_cell_length_b                   26.0941(10)
_cell_length_c                   26.6983(10)
_cell_angle_alpha                90
_cell_angle_beta                 90
_cell_angle_gamma                90
_cell_volume                     3687.74
_exptl_crystal_colour            colorless
_exptl_crystal_description       prism
_chemical_melting_point          '121-123 deg.C'
_cell_formula_units_Z            8
loop_
_atom_site_label
_atom_site_type_symbol
_atom_site_fract_x
_atom_site_fract_y
_atom_site_fract_z
O1 O 0.7728(5) 0.55897(9) 0.79223(9)
O2 O 0.3726(6) 0.56802(13) 0.81615(11)
O3 O 0.5378(5) 0.65490(10) 0.89925(10)
O4 O 0.7145(9) 0.6934(2) 0.96291(19)
O5 O 0.9140(8) 0.5873(2) 0.66271(12)
H1 H 0.7756 0.5845 0.6492
C1 C 0.5911(8) 0.56600(13) 0.82603(14)
C2 C 0.6977(8) 0.57078(14) 0.87804(13)
H2 H 0.8551 0.5510 0.8788
C3 C 0.7673(8) 0.62709(14) 0.88918(15)
H3 H 0.8776 0.6285 0.9186
C4 C 0.9010(8) 0.65007(16) 0.84520(17)
H4 H 1.0745 0.6452 0.8427
C5 C 0.7897(10) 0.67649(16) 0.81017(18)
H5 H 0.6290 0.6892 0.8167
C6 C 0.9046(13) 0.6876(2) 0.76004(19)
H6 H 1.0850 0.6813 0.7615
H7 H 0.8795 0.7235 0.7519
C7 C 0.7881(13) 0.6545(2) 0.71922(18)
H8 H 0.6067 0.6539 0.7244
H9 H 0.8183 0.6712 0.6873
C8 C 0.8795(10) 0.5997(2) 0.71531(15)
H10 H 1.0459 0.5980 0.7313
C9 C 0.7159(9) 0.55823(15) 0.73905(14)
H11 H 0.5363 0.5652 0.7333
C10 C 0.5248(12) 0.54819(18) 0.91766(17)
H12 H 0.4857 0.5133 0.9092
H13 H 0.3715 0.5678 0.9192
H14 H 0.6077 0.5492 0.9496
C11 C 0.5440(10) 0.68913(18) 0.9358(2)
C12 C 0.3079(10) 0.7206(2) 0.9373(2)
H15 H 0.3199 0.7453 0.9639
H16 H 0.1654 0.6986 0.9431
H17 H 0.2868 0.7381 0.9060
C13 C 0.7845(14) 0.5045(2) 0.72117(19)
H18 H 0.7776 0.5042 0.6849
H19 H 0.9580 0.4977 0.7307
C14 C 0.6299(15) 0.4630(2) 0.7395(2)
H20 H 0.4548 0.4699 0.7311
H21 H 0.6431 0.4616 0.7757
C15 C 0.704(2) 0.4111(3) 0.7178(3)
H22 H 0.6999 0.4137 0.6816
H23 H 0.8780 0.4043 0.7273
C16 C 0.564(3) 0.3702(3) 0.7313(4)
H24 H 0.3893 0.3763 0.7220
H25 H 0.5706 0.3663 0.7674
C17 C 0.657(3) 0.3190(2) 0.7060(3)
H26 H 0.5497 0.2913 0.7160
H27 H 0.8276 0.3120 0.7162
H28 H 0.6516 0.3227 0.6702
O6 O 0.3559(5) 0.57106(9) 0.49100(9)
O7 O 0.7160(6) 0.57410(13) 0.44830(13)
O8 O 0.5040(5) 0.67016(11) 0.38412(10)
O9 O 0.3067(11) 0.7237(4) 0.3410(4)
O10 O 0.4100(8) 0.58607(18) 0.62444(12)
H29 H 0.2777 0.5782 0.6385
C18 C 0.4904(8) 0.57684(13) 0.44968(15)
C19 C 0.3246(8) 0.58820(15) 0.40524(14)
H30 H 0.1610 0.5718 0.4113
C20 C 0.2778(8) 0.64623(14) 0.40167(16)
H31 H 0.1420 0.6526 0.3775
C21 C 0.2024(9) 0.66762(16) 0.45130(18)
H32 H 0.0320 0.6669 0.4597
C22 C 0.3610(11) 0.68736(16) 0.48382(19)
H33 H 0.5196 0.6972 0.4723
C23 C 0.3043(15) 0.69513(19) 0.53783(19)
H34 H 0.1254 0.6897 0.5436
H35 H 0.3438 0.7302 0.5470
C24 C 0.4563(13) 0.6585(2) 0.57079(19)
H36 H 0.4628 0.6726 0.6044
H37 H 0.6281 0.6573 0.5582
C25 C 0.3563(10) 0.60299(19) 0.57422(15)
H38 H 0.1734 0.6026 0.5685
C26 C 0.4844(9) 0.56539(16) 0.53894(15)
H39 H 0.6527 0.5799 0.5333
C27 C 0.4306(11) 0.56600(19) 0.35645(16)
H40 H 0.4586 0.5299 0.3604
H41 H 0.5875 0.5826 0.3485
H42 H 0.3121 0.5716 0.3298
C28 C 0.4955(11) 0.7092(3) 0.3543(2)
C29 C 0.7342(10) 0.73214(19) 0.3400(2)
H43 H 0.7039 0.7599 0.3172
H44 H 0.8385 0.7068 0.3241
H45 H 0.8182 0.7449 0.3693
C30 C 0.5309(17) 0.5116(3) 0.5500(3)
H46 H 0.6788 0.5044 0.5674
C31 C 0.392(3) 0.4725(6) 0.5385(6)
H47 H 0.3287 0.4759 0.5062
C32 C 0.303(3) 0.4235(3) 0.5615(4)
H48 H 0.4507 0.4026 0.5544
H49 H 0.3243 0.4328 0.5965
C33 C 0.169(4) 0.3935(4) 0.5662(6)
H50 H 0.0819 0.3937 0.5342
H51 H 0.0503 0.4085 0.5896
C34 C 0.162(2) 0.3392(3) 0.5799(4)
H52 H -0.0104 0.3284 0.5834
H53 H 0.2494 0.3343 0.6110
H54 H 0.2424 0.3193 0.5541
C35? C 0.356(4) 0.5089(6) 0.5626(6)
C36? C 0.242(3) 0.4846(4) 0.5567(4)
H55? H 0.4358 0.5015 0.5927
H56? H 0.0804 0.4945 0.5472
loop_
_geom_bond_atom_site_label_1
_geom_bond_atom_site_label_2
_geom_bond_site_symmetry_1
_geom_bond_site_symmetry_2
O1 C1 1_555 1_555
O2 C1 1_555 1_555
O3 C3 1_555 1_555
O4 C11 1_555 1_555
O5 H1 1_555 1_555
C1 C2 1_555 1_555
C2 H2 1_555 1_555
C3 C2 1_555 1_555
H3 C3 1_555 1_555
C4 C3 1_555 1_555
H4 C4 1_555 1_555
C5 C4 1_555 1_555
H5 C5 1_555 1_555
C6 C5 1_555 1_555
H6 C6 1_555 1_555
H7 C6 1_555 1_555
C7 C6 1_555 1_555
H8 C7 1_555 1_555
H9 C7 1_555 1_555
C8 O5 1_555 1_555
H10 C8 1_555 1_555
C9 O1 1_555 1_555
H11 C9 1_555 1_555
C10 C2 1_555 1_555
H12 C10 1_555 1_555
H13 C10 1_555 1_555
H14 C10 1_555 1_555
C11 O3 1_555 1_555
C12 C11 1_555 1_555
H15 C12 1_555 1_555
H16 C12 1_555 1_555
H17 C12 1_555 1_555
C13 C9 1_555 1_555
H18 C13 1_555 1_555
H19 C13 1_555 1_555
C14 C13 1_555 1_555
H20 C14 1_555 1_555
H21 C14 1_555 1_555
C15 C14 1_555 1_555
H22 C15 1_555 1_555
H23 C15 1_555 1_555
C16 C15 1_555 1_555
H24 C16 1_555 1_555
H25 C16 1_555 1_555
C17 C16 1_555 1_555
H26 C17 1_555 1_555
H27 C17 1_555 1_555
H28 C17 1_555 1_555
O6 C18 1_555 1_555
O7 C18 1_555 1_555
O8 C20 1_555 1_555
O9 C28 1_555 1_555
O10 H29 1_555 1_555
C18 C19 1_555 1_555
C19 H30 1_555 1_555
C20 C19 1_555 1_555
H31 C20 1_555 1_555
C21 C20 1_555 1_555
H32 C21 1_555 1_555
C22 C21 1_555 1_555
H33 C22 1_555 1_555
C23 C22 1_555 1_555
H34 C23 1_555 1_555
H35 C23 1_555 1_555
C24 C23 1_555 1_555
H36 C24 1_555 1_555
H37 C24 1_555 1_555
C25 O10 1_555 1_555
H38 C25 1_555 1_555
C26 O6 1_555 1_555
H39 C26 1_555 1_555
C27 C19 1_555 1_555
H40 C27 1_555 1_555
H41 C27 1_555 1_555
H42 C27 1_555 1_555
C28 O8 1_555 1_555
C29 C28 1_555 1_555
H43 C29 1_555 1_555
H44 C29 1_555 1_555
H45 C29 1_555 1_555
C30 C26 1_555 1_555
H46 C30 1_555 1_555
C31 C30 1_555 1_555
H47 C31 1_555 1_555
C32 C31 1_555 1_555
H48 C32 1_555 1_555
H49 C32 1_555 1_555
C33 C32 1_555 1_555
H50 C33 1_555 1_555
H51 C33 1_555 1_555
C34 C33 1_555 1_555
H52 C34 1_555 1_555
H53 C34 1_555 1_555
H54 C34 1_555 1_555
C7 C8 1_555 1_555
C8 C9 1_555 1_555
C24 C25 1_555 1_555
C25 C26 1_555 1_555

#END
