
#######################################################################
#
#                 Cambridge Crystallographic Data Centre
#                                CCDC 
#
#######################################################################
#
# If this CIF has been generated from an entry in the Cambridge 
# Structural Database, then it will include bibliographic, chemical, 
# crystal, experimental, refinement or atomic coordinate data resulting 
# from the CCDC's data processing and validation procedures.
#
#######################################################################

data_DAFLED
_chemical_formula_moiety         'C16 H11 B1 F2 N2 O1'
_chemical_name_systematic        
5,5-Difluoro-10-phenyl-5H-6\l^5^,5\l^5^-dipyrrolo[1,2-c:2',1'-f][1,3,2]diazaborinine-2-carbaldehyde
_symmetry_cell_setting           orthorhombic
_symmetry_space_group_name_H-M   'P n a 21'
_symmetry_Int_Tables_number      33
_space_group_name_Hall           'P 2c -2n'
loop_
_symmetry_equiv_pos_site_id
_symmetry_equiv_pos_as_xyz
1 x,y,z
2 -x,-y,1/2+z
3 1/2+x,1/2-y,z
4 1/2-x,1/2+y,1/2+z
_cell_length_a                   17.419(4)
_cell_length_b                   11.557(2)
_cell_length_c                   6.9163(14)
_cell_angle_alpha                90
_cell_angle_beta                 90
_cell_angle_gamma                90
_cell_volume                     1392.33
_exptl_crystal_colour            purple
_exptl_crystal_description       rod
_cell_formula_units_Z            4
loop_
_atom_site_label
_atom_site_type_symbol
_atom_site_fract_x
_atom_site_fract_y
_atom_site_fract_z
B1 B 0.38627(18) 0.5295(3) 0.1567(6)
C1 C 0.09743(15) 0.4380(3) 0.3609(5)
H1 H 0.1176 0.4844 0.4584
F1 F 0.41318(12) 0.63418(16) 0.2175(4)
N1 N 0.32231(12) 0.54698(16) 0.0054(3)
O1 O 0.31386(16) 0.2306(3) 0.8586(5)
C2 C 0.02297(16) 0.3954(3) 0.3749(6)
H2 H -0.0069 0.4138 0.4819
F2 F 0.44635(8) 0.46758(18) 0.0757(3)
N2 N 0.35018(11) 0.45916(18) 0.3223(3)
C3 C -0.00669(16) 0.3265(2) 0.2322(6)
H3 H -0.0565 0.2984 0.2429
C4 C 0.03639(15) 0.2990(3) 0.0751(6)
H4 H 0.0160 0.2516 -0.0207
C5 C 0.10990(14) 0.3409(2) 0.0567(4)
H5 H 0.1388 0.3225 -0.0521
C6 C 0.14113(13) 0.4106(2) 0.2002(4)
C7 C 0.22190(13) 0.45063(19) 0.1851(3)
C8 C 0.24571(14) 0.5120(2) 0.0243(4)
C9 C 0.20617(17) 0.5514(2) -0.1405(4)
H6 H 0.1543 0.5404 -0.1665
C10 C 0.25750(19) 0.6088(2) -0.2559(5)
H7 H 0.2471 0.6442 -0.3738
C11 C 0.32827(17) 0.6038(2) -0.1623(5)
H8 H 0.3735 0.6357 -0.2099
C12 C 0.27399(12) 0.42252(19) 0.3335(4)
C13 C 0.26554(14) 0.3543(2) 0.4966(4)
H9 H 0.2206 0.3186 0.5381
C14 C 0.33688(14) 0.3490(2) 0.5872(4)
C15 C 0.38689(15) 0.4145(2) 0.4741(4)
H10 H 0.4387 0.4255 0.5008
C16 C 0.3578(2) 0.2886(3) 0.7620(5)
H11 H 0.4084 0.2944 0.8038
loop_
_geom_bond_atom_site_label_1
_geom_bond_atom_site_label_2
_geom_bond_site_symmetry_1
_geom_bond_site_symmetry_2
B1 F1 1_555 1_555
C1 H1 1_555 1_555
N1 B1 1_555 1_555
O1 C16 1_555 1_555
C2 C1 1_555 1_555
H2 C2 1_555 1_555
F2 B1 1_555 1_555
N2 B1 1_555 1_555
C3 C2 1_555 1_555
H3 C3 1_555 1_555
C4 C3 1_555 1_555
H4 C4 1_555 1_555
C5 C4 1_555 1_555
H5 C5 1_555 1_555
C6 C1 1_555 1_555
C7 C6 1_555 1_555
C8 N1 1_555 1_555
C9 C8 1_555 1_555
H6 C9 1_555 1_555
C10 C9 1_555 1_555
H7 C10 1_555 1_555
C11 N1 1_555 1_555
H8 C11 1_555 1_555
C12 N2 1_555 1_555
C13 C12 1_555 1_555
H9 C13 1_555 1_555
C14 C13 1_555 1_555
C15 N2 1_555 1_555
H10 C15 1_555 1_555
C16 C14 1_555 1_555
H11 C16 1_555 1_555
C5 C6 1_555 1_555
C7 C8 1_555 1_555
C7 C12 1_555 1_555
C10 C11 1_555 1_555
C14 C15 1_555 1_555

#END
