
#######################################################################
#
#                 Cambridge Crystallographic Data Centre
#                                CCDC 
#
#######################################################################
#
# If this CIF has been generated from an entry in the Cambridge 
# Structural Database, then it will include bibliographic, chemical, 
# crystal, experimental, refinement or atomic coordinate data resulting 
# from the CCDC's data processing and validation procedures.
#
#######################################################################

data_DAFMII
_chemical_formula_moiety         'C14 H17 N1 O6'
_chemical_name_systematic        
'Ethyl (2-acetoxy-5-methoxyphenyl)(methoxyimino)acetate'
_symmetry_cell_setting           orthorhombic
_symmetry_space_group_name_H-M   'P b c a'
_symmetry_Int_Tables_number      61
_space_group_name_Hall           '-P 2ac 2ab'
loop_
_symmetry_equiv_pos_site_id
_symmetry_equiv_pos_as_xyz
1 x,y,z
2 1/2-x,-y,1/2+z
3 -x,1/2+y,1/2-z
4 1/2+x,1/2-y,-z
5 -x,-y,-z
6 1/2+x,y,1/2-z
7 x,1/2-y,1/2+z
8 1/2-x,1/2+y,z
_cell_length_a                   7.6651(6)
_cell_length_b                   13.1131(9)
_cell_length_c                   29.874(2)
_cell_angle_alpha                90
_cell_angle_beta                 90
_cell_angle_gamma                90
_cell_volume                     3002.73
_exptl_crystal_colour            colorless
_exptl_crystal_description       block
_cell_formula_units_Z            8
loop_
_atom_site_label
_atom_site_type_symbol
_atom_site_fract_x
_atom_site_fract_y
_atom_site_fract_z
C1 C 0.0920(3) 0.88289(13) 0.53115(6)
H1 H 0.0129 0.8421 0.5485
H2 H 0.0799 0.9532 0.5396
H3 H 0.2095 0.8609 0.5366
C2 C 0.06689(19) 0.77699(10) 0.46655(5)
C3 C 0.03016(19) 0.77070(11) 0.42105(5)
H4 H -0.0046 0.8288 0.4056
C4 C 0.04480(17) 0.67862(11) 0.39834(4)
C5 C 0.09380(18) 0.59264(11) 0.42262(5)
C6 C 0.1296(2) 0.59833(12) 0.46761(5)
H5 H 0.1618 0.5399 0.4832
C7 C 0.1178(2) 0.69060(11) 0.48976(5)
H6 H 0.1440 0.6946 0.5201
C8 C -0.0237(2) 0.43481(11) 0.39930(5)
C9 C 0.0199(3) 0.33838(13) 0.37569(7)
H7 H -0.0842 0.2988 0.3716
H8 H 0.1023 0.3002 0.3932
H9 H 0.0699 0.3539 0.3470
C10 C 0.01752(18) 0.67409(11) 0.34924(5)
C11 C 0.1184(2) 0.59632(12) 0.32215(5)
C12 C 0.4021(10) 0.5374(7) 0.3076(3)
H10 H 0.3873 0.5320 0.2754
H11 H 0.3770 0.4716 0.3210
C13 C 0.5822(6) 0.5708(5) 0.3188(2)
H12 H 0.5986 0.6401 0.3093
H13 H 0.6648 0.5277 0.3038
H14 H 0.5997 0.5662 0.3505
C14 C -0.1897(3) 0.80585(16) 0.26476(7)
H15 H -0.3039 0.8028 0.2779
H16 H -0.1982 0.7942 0.2331
H17 H -0.1398 0.8719 0.2701
N1 N -0.08278(17) 0.73967(10) 0.33108(4)
O1 O 0.05281(16) 0.87179(8) 0.48489(4)
O2 O -0.15975(18) 0.45632(10) 0.41542(5)
O3 O 0.11628(14) 0.49862(7) 0.40061(3)
O4 O 0.28668(14) 0.61651(9) 0.32606(4)
O5 O 0.05510(17) 0.52771(10) 0.30132(4)
O6 O -0.08197(16) 0.72998(10) 0.28433(4)
C15? C 0.4225(16) 0.5559(11) 0.3044(5)
C16? C 0.5576(9) 0.5387(7) 0.3391(3)
H18? H 0.4712 0.5924 0.2790
H19? H 0.3755 0.4915 0.2939
H20? H 0.6098 0.6027 0.3471
H21? H 0.6456 0.4938 0.3275
H22? H 0.5048 0.5085 0.3650
loop_
_geom_bond_atom_site_label_1
_geom_bond_atom_site_label_2
_geom_bond_site_symmetry_1
_geom_bond_site_symmetry_2
C1 H1 1_555 1_555
H2 C1 1_555 1_555
H3 C1 1_555 1_555
C2 C3 1_555 1_555
C3 H4 1_555 1_555
C4 C3 1_555 1_555
C5 C4 1_555 1_555
C6 C5 1_555 1_555
H5 C6 1_555 1_555
C7 C2 1_555 1_555
H6 C7 1_555 1_555
C8 C9 1_555 1_555
C9 H7 1_555 1_555
H8 C9 1_555 1_555
H9 C9 1_555 1_555
C10 C4 1_555 1_555
C11 C10 1_555 1_555
C12 H10 1_555 1_555
H11 C12 1_555 1_555
C13 C12 1_555 1_555
H12 C13 1_555 1_555
H13 C13 1_555 1_555
H14 C13 1_555 1_555
C14 H15 1_555 1_555
H16 C14 1_555 1_555
H17 C14 1_555 1_555
N1 C10 1_555 1_555
O1 C1 1_555 1_555
O2 C8 1_555 1_555
O3 C5 1_555 1_555
O4 C11 1_555 1_555
O5 C11 1_555 1_555
O6 C14 1_555 1_555
C2 O1 1_555 1_555
C6 C7 1_555 1_555
C8 O3 1_555 1_555
C12 O4 1_555 1_555
N1 O6 1_555 1_555

#END
