
#######################################################################
#
#                 Cambridge Crystallographic Data Centre
#                                CCDC 
#
#######################################################################
#
# If this CIF has been generated from an entry in the Cambridge 
# Structural Database, then it will include bibliographic, chemical, 
# crystal, experimental, refinement or atomic coordinate data resulting 
# from the CCDC's data processing and validation procedures.
#
#######################################################################

data_DAFNON
_chemical_formula_moiety         'C7 H11 N1 O4'
_chemical_name_systematic        
2,2-bis(Hydroxymethyl)-1-aza-4-oxabicyclo(4.1.0)heptan-5-one
_symmetry_cell_setting           orthorhombic
_symmetry_space_group_name_H-M   'P c a b'
_symmetry_Int_Tables_number      61
_space_group_name_Hall           '-P 2bc 2ac'
loop_
_symmetry_equiv_pos_site_id
_symmetry_equiv_pos_as_xyz
1 x,y,z
2 1/2-x,y,1/2+z
3 1/2+x,1/2-y,z
4 -x,1/2-y,1/2+z
5 -x,-y,-z
6 1/2+x,-y,1/2-z
7 1/2-x,1/2+y,-z
8 x,1/2+y,1/2-z
_cell_length_a                   18.161(2)
_cell_length_b                   8.515(1)
_cell_length_c                   9.843(1)
_cell_angle_alpha                90
_cell_angle_beta                 90
_cell_angle_gamma                90
_cell_volume                     1522.13
_chemical_melting_point          103-105deg.C
_cell_formula_units_Z            8
loop_
_atom_site_label
_atom_site_type_symbol
_atom_site_fract_x
_atom_site_fract_y
_atom_site_fract_z
C1 C 0.1504(2) -0.3811(4) 0.0614(3)
C2 C 0.0815(2) -0.3288(4) 0.1370(3)
O1 O 0.0711(1) -0.1591(3) 0.1338(2)
C3 C 0.0895(2) -0.0765(4) 0.0226(3)
C4 C 0.1226(2) -0.1580(4) -0.0957(3)
C5 C 0.0858(2) -0.2983(5) -0.1537(3)
N1 N 0.1546(1) -0.3160(3) -0.0784(3)
O2 O 0.0795(2) 0.0638(3) 0.0228(3)
C6 C 0.1526(2) -0.5591(4) 0.0522(3)
C7 C 0.2199(2) -0.3250(5) 0.1361(3)
O3 O 0.0932(2) -0.6163(4) -0.0265(3)
O4 O 0.2240(1) -0.4043(3) 0.2618(3)
H1 H 0.085(2) -0.354(4) 0.233(4)
H2 H 0.036(2) -0.375(4) 0.118(4)
H3 H 0.151(2) -0.087(4) -0.160(3)
H4 H 0.091(2) -0.314(6) -0.258(5)
H5 H 0.040(2) -0.328(4) -0.139(4)
H6 H 0.201(2) -0.594(4) 0.016(4)
H7 H 0.150(2) -0.609(5) 0.153(4)
H8 H 0.216(2) -0.206(4) 0.161(3)
H9 H 0.263(2) -0.351(4) 0.090(4)
H10 H 0.262(2) -0.370(4) 0.306(4)
H11 H 0.088(3) -0.702(7) -0.009(5)
loop_
_geom_bond_atom_site_label_1
_geom_bond_atom_site_label_2
_geom_bond_site_symmetry_1
_geom_bond_site_symmetry_2
C1 C2 1_555 1_555
C2 O1 1_555 1_555
O1 C3 1_555 1_555
C3 C4 1_555 1_555
C4 C5 1_555 1_555
C5 N1 1_555 1_555
N1 C1 1_555 1_555
O2 C3 1_555 1_555
C6 C1 1_555 1_555
C7 C1 1_555 1_555
O3 C6 1_555 1_555
O4 C7 1_555 1_555
H1 C2 1_555 1_555
H2 C2 1_555 1_555
H3 C4 1_555 1_555
H4 C5 1_555 1_555
H5 C5 1_555 1_555
H6 C6 1_555 1_555
H7 C6 1_555 1_555
H8 C7 1_555 1_555
H9 C7 1_555 1_555
H10 O4 1_555 1_555
H11 O3 1_555 1_555
C4 N1 1_555 1_555

#END
