
#######################################################################
#
#                 Cambridge Crystallographic Data Centre
#                                CCDC 
#
#######################################################################
#
# If this CIF has been generated from an entry in the Cambridge 
# Structural Database, then it will include bibliographic, chemical, 
# crystal, experimental, refinement or atomic coordinate data resulting 
# from the CCDC's data processing and validation procedures.
#
#######################################################################

data_DAFREI
_chemical_formula_moiety         'C26 H23 N1 O1'
_chemical_name_systematic        
(+)-(R)-1-(2-Methoxy-1-naphthyl)-3-phenyl-5,6,7,8-tetrahydroisoquinoline
_symmetry_cell_setting           tetragonal
_symmetry_space_group_name_H-M   'P 41'
_symmetry_Int_Tables_number      76
_space_group_name_Hall           'P 4w'
loop_
_symmetry_equiv_pos_site_id
_symmetry_equiv_pos_as_xyz
1 x,y,z
2 -x,-y,1/2+z
3 -y,x,1/4+z
4 y,-x,3/4+z
_cell_length_a                   11.0639(7)
_cell_length_b                   11.0639(7)
_cell_length_c                   15.8789(10)
_cell_angle_alpha                90
_cell_angle_beta                 90
_cell_angle_gamma                90
_cell_volume                     1943.73
_exptl_crystal_colour            colorless
_exptl_crystal_description       prism
_cell_formula_units_Z            4
loop_
_atom_site_label
_atom_site_type_symbol
_atom_site_fract_x
_atom_site_fract_y
_atom_site_fract_z
O1 O 0.05672(10) 0.79767(9) 0.25465(7)
N1 N 0.08433(10) 0.50487(10) 0.32542(7)
C1 C 0.16069(12) 0.46006(12) 0.38378(9)
C2 C 0.16191(12) 0.50507(13) 0.46509(9)
H1 H 0.2153 0.4727 0.5043
C3 C 0.08488(12) 0.59749(12) 0.48880(8)
C4 C 0.08847(15) 0.64707(16) 0.57729(10)
H2 H 0.1722 0.6594 0.5933
H3 H 0.0545 0.5873 0.6152
C5 C -0.08494(15) 0.74165(15) 0.44979(10)
H6 H -0.1619 0.7232 0.4235
H7 H -0.0562 0.8175 0.4266
C6 C 0.00430(12) 0.64305(12) 0.42903(8)
C7 C 0.00912(12) 0.59351(12) 0.34796(8)
C8 C -0.07410(12) 0.63614(12) 0.27934(8)
C9 C -0.04540(13) 0.73572(12) 0.23194(8)
C10 C -0.12026(14) 0.77214(14) 0.16454(9)
H10 H -0.0994 0.8392 0.1323
C11 C -0.22242(14) 0.70962(14) 0.14667(9)
H11 H -0.2703 0.7341 0.1016
C12 C -0.25790(13) 0.60885(14) 0.19444(9)
C13 C -0.36569(15) 0.54433(17) 0.17854(12)
H12 H -0.4147 0.5674 0.1338
C14 C -0.39891(17) 0.44972(19) 0.22718(14)
H13 H -0.4704 0.4086 0.2159
C15 C -0.32574(17) 0.41352(17) 0.29453(13)
H14 H -0.3497 0.3492 0.3283
C16 C -0.21941(15) 0.47179(14) 0.31117(12)
H15 H -0.1710 0.4454 0.3554
C17 C -0.18210(12) 0.57133(12) 0.26215(9)
C18 C 0.23912(12) 0.35896(13) 0.35577(9)
C19 C 0.21491(14) 0.30064(14) 0.27977(10)
H16 H 0.1525 0.3287 0.2458
C20 C 0.28197(16) 0.20191(16) 0.25397(12)
H17 H 0.2643 0.1642 0.2031
C21 C 0.37464(17) 0.15948(16) 0.30327(13)
H18 H 0.4192 0.0926 0.2862
C22 C 0.40135(15) 0.21637(16) 0.37815(12)
H19 H 0.4642 0.1878 0.4115
C23 C 0.33525(13) 0.31565(15) 0.40400(11)
H20 H 0.3551 0.3541 0.4542
C24 C 0.09826(16) 0.89265(15) 0.20216(11)
H21 H 0.1702 0.9272 0.2259
H22 H 0.0369 0.9537 0.1980
H23 H 0.1157 0.8613 0.1471
C25 C 0.0199(4) 0.7663(4) 0.5888(3)
H24 H 0.0100 0.7833 0.6483
H25 H 0.0654 0.8320 0.5637
C26 C -0.1037(3) 0.7561(4) 0.5467(2)
H26 H -0.1510 0.8281 0.5581
H27 H -0.1469 0.6868 0.5688
H4? H 0.0951 0.5806 0.6168
H5? H 0.1598 0.6973 0.5836
H8? H -0.1649 0.7065 0.4548
H9? H -0.0869 0.7995 0.4039
C27? C -0.0200(5) 0.7184(4) 0.5983(3)
H28? H -0.0059 0.7611 0.6507
H29? H -0.0873 0.6636 0.6071
C28? C -0.0541(4) 0.8083(4) 0.5314(2)
H30? H 0.0127 0.8634 0.5216
H31? H -0.1232 0.8552 0.5498
loop_
_geom_bond_atom_site_label_1
_geom_bond_atom_site_label_2
_geom_bond_site_symmetry_1
_geom_bond_site_symmetry_2
O1 C9 1_555 1_555
N1 C1 1_555 1_555
C1 C2 1_555 1_555
C2 H1 1_555 1_555
C3 C2 1_555 1_555
C4 C3 1_555 1_555
H2 C4 1_555 1_555
H3 C4 1_555 1_555
C5 H6 1_555 1_555
H7 C5 1_555 1_555
C6 C3 1_555 1_555
C7 N1 1_555 1_555
C8 C7 1_555 1_555
C9 C8 1_555 1_555
C10 C9 1_555 1_555
H10 C10 1_555 1_555
C11 C10 1_555 1_555
H11 C11 1_555 1_555
C12 C11 1_555 1_555
C13 C12 1_555 1_555
H12 C13 1_555 1_555
C14 C13 1_555 1_555
H13 C14 1_555 1_555
C15 C14 1_555 1_555
H14 C15 1_555 1_555
C16 C15 1_555 1_555
H15 C16 1_555 1_555
C17 C8 1_555 1_555
C18 C1 1_555 1_555
C19 C18 1_555 1_555
H16 C19 1_555 1_555
C20 C19 1_555 1_555
H17 C20 1_555 1_555
C21 C20 1_555 1_555
H18 C21 1_555 1_555
C22 C21 1_555 1_555
H19 C22 1_555 1_555
C23 C18 1_555 1_555
H20 C23 1_555 1_555
C24 O1 1_555 1_555
H21 C24 1_555 1_555
H22 C24 1_555 1_555
H23 C24 1_555 1_555
C25 C4 1_555 1_555
H24 C25 1_555 1_555
H25 C25 1_555 1_555
C26 C5 1_555 1_555
H26 C26 1_555 1_555
H27 C26 1_555 1_555
C5 C6 1_555 1_555
C6 C7 1_555 1_555
C12 C17 1_555 1_555
C16 C17 1_555 1_555
C22 C23 1_555 1_555
C25 C26 1_555 1_555

#END
