
#######################################################################
#
#                 Cambridge Crystallographic Data Centre
#                                CCDC 
#
#######################################################################
#
# If this CIF has been generated from an entry in the Cambridge 
# Structural Database, then it will include bibliographic, chemical, 
# crystal, experimental, refinement or atomic coordinate data resulting 
# from the CCDC's data processing and validation procedures.
#
#######################################################################

data_DAFTOW
_chemical_formula_moiety         'C23 H21 Cl1 N2 O4'
_chemical_name_systematic        
"t-butyl (S)-3'-(3-chlorophenyl)-1-methyl-2,5'-dioxo-1,2-dihydrospiro[indole-3,2'-pyrrole]-1'(5'H)-carboxylate"
_symmetry_cell_setting           orthorhombic
_symmetry_space_group_name_H-M   'P 21 21 21'
_symmetry_Int_Tables_number      19
_space_group_name_Hall           'P 2ac 2ab'
loop_
_symmetry_equiv_pos_site_id
_symmetry_equiv_pos_as_xyz
1 x,y,z
2 1/2-x,-y,1/2+z
3 1/2+x,1/2-y,-z
4 -x,1/2+y,1/2-z
_cell_length_a                   8.7326(13)
_cell_length_b                   27.465(4)
_cell_length_c                   9.3261(11)
_cell_angle_alpha                90
_cell_angle_beta                 90
_cell_angle_gamma                90
_cell_volume                     2236.78
_exptl_crystal_colour            colorless
_exptl_crystal_description       block
_chemical_melting_point          '164.2-166.3 deg.C'
_cell_formula_units_Z            4
loop_
_atom_site_label
_atom_site_type_symbol
_atom_site_fract_x
_atom_site_fract_y
_atom_site_fract_z
Cl1 Cl -0.4260(8) -0.23932(16) -0.9705(5)
O1 O -0.4225(9) -0.1765(3) -1.5367(8)
O2 O -0.3533(10) -0.0148(3) -1.6035(10)
O3 O -0.6246(10) -0.0384(3) -1.7459(10)
O4 O -0.7240(8) -0.1083(3) -1.6604(8)
N1 N -0.6537(9) -0.1877(3) -1.4249(9)
N2 N -0.5320(9) -0.0741(3) -1.5405(9)
C1 C -0.4290(14) -0.1611(4) -1.1436(12)
H1 H -0.4552 -0.1827 -1.2163
C2 C -0.4035(18) -0.1772(5) -1.0043(14)
C3 C -0.3678(17) -0.1470(6) -0.8956(14)
H2 H -0.3541 -0.1590 -0.8032
C4 C -0.3519(15) -0.0982(6) -0.9237(14)
H3 H -0.3267 -0.0769 -0.8499
C5 C -0.3732(13) -0.0806(4) -1.0610(12)
H4 H -0.3598 -0.0476 -1.0796
C6 C -0.4141(11) -0.1116(4) -1.1702(10)
C7 C -0.4318(11) -0.0916(4) -1.3178(11)
C8 C -0.3511(12) -0.0550(4) -1.3739(13)
H5 H -0.2716 -0.0389 -1.3276
C9 C -0.4053(13) -0.0440(4) -1.5186(12)
C10 C -0.5550(10) -0.1078(3) -1.4210(10)
C11 C -0.5318(11) -0.1612(3) -1.4712(11)
C12 C -0.7645(11) -0.1576(4) -1.3589(10)
C13 C -0.9060(13) -0.1702(5) -1.3068(12)
H6 H -0.9399 -0.2023 -1.3073
C14 C -0.9968(14) -0.1326(6) -1.2530(14)
H7 H -1.0931 -0.1399 -1.2164
C15 C -0.9481(14) -0.0855(5) -1.2526(13)
H8 H -1.0125 -0.0613 -1.2179
C16 C -0.8042(12) -0.0732(4) -1.3029(11)
H9 H -0.7689 -0.0413 -1.2986
C17 C -0.7147(10) -0.1100(4) -1.3599(10)
C18 C -0.6696(15) -0.2398(3) -1.4472(16)
H10 H -0.5853 -0.2514 -1.5037
H11 H -0.7640 -0.2463 -1.4964
H12 H -0.6699 -0.2561 -1.3561
C19 C -0.6296(13) -0.0708(4) -1.6604(12)
C20 C -0.8550(15) -0.1114(5) -1.7625(15)
C21 C -0.9382(19) -0.1564(6) -1.7150(17)
H13 H -0.8733 -0.1843 -1.7282
H14 H -1.0297 -0.1603 -1.7709
H15 H -0.9648 -0.1535 -1.6155
C22 C -0.792(2) -0.1165(9) -1.9115(14)
H16 H -0.7596 -0.0852 -1.9458
H17 H -0.8700 -0.1292 -1.9737
H18 H -0.7062 -0.1384 -1.9103
C23 C -0.9533(19) -0.0672(7) -1.739(3)
H19 H -1.0142 -0.0717 -1.6543
H20 H -1.0192 -0.0626 -1.8202
H21 H -0.8891 -0.0391 -1.7273
loop_
_geom_bond_atom_site_label_1
_geom_bond_atom_site_label_2
_geom_bond_site_symmetry_1
_geom_bond_site_symmetry_2
Cl1 C2 1_555 1_555
O1 C11 1_555 1_555
O2 C9 1_555 1_555
O3 C19 1_555 1_555
O4 C19 1_555 1_555
N1 C11 1_555 1_555
N2 C9 1_555 1_555
C1 H1 1_555 1_555
C2 C1 1_555 1_555
C3 C2 1_555 1_555
H2 C3 1_555 1_555
C4 C3 1_555 1_555
H3 C4 1_555 1_555
C5 C4 1_555 1_555
H4 C5 1_555 1_555
C6 C1 1_555 1_555
C7 C6 1_555 1_555
C8 C7 1_555 1_555
H5 C8 1_555 1_555
C9 C8 1_555 1_555
C10 N2 1_555 1_555
C11 C10 1_555 1_555
C12 N1 1_555 1_555
C13 C12 1_555 1_555
H6 C13 1_555 1_555
C14 C13 1_555 1_555
H7 C14 1_555 1_555
C15 C14 1_555 1_555
H8 C15 1_555 1_555
C16 C15 1_555 1_555
H9 C16 1_555 1_555
C17 C10 1_555 1_555
C18 N1 1_555 1_555
H10 C18 1_555 1_555
H11 C18 1_555 1_555
H12 C18 1_555 1_555
C19 N2 1_555 1_555
C20 O4 1_555 1_555
C21 C20 1_555 1_555
H13 C21 1_555 1_555
H14 C21 1_555 1_555
H15 C21 1_555 1_555
C22 C20 1_555 1_555
H16 C22 1_555 1_555
H17 C22 1_555 1_555
H18 C22 1_555 1_555
C23 C20 1_555 1_555
H19 C23 1_555 1_555
H20 C23 1_555 1_555
H21 C23 1_555 1_555
C5 C6 1_555 1_555
C7 C10 1_555 1_555
C12 C17 1_555 1_555
C16 C17 1_555 1_555

#END
