
#######################################################################
#
#                 Cambridge Crystallographic Data Centre
#                                CCDC 
#
#######################################################################
#
# If this CIF has been generated from an entry in the Cambridge 
# Structural Database, then it will include bibliographic, chemical, 
# crystal, experimental, refinement or atomic coordinate data resulting 
# from the CCDC's data processing and validation procedures.
#
#######################################################################

data_DAFVEM
_chemical_formula_moiety         'C21 H16 Cl1 N1 O5'
_chemical_name_systematic        
2-Amino-3-(ethoxycarbonyl)-4-(4-chlorophenyl)-4H,5H-pyrano-(3,2-c)benzopyran-5-one
_symmetry_cell_setting           triclinic
_symmetry_space_group_name_H-M   'P -1'
_symmetry_Int_Tables_number      2
_space_group_name_Hall           '-P 1'
loop_
_symmetry_equiv_pos_site_id
_symmetry_equiv_pos_as_xyz
1 x,y,z
2 -x,-y,-z
_cell_length_a                   5.756(1)
_cell_length_b                   10.099(1)
_cell_length_c                   17.106(3)
_cell_angle_alpha                80.49(1)
_cell_angle_beta                 83.13(1)
_cell_angle_gamma                80.07(1)
_cell_volume                     961.752
_chemical_melting_point          208-209deg.C
_cell_formula_units_Z            2
_exptl_crystal_recrystallization_method '95% ethanol'
loop_
_atom_site_label
_atom_site_type_symbol
_atom_site_fract_x
_atom_site_fract_y
_atom_site_fract_z
Cl1 Cl 0.43508(11) 1.21243(5) 0.75095(4)
O1 O 0.2522(2) 0.46894(12) 0.92745(7)
O2 O 0.8294(2) 0.43242(11) 0.76122(6)
O3 O 0.0518(2) 0.62681(14) 0.84553(8)
N1 N 1.0057(3) 0.43749(19) 0.63928(10)
C1 C 0.4541(3) 0.37904(17) 0.94508(10)
C2 C 0.4498(4) 0.3008(2) 1.01968(11)
H1 H 0.3158 0.3096 1.0558
C3 C 0.6475(4) 0.2104(2) 1.03897(12)
H2 H 0.6466 0.1567 1.0887
C4 C 0.8494(4) 0.1969(2) 0.98600(12)
H3 H 0.9826 0.1356 1.0006
C5 C 0.8520(3) 0.27447(18) 0.91180(11)
H4 H 0.9864 0.2648 0.8759
C6 C 0.6529(3) 0.36766(16) 0.89048(9)
C7 C 0.6332(3) 0.45177(16) 0.81404(9)
C8 C 0.4377(3) 0.53986(16) 0.79593(9)
C9 C 0.2361(3) 0.55128(18) 0.85512(10)
C10 C 0.4200(3) 0.62844(16) 0.71643(9)
H5 H 0.2686 0.6228 0.6973
C11 C 0.6184(3) 0.57418(17) 0.65768(10)
C12 C 0.8104(3) 0.48640(17) 0.68253(10)
C13 C 0.4236(3) 0.77658(16) 0.72403(9)
C14 C 0.6114(3) 0.81260(17) 0.75463(10)
H6 H 0.7376 0.7459 0.7695
C15 C 0.6157(3) 0.94582(18) 0.76361(11)
H7 H 0.7424 0.9685 0.7849
C16 C 0.4299(3) 1.04415(17) 0.74064(10)
C17 C 0.2417(3) 1.01171(19) 0.70947(12)
H8 H 0.1167 1.0789 0.6941
C18 C 0.2402(3) 0.87803(18) 0.70125(11)
H9 H 0.1131 0.8559 0.6800
C19 C 0.6096(4) 0.6202(2) 0.57345(11)
H10 H 1.108(3) 0.3795(17) 0.6647(11)
H11 H 1.013(4) 0.467(2) 0.5885(6)
O4 O 0.4139(7) 0.7089(7) 0.5564(3)
O5 O 0.7640(11) 0.5922(11) 0.5208(3)
C20 C 0.4058(9) 0.7578(7) 0.4715(3)
H12 H 0.3977 0.6840 0.4427
H13 H 0.5447 0.7990 0.4500
C21 C 0.1859(8) 0.8609(5) 0.4661(2)
H14 H 0.0516 0.8192 0.4900
H15 H 0.1654 0.8954 0.4112
H16 H 0.1995 0.9343 0.4937
O6? O 0.3961(14) 0.6895(17) 0.5595(7)
O7? O 0.754(3) 0.584(3) 0.5209(6)
C22? C 0.311(3) 0.7487(14) 0.4826(7)
H17? H 0.1402 0.7531 0.4848
H18? H 0.3858 0.6958 0.4415
C23? C 0.377(3) 0.8884(12) 0.4669(6)
H19? H 0.3000 0.9391 0.5082
H20? H 0.3268 0.9339 0.4164
H21? H 0.5452 0.8819 0.4661
loop_
_geom_bond_atom_site_label_1
_geom_bond_atom_site_label_2
_geom_bond_site_symmetry_1
_geom_bond_site_symmetry_2
Cl1 C16 1_555 1_555
O1 C1 1_555 1_555
O2 C7 1_555 1_555
O3 C9 1_555 1_555
N1 C12 1_555 1_555
C1 C2 1_555 1_555
C2 H1 1_555 1_555
C3 C2 1_555 1_555
H2 C3 1_555 1_555
C4 C3 1_555 1_555
H3 C4 1_555 1_555
C5 C4 1_555 1_555
H4 C5 1_555 1_555
C6 C1 1_555 1_555
C7 C6 1_555 1_555
C8 C7 1_555 1_555
C9 O1 1_555 1_555
C10 C8 1_555 1_555
H5 C10 1_555 1_555
C11 C10 1_555 1_555
C12 O2 1_555 1_555
C13 C10 1_555 1_555
C14 C13 1_555 1_555
H6 C14 1_555 1_555
C15 C14 1_555 1_555
H7 C15 1_555 1_555
C16 C15 1_555 1_555
C17 C16 1_555 1_555
H8 C17 1_555 1_555
C18 C13 1_555 1_555
H9 C18 1_555 1_555
C19 C11 1_555 1_555
H10 N1 1_555 1_555
H11 N1 1_555 1_555
O4 C19 1_555 1_555
O5 C19 1_555 1_555
C20 O4 1_555 1_555
H12 C20 1_555 1_555
H13 C20 1_555 1_555
C21 C20 1_555 1_555
H14 C21 1_555 1_555
H15 C21 1_555 1_555
H16 C21 1_555 1_555
C5 C6 1_555 1_555
C8 C9 1_555 1_555
C11 C12 1_555 1_555
C17 C18 1_555 1_555

#END
