
#######################################################################
#
#                 Cambridge Crystallographic Data Centre
#                                CCDC 
#
#######################################################################
#
# If this CIF has been generated from an entry in the Cambridge 
# Structural Database, then it will include bibliographic, chemical, 
# crystal, experimental, refinement or atomic coordinate data resulting 
# from the CCDC's data processing and validation procedures.
#
#######################################################################

data_DAFYUE
_chemical_formula_moiety         'C19 H26 O3,1.5(H2 O1)'
_chemical_name_systematic        
'5-(2-Hydroxyethyloxy)-6-hydroxy-2,6-bis(n-propyl)tricyclo(5.4.0.0^2,5^)undeca-3,7,9,11-tetrene sesquihydrate'
_symmetry_cell_setting           monoclinic
_symmetry_space_group_name_H-M   'C 2/c'
_symmetry_Int_Tables_number      15
_space_group_name_Hall           '-C 2yn'
loop_
_symmetry_equiv_pos_site_id
_symmetry_equiv_pos_as_xyz
1 x,y,z
2 1/2+x,1/2+y,z
3 -x,y,1/2-z
4 1/2-x,1/2+y,1/2-z
5 -x,-y,-z
6 1/2-x,1/2-y,-z
7 x,-y,1/2+z
8 1/2+x,1/2-y,1/2+z
_cell_length_a                   27.181(2)
_cell_length_b                   10.174(1)
_cell_length_c                   14.228(3)
_cell_angle_alpha                90
_cell_angle_beta                 101.10(1)
_cell_angle_gamma                90
_cell_volume                     3861
_chemical_melting_point          143-144deg.C
_cell_formula_units_Z            8
loop_
_atom_site_label
_atom_site_type_symbol
_atom_site_fract_x
_atom_site_fract_y
_atom_site_fract_z
C1 C 0.6889(1) 0.6204(3) -0.1296(2)
C2 C 0.7231(1) 0.6901(5) -0.2653(3)
C3 C 0.6533(1) 0.8053(4) -0.2250(2)
C4 C 0.6171(1) 0.7209(3) -0.0802(2)
C5 C 0.6785(1) 0.6638(4) 0.0796(2)
C6 C 0.6842(1) 0.5461(3) -0.0416(2)
C7 C 0.6470(2) 0.3435(4) -0.1336(4)
C8 C 0.6108(1) 0.8564(3) -0.0396(3)
C9 C 0.5695(2) 1.0054(5) 0.0637(5)
C10 C 0.5591(1) 0.4074(5) 0.1164(3)
O1 O 0.5994(1) 0.5365(2) 0.0155(1)
C11 C 0.7238(1) 0.6050(5) -0.1884(3)
C12 C 0.6877(2) 0.7890(5) -0.2832(3)
C13 C 0.6538(1) 0.7211(3) -0.1482(2)
C14 C 0.6390(1) 0.6158(3) -0.0046(2)
C15 C 0.7161(1) 0.6062(4) 0.0486(2)
C16 C 0.6839(1) 0.3958(4) -0.0493(3)
C17 C 0.6427(2) 0.1944(5) -0.1338(4)
C18 C 0.5747(2) 0.8650(4) 0.0302(4)
C19 C 0.6017(1) 0.4966(5) 0.1122(3)
O2 O 0.5699(1) 0.6785(2) -0.1360(2)
O3 O 0.5118(1) 0.4707(3) 0.0943(2)
H1 H 0.7523 0.5282 -0.1726
H2 H 0.7449 0.6835 -0.3180
H3 H 0.6829 0.8426 -0.3443
H4 H 0.6272 0.8609 -0.2466
H5 H 0.6762 0.7224 0.1417
H6 H 0.7563 0.6016 0.0765
H7 H 0.6748 0.3536 0.0162
H8 H 0.7213 0.3618 -0.0546
H9 H 0.6097 0.3853 -0.1337
H10 H 0.6579 0.3738 -0.2005
H11 H 0.6175 0.1569 -0.1910
H12 H 0.6326 0.1671 -0.0650
H13 H 0.6807 0.1556 -0.1318
H14 H 0.6415 0.8829 -0.0013
H15 H 0.6073 0.9203 -0.0890
H16 H 0.5379 0.8264 -0.0057
H17 H 0.5884 0.8078 0.0917
H18 H 0.6029 1.0421 0.1022
H19 H 0.5385 1.0155 0.0990
H20 H 0.5592 1.0682 -0.0049
H21 H 0.6373 0.4514 0.1408
H22 H 0.5979 0.5840 0.1564
H23 H 0.5633 0.3615 0.1863
H24 H 0.5597 0.3295 0.0634
H25 H 0.5491 0.6366 -0.1107
H26 H 0.5027 0.5368 0.0330
O4 O 0.0000 0.1219(5) 0.2500
H27 H 0.0213 0.1972 0.2585
H27B H -0.0213 0.1972 0.2415
O5 O 0.0000 0.6497(4) 0.2500
H28 H -0.0319 0.7163 0.2312
H28B H 0.0319 0.7163 0.2688
loop_
_geom_bond_atom_site_label_1
_geom_bond_atom_site_label_2
_geom_bond_site_symmetry_1
_geom_bond_site_symmetry_2
C1 C6 1_555 1_555
C2 C11 1_555 1_555
C3 C12 1_555 1_555
C4 C8 1_555 1_555
C5 C14 1_555 1_555
C6 C14 1_555 1_555
C7 C16 1_555 1_555
C8 C18 1_555 1_555
C9 C18 1_555 1_555
C10 C19 1_555 1_555
O1 C14 1_555 1_555
C11 C1 1_555 1_555
C12 C2 1_555 1_555
C13 C1 1_555 1_555
C14 C4 1_555 1_555
C15 C5 1_555 1_555
C16 C6 1_555 1_555
C17 C7 1_555 1_555
C18 H16 1_555 1_555
C19 O1 1_555 1_555
O2 C4 1_555 1_555
O3 C10 1_555 1_555
H1 C11 1_555 1_555
H2 C2 1_555 1_555
H3 C12 1_555 1_555
H4 C3 1_555 1_555
H5 C5 1_555 1_555
H6 C15 1_555 1_555
H7 C16 1_555 1_555
H8 C16 1_555 1_555
H9 C7 1_555 1_555
H10 C7 1_555 1_555
H11 C17 1_555 1_555
H12 C17 1_555 1_555
H13 C17 1_555 1_555
H14 C8 1_555 1_555
H15 C8 1_555 1_555
H17 C18 1_555 1_555
H18 C9 1_555 1_555
H19 C9 1_555 1_555
H20 C9 1_555 1_555
H21 C19 1_555 1_555
H22 C19 1_555 1_555
H23 C10 1_555 1_555
H24 C10 1_555 1_555
H25 O2 1_555 1_555
H26 O3 1_555 1_555
O4 H27 1_555 1_555
O5 H28 1_555 1_555
H27B O4 1_555 1_555
H28B O5 1_555 1_555
C3 C13 1_555 1_555
C4 C13 1_555 1_555
C6 C15 1_555 1_555

#END
