
#######################################################################
#
#                 Cambridge Crystallographic Data Centre
#                                CCDC 
#
#######################################################################
#
# If this CIF has been generated from an entry in the Cambridge 
# Structural Database, then it will include bibliographic, chemical, 
# crystal, experimental, refinement or atomic coordinate data resulting 
# from the CCDC's data processing and validation procedures.
#
#######################################################################

data_DAGHEZ
_chemical_formula_moiety         'C21 H22 I1 N1 O1 S1'
_chemical_name_systematic        
8-Iodo-2-phenyl-4-(2-methoxyphenyl)-4a,5,6,7,8,8a-hexahydro-4H-benzo(e)(1,3)thiazine
_symmetry_cell_setting           triclinic
_symmetry_space_group_name_H-M   'P -1'
_symmetry_Int_Tables_number      2
_space_group_name_Hall           '-P 1'
loop_
_symmetry_equiv_pos_site_id
_symmetry_equiv_pos_as_xyz
1 x,y,z
2 -x,-y,-z
_cell_length_a                   6.5567(6)
_cell_length_b                   12.3147(5)
_cell_length_c                   12.7989(5)
_cell_angle_alpha                70.26(1)
_cell_angle_beta                 87.42(1)
_cell_angle_gamma                88.29(1)
_cell_volume                     971.598
_exptl_crystal_colour            colorless
_exptl_crystal_description       block
_cell_formula_units_Z            2
loop_
_atom_site_label
_atom_site_type_symbol
_atom_site_fract_x
_atom_site_fract_y
_atom_site_fract_z
I1 I 0.07360(2) 0.375905(9) 0.86619(1)
S1 S 0.16718(9) 0.00526(4) 0.84568(4)
O1 O 0.2914(3) 0.3950(1) 0.4864(1)
N1 N 0.3955(3) 0.0472(1) 0.6501(1)
C1 C 0.3275(3) -0.0239(1) 0.7413(2)
C2 C 0.1622(3) 0.1639(1) 0.8004(1)
C3 C 0.3449(3) 0.2125(1) 0.7214(1)
C4 C 0.3497(3) 0.1715(1) 0.6208(2)
C5 C 0.1613(3) 0.1935(1) 0.9064(2)
C6 C 0.3648(4) 0.1726(2) 0.9629(2)
C7 C 0.5417(4) 0.2264(2) 0.8826(2)
C8 C 0.5478(3) 0.1892(2) 0.7805(2)
C9 C 0.3940(3) -0.1472(1) 0.7738(2)
C10 C 0.2726(4) -0.2357(2) 0.8455(2)
C11 C 0.3496(5) -0.3487(2) 0.8792(2)
C12 C 0.5378(5) -0.3739(2) 0.8435(2)
C13 C 0.6575(5) -0.2871(2) 0.7715(2)
C14 C 0.5827(4) -0.1744(2) 0.7369(2)
C15 C 0.1637(3) 0.2071(1) 0.5516(1)
C16 C 0.0141(3) 0.1305(1) 0.5493(2)
C17 C -0.1556(4) 0.1649(2) 0.4852(2)
C18 C -0.1789(4) 0.2788(2) 0.4206(2)
C19 C -0.0328(4) 0.3584(2) 0.4208(2)
C20 C 0.1382(3) 0.3230(1) 0.4840(2)
C21 C 0.3051(4) 0.5045(2) 0.4001(2)
H1 H 0.0385 0.1930 0.7625
H2 H 0.3285 0.2944 0.6939
H3 H 0.4626 0.2098 0.5741
H4 H 0.0605 0.1474 0.9573
H5 H 0.3877 0.0915 0.9957
H6 H 0.3546 0.2049 1.0221
H7 H 0.6674 0.2052 0.9197
H8 H 0.5275 0.3092 0.8592
H9 H 0.5760 0.1081 0.8031
H10 H 0.6526 0.2288 0.7294
H11 H 0.1380 -0.2177 0.8711
H12 H 0.2637 -0.4102 0.9283
H13 H 0.5785 -0.4530 0.8677
H14 H 0.7878 -0.3070 0.7451
H15 H 0.6679 -0.1136 0.6877
H16 H 0.0299 0.0504 0.5937
H17 H -0.2533 0.1072 0.4854
H18 H -0.3028 0.3044 0.3781
H19 H -0.0454 0.4398 0.3761
H20 H 0.2799 0.4963 0.3311
H21 H 0.1889 0.5524 0.4150
H22 H 0.4238 0.5410 0.4001
loop_
_geom_bond_atom_site_label_1
_geom_bond_atom_site_label_2
_geom_bond_site_symmetry_1
_geom_bond_site_symmetry_2
I1 C5 1_555 1_555
S1 C1 1_555 1_555
O1 C20 1_555 1_555
N1 C1 1_555 1_555
C1 C9 1_555 1_555
C2 S1 1_555 1_555
C3 C2 1_555 1_555
C4 N1 1_555 1_555
C5 C2 1_555 1_555
C6 C5 1_555 1_555
C7 C6 1_555 1_555
C8 C3 1_555 1_555
C9 C10 1_555 1_555
C10 C11 1_555 1_555
C11 C12 1_555 1_555
C12 C13 1_555 1_555
C13 C14 1_555 1_555
C14 C9 1_555 1_555
C15 C4 1_555 1_555
C16 C15 1_555 1_555
C17 C16 1_555 1_555
C18 C17 1_555 1_555
C19 C18 1_555 1_555
C20 C15 1_555 1_555
C21 O1 1_555 1_555
H1 C2 1_555 1_555
H2 C3 1_555 1_555
H3 C4 1_555 1_555
H4 C5 1_555 1_555
H5 C6 1_555 1_555
H6 C6 1_555 1_555
H7 C7 1_555 1_555
H8 C7 1_555 1_555
H9 C8 1_555 1_555
H10 C8 1_555 1_555
H11 C10 1_555 1_555
H12 C11 1_555 1_555
H13 C12 1_555 1_555
H14 C13 1_555 1_555
H15 C14 1_555 1_555
H16 C16 1_555 1_555
H17 C17 1_555 1_555
H18 C18 1_555 1_555
H19 C19 1_555 1_555
H20 C21 1_555 1_555
H21 C21 1_555 1_555
H22 C21 1_555 1_555
C3 C4 1_555 1_555
C7 C8 1_555 1_555
C19 C20 1_555 1_555

#END
