
#######################################################################
#
#                 Cambridge Crystallographic Data Centre
#                                CCDC 
#
#######################################################################
#
# If this CIF has been generated from an entry in the Cambridge 
# Structural Database, then it will include bibliographic, chemical, 
# crystal, experimental, refinement or atomic coordinate data resulting 
# from the CCDC's data processing and validation procedures.
#
#######################################################################

data_DAGTOX
_chemical_formula_moiety         'C12 H14 N2 O2'
_chemical_name_systematic        4-(2-(ethoxymethyl)phenyl)-1H-pyrazol-3-ol
_symmetry_cell_setting           monoclinic
_symmetry_space_group_name_H-M   'P 21/n'
_symmetry_Int_Tables_number      14
_space_group_name_Hall           '-P 2yn'
loop_
_symmetry_equiv_pos_site_id
_symmetry_equiv_pos_as_xyz
1 x,y,z
2 1/2-x,1/2+y,1/2-z
3 -x,-y,-z
4 1/2+x,1/2-y,1/2+z
_cell_length_a                   9.1554(13)
_cell_length_b                   7.0628(8)
_cell_length_c                   17.784(3)
_cell_angle_alpha                90
_cell_angle_beta                 94.371(4)
_cell_angle_gamma                90
_cell_volume                     1146.62
_exptl_crystal_colour            colorless
_exptl_crystal_description       needle
_cell_formula_units_Z            4
loop_
_atom_site_label
_atom_site_type_symbol
_atom_site_fract_x
_atom_site_fract_y
_atom_site_fract_z
O1 O 0.37378(15) 0.06214(18) 0.11263(7)
O2 O 0.60317(15) 0.1552(2) 0.43352(8)
N1 N 0.41487(17) -0.0669(2) 0.41931(8)
N2 N 0.31657(19) -0.1129(2) 0.36114(9)
C1 C 0.44844(19) 0.1152(2) 0.31672(9)
C2 C 0.49324(19) 0.0717(3) 0.39223(10)
C3 C 0.53801(19) 0.2403(3) 0.19533(10)
C4 C 0.50913(18) 0.2657(2) 0.27080(10)
C5 C 0.3351(2) -0.0087(3) 0.30030(11)
C6 C 0.6008(2) 0.5859(3) 0.26461(13)
H1 H 0.6217 0.7016 0.2880
C7 C 0.5119(2) 0.0566(3) 0.15509(11)
C8 C 0.5422(2) 0.4410(3) 0.30428(11)
H2 H 0.5243 0.4601 0.3545
C9 C 0.5968(2) 0.3898(3) 0.15663(12)
H3 H 0.6151 0.3732 0.1063
C10 C 0.6285(2) 0.5601(3) 0.19024(13)
H4 H 0.6684 0.6576 0.1632
C11 C 0.3435(3) -0.1081(3) 0.07064(15)
C12 C 0.2153(3) -0.0777(4) 0.01653(13)
H5 H 0.1321 -0.0436 0.0434
H6 H 0.1943 -0.1920 -0.0114
H7 H 0.2361 0.0224 -0.0176
H8 H 0.275(2) -0.027(3) 0.2561(12)
H9 H 0.513(2) -0.051(3) 0.1905(11)
H10 H 0.588(2) 0.033(3) 0.1191(12)
H11 H 0.253(2) -0.207(3) 0.3662(11)
H12 H 0.601(3) 0.123(3) 0.4837(14)
H13 H 0.327(2) -0.207(3) 0.1067(13)
H14 H 0.429(3) -0.156(4) 0.0424(14)
loop_
_geom_bond_atom_site_label_1
_geom_bond_atom_site_label_2
_geom_bond_site_symmetry_1
_geom_bond_site_symmetry_2
O1 C7 1_555 1_555
O2 C2 1_555 1_555
N1 N2 1_555 1_555
N2 C5 1_555 1_555
C1 C2 1_555 1_555
C2 N1 1_555 1_555
C3 C4 1_555 1_555
C4 C1 1_555 1_555
C5 C1 1_555 1_555
C6 H1 1_555 1_555
C7 C3 1_555 1_555
C8 C4 1_555 1_555
H2 C8 1_555 1_555
C9 C3 1_555 1_555
H3 C9 1_555 1_555
C10 C6 1_555 1_555
H4 C10 1_555 1_555
C11 O1 1_555 1_555
C12 C11 1_555 1_555
H5 C12 1_555 1_555
H6 C12 1_555 1_555
H7 C12 1_555 1_555
H8 C5 1_555 1_555
H9 C7 1_555 1_555
H10 C7 1_555 1_555
H11 N2 1_555 1_555
H12 O2 1_555 1_555
H13 C11 1_555 1_555
H14 C11 1_555 1_555
C6 C8 1_555 1_555
C9 C10 1_555 1_555

#END
