
#######################################################################
#
#                 Cambridge Crystallographic Data Centre
#                                CCDC 
#
#######################################################################
#
# If this CIF has been generated from an entry in the Cambridge 
# Structural Database, then it will include bibliographic, chemical, 
# crystal, experimental, refinement or atomic coordinate data resulting 
# from the CCDC's data processing and validation procedures.
#
#######################################################################

data_DAGWEO
_chemical_formula_moiety         'C22 H22 N2 O2'
_chemical_name_systematic        
1,5,7-trimethyl-7-(3-quinolylethynyl)-3-azabicyclo[3.3.1]nonane-2,4-dione
_symmetry_cell_setting           monoclinic
_symmetry_space_group_name_H-M   'P 21/a'
_symmetry_Int_Tables_number      14
_space_group_name_Hall           '-P 2yab'
loop_
_symmetry_equiv_pos_site_id
_symmetry_equiv_pos_as_xyz
1 x,y,z
2 1/2+x,1/2-y,z
3 -x,-y,-z
4 1/2-x,1/2+y,-z
_cell_length_a                   14.9171(2)
_cell_length_b                   12.9531(2)
_cell_length_c                   19.9159(3)
_cell_angle_alpha                90
_cell_angle_beta                 107.7345(8)
_cell_angle_gamma                90
_cell_volume                     3665.33
_exptl_crystal_colour            colorless
_exptl_crystal_description       Cube
_cell_formula_units_Z            8
loop_
_atom_site_label
_atom_site_type_symbol
_atom_site_fract_x
_atom_site_fract_y
_atom_site_fract_z
O1 O 0.61111(8) 0.26923(8) 0.33812(5)
O2 O 0.55871(8) 0.26621(8) 0.10355(5)
N1 N 0.33753(8) 0.60099(9) 0.20959(5)
N2 N 0.59486(8) 0.26072(9) 0.22195(5)
C1 C 0.59392(9) 0.21653(10) 0.28489(6)
C2 C 0.56972(9) 0.10254(10) 0.28369(6)
C3 C 0.46290(9) 0.09030(11) 0.27074(7)
C4 C 0.39790(9) 0.12131(10) 0.19704(7)
C5 C 0.43855(10) 0.08103(11) 0.13925(7)
C6 C 0.54508(9) 0.09913(10) 0.15325(6)
C7 C 0.56605(9) 0.21478(10) 0.15598(7)
C8 C 0.59805(10) 0.05070(11) 0.22421(7)
C9 C 0.62161(11) 0.05350(12) 0.35486(7)
C10 C 0.30036(11) 0.07282(14) 0.18755(10)
C11 C 0.57574(13) 0.05158(13) 0.09320(8)
C12 C 0.38417(9) 0.23452(11) 0.18894(7)
C13 C 0.36869(9) 0.32436(11) 0.17709(7)
C14 C 0.35332(9) 0.43216(10) 0.16289(7)
C15 C 0.33917(9) 0.47323(11) 0.09651(7)
C16 C 0.32354(9) 0.57997(11) 0.08532(6)
C17 C 0.30927(11) 0.62778(13) 0.01874(7)
C18 C 0.29511(12) 0.73131(14) 0.01078(8)
C19 C 0.29469(12) 0.79316(13) 0.06917(9)
C20 C 0.30885(11) 0.75019(12) 0.13429(8)
C21 C 0.32329(9) 0.64253(11) 0.14360(7)
C22 C 0.35187(9) 0.50133(11) 0.21796(7)
H1 H 0.4461(10) 0.1305(12) 0.3071(8)
H2 H 0.5844(11) -0.0267(13) 0.2222(8)
H7 H 0.4295(11) 0.0047(14) 0.1338(8)
H8 H 0.4520(10) 0.0156(13) 0.2777(8)
H10 H 0.6687(12) 0.0590(12) 0.2325(8)
H15 H 0.5607(13) -0.0239(17) 0.0878(10)
H17 H 0.6052(12) -0.0230(15) 0.3530(9)
H18 H 0.4033(11) 0.1125(12) 0.0904(8)
H21 H 0.6006(12) 0.0847(13) 0.3942(9)
H25 H 0.3377(11) 0.4298(14) 0.0567(9)
H28 H 0.5378(14) 0.0868(16) 0.0474(11)
H30 H 0.6918(14) 0.0607(15) 0.3670(10)
H31 H 0.2842(14) 0.8672(17) 0.0614(11)
H32 H 0.3631(11) 0.4732(13) 0.2658(9)
H33 H 0.6000(11) 0.3294(14) 0.2216(8)
H37 H 0.2746(13) 0.0936(15) 0.2255(10)
H38 H 0.3065(13) -0.0064(16) 0.1881(10)
H40 H 0.3117(12) 0.7923(14) 0.1773(10)
H41 H 0.3103(14) 0.5844(16) -0.0203(10)
H42 H 0.2538(14) 0.0942(15) 0.1411(10)
H43 H 0.6462(15) 0.0645(17) 0.0993(11)
H44 H 0.2853(15) 0.7602(17) -0.0351(12)
O3 O 0.39686(8) 0.84691(7) 0.31260(5)
O4 O 0.34755(7) 0.52852(7) 0.37969(5)
N3 N 0.59353(7) 0.49004(8) 0.23567(5)
N4 N 0.35261(7) 0.69328(8) 0.34519(5)
C23 C 0.38098(9) 0.79482(10) 0.35864(6)
C24 C 0.38927(9) 0.83638(9) 0.43208(6)
C25 C 0.49227(9) 0.83121(10) 0.48023(7)
C26 C 0.53396(8) 0.72172(10) 0.49901(6)
C27 C 0.46220(9) 0.65145(10) 0.51859(6)
C28 C 0.36008(8) 0.65819(10) 0.46937(6)
C29 C 0.35357(9) 0.61946(10) 0.39552(6)
C30 C 0.32789(9) 0.77040(10) 0.46400(7)
C31 C 0.35709(11) 0.94924(11) 0.42424(8)
C32 C 0.62437(10) 0.72753(12) 0.56239(7)
C33 C 0.29755(10) 0.58993(12) 0.49918(7)
C34 C 0.55831(8) 0.67958(10) 0.43768(6)
C35 C 0.57410(9) 0.65057(10) 0.38533(7)
C36 C 0.58140(9) 0.62371(10) 0.31708(6)
C37 C 0.57088(10) 0.69795(11) 0.26619(7)
C38 C 0.57014(10) 0.66973(10) 0.19757(7)
C39 C 0.55502(13) 0.74156(12) 0.14148(8)
C40 C 0.54977(12) 0.70908(13) 0.07536(8)
C41 C 0.55924(10) 0.60371(12) 0.06189(7)
C42 C 0.57505(9) 0.53195(11) 0.11464(7)
C43 C 0.58051(8) 0.56382(10) 0.18403(6)
C44 C 0.59350(9) 0.51970(11) 0.29900(7)
H3 H 0.3327(11) 0.7968(13) 0.5125(9)
H4 H 0.6094(12) 0.7587(14) 0.6039(9)
H5 H 0.4597(10) 0.6714(11) 0.5641(8)
H6 H 0.4828(10) 0.5775(12) 0.5217(7)
H9 H 0.3607(11) 0.9786(13) 0.4733(9)
H11 H 0.5325(11) 0.8719(13) 0.4585(8)
H12 H 0.4927(10) 0.8672(12) 0.5247(8)
H13 H 0.6728(12) 0.7755(13) 0.5504(9)
H14 H 0.6029(10) 0.4656(12) 0.3336(8)
H16 H 0.2601(12) 0.7767(12) 0.4344(8)
H19 H 0.3998(12) 0.9909(14) 0.4045(9)
H20 H 0.6512(12) 0.6577(14) 0.5755(9)
H22 H 0.5786(10) 0.4563(12) 0.1054(8)
H23 H 0.5471(12) 0.8164(15) 0.1519(9)
H24 H 0.3011(11) 0.6115(13) 0.5476(9)
H26 H 0.3194(12) 0.5159(15) 0.5029(9)
H27 H 0.2313(12) 0.5931(13) 0.4680(9)
H29 H 0.5643(12) 0.7711(14) 0.2771(9)
H34 H 0.2914(13) 0.9556(14) 0.3928(9)
H35 H 0.3521(12) 0.6682(14) 0.3010(10)
H36 H 0.5520(13) 0.5811(14) 0.0129(10)
H39 H 0.5382(15) 0.7595(16) 0.0358(11)
loop_
_geom_bond_atom_site_label_1
_geom_bond_atom_site_label_2
_geom_bond_site_symmetry_1
_geom_bond_site_symmetry_2
O1 C1 1_555 1_555
O2 C7 1_555 1_555
O3 C23 1_555 1_555
O4 C29 1_555 1_555
N1 C21 1_555 1_555
N2 C1 1_555 1_555
N3 C43 1_555 1_555
N4 C23 1_555 1_555
C1 C2 1_555 1_555
C2 C3 1_555 1_555
C3 C4 1_555 1_555
C4 C5 1_555 1_555
C5 C6 1_555 1_555
C6 C7 1_555 1_555
C7 N2 1_555 1_555
C8 C2 1_555 1_555
C9 C2 1_555 1_555
C10 C4 1_555 1_555
C11 C6 1_555 1_555
C12 C4 1_555 1_555
C13 C12 1_555 1_555
C14 C13 1_555 1_555
C15 C14 1_555 1_555
C16 C15 1_555 1_555
C17 C16 1_555 1_555
C18 C17 1_555 1_555
C19 C18 1_555 1_555
C20 C19 1_555 1_555
C21 C16 1_555 1_555
C22 N1 1_555 1_555
C23 C24 1_555 1_555
C24 C25 1_555 1_555
C25 C26 1_555 1_555
C26 C27 1_555 1_555
C27 C28 1_555 1_555
C28 C29 1_555 1_555
C29 N4 1_555 1_555
C30 C24 1_555 1_555
C31 C24 1_555 1_555
C32 C26 1_555 1_555
C33 C28 1_555 1_555
C34 C26 1_555 1_555
C35 C34 1_555 1_555
C36 C35 1_555 1_555
C37 C36 1_555 1_555
C38 C37 1_555 1_555
C39 C38 1_555 1_555
C40 C39 1_555 1_555
C41 C40 1_555 1_555
C42 C41 1_555 1_555
C43 C38 1_555 1_555
C44 N3 1_555 1_555
H1 C3 1_555 1_555
H2 C8 1_555 1_555
H3 C30 1_555 1_555
H4 C32 1_555 1_555
H5 C27 1_555 1_555
H6 C27 1_555 1_555
H7 C5 1_555 1_555
H8 C3 1_555 1_555
H9 C31 1_555 1_555
H10 C8 1_555 1_555
H11 C25 1_555 1_555
H12 C25 1_555 1_555
H13 C32 1_555 1_555
H14 C44 1_555 1_555
H15 C11 1_555 1_555
H16 C30 1_555 1_555
H17 C9 1_555 1_555
H18 C5 1_555 1_555
H19 C31 1_555 1_555
H20 C32 1_555 1_555
H21 C9 1_555 1_555
H22 C42 1_555 1_555
H23 C39 1_555 1_555
H24 C33 1_555 1_555
H25 C15 1_555 1_555
H26 C33 1_555 1_555
H27 C33 1_555 1_555
H28 C11 1_555 1_555
H29 C37 1_555 1_555
H30 C9 1_555 1_555
H31 C19 1_555 1_555
H32 C22 1_555 1_555
H33 N2 1_555 1_555
H34 C31 1_555 1_555
H35 N4 1_555 1_555
H36 C41 1_555 1_555
H37 C10 1_555 1_555
H38 C10 1_555 1_555
H39 C40 1_555 1_555
H40 C20 1_555 1_555
H41 C17 1_555 1_555
H42 C10 1_555 1_555
H43 C11 1_555 1_555
H44 C18 1_555 1_555
C6 C8 1_555 1_555
C14 C22 1_555 1_555
C20 C21 1_555 1_555
C28 C30 1_555 1_555
C36 C44 1_555 1_555
C42 C43 1_555 1_555

#END
