
#######################################################################
#
#                 Cambridge Crystallographic Data Centre
#                                CCDC 
#
#######################################################################
#
# If this CIF has been generated from an entry in the Cambridge 
# Structural Database, then it will include bibliographic, chemical, 
# crystal, experimental, refinement or atomic coordinate data resulting 
# from the CCDC's data processing and validation procedures.
#
#######################################################################

data_DAGWOA
_chemical_formula_moiety         'C21 H20 O3'
_chemical_name_systematic        
1-(4-hydroxy-3-methyl-1-benzofuran-5-yl)-3-mesitylprop-2-en-1-one
_symmetry_cell_setting           monoclinic
_symmetry_space_group_name_H-M   'P 21/n'
_symmetry_Int_Tables_number      14
_space_group_name_Hall           '-P 2yn'
loop_
_symmetry_equiv_pos_site_id
_symmetry_equiv_pos_as_xyz
1 x,y,z
2 1/2-x,1/2+y,1/2-z
3 -x,-y,-z
4 1/2+x,1/2-y,1/2+z
_cell_length_a                   7.2229(10)
_cell_length_b                   14.6972(14)
_cell_length_c                   15.7705(17)
_cell_angle_alpha                90
_cell_angle_beta                 97.746(11)
_cell_angle_gamma                90
_cell_volume                     1658.86
_exptl_crystal_colour            colorless
_exptl_crystal_description       needle
_cell_formula_units_Z            4
loop_
_atom_site_label
_atom_site_type_symbol
_atom_site_fract_x
_atom_site_fract_y
_atom_site_fract_z
O1 O 0.3513(5) 0.1063(2) -0.0112(2)
O2 O 0.3747(5) 0.3408(2) 0.18275(18)
H1 H 0.3577 0.3957 0.1864
O3 O 0.3044(6) 0.4998(2) 0.1307(2)
C1 C 0.3975(7) 0.0759(3) 0.0723(3)
H2 H 0.4226 0.0153 0.0864
C2 C 0.4024(6) 0.1418(3) 0.1299(3)
C3 C 0.3584(5) 0.2234(3) 0.0808(3)
C4 C 0.3274(6) 0.1983(3) -0.0042(3)
C5 C 0.2799(6) 0.2563(3) -0.0725(3)
H3 H 0.2590 0.2358 -0.1288
C6 C 0.2658(6) 0.3466(3) -0.0514(3)
H4 H 0.2357 0.3886 -0.0953
C7 C 0.2949(6) 0.3784(3) 0.0331(3)
C8 C 0.3423(5) 0.3155(3) 0.1007(3)
C9 C 0.4449(7) 0.1325(3) 0.2245(3)
H5 H 0.5531 0.1682 0.2449
H6 H 0.4688 0.0698 0.2390
H7 H 0.3403 0.1535 0.2507
C10 C 0.2788(6) 0.4752(3) 0.0541(3)
C11 C 0.2322(6) 0.5435(3) -0.0118(3)
H8 H 0.2167 0.5258 -0.0689
C12 C 0.2115(6) 0.6299(3) 0.0071(3)
H9 H 0.2271 0.6408 0.0657
C13 C 0.1691(5) 0.7127(3) -0.0440(3)
C14 C 0.1249(6) 0.7131(3) -0.1334(3)
C15 C 0.0879(6) 0.7961(3) -0.1742(3)
H10 H 0.0586 0.7966 -0.2334
C16 C 0.0925(6) 0.8777(3) -0.1313(3)
C17 C 0.1338(6) 0.8757(3) -0.0428(3)
H11 H 0.1359 0.9300 -0.0125
C18 C 0.1717(6) 0.7956(3) 0.0014(3)
C19 C 0.1178(8) 0.6302(4) -0.1882(3)
H12 H 0.2413 0.6055 -0.1864
H13 H 0.0700 0.6460 -0.2461
H14 H 0.0376 0.5858 -0.1674
C20 C 0.0569(8) 0.9678(4) -0.1779(4)
H15 H 0.0802 0.9611 -0.2361
H16 H 0.1386 1.0134 -0.1500
H17 H -0.0706 0.9858 -0.1770
C21 C 0.2173(7) 0.8013(3) 0.0971(3)
H18 H 0.1272 0.7669 0.1233
H19 H 0.2141 0.8637 0.1148
H20 H 0.3399 0.7768 0.1144
loop_
_geom_bond_atom_site_label_1
_geom_bond_atom_site_label_2
_geom_bond_site_symmetry_1
_geom_bond_site_symmetry_2
O1 C1 1_555 1_555
O2 H1 1_555 1_555
O3 C10 1_555 1_555
C1 H2 1_555 1_555
C2 C1 1_555 1_555
C3 C2 1_555 1_555
C4 O1 1_555 1_555
C5 C4 1_555 1_555
H3 C5 1_555 1_555
C6 C5 1_555 1_555
H4 C6 1_555 1_555
C7 C6 1_555 1_555
C8 O2 1_555 1_555
C9 C2 1_555 1_555
H5 C9 1_555 1_555
H6 C9 1_555 1_555
H7 C9 1_555 1_555
C10 C7 1_555 1_555
C11 C10 1_555 1_555
H8 C11 1_555 1_555
C12 C11 1_555 1_555
H9 C12 1_555 1_555
C13 C12 1_555 1_555
C14 C13 1_555 1_555
C15 C14 1_555 1_555
H10 C15 1_555 1_555
C16 C15 1_555 1_555
C17 C16 1_555 1_555
H11 C17 1_555 1_555
C18 C13 1_555 1_555
C19 C14 1_555 1_555
H12 C19 1_555 1_555
H13 C19 1_555 1_555
H14 C19 1_555 1_555
C20 C16 1_555 1_555
H15 C20 1_555 1_555
H16 C20 1_555 1_555
H17 C20 1_555 1_555
C21 C18 1_555 1_555
H18 C21 1_555 1_555
H19 C21 1_555 1_555
H20 C21 1_555 1_555
C3 C4 1_555 1_555
C3 C8 1_555 1_555
C7 C8 1_555 1_555
C17 C18 1_555 1_555

#END
