
#######################################################################
#
#                 Cambridge Crystallographic Data Centre
#                                CCDC 
#
#######################################################################
#
# If this CIF has been generated from an entry in the Cambridge 
# Structural Database, then it will include bibliographic, chemical, 
# crystal, experimental, refinement or atomic coordinate data resulting 
# from the CCDC's data processing and validation procedures.
#
#######################################################################

data_DAHCOH
_chemical_formula_moiety         'C24 H38 O6'
_chemical_name_systematic        
"5''-ethoxy-2,5,5,8a-tetramethyl-3-oxooctahydro-2H-dispiro[naphthalene-1,2'-oxolane-5',3''-oxolan]-2-yl acetate"
_symmetry_cell_setting           orthorhombic
_symmetry_space_group_name_H-M   'P 21 21 21'
_symmetry_Int_Tables_number      19
_space_group_name_Hall           'P 2ac 2ab'
loop_
_symmetry_equiv_pos_site_id
_symmetry_equiv_pos_as_xyz
1 x,y,z
2 1/2+x,1/2-y,-z
3 -x,1/2+y,1/2-z
4 1/2-x,-y,1/2+z
_cell_length_a                   7.87580(10)
_cell_length_b                   10.71090(10)
_cell_length_c                   54.7121(7)
_cell_angle_alpha                90
_cell_angle_beta                 90
_cell_angle_gamma                90
_cell_volume                     4615.34
_exptl_crystal_colour            colorless
_cell_formula_units_Z            8
loop_
_atom_site_label
_atom_site_type_symbol
_atom_site_fract_x
_atom_site_fract_y
_atom_site_fract_z
O1 O -0.2796(3) 0.8485(3) 0.92694(5)
O2 O -0.3632(3) 1.0126(3) 0.97376(5)
O3 O -0.0788(3) 0.9966(2) 0.97601(4)
O4 O 0.1262(3) 0.7969(2) 0.93128(4)
O5 O 0.2598(5) 0.4799(3) 0.93739(7)
O6 O 0.5439(4) 0.5235(3) 0.94125(7)
C1 C 0.3368(4) 1.0085(3) 0.92125(7)
H1 H 0.4244 1.0100 0.9342
H2 H 0.3426 0.9260 0.9131
C2 C 0.3767(5) 1.1102(4) 0.90255(7)
H3 H 0.3798 1.1923 0.9108
H4 H 0.4901 1.0946 0.8953
C3 C 0.2443(5) 1.1130(4) 0.88233(7)
H5 H 0.2490 1.0331 0.8733
H6 H 0.2733 1.1807 0.8707
C4 C 0.0623(5) 1.1333(3) 0.89157(6)
C5 C 0.0274(4) 1.0368(3) 0.91222(6)
H7 H 0.0283 0.9539 0.9038
C6 C -0.1536(4) 1.0485(3) 0.92301(7)
H8 H -0.1595 1.1186 0.9348
H9 H -0.2377 1.0631 0.9099
C7 C -0.1875(4) 0.9280(4) 0.93551(6)
C8 C -0.0725(4) 0.8986(3) 0.95749(6)
C9 C 0.1170(4) 0.9011(3) 0.94806(6)
C10 C 0.1606(4) 1.0240(3) 0.93304(6)
C11 C 0.2435(4) 0.8714(3) 0.96859(6)
H10 H 0.3282 0.9392 0.9702
H11 H 0.1834 0.8623 0.9844
C12 C 0.3283(8) 0.7525(6) 0.96183(10)
H12 H 0.3203 0.6921 0.9755
H13 H 0.4498 0.7676 0.9583
C13 C 0.2401(4) 0.7010(3) 0.93937(6)
C14 C 0.3641(6) 0.6642(4) 0.91959(8)
H14 H 0.4674 0.7168 0.9202
H15 H 0.3118 0.6718 0.9032
C15 C 0.4055(6) 0.5290(4) 0.92547(8)
H16 H 0.4296 0.4814 0.9101
C16 C 0.1465(6) 0.5796(4) 0.94312(12)
H17 H 0.1081 0.5727 0.9603
H18 H 0.0456 0.5762 0.9324
C17 C -0.1269(5) 0.7763(4) 0.96930(7)
H19 H -0.2380 0.7872 0.9771
H20 H -0.0431 0.7518 0.9816
H21 H -0.1347 0.7111 0.9568
C18 C 0.0359(6) 1.2703(4) 0.89915(8)
H22 H -0.0781 1.2805 0.9061
H23 H 0.0480 1.3243 0.8848
H24 H 0.1209 1.2935 0.9114
C19 C -0.0572(6) 1.1052(4) 0.87001(7)
H25 H -0.0542 1.0157 0.8663
H26 H -0.0202 1.1525 0.8556
H27 H -0.1733 1.1297 0.8743
C20 C 0.1706(5) 1.1389(3) 0.95006(7)
H28 H 0.2360 1.2051 0.9420
H29 H 0.2265 1.1153 0.9654
H30 H 0.0557 1.1691 0.9536
C21 C 0.6082(7) 0.3993(4) 0.94457(10)
H31 H 0.6551 0.3671 0.9290
H32 H 0.5160 0.3428 0.9500
C22 C 0.7424(8) 0.4057(6) 0.96330(16)
H33 H 0.6932 0.4334 0.9788
H34 H 0.8300 0.4650 0.9581
H35 H 0.7932 0.3229 0.9654
C23 C -0.2320(5) 1.0396(4) 0.98326(7)
C24 C -0.2132(6) 1.1268(4) 1.00443(8)
H36 H -0.1886 1.0788 1.0193
H37 H -0.3189 1.1737 1.0067
H38 H -0.1199 1.1850 1.0012
O7 O -0.0087(3) 0.2199(3) 0.80964(5)
O8 O -0.0311(4) 0.2104(4) 0.75312(6)
O9 O 0.2526(3) 0.2208(2) 0.75854(4)
O10 O 0.3804(3) 0.2652(2) 0.82183(4)
O11 O 0.4567(5) 0.4756(4) 0.86709(7)
O12 O 0.7344(5) 0.5260(3) 0.85743(8)
C25 C 0.6077(4) 0.0631(3) 0.81309(7)
H39 H 0.7083 0.1035 0.8057
H40 H 0.5869 0.1033 0.8291
C26 C 0.6462(5) -0.0749(4) 0.81716(8)
H41 H 0.6758 -0.1142 0.8013
H42 H 0.7454 -0.0831 0.8282
C27 C 0.4955(5) -0.1425(3) 0.82827(8)
H43 H 0.4749 -0.1089 0.8449
H44 H 0.5240 -0.2321 0.8300
C28 C 0.3318(5) -0.1303(3) 0.81327(7)
C29 C 0.3025(4) 0.0118(3) 0.80819(6)
H45 H 0.2880 0.0501 0.8247
C30 C 0.1327(4) 0.0377(3) 0.79480(7)
H46 H 0.1408 0.0122 0.7775
H47 H 0.0391 -0.0096 0.8026
C31 C 0.1002(4) 0.1759(3) 0.79666(6)
C32 C 0.2317(5) 0.2579(3) 0.78415(6)
C33 C 0.4075(4) 0.2285(3) 0.79680(6)
C34 C 0.4522(4) 0.0849(3) 0.79641(6)
C35 C 0.5516(5) 0.3129(3) 0.78730(6)
H48 H 0.6607 0.2670 0.7869
H49 H 0.5260 0.3435 0.7706
C36 C 0.5593(5) 0.4210(3) 0.80542(7)
H50 H 0.6779 0.4489 0.8078
H51 H 0.4911 0.4925 0.7995
C37 C 0.4859(5) 0.3692(3) 0.82909(6)
C38 C 0.6204(5) 0.3274(4) 0.84779(7)
H52 H 0.5866 0.2487 0.8559
H53 H 0.7324 0.3157 0.8399
C39 C 0.6242(6) 0.4347(5) 0.86574(9)
H54 H 0.6621 0.4040 0.8821
C40 C 0.3798(6) 0.4616(4) 0.84409(7)
H55 H 0.3745 0.5432 0.8356
H56 H 0.2626 0.4296 0.8460
C41 C 0.1811(6) 0.3947(4) 0.78457(7)
H57 H 0.0682 0.4043 0.7773
H58 H 0.2637 0.4435 0.7752
H59 H 0.1788 0.4245 0.8015
C42 C 0.3415(6) -0.2116(4) 0.79015(8)
H60 H 0.2418 -0.1958 0.7799
H61 H 0.3442 -0.2999 0.7948
H62 H 0.4448 -0.1909 0.7810
C43 C 0.1862(6) -0.1801(4) 0.82905(8)
H63 H 0.2164 -0.2626 0.8355
H64 H 0.0830 -0.1868 0.8191
H65 H 0.1658 -0.1226 0.8427
C44 C 0.4996(5) 0.0432(4) 0.77009(7)
H66 H 0.3960 0.0230 0.7610
H67 H 0.5729 -0.0306 0.7709
H68 H 0.5600 0.1111 0.7618
C45 C 0.7600(10) 0.6258(7) 0.87489(19)
H69 H 0.6756 0.6921 0.8715
H70 H 0.7362 0.5928 0.8914
C46 C 0.9036(12) 0.6741(11) 0.8750(2)
H71 H 0.9891 0.6097 0.8783
H72 H 0.9088 0.7381 0.8878
H73 H 0.9262 0.7125 0.8591
C47 C 0.1101(5) 0.1999(4) 0.74549(7)
C48 C 0.1534(6) 0.1554(4) 0.72014(7)
H74 H 0.0763 0.1942 0.7083
H75 H 0.1414 0.0644 0.7194
H76 H 0.2707 0.1786 0.7163
loop_
_geom_bond_atom_site_label_1
_geom_bond_atom_site_label_2
_geom_bond_site_symmetry_1
_geom_bond_site_symmetry_2
O1 C7 1_555 1_555
O2 C23 1_555 1_555
O3 C8 1_555 1_555
O4 C9 1_555 1_555
O5 C15 1_555 1_555
O6 C15 1_555 1_555
C1 H1 1_555 1_555
H2 C1 1_555 1_555
C2 C1 1_555 1_555
H3 C2 1_555 1_555
H4 C2 1_555 1_555
C3 C2 1_555 1_555
H5 C3 1_555 1_555
H6 C3 1_555 1_555
C4 C3 1_555 1_555
C5 C4 1_555 1_555
H7 C5 1_555 1_555
C6 C5 1_555 1_555
H8 C6 1_555 1_555
H9 C6 1_555 1_555
C7 C6 1_555 1_555
C8 C7 1_555 1_555
C9 C8 1_555 1_555
C10 C1 1_555 1_555
C11 C9 1_555 1_555
H10 C11 1_555 1_555
H11 C11 1_555 1_555
C12 C11 1_555 1_555
H12 C12 1_555 1_555
H13 C12 1_555 1_555
C13 O4 1_555 1_555
C14 C13 1_555 1_555
H14 C14 1_555 1_555
H15 C14 1_555 1_555
C15 C14 1_555 1_555
H16 C15 1_555 1_555
C16 O5 1_555 1_555
H17 C16 1_555 1_555
H18 C16 1_555 1_555
C17 C8 1_555 1_555
H19 C17 1_555 1_555
H20 C17 1_555 1_555
H21 C17 1_555 1_555
C18 C4 1_555 1_555
H22 C18 1_555 1_555
H23 C18 1_555 1_555
H24 C18 1_555 1_555
C19 C4 1_555 1_555
H25 C19 1_555 1_555
H26 C19 1_555 1_555
H27 C19 1_555 1_555
C20 C10 1_555 1_555
H28 C20 1_555 1_555
H29 C20 1_555 1_555
H30 C20 1_555 1_555
C21 O6 1_555 1_555
H31 C21 1_555 1_555
H32 C21 1_555 1_555
C22 C21 1_555 1_555
H33 C22 1_555 1_555
H34 C22 1_555 1_555
H35 C22 1_555 1_555
C23 O3 1_555 1_555
C24 C23 1_555 1_555
H36 C24 1_555 1_555
H37 C24 1_555 1_555
H38 C24 1_555 1_555
O7 C31 1_555 1_555
O8 C47 1_555 1_555
O9 C32 1_555 1_555
O10 C33 1_555 1_555
O11 C39 1_555 1_555
O12 C39 1_555 1_555
C25 H39 1_555 1_555
H40 C25 1_555 1_555
C26 C25 1_555 1_555
H41 C26 1_555 1_555
H42 C26 1_555 1_555
C27 C26 1_555 1_555
H43 C27 1_555 1_555
H44 C27 1_555 1_555
C28 C27 1_555 1_555
C29 C28 1_555 1_555
H45 C29 1_555 1_555
C30 C29 1_555 1_555
H46 C30 1_555 1_555
H47 C30 1_555 1_555
C31 C30 1_555 1_555
C32 C31 1_555 1_555
C33 C32 1_555 1_555
C34 C25 1_555 1_555
C35 C33 1_555 1_555
H48 C35 1_555 1_555
H49 C35 1_555 1_555
C36 C35 1_555 1_555
H50 C36 1_555 1_555
H51 C36 1_555 1_555
C37 O10 1_555 1_555
C38 C37 1_555 1_555
H52 C38 1_555 1_555
H53 C38 1_555 1_555
C39 C38 1_555 1_555
H54 C39 1_555 1_555
C40 O11 1_555 1_555
H55 C40 1_555 1_555
H56 C40 1_555 1_555
C41 C32 1_555 1_555
H57 C41 1_555 1_555
H58 C41 1_555 1_555
H59 C41 1_555 1_555
C42 C28 1_555 1_555
H60 C42 1_555 1_555
H61 C42 1_555 1_555
H62 C42 1_555 1_555
C43 C28 1_555 1_555
H63 C43 1_555 1_555
H64 C43 1_555 1_555
H65 C43 1_555 1_555
C44 C34 1_555 1_555
H66 C44 1_555 1_555
H67 C44 1_555 1_555
H68 C44 1_555 1_555
C45 O12 1_555 1_555
H69 C45 1_555 1_555
H70 C45 1_555 1_555
C46 C45 1_555 1_555
H71 C46 1_555 1_555
H72 C46 1_555 1_555
H73 C46 1_555 1_555
C47 O9 1_555 1_555
C48 C47 1_555 1_555
H74 C48 1_555 1_555
H75 C48 1_555 1_555
H76 C48 1_555 1_555
C5 C10 1_555 1_555
C9 C10 1_555 1_555
C12 C13 1_555 1_555
C13 C16 1_555 1_555
C29 C34 1_555 1_555
C33 C34 1_555 1_555
C36 C37 1_555 1_555
C37 C40 1_555 1_555

#END
