
#######################################################################
#
#                 Cambridge Crystallographic Data Centre
#                                CCDC 
#
#######################################################################
#
# If this CIF has been generated from an entry in the Cambridge 
# Structural Database, then it will include bibliographic, chemical, 
# crystal, experimental, refinement or atomic coordinate data resulting 
# from the CCDC's data processing and validation procedures.
#
#######################################################################

data_DAHDIC
_chemical_formula_moiety         'C19 H28 O5'
_chemical_name_systematic        
"2,5,5,8a-tetramethyl-3,5'-dioxooctahydro-2H-spiro[naphthalene-1,2'-oxolan]-2-yl acetate"
_symmetry_cell_setting           orthorhombic
_symmetry_space_group_name_H-M   'P 21 21 21'
_symmetry_Int_Tables_number      19
_space_group_name_Hall           'P 2ac 2ab'
loop_
_symmetry_equiv_pos_site_id
_symmetry_equiv_pos_as_xyz
1 x,y,z
2 1/2+x,1/2-y,-z
3 -x,1/2+y,1/2-z
4 1/2-x,-y,1/2+z
_cell_length_a                   7.80180(10)
_cell_length_b                   10.7394(2)
_cell_length_c                   21.0305(3)
_cell_angle_alpha                90
_cell_angle_beta                 90
_cell_angle_gamma                90
_cell_volume                     1762.08
_exptl_crystal_colour            colorless
_exptl_crystal_description       block
_cell_formula_units_Z            4
loop_
_atom_site_label
_atom_site_type_symbol
_atom_site_fract_x
_atom_site_fract_y
_atom_site_fract_z
O1 O 0.55130(15) 1.06833(12) 0.03830(6)
O2 O 0.15579(15) 1.18794(10) 0.08524(5)
O3 O 0.38785(17) 1.31059(12) 0.09155(6)
O4 O 0.22637(14) 0.87768(10) 0.02263(5)
O5 O 0.17761(19) 0.76466(13) -0.06400(6)
C1 C 0.0728(2) 0.79196(16) 0.13648(8)
H1 H -0.0520 0.7982 0.1285
H2 H 0.1231 0.7393 0.1026
C2 C 0.1024(3) 0.72968(17) 0.20095(8)
H3 H 0.0433 0.7782 0.2344
H4 H 0.0521 0.6450 0.2003
C3 C 0.2920(3) 0.72077(17) 0.21678(9)
H5 H 0.3478 0.6648 0.1856
H6 H 0.3046 0.6826 0.2594
C4 C 0.3860(2) 0.84688(16) 0.21640(8)
C5 C 0.3469(2) 0.91134(15) 0.15140(7)
H7 H 0.3972 0.8548 0.1185
C6 C 0.4423(2) 1.03573(16) 0.14305(8)
H8 H 0.3890 1.1008 0.1699
H9 H 0.5638 1.0265 0.1559
C7 C 0.4309(2) 1.07148(15) 0.07401(8)
C8 C 0.2475(2) 1.09318(14) 0.04910(8)
C9 C 0.1422(2) 0.97111(14) 0.06218(7)
C10 C 0.1530(2) 0.92359(14) 0.13299(7)
C11 C -0.0428(2) 0.98136(15) 0.03621(8)
H10 H -0.1257 0.9443 0.0664
H11 H -0.0743 1.0695 0.0289
C12 C -0.0410(2) 0.90910(16) -0.02631(8)
H12 H -0.1377 0.8495 -0.0281
H13 H -0.0496 0.9666 -0.0630
C13 C 0.1269(2) 0.84161(15) -0.02706(8)
C14 C 0.2500(2) 1.13217(16) -0.02032(8)
H14 H 0.1338 1.1545 -0.0338
H15 H 0.2920 1.0630 -0.0464
H16 H 0.3259 1.2042 -0.0255
C15 C 0.5794(2) 0.82000(19) 0.22016(9)
H17 H 0.6420 0.8984 0.2256
H18 H 0.6169 0.7793 0.1808
H19 H 0.6025 0.7652 0.2564
C16 C 0.3375(3) 0.92381(18) 0.27540(8)
H20 H 0.3803 0.8821 0.3137
H21 H 0.2125 0.9315 0.2779
H22 H 0.3887 1.0069 0.2722
C17 C 0.0484(2) 1.01171(16) 0.17628(8)
H23 H -0.0495 1.0449 0.1525
H24 H 0.1215 1.0806 0.1904
H25 H 0.0070 0.9655 0.2134
C18 C 0.2367(2) 1.29454(16) 0.09988(8)
C19 C 0.1181(3) 1.38811(17) 0.12815(9)
H26 H 0.1772 1.4332 0.1622
H27 H 0.0174 1.3456 0.1456
H28 H 0.0818 1.4470 0.0952
loop_
_geom_bond_atom_site_label_1
_geom_bond_atom_site_label_2
_geom_bond_site_symmetry_1
_geom_bond_site_symmetry_2
O1 C7 1_555 1_555
O2 C8 1_555 1_555
O3 C18 1_555 1_555
O4 C9 1_555 1_555
O5 C13 1_555 1_555
C1 H1 1_555 1_555
H2 C1 1_555 1_555
C2 C1 1_555 1_555
H3 C2 1_555 1_555
H4 C2 1_555 1_555
C3 C2 1_555 1_555
H5 C3 1_555 1_555
H6 C3 1_555 1_555
C4 C3 1_555 1_555
C5 C4 1_555 1_555
H7 C5 1_555 1_555
C6 C5 1_555 1_555
H8 C6 1_555 1_555
H9 C6 1_555 1_555
C7 C6 1_555 1_555
C8 C7 1_555 1_555
C9 C8 1_555 1_555
C10 C1 1_555 1_555
C11 C9 1_555 1_555
H10 C11 1_555 1_555
H11 C11 1_555 1_555
C12 C11 1_555 1_555
H12 C12 1_555 1_555
H13 C12 1_555 1_555
C13 O4 1_555 1_555
C14 C8 1_555 1_555
H14 C14 1_555 1_555
H15 C14 1_555 1_555
H16 C14 1_555 1_555
C15 C4 1_555 1_555
H17 C15 1_555 1_555
H18 C15 1_555 1_555
H19 C15 1_555 1_555
C16 C4 1_555 1_555
H20 C16 1_555 1_555
H21 C16 1_555 1_555
H22 C16 1_555 1_555
C17 C10 1_555 1_555
H23 C17 1_555 1_555
H24 C17 1_555 1_555
H25 C17 1_555 1_555
C18 O2 1_555 1_555
C19 C18 1_555 1_555
H26 C19 1_555 1_555
H27 C19 1_555 1_555
H28 C19 1_555 1_555
C5 C10 1_555 1_555
C9 C10 1_555 1_555
C12 C13 1_555 1_555

#END
