
#######################################################################
#
#                 Cambridge Crystallographic Data Centre
#                                CCDC 
#
#######################################################################
#
# If this CIF has been generated from an entry in the Cambridge 
# Structural Database, then it will include bibliographic, chemical, 
# crystal, experimental, refinement or atomic coordinate data resulting 
# from the CCDC's data processing and validation procedures.
#
#######################################################################

data_DAHKAB
_chemical_formula_moiety         'C14 H9 N1 O3'
_chemical_name_systematic        '9-oxo-9,10-dihydroacridine-4-carboxylic acid'
_symmetry_cell_setting           monoclinic
_symmetry_space_group_name_H-M   'C 2/c'
_symmetry_Int_Tables_number      15
_space_group_name_Hall           '-C 2yn'
loop_
_symmetry_equiv_pos_site_id
_symmetry_equiv_pos_as_xyz
1 x,y,z
2 -x,y,1/2-z
3 1/2+x,1/2+y,z
4 1/2-x,1/2+y,1/2-z
5 -x,-y,-z
6 x,-y,1/2+z
7 1/2-x,1/2-y,-z
8 1/2+x,1/2-y,1/2+z
_cell_length_a                   17.7608(10)
_cell_length_b                   7.3009(4)
_cell_length_c                   16.7328(9)
_cell_angle_alpha                90
_cell_angle_beta                 103.093(4)
_cell_angle_gamma                90
_cell_volume                     2113.33
_exptl_crystal_colour            yellow
_exptl_crystal_description       prism
_cell_formula_units_Z            8
loop_
_atom_site_label
_atom_site_type_symbol
_atom_site_fract_x
_atom_site_fract_y
_atom_site_fract_z
N1 N 0.33000(12) 0.6770(3) 0.39455(13)
H1 H 0.3705(17) 0.732(4) 0.3732(17)
C1 C 0.35360(14) 0.6267(3) 0.47506(15)
C2 C 0.42942(14) 0.6655(3) 0.52083(16)
C3 C 0.45000(15) 0.6126(4) 0.60228(16)
H2 H 0.5006 0.6394 0.6332
C4 C 0.39895(15) 0.5213(4) 0.64027(17)
H3 H 0.4145 0.4861 0.6963
C5 C 0.32608(15) 0.4829(3) 0.59589(16)
H4 H 0.2911 0.4202 0.6217
C6 C 0.30162(14) 0.5336(3) 0.51335(15)
C7 C 0.22387(14) 0.4897(3) 0.46815(16)
C8 C 0.20382(14) 0.5411(3) 0.38209(16)
C9 C 0.13065(14) 0.5019(4) 0.33201(17)
H5 H 0.0935 0.4386 0.3545
C10 C 0.11220(15) 0.5539(4) 0.25087(17)
H6 H 0.063 0.5246 0.2172
C11 C 0.16648(15) 0.6504(4) 0.21833(17)
H7 H 0.1532 0.6884 0.1626
C12 C 0.23819(15) 0.6913(4) 0.26505(16)
H8 H 0.2744 0.7566 0.2419
C13 C 0.25776(14) 0.6359(3) 0.34747(15)
C14 C 0.48629(15) 0.7573(3) 0.48162(16)
O1 O 0.47234(10) 0.8119(3) 0.41074(11)
O2 O 0.55526(10) 0.7733(3) 0.53138(11)
H9 H 0.596(2) 0.839(5) 0.499(2)
O3 O 0.17745(10) 0.4115(3) 0.50228(11)
loop_
_geom_bond_atom_site_label_1
_geom_bond_atom_site_label_2
_geom_bond_site_symmetry_1
_geom_bond_site_symmetry_2
N1 H1 1_555 1_555
C1 N1 1_555 1_555
C2 C1 1_555 1_555
C3 C2 1_555 1_555
H2 C3 1_555 1_555
C4 C3 1_555 1_555
H3 C4 1_555 1_555
C5 C4 1_555 1_555
H4 C5 1_555 1_555
C6 C1 1_555 1_555
C7 C6 1_555 1_555
C8 C7 1_555 1_555
C9 C8 1_555 1_555
H5 C9 1_555 1_555
C10 C9 1_555 1_555
H6 C10 1_555 1_555
C11 C10 1_555 1_555
H7 C11 1_555 1_555
C12 C11 1_555 1_555
H8 C12 1_555 1_555
C13 N1 1_555 1_555
C14 C2 1_555 1_555
O1 C14 1_555 1_555
O2 C14 1_555 1_555
H9 O2 1_555 1_555
O3 C7 1_555 1_555
C5 C6 1_555 1_555
C8 C13 1_555 1_555
C12 C13 1_555 1_555

#END
