
#######################################################################
#
#                 Cambridge Crystallographic Data Centre
#                                CCDC 
#
#######################################################################
#
# If this CIF has been generated from an entry in the Cambridge 
# Structural Database, then it will include bibliographic, chemical, 
# crystal, experimental, refinement or atomic coordinate data resulting 
# from the CCDC's data processing and validation procedures.
#
#######################################################################

data_DAHPAG
_chemical_formula_moiety         'C25 H25 F8 N3 O1 S1'
_chemical_name_systematic        
1-(3,5-bis(trifluoromethyl)phenyl)-3-(1-(2-(3,5-difluorophenyl)pyrrolidin-1-yl)-3,3-dimethyl-1-oxobutan-2-yl)thiourea
_symmetry_cell_setting           trigonal
_symmetry_space_group_name_H-M   'P 32 2 1'
_symmetry_Int_Tables_number      154
_space_group_name_Hall           'P 32 2"'
loop_
_symmetry_equiv_pos_site_id
_symmetry_equiv_pos_as_xyz
1 x,y,z
2 -y,x-y,2/3+z
3 -x+y,-x,1/3+z
4 y,x,-z
5 x-y,-y,1/3-z
6 -x,-x+y,2/3-z
_cell_length_a                   12.8221(3)
_cell_length_b                   12.8221(3)
_cell_length_c                   26.6228(8)
_cell_angle_alpha                90
_cell_angle_beta                 90
_cell_angle_gamma                120
_cell_volume                     3790.55
_exptl_crystal_colour            colorless
_exptl_crystal_description       block
_cell_formula_units_Z            6
loop_
_atom_site_label
_atom_site_type_symbol
_atom_site_fract_x
_atom_site_fract_y
_atom_site_fract_z
C1 C 0.3894(4) 0.6002(5) -0.17049(19)
H1 H 0.4668 0.6455 -0.1853
C2 C 0.3040(5) 0.4921(5) -0.19209(15)
C3 C 0.1906(4) 0.4258(3) -0.17046(14)
H2 H 0.1322 0.3519 -0.1852
C4 C 0.1626(3) 0.4675(4) -0.12722(16)
C5 C 0.2480(4) 0.5755(4) -0.10561(15)
H3 H 0.2288 0.6040 -0.0761
C6 C 0.3613(3) 0.6419(3) -0.12725(18)
F1 F 0.3282(8) 0.4469(7) -0.23210(19)
F2 F 0.0540(4) 0.4086(4) -0.1075(2)
C7 C 0.45033(14) 0.76922(14) -0.11085(6)
H4 H 0.5324 0.7922 -0.1237
C8 C 0.41576(17) 0.86178(17) -0.12876(7)
H5 H 0.4882 0.9421 -0.1331
H6 H 0.3715 0.8366 -0.1610
C9 C 0.3359(2) 0.8639(2) -0.08715(7)
H7 H 0.2512 0.8001 -0.0924
H8 H 0.3396 0.9429 -0.0860
C10 C 0.38551(18) 0.84169(17) -0.03842(7)
H9 H 0.4382 0.9184 -0.0207
H10 H 0.3193 0.7876 -0.0157
C11 C 0.51843(14) 0.74866(14) -0.02825(6)
C12 C 0.52778(14) 0.76977(14) 0.02901(6)
H11 H 0.4550 0.7729 0.0402
C13 C 0.41945(15) 0.55913(14) 0.05564(5)
C14 C 0.33885(16) 0.34581(15) 0.07684(6)
C15 C 0.33193(17) 0.24764(16) 0.05160(6)
H12 H 0.3922 0.2587 0.0280
C16 C 0.23582(18) 0.13311(16) 0.06125(6)
C17 C 0.14674(18) 0.11504(16) 0.09523(7)
H13 H 0.0807 0.0365 0.1011
C18 C 0.15555(17) 0.21362(15) 0.12058(6)
C19 C 0.25134(16) 0.32834(15) 0.11193(6)
H14 H 0.2572 0.3950 0.1300
C20 C 0.64158(17) 0.88639(15) 0.04774(6)
C21 C 0.64820(18) 0.99812(16) 0.02391(7)
H15 H 0.6489 0.9917 -0.0128
H16 H 0.7219 1.0701 0.0350
H17 H 0.5780 1.0040 0.0342
C22 C 0.75766(17) 0.88622(17) 0.03570(7)
H18 H 0.7543 0.8145 0.0503
H19 H 0.8263 0.9586 0.0498
H20 H 0.7671 0.8855 -0.0008
C23 C 0.6290(2) 0.89335(18) 0.10504(7)
H21 H 0.5548 0.8947 0.1125
H22 H 0.6984 0.9669 0.1180
H23 H 0.6258 0.8229 0.1210
C24 C 0.2276(4) 0.0280(4) 0.03127(18)
F3 F 0.3335(2) 0.0417(2) 0.01707(10)
F4 F 0.1642(3) 0.0116(2) -0.01117(8)
F5 F 0.1687(8) -0.0732(7) 0.0580(3)
C25 C 0.0560(3) 0.1956(3) 0.15515(11)
F6 F 0.0560(14) 0.2970(8) 0.1667(6)
F7 F 0.0666(2) 0.14893(19) 0.19927(7)
F8 F -0.05396(15) 0.11775(15) 0.13762(8)
N1 N 0.45479(13) 0.78442(12) -0.05563(5)
N2 N 0.52367(13) 0.66429(12) 0.05188(5)
N3 N 0.43438(14) 0.46341(12) 0.06686(5)
O1 O 0.56720(10) 0.69592(11) -0.04794(4)
S1 S 0.28457(4) 0.54783(4) 0.046413(15)
H24 H 0.5854(18) 0.6562(17) 0.0509(7)
H25 H 0.501(2) 0.4701(19) 0.0643(7)
C26? C 0.3865(10) 0.5823(13) -0.1652(6)
H26? H 0.4677 0.6146 -0.1759
C27? C 0.2971(15) 0.4737(13) -0.1849(5)
C28? C 0.1784(12) 0.4263(9) -0.1694(5)
H27? H 0.1173 0.3521 -0.1829
C29? C 0.1491(8) 0.4875(9) -0.1342(5)
C30? C 0.2386(10) 0.5961(9) -0.1145(4)
H28? H 0.2186 0.6380 -0.0904
C31? C 0.3573(8) 0.6435(8) -0.1300(5)
F9? F 0.329(2) 0.4295(19) -0.2234(5)
F10? F 0.0372(9) 0.4322(11) -0.1182(5)
H29? H 0.5321 0.7915 -0.1238
C32? C 0.2044(13) 0.0254(14) 0.0312(6)
F11? F 0.2953(9) 0.0449(9) 0.0031(4)
F12? F 0.1128(9) -0.0052(9) -0.0016(3)
F13? F 0.175(3) -0.080(2) 0.0541(11)
C33? C 0.0806(10) 0.1985(12) 0.1671(4)
F14? F 0.060(5) 0.291(3) 0.167(2)
F15? F 0.1234(7) 0.1991(7) 0.2119(2)
F16? F -0.0262(5) 0.1001(6) 0.1625(3)
loop_
_geom_bond_atom_site_label_1
_geom_bond_atom_site_label_2
_geom_bond_site_symmetry_1
_geom_bond_site_symmetry_2
C1 H1 1_555 1_555
C2 C1 1_555 1_555
C3 C2 1_555 1_555
H2 C3 1_555 1_555
C4 C3 1_555 1_555
C5 C4 1_555 1_555
H3 C5 1_555 1_555
C6 C1 1_555 1_555
F1 C2 1_555 1_555
F2 C4 1_555 1_555
C7 C6 1_555 1_555
H4 C7 1_555 1_555
C8 C7 1_555 1_555
H5 C8 1_555 1_555
H6 C8 1_555 1_555
C9 C8 1_555 1_555
H7 C9 1_555 1_555
H8 C9 1_555 1_555
C10 C9 1_555 1_555
H9 C10 1_555 1_555
H10 C10 1_555 1_555
C11 C12 1_555 1_555
C12 H11 1_555 1_555
C13 N2 1_555 1_555
C14 C15 1_555 1_555
C15 H12 1_555 1_555
C16 C15 1_555 1_555
C17 C16 1_555 1_555
H13 C17 1_555 1_555
C18 C17 1_555 1_555
C19 C14 1_555 1_555
H14 C19 1_555 1_555
C20 C12 1_555 1_555
C21 C20 1_555 1_555
H15 C21 1_555 1_555
H16 C21 1_555 1_555
H17 C21 1_555 1_555
C22 C20 1_555 1_555
H18 C22 1_555 1_555
H19 C22 1_555 1_555
H20 C22 1_555 1_555
C23 C20 1_555 1_555
H21 C23 1_555 1_555
H22 C23 1_555 1_555
H23 C23 1_555 1_555
C24 C16 1_555 1_555
F3 C24 1_555 1_555
F4 C24 1_555 1_555
F5 C24 1_555 1_555
C25 C18 1_555 1_555
F6 C25 1_555 1_555
F7 C25 1_555 1_555
F8 C25 1_555 1_555
N1 C7 1_555 1_555
N2 C12 1_555 1_555
N3 C13 1_555 1_555
O1 C11 1_555 1_555
S1 C13 1_555 1_555
H24 N2 1_555 1_555
H25 N3 1_555 1_555
C5 C6 1_555 1_555
C10 N1 1_555 1_555
C11 N1 1_555 1_555
C14 N3 1_555 1_555
C18 C19 1_555 1_555

#END
