
#######################################################################
#
#                 Cambridge Crystallographic Data Centre
#                                CCDC 
#
#######################################################################
#
# If this CIF has been generated from an entry in the Cambridge 
# Structural Database, then it will include bibliographic, chemical, 
# crystal, experimental, refinement or atomic coordinate data resulting 
# from the CCDC's data processing and validation procedures.
#
#######################################################################

data_DAHPUA
_chemical_formula_moiety         'C17 H21 F6 N3 O1 S1,0.25(C1 H2 Cl2)'
_chemical_name_systematic        
'N^2^-((3,5-bis(trifluoromethyl)phenyl)carbamothioyl)-N,N,3-trimethylvalinamide dichloromethane solvate'
_symmetry_cell_setting           monoclinic
_symmetry_space_group_name_H-M   'P 21'
_symmetry_Int_Tables_number      4
_space_group_name_Hall           'P 2yb'
loop_
_symmetry_equiv_pos_site_id
_symmetry_equiv_pos_as_xyz
1 x,y,z
2 -x,1/2+y,-z
_cell_length_a                   10.7752(6)
_cell_length_b                   14.8782(8)
_cell_length_c                   13.3651(7)
_cell_angle_alpha                90
_cell_angle_beta                 95.510(3)
_cell_angle_gamma                90
_cell_volume                     2132.73
_exptl_crystal_colour            colorless
_exptl_crystal_description       block
_cell_formula_units_Z            4
loop_
_atom_site_label
_atom_site_type_symbol
_atom_site_fract_x
_atom_site_fract_y
_atom_site_fract_z
C1 C -0.0746(3) 0.7258(3) 0.4383(2)
H1 H -0.0065 0.7031 0.4016
H2 H -0.0445 0.7764 0.4808
H3 H -0.1435 0.7458 0.3903
C2 C -0.1787(4) 0.5791(3) 0.4446(3)
H4 H -0.2563 0.6001 0.4076
H5 H -0.1976 0.5315 0.4915
H6 H -0.1229 0.5556 0.3972
C3 C -0.0958(2) 0.6606(2) 0.6017(2)
C4 C -0.1507(3) 0.59135(19) 0.6701(2)
H7 H -0.1637 0.5341 0.6313
C5 C 0.0086(2) 0.49739(19) 0.7670(2)
C6 C 0.1771(2) 0.43873(19) 0.8950(2)
C7 C 0.1789(3) 0.34678(19) 0.8712(2)
H8 H 0.1196 0.3223 0.8215
C8 C 0.2687(3) 0.29237(19) 0.9218(2)
C9 C 0.3564(3) 0.3245(2) 0.9962(2)
H9 H 0.4167 0.2858 1.0302
C10 C 0.3524(2) 0.4153(2) 1.0187(2)
C11 C 0.2648(2) 0.47266(19) 0.9701(2)
H10 H 0.2642 0.5346 0.9875
C12 C -0.2780(3) 0.6195(2) 0.7064(2)
C13 C -0.3198(3) 0.5442(2) 0.7730(3)
H11 H -0.3203 0.4871 0.7364
H12 H -0.4039 0.5571 0.7912
H13 H -0.2620 0.5400 0.8340
C14 C -0.3756(3) 0.6315(2) 0.6165(2)
H14 H -0.3504 0.6807 0.5741
H15 H -0.4565 0.6456 0.6405
H16 H -0.3825 0.5758 0.5772
C15 C -0.2681(3) 0.7077(2) 0.7664(2)
H17 H -0.2046 0.7014 0.8236
H18 H -0.3487 0.7214 0.7909
H19 H -0.2444 0.7565 0.7228
C16 C 0.2728(3) 0.1940(2) 0.8958(3)
C17 C 0.4510(3) 0.4539(2) 1.0945(3)
N1 N -0.1180(3) 0.6543(2) 0.50097(18)
N2 N -0.0581(2) 0.57440(17) 0.75435(17)
N3 N 0.0929(2) 0.50189(16) 0.85052(17)
O1 O -0.02949(19) 0.72269(14) 0.63992(15)
F1 F 0.1997(2) 0.17313(15) 0.81231(18)
F2 F 0.2374(3) 0.14187(15) 0.96774(19)
F3 F 0.3869(2) 0.16695(18) 0.8779(2)
F4 F 0.5549(2) 0.47280(19) 1.0518(2)
F5 F 0.4830(3) 0.39745(18) 1.16972(19)
F6 F 0.4158(2) 0.53031(15) 1.13454(17)
S1 S -0.01114(9) 0.41059(6) 0.68803(6)
H20 H 0.097(3) 0.562(2) 0.873(2)
H21 H -0.032(4) 0.612(3) 0.786(3)
C18 C 0.1260(3) 0.6687(2) 1.1387(2)
H22 H 0.1808 0.6168 1.1527
H23 H 0.0443 0.6481 1.1087
H24 H 0.1159 0.7006 1.2015
C19 C 0.2911(3) 0.7775(2) 1.1115(2)
H25 H 0.2666 0.8227 1.1591
H26 H 0.3312 0.8073 1.0576
H27 H 0.3496 0.7350 1.1465
C20 C 0.1350(3) 0.72910(19) 0.9714(2)
C21 C 0.1800(3) 0.79890(19) 0.89794(19)
H28 H 0.2688 0.8145 0.9197
C22 C 0.2549(2) 0.69142(18) 0.7786(2)
C23 C 0.2614(16) 0.5754(9) 0.6403(10)
C24 C 0.3350(18) 0.5076(12) 0.6862(7)
H29 H 0.3679 0.5137 0.7544
C25 C 0.3605(14) 0.4309(9) 0.6325(9)
C26 C 0.3123(8) 0.4221(5) 0.5327(8)
H30 H 0.3297 0.3696 0.4959
C27 C 0.2387(7) 0.4899(7) 0.4867(6)
C28 C 0.2132(9) 0.5666(6) 0.5405(9)
H31 H 0.1629 0.6130 0.5090
C29 C 0.1811(12) 0.4756(7) 0.3803(6)
F7 F 0.1324(9) 0.5505(5) 0.3416(6)
F8 F 0.0845(6) 0.4181(4) 0.3792(3)
F9 F 0.2833(7) 0.4493(5) 0.3174(5)
C30 C 0.437(3) 0.3534(11) 0.675(3)
F10 F 0.368(2) 0.2774(16) 0.6775(18)
F11 F 0.471(2) 0.3633(13) 0.7720(15)
F12 F 0.545(3) 0.3369(15) 0.634(2)
C31 C 0.1012(3) 0.88699(18) 0.8918(2)
C32 C 0.1229(3) 0.9374(2) 0.9917(2)
H32 H 0.0972 0.8994 1.0460
H33 H 0.0737 0.9929 0.9880
H34 H 0.2115 0.9521 1.0051
C33 C -0.0385(3) 0.8674(2) 0.8688(2)
H35 H -0.0523 0.8345 0.8052
H36 H -0.0847 0.9242 0.8633
H37 H -0.0676 0.8311 0.9231
C34 C 0.1463(3) 0.9463(2) 0.8086(2)
H38 H 0.2368 0.9544 0.8204
H39 H 0.1051 1.0050 0.8090
H40 H 0.1259 0.9174 0.7432
N4 N 0.1810(2) 0.72938(17) 1.06862(18)
N5 N 0.1741(2) 0.75613(17) 0.79968(17)
N6 N 0.2210(2) 0.65411(17) 0.68568(17)
O2 O 0.05256(18) 0.67455(14) 0.93964(15)
S2 S 0.38203(6) 0.66469(5) 0.85453(5)
H41 H 0.099(4) 0.766(3) 0.756(3)
H42 H 0.150(3) 0.673(3) 0.641(3)
C43 C 0.6344(19) 0.3432(16) 0.3805(18)
H46 H 0.5764 0.2933 0.3916
H47 H 0.6622 0.3365 0.3124
Cl1 Cl 0.7641(5) 0.3388(4) 0.4713(5)
Cl2 Cl 0.5564(5) 0.4495(4) 0.3906(5)
C35? C 0.2684(19) 0.5795(11) 0.6356(11)
C36? C 0.332(2) 0.5088(15) 0.6852(7)
H43? H 0.3488 0.5100 0.7563
C37? C 0.3721(16) 0.4364(11) 0.6308(10)
C38? C 0.3479(10) 0.4348(7) 0.5268(10)
H44? H 0.3751 0.3853 0.4896
C39? C 0.2840(8) 0.5054(8) 0.4771(6)
C40? C 0.2443(11) 0.5778(7) 0.5316(11)
H45? H 0.2006 0.6261 0.4977
C41? C 0.2534(13) 0.5069(8) 0.3645(7)
F13? F 0.1302(11) 0.5280(6) 0.3367(8)
F14? F 0.2532(9) 0.4219(5) 0.3269(5)
F15? F 0.3193(7) 0.5753(5) 0.3246(4)
C42? C 0.443(3) 0.3629(13) 0.687(4)
F16? F 0.390(2) 0.283(2) 0.661(2)
F17? F 0.549(3) 0.3545(19) 0.647(2)
F18? F 0.466(3) 0.3788(15) 0.7865(18)
loop_
_geom_bond_atom_site_label_1
_geom_bond_atom_site_label_2
_geom_bond_site_symmetry_1
_geom_bond_site_symmetry_2
C1 H1 1_555 1_555
H2 C1 1_555 1_555
H3 C1 1_555 1_555
C2 H4 1_555 1_555
H5 C2 1_555 1_555
H6 C2 1_555 1_555
C3 C4 1_555 1_555
C4 H7 1_555 1_555
C5 N2 1_555 1_555
C6 C7 1_555 1_555
C7 H8 1_555 1_555
C8 C7 1_555 1_555
C9 C8 1_555 1_555
H9 C9 1_555 1_555
C10 C9 1_555 1_555
C11 C6 1_555 1_555
H10 C11 1_555 1_555
C12 C4 1_555 1_555
C13 C12 1_555 1_555
H11 C13 1_555 1_555
H12 C13 1_555 1_555
H13 C13 1_555 1_555
C14 C12 1_555 1_555
H14 C14 1_555 1_555
H15 C14 1_555 1_555
H16 C14 1_555 1_555
C15 C12 1_555 1_555
H17 C15 1_555 1_555
H18 C15 1_555 1_555
H19 C15 1_555 1_555
C16 C8 1_555 1_555
C17 C10 1_555 1_555
N1 C1 1_555 1_555
N2 C4 1_555 1_555
N3 C5 1_555 1_555
O1 C3 1_555 1_555
F1 C16 1_555 1_555
F2 C16 1_555 1_555
F3 C16 1_555 1_555
F4 C17 1_555 1_555
F5 C17 1_555 1_555
F6 C17 1_555 1_555
S1 C5 1_555 1_555
H20 N3 1_555 1_555
H21 N2 1_555 1_555
C18 H22 1_555 1_555
H23 C18 1_555 1_555
H24 C18 1_555 1_555
C19 H25 1_555 1_555
H26 C19 1_555 1_555
H27 C19 1_555 1_555
C20 C21 1_555 1_555
C21 H28 1_555 1_555
C22 N5 1_555 1_555
C23 C24 1_555 1_555
C24 H29 1_555 1_555
C25 C24 1_555 1_555
C26 C25 1_555 1_555
H30 C26 1_555 1_555
C27 C26 1_555 1_555
C28 C23 1_555 1_555
H31 C28 1_555 1_555
C29 C27 1_555 1_555
F7 C29 1_555 1_555
F8 C29 1_555 1_555
F9 C29 1_555 1_555
C30 C25 1_555 1_555
F10 C30 1_555 1_555
F11 C30 1_555 1_555
F12 C30 1_555 1_555
C31 C21 1_555 1_555
C32 C31 1_555 1_555
H32 C32 1_555 1_555
H33 C32 1_555 1_555
H34 C32 1_555 1_555
C33 C31 1_555 1_555
H35 C33 1_555 1_555
H36 C33 1_555 1_555
H37 C33 1_555 1_555
C34 C31 1_555 1_555
H38 C34 1_555 1_555
H39 C34 1_555 1_555
H40 C34 1_555 1_555
N4 C18 1_555 1_555
N5 C21 1_555 1_555
N6 C22 1_555 1_555
O2 C20 1_555 1_555
S2 C22 1_555 1_555
H41 N5 1_555 1_555
H42 N6 1_555 1_555
C43 H46 1_555 1_555
H47 C43 1_555 1_555
Cl1 C43 1_555 1_555
Cl2 C43 1_555 1_555
C2 N1 1_555 1_555
C3 N1 1_555 1_555
C6 N3 1_555 1_555
C10 C11 1_555 1_555
C19 N4 1_555 1_555
C20 N4 1_555 1_555
C23 N6 1_555 1_555
C27 C28 1_555 1_555

#END
