
#######################################################################
#
#                 Cambridge Crystallographic Data Centre
#                                CCDC 
#
#######################################################################
#
# If this CIF has been generated from an entry in the Cambridge 
# Structural Database, then it will include bibliographic, chemical, 
# crystal, experimental, refinement or atomic coordinate data resulting 
# from the CCDC's data processing and validation procedures.
#
#######################################################################

data_DAHPOU
_chemical_formula_moiety         'C29 H29 F6 N3 O1 S1'
_chemical_name_systematic        
N^2^-((3,5-bis(trifluoromethyl)phenyl)carbamothioyl)-N-(diphenylmethyl)-N,3-dimethylvalinamide
_symmetry_cell_setting           orthorhombic
_symmetry_space_group_name_H-M   'P 21 21 21'
_symmetry_Int_Tables_number      19
_space_group_name_Hall           'P 2ac 2ab'
loop_
_symmetry_equiv_pos_site_id
_symmetry_equiv_pos_as_xyz
1 x,y,z
2 1/2+x,1/2-y,-z
3 -x,1/2+y,1/2-z
4 1/2-x,-y,1/2+z
_cell_length_a                   11.0829(2)
_cell_length_b                   19.9964(4)
_cell_length_c                   25.5461(5)
_cell_angle_alpha                90
_cell_angle_beta                 90
_cell_angle_gamma                90
_cell_volume                     5661.48
_exptl_crystal_colour            colorless
_exptl_crystal_description       block
_cell_formula_units_Z            8
loop_
_atom_site_label
_atom_site_type_symbol
_atom_site_fract_x
_atom_site_fract_y
_atom_site_fract_z
C1 C -0.1518(3) -0.7295(2) -0.92447(15)
H1 H -0.2361 -0.7354 -0.9196
C2 C -0.0939(4) -0.7655(3) -0.96281(16)
H2 H -0.1377 -0.7971 -0.9831
C3 C 0.0271(4) -0.7558(2) -0.97197(14)
H3 H 0.0670 -0.7797 -0.9991
C4 C 0.0889(3) -0.7116(3) -0.94169(18)
H4 H 0.1726 -0.7050 -0.9478
C5 C 0.0326(3) -0.6760(2) -0.90212(18)
H5 H 0.0779 -0.6456 -0.8815
C6 C -0.0896(3) -0.68457(17) -0.89237(14)
C7 C -0.1534(3) -0.64308(16) -0.85063(14)
H6 H -0.1741 -0.5992 -0.8671
C8 C -0.0806(3) -0.62772(18) -0.80170(15)
C9 C -0.0078(4) -0.6746(2) -0.77688(16)
H7 H 0.0049 -0.7171 -0.7925
C10 C 0.0464(4) -0.6593(3) -0.7292(2)
H8 H 0.0952 -0.6918 -0.7122
C11 C 0.0301(4) -0.5974(3) -0.70651(18)
H9 H 0.0663 -0.5876 -0.6737
C12 C -0.0390(4) -0.5498(2) -0.73154(18)
H10 H -0.0491 -0.5068 -0.7163
C13 C -0.0930(3) -0.56468(19) -0.77847(16)
H11 H -0.1400 -0.5314 -0.7956
C14 C -0.3660(3) -0.63485(16) -0.82879(12)
C15 C -0.4864(3) -0.66622(15) -0.81189(12)
H12 H -0.4680 -0.7069 -0.7905
C16 C -0.5636(3) -0.62785(16) -0.72709(13)
C17 C -0.6685(11) -0.5745(4) -0.6526(2)
C18 C -0.7036(11) -0.6287(3) -0.6222(3)
H13 H -0.7076 -0.6721 -0.6372
C19 C -0.7328(8) -0.6194(3) -0.5697(3)
C20 C -0.7269(7) -0.5559(3) -0.54777(18)
H14 H -0.7469 -0.5496 -0.5119
C21 C -0.6918(7) -0.5017(2) -0.5782(2)
C22 C -0.6626(8) -0.5110(3) -0.6306(2)
H15 H -0.6386 -0.4739 -0.6514
C23 C -0.7681(11) -0.6787(5) -0.5381(4)
F1 F -0.7400(7) -0.6780(3) -0.4900(2)
F2 F -0.7350(8) -0.7396(4) -0.5593(3)
F3 F -0.9007(7) -0.6843(4) -0.5385(3)
C24 C -0.6766(11) -0.4287(5) -0.5530(4)
F4 F -0.7062(8) -0.3872(5) -0.5845(4)
F5 F -0.5566(7) -0.4154(3) -0.5470(2)
F6 F -0.7550(7) -0.4427(3) -0.5048(2)
C25 C -0.2639(3) -0.74251(17) -0.81304(15)
H16 H -0.2630 -0.7752 -0.8416
H17 H -0.3346 -0.7502 -0.7908
H18 H -0.1903 -0.7474 -0.7921
C26 C -0.5703(3) -0.68782(17) -0.85785(13)
C27 C -0.6866(3) -0.7152(2) -0.83329(17)
H19 H -0.6663 -0.7501 -0.8078
H20 H -0.7380 -0.7341 -0.8608
H21 H -0.7296 -0.6788 -0.8156
C28 C -0.5110(3) -0.74392(16) -0.88968(13)
H22 H -0.4362 -0.7273 -0.9055
H23 H -0.5663 -0.7586 -0.9173
H24 H -0.4925 -0.7817 -0.8666
C29 C -0.5997(4) -0.62952(18) -0.89447(15)
H25 H -0.6315 -0.5920 -0.8740
H26 H -0.6601 -0.6438 -0.9201
H27 H -0.5262 -0.6154 -0.9127
N1 N -0.2692(2) -0.67472(13) -0.83485(11)
N2 N -0.5468(3) -0.61836(14) -0.77831(11)
H28 H -0.5738 -0.5811 -0.7924
N3 N -0.6299(3) -0.57836(14) -0.70424(11)
H29 H -0.6504 -0.5447 -0.7246
O1 O -0.3600(2) -0.57373(12) -0.83597(10)
S1 S -0.50499(10) -0.69275(5) -0.69409(3)
C38 C -0.8865(14) -0.3944(11) -0.7180(7)
H33 H -0.8038 -0.4060 -0.7143
C39 C -0.9524(15) -0.3742(10) -0.6744(5)
H34 H -0.9147 -0.3720 -0.6411
C40 C -1.0734(15) -0.3572(10) -0.6797(4)
H35 H -1.1184 -0.3434 -0.6500
C41 C -1.1285(13) -0.3605(11) -0.7285(5)
H36 H -1.2112 -0.3489 -0.7321
C42 C -1.0627(17) -0.3807(11) -0.7720(4)
H37 H -1.1004 -0.3830 -0.8054
C43 C -0.9417(18) -0.3977(12) -0.7668(5)
C44 C -0.8663(11) -0.4222(11) -0.8141(4)
H38 H -0.8493 -0.4700 -0.8053
C45 C -0.9281(7) -0.4268(3) -0.8666(2)
C46 C -0.9666(7) -0.3701(3) -0.8933(3)
H39 H -0.9569 -0.3272 -0.8780
C47 C -1.0192(6) -0.3763(3) -0.9425(3)
H40 H -1.0455 -0.3376 -0.9607
C48 C -1.0333(6) -0.4391(3) -0.9649(2)
H41 H -1.0692 -0.4434 -0.9985
C49 C -0.9948(6) -0.4958(3) -0.9382(3)
H42 H -1.0044 -0.5388 -0.9535
C50 C -0.9422(7) -0.4896(3) -0.8891(2)
H43 H -0.9158 -0.5284 -0.8708
C51 C -0.6474(3) -0.43345(15) -0.81661(12)
C52 C -0.5191(3) -0.40520(15) -0.82321(12)
H44 H -0.5171 -0.3595 -0.8073
C53 C -0.4328(3) -0.44456(15) -0.74046(13)
C54 C -0.7363(3) -0.31885(16) -0.81846(15)
H45 H -0.7430 -0.3031 -0.8547
H46 H -0.6588 -0.3045 -0.8038
H47 H -0.8022 -0.3000 -0.7976
C55 C -0.4737(3) -0.39965(16) -0.88096(12)
C56 C -0.3377(3) -0.3847(2) -0.88040(16)
H48 H -0.3226 -0.3442 -0.8599
H49 H -0.3093 -0.3780 -0.9163
H50 H -0.2945 -0.4225 -0.8646
C57 C -0.5363(4) -0.34087(18) -0.90825(14)
H51 H -0.6226 -0.3505 -0.9119
H52 H -0.5008 -0.3343 -0.9430
H53 H -0.5256 -0.3002 -0.8873
C58 C -0.4974(4) -0.46325(17) -0.91274(13)
H54 H -0.4560 -0.5011 -0.8963
H55 H -0.4670 -0.4573 -0.9485
H56 H -0.5843 -0.4721 -0.9138
N4 N -0.7434(2) -0.39200(13) -0.81743(12)
N5 N -0.4387(2) -0.44829(13) -0.79294(10)
H57 H -0.3929 -0.4774 -0.8095
N6 N -0.3615(2) -0.49320(14) -0.71875(10)
H58 H -0.3336 -0.5234 -0.7407
O2 O -0.6599(2) -0.49459(11) -0.81035(10)
C59 C -0.3263(12) -0.5017(7) -0.6655(3)
C60 C -0.2879(14) -0.5655(6) -0.6518(5)
H59 H -0.2878 -0.6002 -0.6771
C61 C -0.2494(13) -0.5784(4) -0.6010(6)
C62 C -0.2495(10) -0.5276(6) -0.5639(4)
H60 H -0.2233 -0.5365 -0.5292
C63 C -0.2880(8) -0.4638(5) -0.5776(4)
C64 C -0.3264(9) -0.4508(5) -0.6284(4)
H61 H -0.3527 -0.4072 -0.6377
C65 C -0.2124(13) -0.6474(6) -0.5868(5)
F13 F -0.1724(9) -0.6819(4) -0.6289(2)
F14 F -0.1248(7) -0.6484(3) -0.5504(2)
F15 F -0.3032(7) -0.6839(3) -0.5660(2)
C66 C -0.2966(11) -0.4086(5) -0.5368(4)
F16 F -0.2527(15) -0.3509(6) -0.5575(5)
F17 F -0.2168(7) -0.4197(3) -0.4982(2)
F18 F -0.4079(5) -0.3935(3) -0.5235(2)
S2 S -0.51007(9) -0.38698(4) -0.70681(3)
C30? C -0.6706(15) -0.5746(6) -0.6504(4)
C31? C -0.7059(15) -0.6343(4) -0.6271(4)
H30? H -0.6896 -0.6757 -0.6440
C32? C -0.7651(12) -0.6335(4) -0.5791(4)
C33? C -0.7890(10) -0.5730(4) -0.5544(3)
H31? H -0.8295 -0.5725 -0.5216
C34? C -0.7538(10) -0.5133(3) -0.5777(3)
C35? C -0.6946(11) -0.5141(4) -0.6257(4)
H32? H -0.6705 -0.4733 -0.6416
C36? C -0.7960(13) -0.6994(7) -0.5530(5)
F7? F -0.8556(11) -0.6966(5) -0.5134(4)
F8? F -0.6800(10) -0.7325(5) -0.5428(4)
F9? F -0.8532(10) -0.7385(5) -0.5889(3)
C37? C -0.7722(14) -0.4451(6) -0.5531(5)
F10? F -0.7521(12) -0.3942(7) -0.5813(6)
F11? F -0.7083(11) -0.4228(5) -0.5092(4)
F12? F -0.8971(8) -0.4341(4) -0.5555(3)
C67? C -0.8964(17) -0.3850(14) -0.7271(8)
H62? H -0.8139 -0.3951 -0.7209
C68? C -0.9699(19) -0.3651(12) -0.6858(6)
H63? H -0.9377 -0.3616 -0.6515
C69? C -1.0907(19) -0.3502(12) -0.6948(5)
H64? H -1.1409 -0.3366 -0.6666
C70? C -1.1380(16) -0.3553(14) -0.7451(6)
H65? H -1.2205 -0.3452 -0.7512
C71? C -1.064(2) -0.3752(14) -0.7863(5)
H66? H -1.0967 -0.3787 -0.8207
C72? C -0.944(2) -0.3901(15) -0.7773(7)
C73? C -0.8671(12) -0.4218(13) -0.8200(5)
H67? H -0.8608 -0.4709 -0.8129
C74? C -0.9166(9) -0.4118(4) -0.8755(2)
C75? C -0.9481(8) -0.3502(3) -0.8966(3)
H68? H -0.9415 -0.3108 -0.8760
C76? C -0.9895(8) -0.3462(3) -0.9479(3)
H69? H -1.0111 -0.3041 -0.9623
C77? C -0.9993(7) -0.4038(4) -0.9780(3)
H70? H -1.0275 -0.4010 -1.0131
C78? C -0.9677(8) -0.4654(3) -0.9569(3)
H71? H -0.9744 -0.5048 -0.9775
C79? C -0.9263(8) -0.4694(3) -0.9056(3)
H72? H -0.9047 -0.5115 -0.8912
H73? H -0.3349 -0.5233 -0.7411
C80? C -0.3237(14) -0.5031(8) -0.6666(4)
C81? C -0.2975(17) -0.5684(7) -0.6516(6)
H74? H -0.3097 -0.6041 -0.6755
C82? C -0.2535(16) -0.5813(5) -0.6017(7)
C83? C -0.2357(12) -0.5289(7) -0.5667(4)
H75? H -0.2056 -0.5378 -0.5326
C84? C -0.2619(10) -0.4637(6) -0.5817(4)
C85? C -0.3059(11) -0.4508(6) -0.6317(5)
H76? H -0.3238 -0.4062 -0.6419
C86? C -0.2289(14) -0.6499(7) -0.5840(5)
F19? F -0.1596(10) -0.6841(5) -0.6170(3)
F20? F -0.3321(7) -0.6879(3) -0.5826(3)
F21? F -0.1848(8) -0.6558(3) -0.5357(3)
C87? C -0.2366(12) -0.4094(5) -0.5444(4)
F22? F -0.2599(17) -0.3498(7) -0.5627(5)
F23? F -0.1161(6) -0.4063(3) -0.5328(3)
F24? F -0.2821(8) -0.4237(3) -0.4950(3)
loop_
_geom_bond_atom_site_label_1
_geom_bond_atom_site_label_2
_geom_bond_site_symmetry_1
_geom_bond_site_symmetry_2
C1 H1 1_555 1_555
C2 C1 1_555 1_555
H2 C2 1_555 1_555
C3 C2 1_555 1_555
H3 C3 1_555 1_555
C4 C3 1_555 1_555
H4 C4 1_555 1_555
C5 C4 1_555 1_555
H5 C5 1_555 1_555
C6 C1 1_555 1_555
C7 C6 1_555 1_555
H6 C7 1_555 1_555
C8 C7 1_555 1_555
C9 C8 1_555 1_555
H7 C9 1_555 1_555
C10 C9 1_555 1_555
H8 C10 1_555 1_555
C11 C10 1_555 1_555
H9 C11 1_555 1_555
C12 C11 1_555 1_555
H10 C12 1_555 1_555
C13 C8 1_555 1_555
H11 C13 1_555 1_555
C14 C15 1_555 1_555
C15 H12 1_555 1_555
C16 N2 1_555 1_555
C17 C18 1_555 1_555
C18 H13 1_555 1_555
C19 C18 1_555 1_555
C20 C19 1_555 1_555
H14 C20 1_555 1_555
C21 C20 1_555 1_555
C22 C17 1_555 1_555
H15 C22 1_555 1_555
C23 C19 1_555 1_555
F1 C23 1_555 1_555
F2 C23 1_555 1_555
F3 C23 1_555 1_555
C24 C21 1_555 1_555
F4 C24 1_555 1_555
F5 C24 1_555 1_555
F6 C24 1_555 1_555
C25 H16 1_555 1_555
H17 C25 1_555 1_555
H18 C25 1_555 1_555
C26 C15 1_555 1_555
C27 C26 1_555 1_555
H19 C27 1_555 1_555
H20 C27 1_555 1_555
H21 C27 1_555 1_555
C28 C26 1_555 1_555
H22 C28 1_555 1_555
H23 C28 1_555 1_555
H24 C28 1_555 1_555
C29 C26 1_555 1_555
H25 C29 1_555 1_555
H26 C29 1_555 1_555
H27 C29 1_555 1_555
N1 C7 1_555 1_555
N2 C15 1_555 1_555
H28 N2 1_555 1_555
N3 C16 1_555 1_555
H29 N3 1_555 1_555
O1 C14 1_555 1_555
S1 C16 1_555 1_555
C38 H33 1_555 1_555
C39 C38 1_555 1_555
H34 C39 1_555 1_555
C40 C39 1_555 1_555
H35 C40 1_555 1_555
C41 C40 1_555 1_555
H36 C41 1_555 1_555
C42 C41 1_555 1_555
H37 C42 1_555 1_555
C43 C38 1_555 1_555
C44 C43 1_555 1_555
H38 C44 1_555 1_555
C45 C44 1_555 1_555
C46 C45 1_555 1_555
H39 C46 1_555 1_555
C47 C46 1_555 1_555
H40 C47 1_555 1_555
C48 C47 1_555 1_555
H41 C48 1_555 1_555
C49 C48 1_555 1_555
H42 C49 1_555 1_555
C50 C45 1_555 1_555
H43 C50 1_555 1_555
C51 C52 1_555 1_555
C52 H44 1_555 1_555
C53 N5 1_555 1_555
C54 H45 1_555 1_555
H46 C54 1_555 1_555
H47 C54 1_555 1_555
C55 C52 1_555 1_555
C56 C55 1_555 1_555
H48 C56 1_555 1_555
H49 C56 1_555 1_555
H50 C56 1_555 1_555
C57 C55 1_555 1_555
H51 C57 1_555 1_555
H52 C57 1_555 1_555
H53 C57 1_555 1_555
C58 C55 1_555 1_555
H54 C58 1_555 1_555
H55 C58 1_555 1_555
H56 C58 1_555 1_555
N4 C44 1_555 1_555
N5 C52 1_555 1_555
H57 N5 1_555 1_555
N6 C53 1_555 1_555
H58 N6 1_555 1_555
O2 C51 1_555 1_555
C59 N6 1_555 1_555
C60 C59 1_555 1_555
H59 C60 1_555 1_555
C61 C60 1_555 1_555
C62 C61 1_555 1_555
H60 C62 1_555 1_555
C63 C62 1_555 1_555
C64 C59 1_555 1_555
H61 C64 1_555 1_555
C65 C61 1_555 1_555
F13 C65 1_555 1_555
F14 C65 1_555 1_555
F15 C65 1_555 1_555
C66 C63 1_555 1_555
F16 C66 1_555 1_555
F17 C66 1_555 1_555
F18 C66 1_555 1_555
S2 C53 1_555 1_555
C5 C6 1_555 1_555
C12 C13 1_555 1_555
C14 N1 1_555 1_555
C17 N3 1_555 1_555
C21 C22 1_555 1_555
C25 N1 1_555 1_555
C42 C43 1_555 1_555
C49 C50 1_555 1_555
C51 N4 1_555 1_555
C54 N4 1_555 1_555
C63 C64 1_555 1_555

#END
