
#######################################################################
#
#                 Cambridge Crystallographic Data Centre
#                                CCDC 
#
#######################################################################
#
# If this CIF has been generated from an entry in the Cambridge 
# Structural Database, then it will include bibliographic, chemical, 
# crystal, experimental, refinement or atomic coordinate data resulting 
# from the CCDC's data processing and validation procedures.
#
#######################################################################

data_DAHQUB
_chemical_formula_moiety         'C17 H21 F6 N3 O1 S1,0.5(C1 H2 Cl2)'
_chemical_name_systematic        
'N^2^-((3,5-bis(trifluoromethyl)phenyl)carbamothioyl)-N,N,3-trimethylvalinamide dichloromethane solvate'
_symmetry_cell_setting           monoclinic
_symmetry_space_group_name_H-M   'P 21'
_symmetry_Int_Tables_number      4
_space_group_name_Hall           'P 2yb'
loop_
_symmetry_equiv_pos_site_id
_symmetry_equiv_pos_as_xyz
1 x,y,z
2 -x,1/2+y,-z
_cell_length_a                   10.8045(15)
_cell_length_b                   14.937(2)
_cell_length_c                   13.3271(18)
_cell_angle_alpha                90
_cell_angle_beta                 94.461(2)
_cell_angle_gamma                90
_cell_volume                     2144.3
_exptl_crystal_colour            colorless
_exptl_crystal_description       block
_cell_formula_units_Z            4
loop_
_atom_site_label
_atom_site_type_symbol
_atom_site_fract_x
_atom_site_fract_y
_atom_site_fract_z
C1 C 0.3348(4) 0.1950(3) 0.6850(3)
H1 H 0.3677 0.2005 0.7530
C2 C 0.3575(4) 0.1185(2) 0.6298(3)
C3 C 0.3098(4) 0.1074(3) 0.5306(3)
H2 H 0.3260 0.0546 0.4941
C4 C 0.2378(5) 0.1758(3) 0.4867(3)
C5 C 0.2151(4) 0.2528(3) 0.5393(3)
H3 H 0.1662 0.2991 0.5074
C6 C 0.2632(4) 0.2636(3) 0.6392(3)
C7 C 0.2590(4) 0.3785(2) 0.7780(3)
C8 C 0.1857(4) 0.4865(2) 0.8990(3)
H4 H 0.2738 0.5021 0.9207
C9 C 0.1397(3) 0.4161(2) 0.9719(3)
C10 C 0.1279(5) 0.3544(3) 1.1384(3)
H5 H 0.0445 0.3377 1.1105
H6 H 0.1224 0.3838 1.2037
H7 H 0.1794 0.3006 1.1473
C11 C 0.2910(4) 0.4650(3) 1.1130(3)
H8 H 0.3527 0.4227 1.1429
H9 H 0.2652 0.5056 1.1652
H10 H 0.3275 0.4997 1.0603
C12 C 0.1068(3) 0.5736(2) 0.8941(3)
C13 C 0.1264(4) 0.6234(3) 0.9951(3)
H11 H 0.0948 0.5867 1.0485
H12 H 0.0816 0.6805 0.9906
H13 H 0.2152 0.6347 1.0106
C14 C -0.0333(4) 0.5546(3) 0.8711(3)
H14 H -0.0458 0.5205 0.8083
H15 H -0.0785 0.6114 0.8640
H16 H -0.0642 0.5199 0.9263
C15 C 0.1534(4) 0.6335(3) 0.8113(3)
H17 H 0.2434 0.6414 0.8229
H18 H 0.1125 0.6920 0.8126
H19 H 0.1340 0.6053 0.7455
N1 N 0.2258(3) 0.3418(2) 0.6865(2)
H20 H 0.1701 0.3732 0.6498
N2 N 0.1816(3) 0.4445(2) 0.8002(2)
H21 H 0.1260 0.4632 0.7531
N3 N 0.1837(3) 0.4159(2) 1.0694(2)
O1 O 0.0596(2) 0.36149(17) 0.9404(2)
C16 C 0.4352(4) 0.0444(3) 0.6782(3)
F1 F 0.4689(2) 0.05740(16) 0.77380(18)
F2 F 0.5403(3) 0.0325(2) 0.6316(2)
F3 F 0.3750(3) -0.03424(17) 0.6712(2)
C17 C 0.1771(6) 0.1637(4) 0.3835(4)
F4 F 0.2373(7) 0.1012(6) 0.3308(5)
F5 F 0.1487(8) 0.2363(5) 0.3361(5)
F6 F 0.0589(7) 0.1242(5) 0.3925(5)
S1 S 0.38427(8) 0.35035(6) 0.85408(7)
C18 C 0.3768(5) 0.5370(4) 0.6136(5)
H22 H 0.3591 0.5203 0.6829
H23 H 0.4381 0.4938 0.5905
Cl1 Cl 0.44027(13) 0.64576(10) 0.61391(11)
Cl2 Cl 0.23883(13) 0.53065(10) 0.53403(11)
C19 C 0.8236(4) 0.5340(3) 0.1324(3)
H24 H 0.8832 0.5107 0.1818
C20 C 0.7343(4) 0.4776(2) 0.0834(3)
C21 C 0.6463(4) 0.5094(3) 0.0107(3)
H25 H 0.5855 0.4706 -0.0211
C22 C 0.6498(3) 0.5996(3) -0.0143(3)
C23 C 0.7368(3) 0.6574(2) 0.0336(3)
H26 H 0.7371 0.7190 0.0157
C24 C 0.8235(3) 0.6247(2) 0.1077(3)
C25 C 0.9912(3) 0.6849(3) 0.2323(3)
C26 C 1.1460(4) 0.7811(2) 0.3279(3)
H27 H 1.1578 0.7248 0.3682
C27 C 1.0901(3) 0.8518(3) 0.3945(3)
C28 C 1.1751(5) 0.7782(3) 0.5541(3)
H28 H 1.1859 0.7259 0.5113
H29 H 1.1252 0.7615 0.6095
H30 H 1.2565 0.7997 0.5814
C29 C 1.0662(4) 0.9225(3) 0.5562(3)
H31 H 1.0391 0.9726 0.5124
H32 H 1.1330 0.9424 0.6050
H33 H 0.9960 0.9011 0.5921
C30 C 1.2736(3) 0.8077(2) 0.2908(3)
C31 C 1.2647(4) 0.8931(3) 0.2261(3)
H34 H 1.2019 0.8847 0.1697
H35 H 1.3453 0.9053 0.2001
H36 H 1.2410 0.9437 0.2674
C32 C 1.3168(4) 0.7309(3) 0.2272(4)
H37 H 1.3149 0.6749 0.2655
H38 H 1.4018 0.7425 0.2097
H39 H 1.2617 0.7258 0.1656
C33 C 1.3693(4) 0.8229(3) 0.3798(3)
H40 H 1.3417 0.8720 0.4214
H41 H 1.4495 0.8383 0.3547
H42 H 1.3780 0.7681 0.4202
N4 N 0.9068(3) 0.6882(2) 0.1502(2)
H43 H 0.9046 0.7399 0.1184
N5 N 1.0552(3) 0.7633(2) 0.2452(2)
H44 H 1.0400 0.8058 0.2001
N6 N 1.1119(3) 0.8490(2) 0.4945(2)
O2 O 1.0234(2) 0.91183(18) 0.3540(2)
C34 C 0.7331(4) 0.3802(3) 0.1100(3)
F10 F 0.7689(12) 0.3272(5) 0.0377(4)
F11 F 0.6175(4) 0.3524(4) 0.1296(12)
F12 F 0.8062(10) 0.3628(5) 0.1937(4)
C35 C 0.5522(4) 0.6373(3) -0.0891(4)
F13 F 0.5914(18) 0.7064(7) -0.1411(11)
F14 F 0.4554(7) 0.6683(7) -0.0403(8)
F15 F 0.5034(11) 0.5767(5) -0.1557(7)
S2 S 1.01577(11) 0.59756(7) 0.30967(8)
F7? F 0.2546(9) 0.1338(8) 0.3157(7)
F8? F 0.1059(10) 0.2321(6) 0.3464(7)
F9? F 0.0850(9) 0.0989(7) 0.3700(7)
F16? F 0.804(4) 0.342(2) 0.043(2)
F17? F 0.6190(19) 0.347(2) 0.090(4)
F18? F 0.776(4) 0.353(3) 0.2012(16)
F19? F 0.587(3) 0.7170(12) -0.124(2)
F20? F 0.4406(12) 0.6441(12) -0.0560(14)
F21? F 0.5451(15) 0.5803(9) -0.1704(11)
loop_
_geom_bond_atom_site_label_1
_geom_bond_atom_site_label_2
_geom_bond_site_symmetry_1
_geom_bond_site_symmetry_2
C1 H1 1_555 1_555
C2 C1 1_555 1_555
C3 C2 1_555 1_555
H2 C3 1_555 1_555
C4 C3 1_555 1_555
C5 C4 1_555 1_555
H3 C5 1_555 1_555
C6 C1 1_555 1_555
C7 N1 1_555 1_555
C8 H4 1_555 1_555
C9 C8 1_555 1_555
C10 H5 1_555 1_555
H6 C10 1_555 1_555
H7 C10 1_555 1_555
C11 H8 1_555 1_555
H9 C11 1_555 1_555
H10 C11 1_555 1_555
C12 C8 1_555 1_555
C13 C12 1_555 1_555
H11 C13 1_555 1_555
H12 C13 1_555 1_555
H13 C13 1_555 1_555
C14 C12 1_555 1_555
H14 C14 1_555 1_555
H15 C14 1_555 1_555
H16 C14 1_555 1_555
C15 C12 1_555 1_555
H17 C15 1_555 1_555
H18 C15 1_555 1_555
H19 C15 1_555 1_555
N1 C6 1_555 1_555
H20 N1 1_555 1_555
N2 C7 1_555 1_555
H21 N2 1_555 1_555
N3 C9 1_555 1_555
O1 C9 1_555 1_555
C16 C2 1_555 1_555
F1 C16 1_555 1_555
F2 C16 1_555 1_555
F3 C16 1_555 1_555
C17 C4 1_555 1_555
F4 C17 1_555 1_555
F5 C17 1_555 1_555
F6 C17 1_555 1_555
S1 C7 1_555 1_555
C18 H22 1_555 1_555
H23 C18 1_555 1_555
Cl1 C18 1_555 1_555
Cl2 C18 1_555 1_555
C19 H24 1_555 1_555
C20 C19 1_555 1_555
C21 C20 1_555 1_555
H25 C21 1_555 1_555
C22 C21 1_555 1_555
C23 C22 1_555 1_555
H26 C23 1_555 1_555
C24 C19 1_555 1_555
C25 N4 1_555 1_555
C26 H27 1_555 1_555
C27 C26 1_555 1_555
C28 H28 1_555 1_555
H29 C28 1_555 1_555
H30 C28 1_555 1_555
C29 H31 1_555 1_555
H32 C29 1_555 1_555
H33 C29 1_555 1_555
C30 C26 1_555 1_555
C31 C30 1_555 1_555
H34 C31 1_555 1_555
H35 C31 1_555 1_555
H36 C31 1_555 1_555
C32 C30 1_555 1_555
H37 C32 1_555 1_555
H38 C32 1_555 1_555
H39 C32 1_555 1_555
C33 C30 1_555 1_555
H40 C33 1_555 1_555
H41 C33 1_555 1_555
H42 C33 1_555 1_555
N4 C24 1_555 1_555
H43 N4 1_555 1_555
N5 C25 1_555 1_555
H44 N5 1_555 1_555
N6 C27 1_555 1_555
O2 C27 1_555 1_555
C34 C20 1_555 1_555
F10 C34 1_555 1_555
F11 C34 1_555 1_555
F12 C34 1_555 1_555
C35 C22 1_555 1_555
F13 C35 1_555 1_555
F14 C35 1_555 1_555
F15 C35 1_555 1_555
S2 C25 1_555 1_555
C5 C6 1_555 1_555
C8 N2 1_555 1_555
C10 N3 1_555 1_555
C11 N3 1_555 1_555
C23 C24 1_555 1_555
C26 N5 1_555 1_555
C28 N6 1_555 1_555
C29 N6 1_555 1_555

#END
