
#######################################################################
#
#                 Cambridge Crystallographic Data Centre
#                                CCDC 
#
#######################################################################
#
# If this CIF has been generated from an entry in the Cambridge 
# Structural Database, then it will include bibliographic, chemical, 
# crystal, experimental, refinement or atomic coordinate data resulting 
# from the CCDC's data processing and validation procedures.
#
#######################################################################

data_DAHQAH
_chemical_formula_moiety         'C51 H48 F14 N6 O6 S2,1.5(C6 H14)'
_chemical_name_systematic        
'bis(3-(((3,5-bis(trifluoromethyl)phenyl)carbamothioyl)amino)-4-(2-(4-fluorophenyl)pyrrolidin-1-yl)-4-oxobutan-2-yl) glutarate hexane solvate'
_symmetry_cell_setting           monoclinic
_symmetry_space_group_name_H-M   'P 21'
_symmetry_Int_Tables_number      4
_space_group_name_Hall           'P 2yb'
loop_
_symmetry_equiv_pos_site_id
_symmetry_equiv_pos_as_xyz
1 x,y,z
2 -x,1/2+y,-z
_cell_length_a                   14.96640(10)
_cell_length_b                   23.1875(2)
_cell_length_c                   25.2512(2)
_cell_angle_alpha                90
_cell_angle_beta                 97.29
_cell_angle_gamma                90
_cell_volume                     8692.17
_exptl_crystal_colour            colorless
_exptl_crystal_description       block
_cell_formula_units_Z            6
loop_
_atom_site_label
_atom_site_type_symbol
_atom_site_fract_x
_atom_site_fract_y
_atom_site_fract_z
C84 C 0.1834(4) 0.9183(4) 0.7398(4)
H73 H 0.2456 0.9233 0.7370
C85 C 0.1376(6) 0.9594(3) 0.7660(4)
H74 H 0.1684 0.9924 0.7812
C86 C 0.0465(6) 0.9521(3) 0.7701(4)
C87 C 0.0013(4) 0.9037(3) 0.7480(4)
H75 H -0.0609 0.8987 0.7508
C88 C 0.0472(5) 0.8627(3) 0.7217(3)
H76 H 0.0163 0.8296 0.7066
C89 C 0.1382(5) 0.8700(3) 0.7176(3)
C90 C 0.1887(7) 0.8275(5) 0.6853(4)
H77 H 0.2496 0.8187 0.7048
C91 C 0.1968(8) 0.8505(6) 0.6291(4)
H78 H 0.2060 0.8928 0.6296
H79 H 0.2474 0.8318 0.6140
C92 C 0.1069(8) 0.8347(5) 0.5970(4)
H80 H 0.1122 0.8333 0.5583
H81 H 0.0597 0.8628 0.6032
C93 C 0.0856(8) 0.7749(5) 0.6180(4)
H82 H 0.0202 0.7703 0.6192
H83 H 0.1066 0.7440 0.5954
N8 N 0.1371(6) 0.7740(4) 0.6733(3)
C94 C 0.1398(11) 0.7290(5) 0.7059(3)
C95 C 0.0833(7) 0.6753(5) 0.6918(3)
H84 H 0.0278 0.6887 0.6689
C96 C -0.0155(3) 0.66774(19) 0.76259(17)
C97 C -0.0861(7) 0.6487(8) 0.8424(4)
C98 C -0.1759(8) 0.6529(8) 0.8204(3)
H85 H -0.1911 0.6551 0.7828
C99 C -0.2432(6) 0.6541(6) 0.8536(4)
C100 C -0.2209(5) 0.6509(4) 0.9086(3)
H86 H -0.2669 0.6517 0.9313
C101 C -0.1311(6) 0.6467(4) 0.9306(3)
C102 C -0.0637(5) 0.6456(5) 0.8974(5)
H87 H -0.0024 0.6427 0.9124
C103 C -0.3418(4) 0.6616(3) 0.8362(3)
F29 F -0.3579(2) 0.63685(19) 0.78762(17)
F30 F -0.372(3) 0.7149(5) 0.8286(11)
F31 F -0.392(3) 0.6334(16) 0.8657(11)
C104 C -0.1023(8) 0.6453(7) 0.9894(4)
F32 F -0.1675(7) 0.6263(4) 1.0178(4)
F33 F -0.0718(6) 0.6941(4) 1.0103(3)
F34 F -0.0376(5) 0.6048(4) 1.0007(2)
C105 C 0.0449(4) 0.4856(3) 0.8063(2)
H88 H 0.0941 0.4785 0.7869
C106 C -0.0425(4) 0.4867(3) 0.7799(2)
H89 H -0.0528 0.4803 0.7425
C107 C -0.1146(3) 0.4971(3) 0.8083(3)
C108 C -0.0994(4) 0.5064(3) 0.8631(3)
H90 H -0.1486 0.5135 0.8824
C109 C -0.0121(5) 0.5053(3) 0.8895(2)
H91 H -0.0017 0.5117 0.9269
C110 C 0.0601(3) 0.4949(3) 0.8611(3)
C111 C 0.1543(6) 0.4930(3) 0.8890(3)
H92 H 0.1942 0.4789 0.8629
C112 C 0.1709(7) 0.4542(3) 0.9394(3)
H93 H 0.1165 0.4525 0.9580
H94 H 0.1872 0.4145 0.9298
C113 C 0.2484(7) 0.4829(3) 0.9744(3)
H95 H 0.2489 0.4719 1.0123
H96 H 0.3070 0.4723 0.9627
C114 C 0.2300(7) 0.5466(3) 0.9665(3)
H97 H 0.1872 0.5604 0.9906
H98 H 0.2864 0.5692 0.9733
N9 N 0.1906(5) 0.5513(2) 0.9103(2)
C115 C 0.1964(6) 0.5926(4) 0.8762(3)
C116 C 0.2497(5) 0.6455(3) 0.8959(3)
H99 H 0.2409 0.6515 0.9341
N10 N 0.2135(7) 0.6954(3) 0.8661(3)
H100 H 0.2276 0.6986 0.8335
C117 C 0.1600(3) 0.7384(2) 0.88210(19)
C118 C 0.0724(7) 0.8221(4) 0.8643(4)
C119 C 0.1162(5) 0.8706(5) 0.8871(5)
H101 H 0.1795 0.8744 0.8877
C120 C 0.0674(6) 0.9135(4) 0.9090(5)
C121 C -0.0252(6) 0.9079(4) 0.9082(4)
H102 H -0.0586 0.9372 0.9231
C122 C -0.0691(5) 0.8594(4) 0.8853(4)
C123 C -0.0203(7) 0.8165(3) 0.8634(4)
H103 H -0.0502 0.7833 0.8478
C124 C 0.1151(8) 0.9649(5) 0.9331(5)
F35 F 0.1997(5) 0.9546(3) 0.9548(3)
F36 F 0.0762(6) 0.9856(4) 0.9727(3)
F37 F 0.1178(7) 1.0078(4) 0.8999(3)
C125 C -0.1648(8) 0.8527(6) 0.8821(6)
F38 F -0.2059(7) 0.8786(5) 0.9195(5)
F39 F -0.2116(8) 0.8742(6) 0.8391(5)
F40 F -0.1927(7) 0.7999(4) 0.8840(5)
C126 C 0.0754(8) 0.5783(5) 0.6463(4)
H104 H 0.0729 0.5572 0.6796
H105 H 0.1033 0.5540 0.6212
H106 H 0.0142 0.5886 0.6306
C127 C 0.1302(6) 0.6322(4) 0.6575(4)
H107 H 0.1415 0.6508 0.6232
O8 O 0.2146(4) 0.6164(3) 0.6883(3)
C128 C 0.2914(6) 0.6448(5) 0.6800(4)
C129 C 0.3693(7) 0.6348(5) 0.7231(4)
H108 H 0.4229 0.6554 0.7134
H109 H 0.3543 0.6515 0.7570
C130 C 0.3923(10) 0.5730(6) 0.7319(6)
H110 H 0.3839 0.5527 0.6971
H111 H 0.4567 0.5697 0.7466
C131 C 0.3375(8) 0.5446(5) 0.7683(4)
H112 H 0.3436 0.5024 0.7641
H113 H 0.2737 0.5545 0.7568
C132 C 0.3586(8) 0.5588(5) 0.8283(4)
O9 O 0.3643(4) 0.6181(3) 0.8404(3)
C133 C 0.3501(5) 0.6376(4) 0.8938(3)
H114 H 0.3723 0.6067 0.9199
C134 C 0.4058(7) 0.6903(5) 0.9070(5)
H115 H 0.3885 0.7202 0.8801
H116 H 0.4697 0.6808 0.9071
H117 H 0.3959 0.7046 0.9423
N11 N 0.0523(3) 0.64656(18) 0.73850(15)
H118 H 0.0791 0.6146 0.7508
N12 N -0.0201(2) 0.64344(17) 0.81063(14)
H119 H 0.0256 0.6213 0.8230
N13 N 0.1241(3) 0.77768(18) 0.84656(17)
H120 H 0.1331 0.7755 0.8128
O10 O 0.1863(6) 0.7325(7) 0.7518(4)
O11 O 0.1650(5) 0.5891(3) 0.8286(3)
O12 O 0.2898(4) 0.6783(4) 0.6437(3)
O13 O 0.3638(4) 0.5239(3) 0.8646(3)
F41 F 0.0030(7) 0.9922(4) 0.7958(4)
F42 F -0.2004(4) 0.5017(3) 0.7865(3)
S3 S -0.08487(8) 0.71972(5) 0.73559(4)
S4 S 0.13791(10) 0.73741(7) 0.94514(5)
C183 C 0.6365(15) 0.8495(8) 0.0820(6)
H169 H 0.5959 0.8803 0.0853
C184 C 0.6416(11) 0.8246(7) 0.0323(4)
H170 H 0.6045 0.8385 0.0017
C185 C 0.7011(9) 0.7795(6) 0.0275(3)
C186 C 0.7555(8) 0.7591(7) 0.0723(4)
H171 H 0.7962 0.7282 0.0691
C187 C 0.7504(11) 0.7839(9) 0.1220(4)
H172 H 0.7876 0.7700 0.1526
C188 C 0.6909(16) 0.8291(9) 0.1268(4)
F56 F 0.6932(8) 0.7518(6) -0.0180(4)
C189 C 0.7023(11) 0.8476(6) 0.1775(6)
H173 H 0.6754 0.8871 0.1740
C190 C 0.7890(11) 0.8589(6) 0.2035(5)
H174 H 0.7946 0.9001 0.2138
H175 H 0.8347 0.8501 0.1795
C191 C 0.8026(11) 0.8219(6) 0.2514(5)
H176 H 0.8336 0.7858 0.2433
H177 H 0.8404 0.8421 0.2806
C192 C 0.7148(5) 0.8087(3) 0.2675(2)
H178 H 0.7022 0.8334 0.2976
H179 H 0.7113 0.7677 0.2781
N17 N 0.6518(4) 0.8208(2) 0.2197(2)
S5 S 0.50998(18) 0.65057(11) 0.25609(11)
O20 O 0.5288(8) 0.8188(5) 0.1706(4)
C193 C 0.5761(7) 0.8066(5) 0.2132(5)
C194 C 0.5308(6) 0.7835(4) 0.2600(4)
H180 H 0.5711 0.7544 0.2800
N18 N 0.4476(5) 0.7563(3) 0.2393(4)
H181 H 0.4013 0.7791 0.2295
C195 C 0.4339(6) 0.7002(4) 0.2334(4)
N19 N 0.3512(5) 0.6875(3) 0.2059(3)
H182 H 0.3202 0.7170 0.1915
C196 C 0.3088(5) 0.6319(2) 0.1974(2)
C197 C 0.2525(5) 0.6240(3) 0.1498(2)
H183 H 0.2476 0.6533 0.1233
C198 C 0.2035(5) 0.5733(3) 0.1410(2)
C199 C 0.2107(5) 0.5304(2) 0.1798(3)
H184 H 0.1772 0.4957 0.1737
C200 C 0.2670(5) 0.5383(2) 0.2274(2)
C201 C 0.3160(5) 0.5891(3) 0.2362(2)
H185 H 0.3545 0.5945 0.2688
C202 C 0.1316(15) 0.5730(9) 0.0914(9)
F57 F 0.1337(6) 0.6130(4) 0.0603(3)
F58 F 0.0495(8) 0.5644(5) 0.1052(4)
F59 F 0.1555(7) 0.5198(4) 0.0684(3)
C203 C 0.2700(11) 0.4957(8) 0.2741(6)
F60 F 0.3111(5) 0.5111(3) 0.3170(3)
F61 F 0.3261(6) 0.4500(4) 0.2584(4)
F62 F 0.1973(5) 0.4690(3) 0.2761(3)
C204 C 0.1737(6) 0.7700(4) 0.2480(3)
H186 H 0.2034 0.8053 0.2581
C205 C 0.1803(6) 0.7238(5) 0.2833(2)
H187 H 0.2144 0.7274 0.3175
C206 C 0.1368(7) 0.6722(4) 0.2686(3)
C207 C 0.0869(7) 0.6668(4) 0.2185(4)
H188 H 0.0572 0.6315 0.2085
C208 C 0.0804(6) 0.7130(4) 0.1832(3)
H189 H 0.0462 0.7093 0.1490
C209 C 0.1238(6) 0.7646(3) 0.1979(3)
F63 F 0.1505(8) 0.6271(5) 0.3026(3)
C210 C 0.1202(6) 0.8177(5) 0.1609(4)
H190 H 0.1473 0.8519 0.1811
C211 C 0.0268(7) 0.8326(6) 0.1342(4)
H191 H -0.0144 0.7995 0.1365
H192 H 0.0027 0.8661 0.1521
C212 C 0.0336(7) 0.8467(6) 0.0767(4)
H193 H -0.0239 0.8395 0.0536
H194 H 0.0524 0.8872 0.0723
C213 C 0.1057(7) 0.8049(6) 0.0653(4)
H195 H 0.0804 0.7658 0.0582
H196 H 0.1347 0.8175 0.0342
N20 N 0.1699(6) 0.8056(5) 0.1141(3)
S6 S 0.3600(2) 0.67181(19) 0.04156(16)
O21 O 0.3014(6) 0.8054(5) 0.1660(4)
C214 C 0.2533(8) 0.8063(8) 0.1226(5)
C215 C 0.3021(11) 0.8000(7) 0.0730(6)
H197 H 0.2682 0.7712 0.0487
N21 N 0.3877(12) 0.7762(7) 0.0915(6)
H198 H 0.4242 0.7970 0.1140
C216 C 0.4177(9) 0.7242(6) 0.0775(10)
N22 N 0.5004(10) 0.7127(7) 0.1044(6)
H199 H 0.5186 0.7366 0.1306
C217 C 0.5607(9) 0.6683(6) 0.0964(6)
C218 C 0.5548(9) 0.6318(8) 0.0525(5)
H200 H 0.5065 0.6359 0.0244
C219 C 0.6197(10) 0.5894(6) 0.0495(4)
C220 C 0.6904(8) 0.5835(5) 0.0905(5)
H201 H 0.7347 0.5545 0.0885
C221 C 0.6962(7) 0.6200(5) 0.1345(4)
C222 C 0.6314(9) 0.6624(5) 0.1374(4)
H202 H 0.6354 0.6874 0.1675
C223 C 0.6081(11) 0.5533(7) 0.0018(6)
F64 F 0.5397(7) 0.5701(5) -0.0375(4)
F65 F 0.5960(8) 0.4998(4) 0.0163(3)
F66 F 0.6830(7) 0.5569(5) -0.0193(4)
C224 C 0.7700(14) 0.6101(8) 0.1803(7)
F67 F 0.7986(8) 0.6601(5) 0.1982(4)
F68 F 0.8265(7) 0.5709(6) 0.1723(4)
F69 F 0.7325(8) 0.5853(5) 0.2233(4)
C225 C 0.4617(13) 0.8025(5) 0.3447(5)
H203 H 0.3961 0.8031 0.3358
H204 H 0.4789 0.8248 0.3774
H205 H 0.4823 0.7626 0.3502
C226 C 0.5053(13) 0.8292(5) 0.2988(6)
H206 H 0.5600 0.8516 0.3134
O22 O 0.4358(11) 0.8684(5) 0.2741(6)
C227 C 0.4671(10) 0.9166(6) 0.2495(7)
C228 C 0.3815(10) 0.9500(6) 0.2326(5)
H207 H 0.3627 0.9706 0.2637
H208 H 0.3326 0.9232 0.2187
C229 C 0.3988(12) 0.9935(5) 0.1890(4)
H209 H 0.3446 1.0178 0.1798
H210 H 0.4494 1.0191 0.2027
C230 C 0.4207(11) 0.9633(6) 0.1398(5)
H211 H 0.4450 0.9924 0.1167
H212 H 0.4697 0.9354 0.1507
C231 C 0.3466(11) 0.9317(7) 0.1067(6)
O23 O 0.3721(11) 0.8935(6) 0.0738(6)
C232 C 0.3095(15) 0.8573(8) 0.0407(6)
H213 H 0.2494 0.8765 0.0332
C233 C 0.3432(14) 0.8369(6) -0.0124(5)
H214 H 0.4073 0.8270 -0.0054
H215 H 0.3347 0.8680 -0.0388
H216 H 0.3089 0.8029 -0.0260
O24 O 0.5469(8) 0.9290(5) 0.2409(4)
O25 O 0.2668(10) 0.9350(6) 0.1133(4)
C1 C 0.7709(4) 0.4664(4) 0.4865(3)
H1 H 0.7267 0.4631 0.5102
C2 C 0.8618(5) 0.4636(4) 0.5061(3)
H2 H 0.8799 0.4584 0.5432
C3 C 0.9264(4) 0.4684(4) 0.4713(3)
C4 C 0.9001(4) 0.4760(4) 0.4170(3)
H3 H 0.9442 0.4793 0.3932
C5 C 0.8091(5) 0.4788(4) 0.3974(2)
H4 H 0.7911 0.4840 0.3603
C6 C 0.7445(3) 0.4740(4) 0.4321(3)
C7 C 0.6446(8) 0.4756(6) 0.4158(5)
H5 H 0.6139 0.4624 0.4466
C8 C 0.6169(13) 0.4355(6) 0.3682(6)
H6 H 0.6654 0.4325 0.3451
H7 H 0.6026 0.3964 0.3805
C9 C 0.5339(12) 0.4643(7) 0.3389(9)
H8 H 0.4802 0.4576 0.3573
H9 H 0.5214 0.4505 0.3016
C10 C 0.5621(11) 0.5273(6) 0.3415(6)
H10 H 0.6046 0.5359 0.3155
H11 H 0.5093 0.5532 0.3347
N1 N 0.6065(14) 0.5327(5) 0.3974(4)
C11 C 0.5965(3) 0.5807(3) 0.42822(19)
C12 C 0.5348(4) 0.6324(2) 0.41265(19)
H12 H 0.5414 0.6436 0.3751
C13 C 0.6233(3) 0.7198(3) 0.43848(18)
C14 C 0.6881(9) 0.8113(5) 0.4822(5)
C15 C 0.6937(7) 0.8452(5) 0.4374(4)
H13 H 0.6627 0.8340 0.4038
C16 C 0.7446(6) 0.8955(5) 0.4417(3)
C17 C 0.7899(7) 0.9119(4) 0.4909(3)
H14 H 0.8247 0.9463 0.4938
C18 C 0.7843(10) 0.8780(5) 0.5357(3)
C19 C 0.7334(11) 0.8277(5) 0.5314(4)
H15 H 0.7296 0.8045 0.5620
C20 C 0.7525(8) 0.9331(5) 0.3935(5)
F1 F 0.8248(6) 0.9172(4) 0.3709(3)
F2 F 0.7626(11) 0.9875(5) 0.4060(4)
F3 F 0.6810(6) 0.9279(4) 0.3556(3)
C21 C 0.8276(8) 0.8936(5) 0.5902(5)
F4 F 0.7834(8) 0.8782(8) 0.6311(7)
F5 F 0.8416(6) 0.9504(3) 0.5958(3)
F6 F 0.9109(5) 0.8709(4) 0.5981(3)
C22 C 0.4093(9) 0.7763(6) 0.5560(4)
H16 H 0.3748 0.7432 0.5623
C23 C 0.3830(7) 0.8113(6) 0.5121(4)
H17 H 0.3305 0.8020 0.4883
C24 C 0.4334(8) 0.8597(5) 0.5029(4)
C25 C 0.5102(9) 0.8733(5) 0.5376(4)
H18 H 0.5447 0.9064 0.5313
C26 C 0.5365(9) 0.8383(6) 0.5815(5)
H19 H 0.5890 0.8476 0.6053
C27 C 0.4861(10) 0.7899(6) 0.5908(4)
C28 C 0.5127(4) 0.7502(3) 0.6383(2)
H20 H 0.4702 0.7168 0.6371
C29 C 0.5166(5) 0.7811(3) 0.6919(2)
H21 H 0.4797 0.8166 0.6882
H22 H 0.4933 0.7557 0.7186
C30 C 0.6140(5) 0.7957(3) 0.7093(3)
H23 H 0.6263 0.7983 0.7487
H24 H 0.6300 0.8330 0.6938
C31 C 0.6664(4) 0.7468(3) 0.68857(19)
H25 H 0.7257 0.7601 0.6798
H26 H 0.6757 0.7150 0.7148
C32 C 0.6250(3) 0.6905(2) 0.60390(18)
C33 C 0.7185(4) 0.6606(2) 0.61180(17)
H27 H 0.7651 0.6892 0.6267
C34 C 0.8165(3) 0.6543(2) 0.54077(19)
C35 C 0.9003(5) 0.6191(4) 0.4626(3)
C36 C 0.9888(6) 0.6147(4) 0.48683(18)
H28 H 1.0016 0.6158 0.5246
C37 C 1.0585(4) 0.6087(3) 0.4557(3)
C38 C 1.0397(4) 0.6071(3) 0.4004(2)
H29 H 1.0874 0.6030 0.3792
C39 C 0.9513(4) 0.6114(3) 0.37619(18)
C40 C 0.8816(4) 0.6174(3) 0.4073(3)
H30 H 0.8211 0.6204 0.3907
C41 C 1.1529(9) 0.6090(11) 0.4834(8)
F7 F 1.158(3) 0.5836(14) 0.5299(10)
F8 F 1.189(3) 0.6607(11) 0.4929(10)
F9 F 1.2100(9) 0.5809(9) 0.4558(5)
C42 C 0.9305(7) 0.6038(5) 0.3168(4)
F10 F 0.9983(5) 0.5887(4) 0.2925(2)
F11 F 0.8634(5) 0.5672(4) 0.3039(3)
F12 F 0.9007(6) 0.6539(5) 0.2934(4)
C43 C 0.4356(4) 0.6185(3) 0.41599(19)
H31 H 0.4187 0.5818 0.3964
C44 C 0.3741(4) 0.6658(3) 0.3942(3)
H32 H 0.3881 0.7010 0.4151
H33 H 0.3115 0.6546 0.3962
H34 H 0.3823 0.6730 0.3568
C45 C 0.4283(3) 0.5584(3) 0.4925(2)
C46 C 0.4141(5) 0.5598(3) 0.5506(2)
H35 H 0.4466 0.5935 0.5677
H36 H 0.3491 0.5655 0.5528
C47 C 0.4446(5) 0.5071(3) 0.5816(3)
H37 H 0.4193 0.5071 0.6160
H38 H 0.4222 0.4723 0.5614
C48 C 0.5444(5) 0.5053(3) 0.5920(3)
H39 H 0.5682 0.5063 0.5571
H40 H 0.5622 0.4677 0.6088
C49 C 0.5912(6) 0.5536(4) 0.6275(3)
C50 C 0.7192(4) 0.6095(3) 0.6500(2)
H41 H 0.6919 0.6197 0.6829
C51 C 0.8136(5) 0.5845(3) 0.6635(2)
H42 H 0.8357 0.5712 0.6307
H43 H 0.8117 0.5519 0.6881
H44 H 0.8541 0.6143 0.6804
N2 N 0.5618(3) 0.68066(19) 0.44721(15)
H45 H 0.5355 0.6845 0.4763
N3 N 0.6391(3) 0.7585(2) 0.47927(15)
H46 H 0.6153 0.7495 0.5083
N4 N 0.6072(3) 0.7290(2) 0.64021(14)
N5 N 0.7384(3) 0.64161(18) 0.56036(15)
H47 H 0.6980 0.6207 0.5406
N6 N 0.8224(3) 0.6268(2) 0.49390(16)
H48 H 0.7719 0.6109 0.4793
O1 O 0.6382(2) 0.57770(16) 0.47337(12)
O2 O 0.5706(2) 0.67798(17) 0.56457(12)
O3 O 0.4250(2) 0.61176(16) 0.47167(13)
O4 O 0.4391(3) 0.5159(2) 0.46740(15)
O5 O 0.6702(3) 0.56244(19) 0.62066(17)
O6 O 0.5508(4) 0.5851(3) 0.6572(2)
F13 F 1.0144(4) 0.4642(4) 0.4889(4)
F14 F 0.4061(10) 0.8920(6) 0.4604(4)
S1 S 0.67537(12) 0.72021(7) 0.38362(5)
S2 S 0.89425(11) 0.69943(7) 0.57037(5)
C52? C 0.7819(5) 0.4772(5) 0.4684(3)
H49? H 0.7469 0.4659 0.4955
C53? C 0.8754(5) 0.4762(5) 0.4782(3)
H50? H 0.9043 0.4640 0.5121
C54? C 0.9265(4) 0.4928(4) 0.4386(4)
C55? C 0.8842(5) 0.5105(4) 0.3891(3)
H51? H 0.9191 0.5219 0.3620
C56? C 0.7907(5) 0.5116(4) 0.3792(3)
H52? H 0.7618 0.5237 0.3454
C57? C 0.7395(4) 0.4950(4) 0.4189(4)
C58? C 0.6393(9) 0.4899(7) 0.4036(6)
H53? H 0.6132 0.4769 0.4362
C59? C 0.6028(15) 0.4488(7) 0.3578(7)
H54? H 0.5942 0.4094 0.3712
H55? H 0.6438 0.4473 0.3300
C60? C 0.5113(14) 0.4769(8) 0.3359(10)
H56? H 0.4898 0.4632 0.2994
H57? H 0.4647 0.4689 0.3595
C61? C 0.5354(13) 0.5402(7) 0.3362(7)
H58? H 0.5666 0.5504 0.3052
H59? H 0.4813 0.5648 0.3363
N7? N 0.5960(16) 0.5451(6) 0.3869(5)
C62? C 0.7053(15) 0.8023(8) 0.4855(8)
C63? C 0.7232(11) 0.8402(8) 0.4455(6)
H60? H 0.7025 0.8317 0.4092
C64? C 0.7716(10) 0.8905(7) 0.4587(4)
C65? C 0.8020(11) 0.9029(6) 0.5118(5)
H61? H 0.8350 0.9372 0.5207
C66? C 0.7840(15) 0.8650(8) 0.5517(4)
C67? C 0.7356(18) 0.8147(8) 0.5386(7)
H62? H 0.7233 0.7888 0.5659
C68? C 0.7874(11) 0.9281(8) 0.4128(6)
F15? F 0.8705(8) 0.9212(6) 0.3996(4)
F16? F 0.7806(17) 0.9834(8) 0.4244(7)
F17? F 0.7333(9) 0.9190(6) 0.3681(5)
C69? C 0.8187(11) 0.8799(7) 0.6078(7)
F18? F 0.7456(11) 0.8938(12) 0.6304(10)
F19? F 0.8760(8) 0.9226(5) 0.6128(5)
F20? F 0.8586(8) 0.8361(5) 0.6339(4)
C70? C 0.410(2) 0.7583(12) 0.5518(11)
H63? H 0.3840 0.7222 0.5592
C71? C 0.3730(17) 0.7902(12) 0.5077(10)
H64? H 0.3225 0.7758 0.4849
C72? C 0.4104(17) 0.8431(10) 0.4968(8)
C73? C 0.4843(19) 0.8642(11) 0.5301(9)
H65? H 0.5098 0.9004 0.5227
C74? C 0.521(2) 0.8323(15) 0.5743(10)
H66? H 0.5713 0.8467 0.5970
C75? C 0.483(3) 0.7794(14) 0.5851(10)
H67? H 0.4734 0.7155 0.6401
C76? C 0.8893(6) 0.6396(4) 0.4647(3)
C77? C 0.9785(7) 0.6293(5) 0.4853(2)
H68? H 0.9934 0.6197 0.5220
C78? C 1.0458(5) 0.6330(4) 0.4523(3)
C79? C 1.0240(4) 0.6471(4) 0.3987(3)
H69? H 1.0701 0.6496 0.3761
C80? C 0.9349(5) 0.6573(4) 0.3781(2)
C81? C 0.8675(4) 0.6536(4) 0.4111(3)
H70? H 0.8066 0.6606 0.3971
C82? C 1.1410(11) 0.6194(14) 0.4743(10)
F21? F 1.155(3) 0.5974(17) 0.5224(12)
F22? F 1.188(3) 0.6677(13) 0.4772(12)
F23? F 1.1832(12) 0.5876(11) 0.4413(7)
C83? C 0.9106(8) 0.6723(6) 0.3206(5)
F24? F 0.9595(6) 0.7132(4) 0.3056(3)
F25? F 0.8264(6) 0.6884(5) 0.3082(3)
F26? F 0.9288(7) 0.6257(6) 0.2916(5)
H71? H 0.6041 0.7560 0.5046
H72? H 0.7823 0.6005 0.4824
O7? O 0.586(2) 0.5436(16) 0.6794(7)
F27? F 1.0167(5) 0.4921(4) 0.4477(5)
F28? F 0.378(2) 0.8724(11) 0.4535(8)
C135? C 0.2062(5) 0.8819(4) 0.7330(4)
H121? H 0.2700 0.8787 0.7381
C136? C 0.1641(7) 0.9243(4) 0.7599(4)
H122? H 0.1991 0.9500 0.7834
C137? C 0.0708(7) 0.9290(4) 0.7526(4)
C138? C 0.0196(5) 0.8913(4) 0.7182(4)
H123? H -0.0442 0.8945 0.7132
C139? C 0.0617(5) 0.8490(3) 0.6913(3)
H124? H 0.0267 0.8233 0.6678
C140? C 0.1550(5) 0.8443(3) 0.6987(3)
C141? C 0.2058(8) 0.8006(6) 0.6681(5)
H125? H 0.2654 0.7907 0.6887
C142? C 0.2172(9) 0.8211(6) 0.6120(5)
H126? H 0.2746 0.8066 0.6013
H127? H 0.2175 0.8637 0.6104
C143? C 0.1372(10) 0.7968(6) 0.5753(5)
H128? H 0.1521 0.7923 0.5384
H129? H 0.0840 0.8223 0.5747
C144? C 0.1195(9) 0.7378(5) 0.6000(4)
H130? H 0.0549 0.7273 0.5934
H131? H 0.1557 0.7070 0.5859
N14? N 0.1490(7) 0.7484(4) 0.6582(3)
C145? C 0.130(2) 0.7117(10) 0.6958(8)
C146? C 0.0616(17) 0.6650(9) 0.6839(6)
H132? H 0.0035 0.6809 0.6657
C147? C -0.0939(13) 0.6523(13) 0.8470(7)
C148? C -0.1859(14) 0.6528(14) 0.8298(5)
H133? H -0.2072 0.6460 0.7933
C149? C -0.2466(9) 0.6633(11) 0.8660(7)
C150? C -0.2153(10) 0.6733(7) 0.9194(6)
H134? H -0.2568 0.6805 0.9442
C151? C -0.1233(11) 0.6728(6) 0.9366(6)
C152? C -0.0626(8) 0.6623(9) 0.9004(8)
H135? H 0.0003 0.6620 0.9122
F43? F -0.358(5) 0.7172(8) 0.8265(19)
F44? F -0.397(5) 0.640(3) 0.8655(18)
C153? C -0.0974(12) 0.6858(11) 0.9955(7)
F45? F -0.1582(13) 0.6607(8) 1.0231(8)
F46? F -0.0954(9) 0.7408(6) 1.0068(4)
F47? F -0.0147(8) 0.6639(7) 1.0108(4)
C154? C 0.0874(10) 0.4837(8) 0.7999(7)
H136? H 0.1336 0.4742 0.7788
C155? C -0.0025(12) 0.4806(9) 0.7778(7)
H137? H -0.0176 0.4690 0.7417
C156? C -0.0701(9) 0.4945(9) 0.8086(8)
C157? C -0.0479(10) 0.5115(8) 0.8614(8)
H138? H -0.0942 0.5210 0.8825
C158? C 0.0419(12) 0.5146(7) 0.8835(6)
H139? H 0.0570 0.5262 0.9196
C159? C 0.1095(9) 0.5007(7) 0.8527(7)
C160? C 0.2102(16) 0.5074(7) 0.8735(7)
H140? H 0.2484 0.4960 0.8455
C161? C 0.2287(16) 0.4670(7) 0.9232(8)
H141? H 0.1764 0.4659 0.9437
H142? H 0.2432 0.4273 0.9127
C162? C 0.3101(15) 0.4962(7) 0.9552(8)
H143? H 0.3167 0.4839 0.9931
H144? H 0.3662 0.4869 0.9401
C163? C 0.2895(16) 0.5590(7) 0.9502(7)
H145? H 0.2529 0.5717 0.9782
H146? H 0.3456 0.5821 0.9533
N15? N 0.2382(13) 0.5652(6) 0.8965(6)
C164? C 0.2263(11) 0.6091(6) 0.8651(6)
C165? C 0.2660(10) 0.6659(7) 0.8861(7)
H147? H 0.2542 0.6706 0.9239
N16? N 0.2178(14) 0.7103(6) 0.8540(7)
H148? H 0.2250 0.7181 0.8207
C166? C 0.0633(7) 0.8238(5) 0.8589(5)
C167? C 0.0975(5) 0.8667(5) 0.8942(5)
H149? H 0.1597 0.8668 0.9079
C168? C 0.0409(6) 0.9095(4) 0.9094(4)
C169? C -0.0500(6) 0.9093(4) 0.8894(4)
H150? H -0.0887 0.9385 0.8998
C170? C -0.0843(5) 0.8664(4) 0.8541(4)
C171? C -0.0276(7) 0.8236(4) 0.8388(4)
H151? H -0.0511 0.7943 0.8147
C172? C 0.0750(9) 0.9529(4) 0.9499(4)
F48? F 0.1359(6) 0.9324(3) 0.9884(3)
F49? F 0.0146(6) 0.9795(4) 0.9744(4)
F50? F 0.1185(7) 0.9937(4) 0.9284(4)
C173? C -0.1771(9) 0.8663(5) 0.8279(6)
F51? F -0.2217(8) 0.9130(5) 0.8421(6)
F52? F -0.1964(7) 0.8642(5) 0.7757(4)
F53? F -0.2212(7) 0.8217(5) 0.8419(5)
C174? C 0.0175(13) 0.5692(8) 0.6372(8)
H152? H -0.0126 0.5597 0.6683
H153? H 0.0431 0.5341 0.6236
H154? H -0.0263 0.5860 0.6093
C175? C 0.0921(11) 0.6122(8) 0.6532(7)
H155? H 0.1171 0.6258 0.6205
O14? O 0.1599(7) 0.5794(5) 0.6859(4)
C176? C 0.2418(10) 0.5887(9) 0.6796(8)
C177? C 0.3031(11) 0.5470(9) 0.7140(8)
H156? H 0.2837 0.5439 0.7500
H157? H 0.2999 0.5082 0.6975
C178? C 0.3966(14) 0.5692(12) 0.7183(11)
H158? H 0.4133 0.5739 0.6819
H159? H 0.4374 0.5400 0.7369
C179? C 0.4125(17) 0.6264(10) 0.7477(7)
H160? H 0.4742 0.6403 0.7446
H161? H 0.3693 0.6555 0.7312
C180? C 0.4009(13) 0.6191(7) 0.8059(6)
O15? O 0.3811(8) 0.6736(5) 0.8292(4)
C181? C 0.3650(10) 0.6734(8) 0.8837(6)
H162? H 0.3992 0.6411 0.9032
C182? C 0.4020(12) 0.7306(9) 0.9052(8)
H163? H 0.3663 0.7620 0.8872
H164? H 0.4649 0.7344 0.8986
H165? H 0.3988 0.7325 0.9437
H166? H 0.0907 0.6219 0.7552
H167? H 0.0240 0.6199 0.8225
H168? H 0.1381 0.7756 0.8138
O16? O 0.1596(14) 0.7259(14) 0.7438(10)
O17? O 0.1918(10) 0.6058(6) 0.8182(5)
O18? O 0.2675(8) 0.6228(8) 0.6484(6)
O19? O 0.4046(9) 0.5784(6) 0.8346(5)
F54? F 0.0307(9) 0.9710(5) 0.7781(5)
F55? F -0.1528(11) 0.4871(9) 0.7789(9)
C234? C 0.631(2) 0.8629(10) 0.0870(8)
H217? H 0.6086 0.8993 0.0964
C235? C 0.6127(16) 0.8426(9) 0.0351(7)
H218? H 0.5771 0.8650 0.0088
C236? C 0.6461(13) 0.7894(8) 0.0214(5)
C237? C 0.6981(12) 0.7566(8) 0.0598(6)
H219? H 0.7210 0.7203 0.0504
C238? C 0.7169(14) 0.7770(12) 0.1118(5)
H220? H 0.7525 0.7546 0.1380
C239? C 0.683(2) 0.8302(12) 0.1254(6)
F70? F 0.6419(12) 0.7774(8) -0.0291(5)
C240? C 0.6809(16) 0.8694(8) 0.1841(8)
H221? H 0.6403 0.9038 0.1806
C241? C 0.7804(15) 0.8805(8) 0.2183(7)
H222? H 0.8268 0.8768 0.1939
H223? H 0.7827 0.9205 0.2319
C242? C 0.8013(16) 0.8447(8) 0.2594(8)
H224? H 0.8218 0.8671 0.2922
H225? H 0.8506 0.8186 0.2522
H226? H 0.7288 0.7670 0.2703
H227? H 0.6896 0.8211 0.3000
S7? S 0.4703(2) 0.66618(16) 0.26290(16)
O26? O 0.4978(12) 0.8375(8) 0.1705(6)
C243? C 0.5450(11) 0.8224(8) 0.2120(7)
C244? C 0.4991(8) 0.7967(6) 0.2572(6)
H228? H 0.5380 0.7645 0.2732
N23? N 0.4166(7) 0.7718(5) 0.2332(7)
H229? H 0.3766 0.7945 0.2151
C245? C 0.3972(7) 0.7167(5) 0.2366(6)
N24? N 0.3120(6) 0.7052(4) 0.2132(5)
H230? H 0.2818 0.7343 0.1972
C246? C 0.2680(6) 0.6527(3) 0.2121(3)
C247? C 0.2056(7) 0.6440(4) 0.1671(3)
H231? H 0.2013 0.6709 0.1385
C248? C 0.1495(7) 0.5960(4) 0.1641(3)
C249? C 0.1559(7) 0.5567(4) 0.2060(4)
H232? H 0.1176 0.5239 0.2039
C250? C 0.2183(7) 0.5654(4) 0.2509(3)
C251? C 0.2744(6) 0.6134(4) 0.2539(3)
H233? H 0.3171 0.6194 0.2847
C252? C 0.0792(18) 0.5919(9) 0.1224(9)
F71? F 0.0476(9) 0.6350(5) 0.1018(4)
F72? F 0.0082(10) 0.5572(6) 0.1319(5)
F73? F 0.1046(12) 0.5555(6) 0.0809(5)
C253? C 0.2213(13) 0.5263(8) 0.2970(8)
F74? F 0.2475(7) 0.5465(4) 0.3420(4)
F75? F 0.2953(9) 0.4866(6) 0.2923(6)
F76? F 0.1565(7) 0.4940(5) 0.2977(4)
C254? C 0.1486(9) 0.8181(5) 0.2426(4)
H234? H 0.1792 0.8541 0.2454
C255? C 0.1553(9) 0.7810(6) 0.2862(3)
H235? H 0.1905 0.7916 0.3187
C256? C 0.1106(10) 0.7283(6) 0.2821(4)
C257? C 0.0592(9) 0.7128(5) 0.2346(5)
H236? H 0.0286 0.6768 0.2318
C258? C 0.0524(8) 0.7499(6) 0.1910(4)
H237? H 0.0173 0.7393 0.1585
C259? C 0.0972(9) 0.8026(5) 0.1951(3)
F77? F 0.1176(10) 0.6910(6) 0.3230(4)
C260? C 0.0918(9) 0.8418(7) 0.1463(5)
H238? H 0.1188 0.8799 0.1581
C261? C -0.0008(9) 0.8529(8) 0.1165(5)
H239? H -0.0278 0.8876 0.1309
H240? H -0.0408 0.8196 0.1204
C262? C 0.0107(10) 0.8618(8) 0.0583(6)
H241? H 0.0320 0.9013 0.0516
H242? H -0.0457 0.8539 0.0345
C263? C 0.0823(10) 0.8169(8) 0.0524(6)
H243? H 0.0551 0.7782 0.0463
H244? H 0.1158 0.8264 0.0221
N25? N 0.1419(8) 0.8188(7) 0.1031(5)
C264? C 0.5481(12) 0.6605(8) 0.0991(8)
C265? C 0.5468(13) 0.6302(10) 0.0514(6)
H245? H 0.5078 0.6420 0.0207
C266? C 0.6025(14) 0.5826(9) 0.0488(5)
C267? C 0.6595(11) 0.5653(7) 0.0937(6)
H246? H 0.6976 0.5327 0.0919
C268? C 0.6608(10) 0.5955(7) 0.1413(5)
C269? C 0.6051(12) 0.6431(7) 0.1440(6)
H247? H 0.6060 0.6638 0.1765
C270? C 0.6025(14) 0.5441(8) 0.0024(7)
F78? F 0.5900(10) 0.5771(7) -0.0439(6)
F79? F 0.5298(10) 0.5106(6) -0.0050(5)
F80? F 0.6750(10) 0.5140(6) -0.0048(5)
C271? C 0.7133(15) 0.5919(10) 0.1949(7)
F81? F 0.7052(10) 0.6285(7) 0.2353(5)
F82? F 0.7950(10) 0.5913(8) 0.1887(7)
F83? F 0.6933(10) 0.5399(6) 0.2172(5)
O27? O 0.2724(10) 0.8195(8) 0.1587(7)
N26? N 0.4981(13) 0.7117(10) 0.0955(9)
H248? H 0.5292 0.7433 0.1041
C272? C 0.2324(13) 0.8088(12) 0.1106(7)
C273? C 0.2898(15) 0.7945(9) 0.0655(9)
H249? H 0.2576 0.7662 0.0399
N27? N 0.3792(17) 0.7755(9) 0.0823(8)
H250? H 0.4193 0.8016 0.0945
C274? C 0.4071(12) 0.7197(8) 0.0807(14)
S8? S 0.3249(3) 0.6737(3) 0.0527(2)
C275? C 0.4651(19) 0.8232(7) 0.3498(7)
H251? H 0.3994 0.8267 0.3462
H252? H 0.4920 0.8477 0.3792
H253? H 0.4825 0.7830 0.3572
C276? C 0.4981(18) 0.8421(7) 0.2989(7)
H254? H 0.5573 0.8625 0.3058
O28? O 0.4262(15) 0.8806(7) 0.2724(9)
C277? C 0.4535(13) 0.9300(8) 0.2507(9)
C278? C 0.3814(13) 0.9592(8) 0.2141(6)
H255? H 0.3492 0.9855 0.2360
H256? H 0.3378 0.9292 0.1998
C279? C 0.4059(16) 0.9933(7) 0.1676(6)
H257? H 0.4578 1.0183 0.1801
H258? H 0.3546 1.0186 0.1544
C280? C 0.4296(14) 0.9570(8) 0.1216(6)
H259? H 0.4763 0.9285 0.1351
H260? H 0.4551 0.9822 0.0955
C281? C 0.3472(15) 0.9254(10) 0.0935(8)
O29? O 0.3777(15) 0.8838(8) 0.0665(8)
C282? C 0.305(2) 0.8519(11) 0.0366(9)
H261? H 0.2483 0.8754 0.0341
C283? C 0.342(2) 0.8535(9) -0.0176(7)
H262? H 0.3938 0.8276 -0.0165
H263? H 0.3607 0.8930 -0.0248
H264? H 0.2949 0.8412 -0.0459
O30? O 0.2691(14) 0.9412(9) 0.0961(6)
O31? O 0.5337(12) 0.9382(7) 0.2596(6)
loop_
_geom_bond_atom_site_label_1
_geom_bond_atom_site_label_2
_geom_bond_site_symmetry_1
_geom_bond_site_symmetry_2
C1 H1 1_555 1_555
C2 C1 1_555 1_555
H2 C2 1_555 1_555
C3 C2 1_555 1_555
C4 C3 1_555 1_555
H3 C4 1_555 1_555
C5 C4 1_555 1_555
H4 C5 1_555 1_555
C6 C1 1_555 1_555
C7 C6 1_555 1_555
H5 C7 1_555 1_555
C8 C7 1_555 1_555
H6 C8 1_555 1_555
H7 C8 1_555 1_555
C9 C8 1_555 1_555
H8 C9 1_555 1_555
H9 C9 1_555 1_555
C10 C9 1_555 1_555
H10 C10 1_555 1_555
H11 C10 1_555 1_555
N1 C7 1_555 1_555
C11 N1 1_555 1_555
C12 C11 1_555 1_555
H12 C12 1_555 1_555
C13 N2 1_555 1_555
C14 C15 1_555 1_555
C15 H13 1_555 1_555
C16 C15 1_555 1_555
C17 C16 1_555 1_555
H14 C17 1_555 1_555
C18 C17 1_555 1_555
C19 C14 1_555 1_555
H15 C19 1_555 1_555
C20 C16 1_555 1_555
F1 C20 1_555 1_555
F2 C20 1_555 1_555
F3 C20 1_555 1_555
C21 C18 1_555 1_555
F4 C21 1_555 1_555
F5 C21 1_555 1_555
F6 C21 1_555 1_555
C22 H16 1_555 1_555
C23 C22 1_555 1_555
H17 C23 1_555 1_555
C24 C23 1_555 1_555
C25 C24 1_555 1_555
H18 C25 1_555 1_555
C26 C25 1_555 1_555
H19 C26 1_555 1_555
C27 C22 1_555 1_555
C28 C27 1_555 1_555
H20 C28 1_555 1_555
C29 C28 1_555 1_555
H21 C29 1_555 1_555
H22 C29 1_555 1_555
C30 C29 1_555 1_555
H23 C30 1_555 1_555
H24 C30 1_555 1_555
C31 C30 1_555 1_555
H25 C31 1_555 1_555
H26 C31 1_555 1_555
C32 C33 1_555 1_555
C33 H27 1_555 1_555
C34 N5 1_555 1_555
C35 C36 1_555 1_555
C36 H28 1_555 1_555
C37 C36 1_555 1_555
C38 C37 1_555 1_555
H29 C38 1_555 1_555
C39 C38 1_555 1_555
C40 C35 1_555 1_555
H30 C40 1_555 1_555
C41 C37 1_555 1_555
F7 C41 1_555 1_555
F8 C41 1_555 1_555
F9 C41 1_555 1_555
C42 C39 1_555 1_555
F10 C42 1_555 1_555
F11 C42 1_555 1_555
F12 C42 1_555 1_555
C43 C12 1_555 1_555
H31 C43 1_555 1_555
C44 C43 1_555 1_555
H32 C44 1_555 1_555
H33 C44 1_555 1_555
H34 C44 1_555 1_555
C45 C46 1_555 1_555
C46 H35 1_555 1_555
H36 C46 1_555 1_555
C47 C46 1_555 1_555
H37 C47 1_555 1_555
H38 C47 1_555 1_555
C48 C47 1_555 1_555
H39 C48 1_555 1_555
H40 C48 1_555 1_555
C49 C48 1_555 1_555
C50 C33 1_555 1_555
H41 C50 1_555 1_555
C51 C50 1_555 1_555
H42 C51 1_555 1_555
H43 C51 1_555 1_555
H44 C51 1_555 1_555
N2 C12 1_555 1_555
H45 N2 1_555 1_555
N3 C13 1_555 1_555
H46 N3 1_555 1_555
N4 C28 1_555 1_555
N5 C33 1_555 1_555
H47 N5 1_555 1_555
N6 C34 1_555 1_555
H48 N6 1_555 1_555
O1 C11 1_555 1_555
O2 C32 1_555 1_555
O3 C43 1_555 1_555
O4 C45 1_555 1_555
O5 C49 1_555 1_555
O6 C49 1_555 1_555
F13 C3 1_555 1_555
F14 C24 1_555 1_555
S1 C13 1_555 1_555
S2 C34 1_555 1_555
C84 H73 1_555 1_555
C85 C84 1_555 1_555
H74 C85 1_555 1_555
C86 C85 1_555 1_555
C87 C86 1_555 1_555
H75 C87 1_555 1_555
C88 C87 1_555 1_555
H76 C88 1_555 1_555
C89 C84 1_555 1_555
C90 C89 1_555 1_555
H77 C90 1_555 1_555
C91 C90 1_555 1_555
H78 C91 1_555 1_555
H79 C91 1_555 1_555
C92 C91 1_555 1_555
H80 C92 1_555 1_555
H81 C92 1_555 1_555
C93 C92 1_555 1_555
H82 C93 1_555 1_555
H83 C93 1_555 1_555
N8 C90 1_555 1_555
C94 N8 1_555 1_555
C95 C94 1_555 1_555
H84 C95 1_555 1_555
C96 N11 1_555 1_555
C97 C98 1_555 1_555
C98 H85 1_555 1_555
C99 C98 1_555 1_555
C100 C99 1_555 1_555
H86 C100 1_555 1_555
C101 C100 1_555 1_555
C102 C97 1_555 1_555
H87 C102 1_555 1_555
C103 C99 1_555 1_555
F29 C103 1_555 1_555
F30 C103 1_555 1_555
F31 C103 1_555 1_555
C104 C101 1_555 1_555
F32 C104 1_555 1_555
F33 C104 1_555 1_555
F34 C104 1_555 1_555
C105 H88 1_555 1_555
C106 C105 1_555 1_555
H89 C106 1_555 1_555
C107 C106 1_555 1_555
C108 C107 1_555 1_555
H90 C108 1_555 1_555
C109 C108 1_555 1_555
H91 C109 1_555 1_555
C110 C105 1_555 1_555
C111 C110 1_555 1_555
H92 C111 1_555 1_555
C112 C111 1_555 1_555
H93 C112 1_555 1_555
H94 C112 1_555 1_555
C113 C112 1_555 1_555
H95 C113 1_555 1_555
H96 C113 1_555 1_555
C114 C113 1_555 1_555
H97 C114 1_555 1_555
H98 C114 1_555 1_555
N9 C111 1_555 1_555
C115 N9 1_555 1_555
C116 C115 1_555 1_555
H99 C116 1_555 1_555
N10 C116 1_555 1_555
H100 N10 1_555 1_555
C117 N10 1_555 1_555
C118 C119 1_555 1_555
C119 H101 1_555 1_555
C120 C119 1_555 1_555
C121 C120 1_555 1_555
H102 C121 1_555 1_555
C122 C121 1_555 1_555
C123 C118 1_555 1_555
H103 C123 1_555 1_555
C124 C120 1_555 1_555
F35 C124 1_555 1_555
F36 C124 1_555 1_555
F37 C124 1_555 1_555
C125 C122 1_555 1_555
F38 C125 1_555 1_555
F39 C125 1_555 1_555
F40 C125 1_555 1_555
C126 H104 1_555 1_555
H105 C126 1_555 1_555
H106 C126 1_555 1_555
C127 C95 1_555 1_555
H107 C127 1_555 1_555
O8 C127 1_555 1_555
C128 O8 1_555 1_555
C129 C128 1_555 1_555
H108 C129 1_555 1_555
H109 C129 1_555 1_555
C130 C129 1_555 1_555
H110 C130 1_555 1_555
H111 C130 1_555 1_555
C131 C130 1_555 1_555
H112 C131 1_555 1_555
H113 C131 1_555 1_555
C132 C131 1_555 1_555
O9 C132 1_555 1_555
C133 C116 1_555 1_555
H114 C133 1_555 1_555
C134 C133 1_555 1_555
H115 C134 1_555 1_555
H116 C134 1_555 1_555
H117 C134 1_555 1_555
N11 C95 1_555 1_555
H118 N11 1_555 1_555
N12 C96 1_555 1_555
H119 N12 1_555 1_555
N13 C117 1_555 1_555
H120 N13 1_555 1_555
O10 C94 1_555 1_555
O11 C115 1_555 1_555
O12 C128 1_555 1_555
O13 C132 1_555 1_555
F41 C86 1_555 1_555
F42 C107 1_555 1_555
S3 C96 1_555 1_555
S4 C117 1_555 1_555
C183 H169 1_555 1_555
C184 C183 1_555 1_555
H170 C184 1_555 1_555
C185 C184 1_555 1_555
C186 C185 1_555 1_555
H171 C186 1_555 1_555
C187 C186 1_555 1_555
H172 C187 1_555 1_555
C188 C183 1_555 1_555
F56 C185 1_555 1_555
C189 C188 1_555 1_555
H173 C189 1_555 1_555
C190 C189 1_555 1_555
H174 C190 1_555 1_555
H175 C190 1_555 1_555
C191 C190 1_555 1_555
H176 C191 1_555 1_555
H177 C191 1_555 1_555
C192 C191 1_555 1_555
H178 C192 1_555 1_555
H179 C192 1_555 1_555
N17 C189 1_555 1_555
S5 C195 1_555 1_555
O20 C193 1_555 1_555
C193 N17 1_555 1_555
C194 C193 1_555 1_555
H180 C194 1_555 1_555
N18 C194 1_555 1_555
H181 N18 1_555 1_555
C195 N18 1_555 1_555
N19 C195 1_555 1_555
H182 N19 1_555 1_555
C196 N19 1_555 1_555
C197 C196 1_555 1_555
H183 C197 1_555 1_555
C198 C197 1_555 1_555
C199 C198 1_555 1_555
H184 C199 1_555 1_555
C200 C199 1_555 1_555
C201 C196 1_555 1_555
H185 C201 1_555 1_555
C202 C198 1_555 1_555
F57 C202 1_555 1_555
F58 C202 1_555 1_555
F59 C202 1_555 1_555
C203 C200 1_555 1_555
F60 C203 1_555 1_555
F61 C203 1_555 1_555
F62 C203 1_555 1_555
C204 H186 1_555 1_555
C205 C204 1_555 1_555
H187 C205 1_555 1_555
C206 C205 1_555 1_555
C207 C206 1_555 1_555
H188 C207 1_555 1_555
C208 C207 1_555 1_555
H189 C208 1_555 1_555
C209 C204 1_555 1_555
F63 C206 1_555 1_555
C210 C209 1_555 1_555
H190 C210 1_555 1_555
C211 C210 1_555 1_555
H191 C211 1_555 1_555
H192 C211 1_555 1_555
C212 C211 1_555 1_555
H193 C212 1_555 1_555
H194 C212 1_555 1_555
C213 C212 1_555 1_555
H195 C213 1_555 1_555
H196 C213 1_555 1_555
N20 C210 1_555 1_555
S6 C216 1_555 1_555
O21 C214 1_555 1_555
C214 N20 1_555 1_555
C215 C214 1_555 1_555
H197 C215 1_555 1_555
N21 C215 1_555 1_555
H198 N21 1_555 1_555
C216 N21 1_555 1_555
N22 C216 1_555 1_555
H199 N22 1_555 1_555
C217 N22 1_555 1_555
C218 C217 1_555 1_555
H200 C218 1_555 1_555
C219 C218 1_555 1_555
C220 C219 1_555 1_555
H201 C220 1_555 1_555
C221 C220 1_555 1_555
C222 C217 1_555 1_555
H202 C222 1_555 1_555
C223 C219 1_555 1_555
F64 C223 1_555 1_555
F65 C223 1_555 1_555
F66 C223 1_555 1_555
C224 C221 1_555 1_555
F67 C224 1_555 1_555
F68 C224 1_555 1_555
F69 C224 1_555 1_555
C225 H203 1_555 1_555
H204 C225 1_555 1_555
H205 C225 1_555 1_555
C226 C194 1_555 1_555
H206 C226 1_555 1_555
O22 C226 1_555 1_555
C227 O22 1_555 1_555
C228 C227 1_555 1_555
H207 C228 1_555 1_555
H208 C228 1_555 1_555
C229 C228 1_555 1_555
H209 C229 1_555 1_555
H210 C229 1_555 1_555
C230 C229 1_555 1_555
H211 C230 1_555 1_555
H212 C230 1_555 1_555
C231 C230 1_555 1_555
O23 C231 1_555 1_555
C232 C215 1_555 1_555
H213 C232 1_555 1_555
C233 C232 1_555 1_555
H214 C233 1_555 1_555
H215 C233 1_555 1_555
H216 C233 1_555 1_555
O24 C227 1_555 1_555
O25 C231 1_555 1_555
C5 C6 1_555 1_555
C10 N1 1_555 1_555
C14 N3 1_555 1_555
C18 C19 1_555 1_555
C26 C27 1_555 1_555
C31 N4 1_555 1_555
C32 N4 1_555 1_555
C35 N6 1_555 1_555
C39 C40 1_555 1_555
C45 O3 1_555 1_555
C50 O5 1_555 1_555
C88 C89 1_555 1_555
C93 N8 1_555 1_555
C97 N12 1_555 1_555
C101 C102 1_555 1_555
C109 C110 1_555 1_555
C114 N9 1_555 1_555
C118 N13 1_555 1_555
C122 C123 1_555 1_555
C126 C127 1_555 1_555
O9 C133 1_555 1_555
C187 C188 1_555 1_555
C192 N17 1_555 1_555
C200 C201 1_555 1_555
C208 C209 1_555 1_555
C213 N20 1_555 1_555
C221 C222 1_555 1_555
C225 C226 1_555 1_555
O23 C232 1_555 1_555

#END
