
#######################################################################
#
#                 Cambridge Crystallographic Data Centre
#                                CCDC 
#
#######################################################################
#
# If this CIF has been generated from an entry in the Cambridge 
# Structural Database, then it will include bibliographic, chemical, 
# crystal, experimental, refinement or atomic coordinate data resulting 
# from the CCDC's data processing and validation procedures.
#
#######################################################################

data_DAHQEL
_chemical_formula_moiety         'C11 H19 N1 O4'
_chemical_name_systematic        
't-butyl (4,4-dimethyl-2-oxotetrahydrofuran-3-yl)carbamate'
_symmetry_cell_setting           tetragonal
_symmetry_space_group_name_H-M   'P 43'
_symmetry_Int_Tables_number      78
_space_group_name_Hall           'P 4cw'
loop_
_symmetry_equiv_pos_site_id
_symmetry_equiv_pos_as_xyz
1 x,y,z
2 -x,-y,1/2+z
3 -y,x,3/4+z
4 y,-x,1/4+z
_cell_length_a                   9.7864(3)
_cell_length_b                   9.7864(3)
_cell_length_c                   13.1610(5)
_cell_angle_alpha                90
_cell_angle_beta                 90
_cell_angle_gamma                90
_cell_volume                     1260.48
_exptl_crystal_colour            colorless
_exptl_crystal_description       needle
_cell_formula_units_Z            4
loop_
_atom_site_label
_atom_site_type_symbol
_atom_site_fract_x
_atom_site_fract_y
_atom_site_fract_z
C1 C 0.79580(13) 0.01469(13) 0.65609(10)
C2 C 0.81305(12) 0.16855(13) 0.64865(10)
H1 H 0.8755 0.1972 0.7049
C3 C 0.66954(13) 0.22257(13) 0.67448(10)
C4 C 0.62553(13) 0.11257(14) 0.75020(12)
H2 H 0.6588 0.1348 0.8193
H3 H 0.5247 0.1049 0.7522
N1 N 0.87337(11) 0.21327(11) 0.55502(8)
C5 C 1.00691(12) 0.25162(12) 0.55266(9)
C6 C 0.57644(14) 0.22167(15) 0.58162(12)
H4 H 0.6098 0.2883 0.5318
H5 H 0.4833 0.2459 0.6022
H6 H 0.5764 0.1303 0.5512
C7 C 0.67336(16) 0.36354(14) 0.72270(12)
H7 H 0.7319 0.3613 0.7831
H8 H 0.5806 0.3907 0.7423
H9 H 0.7100 0.4295 0.6738
C8 C 1.18765(12) 0.29525(12) 0.42788(10)
C9 C 1.25979(13) 0.16103(13) 0.44961(11)
H10 H 1.3528 0.1644 0.4222
H11 H 1.2095 0.0860 0.4175
H12 H 1.2636 0.1460 0.5232
C10 C 1.25290(13) 0.41692(13) 0.48123(10)
H13 H 1.2584 0.3987 0.5543
H14 H 1.1973 0.4987 0.4695
H15 H 1.3450 0.4317 0.4542
C11 C 1.17841(13) 0.32053(13) 0.31425(11)
H16 H 1.2703 0.3350 0.2867
H17 H 1.1224 0.4017 0.3016
H18 H 1.1366 0.2412 0.2812
O1 O 0.68645(9) -0.01440(9) 0.71418(8)
O2 O 0.86470(10) -0.07285(9) 0.61783(8)
O3 O 1.04212(8) 0.28180(8) 0.45672(6)
O4 O 1.08028(9) 0.26217(9) 0.62693(7)
H19 H 0.8382(14) 0.1847(13) 0.4967(12)
loop_
_geom_bond_atom_site_label_1
_geom_bond_atom_site_label_2
_geom_bond_site_symmetry_1
_geom_bond_site_symmetry_2
C1 C2 1_555 1_555
C2 H1 1_555 1_555
C3 C2 1_555 1_555
C4 C3 1_555 1_555
H2 C4 1_555 1_555
H3 C4 1_555 1_555
N1 C2 1_555 1_555
C5 N1 1_555 1_555
C6 C3 1_555 1_555
H4 C6 1_555 1_555
H5 C6 1_555 1_555
H6 C6 1_555 1_555
C7 C3 1_555 1_555
H7 C7 1_555 1_555
H8 C7 1_555 1_555
H9 C7 1_555 1_555
C8 C9 1_555 1_555
C9 H10 1_555 1_555
H11 C9 1_555 1_555
H12 C9 1_555 1_555
C10 C8 1_555 1_555
H13 C10 1_555 1_555
H14 C10 1_555 1_555
H15 C10 1_555 1_555
C11 C8 1_555 1_555
H16 C11 1_555 1_555
H17 C11 1_555 1_555
H18 C11 1_555 1_555
O1 C1 1_555 1_555
O2 C1 1_555 1_555
O3 C5 1_555 1_555
O4 C5 1_555 1_555
H19 N1 1_555 1_555
C4 O1 1_555 1_555
C8 O3 1_555 1_555

#END
