
#######################################################################
#
#                 Cambridge Crystallographic Data Centre
#                                CCDC 
#
#######################################################################
#
# If this CIF has been generated from an entry in the Cambridge 
# Structural Database, then it will include bibliographic, chemical, 
# crystal, experimental, refinement or atomic coordinate data resulting 
# from the CCDC's data processing and validation procedures.
#
#######################################################################

data_DAHRAI01
_chemical_formula_moiety         'C17 H21 F6 N3 O2'
_chemical_name_systematic        
N^2^-((3,5-bis(trifluoromethyl)phenyl)carbamoyl)-N,N,3-trimethylvalinamide
_symmetry_cell_setting           monoclinic
_symmetry_space_group_name_H-M   'P 21'
_symmetry_Int_Tables_number      4
_space_group_name_Hall           'P 2yb'
loop_
_symmetry_equiv_pos_site_id
_symmetry_equiv_pos_as_xyz
1 x,y,z
2 -x,1/2+y,-z
_cell_length_a                   14.5322(4)
_cell_length_b                   7.4157(2)
_cell_length_c                   18.1873(5)
_cell_angle_alpha                90
_cell_angle_beta                 102.484(2)
_cell_angle_gamma                90
_cell_volume                     1913.64
_exptl_crystal_colour            colorless
_exptl_crystal_description       block
_cell_formula_units_Z            4
loop_
_atom_site_label
_atom_site_type_symbol
_atom_site_fract_x
_atom_site_fract_y
_atom_site_fract_z
C1 C 0.40154(18) 0.5691(4) 0.24629(14)
H1 H 0.4359 0.5816 0.2968
C2 C 0.44836(19) 0.5737(4) 0.18692(16)
C3 C 0.40036(19) 0.5563(4) 0.11245(15)
H2 H 0.4331 0.5584 0.0726
C4 C 0.30350(19) 0.5360(4) 0.09799(14)
C5 C 0.25551(18) 0.5309(4) 0.15636(14)
H3 H 0.1890 0.5168 0.1453
C6 C 0.30426(18) 0.5463(4) 0.23097(14)
C7 C 0.28567(19) 0.4646(4) 0.35816(14)
C8 C 0.24270(19) 0.3247(4) 0.46584(14)
H4 H 0.3056 0.3658 0.4950
C9 C 0.2533(2) 0.1305(4) 0.44120(14)
C10 C 0.3359(3) -0.1557(4) 0.45252(19)
H5 H 0.3802 -0.1684 0.4191
H6 H 0.2736 -0.1987 0.4266
H7 H 0.3582 -0.2271 0.4982
C11 C 0.4131(2) 0.1095(5) 0.52446(17)
H8 H 0.4018 0.1140 0.5756
H9 H 0.4259 0.2314 0.5084
H10 H 0.4674 0.0317 0.5237
C12 C 0.5535(2) 0.5845(4) 0.20406(16)
C13 C 0.2480(2) 0.5141(4) 0.01904(15)
C14 C 0.1707(2) 0.3451(5) 0.51756(15)
C15 C 0.0703(2) 0.3009(6) 0.47800(17)
H11 H 0.0683 0.1802 0.4558
H12 H 0.0482 0.3897 0.4382
H13 H 0.0296 0.3043 0.5145
C16 C 0.2012(2) 0.2238(6) 0.58640(17)
H14 H 0.2658 0.2540 0.6120
H15 H 0.1984 0.0974 0.5704
H16 H 0.1588 0.2422 0.6210
C17 C 0.1740(2) 0.5429(5) 0.54438(18)
H17 H 0.1543 0.6225 0.5008
H18 H 0.2384 0.5734 0.5704
H19 H 0.1314 0.5583 0.5790
N1 N 0.25258(15) 0.5369(4) 0.28755(12)
H20 H 0.1949 0.5803 0.2773
N2 N 0.21760(16) 0.4372(4) 0.39796(13)
H21 H 0.1611 0.4847 0.3837
N3 N 0.32965(17) 0.0368(3) 0.47309(12)
O1 O 0.36892(13) 0.4312(3) 0.38424(10)
O2 O 0.18973(15) 0.0653(3) 0.39084(10)
F1 F 0.58833(13) 0.6717(4) 0.26881(11)
F2 F 0.59300(14) 0.4231(3) 0.21176(16)
F3 F 0.58689(13) 0.6716(3) 0.15182(10)
F4 F 0.29923(12) 0.5447(3) -0.03238(9)
F5 F 0.21137(14) 0.3484(3) 0.00546(9)
F6 F 0.17447(13) 0.6288(3) 0.00352(10)
C18 C 0.69892(18) 0.5369(4) 0.85761(14)
H22 H 0.7531 0.5228 0.8971
C19 C 0.60892(19) 0.5386(4) 0.87307(14)
C20 C 0.52867(19) 0.5562(4) 0.81676(15)
H23 H 0.4679 0.5581 0.8282
C21 C 0.53947(18) 0.5708(4) 0.74312(14)
C22 C 0.62773(18) 0.5716(4) 0.72616(14)
H24 H 0.6334 0.5828 0.6753
C23 C 0.70816(18) 0.5562(4) 0.78310(13)
C24 C 0.87746(18) 0.6329(4) 0.80776(14)
C25 C 1.02796(18) 0.7681(4) 0.81127(15)
H25 H 1.0451 0.7276 0.8649
C26 C 0.99306(18) 0.9628(4) 0.81060(14)
C27 C 0.9845(2) 1.2519(4) 0.87046(19)
H26 H 0.9249 1.2650 0.8869
H27 H 0.9768 1.2964 0.8187
H28 H 1.0337 1.3218 0.9038
C28 C 1.0533(2) 0.9916(4) 0.94882(15)
H29 H 1.1221 0.9872 0.9556
H30 H 1.0292 0.8700 0.9542
H31 H 1.0365 1.0711 0.9869
C29 C 0.5995(2) 0.5283(4) 0.95370(15)
C30 C 0.4544(2) 0.5926(4) 0.68000(16)
C31 C 1.1170(2) 0.7494(4) 0.77777(16)
C32 C 1.1959(2) 0.8629(5) 0.82468(18)
H32 H 1.2067 0.8252 0.8775
H33 H 1.1778 0.9904 0.8206
H34 H 1.2537 0.8460 0.8061
C33 C 1.1483(2) 0.5504(5) 0.78334(18)
H35 H 1.1002 0.4765 0.7508
H36 H 1.1565 0.5093 0.8356
H37 H 1.2082 0.5387 0.7672
C34 C 1.1000(2) 0.8073(6) 0.69555(17)
H38 H 1.0756 0.9309 0.6905
H39 H 1.0541 0.7261 0.6648
H40 H 1.1595 0.8022 0.6785
N4 N 0.79644(15) 0.5603(3) 0.76352(12)
H41 H 0.8005 0.5132 0.7199
N5 N 0.94946(16) 0.6563(3) 0.77246(12)
H42 H 0.9491 0.6067 0.7284
N6 N 1.01164(16) 1.0613(3) 0.87335(12)
O3 O 0.88391(13) 0.6720(3) 0.87426(10)
O4 O 0.94743(13) 1.0261(3) 0.74996(10)
F7 F 0.67286(14) 0.4484(3) 0.99815(10)
F8 F 0.59287(17) 0.6904(3) 0.98282(10)
F9 F 0.52363(14) 0.4367(3) 0.96132(10)
F10 F 0.37315(11) 0.5679(3) 0.70110(10)
F11 F 0.45007(13) 0.7570(3) 0.64850(11)
F12 F 0.45528(13) 0.4750(3) 0.62344(10)
loop_
_geom_bond_atom_site_label_1
_geom_bond_atom_site_label_2
_geom_bond_site_symmetry_1
_geom_bond_site_symmetry_2
C1 H1 1_555 1_555
C2 C1 1_555 1_555
C3 C2 1_555 1_555
H2 C3 1_555 1_555
C4 C3 1_555 1_555
C5 C4 1_555 1_555
H3 C5 1_555 1_555
C6 C1 1_555 1_555
C7 N1 1_555 1_555
C8 H4 1_555 1_555
C9 C8 1_555 1_555
C10 H5 1_555 1_555
H6 C10 1_555 1_555
H7 C10 1_555 1_555
C11 H8 1_555 1_555
H9 C11 1_555 1_555
H10 C11 1_555 1_555
C12 C2 1_555 1_555
C13 C4 1_555 1_555
C14 C8 1_555 1_555
C15 C14 1_555 1_555
H11 C15 1_555 1_555
H12 C15 1_555 1_555
H13 C15 1_555 1_555
C16 C14 1_555 1_555
H14 C16 1_555 1_555
H15 C16 1_555 1_555
H16 C16 1_555 1_555
C17 C14 1_555 1_555
H17 C17 1_555 1_555
H18 C17 1_555 1_555
H19 C17 1_555 1_555
N1 C6 1_555 1_555
H20 N1 1_555 1_555
N2 C7 1_555 1_555
H21 N2 1_555 1_555
N3 C9 1_555 1_555
O1 C7 1_555 1_555
O2 C9 1_555 1_555
F1 C12 1_555 1_555
F2 C12 1_555 1_555
F3 C12 1_555 1_555
F4 C13 1_555 1_555
F5 C13 1_555 1_555
F6 C13 1_555 1_555
C18 H22 1_555 1_555
C19 C18 1_555 1_555
C20 C19 1_555 1_555
H23 C20 1_555 1_555
C21 C20 1_555 1_555
C22 C21 1_555 1_555
H24 C22 1_555 1_555
C23 C18 1_555 1_555
C24 N4 1_555 1_555
C25 H25 1_555 1_555
C26 C25 1_555 1_555
C27 H26 1_555 1_555
H27 C27 1_555 1_555
H28 C27 1_555 1_555
C28 H29 1_555 1_555
H30 C28 1_555 1_555
H31 C28 1_555 1_555
C29 C19 1_555 1_555
C30 C21 1_555 1_555
C31 C25 1_555 1_555
C32 C31 1_555 1_555
H32 C32 1_555 1_555
H33 C32 1_555 1_555
H34 C32 1_555 1_555
C33 C31 1_555 1_555
H35 C33 1_555 1_555
H36 C33 1_555 1_555
H37 C33 1_555 1_555
C34 C31 1_555 1_555
H38 C34 1_555 1_555
H39 C34 1_555 1_555
H40 C34 1_555 1_555
N4 C23 1_555 1_555
H41 N4 1_555 1_555
N5 C24 1_555 1_555
H42 N5 1_555 1_555
N6 C26 1_555 1_555
O3 C24 1_555 1_555
O4 C26 1_555 1_555
F7 C29 1_555 1_555
F8 C29 1_555 1_555
F9 C29 1_555 1_555
F10 C30 1_555 1_555
F11 C30 1_555 1_555
F12 C30 1_555 1_555
C5 C6 1_555 1_555
C8 N2 1_555 1_555
C10 N3 1_555 1_555
C11 N3 1_555 1_555
C22 C23 1_555 1_555
C25 N5 1_555 1_555
C27 N6 1_555 1_555
C28 N6 1_555 1_555

#END
