
#######################################################################
#
#                 Cambridge Crystallographic Data Centre
#                                CCDC 
#
#######################################################################
#
# If this CIF has been generated from an entry in the Cambridge 
# Structural Database, then it will include bibliographic, chemical, 
# crystal, experimental, refinement or atomic coordinate data resulting 
# from the CCDC's data processing and validation procedures.
#
#######################################################################

data_DAHVEQ
_chemical_formula_moiety         'C25 H20 N4 2+,2(H2 O1),2(Cl1 1-)'
_chemical_name_systematic        
"1-methyl-1'-{4-[4-(1-methyl-1H-imidazol-2-yl)buta-1,3-diyn-1-yl]phenyl}-4,4'-bipyridin-1-ium bis(chloride) dihydrate"
_symmetry_cell_setting           triclinic
_symmetry_space_group_name_H-M   'P -1'
_symmetry_Int_Tables_number      2
_space_group_name_Hall           '-P 1'
loop_
_symmetry_equiv_pos_site_id
_symmetry_equiv_pos_as_xyz
1 x,y,z
2 -x,-y,-z
_cell_length_a                   6.5319(8)
_cell_length_b                   11.4480(10)
_cell_length_c                   16.5428(13)
_cell_angle_alpha                75.624(7)
_cell_angle_beta                 83.288(9)
_cell_angle_gamma                87.885(9)
_cell_volume                     1190.04
_exptl_crystal_colour            'intense bronze'
_exptl_crystal_description       plate
_cell_formula_units_Z            2
loop_
_atom_site_label
_atom_site_type_symbol
_atom_site_fract_x
_atom_site_fract_y
_atom_site_fract_z
Cl1 Cl 0.02972(11) 0.14852(6) 0.31198(5)
H1 H 0.257(8) 0.121(6) 0.613(3)
O1 O 0.3248(4) 0.0422(3) 0.61927(19)
H2 H 0.205(10) -0.004(6) 0.636(4)
Cl2 Cl 0.16142(11) 0.30487(6) 0.58657(5)
O2 O 0.5932(5) 0.0142(3) 0.7452(2)
H3 H 0.697(8) -0.025(5) 0.715(3)
H4 H 0.500(7) 0.015(6) 0.715(3)
N1 N 0.6823(4) 0.2183(3) 0.47641(18)
C1 C 0.8038(6) 0.1196(3) 0.5260(2)
H5 H 0.8483 0.0635 0.4929
H6 H 0.7196 0.0787 0.5758
H7 H 0.9220 0.1528 0.5414
C2 C -0.0998(6) 0.7636(4) 0.1222(2)
H8 H -0.0986 0.6888 0.1096
C3 C 0.2874(6) 0.7073(3) 0.2655(2)
H9 H 0.3329 0.7865 0.2522
C4 C 0.4146(6) 0.2801(3) 0.3900(2)
H10 H 0.3087 0.2599 0.3631
C5 C -0.5020(6) 1.5043(3) -0.1213(2)
C6 C -0.1105(6) 0.9848(4) 0.1642(3)
H11 H -0.1166 1.0584 0.1787
C7 C -0.3355(6) 1.1761(4) 0.0024(3)
C8 C -0.0156(6) 0.8875(3) 0.2127(2)
H12 H 0.0415 0.8949 0.2601
C9 C -0.4404(6) 1.3878(4) -0.0788(2)
C10 C -0.3915(6) 1.2884(4) -0.0410(2)
C11 C -0.1943(6) 0.8616(4) 0.0740(2)
H13 H -0.2563 0.8531 0.0280
C12 C -0.1936(6) 1.6099(4) -0.0940(3)
H14 H -0.0987 1.5520 -0.1108
H15 H -0.2167 1.5918 -0.0338
H16 H -0.1371 1.6893 -0.1151
C13 C -0.4959(6) 1.7001(3) -0.1710(2)
H17 H -0.4593 1.7809 -0.1851
C14 C -0.2830(6) 1.0793(4) 0.0418(3)
C15 C 0.7268(5) 0.3329(3) 0.4717(2)
H18 H 0.8322 0.3504 0.5000
C16 C -0.0055(6) 0.7792(3) 0.1907(2)
C17 C -0.1980(6) 0.9735(4) 0.0932(2)
C18 C 0.3999(6) 0.6168(3) 0.3131(2)
H19 H 0.5200 0.6359 0.3320
C19 C 0.6169(5) 0.4253(3) 0.4251(2)
H20 H 0.6495 0.5050 0.4215
C20 C 0.5303(6) 0.1913(3) 0.4366(2)
H21 H 0.5023 0.1109 0.4405
N2 N -0.3879(5) 1.6047(3) -0.12770(19)
C21 C 0.1546(5) 0.4743(3) 0.3024(2)
H22 H 0.1088 0.3954 0.3133
C22 C 0.3362(5) 0.4982(3) 0.3330(2)
N3 N -0.6740(5) 1.5301(3) -0.15867(19)
C23 C 0.4568(5) 0.3998(3) 0.3833(2)
C24 C -0.6687(6) 1.6523(3) -0.1895(2)
H23 H -0.7695 1.6973 -0.2192
N4 N 0.1117(5) 0.6811(3) 0.23841(18)
C25 C 0.0437(6) 0.5671(3) 0.2563(2)
H24 H -0.0783 0.5507 0.2375
loop_
_geom_bond_atom_site_label_1
_geom_bond_atom_site_label_2
_geom_bond_site_symmetry_1
_geom_bond_site_symmetry_2
H1 O1 1_555 1_555
O1 H2 1_555 1_555
O2 H3 1_555 1_555
H4 O2 1_555 1_555
N1 C1 1_555 1_555
C1 H5 1_555 1_555
H6 C1 1_555 1_555
H7 C1 1_555 1_555
C2 H8 1_555 1_555
C3 H9 1_555 1_555
C4 H10 1_555 1_555
C5 C9 1_555 1_555
C6 H11 1_555 1_555
C7 C10 1_555 1_555
C8 C6 1_555 1_555
H12 C8 1_555 1_555
C9 C10 1_555 1_555
C11 C2 1_555 1_555
H13 C11 1_555 1_555
C12 H14 1_555 1_555
H15 C12 1_555 1_555
H16 C12 1_555 1_555
C13 H17 1_555 1_555
C14 C7 1_555 1_555
C15 N1 1_555 1_555
H18 C15 1_555 1_555
C16 C2 1_555 1_555
C17 C6 1_555 1_555
C18 C3 1_555 1_555
H19 C18 1_555 1_555
C19 C15 1_555 1_555
H20 C19 1_555 1_555
C20 N1 1_555 1_555
H21 C20 1_555 1_555
N2 C5 1_555 1_555
C21 H22 1_555 1_555
C22 C18 1_555 1_555
N3 C5 1_555 1_555
C23 C4 1_555 1_555
C24 C13 1_555 1_555
H23 C24 1_555 1_555
N4 C3 1_555 1_555
C25 C21 1_555 1_555
H24 C25 1_555 1_555
C4 C20 1_555 1_555
C8 C16 1_555 1_555
C11 C17 1_555 1_555
C12 N2 1_555 1_555
C13 N2 1_555 1_555
C14 C17 1_555 1_555
C16 N4 1_555 1_555
C19 C23 1_555 1_555
C21 C22 1_555 1_555
C22 C23 1_555 1_555
N3 C24 1_555 1_555
N4 C25 1_555 1_555

#END
