
#######################################################################
#
#                 Cambridge Crystallographic Data Centre
#                                CCDC 
#
#######################################################################
#
# If this CIF has been generated from an entry in the Cambridge 
# Structural Database, then it will include bibliographic, chemical, 
# crystal, experimental, refinement or atomic coordinate data resulting 
# from the CCDC's data processing and validation procedures.
#
#######################################################################

data_DAHWIS
_chemical_formula_moiety         'C19 H22 O1'
_chemical_name_systematic        
5,8-Carbonyl-5-methyl-7-phenylbicyclo(6.3.0)undec-2-ene
_symmetry_cell_setting           monoclinic
_symmetry_space_group_name_H-M   'P 21/c'
_symmetry_Int_Tables_number      14
_space_group_name_Hall           '-P 2ybc'
loop_
_symmetry_equiv_pos_site_id
_symmetry_equiv_pos_as_xyz
1 x,y,z
2 -x,1/2+y,1/2-z
3 -x,-y,-z
4 x,1/2-y,1/2+z
_cell_length_a                   14.637(3)
_cell_length_b                   8.396(2)
_cell_length_c                   24.175(7)
_cell_angle_alpha                90
_cell_angle_beta                 92.18(2)
_cell_angle_gamma                90
_cell_volume                     2968.77
_chemical_melting_point          96-97deg.C
_cell_formula_units_Z            8
loop_
_atom_site_label
_atom_site_type_symbol
_atom_site_fract_x
_atom_site_fract_y
_atom_site_fract_z
O1 O 0.6298(1) 0.1019(2) 0.50030(6)
C1 C 0.6788(1) 0.0401(3) 0.59443(9)
C2 C 0.6166(2) 0.0505(3) 0.64509(9)
C3 C 0.5546(2) 0.1985(3) 0.6336(1)
C4 C 0.5694(2) 0.2581(3) 0.5749(1)
C5 C 0.6277(2) 0.4114(3) 0.5760(1)
C6 C 0.7103(2) 0.4136(3) 0.6142(1)
C7 C 0.7683(2) 0.2984(3) 0.6264(1)
C8 C 0.7703(2) 0.1337(3) 0.6041(1)
C9 C 0.8298(2) 0.0159(3) 0.6368(1)
C10 C 0.7996(2) -0.1471(4) 0.6168(1)
C11 C 0.7150(2) -0.1239(3) 0.5801(1)
C12 C 0.6253(1) 0.1266(3) 0.54921(9)
C13 C 0.4816(2) 0.2884(3) 0.5411(1)
C14 C 0.5610(1) -0.0980(3) 0.65421(9)
C15 C 0.5721(2) -0.1883(3) 0.7018(1)
C16 C 0.5187(2) -0.3218(3) 0.7103(1)
C17 C 0.4533(2) -0.3664(3) 0.6710(1)
C18 C 0.4419(2) -0.2798(3) 0.6233(1)
C19 C 0.4948(2) -0.1469(3) 0.61501(9)
H1 H 0.6527 0.0602 0.6784
H2 H 0.5702 0.2801 0.6595
H3 H 0.4923 0.1695 0.6371
H4 H 0.5892 0.4968 0.5862
H5 H 0.6476 0.4286 0.5395
H6 H 0.7225 0.5122 0.6323
H7 H 0.8154 0.3239 0.6531
H8 H 0.7938 0.1639 0.5695
H9 H 0.8206 0.0265 0.6753
H10 H 0.8925 0.0326 0.6298
H11 H 0.7861 -0.2129 0.6473
H12 H 0.8464 -0.1950 0.5962
H13 H 0.7298 -0.1282 0.5422
H14 H 0.6709 -0.2034 0.5873
H15 H 0.4959 0.3250 0.5053
H16 H 0.4475 0.1923 0.5379
H17 H 0.4465 0.3668 0.5591
H18 H 0.6171 -0.1580 0.7292
H19 H 0.5273 -0.3826 0.7433
H20 H 0.4161 -0.4572 0.6770
H21 H 0.3973 -0.3115 0.5957
H22 H 0.4858 -0.0873 0.5817
O2 O 1.0386(1) 0.0378(2) 0.86107(8)
C20 C 0.8952(2) -0.0539(3) 0.89518(9)
C21 C 0.8027(1) -0.0478(3) 0.86110(9)
C22 C 0.8085(2) 0.1030(3) 0.8242(1)
C23 C 0.9012(2) 0.1831(3) 0.8357(1)
C24 C 0.8946(2) 0.3216(3) 0.8776(1)
C25 C 0.8327(2) 0.2981(3) 0.9246(1)
C26 C 0.8288(2) 0.1724(3) 0.9564(1)
C27 C 0.8846(2) 0.0236(3) 0.9537(1)
C28 C 0.8510(2) -0.1137(4) 0.9880(1)
C29 C 0.8958(3) -0.2602(4) 0.9666(1)
C30 C 0.9352(2) -0.2157(3) 0.9110(1)
C31 C 0.9568(2) 0.0517(3) 0.8634(1)
C32 C 0.9464(2) 0.2426(3) 0.7841(1)
C33 C 0.7813(1) -0.1969(3) 0.82865(9)
C34 C 0.7148(2) -0.3010(3) 0.8448(1)
C35 C 0.6943(2) -0.4390(3) 0.8151(1)
C36 C 0.7408(2) -0.4745(3) 0.7690(1)
C37 C 0.8080(2) -0.3745(3) 0.7523(1)
C38 C 0.8276(2) -0.2376(3) 0.7818(1)
H23 H 0.7527 -0.0416 0.8850
H24 H 0.7608 0.1746 0.8326
H25 H 0.8026 0.0733 0.7863
H26 H 0.8738 0.4131 0.8576
H27 H 0.9542 0.3405 0.8929
H28 H 0.7919 0.3829 0.9321
H29 H 0.7852 0.1761 0.9845
H30 H 0.9411 0.0669 0.9673
H31 H 0.7863 -0.1226 0.9837
H32 H 0.8676 -0.0980 1.0259
H33 H 0.8522 -0.3432 0.9617
H34 H 0.9434 -0.2937 0.9917
H35 H 0.9999 -0.2092 0.9145
H36 H 0.9181 -0.2927 0.8838
H37 H 1.0032 0.2907 0.7943
H38 H 0.9562 0.1556 0.7600
H39 H 0.9078 0.3187 0.7659
H40 H 0.6821 -0.2781 0.8771
H41 H 0.6476 -0.5086 0.8269
H42 H 0.7265 -0.5686 0.7485
H43 H 0.8410 -0.3993 0.7202
H44 H 0.8744 -0.1690 0.7695
loop_
_geom_bond_atom_site_label_1
_geom_bond_atom_site_label_2
_geom_bond_site_symmetry_1
_geom_bond_site_symmetry_2
O1 C12 1_555 1_555
C1 C2 1_555 1_555
C2 C3 1_555 1_555
C3 C4 1_555 1_555
C4 C5 1_555 1_555
C5 C6 1_555 1_555
C6 C7 1_555 1_555
C7 C8 1_555 1_555
C8 C1 1_555 1_555
C9 C8 1_555 1_555
C10 C9 1_555 1_555
C11 C1 1_555 1_555
C12 C1 1_555 1_555
C13 C4 1_555 1_555
C14 C2 1_555 1_555
C15 C14 1_555 1_555
C16 C15 1_555 1_555
C17 C16 1_555 1_555
C18 C17 1_555 1_555
C19 C14 1_555 1_555
O2 C31 1_555 1_555
C20 C21 1_555 1_555
C21 C22 1_555 1_555
C22 C23 1_555 1_555
C23 C24 1_555 1_555
C24 C25 1_555 1_555
C25 C26 1_555 1_555
C26 C27 1_555 1_555
C27 C20 1_555 1_555
C28 C27 1_555 1_555
C29 C28 1_555 1_555
C30 C20 1_555 1_555
C31 C20 1_555 1_555
C32 C23 1_555 1_555
C33 C21 1_555 1_555
C34 C33 1_555 1_555
C35 C34 1_555 1_555
C36 C35 1_555 1_555
C37 C36 1_555 1_555
C38 C33 1_555 1_555
H1 C2 1_555 1_555
H2 C3 1_555 1_555
H3 C3 1_555 1_555
H4 C5 1_555 1_555
H5 C5 1_555 1_555
H6 C6 1_555 1_555
H7 C7 1_555 1_555
H8 C8 1_555 1_555
H9 C9 1_555 1_555
H10 C9 1_555 1_555
H11 C10 1_555 1_555
H12 C10 1_555 1_555
H13 C11 1_555 1_555
H14 C11 1_555 1_555
H15 C13 1_555 1_555
H16 C13 1_555 1_555
H17 C13 1_555 1_555
H18 C15 1_555 1_555
H19 C16 1_555 1_555
H20 C17 1_555 1_555
H21 C18 1_555 1_555
H22 C19 1_555 1_555
H23 C21 1_555 1_555
H24 C22 1_555 1_555
H25 C22 1_555 1_555
H26 C24 1_555 1_555
H27 C24 1_555 1_555
H28 C25 1_555 1_555
H29 C26 1_555 1_555
H30 C27 1_555 1_555
H31 C28 1_555 1_555
H32 C28 1_555 1_555
H33 C29 1_555 1_555
H34 C29 1_555 1_555
H35 C30 1_555 1_555
H36 C30 1_555 1_555
H37 C32 1_555 1_555
H38 C32 1_555 1_555
H39 C32 1_555 1_555
H40 C34 1_555 1_555
H41 C35 1_555 1_555
H42 C36 1_555 1_555
H43 C37 1_555 1_555
H44 C38 1_555 1_555
C4 C12 1_555 1_555
C10 C11 1_555 1_555
C18 C19 1_555 1_555
C23 C31 1_555 1_555
C29 C30 1_555 1_555
C37 C38 1_555 1_555

#END
