
#######################################################################
#
#                 Cambridge Crystallographic Data Centre
#                                CCDC 
#
#######################################################################
#
# If this CIF has been generated from an entry in the Cambridge 
# Structural Database, then it will include bibliographic, chemical, 
# crystal, experimental, refinement or atomic coordinate data resulting 
# from the CCDC's data processing and validation procedures.
#
#######################################################################

data_DAHXES
_chemical_formula_moiety         'C12 H11 F3 N2 O1'
_chemical_name_systematic        
N-(4-(1-cyano-3,3,3-trifluoropropyl)phenyl)acetamide
_symmetry_cell_setting           orthorhombic
_symmetry_space_group_name_H-M   'P 21 21 21'
_symmetry_Int_Tables_number      19
_space_group_name_Hall           'P 2ac 2ab'
loop_
_symmetry_equiv_pos_site_id
_symmetry_equiv_pos_as_xyz
1 x,y,z
2 1/2+x,1/2-y,-z
3 -x,1/2+y,1/2-z
4 1/2-x,-y,1/2+z
_cell_length_a                   7.0768(6)
_cell_length_b                   8.7410(6)
_cell_length_c                   19.9486(13)
_cell_angle_alpha                90
_cell_angle_beta                 90
_cell_angle_gamma                90
_cell_volume                     1233.99
_exptl_crystal_colour            colorless
_exptl_crystal_description       block
_cell_formula_units_Z            4
loop_
_atom_site_label
_atom_site_type_symbol
_atom_site_fract_x
_atom_site_fract_y
_atom_site_fract_z
F1 F 0.3204(6) 0.4562(3) 0.28953(10)
F2 F 0.4609(4) 0.2998(3) 0.22449(13)
F3 F 0.1622(4) 0.3096(3) 0.22597(13)
O1 O 0.2041(6) 1.3246(2) 0.04149(12)
N1 N 0.2212(4) 1.1056(3) -0.01794(11)
H1 H 0.2304 1.0714 -0.0582
N2 N -0.1743(5) 0.5152(4) 0.16186(14)
C1 C 0.3164(6) 0.3974(3) 0.22927(14)
C2 C 0.3213(5) 0.5149(3) 0.17455(14)
H2 H 0.3139 0.4631 0.1316
H3 H 0.4414 0.5682 0.1764
C3 C 0.1614(4) 0.6325(3) 0.17879(12)
H4 H 0.1660 0.6798 0.2233
C4 C -0.0266(5) 0.5639(3) 0.17009(12)
C5 C 0.1841(4) 0.7587(3) 0.12680(11)
C6 C 0.1773(6) 0.7273(3) 0.05864(13)
H5 H 0.1628 0.6267 0.0443
C7 C 0.1918(6) 0.8423(3) 0.01211(13)
H6 H 0.1881 0.8189 -0.0334
C8 C 0.2118(4) 0.9937(3) 0.03254(12)
C9 C 0.2204(5) 1.0257(3) 0.10031(13)
H7 H 0.2365 1.1260 0.1147
C10 C 0.2051(5) 0.9092(3) 0.14665(12)
H8 H 0.2091 0.9324 0.1921
C11 C 0.2176(5) 1.2607(3) -0.01179(15)
C12 C 0.2271(6) 1.3457(4) -0.07688(17)
H9 H 0.1426 1.4316 -0.0754
H10 H 0.1908 1.2789 -0.1128
H11 H 0.3538 1.3812 -0.0842
loop_
_geom_bond_atom_site_label_1
_geom_bond_atom_site_label_2
_geom_bond_site_symmetry_1
_geom_bond_site_symmetry_2
F1 C1 1_555 1_555
F2 C1 1_555 1_555
F3 C1 1_555 1_555
O1 C11 1_555 1_555
N1 H1 1_555 1_555
N2 C4 1_555 1_555
C1 C2 1_555 1_555
C2 H2 1_555 1_555
H3 C2 1_555 1_555
C3 C2 1_555 1_555
H4 C3 1_555 1_555
C4 C3 1_555 1_555
C5 C3 1_555 1_555
C6 C5 1_555 1_555
H5 C6 1_555 1_555
C7 C6 1_555 1_555
H6 C7 1_555 1_555
C8 N1 1_555 1_555
C9 C8 1_555 1_555
H7 C9 1_555 1_555
C10 C5 1_555 1_555
H8 C10 1_555 1_555
C11 N1 1_555 1_555
C12 C11 1_555 1_555
H9 C12 1_555 1_555
H10 C12 1_555 1_555
H11 C12 1_555 1_555
C7 C8 1_555 1_555
C9 C10 1_555 1_555

#END
