
#######################################################################
#
#                 Cambridge Crystallographic Data Centre
#                                CCDC 
#
#######################################################################
#
# If this CIF has been generated from an entry in the Cambridge 
# Structural Database, then it will include bibliographic, chemical, 
# crystal, experimental, refinement or atomic coordinate data resulting 
# from the CCDC's data processing and validation procedures.
#
#######################################################################

data_DAHYAP
_chemical_formula_moiety         'C10 H11 B1 Cl1 N1'
_chemical_name_systematic        
4-chloro-1,3-dimethyl-1,4-dihydro-1,4-benzazaborinine
_symmetry_cell_setting           triclinic
_symmetry_space_group_name_H-M   'P -1'
_symmetry_Int_Tables_number      2
_space_group_name_Hall           '-P 1'
loop_
_symmetry_equiv_pos_site_id
_symmetry_equiv_pos_as_xyz
1 x,y,z
2 -x,-y,-z
_cell_length_a                   7.6350(13)
_cell_length_b                   9.2691(16)
_cell_length_c                   14.887(3)
_cell_angle_alpha                89.640(3)
_cell_angle_beta                 79.774(3)
_cell_angle_gamma                70.461(3)
_cell_volume                     975.503
_exptl_crystal_colour            colorless
_exptl_crystal_description       block
_cell_formula_units_Z            4
loop_
_atom_site_label
_atom_site_type_symbol
_atom_site_fract_x
_atom_site_fract_y
_atom_site_fract_z
Cl1 Cl 0.87382(8) 0.34096(6) 0.35802(4)
N1 N 0.6865(2) 0.04834(18) 0.58260(11)
B1 B 0.7989(3) 0.2277(2) 0.44606(15)
C1 C 0.6726(3) 0.1957(2) 0.60273(14)
C2 C 0.7207(3) 0.2927(2) 0.54198(13)
C3 C 0.8142(2) 0.0641(2) 0.42313(13)
C4 C 0.7526(2) -0.0187(2) 0.49476(13)
C5 C 0.7567(3) -0.1687(2) 0.47595(17)
C6 C 0.8215(3) -0.2338(3) 0.38861(19)
C7 C 0.8858(3) -0.1558(3) 0.31792(18)
C8 C 0.8826(3) -0.0094(2) 0.33505(15)
C9 C 0.6269(4) -0.0384(3) 0.65760(17)
C10 C 0.6951(4) 0.4526(3) 0.57547(17)
H1 H 0.617(3) 0.233(3) 0.6652(16)
H2 H 0.711(3) -0.221(3) 0.5241(17)
H3 H 0.821(4) -0.324(3) 0.380(2)
H4 H 0.932(3) -0.194(3) 0.2542(17)
H5 H 0.921(3) 0.051(2) 0.2889(14)
H6 H 0.512(3) -0.068(3) 0.6442(16)
H7 H 0.586(4) 0.028(3) 0.713(2)
H8 H 0.734(4) -0.131(3) 0.6594(18)
H9 H 0.815(4) 0.470(3) 0.5694(19)
H10 H 0.628(4) 0.470(3) 0.633(2)
H11 H 0.623(4) 0.531(3) 0.5400(17)
Cl2 Cl 0.28078(7) 0.88297(5) 0.12584(4)
N2 N 0.2519(2) 0.52601(18) -0.08135(11)
B2 B 0.2689(3) 0.7444(2) 0.04444(15)
C11 C 0.2590(3) 0.6652(2) -0.10841(14)
C12 C 0.2645(3) 0.7800(2) -0.05320(14)
C13 C 0.2612(2) 0.5898(2) 0.07441(12)
C14 C 0.2489(2) 0.4860(2) 0.00830(13)
C15 C 0.2323(3) 0.3440(2) 0.03511(16)
C16 C 0.2292(3) 0.3058(2) 0.12356(16)
C17 C 0.2466(3) 0.4041(2) 0.18985(16)
C18 C 0.2620(3) 0.5422(2) 0.16499(14)
C19 C 0.2461(3) 0.4169(3) -0.15100(17)
C20 C 0.2714(4) 0.9273(3) -0.09360(19)
H12 H 0.254(3) 0.680(2) -0.1750(17)
H13 H 0.222(3) 0.279(3) -0.0121(16)
H14 H 0.210(3) 0.218(3) 0.1432(16)
H15 H 0.240(3) 0.378(3) 0.2572(16)
H16 H 0.266(2) 0.611(2) 0.2122(13)
H17 H 0.124(4) 0.400(3) -0.1341(18)
H18 H 0.347(4) 0.322(3) -0.1515(16)
H19 H 0.262(3) 0.469(3) -0.2113(18)
H20 H 0.376(4) 0.948(3) -0.0860(18)
H21 H 0.161(5) 1.017(4) -0.077(2)
H22 H 0.266(4) 0.930(3) -0.158(2)
loop_
_geom_bond_atom_site_label_1
_geom_bond_atom_site_label_2
_geom_bond_site_symmetry_1
_geom_bond_site_symmetry_2
Cl1 B1 1_555 1_555
N1 C1 1_555 1_555
B1 C2 1_555 1_555
C1 C2 1_555 1_555
C2 C10 1_555 1_555
C3 B1 1_555 1_555
C4 N1 1_555 1_555
C5 C4 1_555 1_555
C6 C5 1_555 1_555
C7 C6 1_555 1_555
C8 C3 1_555 1_555
C9 N1 1_555 1_555
C10 H9 1_555 1_555
H1 C1 1_555 1_555
H2 C5 1_555 1_555
H3 C6 1_555 1_555
H4 C7 1_555 1_555
H5 C8 1_555 1_555
H6 C9 1_555 1_555
H7 C9 1_555 1_555
H8 C9 1_555 1_555
H10 C10 1_555 1_555
H11 C10 1_555 1_555
Cl2 B2 1_555 1_555
N2 C11 1_555 1_555
B2 C12 1_555 1_555
C11 C12 1_555 1_555
C12 C20 1_555 1_555
C13 B2 1_555 1_555
C14 N2 1_555 1_555
C15 C14 1_555 1_555
C16 C15 1_555 1_555
C17 C16 1_555 1_555
C18 C13 1_555 1_555
C19 N2 1_555 1_555
C20 H20 1_555 1_555
H12 C11 1_555 1_555
H13 C15 1_555 1_555
H14 C16 1_555 1_555
H15 C17 1_555 1_555
H16 C18 1_555 1_555
H17 C19 1_555 1_555
H18 C19 1_555 1_555
H19 C19 1_555 1_555
H21 C20 1_555 1_555
H22 C20 1_555 1_555
C3 C4 1_555 1_555
C7 C8 1_555 1_555
C13 C14 1_555 1_555
C17 C18 1_555 1_555

#END
