
#######################################################################
#
#                 Cambridge Crystallographic Data Centre
#                                CCDC 
#
#######################################################################
#
# If this CIF has been generated from an entry in the Cambridge 
# Structural Database, then it will include bibliographic, chemical, 
# crystal, experimental, refinement or atomic coordinate data resulting 
# from the CCDC's data processing and validation procedures.
#
#######################################################################

data_DAHYOD
_chemical_formula_moiety         'C17 H29 B1 O2'
_chemical_name_systematic        
2-(5-cyclohexylpenta-2,4-dien-2-yl)-4,4,5,5-tetramethyl-1,3,2-dioxaborolane
_symmetry_cell_setting           monoclinic
_symmetry_space_group_name_H-M   'P 21/c'
_symmetry_Int_Tables_number      14
_space_group_name_Hall           '-P 2ybc'
loop_
_symmetry_equiv_pos_site_id
_symmetry_equiv_pos_as_xyz
1 x,y,z
2 -x,1/2+y,1/2-z
3 -x,-y,-z
4 x,1/2-y,1/2+z
_cell_length_a                   11.7894(15)
_cell_length_b                   6.7732(9)
_cell_length_c                   21.252(3)
_cell_angle_alpha                90
_cell_angle_beta                 96.611(2)
_cell_angle_gamma                90
_cell_volume                     1685.73
_exptl_crystal_colour            colorless
_exptl_crystal_description       plate
_cell_formula_units_Z            4
loop_
_atom_site_label
_atom_site_type_symbol
_atom_site_fract_x
_atom_site_fract_y
_atom_site_fract_z
O1 O 0.63055(7) 0.99752(11) 0.60927(4)
O2 O 0.66411(7) 0.69728(11) 0.56548(4)
B1 B 0.69298(11) 0.89376(18) 0.56954(6)
C1 C 0.81043(10) 1.21309(17) 0.55526(6)
H1 H 0.8704 1.2661 0.5318
H2 H 0.8359 1.2182 0.6008
H3 H 0.7409 1.2922 0.5460
C2 C 0.78578(9) 1.00114(16) 0.53558(5)
C3 C 0.84046(9) 0.92075(16) 0.48931(5)
H4 H 0.8964 1.0014 0.4732
C4 C 0.82395(10) 0.72544(17) 0.46129(5)
H5 H 0.7724 0.6367 0.4778
C5 C 0.87920(10) 0.66717(16) 0.41298(5)
H6 H 0.9334 0.7570 0.3995
C6 C 0.86479(10) 0.47578(17) 0.37787(5)
H7 H 0.8137 0.3883 0.3999
C7 C 0.97960(11) 0.37064(18) 0.37581(6)
H8 H 1.0335 0.4617 0.3581
H9 H 1.0120 0.3364 0.4195
C8 C 0.96767(12) 0.18257(18) 0.33571(6)
H10 H 1.0442 0.1249 0.3334
H11 H 0.9216 0.0849 0.3563
C9 C 0.91105(11) 0.22343(18) 0.26884(6)
H12 H 0.8998 0.0975 0.2453
H13 H 0.9615 0.3084 0.2463
C10 C 0.79597(11) 0.3253(2) 0.27036(6)
H14 H 0.7426 0.2340 0.2884
H15 H 0.7634 0.3584 0.2266
C11 C 0.80842(11) 0.51377(19) 0.31013(6)
H16 H 0.7320 0.5724 0.3120
H17 H 0.8549 0.6103 0.2893
C12 C 0.54031(10) 0.86570(17) 0.62596(5)
C13 C 0.59293(10) 0.65894(17) 0.61651(5)
C14 C 0.43471(10) 0.90759(19) 0.57966(6)
H18 H 0.4153 1.0480 0.5814
H19 H 0.3707 0.8281 0.5911
H20 H 0.4502 0.8736 0.5366
C15 C 0.51685(11) 0.91153(19) 0.69314(6)
H21 H 0.5884 0.9052 0.7215
H22 H 0.4628 0.8147 0.7066
H23 H 0.4842 1.0443 0.6946
C16 C 0.50738(12) 0.49777(18) 0.59543(6)
H24 H 0.4660 0.5331 0.5543
H25 H 0.4532 0.4835 0.6268
H26 H 0.5478 0.3727 0.5916
C17 C 0.67425(11) 0.5906(2) 0.67340(6)
H27 H 0.7165 0.4743 0.6617
H28 H 0.6304 0.5568 0.7084
H29 H 0.7281 0.6970 0.6867
loop_
_geom_bond_atom_site_label_1
_geom_bond_atom_site_label_2
_geom_bond_site_symmetry_1
_geom_bond_site_symmetry_2
O1 B1 1_555 1_555
O2 B1 1_555 1_555
B1 C2 1_555 1_555
C1 H1 1_555 1_555
H2 C1 1_555 1_555
H3 C1 1_555 1_555
C2 C1 1_555 1_555
C3 C2 1_555 1_555
H4 C3 1_555 1_555
C4 C3 1_555 1_555
H5 C4 1_555 1_555
C5 C4 1_555 1_555
H6 C5 1_555 1_555
C6 C5 1_555 1_555
H7 C6 1_555 1_555
C7 C6 1_555 1_555
H8 C7 1_555 1_555
H9 C7 1_555 1_555
C8 C7 1_555 1_555
H10 C8 1_555 1_555
H11 C8 1_555 1_555
C9 C8 1_555 1_555
H12 C9 1_555 1_555
H13 C9 1_555 1_555
C10 C9 1_555 1_555
H14 C10 1_555 1_555
H15 C10 1_555 1_555
C11 C6 1_555 1_555
H16 C11 1_555 1_555
H17 C11 1_555 1_555
C12 O1 1_555 1_555
C13 O2 1_555 1_555
C14 C12 1_555 1_555
H18 C14 1_555 1_555
H19 C14 1_555 1_555
H20 C14 1_555 1_555
C15 C12 1_555 1_555
H21 C15 1_555 1_555
H22 C15 1_555 1_555
H23 C15 1_555 1_555
C16 C13 1_555 1_555
H24 C16 1_555 1_555
H25 C16 1_555 1_555
H26 C16 1_555 1_555
C17 C13 1_555 1_555
H27 C17 1_555 1_555
H28 C17 1_555 1_555
H29 C17 1_555 1_555
C10 C11 1_555 1_555
C12 C13 1_555 1_555

#END
