
#######################################################################
#
#                 Cambridge Crystallographic Data Centre
#                                CCDC 
#
#######################################################################
#
# If this CIF has been generated from an entry in the Cambridge 
# Structural Database, then it will include bibliographic, chemical, 
# crystal, experimental, refinement or atomic coordinate data resulting 
# from the CCDC's data processing and validation procedures.
#
#######################################################################

data_DAHYIX
_chemical_formula_moiety         'C22 H28 B1 N1 O4'
_chemical_name_systematic        
2,4-dimethyl-7-phenyl-4-(4,4,5,5-tetramethyl-1,3,2-dioxaborolan-2-yl)-3a,4,7,7a-tetrahydro-1H-isoindole-1,3(2H)-dione
_symmetry_cell_setting           monoclinic
_symmetry_space_group_name_H-M   'P 21/c'
_symmetry_Int_Tables_number      14
_space_group_name_Hall           '-P 2ybc'
loop_
_symmetry_equiv_pos_site_id
_symmetry_equiv_pos_as_xyz
1 x,y,z
2 -x,1/2+y,1/2-z
3 -x,-y,-z
4 x,1/2-y,1/2+z
_cell_length_a                   7.1599(3)
_cell_length_b                   17.6140(8)
_cell_length_c                   33.0261(15)
_cell_angle_alpha                90
_cell_angle_beta                 90.955(2)
_cell_angle_gamma                90
_cell_volume                     4164.49
_exptl_crystal_colour            colorless
_exptl_crystal_description       block
_cell_formula_units_Z            8
loop_
_atom_site_label
_atom_site_type_symbol
_atom_site_fract_x
_atom_site_fract_y
_atom_site_fract_z
O1 O 0.68524(11) 0.40328(5) 0.76178(3)
O2 O 0.93649(11) 0.37555(5) 0.72267(3)
O3 O 0.40604(11) 0.21970(5) 0.60122(2)
O4 O 0.82671(12) 0.11529(5) 0.68858(2)
N1 N 0.59207(13) 0.15291(5) 0.64516(3)
B1 B 0.76813(18) 0.35215(8) 0.73694(4)
C1 C 0.82544(17) 0.46177(7) 0.77122(4)
C2 C 0.96295(17) 0.45475(7) 0.73501(4)
C3 C 0.7274(2) 0.53784(8) 0.77428(5)
H1 H 0.6590 0.5482 0.7489
H2 H 0.8202 0.5779 0.7791
H3 H 0.6398 0.5366 0.7967
C4 C 0.9133(2) 0.43954(8) 0.81159(4)
H4 H 0.8163 0.4365 0.8321
H5 H 1.0062 0.4777 0.8197
H6 H 0.9744 0.3900 0.8090
C5 C 0.9090(2) 0.50297(8) 0.69863(4)
H7 H 0.9822 0.4873 0.6753
H8 H 0.9342 0.5565 0.7047
H9 H 0.7756 0.4963 0.6924
C6 C 1.16785(18) 0.46657(8) 0.74602(4)
H10 H 1.2086 0.4272 0.7652
H11 H 1.1844 0.5167 0.7585
H12 H 1.2427 0.4635 0.7215
C7 C 0.69110(16) 0.26921(7) 0.72743(3)
C8 C 0.74253(15) 0.24964(6) 0.68250(3)
H13 H 0.8727 0.2674 0.6774
C9 C 0.73105(15) 0.16539(6) 0.67386(3)
C10 C 0.51918(15) 0.21904(6) 0.62896(3)
C11 C 0.60857(15) 0.28625(6) 0.65065(3)
H14 H 0.6839 0.3158 0.6309
C12 C 0.46400(15) 0.34061(6) 0.67058(3)
H15 H 0.5403 0.3810 0.6843
C13 C 0.37124(16) 0.29775(6) 0.70436(3)
H16 H 0.2391 0.2951 0.7061
C14 C 0.48158(16) 0.26401(7) 0.73147(3)
H17 H 0.4292 0.2367 0.7533
C15 C 0.79265(18) 0.21783(7) 0.75867(4)
H18 H 0.7720 0.2373 0.7860
H19 H 0.9268 0.2175 0.7533
H20 H 0.7436 0.1660 0.7565
C16 C 0.54875(17) 0.07866(7) 0.62829(4)
H21 H 0.4158 0.0677 0.6318
H22 H 0.6239 0.0399 0.6423
H23 H 0.5774 0.0783 0.5994
C17 C 0.33385(15) 0.38243(6) 0.64163(3)
C18 C 0.16756(15) 0.35084(6) 0.62676(3)
H24 H 0.1340 0.3008 0.6345
C19 C 0.05068(16) 0.39165(7) 0.60084(3)
H25 H -0.0612 0.3692 0.5906
C20 C 0.09680(17) 0.46518(7) 0.58978(4)
H26 H 0.0161 0.4933 0.5723
C21 C 0.26130(17) 0.49742(7) 0.60438(4)
H27 H 0.2936 0.5477 0.5969
C22 C 0.37865(16) 0.45612(7) 0.62996(4)
H28 H 0.4915 0.4785 0.6397
O5 O 0.17050(11) 0.19091(5) 0.39666(2)
O6 O 0.40729(11) 0.22480(5) 0.44027(2)
O7 O -0.09475(11) 0.21666(5) 0.58745(2)
O8 O 0.31793(11) 0.03974(5) 0.54604(2)
N2 N 0.08593(13) 0.11568(5) 0.57032(3)
B2 B 0.24716(17) 0.18365(7) 0.43461(4)
C23 C 0.31103(17) 0.22867(8) 0.37203(4)
C24 C 0.42942(17) 0.27253(7) 0.40454(4)
C25 C 0.2120(2) 0.27838(10) 0.34096(4)
H29 H 0.1420 0.2463 0.3218
H30 H 0.3043 0.3084 0.3263
H31 H 0.1256 0.3126 0.3547
C26 C 0.4199(2) 0.16592(9) 0.35128(4)
H32 H 0.4861 0.1354 0.3718
H33 H 0.5105 0.1885 0.3329
H34 H 0.3334 0.1335 0.3358
C27 C 0.63661(18) 0.27908(8) 0.39551(4)
H35 H 0.7003 0.3061 0.4177
H36 H 0.6526 0.3072 0.3702
H37 H 0.6903 0.2282 0.3928
C28 C 0.3497(2) 0.34978(8) 0.41537(4)
H38 H 0.2154 0.3450 0.4200
H39 H 0.3706 0.3854 0.3931
H40 H 0.4119 0.3687 0.4400
C29 C 0.17289(15) 0.12668(6) 0.46791(3)
C30 C 0.23079(15) 0.15740(6) 0.51089(3)
H41 H 0.3612 0.1776 0.5098
C31 C 0.22295(15) 0.09648(6) 0.54311(3)
C32 C 0.01466(15) 0.18742(6) 0.56444(3)
C33 C 0.10043(15) 0.22101(6) 0.52653(3)
H42 H 0.1776 0.2662 0.5343
C34 C -0.04838(15) 0.24530(6) 0.49385(3)
H43 H 0.0242 0.2653 0.4705
C35 C -0.14444(15) 0.17455(7) 0.47843(3)
H44 H -0.2768 0.1705 0.4778
C36 C -0.03727(16) 0.11819(6) 0.46584(3)
H45 H -0.0921 0.0728 0.4556
C37 C 0.27237(17) 0.05130(7) 0.45757(4)
H46 H 0.2213 0.0102 0.4741
H47 H 0.4066 0.0563 0.4633
H48 H 0.2523 0.0396 0.4288
C38 C 0.04731(16) 0.07167(7) 0.60638(3)
H49 H 0.0887 0.1000 0.6304
H50 H 0.1144 0.0232 0.6052
H51 H -0.0872 0.0620 0.6078
C39 C -0.17419(15) 0.30968(6) 0.50664(3)
C40 C -0.33665(15) 0.29801(7) 0.52872(3)
H52 H -0.3733 0.2478 0.5355
C41 C -0.44488(16) 0.35912(7) 0.54079(3)
H53 H -0.5539 0.3506 0.5561
C42 C -0.39433(16) 0.43264(7) 0.53050(4)
H54 H -0.4677 0.4744 0.5391
C43 C -0.23604(17) 0.44484(7) 0.50767(4)
H55 H -0.2025 0.4949 0.5000
C44 C -0.12686(16) 0.38369(7) 0.49612(3)
H56 H -0.0179 0.3925 0.4808
loop_
_geom_bond_atom_site_label_1
_geom_bond_atom_site_label_2
_geom_bond_site_symmetry_1
_geom_bond_site_symmetry_2
O1 B1 1_555 1_555
O2 B1 1_555 1_555
O3 C10 1_555 1_555
O4 C9 1_555 1_555
N1 C9 1_555 1_555
B1 C7 1_555 1_555
C1 O1 1_555 1_555
C2 O2 1_555 1_555
C3 C1 1_555 1_555
H1 C3 1_555 1_555
H2 C3 1_555 1_555
H3 C3 1_555 1_555
C4 C1 1_555 1_555
H4 C4 1_555 1_555
H5 C4 1_555 1_555
H6 C4 1_555 1_555
C5 C2 1_555 1_555
H7 C5 1_555 1_555
H8 C5 1_555 1_555
H9 C5 1_555 1_555
C6 C2 1_555 1_555
H10 C6 1_555 1_555
H11 C6 1_555 1_555
H12 C6 1_555 1_555
C7 C8 1_555 1_555
C8 H13 1_555 1_555
C9 C8 1_555 1_555
C10 N1 1_555 1_555
C11 C8 1_555 1_555
H14 C11 1_555 1_555
C12 C11 1_555 1_555
H15 C12 1_555 1_555
C13 C12 1_555 1_555
H16 C13 1_555 1_555
C14 C7 1_555 1_555
H17 C14 1_555 1_555
C15 C7 1_555 1_555
H18 C15 1_555 1_555
H19 C15 1_555 1_555
H20 C15 1_555 1_555
C16 N1 1_555 1_555
H21 C16 1_555 1_555
H22 C16 1_555 1_555
H23 C16 1_555 1_555
C17 C12 1_555 1_555
C18 C17 1_555 1_555
H24 C18 1_555 1_555
C19 C18 1_555 1_555
H25 C19 1_555 1_555
C20 C19 1_555 1_555
H26 C20 1_555 1_555
C21 C20 1_555 1_555
H27 C21 1_555 1_555
C22 C17 1_555 1_555
H28 C22 1_555 1_555
O5 B2 1_555 1_555
O6 B2 1_555 1_555
O7 C32 1_555 1_555
O8 C31 1_555 1_555
N2 C31 1_555 1_555
B2 C29 1_555 1_555
C23 O5 1_555 1_555
C24 O6 1_555 1_555
C25 C23 1_555 1_555
H29 C25 1_555 1_555
H30 C25 1_555 1_555
H31 C25 1_555 1_555
C26 C23 1_555 1_555
H32 C26 1_555 1_555
H33 C26 1_555 1_555
H34 C26 1_555 1_555
C27 C24 1_555 1_555
H35 C27 1_555 1_555
H36 C27 1_555 1_555
H37 C27 1_555 1_555
C28 C24 1_555 1_555
H38 C28 1_555 1_555
H39 C28 1_555 1_555
H40 C28 1_555 1_555
C29 C30 1_555 1_555
C30 H41 1_555 1_555
C31 C30 1_555 1_555
C32 N2 1_555 1_555
C33 C30 1_555 1_555
H42 C33 1_555 1_555
C34 C33 1_555 1_555
H43 C34 1_555 1_555
C35 C34 1_555 1_555
H44 C35 1_555 1_555
C36 C29 1_555 1_555
H45 C36 1_555 1_555
C37 C29 1_555 1_555
H46 C37 1_555 1_555
H47 C37 1_555 1_555
H48 C37 1_555 1_555
C38 N2 1_555 1_555
H49 C38 1_555 1_555
H50 C38 1_555 1_555
H51 C38 1_555 1_555
C39 C34 1_555 1_555
C40 C39 1_555 1_555
H52 C40 1_555 1_555
C41 C40 1_555 1_555
H53 C41 1_555 1_555
C42 C41 1_555 1_555
H54 C42 1_555 1_555
C43 C42 1_555 1_555
H55 C43 1_555 1_555
C44 C39 1_555 1_555
H56 C44 1_555 1_555
C1 C2 1_555 1_555
C10 C11 1_555 1_555
C13 C14 1_555 1_555
C21 C22 1_555 1_555
C23 C24 1_555 1_555
C32 C33 1_555 1_555
C35 C36 1_555 1_555
C43 C44 1_555 1_555

#END
