
#######################################################################
#
#                 Cambridge Crystallographic Data Centre
#                                CCDC 
#
#######################################################################
#
# If this CIF has been generated from an entry in the Cambridge 
# Structural Database, then it will include bibliographic, chemical, 
# crystal, experimental, refinement or atomic coordinate data resulting 
# from the CCDC's data processing and validation procedures.
#
#######################################################################

data_DAJCAV
_chemical_formula_moiety         'C22 H27 Cl1 N4 O3'
_chemical_name_systematic        
't-butyl (4-chloro-1-methyl-1H-indazol-6-yl)((4-methoxy-3,5-dimethylpyridin-2-yl)methyl)carbamate'
_symmetry_cell_setting           monoclinic
_symmetry_space_group_name_H-M   'P 21/n'
_symmetry_Int_Tables_number      14
_space_group_name_Hall           '-P 2yn'
loop_
_symmetry_equiv_pos_site_id
_symmetry_equiv_pos_as_xyz
1 x,y,z
2 1/2-x,1/2+y,1/2-z
3 -x,-y,-z
4 1/2+x,1/2-y,1/2+z
_cell_length_a                   14.7646(4)
_cell_length_b                   8.9396(2)
_cell_length_c                   16.5413(4)
_cell_angle_alpha                90
_cell_angle_beta                 90.0910(10)
_cell_angle_gamma                90
_cell_volume                     2183.28
_exptl_crystal_colour            colorless
_exptl_crystal_description       block
_cell_formula_units_Z            4
loop_
_atom_site_label
_atom_site_type_symbol
_atom_site_fract_x
_atom_site_fract_y
_atom_site_fract_z
Cl1 Cl 0.58632(2) 0.25897(4) 0.91934(2)
O1 O 0.60227(7) 0.15257(11) 0.62811(6)
O2 O 0.71686(6) 0.17737(11) 0.53695(6)
O3 O 0.78201(7) 0.56633(12) 0.28964(6)
N1 N 0.54124(8) 0.76307(13) 0.87437(7)
N2 N 0.57460(8) 0.75973(13) 0.79755(7)
N3 N 0.69981(7) 0.35282(12) 0.63016(7)
N4 N 0.63242(7) 0.51840(13) 0.50031(7)
C1 C 0.54798(9) 0.62512(16) 0.90214(8)
H1 H 0.5294 0.5947 0.9546
C2 C 0.58637(8) 0.52820(16) 0.84378(8)
C3 C 0.60897(9) 0.37686(15) 0.83769(8)
C4 C 0.64743(9) 0.32176(15) 0.76878(8)
H2 H 0.6652 0.2197 0.7663
C5 C 0.66096(8) 0.41635(15) 0.70068(8)
C6 C 0.63854(9) 0.56645(15) 0.70313(8)
H3 H 0.6469 0.6300 0.6577
C7 C 0.60276(9) 0.62009(15) 0.77641(8)
C8 C 0.57904(10) 0.89310(16) 0.74854(9)
H4 H 0.5557 0.9783 0.7794
H5 H 0.5424 0.8792 0.6997
H6 H 0.6421 0.9123 0.7333
C9 C 0.66657(9) 0.21985(15) 0.60030(8)
C10 C 0.68472(10) 0.05906(16) 0.48163(8)
C11 C 0.76009(11) 0.0546(2) 0.41904(10)
H7 H 0.7683 0.1546 0.3958
H8 H 0.7440 -0.0160 0.3761
H9 H 0.8166 0.0225 0.4449
C12 C 0.67691(12) -0.08969(17) 0.52534(10)
H10 H 0.7311 -0.1058 0.5586
H11 H 0.6715 -0.1706 0.4856
H12 H 0.6232 -0.0887 0.5600
C13 C 0.59565(11) 0.10877(19) 0.44394(9)
H13 H 0.5500 0.1210 0.4864
H14 H 0.5751 0.0331 0.4052
H15 H 0.6044 0.2043 0.4160
C14 C 0.76196(9) 0.44123(15) 0.57988(8)
H16 H 0.8170 0.3813 0.5693
H17 H 0.7806 0.5314 0.6104
C15 C 0.72142(9) 0.48954(14) 0.49971(8)
C16 C 0.77583(9) 0.50280(14) 0.43067(8)
C17 C 0.73308(9) 0.55414(15) 0.36061(8)
C18 C 0.64049(9) 0.58630(16) 0.35930(8)
C19 C 0.59387(9) 0.56407(16) 0.43110(9)
H18 H 0.5305 0.5824 0.4312
C20 C 0.59351(10) 0.6405(2) 0.28400(10)
H19 H 0.5979 0.5639 0.2418
H20 H 0.6225 0.7328 0.2652
H21 H 0.5296 0.6602 0.2960
C21 C 0.82484(11) 0.70926(19) 0.28037(9)
H22 H 0.8642 0.7074 0.2327
H23 H 0.8611 0.7313 0.3286
H24 H 0.7785 0.7867 0.2735
C22 C 0.87478(9) 0.45967(17) 0.42918(8)
H25 H 0.9112 0.5417 0.4513
H26 H 0.8933 0.4397 0.3733
H27 H 0.8839 0.3696 0.4620
loop_
_geom_bond_atom_site_label_1
_geom_bond_atom_site_label_2
_geom_bond_site_symmetry_1
_geom_bond_site_symmetry_2
Cl1 C3 1_555 1_555
O1 C9 1_555 1_555
O2 C9 1_555 1_555
O3 C17 1_555 1_555
N1 N2 1_555 1_555
N2 C7 1_555 1_555
N3 C5 1_555 1_555
N4 C15 1_555 1_555
C1 N1 1_555 1_555
H1 C1 1_555 1_555
C2 C1 1_555 1_555
C3 C2 1_555 1_555
C4 C3 1_555 1_555
H2 C4 1_555 1_555
C5 C4 1_555 1_555
C6 C5 1_555 1_555
H3 C6 1_555 1_555
C7 C2 1_555 1_555
C8 N2 1_555 1_555
H4 C8 1_555 1_555
H5 C8 1_555 1_555
H6 C8 1_555 1_555
C9 N3 1_555 1_555
C10 O2 1_555 1_555
C11 C10 1_555 1_555
H7 C11 1_555 1_555
H8 C11 1_555 1_555
H9 C11 1_555 1_555
C12 C10 1_555 1_555
H10 C12 1_555 1_555
H11 C12 1_555 1_555
H12 C12 1_555 1_555
C13 C10 1_555 1_555
H13 C13 1_555 1_555
H14 C13 1_555 1_555
H15 C13 1_555 1_555
C14 N3 1_555 1_555
H16 C14 1_555 1_555
H17 C14 1_555 1_555
C15 C14 1_555 1_555
C16 C15 1_555 1_555
C17 C16 1_555 1_555
C18 C17 1_555 1_555
C19 N4 1_555 1_555
H18 C19 1_555 1_555
C20 C18 1_555 1_555
H19 C20 1_555 1_555
H20 C20 1_555 1_555
H21 C20 1_555 1_555
C21 O3 1_555 1_555
H22 C21 1_555 1_555
H23 C21 1_555 1_555
H24 C21 1_555 1_555
C22 C16 1_555 1_555
H25 C22 1_555 1_555
H26 C22 1_555 1_555
H27 C22 1_555 1_555
C6 C7 1_555 1_555
C18 C19 1_555 1_555

#END
