
#######################################################################
#
#                 Cambridge Crystallographic Data Centre
#                                CCDC 
#
#######################################################################
#
# If this CIF has been generated from an entry in the Cambridge 
# Structural Database, then it will include bibliographic, chemical, 
# crystal, experimental, refinement or atomic coordinate data resulting 
# from the CCDC's data processing and validation procedures.
#
#######################################################################

data_DAJFUS
_chemical_formula_moiety         'C18 H26 O2 Si1'
_chemical_name_systematic        
dimethyl(phenyl)((2-vinylhexahydro-4H-furo[2,3-b]pyran-3-yl)methyl)silane
_symmetry_cell_setting           orthorhombic
_symmetry_space_group_name_H-M   'P n a 21'
_symmetry_Int_Tables_number      33
_space_group_name_Hall           'P 2c -2n'
loop_
_symmetry_equiv_pos_site_id
_symmetry_equiv_pos_as_xyz
1 x,y,z
2 -x,-y,1/2+z
3 1/2+x,1/2-y,z
4 1/2-x,1/2+y,1/2+z
_cell_length_a                   8.7705(3)
_cell_length_b                   11.8484(5)
_cell_length_c                   16.7993(6)
_cell_angle_alpha                90
_cell_angle_beta                 90
_cell_angle_gamma                90
_cell_volume                     1745.72
_exptl_crystal_colour            colorless
_exptl_crystal_description       block
_cell_formula_units_Z            4
loop_
_atom_site_label
_atom_site_type_symbol
_atom_site_fract_x
_atom_site_fract_y
_atom_site_fract_z
Si1 Si 0.80388(7) 0.61394(5) 0.46675(4)
O1 O 0.4659(2) 0.26269(15) 0.38923(11)
O2 O 0.5716(2) 0.22064(15) 0.26592(12)
C1 C 0.6135(2) 0.54295(19) 0.45379(16)
H1 H 0.5570 0.5494 0.5046
H2 H 0.5553 0.5854 0.4132
C2 C 0.6153(3) 0.4187(2) 0.42939(16)
H3 H 0.6904 0.3786 0.4642
C3 C 0.4599(3) 0.3608(2) 0.43966(16)
H4 H 0.3779 0.4126 0.4202
C4 C 0.6010(3) 0.2672(2) 0.34029(17)
H5 H 0.6813 0.2202 0.3665
C5 C 0.6532(3) 0.3904(2) 0.34323(16)
H6 H 0.7659 0.3947 0.3348
C6 C 0.5714(3) 0.4643(2) 0.28236(17)
H7 H 0.6281 0.5359 0.2754
H8 H 0.4679 0.4827 0.3020
C7 C 0.5596(4) 0.4035(3) 0.20235(18)
H9 H 0.4998 0.4500 0.1646
H10 H 0.6628 0.3925 0.1798
C8 C 0.4837(4) 0.2914(3) 0.21318(19)
H11 H 0.3803 0.3025 0.2356
H12 H 0.4729 0.2537 0.1609
C9 C 0.4252(3) 0.3264(2) 0.52294(17)
H13 H 0.4873 0.2697 0.5463
C10 C 0.3160(3) 0.3684(3) 0.5660(2)
H14 H 0.2516 0.4253 0.5446
H15 H 0.3006 0.3423 0.6188
C11 C 0.9057(3) 0.6287(2) 0.36939(15)
C12 C 0.8781(3) 0.7211(2) 0.31981(15)
H16 H 0.8101 0.7785 0.3372
C13 C 0.9469(3) 0.7314(2) 0.24610(16)
H17 H 0.9258 0.7951 0.2136
C14 C 1.0460(3) 0.6492(2) 0.21984(18)
H18 H 1.0933 0.6559 0.1692
C15 C 1.0762(3) 0.5575(2) 0.26739(18)
H19 H 1.1445 0.5007 0.2495
C16 C 1.0075(3) 0.5476(2) 0.34134(17)
H20 H 1.0302 0.4840 0.3737
C17 C 0.7674(4) 0.7576(2) 0.50840(18)
H21 H 0.8644 0.7977 0.5146
H22 H 0.7177 0.7506 0.5604
H23 H 0.7011 0.7998 0.4721
C18 C 0.9200(3) 0.5289(3) 0.53709(19)
H24 H 1.0164 0.5679 0.5478
H25 H 0.9411 0.4548 0.5136
H26 H 0.8638 0.5190 0.5870
loop_
_geom_bond_atom_site_label_1
_geom_bond_atom_site_label_2
_geom_bond_site_symmetry_1
_geom_bond_site_symmetry_2
Si1 C1 1_555 1_555
O1 C3 1_555 1_555
O2 C4 1_555 1_555
C1 H1 1_555 1_555
H2 C1 1_555 1_555
C2 C1 1_555 1_555
H3 C2 1_555 1_555
C3 C2 1_555 1_555
H4 C3 1_555 1_555
C4 O1 1_555 1_555
H5 C4 1_555 1_555
C5 C2 1_555 1_555
H6 C5 1_555 1_555
C6 C5 1_555 1_555
H7 C6 1_555 1_555
H8 C6 1_555 1_555
C7 C6 1_555 1_555
H9 C7 1_555 1_555
H10 C7 1_555 1_555
C8 O2 1_555 1_555
H11 C8 1_555 1_555
H12 C8 1_555 1_555
C9 C3 1_555 1_555
H13 C9 1_555 1_555
C10 C9 1_555 1_555
H14 C10 1_555 1_555
H15 C10 1_555 1_555
C11 Si1 1_555 1_555
C12 C11 1_555 1_555
H16 C12 1_555 1_555
C13 C12 1_555 1_555
H17 C13 1_555 1_555
C14 C13 1_555 1_555
H18 C14 1_555 1_555
C15 C14 1_555 1_555
H19 C15 1_555 1_555
C16 C11 1_555 1_555
H20 C16 1_555 1_555
C17 Si1 1_555 1_555
H21 C17 1_555 1_555
H22 C17 1_555 1_555
H23 C17 1_555 1_555
C18 Si1 1_555 1_555
H24 C18 1_555 1_555
H25 C18 1_555 1_555
H26 C18 1_555 1_555
C4 C5 1_555 1_555
C7 C8 1_555 1_555
C15 C16 1_555 1_555

#END
