
#######################################################################
#
#                 Cambridge Crystallographic Data Centre
#                                CCDC 
#
#######################################################################
#
# If this CIF has been generated from an entry in the Cambridge 
# Structural Database, then it will include bibliographic, chemical, 
# crystal, experimental, refinement or atomic coordinate data resulting 
# from the CCDC's data processing and validation procedures.
#
#######################################################################

data_DAJGIH
_chemical_formula_moiety         'C44 H32 N4 O8,C1 H4 O1'
_chemical_name_systematic        
'8,15,28,35-tetraazaundecacyclo[35.3.1.1^2,6^.1^5,8^.1^15,18^.1^17,21^.1^22,26^.1^25,28^.1^35,38^.0^9,14^.0^29,34^]octatetraconta-1(41),2(48),3,5,17(45),18,20,22(44),23,25,37,39-dodecaene-7,16,27,36,42,43,46,47-octone methanol solvate'
_symmetry_cell_setting           monoclinic
_symmetry_space_group_name_H-M   'C 2'
_symmetry_Int_Tables_number      5
_space_group_name_Hall           'C 2y'
loop_
_symmetry_equiv_pos_site_id
_symmetry_equiv_pos_as_xyz
1 x,y,z
2 -x,y,-z
3 1/2+x,1/2+y,z
4 1/2-x,1/2+y,-z
_cell_length_a                   32.045(4)
_cell_length_b                   8.2580(9)
_cell_length_c                   14.0706(15)
_cell_angle_alpha                90
_cell_angle_beta                 97.500(3)
_cell_angle_gamma                90
_cell_volume                     3691.61
_exptl_crystal_colour            colorless
_exptl_crystal_description       needle
_cell_formula_units_Z            4
loop_
_atom_site_label
_atom_site_type_symbol
_atom_site_fract_x
_atom_site_fract_y
_atom_site_fract_z
O1 O 0.30799(6) 0.1292(3) 0.49339(14)
O2 O 0.26938(6) 0.5599(3) 0.29501(15)
O3 O 0.56669(6) 0.6597(3) 0.32943(14)
O4 O 0.53129(6) 1.1984(3) 0.31390(15)
O5 O 0.58954(6) 0.6147(2) 0.12696(14)
O6 O 0.48115(6) 0.9797(2) 0.11987(13)
O7 O 0.33341(6) 0.0481(3) 0.29420(15)
O8 O 0.22748(6) 0.3178(3) 0.10955(14)
N1 N 0.27795(7) 0.3303(3) 0.38990(17)
N2 N 0.55933(7) 0.9384(3) 0.31156(15)
N3 N 0.54280(7) 0.8316(3) 0.12169(15)
N4 N 0.27254(8) 0.1668(3) 0.21667(17)
C1 C 0.24420(9) 0.1143(4) 0.2859(2)
H1 H 0.2585 0.0253 0.3258
C2 C 0.20175(10) 0.0502(5) 0.2385(2)
H2 H 0.2062 -0.0459 0.1991
H3 H 0.1875 0.1343 0.1958
C3 C 0.17387(10) 0.0042(4) 0.3152(2)
H4 H 0.1459 -0.0303 0.2836
H5 H 0.1867 -0.0881 0.3533
C4 C 0.16878(8) 0.1458(4) 0.3810(2)
H6 H 0.1510 0.1125 0.4302
H7 H 0.1542 0.2354 0.3434
C5 C 0.21120(9) 0.2060(4) 0.4306(2)
H8 H 0.2071 0.2993 0.4726
H9 H 0.2257 0.1188 0.4705
C6 C 0.23740(8) 0.2565(4) 0.3527(2)
H10 H 0.2208 0.3405 0.3128
C7 C 0.31062(9) 0.2542(4) 0.44977(19)
C8 C 0.34783(8) 0.3614(3) 0.44780(19)
C9 C 0.38888(8) 0.3460(4) 0.49301(18)
H11 H 0.3973 0.2560 0.5330
C10 C 0.41689(8) 0.4677(4) 0.47703(18)
H12 H 0.4452 0.4594 0.5063
C11 C 0.40504(8) 0.6029(4) 0.41930(18)
C12 C 0.36332(8) 0.6171(4) 0.37497(18)
H13 H 0.3543 0.7078 0.3361
C13 C 0.33615(8) 0.4943(4) 0.39024(18)
C14 C 0.29092(8) 0.4734(4) 0.3504(2)
C15 C 0.43633(8) 0.7291(4) 0.40347(18)
C16 C 0.47674(8) 0.6804(4) 0.38589(17)
H14 H 0.4847 0.5695 0.3875
C17 C 0.50432(8) 0.8004(4) 0.36621(17)
C18 C 0.54673(8) 0.7824(4) 0.33533(18)
C19 C 0.52897(8) 1.0548(4) 0.32781(19)
C20 C 0.49372(8) 0.9624(4) 0.36304(18)
C21 C 0.45449(9) 1.0135(4) 0.38202(19)
H15 H 0.4473 1.1251 0.3813
C22 C 0.42590(8) 0.8939(4) 0.4023(2)
H16 H 0.3987 0.9254 0.4156
C23 C 0.59247(8) 0.9566(3) 0.24813(18)
H17 H 0.6095 0.8548 0.2537
C24 C 0.62280(8) 1.0964(4) 0.2750(2)
H18 H 0.6369 1.0818 0.3414
H19 H 0.6071 1.2000 0.2719
C25 C 0.65586(8) 1.1008(4) 0.2049(2)
H20 H 0.6756 1.1916 0.2220
H21 H 0.6723 0.9988 0.2103
C26 C 0.63488(9) 1.1216(4) 0.10223(19)
H22 H 0.6566 1.1261 0.0584
H23 H 0.6190 1.2247 0.0963
C27 C 0.60486(9) 0.9801(4) 0.07386(19)
H24 H 0.6210 0.8777 0.0757
H25 H 0.5908 0.9962 0.0076
C28 C 0.57168(8) 0.9691(3) 0.14290(18)
H26 H 0.5546 1.0708 0.1363
C29 C 0.55415(8) 0.6665(3) 0.12303(17)
C30 C 0.51375(8) 0.5749(3) 0.11879(18)
C31 C 0.50636(9) 0.4108(3) 0.1213(2)
H27 H 0.5289 0.3352 0.1261
C32 C 0.46464(9) 0.3593(3) 0.1165(2)
H28 H 0.4588 0.2467 0.1183
C33 C 0.43108(8) 0.4704(3) 0.10898(18)
C34 C 0.43950(8) 0.6367(3) 0.10810(17)
H29 H 0.4173 0.7138 0.1039
C35 C 0.48090(8) 0.6856(3) 0.11351(18)
C36 C 0.49904(8) 0.8511(3) 0.11816(17)
C37 C 0.38697(8) 0.4113(3) 0.10573(19)
C38 C 0.37754(9) 0.2879(4) 0.1671(2)
H30 H 0.3992 0.2321 0.2065
C39 C 0.33573(9) 0.2490(4) 0.16878(19)
C40 C 0.31618(9) 0.1390(4) 0.2348(2)
C41 C 0.26265(9) 0.2745(4) 0.1408(2)
C42 C 0.30380(9) 0.3273(4) 0.11105(19)
C43 C 0.31258(9) 0.4431(4) 0.0457(2)
H31 H 0.2908 0.4925 0.0033
C44 C 0.35448(9) 0.4847(3) 0.04460(19)
H32 H 0.3613 0.5653 0.0010
O9 O 0.28951(12) 0.9415(4) 0.0736(2)
H33 H 0.2883 0.9141 0.0158
C45 C 0.28287(15) 0.8046(5) 0.1295(3)
H34 H 0.2589 0.7426 0.0980
H35 H 0.2770 0.8395 0.1930
H36 H 0.3081 0.7364 0.1364
loop_
_geom_bond_atom_site_label_1
_geom_bond_atom_site_label_2
_geom_bond_site_symmetry_1
_geom_bond_site_symmetry_2
O1 C7 1_555 1_555
O2 C14 1_555 1_555
O3 C18 1_555 1_555
O4 C19 1_555 1_555
O5 C29 1_555 1_555
O6 C36 1_555 1_555
O7 C40 1_555 1_555
O8 C41 1_555 1_555
N1 C6 1_555 1_555
N2 C18 1_555 1_555
N3 C28 1_555 1_555
N4 C1 1_555 1_555
C1 H1 1_555 1_555
C2 C1 1_555 1_555
H2 C2 1_555 1_555
H3 C2 1_555 1_555
C3 C2 1_555 1_555
H4 C3 1_555 1_555
H5 C3 1_555 1_555
C4 C3 1_555 1_555
H6 C4 1_555 1_555
H7 C4 1_555 1_555
C5 C4 1_555 1_555
H8 C5 1_555 1_555
H9 C5 1_555 1_555
C6 C1 1_555 1_555
H10 C6 1_555 1_555
C7 N1 1_555 1_555
C8 C7 1_555 1_555
C9 C8 1_555 1_555
H11 C9 1_555 1_555
C10 C9 1_555 1_555
H12 C10 1_555 1_555
C11 C10 1_555 1_555
C12 C11 1_555 1_555
H13 C12 1_555 1_555
C13 C8 1_555 1_555
C14 N1 1_555 1_555
C15 C11 1_555 1_555
C16 C15 1_555 1_555
H14 C16 1_555 1_555
C17 C16 1_555 1_555
C18 C17 1_555 1_555
C19 N2 1_555 1_555
C20 C17 1_555 1_555
C21 C20 1_555 1_555
H15 C21 1_555 1_555
C22 C15 1_555 1_555
H16 C22 1_555 1_555
C23 N2 1_555 1_555
H17 C23 1_555 1_555
C24 C23 1_555 1_555
H18 C24 1_555 1_555
H19 C24 1_555 1_555
C25 C24 1_555 1_555
H20 C25 1_555 1_555
H21 C25 1_555 1_555
C26 C25 1_555 1_555
H22 C26 1_555 1_555
H23 C26 1_555 1_555
C27 C26 1_555 1_555
H24 C27 1_555 1_555
H25 C27 1_555 1_555
C28 C23 1_555 1_555
H26 C28 1_555 1_555
C29 N3 1_555 1_555
C30 C29 1_555 1_555
C31 C30 1_555 1_555
H27 C31 1_555 1_555
C32 C31 1_555 1_555
H28 C32 1_555 1_555
C33 C32 1_555 1_555
C34 C33 1_555 1_555
H29 C34 1_555 1_555
C35 C30 1_555 1_555
C36 N3 1_555 1_555
C37 C33 1_555 1_555
C38 C37 1_555 1_555
H30 C38 1_555 1_555
C39 C38 1_555 1_555
C40 N4 1_555 1_555
C41 N4 1_555 1_555
C42 C39 1_555 1_555
C43 C42 1_555 1_555
H31 C43 1_555 1_555
C44 C37 1_555 1_555
H32 C44 1_555 1_555
O9 H33 1_555 1_555
C45 O9 1_555 1_555
H34 C45 1_555 1_555
H35 C45 1_555 1_555
H36 C45 1_555 1_555
C5 C6 1_555 1_555
C12 C13 1_555 1_555
C13 C14 1_555 1_555
C19 C20 1_555 1_555
C21 C22 1_555 1_555
C27 C28 1_555 1_555
C34 C35 1_555 1_555
C35 C36 1_555 1_555
C39 C40 1_555 1_555
C41 C42 1_555 1_555
C43 C44 1_555 1_555

#END
