
#######################################################################
#
#                 Cambridge Crystallographic Data Centre
#                                CCDC 
#
#######################################################################
#
# If this CIF has been generated from an entry in the Cambridge 
# Structural Database, then it will include bibliographic, chemical, 
# crystal, experimental, refinement or atomic coordinate data resulting 
# from the CCDC's data processing and validation procedures.
#
#######################################################################

data_DAJLIJ
_chemical_formula_moiety         'C32 H48 O5'
_chemical_name_systematic        '5\b-(S)-(1-Phenylethanol)-deoxycholic acid'
_symmetry_cell_setting           monoclinic
_symmetry_space_group_name_H-M   'P 21'
_symmetry_Int_Tables_number      4
_space_group_name_Hall           'P 2yb'
loop_
_symmetry_equiv_pos_site_id
_symmetry_equiv_pos_as_xyz
1 x,y,z
2 -x,1/2+y,-z
_cell_length_a                   12.107(2)
_cell_length_b                   15.115(5)
_cell_length_c                   7.522(2)
_cell_angle_alpha                90
_cell_angle_beta                 94.08(3)
_cell_angle_gamma                90
_cell_volume                     1373.02
_chemical_melting_point          216deg.C
_cell_formula_units_Z            2
loop_
_atom_site_label
_atom_site_type_symbol
_atom_site_fract_x
_atom_site_fract_y
_atom_site_fract_z
C1 C 0.4474(3) 0.2400(3) 0.5079(6)
C2 C 0.4904(3) 0.2890(3) 0.3478(7)
C3 C 0.4204(4) 0.3691(3) 0.3029(6)
C4 C 0.2983(3) 0.3418(3) 0.2703(5)
C5 C 0.2478(3) 0.2944(2) 0.4280(4)
C6 C 0.1304(3) 0.2629(3) 0.3595(6)
C7 C 0.1269(3) 0.1921(3) 0.2161(6)
C8 C 0.1923(3) 0.1113(3) 0.2795(5)
C9 C 0.3134(3) 0.1377(3) 0.3337(5)
C10 C 0.3245(3) 0.2112(3) 0.4852(5)
C11 C 0.3837(3) 0.0545(3) 0.3819(5)
C12 C 0.3766(3) -0.0187(3) 0.2411(5)
C13 C 0.2546(3) -0.0457(2) 0.1947(5)
C14 C 0.1918(3) 0.0397(3) 0.1359(5)
C15 C 0.0787(3) 0.0060(3) 0.0602(6)
C16 C 0.1064(4) -0.0816(3) -0.0315(8)
C17 C 0.2290(3) -0.1053(3) 0.0275(5)
C18 C 0.2073(3) -0.0882(3) 0.3594(5)
C19 C 0.2972(4) 0.1709(3) 0.6652(5)
C20 C 0.2448(2) -0.2063(2) 0.0478(4)
C21 C 0.3611(3) -0.2298(3) 0.1268(6)
C22 C 0.2177(3) -0.2538(2) -0.1308(5)
C23 C 0.1995(3) -0.3540(3) -0.1116(5)
C24 C 0.2994(3) -0.4131(3) -0.0891(5)
O1 O 0.4582(3) 0.4082(3) 0.1456(6)
O2 O 0.4292(2) 0.0126(2) 0.0901(4)
O3 O 0.2922(3) -0.4882(2) -0.0279(5)
O4 O 0.3904(2) -0.3844(2) -0.1493(4)
C25 C 0.2297(3) 0.3662(2) 0.5844(4)
C26 C 0.1469(4) 0.3390(3) 0.7210(6)
C27 C 0.1894(3) 0.4571(3) 0.5056(4)
C28 C 0.2638(4) 0.5267(3) 0.4914(6)
C29 C 0.2277(5) 0.6098(3) 0.4313(7)
C30 C 0.1187(5) 0.6257(4) 0.3875(7)
C31 C 0.0426(4) 0.5570(4) 0.3991(6)
C32 C 0.0785(3) 0.4737(3) 0.4597(5)
O5 O 0.3345(3) 0.3798(2) 0.6801(4)
H1 H 0.4946 0.1920 0.5317
H2 H 0.4631 0.2842 0.6215
H3 H 0.5652 0.2975 0.3621
H4 H 0.4231 0.4094 0.4274
H5 H 0.2977 0.3054 0.1775
H6 H 0.2507 0.3971 0.2368
H7 H 0.0858 0.3198 0.3098
H8 H 0.0792 0.2288 0.4096
H9 H 0.1522 0.2190 0.0942
H10 H 0.0644 0.1819 0.2004
H11 H 0.1437 0.0807 0.3780
H12 H 0.3388 0.1681 0.2172
H13 H 0.3537 0.0207 0.4881
H14 H 0.4657 0.0666 0.3974
H15 H 0.4313 -0.0746 0.2742
H16 H 0.2243 0.0631 0.0152
H17 H 0.0432 0.0446 -0.0256
H18 H 0.0387 -0.0092 0.1653
H19 H 0.1020 -0.0828 -0.1605
H20 H 0.0487 -0.1255 -0.0077
H21 H 0.2849 -0.0914 -0.0608
H22 H 0.1443 -0.1135 0.3322
H23 H 0.1979 -0.0507 0.4649
H24 H 0.2550 -0.1325 0.3873
H25 H 0.2183 0.1437 0.6773
H26 H 0.3228 0.2226 0.7677
H27 H 0.3498 0.1302 0.6832
H28 H 0.1824 -0.2295 0.1318
H29 H 0.3689 -0.2914 0.1304
H30 H 0.3778 -0.2108 0.2467
H31 H 0.4164 -0.2045 0.0650
H32 H 0.2747 -0.2408 -0.2109
H33 H 0.1438 -0.2341 -0.1757
H34 H 0.1646 -0.3777 -0.2348
H35 H 0.1630 -0.3639 -0.0041
H36 H 0.4012 0.4073 0.0766
H37 H 0.4383 -0.0224 0.0327
H38 H 0.4405 -0.4471 -0.1573
H39 H 0.0657 0.3288 0.6667
H40 H 0.1495 0.3848 0.8100
H41 H 0.1895 0.2837 0.7683
H42 H 0.3407 0.5174 0.5294
H43 H 0.2733 0.6598 0.4203
H44 H 0.0852 0.6900 0.3368
H45 H -0.0312 0.5740 0.3733
H46 H 0.0244 0.4319 0.4692
H47 H 0.3155 0.3872 0.7664
loop_
_geom_bond_atom_site_label_1
_geom_bond_atom_site_label_2
_geom_bond_site_symmetry_1
_geom_bond_site_symmetry_2
C1 C2 1_555 1_555
C2 C3 1_555 1_555
C3 C4 1_555 1_555
C4 C5 1_555 1_555
C5 C6 1_555 1_555
C6 C7 1_555 1_555
C7 C8 1_555 1_555
C8 C9 1_555 1_555
C9 C10 1_555 1_555
C10 C1 1_555 1_555
C11 C9 1_555 1_555
C12 C11 1_555 1_555
C13 C12 1_555 1_555
C14 C8 1_555 1_555
C15 C14 1_555 1_555
C16 C15 1_555 1_555
C17 C13 1_555 1_555
C18 C13 1_555 1_555
C19 C10 1_555 1_555
C20 C17 1_555 1_555
C21 C20 1_555 1_555
C22 C20 1_555 1_555
C23 C22 1_555 1_555
C24 C23 1_555 1_555
O1 C3 1_555 1_555
O2 C12 1_555 1_555
O3 C24 1_555 1_555
O4 C24 1_555 1_555
C25 C5 1_555 1_555
C26 C25 1_555 1_555
C27 C25 1_555 1_555
C28 C27 1_555 1_555
C29 C28 1_555 1_555
C30 C29 1_555 1_555
C31 C30 1_555 1_555
C32 C27 1_555 1_555
O5 C25 1_555 1_555
H1 C1 1_555 1_555
H2 C1 1_555 1_555
H3 C2 1_555 1_555
H4 C3 1_555 1_555
H5 C4 1_555 1_555
H6 C4 1_555 1_555
H7 C6 1_555 1_555
H8 C6 1_555 1_555
H9 C7 1_555 1_555
H10 C7 1_555 1_555
H11 C8 1_555 1_555
H12 C9 1_555 1_555
H13 C11 1_555 1_555
H14 C11 1_555 1_555
H15 C12 1_555 1_555
H16 C14 1_555 1_555
H17 C15 1_555 1_555
H18 C15 1_555 1_555
H19 C16 1_555 1_555
H20 C16 1_555 1_555
H21 C17 1_555 1_555
H22 C18 1_555 1_555
H23 C18 1_555 1_555
H24 C18 1_555 1_555
H25 C19 1_555 1_555
H26 C19 1_555 1_555
H27 C19 1_555 1_555
H28 C20 1_555 1_555
H29 C21 1_555 1_555
H30 C21 1_555 1_555
H31 C21 1_555 1_555
H32 C22 1_555 1_555
H33 C22 1_555 1_555
H34 C23 1_555 1_555
H35 C23 1_555 1_555
H36 O1 1_555 1_555
H37 O2 1_555 1_555
H38 O4 1_555 1_555
H39 C26 1_555 1_555
H40 C26 1_555 1_555
H41 C26 1_555 1_555
H42 C28 1_555 1_555
H43 C29 1_555 1_555
H44 C30 1_555 1_555
H45 C31 1_555 1_555
H46 C32 1_555 1_555
H47 O5 1_555 1_555
C5 C10 1_555 1_555
C13 C14 1_555 1_555
C16 C17 1_555 1_555
C31 C32 1_555 1_555

#END
