
#######################################################################
#
#                 Cambridge Crystallographic Data Centre
#                                CCDC 
#
#######################################################################
#
# If this CIF has been generated from an entry in the Cambridge 
# Structural Database, then it will include bibliographic, chemical, 
# crystal, experimental, refinement or atomic coordinate data resulting 
# from the CCDC's data processing and validation procedures.
#
#######################################################################

data_DAJPIN
_chemical_compound_source        'Mortonia genus'
_chemical_name_common            
'5,6-bis[(benzenecarbonyl)oxy]-9-hydroxy-2,2,5a,9-tetramethyl-5,5a,6,7,8,9-hexahydro-1-benzoxepine-9a(2H)-carboxylic acid'
_chemical_formula_moiety         'C29 H32 O8'
_chemical_name_systematic        'Mortonin C'
_symmetry_cell_setting           orthorhombic
_symmetry_space_group_name_H-M   'P 21 21 21'
_symmetry_Int_Tables_number      19
_space_group_name_Hall           'P 2ac 2ab'
loop_
_symmetry_equiv_pos_site_id
_symmetry_equiv_pos_as_xyz
1 x,y,z
2 1/2+x,1/2-y,-z
3 -x,1/2+y,1/2-z
4 1/2-x,-y,1/2+z
_cell_length_a                   11.372(2)
_cell_length_b                   13.012(2)
_cell_length_c                   18.396(2)
_cell_angle_alpha                90
_cell_angle_beta                 90
_cell_angle_gamma                90
_cell_volume                     2722.1
_cell_formula_units_Z            4
loop_
_atom_site_label
_atom_site_type_symbol
_atom_site_fract_x
_atom_site_fract_y
_atom_site_fract_z
O1 O 1.1836(2) 0.8234(2) 0.0010(1)
O2 O 1.0374(2) 0.6939(1) 0.0588(1)
O3 O 1.2026(2) 0.7265(2) 0.2120(1)
O4 O 1.2806(2) 0.7236(2) 0.1033(1)
O5 O 0.7776(1) 0.8758(2) 0.1717(1)
O6 O 0.6324(2) 0.7788(2) 0.1256(1)
O7 O 0.8679(2) 0.7312(2) 0.2726(1)
O8 O 0.9989(2) 0.6611(2) 0.3482(1)
C1 C 0.8659(2) 0.8372(2) 0.1207(1)
C2 C 0.8937(3) 0.9254(3) 0.0701(2)
C3 C 0.9915(3) 0.8964(3) 0.0172(1)
C4 C 1.1028(2) 0.8628(2) 0.0552(1)
C5 C 1.0729(2) 0.7707(2) 0.1096(1)
C6 C 1.1902(2) 0.7393(2) 0.1482(1)
C7 C 0.9012(3) 0.5705(2) 0.1128(2)
C8 C 0.8698(3) 0.6206(2) 0.1713(2)
C9 C 0.9398(2) 0.7018(2) 0.2103(1)
C10 C 0.9718(2) 0.7994(2) 0.1655(1)
C11 C 1.0135(3) 0.5857(2) 0.0711(2)
C12 C 0.9984(3) 0.5467(3) -0.0065(2)
C13 C 1.1135(3) 0.5284(2) 0.1090(2)
C14 C 1.1698(3) 0.9522(2) 0.0886(2)
C15 C 1.0107(2) 0.8830(2) 0.2204(1)
C16 C 0.6669(2) 0.8442(2) 0.1668(1)
C17 C 0.5887(2) 0.8998(2) 0.2191(1)
C18 C 0.4760(3) 0.8620(3) 0.2307(2)
C19 C 0.4024(3) 0.9103(4) 0.2791(2)
C20 C 0.4386(3) 0.9961(4) 0.3154(2)
C21 C 0.5496(3) 1.0360(4) 0.3034(2)
C22 C 0.6244(3) 0.9876(3) 0.2551(2)
C23 C 0.9079(3) 0.7050(2) 0.3376(1)
C24 C 0.8265(3) 0.7366(2) 0.3972(2)
C25 C 0.7217(4) 0.7803(5) 0.3849(2)
C26 C 0.6517(5) 0.8104(7) 0.4428(2)
C27 C 0.6884(5) 0.7969(5) 0.5122(3)
C28 C 0.7914(5) 0.7552(5) 0.5247(2)
C29 C 0.8626(4) 0.7262(4) 0.4673(2)
H1 H 0.8404(2) 0.7800(2) 0.0917(1)
H2 H 0.8243(3) 0.9429(3) 0.0430(2)
H3 H 0.9183(3) 0.9837(3) 0.0983(2)
H4 H 1.0091(3) 0.9550(3) -0.0126(1)
H5 H 0.9644(3) 0.8410(3) -0.0129(1)
H6 H 0.8475(3) 0.5196(2) 0.0947(2)
H7 H 0.7944(3) 0.6037(2) 0.1916(2)
H8 H 1.0151(2) 0.6729(2) 0.2222(1)
H9 H 0.9936(3) 0.4730(3) -0.0062(2)
H10 H 1.0645(3) 0.5678(3) -0.0353(2)
H11 H 0.9275(3) 0.5746(3) -0.0268(2)
H12 H 1.1226(3) 0.5543(2) 0.1575(2)
H13 H 1.1853(3) 0.5386(2) 0.0824(2)
H14 H 1.0955(3) 0.4564(2) 0.1108(2)
H15 H 1.2059(3) 0.9920(2) 0.0508(2)
H16 H 1.2295(3) 0.9263(2) 0.1207(2)
H17 H 1.1164(3) 0.9948(2) 0.1155(2)
H18 H 1.0052(2) 0.9495(2) 0.1980(1)
H19 H 1.0905(2) 0.8706(2) 0.2350(1)
H20 H 0.9604(2) 0.8809(2) 0.2624(1)
H21 H 0.4496(3) 0.8022(3) 0.2049(2)
H22 H 0.3249(3) 0.8835(4) 0.2874(2)
H23 H 0.3868(3) 1.0288(4) 0.3495(2)
H24 H 0.5744(3) 1.0971(4) 0.3284(2)
H25 H 0.7016(3) 1.0150(3) 0.2466(2)
H26 H 0.6952(4) 0.7908(5) 0.3359(2)
H27 H 0.5765(5) 0.8413(6) 0.4336(2)
H28 H 0.6393(5) 0.8176(5) 0.5521(3)
H29 H 0.8174(5) 0.7448(5) 0.5738(2)
H30 H 0.9391(4) 0.6982(4) 0.4771(2)
H31 H 1.1457(28) 0.7918(26) -0.0268(16)
H32 H 1.2622(24) 0.7475(23) 0.0652(15)
loop_
_geom_bond_atom_site_label_1
_geom_bond_atom_site_label_2
_geom_bond_site_symmetry_1
_geom_bond_site_symmetry_2
O1 C4 1_555 1_555
O2 C5 1_555 1_555
O3 C6 1_555 1_555
O4 C6 1_555 1_555
O5 C1 1_555 1_555
O6 C16 1_555 1_555
O7 C9 1_555 1_555
O8 C23 1_555 1_555
C1 C2 1_555 1_555
C2 C3 1_555 1_555
C3 C4 1_555 1_555
C4 C5 1_555 1_555
C5 C6 1_555 1_555
C7 C8 1_555 1_555
C8 C9 1_555 1_555
C9 C10 1_555 1_555
C10 C1 1_555 1_555
C11 O2 1_555 1_555
C12 C11 1_555 1_555
C13 C11 1_555 1_555
C14 C4 1_555 1_555
C15 C10 1_555 1_555
C16 O5 1_555 1_555
C17 C16 1_555 1_555
C18 C17 1_555 1_555
C19 C18 1_555 1_555
C20 C19 1_555 1_555
C21 C20 1_555 1_555
C22 C17 1_555 1_555
C23 O7 1_555 1_555
C24 C23 1_555 1_555
C25 C24 1_555 1_555
C26 C25 1_555 1_555
C27 C26 1_555 1_555
C28 C27 1_555 1_555
C29 C24 1_555 1_555
H1 C1 1_555 1_555
H2 C2 1_555 1_555
H3 C2 1_555 1_555
H4 C3 1_555 1_555
H5 C3 1_555 1_555
H6 C7 1_555 1_555
H7 C8 1_555 1_555
H8 C9 1_555 1_555
H9 C12 1_555 1_555
H10 C12 1_555 1_555
H11 C12 1_555 1_555
H12 C13 1_555 1_555
H13 C13 1_555 1_555
H14 C13 1_555 1_555
H15 C14 1_555 1_555
H16 C14 1_555 1_555
H17 C14 1_555 1_555
H18 C15 1_555 1_555
H19 C15 1_555 1_555
H20 C15 1_555 1_555
H21 C18 1_555 1_555
H22 C19 1_555 1_555
H23 C20 1_555 1_555
H24 C21 1_555 1_555
H25 C22 1_555 1_555
H26 C25 1_555 1_555
H27 C26 1_555 1_555
H28 C27 1_555 1_555
H29 C28 1_555 1_555
H30 C29 1_555 1_555
H31 O1 1_555 1_555
H32 O4 1_555 1_555
C5 C10 1_555 1_555
C7 C11 1_555 1_555
C21 C22 1_555 1_555
C28 C29 1_555 1_555

#END
