
#######################################################################
#
#                 Cambridge Crystallographic Data Centre
#                                CCDC 
#
#######################################################################
#
# If this CIF has been generated from an entry in the Cambridge 
# Structural Database, then it will include bibliographic, chemical, 
# crystal, experimental, refinement or atomic coordinate data resulting 
# from the CCDC's data processing and validation procedures.
#
#######################################################################

data_DAJSEM01
_chemical_formula_moiety         'C10 H16 O5'
_chemical_name_systematic        4,5-Dihydroxy-10-methyloxecane-2,7-dione
_symmetry_cell_setting           monoclinic
_symmetry_space_group_name_H-M   'P 21'
_symmetry_Int_Tables_number      4
_space_group_name_Hall           'P 2yb'
loop_
_symmetry_equiv_pos_site_id
_symmetry_equiv_pos_as_xyz
1 x,y,z
2 -x,1/2+y,-z
_cell_length_a                   5.5589(2)
_cell_length_b                   7.6779(3)
_cell_length_c                   12.6494(4)
_cell_angle_alpha                90
_cell_angle_beta                 92.670(3)
_cell_angle_gamma                90
_cell_volume                     539.299
_exptl_crystal_colour            colorless
_exptl_crystal_description       plate
_cell_formula_units_Z            2
loop_
_atom_site_label
_atom_site_type_symbol
_atom_site_fract_x
_atom_site_fract_y
_atom_site_fract_z
O1 O 0.21755(16) 0.22647(13) 0.17914(7)
O2 O 0.4200(2) 0.46787(16) 0.13817(10)
O3 O 0.01181(17) 0.44016(14) 0.45687(8)
H1 H 0.0057 0.3809 0.5134
O4 O 0.32462(18) 0.20405(13) 0.54047(7)
H2 H 0.2322 0.1169 0.5303
O5 O 0.23148(17) -0.06109(13) 0.35766(7)
C1 C 0.2915(3) 0.39091(18) 0.19552(11)
C2 C 0.1895(3) 0.4685(2) 0.29331(11)
H3 H 0.0340 0.5247 0.2726
H4 H 0.3002 0.5612 0.3200
C3 C 0.1475(2) 0.34330(17) 0.38399(10)
H5 H 0.0507 0.2415 0.3570
C4 C 0.3792(2) 0.27858(16) 0.44126(10)
H6 H 0.4789 0.3844 0.4578
C5 C 0.5331(2) 0.15977(17) 0.37526(10)
H7 H 0.6022 0.2312 0.3190
H8 H 0.6692 0.1170 0.4214
C6 C 0.4110(2) 0.00353(16) 0.32334(10)
C7 C 0.5217(3) -0.07180(18) 0.22626(11)
H9 H 0.5619 -0.1959 0.2389
H10 H 0.6727 -0.0089 0.2127
C8 C 0.3472(3) -0.0561(2) 0.12953(11)
H11 H 0.4077 -0.1282 0.0715
H12 H 0.1886 -0.1033 0.1477
C9 C 0.3141(3) 0.1295(2) 0.09047(11)
H13 H 0.4736 0.1792 0.0729
C10 C 0.1398(3) 0.1464(3) -0.00385(13)
H14 H -0.0202 0.1077 0.0155
H15 H 0.1947 0.0742 -0.0619
H16 H 0.1317 0.2684 -0.0265
loop_
_geom_bond_atom_site_label_1
_geom_bond_atom_site_label_2
_geom_bond_site_symmetry_1
_geom_bond_site_symmetry_2
O1 C1 1_555 1_555
O2 C1 1_555 1_555
O3 H1 1_555 1_555
O4 H2 1_555 1_555
O5 C6 1_555 1_555
C1 C2 1_555 1_555
C2 H3 1_555 1_555
H4 C2 1_555 1_555
C3 O3 1_555 1_555
H5 C3 1_555 1_555
C4 O4 1_555 1_555
H6 C4 1_555 1_555
C5 C4 1_555 1_555
H7 C5 1_555 1_555
H8 C5 1_555 1_555
C6 C5 1_555 1_555
C7 C6 1_555 1_555
H9 C7 1_555 1_555
H10 C7 1_555 1_555
C8 C7 1_555 1_555
H11 C8 1_555 1_555
H12 C8 1_555 1_555
C9 O1 1_555 1_555
H13 C9 1_555 1_555
C10 C9 1_555 1_555
H14 C10 1_555 1_555
H15 C10 1_555 1_555
H16 C10 1_555 1_555
C2 C3 1_555 1_555
C3 C4 1_555 1_555
C8 C9 1_555 1_555

#END
