
#######################################################################
#
#                 Cambridge Crystallographic Data Centre
#                                CCDC 
#
#######################################################################
#
# If this CIF has been generated from an entry in the Cambridge 
# Structural Database, then it will include bibliographic, chemical, 
# crystal, experimental, refinement or atomic coordinate data resulting 
# from the CCDC's data processing and validation procedures.
#
#######################################################################

data_DAJTEO
_chemical_formula_moiety         'C14 H17 N1 O3 Si1'
_chemical_name_systematic        1-(2-Phenylethynyl)silatrane
_symmetry_cell_setting           monoclinic
_symmetry_space_group_name_H-M   'P 21'
_symmetry_Int_Tables_number      4
_space_group_name_Hall           'P 2yb'
loop_
_symmetry_equiv_pos_site_id
_symmetry_equiv_pos_as_xyz
1 x,y,z
2 -x,1/2+y,-z
_cell_length_a                   6.4506(2)
_cell_length_b                   11.2365(4)
_cell_length_c                   9.5951(3)
_cell_angle_alpha                90
_cell_angle_beta                 107.351(2)
_cell_angle_gamma                90
_cell_volume                     663.827
_exptl_crystal_colour            colorless
_exptl_crystal_description       plate
_chemical_melting_point          259-261deg.C
_cell_formula_units_Z            2
_exptl_crystal_recrystallization_method chloroform/hexane
loop_
_atom_site_label
_atom_site_type_symbol
_atom_site_fract_x
_atom_site_fract_y
_atom_site_fract_z
Si1 Si 0.45994(11) 0.40021(6) 0.96441(7)
N1 N 0.7445(3) 0.36798(19) 1.1349(2)
O1 O 0.3313(3) 0.35748(16) 1.08312(19)
O2 O 0.5530(3) 0.29653(16) 0.87417(18)
O3 O 0.5542(3) 0.53863(17) 0.96964(19)
C1 C 0.2035(4) 0.4345(2) 0.8137(3)
C2 C 0.0397(4) 0.4716(2) 0.7260(3)
C3 C -0.1521(4) 0.5248(2) 0.6256(3)
C4 C -0.3619(5) 0.4836(3) 0.6174(3)
C5 C -0.5430(5) 0.5396(3) 0.5255(3)
C6 C -0.5204(5) 0.6367(3) 0.4410(3)
C7 C -0.3154(5) 0.6772(3) 0.4477(3)
C8 C -0.1314(5) 0.6220(2) 0.5390(3)
C9 C 0.6728(4) 0.3667(2) 1.2685(3)
C10 C 0.4479(4) 0.3113(3) 1.2236(3)
C11 C 0.8234(4) 0.2502(2) 1.1022(3)
C12 C 0.7611(4) 0.2423(2) 0.9353(3)
C13 C 0.8914(4) 0.4675(2) 1.1284(3)
C14 C 0.7461(4) 0.5762(3) 1.0799(3)
H1 H -0.375(5) 0.418(3) 0.678(3)
H2 H -0.692(6) 0.512(3) 0.527(4)
H3 H -0.661(5) 0.673(3) 0.379(4)
H4 H -0.289(5) 0.739(3) 0.391(3)
H5 H 0.015(5) 0.646(3) 0.543(3)
H6 H 0.677(5) 0.454(3) 1.302(3)
H7 H 0.775(5) 0.324(3) 1.347(3)
H8 H 0.468(5) 0.220(4) 1.221(4)
H9 H 0.366(4) 0.336(2) 1.288(3)
H10 H 0.747(5) 0.184(3) 1.136(4)
H11 H 0.988(4) 0.247(3) 1.153(3)
H12 H 0.738(5) 0.152(3) 0.906(4)
H13 H 0.879(4) 0.284(3) 0.900(3)
H14 H 0.969(5) 0.446(3) 1.061(3)
H15 H 1.019(5) 0.479(3) 1.230(4)
H16 H 0.821(5) 0.637(3) 1.036(4)
H17 H 0.708(4) 0.610(2) 1.157(3)
loop_
_geom_bond_atom_site_label_1
_geom_bond_atom_site_label_2
_geom_bond_site_symmetry_1
_geom_bond_site_symmetry_2
Si1 N1 1_555 1_555
N1 C9 1_555 1_555
O1 Si1 1_555 1_555
O2 Si1 1_555 1_555
O3 Si1 1_555 1_555
C1 Si1 1_555 1_555
C2 C1 1_555 1_555
C3 C2 1_555 1_555
C4 C3 1_555 1_555
C5 C4 1_555 1_555
C6 C5 1_555 1_555
C7 C6 1_555 1_555
C8 C3 1_555 1_555
C9 C10 1_555 1_555
C10 O1 1_555 1_555
C11 N1 1_555 1_555
C12 O2 1_555 1_555
C13 N1 1_555 1_555
C14 O3 1_555 1_555
H1 C4 1_555 1_555
H2 C5 1_555 1_555
H3 C6 1_555 1_555
H4 C7 1_555 1_555
H5 C8 1_555 1_555
H6 C9 1_555 1_555
H7 C9 1_555 1_555
H8 C10 1_555 1_555
H9 C10 1_555 1_555
H10 C11 1_555 1_555
H11 C11 1_555 1_555
H12 C12 1_555 1_555
H13 C12 1_555 1_555
H14 C13 1_555 1_555
H15 C13 1_555 1_555
H16 C14 1_555 1_555
H17 C14 1_555 1_555
C7 C8 1_555 1_555
C11 C12 1_555 1_555
C13 C14 1_555 1_555

#END
