
#######################################################################
#
#                 Cambridge Crystallographic Data Centre
#                                CCDC 
#
#######################################################################
#
# If this CIF has been generated from an entry in the Cambridge 
# Structural Database, then it will include bibliographic, chemical, 
# crystal, experimental, refinement or atomic coordinate data resulting 
# from the CCDC's data processing and validation procedures.
#
#######################################################################

data_DAJXOC
_chemical_formula_moiety         'C22 H18 N4 O1 S1,C1 H1 Cl3'
_chemical_name_systematic        
'2-(4-t-Butylphenyl)-5-(5-(2-(2-pyrazinyl)ethynyl)-2-thienyl)-1,3,4-oxadiazole chloroform solvate'
_symmetry_cell_setting           monoclinic
_symmetry_space_group_name_H-M   'P 21/c'
_symmetry_Int_Tables_number      14
_space_group_name_Hall           '-P 2ybc'
loop_
_symmetry_equiv_pos_site_id
_symmetry_equiv_pos_as_xyz
1 x,y,z
2 x,1/2-y,1/2+z
3 -x,-y,-z
4 -x,1/2+y,1/2-z
_cell_length_a                   6.1798(4)
_cell_length_b                   26.851(8)
_cell_length_c                   13.650(1)
_cell_angle_alpha                90
_cell_angle_beta                 92.26(1)
_cell_angle_gamma                90
_cell_volume                     2263.23
_exptl_crystal_colour            yellow
_exptl_crystal_description       needle
_cell_formula_units_Z            4
loop_
_atom_site_label
_atom_site_type_symbol
_atom_site_fract_x
_atom_site_fract_y
_atom_site_fract_z
S1 S 0.45892(7) 0.639576(18) 0.37704(4)
O1 O 0.6282(2) 0.49642(5) 0.37987(10)
N1 N 0.2831(3) 0.47728(6) 0.35050(13)
N2 N 0.3012(3) 0.52922(6) 0.36118(13)
N3 N 0.4832(3) 0.90458(6) 0.39763(13)
N4 N 0.8653(3) 0.84812(6) 0.38362(12)
C1 C 0.4778(3) 0.45968(7) 0.36181(14)
C2 C 0.5041(3) 0.53829(7) 0.37778(14)
C3 C 0.6087(3) 0.58597(7) 0.39225(13)
C4 C 0.8230(3) 0.59580(7) 0.41455(14)
H1 H 0.927(3) 0.5697(7) 0.4250(14)
C5 C 0.8663(3) 0.64711(7) 0.41931(14)
H2 H 1.008(3) 0.6609(7) 0.4349(14)
C6 C 0.6861(3) 0.67588(7) 0.40088(14)
C7 C 0.6720(3) 0.72854(7) 0.39880(14)
C8 C 0.6665(3) 0.77329(7) 0.39590(14)
C9 C 0.6700(3) 0.82665(7) 0.39304(13)
C10 C 0.4817(3) 0.85482(8) 0.39963(15)
H3 H 0.343(3) 0.8381(8) 0.4053(15)
C11 C 0.6772(4) 0.92560(8) 0.38848(16)
H4 H 0.683(3) 0.9611(8) 0.3885(14)
C12 C 0.8647(4) 0.89792(8) 0.38122(16)
H5 H 1.008(4) 0.9124(8) 0.3749(16)
C13 C 0.5481(3) 0.40822(7) 0.35723(13)
C14 C 0.7646(3) 0.39442(7) 0.34984(16)
H6 H 0.871(3) 0.4198(8) 0.3465(15)
C15 C 0.8176(3) 0.34457(8) 0.34571(16)
H7 H 0.962(4) 0.3358(8) 0.3396(16)
C16 C 0.6645(3) 0.30673(7) 0.34959(13)
C17 C 0.4490(3) 0.32143(7) 0.35569(14)
H8 H 0.338(3) 0.2963(8) 0.3591(14)
C18 C 0.3924(3) 0.37097(7) 0.35933(14)
H9 H 0.246(4) 0.3809(8) 0.3611(15)
C19 C 0.7358(3) 0.25208(7) 0.34946(14)
C20 C 0.8855(3) 0.24290(8) 0.44002(16)
H10 H 1.019(3) 0.2628(7) 0.4403(14)
H11 H 0.926(3) 0.2090(8) 0.4425(14)
H12 H 0.812(3) 0.2497(8) 0.5040(17)
C21 C 0.5439(3) 0.21619(8) 0.35317(15)
H13 H 0.443(3) 0.2183(7) 0.2945(15)
H14 H 0.465(3) 0.2212(7) 0.4134(14)
H15 H 0.595(3) 0.1822(8) 0.3554(15)
C22 C 0.8605(3) 0.24152(8) 0.25674(16)
H16 H 0.987(3) 0.2641(7) 0.2516(15)
H17 H 0.768(3) 0.2464(7) 0.1996(16)
H18 H 0.909(3) 0.2069(8) 0.2561(15)
Cl1 Cl 0.79983(9) 0.618422(19) 0.15301(4)
Cl2 Cl 1.19541(9) 0.56948(2) 0.09978(5)
Cl3 Cl 0.81317(9) 0.51111(2) 0.13907(5)
C23 C 0.9635(3) 0.56512(8) 0.17035(17)
H19 H 1.010(4) 0.5626(8) 0.2396(17)
loop_
_geom_bond_atom_site_label_1
_geom_bond_atom_site_label_2
_geom_bond_site_symmetry_1
_geom_bond_site_symmetry_2
S1 C3 1_555 1_555
O1 C1 1_555 1_555
N1 N2 1_555 1_555
N2 C2 1_555 1_555
N3 C10 1_555 1_555
N4 C9 1_555 1_555
C1 N1 1_555 1_555
C2 O1 1_555 1_555
C3 C2 1_555 1_555
C4 C3 1_555 1_555
H1 C4 1_555 1_555
C5 C4 1_555 1_555
H2 C5 1_555 1_555
C6 S1 1_555 1_555
C7 C6 1_555 1_555
C8 C7 1_555 1_555
C9 C8 1_555 1_555
C10 C9 1_555 1_555
H3 C10 1_555 1_555
C11 N3 1_555 1_555
H4 C11 1_555 1_555
C12 N4 1_555 1_555
H5 C12 1_555 1_555
C13 C1 1_555 1_555
C14 C13 1_555 1_555
H6 C14 1_555 1_555
C15 C14 1_555 1_555
H7 C15 1_555 1_555
C16 C15 1_555 1_555
C17 C16 1_555 1_555
H8 C17 1_555 1_555
C18 C13 1_555 1_555
H9 C18 1_555 1_555
C19 C16 1_555 1_555
C20 C19 1_555 1_555
H10 C20 1_555 1_555
H11 C20 1_555 1_555
H12 C20 1_555 1_555
C21 C19 1_555 1_555
H13 C21 1_555 1_555
H14 C21 1_555 1_555
H15 C21 1_555 1_555
C22 C19 1_555 1_555
H16 C22 1_555 1_555
H17 C22 1_555 1_555
H18 C22 1_555 1_555
Cl1 C23 1_555 1_555
Cl2 C23 1_555 1_555
Cl3 C23 1_555 1_555
C23 H19 1_555 1_555
C5 C6 1_555 1_555
C11 C12 1_555 1_555
C17 C18 1_555 1_555

#END
