
#######################################################################
#
#                 Cambridge Crystallographic Data Centre
#                                CCDC 
#
#######################################################################
#
# If this CIF has been generated from an entry in the Cambridge 
# Structural Database, then it will include bibliographic, chemical, 
# crystal, experimental, refinement or atomic coordinate data resulting 
# from the CCDC's data processing and validation procedures.
#
#######################################################################

data_DAJXES
_chemical_formula_moiety         'C24 H20 N2 O1 S1'
_chemical_name_systematic        
2-(4-t-Butylphenyl)-5-(4-(2-(3-thienyl)ethynyl)phenyl)-1,3,4-oxadiazole
_symmetry_cell_setting           triclinic
_symmetry_space_group_name_H-M   'P -1'
_symmetry_Int_Tables_number      2
_space_group_name_Hall           '-P 1'
loop_
_symmetry_equiv_pos_site_id
_symmetry_equiv_pos_as_xyz
1 x,y,z
2 -x,-y,-z
_cell_length_a                   6.1665(5)
_cell_length_b                   6.9748(5)
_cell_length_c                   22.943(3)
_cell_angle_alpha                83.55(1)
_cell_angle_beta                 84.09(1)
_cell_angle_gamma                83.67(1)
_cell_volume                     970.449
_exptl_crystal_colour            off-white
_exptl_crystal_description       plate
_chemical_melting_point          '442-443 K'
_cell_formula_units_Z            2
loop_
_atom_site_label
_atom_site_type_symbol
_atom_site_fract_x
_atom_site_fract_y
_atom_site_fract_z
S1 S 1.24303(5) 0.22921(4) 0.165120(12)
O1 O 0.34777(11) 0.27018(10) 0.63138(3)
N1 N -0.01344(14) 0.29473(13) 0.64981(4)
N2 N 0.03881(14) 0.29266(13) 0.58873(4)
C1 C 0.17198(15) 0.28149(13) 0.67249(4)
C2 C 0.25073(16) 0.27902(13) 0.58012(4)
C3 C 0.38881(15) 0.26926(13) 0.52504(4)
C4 C 0.61018(16) 0.19927(14) 0.52541(4)
H1 H 0.675(2) 0.159(2) 0.5615(7)
C5 C 0.73887(16) 0.18578(14) 0.47272(4)
H2 H 0.889(2) 0.133(2) 0.4721(6)
C6 C 0.64991(16) 0.24424(14) 0.41880(4)
C7 C 0.42869(17) 0.31767(14) 0.41883(4)
H3 H 0.367(3) 0.361(2) 0.3828(7)
C8 C 0.29951(16) 0.32982(14) 0.47158(4)
H4 H 0.152(2) 0.389(2) 0.4703(6)
C9 C 0.78961(18) 0.23142(14) 0.36525(5)
C10 C 0.91559(18) 0.22140(15) 0.32185(5)
C11 C 0.21153(15) 0.28099(13) 0.73407(4)
C12 C 0.40436(15) 0.34172(14) 0.74964(4)
H5 H 0.512(3) 0.381(2) 0.7193(7)
C13 C 0.43439(15) 0.34582(14) 0.80865(4)
H6 H 0.563(2) 0.390(2) 0.8176(6)
C14 C 0.27633(15) 0.28707(13) 0.85362(4)
C15 C 0.08661(16) 0.22363(15) 0.83686(4)
H7 H -0.022(3) 0.181(2) 0.8654(7)
C16 C 0.05272(15) 0.22188(14) 0.77807(4)
H8 H -0.076(2) 0.176(2) 0.7667(7)
C17 C 0.30426(16) 0.30243(15) 0.91840(4)
C18 C 0.54485(18) 0.2609(2) 0.93105(5)
H9 H 0.602(3) 0.133(3) 0.9202(8)
H10 H 0.638(3) 0.361(3) 0.9105(8)
H11 H 0.555(3) 0.258(2) 0.9737(7)
C19 C 0.2224(2) 0.51047(19) 0.93191(5)
H12 H 0.238(3) 0.524(3) 0.9725(8)
H13 H 0.310(3) 0.609(3) 0.9073(8)
H14 H 0.065(3) 0.539(3) 0.9252(8)
C20 C 0.1722(2) 0.1611(2) 0.95984(5)
H15 H 0.214(3) 0.030(3) 0.9503(7)
H16 H 0.203(3) 0.168(2) 1.0013(7)
H17 H 0.013(3) 0.189(3) 0.9570(7)
C21 C 1.07021(17) 0.20923(14) 0.27132(5)
C22 C 1.02185(18) 0.27010(15) 0.21475(5)
H18 H 0.887(3) 0.329(2) 0.2024(7)
C23 C 1.29378(18) 0.12923(16) 0.27361(5)
H19 H 1.360(3) 0.080(3) 0.3077(8)
C24 C 1.40807(18) 0.13230(16) 0.21861(6)
H20 H 1.538(3) 0.092(3) 0.2109(8)
loop_
_geom_bond_atom_site_label_1
_geom_bond_atom_site_label_2
_geom_bond_site_symmetry_1
_geom_bond_site_symmetry_2
S1 C22 1_555 1_555
O1 C1 1_555 1_555
N1 N2 1_555 1_555
N2 C2 1_555 1_555
C1 N1 1_555 1_555
C2 O1 1_555 1_555
C3 C2 1_555 1_555
C4 C3 1_555 1_555
H1 C4 1_555 1_555
C5 C4 1_555 1_555
H2 C5 1_555 1_555
C6 C5 1_555 1_555
C7 C6 1_555 1_555
H3 C7 1_555 1_555
C8 C3 1_555 1_555
H4 C8 1_555 1_555
C9 C6 1_555 1_555
C10 C9 1_555 1_555
C11 C1 1_555 1_555
C12 C11 1_555 1_555
H5 C12 1_555 1_555
C13 C12 1_555 1_555
H6 C13 1_555 1_555
C14 C13 1_555 1_555
C15 C14 1_555 1_555
H7 C15 1_555 1_555
C16 C11 1_555 1_555
H8 C16 1_555 1_555
C17 C14 1_555 1_555
C18 C17 1_555 1_555
H9 C18 1_555 1_555
H10 C18 1_555 1_555
H11 C18 1_555 1_555
C19 C17 1_555 1_555
H12 C19 1_555 1_555
H13 C19 1_555 1_555
H14 C19 1_555 1_555
C20 C17 1_555 1_555
H15 C20 1_555 1_555
H16 C20 1_555 1_555
H17 C20 1_555 1_555
C21 C10 1_555 1_555
C22 C21 1_555 1_555
H18 C22 1_555 1_555
C23 C21 1_555 1_555
H19 C23 1_555 1_555
C24 S1 1_555 1_555
H20 C24 1_555 1_555
C7 C8 1_555 1_555
C15 C16 1_555 1_555
C23 C24 1_555 1_555

#END
