
#######################################################################
#
#                 Cambridge Crystallographic Data Centre
#                                CCDC 
#
#######################################################################
#
# If this CIF has been generated from an entry in the Cambridge 
# Structural Database, then it will include bibliographic, chemical, 
# crystal, experimental, refinement or atomic coordinate data resulting 
# from the CCDC's data processing and validation procedures.
#
#######################################################################

data_DAJXAO
_chemical_formula_moiety         'C24 H20 N4 O1'
_chemical_name_systematic        
2-(4-t-Butylphenyl)-5-(4-(2-(2-pyrazinyl)ethynyl)phenyl)-1,3,4-oxadiazole
_symmetry_cell_setting           monoclinic
_symmetry_space_group_name_H-M   'P 21/a'
_symmetry_Int_Tables_number      14
_space_group_name_Hall           '-P 2yab'
loop_
_symmetry_equiv_pos_site_id
_symmetry_equiv_pos_as_xyz
1 x,y,z
2 1/2+x,1/2-y,z
3 -x,-y,-z
4 1/2-x,1/2+y,-z
_cell_length_a                   22.881(3)
_cell_length_b                   6.314(1)
_cell_length_c                   28.860(4)
_cell_angle_alpha                90
_cell_angle_beta                 109.86(1)
_cell_angle_gamma                90
_cell_volume                     3921.45
_exptl_crystal_colour            yellow
_exptl_crystal_description       plate
_chemical_melting_point          '463-465 K'
_cell_formula_units_Z            8
loop_
_atom_site_label
_atom_site_type_symbol
_atom_site_fract_x
_atom_site_fract_y
_atom_site_fract_z
O1 O 0.18286(5) 0.33758(16) 0.36873(4)
N1 N 0.21750(6) 0.0122(2) 0.39053(5)
N2 N 0.16840(6) 0.0522(2) 0.40828(5)
N3 N -0.10160(6) 1.1609(2) 0.46636(5)
N4 N -0.21674(6) 1.0139(2) 0.46754(5)
C1 C 0.22416(7) 0.1830(2) 0.36794(5)
C2 C 0.15014(7) 0.2437(2) 0.39512(5)
C3 C 0.10077(7) 0.3657(2) 0.40395(5)
C4 C 0.08983(7) 0.5746(2) 0.38759(6)
H1 H 0.1153 0.6392 0.3715
C5 C 0.04185(7) 0.6872(2) 0.39483(6)
H2 H 0.0343 0.8292 0.3835
C6 C 0.00437(7) 0.5947(2) 0.41876(6)
C7 C 0.01605(7) 0.3855(2) 0.43568(6)
H3 H -0.0091 0.3213 0.4521
C8 C 0.06417(7) 0.2726(2) 0.42861(5)
H4 H 0.0723 0.1314 0.4405
C9 C -0.04367(7) 0.7180(3) 0.42748(6)
C10 C -0.08102(7) 0.8294(3) 0.43628(6)
C11 C 0.26859(7) 0.2292(2) 0.34308(5)
C12 C 0.26835(8) 0.4219(3) 0.32043(7)
H5 H 0.2384 0.5259 0.3206
C13 C 0.31124(8) 0.4658(3) 0.29735(7)
H6 H 0.3100 0.5993 0.2818
C14 C 0.35597(7) 0.3191(2) 0.29658(6)
C15 C 0.35534(8) 0.1253(3) 0.31958(7)
H7 H 0.3853 0.0208 0.3196
C16 C 0.31263(8) 0.0806(3) 0.34225(7)
H8 H 0.3135 -0.0533 0.3575
C17 C 0.40384(7) 0.3647(3) 0.27137(6)
C18 C 0.40737(9) 0.6015(3) 0.26105(8)
H9 H 0.4175 0.6808 0.2920
H10 H 0.3672 0.6495 0.2381
H11 H 0.4397 0.6255 0.2464
C19 C 0.46830(8) 0.2923(3) 0.30396(7)
H12 H 0.4795 0.3630 0.3361
H13 H 0.4987 0.3289 0.2881
H14 H 0.4681 0.1385 0.3086
C20 C 0.38545(9) 0.2450(3) 0.22266(7)
H15 H 0.4157 0.2746 0.2062
H16 H 0.3440 0.2906 0.2015
H17 H 0.3849 0.0926 0.2290
C21 C -0.12213(7) 0.9649(2) 0.45096(5)
C22 C -0.18021(7) 0.8947(2) 0.45062(6)
H18 H -0.1941 0.7578 0.4379
C23 C -0.19538(7) 1.2056(2) 0.48395(6)
H19 H -0.2194 1.2945 0.4971
C24 C -0.13901(7) 1.2790(2) 0.48234(6)
H20 H -0.1266 1.4194 0.4931
O2 O 0.31873(4) 0.81570(15) 0.12986(4)
N5 N 0.28883(6) 0.4857(2) 0.10900(5)
N6 N 0.33666(6) 0.5357(2) 0.09061(5)
N7 N 0.60225(6) 1.6698(2) 0.03468(5)
N8 N 0.71708(6) 1.5219(2) 0.03281(5)
C25 C 0.27984(7) 0.6542(2) 0.13138(5)
C26 C 0.35236(7) 0.7294(2) 0.10333(5)
C27 C 0.40015(7) 0.8578(2) 0.09410(5)
C28 C 0.40843(7) 1.0685(2) 0.10922(6)
H21 H 0.3816 1.1311 0.1243
C29 C 0.45569(7) 1.1863(2) 0.10232(6)
H22 H 0.4615 1.3295 0.1131
C30 C 0.49518(7) 1.0976(2) 0.07974(5)
C31 C 0.48583(7) 0.8866(2) 0.06356(6)
H23 H 0.5119 0.8248 0.0478
C32 C 0.43864(7) 0.7687(2) 0.07056(5)
H24 H 0.4322 0.6262 0.0594
C33 C 0.54274(7) 1.2247(2) 0.07138(6)
C34 C 0.58047(7) 1.3364(2) 0.06307(6)
C35 C 0.23520(7) 0.6874(2) 0.15649(5)
C36 C 0.23156(8) 0.8786(3) 0.17891(6)
H25 H 0.2590 0.9908 0.1783
C37 C 0.18846(8) 0.9076(3) 0.20221(7)
H26 H 0.1871 1.0395 0.2177
C38 C 0.14682(7) 0.7474(2) 0.20362(5)
C39 C 0.15112(7) 0.5563(3) 0.18099(6)
H27 H 0.1236 0.4441 0.1814
C40 C 0.19459(8) 0.5255(2) 0.15782(6)
H28 H 0.1966 0.3930 0.1428
C41 C 0.09682(7) 0.7882(3) 0.22696(6)
C42 C 0.12491(8) 0.8948(3) 0.27705(6)
H29 H 0.1426 1.0320 0.2729
H30 H 0.1577 0.8045 0.2988
H31 H 0.0925 0.9166 0.2917
C43 C 0.04813(8) 0.9350(3) 0.19214(7)
H32 H 0.0682 1.0664 0.1874
H33 H 0.0161 0.9679 0.2065
H34 H 0.0290 0.8647 0.1603
C44 C 0.06498(9) 0.5834(3) 0.23404(8)
H35 H 0.0354 0.6155 0.2509
H36 H 0.0963 0.4837 0.2539
H37 H 0.0428 0.5201 0.2018
C45 C 0.62222(7) 1.4718(2) 0.04906(5)
C46 C 0.67997(7) 1.4010(2) 0.04890(6)
H38 H 0.6933 1.2625 0.0606
C47 C 0.69638(7) 1.7158(2) 0.01760(6)
H39 H 0.7208 1.8061 0.0051
C48 C 0.64011(7) 1.7891(2) 0.01948(6)
H40 H 0.6281 1.9306 0.0095
loop_
_geom_bond_atom_site_label_1
_geom_bond_atom_site_label_2
_geom_bond_site_symmetry_1
_geom_bond_site_symmetry_2
O1 C1 1_555 1_555
N1 N2 1_555 1_555
N2 C2 1_555 1_555
N3 C21 1_555 1_555
N4 C22 1_555 1_555
C1 N1 1_555 1_555
C2 O1 1_555 1_555
C3 C2 1_555 1_555
C4 C3 1_555 1_555
H1 C4 1_555 1_555
C5 C4 1_555 1_555
H2 C5 1_555 1_555
C6 C5 1_555 1_555
C7 C6 1_555 1_555
H3 C7 1_555 1_555
C8 C3 1_555 1_555
H4 C8 1_555 1_555
C9 C6 1_555 1_555
C10 C9 1_555 1_555
C11 C1 1_555 1_555
C12 C11 1_555 1_555
H5 C12 1_555 1_555
C13 C12 1_555 1_555
H6 C13 1_555 1_555
C14 C13 1_555 1_555
C15 C14 1_555 1_555
H7 C15 1_555 1_555
C16 C11 1_555 1_555
H8 C16 1_555 1_555
C17 C14 1_555 1_555
C18 C17 1_555 1_555
H9 C18 1_555 1_555
H10 C18 1_555 1_555
H11 C18 1_555 1_555
C19 C17 1_555 1_555
H12 C19 1_555 1_555
H13 C19 1_555 1_555
H14 C19 1_555 1_555
C20 C17 1_555 1_555
H15 C20 1_555 1_555
H16 C20 1_555 1_555
H17 C20 1_555 1_555
C21 C10 1_555 1_555
C22 C21 1_555 1_555
H18 C22 1_555 1_555
C23 N4 1_555 1_555
H19 C23 1_555 1_555
C24 N3 1_555 1_555
H20 C24 1_555 1_555
O2 C25 1_555 1_555
N5 N6 1_555 1_555
N6 C26 1_555 1_555
N7 C45 1_555 1_555
N8 C46 1_555 1_555
C25 N5 1_555 1_555
C26 O2 1_555 1_555
C27 C26 1_555 1_555
C28 C27 1_555 1_555
H21 C28 1_555 1_555
C29 C28 1_555 1_555
H22 C29 1_555 1_555
C30 C29 1_555 1_555
C31 C30 1_555 1_555
H23 C31 1_555 1_555
C32 C27 1_555 1_555
H24 C32 1_555 1_555
C33 C30 1_555 1_555
C34 C33 1_555 1_555
C35 C25 1_555 1_555
C36 C35 1_555 1_555
H25 C36 1_555 1_555
C37 C36 1_555 1_555
H26 C37 1_555 1_555
C38 C37 1_555 1_555
C39 C38 1_555 1_555
H27 C39 1_555 1_555
C40 C35 1_555 1_555
H28 C40 1_555 1_555
C41 C38 1_555 1_555
C42 C41 1_555 1_555
H29 C42 1_555 1_555
H30 C42 1_555 1_555
H31 C42 1_555 1_555
C43 C41 1_555 1_555
H32 C43 1_555 1_555
H33 C43 1_555 1_555
H34 C43 1_555 1_555
C44 C41 1_555 1_555
H35 C44 1_555 1_555
H36 C44 1_555 1_555
H37 C44 1_555 1_555
C45 C34 1_555 1_555
C46 C45 1_555 1_555
H38 C46 1_555 1_555
C47 N8 1_555 1_555
H39 C47 1_555 1_555
C48 N7 1_555 1_555
H40 C48 1_555 1_555
C7 C8 1_555 1_555
C15 C16 1_555 1_555
C23 C24 1_555 1_555
C31 C32 1_555 1_555
C39 C40 1_555 1_555
C47 C48 1_555 1_555

#END
