
#######################################################################
#
#                 Cambridge Crystallographic Data Centre
#                                CCDC 
#
#######################################################################
#
# If this CIF has been generated from an entry in the Cambridge 
# Structural Database, then it will include bibliographic, chemical, 
# crystal, experimental, refinement or atomic coordinate data resulting 
# from the CCDC's data processing and validation procedures.
#
#######################################################################

data_DAJZAS
_chemical_formula_moiety         'C22 H17 Cl1 N4 O2 S1'
_chemical_name_systematic        
N'-((4-chlorophenyl)(3-methyl-5-oxo-1-phenyl-1,5-dihydro-4H-pyrazol-4-ylidene)methyl)thiophene-2-carbohydrazide
_symmetry_cell_setting           monoclinic
_symmetry_space_group_name_H-M   'P 21/c'
_symmetry_Int_Tables_number      14
_space_group_name_Hall           '-P 2ybc'
loop_
_symmetry_equiv_pos_site_id
_symmetry_equiv_pos_as_xyz
1 x,y,z
2 -x,1/2+y,1/2-z
3 -x,-y,-z
4 x,1/2-y,1/2+z
_cell_length_a                   11.1799(11)
_cell_length_b                   22.336(2)
_cell_length_c                   8.8940(9)
_cell_angle_alpha                90
_cell_angle_beta                 112.803(2)
_cell_angle_gamma                90
_cell_volume                     2047.37
_exptl_crystal_colour            yellow
_exptl_crystal_description       block
_cell_formula_units_Z            4
loop_
_atom_site_label
_atom_site_type_symbol
_atom_site_fract_x
_atom_site_fract_y
_atom_site_fract_z
C1 C -0.07517(16) 0.67308(8) 0.5655(2)
H1 H -0.0144 0.6760 0.5152
C2 C -0.15617(18) 0.72095(8) 0.5592(2)
H2 H -0.1494 0.7569 0.5060
C3 C -0.24715(19) 0.71680(9) 0.6300(2)
H3 H -0.3020 0.7498 0.6261
C4 C -0.25669(18) 0.66412(9) 0.7060(2)
H4 H -0.3198 0.6610 0.7527
C5 C -0.17605(16) 0.61560(8) 0.7156(2)
H5 H -0.1837 0.5797 0.7684
C6 C -0.08342(14) 0.62063(7) 0.64621(18)
C7 C 0.12034(14) 0.57277(7) 0.64581(17)
C8 C 0.17310(14) 0.51322(7) 0.69267(17)
C9 C 0.07802(15) 0.48263(7) 0.73924(18)
C10 C 0.07782(17) 0.41948(8) 0.7962(2)
C11 C 0.29129(14) 0.49035(7) 0.69593(17)
C12 C 0.35838(14) 0.43964(7) 0.80458(18)
C13 C 0.38739(15) 0.44422(7) 0.97177(18)
H6 H 0.3614 0.4787 1.0140
C14 C 0.45409(16) 0.39843(8) 1.0763(2)
H7 H 0.4760 0.4017 1.1904
C15 C 0.48815(15) 0.34801(7) 1.0118(2)
C16 C 0.46023(16) 0.34242(7) 0.8459(2)
H8 H 0.4848 0.3074 0.8041
C17 C 0.39583(15) 0.38883(7) 0.74238(19)
H9 H 0.3772 0.3860 0.6289
C18 C 0.32622(14) 0.55420(7) 0.35601(18)
C19 C 0.27073(14) 0.60622(7) 0.24878(18)
C20 C 0.24416(15) 0.66377(7) 0.28765(19)
H10 H 0.2616 0.6774 0.3953
C21 C 0.18722(17) 0.69950(8) 0.1443(2)
H11 H 0.1626 0.7401 0.1457
C22 C 0.17204(18) 0.66907(8) 0.0051(2)
H12 H 0.1355 0.6861 -0.1009
Cl1 Cl 0.56919(5) 0.29012(2) 1.14303(6)
H13 H 0.139(2) 0.4148(10) 0.915(3)
H14 H -0.002(2) 0.4091(9) 0.783(3)
H15 H 0.1067(19) 0.3912(9) 0.735(2)
N1 N 0.00244(12) 0.57198(6) 0.66193(15)
N2 N -0.02236(13) 0.51655(6) 0.71868(16)
N3 N 0.35698(12) 0.51125(6) 0.61013(15)
H16 H 0.4322 0.4949 0.6245
N4 N 0.31181(13) 0.55771(6) 0.49918(15)
H17 H 0.2742 0.5891 0.5220
O1 O 0.16875(10) 0.61864(5) 0.60843(13)
O2 O 0.37994(10) 0.51177(5) 0.31735(13)
S1 S 0.22579(4) 0.597025(19) 0.04229(5)
loop_
_geom_bond_atom_site_label_1
_geom_bond_atom_site_label_2
_geom_bond_site_symmetry_1
_geom_bond_site_symmetry_2
C1 H1 1_555 1_555
C2 C1 1_555 1_555
H2 C2 1_555 1_555
C3 C2 1_555 1_555
H3 C3 1_555 1_555
C4 C3 1_555 1_555
H4 C4 1_555 1_555
C5 C4 1_555 1_555
H5 C5 1_555 1_555
C6 C1 1_555 1_555
C7 C8 1_555 1_555
C8 C9 1_555 1_555
C9 C10 1_555 1_555
C10 H13 1_555 1_555
C11 C8 1_555 1_555
C12 C11 1_555 1_555
C13 C12 1_555 1_555
H6 C13 1_555 1_555
C14 C13 1_555 1_555
H7 C14 1_555 1_555
C15 C14 1_555 1_555
C16 C15 1_555 1_555
H8 C16 1_555 1_555
C17 C12 1_555 1_555
H9 C17 1_555 1_555
C18 C19 1_555 1_555
C19 C20 1_555 1_555
C20 H10 1_555 1_555
C21 C20 1_555 1_555
H11 C21 1_555 1_555
C22 C21 1_555 1_555
H12 C22 1_555 1_555
Cl1 C15 1_555 1_555
H14 C10 1_555 1_555
H15 C10 1_555 1_555
N1 C6 1_555 1_555
N2 C9 1_555 1_555
N3 C11 1_555 1_555
H16 N3 1_555 1_555
N4 C18 1_555 1_555
H17 N4 1_555 1_555
O1 C7 1_555 1_555
O2 C18 1_555 1_555
S1 C19 1_555 1_555
C5 C6 1_555 1_555
C7 N1 1_555 1_555
C16 C17 1_555 1_555
C22 S1 1_555 1_555
N1 N2 1_555 1_555
N3 N4 1_555 1_555

#END
