
#######################################################################
#
#                 Cambridge Crystallographic Data Centre
#                                CCDC 
#
#######################################################################
#
# If this CIF has been generated from an entry in the Cambridge 
# Structural Database, then it will include bibliographic, chemical, 
# crystal, experimental, refinement or atomic coordinate data resulting 
# from the CCDC's data processing and validation procedures.
#
#######################################################################

data_DAJZEU
_chemical_formula_moiety         'C36 H41 N3 O4,2(C1 H4 O1)'
_chemical_name_systematic        
'25,27-(3,6,9-Triazaundecane-1,11-diolato)-26,28-dihydroxycalix(4)arene methanol solvate'
_symmetry_cell_setting           triclinic
_symmetry_space_group_name_H-M   'P -1'
_symmetry_Int_Tables_number      2
_space_group_name_Hall           '-P 1'
loop_
_symmetry_equiv_pos_site_id
_symmetry_equiv_pos_as_xyz
1 x,y,z
2 -x,-y,-z
_cell_length_a                   10.063(2)
_cell_length_b                   11.467(2)
_cell_length_c                   15.846(3)
_cell_angle_alpha                110.842(3)
_cell_angle_beta                 94.589(4)
_cell_angle_gamma                94.456(4)
_cell_volume                     1692.29
_exptl_crystal_colour            colorless
_exptl_crystal_description       block
_cell_formula_units_Z            2
loop_
_atom_site_label
_atom_site_type_symbol
_atom_site_fract_x
_atom_site_fract_y
_atom_site_fract_z
O1 O 0.37542(14) 0.40455(14) 0.29017(10)
O2 O 0.11380(15) 0.29100(14) 0.29363(11)
H1 H 0.1956 0.3184 0.3028
O3 O -0.07214(14) 0.36089(13) 0.18169(10)
O4 O 0.18608(15) 0.40815(16) 0.14278(10)
H2 H 0.1027 0.3988 0.1440
N1 N 0.3331(2) 0.65591(19) 0.38718(14)
H3 H 0.2526 0.6034 0.3657
N2 N 0.1135(2) 0.66748(19) 0.50186(14)
H4 H 0.0945 0.6350 0.5453
N3 N -0.1255(2) 0.51324(18) 0.36541(13)
H5 H -0.0416 0.4864 0.3662
C1 C 0.41815(19) 0.29282(19) 0.23412(13)
C2 C 0.4109(2) 0.1907(2) 0.26276(14)
C3 C 0.4582(2) 0.0812(2) 0.20881(17)
H6 H 0.4553 0.0097 0.2269
C4 C 0.5101(2) 0.0749(3) 0.12827(18)
H7 H 0.5453 -0.0001 0.0923
C5 C 0.5109(2) 0.1756(3) 0.10018(16)
H8 H 0.5450 0.1692 0.0440
C6 C 0.4631(2) 0.2866(2) 0.15180(15)
C7 C 0.0995(2) 0.17306(18) 0.29682(13)
C8 C -0.0280(2) 0.10427(19) 0.27241(13)
C9 C -0.0442(2) -0.0117(2) 0.28237(14)
H9 H -0.1314 -0.0590 0.2674
C10 C 0.0632(3) -0.0600(2) 0.31346(16)
H10 H 0.0502 -0.1397 0.3205
C11 C 0.1893(2) 0.0073(2) 0.33428(15)
H11 H 0.2639 -0.0274 0.3545
C12 C 0.2099(2) 0.1246(2) 0.32646(13)
C13 C -0.10277(18) 0.24211(18) 0.11293(13)
C14 C -0.08950(19) 0.2307(2) 0.02312(14)
C15 C -0.1233(2) 0.1118(2) -0.04466(14)
H12 H -0.1172 0.1013 -0.1070
C16 C -0.1654(2) 0.0091(2) -0.02311(15)
H13 H -0.1901 -0.0715 -0.0706
C17 C -0.1719(2) 0.0221(2) 0.06663(15)
H14 H -0.1983 -0.0503 0.0810
C18 C -0.14057(19) 0.13910(19) 0.13652(14)
C19 C 0.2135(2) 0.3697(2) 0.05509(14)
C20 C 0.3481(2) 0.3646(2) 0.03876(15)
C21 C 0.3780(3) 0.3297(3) -0.05016(17)
H15 H 0.4700 0.3262 -0.0619
C22 C 0.2788(3) 0.2998(2) -0.12233(15)
H16 H 0.3013 0.2760 -0.1835
C23 C 0.1461(2) 0.3046(2) -0.10483(14)
H17 H 0.0766 0.2838 -0.1547
C24 C 0.1112(2) 0.33901(18) -0.01671(14)
C25 C 0.3490(2) 0.1958(2) 0.34831(14)
H18 H 0.4056 0.1606 0.3824
H19 H 0.3440 0.2818 0.3855
C26 C -0.1458(2) 0.1535(2) 0.23536(14)
H20 H -0.1465 0.2407 0.2715
H21 H -0.2278 0.1090 0.2405
C27 C -0.0346(2) 0.3419(2) 0.00044(16)
H22 H -0.0872 0.3425 -0.0526
H23 H -0.0435 0.4181 0.0498
C28 C 0.4564(3) 0.3948(3) 0.11763(18)
H24 H 0.4389 0.4685 0.1663
H25 H 0.5415 0.4128 0.0989
C29 C 0.4843(2) 0.4925(2) 0.34879(16)
H26 H 0.5327 0.5327 0.3149
H27 H 0.5452 0.4494 0.3736
C30 C 0.4264(3) 0.5883(2) 0.42383(15)
H28 H 0.3798 0.5475 0.4581
H29 H 0.4976 0.6471 0.4641
C31 C 0.3003(3) 0.7729(2) 0.45527(18)
H30 H 0.2413 0.8117 0.4254
H31 H 0.3814 0.8292 0.4793
C32 C 0.2349(3) 0.7565(2) 0.53378(17)
H32 H 0.2972 0.7270 0.5686
H33 H 0.2126 0.8363 0.5729
C33 C -0.0063(3) 0.7194(2) 0.47826(16)
H34 H 0.0078 0.7472 0.4289
H35 H -0.0223 0.7906 0.5295
C34 C -0.1275(3) 0.6206(2) 0.45090(16)
H36 H -0.1353 0.5890 0.4990
H37 H -0.2063 0.6607 0.4456
C35 C -0.1472(2) 0.5461(2) 0.28471(15)
H38 H -0.0665 0.5908 0.2780
H39 H -0.2167 0.6006 0.2923
C36 C -0.1864(2) 0.4309(2) 0.20021(15)
H40 H -0.2604 0.3800 0.2091
H41 H -0.2135 0.4549 0.1498
O5 O 0.4229(2) 0.7392(2) 0.25495(15)
H42 H 0.3931 0.7618 0.3057
C37 C 0.3182(3) 0.7225(3) 0.18654(19)
H43 H 0.2341 0.7260 0.2115
H44 H 0.3182 0.6423 0.1390
H45 H 0.3304 0.7877 0.1622
O6 O 0.3224(4) 1.1088(3) 0.5883(2)
H46 H 0.3226 1.1858 0.6182
C38 C 0.4013(5) 1.0568(3) 0.6372(3)
H47 H 0.4959 1.0753 0.6308
H48 H 0.3770 0.9656 0.6142
H49 H 0.3873 1.0924 0.7015
loop_
_geom_bond_atom_site_label_1
_geom_bond_atom_site_label_2
_geom_bond_site_symmetry_1
_geom_bond_site_symmetry_2
O1 C1 1_555 1_555
O2 H1 1_555 1_555
O3 C13 1_555 1_555
O4 H2 1_555 1_555
N1 H3 1_555 1_555
N2 H4 1_555 1_555
N3 H5 1_555 1_555
C1 C2 1_555 1_555
C2 C3 1_555 1_555
C3 H6 1_555 1_555
C4 C3 1_555 1_555
H7 C4 1_555 1_555
C5 C4 1_555 1_555
H8 C5 1_555 1_555
C6 C1 1_555 1_555
C7 O2 1_555 1_555
C8 C7 1_555 1_555
C9 C8 1_555 1_555
H9 C9 1_555 1_555
C10 C9 1_555 1_555
H10 C10 1_555 1_555
C11 C10 1_555 1_555
H11 C11 1_555 1_555
C12 C7 1_555 1_555
C13 C14 1_555 1_555
C14 C15 1_555 1_555
C15 H12 1_555 1_555
C16 C15 1_555 1_555
H13 C16 1_555 1_555
C17 C16 1_555 1_555
H14 C17 1_555 1_555
C18 C13 1_555 1_555
C19 O4 1_555 1_555
C20 C19 1_555 1_555
C21 C20 1_555 1_555
H15 C21 1_555 1_555
C22 C21 1_555 1_555
H16 C22 1_555 1_555
C23 C22 1_555 1_555
H17 C23 1_555 1_555
C24 C19 1_555 1_555
C25 C2 1_555 1_555
H18 C25 1_555 1_555
H19 C25 1_555 1_555
C26 C8 1_555 1_555
H20 C26 1_555 1_555
H21 C26 1_555 1_555
C27 C14 1_555 1_555
H22 C27 1_555 1_555
H23 C27 1_555 1_555
C28 C6 1_555 1_555
H24 C28 1_555 1_555
H25 C28 1_555 1_555
C29 O1 1_555 1_555
H26 C29 1_555 1_555
H27 C29 1_555 1_555
C30 N1 1_555 1_555
H28 C30 1_555 1_555
H29 C30 1_555 1_555
C31 N1 1_555 1_555
H30 C31 1_555 1_555
H31 C31 1_555 1_555
C32 N2 1_555 1_555
H32 C32 1_555 1_555
H33 C32 1_555 1_555
C33 N2 1_555 1_555
H34 C33 1_555 1_555
H35 C33 1_555 1_555
C34 N3 1_555 1_555
H36 C34 1_555 1_555
H37 C34 1_555 1_555
C35 N3 1_555 1_555
H38 C35 1_555 1_555
H39 C35 1_555 1_555
C36 O3 1_555 1_555
H40 C36 1_555 1_555
H41 C36 1_555 1_555
O5 H42 1_555 1_555
C37 O5 1_555 1_555
H43 C37 1_555 1_555
H44 C37 1_555 1_555
H45 C37 1_555 1_555
O6 H46 1_555 1_555
C38 O6 1_555 1_555
H47 C38 1_555 1_555
H48 C38 1_555 1_555
H49 C38 1_555 1_555
C5 C6 1_555 1_555
C11 C12 1_555 1_555
C12 C25 1_555 1_555
C17 C18 1_555 1_555
C18 C26 1_555 1_555
C20 C28 1_555 1_555
C23 C24 1_555 1_555
C24 C27 1_555 1_555
C29 C30 1_555 1_555
C31 C32 1_555 1_555
C33 C34 1_555 1_555
C35 C36 1_555 1_555

#END
