
#######################################################################
#
#                 Cambridge Crystallographic Data Centre
#                                CCDC 
#
#######################################################################
#
# If this CIF has been generated from an entry in the Cambridge 
# Structural Database, then it will include bibliographic, chemical, 
# crystal, experimental, refinement or atomic coordinate data resulting 
# from the CCDC's data processing and validation procedures.
#
#######################################################################

data_DAJZUM
_chemical_formula_moiety         'C26 H25 N3 O4 S1'
_chemical_name_systematic        
N-(1-(5-methoxy-4-phenyl-1,3-oxazol-2-yl)-3,4-dihydroisoquinolin-2(1H)-yl)-4-methylbenzenesulfonamide
_symmetry_cell_setting           orthorhombic
_symmetry_space_group_name_H-M   'P 21 21 21'
_symmetry_Int_Tables_number      19
_space_group_name_Hall           'P 2ac 2ab'
loop_
_symmetry_equiv_pos_site_id
_symmetry_equiv_pos_as_xyz
1 x,y,z
2 1/2-x,-y,1/2+z
3 1/2+x,1/2-y,-z
4 -x,1/2+y,1/2-z
_cell_length_a                   9.9443(3)
_cell_length_b                   12.2836(4)
_cell_length_c                   19.8548(8)
_cell_angle_alpha                90
_cell_angle_beta                 90
_cell_angle_gamma                90
_cell_volume                     2425.3
_exptl_crystal_colour            'light colorless'
_exptl_crystal_description       block
_cell_formula_units_Z            4
loop_
_atom_site_label
_atom_site_type_symbol
_atom_site_fract_x
_atom_site_fract_y
_atom_site_fract_z
S1 S 0.36466(5) 0.34932(5) 0.13105(3)
O1 O 0.19362(18) 0.06534(14) 0.15333(8)
O2 O 0.3011(3) -0.0567(2) 0.22339(11)
O3 O 0.3703(2) 0.26861(16) 0.18247(10)
O4 O 0.48520(16) 0.38506(18) 0.09819(11)
N1 N 0.13725(17) 0.27658(15) 0.08715(9)
N2 N 0.27524(19) 0.02181(16) 0.05276(10)
N3 N 0.27164(19) 0.30161(18) 0.06889(12)
H1 H 0.281(3) 0.338(2) 0.0310(15)
C1 C 0.0403(2) 0.3587(2) 0.06262(13)
H2 H 0.0279 0.3514 0.0144
H3 H 0.0734 0.4315 0.0719
C2 C -0.0917(2) 0.3400(2) 0.09873(14)
H4 H -0.0829 0.3623 0.1454
H5 H -0.1611 0.3844 0.0781
C3 C -0.1330(2) 0.2222(2) 0.09594(12)
C4 C -0.2648(3) 0.1925(3) 0.11245(15)
H6 H -0.3249 0.2451 0.1276
C5 C -0.3063(3) 0.0857(3) 0.10647(17)
H7 H -0.3939 0.0669 0.1180
C6 C -0.2198(3) 0.0070(3) 0.08372(17)
H8 H -0.2486 -0.0645 0.0787
C7 C -0.0882(3) 0.0359(2) 0.06823(15)
H9 H -0.0290 -0.0171 0.0527
C8 C -0.0435(2) 0.1423(2) 0.07547(12)
C9 C 0.1025(2) 0.16895(18) 0.05884(12)
H10 H 0.1126 0.1719 0.0098
C10 C 0.1952(2) 0.08425(19) 0.08590(12)
C11 C 0.3360(2) -0.0443(2) 0.10144(14)
C12 C 0.2851(3) -0.0165(2) 0.16152(14)
C13 C 0.3312(6) 0.0177(4) 0.2736(2)
H11 H 0.4082 0.0599 0.2606
H12 H 0.3504 -0.0204 0.3147
H13 H 0.2557 0.0653 0.2804
C14 C 0.4347(2) -0.1291(2) 0.08411(18)
C15 C 0.4527(3) -0.1584(3) 0.0176(2)
H14 H 0.4064 -0.1214 -0.0161
C16 C 0.5401(5) -0.2432(4) 0.0006(3)
H15 H 0.5499 -0.2644 -0.0441
C17 C 0.6105(5) -0.2945(4) 0.0499(4)
H16 H 0.6686 -0.3510 0.0386
C18 C 0.5977(4) -0.2651(3) 0.1144(4)
H17 H 0.6482 -0.3006 0.1471
C19 C 0.5088(3) -0.1812(3) 0.1334(3)
H18 H 0.5001 -0.1613 0.1784
C20 C 0.2789(2) 0.46304(19) 0.16303(12)
C21 C 0.1899(3) 0.4508(2) 0.21544(13)
H19 H 0.1827 0.3845 0.2377
C22 C 0.1115(3) 0.5378(3) 0.23473(14)
H20 H 0.0508 0.5291 0.2700
C23 C 0.1205(3) 0.6371(2) 0.20329(14)
C24 C 0.2154(3) 0.6486(2) 0.15241(17)
H21 H 0.2262 0.7160 0.1319
C25 C 0.2937(3) 0.5626(2) 0.13162(16)
H22 H 0.3557 0.5714 0.0970
C26 C 0.0302(4) 0.7311(3) 0.2223(2)
H23 H -0.0277 0.7095 0.2586
H24 H -0.0234 0.7517 0.1841
H25 H 0.0841 0.7919 0.2362
loop_
_geom_bond_atom_site_label_1
_geom_bond_atom_site_label_2
_geom_bond_site_symmetry_1
_geom_bond_site_symmetry_2
S1 O3 1_555 1_555
O1 C10 1_555 1_555
O2 C12 1_555 1_555
O4 S1 1_555 1_555
N1 N3 1_555 1_555
N2 C10 1_555 1_555
N3 S1 1_555 1_555
H1 N3 1_555 1_555
C1 N1 1_555 1_555
H2 C1 1_555 1_555
H3 C1 1_555 1_555
C2 C1 1_555 1_555
H4 C2 1_555 1_555
H5 C2 1_555 1_555
C3 C2 1_555 1_555
C4 C3 1_555 1_555
H6 C4 1_555 1_555
C5 C4 1_555 1_555
H7 C5 1_555 1_555
C6 C5 1_555 1_555
H8 C6 1_555 1_555
C7 C6 1_555 1_555
H9 C7 1_555 1_555
C8 C3 1_555 1_555
C9 N1 1_555 1_555
H10 C9 1_555 1_555
C10 C9 1_555 1_555
C11 N2 1_555 1_555
C12 O1 1_555 1_555
C13 O2 1_555 1_555
H11 C13 1_555 1_555
H12 C13 1_555 1_555
H13 C13 1_555 1_555
C14 C11 1_555 1_555
C15 C14 1_555 1_555
H14 C15 1_555 1_555
C16 C15 1_555 1_555
H15 C16 1_555 1_555
C17 C16 1_555 1_555
H16 C17 1_555 1_555
C18 C17 1_555 1_555
H17 C18 1_555 1_555
C19 C14 1_555 1_555
H18 C19 1_555 1_555
C20 S1 1_555 1_555
C21 C20 1_555 1_555
H19 C21 1_555 1_555
C22 C21 1_555 1_555
H20 C22 1_555 1_555
C23 C22 1_555 1_555
C24 C23 1_555 1_555
H21 C24 1_555 1_555
C25 C20 1_555 1_555
H22 C25 1_555 1_555
C26 C23 1_555 1_555
H23 C26 1_555 1_555
H24 C26 1_555 1_555
H25 C26 1_555 1_555
C7 C8 1_555 1_555
C8 C9 1_555 1_555
C11 C12 1_555 1_555
C18 C19 1_555 1_555
C24 C25 1_555 1_555

#END
