
#######################################################################
#
#                 Cambridge Crystallographic Data Centre
#                                CCDC 
#
#######################################################################
#
# If this CIF has been generated from an entry in the Cambridge 
# Structural Database, then it will include bibliographic, chemical, 
# crystal, experimental, refinement or atomic coordinate data resulting 
# from the CCDC's data processing and validation procedures.
#
#######################################################################

data_DAKBUP
_chemical_formula_moiety         'C16 H18 N2 O1 S1'
_chemical_name_systematic        
2-methyl-1-(thiophen-2-yl)-1,2,4,5,6,7-hexahydro-3H-benzo[e][1,3]diazonin-3-one
_symmetry_cell_setting           triclinic
_symmetry_space_group_name_H-M   'P -1'
_symmetry_Int_Tables_number      2
_space_group_name_Hall           '-P 1'
loop_
_symmetry_equiv_pos_site_id
_symmetry_equiv_pos_as_xyz
1 x,y,z
2 -x,-y,-z
_cell_length_a                   8.3054(2)
_cell_length_b                   8.7388(2)
_cell_length_c                   10.8186(3)
_cell_angle_alpha                89.6801(14)
_cell_angle_beta                 82.9747(14)
_cell_angle_gamma                65.9587(13)
_cell_volume                     710.859
_exptl_crystal_colour            colorless
_exptl_crystal_description       block
_chemical_melting_point          '464-466 K'
_cell_formula_units_Z            2
loop_
_atom_site_label
_atom_site_type_symbol
_atom_site_fract_x
_atom_site_fract_y
_atom_site_fract_z
S1 S 0.32309(6) 0.44342(6) 0.48736(4)
O1 O 0.60531(11) 0.39780(11) 0.13758(8)
N1 N 0.36379(13) 0.38165(12) 0.06485(9)
N2 N 0.47618(12) 0.24008(12) 0.24021(9)
C1 C 0.48888(15) 0.34332(13) 0.14684(10)
C2 C 0.35489(15) 0.24000(14) -0.00394(10)
H1 H 0.4158 0.1376 0.0376
H2 H 0.4185 0.2286 -0.0871
C3 C 0.16762(15) 0.25713(14) -0.01508(10)
H3 H 0.1756 0.1682 -0.0720
H4 H 0.1043 0.3630 -0.0518
C4 C 0.05806(15) 0.25007(14) 0.10810(10)
H5 H 0.0315 0.3496 0.1601
H6 H -0.0539 0.2503 0.0907
C5 C 0.15415(14) 0.09621(14) 0.17830(10)
C6 C 0.27092(14) 0.09058(13) 0.26376(10)
C7 C 0.30073(14) 0.24652(13) 0.29365(10)
H7 H 0.2123 0.3390 0.2546
C8 C 0.63350(15) 0.15052(16) 0.30090(12)
H8 H 0.7378 0.1173 0.2404
H9 H 0.6263 0.0527 0.3373
H10 H 0.6401 0.2225 0.3650
C9 C 0.13163(16) -0.05024(15) 0.15304(11)
H11 H 0.0547 -0.0480 0.0967
C10 C 0.22056(16) -0.19834(15) 0.20950(12)
H12 H 0.2041 -0.2942 0.1906
C11 C 0.33437(16) -0.20273(15) 0.29441(11)
H13 H 0.3943 -0.3015 0.3331
C12 C 0.35842(15) -0.05900(14) 0.32131(11)
H14 H 0.4343 -0.0623 0.3788
C13 C 0.26289(14) 0.29318(13) 0.43193(10)
C14 C 0.1670(4) 0.2474(4) 0.5252(3)
H15 H 0.1214 0.1681 0.5135
C15 C 0.14347(17) 0.33480(17) 0.64394(11)
H16 H 0.0807 0.3205 0.7171
C16 C 0.22619(17) 0.44009(16) 0.63281(12)
H17 H 0.2293 0.5050 0.6996
H18 H 0.372(2) 0.456(2) 0.0154(15)
H19? H 0.0914 0.3246 0.7229
H20? H 0.2352 0.5129 0.6912
S2? S 0.1290(4) 0.2255(4) 0.5294(3)
C17? C 0.2985(13) 0.4037(11) 0.4981(7)
H21? H 0.3673 0.4565 0.4600
loop_
_geom_bond_atom_site_label_1
_geom_bond_atom_site_label_2
_geom_bond_site_symmetry_1
_geom_bond_site_symmetry_2
S1 C13 1_555 1_555
O1 C1 1_555 1_555
N1 C1 1_555 1_555
N2 C1 1_555 1_555
C2 N1 1_555 1_555
H1 C2 1_555 1_555
H2 C2 1_555 1_555
C3 C2 1_555 1_555
H3 C3 1_555 1_555
H4 C3 1_555 1_555
C4 C3 1_555 1_555
H5 C4 1_555 1_555
H6 C4 1_555 1_555
C5 C4 1_555 1_555
C6 C5 1_555 1_555
C7 N2 1_555 1_555
H7 C7 1_555 1_555
C8 N2 1_555 1_555
H8 C8 1_555 1_555
H9 C8 1_555 1_555
H10 C8 1_555 1_555
C9 C5 1_555 1_555
H11 C9 1_555 1_555
C10 C9 1_555 1_555
H12 C10 1_555 1_555
C11 C10 1_555 1_555
H13 C11 1_555 1_555
C12 C6 1_555 1_555
H14 C12 1_555 1_555
C13 C7 1_555 1_555
C14 C13 1_555 1_555
H15 C14 1_555 1_555
C15 C14 1_555 1_555
H16 C15 1_555 1_555
C16 S1 1_555 1_555
H17 C16 1_555 1_555
H18 N1 1_555 1_555
C6 C7 1_555 1_555
C11 C12 1_555 1_555
C15 C16 1_555 1_555

#END
