
#######################################################################
#
#                 Cambridge Crystallographic Data Centre
#                                CCDC 
#
#######################################################################
#
# If this CIF has been generated from an entry in the Cambridge 
# Structural Database, then it will include bibliographic, chemical, 
# crystal, experimental, refinement or atomic coordinate data resulting 
# from the CCDC's data processing and validation procedures.
#
#######################################################################

data_DAKBID
_chemical_formula_moiety         'C18 H20 N2 O1'
_chemical_name_systematic        
2,5-dimethyl-1-phenyl-1,4,5,6-tetrahydrobenzo[e][1,3]diazocin-3(2H)-one
_symmetry_cell_setting           monoclinic
_symmetry_space_group_name_H-M   'P 21/c'
_symmetry_Int_Tables_number      14
_space_group_name_Hall           '-P 2ybc'
loop_
_symmetry_equiv_pos_site_id
_symmetry_equiv_pos_as_xyz
1 x,y,z
2 -x,1/2+y,1/2-z
3 -x,-y,-z
4 x,1/2-y,1/2+z
_cell_length_a                   18.6703(10)
_cell_length_b                   9.6103(5)
_cell_length_c                   18.5204(11)
_cell_angle_alpha                90
_cell_angle_beta                 112.274(3)
_cell_angle_gamma                90
_cell_volume                     3075.1
_exptl_crystal_colour            colorless
_exptl_crystal_description       block
_chemical_melting_point          '457-459 K'
_cell_formula_units_Z            8
loop_
_atom_site_label
_atom_site_type_symbol
_atom_site_fract_x
_atom_site_fract_y
_atom_site_fract_z
O1 O 0.97439(11) 0.11416(18) 0.55721(10)
N1 N 0.85805(13) 0.2232(2) 0.50422(12)
N2 N 0.90927(12) 0.0949(2) 0.42709(12)
H1 H 0.9516 0.0717 0.4197
C1 C 0.91727(16) 0.1449(3) 0.49783(15)
C2 C 0.81559(15) 0.3346(3) 0.44855(15)
H2 H 0.8162 0.4145 0.4834
C3 C 0.85616(15) 0.3922(3) 0.39767(15)
C4 C 0.85519(15) 0.3305(3) 0.32898(15)
C5 C 0.81931(16) 0.1905(3) 0.29919(15)
H3 H 0.8389 0.1579 0.2594
H4 H 0.7626 0.2028 0.2730
C6 C 0.83505(15) 0.0765(3) 0.36188(14)
H5 H 0.7929 0.0799 0.3828
C7 C 0.86310(18) 0.2453(3) 0.58392(15)
H6 H 0.8769 0.1577 0.6130
H7 H 0.8130 0.2778 0.5830
H8 H 0.9028 0.3154 0.6093
C8 C 0.72914(16) 0.3035(3) 0.40619(15)
C9 C 0.69182(16) 0.2002(3) 0.43087(16)
H9 H 0.7212 0.1399 0.4721
C10 C 0.61210(17) 0.1835(3) 0.39609(18)
H10 H 0.5874 0.1126 0.4139
C11 C 0.56887(17) 0.2692(3) 0.33609(18)
H11 H 0.5143 0.2580 0.3128
C12 C 0.60459(17) 0.3717(3) 0.30963(17)
H12 H 0.5748 0.4302 0.2676
C13 C 0.68428(16) 0.3890(3) 0.34473(15)
H13 H 0.7086 0.4601 0.3266
C14 C 0.89360(16) 0.5196(3) 0.42053(17)
H14 H 0.8954 0.5605 0.4679
C15 C 0.92817(16) 0.5885(3) 0.37672(18)
H15 H 0.9534 0.6752 0.3938
C16 C 0.92559(17) 0.5297(3) 0.30785(18)
H16 H 0.9474 0.5769 0.2760
C17 C 0.89080(15) 0.4008(3) 0.28570(16)
H17 H 0.8912 0.3589 0.2394
C18 C 0.83366(17) -0.0671(3) 0.32549(16)
H18 H 0.8778 -0.0756 0.3094
H19 H 0.7854 -0.0782 0.2799
H20 H 0.8370 -0.1394 0.3639
O2 O 0.48894(10) 0.10459(18) 0.57728(10)
N3 N 0.37446(13) 0.2219(2) 0.54129(12)
N4 N 0.40492(12) 0.0846(2) 0.45224(12)
H21 H 0.4420 0.0546 0.4377
C19 C 0.42597(15) 0.1366(3) 0.52482(15)
C20 C 0.32680(15) 0.3331(3) 0.48894(15)
H22 H 0.3324 0.4138 0.5248
C21 C 0.35732(14) 0.3888(3) 0.42879(15)
C22 C 0.34568(15) 0.3243(3) 0.35745(15)
C23 C 0.30691(17) 0.1840(3) 0.33166(15)
H23 H 0.3223 0.1475 0.2897
H24 H 0.2502 0.1983 0.3091
C24 C 0.32561(15) 0.0739(3) 0.39578(15)
H25 H 0.2899 0.0875 0.4240
C25 C 0.39554(16) 0.2522(3) 0.62419(15)
H26 H 0.4165 0.1681 0.6548
H27 H 0.3495 0.2830 0.6331
H28 H 0.4347 0.3259 0.6401
C26 C 0.23993(15) 0.3034(3) 0.45616(15)
C27 C 0.20718(16) 0.2061(3) 0.49006(16)
H29 H 0.2396 0.1525 0.5331
C28 C 0.12772(16) 0.1866(3) 0.46162(17)
H30 H 0.1063 0.1202 0.4857
C29 C 0.07912(16) 0.2628(3) 0.39841(17)
H31 H 0.0248 0.2479 0.3786
C30 C 0.11095(16) 0.3608(3) 0.36465(17)
H32 H 0.0783 0.4141 0.3215
C31 C 0.19077(15) 0.3818(3) 0.39371(15)
H33 H 0.2120 0.4505 0.3707
C32 C 0.39403(16) 0.5180(3) 0.44529(17)
H34 H 0.4029 0.5608 0.4942
C33 C 0.41810(16) 0.5859(3) 0.39192(18)
H35 H 0.4429 0.6740 0.4041
C34 C 0.40546(17) 0.5236(3) 0.32147(19)
H36 H 0.4204 0.5695 0.2839
C35 C 0.37084(16) 0.3937(3) 0.30522(16)
H37 H 0.3640 0.3505 0.2569
C36 C 0.31276(16) -0.0720(3) 0.36070(16)
H38 H 0.3514 -0.0913 0.3380
H39 H 0.2608 -0.0782 0.3200
H40 H 0.3179 -0.1404 0.4016
loop_
_geom_bond_atom_site_label_1
_geom_bond_atom_site_label_2
_geom_bond_site_symmetry_1
_geom_bond_site_symmetry_2
O1 C1 1_555 1_555
N1 C1 1_555 1_555
N2 H1 1_555 1_555
C1 N2 1_555 1_555
C2 N1 1_555 1_555
H2 C2 1_555 1_555
C3 C2 1_555 1_555
C4 C3 1_555 1_555
C5 C4 1_555 1_555
H3 C5 1_555 1_555
H4 C5 1_555 1_555
C6 N2 1_555 1_555
H5 C6 1_555 1_555
C7 N1 1_555 1_555
H6 C7 1_555 1_555
H7 C7 1_555 1_555
H8 C7 1_555 1_555
C8 C2 1_555 1_555
C9 C8 1_555 1_555
H9 C9 1_555 1_555
C10 C9 1_555 1_555
H10 C10 1_555 1_555
C11 C10 1_555 1_555
H11 C11 1_555 1_555
C12 C11 1_555 1_555
H12 C12 1_555 1_555
C13 C8 1_555 1_555
H13 C13 1_555 1_555
C14 C3 1_555 1_555
H14 C14 1_555 1_555
C15 C14 1_555 1_555
H15 C15 1_555 1_555
C16 C15 1_555 1_555
H16 C16 1_555 1_555
C17 C4 1_555 1_555
H17 C17 1_555 1_555
C18 C6 1_555 1_555
H18 C18 1_555 1_555
H19 C18 1_555 1_555
H20 C18 1_555 1_555
O2 C19 1_555 1_555
N3 C19 1_555 1_555
N4 H21 1_555 1_555
C19 N4 1_555 1_555
C20 N3 1_555 1_555
H22 C20 1_555 1_555
C21 C20 1_555 1_555
C22 C21 1_555 1_555
C23 C22 1_555 1_555
H23 C23 1_555 1_555
H24 C23 1_555 1_555
C24 N4 1_555 1_555
H25 C24 1_555 1_555
C25 N3 1_555 1_555
H26 C25 1_555 1_555
H27 C25 1_555 1_555
H28 C25 1_555 1_555
C26 C20 1_555 1_555
C27 C26 1_555 1_555
H29 C27 1_555 1_555
C28 C27 1_555 1_555
H30 C28 1_555 1_555
C29 C28 1_555 1_555
H31 C29 1_555 1_555
C30 C29 1_555 1_555
H32 C30 1_555 1_555
C31 C26 1_555 1_555
H33 C31 1_555 1_555
C32 C21 1_555 1_555
H34 C32 1_555 1_555
C33 C32 1_555 1_555
H35 C33 1_555 1_555
C34 C33 1_555 1_555
H36 C34 1_555 1_555
C35 C22 1_555 1_555
H37 C35 1_555 1_555
C36 C24 1_555 1_555
H38 C36 1_555 1_555
H39 C36 1_555 1_555
H40 C36 1_555 1_555
C5 C6 1_555 1_555
C12 C13 1_555 1_555
C16 C17 1_555 1_555
C23 C24 1_555 1_555
C30 C31 1_555 1_555
C34 C35 1_555 1_555

#END
