
#######################################################################
#
#                 Cambridge Crystallographic Data Centre
#                                CCDC 
#
#######################################################################
#
# If this CIF has been generated from an entry in the Cambridge 
# Structural Database, then it will include bibliographic, chemical, 
# crystal, experimental, refinement or atomic coordinate data resulting 
# from the CCDC's data processing and validation procedures.
#
#######################################################################

data_DAKCIE
_chemical_formula_moiety         'C20 H22 N2 O1'
_chemical_name_systematic        
16b-methyl-5,9,10,11,12,16b-hexahydrobenzo[7,8][1,3]diazonino[9,1-a]isoquinolin-8(6H)-one
_symmetry_cell_setting           monoclinic
_symmetry_space_group_name_H-M   'C 2/c'
_symmetry_Int_Tables_number      15
_space_group_name_Hall           '-C 2yn'
loop_
_symmetry_equiv_pos_site_id
_symmetry_equiv_pos_as_xyz
1 x,y,z
2 -x,y,1/2-z
3 1/2+x,1/2+y,z
4 1/2-x,1/2+y,1/2-z
5 -x,-y,-z
6 x,-y,1/2+z
7 1/2-x,1/2-y,-z
8 1/2+x,1/2-y,1/2+z
_cell_length_a                   24.9786(8)
_cell_length_b                   10.4169(3)
_cell_length_c                   12.4342(3)
_cell_angle_alpha                90
_cell_angle_beta                 102.331(2)
_cell_angle_gamma                90
_cell_volume                     3160.73
_exptl_crystal_colour            colorless
_exptl_crystal_description       block
_chemical_melting_point          '508-510 K'
_cell_formula_units_Z            8
loop_
_atom_site_label
_atom_site_type_symbol
_atom_site_fract_x
_atom_site_fract_y
_atom_site_fract_z
O1 O 0.50528(4) 0.81938(10) 0.40465(8)
N1 N 0.57220(5) 0.82461(14) 0.30859(10)
H1 H 0.5474(8) 0.8128(18) 0.2486(16)
N2 N 0.59479(5) 0.87329(11) 0.49294(9)
C1 C 0.55353(6) 0.83808(13) 0.40118(11)
C2 C 0.62958(7) 0.81685(18) 0.30286(13)
H2 H 0.6489 0.8879 0.3444
H3 H 0.6322 0.8280 0.2267
C3 C 0.65881(7) 0.6929(2) 0.34562(14)
H4 H 0.6936 0.6910 0.3227
H5 H 0.6371 0.6218 0.3096
C4 C 0.67036(7) 0.66890(17) 0.47093(13)
H6 H 0.7029 0.6159 0.4906
H7 H 0.6786 0.7507 0.5081
C5 C 0.62477(7) 0.60512(15) 0.51479(12)
C6 C 0.59069(6) 0.66461(14) 0.57595(11)
C7 C 0.59357(6) 0.80987(14) 0.59830(11)
C8 C 0.61793(8) 0.47225(17) 0.49669(15)
H8 H 0.6392 0.4309 0.4543
C9 C 0.58071(8) 0.40070(17) 0.53976(17)
H9 H 0.5771 0.3131 0.5258
C10 C 0.54933(8) 0.45917(17) 0.60271(16)
H10 H 0.5250 0.4116 0.6338
C11 C 0.55413(7) 0.58941(16) 0.61949(13)
H11 H 0.5322 0.6290 0.6614
C12 C 0.54675(6) 0.85966(16) 0.65011(12)
H12 H 0.5488 0.9515 0.6558
H13 H 0.5501 0.8232 0.7222
H14 H 0.5122 0.8353 0.6047
C13 C 0.64762(6) 0.84056(14) 0.67952(11)
C14 C 0.66161(6) 0.76589(15) 0.77493(12)
H15 H 0.6386 0.6994 0.7863
C15 C 0.70912(6) 0.78940(15) 0.85249(12)
H16 H 0.7181 0.7385 0.9152
C16 C 0.74339(6) 0.88916(16) 0.83653(12)
H17 H 0.7755 0.9053 0.8882
C17 C 0.72946(6) 0.96408(16) 0.74354(13)
H18 H 0.7523 1.0316 0.7336
C18 C 0.68179(6) 0.94097(14) 0.66376(12)
C19 C 0.66928(6) 1.02203(15) 0.56097(12)
H19 H 0.6931 0.9964 0.5126
H20 H 0.6770 1.1113 0.5807
C20 C 0.61005(6) 1.00959(14) 0.49985(12)
H21 H 0.5864 1.0567 0.5385
H22 H 0.6057 1.0453 0.4264
loop_
_geom_bond_atom_site_label_1
_geom_bond_atom_site_label_2
_geom_bond_site_symmetry_1
_geom_bond_site_symmetry_2
O1 C1 1_555 1_555
N1 H1 1_555 1_555
N2 C1 1_555 1_555
C1 N1 1_555 1_555
C2 N1 1_555 1_555
H2 C2 1_555 1_555
H3 C2 1_555 1_555
C3 C2 1_555 1_555
H4 C3 1_555 1_555
H5 C3 1_555 1_555
C4 C3 1_555 1_555
H6 C4 1_555 1_555
H7 C4 1_555 1_555
C5 C4 1_555 1_555
C6 C5 1_555 1_555
C7 N2 1_555 1_555
C8 C5 1_555 1_555
H8 C8 1_555 1_555
C9 C8 1_555 1_555
H9 C9 1_555 1_555
C10 C9 1_555 1_555
H10 C10 1_555 1_555
C11 C6 1_555 1_555
H11 C11 1_555 1_555
C12 C7 1_555 1_555
H12 C12 1_555 1_555
H13 C12 1_555 1_555
H14 C12 1_555 1_555
C13 C7 1_555 1_555
C14 C13 1_555 1_555
H15 C14 1_555 1_555
C15 C14 1_555 1_555
H16 C15 1_555 1_555
C16 C15 1_555 1_555
H17 C16 1_555 1_555
C17 C16 1_555 1_555
H18 C17 1_555 1_555
C18 C13 1_555 1_555
C19 C18 1_555 1_555
H19 C19 1_555 1_555
H20 C19 1_555 1_555
C20 N2 1_555 1_555
H21 C20 1_555 1_555
H22 C20 1_555 1_555
C6 C7 1_555 1_555
C10 C11 1_555 1_555
C17 C18 1_555 1_555
C19 C20 1_555 1_555

#END
