
#######################################################################
#
#                 Cambridge Crystallographic Data Centre
#                                CCDC 
#
#######################################################################
#
# If this CIF has been generated from an entry in the Cambridge 
# Structural Database, then it will include bibliographic, chemical, 
# crystal, experimental, refinement or atomic coordinate data resulting 
# from the CCDC's data processing and validation procedures.
#
#######################################################################

data_DAKCOK
_chemical_formula_moiety         'C21 H26 N2 O1'
_chemical_name_systematic        
2-t-butyl-1-phenyl-1,2,4,5,6,7-hexahydro-3H-benzo[e][1,3]diazonin-3-one
_symmetry_cell_setting           monoclinic
_symmetry_space_group_name_H-M   'P 21/n'
_symmetry_Int_Tables_number      14
_space_group_name_Hall           '-P 2yn'
loop_
_symmetry_equiv_pos_site_id
_symmetry_equiv_pos_as_xyz
1 x,y,z
2 1/2-x,1/2+y,1/2-z
3 -x,-y,-z
4 1/2+x,1/2-y,1/2+z
_cell_length_a                   9.9475(6)
_cell_length_b                   20.3963(11)
_cell_length_c                   10.0274(5)
_cell_angle_alpha                90
_cell_angle_beta                 119.698(3)
_cell_angle_gamma                90
_cell_volume                     1767.25
_exptl_crystal_colour            colorless
_exptl_crystal_description       block
_chemical_melting_point          '487-488 K'
_cell_formula_units_Z            4
loop_
_atom_site_label
_atom_site_type_symbol
_atom_site_fract_x
_atom_site_fract_y
_atom_site_fract_z
O1 O 0.46032(11) 0.26440(5) 0.75301(11)
N1 N 0.55797(12) 0.33926(5) 0.95662(12)
N2 N 0.70236(14) 0.25199(6) 0.95399(14)
C1 C 0.56551(15) 0.28286(6) 0.87788(15)
C2 C 0.64808(15) 0.39530(6) 0.94419(14)
H1 H 0.5798 0.4333 0.9210
C3 C 0.67536(15) 0.39018(6) 0.80580(15)
C4 C 0.79966(16) 0.35779(6) 0.80426(15)
C5 C 0.93048(15) 0.32198(7) 0.93808(15)
H2 H 0.9253 0.3312 1.0303
H3 H 1.0283 0.3388 0.9534
C6 C 0.92667(16) 0.24717(7) 0.91538(16)
H4 H 0.9489 0.2376 0.8335
H5 H 1.0072 0.2272 1.0087
C7 C 0.77027(16) 0.21659(7) 0.87573(16)
H6 H 0.7010 0.2184 0.7657
H7 H 0.7848 0.1709 0.9069
C8 C 0.40546(16) 0.35417(7) 0.94448(16)
C9 C 0.34287(18) 0.28948(8) 0.97038(18)
H8 H 0.3046 0.2627 0.8800
H9 H 0.2604 0.2986 0.9913
H10 H 0.4245 0.2667 1.0560
C10 C 0.28586(17) 0.38486(8) 0.79118(17)
H11 H 0.3197 0.4279 0.7821
H12 H 0.1879 0.3880 0.7876
H13 H 0.2752 0.3579 0.7080
C11 C 0.43391(18) 0.40048(8) 1.07610(17)
H14 H 0.4995 0.3793 1.1725
H15 H 0.3369 0.4115 1.0694
H16 H 0.4832 0.4397 1.0690
C12 C 0.79254(15) 0.41293(6) 1.09509(15)
C13 C 0.83161(16) 0.38144(7) 1.23249(15)
H17 H 0.7690 0.3479 1.2339
C14 C 0.96322(17) 0.39956(7) 1.36774(16)
H18 H 0.9885 0.3779 1.4588
C15 C 1.05689(18) 0.44978(8) 1.36767(17)
H19 H 1.1448 0.4619 1.4584
C16 C 1.01887(18) 0.48187(7) 1.23148(17)
H20 H 1.0814 0.5156 1.2306
C17 C 0.88756(17) 0.46368(7) 1.09674(16)
H21 H 0.8623 0.4856 1.0060
C18 C 0.56420(16) 0.42055(7) 0.67038(15)
H22 H 0.4817 0.4421 0.6702
C19 C 0.57282(18) 0.41960(7) 0.53638(16)
H23 H 0.4966 0.4398 0.4479
C20 C 0.69579(17) 0.38841(7) 0.53571(16)
H24 H 0.7037 0.3877 0.4471
C21 C 0.80668(16) 0.35827(7) 0.66806(16)
H25 H 0.8893 0.3375 0.6668
H26 H 0.7636(19) 0.2636(8) 1.0482(19)
loop_
_geom_bond_atom_site_label_1
_geom_bond_atom_site_label_2
_geom_bond_site_symmetry_1
_geom_bond_site_symmetry_2
O1 C1 1_555 1_555
N1 C1 1_555 1_555
N2 C1 1_555 1_555
C2 N1 1_555 1_555
H1 C2 1_555 1_555
C3 C2 1_555 1_555
C4 C3 1_555 1_555
C5 C4 1_555 1_555
H2 C5 1_555 1_555
H3 C5 1_555 1_555
C6 C5 1_555 1_555
H4 C6 1_555 1_555
H5 C6 1_555 1_555
C7 N2 1_555 1_555
H6 C7 1_555 1_555
H7 C7 1_555 1_555
C8 N1 1_555 1_555
C9 C8 1_555 1_555
H8 C9 1_555 1_555
H9 C9 1_555 1_555
H10 C9 1_555 1_555
C10 C8 1_555 1_555
H11 C10 1_555 1_555
H12 C10 1_555 1_555
H13 C10 1_555 1_555
C11 C8 1_555 1_555
H14 C11 1_555 1_555
H15 C11 1_555 1_555
H16 C11 1_555 1_555
C12 C2 1_555 1_555
C13 C12 1_555 1_555
H17 C13 1_555 1_555
C14 C13 1_555 1_555
H18 C14 1_555 1_555
C15 C14 1_555 1_555
H19 C15 1_555 1_555
C16 C15 1_555 1_555
H20 C16 1_555 1_555
C17 C12 1_555 1_555
H21 C17 1_555 1_555
C18 C3 1_555 1_555
H22 C18 1_555 1_555
C19 C18 1_555 1_555
H23 C19 1_555 1_555
C20 C19 1_555 1_555
H24 C20 1_555 1_555
C21 C4 1_555 1_555
H25 C21 1_555 1_555
H26 N2 1_555 1_555
C6 C7 1_555 1_555
C16 C17 1_555 1_555
C20 C21 1_555 1_555

#END
