
#######################################################################
#
#                 Cambridge Crystallographic Data Centre
#                                CCDC 
#
#######################################################################
#
# If this CIF has been generated from an entry in the Cambridge 
# Structural Database, then it will include bibliographic, chemical, 
# crystal, experimental, refinement or atomic coordinate data resulting 
# from the CCDC's data processing and validation procedures.
#
#######################################################################

data_DAKFUQ
_chemical_formula_moiety         'C10 H8 O1 S3'
_chemical_name_systematic        5-(p-Methoxyphenyl)-3H-1,2-dithiole-3-thione
_chemical_properties_biological  'chemoprotective and antimutagenic activity'
_symmetry_cell_setting           monoclinic
_symmetry_space_group_name_H-M   'P 21/n'
_symmetry_Int_Tables_number      14
_space_group_name_Hall           '-P 2yn'
loop_
_symmetry_equiv_pos_site_id
_symmetry_equiv_pos_as_xyz
1 x,y,z
2 1/2-x,1/2+y,1/2-z
3 -x,-y,-z
4 1/2+x,1/2-y,1/2+z
_cell_length_a                   10.834(2)
_cell_length_b                   13.446(2)
_cell_length_c                   7.517(2)
_cell_angle_alpha                90
_cell_angle_beta                 104.96(2)
_cell_angle_gamma                90
_cell_volume                     1057.92
_exptl_crystal_colour            orange
_cell_formula_units_Z            4
loop_
_atom_site_label
_atom_site_type_symbol
_atom_site_fract_x
_atom_site_fract_y
_atom_site_fract_z
S1 S 0.0090(1) 0.3664(1) 0.1881(1)
S2 S 0.2170(1) 0.2326(1) 0.3568(1)
S3 S 0.2093(1) 0.0812(1) 0.3799(1)
C1 C 0.0588(2) 0.2504(2) 0.2418(4)
C2 C -0.0109(2) 0.1609(2) 0.2092(4)
C3 C 0.0488(2) 0.0732(2) 0.2663(3)
C4 C -0.0088(2) -0.0258(2) 0.2444(4)
C5 C -0.1336(2) -0.0396(2) 0.1360(5)
C6 C -0.1895(2) -0.1323(2) 0.1181(4)
C7 C -0.1208(2) -0.2144(2) 0.2044(4)
C8 C 0.0028(2) -0.2023(2) 0.3102(4)
C9 C 0.0573(2) -0.1089(2) 0.3285(4)
C10 C -0.1121(3) -0.3904(2) 0.2500(5)
O1 O -0.1835(2) -0.3036(1) 0.1778(3)
H1 H -0.1166 0.1621 0.1422
H2 H -0.1878 0.0252 0.0649
H3 H -0.2883 -0.1418 0.0349
H4 H 0.0564 -0.2672 0.3819
H5 H 0.1572 -0.1006 0.4150
H6 H -0.0888 -0.3903 0.3958
H7 H -0.0196 -0.3917 0.2145
H8 H -0.1616 -0.4580 0.2038
loop_
_geom_bond_atom_site_label_1
_geom_bond_atom_site_label_2
_geom_bond_site_symmetry_1
_geom_bond_site_symmetry_2
S1 C1 1_555 1_555
S2 S3 1_555 1_555
S3 C3 1_555 1_555
C1 S2 1_555 1_555
C2 C1 1_555 1_555
C3 C2 1_555 1_555
C4 C3 1_555 1_555
C5 C4 1_555 1_555
C6 C5 1_555 1_555
C7 C6 1_555 1_555
C8 C7 1_555 1_555
C9 C4 1_555 1_555
C10 O1 1_555 1_555
O1 C7 1_555 1_555
H1 C2 1_555 1_555
H2 C5 1_555 1_555
H3 C6 1_555 1_555
H4 C8 1_555 1_555
H5 C9 1_555 1_555
H6 C10 1_555 1_555
H7 C10 1_555 1_555
H8 C10 1_555 1_555
C8 C9 1_555 1_555

#END
