
#######################################################################
#
#                 Cambridge Crystallographic Data Centre
#                                CCDC 
#
#######################################################################
#
# If this CIF has been generated from an entry in the Cambridge 
# Structural Database, then it will include bibliographic, chemical, 
# crystal, experimental, refinement or atomic coordinate data resulting 
# from the CCDC's data processing and validation procedures.
#
#######################################################################

data_DAKKEI
_chemical_formula_moiety         'C14 H17 B1 F3 N1 O2'
_chemical_name_systematic        
2-trifluoroacetoxy-1-(2-phenylethyl)-1-azonia-2-boratacyclohex-3-ene
_symmetry_cell_setting           monoclinic
_symmetry_space_group_name_H-M   'P 21/c'
_symmetry_Int_Tables_number      14
_space_group_name_Hall           '-P 2ybc'
loop_
_symmetry_equiv_pos_site_id
_symmetry_equiv_pos_as_xyz
1 x,y,z
2 -x,1/2+y,1/2-z
3 -x,-y,-z
4 x,1/2-y,1/2+z
_cell_length_a                   5.9079(2)
_cell_length_b                   8.3952(3)
_cell_length_c                   29.9772(11)
_cell_angle_alpha                90
_cell_angle_beta                 92.461(2)
_cell_angle_gamma                90
_cell_volume                     1485.44
_exptl_crystal_colour            colorless
_exptl_crystal_description       plate
_cell_formula_units_Z            4
loop_
_atom_site_label
_atom_site_type_symbol
_atom_site_fract_x
_atom_site_fract_y
_atom_site_fract_z
O1 O 0.2855(2) 0.36014(17) 0.41435(5)
O2 O -0.0917(3) 0.3431(2) 0.42186(6)
F1 F 0.0214(6) 0.0449(3) 0.45536(10)
N1 N 0.5546(3) 0.5684(2) 0.39932(7)
F2 F 0.3392(4) 0.0596(3) 0.4244(2)
F3 F 0.0279(10) 0.0394(4) 0.38474(10)
C1 C 0.6507(4) 0.3639(3) 0.28726(8)
C2 C 0.0962(4) 0.2888(3) 0.41903(7)
C3 C 0.5460(4) 0.3834(3) 0.33208(8)
H1 H 0.6008 0.2981 0.3526
H2 H 0.3791 0.3750 0.3285
C4 C 0.6115(4) 0.5465(3) 0.35153(8)
H3 H 0.7765 0.5618 0.3490
H4 H 0.5334 0.6301 0.3334
C5 C 0.8483(4) 0.2764(3) 0.28305(8)
H5 H 0.9151 0.2246 0.3085
C6 C 0.1228(4) 0.1070(3) 0.42069(8)
C7 C 0.5560(4) 0.4390(3) 0.24958(8)
H6 H 0.4205 0.4989 0.2517
C8 C 0.6327(4) 0.7315(3) 0.41430(8)
H7 H 0.5397 0.8133 0.3984
H8 H 0.7922 0.7469 0.4064
C9 C 0.6145(4) 0.7535(3) 0.46398(9)
H9 H 0.7311 0.6869 0.4796
H10 H 0.6478 0.8661 0.4715
C10 C 0.3869(4) 0.7112(3) 0.48092(9)
H11 H 0.3451 0.7506 0.5091
C11 C 0.2438(4) 0.6204(3) 0.45754(9)
H12 H 0.1002 0.5998 0.4695
C12 C 0.9496(4) 0.2636(3) 0.24235(9)
H13 H 1.0840 0.2026 0.2400
C13 C 0.8544(4) 0.3398(3) 0.20525(9)
H14 H 0.9238 0.3321 0.1773
C14 C 0.6581(5) 0.4271(3) 0.20886(9)
H15 H 0.5925 0.4794 0.1833
B1 B 0.2958(4) 0.5429(3) 0.41063(9)
H16 H 0.188(4) 0.582(3) 0.3813(8)
H17 H 0.647(5) 0.500(4) 0.4159(9)
F4? F 0.303(2) 0.0648(19) 0.4476(5)
F5? F 0.167(3) 0.057(2) 0.3812(5)
F6? F -0.057(3) 0.040(2) 0.4364(6)
F7? F 0.112(2) 0.0536(16) 0.4598(4)
F8? F 0.2920(17) 0.0568(13) 0.3994(3)
F9? F -0.0588(19) 0.0502(18) 0.3947(4)
loop_
_geom_bond_atom_site_label_1
_geom_bond_atom_site_label_2
_geom_bond_site_symmetry_1
_geom_bond_site_symmetry_2
O1 C2 1_555 1_555
O2 C2 1_555 1_555
F1 C6 1_555 1_555
N1 C4 1_555 1_555
F2 C6 1_555 1_555
F3 C6 1_555 1_555
C1 C3 1_555 1_555
C2 C6 1_555 1_555
C3 H1 1_555 1_555
H2 C3 1_555 1_555
C4 C3 1_555 1_555
H3 C4 1_555 1_555
H4 C4 1_555 1_555
C5 C1 1_555 1_555
H5 C5 1_555 1_555
C7 C1 1_555 1_555
H6 C7 1_555 1_555
C8 N1 1_555 1_555
H7 C8 1_555 1_555
H8 C8 1_555 1_555
C9 C8 1_555 1_555
H9 C9 1_555 1_555
H10 C9 1_555 1_555
C10 C9 1_555 1_555
H11 C10 1_555 1_555
C11 C10 1_555 1_555
H12 C11 1_555 1_555
C12 C5 1_555 1_555
H13 C12 1_555 1_555
C13 C12 1_555 1_555
H14 C13 1_555 1_555
C14 C7 1_555 1_555
H15 C14 1_555 1_555
B1 O1 1_555 1_555
H16 B1 1_555 1_555
H17 N1 1_555 1_555
N1 B1 1_555 1_555
C11 B1 1_555 1_555
C13 C14 1_555 1_555

#END
