
#######################################################################
#
#                 Cambridge Crystallographic Data Centre
#                                CCDC 
#
#######################################################################
#
# If this CIF has been generated from an entry in the Cambridge 
# Structural Database, then it will include bibliographic, chemical, 
# crystal, experimental, refinement or atomic coordinate data resulting 
# from the CCDC's data processing and validation procedures.
#
#######################################################################

data_DAKSIR10
_chemical_name_common            
37,38,39,40,41,42-hexakis(Ethoxycarbonylmethoxy)calix(6)arene
_chemical_formula_moiety         'C66 H72 O18'
_chemical_name_systematic        
37,38,39,40,41,42-hexakis(Ethoxycarbonylmethoxy)-heptacyclo(31.3.1.1^3,7^.1^9,13^.1^15,19^.1^21,25^.1^27,31^)dotetraconta-1(37),3,5,7(38),9,11,13(39),15,17,19(40),21,23,25(41),27,29,31(42),33,35-octadecaene
_symmetry_cell_setting           monoclinic
_symmetry_space_group_name_H-M   'C 2/c'
_symmetry_Int_Tables_number      15
_space_group_name_Hall           '-C 2yn'
loop_
_symmetry_equiv_pos_site_id
_symmetry_equiv_pos_as_xyz
1 x,y,z
2 1/2+x,1/2+y,z
3 -x,y,1/2-z
4 1/2-x,1/2+y,1/2-z
5 -x,-y,-z
6 1/2-x,1/2-y,-z
7 x,-y,1/2+z
8 1/2+x,1/2-y,1/2+z
_cell_length_a                   21.906(4)
_cell_length_b                   11.805(2)
_cell_length_c                   23.534(4)
_cell_angle_alpha                90
_cell_angle_beta                 91.79(2)
_cell_angle_gamma                90
_cell_volume                     6082.93
_chemical_melting_point          154-155deg.C
_cell_formula_units_Z            4
loop_
_atom_site_label
_atom_site_type_symbol
_atom_site_fract_x
_atom_site_fract_y
_atom_site_fract_z
O1 O 0.0564(3) 0.1490(6) 0.0829(3)
O2 O -0.0102(4) 0.2446(8) 0.1639(4)
O3 O -0.0653(4) 0.0888(8) 0.1756(4)
C1 C 0.0821(5) 0.1077(9) 0.0331(5)
C2 C 0.1258(4) 0.0239(9) 0.0399(4)
C3 C 0.1531(5) -0.0132(11) -0.0079(5)
C4 C 0.1385(5) 0.0382(10) -0.0595(5)
C5 C 0.0949(5) 0.1192(8) -0.0639(5)
C6 C 0.0664(5) 0.1562(9) -0.0171(4)
C7 C 0.0191(5) 0.2558(9) -0.0217(5)
C8 C 0.0041(5) 0.0914(8) 0.0999(5)
C9 C -0.0221(5) 0.1399(10) 0.1510(6)
C10 C -0.0977(7) 0.1156(15) 0.2270(6)
C11 C -0.1507(6) 0.0576(14) 0.2358(7)
O4 O 0.0590(3) 0.3637(6) -0.1202(3)
O5 O -0.0208(4) 0.2198(8) -0.1668(4)
O6 O -0.0746(4) 0.3465(8) -0.2114(4)
C12 C 0.0709(5) 0.4229(9) -0.0675(5)
C13 C 0.0513(5) 0.3647(10) -0.0196(5)
C14 C 0.0666(5) 0.4215(11) 0.0312(5)
C15 C 0.0997(5) 0.5167(9) 0.0341(5)
C16 C 0.1183(5) 0.5659(10) -0.0141(5)
C17 C 0.1054(4) 0.5195(9) -0.0670(5)
C18 C 0.1299(5) 0.5666(10) -0.1220(5)
C19 C 0.0085(5) 0.4120(12) -0.1537(5)
C20 C -0.0315(5) 0.3161(10) -0.1779(5)
C21 C -0.1202(7) 0.2714(14) -0.2373(6)
C22 C -0.1729(7) 0.3089(15) -0.2550(8)
O7 O 0.2382(3) 0.4402(6) -0.1265(3)
O8 O 0.2740(5) 0.1789(8) -0.0616(5)
O9 O 0.2951(5) 0.2488(8) -0.1455(4)
C23 C 0.2459(5) 0.5554(9) -0.1116(4)
C24 C 0.1933(5) 0.6228(9) -0.1136(4)
C25 C 0.1999(5) 0.7349(9) -0.1018(5)
C26 C 0.2577(5) 0.7832(9) -0.0916(5)
C27 C 0.3078(5) 0.7147(10) -0.0914(5)
C28 C 0.3048(5) 0.5983(10) -0.1006(5)
C29 C 0.1404(5) -0.0248(11) 0.0983(5)
C30 C 0.2348(5) 0.3578(9) -0.0810(5)
C31 C 0.2671(5) 0.2504(10) -0.0970(6)
C32 C 0.3325(9) 0.1483(12) -0.1626(8)
C33 C 0.3207(10) 0.1184(18) -0.2115(9)
H1 H 0.1860 -0.0827 -0.0055
H2 H 0.1630 0.0142 -0.0971
H3 H 0.0828 0.1555 -0.1051
H4 H -0.0114 0.2509 0.0134
H5 H -0.0072 0.2491 -0.0613
H6 H -0.0300 0.0934 0.0647
H7 H 0.0157 0.0027 0.1076
H8 H -0.1074 0.2068 0.2264
H9 H -0.0653 0.1007 0.2629
H10 H 0.0504 0.3822 0.0706
H11 H 0.1109 0.5554 0.0757
H12 H 0.1457 0.6457 -0.0123
H13 H 0.1307 0.5029 -0.1547
H14 H 0.0969 0.6337 -0.1382
H15 H -0.0183 0.4661 -0.1267
H16 H 0.0258 0.4627 -0.1881
H17 H -0.1285 0.2059 -0.2061
H18 H -0.0991 0.2331 -0.2736
H19 H 0.1598 0.7878 -0.1013
H20 H 0.2623 0.8729 -0.0832
H21 H 0.3523 0.7539 -0.0840
H22 H 0.1013 -0.0732 0.1118
H23 H 0.1481 0.0447 0.1278
H24 H 0.1874 0.3403 -0.0725
H25 H 0.2565 0.3930 -0.0427
H26 H 0.3830 0.1727 -0.1604
H27 H 0.3294 0.0786 -0.1321
C29E C 0.3596(5) 0.5248(11) -0.0983(5)
C28E C 0.1952(5) -0.0983(10) 0.1006(5)
C2E C 0.3742(4) 0.4761(9) -0.0399(4)
H22E H 0.3987 0.5732 -0.1118
H23E H 0.3519 0.4553 -0.1278
C23E C 0.2541(5) -0.0554(9) 0.1116(4)
C27E C 0.1922(5) -0.2147(10) 0.0914(5)
C1E C 0.4179(5) 0.3923(9) -0.0331(5)
C3E C 0.3469(5) 0.5132(11) 0.0079(5)
O7E O 0.2618(3) 0.0598(6) 0.1265(3)
C24E C 0.3067(5) -0.1228(9) 0.1136(4)
C26E C 0.2423(5) -0.2832(9) 0.0916(5)
H21E H 0.1477 -0.2539 0.0840
O1E O 0.4436(3) 0.3510(6) -0.0829(3)
C6E C 0.4336(5) 0.3438(9) 0.0171(4)
C4E C 0.3615(5) 0.4618(10) 0.0595(5)
H1E H 0.3140 0.5827 0.0055
C30E C 0.2652(5) 0.1422(9) 0.0810(5)
C18E C 0.3701(5) -0.0666(10) 0.1220(5)
C25E C 0.3001(5) -0.2349(9) 0.1018(5)
H20E H 0.2377 -0.3729 0.0832
C8E C 0.4959(5) 0.4086(8) -0.0999(5)
C5E C 0.4051(5) 0.3808(8) 0.0639(5)
C7E C 0.4809(5) 0.2442(9) 0.0217(5)
H2E H 0.3370 0.4858 0.0971
C31E C 0.2329(5) 0.2496(10) 0.0970(6)
H24E H 0.3126 0.1597 0.0725
H25E H 0.2435 0.1070 0.0427
C17E C 0.3946(4) -0.0195(9) 0.0670(5)
H13E H 0.3693 -0.0029 0.1547
H14E H 0.4031 -0.1337 0.1382
H19E H 0.3402 -0.2878 0.1013
C9E C 0.5221(5) 0.3601(10) -0.1510(6)
H6E H 0.5300 0.4066 -0.0647
H7E H 0.4843 0.4973 -0.1076
H3E H 0.4172 0.3445 0.1051
C13E C 0.4487(5) 0.1353(10) 0.0196(5)
H4E H 0.5114 0.2491 -0.0134
H5E H 0.5072 0.2509 0.0613
O8E O 0.2260(5) 0.3211(8) 0.0616(5)
O9E O 0.2049(5) 0.2512(8) 0.1455(4)
C12E C 0.4291(5) 0.0771(9) 0.0675(5)
C16E C 0.3817(5) -0.0659(10) 0.0141(5)
O2E O 0.5102(4) 0.2554(8) -0.1639(4)
O3E O 0.5653(4) 0.4112(8) -0.1756(4)
C14E C 0.4334(5) 0.0785(11) -0.0312(5)
C32E C 0.1675(9) 0.3517(12) 0.1626(8)
O4E O 0.4410(3) 0.1363(6) 0.1202(3)
C15E C 0.4003(5) -0.0167(9) -0.0341(5)
H12E H 0.3543 -0.1457 0.0123
C10E C 0.5977(7) 0.3844(15) -0.2270(6)
H10E H 0.4496 0.1178 -0.0706
C33E C 0.1793(10) 0.3816(18) 0.2115(9)
H26E H 0.1170 0.3273 0.1604
H27E H 0.1706 0.4214 0.1321
C19E C 0.4915(5) 0.0880(12) 0.1537(5)
H11E H 0.3891 -0.0554 -0.0757
C11E C 0.6507(6) 0.4424(14) -0.2358(7)
H8E H 0.6074 0.2932 -0.2264
H9E H 0.5653 0.3993 -0.2629
C20E C 0.5315(5) 0.1839(10) 0.1779(5)
H15E H 0.5183 0.0339 0.1267
H16E H 0.4742 0.0373 0.1881
O5E O 0.5208(4) 0.2802(8) 0.1668(4)
O6E O 0.5746(4) 0.1535(8) 0.2114(4)
C21E C 0.6202(7) 0.2286(14) 0.2373(6)
C22E C 0.6729(7) 0.1911(15) 0.2550(8)
H17E H 0.6285 0.2941 0.2061
H18E H 0.5991 0.2669 0.2736
loop_
_geom_bond_atom_site_label_1
_geom_bond_atom_site_label_2
_geom_bond_site_symmetry_1
_geom_bond_site_symmetry_2
O1 C1 1_555 1_555
O2 C9 1_555 1_555
O3 C9 1_555 1_555
C1 C2 1_555 1_555
C2 C3 1_555 1_555
C3 C4 1_555 1_555
C4 C5 1_555 1_555
C5 C6 1_555 1_555
C6 C1 1_555 1_555
C7 C6 1_555 1_555
C8 O1 1_555 1_555
C9 C8 1_555 1_555
C10 O3 1_555 1_555
C11 C10 1_555 1_555
O4 C12 1_555 1_555
O5 C20 1_555 1_555
O6 C20 1_555 1_555
C12 C13 1_555 1_555
C13 C7 1_555 1_555
C14 C13 1_555 1_555
C15 C14 1_555 1_555
C16 C15 1_555 1_555
C17 C12 1_555 1_555
C18 C17 1_555 1_555
C19 O4 1_555 1_555
C20 C19 1_555 1_555
C21 O6 1_555 1_555
C22 C21 1_555 1_555
O7 C23 1_555 1_555
O8 C31 1_555 1_555
O9 C31 1_555 1_555
C23 C24 1_555 1_555
C24 C18 1_555 1_555
C25 C24 1_555 1_555
C26 C25 1_555 1_555
C27 C26 1_555 1_555
C28 C23 1_555 1_555
C29 C2 1_555 1_555
C30 O7 1_555 1_555
C31 C30 1_555 1_555
C32 O9 1_555 1_555
C33 C32 1_555 1_555
H1 C3 1_555 1_555
H2 C4 1_555 1_555
H3 C5 1_555 1_555
H4 C7 1_555 1_555
H5 C7 1_555 1_555
H6 C8 1_555 1_555
H7 C8 1_555 1_555
H8 C10 1_555 1_555
H9 C10 1_555 1_555
H10 C14 1_555 1_555
H11 C15 1_555 1_555
H12 C16 1_555 1_555
H13 C18 1_555 1_555
H14 C18 1_555 1_555
H15 C19 1_555 1_555
H16 C19 1_555 1_555
H17 C21 1_555 1_555
H18 C21 1_555 1_555
H19 C25 1_555 1_555
H20 C26 1_555 1_555
H21 C27 1_555 1_555
H22 C29 1_555 1_555
H23 C29 1_555 1_555
H24 C30 1_555 1_555
H25 C30 1_555 1_555
H26 C32 1_555 1_555
H27 C32 1_555 1_555
C29E C28 1_555 1_555
C28E C29 1_555 1_555
C2E C29E 1_555 1_555
H22E C29E 1_555 1_555
H23E C29E 1_555 1_555
C23E C28E 1_555 1_555
C27E C28E 1_555 1_555
C1E C2E 1_555 1_555
C3E C2E 1_555 1_555
O7E C23E 1_555 1_555
C24E C23E 1_555 1_555
C26E C27E 1_555 1_555
H21E C27E 1_555 1_555
O1E C1E 1_555 1_555
C6E C1E 1_555 1_555
C4E C3E 1_555 1_555
H1E C3E 1_555 1_555
C30E O7E 1_555 1_555
C18E C24E 1_555 1_555
C25E C24E 1_555 1_555
H20E C26E 1_555 1_555
C8E O1E 1_555 1_555
C5E C6E 1_555 1_555
C7E C6E 1_555 1_555
H2E C4E 1_555 1_555
C31E C30E 1_555 1_555
H24E C30E 1_555 1_555
H25E C30E 1_555 1_555
C17E C18E 1_555 1_555
H13E C18E 1_555 1_555
H14E C18E 1_555 1_555
H19E C25E 1_555 1_555
C9E C8E 1_555 1_555
H6E C8E 1_555 1_555
H7E C8E 1_555 1_555
H3E C5E 1_555 1_555
C13E C7E 1_555 1_555
H4E C7E 1_555 1_555
H5E C7E 1_555 1_555
O8E C31E 1_555 1_555
O9E C31E 1_555 1_555
C12E C17E 1_555 1_555
C16E C17E 1_555 1_555
O2E C9E 1_555 1_555
O3E C9E 1_555 1_555
C14E C13E 1_555 1_555
C32E O9E 1_555 1_555
O4E C12E 1_555 1_555
C15E C16E 1_555 1_555
H12E C16E 1_555 1_555
C10E O3E 1_555 1_555
H10E C14E 1_555 1_555
C33E C32E 1_555 1_555
H26E C32E 1_555 1_555
H27E C32E 1_555 1_555
C19E O4E 1_555 1_555
H11E C15E 1_555 1_555
C11E C10E 1_555 1_555
H8E C10E 1_555 1_555
H9E C10E 1_555 1_555
C20E C19E 1_555 1_555
H15E C19E 1_555 1_555
H16E C19E 1_555 1_555
O5E C20E 1_555 1_555
O6E C20E 1_555 1_555
C21E O6E 1_555 1_555
C22E C21E 1_555 1_555
H17E C21E 1_555 1_555
H18E C21E 1_555 1_555
C16 C17 1_555 1_555
C27 C28 1_555 1_555
C26E C25E 1_555 1_555
C4E C5E 1_555 1_555
C13E C12E 1_555 1_555
C14E C15E 1_555 1_555

#END
