
#######################################################################
#
#                 Cambridge Crystallographic Data Centre
#                                CCDC 
#
#######################################################################
#
# If this CIF has been generated from an entry in the Cambridge 
# Structural Database, then it will include bibliographic, chemical, 
# crystal, experimental, refinement or atomic coordinate data resulting 
# from the CCDC's data processing and validation procedures.
#
#######################################################################

data_DAKZOF
_chemical_formula_moiety         'C21 H12 O3'
_chemical_name_systematic        8-hydroxy-7H-dibenzo[b,h]xanthen-7-one
_symmetry_cell_setting           monoclinic
_symmetry_space_group_name_H-M   'P 21/n'
_symmetry_Int_Tables_number      14
_space_group_name_Hall           '-P 2yn'
loop_
_symmetry_equiv_pos_site_id
_symmetry_equiv_pos_as_xyz
1 x,y,z
2 1/2-x,1/2+y,1/2-z
3 -x,-y,-z
4 1/2+x,1/2-y,1/2+z
_cell_length_a                   7.729(1)
_cell_length_b                   8.127(3)
_cell_length_c                   23.067(3)
_cell_angle_alpha                90
_cell_angle_beta                 95.95(1)
_cell_angle_gamma                90
_cell_volume                     1441.12
_cell_formula_units_Z            4
loop_
_atom_site_label
_atom_site_type_symbol
_atom_site_fract_x
_atom_site_fract_y
_atom_site_fract_z
O1 O 0.8712(2) 0.1724(2) 0.11351(8)
O2 O 0.7470(2) 0.0130(3) 0.19616(8)
O3 O 0.3854(2) 0.1746(2) 0.02390(7)
C1 C 0.3100(3) 0.3321(3) -0.0818(1)
C2 C 0.2784(4) 0.4097(3) -0.1338(1)
C3 C 0.4121(4) 0.4874(4) -0.1598(1)
C4 C 0.5765(3) 0.4867(3) -0.1327(1)
C5 C 0.6166(3) 0.4075(3) -0.0786(1)
C6 C 0.7871(3) 0.4023(4) -0.0498(1)
C7 C 0.8226(3) 0.3267(3) 0.0017(1)
C8 C 0.6875(3) 0.2489(3) 0.0297(1)
C9 C 0.7230(3) 0.1714(3) 0.0862(1)
C10 C 0.5762(3) 0.0933(3) 0.1093(1)
C11 C 0.5936(3) 0.0159(3) 0.1631(1)
C12 C 0.4509(3) -0.0632(3) 0.1850(1)
C13 C 0.4662(3) -0.1450(3) 0.2392(1)
C14 C 0.3274(4) -0.2184(4) 0.2592(1)
C15 C 0.1657(3) -0.2154(3) 0.2256(1)
C16 C 0.1449(3) -0.1393(3) 0.1724(1)
C17 C 0.2881(3) -0.0594(3) 0.1506(1)
C18 C 0.2694(3) 0.0231(3) 0.0961(1)
C19 C 0.4102(3) 0.0954(3) 0.07705(9)
C20 C 0.5225(3) 0.2499(3) 0.0016(1)
C21 C 0.4795(3) 0.3297(3) -0.0528(1)
H1 H 0.2178 0.2793 -0.0648
H2 H 0.1634 0.4114 -0.1529
H3 H 0.3879 0.5405 -0.1965
H4 H 0.6663 0.5408 -0.1504
H5 H 0.8789 0.4536 -0.0674
H6 H 0.9387 0.3249 0.0199
H7 H 0.5758 -0.1484 0.2619
H8 H 0.3394 -0.2721 0.2960
H9 H 0.0686 -0.2672 0.2400
H10 H 0.0346 -0.1400 0.1501
H11 H 0.1596 0.0274 0.0735
H12 H 0.819(3) 0.069(3) 0.173(1)
loop_
_geom_bond_atom_site_label_1
_geom_bond_atom_site_label_2
_geom_bond_site_symmetry_1
_geom_bond_site_symmetry_2
O1 C9 1_555 1_555
O2 C11 1_555 1_555
O3 C19 1_555 1_555
C1 C2 1_555 1_555
C2 C3 1_555 1_555
C3 C4 1_555 1_555
C4 C5 1_555 1_555
C5 C6 1_555 1_555
C6 C7 1_555 1_555
C7 C8 1_555 1_555
C8 C9 1_555 1_555
C9 C10 1_555 1_555
C10 C11 1_555 1_555
C11 C12 1_555 1_555
C12 C13 1_555 1_555
C13 C14 1_555 1_555
C14 C15 1_555 1_555
C15 C16 1_555 1_555
C16 C17 1_555 1_555
C17 C12 1_555 1_555
C18 C17 1_555 1_555
C19 C10 1_555 1_555
C20 O3 1_555 1_555
C21 C1 1_555 1_555
H1 C1 1_555 1_555
H2 C2 1_555 1_555
H3 C3 1_555 1_555
H4 C4 1_555 1_555
H5 C6 1_555 1_555
H6 C7 1_555 1_555
H7 C13 1_555 1_555
H8 C14 1_555 1_555
H9 C15 1_555 1_555
H10 C16 1_555 1_555
H11 C18 1_555 1_555
H12 O2 1_555 1_555
C5 C21 1_555 1_555
C8 C20 1_555 1_555
C18 C19 1_555 1_555
C20 C21 1_555 1_555

#END
