
#######################################################################
#
#                 Cambridge Crystallographic Data Centre
#                                CCDC 
#
#######################################################################
#
# If this CIF has been generated from an entry in the Cambridge 
# Structural Database, then it will include bibliographic, chemical, 
# crystal, experimental, refinement or atomic coordinate data resulting 
# from the CCDC's data processing and validation procedures.
#
#######################################################################

data_DAKZUL
_chemical_formula_moiety         'C26 H22 O7,1.9(C1 H1 Cl3)'
_chemical_name_systematic        
'8-hydroxy-1,3,9,11-tetramethoxy-6-methyl-7H-dibenzo[b,h]xanthen-7-one chloroform solvate'
_symmetry_cell_setting           triclinic
_symmetry_space_group_name_H-M   'P -1'
_symmetry_Int_Tables_number      2
_space_group_name_Hall           '-P 1'
loop_
_symmetry_equiv_pos_site_id
_symmetry_equiv_pos_as_xyz
1 x,y,z
2 -x,-y,-z
_cell_length_a                   10.404(3)
_cell_length_b                   11.124(3)
_cell_length_c                   15.392(6)
_cell_angle_alpha                67.91(2)
_cell_angle_beta                 77.29(2)
_cell_angle_gamma                66.97(2)
_cell_volume                     1513.5
_exptl_crystal_colour            orange
_exptl_crystal_description       'diamond-like platelet'
_cell_formula_units_Z            2
loop_
_atom_site_label
_atom_site_type_symbol
_atom_site_fract_x
_atom_site_fract_y
_atom_site_fract_z
Cl1 Cl 0.6784(6) 0.3308(5) 0.0838(4)
Cl2 Cl 0.6059(4) 0.2830(8) -0.0656(3)
Cl3 Cl 0.8307(4) 0.0804(5) 0.0339(3)
C1 C 0.674(1) 0.207(1) 0.0397(7)
H1 H 0.6149 0.1704 0.0813
Cl4 Cl 0.2743(4) 0.3607(4) 0.0963(2)
Cl5 Cl 0.055(1) 0.308(2) 0.114(1)
Cl6 Cl 0.3259(4) 0.0912(4) 0.1106(3)
C2 C 0.209(1) 0.230(1) 0.1443(7)
H2 H 0.2075 0.1973 0.2101
O1 O 0.7586(4) 0.3810(4) 0.3908(3)
O2 O 0.6857(5) 0.2157(4) 0.6743(3)
O3 O 0.7673(5) -0.0193(4) 0.6585(3)
O4 O 0.7602(5) 0.5767(4) 0.2414(3)
O5 O 0.5826(5) 1.0305(4) 0.2531(3)
O6 O 0.8557(5) -0.2562(4) 0.6307(3)
O7 O 1.0143(5) -0.2826(4) 0.3263(3)
C3 C 0.7031(7) 0.6669(6) 0.2913(5)
C4 C 0.6674(7) 0.8077(6) 0.2503(5)
C5 C 0.6114(7) 0.8939(6) 0.3068(5)
C6 C 0.5861(6) 0.8464(6) 0.4003(5)
C7 C 0.6172(6) 0.7015(7) 0.4445(5)
C8 C 0.5892(7) 0.6477(6) 0.5438(5)
C9 C 0.6159(6) 0.5145(6) 0.5913(4)
C10 C 0.6772(6) 0.4164(6) 0.5412(4)
C11 C 0.7059(7) 0.2671(6) 0.5870(5)
C12 C 0.7609(6) 0.1810(6) 0.5277(5)
C13 C 0.7909(6) 0.0378(6) 0.5651(4)
C14 C 0.8452(6) -0.0460(6) 0.5061(5)
C15 C 0.8812(6) -0.1949(6) 0.5354(5)
C16 C 0.9374(7) -0.2652(6) 0.4736(5)
C17 C 0.9580(6) -0.1958(6) 0.3788(5)
C18 C 0.9259(7) -0.0584(6) 0.3455(5)
C19 C 0.8702(6) 0.0186(6) 0.4080(5)
C20 C 0.8381(6) 0.1634(6) 0.3720(5)
C21 C 0.7864(6) 0.2417(6) 0.4302(5)
C22 C 0.7044(6) 0.4629(5) 0.4441(4)
C23 C 0.6790(6) 0.6079(6) 0.3926(5)
C24 C 0.5818(7) 0.4719(7) 0.6969(5)
C25 C 0.779(1) 0.6350(8) 0.1415(6)
C26 C 0.5241(8) 1.1296(7) 0.3035(6)
C27 C 0.8987(7) -0.4034(6) 0.6651(5)
C28 C 1.0434(8) -0.2225(7) 0.2274(5)
H3 H 0.6805 0.8467 0.1840
H4 H 0.5483 0.9076 0.4362
H5 H 0.5488 0.7111 0.5780
H6 H 0.9629 -0.3628 0.4952
H7 H 0.9405 -0.0132 0.2800
H8 H 0.8529 0.2068 0.3062
H9 H 0.5446 0.5515 0.7163
H10 H 0.5146 0.4269 0.7135
H11 H 0.6647 0.4107 0.7271
H12 H 0.8409 0.6856 0.1260
H13 H 0.6911 0.6950 0.1178
H14 H 0.8177 0.5632 0.1142
H15 H 0.5874 1.1109 0.3468
H16 H 0.4374 1.1228 0.3367
H17 H 0.5092 1.2201 0.2600
H18 H 0.8700 -0.4331 0.7303
H19 H 0.9978 -0.4413 0.6557
H20 H 0.8568 -0.4336 0.6320
H21 H 0.9589 -0.1585 0.2003
H22 H 1.1078 -0.1762 0.2172
H23 H 1.0829 -0.2931 0.1990
H24 H 0.7296 0.0690 0.6768
Cl7? Cl 0.616(4) 0.345(2) -0.012(3)
Cl8? Cl 0.691(4) 0.113(4) -0.026(2)
Cl9? Cl 0.844(3) 0.185(3) 0.053(2)
Cl10? Cl 0.171(3) 0.396(4) 0.091(2)
Cl11? Cl 0.0375(6) 0.2577(7) 0.1103(4)
Cl12? Cl 0.208(4) 0.098(3) 0.108(2)
loop_
_geom_bond_atom_site_label_1
_geom_bond_atom_site_label_2
_geom_bond_site_symmetry_1
_geom_bond_site_symmetry_2
Cl1 C1 1_555 1_555
Cl2 C1 1_555 1_555
Cl3 C1 1_555 1_555
C1 H1 1_555 1_555
Cl4 C2 1_555 1_555
Cl5 C2 1_555 1_555
Cl6 C2 1_555 1_555
C2 H2 1_555 1_555
O1 C21 1_555 1_555
O2 C11 1_555 1_555
O3 C13 1_555 1_555
O4 C3 1_555 1_555
O5 C5 1_555 1_555
O6 C15 1_555 1_555
O7 C17 1_555 1_555
C3 C4 1_555 1_555
C4 C5 1_555 1_555
C5 C6 1_555 1_555
C6 C7 1_555 1_555
C7 C8 1_555 1_555
C8 C9 1_555 1_555
C9 C10 1_555 1_555
C10 C11 1_555 1_555
C11 C12 1_555 1_555
C12 C13 1_555 1_555
C13 C14 1_555 1_555
C14 C15 1_555 1_555
C15 C16 1_555 1_555
C16 C17 1_555 1_555
C17 C18 1_555 1_555
C18 C19 1_555 1_555
C19 C14 1_555 1_555
C20 C19 1_555 1_555
C21 C12 1_555 1_555
C22 O1 1_555 1_555
C23 C3 1_555 1_555
C24 C9 1_555 1_555
C25 O4 1_555 1_555
C26 O5 1_555 1_555
C27 O6 1_555 1_555
C28 O7 1_555 1_555
H3 C4 1_555 1_555
H4 C6 1_555 1_555
H5 C8 1_555 1_555
H6 C16 1_555 1_555
H7 C18 1_555 1_555
H8 C20 1_555 1_555
H9 C24 1_555 1_555
H10 C24 1_555 1_555
H11 C24 1_555 1_555
H12 C25 1_555 1_555
H13 C25 1_555 1_555
H14 C25 1_555 1_555
H15 C26 1_555 1_555
H16 C26 1_555 1_555
H17 C26 1_555 1_555
H18 C27 1_555 1_555
H19 C27 1_555 1_555
H20 C27 1_555 1_555
H21 C28 1_555 1_555
H22 C28 1_555 1_555
H23 C28 1_555 1_555
H24 O3 1_555 1_555
C7 C23 1_555 1_555
C10 C22 1_555 1_555
C20 C21 1_555 1_555
C22 C23 1_555 1_555

#END
