
#######################################################################
#
#                 Cambridge Crystallographic Data Centre
#                                CCDC 
#
#######################################################################
#
# If this CIF has been generated from an entry in the Cambridge 
# Structural Database, then it will include bibliographic, chemical, 
# crystal, experimental, refinement or atomic coordinate data resulting 
# from the CCDC's data processing and validation procedures.
#
#######################################################################

data_DALDEC
_chemical_formula_moiety         'C18 H14 Cl1 N1'
_chemical_name_systematic        
N-(4-chloro-2-(cyclopropylidene(4-methylphenyl)methyl)phenyl)cyanide
_symmetry_cell_setting           monoclinic
_symmetry_space_group_name_H-M   'P 21/n'
_symmetry_Int_Tables_number      14
_space_group_name_Hall           '-P 2yn'
loop_
_symmetry_equiv_pos_site_id
_symmetry_equiv_pos_as_xyz
1 x,y,z
2 1/2-x,1/2+y,1/2-z
3 -x,-y,-z
4 1/2+x,1/2-y,1/2+z
_cell_length_a                   8.1233(11)
_cell_length_b                   16.451(2)
_cell_length_c                   11.1510(14)
_cell_angle_alpha                90
_cell_angle_beta                 97.275(3)
_cell_angle_gamma                90
_cell_volume                     1478.18
_exptl_crystal_colour            colorless
_exptl_crystal_description       prismatic
_cell_formula_units_Z            4
loop_
_atom_site_label
_atom_site_type_symbol
_atom_site_fract_x
_atom_site_fract_y
_atom_site_fract_z
Cl1 Cl 0.79913(10) 0.05013(6) 0.97354(8)
N1 N 0.1327(3) 0.13809(13) 0.7515(2)
C1 C 0.5389(3) 0.04029(15) 0.7991(2)
H1 H 0.6024 0.0023 0.7636
C2 C 0.6023(3) 0.07629(16) 0.9062(2)
C3 C 0.5134(4) 0.13319(17) 0.9607(2)
H2 H 0.5582 0.1578 1.0325
C4 C 0.3578(4) 0.15317(15) 0.9075(2)
H3 H 0.2957 0.1914 0.9437
C5 C 0.2928(3) 0.11690(14) 0.8008(2)
C6 C 0.3816(3) 0.05973(13) 0.7432(2)
C7 C 0.3125(3) 0.01810(13) 0.62943(19)
C8 C 0.3028(3) -0.06178(14) 0.6305(2)
C9 C 0.3283(3) -0.13696(15) 0.6996(2)
H4 H 0.2534 -0.1488 0.7586
H5 H 0.4413 -0.1559 0.7209
C10 C 0.2574(4) -0.13676(14) 0.5665(2)
H6 H 0.3280 -0.1557 0.5084
H7 H 0.1402 -0.1486 0.5460
C11 C 0.2622(3) 0.06716(13) 0.51900(19)
C12 C 0.1632(3) 0.03468(14) 0.4200(2)
H8 H 0.1258 -0.0186 0.4231
C13 C 0.1195(3) 0.08017(16) 0.3174(2)
H9 H 0.0527 0.0569 0.2526
C14 C 0.1722(3) 0.15945(16) 0.3080(2)
C15 C 0.2702(3) 0.19145(16) 0.4058(2)
H10 H 0.3081 0.2446 0.4023
C16 C 0.3138(3) 0.14649(15) 0.5090(2)
H11 H 0.3799 0.1702 0.5739
C17 C 0.1220(4) 0.2095(2) 0.1966(2)
H12 H 0.0410 0.2491 0.2131
H13 H 0.0751 0.1746 0.1320
H14 H 0.2177 0.2366 0.1734
C18 C 0.0013(5) 0.1582(2) 0.7142(3)
loop_
_geom_bond_atom_site_label_1
_geom_bond_atom_site_label_2
_geom_bond_site_symmetry_1
_geom_bond_site_symmetry_2
Cl1 C2 1_555 1_555
N1 C5 1_555 1_555
C1 H1 1_555 1_555
C2 C1 1_555 1_555
C3 C2 1_555 1_555
H2 C3 1_555 1_555
C4 C3 1_555 1_555
H3 C4 1_555 1_555
C5 C4 1_555 1_555
C6 C1 1_555 1_555
C7 C6 1_555 1_555
C8 C7 1_555 1_555
C9 C8 1_555 1_555
H4 C9 1_555 1_555
H5 C9 1_555 1_555
C10 C8 1_555 1_555
H6 C10 1_555 1_555
H7 C10 1_555 1_555
C11 C7 1_555 1_555
C12 C11 1_555 1_555
H8 C12 1_555 1_555
C13 C12 1_555 1_555
H9 C13 1_555 1_555
C14 C13 1_555 1_555
C15 C14 1_555 1_555
H10 C15 1_555 1_555
C16 C11 1_555 1_555
H11 C16 1_555 1_555
C17 C14 1_555 1_555
H12 C17 1_555 1_555
H13 C17 1_555 1_555
H14 C17 1_555 1_555
C18 N1 1_555 1_555
C5 C6 1_555 1_555
C9 C10 1_555 1_555
C15 C16 1_555 1_555

#END
