
#######################################################################
#
#                 Cambridge Crystallographic Data Centre
#                                CCDC 
#
#######################################################################
#
# If this CIF has been generated from an entry in the Cambridge 
# Structural Database, then it will include bibliographic, chemical, 
# crystal, experimental, refinement or atomic coordinate data resulting 
# from the CCDC's data processing and validation procedures.
#
#######################################################################

data_DALGIG
_chemical_formula_moiety         'C17 H14 O6'
_chemical_name_systematic        
1,4-Etheno-4-methoxycarbonyl-1,2,3,4-tetrahydro-2-oxafluoren-3,9-dione
_symmetry_cell_setting           triclinic
_symmetry_space_group_name_H-M   'P -1'
_symmetry_Int_Tables_number      2
_space_group_name_Hall           '-P 1'
loop_
_symmetry_equiv_pos_site_id
_symmetry_equiv_pos_as_xyz
1 x,y,z
2 -x,-y,-z
_cell_length_a                   7.877(2)
_cell_length_b                   9.080(1)
_cell_length_c                   10.721(2)
_cell_angle_alpha                91.90(1)
_cell_angle_beta                 94.20(2)
_cell_angle_gamma                114.93(1)
_cell_volume                     691.745
_exptl_crystal_colour            colorless
_exptl_crystal_description       prism
_cell_formula_units_Z            2
loop_
_atom_site_label
_atom_site_type_symbol
_atom_site_fract_x
_atom_site_fract_y
_atom_site_fract_z
O1 O -0.2637(2) -0.0587(1) -0.4932(1)
O2 O -0.2774(2) -0.4498(1) 0.1337(1)
O3 O -0.2572(2) 0.1851(2) -0.1280(1)
O4 O -0.1728(2) -0.2430(1) -0.5661(1)
O5 O -0.3976(2) -0.5634(1) -0.3733(1)
O6 O -0.0880(2) -0.4061(1) -0.3443(1)
C1 C -0.3337(2) -0.0152(2) -0.3803(2)
C2 C -0.5093(3) -0.1586(2) -0.3545(2)
C3 C -0.4869(2) -0.2937(2) -0.3449(2)
C4 C -0.2890(2) -0.2727(2) -0.3594(1)
C5 C -0.1545(2) -0.1395(2) -0.2553(1)
C6 C -0.2120(2) -0.3132(2) -0.0598(2)
C7 C -0.2040(2) -0.1804(2) -0.1222(1)
C8 C -0.2610(2) -0.3245(2) 0.0636(2)
C9 C -0.2991(2) -0.2028(2) 0.1231(2)
C10 C -0.2905(2) -0.0723(2) 0.0605(2)
C11 C -0.2435(2) -0.0607(2) -0.0640(2)
C12 C -0.2305(2) 0.0642(2) -0.1486(2)
C13 C -0.1781(2) 0.0184(2) -0.2735(2)
C14 C -0.2357(2) -0.1946(2) -0.4840(2)
C15 C -0.2680(2) -0.4308(2) -0.3601(1)
C16 C -0.0581(3) -0.5533(2) -0.3506(2)
C17 C -0.2553(3) -0.5840(2) 0.0755(2)
H1 H -0.347(2) 0.084(2) -0.399(2)
H2 H -0.616(3) -0.145(2) -0.342(2)
H3 H -0.576(3) -0.394(2) -0.328(2)
H4 H -0.029(2) -0.130(2) -0.266(1)
H5 H -0.178(3) -0.399(2) -0.100(2)
H6 H -0.329(3) -0.217(2) 0.209(2)
H7 H -0.320(3) 0.010(2) 0.102(2)
H8 H -0.068(3) 0.098(2) -0.297(2)
H9 H -0.108(3) -0.616(3) -0.283(2)
H10 H 0.080(4) -0.512(3) -0.345(2)
H11 H -0.123(3) -0.622(2) -0.435(2)
H12 H -0.276(3) -0.662(3) 0.137(2)
H13 H -0.126(3) -0.549(2) 0.060(2)
H14 H -0.347(4) -0.630(3) -0.005(2)
loop_
_geom_bond_atom_site_label_1
_geom_bond_atom_site_label_2
_geom_bond_site_symmetry_1
_geom_bond_site_symmetry_2
O1 C1 1_555 1_555
O2 C8 1_555 1_555
O3 C12 1_555 1_555
O4 C14 1_555 1_555
O5 C15 1_555 1_555
O6 C15 1_555 1_555
C1 C2 1_555 1_555
C2 C3 1_555 1_555
C3 C4 1_555 1_555
C4 C5 1_555 1_555
C5 C7 1_555 1_555
C6 C7 1_555 1_555
C7 C11 1_555 1_555
C8 C6 1_555 1_555
C9 C8 1_555 1_555
C10 C9 1_555 1_555
C11 C10 1_555 1_555
C12 C11 1_555 1_555
C13 C1 1_555 1_555
C14 O1 1_555 1_555
C15 C4 1_555 1_555
C16 O6 1_555 1_555
C17 O2 1_555 1_555
H1 C1 1_555 1_555
H2 C2 1_555 1_555
H3 C3 1_555 1_555
H4 C5 1_555 1_555
H5 C6 1_555 1_555
H6 C9 1_555 1_555
H7 C10 1_555 1_555
H8 C13 1_555 1_555
H9 C16 1_555 1_555
H10 C16 1_555 1_555
H11 C16 1_555 1_555
H12 C17 1_555 1_555
H13 C17 1_555 1_555
H14 C17 1_555 1_555
C4 C14 1_555 1_555
C5 C13 1_555 1_555
C12 C13 1_555 1_555

#END
