
#######################################################################
#
#                 Cambridge Crystallographic Data Centre
#                                CCDC 
#
#######################################################################
#
# If this CIF has been generated from an entry in the Cambridge 
# Structural Database, then it will include bibliographic, chemical, 
# crystal, experimental, refinement or atomic coordinate data resulting 
# from the CCDC's data processing and validation procedures.
#
#######################################################################

data_DALJAB11
_chemical_formula_moiety         'C10 H8 S8 1+,C10 H8 S8,Br1 I2 1-'
_chemical_name_systematic        
'bis(bis(Ethylenedithio)tetrathiafulvalene) di-iodobromide'
_symmetry_cell_setting           triclinic
_symmetry_space_group_name_H-M   'P -1'
_symmetry_Int_Tables_number      2
_space_group_name_Hall           '-P 1'
loop_
_symmetry_equiv_pos_site_id
_symmetry_equiv_pos_as_xyz
1 x,y,z
2 -x,-y,-z
_cell_length_a                   6.612(1)
_cell_length_b                   9.024(2)
_cell_length_c                   15.192(2)
_cell_angle_alpha                94.16(1)
_cell_angle_beta                 95.23(1)
_cell_angle_gamma                110.12(1)
_cell_volume                     842.347
_exptl_crystal_colour            black
_cell_formula_units_Z            1
loop_
_atom_site_label
_atom_site_type_symbol
_atom_site_fract_x
_atom_site_fract_y
_atom_site_fract_z
S1 S 0.4640(2) -0.2605(3) 0.4480(1)
S2 S 0.0994(2) -0.1459(1) 0.4288(1)
S3 S 0.2803(2) -0.4298(1) 0.6205(1)
S4 S -0.0816(2) -0.3120(1) 0.5993(1)
S5 S 0.6446(2) -0.1378(2) 0.2869(1)
S6 S 0.2132(2) 0.0029(2) 0.2655(1)
S7 S 0.1978(2) -0.5377(1) 0.7964(1)
S8 S -0.2372(2) -0.3965(1) 0.7703(1)
C1 C 0.2295(6) -0.2528(4) 0.4875(2)
C2 C 0.1509(6) -0.3249(4) 0.5595(2)
C3 C 0.4422(6) -0.1590(4) 0.3561(2)
C4 C 0.2758(6) -0.1049(4) 0.3471(2)
C5 C 0.1181(6) -0.4506(4) 0.7075(2)
C6 C -0.0477(6) -0.3960(4) 0.6974(2)
C7 C 0.6313(7) 0.0265(6) 0.2323(4)
C8 C 0.4181(8) 0.0216(7) 0.1939(4)
C9 C 0.0313(10) -0.5015(10) 0.8791(4)
C10 C -0.1810(10) -0.5146(9) 0.8505(4)
loop_
_geom_bond_atom_site_label_1
_geom_bond_atom_site_label_2
_geom_bond_site_symmetry_1
_geom_bond_site_symmetry_2
S1 C1 1_555 1_555
S2 C1 1_555 1_555
S3 C2 1_555 1_555
S4 C2 1_555 1_555
S5 C3 1_555 1_555
S6 C4 1_555 1_555
S7 C5 1_555 1_555
S8 C6 1_555 1_555
C1 C2 1_555 1_555
C3 S1 1_555 1_555
C4 S2 1_555 1_555
C5 S3 1_555 1_555
C6 S4 1_555 1_555
C7 S5 1_555 1_555
C8 S6 1_555 1_555
C9 S7 1_555 1_555
C10 S8 1_555 1_555
C3 C4 1_555 1_555
C5 C6 1_555 1_555
C7 C8 1_555 1_555
C9 C10 1_555 1_555

#END
