
#######################################################################
#
#                 Cambridge Crystallographic Data Centre
#                                CCDC 
#
#######################################################################
#
# If this CIF has been generated from an entry in the Cambridge 
# Structural Database, then it will include bibliographic, chemical, 
# crystal, experimental, refinement or atomic coordinate data resulting 
# from the CCDC's data processing and validation procedures.
#
#######################################################################

data_DALJAB10
_chemical_formula_moiety         'C10 H8 S8 1+,C10 H8 S8,Br1 I2 1-'
_chemical_name_systematic        
'bis(bis(Ethylenedithio)tetrathiafulvalene) di-iodobromide'
_symmetry_cell_setting           triclinic
_symmetry_space_group_name_H-M   'P -1'
_symmetry_Int_Tables_number      2
_space_group_name_Hall           '-P 1'
loop_
_symmetry_equiv_pos_site_id
_symmetry_equiv_pos_as_xyz
1 x,y,z
2 -x,-y,-z
_cell_length_a                   6.613(1)
_cell_length_b                   8.873(2)
_cell_length_c                   15.100(2)
_cell_angle_alpha                95.64(1)
_cell_angle_beta                 95.15(1)
_cell_angle_gamma                109.79(1)
_cell_volume                     822.467
_exptl_crystal_colour            black
_cell_formula_units_Z            1
loop_
_atom_site_label
_atom_site_type_symbol
_atom_site_fract_x
_atom_site_fract_y
_atom_site_fract_z
S1 S 0.4648(1) -0.2600(1) 0.4485(1)
S2 S 0.0971(1) -0.1453(1) 0.4275(1)
S3 S 0.2820(1) -0.4270(1) 0.6208(1)
S4 S -0.0840(1) -0.3095(1) 0.5988(1)
S5 S 0.6447(1) -0.1425(1) 0.2864(1)
S6 S 0.2100(1) 0.0015(1) 0.2637(1)
S7 S 0.1993(1) -0.5334(1) 0.7973(1)
S8 S -0.2434(1) -0.3954(1) 0.7693(1)
C1 C 0.2266(4) -0.2524(4) 0.4872(2)
C2 C 0.1496(4) -0.3238(4) 0.5589(2)
C3 C 0.4423(4) -0.1610(4) 0.3552(2)
C4 C 0.2730(4) -0.1066(4) 0.3460(2)
C5 C 0.1177(4) -0.4481(4) 0.7072(2)
C6 C -0.0513(4) -0.3945(3) 0.6967(2)
C7 C 0.6340(5) 0.0296(4) 0.2348(2)
C8 C 0.4098(5) 0.0084(4) 0.1883(2)
C9 C 0.0467(6) -0.4787(5) 0.8818(2)
C10 C -0.1932(6) -0.5240(5) 0.8474(3)
loop_
_geom_bond_atom_site_label_1
_geom_bond_atom_site_label_2
_geom_bond_site_symmetry_1
_geom_bond_site_symmetry_2
S1 C1 1_555 1_555
S2 C1 1_555 1_555
S3 C2 1_555 1_555
S4 C2 1_555 1_555
S5 C3 1_555 1_555
S6 C4 1_555 1_555
S7 C5 1_555 1_555
S8 C6 1_555 1_555
C1 C2 1_555 1_555
C3 S1 1_555 1_555
C4 S2 1_555 1_555
C5 S3 1_555 1_555
C6 S4 1_555 1_555
C7 S5 1_555 1_555
C8 S6 1_555 1_555
C9 S7 1_555 1_555
C10 S8 1_555 1_555
C3 C4 1_555 1_555
C5 C6 1_555 1_555
C7 C8 1_555 1_555
C9 C10 1_555 1_555

#END
