
#######################################################################
#
#                 Cambridge Crystallographic Data Centre
#                                CCDC 
#
#######################################################################
#
# If this CIF has been generated from an entry in the Cambridge 
# Structural Database, then it will include bibliographic, chemical, 
# crystal, experimental, refinement or atomic coordinate data resulting 
# from the CCDC's data processing and validation procedures.
#
#######################################################################

data_DALKEJ
_chemical_formula_moiety         'C16 H14 Br1 N3 O3'
_chemical_name_systematic        
5-bromo-3-((4,6-dimethoxypyrimidin-5-yl)methylene)-1-methyl-1,3-dihydro-2H-indol-2-one
_symmetry_cell_setting           monoclinic
_symmetry_space_group_name_H-M   'P 21/c'
_symmetry_Int_Tables_number      14
_space_group_name_Hall           '-P 2ybc'
loop_
_symmetry_equiv_pos_site_id
_symmetry_equiv_pos_as_xyz
1 x,y,z
2 -x,1/2+y,1/2-z
3 -x,-y,-z
4 x,1/2-y,1/2+z
_cell_length_a                   16.203(4)
_cell_length_b                   7.7085(18)
_cell_length_c                   12.140(3)
_cell_angle_alpha                90
_cell_angle_beta                 90.811(4)
_cell_angle_gamma                90
_cell_volume                     1516.14
_exptl_crystal_colour            yellow
_exptl_crystal_description       block
_cell_formula_units_Z            4
loop_
_atom_site_label
_atom_site_type_symbol
_atom_site_fract_x
_atom_site_fract_y
_atom_site_fract_z
Br1 Br 0.477691(16) 0.62759(4) 0.29675(2)
O1 O 0.37038(12) 0.4373(2) 0.89715(15)
O2 O 0.12172(12) 0.3812(2) 0.67975(16)
O3 O 0.13555(11) 0.7229(2) 0.76447(15)
N1 N 0.16014(14) 0.3835(3) 0.49760(17)
N2 N 0.26685(14) 0.5108(3) 1.01773(17)
N3 N 0.14521(15) 0.6524(3) 0.94929(18)
C1 C 0.41322(18) 0.3651(3) 0.9909(2)
H1 H 0.4276 0.4581 1.0428
H2 H 0.4637 0.3073 0.9666
H3 H 0.3776 0.2806 1.0273
C2 C 0.29606(16) 0.5074(3) 0.9153(2)
C3 C 0.25265(16) 0.5702(3) 0.8230(2)
C4 C 0.28890(16) 0.5651(3) 0.71361(19)
H4 H 0.3444 0.6036 0.7084
C5 C 0.25217(15) 0.5119(3) 0.6193(2)
C6 C 0.28661(16) 0.5147(3) 0.50812(19)
C7 C 0.36059(16) 0.5761(3) 0.4679(2)
H5 H 0.3997 0.6324 0.5147
C8 C 0.37576(16) 0.5521(3) 0.3556(2)
C9 C 0.31845(17) 0.4744(3) 0.2855(2)
H6 H 0.3304 0.4617 0.2095
C10 C 0.24347(17) 0.4150(3) 0.3255(2)
H7 H 0.2037 0.3623 0.2780
C11 C 0.22862(16) 0.4354(3) 0.43733(19)
C12 C 0.16985(16) 0.4224(3) 0.6080(2)
C13 C 0.19285(18) 0.5831(3) 1.0281(2)
H8 H 0.1713 0.5856 1.1004
C14 C 0.17643(16) 0.6468(3) 0.8473(2)
C15 C 0.05280(17) 0.7803(4) 0.7857(2)
H9 H 0.0183 0.6801 0.8039
H10 H 0.0301 0.8381 0.7201
H11 H 0.0535 0.8617 0.8477
C16 C 0.08902(16) 0.2907(3) 0.4538(2)
H12 H 0.0667 0.2151 0.5109
H13 H 0.1057 0.2204 0.3906
H14 H 0.0467 0.3741 0.4301
loop_
_geom_bond_atom_site_label_1
_geom_bond_atom_site_label_2
_geom_bond_site_symmetry_1
_geom_bond_site_symmetry_2
Br1 C8 1_555 1_555
O1 C1 1_555 1_555
O2 C12 1_555 1_555
O3 C14 1_555 1_555
N1 C11 1_555 1_555
N2 C2 1_555 1_555
N3 C13 1_555 1_555
C1 H1 1_555 1_555
H2 C1 1_555 1_555
H3 C1 1_555 1_555
C2 O1 1_555 1_555
C3 C2 1_555 1_555
C4 C3 1_555 1_555
H4 C4 1_555 1_555
C5 C4 1_555 1_555
C6 C5 1_555 1_555
C7 C6 1_555 1_555
H5 C7 1_555 1_555
C8 C7 1_555 1_555
C9 C8 1_555 1_555
H6 C9 1_555 1_555
C10 C9 1_555 1_555
H7 C10 1_555 1_555
C11 C6 1_555 1_555
C12 N1 1_555 1_555
C13 N2 1_555 1_555
H8 C13 1_555 1_555
C14 N3 1_555 1_555
C15 O3 1_555 1_555
H9 C15 1_555 1_555
H10 C15 1_555 1_555
H11 C15 1_555 1_555
C16 N1 1_555 1_555
H12 C16 1_555 1_555
H13 C16 1_555 1_555
H14 C16 1_555 1_555
C3 C14 1_555 1_555
C5 C12 1_555 1_555
C10 C11 1_555 1_555

#END
