
#######################################################################
#
#                 Cambridge Crystallographic Data Centre
#                                CCDC 
#
#######################################################################
#
# If this CIF has been generated from an entry in the Cambridge 
# Structural Database, then it will include bibliographic, chemical, 
# crystal, experimental, refinement or atomic coordinate data resulting 
# from the CCDC's data processing and validation procedures.
#
#######################################################################

data_DALKEI
_chemical_formula_moiety         'C36 H26 O2'
_chemical_name_systematic        
2-(Diphenylmethylene)-3-hydroxy-1,3,5-triphenylpent-4-yn-1-one
_symmetry_cell_setting           monoclinic
_symmetry_space_group_name_H-M   'P 21/c'
_symmetry_Int_Tables_number      14
_space_group_name_Hall           '-P 2ybc'
loop_
_symmetry_equiv_pos_site_id
_symmetry_equiv_pos_as_xyz
1 x,y,z
2 -x,1/2+y,1/2-z
3 -x,-y,-z
4 x,1/2-y,1/2+z
_cell_length_a                   9.2329(7)
_cell_length_b                   14.0828(10)
_cell_length_c                   21.3326(16)
_cell_angle_alpha                90
_cell_angle_beta                 101.1730(10)
_cell_angle_gamma                90
_cell_volume                     2721.2
_exptl_crystal_colour            colorless
_cell_formula_units_Z            4
loop_
_atom_site_label
_atom_site_type_symbol
_atom_site_fract_x
_atom_site_fract_y
_atom_site_fract_z
C1 C 0.28085(16) 0.24592(11) -0.09706(6)
H1 H 0.2608 0.3106 -0.1006
O1 O 0.04781(12) 0.40295(7) -0.04622(5)
C2 C 0.28359(19) 0.19262(13) -0.15141(7)
H2 H 0.2677 0.2222 -0.1911
O2 O 0.03748(10) 0.40746(6) 0.08690(5)
H3 H 0.0491 0.4578 0.0692
C3 C 0.30954(18) 0.09632(13) -0.14735(8)
H4 H 0.3082 0.0608 -0.1842
C4 C 0.33739(17) 0.05306(11) -0.08861(8)
H5 H 0.3548 -0.0120 -0.0855
C5 C 0.33946(16) 0.10612(10) -0.03425(7)
H6 H 0.3624 0.0767 0.0055
C6 C 0.30800(13) 0.20291(9) -0.03740(6)
C7 C 0.30516(13) 0.25465(8) 0.02349(6)
C8 C 0.44302(14) 0.24246(9) 0.07341(6)
C9 C 0.56875(17) 0.29207(13) 0.06611(8)
H7 H 0.5656 0.3313 0.0308
C10 C 0.6980(2) 0.28382(18) 0.11043(11)
H8 H 0.7810 0.3181 0.1053
C11 C 0.7043(2) 0.22560(18) 0.16165(11)
H9 H 0.7914 0.2210 0.1918
C12 C 0.5838(2) 0.17376(14) 0.16919(9)
H10 H 0.5897 0.1332 0.2040
C13 C 0.45196(17) 0.18151(11) 0.12481(7)
H11 H 0.3702 0.1458 0.1298
C14 C 0.18930(13) 0.30642(8) 0.03224(6)
C15 C 0.05902(14) 0.32492(8) -0.02085(6)
C16 C -0.05474(14) 0.25092(9) -0.03922(7)
C17 C -0.17259(18) 0.26788(13) -0.08866(9)
H12 H -0.1781 0.3244 -0.1115
C18 C -0.2832(2) 0.19971(18) -0.10402(12)
H13 H -0.3631 0.2109 -0.1371
C19 C -0.2748(2) 0.11665(16) -0.07069(13)
H14 H -0.3492 0.0716 -0.0811
C20 C -0.1586(2) 0.09895(13) -0.02234(11)
H15 H -0.1535 0.0418 -0.0001
C21 C -0.04807(17) 0.16580(10) -0.00615(8)
H16 H 0.0311 0.1536 0.0271
C22 C 0.17172(13) 0.35377(8) 0.09627(6)
C23 C 0.14535(14) 0.27621(8) 0.13935(6)
C24 C 0.11548(14) 0.21023(9) 0.16948(6)
C25 C 0.08662(14) 0.12526(9) 0.20229(6)
C26 C 0.1004(2) 0.03778(11) 0.17470(8)
H17 H 0.1276 0.0344 0.1350
C27 C 0.0742(2) -0.04465(12) 0.20573(10)
H18 H 0.0838 -0.1032 0.1868
C28 C 0.0342(2) -0.04067(13) 0.26388(9)
H19 H 0.0174 -0.0964 0.2848
C29 C 0.0189(2) 0.04527(13) 0.29141(8)
H20 H -0.0088 0.0479 0.3310
C30 C 0.04413(17) 0.12806(11) 0.26103(7)
H21 H 0.0325 0.1863 0.2801
C31 C 0.30333(15) 0.41659(9) 0.12370(6)
C32 C 0.34051(18) 0.48950(11) 0.08601(8)
H22 H 0.2863 0.4987 0.0449
C33 C 0.4580(2) 0.54843(13) 0.10948(10)
H23 H 0.4823 0.5974 0.0842
C34 C 0.5390(2) 0.53515(14) 0.16983(10)
H24 H 0.6180 0.5750 0.1854
C35 C 0.5033(2) 0.46333(14) 0.20689(9)
H25 H 0.5588 0.4540 0.2477
C36 C 0.38515(18) 0.40429(11) 0.18418(7)
H26 H 0.3609 0.3559 0.2100
loop_
_geom_bond_atom_site_label_1
_geom_bond_atom_site_label_2
_geom_bond_site_symmetry_1
_geom_bond_site_symmetry_2
C1 H1 1_555 1_555
O1 C15 1_555 1_555
C2 C1 1_555 1_555
H2 C2 1_555 1_555
O2 H3 1_555 1_555
C3 C2 1_555 1_555
H4 C3 1_555 1_555
C4 C3 1_555 1_555
H5 C4 1_555 1_555
C5 C4 1_555 1_555
H6 C5 1_555 1_555
C6 C1 1_555 1_555
C7 C6 1_555 1_555
C8 C7 1_555 1_555
C9 C8 1_555 1_555
H7 C9 1_555 1_555
C10 C9 1_555 1_555
H8 C10 1_555 1_555
C11 C10 1_555 1_555
H9 C11 1_555 1_555
C12 C11 1_555 1_555
H10 C12 1_555 1_555
C13 C8 1_555 1_555
H11 C13 1_555 1_555
C14 C7 1_555 1_555
C15 C14 1_555 1_555
C16 C15 1_555 1_555
C17 C16 1_555 1_555
H12 C17 1_555 1_555
C18 C17 1_555 1_555
H13 C18 1_555 1_555
C19 C18 1_555 1_555
H14 C19 1_555 1_555
C20 C19 1_555 1_555
H15 C20 1_555 1_555
C21 C16 1_555 1_555
H16 C21 1_555 1_555
C22 O2 1_555 1_555
C23 C22 1_555 1_555
C24 C23 1_555 1_555
C25 C24 1_555 1_555
C26 C25 1_555 1_555
H17 C26 1_555 1_555
C27 C26 1_555 1_555
H18 C27 1_555 1_555
C28 C27 1_555 1_555
H19 C28 1_555 1_555
C29 C28 1_555 1_555
H20 C29 1_555 1_555
C30 C25 1_555 1_555
H21 C30 1_555 1_555
C31 C22 1_555 1_555
C32 C31 1_555 1_555
H22 C32 1_555 1_555
C33 C32 1_555 1_555
H23 C33 1_555 1_555
C34 C33 1_555 1_555
H24 C34 1_555 1_555
C35 C34 1_555 1_555
H25 C35 1_555 1_555
C36 C31 1_555 1_555
H26 C36 1_555 1_555
C5 C6 1_555 1_555
C12 C13 1_555 1_555
C14 C22 1_555 1_555
C20 C21 1_555 1_555
C29 C30 1_555 1_555
C35 C36 1_555 1_555

#END
