
#######################################################################
#
#                 Cambridge Crystallographic Data Centre
#                                CCDC 
#
#######################################################################
#
# If this CIF has been generated from an entry in the Cambridge 
# Structural Database, then it will include bibliographic, chemical, 
# crystal, experimental, refinement or atomic coordinate data resulting 
# from the CCDC's data processing and validation procedures.
#
#######################################################################

data_DALRIS
_chemical_formula_moiety         'C30 H41 N3 O8'
_chemical_name_systematic        
't-Butoxycarbonyltyrosyl-isoleucyl-tyrosine methyl ester'
_symmetry_cell_setting           monoclinic
_symmetry_space_group_name_H-M   'C 2'
_symmetry_Int_Tables_number      5
_space_group_name_Hall           'C 2y'
loop_
_symmetry_equiv_pos_site_id
_symmetry_equiv_pos_as_xyz
1 x,y,z
2 -x,y,-z
3 1/2+x,1/2+y,z
4 1/2-x,1/2+y,-z
_cell_length_a                   24.29(3)
_cell_length_b                   5.089(7)
_cell_length_c                   26.52(3)
_cell_angle_alpha                90
_cell_angle_beta                 103.940(10)
_cell_angle_gamma                90
_cell_volume                     3181.64
_exptl_crystal_colour            white
_exptl_crystal_description       needle
_cell_formula_units_Z            4
_exptl_crystal_recrystallization_method methanol/water
loop_
_atom_site_label
_atom_site_type_symbol
_atom_site_fract_x
_atom_site_fract_y
_atom_site_fract_z
C1 C 0.3163(2) 0.5864(12) 0.5269(2)
H1 H 0.2831 0.6895 0.5266
H2 H 0.3295 0.5059 0.5604
H3 H 0.3070 0.4523 0.5007
C2 C 0.3624(2) 0.7626(9) 0.51568(17)
C3 C 0.4104(2) 0.6115(15) 0.5015(3)
H4 H 0.4297 0.5078 0.5307
H5 H 0.4367 0.7329 0.4924
H6 H 0.3953 0.4982 0.4726
C4 C 0.3835(4) 0.9447(14) 0.5618(2)
H7 H 0.3523 1.0468 0.5676
H8 H 0.4120 1.0601 0.5548
H9 H 0.3994 0.8421 0.5922
O1 O 0.30397(19) 0.6271(6) 0.41441(13)
O2 O 0.33755(14) 0.9496(6) 0.47296(11)
C5 C 0.31105(18) 0.8568(8) 0.42583(16)
N1 N 0.29262(14) 1.0581(6) 0.39310(12)
H10 H 0.2980 1.2168 0.4044
C6 C 0.26365(16) 1.0117(7) 0.33875(13)
H11 H 0.2561 0.8235 0.3332
C7 C 0.30508(15) 1.1025(7) 0.30640(13)
C8 C 0.20726(19) 1.1654(9) 0.32416(16)
H12 H 0.1879 1.1499 0.3520
H13 H 0.2151 1.3499 0.3200
C9 C 0.16895(16) 1.0617(8) 0.27393(16)
C10 C 0.1291(2) 0.8694(12) 0.27465(19)
H14 H 0.1252 0.8064 0.3065
C11 C 0.1734(2) 1.1507(10) 0.22586(19)
H15 H 0.1997 1.2812 0.2241
C12 C 0.0948(2) 0.7667(13) 0.2294(2)
H16 H 0.0686 0.6357 0.2310
C13 C 0.10008(17) 0.8610(10) 0.18221(18)
O3 O 0.06820(13) 0.7618(9) 0.13521(13)
H17 H 0.0399 0.6876 0.1400
C14 C 0.1393(2) 1.0494(11) 0.17990(18)
H18 H 0.1434 1.1099 0.1479
O4 O 0.31245(14) 1.3366(6) 0.29904(13)
N2 N 0.33577(13) 0.9085(6) 0.29178(12)
H19 H 0.3250 0.7482 0.2931
C15 C 0.38698(16) 0.9648(8) 0.27374(14)
H20 H 0.3940 1.1545 0.2760
C16 C 0.37829(14) 0.8795(7) 0.21708(14)
O5 O 0.38026(13) 0.6459(5) 0.20485(11)
N3 N 0.36900(13) 1.0721(6) 0.18146(11)
H21 H 0.3652 1.2312 0.1910
C17 C 0.36533(15) 1.0156(7) 0.12693(13)
H22 H 0.3410 0.8614 0.1168
C18 C 0.2378(2) 1.1751(10) 0.04643(18)
H23 H 0.2499 1.0545 0.0250
C19 C 0.1803(2) 1.2306(12) 0.03805(19)
H24 H 0.1543 1.1436 0.0119
C20 C 0.16190(19) 1.4145(10) 0.06837(18)
O6 O 0.10502(14) 1.4714(11) 0.05750(15)
H25 H 0.0983 1.5620 0.0809
C21 C 0.25807(17) 1.4679(10) 0.11796(17)
H26 H 0.2838 1.5442 0.1458
C22 C 0.20108(19) 1.5297(10) 0.10950(19)
H27 H 0.1890 1.6481 0.1313
O7 O 0.46779(13) 1.0414(9) 0.14570(14)
C23 C 0.42484(17) 0.9527(8) 0.11958(15)
O8 O 0.42128(12) 0.7995(7) 0.07874(12)
C24 C 0.4741(2) 0.7421(15) 0.0634(2)
H28 H 0.4884 0.9006 0.0516
H29 H 0.4668 0.6152 0.0358
H30 H 0.5016 0.6729 0.0926
C25 C 0.34043(17) 1.2454(9) 0.09145(15)
H31 H 0.3611 1.4037 0.1048
H32 H 0.3467 1.2128 0.0572
C26 C 0.27759(17) 1.2950(8) 0.08585(15)
C27 C 0.43913(17) 0.8216(10) 0.30769(16)
H33 H 0.4331 0.6329 0.3013
C28 C 0.4455(2) 0.8658(10) 0.36630(17)
H34 H 0.4121 0.7949 0.3755
H35 H 0.4779 0.7651 0.3851
C29 C 0.4530(3) 1.1467(12) 0.3850(2)
H36 H 0.4840 1.2249 0.3738
H37 H 0.4609 1.1501 0.4222
H38 H 0.4189 1.2437 0.3708
C30 C 0.4924(2) 0.8964(15) 0.2901(2)
H39 H 0.4886 0.8406 0.2548
H40 H 0.5248 0.8120 0.3121
H41 H 0.4975 1.0835 0.2923
loop_
_geom_bond_atom_site_label_1
_geom_bond_atom_site_label_2
_geom_bond_site_symmetry_1
_geom_bond_site_symmetry_2
C1 H1 1_555 1_555
H2 C1 1_555 1_555
H3 C1 1_555 1_555
C2 C1 1_555 1_555
C3 C2 1_555 1_555
H4 C3 1_555 1_555
H5 C3 1_555 1_555
H6 C3 1_555 1_555
C4 C2 1_555 1_555
H7 C4 1_555 1_555
H8 C4 1_555 1_555
H9 C4 1_555 1_555
O1 C5 1_555 1_555
O2 C2 1_555 1_555
C5 O2 1_555 1_555
N1 C5 1_555 1_555
H10 N1 1_555 1_555
C6 N1 1_555 1_555
H11 C6 1_555 1_555
C7 C6 1_555 1_555
C8 C6 1_555 1_555
H12 C8 1_555 1_555
H13 C8 1_555 1_555
C9 C8 1_555 1_555
C10 C9 1_555 1_555
H14 C10 1_555 1_555
C11 C9 1_555 1_555
H15 C11 1_555 1_555
C12 C10 1_555 1_555
H16 C12 1_555 1_555
C13 C12 1_555 1_555
O3 C13 1_555 1_555
H17 O3 1_555 1_555
C14 C11 1_555 1_555
H18 C14 1_555 1_555
O4 C7 1_555 1_555
N2 C7 1_555 1_555
H19 N2 1_555 1_555
C15 N2 1_555 1_555
H20 C15 1_555 1_555
C16 C15 1_555 1_555
O5 C16 1_555 1_555
N3 C16 1_555 1_555
H21 N3 1_555 1_555
C17 N3 1_555 1_555
H22 C17 1_555 1_555
C18 H23 1_555 1_555
C19 C18 1_555 1_555
H24 C19 1_555 1_555
C20 C19 1_555 1_555
O6 C20 1_555 1_555
H25 O6 1_555 1_555
C21 H26 1_555 1_555
C22 C20 1_555 1_555
H27 C22 1_555 1_555
O7 C23 1_555 1_555
C23 C17 1_555 1_555
O8 C23 1_555 1_555
C24 O8 1_555 1_555
H28 C24 1_555 1_555
H29 C24 1_555 1_555
H30 C24 1_555 1_555
C25 C17 1_555 1_555
H31 C25 1_555 1_555
H32 C25 1_555 1_555
C26 C18 1_555 1_555
C27 C15 1_555 1_555
H33 C27 1_555 1_555
C28 C27 1_555 1_555
H34 C28 1_555 1_555
H35 C28 1_555 1_555
C29 C28 1_555 1_555
H36 C29 1_555 1_555
H37 C29 1_555 1_555
H38 C29 1_555 1_555
C30 C27 1_555 1_555
H39 C30 1_555 1_555
H40 C30 1_555 1_555
H41 C30 1_555 1_555
C13 C14 1_555 1_555
C21 C22 1_555 1_555
C21 C26 1_555 1_555
C25 C26 1_555 1_555

#END
