
#######################################################################
#
#                 Cambridge Crystallographic Data Centre
#                                CCDC 
#
#######################################################################
#
# If this CIF has been generated from an entry in the Cambridge 
# Structural Database, then it will include bibliographic, chemical, 
# crystal, experimental, refinement or atomic coordinate data resulting 
# from the CCDC's data processing and validation procedures.
#
#######################################################################

data_DAMHIL
_chemical_formula_moiety         'C23 H22 N2 O3 S1'
_chemical_name_systematic        
'3-benzyl-5,7-diphenyl-6-oxa-2-thia-1,3-diazabicyclo[3.2.1]octane 2,2-dioxide'
_symmetry_cell_setting           orthorhombic
_symmetry_space_group_name_H-M   'P b c a'
_symmetry_Int_Tables_number      61
_space_group_name_Hall           '-P 2ac 2ab'
loop_
_symmetry_equiv_pos_site_id
_symmetry_equiv_pos_as_xyz
1 x,y,z
2 1/2+x,1/2-y,-z
3 -x,1/2+y,1/2-z
4 1/2-x,-y,1/2+z
5 -x,-y,-z
6 1/2-x,1/2+y,z
7 x,1/2-y,1/2+z
8 1/2+x,y,1/2-z
_cell_length_a                   10.4552(4)
_cell_length_b                   18.2060(6)
_cell_length_c                   20.8089(7)
_cell_angle_alpha                90
_cell_angle_beta                 90
_cell_angle_gamma                90
_cell_volume                     3960.92
_exptl_crystal_colour            colorless
_exptl_crystal_description       needle
_cell_formula_units_Z            8
loop_
_atom_site_label
_atom_site_type_symbol
_atom_site_fract_x
_atom_site_fract_y
_atom_site_fract_z
S1 S -0.10432(5) 1.02062(3) 0.61775(3)
O1 O -0.09210(16) 1.04844(9) 0.55409(8)
O2 O 0.01529(15) 0.85621(9) 0.62996(7)
O3 O -0.18606(16) 1.05928(9) 0.66147(8)
N1 N 0.03961(19) 1.00750(11) 0.64599(9)
N2 N -0.15862(18) 0.93497(10) 0.61487(9)
C1 C 0.5139(3) 1.00705(15) 0.59945(13)
H1 H 0.5992 0.9941 0.5884
C2 C 0.4115(2) 0.97186(15) 0.57004(12)
H2 H 0.4269 0.9346 0.5390
C3 C 0.2875(2) 0.99075(13) 0.58575(11)
H3 H 0.2180 0.9667 0.5652
C4 C 0.2637(2) 1.04487(13) 0.63160(11)
C5 C 0.1286(2) 1.06973(13) 0.64579(12)
H4 H 0.1264 1.0943 0.6882
H5 H 0.1014 1.1058 0.6129
C6 C -0.0709(2) 0.88351(12) 0.58154(11)
H6 H -0.0217 0.9104 0.5477
C7 C -0.1460(2) 0.82114(13) 0.55122(11)
C8 C -0.2315(3) 0.83750(14) 0.50259(12)
H7 H -0.2449 0.8872 0.4904
C9 C -0.2975(3) 0.78204(15) 0.47158(12)
H8 H -0.3553 0.7937 0.4379
C10 C -0.2794(2) 0.70933(14) 0.48965(12)
H9 H -0.3247 0.6712 0.4684
C11 C 0.4913(2) 1.06070(14) 0.64468(12)
H10 H 0.5611 1.0850 0.6647
C12 C 0.3667(2) 1.07943(13) 0.66107(12)
H11 H 0.3518 1.1161 0.6927
C13 C -0.1652(2) 0.90242(13) 0.68009(11)
H12 H -0.2177 0.8572 0.6808
H13 H -0.1989 0.9378 0.7120
C14 C -0.0235(2) 0.88591(13) 0.69112(10)
C15 C 0.0507(2) 0.95763(12) 0.70161(11)
H14 H 0.0175 0.9826 0.7404
H15 H 0.1421 0.9461 0.7091
C16 C -0.1285(2) 0.74852(13) 0.56948(11)
H16 H -0.0707 0.7368 0.6032
C17 C -0.1955(2) 0.69286(13) 0.53859(12)
H17 H -0.1834 0.6432 0.5513
C18 C 0.0059(2) 0.83269(12) 0.74465(11)
C19 C 0.0964(2) 0.77765(13) 0.73740(12)
H18 H 0.1384 0.7714 0.6973
C20 C 0.1257(3) 0.73156(14) 0.78876(13)
H19 H 0.1884 0.6942 0.7837
C21 C 0.0642(3) 0.73989(14) 0.84715(12)
H20 H 0.0833 0.7080 0.8820
C22 C -0.0251(3) 0.79480(17) 0.85437(13)
H21 H -0.0671 0.8010 0.8945
C23 C -0.0542(3) 0.84107(16) 0.80361(12)
H22 H -0.1158 0.8789 0.8092
loop_
_geom_bond_atom_site_label_1
_geom_bond_atom_site_label_2
_geom_bond_site_symmetry_1
_geom_bond_site_symmetry_2
S1 O1 1_555 1_555
O2 C6 1_555 1_555
O3 S1 1_555 1_555
N1 S1 1_555 1_555
N2 S1 1_555 1_555
C1 H1 1_555 1_555
C2 C1 1_555 1_555
H2 C2 1_555 1_555
C3 C2 1_555 1_555
H3 C3 1_555 1_555
C4 C3 1_555 1_555
C5 N1 1_555 1_555
H4 C5 1_555 1_555
H5 C5 1_555 1_555
C6 N2 1_555 1_555
H6 C6 1_555 1_555
C7 C6 1_555 1_555
C8 C7 1_555 1_555
H7 C8 1_555 1_555
C9 C8 1_555 1_555
H8 C9 1_555 1_555
C10 C9 1_555 1_555
H9 C10 1_555 1_555
C11 C1 1_555 1_555
H10 C11 1_555 1_555
C12 C4 1_555 1_555
H11 C12 1_555 1_555
C13 N2 1_555 1_555
H12 C13 1_555 1_555
H13 C13 1_555 1_555
C14 O2 1_555 1_555
C15 N1 1_555 1_555
H14 C15 1_555 1_555
H15 C15 1_555 1_555
C16 C7 1_555 1_555
H16 C16 1_555 1_555
C17 C10 1_555 1_555
H17 C17 1_555 1_555
C18 C14 1_555 1_555
C19 C18 1_555 1_555
H18 C19 1_555 1_555
C20 C19 1_555 1_555
H19 C20 1_555 1_555
C21 C20 1_555 1_555
H20 C21 1_555 1_555
C22 C21 1_555 1_555
H21 C22 1_555 1_555
C23 C18 1_555 1_555
H22 C23 1_555 1_555
C4 C5 1_555 1_555
C11 C12 1_555 1_555
C13 C14 1_555 1_555
C14 C15 1_555 1_555
C16 C17 1_555 1_555
C22 C23 1_555 1_555

#END
