
#######################################################################
#
#                 Cambridge Crystallographic Data Centre
#                                CCDC 
#
#######################################################################
#
# If this CIF has been generated from an entry in the Cambridge 
# Structural Database, then it will include bibliographic, chemical, 
# crystal, experimental, refinement or atomic coordinate data resulting 
# from the CCDC's data processing and validation procedures.
#
#######################################################################

data_DAMHEH
_chemical_formula_moiety         'C16 H16 N2 O2 S1'
_chemical_name_systematic        
'6-benzyl-4-phenyl-3,6-dihydro-2H-1,2,6-thiadiazine 1,1-dioxide'
_symmetry_cell_setting           monoclinic
_symmetry_space_group_name_H-M   'P 21/c'
_symmetry_Int_Tables_number      14
_space_group_name_Hall           '-P 2ybc'
loop_
_symmetry_equiv_pos_site_id
_symmetry_equiv_pos_as_xyz
1 x,y,z
2 -x,1/2+y,1/2-z
3 -x,-y,-z
4 x,1/2-y,1/2+z
_cell_length_a                   14.0757(4)
_cell_length_b                   7.9482(3)
_cell_length_c                   12.7812(4)
_cell_angle_alpha                90
_cell_angle_beta                 99.849(2)
_cell_angle_gamma                90
_cell_volume                     1408.84
_exptl_crystal_colour            colorless
_exptl_crystal_description       block
_cell_formula_units_Z            4
loop_
_atom_site_label
_atom_site_type_symbol
_atom_site_fract_x
_atom_site_fract_y
_atom_site_fract_z
S1 S 0.76000(5) 0.24933(9) 0.61228(6)
C1 C 0.8751(2) 0.6769(4) 0.4968(2)
H1 H 0.8551 0.6608 0.5634
N1 N 0.65674(17) 0.2955(3) 0.64182(19)
H2 H 0.657(3) 0.402(5) 0.670(3)
O1 O 0.75808(15) 0.0747(3) 0.58509(17)
C2 C 0.9017(2) 0.8367(4) 0.4674(3)
H3 H 0.9000 0.9294 0.5139
N2 N 0.76123(16) 0.3655(3) 0.50532(18)
O2 O 0.83396(15) 0.3100(3) 0.69344(16)
C3 C 0.9305(2) 0.8598(4) 0.3702(3)
H4 H 0.9483 0.9686 0.3496
C4 C 0.9335(2) 0.7248(4) 0.3035(2)
H5 H 0.9541 0.7407 0.2372
C5 C 0.90664(19) 0.5663(4) 0.3320(2)
H6 H 0.9081 0.4742 0.2849
C6 C 0.87767(19) 0.5415(4) 0.4291(2)
C7 C 0.8524(2) 0.3659(4) 0.4618(2)
H7 H 0.8458 0.2903 0.3994
H8 H 0.9054 0.3224 0.5161
C8 C 0.67421(19) 0.3727(3) 0.4322(2)
H9 H 0.6782 0.4114 0.3627
C9 C 0.5863(2) 0.3304(4) 0.4507(2)
C10 C 0.5740(2) 0.2608(4) 0.5574(2)
H10 H 0.5152 0.3100 0.5779
H11 H 0.5645 0.1376 0.5512
C11 C 0.49883(19) 0.3381(3) 0.3680(2)
C12 C 0.4969(2) 0.4249(4) 0.2722(2)
H12 H 0.5526 0.4838 0.2600
C13 C 0.4148(2) 0.4259(4) 0.1952(2)
H13 H 0.4148 0.4858 0.1309
C14 C 0.3322(2) 0.3403(4) 0.2107(2)
H14 H 0.2766 0.3389 0.1567
C15 C 0.3319(2) 0.2570(4) 0.3059(2)
H15 H 0.2755 0.1997 0.3180
C16 C 0.4142(2) 0.2573(4) 0.3839(2)
H16 H 0.4128 0.2014 0.4493
loop_
_geom_bond_atom_site_label_1
_geom_bond_atom_site_label_2
_geom_bond_site_symmetry_1
_geom_bond_site_symmetry_2
S1 N1 1_555 1_555
C1 H1 1_555 1_555
N1 H2 1_555 1_555
O1 S1 1_555 1_555
C2 C1 1_555 1_555
H3 C2 1_555 1_555
N2 S1 1_555 1_555
O2 S1 1_555 1_555
C3 C2 1_555 1_555
H4 C3 1_555 1_555
C4 C3 1_555 1_555
H5 C4 1_555 1_555
C5 C4 1_555 1_555
H6 C5 1_555 1_555
C6 C1 1_555 1_555
C7 N2 1_555 1_555
H7 C7 1_555 1_555
H8 C7 1_555 1_555
C8 N2 1_555 1_555
H9 C8 1_555 1_555
C9 C8 1_555 1_555
C10 N1 1_555 1_555
H10 C10 1_555 1_555
H11 C10 1_555 1_555
C11 C9 1_555 1_555
C12 C11 1_555 1_555
H12 C12 1_555 1_555
C13 C12 1_555 1_555
H13 C13 1_555 1_555
C14 C13 1_555 1_555
H14 C14 1_555 1_555
C15 C14 1_555 1_555
H15 C15 1_555 1_555
C16 C11 1_555 1_555
H16 C16 1_555 1_555
C5 C6 1_555 1_555
C6 C7 1_555 1_555
C9 C10 1_555 1_555
C15 C16 1_555 1_555

#END
