
#######################################################################
#
#                 Cambridge Crystallographic Data Centre
#                                CCDC 
#
#######################################################################
#
# If this CIF has been generated from an entry in the Cambridge 
# Structural Database, then it will include bibliographic, chemical, 
# crystal, experimental, refinement or atomic coordinate data resulting 
# from the CCDC's data processing and validation procedures.
#
#######################################################################

data_DAMJAD
_chemical_formula_moiety         'C27 H38 O6 S2'
_chemical_name_systematic        
'(6S,7S,8R,9S,10R,13S,14S,17R)-17\a-Hydroxy-3-methoxy-3-oxo-6\b,7\a-diacetylthiopregn-(2,3)-seco-4-ene-21-carboxylic acid \g-lactone'
_symmetry_cell_setting           orthorhombic
_symmetry_space_group_name_H-M   'P 21 21 21'
_symmetry_Int_Tables_number      19
_space_group_name_Hall           'P 2ac 2ab'
loop_
_symmetry_equiv_pos_site_id
_symmetry_equiv_pos_as_xyz
1 x,y,z
2 1/2-x,-y,1/2+z
3 -x,1/2+y,1/2-z
4 1/2+x,1/2-y,-z
_cell_length_a                   10.6988(10)
_cell_length_b                   12.3441(11)
_cell_length_c                   20.4922(19)
_cell_angle_alpha                90
_cell_angle_beta                 90
_cell_angle_gamma                90
_cell_volume                     2706.34
_exptl_crystal_colour            colorless
_chemical_melting_point          274-276deg.C
_cell_formula_units_Z            4
_exptl_crystal_recrystallization_method acetone
loop_
_atom_site_label
_atom_site_type_symbol
_atom_site_fract_x
_atom_site_fract_y
_atom_site_fract_z
S1 S 0.10845(12) 0.11335(9) 0.43000(5)
S2 S 0.09125(10) 0.30107(10) 0.24772(5)
O1 O 0.2932(4) 0.1883(3) 0.22170(17)
O2 O 0.0916(6) -0.0565(3) 0.35902(18)
O3 O 0.4973(3) 0.8291(3) 0.43760(18)
O4 O 0.4108(3) 0.6695(3) 0.42981(14)
O5 O -0.3620(3) 0.1880(3) 0.41646(16)
O6 O -0.3731(3) 0.0794(3) 0.32970(15)
C1 C -0.2203(5) 0.3874(5) 0.3750(2)
C2 C -0.2396(4) 0.3934(4) 0.3013(2)
H1 H -0.1709 0.4316 0.2818
H2 H -0.3161 0.4311 0.2921
H3 H -0.2438 0.3215 0.2837
C3 C -0.3132(5) 0.1440(4) 0.3713(2)
C4 C -0.1772(5) 0.1449(5) 0.3558(2)
C5 C -0.0863(4) 0.2163(4) 0.36758(17)
C6 C 0.0439(4) 0.1746(4) 0.3538(2)
C7 C 0.1370(4) 0.2586(3) 0.32980(19)
C8 C 0.1402(4) 0.3540(4) 0.3772(2)
C9 C 0.0128(4) 0.4079(4) 0.3833(2)
C10 C -0.1010(4) 0.3297(3) 0.39845(17)
C11 C 0.0145(5) 0.5049(4) 0.4302(3)
C12 C 0.1160(5) 0.5868(4) 0.4113(3)
C13 C 0.2452(4) 0.5336(3) 0.4090(2)
C14 C 0.2394(4) 0.4395(4) 0.3595(2)
C15 C 0.3749(5) 0.4040(5) 0.3517(3)
C16 C 0.4478(5) 0.5129(5) 0.3596(3)
C17 C 0.3530(4) 0.5982(4) 0.3805(2)
C18 C 0.2838(4) 0.4944(4) 0.47790(18)
H4 H 0.2941 0.5558 0.5061
H5 H 0.3612 0.4553 0.4751
H6 H 0.2201 0.4478 0.4951
C19 C -0.1117(4) 0.3105(4) 0.47334(16)
H7 H -0.1742 0.2565 0.4817
H8 H -0.1348 0.3770 0.4945
H9 H -0.0326 0.2862 0.4900
C20 C 0.3229(6) 0.6772(5) 0.3246(3)
C21 C 0.4088(5) 0.7675(4) 0.3339(2)
H10 H 0.3686 0.8358 0.3236
H11 H 0.4824 0.7593 0.3067
C22 C 0.4429(5) 0.7624(5) 0.4052(3)
C23 C -0.5076(4) 0.0715(5) 0.3419(3)
H12 H -0.5218 0.0308 0.3811
H13 H -0.5473 0.0358 0.3059
H14 H -0.5420 0.1429 0.3468
C24 C 0.1200(5) -0.0227(4) 0.4107(3)
C25 C 0.1647(4) -0.0893(4) 0.4666(2)
H15 H 0.2256 -0.1406 0.4515
H16 H 0.0954 -0.1272 0.4856
H17 H 0.2020 -0.0429 0.4988
C26 C 0.2098(5) 0.2419(4) 0.1995(2)
C27 C 0.1954(5) 0.2689(4) 0.1281(2)
H18 H 0.2683 0.3069 0.1132
H19 H 0.1230 0.3138 0.1221
H20 H 0.1857 0.2032 0.1035
H21 H -0.295(4) 0.350(3) 0.3960(18)
H22 H -0.219(3) 0.464(3) 0.3913(17)
H23 H -0.166(3) 0.080(3) 0.3368(17)
H24 H 0.044(3) 0.116(3) 0.3270(15)
H25 H 0.218(3) 0.223(2) 0.3277(13)
H26 H 0.160(3) 0.331(3) 0.4201(16)
H27 H -0.001(2) 0.430(3) 0.3340(16)
H28 H 0.049(4) 0.479(4) 0.480(2)
H29 H -0.072(3) 0.535(3) 0.4327(17)
H30 H 0.115(4) 0.641(3) 0.4363(19)
H31 H 0.104(4) 0.626(4) 0.358(2)
H32 H 0.211(3) 0.479(3) 0.3246(16)
H33 H 0.408(4) 0.346(3) 0.3935(19)
H34 H 0.394(3) 0.378(3) 0.3126(16)
H35 H 0.510(3) 0.496(3) 0.3964(17)
H36 H 0.523(5) 0.538(5) 0.323(3)
H37 H 0.311(3) 0.645(3) 0.2807(16)
H38 H 0.244(3) 0.717(4) 0.332(2)
loop_
_geom_bond_atom_site_label_1
_geom_bond_atom_site_label_2
_geom_bond_site_symmetry_1
_geom_bond_site_symmetry_2
S1 C6 1_555 1_555
S2 C7 1_555 1_555
O1 C26 1_555 1_555
O2 C24 1_555 1_555
O3 C22 1_555 1_555
O4 C17 1_555 1_555
O5 C3 1_555 1_555
O6 C3 1_555 1_555
C1 C2 1_555 1_555
C2 H1 1_555 1_555
H2 C2 1_555 1_555
H3 C2 1_555 1_555
C3 C4 1_555 1_555
C4 C5 1_555 1_555
C5 C6 1_555 1_555
C6 C7 1_555 1_555
C7 C8 1_555 1_555
C8 C9 1_555 1_555
C9 C10 1_555 1_555
C10 C1 1_555 1_555
C11 C9 1_555 1_555
C12 C11 1_555 1_555
C13 C12 1_555 1_555
C14 C8 1_555 1_555
C15 C14 1_555 1_555
C16 C15 1_555 1_555
C17 C13 1_555 1_555
C18 C13 1_555 1_555
H4 C18 1_555 1_555
H5 C18 1_555 1_555
H6 C18 1_555 1_555
C19 C10 1_555 1_555
H7 C19 1_555 1_555
H8 C19 1_555 1_555
H9 C19 1_555 1_555
C20 C17 1_555 1_555
C21 C20 1_555 1_555
H10 C21 1_555 1_555
H11 C21 1_555 1_555
C22 O4 1_555 1_555
C23 O6 1_555 1_555
H12 C23 1_555 1_555
H13 C23 1_555 1_555
H14 C23 1_555 1_555
C24 S1 1_555 1_555
C25 C24 1_555 1_555
H15 C25 1_555 1_555
H16 C25 1_555 1_555
H17 C25 1_555 1_555
C26 S2 1_555 1_555
C27 C26 1_555 1_555
H18 C27 1_555 1_555
H19 C27 1_555 1_555
H20 C27 1_555 1_555
H21 C1 1_555 1_555
H22 C1 1_555 1_555
H23 C4 1_555 1_555
H24 C6 1_555 1_555
H25 C7 1_555 1_555
H26 C8 1_555 1_555
H27 C9 1_555 1_555
H28 C11 1_555 1_555
H29 C11 1_555 1_555
H30 C12 1_555 1_555
H31 C12 1_555 1_555
H32 C14 1_555 1_555
H33 C15 1_555 1_555
H34 C15 1_555 1_555
H35 C16 1_555 1_555
H36 C16 1_555 1_555
H37 C20 1_555 1_555
H38 C20 1_555 1_555
C5 C10 1_555 1_555
C13 C14 1_555 1_555
C16 C17 1_555 1_555
C21 C22 1_555 1_555

#END
