
#######################################################################
#
#                 Cambridge Crystallographic Data Centre
#                                CCDC 
#
#######################################################################
#
# If this CIF has been generated from an entry in the Cambridge 
# Structural Database, then it will include bibliographic, chemical, 
# crystal, experimental, refinement or atomic coordinate data resulting 
# from the CCDC's data processing and validation procedures.
#
#######################################################################

data_DAMREP
_chemical_name_common            
'rccc-C-(iso-butyl)resorcin(4)arene dimethylformamide solvate'
_chemical_formula_moiety         'C44 H56 O8,3(C3 H7 N1 O1)'
_chemical_name_systematic        
'rccc-4,6,10,12,16,18,22,24-octahydroxy-2,8,14,20-tetrakis(iso-butyl)calix(4)arene dimethylformamide solvate'
_symmetry_cell_setting           monoclinic
_symmetry_space_group_name_H-M   'P 21/n'
_symmetry_Int_Tables_number      14
_space_group_name_Hall           '-P 2yn'
loop_
_symmetry_equiv_pos_site_id
_symmetry_equiv_pos_as_xyz
1 x,y,z
2 1/2-x,1/2+y,1/2-z
3 -x,-y,-z
4 1/2+x,1/2-y,1/2+z
_cell_length_a                   10.5985(6)
_cell_length_b                   30.6588(16)
_cell_length_c                   17.0701(9)
_cell_angle_alpha                90
_cell_angle_beta                 107.5740(10)
_cell_angle_gamma                90
_cell_volume                     5287.83
_exptl_crystal_colour            colorless
_exptl_crystal_description       block
_cell_formula_units_Z            4
loop_
_atom_site_label
_atom_site_type_symbol
_atom_site_fract_x
_atom_site_fract_y
_atom_site_fract_z
O1 O 0.69815(15) 0.15815(5) 0.47724(10)
H1 H 0.6874 0.1694 0.5203
O2 O 0.27111(15) 0.09668(5) 0.45834(10)
H2 H 0.2819 0.1115 0.5019
O3 O 0.05149(15) 0.11087(5) 0.32340(10)
H3 H 0.1219 0.1046 0.3613
O4 O -0.08596(15) 0.14344(5) 0.04365(11)
H4 H -0.0598 0.1434 0.0012
O5 O -0.01769(14) 0.15506(5) -0.09855(10)
H5 H -0.0469 0.1795 -0.1199
O6 O 0.40096(14) 0.22468(5) -0.07297(10)
H6 H 0.3492 0.2443 -0.1000
O7 O 0.57845(17) 0.24632(5) 0.08059(10)
H7 H 0.5311 0.2369 0.0342
O8 O 0.73823(16) 0.20924(5) 0.35921(10)
H8 H 0.7220 0.1913 0.3928
C1 C 0.5897(2) 0.11264(7) 0.36532(14)
C2 C 0.5894(2) 0.13307(7) 0.43822(14)
C3 C 0.4837(2) 0.12863(7) 0.46967(14)
H9 H 0.4842 0.1434 0.5186
C4 C 0.3772(2) 0.10238(7) 0.42908(14)
C5 C 0.3737(2) 0.08096(7) 0.35664(14)
C6 C 0.4797(2) 0.08764(7) 0.32590(14)
H10 H 0.4767 0.0743 0.2751
C7 C 0.1658(2) 0.07354(7) 0.23814(14)
C8 C 0.0694(2) 0.10220(7) 0.24842(15)
C9 C -0.0146(2) 0.12378(7) 0.18207(15)
H11 H -0.0816 0.1423 0.1899
C10 C -0.0020(2) 0.11872(7) 0.10424(15)
C11 C 0.0922(2) 0.09019(7) 0.09044(14)
C12 C 0.1733(2) 0.06846(7) 0.15874(14)
H12 H 0.2378 0.0489 0.1506
C13 C 0.1815(2) 0.12265(7) -0.01699(13)
C14 C 0.1182(2) 0.15682(7) -0.06774(14)
C15 C 0.1896(2) 0.19128(7) -0.08583(14)
H13 H 0.1449 0.2148 -0.1190
C16 C 0.3263(2) 0.19129(7) -0.05530(13)
C17 C 0.3941(2) 0.15733(7) -0.00627(13)
C18 C 0.3185(2) 0.12439(7) 0.01304(13)
H14 H 0.3631 0.1018 0.0488
C19 C 0.5972(2) 0.16858(7) 0.11451(14)
C20 C 0.6108(2) 0.21282(7) 0.13642(15)
C21 C 0.6596(2) 0.22485(7) 0.21824(15)
H15 H 0.6712 0.2549 0.2323
C22 C 0.6913(2) 0.19382(7) 0.27944(14)
C23 C 0.6764(2) 0.14930(7) 0.26108(14)
C24 C 0.62982(19) 0.13835(7) 0.17806(14)
H16 H 0.6197 0.1083 0.1640
C25 C 0.3963(2) -0.01785(8) 0.36909(15)
H17 H 0.4709 0.0017 0.3988
C26 C 0.3119(2) 0.00663(7) 0.29302(14)
H18 H 0.3656 0.0116 0.2554
H19 H 0.2358 -0.0120 0.2639
C27 C 0.2596(2) 0.05057(7) 0.31225(14)
H20 H 0.2081 0.0446 0.3515
C28 C 0.4559(3) -0.05870(9) 0.34315(17)
H21 H 0.5049 -0.0506 0.3049
H22 H 0.3849 -0.0791 0.3161
H23 H 0.5163 -0.0726 0.3918
C29 C 0.3196(3) -0.02952(9) 0.42785(18)
H24 H 0.2821 -0.0030 0.4439
H25 H 0.3791 -0.0434 0.4769
H26 H 0.2480 -0.0497 0.4009
C30 C 0.1591(2) 0.03395(7) -0.10035(14)
H27 H 0.2174 0.0566 -0.1135
C31 C 0.1599(2) 0.04058(7) -0.01164(14)
H28 H 0.2520 0.0380 0.0248
H29 H 0.1075 0.0170 0.0033
C32 C 0.1035(2) 0.08481(7) 0.00383(14)
H30 H 0.0117 0.0867 -0.0349
C33 C 0.0205(3) 0.03869(9) -0.16151(16)
H31 H -0.0150 0.0676 -0.1554
H32 H -0.0377 0.0162 -0.1507
H33 H 0.0255 0.0354 -0.2176
C34 C 0.2159(3) -0.01078(8) -0.10970(17)
H34 H 0.3048 -0.0135 -0.0706
H35 H 0.2209 -0.0140 -0.1658
H36 H 0.1586 -0.0336 -0.0987
C35 C 0.5570(2) 0.10095(8) -0.08733(15)
H37 H 0.4581 0.1011 -0.1086
C36 C 0.5966(2) 0.11144(7) 0.00448(14)
H38 H 0.6944 0.1113 0.0266
H39 H 0.5626 0.0882 0.0329
C37 C 0.5449(2) 0.15567(7) 0.02418(13)
H40 H 0.5773 0.1782 -0.0075
C38 C 0.6043(4) 0.05530(10) -0.10007(18)
H41 H 0.5700 0.0342 -0.0684
H42 H 0.7013 0.0546 -0.0815
H43 H 0.5721 0.0478 -0.1585
C39 C 0.6081(3) 0.13447(10) -0.13641(16)
H44 H 0.5757 0.1635 -0.1281
H45 H 0.5764 0.1270 -0.1949
H46 H 0.7051 0.1344 -0.1178
C40 C 0.7852(2) 0.03841(7) 0.37917(15)
H47 H 0.7050 0.0340 0.3976
C41 C 0.7482(2) 0.07100(7) 0.30757(14)
H48 H 0.8251 0.0747 0.2867
H49 H 0.6748 0.0587 0.2625
C42 C 0.7064(2) 0.11598(7) 0.33049(14)
H50 H 0.7829 0.1277 0.3755
C43 C 0.8206(3) -0.00557(8) 0.34981(17)
H51 H 0.7478 -0.0155 0.3026
H52 H 0.8354 -0.0269 0.3944
H53 H 0.9013 -0.0026 0.3336
C44 C 0.8959(2) 0.05476(9) 0.45264(16)
H54 H 0.9147 0.0329 0.4965
H55 H 0.8687 0.0821 0.4726
H56 H 0.9756 0.0598 0.4362
O9 O 0.26982(19) 0.14144(7) 0.58879(12)
C45 C 0.1591(3) 0.14612(9) 0.59798(17)
H57 H 0.0885 0.1547 0.5514
C46 C 0.2338(3) 0.12529(11) 0.74000(19)
H58 H 0.3182 0.1227 0.7279
H59 H 0.2088 0.0968 0.7568
H60 H 0.2431 0.1464 0.7845
C47 C 0.0003(3) 0.14593(12) 0.6743(2)
H61 H -0.0594 0.1558 0.6214
H62 H 0.0028 0.1678 0.7166
H63 H -0.0317 0.1182 0.6895
N1 N 0.1324(2) 0.14005(7) 0.66727(14)
O10 O 0.6986(2) 0.18864(8) 0.62108(14)
C48 C 0.6152(3) 0.20188(10) 0.6522(2)
H64 H 0.6230 0.1925 0.7065
C49 C 0.4989(5) 0.24226(12) 0.5328(2)
H65 H 0.5714 0.2304 0.5148
H66 H 0.5007 0.2742 0.5307
H67 H 0.4141 0.2316 0.4965
C50 C 0.4213(4) 0.24095(12) 0.6560(3)
H68 H 0.4470 0.2284 0.7114
H69 H 0.3333 0.2303 0.6249
H70 H 0.4194 0.2728 0.6599
N2 N 0.5141(2) 0.22849(8) 0.61546(17)
O11 O 0.37712(19) 0.27395(6) 0.33169(15)
C51 C 0.3681(3) 0.25087(9) 0.2713(2)
H71 H 0.4152 0.2597 0.2346
C52 C 0.2232(4) 0.20022(10) 0.3082(2)
H72 H 0.2334 0.2213 0.3528
H73 H 0.2567 0.1717 0.3314
H74 H 0.1294 0.1977 0.2768
C53 C 0.2939(3) 0.18789(10) 0.1834(2)
H75 H 0.3472 0.2014 0.1520
H76 H 0.2021 0.1850 0.1483
H77 H 0.3295 0.1589 0.2023
N3 N 0.2980(2) 0.21502(7) 0.25389(15)
loop_
_geom_bond_atom_site_label_1
_geom_bond_atom_site_label_2
_geom_bond_site_symmetry_1
_geom_bond_site_symmetry_2
O1 H1 1_555 1_555
O2 H2 1_555 1_555
O3 H3 1_555 1_555
O4 H4 1_555 1_555
O5 H5 1_555 1_555
O6 H6 1_555 1_555
O7 H7 1_555 1_555
O8 H8 1_555 1_555
C1 C2 1_555 1_555
C2 O1 1_555 1_555
C3 C2 1_555 1_555
H9 C3 1_555 1_555
C4 O2 1_555 1_555
C5 C4 1_555 1_555
C6 C1 1_555 1_555
H10 C6 1_555 1_555
C7 C8 1_555 1_555
C8 O3 1_555 1_555
C9 C8 1_555 1_555
H11 C9 1_555 1_555
C10 O4 1_555 1_555
C11 C10 1_555 1_555
C12 C7 1_555 1_555
H12 C12 1_555 1_555
C13 C14 1_555 1_555
C14 O5 1_555 1_555
C15 C14 1_555 1_555
H13 C15 1_555 1_555
C16 O6 1_555 1_555
C17 C16 1_555 1_555
C18 C13 1_555 1_555
H14 C18 1_555 1_555
C19 C20 1_555 1_555
C20 O7 1_555 1_555
C21 C20 1_555 1_555
H15 C21 1_555 1_555
C22 O8 1_555 1_555
C23 C22 1_555 1_555
C24 C19 1_555 1_555
H16 C24 1_555 1_555
C25 H17 1_555 1_555
C26 C25 1_555 1_555
H18 C26 1_555 1_555
H19 C26 1_555 1_555
C27 C5 1_555 1_555
H20 C27 1_555 1_555
C28 C25 1_555 1_555
H21 C28 1_555 1_555
H22 C28 1_555 1_555
H23 C28 1_555 1_555
C29 C25 1_555 1_555
H24 C29 1_555 1_555
H25 C29 1_555 1_555
H26 C29 1_555 1_555
C30 H27 1_555 1_555
C31 C30 1_555 1_555
H28 C31 1_555 1_555
H29 C31 1_555 1_555
C32 C11 1_555 1_555
H30 C32 1_555 1_555
C33 C30 1_555 1_555
H31 C33 1_555 1_555
H32 C33 1_555 1_555
H33 C33 1_555 1_555
C34 C30 1_555 1_555
H34 C34 1_555 1_555
H35 C34 1_555 1_555
H36 C34 1_555 1_555
C35 H37 1_555 1_555
C36 C35 1_555 1_555
H38 C36 1_555 1_555
H39 C36 1_555 1_555
C37 C17 1_555 1_555
H40 C37 1_555 1_555
C38 C35 1_555 1_555
H41 C38 1_555 1_555
H42 C38 1_555 1_555
H43 C38 1_555 1_555
C39 C35 1_555 1_555
H44 C39 1_555 1_555
H45 C39 1_555 1_555
H46 C39 1_555 1_555
C40 H47 1_555 1_555
C41 C40 1_555 1_555
H48 C41 1_555 1_555
H49 C41 1_555 1_555
C42 C1 1_555 1_555
H50 C42 1_555 1_555
C43 C40 1_555 1_555
H51 C43 1_555 1_555
H52 C43 1_555 1_555
H53 C43 1_555 1_555
C44 C40 1_555 1_555
H54 C44 1_555 1_555
H55 C44 1_555 1_555
H56 C44 1_555 1_555
O9 C45 1_555 1_555
C45 H57 1_555 1_555
C46 H58 1_555 1_555
H59 C46 1_555 1_555
H60 C46 1_555 1_555
C47 H61 1_555 1_555
H62 C47 1_555 1_555
H63 C47 1_555 1_555
N1 C45 1_555 1_555
O10 C48 1_555 1_555
C48 H64 1_555 1_555
C49 H65 1_555 1_555
H66 C49 1_555 1_555
H67 C49 1_555 1_555
C50 H68 1_555 1_555
H69 C50 1_555 1_555
H70 C50 1_555 1_555
N2 C48 1_555 1_555
O11 C51 1_555 1_555
C51 H71 1_555 1_555
C52 H72 1_555 1_555
H73 C52 1_555 1_555
H74 C52 1_555 1_555
C53 H75 1_555 1_555
H76 C53 1_555 1_555
H77 C53 1_555 1_555
N3 C51 1_555 1_555
C3 C4 1_555 1_555
C5 C6 1_555 1_555
C7 C27 1_555 1_555
C9 C10 1_555 1_555
C11 C12 1_555 1_555
C13 C32 1_555 1_555
C15 C16 1_555 1_555
C17 C18 1_555 1_555
C19 C37 1_555 1_555
C21 C22 1_555 1_555
C23 C24 1_555 1_555
C23 C42 1_555 1_555
C26 C27 1_555 1_555
C31 C32 1_555 1_555
C36 C37 1_555 1_555
C41 C42 1_555 1_555
C46 N1 1_555 1_555
C47 N1 1_555 1_555
C49 N2 1_555 1_555
C50 N2 1_555 1_555
C52 N3 1_555 1_555
C53 N3 1_555 1_555

#END
