
#######################################################################
#
#                 Cambridge Crystallographic Data Centre
#                                CCDC 
#
#######################################################################
#
# If this CIF has been generated from an entry in the Cambridge 
# Structural Database, then it will include bibliographic, chemical, 
# crystal, experimental, refinement or atomic coordinate data resulting 
# from the CCDC's data processing and validation procedures.
#
#######################################################################

data_DAMRAL
_chemical_formula_moiety         'C41 H44 N4 O6 S2'
_chemical_name_systematic        
1,7-(bis(6-Methoxy-8-(4-toluenesulfonamido)quinol-2-yl))heptane
_symmetry_cell_setting           monoclinic
_symmetry_space_group_name_H-M   'P 21/c'
_symmetry_Int_Tables_number      14
_space_group_name_Hall           '-P 2ybc'
loop_
_symmetry_equiv_pos_site_id
_symmetry_equiv_pos_as_xyz
1 x,y,z
2 -x,1/2+y,1/2-z
3 -x,-y,-z
4 x,1/2-y,1/2+z
_cell_length_a                   17.241(2)
_cell_length_b                   12.291(2)
_cell_length_c                   19.578(6)
_cell_angle_alpha                90
_cell_angle_beta                 111.03(2)
_cell_angle_gamma                90
_cell_volume                     3872.42
_exptl_crystal_colour            colorless
_exptl_crystal_description       plates
_chemical_melting_point          '448-450 K'
_cell_formula_units_Z            4
_exptl_crystal_recrystallization_method dichloromethane/hexanes
loop_
_atom_site_label
_atom_site_type_symbol
_atom_site_fract_x
_atom_site_fract_y
_atom_site_fract_z
S1 S -0.09773(5) 0.59184(6) 0.53363(4)
S2 S 0.52422(6) 0.07599(7) 0.28569(4)
O1 O -0.03664(16) 0.9114(2) 0.73631(13)
O2 O -0.08154(14) 0.48283(17) 0.51706(12)
O3 O -0.14226(14) 0.61040(18) 0.58187(12)
O4 O 0.71791(14) -0.09502(19) 0.54334(13)
O5 O 0.55998(15) -0.02904(18) 0.28514(13)
O6 O 0.45264(15) 0.10957(19) 0.22536(12)
N1 N 0.07296(16) 0.7953(2) 0.51451(14)
H1 H 0.0276 0.6405 0.5376
N2 N -0.00596(15) 0.6485(2) 0.56942(13)
N3 N 0.46959(17) 0.2144(2) 0.45372(14)
H2 H 0.4524 0.1378 0.3525
N4 N 0.49453(16) 0.0828(2) 0.35582(14)
C1 C 0.1157(2) 0.8633(3) 0.48929(19)
C2 C 0.1347(2) 0.9710(3) 0.5159(2)
H3 H 0.1657 1.0176 0.4965
C3 C 0.1082(2) 1.0066(3) 0.5691(2)
H4 H 0.1199 1.0790 0.5867
C4 C 0.0636(2) 0.9375(3) 0.59858(19)
C5 C 0.0351(2) 0.9674(3) 0.65614(19)
H5 H 0.0453 1.0385 0.6764
C6 C -0.0066(2) 0.8938(3) 0.68171(18)
C7 C -0.0189(3) 1.0147(3) 0.7713(2)
H6 H -0.0435 1.0187 0.8092
H7 H -0.0423 1.0722 0.7351
H8 H 0.0414 1.0242 0.7937
C8 C -0.0218(2) 0.7872(3) 0.65281(17)
H9 H -0.0502 0.7364 0.6720
C9 C 0.00417(18) 0.7569(3) 0.59740(17)
C10 C 0.04754(19) 0.8311(3) 0.56879(17)
C11 C 0.4524(2) 0.2780(3) 0.50105(19)
C12 C 0.4955(2) 0.2700(3) 0.57705(19)
H10 H 0.4807 0.3159 0.6095
C13 C 0.5582(2) 0.1969(3) 0.60405(19)
H11 H 0.5876 0.1919 0.6553
C14 C 0.5796(2) 0.1281(3) 0.55555(18)
C15 C 0.6437(2) 0.0492(3) 0.57879(18)
H12 H 0.6759 0.0411 0.6293
C16 C 0.6588(2) -0.0150(3) 0.52797(18)
C17 C 0.7636(2) -0.1162(3) 0.6185(2)
H13 H 0.8038 -0.1745 0.6227
H14 H 0.7254 -0.1384 0.6428
H15 H 0.7932 -0.0501 0.6418
C18 C 0.6114(2) -0.0045(3) 0.45318(18)
H16 H 0.6229 -0.0500 0.4187
C19 C 0.54915(19) 0.0704(3) 0.42961(16)
C20 C 0.5321(2) 0.1400(3) 0.48079(18)
C21 C 0.1456(2) 0.8170(3) 0.43152(19)
H17 H 0.1631 0.8771 0.4066
H18 H 0.0994 0.7777 0.3944
C22 C 0.2187(2) 0.7389(3) 0.46551(19)
H19 H 0.2676 0.7811 0.4964
H20 H 0.2042 0.6867 0.4975
C23 C 0.2417(2) 0.6762(3) 0.4091(2)
H21 H 0.2588 0.7280 0.3785
H22 H 0.1922 0.6364 0.3767
C24 C 0.3120(2) 0.5952(3) 0.44395(18)
H23 H 0.3630 0.6355 0.4729
H24 H 0.2969 0.5473 0.4778
C25 C 0.3299(2) 0.5261(3) 0.38739(19)
H25 H 0.3436 0.5746 0.3530
H26 H 0.2789 0.4854 0.3590
C26 C 0.4015(2) 0.4444(3) 0.41976(19)
H27 H 0.4113 0.4058 0.3792
H28 H 0.4528 0.4849 0.4476
C27 C 0.3844(2) 0.3609(3) 0.4701(2)
H29 H 0.3759 0.3997 0.5112
H30 H 0.3321 0.3223 0.4425
C28 C -0.1497(2) 0.6614(2) 0.45131(17)
C29 C -0.1140(2) 0.6649(3) 0.39804(18)
H31 H -0.0607 0.6341 0.4069
C30 C -0.1575(3) 0.7141(3) 0.33182(19)
H32 H -0.1341 0.7168 0.2947
C31 C -0.2359(3) 0.7599(3) 0.31899(19)
C32 C -0.2679(2) 0.7571(3) 0.3735(2)
H33 H -0.3204 0.7896 0.3654
C33 C -0.2259(2) 0.7083(3) 0.4396(2)
H34 H -0.2492 0.7069 0.4768
C34 C -0.2825(3) 0.8136(4) 0.2477(2)
H35 H -0.3223 0.7620 0.2155
H36 H -0.2435 0.8374 0.2247
H37 H -0.3125 0.8769 0.2562
C35 C 0.6029(2) 0.1738(2) 0.30001(16)
C36 C 0.5844(2) 0.2824(3) 0.30607(19)
H38 H 0.5307 0.3030 0.3044
C37 C 0.6448(3) 0.3598(3) 0.3146(2)
H39 H 0.6325 0.4342 0.3192
C38 C 0.7233(2) 0.3308(3) 0.31639(19)
C39 C 0.7403(2) 0.2220(3) 0.3109(2)
H40 H 0.7938 0.2009 0.3122
C40 C 0.6809(2) 0.1441(3) 0.30344(18)
H41 H 0.6938 0.0695 0.3007
C41 C 0.7876(3) 0.4168(4) 0.3244(3)
H42 H 0.8181 0.4308 0.3764
H43 H 0.7603 0.4839 0.3006
H44 H 0.8263 0.3920 0.3013
loop_
_geom_bond_atom_site_label_1
_geom_bond_atom_site_label_2
_geom_bond_site_symmetry_1
_geom_bond_site_symmetry_2
S1 O2 1_555 1_555
S2 O5 1_555 1_555
O1 C6 1_555 1_555
O3 S1 1_555 1_555
O4 C16 1_555 1_555
O6 S2 1_555 1_555
N1 C1 1_555 1_555
H1 N2 1_555 1_555
N2 S1 1_555 1_555
N3 C11 1_555 1_555
H2 N4 1_555 1_555
N4 S2 1_555 1_555
C1 C2 1_555 1_555
C2 H3 1_555 1_555
C3 C2 1_555 1_555
H4 C3 1_555 1_555
C4 C3 1_555 1_555
C5 C4 1_555 1_555
H5 C5 1_555 1_555
C6 C5 1_555 1_555
C7 O1 1_555 1_555
H6 C7 1_555 1_555
H7 C7 1_555 1_555
H8 C7 1_555 1_555
C8 C6 1_555 1_555
H9 C8 1_555 1_555
C9 N2 1_555 1_555
C10 N1 1_555 1_555
C11 C12 1_555 1_555
C12 H10 1_555 1_555
C13 C12 1_555 1_555
H11 C13 1_555 1_555
C14 C13 1_555 1_555
C15 C14 1_555 1_555
H12 C15 1_555 1_555
C16 C15 1_555 1_555
C17 O4 1_555 1_555
H13 C17 1_555 1_555
H14 C17 1_555 1_555
H15 C17 1_555 1_555
C18 C16 1_555 1_555
H16 C18 1_555 1_555
C19 N4 1_555 1_555
C20 N3 1_555 1_555
C21 C1 1_555 1_555
H17 C21 1_555 1_555
H18 C21 1_555 1_555
C22 C21 1_555 1_555
H19 C22 1_555 1_555
H20 C22 1_555 1_555
C23 C22 1_555 1_555
H21 C23 1_555 1_555
H22 C23 1_555 1_555
C24 C23 1_555 1_555
H23 C24 1_555 1_555
H24 C24 1_555 1_555
C25 C24 1_555 1_555
H25 C25 1_555 1_555
H26 C25 1_555 1_555
C26 C25 1_555 1_555
H27 C26 1_555 1_555
H28 C26 1_555 1_555
C27 C11 1_555 1_555
H29 C27 1_555 1_555
H30 C27 1_555 1_555
C28 S1 1_555 1_555
C29 C28 1_555 1_555
H31 C29 1_555 1_555
C30 C29 1_555 1_555
H32 C30 1_555 1_555
C31 C30 1_555 1_555
C32 C31 1_555 1_555
H33 C32 1_555 1_555
C33 C28 1_555 1_555
H34 C33 1_555 1_555
C34 C31 1_555 1_555
H35 C34 1_555 1_555
H36 C34 1_555 1_555
H37 C34 1_555 1_555
C35 S2 1_555 1_555
C36 C35 1_555 1_555
H38 C36 1_555 1_555
C37 C36 1_555 1_555
H39 C37 1_555 1_555
C38 C37 1_555 1_555
C39 C38 1_555 1_555
H40 C39 1_555 1_555
C40 C35 1_555 1_555
H41 C40 1_555 1_555
C41 C38 1_555 1_555
H42 C41 1_555 1_555
H43 C41 1_555 1_555
H44 C41 1_555 1_555
C4 C10 1_555 1_555
C8 C9 1_555 1_555
C9 C10 1_555 1_555
C14 C20 1_555 1_555
C18 C19 1_555 1_555
C19 C20 1_555 1_555
C26 C27 1_555 1_555
C32 C33 1_555 1_555
C39 C40 1_555 1_555

#END
