
#######################################################################
#
#                 Cambridge Crystallographic Data Centre
#                                CCDC 
#
#######################################################################
#
# If this CIF has been generated from an entry in the Cambridge 
# Structural Database, then it will include bibliographic, chemical, 
# crystal, experimental, refinement or atomic coordinate data resulting 
# from the CCDC's data processing and validation procedures.
#
#######################################################################

data_DAMVET
_chemical_formula_moiety         'C15 H10 F6 S2'
_chemical_name_systematic        
1,2-bis(2-Methylthien-3-yl)perfluorocyclopentene
_symmetry_cell_setting           triclinic
_symmetry_space_group_name_H-M   'P -1'
_symmetry_Int_Tables_number      2
_space_group_name_Hall           '-P 1'
loop_
_symmetry_equiv_pos_site_id
_symmetry_equiv_pos_as_xyz
1 x,y,z
2 -x,-y,-z
_cell_length_a                   8.7095(14)
_cell_length_b                   9.7487(17)
_cell_length_c                   11.1970(18)
_cell_angle_alpha                75.052(10)
_cell_angle_beta                 67.313(10)
_cell_angle_gamma                65.656(10)
_cell_volume                     793.591
_exptl_crystal_colour            colorless
_exptl_crystal_description       block
_cell_formula_units_Z            2
_chemical_properties_physical    light-sensitive
_exptl_crystal_recrystallization_method hexane
_exptl_crystal_preparation       photochromic
loop_
_atom_site_label
_atom_site_type_symbol
_atom_site_fract_x
_atom_site_fract_y
_atom_site_fract_z
S1 S 0.24589(19) -0.06550(17) 0.15973(17)
S2 S -0.11010(18) 0.53119(19) 0.33039(18)
F1 F 0.4883(4) 0.4129(4) 0.3730(4)
F2 F 0.5628(4) 0.4768(3) 0.1669(4)
F3 F 0.7913(6) 0.2087(4) 0.3250(6)
F4 F 0.8225(5) 0.2448(4) 0.1229(5)
F5 F 0.7788(4) 0.0029(4) 0.1595(4)
F6 F 0.6749(5) 0.0042(4) 0.3639(4)
C1 C 0.4784(5) 0.1548(4) 0.2454(4)
C2 C 0.4061(5) 0.3042(4) 0.2540(4)
C3 C 0.5398(6) 0.3622(5) 0.2599(5)
C4 C 0.7102(7) 0.2266(6) 0.2439(6)
C5 C 0.6651(6) 0.0916(5) 0.2512(5)
C6 C 0.3110(5) 0.0837(5) 0.1456(4)
C7 C 0.4014(5) 0.0524(4) 0.2324(4)
C8 C 0.4184(7) -0.0929(5) 0.3068(5)
H1 H 0.4779 -0.1322 0.3683
C9 C 0.3385(7) -0.1666(6) 0.2777(6)
H2 H 0.3347 -0.2619 0.3179
C10 C 0.2726(6) 0.2167(5) 0.0464(4)
H3 H 0.3177 0.2891 0.0513
H4 H 0.1465 0.2627 0.0628
H5 H 0.3287 0.1841 -0.0389
C11 C 0.0762(6) 0.3825(5) 0.3502(5)
C12 C 0.2247(5) 0.4086(4) 0.2634(4)
C13 C 0.1866(7) 0.5497(5) 0.1820(5)
H6 H 0.2736 0.5844 0.1187
C14 C 0.0122(8) 0.6263(6) 0.2070(6)
H7 H -0.0365 0.7197 0.1628
C15 C 0.0600(6) 0.2532(6) 0.4538(5)
H8 H 0.1763 0.1808 0.4509
H9 H -0.0076 0.2055 0.4398
H10 H 0.0008 0.2899 0.5376
loop_
_geom_bond_atom_site_label_1
_geom_bond_atom_site_label_2
_geom_bond_site_symmetry_1
_geom_bond_site_symmetry_2
S1 C6 1_555 1_555
S2 C11 1_555 1_555
F1 C3 1_555 1_555
F2 C3 1_555 1_555
F3 C4 1_555 1_555
F4 C4 1_555 1_555
F5 C5 1_555 1_555
F6 C5 1_555 1_555
C1 C2 1_555 1_555
C2 C3 1_555 1_555
C3 C4 1_555 1_555
C4 C5 1_555 1_555
C5 C1 1_555 1_555
C6 C7 1_555 1_555
C7 C1 1_555 1_555
C8 C7 1_555 1_555
H1 C8 1_555 1_555
C9 S1 1_555 1_555
H2 C9 1_555 1_555
C10 C6 1_555 1_555
H3 C10 1_555 1_555
H4 C10 1_555 1_555
H5 C10 1_555 1_555
C11 C12 1_555 1_555
C12 C2 1_555 1_555
C13 C12 1_555 1_555
H6 C13 1_555 1_555
C14 S2 1_555 1_555
H7 C14 1_555 1_555
C15 C11 1_555 1_555
H8 C15 1_555 1_555
H9 C15 1_555 1_555
H10 C15 1_555 1_555
C8 C9 1_555 1_555
C13 C14 1_555 1_555

#END
