
#######################################################################
#
#                 Cambridge Crystallographic Data Centre
#                                CCDC 
#
#######################################################################
#
# If this CIF has been generated from an entry in the Cambridge 
# Structural Database, then it will include bibliographic, chemical, 
# crystal, experimental, refinement or atomic coordinate data resulting 
# from the CCDC's data processing and validation procedures.
#
#######################################################################

data_DAMYUN
_chemical_formula_moiety         'C36 H30 B1 F10 N3'
_chemical_name_systematic        
2,6-diisopropyl-N-(3-(N-(bis(pentafluorophenyl)boron)cyano)-4-(phenylimino)pent-2-en-2-yl)aniline
_symmetry_cell_setting           triclinic
_symmetry_space_group_name_H-M   'P -1'
_symmetry_Int_Tables_number      2
_space_group_name_Hall           '-P 1'
loop_
_symmetry_equiv_pos_site_id
_symmetry_equiv_pos_as_xyz
1 x,y,z
2 -x,-y,-z
_cell_length_a                   9.1730(5)
_cell_length_b                   13.9793(6)
_cell_length_c                   14.9065(7)
_cell_angle_alpha                66.006(2)
_cell_angle_beta                 85.949(2)
_cell_angle_gamma                87.231(2)
_cell_volume                     1741.55
_exptl_crystal_colour            colorless
_exptl_crystal_description       plate
_cell_formula_units_Z            2
loop_
_atom_site_label
_atom_site_type_symbol
_atom_site_fract_x
_atom_site_fract_y
_atom_site_fract_z
N1 N 0.1230(2) 0.57993(15) 0.75630(14)
H1 H 0.105(3) 0.627(2) 0.777(2)
C1 C 0.2185(3) 0.59964(17) 0.68123(17)
B1 B 0.5756(3) 0.7363(2) 0.40502(19)
H2 H 0.5880 0.6666 0.4026
N2 N 0.1662(2) 0.76958(14) 0.74312(14)
C2 C 0.2816(2) 0.69973(16) 0.63595(16)
N3 N 0.4679(2) 0.72635(14) 0.49320(14)
C3 C 0.2533(2) 0.78518(16) 0.66756(16)
C4 C 0.2592(3) 0.51658(19) 0.6448(2)
H3 H 0.2483 0.4482 0.6986
H4 H 0.3599 0.5249 0.6188
H5 H 0.1957 0.5226 0.5933
C5 C 0.3830(2) 0.71506(16) 0.55670(17)
C6 C 0.3273(3) 0.88703(18) 0.60820(19)
H6 H 0.2777 0.9426 0.6224
H7 H 0.3235 0.9028 0.5387
H8 H 0.4285 0.8815 0.6251
C7 C 0.0549(3) 0.48070(17) 0.81147(17)
C8 C -0.0766(3) 0.46051(18) 0.78241(18)
C9 C -0.1397(3) 0.3650(2) 0.8382(2)
H9 H -0.2289 0.3492 0.8206
C10 C -0.0737(4) 0.2926(2) 0.9194(2)
H10 H -0.1175 0.2277 0.9560
C11 C 0.0550(4) 0.3148(2) 0.9468(2)
H11 H 0.0979 0.2648 1.0027
C12 C 0.1240(3) 0.40914(19) 0.89440(18)
C13 C -0.1533(4) 0.5395(2) 0.6945(2)
H12 H -0.0896 0.6007 0.6620
C14 C -0.1793(6) 0.4945(3) 0.6192(3)
H13 H -0.0864 0.4735 0.5966
H14 H -0.2267 0.5473 0.5637
H15 H -0.2413 0.4341 0.6495
C15 C -0.2971(5) 0.5771(4) 0.7263(3)
H16 H -0.3560 0.5172 0.7664
H17 H -0.3488 0.6211 0.6687
H18 H -0.2786 0.6170 0.7643
C16 C 0.2636(3) 0.4365(2) 0.9265(2)
H19 H 0.3235 0.4770 0.8660
C17 C 0.3554(4) 0.3410(3) 0.9872(3)
H20 H 0.3074 0.3058 1.0519
H21 H 0.4511 0.3633 0.9938
H22 H 0.3660 0.2934 0.9546
C18 C 0.2309(4) 0.5069(3) 0.9804(3)
H23 H 0.1822 0.5707 0.9376
H24 H 0.3215 0.5242 0.9996
H25 H 0.1679 0.4711 1.0387
C19 C 0.1409(2) 0.84726(16) 0.78175(16)
C20 C 0.2492(3) 0.8735(2) 0.82731(19)
H26 H 0.3421 0.8409 0.8318
C21 C 0.2217(3) 0.9472(2) 0.86615(19)
H27 H 0.2963 0.9651 0.8963
C22 C 0.0865(3) 0.9944(2) 0.8612(2)
H28 H 0.0678 1.0450 0.8874
C23 C -0.0214(3) 0.9669(2) 0.8173(2)
H29 H -0.1146 0.9987 0.8141
C24 C 0.0043(3) 0.8937(2) 0.7779(2)
H30 H -0.0710 0.8754 0.7486
C25 C 0.7350(2) 0.77495(16) 0.41608(16)
F1 F 0.82759(17) 0.72673(12) 0.28829(12)
C26 C 0.8518(3) 0.76516(18) 0.35559(19)
F2 F 1.09974(17) 0.78319(14) 0.29644(15)
C27 C 0.9922(3) 0.7941(2) 0.3581(2)
F3 F 1.15684(17) 0.86930(15) 0.42342(14)
C28 C 1.0213(3) 0.8366(2) 0.4224(2)
F4 F 0.93802(19) 0.89111(16) 0.54758(13)
C29 C 0.9108(3) 0.8497(2) 0.4839(2)
F5 F 0.66815(16) 0.83519(13) 0.54133(11)
C30 C 0.7713(3) 0.81894(19) 0.47972(17)
C31 C 0.5041(2) 0.81621(17) 0.30456(17)
F6 F 0.51320(18) 0.69339(12) 0.23215(12)
C32 C 0.4811(3) 0.79079(19) 0.22604(18)
F7 F 0.40591(19) 0.83100(14) 0.06602(11)
C33 C 0.4258(3) 0.8601(2) 0.13964(18)
F8 F 0.33841(18) 1.02993(13) 0.04387(11)
C34 C 0.3919(3) 0.9603(2) 0.12806(18)
F9 F 0.37616(18) 1.08867(11) 0.19401(13)
C35 C 0.4102(3) 0.99038(18) 0.20406(19)
F10 F 0.48032(16) 0.95007(10) 0.36262(11)
C36 C 0.4646(2) 0.91821(18) 0.28924(17)
loop_
_geom_bond_atom_site_label_1
_geom_bond_atom_site_label_2
_geom_bond_site_symmetry_1
_geom_bond_site_symmetry_2
N1 H1 1_555 1_555
C1 N1 1_555 1_555
B1 H2 1_555 1_555
N2 C3 1_555 1_555
C2 C1 1_555 1_555
N3 B1 1_555 1_555
C3 C2 1_555 1_555
C4 C1 1_555 1_555
H3 C4 1_555 1_555
H4 C4 1_555 1_555
H5 C4 1_555 1_555
C5 C2 1_555 1_555
C6 C3 1_555 1_555
H6 C6 1_555 1_555
H7 C6 1_555 1_555
H8 C6 1_555 1_555
C7 N1 1_555 1_555
C8 C7 1_555 1_555
C9 C8 1_555 1_555
H9 C9 1_555 1_555
C10 C9 1_555 1_555
H10 C10 1_555 1_555
C11 C10 1_555 1_555
H11 C11 1_555 1_555
C12 C7 1_555 1_555
C13 C8 1_555 1_555
H12 C13 1_555 1_555
C14 C13 1_555 1_555
H13 C14 1_555 1_555
H14 C14 1_555 1_555
H15 C14 1_555 1_555
C15 C13 1_555 1_555
H16 C15 1_555 1_555
H17 C15 1_555 1_555
H18 C15 1_555 1_555
C16 C12 1_555 1_555
H19 C16 1_555 1_555
C17 C16 1_555 1_555
H20 C17 1_555 1_555
H21 C17 1_555 1_555
H22 C17 1_555 1_555
C18 C16 1_555 1_555
H23 C18 1_555 1_555
H24 C18 1_555 1_555
H25 C18 1_555 1_555
C19 N2 1_555 1_555
C20 C19 1_555 1_555
H26 C20 1_555 1_555
C21 C20 1_555 1_555
H27 C21 1_555 1_555
C22 C21 1_555 1_555
H28 C22 1_555 1_555
C23 C22 1_555 1_555
H29 C23 1_555 1_555
C24 C19 1_555 1_555
H30 C24 1_555 1_555
C25 B1 1_555 1_555
F1 C26 1_555 1_555
C26 C25 1_555 1_555
F2 C27 1_555 1_555
C27 C26 1_555 1_555
F3 C28 1_555 1_555
C28 C27 1_555 1_555
F4 C29 1_555 1_555
C29 C28 1_555 1_555
F5 C30 1_555 1_555
C30 C25 1_555 1_555
C31 B1 1_555 1_555
F6 C32 1_555 1_555
C32 C31 1_555 1_555
F7 C33 1_555 1_555
C33 C32 1_555 1_555
F8 C34 1_555 1_555
C34 C33 1_555 1_555
F9 C35 1_555 1_555
C35 C34 1_555 1_555
F10 C36 1_555 1_555
C36 C31 1_555 1_555
N3 C5 1_555 1_555
C11 C12 1_555 1_555
C23 C24 1_555 1_555
C29 C30 1_555 1_555
C35 C36 1_555 1_555

#END
