
#######################################################################
#
#                 Cambridge Crystallographic Data Centre
#                                CCDC 
#
#######################################################################
#
# If this CIF has been generated from an entry in the Cambridge 
# Structural Database, then it will include bibliographic, chemical, 
# crystal, experimental, refinement or atomic coordinate data resulting 
# from the CCDC's data processing and validation procedures.
#
#######################################################################

data_DAMZIC
_chemical_formula_moiety         'C62 H33 B2 F20 N3 P2,C7 H8'
_chemical_name_systematic        
'(N-(diphenyl((N-(bis(pentafluorophenyl)boron)iminomethyl)(N,P,P-triphenylphosphorimidoyl)methylene)phosphoranyl)anilinato)-bis(pentafluorophenyl)-boron toluene solvate'
_symmetry_cell_setting           monoclinic
_symmetry_space_group_name_H-M   'P 21/n'
_symmetry_Int_Tables_number      14
_space_group_name_Hall           '-P 2yn'
loop_
_symmetry_equiv_pos_site_id
_symmetry_equiv_pos_as_xyz
1 x,y,z
2 1/2-x,1/2+y,1/2-z
3 -x,-y,-z
4 1/2+x,1/2-y,1/2+z
_cell_length_a                   14.8112(4)
_cell_length_b                   22.0942(6)
_cell_length_c                   19.1294(5)
_cell_angle_alpha                90
_cell_angle_beta                 105.550(2)
_cell_angle_gamma                90
_cell_volume                     6030.8
_exptl_crystal_colour            colorless
_exptl_crystal_description       block
_cell_formula_units_Z            4
loop_
_atom_site_label
_atom_site_type_symbol
_atom_site_fract_x
_atom_site_fract_y
_atom_site_fract_z
P1 P 0.98979(5) 0.31826(3) 0.21437(4)
P2 P 0.92344(5) 0.23232(3) 0.31795(4)
N1 N 1.04552(15) 0.25789(10) 0.20037(12)
N2 N 0.98136(15) 0.18298(10) 0.28334(12)
B1 B 1.0465(2) 0.19093(14) 0.23018(18)
C1 C 0.93420(18) 0.30387(12) 0.28259(15)
C2 C 0.88724(19) 0.35373(13) 0.30232(15)
H1 H 0.8886 0.3895 0.2760
N3 N 0.84212(16) 0.35717(11) 0.35199(13)
H2 H 0.8461 0.3260 0.3804
B2 B 0.7812(2) 0.41182(15) 0.36606(19)
H3 H 0.7796 0.4428 0.3284
C3 C 1.0702(2) 0.38090(13) 0.24479(16)
C4 C 1.0546(3) 0.43863(15) 0.2159(2)
H4 H 1.0016 0.4466 0.1772
C5 C 1.1174(3) 0.48474(18) 0.2442(2)
H5 H 1.1065 0.5239 0.2244
C6 C 1.1948(3) 0.47398(19) 0.3005(2)
H6 H 1.2376 0.5054 0.3185
C7 C 1.2099(2) 0.41734(17) 0.3307(2)
H7 H 1.2627 0.4100 0.3698
C8 C 1.1474(2) 0.37085(15) 0.30362(17)
H8 H 1.1572 0.3323 0.3252
C9 C 0.9054(2) 0.34583(13) 0.13352(16)
C10 C 0.9361(2) 0.37055(15) 0.07688(18)
H9 H 1.0005 0.3721 0.0803
C11 C 0.8724(3) 0.39284(18) 0.01578(19)
H10 H 0.8937 0.4093 -0.0223
C12 C 0.7783(3) 0.39105(18) 0.0104(2)
H11 H 0.7353 0.4071 -0.0308
C13 C 0.7466(3) 0.36588(19) 0.0651(2)
H12 H 0.6819 0.3643 0.0609
C14 C 0.8097(2) 0.34267(15) 0.12661(19)
H13 H 0.7877 0.3248 0.1635
C15 C 0.80028(19) 0.21241(12) 0.29660(16)
C16 C 0.7574(2) 0.19040(15) 0.22786(16)
H14 H 0.7924 0.1861 0.1938
C17 C 0.6633(2) 0.17474(17) 0.20888(19)
H15 H 0.6355 0.1579 0.1630
C18 C 0.6105(2) 0.18397(18) 0.2577(2)
H16 H 0.5464 0.1739 0.2446
C19 C 0.6509(2) 0.20743(17) 0.3242(2)
H17 H 0.6143 0.2145 0.3566
C20 C 0.7457(2) 0.22109(14) 0.34466(18)
H18 H 0.7733 0.2363 0.3914
C21 C 0.9625(2) 0.23446(13) 0.41591(16)
C22 C 0.9355(2) 0.18936(15) 0.45788(18)
H19 H 0.8919 0.1597 0.4354
C23 C 0.9727(3) 0.18858(18) 0.53189(19)
H20 H 0.9537 0.1587 0.5600
C24 C 1.0377(3) 0.2315(2) 0.56493(19)
H21 H 1.0637 0.2304 0.6155
C25 C 1.0650(3) 0.27615(18) 0.52407(18)
H22 H 1.1095 0.3052 0.5469
C26 C 1.0271(2) 0.27807(14) 0.44994(17)
H23 H 1.0449 0.3088 0.4224
C27 C 1.1026(2) 0.26693(13) 0.14906(16)
C28 C 1.1953(2) 0.28526(14) 0.17446(18)
H24 H 1.2204 0.2943 0.2239
C29 C 1.2508(3) 0.29020(18) 0.1265(2)
H25 H 1.3140 0.3018 0.1439
C30 C 1.2147(3) 0.2784(2) 0.0547(2)
H26 H 1.2528 0.2817 0.0226
C31 C 1.1216(3) 0.26140(19) 0.0288(2)
H27 H 1.0962 0.2540 -0.0210
C32 C 1.0660(2) 0.25539(15) 0.07619(17)
H28 H 1.0031 0.2434 0.0586
C33 C 0.9772(2) 0.12185(13) 0.31113(17)
C34 C 0.9102(2) 0.08084(14) 0.27411(19)
H29 H 0.8670 0.0923 0.2305
C35 C 0.9068(3) 0.02306(16) 0.3014(2)
H30 H 0.8616 -0.0047 0.2761
C36 C 0.9698(3) 0.00613(18) 0.3659(3)
H31 H 0.9675 -0.0332 0.3842
C37 C 1.0360(3) 0.04670(18) 0.4035(3)
H32 H 1.0780 0.0354 0.4478
C38 C 1.0403(2) 0.10442(15) 0.37547(19)
H33 H 1.0863 0.1318 0.4004
C39 C 1.1598(2) 0.17993(13) 0.27116(18)
C40 C 1.2250(2) 0.15809(14) 0.2366(2)
F1 F 1.19783(14) 0.13818(9) 0.16765(12)
C41 C 1.3207(2) 0.15866(17) 0.2676(2)
F2 F 1.37867(15) 0.13687(12) 0.22983(17)
C42 C 1.3568(2) 0.18274(19) 0.3348(3)
F3 F 1.44995(14) 0.18453(14) 0.36443(16)
C43 C 1.2969(2) 0.20718(16) 0.3710(2)
F4 F 1.33072(14) 0.23382(11) 0.43552(12)
C44 C 1.2018(2) 0.20419(14) 0.33877(18)
F5 F 1.14864(12) 0.23085(8) 0.37738(10)
C45 C 1.0021(2) 0.14192(14) 0.16489(17)
C46 C 0.9216(2) 0.15503(16) 0.10943(17)
F6 F 0.87997(12) 0.20971(9) 0.10667(10)
C47 C 0.8778(3) 0.1150(2) 0.0563(2)
F7 F 0.80138(19) 0.13192(13) 0.00442(13)
C48 C 0.9119(4) 0.0577(2) 0.0557(3)
F8 F 0.8715(3) 0.01817(14) 0.00388(16)
C49 C 0.9894(4) 0.04129(16) 0.1098(3)
F9 F 1.0248(2) -0.01530(11) 0.11319(19)
C50 C 1.0313(3) 0.08233(15) 0.1640(2)
F10 F 1.10163(16) 0.06053(9) 0.21875(14)
C51 C 0.8316(2) 0.44147(14) 0.44465(17)
C52 C 0.8738(2) 0.40806(17) 0.50462(19)
F11 F 0.86365(17) 0.34681(10) 0.50207(11)
C53 C 0.9279(3) 0.4322(2) 0.5695(2)
F12 F 0.97026(19) 0.39617(17) 0.62445(13)
C54 C 0.9375(3) 0.4943(3) 0.5744(3)
F13 F 0.99172(19) 0.51889(19) 0.63550(16)
C55 C 0.8937(3) 0.5296(2) 0.5175(3)
F14 F 0.9040(2) 0.59023(13) 0.52323(19)
C56 C 0.8431(2) 0.50367(16) 0.4544(2)
F15 F 0.80269(19) 0.54169(9) 0.39984(14)
C57 C 0.6745(2) 0.38649(13) 0.35504(17)
C58 C 0.6223(2) 0.37019(14) 0.28667(17)
F16 F 0.66061(13) 0.37442(10) 0.22978(10)
C59 C 0.5313(2) 0.34981(17) 0.27037(19)
F17 F 0.48456(15) 0.33571(14) 0.20142(12)
C60 C 0.4878(2) 0.34412(16) 0.3251(2)
F18 F 0.39841(15) 0.32434(12) 0.31022(14)
C61 C 0.5357(2) 0.35843(15) 0.3942(2)
F19 F 0.49301(15) 0.35380(11) 0.44751(12)
C62 C 0.6272(2) 0.37881(14) 0.40865(17)
F20 F 0.66935(14) 0.39190(10) 0.47802(10)
C63 C 1.2217(3) -0.0584(2) 0.5057(4)
H34 H 1.1565 -0.0611 0.4860
C64 C 1.2596(5) -0.0577(2) 0.5805(3)
H35 H 1.2199 -0.0600 0.6114
C65 C 1.3560(5) -0.0536(2) 0.6096(3)
H36 H 1.3816 -0.0532 0.6602
C66 C 1.4146(3) -0.0502(2) 0.5638(4)
H37 H 1.4798 -0.0474 0.5835
C67 C 1.3768(4) -0.0508(2) 0.4890(4)
H38 H 1.4164 -0.0485 0.4581
C68 C 1.2803(4) -0.0549(2) 0.4600(3)
C69 C 1.2288(9) -0.0475(5) 0.3816(6)
H39 H 1.1622 -0.0527 0.3757
H40 H 1.2506 -0.0776 0.3530
H41 H 1.2404 -0.0073 0.3654
loop_
_geom_bond_atom_site_label_1
_geom_bond_atom_site_label_2
_geom_bond_site_symmetry_1
_geom_bond_site_symmetry_2
P1 N1 1_555 1_555
P2 N2 1_555 1_555
N1 B1 1_555 1_555
N2 B1 1_555 1_555
B1 C39 1_555 1_555
C1 P1 1_555 1_555
C2 C1 1_555 1_555
H1 C2 1_555 1_555
N3 C2 1_555 1_555
H2 N3 1_555 1_555
B2 N3 1_555 1_555
H3 B2 1_555 1_555
C3 P1 1_555 1_555
C4 C3 1_555 1_555
H4 C4 1_555 1_555
C5 C4 1_555 1_555
H5 C5 1_555 1_555
C6 C5 1_555 1_555
H6 C6 1_555 1_555
C7 C6 1_555 1_555
H7 C7 1_555 1_555
C8 C3 1_555 1_555
H8 C8 1_555 1_555
C9 P1 1_555 1_555
C10 C9 1_555 1_555
H9 C10 1_555 1_555
C11 C10 1_555 1_555
H10 C11 1_555 1_555
C12 C11 1_555 1_555
H11 C12 1_555 1_555
C13 C12 1_555 1_555
H12 C13 1_555 1_555
C14 C9 1_555 1_555
H13 C14 1_555 1_555
C15 P2 1_555 1_555
C16 C15 1_555 1_555
H14 C16 1_555 1_555
C17 C16 1_555 1_555
H15 C17 1_555 1_555
C18 C17 1_555 1_555
H16 C18 1_555 1_555
C19 C18 1_555 1_555
H17 C19 1_555 1_555
C20 C15 1_555 1_555
H18 C20 1_555 1_555
C21 P2 1_555 1_555
C22 C21 1_555 1_555
H19 C22 1_555 1_555
C23 C22 1_555 1_555
H20 C23 1_555 1_555
C24 C23 1_555 1_555
H21 C24 1_555 1_555
C25 C24 1_555 1_555
H22 C25 1_555 1_555
C26 C21 1_555 1_555
H23 C26 1_555 1_555
C27 N1 1_555 1_555
C28 C27 1_555 1_555
H24 C28 1_555 1_555
C29 C28 1_555 1_555
H25 C29 1_555 1_555
C30 C29 1_555 1_555
H26 C30 1_555 1_555
C31 C30 1_555 1_555
H27 C31 1_555 1_555
C32 C27 1_555 1_555
H28 C32 1_555 1_555
C33 N2 1_555 1_555
C34 C33 1_555 1_555
H29 C34 1_555 1_555
C35 C34 1_555 1_555
H30 C35 1_555 1_555
C36 C35 1_555 1_555
H31 C36 1_555 1_555
C37 C36 1_555 1_555
H32 C37 1_555 1_555
C38 C33 1_555 1_555
H33 C38 1_555 1_555
C39 C40 1_555 1_555
C40 F1 1_555 1_555
C41 C40 1_555 1_555
F2 C41 1_555 1_555
C42 C41 1_555 1_555
F3 C42 1_555 1_555
C43 C42 1_555 1_555
F4 C43 1_555 1_555
C44 C39 1_555 1_555
F5 C44 1_555 1_555
C45 B1 1_555 1_555
C46 C45 1_555 1_555
F6 C46 1_555 1_555
C47 C46 1_555 1_555
F7 C47 1_555 1_555
C48 C47 1_555 1_555
F8 C48 1_555 1_555
C49 C48 1_555 1_555
F9 C49 1_555 1_555
C50 C45 1_555 1_555
F10 C50 1_555 1_555
C51 B2 1_555 1_555
C52 C51 1_555 1_555
F11 C52 1_555 1_555
C53 C52 1_555 1_555
F12 C53 1_555 1_555
C54 C53 1_555 1_555
F13 C54 1_555 1_555
C55 C54 1_555 1_555
F14 C55 1_555 1_555
C56 C51 1_555 1_555
F15 C56 1_555 1_555
C57 B2 1_555 1_555
C58 C57 1_555 1_555
F16 C58 1_555 1_555
C59 C58 1_555 1_555
F17 C59 1_555 1_555
C60 C59 1_555 1_555
F18 C60 1_555 1_555
C61 C60 1_555 1_555
F19 C61 1_555 1_555
C62 C57 1_555 1_555
F20 C62 1_555 1_555
C63 H34 1_555 1_555
C64 C63 1_555 1_555
H35 C64 1_555 1_555
C65 C64 1_555 1_555
H36 C65 1_555 1_555
C66 C65 1_555 1_555
H37 C66 1_555 1_555
C67 C66 1_555 1_555
H38 C67 1_555 1_555
C68 C63 1_555 1_555
C69 C68 1_555 1_555
H39 C69 1_555 1_555
H40 C69 1_555 1_555
H41 C69 1_555 1_555
P2 C1 1_555 1_555
C7 C8 1_555 1_555
C13 C14 1_555 1_555
C19 C20 1_555 1_555
C25 C26 1_555 1_555
C31 C32 1_555 1_555
C37 C38 1_555 1_555
C43 C44 1_555 1_555
C49 C50 1_555 1_555
C55 C56 1_555 1_555
C61 C62 1_555 1_555
C67 C68 1_555 1_555

#END
