
#######################################################################
#
#                 Cambridge Crystallographic Data Centre
#                                CCDC 
#
#######################################################################
#
# If this CIF has been generated from an entry in the Cambridge 
# Structural Database, then it will include bibliographic, chemical, 
# crystal, experimental, refinement or atomic coordinate data resulting 
# from the CCDC's data processing and validation procedures.
#
#######################################################################

data_DANHUW
_chemical_formula_moiety         'C21 H18 N2 O2'
_chemical_name_systematic        
5-Methoxy-3,4,5-triphenyl-4,5-dihydro-1,2,4-oxadiazole
_symmetry_cell_setting           orthorhombic
_symmetry_space_group_name_H-M   'P b c a'
_symmetry_Int_Tables_number      61
_space_group_name_Hall           '-P 2ac 2ab'
loop_
_symmetry_equiv_pos_site_id
_symmetry_equiv_pos_as_xyz
1 x,y,z
2 1/2+x,y,1/2-z
3 x,1/2-y,1/2+z
4 1/2-x,1/2+y,z
5 -x,-y,-z
6 1/2-x,-y,1/2+z
7 -x,1/2+y,1/2-z
8 1/2+x,1/2-y,-z
_cell_length_a                   8.1642(6)
_cell_length_b                   12.3137(9)
_cell_length_c                   34.292(3)
_cell_angle_alpha                90
_cell_angle_beta                 90
_cell_angle_gamma                90
_cell_volume                     3447.43
_exptl_crystal_colour            colorless
_exptl_crystal_description       prism
_chemical_melting_point          398-400K
_cell_formula_units_Z            8
_exptl_crystal_recrystallization_method hexane
loop_
_atom_site_label
_atom_site_type_symbol
_atom_site_fract_x
_atom_site_fract_y
_atom_site_fract_z
O1 O 0.30750(14) 0.25807(9) 0.12648(3)
O2 O 0.17545(12) 0.42572(11) 0.12964(3)
N1 N 0.46250(14) 0.40507(10) 0.11860(3)
N2 N 0.4170(2) 0.23996(11) 0.09440(4)
C1 C 0.5052(2) 0.32641(11) 0.09240(4)
C2 C 0.3168(2) 0.36774(13) 0.13955(4)
C3 C 0.1406(2) 0.4322(2) 0.08889(5)
H1 H 0.0421(2) 0.4732(2) 0.08497(5)
H2 H 0.1266(2) 0.3603(2) 0.07857(5)
H3 H 0.2299(2) 0.4673(2) 0.07575(5)
C4 C 0.6297(2) 0.34010(12) 0.06162(4)
C5 C 0.6443(2) 0.43754(14) 0.04193(4)
H4 H 0.5792(2) 0.49631(14) 0.04899(4)
C6 C 0.7554(3) 0.4478(2) 0.01183(5)
H5 H 0.7652(3) 0.5136(2) -0.00129(5)
C7 C 0.8514(2) 0.3612(2) 0.00119(5)
H6 H 0.9247(2) 0.3679(2) -0.01944(5)
C8 C 0.8392(2) 0.2646(2) 0.02101(6)
H7 H 0.9059(2) 0.2065(2) 0.01404(6)
C9 C 0.7285(2) 0.25312(13) 0.05130(5)
H8 H 0.7204(2) 0.18756(13) 0.06462(5)
C10 C 0.5578(2) 0.49579(11) 0.13047(3)
C11 C 0.7239(2) 0.48414(12) 0.13797(4)
H9 H 0.7745(2) 0.41714(12) 0.13461(4)
C12 C 0.8136(2) 0.57287(13) 0.15051(4)
H10 H 0.9254(2) 0.56582(13) 0.15509(4)
C13 C 0.7381(2) 0.67143(13) 0.15620(4)
H11 H 0.7981(2) 0.73036(13) 0.16532(4)
C14 C 0.5737(2) 0.68289(13) 0.14841(5)
H12 H 0.5230(2) 0.74968(13) 0.15221(5)
C15 C 0.4839(2) 0.59570(12) 0.13499(5)
H13 H 0.3736(2) 0.60428(12) 0.12900(5)
C16 C 0.3309(2) 0.37109(13) 0.18352(4)
C17 C 0.2859(2) 0.4624(2) 0.20427(5)
H14 H 0.2415(2) 0.5219(2) 0.19133(5)
C18 C 0.3069(3) 0.4655(2) 0.24448(6)
H15 H 0.2769(3) 0.5274(2) 0.25828(6)
C19 C 0.3712(3) 0.3786(2) 0.26392(5)
H16 H 0.3855(3) 0.3815(2) 0.29081(5)
C20 C 0.4145(3) 0.2873(2) 0.24366(6)
H17 H 0.4575(3) 0.2277(2) 0.25682(6)
C21 C 0.3944(2) 0.2834(2) 0.20356(5)
H18 H 0.4240(2) 0.2211(2) 0.18999(5)
loop_
_geom_bond_atom_site_label_1
_geom_bond_atom_site_label_2
_geom_bond_site_symmetry_1
_geom_bond_site_symmetry_2
O1 N2 1_555 1_555
O2 C2 1_555 1_555
N1 C1 1_555 1_555
N2 C1 1_555 1_555
C1 C4 1_555 1_555
C2 O1 1_555 1_555
C3 O2 1_555 1_555
H1 C3 1_555 1_555
H2 C3 1_555 1_555
H3 C3 1_555 1_555
C4 C5 1_555 1_555
C5 H4 1_555 1_555
C6 C5 1_555 1_555
H5 C6 1_555 1_555
C7 C6 1_555 1_555
H6 C7 1_555 1_555
C8 C7 1_555 1_555
H7 C8 1_555 1_555
C9 C4 1_555 1_555
H8 C9 1_555 1_555
C10 N1 1_555 1_555
C11 C10 1_555 1_555
H9 C11 1_555 1_555
C12 C11 1_555 1_555
H10 C12 1_555 1_555
C13 C12 1_555 1_555
H11 C13 1_555 1_555
C14 C13 1_555 1_555
H12 C14 1_555 1_555
C15 C10 1_555 1_555
H13 C15 1_555 1_555
C16 C2 1_555 1_555
C17 C16 1_555 1_555
H14 C17 1_555 1_555
C18 C17 1_555 1_555
H15 C18 1_555 1_555
C19 C18 1_555 1_555
H16 C19 1_555 1_555
C20 C19 1_555 1_555
H17 C20 1_555 1_555
C21 C16 1_555 1_555
H18 C21 1_555 1_555
N1 C2 1_555 1_555
C8 C9 1_555 1_555
C14 C15 1_555 1_555
C20 C21 1_555 1_555

#END
