
#######################################################################
#
#                 Cambridge Crystallographic Data Centre
#                                CCDC 
#
#######################################################################
#
# If this CIF has been generated from an entry in the Cambridge 
# Structural Database, then it will include bibliographic, chemical, 
# crystal, experimental, refinement or atomic coordinate data resulting 
# from the CCDC's data processing and validation procedures.
#
#######################################################################

data_DANJUA
_chemical_formula_moiety         'C26 H26 N2 O2'
_chemical_name_systematic        
2-butyl-6-(2-(4-(dimethylamino)phenyl)vinyl)-1H-benzo[de]isoquinoline-1,3(2H)-dione
_symmetry_cell_setting           triclinic
_symmetry_space_group_name_H-M   'P -1'
_symmetry_Int_Tables_number      2
_space_group_name_Hall           '-P 1'
loop_
_symmetry_equiv_pos_site_id
_symmetry_equiv_pos_as_xyz
1 x,y,z
2 -x,-y,-z
_cell_length_a                   7.4660(13)
_cell_length_b                   13.752(2)
_cell_length_c                   20.182(3)
_cell_angle_alpha                82.470(4)
_cell_angle_beta                 84.186(4)
_cell_angle_gamma                89.182(4)
_cell_volume                     2043.7
_exptl_crystal_colour            red
_exptl_crystal_description       plate
_cell_formula_units_Z            4
loop_
_atom_site_label
_atom_site_type_symbol
_atom_site_fract_x
_atom_site_fract_y
_atom_site_fract_z
O1 O 0.9597(2) 0.22232(11) 0.31180(7)
O2 O 0.8090(2) 0.54048(11) 0.32807(8)
N1 N 0.8780(2) 0.38053(12) 0.32037(8)
N2 N 0.5820(2) 0.31315(13) -0.30088(9)
C1 C 1.2557(4) 0.40005(19) 0.51054(13)
H1 H 1.2638 0.3760 0.5580
H2 H 1.2561 0.4719 0.5042
H3 H 1.3589 0.3759 0.4833
C2 C 1.0816(3) 0.36317(17) 0.48885(11)
H4 H 1.0812 0.2906 0.4961
H5 H 0.9781 0.3862 0.5174
C3 C 1.0584(3) 0.39805(16) 0.41563(10)
H6 H 1.0608 0.4706 0.4083
H7 H 1.1611 0.3742 0.3871
C4 C 0.8845(3) 0.36305(16) 0.39389(10)
H8 H 0.8706 0.2919 0.4093
H9 H 0.7820 0.3973 0.4159
C5 C 0.9111(3) 0.30141(15) 0.28421(10)
C6 C 0.8846(3) 0.31812(15) 0.21199(10)
C7 C 0.8446(3) 0.41269(15) 0.18067(10)
C8 C 0.8184(3) 0.49166(15) 0.21935(10)
C9 C 0.8337(3) 0.47518(16) 0.29262(11)
C10 C 0.8973(3) 0.24002(15) 0.17521(10)
H10 H 0.9241 0.1763 0.1963
C11 C 0.8708(3) 0.25432(15) 0.10707(10)
H11 H 0.8765 0.1992 0.0830
C12 C 0.8365(3) 0.34591(15) 0.07324(10)
C13 C 0.8231(3) 0.42832(15) 0.11086(10)
C14 C 0.7776(3) 0.52383(15) 0.08280(11)
H12 H 0.7632 0.5361 0.0362
C15 C 0.7534(3) 0.59955(15) 0.12098(11)
H13 H 0.7231 0.6631 0.1007
C16 C 0.7734(3) 0.58315(15) 0.18994(11)
H14 H 0.7558 0.6355 0.2163
C17 C 0.8097(3) 0.35851(15) 0.00154(10)
H15 H 0.8484 0.4182 -0.0249
C18 C 0.7339(3) 0.29094(15) -0.02892(11)
H16 H 0.6976 0.2317 -0.0015
C19 C 0.7007(3) 0.29795(15) -0.09951(10)
C20 C 0.6010(3) 0.22477(15) -0.12135(10)
H17 H 0.5591 0.1705 -0.0898
C21 C 0.5613(3) 0.22851(15) -0.18688(10)
H18 H 0.4922 0.1776 -0.1993
C22 C 0.6224(3) 0.30724(15) -0.23567(10)
C23 C 0.7273(3) 0.38023(15) -0.21443(10)
H19 H 0.7732 0.4335 -0.2461
C24 C 0.7638(3) 0.37491(15) -0.14817(10)
H20 H 0.8339 0.4251 -0.1354
C25 C 0.4827(3) 0.23568(17) -0.32276(11)
H21 H 0.3639 0.2291 -0.2970
H22 H 0.5487 0.1737 -0.3154
H23 H 0.4680 0.2517 -0.3707
C26 C 0.6452(3) 0.39576(17) -0.34953(11)
H24 H 0.6037 0.4570 -0.3331
H25 H 0.5975 0.3909 -0.3925
H26 H 0.7771 0.3951 -0.3559
O3 O 0.3127(2) 0.02158(11) 0.33491(8)
O4 O 0.4618(2) 0.34459(11) 0.31232(7)
N3 N 0.3789(2) 0.18407(13) 0.32431(9)
N4 N 0.0881(2) 0.10670(13) -0.29529(9)
C27 C 0.7695(4) 0.0988(2) 0.51122(13)
H27 H 0.7831 0.1079 0.5578
H28 H 0.8693 0.1311 0.4815
H29 H 0.7706 0.0286 0.5071
C28 C 0.5916(3) 0.14358(18) 0.49131(11)
H30 H 0.4912 0.1110 0.5216
H31 H 0.5894 0.2140 0.4970
C29 C 0.5638(3) 0.13292(16) 0.41889(11)
H32 H 0.6642 0.1658 0.3888
H33 H 0.5676 0.0624 0.4133
C30 C 0.3870(3) 0.17614(17) 0.39761(10)
H34 H 0.2865 0.1344 0.4206
H35 H 0.3710 0.2421 0.4119
C31 C 0.3352(3) 0.09893(16) 0.29811(11)
C32 C 0.3178(3) 0.10865(15) 0.22541(10)
C33 C 0.3425(3) 0.20027(15) 0.18485(10)
C34 C 0.3873(3) 0.28392(15) 0.21399(10)
C35 C 0.4141(3) 0.27483(15) 0.28631(11)
C36 C 0.2718(3) 0.02755(15) 0.19714(11)
H36 H 0.2573 -0.0343 0.2242
C37 C 0.2463(3) 0.03597(15) 0.12856(10)
H37 H 0.2135 -0.0206 0.1101
C38 C 0.2676(3) 0.12434(15) 0.08715(10)
C39 C 0.3179(3) 0.20948(15) 0.11535(10)
C40 C 0.3409(3) 0.30376(15) 0.07756(11)
H38 H 0.3278 0.3116 0.0308
C41 C 0.3816(3) 0.38373(15) 0.10710(11)
H39 H 0.3938 0.4463 0.0809
C42 C 0.4053(3) 0.37406(15) 0.17560(11)
H40 H 0.4340 0.4300 0.1956
C43 C 0.2300(3) 0.13280(15) 0.01670(10)
H41 H 0.1921 0.1953 -0.0030
C44 C 0.2438(3) 0.06138(15) -0.02276(11)
H42 H 0.2862 -0.0008 -0.0043
C45 C 0.1985(3) 0.07179(15) -0.09216(10)
C46 C 0.2652(3) 0.00597(15) -0.13622(10)
H43 H 0.3361 -0.0480 -0.1197
C47 C 0.2313(3) 0.01702(15) -0.20277(11)
H44 H 0.2804 -0.0288 -0.2310
C48 C 0.1250(3) 0.09506(15) -0.22945(11)
C49 C 0.0567(3) 0.16147(15) -0.18540(10)
H45 H -0.0152 0.2152 -0.2016
C50 C 0.0930(3) 0.14931(15) -0.11931(10)
H46 H 0.0447 0.1952 -0.0910
C51 C 0.1584(3) 0.03639(17) -0.33943(11)
H47 H 0.1129 -0.0292 -0.3213
H48 H 0.2902 0.0361 -0.3424
H49 H 0.1194 0.0550 -0.3843
C52 C -0.0093(3) 0.19146(17) -0.32303(11)
H50 H 0.0504 0.2513 -0.3152
H51 H -0.1329 0.1898 -0.3013
H52 H -0.0115 0.1908 -0.3714
loop_
_geom_bond_atom_site_label_1
_geom_bond_atom_site_label_2
_geom_bond_site_symmetry_1
_geom_bond_site_symmetry_2
O1 C5 1_555 1_555
O2 C9 1_555 1_555
N1 C4 1_555 1_555
N2 C22 1_555 1_555
C1 H1 1_555 1_555
H2 C1 1_555 1_555
H3 C1 1_555 1_555
C2 C1 1_555 1_555
H4 C2 1_555 1_555
H5 C2 1_555 1_555
C3 C2 1_555 1_555
H6 C3 1_555 1_555
H7 C3 1_555 1_555
C4 C3 1_555 1_555
H8 C4 1_555 1_555
H9 C4 1_555 1_555
C5 N1 1_555 1_555
C6 C5 1_555 1_555
C7 C6 1_555 1_555
C8 C7 1_555 1_555
C9 N1 1_555 1_555
C10 C6 1_555 1_555
H10 C10 1_555 1_555
C11 C10 1_555 1_555
H11 C11 1_555 1_555
C12 C11 1_555 1_555
C13 C7 1_555 1_555
C14 C13 1_555 1_555
H12 C14 1_555 1_555
C15 C14 1_555 1_555
H13 C15 1_555 1_555
C16 C8 1_555 1_555
H14 C16 1_555 1_555
C17 C12 1_555 1_555
H15 C17 1_555 1_555
C18 C17 1_555 1_555
H16 C18 1_555 1_555
C19 C18 1_555 1_555
C20 C19 1_555 1_555
H17 C20 1_555 1_555
C21 C20 1_555 1_555
H18 C21 1_555 1_555
C22 C21 1_555 1_555
C23 C22 1_555 1_555
H19 C23 1_555 1_555
C24 C19 1_555 1_555
H20 C24 1_555 1_555
C25 N2 1_555 1_555
H21 C25 1_555 1_555
H22 C25 1_555 1_555
H23 C25 1_555 1_555
C26 N2 1_555 1_555
H24 C26 1_555 1_555
H25 C26 1_555 1_555
H26 C26 1_555 1_555
O3 C31 1_555 1_555
O4 C35 1_555 1_555
N3 C30 1_555 1_555
N4 C48 1_555 1_555
C27 H27 1_555 1_555
H28 C27 1_555 1_555
H29 C27 1_555 1_555
C28 C27 1_555 1_555
H30 C28 1_555 1_555
H31 C28 1_555 1_555
C29 C28 1_555 1_555
H32 C29 1_555 1_555
H33 C29 1_555 1_555
C30 C29 1_555 1_555
H34 C30 1_555 1_555
H35 C30 1_555 1_555
C31 N3 1_555 1_555
C32 C31 1_555 1_555
C33 C32 1_555 1_555
C34 C33 1_555 1_555
C35 N3 1_555 1_555
C36 C32 1_555 1_555
H36 C36 1_555 1_555
C37 C36 1_555 1_555
H37 C37 1_555 1_555
C38 C37 1_555 1_555
C39 C33 1_555 1_555
C40 C39 1_555 1_555
H38 C40 1_555 1_555
C41 C40 1_555 1_555
H39 C41 1_555 1_555
C42 C34 1_555 1_555
H40 C42 1_555 1_555
C43 C38 1_555 1_555
H41 C43 1_555 1_555
C44 C43 1_555 1_555
H42 C44 1_555 1_555
C45 C44 1_555 1_555
C46 C45 1_555 1_555
H43 C46 1_555 1_555
C47 C46 1_555 1_555
H44 C47 1_555 1_555
C48 C47 1_555 1_555
C49 C48 1_555 1_555
H45 C49 1_555 1_555
C50 C45 1_555 1_555
H46 C50 1_555 1_555
C51 N4 1_555 1_555
H47 C51 1_555 1_555
H48 C51 1_555 1_555
H49 C51 1_555 1_555
C52 N4 1_555 1_555
H50 C52 1_555 1_555
H51 C52 1_555 1_555
H52 C52 1_555 1_555
C8 C9 1_555 1_555
C12 C13 1_555 1_555
C15 C16 1_555 1_555
C23 C24 1_555 1_555
C34 C35 1_555 1_555
C38 C39 1_555 1_555
C41 C42 1_555 1_555
C49 C50 1_555 1_555

#END
