
#######################################################################
#
#                 Cambridge Crystallographic Data Centre
#                                CCDC 
#
#######################################################################
#
# If this CIF has been generated from an entry in the Cambridge 
# Structural Database, then it will include bibliographic, chemical, 
# crystal, experimental, refinement or atomic coordinate data resulting 
# from the CCDC's data processing and validation procedures.
#
#######################################################################

data_DANKIN
_chemical_formula_moiety         'C27 H32 N1 O5 S1 1+,Cl1 O4 1-,C6 H6'
_chemical_name_systematic        
'(E,E)-19-(4-(N-Ethyl-benzothiazolium)-buta-1,3-dienyl)-2,3,5,6,9,10-hexahydro-8H-1,4,7,10-benzotetraoxacyclopentadecine perchlorate benzene solvate'
_symmetry_cell_setting           triclinic
_symmetry_space_group_name_H-M   'P -1'
_symmetry_Int_Tables_number      2
_space_group_name_Hall           '-P 1'
loop_
_symmetry_equiv_pos_site_id
_symmetry_equiv_pos_as_xyz
1 x,y,z
2 -x,-y,-z
_cell_length_a                   8.4700(2)
_cell_length_b                   10.6404(2)
_cell_length_c                   18.8191(5)
_cell_angle_alpha                78.967(1)
_cell_angle_beta                 86.544(1)
_cell_angle_gamma                76.110(1)
_cell_volume                     1615.85
_cell_formula_units_Z            2
_chemical_properties_physical    Air-sensitive
_exptl_crystal_recrystallization_method benzene/acetonitrile
loop_
_atom_site_label
_atom_site_type_symbol
_atom_site_fract_x
_atom_site_fract_y
_atom_site_fract_z
S1 S 0.09528(5) 0.06502(4) 0.36999(2)
O1 O 0.66396(15) -0.01540(11) 0.82164(6)
O2 O 0.65391(15) -0.18649(12) 0.94950(6)
O3 O 0.80685(16) -0.08669(13) 1.05854(7)
O4 O 0.71667(18) 0.26766(13) 0.98931(7)
O5 O 0.66806(15) 0.21390(11) 0.84591(6)
N1 N 0.18847(16) -0.18399(13) 0.41259(7)
C1 C 0.6300(3) -0.14100(16) 0.82200(10)
C2 C 0.7164(3) -0.23358(17) 0.88576(10)
C3 C 0.7319(3) -0.2652(2) 1.01311(11)
C4 C 0.7113(3) -0.1826(2) 1.07141(10)
C5 C 0.7359(3) 0.03234(19) 1.00946(11)
C6 C 0.7935(3) 0.1430(2) 1.03101(11)
C7 C 0.7974(2) 0.30804(19) 0.92354(10)
C8 C 0.6847(2) 0.33805(17) 0.85991(10)
C9 C 0.5840(2) 0.21488(16) 0.78604(8)
C10 C 0.5819(2) 0.08843(15) 0.77286(8)
C11 C 0.5021(2) 0.07732(15) 0.71327(8)
C12 C 0.42107(19) 0.19054(15) 0.66536(8)
C13 C 0.4224(2) 0.31409(16) 0.67990(9)
C14 C 0.5038(2) 0.32631(16) 0.73983(9)
C15 C 0.3389(2) 0.18002(16) 0.60150(9)
C16 C 0.3353(2) 0.06583(17) 0.58082(9)
C17 C 0.2599(2) 0.05845(16) 0.51636(9)
C18 C 0.2665(2) -0.05846(17) 0.49590(9)
C19 C 0.19294(19) -0.06922(15) 0.43155(9)
C20 C 0.09917(19) -0.16965(16) 0.34999(9)
C21 C 0.0398(2) -0.03742(16) 0.31882(9)
C22 C -0.0496(2) -0.00129(18) 0.25541(10)
C23 C -0.0814(2) -0.1011(2) 0.22524(10)
C24 C -0.0261(2) -0.2337(2) 0.25743(10)
C25 C 0.0658(2) -0.27059(18) 0.31957(10)
C26 C 0.2678(2) -0.31552(16) 0.45358(10)
C27 C 0.1528(3) -0.36868(19) 0.50990(11)
H1 H 0.676(3) -0.176(2) 0.7793(11)
H2 H 0.511(3) -0.131(2) 0.8260(11)
H3 H 0.695(3) -0.323(2) 0.8863(11)
H4 H 0.830(3) -0.235(2) 0.8826(11)
H5 H 0.852(3) -0.298(2) 1.0020(11)
H6 H 0.689(3) -0.339(2) 1.0269(12)
H7 H 0.594(3) -0.137(2) 1.0781(12)
H8 H 0.751(3) -0.241(2) 1.1162(12)
H9 H 0.619(3) 0.051(2) 1.0149(12)
H10 H 0.772(3) 0.024(2) 0.9609(13)
H11 H 0.762(3) 0.149(2) 1.0829(13)
H12 H 0.913(3) 0.132(2) 1.0277(12)
H13 H 0.897(3) 0.239(2) 0.9140(10)
H14 H 0.822(3) 0.390(2) 0.9275(11)
H15 H 0.584(3) 0.387(2) 0.8716(10)
H16 H 0.733(2) 0.3844(18) 0.8179(10)
H17 H 0.499(2) -0.0071(19) 0.7048(10)
H18 H 0.365(2) 0.390(2) 0.6485(10)
H19 H 0.504(2) 0.412(2) 0.7466(10)
H20 H 0.284(2) 0.259(2) 0.5734(10)
H21 H 0.386(2) -0.012(2) 0.6054(11)
H22 H 0.207(3) 0.136(2) 0.4879(11)
H23 H 0.320(3) -0.136(2) 0.5235(11)
H24 H -0.080(3) 0.089(2) 0.2328(11)
H25 H -0.144(2) -0.0777(19) 0.1807(11)
H26 H -0.054(2) -0.301(2) 0.2358(10)
H27 H 0.109(3) -0.363(2) 0.3377(12)
H28 H 0.362(2) -0.3073(18) 0.4759(10)
H29 H 0.306(2) -0.3720(19) 0.4195(10)
H30 H 0.212(3) -0.454(2) 0.5353(13)
H31 H 0.056(3) -0.375(2) 0.4884(11)
H32 H 0.119(3) -0.311(2) 0.5470(12)
Cl1 Cl 0.34071(5) 0.34952(4) 0.37269(2)
O6 O 0.40041(18) 0.21395(12) 0.36606(8)
O7 O 0.30723(19) 0.42878(15) 0.30210(8)
O8 O 0.19258(16) 0.36406(14) 0.41560(7)
O9 O 0.46143(18) 0.39158(16) 0.40688(9)
C28 C 0.6793(3) -0.6608(2) 1.22311(13)
C29 C 0.7659(3) -0.65820(19) 1.28261(12)
C30 C 0.9077(2) -0.61437(18) 1.27316(11)
C31 C 0.9639(3) -0.5727(2) 1.20432(13)
C32 C 0.8769(3) -0.5751(2) 1.14471(13)
C33 C 0.7349(3) -0.6185(2) 1.15374(14)
H33 H 0.585(3) -0.689(2) 1.2316(12)
H34 H 0.724(3) -0.682(2) 1.3299(12)
H35 H 0.966(3) -0.611(2) 1.3128(12)
H36 H 1.062(3) -0.545(2) 1.1975(12)
H37 H 0.916(3) -0.552(3) 1.0944(15)
H38 H 0.676(3) -0.627(3) 1.1168(15)
loop_
_geom_bond_atom_site_label_1
_geom_bond_atom_site_label_2
_geom_bond_site_symmetry_1
_geom_bond_site_symmetry_2
S1 C19 1_555 1_555
Cl1 O6 1_555 1_555
O1 C1 1_555 1_555
O2 C2 1_555 1_555
O3 C4 1_555 1_555
O4 C6 1_555 1_555
O5 C8 1_555 1_555
O7 Cl1 1_555 1_555
O8 Cl1 1_555 1_555
O9 Cl1 1_555 1_555
N1 C19 1_555 1_555
C1 C2 1_555 1_555
C2 H3 1_555 1_555
C3 O2 1_555 1_555
C4 C3 1_555 1_555
C5 O3 1_555 1_555
C6 C5 1_555 1_555
C7 O4 1_555 1_555
C8 C7 1_555 1_555
C9 O5 1_555 1_555
C10 O1 1_555 1_555
C11 C10 1_555 1_555
C12 C11 1_555 1_555
C13 C12 1_555 1_555
C14 C9 1_555 1_555
C15 C12 1_555 1_555
C16 C15 1_555 1_555
C17 C16 1_555 1_555
C18 C17 1_555 1_555
C19 C18 1_555 1_555
C20 N1 1_555 1_555
C21 S1 1_555 1_555
C22 C21 1_555 1_555
C23 C22 1_555 1_555
C24 C23 1_555 1_555
C25 C20 1_555 1_555
C26 N1 1_555 1_555
C27 C26 1_555 1_555
C28 C29 1_555 1_555
C29 C30 1_555 1_555
C30 C31 1_555 1_555
C31 C32 1_555 1_555
C32 C33 1_555 1_555
C33 C28 1_555 1_555
H1 C1 1_555 1_555
H2 C1 1_555 1_555
H4 C2 1_555 1_555
H5 C3 1_555 1_555
H6 C3 1_555 1_555
H7 C4 1_555 1_555
H8 C4 1_555 1_555
H9 C5 1_555 1_555
H10 C5 1_555 1_555
H11 C6 1_555 1_555
H12 C6 1_555 1_555
H13 C7 1_555 1_555
H14 C7 1_555 1_555
H15 C8 1_555 1_555
H16 C8 1_555 1_555
H17 C11 1_555 1_555
H18 C13 1_555 1_555
H19 C14 1_555 1_555
H20 C15 1_555 1_555
H21 C16 1_555 1_555
H22 C17 1_555 1_555
H23 C18 1_555 1_555
H24 C22 1_555 1_555
H25 C23 1_555 1_555
H26 C24 1_555 1_555
H27 C25 1_555 1_555
H28 C26 1_555 1_555
H29 C26 1_555 1_555
H30 C27 1_555 1_555
H31 C27 1_555 1_555
H32 C27 1_555 1_555
H33 C28 1_555 1_555
H34 C29 1_555 1_555
H35 C30 1_555 1_555
H36 C31 1_555 1_555
H37 C32 1_555 1_555
H38 C33 1_555 1_555
C9 C10 1_555 1_555
C13 C14 1_555 1_555
C20 C21 1_555 1_555
C24 C25 1_555 1_555

#END
