
#######################################################################
#
#                 Cambridge Crystallographic Data Centre
#                                CCDC 
#
#######################################################################
#
# If this CIF has been generated from an entry in the Cambridge 
# Structural Database, then it will include bibliographic, chemical, 
# crystal, experimental, refinement or atomic coordinate data resulting 
# from the CCDC's data processing and validation procedures.
#
#######################################################################

data_DANLOT
_chemical_formula_moiety         'C13 H21 B1 O2'
_chemical_name_systematic        9-Bora-bicyclo(3.3.1)non-9-yl-acetylacetonate
_symmetry_cell_setting           triclinic
_symmetry_space_group_name_H-M   'P -1'
_symmetry_Int_Tables_number      2
_space_group_name_Hall           '-P 1'
loop_
_symmetry_equiv_pos_site_id
_symmetry_equiv_pos_as_xyz
1 x,y,z
2 -x,-y,-z
_cell_length_a                   7.327(2)
_cell_length_b                   8.833(2)
_cell_length_c                   10.524(3)
_cell_angle_alpha                93.09(2)
_cell_angle_beta                 108.61(2)
_cell_angle_gamma                97.89(2)
_cell_volume                     635.91
_exptl_crystal_colour            orange
_cell_formula_units_Z            2
loop_
_atom_site_label
_atom_site_type_symbol
_atom_site_fract_x
_atom_site_fract_y
_atom_site_fract_z
C1 C 0.2167(4) 0.4180(3) 0.3646(3)
C2 C 0.3527(5) 0.3670(4) 0.3174(4)
C3 C 0.4111(4) 0.4344(3) 0.2213(3)
C4 C 0.1336(5) 0.3350(4) 0.4582(4)
C5 C 0.5433(5) 0.3712(4) 0.1568(3)
C6 C 0.3549(4) 0.7985(4) 0.3219(3)
C7 C 0.2326(5) 0.8835(4) 0.3878(3)
C8 C 0.0385(4) 0.9110(3) 0.2909(3)
C9 C -0.0750(4) 0.7754(4) 0.1879(3)
C10 C 0.0472(4) 0.6911(3) 0.1219(3)
C11 C 0.1297(5) 0.7849(4) 0.0287(3)
C12 C 0.2867(5) 0.9229(4) 0.0996(4)
C13 C 0.4384(5) 0.8938(4) 0.2293(4)
O1 O 0.1480(4) 0.5385(2) 0.3265(3)
O2 O 0.3482(3) 0.5541(2) 0.1751(2)
B1 B 0.2233(6) 0.6460(4) 0.2359(4)
loop_
_geom_bond_atom_site_label_1
_geom_bond_atom_site_label_2
_geom_bond_site_symmetry_1
_geom_bond_site_symmetry_2
C1 C2 1_555 1_555
C2 C3 1_555 1_555
C3 C5 1_555 1_555
C4 C1 1_555 1_555
C6 C7 1_555 1_555
C7 C8 1_555 1_555
C8 C9 1_555 1_555
C9 C10 1_555 1_555
C10 C11 1_555 1_555
C11 C12 1_555 1_555
C12 C13 1_555 1_555
C13 C6 1_555 1_555
O1 C1 1_555 1_555
O2 C3 1_555 1_555
B1 C6 1_555 1_555
C10 B1 1_555 1_555
O1 B1 1_555 1_555
O2 B1 1_555 1_555

#END
