
#######################################################################
#
#                 Cambridge Crystallographic Data Centre
#                                CCDC 
#
#######################################################################
#
# If this CIF has been generated from an entry in the Cambridge 
# Structural Database, then it will include bibliographic, chemical, 
# crystal, experimental, refinement or atomic coordinate data resulting 
# from the CCDC's data processing and validation procedures.
#
#######################################################################

data_DANNEL
_chemical_formula_moiety         'C18 H13 Cl1 N2 O2'
_chemical_name_systematic        
'5-Hydroxy-6-methyl-2-phenylpyrimidin-4-yl-p-chlorophenyl ketone'
_symmetry_cell_setting           triclinic
_symmetry_space_group_name_H-M   'P -1'
_symmetry_Int_Tables_number      2
_space_group_name_Hall           '-P 1'
loop_
_symmetry_equiv_pos_site_id
_symmetry_equiv_pos_as_xyz
1 x,y,z
2 -x,-y,-z
_cell_length_a                   7.065(1)
_cell_length_b                   16.697(2)
_cell_length_c                   6.909(1)
_cell_angle_alpha                92.05(2)
_cell_angle_beta                 110.52(2)
_cell_angle_gamma                83.43(2)
_cell_volume                     758.282
_chemical_melting_point          155-156deg.C
_cell_formula_units_Z            2
loop_
_atom_site_label
_atom_site_type_symbol
_atom_site_fract_x
_atom_site_fract_y
_atom_site_fract_z
Cl1 Cl 0.0400(1) -0.0955 -0.2473(1)
O1 O 0.6574(2) 0.1593(1) -0.3300(2)
O2 O 0.8010(2) 0.2941(1) -0.2299(2)
N1 N 0.4592(2) 0.2536(1) 0.0381(2)
N2 N 0.5838(2) 0.3810(1) 0.1364(2)
C1 C 0.1859(3) -0.0171(1) -0.2409(2)
C2 C 0.1145(3) 0.0600(1) -0.2019(3)
C3 C 0.2315(3) 0.1225(1) -0.1900(3)
C4 C 0.4170(2) 0.1068(1) -0.2215(2)
C5 C 0.4825(3) 0.0281(1) -0.2648(2)
C6 C 0.3685(3) -0.0343(1) -0.2720(2)
C7 C 0.5490(3) 0.1695(1) -0.2226(2)
C8 C 0.5633(2) 0.2437(1) -0.0935(2)
C9 C 0.6861(2) 0.3014(1) -0.1079(3)
C10 C 0.6902(2) 0.3717(1) 0.0109(3)
C11 C 0.4739(2) 0.3211(1) 0.1470(2)
C12 C 0.8137(3) 0.4375(1) -0.0016(4)
C13 C 0.3578(2) 0.3340(1) 0.2907(2)
C14 C 0.2248(3) 0.2798(1) 0.3001(3)
C15 C 0.1121(3) 0.2946(1) 0.4292(3)
C16 C 0.1309(3) 0.3629(1) 0.5508(3)
C17 C 0.2639(3) 0.4167(1) 0.5434(3)
C18 C 0.3767(3) 0.4021(1) 0.4157(3)
H1 H -0.021(4) 0.074(1) -0.191(3)
H2 H 0.176(3) 0.180(1) -0.184(3)
H3 H 0.626(4) 0.018(2) -0.282(4)
H4 H 0.427(4) -0.088(2) -0.285(4)
H5 H 0.890 0.421 -0.110
H6 H 0.714 0.493 -0.054
H7 H 0.204(4) 0.239(2) 0.204(5)
H8 H 0.024(5) 0.261(2) 0.439(5)
H9 H 0.048(5) 0.371(2) 0.644(5)
H10 H 0.277(5) 0.459(2) 0.642(5)
H11 H 0.460(5) 0.438(2) 0.396(5)
H12 H 0.773(4) 0.261(2) -0.300(4)
loop_
_geom_bond_atom_site_label_1
_geom_bond_atom_site_label_2
_geom_bond_site_symmetry_1
_geom_bond_site_symmetry_2
Cl1 C1 1_555 1_555
O1 C7 1_555 1_555
O2 C9 1_555 1_555
N1 C8 1_555 1_555
N2 C10 1_555 1_555
C1 C2 1_555 1_555
C2 C3 1_555 1_555
C3 C4 1_555 1_555
C4 C5 1_555 1_555
C5 C6 1_555 1_555
C6 C1 1_555 1_555
C7 C4 1_555 1_555
C8 C7 1_555 1_555
C9 C8 1_555 1_555
C10 C9 1_555 1_555
C11 N1 1_555 1_555
C12 C10 1_555 1_555
C13 C11 1_555 1_555
C14 C13 1_555 1_555
C15 C14 1_555 1_555
C16 C15 1_555 1_555
C17 C16 1_555 1_555
C18 C13 1_555 1_555
H1 C2 1_555 1_555
H2 C3 1_555 1_555
H3 C5 1_555 1_555
H4 C6 1_555 1_555
H5 C12 1_555 1_555
H6 C12 1_555 1_555
H7 C14 1_555 1_555
H8 C15 1_555 1_555
H9 C16 1_555 1_555
H10 C17 1_555 1_555
H11 C18 1_555 1_555
H12 O2 1_555 1_555
N2 C11 1_555 1_555
C17 C18 1_555 1_555

#END
