
#######################################################################
#
#                 Cambridge Crystallographic Data Centre
#                                CCDC 
#
#######################################################################
#
# If this CIF has been generated from an entry in the Cambridge 
# Structural Database, then it will include bibliographic, chemical, 
# crystal, experimental, refinement or atomic coordinate data resulting 
# from the CCDC's data processing and validation procedures.
#
#######################################################################

data_DANSOA
_chemical_formula_moiety         'C24 H40 O4,0.5(C4 H8 O1)'
_chemical_name_systematic        'Deoxycholic acid ethylmethyl ketone'
_symmetry_cell_setting           orthorhombic
_symmetry_space_group_name_H-M   'P 21 21 21'
_symmetry_Int_Tables_number      19
_space_group_name_Hall           'P 2ac 2ab'
loop_
_symmetry_equiv_pos_site_id
_symmetry_equiv_pos_as_xyz
1 x,y,z
2 1/2+x,1/2-y,-z
3 -x,1/2+y,1/2-z
4 1/2-x,-y,1/2+z
_cell_length_a                   25.462(5)
_cell_length_b                   13.448(5)
_cell_length_c                   7.176(4)
_cell_angle_alpha                90
_cell_angle_beta                 90
_cell_angle_gamma                90
_cell_volume                     2457.16
_chemical_melting_point          170-175deg.C
_cell_formula_units_Z            4
loop_
_atom_site_label
_atom_site_type_symbol
_atom_site_fract_x
_atom_site_fract_y
_atom_site_fract_z
C1 C 0.1220(2) 0.2186(5) 0.3548(9)
C2 C 0.0662(2) 0.1921(5) 0.2942(9)
C3 C 0.0684(2) 0.1207(4) 0.1334(9)
C4 C 0.0996(2) 0.1639(4) -0.0281(8)
C5 C 0.1554(2) 0.1941(4) 0.0299(9)
C6 C 0.1862(2) 0.2368(4) -0.1343(10)
C7 C 0.1655(2) 0.3396(4) -0.1911(9)
C8 C 0.1643(2) 0.4112(4) -0.0277(9)
C9 C 0.1332(2) 0.3671(4) 0.1359(8)
C10 C 0.1557(2) 0.2656(4) 0.2007(9)
C11 C 0.1260(2) 0.4427(4) 0.2921(9)
C12 C 0.1010(2) 0.5417(4) 0.2285(8)
C13 C 0.1337(2) 0.5895(4) 0.0682(8)
C14 C 0.1396(2) 0.5090(4) -0.0863(8)
C15 C 0.1637(3) 0.5672(4) -0.2484(9)
C16 C 0.1382(2) 0.6708(4) -0.2354(9)
C17 C 0.1084(2) 0.6747(4) -0.0443(8)
C18 C 0.1875(2) 0.6208(4) 0.1460(10)
C19 C 0.2119(2) 0.2767(5) 0.2765(10)
C20 C 0.1077(2) 0.7795(4) 0.0369(9)
C21 C 0.0798(3) 0.7874(5) 0.2226(9)
C22 C 0.0864(2) 0.8573(4) -0.1051(9)
C23 C 0.0284(2) 0.8358(5) -0.1619(9)
C24 C 0.0086(2) 0.9183(4) -0.2897(9)
O1 O 0.0163(2) 0.0976(3) 0.0807(6)
O2 O 0.0490(1) 0.5222(3) 0.1654(6)
O3 O 0.0084(2) 1.0058(3) -0.2501(7)
O4 O -0.0076(2) 0.8851(3) -0.4494(6)
H1 H 0.1243 0.2554 0.4726
H2 H 0.1382 0.1757 0.4017
H3 H 0.0497 0.2426 0.2137
H4 H 0.0511 0.1623 0.4069
H5 H 0.0893 0.0603 0.1527
H6 H 0.1111 0.1101 -0.1109
H7 H 0.0802 0.2143 -0.0933
H8 H 0.1722 0.1308 0.0646
H9 H 0.1770 0.2040 -0.2518
H10 H 0.2241 0.2440 -0.1138
H11 H 0.1865 0.3549 -0.3030
H12 H 0.1258 0.3308 -0.2305
H13 H 0.1996 0.4193 0.0002
H14 H 0.0987 0.3545 0.0905
H15 H 0.1581 0.4705 0.3696
H16 H 0.0988 0.4067 0.3756
H17 H 0.1026 0.5971 0.3465
H18 H 0.1030 0.4945 -0.1070
H19 H 0.2145 0.5444 -0.2407
H20 H 0.1605 0.5380 -0.3843
H21 H 0.1726 0.7369 -0.2515
H22 H 0.1163 0.6850 -0.3493
H23 H 0.0725 0.6524 -0.0697
H24 H 0.2088 0.6616 0.0443
H25 H 0.2098 0.5783 0.2042
H26 H 0.1803 0.6582 0.2766
H27 H 0.2410 0.2970 0.1952
H28 H 0.2167 0.2098 0.3283
H29 H 0.2112 0.3225 0.3643
H30 H 0.1451 0.7906 0.0622
H31 H 0.1033 0.7541 0.3111
H32 H 0.0445 0.7638 0.1988
H33 H 0.0657 0.8479 0.2800
H34 H 0.0930 0.9224 -0.0485
H35 H 0.1136 0.8359 -0.2063
H36 H 0.0050 0.8357 -0.0393
H37 H 0.0331 0.7661 -0.2190
H38 H 0.0164 0.0692 -0.0421
H39 H 0.0143 0.5301 0.2256
H40 H -0.0098 0.9489 -0.5121
loop_
_geom_bond_atom_site_label_1
_geom_bond_atom_site_label_2
_geom_bond_site_symmetry_1
_geom_bond_site_symmetry_2
C1 C2 1_555 1_555
C2 C3 1_555 1_555
C3 C4 1_555 1_555
C4 C5 1_555 1_555
C5 C6 1_555 1_555
C6 C7 1_555 1_555
C7 C8 1_555 1_555
C8 C9 1_555 1_555
C9 C10 1_555 1_555
C10 C1 1_555 1_555
C11 C9 1_555 1_555
C12 C11 1_555 1_555
C13 C12 1_555 1_555
C14 C8 1_555 1_555
C15 C14 1_555 1_555
C16 C15 1_555 1_555
C17 C13 1_555 1_555
C18 C13 1_555 1_555
C19 C10 1_555 1_555
C20 C17 1_555 1_555
C21 C20 1_555 1_555
C22 C20 1_555 1_555
C23 C22 1_555 1_555
C24 C23 1_555 1_555
O1 C3 1_555 1_555
O2 C12 1_555 1_555
O3 C24 1_555 1_555
O4 C24 1_555 1_555
H1 C1 1_555 1_555
H2 C1 1_555 1_555
H3 C2 1_555 1_555
H4 C2 1_555 1_555
H5 C3 1_555 1_555
H6 C4 1_555 1_555
H7 C4 1_555 1_555
H8 C5 1_555 1_555
H9 C6 1_555 1_555
H10 C6 1_555 1_555
H11 C7 1_555 1_555
H12 C7 1_555 1_555
H13 C8 1_555 1_555
H14 C9 1_555 1_555
H15 C11 1_555 1_555
H16 C11 1_555 1_555
H17 C12 1_555 1_555
H18 C14 1_555 1_555
H19 C15 1_555 1_555
H20 C15 1_555 1_555
H21 C16 1_555 1_555
H22 C16 1_555 1_555
H23 C17 1_555 1_555
H24 C18 1_555 1_555
H25 C18 1_555 1_555
H26 C18 1_555 1_555
H27 C19 1_555 1_555
H28 C19 1_555 1_555
H29 C19 1_555 1_555
H30 C20 1_555 1_555
H31 C21 1_555 1_555
H32 C21 1_555 1_555
H33 C21 1_555 1_555
H34 C22 1_555 1_555
H35 C22 1_555 1_555
H36 C23 1_555 1_555
H37 C23 1_555 1_555
H38 O1 1_555 1_555
H39 O2 1_555 1_555
H40 O4 1_555 1_555
C5 C10 1_555 1_555
C13 C14 1_555 1_555
C16 C17 1_555 1_555

#END
