
#######################################################################
#
#                 Cambridge Crystallographic Data Centre
#                                CCDC 
#
#######################################################################
#
# If this CIF has been generated from an entry in the Cambridge 
# Structural Database, then it will include bibliographic, chemical, 
# crystal, experimental, refinement or atomic coordinate data resulting 
# from the CCDC's data processing and validation procedures.
#
#######################################################################

data_DANSOA01
_chemical_formula_moiety         'C24 H40 O4,0.5(C4 H8 O1)'
_chemical_name_systematic        'Deoxycholic acid ethylmethyl ketone clathrate'
_symmetry_cell_setting           orthorhombic
_symmetry_space_group_name_H-M   'P 21 21 21'
_symmetry_Int_Tables_number      19
_space_group_name_Hall           'P 2ac 2ab'
loop_
_symmetry_equiv_pos_site_id
_symmetry_equiv_pos_as_xyz
1 x,y,z
2 1/2+x,1/2-y,-z
3 -x,1/2+y,1/2-z
4 1/2-x,-y,1/2+z
_cell_length_a                   25.805(5)
_cell_length_b                   13.593(2)
_cell_length_c                   7.228(1)
_cell_angle_alpha                90
_cell_angle_beta                 90
_cell_angle_gamma                90
_cell_volume                     2535.35
_chemical_melting_point          170-175deg.C
_cell_formula_units_Z            4
loop_
_atom_site_label
_atom_site_type_symbol
_atom_site_fract_x
_atom_site_fract_y
_atom_site_fract_z
C1 C 0.1197 0.2255 0.3563
C2 C 0.0649 0.1975 0.2905
C3 C 0.0691 0.1264 0.1378
C4 C 0.0995 0.1699 -0.0235
C5 C 0.1532 0.2026 0.0362
C6 C 0.1835 0.2441 -0.1298
C7 C 0.1648 0.3454 -0.1850
C8 C 0.1618 0.4163 -0.0253
C9 C 0.1303 0.3731 0.1362
C10 C 0.1530 0.2744 0.1997
C11 C 0.1233 0.4493 0.2870
C12 C 0.1000 0.5465 0.2271
C13 C 0.1323 0.5929 0.0662
C14 C 0.1385 0.5139 -0.0845
C15 C 0.1624 0.5693 -0.2446
C16 C 0.1381 0.6726 -0.2303
C17 C 0.1089 0.6775 -0.0455
C18 C 0.1853 0.6252 0.1477
C19 C 0.2077 0.2842 0.2828
C20 C 0.1083 0.7832 0.0341
C21 C 0.0805 0.7910 0.2197
C22 C 0.0860 0.8585 -0.1063
C23 C 0.0305 0.8411 -0.1651
C24 C 0.0114 0.9226 -0.2867
O1 O 0.0164 0.1019 0.0802
O2 O 0.0480 0.5303 0.1616
O3 O 0.0112 1.0080 -0.2490
O4 O -0.0065 0.8493 -0.4450
H1 H 0.116 0.269 0.456
H2 H 0.138 0.169 0.409
H3 H 0.049 0.260 0.243
H4 H 0.052 0.159 0.391
H5 H 0.086 0.050 0.183
H6 H 0.080 0.225 -0.062
H7 H 0.103 0.122 -0.128
H8 H 0.177 0.134 0.125
H9 H 0.218 0.254 -0.110
H10 H 0.184 0.196 -0.223
H11 H 0.135 0.340 -0.226
H12 H 0.193 0.368 -0.281
H13 H 0.195 0.428 0.015
H14 H 0.093 0.362 0.088
H15 H 0.104 0.424 0.395
H16 H 0.154 0.464 0.361
H17 H 0.097 0.591 0.326
H18 H 0.107 0.498 -0.131
H19 H 0.212 0.571 -0.255
H20 H 0.152 0.547 -0.387
H21 H 0.111 0.687 -0.354
H22 H 0.167 0.724 -0.239
H23 H 0.077 0.662 -0.062
H24 H 0.205 0.661 0.078
H25 H 0.207 0.570 0.198
H26 H 0.183 0.654 0.295
H27 H 0.231 0.325 0.194
H28 H 0.223 0.221 0.328
H29 H 0.208 0.332 0.372
H30 H 0.146 0.802 0.066
H31 H 0.098 0.759 0.319
H32 H 0.047 0.760 0.204
H33 H 0.076 0.866 0.238
H34 H 0.106 0.858 -0.220
H35 H 0.092 0.923 -0.046
H36 H 0.030 0.778 -0.248
H37 H 0.010 0.843 -0.048
H38 H 0.023 0.562 0.231
loop_
_geom_bond_atom_site_label_1
_geom_bond_atom_site_label_2
_geom_bond_site_symmetry_1
_geom_bond_site_symmetry_2
C1 C2 1_555 1_555
C2 C3 1_555 1_555
C3 C4 1_555 1_555
C4 C5 1_555 1_555
C5 C6 1_555 1_555
C6 C7 1_555 1_555
C7 C8 1_555 1_555
C8 C9 1_555 1_555
C9 C10 1_555 1_555
C10 C1 1_555 1_555
C11 C9 1_555 1_555
C12 C11 1_555 1_555
C13 C12 1_555 1_555
C14 C8 1_555 1_555
C15 C14 1_555 1_555
C16 C15 1_555 1_555
C17 C13 1_555 1_555
C18 C13 1_555 1_555
C19 C10 1_555 1_555
C20 C17 1_555 1_555
C21 C20 1_555 1_555
C22 C20 1_555 1_555
C23 C22 1_555 1_555
C24 C23 1_555 1_555
O1 C3 1_555 1_555
O2 C12 1_555 1_555
O3 C24 1_555 1_555
O4 C24 1_555 1_555
H1 C1 1_555 1_555
H2 C1 1_555 1_555
H3 C2 1_555 1_555
H4 C2 1_555 1_555
H5 C3 1_555 1_555
H6 C4 1_555 1_555
H7 C4 1_555 1_555
H8 C5 1_555 1_555
H9 C6 1_555 1_555
H10 C6 1_555 1_555
H11 C7 1_555 1_555
H12 C7 1_555 1_555
H13 C8 1_555 1_555
H14 C9 1_555 1_555
H15 C11 1_555 1_555
H16 C11 1_555 1_555
H17 C12 1_555 1_555
H18 C14 1_555 1_555
H19 C15 1_555 1_555
H20 C15 1_555 1_555
H21 C16 1_555 1_555
H22 C16 1_555 1_555
H23 C17 1_555 1_555
H24 C18 1_555 1_555
H25 C18 1_555 1_555
H26 C18 1_555 1_555
H27 C19 1_555 1_555
H28 C19 1_555 1_555
H29 C19 1_555 1_555
H30 C20 1_555 1_555
H31 C21 1_555 1_555
H32 C21 1_555 1_555
H33 C21 1_555 1_555
H34 C22 1_555 1_555
H35 C22 1_555 1_555
H36 C23 1_555 1_555
H37 C23 1_555 1_555
H38 O2 1_555 1_555
C5 C10 1_555 1_555
C13 C14 1_555 1_555
C16 C17 1_555 1_555

#END
