
#######################################################################
#
#                 Cambridge Crystallographic Data Centre
#                                CCDC 
#
#######################################################################
#
# If this CIF has been generated from an entry in the Cambridge 
# Structural Database, then it will include bibliographic, chemical, 
# crystal, experimental, refinement or atomic coordinate data resulting 
# from the CCDC's data processing and validation procedures.
#
#######################################################################

data_DANSUG
_chemical_formula_moiety         'C24 H40 O4,0.33(C7 H14 O1)'
_chemical_name_systematic        
'Deoxycholic acid methylpentyl ketone clathrate'
_symmetry_cell_setting           orthorhombic
_symmetry_space_group_name_H-M   'P 21 21 21'
_symmetry_Int_Tables_number      19
_space_group_name_Hall           'P 2ac 2ab'
loop_
_symmetry_equiv_pos_site_id
_symmetry_equiv_pos_as_xyz
1 x,y,z
2 1/2+x,1/2-y,-z
3 -x,1/2+y,1/2-z
4 1/2-x,-y,1/2+z
_cell_length_a                   25.529(4)
_cell_length_b                   13.440(3)
_cell_length_c                   7.214(1)
_cell_angle_alpha                90
_cell_angle_beta                 90
_cell_angle_gamma                90
_cell_volume                     2475.19
_chemical_melting_point          168-170deg.C
_cell_formula_units_Z            4
loop_
_atom_site_label
_atom_site_type_symbol
_atom_site_fract_x
_atom_site_fract_y
_atom_site_fract_z
C1 C 0.1201(1) 0.2274(2) 0.3483(5)
C2 C 0.0645(1) 0.2013(3) 0.2918(5)
C3 C 0.0657(1) 0.1292(3) 0.1311(5)
C4 C 0.0964(1) 0.1720(3) -0.0304(5)
C5 C 0.1525(1) 0.2003(3) 0.0255(5)
C6 C 0.1826(1) 0.2428(3) -0.1412(5)
C7 C 0.1637(2) 0.3455(2) -0.1979(5)
C8 C 0.1631(1) 0.4186(2) -0.0367(5)
C9 C 0.1321(1) 0.3754(2) 0.1283(4)
C10 C 0.1535(1) 0.2732(2) 0.1924(5)
C11 C 0.1264(1) 0.4527(2) 0.2834(5)
C12 C 0.1023(1) 0.5511(2) 0.2190(5)
C13 C 0.1339(1) 0.5964(2) 0.0591(4)
C14 C 0.1381(1) 0.5166(2) -0.0943(5)
C15 C 0.1614(2) 0.5726(3) -0.2585(5)
C16 C 0.1375(2) 0.6775(3) -0.2428(5)
C17 C 0.1088(1) 0.6827(2) -0.0531(5)
C18 C 0.1879(1) 0.6281(3) 0.1343(5)
C19 C 0.2094(1) 0.2823(3) 0.2678(6)
C20 C 0.1092(1) 0.7887(2) 0.0260(5)
C21 C 0.0827(2) 0.7977(3) 0.2136(5)
C22 C 0.0861(1) 0.8644(2) -0.1127(5)
C23 C 0.0288(2) 0.8451(3) -0.1663(6)
C24 C 0.0087(1) 0.9264(3) -0.2919(5)
O1 O 0.0126(1) 0.1086(2) 0.0790(4)
O2 O 0.0490(1) 0.5340(2) 0.1617(3)
O3 O 0.0060(1) 1.0138(2) -0.2467(4)
O4 O -0.0059(1) 0.8956(2) -0.4554(4)
H1 H 0.1170 0.2701 0.4545
H2 H 0.1382 0.1710 0.3886
H3 H 0.0454 0.2599 0.2495
H4 H 0.0466 0.1672 0.3937
H5 H 0.0857 0.0661 0.1584
H6 H 0.0974 0.1312 -0.1351
H7 H 0.0759 0.2239 -0.0922
H8 H 0.1707 0.1395 0.0633
H9 H 0.1788 0.1959 -0.2456
H10 H 0.2202 0.2542 -0.1230
H11 H 0.1902 0.3714 -0.3040
H12 H 0.1274 0.3394 -0.2411
H13 H 0.1983 0.4323 0.0032
H14 H 0.0987 0.3662 0.0839
H15 H 0.1601 0.4633 0.3303
H16 H 0.1023 0.4269 0.3805
H17 H 0.1021 0.6026 0.3223
H18 H 0.1053 0.5031 -0.1339
H19 H 0.1991 0.5733 -0.2449
H20 H 0.1529 0.5380 -0.3759
H21 H 0.1650 0.7308 -0.2530
H22 H 0.1134 0.6890 -0.3444
H23 H 0.0732 0.6639 -0.0699
H24 H 0.2074 0.6711 0.0455
H25 H 0.2102 0.5745 0.1839
H26 H 0.1844 0.6694 0.2535
H27 H 0.2389 0.3082 0.1855
H28 H 0.2206 0.2156 0.3042
H29 H 0.2116 0.3263 0.3724
H30 H 0.1451 0.8110 0.0451
H31 H 0.1043 0.7644 0.3069
H32 H 0.0492 0.7616 0.2053
H33 H 0.0773 0.8624 0.2456
H34 H 0.0892 0.9267 -0.0526
H35 H 0.1064 0.8607 -0.2212
H36 H 0.0094 0.8516 -0.0459
H37 H 0.0265 0.7833 -0.2181
H38 H 0.0122 0.0793 -0.0423
H39 H 0.0270 0.5594 0.2588
H40 H -0.0191 0.9535 -0.5179
loop_
_geom_bond_atom_site_label_1
_geom_bond_atom_site_label_2
_geom_bond_site_symmetry_1
_geom_bond_site_symmetry_2
C1 C2 1_555 1_555
C2 C3 1_555 1_555
C3 C4 1_555 1_555
C4 C5 1_555 1_555
C5 C6 1_555 1_555
C6 C7 1_555 1_555
C7 C8 1_555 1_555
C8 C9 1_555 1_555
C9 C10 1_555 1_555
C10 C1 1_555 1_555
C11 C9 1_555 1_555
C12 C11 1_555 1_555
C13 C12 1_555 1_555
C14 C8 1_555 1_555
C15 C14 1_555 1_555
C16 C15 1_555 1_555
C17 C13 1_555 1_555
C18 C13 1_555 1_555
C19 C10 1_555 1_555
C20 C17 1_555 1_555
C21 C20 1_555 1_555
C22 C20 1_555 1_555
C23 C22 1_555 1_555
C24 C23 1_555 1_555
O1 C3 1_555 1_555
O2 C12 1_555 1_555
O3 C24 1_555 1_555
O4 C24 1_555 1_555
H1 C1 1_555 1_555
H2 C1 1_555 1_555
H3 C2 1_555 1_555
H4 C2 1_555 1_555
H5 C3 1_555 1_555
H6 C4 1_555 1_555
H7 C4 1_555 1_555
H8 C5 1_555 1_555
H9 C6 1_555 1_555
H10 C6 1_555 1_555
H11 C7 1_555 1_555
H12 C7 1_555 1_555
H13 C8 1_555 1_555
H14 C9 1_555 1_555
H15 C11 1_555 1_555
H16 C11 1_555 1_555
H17 C12 1_555 1_555
H18 C14 1_555 1_555
H19 C15 1_555 1_555
H20 C15 1_555 1_555
H21 C16 1_555 1_555
H22 C16 1_555 1_555
H23 C17 1_555 1_555
H24 C18 1_555 1_555
H25 C18 1_555 1_555
H26 C18 1_555 1_555
H27 C19 1_555 1_555
H28 C19 1_555 1_555
H29 C19 1_555 1_555
H30 C20 1_555 1_555
H31 C21 1_555 1_555
H32 C21 1_555 1_555
H33 C21 1_555 1_555
H34 C22 1_555 1_555
H35 C22 1_555 1_555
H36 C23 1_555 1_555
H37 C23 1_555 1_555
H38 O1 1_555 1_555
H39 O2 1_555 1_555
H40 O4 1_555 1_555
C5 C10 1_555 1_555
C13 C14 1_555 1_555
C16 C17 1_555 1_555

#END
