
#######################################################################
#
#                 Cambridge Crystallographic Data Centre
#                                CCDC 
#
#######################################################################
#
# If this CIF has been generated from an entry in the Cambridge 
# Structural Database, then it will include bibliographic, chemical, 
# crystal, experimental, refinement or atomic coordinate data resulting 
# from the CCDC's data processing and validation procedures.
#
#######################################################################

data_DANTEN14
_chemical_formula_moiety         'C28 H16 O2'
_chemical_name_systematic        
10-(10-Oxoanthracen-9(10H)-ylidene)anthracen-9(10H)-one
_symmetry_cell_setting           monoclinic
_symmetry_space_group_name_H-M   'P 21/n'
_symmetry_Int_Tables_number      14
_space_group_name_Hall           '-P 2yn'
loop_
_symmetry_equiv_pos_site_id
_symmetry_equiv_pos_as_xyz
1 x,y,z
2 1/2-x,1/2+y,1/2-z
3 -x,-y,-z
4 1/2+x,1/2-y,1/2+z
_cell_length_a                   10.2391(11)
_cell_length_b                   8.5602(9)
_cell_length_c                   11.6621(11)
_cell_angle_alpha                90
_cell_angle_beta                 109.646(4)
_cell_angle_gamma                90
_cell_volume                     962.666
_exptl_crystal_colour            yellow-green
_exptl_crystal_description       parallelepiped
_cell_formula_units_Z            2
loop_
_atom_site_label
_atom_site_type_symbol
_atom_site_fract_x
_atom_site_fract_y
_atom_site_fract_z
O1 O 0.37657(19) 0.0511(2) 0.08753(13)
C1 C 0.5279(2) -0.0848(3) 0.25653(18)
C2 C 0.3253(2) -0.0410(2) 0.37015(17)
C3 C 0.4748(2) -0.0357(2) 0.44511(15)
C4 C 0.5631(2) -0.1108(3) 0.38185(17)
C5 C 0.6109(3) -0.1478(3) 0.19407(19)
H1 H 0.5895 -0.1279 0.1114
C6 C 0.6754(3) -0.2071(3) 0.43877(19)
H2 H 0.6979 -0.2292 0.5212
C7 C 0.2896(3) -0.0095(3) 0.24621(18)
C8 C 0.3978(3) -0.0033(3) 0.18896(18)
C9 C 0.2200(3) -0.0769(3) 0.4163(2)
H3 H 0.2425 -0.1043 0.4978
C10 C 0.7538(3) -0.2701(3) 0.3750(2)
H4 H 0.8283 -0.3349 0.4144
C11 C 0.7228(3) -0.2380(3) 0.2538(2)
H5 H 0.7784 -0.2780 0.2120
C12 C 0.0834(3) -0.0723(3) 0.3430(3)
H6 H 0.0141 -0.0980 0.3747
C13 C 0.1505(3) -0.0004(3) 0.1740(2)
H7 H 0.1265 0.0259 0.0921
C14 C 0.0489(3) -0.0299(4) 0.2229(3)
H8 H -0.0439 -0.0213 0.1746
O1B O 0.62343(19) -0.0511(2) 0.91247(13)
C1B C 0.4721(2) 0.0848(3) 0.74347(18)
C2B C 0.6747(2) 0.0410(2) 0.62985(17)
C3B C 0.5252(2) 0.0357(2) 0.55489(15)
C4B C 0.4369(2) 0.1108(3) 0.61815(17)
C5B C 0.3891(3) 0.1478(3) 0.80593(19)
H1B H 0.4105 0.1279 0.8886
C6B C 0.3246(3) 0.2071(3) 0.56123(19)
H2B H 0.3021 0.2292 0.4788
C7B C 0.7104(3) 0.0095(3) 0.75379(18)
C8B C 0.6022(3) 0.0033(3) 0.81104(18)
C9B C 0.7800(3) 0.0769(3) 0.5837(2)
H3B H 0.7575 0.1043 0.5022
C10B C 0.2462(3) 0.2701(3) 0.6250(2)
H4B H 0.1717 0.3349 0.5856
C11B C 0.2772(3) 0.2380(3) 0.7462(2)
H5B H 0.2216 0.2780 0.7880
C12B C 0.9166(3) 0.0723(3) 0.6570(3)
H6B H 0.9859 0.0980 0.6253
C13B C 0.8495(3) 0.0004(3) 0.8260(2)
H7B H 0.8735 -0.0259 0.9079
C14B C 0.9511(3) 0.0299(4) 0.7771(3)
H8B H 1.0439 0.0213 0.8254
loop_
_geom_bond_atom_site_label_1
_geom_bond_atom_site_label_2
_geom_bond_site_symmetry_1
_geom_bond_site_symmetry_2
O1 C8 1_555 1_555
C1 C4 1_555 1_555
C2 C3 1_555 1_555
C3 C4 1_555 1_555
C4 C6 1_555 1_555
C5 C1 1_555 1_555
H1 C5 1_555 1_555
C6 H2 1_555 1_555
C7 C2 1_555 1_555
C8 C1 1_555 1_555
C9 C2 1_555 1_555
H3 C9 1_555 1_555
C10 C6 1_555 1_555
H4 C10 1_555 1_555
C11 C5 1_555 1_555
H5 C11 1_555 1_555
C12 C9 1_555 1_555
H6 C12 1_555 1_555
C13 C7 1_555 1_555
H7 C13 1_555 1_555
C14 C12 1_555 1_555
H8 C14 1_555 1_555
O1B C8B 1_555 1_555
C1B C4B 1_555 1_555
C2B C3B 1_555 1_555
C3B C3 1_555 1_555
C4B C3B 1_555 1_555
C5B C1B 1_555 1_555
H1B C5B 1_555 1_555
C6B C4B 1_555 1_555
H2B C6B 1_555 1_555
C7B C2B 1_555 1_555
C8B C1B 1_555 1_555
C9B C2B 1_555 1_555
H3B C9B 1_555 1_555
C10B C6B 1_555 1_555
H4B C10B 1_555 1_555
C11B C5B 1_555 1_555
H5B C11B 1_555 1_555
C12B C9B 1_555 1_555
H6B C12B 1_555 1_555
C13B C7B 1_555 1_555
H7B C13B 1_555 1_555
C14B C12B 1_555 1_555
H8B C14B 1_555 1_555
C7 C8 1_555 1_555
C10 C11 1_555 1_555
C13 C14 1_555 1_555
C7B C8B 1_555 1_555
C10B C11B 1_555 1_555
C13B C14B 1_555 1_555

#END
