
#######################################################################
#
#                 Cambridge Crystallographic Data Centre
#                                CCDC 
#
#######################################################################
#
# If this CIF has been generated from an entry in the Cambridge 
# Structural Database, then it will include bibliographic, chemical, 
# crystal, experimental, refinement or atomic coordinate data resulting 
# from the CCDC's data processing and validation procedures.
#
#######################################################################

data_DANWOH
_chemical_formula_moiety         'C13 H23 N1 O4'
_chemical_name_systematic        
't-butyl 3-hydroxy-2-isobutyl-5-oxopyrrolidine-1-carboxylate'
_symmetry_cell_setting           orthorhombic
_symmetry_space_group_name_H-M   'P 21 21 21'
_symmetry_Int_Tables_number      19
_space_group_name_Hall           'P 2ac 2ab'
loop_
_symmetry_equiv_pos_site_id
_symmetry_equiv_pos_as_xyz
1 x,y,z
2 1/2-x,-y,1/2+z
3 -x,1/2+y,1/2-z
4 1/2+x,1/2-y,-z
_cell_length_a                   6.2188(9)
_cell_length_b                   9.2820(13)
_cell_length_c                   25.561(4)
_cell_angle_alpha                90
_cell_angle_beta                 90
_cell_angle_gamma                90
_cell_volume                     1475.46
_exptl_crystal_colour            colorless
_exptl_crystal_description       prismatic
_cell_formula_units_Z            4
_exptl_crystal_recrystallization_method 'ethyl acetate/petroleum ether'
loop_
_atom_site_label
_atom_site_type_symbol
_atom_site_fract_x
_atom_site_fract_y
_atom_site_fract_z
N1 N 0.7525(3) 0.35072(19) 0.95024(7)
O1 O 0.7857(3) 0.21747(19) 1.02622(7)
O2 O 0.4501(3) 0.5889(2) 0.99177(8)
O3 O 0.7680(4) 0.11505(18) 0.92480(7)
O4 O 0.6908(3) 0.29236(19) 0.86779(7)
C1 C 0.7715(4) 0.3314(3) 1.00379(9)
C2 C 0.7702(5) 0.4782(3) 1.02792(9)
H1 H 0.9151 0.5084 1.0368
H2 H 0.6831 0.4792 1.0594
C3 C 0.6745(4) 0.5761(3) 0.98649(10)
H3 H 0.7408 0.6716 0.9888
C4 C 0.7398(4) 0.5044(2) 0.93541(8)
H4 H 0.6266 0.5181 0.9092
C5 C 0.9536(5) 0.5539(3) 0.91349(10)
H5 H 1.0069 0.4798 0.8901
H6 H 1.0549 0.5619 0.9422
C6 C 0.9510(5) 0.6960(3) 0.88415(11)
H7 H 0.8914 0.7704 0.9071
C7 C 1.1781(6) 0.7374(4) 0.86975(14)
H8 H 1.2634 0.7448 0.9009
H9 H 1.1770 0.8285 0.8520
H10 H 1.2383 0.6652 0.8472
C8 C 0.8147(6) 0.6877(4) 0.83503(13)
H11 H 0.8673 0.6118 0.8130
H12 H 0.8225 0.7777 0.8166
H13 H 0.6681 0.6684 0.8444
C9 C 0.7395(4) 0.2396(3) 0.91474(9)
C10 C 0.6587(6) 0.1996(3) 0.82246(11)
C11 C 0.5885(9) 0.3039(5) 0.78126(13)
H14 H 0.4626 0.3543 0.7930
H15 H 0.5561 0.2526 0.7496
H16 H 0.7018 0.3719 0.7747
C12 C 0.8673(7) 0.1279(5) 0.80855(16)
H17 H 0.9746 0.1999 0.8019
H18 H 0.8478 0.0699 0.7778
H19 H 0.9130 0.0679 0.8371
C13 C 0.4829(7) 0.0915(5) 0.83407(15)
H20 H 0.5345 0.0222 0.8590
H21 H 0.4426 0.0431 0.8024
H22 H 0.3602 0.1406 0.8483
H23 H 0.399(4) 0.508(3) 0.9957(10)
loop_
_geom_bond_atom_site_label_1
_geom_bond_atom_site_label_2
_geom_bond_site_symmetry_1
_geom_bond_site_symmetry_2
N1 C1 1_555 1_555
O1 C1 1_555 1_555
O2 C3 1_555 1_555
O3 C9 1_555 1_555
O4 C9 1_555 1_555
C1 C2 1_555 1_555
C2 H1 1_555 1_555
H2 C2 1_555 1_555
C3 C2 1_555 1_555
H3 C3 1_555 1_555
C4 N1 1_555 1_555
H4 C4 1_555 1_555
C5 C4 1_555 1_555
H5 C5 1_555 1_555
H6 C5 1_555 1_555
C6 C5 1_555 1_555
H7 C6 1_555 1_555
C7 C6 1_555 1_555
H8 C7 1_555 1_555
H9 C7 1_555 1_555
H10 C7 1_555 1_555
C8 C6 1_555 1_555
H11 C8 1_555 1_555
H12 C8 1_555 1_555
H13 C8 1_555 1_555
C9 N1 1_555 1_555
C10 O4 1_555 1_555
C11 C10 1_555 1_555
H14 C11 1_555 1_555
H15 C11 1_555 1_555
H16 C11 1_555 1_555
C12 C10 1_555 1_555
H17 C12 1_555 1_555
H18 C12 1_555 1_555
H19 C12 1_555 1_555
C13 C10 1_555 1_555
H20 C13 1_555 1_555
H21 C13 1_555 1_555
H22 C13 1_555 1_555
H23 O2 1_555 1_555
C3 C4 1_555 1_555

#END
