
#######################################################################
#
#                 Cambridge Crystallographic Data Centre
#                                CCDC 
#
#######################################################################
#
# If this CIF has been generated from an entry in the Cambridge 
# Structural Database, then it will include bibliographic, chemical, 
# crystal, experimental, refinement or atomic coordinate data resulting 
# from the CCDC's data processing and validation procedures.
#
#######################################################################

data_DANYEZ
_chemical_name_common            
"2,20:8,62:14,32:26,44:38,56:50,68-hexakis(propan-1,3-diyl)calix[12]resorcinarene hexakis(4,4'-bipyridine) dimethyl sulfoxide solvate"
_chemical_formula_moiety         'C102 H96 O24,6(C10 H8 N2),16(C2 H6 O1 S1)'
_chemical_name_systematic        
"Noria hexakis(4,4'-bipyridine) dimethyl sulfoxide solvate"
_symmetry_cell_setting           monoclinic
_symmetry_space_group_name_H-M   'C 2/m'
_symmetry_Int_Tables_number      12
_space_group_name_Hall           '-C 2y'
loop_
_symmetry_equiv_pos_site_id
_symmetry_equiv_pos_as_xyz
1 x,y,z
2 -x,y,-z
3 1/2+x,1/2+y,z
4 1/2-x,1/2+y,-z
5 -x,-y,-z
6 x,-y,z
7 1/2-x,1/2-y,-z
8 1/2+x,1/2-y,z
_cell_length_a                   16.1196(4)
_cell_length_b                   28.1873(9)
_cell_length_c                   22.9596(6)
_cell_angle_alpha                90
_cell_angle_beta                 91.1780(10)
_cell_angle_gamma                90
_cell_volume                     10429.9
_exptl_crystal_colour            colorless
_exptl_crystal_description       Plate
_cell_formula_units_Z            2
loop_
_atom_site_label
_atom_site_type_symbol
_atom_site_fract_x
_atom_site_fract_y
_atom_site_fract_z
N1 N -0.04842(17) 0.30363(14) 0.10004(12)
C29 C -0.0584(3) 0.25757(19) 0.09527(15)
H28 H -0.0402 0.2380 0.1267
N2 N -0.21387(17) 0.19976(12) -0.15687(11)
C30 C -0.0943(2) 0.23599(17) 0.04648(15)
H29 H -0.1001 0.2025 0.0450
C31 C -0.12120(16) 0.26327(12) 0.00061(11)
C32 C -0.1115(3) 0.31103(16) 0.00542(19)
H30 H -0.1298 0.3315 -0.0251
C33 C -0.0746(3) 0.32930(18) 0.0556(2)
H31 H -0.0677 0.3627 0.0581
C34 C -0.15626(16) 0.24132(12) -0.05371(11)
C35 C -0.1887(8) 0.2461(4) -0.1561(4)
H32 H -0.1910 0.2640 -0.1911
C36 C -0.1598(8) 0.2671(3) -0.1053(4)
H33 H -0.1423 0.2993 -0.1056
C37 C -0.1885(8) 0.1964(3) -0.0552(3)
H34 H -0.1907 0.1780 -0.0206
C38 C -0.2180(8) 0.1779(3) -0.1077(4)
H35 H -0.2428 0.1473 -0.1074
N3 N 0.1170(8) 0.1255(4) 0.4860(14)
C43 C 0.0931(7) 0.1020(5) 0.4384(13)
H40 H 0.0797 0.1195 0.4041
C44 C 0.0868(7) 0.0519(4) 0.4368(12)
H41 H 0.0692 0.0360 0.4022
C45 C 0.1068(7) 0.0268(4) 0.4866(13)
C46 C 0.1294(8) 0.0528(3) 0.5377(12)
H42 H 0.1416 0.0368 0.5733
C47 C 0.1331(9) 0.1010(4) 0.5346(12)
H43 H 0.1480 0.1181 0.5689
N3E N 0.1170(8) -0.1255(4) 0.4860(14)
C43E C 0.0931(7) -0.1020(5) 0.4384(13)
H40E H 0.0797 -0.1195 0.4041
C44E C 0.0868(7) -0.0519(4) 0.4368(12)
H41E H 0.0692 -0.0360 0.4022
C45E C 0.1068(7) -0.0268(4) 0.4866(13)
C46E C 0.1294(8) -0.0528(3) 0.5377(12)
H42E H 0.1416 -0.0368 0.5733
C47E C 0.1331(9) -0.1010(4) 0.5346(12)
H43E H 0.1480 -0.1181 0.5689
O1 O 0.13479(16) 0.08329(8) 0.26609(15)
H1 H 0.1718 0.1040 0.2592
C1 C 0.27340(17) 0.0000 0.34254(12)
H2 H 0.3209 0.0000 0.3678
O2 O 0.24495(11) 0.15308(8) 0.25536(8)
H3 H 0.2374 0.1655 0.2224
C2 C 0.24124(13) 0.04365(8) 0.32545(10)
O3 O 0.52583(12) 0.14944(9) 0.18973(8)
H4 H 0.5037 0.1649 0.1622
C3 C 0.17298(19) 0.04264(11) 0.28629(16)
O4 O 0.7070(2) 0.14630(15) 0.22701(10)
H5 H 0.7569 0.1528 0.2208
C4 C 0.1398(3) 0.0000 0.2679(3)
H6 H 0.0930 0.0000 0.2420
O5 O 0.75928(15) 0.24005(8) 0.39517(9)
H7 H 0.7321 0.2514 0.4227
C5 C 0.27857(13) 0.08995(8) 0.34733(9)
H8 H 0.2332 0.1141 0.3452
O6 O 0.64062(10) 0.28017(6) 0.46822(9)
H9 H 0.6314 0.3097 0.4709
C6 C 0.42799(14) 0.09133(7) 0.31126(9)
H10 H 0.4425 0.0702 0.3421
C7 C 0.34576(13) 0.10688(8) 0.30677(9)
C8 C 0.32578(15) 0.13753(10) 0.26077(10)
C9 C 0.38517(16) 0.15163(11) 0.22191(11)
H11 H 0.3704 0.1726 0.1910
C10 C 0.46610(15) 0.13551(10) 0.22766(10)
C11 C 0.48996(13) 0.10490(8) 0.27326(9)
C12 C 0.58070(13) 0.09145(8) 0.28087(9)
H12 H 0.6038 0.0882 0.2410
C13 C 0.61611(13) 0.14138(8) 0.36974(9)
H13 H 0.5751 0.1237 0.3895
C14 C 0.62859(14) 0.13108(8) 0.31134(9)
C15 C 0.6891(2) 0.15699(12) 0.28358(12)
C16 C 0.7308(2) 0.19317(13) 0.31251(13)
H14 H 0.7703 0.2115 0.2922
C17 C 0.71598(18) 0.20319(10) 0.37035(11)
C18 C 0.65971(13) 0.17580(8) 0.40107(9)
C19 C 0.65101(13) 0.18085(8) 0.46702(9)
H15 H 0.6988 0.2007 0.4810
C20 C 0.5000 0.18351(11) 0.5000
H16 H 0.5000 0.1498 0.5000
C21 C 0.57247(13) 0.20685(8) 0.48432(9)
C22 C 0.57083(14) 0.25615(8) 0.48463(11)
C23 C 0.5000 0.28035(12) 0.5000
H17 H 0.5000 0.3141 0.5000
C24 C 0.30676(14) 0.08705(8) 0.41118(9)
H18 H 0.2628 0.0715 0.4338
H19 H 0.3572 0.0671 0.4142
C25 C 0.32549(15) 0.13538(8) 0.43769(10)
H20 H 0.2787 0.1572 0.4289
H21 H 0.3758 0.1486 0.4198
C26 C 0.33897(14) 0.13228(8) 0.50344(10)
H22 H 0.3892 0.1131 0.5118
H23 H 0.2912 0.1156 0.5205
C27 C 0.59683(14) 0.04429(8) 0.31259(10)
H24 H 0.6573 0.0412 0.3200
H25 H 0.5698 0.0456 0.3509
C28 C 0.5667(2) 0.0000 0.28085(14)
H26 H 0.5053 0.0000 0.2786
H27 H 0.5876 0.0000 0.2406
O1A O 0.86521(16) 0.08329(8) 0.73391(15)
H1A H 0.8282 0.1040 0.7408
C1A C 0.72660(17) 0.0000 0.65746(12)
H2A H 0.6791 0.0000 0.6322
O2A O 0.75505(11) 0.15308(8) 0.74464(8)
H3A H 0.7626 0.1655 0.7776
C2A C 0.75876(13) 0.04365(8) 0.67455(10)
O3A O 0.47417(12) 0.14944(9) 0.81027(8)
H4A H 0.4963 0.1649 0.8378
C3A C 0.82702(19) 0.04264(11) 0.71371(16)
O4A O 0.2930(2) 0.14630(15) 0.77299(10)
H5A H 0.2431 0.1528 0.7792
C4A C 0.8602(3) 0.0000 0.7321(3)
H6A H 0.9070 0.0000 0.7580
O5A O 0.24072(15) 0.24005(8) 0.60483(9)
H7A H 0.2679 0.2514 0.5773
C5A C 0.72143(13) 0.08995(8) 0.65267(9)
H8A H 0.7668 0.1141 0.6548
O6A O 0.35938(10) 0.28017(6) 0.53178(9)
H9A H 0.3686 0.3097 0.5291
C6A C 0.57201(14) 0.09133(7) 0.68874(9)
H10A H 0.5575 0.0702 0.6579
C7A C 0.65424(13) 0.10688(8) 0.69323(9)
C8A C 0.67422(15) 0.13753(10) 0.73923(10)
C9A C 0.61483(16) 0.15163(11) 0.77809(11)
H11A H 0.6296 0.1726 0.8090
C10A C 0.53390(15) 0.13551(10) 0.77234(10)
C11A C 0.51004(13) 0.10490(8) 0.72674(9)
C12A C 0.41930(13) 0.09145(8) 0.71913(9)
H12A H 0.3962 0.0882 0.7590
C13A C 0.38389(13) 0.14138(8) 0.63026(9)
H13A H 0.4249 0.1237 0.6105
C14A C 0.37141(14) 0.13108(8) 0.68866(9)
C15A C 0.3109(2) 0.15699(12) 0.71642(12)
C16A C 0.2692(2) 0.19317(13) 0.68749(13)
H14A H 0.2297 0.2115 0.7078
C17A C 0.28402(18) 0.20319(10) 0.62965(11)
C18A C 0.34029(13) 0.17580(8) 0.59893(9)
C19A C 0.34899(13) 0.18085(8) 0.53298(9)
H15A H 0.3012 0.2007 0.5190
C21A C 0.42753(13) 0.20685(8) 0.51568(9)
C22A C 0.42917(14) 0.25615(8) 0.51537(11)
C24A C 0.69324(14) 0.08705(8) 0.58882(9)
H18A H 0.7372 0.0715 0.5662
H19A H 0.6428 0.0671 0.5858
C25A C 0.67451(15) 0.13538(8) 0.56231(10)
H20A H 0.7213 0.1572 0.5711
H21A H 0.6242 0.1486 0.5802
C26A C 0.66103(14) 0.13228(8) 0.49656(10)
H22A H 0.6108 0.1131 0.4882
H23A H 0.7088 0.1156 0.4795
C27A C 0.40317(14) 0.04429(8) 0.68741(10)
H24A H 0.3427 0.0412 0.6800
H25A H 0.4302 0.0456 0.6491
C28A C 0.4333(2) 0.0000 0.71915(14)
H26A H 0.4947 0.0000 0.7214
H27A H 0.4124 0.0000 0.7594
O1E O 0.13479(16) -0.08329(8) 0.26609(15)
H1E H 0.1718 -0.1040 0.2592
O2E O 0.24495(11) -0.15308(8) 0.25536(8)
H3E H 0.2374 -0.1655 0.2224
C2E C 0.24124(13) -0.04365(8) 0.32545(10)
O3E O 0.52583(12) -0.14944(9) 0.18973(8)
H4E H 0.5037 -0.1649 0.1622
C3E C 0.17298(19) -0.04264(11) 0.28629(16)
O4E O 0.7070(2) -0.14630(15) 0.22701(10)
H5E H 0.7569 -0.1528 0.2208
O5E O 0.75928(15) -0.24005(8) 0.39517(9)
H7E H 0.7321 -0.2514 0.4227
C5E C 0.27857(13) -0.08995(8) 0.34733(9)
H8E H 0.2332 -0.1141 0.3452
O6E O 0.64062(10) -0.28017(6) 0.46822(9)
H9E H 0.6314 -0.3097 0.4709
C6E C 0.42799(14) -0.09133(7) 0.31126(9)
H10E H 0.4425 -0.0702 0.3421
C7E C 0.34576(13) -0.10688(8) 0.30677(9)
C8E C 0.32578(15) -0.13753(10) 0.26077(10)
C9E C 0.38517(16) -0.15163(11) 0.22191(11)
H11E H 0.3704 -0.1726 0.1910
C10E C 0.46610(15) -0.13551(10) 0.22766(10)
C11E C 0.48996(13) -0.10490(8) 0.27326(9)
C12E C 0.58070(13) -0.09145(8) 0.28087(9)
H12E H 0.6038 -0.0882 0.2410
C13E C 0.61611(13) -0.14138(8) 0.36974(9)
H13E H 0.5751 -0.1237 0.3895
C14E C 0.62859(14) -0.13108(8) 0.31134(9)
C15E C 0.6891(2) -0.15699(12) 0.28358(12)
C16E C 0.7308(2) -0.19317(13) 0.31251(13)
H14E H 0.7703 -0.2115 0.2922
C17E C 0.71598(18) -0.20319(10) 0.37035(11)
C18E C 0.65971(13) -0.17580(8) 0.40107(9)
C19E C 0.65101(13) -0.18085(8) 0.46702(9)
H15E H 0.6988 -0.2007 0.4810
C20D C 0.5000 -0.18351(11) 0.5000
H16D H 0.5000 -0.1498 0.5000
C21E C 0.57247(13) -0.20685(8) 0.48432(9)
C22E C 0.57083(14) -0.25615(8) 0.48463(11)
C23D C 0.5000 -0.28035(12) 0.5000
H17D H 0.5000 -0.3141 0.5000
C24E C 0.30676(14) -0.08705(8) 0.41118(9)
H18E H 0.2628 -0.0715 0.4338
H19E H 0.3572 -0.0671 0.4142
C25E C 0.32549(15) -0.13538(8) 0.43769(10)
H20E H 0.2787 -0.1572 0.4289
H21E H 0.3758 -0.1486 0.4198
C26E C 0.33897(14) -0.13228(8) 0.50344(10)
H22E H 0.3892 -0.1131 0.5118
H23E H 0.2912 -0.1156 0.5205
C27E C 0.59683(14) -0.04429(8) 0.31259(10)
H24E H 0.6573 -0.0412 0.3200
H25E H 0.5698 -0.0456 0.3509
O1D O 0.86521(16) -0.08329(8) 0.73391(15)
H1D H 0.8282 -0.1040 0.7408
O2D O 0.75505(11) -0.15308(8) 0.74464(8)
H3D H 0.7626 -0.1655 0.7776
C2D C 0.75876(13) -0.04365(8) 0.67455(10)
O3D O 0.47417(12) -0.14944(9) 0.81027(8)
H4D H 0.4963 -0.1649 0.8378
C3D C 0.82702(19) -0.04264(11) 0.71371(16)
O4D O 0.2930(2) -0.14630(15) 0.77299(10)
H5D H 0.2431 -0.1528 0.7792
O5D O 0.24072(15) -0.24005(8) 0.60483(9)
H7D H 0.2679 -0.2514 0.5773
C5D C 0.72143(13) -0.08995(8) 0.65267(9)
H8D H 0.7668 -0.1141 0.6548
O6D O 0.35938(10) -0.28017(6) 0.53178(9)
H9D H 0.3686 -0.3097 0.5291
C6D C 0.57201(14) -0.09133(7) 0.68874(9)
H10D H 0.5575 -0.0702 0.6579
C7D C 0.65424(13) -0.10688(8) 0.69323(9)
C8D C 0.67422(15) -0.13753(10) 0.73923(10)
C9D C 0.61483(16) -0.15163(11) 0.77809(11)
H11D H 0.6296 -0.1726 0.8090
C10D C 0.53390(15) -0.13551(10) 0.77234(10)
C11D C 0.51004(13) -0.10490(8) 0.72674(9)
C12D C 0.41930(13) -0.09145(8) 0.71913(9)
H12D H 0.3962 -0.0882 0.7590
C13D C 0.38389(13) -0.14138(8) 0.63026(9)
H13D H 0.4249 -0.1237 0.6105
C14D C 0.37141(14) -0.13108(8) 0.68866(9)
C15D C 0.3109(2) -0.15699(12) 0.71642(12)
C16D C 0.2692(2) -0.19317(13) 0.68749(13)
H14D H 0.2297 -0.2115 0.7078
C17D C 0.28402(18) -0.20319(10) 0.62965(11)
C18D C 0.34029(13) -0.17580(8) 0.59893(9)
C19D C 0.34899(13) -0.18085(8) 0.53298(9)
H15D H 0.3012 -0.2007 0.5190
C21D C 0.42753(13) -0.20685(8) 0.51568(9)
C22D C 0.42917(14) -0.25615(8) 0.51537(11)
C24D C 0.69324(14) -0.08705(8) 0.58882(9)
H18D H 0.7372 -0.0715 0.5662
H19D H 0.6428 -0.0671 0.5858
C25D C 0.67451(15) -0.13538(8) 0.56231(10)
H20D H 0.7213 -0.1572 0.5711
H21D H 0.6242 -0.1486 0.5802
C26D C 0.66103(14) -0.13228(8) 0.49656(10)
H22D H 0.6108 -0.1131 0.4882
H23D H 0.7088 -0.1156 0.4795
C27D C 0.40317(14) -0.04429(8) 0.68741(10)
H24D H 0.3427 -0.0412 0.6800
H25D H 0.4302 -0.0456 0.6491
C39? C -0.2260(11) 0.2425(5) -0.1449(5)
H36? H -0.2564 0.2608 -0.1727
C40? C -0.1988(11) 0.2656(4) -0.0944(5)
H37? H -0.2103 0.2984 -0.0890
C41? C -0.1413(13) 0.1931(4) -0.0637(5)
H38? H -0.1117 0.1744 -0.0358
C42? C -0.1704(14) 0.1736(4) -0.1145(6)
H39? H -0.1606 0.1409 -0.1214
N4? N 0.0993(10) 0.1265(5) 0.4530(11)
C48? C 0.0780(9) 0.1013(5) 0.4052(9)
H44? H 0.0661 0.1179 0.3700
C49? C 0.0725(8) 0.0518(5) 0.4049(8)
H45? H 0.0558 0.0356 0.3703
C50? C 0.0916(8) 0.0261(6) 0.4554(10)
C51? C 0.1120(8) 0.0521(5) 0.5054(10)
H46? H 0.1240 0.0364 0.5412
C52? C 0.1144(9) 0.1021(6) 0.5019(11)
H47? H 0.1275 0.1194 0.5364
loop_
_geom_bond_atom_site_label_1
_geom_bond_atom_site_label_2
_geom_bond_site_symmetry_1
_geom_bond_site_symmetry_2
O1 H1 1_555 1_555
C1 H2 1_555 1_555
O2 H3 1_555 1_555
C2 C1 1_555 1_555
O3 H4 1_555 1_555
C3 O1 1_555 1_555
O4 H5 1_555 1_555
C4 C3 1_555 1_555
H6 C4 1_555 1_555
O5 H7 1_555 1_555
C5 C2 1_555 1_555
H8 C5 1_555 1_555
O6 H9 1_555 1_555
C6 H10 1_555 1_555
C7 C5 1_555 1_555
C8 O2 1_555 1_555
C9 C8 1_555 1_555
H11 C9 1_555 1_555
C10 O3 1_555 1_555
C11 C6 1_555 1_555
C12 C11 1_555 1_555
H12 C12 1_555 1_555
C13 H13 1_555 1_555
C14 C12 1_555 1_555
C15 O4 1_555 1_555
C16 C15 1_555 1_555
H14 C16 1_555 1_555
C17 O5 1_555 1_555
C18 C13 1_555 1_555
C19 C18 1_555 1_555
H15 C19 1_555 1_555
C20 H16 1_555 1_555
C21 C19 1_555 1_555
C22 O6 1_555 1_555
C23 C22 1_555 1_555
H17 C23 1_555 1_555
C24 C5 1_555 1_555
H18 C24 1_555 1_555
H19 C24 1_555 1_555
C25 C24 1_555 1_555
H20 C25 1_555 1_555
H21 C25 1_555 1_555
C26 C25 1_555 1_555
H22 C26 1_555 1_555
H23 C26 1_555 1_555
C27 C12 1_555 1_555
H24 C27 1_555 1_555
H25 C27 1_555 1_555
C28 C27 1_555 1_555
H26 C28 1_555 1_555
H27 C28 1_555 1_555
N1 C29 1_555 1_555
C29 H28 1_555 1_555
N2 C35 1_555 1_555
C30 C29 1_555 1_555
H29 C30 1_555 1_555
C31 C30 1_555 1_555
C32 C31 1_555 1_555
H30 C32 1_555 1_555
C33 N1 1_555 1_555
H31 C33 1_555 1_555
C34 C31 1_555 1_555
C35 H32 1_555 1_555
C36 C34 1_555 1_555
H33 C36 1_555 1_555
C37 C34 1_555 1_555
H34 C37 1_555 1_555
C38 N2 1_555 1_555
H35 C38 1_555 1_555
N3 C43 1_555 1_555
C43 H40 1_555 1_555
C44 C43 1_555 1_555
H41 C44 1_555 1_555
C45 C44 1_555 1_555
C46 C45 1_555 1_555
H42 C46 1_555 1_555
C47 N3 1_555 1_555
H43 C47 1_555 1_555
O1A H1A 1_555 1_555
C1A H2A 1_555 1_555
O2A H3A 1_555 1_555
C2A C1A 1_555 1_555
O3A H4A 1_555 1_555
C3A O1A 1_555 1_555
O4A H5A 1_555 1_555
C4A C3A 1_555 1_555
H6A C4A 1_555 1_555
O5A H7A 1_555 1_555
C5A C2A 1_555 1_555
H8A C5A 1_555 1_555
O6A H9A 1_555 1_555
C6A H10A 1_555 1_555
C7A C5A 1_555 1_555
C8A O2A 1_555 1_555
C9A C8A 1_555 1_555
H11A C9A 1_555 1_555
C10A O3A 1_555 1_555
C11A C6A 1_555 1_555
C12A C11A 1_555 1_555
H12A C12A 1_555 1_555
C13A H13A 1_555 1_555
C14A C12A 1_555 1_555
C15A O4A 1_555 1_555
C16A C15A 1_555 1_555
H14A C16A 1_555 1_555
C17A O5A 1_555 1_555
C18A C13A 1_555 1_555
C19A C26 1_555 1_555
H15A C19A 1_555 1_555
C21A C20 1_555 1_555
C22A C23 1_555 1_555
C24A C5A 1_555 1_555
H18A C24A 1_555 1_555
H19A C24A 1_555 1_555
C25A C24A 1_555 1_555
H20A C25A 1_555 1_555
H21A C25A 1_555 1_555
C26A C19 1_555 1_555
H22A C26A 1_555 1_555
H23A C26A 1_555 1_555
C27A C12A 1_555 1_555
H24A C27A 1_555 1_555
H25A C27A 1_555 1_555
C28A C27A 1_555 1_555
H26A C28A 1_555 1_555
H27A C28A 1_555 1_555
O1E H1E 1_555 1_555
O2E H3E 1_555 1_555
C2E C1 1_555 1_555
O3E H4E 1_555 1_555
C3E C4 1_555 1_555
O4E H5E 1_555 1_555
O5E H7E 1_555 1_555
C5E C2E 1_555 1_555
H8E C5E 1_555 1_555
O6E H9E 1_555 1_555
C6E H10E 1_555 1_555
C7E C5E 1_555 1_555
C8E O2E 1_555 1_555
C9E C8E 1_555 1_555
H11E C9E 1_555 1_555
C10E O3E 1_555 1_555
C11E C6E 1_555 1_555
C12E C11E 1_555 1_555
H12E C12E 1_555 1_555
C13E H13E 1_555 1_555
C14E C12E 1_555 1_555
C15E O4E 1_555 1_555
C16E C15E 1_555 1_555
H14E C16E 1_555 1_555
C17E O5E 1_555 1_555
C18E C13E 1_555 1_555
C19E C18E 1_555 1_555
H15E C19E 1_555 1_555
C20D H16D 1_555 1_555
C21E C19E 1_555 1_555
C22E O6E 1_555 1_555
C23D C22E 1_555 1_555
H17D C23D 1_555 1_555
C24E C5E 1_555 1_555
H18E C24E 1_555 1_555
H19E C24E 1_555 1_555
C25E C24E 1_555 1_555
H20E C25E 1_555 1_555
H21E C25E 1_555 1_555
C26E C25E 1_555 1_555
H22E C26E 1_555 1_555
H23E C26E 1_555 1_555
C27E C28 1_555 1_555
H24E C27E 1_555 1_555
H25E C27E 1_555 1_555
O1D H1D 1_555 1_555
O2D H3D 1_555 1_555
C2D C1A 1_555 1_555
O3D H4D 1_555 1_555
C3D C4A 1_555 1_555
O4D H5D 1_555 1_555
O5D H7D 1_555 1_555
C5D C2D 1_555 1_555
H8D C5D 1_555 1_555
O6D H9D 1_555 1_555
C6D H10D 1_555 1_555
C7D C5D 1_555 1_555
C8D O2D 1_555 1_555
C9D C8D 1_555 1_555
H11D C9D 1_555 1_555
C10D O3D 1_555 1_555
C11D C6D 1_555 1_555
C12D C11D 1_555 1_555
H12D C12D 1_555 1_555
C13D H13D 1_555 1_555
C14D C12D 1_555 1_555
C15D O4D 1_555 1_555
C16D C15D 1_555 1_555
H14D C16D 1_555 1_555
C17D O5D 1_555 1_555
C18D C13D 1_555 1_555
C19D C26E 1_555 1_555
H15D C19D 1_555 1_555
C21D C20D 1_555 1_555
C22D C23D 1_555 1_555
C24D C5D 1_555 1_555
H18D C24D 1_555 1_555
H19D C24D 1_555 1_555
C25D C24D 1_555 1_555
H20D C25D 1_555 1_555
H21D C25D 1_555 1_555
C26D C19E 1_555 1_555
H22D C26D 1_555 1_555
H23D C26D 1_555 1_555
C27D C28A 1_555 1_555
H24D C27D 1_555 1_555
H25D C27D 1_555 1_555
N3E C43E 1_555 1_555
C43E H40E 1_555 1_555
C44E C43E 1_555 1_555
H41E C44E 1_555 1_555
C45E C45 1_555 1_555
C46E C45E 1_555 1_555
H42E C46E 1_555 1_555
C47E N3E 1_555 1_555
H43E C47E 1_555 1_555
C2 C3 1_555 1_555
C6 C7 1_555 1_555
C7 C8 1_555 1_555
C9 C10 1_555 1_555
C10 C11 1_555 1_555
C13 C14 1_555 1_555
C14 C15 1_555 1_555
C16 C17 1_555 1_555
C17 C18 1_555 1_555
C20 C21 1_555 1_555
C21 C22 1_555 1_555
C32 C33 1_555 1_555
C35 C36 1_555 1_555
C37 C38 1_555 1_555
C46 C47 1_555 1_555
C2A C3A 1_555 1_555
O6A C22A 1_555 1_555
C6A C7A 1_555 1_555
C7A C8A 1_555 1_555
C9A C10A 1_555 1_555
C10A C11A 1_555 1_555
C13A C14A 1_555 1_555
C14A C15A 1_555 1_555
C16A C17A 1_555 1_555
C17A C18A 1_555 1_555
C18A C19A 1_555 1_555
C19A C21A 1_555 1_555
C21A C22A 1_555 1_555
C25A C26A 1_555 1_555
O1E C3E 1_555 1_555
C2E C3E 1_555 1_555
C6E C7E 1_555 1_555
C7E C8E 1_555 1_555
C9E C10E 1_555 1_555
C10E C11E 1_555 1_555
C12E C27E 1_555 1_555
C13E C14E 1_555 1_555
C14E C15E 1_555 1_555
C16E C17E 1_555 1_555
C17E C18E 1_555 1_555
C20D C21E 1_555 1_555
C21E C22E 1_555 1_555
O1D C3D 1_555 1_555
C2D C3D 1_555 1_555
O6D C22D 1_555 1_555
C6D C7D 1_555 1_555
C7D C8D 1_555 1_555
C9D C10D 1_555 1_555
C10D C11D 1_555 1_555
C12D C27D 1_555 1_555
C13D C14D 1_555 1_555
C14D C15D 1_555 1_555
C16D C17D 1_555 1_555
C17D C18D 1_555 1_555
C18D C19D 1_555 1_555
C19D C21D 1_555 1_555
C21D C22D 1_555 1_555
C25D C26D 1_555 1_555
C44E C45E 1_555 1_555
C46E C47E 1_555 1_555

#END
