
#######################################################################
#
#                 Cambridge Crystallographic Data Centre
#                                CCDC 
#
#######################################################################
#
# If this CIF has been generated from an entry in the Cambridge 
# Structural Database, then it will include bibliographic, chemical, 
# crystal, experimental, refinement or atomic coordinate data resulting 
# from the CCDC's data processing and validation procedures.
#
#######################################################################

data_DANYAV
_chemical_name_common            
'2,20:8,62:14,32:26,44:38,56:50,68-hexakis(propan-1,3-diyl)calix[12]resorcinarene dimethyl sulfoxide solvate'
_chemical_formula_moiety         'C102 H96 O24,18(C2 H6 O1 S1)'
_chemical_name_systematic        'Noria dimethyl sulfoxide solvate'
_symmetry_cell_setting           triclinic
_symmetry_space_group_name_H-M   'P -1'
_symmetry_Int_Tables_number      2
_space_group_name_Hall           '-P 1'
loop_
_symmetry_equiv_pos_site_id
_symmetry_equiv_pos_as_xyz
1 x,y,z
2 -x,-y,-z
_cell_length_a                   15.299(11)
_cell_length_b                   15.677(12)
_cell_length_c                   19.052(14)
_cell_angle_alpha                99.478(11)
_cell_angle_beta                 111.680(10)
_cell_angle_gamma                100.227(11)
_cell_volume                     4044.15
_exptl_crystal_colour            colorless
_exptl_crystal_description       Block
_cell_formula_units_Z            1
loop_
_atom_site_label
_atom_site_type_symbol
_atom_site_fract_x
_atom_site_fract_y
_atom_site_fract_z
S1 S 0.7422(5) 0.3044(3) -0.3776(4)
O1 O 0.6420(10) 0.2969(7) -0.4246(6)
C1 C 0.8074(9) 0.3580(9) -0.4023(8)
C2 C 0.7383(14) 0.1960(9) -0.4096(10)
O2 O 0.0837(5) -0.0332(5) -0.0505(4)
C4 C -0.0472(7) -0.1012(6) -0.2638(6)
H1 H -0.0355 -0.0993 -0.3092
O3 O 0.2499(5) -0.0668(5) -0.0598(4)
H2 H 0.2900 -0.0835 -0.0247
C5 C 0.0304(7) -0.0627(6) -0.1922(5)
O4 O 0.3532(5) -0.2586(4) -0.2195(4)
H3 H 0.3901 -0.2614 -0.1750
C6 C 0.0119(7) -0.0684(7) -0.1257(5)
O5 O 0.4301(5) -0.2678(5) -0.3286(5)
H4 H 0.3924 -0.2818 -0.3072
C7 C -0.0789(7) -0.1099(7) -0.1332(6)
H5 H -0.0900 -0.1131 -0.0877
O6 O 0.5841(5) -0.0131(4) -0.3794(5)
H6 H 0.6033 0.0394 -0.3512
C8 C 0.1296(7) -0.0122(6) -0.1856(5)
H7 H 0.1649 0.0259 -0.1308
O7 O 0.6066(4) 0.1573(4) -0.3036(4)
H8 H 0.6548 0.1634 -0.2617
C9 C 0.1910(7) -0.1151(6) -0.2671(5)
H9 H 0.1515 -0.0990 -0.3120
O8 O 0.4961(4) 0.3290(4) -0.1349(4)
H10 H 0.5559 0.3547 -0.1123
C10 C 0.1902(6) -0.0764(6) -0.1954(5)
O9 O 0.3945(5) 0.4532(4) -0.1579(4)
H11 H 0.4250 0.4136 -0.1505
C11 C 0.2483(7) -0.1045(6) -0.1312(5)
O10 O 0.2217(5) 0.5581(4) -0.3710(4)
H12 H 0.1912 0.5421 -0.4197
C12 C 0.3019(7) -0.1646(6) -0.1390(6)
H13 H 0.3407 -0.1821 -0.0947
O11 O 0.1694(6) 0.5193(4) -0.5267(4)
H14 H 0.1946 0.5590 -0.5432
C13 C 0.2985(7) -0.1991(6) -0.2119(6)
O12 O 0.3010(5) 0.3411(4) -0.6733(4)
H15 H 0.3205 0.3916 -0.6798
C14 C 0.2448(6) -0.1749(6) -0.2780(5)
O13 O 0.2447(5) 0.1873(5) -0.7921(4)
H16 H 0.2751 0.2292 -0.7514
C15 C 0.2479(6) -0.2104(6) -0.3563(5)
H17 H 0.2557 -0.2726 -0.3576
C16 C 0.3410(6) -0.0741(6) -0.3797(5)
H18 H 0.2856 -0.0512 -0.3873
C17 C 0.3388(6) -0.1563(6) -0.3607(5)
C18 C 0.4225(7) -0.1869(6) -0.3473(6)
C19 C 0.5022(7) -0.1386(6) -0.3551(6)
H19 H 0.5576 -0.1616 -0.3469
C20 C 0.5020(7) -0.0573(7) -0.3746(6)
C21 C 0.4195(7) -0.0232(6) -0.3884(5)
C22 C 0.4173(6) 0.0655(6) -0.4111(5)
H20 H 0.4718 0.0802 -0.4277
C23 C 0.3649(7) 0.1680(6) -0.3226(5)
H21 H 0.2994 0.1425 -0.3594
C24 C 0.4381(7) 0.1407(6) -0.3401(5)
C25 C 0.5318(7) 0.1814(6) -0.2870(5)
C26 C 0.5521(6) 0.2442(6) -0.2194(5)
H22 H 0.6178 0.2717 -0.1837
C27 C 0.4778(7) 0.2670(6) -0.2035(5)
C28 C 0.3814(7) 0.2300(6) -0.2552(5)
C29 C 0.2985(6) 0.2621(6) -0.2401(5)
H23 H 0.3230 0.2855 -0.1823
C30 C 0.2093(6) 0.3275(6) -0.3514(5)
H24 H 0.1765 0.2675 -0.3809
C31 C 0.2781(6) 0.3411(6) -0.2759(5)
C32 C 0.3261(7) 0.4300(6) -0.2344(6)
C33 C 0.3063(6) 0.5002(6) -0.2669(6)
H25 H 0.3402 0.5601 -0.2376
C34 C 0.2366(7) 0.4833(6) -0.3425(6)
C35 C 0.1848(6) 0.3961(6) -0.3870(5)
C36 C 0.1069(6) 0.3763(6) -0.4704(5)
H26 H 0.0819 0.4308 -0.4744
C37 C 0.1678(6) 0.2834(6) -0.5578(5)
H27 H 0.1430 0.2325 -0.5431
C38 C 0.1540(6) 0.3659(6) -0.5287(5)
C39 C 0.1867(7) 0.4387(7) -0.5525(5)
C40 C 0.2348(7) 0.4318(7) -0.6014(6)
H28 H 0.2563 0.4826 -0.6177
C41 C 0.2518(7) 0.3489(7) -0.6269(5)
C42 C 0.2157(6) 0.2715(6) -0.6069(5)
C43 C 0.2242(7) 0.1816(6) -0.6437(5)
H29 H 0.2863 0.1934 -0.6510
C44 C 0.1411(7) 0.1428(6) -0.7256(5)
C45 C 0.1543(7) 0.1469(7) -0.7946(6)
C46 C 0.1200(7) 0.0516(6) -0.2382(6)
H30 H 0.0723 0.0849 -0.2335
H31 H 0.0942 0.0164 -0.2931
C47 C 0.2174(7) 0.1192(6) -0.2185(6)
H32 H 0.2463 0.1503 -0.1624
H33 H 0.2630 0.0862 -0.2282
C48 C 0.2060(6) 0.1874(6) -0.2654(5)
H34 H 0.1538 0.2144 -0.2613
H35 H 0.1852 0.1569 -0.3210
C49 C 0.3224(7) 0.0559(6) -0.4818(5)
H36 H 0.2678 0.0459 -0.4654
H37 H 0.3116 0.0018 -0.5221
C50 C 0.3186(7) 0.1362(6) -0.5192(5)
H38 H 0.3166 0.1882 -0.4830
H39 H 0.3780 0.1531 -0.5286
C51 C 0.2298(6) 0.1124(6) -0.5953(5)
H40 H 0.1712 0.1028 -0.5839
H41 H 0.2276 0.0549 -0.6274
C52 C 0.0196(6) 0.2992(6) -0.4877(5)
H42 H 0.0401 0.2427 -0.4900
H43 H -0.0007 0.3083 -0.4439
C53 C -0.0672(6) 0.2889(6) -0.5628(5)
H44 H -0.0501 0.2717 -0.6075
H45 H -0.0836 0.3472 -0.5637
C54 C -0.1562(6) 0.2180(6) -0.5716(5)
H46 H -0.1408 0.1592 -0.5744
H47 H -0.1694 0.2330 -0.5245
O2A O -0.0837(5) 0.0332(5) -0.9495(4)
C4A C 0.0472(7) 0.1012(6) -0.7362(6)
H1A H 0.0355 0.0993 -0.6908
O3A O -0.2499(5) 0.0668(5) -0.9402(4)
H2A H -0.2900 0.0835 -0.9753
C5A C -0.0304(7) 0.0627(6) -0.8078(5)
O4A O -0.3532(5) 0.2586(4) -0.7805(4)
H3A H -0.3901 0.2614 -0.8250
C6A C -0.0119(7) 0.0684(7) -0.8743(5)
O5A O -0.4301(5) 0.2678(5) -0.6714(5)
H4A H -0.3924 0.2818 -0.6928
C7A C 0.0789(7) 0.1099(7) -0.8668(6)
H5A H 0.0900 0.1131 -0.9123
O6A O -0.5841(5) 0.0131(4) -0.6206(5)
H6A H -0.6033 -0.0394 -0.6488
C8A C -0.1296(7) 0.0122(6) -0.8144(5)
H7A H -0.1649 -0.0259 -0.8692
O7A O -0.6066(4) -0.1573(4) -0.6964(4)
H8A H -0.6548 -0.1634 -0.7383
C9A C -0.1910(7) 0.1151(6) -0.7329(5)
H9A H -0.1515 0.0990 -0.6880
O8A O -0.4961(4) -0.3290(4) -0.8651(4)
H10A H -0.5559 -0.3547 -0.8877
C10A C -0.1902(6) 0.0764(6) -0.8046(5)
O9A O -0.3945(5) -0.4532(4) -0.8421(4)
H11A H -0.4250 -0.4136 -0.8495
C11A C -0.2483(7) 0.1045(6) -0.8688(5)
O10A O -0.2217(5) -0.5581(4) -0.6290(4)
H12A H -0.1912 -0.5421 -0.5803
C12A C -0.3019(7) 0.1646(6) -0.8610(6)
H13A H -0.3407 0.1821 -0.9053
O11A O -0.1694(6) -0.5193(4) -0.4733(4)
H14A H -0.1946 -0.5590 -0.4568
C13A C -0.2985(7) 0.1991(6) -0.7881(6)
O12A O -0.3010(5) -0.3411(4) -0.3267(4)
H15A H -0.3205 -0.3916 -0.3202
C14A C -0.2448(6) 0.1749(6) -0.7220(5)
O13A O -0.2447(5) -0.1873(5) -0.2079(4)
H16A H -0.2751 -0.2292 -0.2486
C15A C -0.2479(6) 0.2104(6) -0.6437(5)
H17A H -0.2557 0.2726 -0.6424
C16A C -0.3410(6) 0.0741(6) -0.6203(5)
H18A H -0.2856 0.0512 -0.6127
C17A C -0.3388(6) 0.1563(6) -0.6393(5)
C18A C -0.4225(7) 0.1869(6) -0.6527(6)
C19A C -0.5022(7) 0.1386(6) -0.6449(6)
H19A H -0.5576 0.1616 -0.6531
C20A C -0.5020(7) 0.0573(7) -0.6254(6)
C21A C -0.4195(7) 0.0232(6) -0.6116(5)
C22A C -0.4173(6) -0.0655(6) -0.5889(5)
H20A H -0.4718 -0.0802 -0.5723
C23A C -0.3649(7) -0.1680(6) -0.6774(5)
H21A H -0.2994 -0.1425 -0.6406
C24A C -0.4381(7) -0.1407(6) -0.6599(5)
C25A C -0.5318(7) -0.1814(6) -0.7130(5)
C26A C -0.5521(6) -0.2442(6) -0.7806(5)
H22A H -0.6178 -0.2717 -0.8163
C27A C -0.4778(7) -0.2670(6) -0.7965(5)
C28A C -0.3814(7) -0.2300(6) -0.7448(5)
C29A C -0.2985(6) -0.2621(6) -0.7599(5)
H23A H -0.3230 -0.2855 -0.8177
C30A C -0.2093(6) -0.3275(6) -0.6486(5)
H24A H -0.1765 -0.2675 -0.6191
C31A C -0.2781(6) -0.3411(6) -0.7241(5)
C32A C -0.3261(7) -0.4300(6) -0.7656(6)
C33A C -0.3063(6) -0.5002(6) -0.7331(6)
H25A H -0.3402 -0.5601 -0.7624
C34A C -0.2366(7) -0.4833(6) -0.6575(6)
C35A C -0.1848(6) -0.3961(6) -0.6130(5)
C36A C -0.1069(6) -0.3763(6) -0.5296(5)
H26A H -0.0819 -0.4308 -0.5256
C37A C -0.1678(6) -0.2834(6) -0.4422(5)
H27A H -0.1430 -0.2325 -0.4569
C38A C -0.1540(6) -0.3659(6) -0.4713(5)
C39A C -0.1867(7) -0.4387(7) -0.4475(5)
C40A C -0.2348(7) -0.4318(7) -0.3986(6)
H28A H -0.2563 -0.4826 -0.3823
C41A C -0.2518(7) -0.3489(7) -0.3731(5)
C42A C -0.2157(6) -0.2715(6) -0.3931(5)
C43A C -0.2242(7) -0.1816(6) -0.3563(5)
H29A H -0.2863 -0.1934 -0.3490
C44A C -0.1411(7) -0.1428(6) -0.2744(5)
C45A C -0.1543(7) -0.1469(7) -0.2054(6)
C46A C -0.1200(7) -0.0516(6) -0.7618(6)
H30A H -0.0723 -0.0849 -0.7665
H31A H -0.0942 -0.0164 -0.7069
C47A C -0.2174(7) -0.1192(6) -0.7815(6)
H32A H -0.2463 -0.1503 -0.8376
H33A H -0.2630 -0.0862 -0.7718
C48A C -0.2060(6) -0.1874(6) -0.7346(5)
H34A H -0.1538 -0.2144 -0.7387
H35A H -0.1852 -0.1569 -0.6790
C49A C -0.3224(7) -0.0559(6) -0.5182(5)
H36A H -0.2678 -0.0459 -0.5346
H37A H -0.3116 -0.0018 -0.4779
C50A C -0.3186(7) -0.1362(6) -0.4808(5)
H38A H -0.3166 -0.1882 -0.5170
H39A H -0.3780 -0.1531 -0.4714
C51A C -0.2298(6) -0.1124(6) -0.4047(5)
H40A H -0.1712 -0.1028 -0.4161
H41A H -0.2276 -0.0549 -0.3726
C52A C -0.0196(6) -0.2992(6) -0.5123(5)
H42A H -0.0401 -0.2427 -0.5100
H43A H 0.0007 -0.3083 -0.5561
C53A C 0.0672(6) -0.2889(6) -0.4372(5)
H44A H 0.0501 -0.2717 -0.3925
H45A H 0.0836 -0.3472 -0.4363
C54A C 0.1562(6) -0.2180(6) -0.4284(5)
H46A H 0.1408 -0.1592 -0.4256
H47A H 0.1694 -0.2330 -0.4755
S2 S 0.7554(2) 0.41080(19) 0.01028(16)
O14 O 0.6780(5) 0.4169(5) -0.0650(4)
C55 C 0.6967(9) 0.3948(10) 0.0747(7)
H48 H 0.6753 0.4483 0.0879
H49 H 0.7425 0.3847 0.1225
H50 H 0.6400 0.3428 0.0489
C56 C 0.7721(9) 0.3011(8) -0.0082(7)
H51 H 0.7087 0.2570 -0.0314
H52 H 0.8130 0.2898 0.0410
H53 H 0.8040 0.2962 -0.0443
S3 S 0.5002(2) 0.5075(2) 0.3354(2)
O15 O 0.3995(6) 0.5004(6) 0.3348(6)
C57 C 0.5660(9) 0.6218(7) 0.3831(8)
H54 H 0.5344 0.6608 0.3526
H55 H 0.6331 0.6306 0.3874
H56 H 0.5668 0.6366 0.4353
C58 C 0.5618(9) 0.4598(8) 0.4108(8)
H57 H 0.5619 0.4908 0.4600
H58 H 0.6291 0.4660 0.4164
H59 H 0.5286 0.3962 0.3980
S4 S 0.5114(2) 0.0353(2) -0.08394(17)
O16 O 0.6167(5) 0.0974(5) -0.0562(4)
C59 C 0.4419(10) 0.1097(9) -0.0659(8)
C60 C 0.4601(8) 0.0124(8) -0.1862(6)
S5 S 0.8296(4) 0.1406(4) -0.1479(4)
O17 O 0.7727(6) 0.2004(5) -0.1852(5)
C62 C 0.7409(12) 0.0358(11) -0.1602(10)
C63 C 0.8686(15) 0.0957(13) -0.2194(11)
O18 O 0.4920(7) -0.2649(7) -0.0914(5)
C65 C 0.5960(12) -0.3683(12) -0.0264(11)
S8 S 0.5692(12) -0.3081(11) -0.1024(8)
C66 C 0.679(2) -0.213(2) -0.0614(18)
S9 S 0.0036(2) 0.4173(2) 0.24264(18)
O19 O -0.0639(6) 0.4208(5) 0.1622(4)
C68 C -0.0510(11) 0.4480(10) 0.3065(7)
H60 H -0.0575 0.5092 0.3076
H61 H -0.0103 0.4450 0.3591
H62 H -0.1156 0.4068 0.2883
C69 C -0.0129(8) 0.3027(7) 0.2426(7)
H63 H -0.0824 0.2744 0.2252
H64 H 0.0228 0.2972 0.2956
H65 H 0.0116 0.2730 0.2072
S10 S -0.0100(4) 0.6643(4) 0.2320(4)
O20 O 0.0166(12) 0.7529(11) 0.2698(15)
C70 C -0.1322(13) 0.6260(13) 0.1651(14)
C71 C 0.0356(15) 0.6345(15) 0.1580(15)
S12 S 0.8613(6) 0.5905(6) -0.0571(5)
O22 O 0.8138(12) 0.6425(13) -0.0189(10)
C74 C 0.9634(18) 0.672(2) -0.053(2)
C75 C 0.793(2) 0.559(2) -0.1580(10)
C3? C 0.733(2) 0.351(2) -0.309(2)
C61? C 0.5784(18) 0.0480(17) -0.1439(14)
S6? S 0.8102(11) 0.0992(10) -0.1967(10)
C64? C 0.930(4) 0.130(3) -0.102(3)
S7? S 0.5929(15) -0.2780(19) -0.065(2)
C67? C 0.617(3) -0.289(2) -0.150(2)
S11? S 0.8836(12) 0.6463(12) -0.0908(10)
O21? O 0.853(3) 0.698(3) -0.031(2)
C72? C 0.964(3) 0.590(3) -0.030(2)
C73? C 0.779(2) 0.550(2) -0.138(3)
loop_
_geom_bond_atom_site_label_1
_geom_bond_atom_site_label_2
_geom_bond_site_symmetry_1
_geom_bond_site_symmetry_2
S1 O1 1_555 1_555
C1 S1 1_555 1_555
C2 S1 1_555 1_555
O2 C6 1_555 1_555
C4 H1 1_555 1_555
O3 H2 1_555 1_555
C5 C4 1_555 1_555
O4 H3 1_555 1_555
C6 C5 1_555 1_555
O5 H4 1_555 1_555
C7 C6 1_555 1_555
H5 C7 1_555 1_555
O6 H6 1_555 1_555
C8 C5 1_555 1_555
H7 C8 1_555 1_555
O7 H8 1_555 1_555
C9 H9 1_555 1_555
O8 H10 1_555 1_555
C10 C8 1_555 1_555
O9 H11 1_555 1_555
C11 O3 1_555 1_555
O10 H12 1_555 1_555
C12 C11 1_555 1_555
H13 C12 1_555 1_555
O11 H14 1_555 1_555
C13 O4 1_555 1_555
O12 H15 1_555 1_555
C14 C9 1_555 1_555
O13 H16 1_555 1_555
C15 C14 1_555 1_555
H17 C15 1_555 1_555
C16 H18 1_555 1_555
C17 C15 1_555 1_555
C18 O5 1_555 1_555
C19 C18 1_555 1_555
H19 C19 1_555 1_555
C20 O6 1_555 1_555
C21 C16 1_555 1_555
C22 C21 1_555 1_555
H20 C22 1_555 1_555
C23 H21 1_555 1_555
C24 C22 1_555 1_555
C25 O7 1_555 1_555
C26 C25 1_555 1_555
H22 C26 1_555 1_555
C27 O8 1_555 1_555
C28 C23 1_555 1_555
C29 C28 1_555 1_555
H23 C29 1_555 1_555
C30 H24 1_555 1_555
C31 C29 1_555 1_555
C32 O9 1_555 1_555
C33 C32 1_555 1_555
H25 C33 1_555 1_555
C34 O10 1_555 1_555
C35 C30 1_555 1_555
C36 C35 1_555 1_555
H26 C36 1_555 1_555
C37 H27 1_555 1_555
C38 C36 1_555 1_555
C39 O11 1_555 1_555
C40 C39 1_555 1_555
H28 C40 1_555 1_555
C41 O12 1_555 1_555
C42 C37 1_555 1_555
C43 C42 1_555 1_555
H29 C43 1_555 1_555
C44 C43 1_555 1_555
C45 O13 1_555 1_555
C46 C8 1_555 1_555
H30 C46 1_555 1_555
H31 C46 1_555 1_555
C47 C46 1_555 1_555
H32 C47 1_555 1_555
H33 C47 1_555 1_555
C48 C29 1_555 1_555
H34 C48 1_555 1_555
H35 C48 1_555 1_555
C49 C22 1_555 1_555
H36 C49 1_555 1_555
H37 C49 1_555 1_555
C50 C49 1_555 1_555
H38 C50 1_555 1_555
H39 C50 1_555 1_555
C51 C43 1_555 1_555
H40 C51 1_555 1_555
H41 C51 1_555 1_555
C52 C36 1_555 1_555
H42 C52 1_555 1_555
H43 C52 1_555 1_555
C53 C52 1_555 1_555
H44 C53 1_555 1_555
H45 C53 1_555 1_555
C54 C53 1_555 1_555
H46 C54 1_555 1_555
H47 C54 1_555 1_555
S2 O14 1_555 1_555
C55 S2 1_555 1_555
H48 C55 1_555 1_555
H49 C55 1_555 1_555
H50 C55 1_555 1_555
C56 S2 1_555 1_555
H51 C56 1_555 1_555
H52 C56 1_555 1_555
H53 C56 1_555 1_555
S3 O15 1_555 1_555
C57 S3 1_555 1_555
H54 C57 1_555 1_555
H55 C57 1_555 1_555
H56 C57 1_555 1_555
C58 S3 1_555 1_555
H57 C58 1_555 1_555
H58 C58 1_555 1_555
H59 C58 1_555 1_555
S4 O16 1_555 1_555
C59 S4 1_555 1_555
C60 S4 1_555 1_555
S5 O17 1_555 1_555
C62 S5 1_555 1_555
C63 S5 1_555 1_555
O18 S8 1_555 1_555
C65 S8 1_555 1_555
S8 C66 1_555 1_555
S9 O19 1_555 1_555
C68 S9 1_555 1_555
H60 C68 1_555 1_555
H61 C68 1_555 1_555
H62 C68 1_555 1_555
C69 S9 1_555 1_555
H63 C69 1_555 1_555
H64 C69 1_555 1_555
H65 C69 1_555 1_555
S10 O20 1_555 1_555
C70 S10 1_555 1_555
C71 S10 1_555 1_555
S12 O22 1_555 1_555
C74 S12 1_555 1_555
C75 S12 1_555 1_555
O2A C6A 1_555 1_555
C4A C44 1_555 1_555
H1A C4A 1_555 1_555
O3A H2A 1_555 1_555
C5A C4A 1_555 1_555
O4A H3A 1_555 1_555
C6A C5A 1_555 1_555
O5A H4A 1_555 1_555
C7A C45 1_555 1_555
H5A C7A 1_555 1_555
O6A H6A 1_555 1_555
C8A C5A 1_555 1_555
H7A C8A 1_555 1_555
O7A H8A 1_555 1_555
C9A H9A 1_555 1_555
O8A H10A 1_555 1_555
C10A C8A 1_555 1_555
O9A H11A 1_555 1_555
C11A O3A 1_555 1_555
O10A H12A 1_555 1_555
C12A C11A 1_555 1_555
H13A C12A 1_555 1_555
O11A H14A 1_555 1_555
C13A O4A 1_555 1_555
O12A H15A 1_555 1_555
C14A C9A 1_555 1_555
O13A H16A 1_555 1_555
C15A C54 1_555 1_555
H17A C15A 1_555 1_555
C16A H18A 1_555 1_555
C17A C15A 1_555 1_555
C18A O5A 1_555 1_555
C19A C18A 1_555 1_555
H19A C19A 1_555 1_555
C20A O6A 1_555 1_555
C21A C16A 1_555 1_555
C22A C21A 1_555 1_555
H20A C22A 1_555 1_555
C23A H21A 1_555 1_555
C24A C22A 1_555 1_555
C25A O7A 1_555 1_555
C26A C25A 1_555 1_555
H22A C26A 1_555 1_555
C27A O8A 1_555 1_555
C28A C23A 1_555 1_555
C29A C28A 1_555 1_555
H23A C29A 1_555 1_555
C30A H24A 1_555 1_555
C31A C29A 1_555 1_555
C32A O9A 1_555 1_555
C33A C32A 1_555 1_555
H25A C33A 1_555 1_555
C34A O10A 1_555 1_555
C35A C30A 1_555 1_555
C36A C35A 1_555 1_555
H26A C36A 1_555 1_555
C37A H27A 1_555 1_555
C38A C36A 1_555 1_555
C39A O11A 1_555 1_555
C40A C39A 1_555 1_555
H28A C40A 1_555 1_555
C41A O12A 1_555 1_555
C42A C37A 1_555 1_555
C43A C42A 1_555 1_555
H29A C43A 1_555 1_555
C44A C4 1_555 1_555
C45A C7 1_555 1_555
C46A C8A 1_555 1_555
H30A C46A 1_555 1_555
H31A C46A 1_555 1_555
C47A C46A 1_555 1_555
H32A C47A 1_555 1_555
H33A C47A 1_555 1_555
C48A C29A 1_555 1_555
H34A C48A 1_555 1_555
H35A C48A 1_555 1_555
C49A C22A 1_555 1_555
H36A C49A 1_555 1_555
H37A C49A 1_555 1_555
C50A C49A 1_555 1_555
H38A C50A 1_555 1_555
H39A C50A 1_555 1_555
C51A C43A 1_555 1_555
H40A C51A 1_555 1_555
H41A C51A 1_555 1_555
C52A C36A 1_555 1_555
H42A C52A 1_555 1_555
H43A C52A 1_555 1_555
C53A C52A 1_555 1_555
H44A C53A 1_555 1_555
H45A C53A 1_555 1_555
C54A C15 1_555 1_555
H46A C54A 1_555 1_555
H47A C54A 1_555 1_555
C9 C10 1_555 1_555
C10 C11 1_555 1_555
C12 C13 1_555 1_555
C13 C14 1_555 1_555
C16 C17 1_555 1_555
C17 C18 1_555 1_555
C19 C20 1_555 1_555
C20 C21 1_555 1_555
C23 C24 1_555 1_555
C24 C25 1_555 1_555
C26 C27 1_555 1_555
C27 C28 1_555 1_555
C30 C31 1_555 1_555
C31 C32 1_555 1_555
C33 C34 1_555 1_555
C34 C35 1_555 1_555
C37 C38 1_555 1_555
C38 C39 1_555 1_555
C40 C41 1_555 1_555
C41 C42 1_555 1_555
C44 C45 1_555 1_555
C47 C48 1_555 1_555
C50 C51 1_555 1_555
C6A C7A 1_555 1_555
C9A C10A 1_555 1_555
C10A C11A 1_555 1_555
C12A C13A 1_555 1_555
C13A C14A 1_555 1_555
C14A C15A 1_555 1_555
O13A C45A 1_555 1_555
C16A C17A 1_555 1_555
C17A C18A 1_555 1_555
C19A C20A 1_555 1_555
C20A C21A 1_555 1_555
C23A C24A 1_555 1_555
C24A C25A 1_555 1_555
C26A C27A 1_555 1_555
C27A C28A 1_555 1_555
C30A C31A 1_555 1_555
C31A C32A 1_555 1_555
C33A C34A 1_555 1_555
C34A C35A 1_555 1_555
C37A C38A 1_555 1_555
C38A C39A 1_555 1_555
C40A C41A 1_555 1_555
C41A C42A 1_555 1_555
C43A C44A 1_555 1_555
C44A C45A 1_555 1_555
C47A C48A 1_555 1_555
C50A C51A 1_555 1_555
C53A C54A 1_555 1_555

#END
