
#######################################################################
#
#                 Cambridge Crystallographic Data Centre
#                                CCDC 
#
#######################################################################
#
# If this CIF has been generated from an entry in the Cambridge 
# Structural Database, then it will include bibliographic, chemical, 
# crystal, experimental, refinement or atomic coordinate data resulting 
# from the CCDC's data processing and validation procedures.
#
#######################################################################

data_DAPDOQ
_chemical_formula_moiety         'C31 H40 N1 O3 P1'
_chemical_name_systematic        
'2-isopropyl-5-methylcyclohexyl ((2-hydroxyphenyl)((1-phenylethyl)amino)methyl)phenylphosphinate'
_symmetry_cell_setting           orthorhombic
_symmetry_space_group_name_H-M   'P 21 21 21'
_symmetry_Int_Tables_number      19
_space_group_name_Hall           'P 2ac 2ab'
loop_
_symmetry_equiv_pos_site_id
_symmetry_equiv_pos_as_xyz
1 x,y,z
2 1/2-x,-y,1/2+z
3 -x,1/2+y,1/2-z
4 1/2+x,1/2-y,-z
_cell_length_a                   11.4451(11)
_cell_length_b                   14.3057(13)
_cell_length_c                   18.2603(16)
_cell_angle_alpha                90
_cell_angle_beta                 90
_cell_angle_gamma                90
_cell_volume                     2989.76
_exptl_crystal_colour            colorless
_exptl_crystal_description       block
_cell_formula_units_Z            4
loop_
_atom_site_label
_atom_site_type_symbol
_atom_site_fract_x
_atom_site_fract_y
_atom_site_fract_z
P1 P 0.66319(7) 0.35807(5) 0.09330(5)
N1 N 0.6602(2) 0.48345(16) -0.00798(15)
H1 H 0.6123 0.5069 0.0233
O1 O 0.72721(18) 0.26200(14) 0.10694(13)
O2 O 0.53477(18) 0.35527(14) 0.10050(13)
O3 O 0.8826(2) 0.27540(16) -0.05758(16)
H2 H 0.9259 0.2347 -0.0737
C1 C 0.7270(3) 0.4426(2) 0.15307(19)
C2 C 0.6567(4) 0.4993(3) 0.1956(2)
H3 H 0.5761 0.4913 0.1949
C3 C 0.7058(6) 0.5681(3) 0.2391(3)
H4 H 0.6576 0.6060 0.2675
C4 C 0.8218(6) 0.5810(3) 0.2409(2)
H5 H 0.8535 0.6279 0.2700
C5 C 0.8937(4) 0.5252(3) 0.1998(3)
H6 H 0.9743 0.5334 0.2017
C6 C 0.8458(4) 0.4561(2) 0.1554(2)
H7 H 0.8946 0.4187 0.1270
C7 C 0.6755(3) 0.1892(2) 0.1537(2)
H8 H 0.5939 0.1796 0.1392
C8 C 0.6792(4) 0.2198(3) 0.2328(2)
H9 H 0.6337 0.2765 0.2387
H10 H 0.7593 0.2335 0.2465
C9 C 0.6308(5) 0.1440(3) 0.2830(2)
H11 H 0.5492 0.1338 0.2687
C10 C 0.6948(5) 0.0534(3) 0.2703(3)
H12 H 0.6588 0.0046 0.2995
H13 H 0.7751 0.0601 0.2866
C11 C 0.6940(4) 0.0246(3) 0.1913(3)
H14 H 0.6143 0.0105 0.1769
H15 H 0.7397 -0.0321 0.1859
C12 C 0.7433(4) 0.0998(2) 0.1400(2)
H16 H 0.8238 0.1116 0.1558
C13 C 0.7491(4) 0.0723(2) 0.0591(3)
H17 H 0.7838 0.1253 0.0329
C14 C 0.6299(4) 0.0540(3) 0.0244(3)
H18 H 0.5829 0.1095 0.0276
H19 H 0.5917 0.0039 0.0499
H20 H 0.6401 0.0372 -0.0261
C15 C 0.8299(5) -0.0110(3) 0.0474(3)
H21 H 0.8519 -0.0143 -0.0033
H22 H 0.7900 -0.0674 0.0610
H23 H 0.8986 -0.0038 0.0770
C16 C 0.6300(7) 0.1764(4) 0.3630(3)
H24 H 0.5977 0.2382 0.3660
H25 H 0.7085 0.1769 0.3816
H26 H 0.5834 0.1343 0.3917
C17 C 0.7116(3) 0.39068(19) 0.00269(19)
H27 H 0.7967 0.3983 0.0045
C18 C 0.6843(3) 0.3177(2) -0.05545(19)
C19 C 0.7728(3) 0.2623(2) -0.0840(2)
C20 C 0.7488(3) 0.1973(2) -0.1386(2)
H28 H 0.8087 0.1613 -0.1583
C21 C 0.6358(4) 0.1864(3) -0.1634(2)
H29 H 0.6193 0.1420 -0.1991
C22 C 0.5470(3) 0.2410(2) -0.1355(2)
H30 H 0.4710 0.2341 -0.1527
C23 C 0.5717(3) 0.3055(2) -0.0821(2)
H31 H 0.5116 0.3421 -0.0633
C24 C 0.6939(3) 0.5348(2) -0.0745(2)
H32 H 0.6685 0.4987 -0.1173
C25 C 0.8242(4) 0.5474(3) -0.0788(3)
H33 H 0.8522 0.5739 -0.0338
H34 H 0.8429 0.5885 -0.1187
H35 H 0.8607 0.4878 -0.0867
C26 C 0.6303(3) 0.6267(2) -0.0746(2)
C27 C 0.5740(4) 0.6568(3) -0.1369(3)
H36 H 0.5751 0.6197 -0.1787
C28 C 0.5155(6) 0.7419(4) -0.1378(3)
H37 H 0.4773 0.7614 -0.1801
C29 C 0.5141(6) 0.7956(4) -0.0781(4)
H38 H 0.4745 0.8524 -0.0791
C30 C 0.5693(6) 0.7687(3) -0.0162(3)
H39 H 0.5676 0.8067 0.0251
C31 C 0.6295(5) 0.6826(3) -0.0146(3)
H40 H 0.6687 0.6642 0.0276
loop_
_geom_bond_atom_site_label_1
_geom_bond_atom_site_label_2
_geom_bond_site_symmetry_1
_geom_bond_site_symmetry_2
P1 O1 1_555 1_555
N1 H1 1_555 1_555
O1 C7 1_555 1_555
O2 P1 1_555 1_555
O3 H2 1_555 1_555
C1 P1 1_555 1_555
C2 C1 1_555 1_555
H3 C2 1_555 1_555
C3 C2 1_555 1_555
H4 C3 1_555 1_555
C4 C3 1_555 1_555
H5 C4 1_555 1_555
C5 C4 1_555 1_555
H6 C5 1_555 1_555
C6 C1 1_555 1_555
H7 C6 1_555 1_555
C7 H8 1_555 1_555
C8 C7 1_555 1_555
H9 C8 1_555 1_555
H10 C8 1_555 1_555
C9 C8 1_555 1_555
H11 C9 1_555 1_555
C10 C9 1_555 1_555
H12 C10 1_555 1_555
H13 C10 1_555 1_555
C11 C10 1_555 1_555
H14 C11 1_555 1_555
H15 C11 1_555 1_555
C12 C7 1_555 1_555
H16 C12 1_555 1_555
C13 C12 1_555 1_555
H17 C13 1_555 1_555
C14 C13 1_555 1_555
H18 C14 1_555 1_555
H19 C14 1_555 1_555
H20 C14 1_555 1_555
C15 C13 1_555 1_555
H21 C15 1_555 1_555
H22 C15 1_555 1_555
H23 C15 1_555 1_555
C16 C9 1_555 1_555
H24 C16 1_555 1_555
H25 C16 1_555 1_555
H26 C16 1_555 1_555
C17 P1 1_555 1_555
H27 C17 1_555 1_555
C18 C17 1_555 1_555
C19 O3 1_555 1_555
C20 C19 1_555 1_555
H28 C20 1_555 1_555
C21 C20 1_555 1_555
H29 C21 1_555 1_555
C22 C21 1_555 1_555
H30 C22 1_555 1_555
C23 C18 1_555 1_555
H31 C23 1_555 1_555
C24 N1 1_555 1_555
H32 C24 1_555 1_555
C25 C24 1_555 1_555
H33 C25 1_555 1_555
H34 C25 1_555 1_555
H35 C25 1_555 1_555
C26 C24 1_555 1_555
C27 C26 1_555 1_555
H36 C27 1_555 1_555
C28 C27 1_555 1_555
H37 C28 1_555 1_555
C29 C28 1_555 1_555
H38 C29 1_555 1_555
C30 C29 1_555 1_555
H39 C30 1_555 1_555
C31 C26 1_555 1_555
H40 C31 1_555 1_555
N1 C17 1_555 1_555
C5 C6 1_555 1_555
C11 C12 1_555 1_555
C18 C19 1_555 1_555
C22 C23 1_555 1_555
C30 C31 1_555 1_555

#END
