
#######################################################################
#
#                 Cambridge Crystallographic Data Centre
#                                CCDC 
#
#######################################################################
#
# If this CIF has been generated from an entry in the Cambridge 
# Structural Database, then it will include bibliographic, chemical, 
# crystal, experimental, refinement or atomic coordinate data resulting 
# from the CCDC's data processing and validation procedures.
#
#######################################################################

data_DAPDUW
_chemical_formula_moiety         'C31 H40 N1 O2 P1,C1 H4 O1'
_chemical_name_systematic        
'2-isopropyl-5-methylcyclohexyl phenyl(phenyl((1-phenylethyl)amino)methyl)phosphinate methanol solvate'
_symmetry_cell_setting           monoclinic
_symmetry_space_group_name_H-M   'P 21'
_symmetry_Int_Tables_number      4
_space_group_name_Hall           'P 2yb'
loop_
_symmetry_equiv_pos_site_id
_symmetry_equiv_pos_as_xyz
1 x,y,z
2 -x,1/2+y,-z
_cell_length_a                   11.5426(11)
_cell_length_b                   5.8233(4)
_cell_length_c                   23.675(2)
_cell_angle_alpha                90
_cell_angle_beta                 90.4890(10)
_cell_angle_gamma                90
_cell_volume                     1591.28
_exptl_crystal_colour            colorless
_exptl_crystal_description       block
_cell_formula_units_Z            2
loop_
_atom_site_label
_atom_site_type_symbol
_atom_site_fract_x
_atom_site_fract_y
_atom_site_fract_z
P1 P 0.51257(15) 0.3440(4) 0.29378(8)
N1 N 0.7116(5) 0.2220(11) 0.3349(2)
H1 H 0.7007 0.3467 0.3536
O1 O 0.4296(4) 0.2616(8) 0.2448(2)
O2 O 0.5443(4) 0.5859(9) 0.2921(2)
C1 C 0.4445(6) 0.2613(15) 0.3576(3)
C2 C 0.3889(8) 0.0590(17) 0.3637(4)
H2 H 0.3819 -0.0403 0.3331
C3 C 0.3416(9) -0.002(2) 0.4159(6)
H3 H 0.3040 -0.1418 0.4198
C4 C 0.3505(9) 0.146(2) 0.4615(5)
H4 H 0.3184 0.1058 0.4961
C5 C 0.4053(7) 0.345(3) 0.4556(3)
H5 H 0.4116 0.4431 0.4865
C6 C 0.4533(6) 0.4102(18) 0.4046(3)
H6 H 0.4910 0.5506 0.4013
C7 C 0.3544(7) 0.4278(15) 0.2150(3)
H7 H 0.3983 0.5692 0.2085
C8 C 0.3221(7) 0.3238(19) 0.1592(3)
H8 H 0.2811 0.1802 0.1672
C9 C 0.2379(8) 0.478(2) 0.1280(4)
H9 H 0.2085 0.3990 0.0947
H10 H 0.2774 0.6158 0.1158
C10 C 0.1342(9) 0.544(3) 0.1676(6)
H11 H 0.0840 0.6510 0.1477
H12 H 0.0894 0.4071 0.1755
C11 C 0.1718(9) 0.650(2) 0.2222(5)
H13 H 0.2142 0.7923 0.2146
C12 C 0.2508(7) 0.4830(19) 0.2508(3)
H14 H 0.2086 0.3426 0.2586
H15 H 0.2768 0.5467 0.2865
C13 C 0.0635(10) 0.706(3) 0.2599(6)
H16 H 0.0892 0.7621 0.2960
H17 H 0.0186 0.5685 0.2651
H18 H 0.0167 0.8201 0.2415
C14 C 0.4280(9) 0.261(2) 0.1225(4)
H19 H 0.4771 0.1604 0.1456
C15 C 0.5015(9) 0.462(3) 0.1065(4)
H20 H 0.5238 0.5449 0.1399
H21 H 0.4583 0.5614 0.0818
H22 H 0.5696 0.4087 0.0875
C16 C 0.3933(11) 0.122(2) 0.0699(4)
H23 H 0.4605 0.0468 0.0549
H24 H 0.3609 0.2226 0.0418
H25 H 0.3368 0.0082 0.0800
C17 C 0.6342(6) 0.1472(14) 0.2888(3)
H26 H 0.6069 -0.0086 0.2971
C18 C 0.6912(6) 0.1474(15) 0.2309(3)
C19 C 0.7581(6) 0.330(2) 0.2118(3)
H27 H 0.7676 0.4601 0.2343
C20 C 0.8095(6) 0.320(2) 0.1603(4)
H28 H 0.8548 0.4436 0.1490
C21 C 0.7985(8) 0.138(2) 0.1241(4)
C22 C 0.7325(9) -0.039(2) 0.1436(4)
H29 H 0.7227 -0.1680 0.1208
C23 C 0.6794(7) -0.0356(17) 0.1959(3)
H30 H 0.6351 -0.1606 0.2071
C24 C 0.8079(7) 0.0685(16) 0.3463(4)
H31 H 0.8426 0.0234 0.3103
C25 C 0.7704(10) -0.139(2) 0.3761(4)
H32 H 0.7307 -0.2386 0.3502
H33 H 0.7192 -0.0966 0.4061
H34 H 0.8369 -0.2162 0.3915
C26 C 0.8966(6) 0.2022(14) 0.3805(3)
C27 C 0.8685(6) 0.3069(17) 0.4301(3)
H35 H 0.7937 0.2928 0.4439
C28 C 0.9513(8) 0.4366(17) 0.4608(3)
H36 H 0.9313 0.5094 0.4943
C29 C 1.0594(8) 0.452(2) 0.4407(5)
H37 H 1.1149 0.5351 0.4608
C30 C 1.0875(7) 0.353(3) 0.3934(4)
H38 H 1.1632 0.3651 0.3806
C31 C 1.0068(8) 0.231(2) 0.3619(4)
H39 H 1.0283 0.1675 0.3276
O3 O 0.9107(19) 0.088(3) 0.0671(4)
C32 C 0.8022(10) 0.213(5) 0.0277(6)
H40 H 0.8147 0.3758 0.0260
H41 H 0.7288 0.1825 0.0449
H42 H 0.8025 0.1506 -0.0098
loop_
_geom_bond_atom_site_label_1
_geom_bond_atom_site_label_2
_geom_bond_site_symmetry_1
_geom_bond_site_symmetry_2
P1 O1 1_555 1_555
N1 H1 1_555 1_555
O1 C7 1_555 1_555
O2 P1 1_555 1_555
C1 P1 1_555 1_555
C2 C1 1_555 1_555
H2 C2 1_555 1_555
C3 C2 1_555 1_555
H3 C3 1_555 1_555
C4 C3 1_555 1_555
H4 C4 1_555 1_555
C5 C4 1_555 1_555
H5 C5 1_555 1_555
C6 C1 1_555 1_555
H6 C6 1_555 1_555
C7 H7 1_555 1_555
C8 C7 1_555 1_555
H8 C8 1_555 1_555
C9 C8 1_555 1_555
H9 C9 1_555 1_555
H10 C9 1_555 1_555
C10 C9 1_555 1_555
H11 C10 1_555 1_555
H12 C10 1_555 1_555
C11 C10 1_555 1_555
H13 C11 1_555 1_555
C12 C7 1_555 1_555
H14 C12 1_555 1_555
H15 C12 1_555 1_555
C13 C11 1_555 1_555
H16 C13 1_555 1_555
H17 C13 1_555 1_555
H18 C13 1_555 1_555
C14 C8 1_555 1_555
H19 C14 1_555 1_555
C15 C14 1_555 1_555
H20 C15 1_555 1_555
H21 C15 1_555 1_555
H22 C15 1_555 1_555
C16 C14 1_555 1_555
H23 C16 1_555 1_555
H24 C16 1_555 1_555
H25 C16 1_555 1_555
C17 P1 1_555 1_555
H26 C17 1_555 1_555
C18 C17 1_555 1_555
C19 C18 1_555 1_555
H27 C19 1_555 1_555
C20 C19 1_555 1_555
H28 C20 1_555 1_555
C21 C20 1_555 1_555
C22 C21 1_555 1_555
H29 C22 1_555 1_555
C23 C18 1_555 1_555
H30 C23 1_555 1_555
C24 N1 1_555 1_555
H31 C24 1_555 1_555
C25 C24 1_555 1_555
H32 C25 1_555 1_555
H33 C25 1_555 1_555
H34 C25 1_555 1_555
C26 C24 1_555 1_555
C27 C26 1_555 1_555
H35 C27 1_555 1_555
C28 C27 1_555 1_555
H36 C28 1_555 1_555
C29 C28 1_555 1_555
H37 C29 1_555 1_555
C30 C29 1_555 1_555
H38 C30 1_555 1_555
C31 C26 1_555 1_555
H39 C31 1_555 1_555
O3 C32 1_555 1_555
C32 H40 1_555 1_555
H41 C32 1_555 1_555
H42 C32 1_555 1_555
N1 C17 1_555 1_555
C5 C6 1_555 1_555
C11 C12 1_555 1_555
C22 C23 1_555 1_555
C30 C31 1_555 1_555

#END
