
#######################################################################
#
#                 Cambridge Crystallographic Data Centre
#                                CCDC 
#
#######################################################################
#
# If this CIF has been generated from an entry in the Cambridge 
# Structural Database, then it will include bibliographic, chemical, 
# crystal, experimental, refinement or atomic coordinate data resulting 
# from the CCDC's data processing and validation procedures.
#
#######################################################################

data_DAPFAE
_chemical_formula_moiety         'C32 H42 N1 O2 P1'
_chemical_name_systematic        
'2-isopropyl-5-methylcyclohexyl ((4-methylphenyl)((1-phenylethyl)amino)methyl)phenylphosphinate'
_symmetry_cell_setting           monoclinic
_symmetry_space_group_name_H-M   'P 21'
_symmetry_Int_Tables_number      4
_space_group_name_Hall           'P 2yb'
loop_
_symmetry_equiv_pos_site_id
_symmetry_equiv_pos_as_xyz
1 x,y,z
2 -x,1/2+y,-z
_cell_length_a                   11.6831(13)
_cell_length_b                   5.9432(8)
_cell_length_c                   23.755(3)
_cell_angle_alpha                90
_cell_angle_beta                 102.913(2)
_cell_angle_gamma                90
_cell_volume                     1607.72
_exptl_crystal_colour            colorless
_exptl_crystal_description       block
_cell_formula_units_Z            2
loop_
_atom_site_label
_atom_site_type_symbol
_atom_site_fract_x
_atom_site_fract_y
_atom_site_fract_z
P1 P 0.6139(3) 0.4839(6) 0.71787(13)
N1 N 0.7918(9) 0.3629(16) 0.6738(4)
H1 H 0.7694 0.4822 0.6539
O1 O 0.6470(7) 0.7285(15) 0.7195(3)
O2 O 0.5548(8) 0.3983(13) 0.7694(3)
C1 C 0.5106(11) 0.405(2) 0.6490(4)
C2 C 0.5025(12) 0.544(3) 0.6024(4)
H2 H 0.5452 0.6775 0.6061
C3 C 0.4300(16) 0.486(4) 0.5493(7)
H3 H 0.4223 0.5830 0.5180
C4 C 0.3706(16) 0.287(4) 0.5432(7)
H4 H 0.3247 0.2491 0.5072
C5 C 0.3760(15) 0.136(3) 0.5892(9)
H5 H 0.3337 0.0021 0.5851
C6 C 0.4519(14) 0.203(3) 0.6435(7)
H6 H 0.4610 0.1081 0.6752
C7 C 0.4959(11) 0.572(2) 0.8006(5)
H7 H 0.5442 0.7085 0.8070
C8 C 0.3715(13) 0.633(3) 0.7650(6)
H8 H 0.3241 0.4976 0.7574
H9 H 0.3775 0.6966 0.7282
C9 C 0.3108(16) 0.805(4) 0.7980(9)
H10 H 0.3593 0.9409 0.8045
C10 C 0.3065(16) 0.704(4) 0.8584(8)
H11 H 0.2740 0.8152 0.8803
H12 H 0.2550 0.5741 0.8529
C11 C 0.4285(15) 0.634(4) 0.8927(7)
H13 H 0.4206 0.5663 0.9289
H14 H 0.4770 0.7669 0.9019
C12 C 0.4911(12) 0.465(3) 0.8603(5)
H15 H 0.4412 0.3312 0.8523
C13 C 0.6136(15) 0.387(3) 0.8961(6)
H16 H 0.6448 0.2792 0.8722
C14 C 0.6077(18) 0.265(4) 0.9528(7)
H17 H 0.6025 0.3734 0.9820
H18 H 0.6772 0.1751 0.9654
H19 H 0.5398 0.1689 0.9463
C15 C 0.7027(15) 0.582(4) 0.9099(7)
H20 H 0.6883 0.6666 0.9420
H21 H 0.6943 0.6780 0.8768
H22 H 0.7809 0.5216 0.9195
C16 C 0.1887(18) 0.871(5) 0.7622(11)
H23 H 0.1956 0.9235 0.7250
H24 H 0.1564 0.9880 0.7818
H25 H 0.1378 0.7420 0.7577
C17 C 0.7388(10) 0.295(2) 0.7233(4)
H26 H 0.7073 0.1426 0.7151
C18 C 0.8280(11) 0.287(2) 0.7824(5)
C19 C 0.8323(12) 0.101(3) 0.8174(6)
H27 H 0.7808 -0.0176 0.8054
C20 C 0.9134(16) 0.087(3) 0.8715(6)
H28 H 0.9139 -0.0395 0.8945
C21 C 0.9923(14) 0.262(4) 0.8904(7)
C22 C 0.9871(12) 0.458(4) 0.8553(6)
H29 H 1.0369 0.5790 0.8671
C23 C 0.9038(11) 0.462(3) 0.8016(5)
H30 H 0.9002 0.5896 0.7785
C24 C 1.0838(18) 0.260(5) 0.9498(7)
H31 H 1.0433 0.2725 0.9806
H32 H 1.1367 0.3848 0.9514
H33 H 1.1275 0.1219 0.9537
C25 C 0.8856(12) 0.212(2) 0.6608(7)
H34 H 0.9375 0.1656 0.6973
C26 C 0.8270(19) -0.002(3) 0.6280(8)
H35 H 0.7722 -0.0649 0.6483
H36 H 0.8864 -0.1110 0.6259
H37 H 0.7864 0.0393 0.5897
C27 C 0.9582(13) 0.347(2) 0.6251(6)
C28 C 1.0760(14) 0.382(3) 0.6447(7)
H38 H 1.1130 0.3192 0.6800
C29 C 1.1436(14) 0.507(4) 0.6145(8)
H39 H 1.2240 0.5218 0.6288
C30 C 1.0884(16) 0.610(3) 0.5618(7)
H40 H 1.1312 0.6972 0.5413
C31 C 0.9694(16) 0.578(3) 0.5418(6)
H41 H 0.9315 0.6442 0.5071
C32 C 0.9039(12) 0.447(3) 0.5729(6)
H42 H 0.8237 0.4280 0.5585
loop_
_geom_bond_atom_site_label_1
_geom_bond_atom_site_label_2
_geom_bond_site_symmetry_1
_geom_bond_site_symmetry_2
P1 O1 1_555 1_555
N1 H1 1_555 1_555
O2 P1 1_555 1_555
C1 P1 1_555 1_555
C2 C1 1_555 1_555
H2 C2 1_555 1_555
C3 C2 1_555 1_555
H3 C3 1_555 1_555
C4 C3 1_555 1_555
H4 C4 1_555 1_555
C5 C4 1_555 1_555
H5 C5 1_555 1_555
C6 C1 1_555 1_555
H6 C6 1_555 1_555
C7 O2 1_555 1_555
H7 C7 1_555 1_555
C8 C7 1_555 1_555
H8 C8 1_555 1_555
H9 C8 1_555 1_555
C9 C8 1_555 1_555
H10 C9 1_555 1_555
C10 C9 1_555 1_555
H11 C10 1_555 1_555
H12 C10 1_555 1_555
C11 C10 1_555 1_555
H13 C11 1_555 1_555
H14 C11 1_555 1_555
C12 C7 1_555 1_555
H15 C12 1_555 1_555
C13 C12 1_555 1_555
H16 C13 1_555 1_555
C14 C13 1_555 1_555
H17 C14 1_555 1_555
H18 C14 1_555 1_555
H19 C14 1_555 1_555
C15 C13 1_555 1_555
H20 C15 1_555 1_555
H21 C15 1_555 1_555
H22 C15 1_555 1_555
C16 C9 1_555 1_555
H23 C16 1_555 1_555
H24 C16 1_555 1_555
H25 C16 1_555 1_555
C17 P1 1_555 1_555
H26 C17 1_555 1_555
C18 C17 1_555 1_555
C19 C18 1_555 1_555
H27 C19 1_555 1_555
C20 C19 1_555 1_555
H28 C20 1_555 1_555
C21 C20 1_555 1_555
C22 C21 1_555 1_555
H29 C22 1_555 1_555
C23 C18 1_555 1_555
H30 C23 1_555 1_555
C24 C21 1_555 1_555
H31 C24 1_555 1_555
H32 C24 1_555 1_555
H33 C24 1_555 1_555
C25 N1 1_555 1_555
H34 C25 1_555 1_555
C26 C25 1_555 1_555
H35 C26 1_555 1_555
H36 C26 1_555 1_555
H37 C26 1_555 1_555
C27 C25 1_555 1_555
C28 C27 1_555 1_555
H38 C28 1_555 1_555
C29 C28 1_555 1_555
H39 C29 1_555 1_555
C30 C29 1_555 1_555
H40 C30 1_555 1_555
C31 C30 1_555 1_555
H41 C31 1_555 1_555
C32 C27 1_555 1_555
H42 C32 1_555 1_555
N1 C17 1_555 1_555
C5 C6 1_555 1_555
C11 C12 1_555 1_555
C22 C23 1_555 1_555
C31 C32 1_555 1_555

#END
