
#######################################################################
#
#                 Cambridge Crystallographic Data Centre
#                                CCDC 
#
#######################################################################
#
# If this CIF has been generated from an entry in the Cambridge 
# Structural Database, then it will include bibliographic, chemical, 
# crystal, experimental, refinement or atomic coordinate data resulting 
# from the CCDC's data processing and validation procedures.
#
#######################################################################

data_DAPJOW
_chemical_name_common            
3beta-Acetoxy-5beta,6beta-epoxy-17a-homo-17-oxa-androstan-16-one
_chemical_formula_moiety         'C21 H30 O5'
_chemical_name_systematic        
'4a,6b-dimethyl-2-oxohexadecahydrooxireno[4,4a]naphtho[2,1-f]isochromen-9-yl acetate'
_chemical_properties_biological  
'significant antiproliferative activity, especially toward MDA-MB-231 and HeLa cell lines'
_symmetry_cell_setting           monoclinic
_symmetry_space_group_name_H-M   'P 21'
_symmetry_Int_Tables_number      4
_space_group_name_Hall           'P 2yb'
loop_
_symmetry_equiv_pos_site_id
_symmetry_equiv_pos_as_xyz
1 x,y,z
2 -x,1/2+y,-z
_cell_length_a                   9.7064(5)
_cell_length_b                   8.2100(4)
_cell_length_c                   12.3173(6)
_cell_angle_alpha                90
_cell_angle_beta                 102.558(5)
_cell_angle_gamma                90
_cell_volume                     958.078
_exptl_crystal_colour            colorless
_exptl_crystal_description       prism
_cell_formula_units_Z            2
loop_
_atom_site_label
_atom_site_type_symbol
_atom_site_fract_x
_atom_site_fract_y
_atom_site_fract_z
O1 O 0.8433(2) 0.8379(3) 0.09952(16)
O2 O 0.5187(2) 0.4023(3) 0.11328(16)
O3 O 0.1310(2) 0.2368(3) 0.52705(18)
O4 O 0.2160(3) -0.0065(3) 0.5215(2)
O5 O 0.9665(3) 0.9830(4) 0.2410(2)
C1 C 0.3096(3) 0.3672(3) 0.3912(2)
C2 C 0.3755(3) 0.4145(3) 0.2935(2)
C3 C 0.7494(3) 0.7778(4) 0.1687(2)
C4 C 0.1709(3) 0.4537(3) 0.3945(2)
C5 C 0.3938(3) 0.6005(3) 0.2915(2)
C6 C 0.6006(3) 0.3922(4) 0.2251(2)
C7 C 0.9435(3) 0.9446(4) 0.1459(3)
C8 C 0.1963(3) 0.6375(4) 0.3939(2)
H1 H 0.1080 0.6942 0.3915
H2 H 0.2618 0.6686 0.4620
C9 C 0.4641(3) 0.6675(4) 0.1976(2)
C10 C 0.5753(3) 0.5507(4) 0.1709(2)
C11 C 0.2557(3) 0.6877(4) 0.2948(2)
H3 H 0.2719 0.8044 0.2976
H4 H 0.1868 0.6639 0.2270
C12 C 0.5194(3) 0.3318(4) 0.3060(2)
H5 H 0.5740 0.3502 0.3809
H6 H 0.5054 0.2153 0.2962
C13 C 0.6856(3) 0.6237(4) 0.1148(2)
H7 H 0.7600 0.5444 0.1161
H8 H 0.6424 0.6460 0.0375
C14 C 0.2115(3) 0.1310(4) 0.4876(3)
C15 C 0.6362(3) 0.8997(4) 0.1734(2)
H9 H 0.5843 0.9249 0.0988
H10 H 0.6781 0.9995 0.2077
C16 C 0.2892(3) 0.1832(4) 0.4007(3)
H11 H 0.2384 0.1429 0.3292
H12 H 0.3814 0.1318 0.4167
C17 C 0.5370(3) 0.8285(4) 0.2411(2)
H13 H 0.4645 0.9086 0.2444
H14 H 0.5900 0.8110 0.3165
C18 C 0.0484(3) 0.4043(5) 0.2999(2)
H15 H 0.0291 0.2903 0.3058
H16 H 0.0730 0.4252 0.2298
H17 H -0.0340 0.4663 0.3046
C19 C 0.1349(3) 0.4105(4) 0.5053(2)
H18 H 0.2040 0.4607 0.5646
H19 H 0.0435 0.4568 0.5072
C20 C 0.3556(3) 0.6964(5) 0.0883(2)
H20 H 0.4039 0.7247 0.0307
H21 H 0.2936 0.7836 0.0981
H22 H 0.3015 0.5989 0.0677
C21 C 1.0220(4) 1.0046(6) 0.0624(3)
H23 H 1.1048 1.0623 0.0998
H24 H 0.9626 1.0764 0.0111
H25 H 1.0492 0.9138 0.0227
H26 H 0.378(3) 0.405(3) 0.458(2)
H27 H 0.805(3) 0.749(4) 0.236(2)
H28 H 0.463(3) 0.630(3) 0.363(2)
H29 H 0.692(3) 0.347(4) 0.234(2)
H30 H 0.311(3) 0.375(4) 0.223(2)
loop_
_geom_bond_atom_site_label_1
_geom_bond_atom_site_label_2
_geom_bond_site_symmetry_1
_geom_bond_site_symmetry_2
O1 C3 1_555 1_555
O2 C6 1_555 1_555
O3 C14 1_555 1_555
O4 C14 1_555 1_555
O5 C7 1_555 1_555
C1 C2 1_555 1_555
C2 C5 1_555 1_555
C3 C13 1_555 1_555
C4 C1 1_555 1_555
C5 C9 1_555 1_555
C6 C10 1_555 1_555
C7 O1 1_555 1_555
C8 C4 1_555 1_555
H1 C8 1_555 1_555
H2 C8 1_555 1_555
C9 C10 1_555 1_555
C10 O2 1_555 1_555
C11 C5 1_555 1_555
H3 C11 1_555 1_555
H4 C11 1_555 1_555
C12 C2 1_555 1_555
H5 C12 1_555 1_555
H6 C12 1_555 1_555
C13 C10 1_555 1_555
H7 C13 1_555 1_555
H8 C13 1_555 1_555
C14 C16 1_555 1_555
C15 C3 1_555 1_555
H9 C15 1_555 1_555
H10 C15 1_555 1_555
C16 C1 1_555 1_555
H11 C16 1_555 1_555
H12 C16 1_555 1_555
C17 C9 1_555 1_555
H13 C17 1_555 1_555
H14 C17 1_555 1_555
C18 C4 1_555 1_555
H15 C18 1_555 1_555
H16 C18 1_555 1_555
H17 C18 1_555 1_555
C19 O3 1_555 1_555
H18 C19 1_555 1_555
H19 C19 1_555 1_555
C20 C9 1_555 1_555
H20 C20 1_555 1_555
H21 C20 1_555 1_555
H22 C20 1_555 1_555
C21 C7 1_555 1_555
H23 C21 1_555 1_555
H24 C21 1_555 1_555
H25 C21 1_555 1_555
H26 C1 1_555 1_555
H27 C3 1_555 1_555
H28 C5 1_555 1_555
H29 C6 1_555 1_555
H30 C2 1_555 1_555
C4 C19 1_555 1_555
C6 C12 1_555 1_555
C8 C11 1_555 1_555
C15 C17 1_555 1_555

#END
