
#######################################################################
#
#                 Cambridge Crystallographic Data Centre
#                                CCDC 
#
#######################################################################
#
# If this CIF has been generated from an entry in the Cambridge 
# Structural Database, then it will include bibliographic, chemical, 
# crystal, experimental, refinement or atomic coordinate data resulting 
# from the CCDC's data processing and validation procedures.
#
#######################################################################

data_DAPJAF
_chemical_name_common            '1-Methyl-chininium iodide'
_chemical_formula_moiety         'C21 H27 N2 O2 1+,I1 1-'
_chemical_name_systematic        
"(8S,9R)-9-Hydroxy-6'-methoxy-1-methyl-cinchoninium iodide"
_symmetry_cell_setting           orthorhombic
_symmetry_space_group_name_H-M   'P 21 21 21'
_symmetry_Int_Tables_number      19
_space_group_name_Hall           'P 2ac 2ab'
loop_
_symmetry_equiv_pos_site_id
_symmetry_equiv_pos_as_xyz
1 x,y,z
2 1/2+x,1/2-y,-z
3 -x,1/2+y,1/2-z
4 1/2-x,-y,1/2+z
_cell_length_a                   7.524(3)
_cell_length_b                   11.510(4)
_cell_length_c                   26.137(7)
_cell_angle_alpha                90
_cell_angle_beta                 90
_cell_angle_gamma                90
_cell_volume                     2263.5
_cell_formula_units_Z            4
loop_
_atom_site_label
_atom_site_type_symbol
_atom_site_fract_x
_atom_site_fract_y
_atom_site_fract_z
I1 I 0.7834(1) 0.8076(1) 0.8125(1)
N1 N 0.2534(10) 0.5659(6) 0.8201(2)
C1 C 0.0753(14) 0.5112(10) 0.8051(4)
C2 C 0.0560(14) 0.3907(10) 0.8299(4)
C3 C 0.1968(15) 0.3842(8) 0.8721(4)
C4 C 0.3757(14) 0.3766(9) 0.8475(5)
C5 C 0.3963(13) 0.4767(10) 0.8101(5)
C6 C 0.1869(14) 0.4916(7) 0.9054(3)
C7 C 0.2439(12) 0.6006(7) 0.8767(3)
C8 C 0.4156(12) 0.6529(8) 0.8963(3)
C9 C -0.1273(15) 0.3641(10) 0.8491(5)
C10 C -0.1880(20) 0.2578(14) 0.8534(7)
C11 C 0.2817(18) 0.6671(9) 0.7860(3)
O1 O 0.5413(9) 0.5645(6) 0.9058(2)
N2 N 0.3234(11) 0.8457(6) 1.0362(3)
C12 C 0.3617(14) 0.7357(8) 1.0369(3)
C13 C 0.3910(13) 0.6684(8) 0.9918(3)
C14 C 0.3799(11) 0.7223(7) 0.9449(3)
C15 C 0.3196(14) 0.9056(8) 0.8975(4)
C16 C 0.2808(21) 1.0209(8) 0.8997(4)
C17 C 0.2612(22) 1.0784(9) 0.9465(4)
C18 C 0.2753(21) 1.0200(9) 0.9894(4)
C19 C 0.2783(24) 1.0358(10) 0.8066(4)
C20 C 0.3140(13) 0.9007(7) 0.9901(3)
C21 C 0.3364(12) 0.8412(7) 0.9430(3)
O2 O 0.2588(16) 1.0899(6) 0.8559(3)
H1 H -0.0195 0.5603 0.8169
H2 H 0.0691 0.5038 0.7686
H3 H 0.0747 0.3319 0.8044
H4 H 0.1764 0.3173 0.8933
H5 H 0.4665 0.3813 0.8733
H6 H 0.3861 0.3042 0.8295
H7 H 0.3855 0.4481 0.7757
H8 H 0.5110 0.5118 0.8145
H9 H 0.0666 0.5014 0.9168
H10 H 0.2633 0.4812 0.9345
H11 H 0.1595 0.6619 0.8821
H12 H 0.4629 0.7042 0.8708
H13 H -0.2034 0.4275 0.8586
H14 H -0.338(13) 0.2189(89) 0.8666(37)
H15 H -0.098(16) 0.1874(11) 0.8504(44)
H16 H 0.3929 0.7035 0.7942
H17 H 0.1868 0.7219 0.7907
H18 H 0.2837 0.6418 0.7510
H19 H 0.631(16) 0.5856(93) 0.9139(43)
H20 H 0.3711 0.6977 1.0695
H21 H 0.4175 0.5870 0.9941
H22 H 0.3357 0.8682 0.8650
H23 H 0.2370 1.1603 0.9472
H24 H 0.2589 1.0601 1.0212
H25 H 0.2611 1.0927 0.7802
H26 H 0.1916 0.9752 0.8029
H27 H 0.3954 1.0034 0.8037
loop_
_geom_bond_atom_site_label_1
_geom_bond_atom_site_label_2
_geom_bond_site_symmetry_1
_geom_bond_site_symmetry_2
N1 C1 1_555 1_555
C1 C2 1_555 1_555
C2 C3 1_555 1_555
C3 C4 1_555 1_555
C4 C5 1_555 1_555
C5 N1 1_555 1_555
C6 C3 1_555 1_555
C7 N1 1_555 1_555
C8 C7 1_555 1_555
C9 C2 1_555 1_555
C10 C9 1_555 1_555
C11 N1 1_555 1_555
O1 C8 1_555 1_555
N2 C12 1_555 1_555
C12 C13 1_555 1_555
C13 C14 1_555 1_555
C14 C8 1_555 1_555
C15 C16 1_555 1_555
C16 C17 1_555 1_555
C17 C18 1_555 1_555
C18 C20 1_555 1_555
C19 O2 1_555 1_555
C20 N2 1_555 1_555
C21 C14 1_555 1_555
O2 C16 1_555 1_555
H1 C1 1_555 1_555
H2 C1 1_555 1_555
H3 C2 1_555 1_555
H4 C3 1_555 1_555
H5 C4 1_555 1_555
H6 C4 1_555 1_555
H7 C5 1_555 1_555
H8 C5 1_555 1_555
H9 C6 1_555 1_555
H10 C6 1_555 1_555
H11 C7 1_555 1_555
H12 C8 1_555 1_555
H13 C9 1_555 1_555
H14 C10 1_555 1_555
H15 C10 1_555 1_555
H16 C11 1_555 1_555
H17 C11 1_555 1_555
H18 C11 1_555 1_555
H19 O1 1_555 1_555
H20 C12 1_555 1_555
H21 C13 1_555 1_555
H22 C15 1_555 1_555
H23 C17 1_555 1_555
H24 C18 1_555 1_555
H25 C19 1_555 1_555
H26 C19 1_555 1_555
H27 C19 1_555 1_555
C6 C7 1_555 1_555
C15 C21 1_555 1_555
C20 C21 1_555 1_555

#END
