
#######################################################################
#
#                 Cambridge Crystallographic Data Centre
#                                CCDC 
#
#######################################################################
#
# If this CIF has been generated from an entry in the Cambridge 
# Structural Database, then it will include bibliographic, chemical, 
# crystal, experimental, refinement or atomic coordinate data resulting 
# from the CCDC's data processing and validation procedures.
#
#######################################################################

data_DAPKOX
_chemical_name_common            
3beta-Acetoxy-5alpha,6beta-dibromo-17a-homo-17-oxa-androstan-16-one
_chemical_formula_moiety         'C21 H30 Br2 O4'
_chemical_name_systematic        
'6,6a-dibromo-10a,12a-dimethyl-3-oxohexadecahydro-1H-naphtho[2,1-f]isochromen-8-yl acetate'
_chemical_properties_biological  
'significant antiproliferative activity, especially toward MDA-MB-231 and HeLa cell lines'
_symmetry_cell_setting           monoclinic
_symmetry_space_group_name_H-M   'P 21'
_symmetry_Int_Tables_number      4
_space_group_name_Hall           'P 2yb'
loop_
_symmetry_equiv_pos_site_id
_symmetry_equiv_pos_as_xyz
1 x,y,z
2 -x,1/2+y,-z
_cell_length_a                   10.1402(3)
_cell_length_b                   7.9647(2)
_cell_length_c                   13.0181(4)
_cell_angle_alpha                90
_cell_angle_beta                 91.239(3)
_cell_angle_gamma                90
_cell_volume                     1051.14
_exptl_crystal_colour            colorless
_exptl_crystal_description       prism
_cell_formula_units_Z            2
loop_
_atom_site_label
_atom_site_type_symbol
_atom_site_fract_x
_atom_site_fract_y
_atom_site_fract_z
Br1 Br 0.45702(10) 0.81684(14) 0.22826(9)
Br2 Br 0.63780(15) 0.4276(3) 0.44247(10)
O1 O 0.8463(7) 0.6526(10) 0.0967(5)
O2 O -0.0547(7) 0.2234(15) 0.4545(7)
O3 O 0.0212(9) 0.2286(13) 0.6138(7)
C1 C 0.5468(7) 0.5968(11) 0.2615(5)
O4 O 0.8620(10) 0.9327(14) 0.1223(10)
C2 C 0.6892(8) 0.6268(12) 0.2348(6)
H1 H 0.7417 0.5305 0.2560
H2 H 0.7221 0.7241 0.2721
C3 C 0.1559(10) 0.0679(13) 0.3311(8)
H3 H 0.1106 -0.0088 0.2856
H4 H 0.1402 0.0367 0.4010
H5 H 0.2488 0.0638 0.3187
C4 C 0.3211(7) 0.4049(11) 0.3454(5)
H6 H 0.3699 0.3022 0.3628
C5 C 0.7046(8) 0.6556(13) 0.1191(6)
H7 H 0.6680 0.7656 0.1005
C6 C 0.4797(7) 0.4535(11) 0.1983(5)
C7 C 0.1640(9) 0.3393(15) 0.4899(7)
H8 H 0.2357 0.2644 0.5096
H9 H 0.1770 0.4427 0.5281
C8 C 0.1050(8) 0.2457(14) 0.3118(7)
C9 C 0.9126(9) 0.7978(16) 0.1027(7)
C10 C 0.3340(7) 0.4361(12) 0.2289(5)
H10 H 0.2932 0.5457 0.2153
C11 C 0.2549(8) 0.3096(18) 0.1649(6)
H11 H 0.2983 0.2012 0.1694
H12 H 0.2547 0.3446 0.0936
C12 C 0.3841(9) 0.5498(14) 0.4058(6)
H13 H 0.3314 0.6500 0.3943
H14 H 0.3816 0.5235 0.4784
C13 C 0.5523(9) 0.2838(12) 0.2165(7)
H15 H 0.5590 0.2251 0.1524
H16 H 0.5036 0.2167 0.2637
H17 H 0.6390 0.3048 0.2445
C14 C 0.5242(9) 0.5879(13) 0.3786(5)
H18 H 0.5464 0.6981 0.4076
C15 C -0.0395(9) 0.257(2) 0.3470(10)
H19 H -0.0728 0.3691 0.3321
H20 H -0.0926 0.1781 0.3075
C16 C 0.6407(10) 0.5247(17) 0.0546(6)
H21 H 0.6902 0.4210 0.0616
H22 H 0.6432 0.5589 -0.0169
C17 C 0.1779(7) 0.3798(12) 0.3762(7)
H23 H 0.1322 0.4865 0.3638
C18 C 0.1122(9) 0.2902(18) 0.1989(8)
H24 H 0.0651 0.3945 0.1864
H25 H 0.0693 0.2030 0.1583
C19 C 0.0392(10) 0.2620(15) 0.5242(9)
C20 C 0.4951(9) 0.4922(15) 0.0840(6)
H26 H 0.4427 0.5904 0.0663
H27 H 0.4609 0.3986 0.0439
C21 C 1.0574(11) 0.775(2) 0.0815(11)
H28 H 1.0772 0.8249 0.0165
H29 H 1.0778 0.6573 0.0796
H30 H 1.1092 0.8280 0.1349
loop_
_geom_bond_atom_site_label_1
_geom_bond_atom_site_label_2
_geom_bond_site_symmetry_1
_geom_bond_site_symmetry_2
Br1 C1 1_555 1_555
Br2 C14 1_555 1_555
O1 C5 1_555 1_555
O2 C15 1_555 1_555
O3 C19 1_555 1_555
C1 C2 1_555 1_555
O4 C9 1_555 1_555
C2 H1 1_555 1_555
H2 C2 1_555 1_555
C3 H3 1_555 1_555
H4 C3 1_555 1_555
H5 C3 1_555 1_555
C4 H6 1_555 1_555
C5 C2 1_555 1_555
H7 C5 1_555 1_555
C6 C1 1_555 1_555
C7 H8 1_555 1_555
H9 C7 1_555 1_555
C8 C3 1_555 1_555
C9 O1 1_555 1_555
C10 C4 1_555 1_555
H10 C10 1_555 1_555
C11 C10 1_555 1_555
H11 C11 1_555 1_555
H12 C11 1_555 1_555
C12 C4 1_555 1_555
H13 C12 1_555 1_555
H14 C12 1_555 1_555
C13 C6 1_555 1_555
H15 C13 1_555 1_555
H16 C13 1_555 1_555
H17 C13 1_555 1_555
C14 C1 1_555 1_555
H18 C14 1_555 1_555
C15 C8 1_555 1_555
H19 C15 1_555 1_555
H20 C15 1_555 1_555
C16 C5 1_555 1_555
H21 C16 1_555 1_555
H22 C16 1_555 1_555
C17 C4 1_555 1_555
H23 C17 1_555 1_555
C18 C8 1_555 1_555
H24 C18 1_555 1_555
H25 C18 1_555 1_555
C19 O2 1_555 1_555
C20 C6 1_555 1_555
H26 C20 1_555 1_555
H27 C20 1_555 1_555
C21 C9 1_555 1_555
H28 C21 1_555 1_555
H29 C21 1_555 1_555
H30 C21 1_555 1_555
C6 C10 1_555 1_555
C7 C17 1_555 1_555
C7 C19 1_555 1_555
C8 C17 1_555 1_555
C11 C18 1_555 1_555
C12 C14 1_555 1_555
C16 C20 1_555 1_555

#END
