
#######################################################################
#
#                 Cambridge Crystallographic Data Centre
#                                CCDC 
#
#######################################################################
#
# If this CIF has been generated from an entry in the Cambridge 
# Structural Database, then it will include bibliographic, chemical, 
# crystal, experimental, refinement or atomic coordinate data resulting 
# from the CCDC's data processing and validation procedures.
#
#######################################################################

data_DAPKAH
_chemical_formula_moiety         'C19 H33 N1 O6'
_chemical_name_systematic        
'(4R,5R,6R)-6-di-n-propylcarbamoyl-2-methylidene-4-hydroxy-5,6-O-isopropylidenehexanoic acid ethyl ester'
_symmetry_cell_setting           orthorhombic
_symmetry_space_group_name_H-M   'P 21 21 21'
_symmetry_Int_Tables_number      19
_space_group_name_Hall           'P 2ac 2ab'
loop_
_symmetry_equiv_pos_site_id
_symmetry_equiv_pos_as_xyz
1 x,y,z
2 1/2+x,1/2-y,-z
3 -x,1/2+y,1/2-z
4 1/2-x,-y,1/2+z
_cell_length_a                   5.73880(10)
_cell_length_b                   9.49090(10)
_cell_length_c                   38.2430(8)
_cell_angle_alpha                90
_cell_angle_beta                 90
_cell_angle_gamma                90
_cell_volume                     2082.96
_exptl_crystal_colour            colorless
_exptl_crystal_description       prism
_cell_formula_units_Z            4
loop_
_atom_site_label
_atom_site_type_symbol
_atom_site_fract_x
_atom_site_fract_y
_atom_site_fract_z
C1 C 0.2283(5) 0.6648(3) 0.59953(6)
C2 C 0.0756(5) 0.7362(3) 0.57193(7)
H1 H -0.0186 0.6637 0.5593
C3 C -0.0853(5) 0.8556(3) 0.58520(7)
H2 H -0.2460 0.8394 0.5759
C4 C -0.1004(5) 0.8809(3) 0.62433(6)
H3 H 0.0582 0.9068 0.6330
C5 C -0.2663(5) 1.0032(3) 0.63219(6)
H4 H -0.2016 1.0904 0.6218
H5 H -0.4178 0.9843 0.6207
C6 C -0.3074(5) 1.0278(3) 0.67045(6)
C7 C -0.1396(7) 1.1207(3) 0.68849(8)
C8 C -0.0880(13) 1.2539(7) 0.74164(18)
H6 H -0.1905 1.2960 0.7596
H7 H -0.0390 1.3301 0.7256
C10 C 0.1221(15) 1.1942(8) 0.7590(2)
H10 H 0.2061 1.2694 0.7712
H11 H 0.2241 1.1517 0.7414
H12 H 0.0743 1.1221 0.7759
C12 C 0.3217(5) 0.4662(3) 0.63612(6)
H16 H 0.4869 0.4875 0.6309
H17 H 0.3012 0.3628 0.6345
C13 C 0.2684(5) 0.5125(3) 0.67310(6)
H18 H 0.1084 0.4831 0.6794
H19 H 0.2762 0.6166 0.6746
C14 C 0.4408(6) 0.4485(4) 0.69871(8)
H20 H 0.4034 0.4799 0.7225
H21 H 0.5990 0.4787 0.6926
H22 H 0.4312 0.3455 0.6976
C15 C -0.0451(4) 0.4629(3) 0.60134(6)
H23 H -0.1645 0.5349 0.5960
H24 H -0.0982 0.4100 0.6222
C16 C -0.0264(5) 0.3616(3) 0.57056(7)
H25 H 0.0448 0.4110 0.5504
H26 H 0.0764 0.2820 0.5770
C17 C -0.2637(6) 0.3053(3) 0.56008(7)
H27 H -0.2461 0.2402 0.5404
H28 H -0.3645 0.3839 0.5532
H29 H -0.3337 0.2556 0.5799
C18 C 0.1318(5) 0.9363(3) 0.53866(6)
C19 C -0.0315(6) 0.9197(3) 0.50766(7)
H30 H -0.0973 1.0117 0.5015
H31 H -0.1577 0.8548 0.5138
H32 H 0.0553 0.8820 0.4877
C20 C 0.3270(5) 1.0374(3) 0.53204(7)
H33 H 0.2629 1.1293 0.5254
H34 H 0.4255 1.0015 0.5131
H35 H 0.4205 1.0477 0.5533
C21 C -0.4843(5) 0.9718(3) 0.68758(7)
H36 H -0.5047 0.9912 0.7118
H37 H -0.5913 0.9122 0.6757
N1 N 0.1746(4) 0.5338(2) 0.60963(5)
O1 O 0.3999(3) 0.7289(2) 0.61073(5)
O2 O 0.2307(4) 0.8041(2) 0.54818(5)
O3 O 0.0093(3) 0.97961(18) 0.56906(4)
O4 O -0.1708(3) 0.75411(19) 0.64121(4)
H38 H -0.3048 0.7316 0.6344
O5 O 0.026(4) 1.178(2) 0.6744(10)
O7 O -0.2178(8) 1.1509(4) 0.72230(9)
C9? C 0.0539(13) 1.1617(8) 0.7454(2)
H8? H 0.1034 1.1052 0.7659
H9? H 0.1945 1.1865 0.7318
C11? C -0.0612(15) 1.2889(8) 0.7572(2)
H13? H 0.0463 1.3441 0.7717
H14? H -0.1990 1.2639 0.7710
H15? H -0.1088 1.3449 0.7369
O6? O -0.017(4) 1.207(2) 0.6739(10)
O8? O -0.1055(9) 1.0788(5) 0.72372(10)
loop_
_geom_bond_atom_site_label_1
_geom_bond_atom_site_label_2
_geom_bond_site_symmetry_1
_geom_bond_site_symmetry_2
C1 C2 1_555 1_555
C2 H1 1_555 1_555
C3 C2 1_555 1_555
H2 C3 1_555 1_555
C4 C3 1_555 1_555
H3 C4 1_555 1_555
C5 C4 1_555 1_555
H4 C5 1_555 1_555
H5 C5 1_555 1_555
C6 C5 1_555 1_555
C7 C6 1_555 1_555
C8 H6 1_555 1_555
H7 C8 1_555 1_555
C10 C8 1_555 1_555
H10 C10 1_555 1_555
H11 C10 1_555 1_555
H12 C10 1_555 1_555
C12 H16 1_555 1_555
H17 C12 1_555 1_555
C13 C12 1_555 1_555
H18 C13 1_555 1_555
H19 C13 1_555 1_555
C14 C13 1_555 1_555
H20 C14 1_555 1_555
H21 C14 1_555 1_555
H22 C14 1_555 1_555
C15 H23 1_555 1_555
H24 C15 1_555 1_555
C16 C15 1_555 1_555
H25 C16 1_555 1_555
H26 C16 1_555 1_555
C17 C16 1_555 1_555
H27 C17 1_555 1_555
H28 C17 1_555 1_555
H29 C17 1_555 1_555
C18 C19 1_555 1_555
C19 H30 1_555 1_555
H31 C19 1_555 1_555
H32 C19 1_555 1_555
C20 C18 1_555 1_555
H33 C20 1_555 1_555
H34 C20 1_555 1_555
H35 C20 1_555 1_555
C21 C6 1_555 1_555
H36 C21 1_555 1_555
H37 C21 1_555 1_555
N1 C1 1_555 1_555
O1 C1 1_555 1_555
O2 C2 1_555 1_555
O3 C3 1_555 1_555
O4 C4 1_555 1_555
H38 O4 1_555 1_555
O5 C7 1_555 1_555
O7 C7 1_555 1_555
C8 O7 1_555 1_555
C12 N1 1_555 1_555
C15 N1 1_555 1_555
C18 O2 1_555 1_555
C18 O3 1_555 1_555

#END
