
#######################################################################
#
#                 Cambridge Crystallographic Data Centre
#                                CCDC 
#
#######################################################################
#
# If this CIF has been generated from an entry in the Cambridge 
# Structural Database, then it will include bibliographic, chemical, 
# crystal, experimental, refinement or atomic coordinate data resulting 
# from the CCDC's data processing and validation procedures.
#
#######################################################################

data_DAPLOW
_chemical_formula_moiety         'C19 H26 N4'
_chemical_name_systematic        
5,9-dihydro-2,4,10,12-tetramethyl-1,5,9,13-monobenzotetraazacyclo[15]tetradecine
_symmetry_cell_setting           monoclinic
_symmetry_space_group_name_H-M   'P 21/c'
_symmetry_Int_Tables_number      14
_space_group_name_Hall           '-P 2ybc'
loop_
_symmetry_equiv_pos_site_id
_symmetry_equiv_pos_as_xyz
1 x,y,z
2 -x,1/2+y,1/2-z
3 -x,-y,-z
4 x,1/2-y,1/2+z
_cell_length_a                   11.7526(13)
_cell_length_b                   9.3961(10)
_cell_length_c                   16.7167(18)
_cell_angle_alpha                90
_cell_angle_beta                 107.130(2)
_cell_angle_gamma                90
_cell_volume                     1764.11
_exptl_crystal_colour            yellow
_exptl_crystal_description       plate
_cell_formula_units_Z            4
_exptl_crystal_recrystallization_method 'dichloromethane/methyl alcohol'
loop_
_atom_site_label
_atom_site_type_symbol
_atom_site_fract_x
_atom_site_fract_y
_atom_site_fract_z
N1 N 0.71838(12) 0.98060(13) 0.19144(8)
N2 N 0.85580(11) 0.98044(13) 0.08735(8)
N3 N 0.83832(13) 0.70301(15) 0.05189(9)
N4 N 0.67763(13) 0.69989(15) 0.18266(9)
C1 C 0.80259(13) 1.09068(15) 0.20060(9)
C2 C 0.82481(14) 1.18903(16) 0.26576(10)
C3 C 0.91781(14) 1.28552(17) 0.27873(10)
C4 C 0.99019(14) 1.28415(17) 0.22677(10)
C5 C 0.96909(14) 1.18724(16) 0.16163(10)
C6 C 0.87572(13) 1.09020(15) 0.14721(9)
C7 C 0.83106(13) 1.00353(16) 0.00746(9)
C8 C 0.8237(2) 1.1508(2) -0.02945(12)
C9 C 0.80819(14) 0.88635(18) -0.04951(10)
C10 C 0.81116(14) 0.74466(18) -0.02819(10)
C11 C 0.7866(2) 0.6327(2) -0.09528(13)
C12 C 0.85053(17) 0.55779(18) 0.08339(13)
C13 C 0.74194(17) 0.49896(19) 0.10505(12)
C14 C 0.72385(17) 0.55600(18) 0.18620(12)
C15 C 0.56229(15) 0.73789(18) 0.15563(11)
C16 C 0.47052(19) 0.6202(2) 0.13680(18)
C17 C 0.52690(16) 0.87736(19) 0.14554(13)
C18 C 0.60593(15) 0.99816(18) 0.15748(11)
C19 C 0.55086(18) 1.1404(2) 0.12665(17)
H1 H 0.5830 1.2130 0.1694
H2 H 0.4643 1.1346 0.1154
H3 H 0.5695 1.1659 0.0750
H4 H 0.7749(14) 1.1874(17) 0.3038(10)
H5 H 0.9325(15) 1.3523(18) 0.3263(11)
H6 H 1.0549(14) 1.3508(17) 0.2360(10)
H7 H 1.0185(15) 1.1850(18) 0.1261(10)
H8 H 0.7762(15) 1.1490(18) -0.0882(12)
H9 H 0.7915(19) 1.220(2) 0.0011(13)
H10 H 0.905(2) 1.185(2) -0.0268(12)
H11 H 0.7879(13) 0.9061(17) -0.1078(10)
H12 H 0.7567(18) 0.676(2) -0.1515(14)
H13 H 0.7274(18) 0.566(2) -0.0880(12)
H14 H 0.860(2) 0.574(2) -0.0898(13)
H15 H 0.9200(16) 0.5545(19) 0.1349(12)
H16 H 0.8698(16) 0.4981(19) 0.0404(12)
H17 H 0.7527(15) 0.395(2) 0.1099(11)
H18 H 0.6686(15) 0.5151(17) 0.0576(11)
H19 H 0.6666(15) 0.4933(17) 0.2038(10)
H20 H 0.8014(17) 0.5551(19) 0.2288(11)
H21 H 0.4825(18) 0.554(2) 0.0936(13)
H22 H 0.390(2) 0.664(2) 0.1152(14)
H23 H 0.4763(19) 0.561(3) 0.1897(15)
H24 H 0.4447(18) 0.899(2) 0.1227(12)
H25 H 0.8501(17) 0.776(2) 0.0883(12)
H26 H 0.7281(17) 0.779(2) 0.1920(12)
H27? H 0.6041 1.2197 0.1264
H28? H 0.4717 1.1639 0.1507
H29? H 0.4796 1.1446 0.0793
loop_
_geom_bond_atom_site_label_1
_geom_bond_atom_site_label_2
_geom_bond_site_symmetry_1
_geom_bond_site_symmetry_2
N1 C1 1_555 1_555
N2 C6 1_555 1_555
N3 C10 1_555 1_555
N4 C14 1_555 1_555
C1 C2 1_555 1_555
C2 C3 1_555 1_555
C3 C4 1_555 1_555
C4 C5 1_555 1_555
C5 C6 1_555 1_555
C6 C1 1_555 1_555
C7 N2 1_555 1_555
C8 C7 1_555 1_555
C9 C7 1_555 1_555
C10 C9 1_555 1_555
C11 C10 1_555 1_555
C12 N3 1_555 1_555
C13 C12 1_555 1_555
C14 C13 1_555 1_555
C15 N4 1_555 1_555
C16 C15 1_555 1_555
C17 C15 1_555 1_555
C18 N1 1_555 1_555
C19 C18 1_555 1_555
H1 C19 1_555 1_555
H2 C19 1_555 1_555
H3 C19 1_555 1_555
H4 C2 1_555 1_555
H5 C3 1_555 1_555
H6 C4 1_555 1_555
H7 C5 1_555 1_555
H8 C8 1_555 1_555
H9 C8 1_555 1_555
H10 C8 1_555 1_555
H11 C9 1_555 1_555
H12 C11 1_555 1_555
H13 C11 1_555 1_555
H14 C11 1_555 1_555
H15 C12 1_555 1_555
H16 C12 1_555 1_555
H17 C13 1_555 1_555
H18 C13 1_555 1_555
H19 C14 1_555 1_555
H20 C14 1_555 1_555
H21 C16 1_555 1_555
H22 C16 1_555 1_555
H23 C16 1_555 1_555
H24 C17 1_555 1_555
H25 N3 1_555 1_555
H26 N4 1_555 1_555
C17 C18 1_555 1_555

#END
