
#######################################################################
#
#                 Cambridge Crystallographic Data Centre
#                                CCDC 
#
#######################################################################
#
# If this CIF has been generated from an entry in the Cambridge 
# Structural Database, then it will include bibliographic, chemical, 
# crystal, experimental, refinement or atomic coordinate data resulting 
# from the CCDC's data processing and validation procedures.
#
#######################################################################

data_DAQBUU
_chemical_formula_moiety         'C23 H30 N2'
_chemical_name_systematic        
2,6-Di-isopropyl-N-(4-(phenylimino)pent-2-en-2-yl)aniline
_symmetry_cell_setting           triclinic
_symmetry_space_group_name_H-M   'P -1'
_symmetry_Int_Tables_number      2
_space_group_name_Hall           '-P 1'
loop_
_symmetry_equiv_pos_site_id
_symmetry_equiv_pos_as_xyz
1 x,y,z
2 -x,-y,-z
_cell_length_a                   9.650(4)
_cell_length_b                   11.038(5)
_cell_length_c                   11.101(5)
_cell_angle_alpha                112.159(7)
_cell_angle_beta                 97.821(7)
_cell_angle_gamma                102.366(5)
_cell_volume                     1038.51
_exptl_crystal_colour            colorless
_exptl_crystal_description       block
_cell_formula_units_Z            2
loop_
_atom_site_label
_atom_site_type_symbol
_atom_site_fract_x
_atom_site_fract_y
_atom_site_fract_z
N1 N 0.1100(2) 0.2362(2) 0.8404(2)
H1 H 0.153(3) 0.333(3) 0.818(3)
N2 N 0.2995(2) 0.4023(2) 0.7760(2)
C1 C 0.1844(4) 0.0514(3) 0.8781(3)
H2 H 0.1664 0.0775 0.9670
H3 H 0.2693 0.0175 0.8752
H4 H 0.0999 -0.0197 0.8129
C2 C 0.2116(3) 0.1730(3) 0.8458(2)
C3 C 0.3474(3) 0.2194(3) 0.8201(3)
H5 H 0.4155 0.1710 0.8254
C4 C 0.3908(3) 0.3296(3) 0.7878(3)
C5 C 0.5394(4) 0.3597(4) 0.7597(4)
H6 H 0.5371 0.3987 0.6947
H7 H 0.5666 0.2756 0.7241
H8 H 0.6105 0.4240 0.8420
C6 C -0.0280(3) 0.1965(2) 0.8713(2)
C7 C -0.0394(3) 0.2569(2) 1.0040(2)
C8 C -0.1759(3) 0.2239(3) 1.0317(3)
H9 H -0.1858 0.2630 1.1202
C9 C -0.2971(3) 0.1339(3) 0.9300(3)
H10 H -0.3884 0.1123 0.9497
C10 C -0.2832(3) 0.0760(3) 0.7996(3)
H11 H -0.3659 0.0154 0.7314
C11 C -0.1488(3) 0.1056(2) 0.7669(3)
C12 C 0.0907(3) 0.3553(3) 1.1181(3)
H12 H 0.1774 0.3634 1.0800
C13 C 0.0711(4) 0.4972(3) 1.1807(3)
H13 H 0.0617 0.5330 1.1135
H14 H 0.1554 0.5572 1.2536
H15 H -0.0162 0.4919 1.2149
C14 C 0.1223(4) 0.3037(3) 1.2258(3)
H16 H 0.0425 0.3019 1.2703
H17 H 0.2124 0.3642 1.2910
H18 H 0.1320 0.2123 1.1846
C15 C -0.1373(5) 0.0430(4) 0.6233(3)
H19 H -0.0317 0.0614 0.6257
C16 C -0.1978(5) 0.1101(4) 0.5435(3)
H20 H -0.1853 0.0697 0.4530
H21 H -0.1465 0.2070 0.5846
H22 H -0.3009 0.0974 0.5410
C17 C -0.2019(5) -0.1088(3) 0.5549(3)
H23 H -0.3065 -0.1317 0.5470
H24 H -0.1581 -0.1503 0.6072
H25 H -0.1828 -0.1429 0.4664
C18 C 0.3324(3) 0.5125(3) 0.7386(3)
C19 C 0.2392(4) 0.5073(3) 0.6288(3)
H26 H 0.1596 0.4291 0.5780
C20 C 0.2621(4) 0.6157(4) 0.5933(3)
H27 H 0.1973 0.6114 0.5195
C21 C 0.3799(4) 0.7308(4) 0.6657(4)
H28 H 0.3970 0.8039 0.6405
C22 C 0.4714(4) 0.7363(3) 0.7751(3)
H29 H 0.5515 0.8142 0.8251
C23 C 0.4477(3) 0.6295(3) 0.8129(3)
H30 H 0.5100 0.6361 0.8894
loop_
_geom_bond_atom_site_label_1
_geom_bond_atom_site_label_2
_geom_bond_site_symmetry_1
_geom_bond_site_symmetry_2
N1 H1 1_555 1_555
N2 C4 1_555 1_555
C1 H2 1_555 1_555
H3 C1 1_555 1_555
H4 C1 1_555 1_555
C2 N1 1_555 1_555
C3 C2 1_555 1_555
H5 C3 1_555 1_555
C4 C3 1_555 1_555
C5 C4 1_555 1_555
H6 C5 1_555 1_555
H7 C5 1_555 1_555
H8 C5 1_555 1_555
C6 N1 1_555 1_555
C7 C6 1_555 1_555
C8 C7 1_555 1_555
H9 C8 1_555 1_555
C9 C8 1_555 1_555
H10 C9 1_555 1_555
C10 C9 1_555 1_555
H11 C10 1_555 1_555
C11 C6 1_555 1_555
C12 C7 1_555 1_555
H12 C12 1_555 1_555
C13 C12 1_555 1_555
H13 C13 1_555 1_555
H14 C13 1_555 1_555
H15 C13 1_555 1_555
C14 C12 1_555 1_555
H16 C14 1_555 1_555
H17 C14 1_555 1_555
H18 C14 1_555 1_555
C15 C11 1_555 1_555
H19 C15 1_555 1_555
C16 C15 1_555 1_555
H20 C16 1_555 1_555
H21 C16 1_555 1_555
H22 C16 1_555 1_555
C17 C15 1_555 1_555
H23 C17 1_555 1_555
H24 C17 1_555 1_555
H25 C17 1_555 1_555
C18 N2 1_555 1_555
C19 C18 1_555 1_555
H26 C19 1_555 1_555
C20 C19 1_555 1_555
H27 C20 1_555 1_555
C21 C20 1_555 1_555
H28 C21 1_555 1_555
C22 C21 1_555 1_555
H29 C22 1_555 1_555
C23 C18 1_555 1_555
H30 C23 1_555 1_555
C1 C2 1_555 1_555
C10 C11 1_555 1_555
C22 C23 1_555 1_555

#END
