
#######################################################################
#
#                 Cambridge Crystallographic Data Centre
#                                CCDC 
#
#######################################################################
#
# If this CIF has been generated from an entry in the Cambridge 
# Structural Database, then it will include bibliographic, chemical, 
# crystal, experimental, refinement or atomic coordinate data resulting 
# from the CCDC's data processing and validation procedures.
#
#######################################################################

data_DAQFEG01
_chemical_name_common            S-Sumanene
_chemical_formula_moiety         'C18 H6 S3'
_chemical_name_systematic        
triphenyleno[1,12-bcd:4,5-b'c'd':8,9-b''c''d'']tristhiophene
_symmetry_cell_setting           monoclinic
_symmetry_space_group_name_H-M   'P 21'
_symmetry_Int_Tables_number      4
_space_group_name_Hall           'P 2yb'
loop_
_symmetry_equiv_pos_site_id
_symmetry_equiv_pos_as_xyz
1 x,y,z
2 -x,1/2+y,-z
_cell_length_a                   9.785(3)
_cell_length_b                   7.3055(19)
_cell_length_c                   9.929(3)
_cell_angle_alpha                90
_cell_angle_beta                 118.840(2)
_cell_angle_gamma                90
_cell_volume                     621.735
_exptl_crystal_colour            colorless
_exptl_crystal_description       Cuboid
_cell_formula_units_Z            2
loop_
_atom_site_label
_atom_site_type_symbol
_atom_site_fract_x
_atom_site_fract_y
_atom_site_fract_z
C1 C 0.3481(3) 0.4162(5) 0.6262(3)
C2 C 0.4633(4) 0.4985(5) 0.5988(4)
H1 H 0.5584 0.5322 0.6817
C3 C 0.4367(3) 0.5297(5) 0.4498(3)
H2 H 0.5146 0.5830 0.4348
C4 C 0.2948(4) 0.4824(4) 0.3223(3)
C5 C 0.1852(3) 0.3900(4) 0.3487(3)
C6 C 0.0315(3) 0.3942(4) 0.2262(3)
C7 C 0.0124(4) 0.4910(4) 0.0976(3)
C8 C -0.1409(4) 0.5451(5) -0.0098(3)
H3 H -0.1591 0.6026 -0.1005
C9 C -0.2650(4) 0.5134(5) 0.0187(3)
H4 H -0.3647 0.5513 -0.0530
C10 C -0.2423(3) 0.4251(5) 0.1540(3)
C11 C -0.0938(3) 0.3619(4) 0.2523(3)
C12 C -0.0658(4) 0.3233(4) 0.4048(3)
C13 C -0.1932(3) 0.3524(4) 0.4273(3)
C14 C -0.1623(4) 0.3647(4) 0.5819(3)
H5 H -0.2451 0.3730 0.6027
C15 C -0.0107(4) 0.3646(4) 0.7027(3)
H6 H 0.0061 0.3731 0.8030
C16 C 0.1183(4) 0.3520(4) 0.6768(3)
C17 C 0.0862(3) 0.3231(4) 0.5258(3)
C18 C 0.2137(3) 0.3573(4) 0.4985(3)
S1 S 0.31878(9) 0.41023(13) 0.79043(8)
S2 S -0.35790(8) 0.41324(13) 0.24830(8)
S3 S 0.19980(10) 0.56072(13) 0.12634(9)
loop_
_geom_bond_atom_site_label_1
_geom_bond_atom_site_label_2
_geom_bond_site_symmetry_1
_geom_bond_site_symmetry_2
C1 C2 1_555 1_555
C2 H1 1_555 1_555
C3 C2 1_555 1_555
H2 C3 1_555 1_555
C4 C3 1_555 1_555
C5 C4 1_555 1_555
C6 C5 1_555 1_555
C7 C6 1_555 1_555
C8 C7 1_555 1_555
H3 C8 1_555 1_555
C9 C8 1_555 1_555
H4 C9 1_555 1_555
C10 C9 1_555 1_555
C11 C6 1_555 1_555
C12 C11 1_555 1_555
C13 C12 1_555 1_555
C14 C13 1_555 1_555
H5 C14 1_555 1_555
C15 C14 1_555 1_555
H6 C15 1_555 1_555
C16 C15 1_555 1_555
C17 C12 1_555 1_555
C18 C1 1_555 1_555
S1 C1 1_555 1_555
S2 C10 1_555 1_555
S3 C4 1_555 1_555
C5 C18 1_555 1_555
C7 S3 1_555 1_555
C10 C11 1_555 1_555
C13 S2 1_555 1_555
C16 C17 1_555 1_555
C16 S1 1_555 1_555
C17 C18 1_555 1_555

#END
