
#######################################################################
#
#                 Cambridge Crystallographic Data Centre
#                                CCDC 
#
#######################################################################
#
# If this CIF has been generated from an entry in the Cambridge 
# Structural Database, then it will include bibliographic, chemical, 
# crystal, experimental, refinement or atomic coordinate data resulting 
# from the CCDC's data processing and validation procedures.
#
#######################################################################

data_DAQKEM
_chemical_formula_moiety         'C23 H32 N2 O4'
_chemical_name_systematic        
'(2S)-5,6-Dioxo-4-((1R)-1-phenylethyl)piperazine-2-carboxylic acid (-)-(1R)-menthyl ester'
_symmetry_cell_setting           orthorhombic
_symmetry_space_group_name_H-M   'P 21 21 21'
_symmetry_Int_Tables_number      19
_space_group_name_Hall           'P 2ac 2ab'
loop_
_symmetry_equiv_pos_site_id
_symmetry_equiv_pos_as_xyz
1 x,y,z
2 1/2-x,-y,1/2+z
3 1/2+x,1/2-y,-z
4 -x,1/2+y,1/2-z
_cell_length_a                   10.623(5)
_cell_length_b                   22.528(9)
_cell_length_c                   9.611(4)
_cell_angle_alpha                90
_cell_angle_beta                 90
_cell_angle_gamma                90
_cell_volume                     2300.06
_cell_formula_units_Z            4
loop_
_atom_site_label
_atom_site_type_symbol
_atom_site_fract_x
_atom_site_fract_y
_atom_site_fract_z
C1 C 0.9556(4) 0.97573(19) 0.1601(4)
H1 H 0.8774 0.9944 0.1319
H2 H 0.9541 0.9348 0.1287
C2 C 1.0648(4) 1.00761(18) 0.0944(4)
H3 H 1.0618 0.9988 -0.0053
C3 C 1.2542(4) 1.17840(19) 0.2883(5)
H4 H 1.3316 1.1552 0.2765
C4 C 1.0795(4) 0.9786(2) 0.3746(4)
C5 C 1.1974(4) 0.97494(19) 0.2834(5)
C6 C 1.1698(5) 1.16301(18) 0.1670(5)
H5 H 1.0879 1.1825 0.1779
C7 C 0.8497(4) 0.9709(2) 0.3944(5)
H6 H 0.8743 0.9708 0.4927
C8 C 0.6500(4) 1.0221(2) 0.3040(4)
H7 H 0.6196 0.9859 0.2723
C9 C 0.7669(4) 1.0246(2) 0.3721(4)
C10 C 1.2260(5) 1.1786(2) 0.0274(5)
H8 H 1.1652 1.17 -0.0452
H9 H 1.2996 1.1541 0.0111
C11 C 1.0538(4) 1.07519(19) 0.1089(4)
C12 C 1.2923(5) 1.2442(2) 0.2781(5)
H10 H 1.2183 1.2688 0.291
H11 H 1.3512 1.2535 0.3521
C13 C 0.5796(4) 1.0730(2) 0.2834(5)
H12 H 0.5032 1.071 0.2362
C14 C 1.3527(5) 1.2589(2) 0.1379(5)
H13 H 1.3733 1.3008 0.1346
H14 H 1.4302 1.2366 0.1275
C15 C 0.8071(4) 1.0793(2) 0.4212(5)
H15 H 0.8839 1.082 0.4672
C16 C 1.1996(5) 1.1612(2) 0.4314(5)
H16 H 1.1745 1.1195 0.4249
C17 C 1.2634(5) 1.2437(2) 0.0193(5)
H17 H 1.1872 1.2678 0.0298
C18 C 0.7906(5) 0.9111(2) 0.3640(6)
H18 H 0.8478 0.8801 0.3906
H19 H 0.7729 0.9081 0.2664
H20 H 0.7138 0.9072 0.4158
C19 C 0.7353(5) 1.1297(2) 0.4028(6)
H21 H 0.7631 1.1658 0.4381
C20 C 0.6230(5) 1.1267(2) 0.3329(5)
H22 H 0.5759 1.161 0.3189
C21 C 1.2995(6) 1.1649(2) 0.5462(5)
H23 H 1.2647 1.1505 0.632
H24 H 1.3256 1.2054 0.5577
H25 H 1.3708 1.1411 0.5208
C22 C 1.3226(7) 1.2580(3) -0.1235(6)
H26 H 1.3924 1.2318 -0.14
H27 H 1.3515 1.2984 -0.1241
H28 H 1.2607 1.2527 -0.1952
C23 C 1.0838(5) 1.1954(3) 0.4733(7)
H29 H 1.0207 1.1915 0.4024
H30 H 1.1049 1.2366 0.4846
H31 H 1.052 1.18 0.5595
N1 N 0.9667(3) 0.97744(16) 0.3118(4)
N2 N 1.1829(3) 0.98430(15) 0.1457(4)
O1 O 1.0926(3) 0.98188(17) 0.5022(3)
O2 O 1.2971(3) 0.96261(15) 0.3371(3)
O3 O 0.9664(3) 1.10268(13) 0.0648(4)
O4 O 1.1541(3) 1.09828(12) 0.1713(3)
loop_
_geom_bond_atom_site_label_1
_geom_bond_atom_site_label_2
_geom_bond_site_symmetry_1
_geom_bond_site_symmetry_2
C1 H1 1_555 1_555
H2 C1 1_555 1_555
C2 C1 1_555 1_555
H3 C2 1_555 1_555
C3 H4 1_555 1_555
C4 C5 1_555 1_555
C5 N2 1_555 1_555
C6 C3 1_555 1_555
H5 C6 1_555 1_555
C7 H6 1_555 1_555
C8 H7 1_555 1_555
C9 C7 1_555 1_555
C10 C6 1_555 1_555
H8 C10 1_555 1_555
H9 C10 1_555 1_555
C11 C2 1_555 1_555
C12 C3 1_555 1_555
H10 C12 1_555 1_555
H11 C12 1_555 1_555
C13 C8 1_555 1_555
H12 C13 1_555 1_555
C14 C12 1_555 1_555
H13 C14 1_555 1_555
H14 C14 1_555 1_555
C15 C9 1_555 1_555
H15 C15 1_555 1_555
C16 C3 1_555 1_555
H16 C16 1_555 1_555
C17 C10 1_555 1_555
H17 C17 1_555 1_555
C18 C7 1_555 1_555
H18 C18 1_555 1_555
H19 C18 1_555 1_555
H20 C18 1_555 1_555
C19 C15 1_555 1_555
H21 C19 1_555 1_555
C20 C13 1_555 1_555
H22 C20 1_555 1_555
C21 C16 1_555 1_555
H23 C21 1_555 1_555
H24 C21 1_555 1_555
H25 C21 1_555 1_555
C22 C17 1_555 1_555
H26 C22 1_555 1_555
H27 C22 1_555 1_555
H28 C22 1_555 1_555
C23 C16 1_555 1_555
H29 C23 1_555 1_555
H30 C23 1_555 1_555
H31 C23 1_555 1_555
N1 C1 1_555 1_555
N2 C2 1_555 1_555
O1 C4 1_555 1_555
O2 C5 1_555 1_555
O3 C11 1_555 1_555
O4 C6 1_555 1_555
C4 N1 1_555 1_555
C7 N1 1_555 1_555
C8 C9 1_555 1_555
C11 O4 1_555 1_555
C14 C17 1_555 1_555
C19 C20 1_555 1_555

#END
