
#######################################################################
#
#                 Cambridge Crystallographic Data Centre
#                                CCDC 
#
#######################################################################
#
# If this CIF has been generated from an entry in the Cambridge 
# Structural Database, then it will include bibliographic, chemical, 
# crystal, experimental, refinement or atomic coordinate data resulting 
# from the CCDC's data processing and validation procedures.
#
#######################################################################

data_DAQKEO
_chemical_formula_moiety         'C25 H32 N1 O4 P1'
_chemical_name_systematic        
'methyl 5,5-dicyclohexyl-2-methoxy-5-phosphinolino[4,3-d][1,3]oxazole-4-carboxylate'
_symmetry_cell_setting           monoclinic
_symmetry_space_group_name_H-M   'P 21/n'
_symmetry_Int_Tables_number      14
_space_group_name_Hall           '-P 2yn'
loop_
_symmetry_equiv_pos_site_id
_symmetry_equiv_pos_as_xyz
1 x,y,z
2 1/2-x,1/2+y,1/2-z
3 -x,-y,-z
4 1/2+x,1/2-y,1/2+z
_cell_length_a                   10.4068(7)
_cell_length_b                   15.3428(9)
_cell_length_c                   14.8201(9)
_cell_angle_alpha                90
_cell_angle_beta                 98.146(6)
_cell_angle_gamma                90
_cell_volume                     2342.44
_exptl_crystal_colour            yellow
_exptl_crystal_description       block
_cell_formula_units_Z            4
loop_
_atom_site_label
_atom_site_type_symbol
_atom_site_fract_x
_atom_site_fract_y
_atom_site_fract_z
P1 P 0.18339(5) 0.20740(3) 0.21031(3)
O1 O 0.03448(16) 0.43369(9) 0.28547(10)
O2 O -0.1296(2) 0.52820(12) 0.28007(13)
O3 O 0.30321(18) 0.42962(10) 0.32859(11)
O4 O 0.40049(16) 0.30452(10) 0.29872(12)
N1 N -0.1535(2) 0.39438(13) 0.20035(13)
C1 C 0.0230(2) 0.18712(13) 0.14971(13)
C2 C -0.0010(2) 0.10706(14) 0.10545(14)
H1 H 0.0628 0.0642 0.1123
C3 C -0.1177(2) 0.09075(16) 0.05197(16)
H2 H -0.1323 0.0375 0.0223
C4 C -0.2131(2) 0.15407(17) 0.04267(16)
H3 H -0.2907 0.1440 0.0047
C5 C -0.1947(2) 0.23160(16) 0.08864(15)
H4 H -0.2612 0.2725 0.0831
C6 C -0.0769(2) 0.25021(13) 0.14400(13)
C7 C -0.0576(2) 0.32955(14) 0.19514(14)
C8 C 0.0555(2) 0.35340(13) 0.24621(13)
C9 C -0.0926(3) 0.45085(16) 0.25226(16)
C10 C 0.1786(2) 0.31161(12) 0.25973(13)
C11 C 0.2937(2) 0.35584(14) 0.29903(13)
C12 C 0.5237(3) 0.3410(2) 0.3332(3)
H5 H 0.5318 0.3974 0.3065
H6 H 0.5914 0.3035 0.3181
H7 H 0.5309 0.3467 0.3982
C13 C -0.2539(4) 0.5560(2) 0.2351(2)
H8 H -0.2529 0.5571 0.1704
H9 H -0.2725 0.6133 0.2558
H10 H -0.3195 0.5161 0.2489
C14 C 0.2164(2) 0.11735(13) 0.29095(13)
H11 H 0.1986 0.0634 0.2560
C15 C 0.1222(3) 0.12002(18) 0.36001(19)
H12 H 0.0339 0.1223 0.3285
H13 H 0.1374 0.1721 0.3970
C16 C 0.1390(4) 0.0391(2) 0.4215(2)
H14 H 0.0815 0.0435 0.4675
H15 H 0.1145 -0.0124 0.3852
C17 C 0.2762(4) 0.02939(18) 0.46748(17)
H16 H 0.2847 -0.0244 0.5022
H17 H 0.2977 0.0774 0.5095
C18 C 0.3685(3) 0.02836(19) 0.39851(18)
H18 H 0.3513 -0.0224 0.3597
H19 H 0.4567 0.0240 0.4296
C19 C 0.3551(3) 0.11044(18) 0.33991(17)
H20 H 0.3758 0.1613 0.3780
H21 H 0.4152 0.1080 0.2956
C20 C 0.3012(2) 0.20263(12) 0.12911(13)
H22 H 0.3872 0.2090 0.1652
C21 C 0.3045(2) 0.11781(14) 0.07590(15)
H23 H 0.3175 0.0692 0.1180
H24 H 0.2222 0.1095 0.0371
C22 C 0.4137(3) 0.12021(16) 0.01777(17)
H25 H 0.4964 0.1235 0.0572
H26 H 0.4127 0.0668 -0.0173
C23 C 0.4009(3) 0.19729(17) -0.04651(17)
H27 H 0.3235 0.1904 -0.0908
H28 H 0.4753 0.1991 -0.0792
C24 C 0.3925(3) 0.28233(17) 0.00498(19)
H29 H 0.3770 0.3299 -0.0383
H30 H 0.4747 0.2931 0.0431
C25 C 0.2841(3) 0.28008(15) 0.06434(16)
H31 H 0.2851 0.3337 0.0992
H32 H 0.2008 0.2759 0.0258
loop_
_geom_bond_atom_site_label_1
_geom_bond_atom_site_label_2
_geom_bond_site_symmetry_1
_geom_bond_site_symmetry_2
P1 C1 1_555 1_555
O1 C8 1_555 1_555
O2 C9 1_555 1_555
O3 C11 1_555 1_555
O4 C11 1_555 1_555
N1 C7 1_555 1_555
C1 C2 1_555 1_555
C2 H1 1_555 1_555
C3 C2 1_555 1_555
H2 C3 1_555 1_555
C4 C3 1_555 1_555
H3 C4 1_555 1_555
C5 C4 1_555 1_555
H4 C5 1_555 1_555
C6 C1 1_555 1_555
C7 C6 1_555 1_555
C8 C7 1_555 1_555
C9 O1 1_555 1_555
C10 P1 1_555 1_555
C11 C10 1_555 1_555
C12 O4 1_555 1_555
H5 C12 1_555 1_555
H6 C12 1_555 1_555
H7 C12 1_555 1_555
C13 O2 1_555 1_555
H8 C13 1_555 1_555
H9 C13 1_555 1_555
H10 C13 1_555 1_555
C14 P1 1_555 1_555
H11 C14 1_555 1_555
C15 C14 1_555 1_555
H12 C15 1_555 1_555
H13 C15 1_555 1_555
C16 C15 1_555 1_555
H14 C16 1_555 1_555
H15 C16 1_555 1_555
C17 C16 1_555 1_555
H16 C17 1_555 1_555
H17 C17 1_555 1_555
C18 C17 1_555 1_555
H18 C18 1_555 1_555
H19 C18 1_555 1_555
C19 C14 1_555 1_555
H20 C19 1_555 1_555
H21 C19 1_555 1_555
C20 P1 1_555 1_555
H22 C20 1_555 1_555
C21 C20 1_555 1_555
H23 C21 1_555 1_555
H24 C21 1_555 1_555
C22 C21 1_555 1_555
H25 C22 1_555 1_555
H26 C22 1_555 1_555
C23 C22 1_555 1_555
H27 C23 1_555 1_555
H28 C23 1_555 1_555
C24 C23 1_555 1_555
H29 C24 1_555 1_555
H30 C24 1_555 1_555
C25 C20 1_555 1_555
H31 C25 1_555 1_555
H32 C25 1_555 1_555
N1 C9 1_555 1_555
C5 C6 1_555 1_555
C8 C10 1_555 1_555
C18 C19 1_555 1_555
C24 C25 1_555 1_555

#END
