
#######################################################################
#
#                 Cambridge Crystallographic Data Centre
#                                CCDC 
#
#######################################################################
#
# If this CIF has been generated from an entry in the Cambridge 
# Structural Database, then it will include bibliographic, chemical, 
# crystal, experimental, refinement or atomic coordinate data resulting 
# from the CCDC's data processing and validation procedures.
#
#######################################################################

data_DAQLAL
_chemical_formula_moiety         'C21 H16 F1 N1 O2 S1'
_chemical_name_systematic        
2-(4-fluorophenyl)-1-[(4-methylphenyl)sulfonyl]-1H-indole
_symmetry_cell_setting           monoclinic
_symmetry_space_group_name_H-M   'P 21/c'
_symmetry_Int_Tables_number      14
_space_group_name_Hall           '-P 2ybc'
loop_
_symmetry_equiv_pos_site_id
_symmetry_equiv_pos_as_xyz
1 x,y,z
2 -x,1/2+y,1/2-z
3 -x,-y,-z
4 x,1/2-y,1/2+z
_cell_length_a                   6.5846(7)
_cell_length_b                   17.3715(18)
_cell_length_c                   16.4096(15)
_cell_angle_alpha                90
_cell_angle_beta                 109.073(3)
_cell_angle_gamma                90
_cell_volume                     1773.96
_exptl_crystal_colour            colorless
_exptl_crystal_description       block
_cell_formula_units_Z            4
loop_
_atom_site_label
_atom_site_type_symbol
_atom_site_fract_x
_atom_site_fract_y
_atom_site_fract_z
C1 C 0.4012(2) 0.47617(10) 0.13117(9)
C2 C 0.3053(3) 0.54018(11) 0.14679(10)
H1 H 0.1585 0.5500 0.1255
C3 C 0.4636(3) 0.59108(11) 0.20127(10)
C4 C 0.4532(4) 0.66452(13) 0.23459(12)
H2 H 0.3222 0.6896 0.2236
C5 C 0.6408(5) 0.69850(13) 0.28372(13)
H3 H 0.6360 0.7467 0.3077
C6 C 0.8360(5) 0.66304(14) 0.29836(14)
H4 H 0.9603 0.6884 0.3311
C7 C 0.8532(4) 0.59039(13) 0.26566(13)
H5 H 0.9857 0.5666 0.2756
C8 C 0.6627(3) 0.55522(10) 0.21749(9)
C9 C 0.7007(2) 0.40434(9) 0.32541(9)
C10 C 0.4967(3) 0.38210(11) 0.32076(10)
H6 H 0.3942 0.3711 0.2677
C11 C 0.4460(3) 0.37629(13) 0.39582(11)
H7 H 0.3082 0.3614 0.3930
C12 C 0.5967(4) 0.39217(14) 0.47513(11)
C13 C 0.7986(3) 0.41514(14) 0.47774(11)
H8 H 0.9007 0.4265 0.5307
C14 C 0.8538(3) 0.42180(12) 0.40396(11)
H9 H 0.9908 0.4377 0.4068
C15 C 0.5371(5) 0.3838(2) 0.55658(14)
H10 H 0.5774 0.3335 0.5807
H11 H 0.3848 0.3904 0.5429
H12 H 0.6113 0.4221 0.5977
C16 C 0.3066(3) 0.41286(10) 0.07170(9)
C17 C 0.1137(3) 0.38046(12) 0.07119(11)
H13 H 0.0497 0.3974 0.1108
C18 C 0.0149(3) 0.32352(13) 0.01298(13)
H14 H -0.1137 0.3015 0.0131
C19 C 0.1130(3) 0.30040(12) -0.04524(12)
C20 C 0.3019(3) 0.33053(12) -0.04711(11)
H15 H 0.3643 0.3132 -0.0871
C21 C 0.3996(3) 0.38732(12) 0.01141(10)
H16 H 0.5284 0.4087 0.0106
F1 F 0.0163(2) 0.24500(9) -0.10346(9)
N1 N 0.6296(2) 0.48261(8) 0.17482(8)
O1 O 0.9903(2) 0.42900(9) 0.25285(8)
O2 O 0.6949(2) 0.34051(8) 0.18099(7)
S1 S 0.77019(6) 0.40783(3) 0.23092(2)
loop_
_geom_bond_atom_site_label_1
_geom_bond_atom_site_label_2
_geom_bond_site_symmetry_1
_geom_bond_site_symmetry_2
C1 C2 1_555 1_555
C2 H1 1_555 1_555
C3 C2 1_555 1_555
C4 C3 1_555 1_555
H2 C4 1_555 1_555
C5 C4 1_555 1_555
H3 C5 1_555 1_555
C6 C5 1_555 1_555
H4 C6 1_555 1_555
C7 C6 1_555 1_555
H5 C7 1_555 1_555
C8 C3 1_555 1_555
C9 C10 1_555 1_555
C10 H6 1_555 1_555
C11 C10 1_555 1_555
H7 C11 1_555 1_555
C12 C11 1_555 1_555
C13 C12 1_555 1_555
H8 C13 1_555 1_555
C14 C9 1_555 1_555
H9 C14 1_555 1_555
C15 C12 1_555 1_555
H10 C15 1_555 1_555
H11 C15 1_555 1_555
H12 C15 1_555 1_555
C16 C1 1_555 1_555
C17 C16 1_555 1_555
H13 C17 1_555 1_555
C18 C17 1_555 1_555
H14 C18 1_555 1_555
C19 C18 1_555 1_555
C20 C19 1_555 1_555
H15 C20 1_555 1_555
C21 C16 1_555 1_555
H16 C21 1_555 1_555
F1 C19 1_555 1_555
N1 C1 1_555 1_555
O1 S1 1_555 1_555
O2 S1 1_555 1_555
S1 C9 1_555 1_555
C7 C8 1_555 1_555
C8 N1 1_555 1_555
C13 C14 1_555 1_555
C20 C21 1_555 1_555
N1 S1 1_555 1_555

#END
