
#######################################################################
#
#                 Cambridge Crystallographic Data Centre
#                                CCDC 
#
#######################################################################
#
# If this CIF has been generated from an entry in the Cambridge 
# Structural Database, then it will include bibliographic, chemical, 
# crystal, experimental, refinement or atomic coordinate data resulting 
# from the CCDC's data processing and validation procedures.
#
#######################################################################

data_DAQMIS
_chemical_formula_moiety         'C22 H26 N4 O7'
_chemical_name_systematic        
'(5S,(5\a,5a\a,6a\a,12b\a,12c\a))-5-Dimethylamino-4,7,11,12b,12c-pentahydroxy-7-methyl-12-oxo-1,5,5a,6,6a,7,12,12a,12b,12c-decahydro-1,2-diazacyclopenta(de)naphthacene-3-carboxylic acid amide'
_chemical_properties_biological  'antioxidant activity; no antibiotic activity'
_symmetry_cell_setting           orthorhombic
_symmetry_space_group_name_H-M   'P 21 21 21'
_symmetry_Int_Tables_number      19
_space_group_name_Hall           'P 2ac 2ab'
loop_
_symmetry_equiv_pos_site_id
_symmetry_equiv_pos_as_xyz
1 x,y,z
2 1/2-x,-y,1/2+z
3 -x,1/2+y,1/2-z
4 1/2+x,1/2-y,-z
_cell_length_a                   9.070(1)
_cell_length_b                   9.859(1)
_cell_length_c                   23.672(3)
_cell_angle_alpha                90
_cell_angle_beta                 90
_cell_angle_gamma                90
_cell_volume                     2116.78
_exptl_crystal_colour            pale-yellow
_exptl_crystal_description       prism
_chemical_melting_point          280-285deg.C.(dec.)
_cell_formula_units_Z            4
loop_
_atom_site_label
_atom_site_type_symbol
_atom_site_fract_x
_atom_site_fract_y
_atom_site_fract_z
C1 C 0.4629(3) 0.1943(2) 0.90364(10)
N1 N 0.4027(2) 0.22780(19) 0.95107(8)
C2 C 0.4036(3) 0.2190(3) 0.84741(10)
C3 C 0.2674(3) 0.2952(3) 0.83631(11)
N2 N 0.1999(3) 0.3581(3) 0.87784(11)
H1 H 0.228(4) 0.352(4) 0.9102(16)
H2 H 0.111(4) 0.401(4) 0.8711(14)
O1 O 0.2163(3) 0.3022(3) 0.78679(8)
C4 C 0.4754(3) 0.1610(3) 0.80269(10)
O2 O 0.4225(3) 0.1656(2) 0.75062(7)
H3 H 0.308(5) 0.229(4) 0.7613(16)
C5 C 0.6222(3) 0.0905(3) 0.80755(10)
H4 H 0.6288 0.0225 0.7775
N3 N 0.7467(3) 0.1877(3) 0.80065(10)
C6 C 0.7142(5) 0.3091(4) 0.76586(17)
H5 H 0.8018 0.3630 0.7621
H6 H 0.6385 0.3618 0.7838
H7 H 0.6811 0.2812 0.7291
C7 C 0.8729(4) 0.1168(5) 0.77546(16)
H8 H 0.8515 0.0959 0.7367
H9 H 0.8912 0.0344 0.7959
H10 H 0.9585 0.1739 0.7773
C8 C 0.6398(3) 0.0177(3) 0.86487(9)
H11 H 0.7438 -0.0080 0.8685
C9 C 0.5485(3) -0.1120(2) 0.87018(10)
H12 H 0.5806 -0.1774 0.8421
H13 H 0.4453 -0.0919 0.8634
C10 C 0.5674(3) -0.1717(2) 0.92947(9)
H14 H 0.6734 -0.1763 0.9374
C11 C 0.5035(3) -0.3146(2) 0.93771(10)
C12 C 0.5595(4) -0.4136(3) 0.89323(12)
H15 H 0.5203 -0.5022 0.9007
H16 H 0.6652 -0.4168 0.8945
H17 H 0.5283 -0.3840 0.8565
O3 O 0.3464(2) -0.30119(19) 0.93288(8)
H18 H 0.302(4) -0.358(4) 0.9464(15)
C13 C 0.5388(3) -0.3600(3) 0.99798(12)
C14 C 0.5820(3) -0.4906(3) 1.01035(13)
H19 H 0.5985 -0.5522 0.9813
C15 C 0.6008(4) -0.5303(3) 1.06588(14)
H20 H 0.6311 -0.6185 1.0736
C16 C 0.5762(4) -0.4432(4) 1.10974(14)
H21 H 0.5900 -0.4720 1.1468
C17 C 0.5304(3) -0.3112(3) 1.09859(12)
O4 O 0.5013(3) -0.2291(3) 1.14276(8)
H22 H 0.469(5) -0.144(5) 1.1312(17)
C18 C 0.5139(3) -0.2668(3) 1.04237(11)
C19 C 0.4834(3) -0.1247(2) 1.03103(10)
O5 O 0.4490(2) -0.04528(19) 1.06965(7)
C20 C 0.4985(3) -0.0708(2) 0.97144(9)
H23 H 0.3986 -0.0516 0.9579
C21 C 0.5821(3) 0.0650(2) 0.97182(9)
O6 O 0.7124(2) 0.04561(18) 1.00172(7)
H24 H 0.770(4) 0.095(3) 0.9902(13)
N4 N 0.4924(3) 0.1779(2) 0.99515(8)
H25 H 0.444(3) 0.160(3) 1.0221(12)
C22 C 0.6067(3) 0.1204(2) 0.91133(9)
O7 O 0.7227(2) 0.21837(18) 0.91580(8)
H26 H 0.757(4) 0.226(3) 0.8817(15)
loop_
_geom_bond_atom_site_label_1
_geom_bond_atom_site_label_2
_geom_bond_site_symmetry_1
_geom_bond_site_symmetry_2
C1 N1 1_555 1_555
N1 N4 1_555 1_555
C2 C1 1_555 1_555
C3 C2 1_555 1_555
N2 C3 1_555 1_555
H1 N2 1_555 1_555
H2 N2 1_555 1_555
O1 C3 1_555 1_555
C4 C2 1_555 1_555
O2 C4 1_555 1_555
H3 O2 1_555 1_555
C5 C4 1_555 1_555
H4 C5 1_555 1_555
N3 C5 1_555 1_555
C6 N3 1_555 1_555
H5 C6 1_555 1_555
H6 C6 1_555 1_555
H7 C6 1_555 1_555
C7 N3 1_555 1_555
H8 C7 1_555 1_555
H9 C7 1_555 1_555
H10 C7 1_555 1_555
C8 C5 1_555 1_555
H11 C8 1_555 1_555
C9 C8 1_555 1_555
H12 C9 1_555 1_555
H13 C9 1_555 1_555
C10 C9 1_555 1_555
H14 C10 1_555 1_555
C11 C10 1_555 1_555
C12 C11 1_555 1_555
H15 C12 1_555 1_555
H16 C12 1_555 1_555
H17 C12 1_555 1_555
O3 C11 1_555 1_555
H18 O3 1_555 1_555
C13 C11 1_555 1_555
C14 C13 1_555 1_555
H19 C14 1_555 1_555
C15 C14 1_555 1_555
H20 C15 1_555 1_555
C16 C15 1_555 1_555
H21 C16 1_555 1_555
C17 C16 1_555 1_555
O4 C17 1_555 1_555
H22 O4 1_555 1_555
C18 C13 1_555 1_555
C19 C18 1_555 1_555
O5 C19 1_555 1_555
C20 C10 1_555 1_555
H23 C20 1_555 1_555
C21 C20 1_555 1_555
O6 C21 1_555 1_555
H24 O6 1_555 1_555
N4 C21 1_555 1_555
H25 N4 1_555 1_555
C22 C1 1_555 1_555
O7 C22 1_555 1_555
H26 O7 1_555 1_555
C8 C22 1_555 1_555
C17 C18 1_555 1_555
C19 C20 1_555 1_555
C21 C22 1_555 1_555

#END
