
#######################################################################
#
#                 Cambridge Crystallographic Data Centre
#                                CCDC 
#
#######################################################################
#
# If this CIF has been generated from an entry in the Cambridge 
# Structural Database, then it will include bibliographic, chemical, 
# crystal, experimental, refinement or atomic coordinate data resulting 
# from the CCDC's data processing and validation procedures.
#
#######################################################################

data_DAQQOE
_chemical_formula_moiety         'C16 H12 N2'
_chemical_name_systematic        5-methyl-2-phenyl-1H-indole-1-carbonitrile
_symmetry_cell_setting           orthorhombic
_symmetry_space_group_name_H-M   'P b c a'
_symmetry_Int_Tables_number      61
_space_group_name_Hall           '-P 2ac 2ab'
loop_
_symmetry_equiv_pos_site_id
_symmetry_equiv_pos_as_xyz
1 x,y,z
2 1/2-x,-y,1/2+z
3 1/2+x,1/2-y,-z
4 -x,1/2+y,1/2-z
5 -x,-y,-z
6 1/2+x,y,1/2-z
7 1/2-x,1/2+y,z
8 x,1/2-y,1/2+z
_cell_length_a                   25.555(2)
_cell_length_b                   14.1257(11)
_cell_length_c                   6.8724(6)
_cell_angle_alpha                90
_cell_angle_beta                 90
_cell_angle_gamma                90
_cell_volume                     2480.81
_exptl_crystal_colour            colorless
_cell_formula_units_Z            8
loop_
_atom_site_label
_atom_site_type_symbol
_atom_site_fract_x
_atom_site_fract_y
_atom_site_fract_z
N1 N 0.57703(5) 0.10275(9) 0.3268(2)
N2 N 0.60721(6) 0.02170(15) 0.0299(3)
C1 C 0.60847(6) 0.13286(11) 0.4853(3)
C2 C 0.57606(7) 0.16243(12) 0.6299(3)
C3 C 0.52275(6) 0.15008(11) 0.5674(3)
C4 C 0.47390(7) 0.16724(13) 0.6527(3)
C5 C 0.42877(7) 0.14539(12) 0.5512(3)
C6 C 0.43227(8) 0.10526(13) 0.3650(4)
C7 C 0.47961(8) 0.08793(15) 0.2770(4)
C8 C 0.52387(6) 0.11196(11) 0.3795(3)
C9 C 0.37613(11) 0.1662(3) 0.6392(6)
C10 C 0.66575(6) 0.12844(11) 0.4723(3)
C11 C 0.69422(8) 0.09028(14) 0.6279(4)
C12 C 0.74805(9) 0.08549(16) 0.6174(4)
C13 C 0.77437(10) 0.11875(16) 0.4549(5)
C14 C 0.74675(9) 0.15769(15) 0.3035(5)
C15 C 0.69250(8) 0.16201(15) 0.3111(4)
C16 C 0.59357(7) 0.05901(14) 0.1688(3)
H1 H 0.5893(8) 0.1899(13) 0.760(3)
H2 H 0.4723(7) 0.1924(14) 0.784(3)
H3 H 0.3987(7) 0.0891(14) 0.292(3)
H4 H 0.4808(8) 0.0606(15) 0.161(3)
H5 H 0.3657(14) 0.230(3) 0.643(10)
H6 H 0.3545(15) 0.123(4) 0.619(7)
H7 H 0.3750(14) 0.162(5) 0.773(4)
H8 H 0.6744(8) 0.0670(16) 0.751(3)
H9 H 0.7694(8) 0.0580(17) 0.727(3)
H10 H 0.8140(9) 0.1152(15) 0.442(4)
H11 H 0.7656(9) 0.1802(17) 0.197(3)
H12 H 0.6732(8) 0.1890(15) 0.205(3)
loop_
_geom_bond_atom_site_label_1
_geom_bond_atom_site_label_2
_geom_bond_site_symmetry_1
_geom_bond_site_symmetry_2
N1 C1 1_555 1_555
N2 C16 1_555 1_555
C1 C2 1_555 1_555
C2 C3 1_555 1_555
C3 C4 1_555 1_555
C4 C5 1_555 1_555
C5 C6 1_555 1_555
C6 C7 1_555 1_555
C7 C8 1_555 1_555
C8 N1 1_555 1_555
C9 C5 1_555 1_555
C10 C1 1_555 1_555
C11 C10 1_555 1_555
C12 C11 1_555 1_555
C13 C12 1_555 1_555
C14 C13 1_555 1_555
C15 C10 1_555 1_555
C16 N1 1_555 1_555
H1 C2 1_555 1_555
H2 C4 1_555 1_555
H3 C6 1_555 1_555
H4 C7 1_555 1_555
H5 C9 1_555 1_555
H6 C9 1_555 1_555
H7 C9 1_555 1_555
H8 C11 1_555 1_555
H9 C12 1_555 1_555
H10 C13 1_555 1_555
H11 C14 1_555 1_555
H12 C15 1_555 1_555
C3 C8 1_555 1_555
C14 C15 1_555 1_555

#END
