
#######################################################################
#
#                 Cambridge Crystallographic Data Centre
#                                CCDC 
#
#######################################################################
#
# If this CIF has been generated from an entry in the Cambridge 
# Structural Database, then it will include bibliographic, chemical, 
# crystal, experimental, refinement or atomic coordinate data resulting 
# from the CCDC's data processing and validation procedures.
#
#######################################################################

data_DAQSOG
_chemical_formula_moiety         'C36 H30 N1 O2 1+,0.25(C4 H8 O2),I1 1-'
_chemical_name_systematic        
'4-((4-(2,2-bis(4-methoxyphenyl)-1-phenylvinyl)phenyl)ethynyl)-1-methylpyridinium iodide ethyl acetate solvate'
_symmetry_cell_setting           triclinic
_symmetry_space_group_name_H-M   'P -1'
_symmetry_Int_Tables_number      2
_space_group_name_Hall           '-P 1'
loop_
_symmetry_equiv_pos_site_id
_symmetry_equiv_pos_as_xyz
1 x,y,z
2 -x,-y,-z
_cell_length_a                   9.953(3)
_cell_length_b                   10.631(4)
_cell_length_c                   30.398(10)
_cell_angle_alpha                83.360(8)
_cell_angle_beta                 89.788(7)
_cell_angle_gamma                88.55(3)
_cell_volume                     3193.82
_exptl_crystal_colour            yellow
_exptl_crystal_description       plate
_cell_formula_units_Z            4
loop_
_atom_site_label
_atom_site_type_symbol
_atom_site_fract_x
_atom_site_fract_y
_atom_site_fract_z
O3 O -0.2599(3) 0.6580(3) 0.29617(10)
O4 O 0.1464(3) 0.6567(4) 0.01494(10)
N2 N 0.6664(3) 0.8292(3) 0.53633(10)
C37 C 0.1796(3) 0.8155(3) 0.18578(11)
C38 C 0.2870(3) 0.8722(3) 0.20140(11)
C39 C 0.0609(3) 0.7807(3) 0.21439(11)
C40 C -0.0057(3) 0.8651(3) 0.23872(11)
H31 H 0.0220 0.9485 0.2367
C41 C -0.1135(4) 0.8283(4) 0.26632(12)
H32 H -0.1564 0.8867 0.2825
C42 C -0.1565(4) 0.7047(4) 0.26960(12)
C43 C -0.0914(4) 0.6183(4) 0.24471(13)
H33 H -0.1195 0.5351 0.2465
C44 C 0.0147(4) 0.6571(4) 0.21741(13)
H34 H 0.0563 0.5995 0.2006
C45 C -0.3215(5) 0.7390(5) 0.32338(16)
H35 H -0.3624 0.8099 0.3055
H36 H -0.2555 0.7686 0.3424
H37 H -0.3891 0.6943 0.3410
C46 C 0.1717(3) 0.7784(3) 0.13991(11)
C47 C 0.0517(4) 0.7940(4) 0.11679(13)
H38 H -0.0217 0.8313 0.1297
C48 C 0.0374(4) 0.7556(4) 0.07482(13)
H39 H -0.0439 0.7682 0.0598
C49 C 0.1462(4) 0.6984(4) 0.05581(13)
C50 C 0.2672(4) 0.6805(4) 0.07852(12)
H40 H 0.3405 0.6431 0.0656
C51 C 0.2788(4) 0.7182(4) 0.12031(12)
H41 H 0.3594 0.7033 0.1356
C52 C 0.0267(6) 0.6776(7) -0.00992(18)
H42 H 0.0389 0.6469 -0.0382
H43 H 0.0051 0.7667 -0.0142
H44 H -0.0452 0.6336 0.0057
C53 C 0.4085(3) 0.9126(3) 0.17484(11)
C54 C 0.4013(4) 0.9954(4) 0.13598(13)
H45 H 0.3178 1.0254 0.1252
C55 C 0.5165(4) 1.0339(4) 0.11300(14)
H46 H 0.5094 1.0904 0.0873
C56 C 0.6413(4) 0.9892(5) 0.12785(15)
H47 H 0.7182 1.0140 0.1120
C57 C 0.6512(4) 0.9066(4) 0.16682(14)
H48 H 0.7351 0.8764 0.1773
C58 C 0.5360(4) 0.8695(4) 0.19002(13)
H49 H 0.5435 0.8150 0.2162
C59 C 0.2996(3) 0.8925(3) 0.24885(11)
C60 C 0.2918(4) 0.7915(3) 0.28238(12)
H50 H 0.2657 0.7129 0.2753
C61 C 0.3218(4) 0.8058(4) 0.32559(12)
H51 H 0.3162 0.7374 0.3475
C62 C 0.3609(3) 0.9241(4) 0.33638(11)
C63 C 0.3607(3) 1.0276(3) 0.30391(11)
H52 H 0.3808 1.1075 0.3113
C64 C 0.3309(4) 1.0116(3) 0.26083(12)
H53 H 0.3315 1.0811 0.2392
C65 C 0.4153(4) 0.9284(4) 0.37983(12)
C66 C 0.4706(4) 0.9181(4) 0.41485(12)
C67 C 0.5373(3) 0.8911(3) 0.45679(11)
C68 C 0.6633(4) 0.9401(4) 0.46442(12)
H54 H 0.7046 0.9942 0.4425
C69 C 0.7253(4) 0.9075(4) 0.50465(12)
H55 H 0.8088 0.9401 0.5099
C70 C 0.5444(4) 0.7823(4) 0.53000(12)
H56 H 0.5047 0.7294 0.5526
C71 C 0.4784(4) 0.8116(4) 0.49072(12)
H57 H 0.3943 0.7786 0.4866
C72 C 0.7368(4) 0.7931(4) 0.57905(13)
H58 H 0.7005 0.7162 0.5935
H59 H 0.7246 0.8595 0.5977
H60 H 0.8310 0.7802 0.5736
I1 I 0.56439(3) 0.46202(3) 0.58340(2)
I2 I -0.08924(3) 0.21306(2) 0.48244(2)
O1 O 0.8461(3) 0.0043(3) 0.37081(9)
O2 O 1.2163(3) 0.2456(3) 0.08945(10)
N1 N -0.1412(3) 0.5426(3) 0.43073(10)
C1 C 0.7703(3) 0.2985(3) 0.20441(11)
C2 C 0.6580(3) 0.3677(3) 0.19046(11)
C3 C 0.7877(3) 0.2254(3) 0.24879(12)
C4 C 0.6852(4) 0.1563(3) 0.27142(13)
H1 H 0.6007 0.1560 0.2585
C5 C 0.7071(4) 0.0886(4) 0.31243(13)
H2 H 0.6364 0.0467 0.3273
C6 C 0.8338(4) 0.0826(4) 0.33164(12)
C7 C 0.9374(4) 0.1495(4) 0.31016(12)
H3 H 1.0223 0.1474 0.3229
C8 C 0.9129(4) 0.2197(4) 0.26939(12)
H4 H 0.9829 0.2646 0.2553
C9 C 0.9729(5) -0.0200(5) 0.38817(15)
H5 H 1.0286 -0.0576 0.3671
H6 H 0.9674 -0.0771 0.4150
H7 H 1.0112 0.0579 0.3946
C10 C 0.8888(3) 0.2901(3) 0.17388(11)
C11 C 0.9376(4) 0.1710(4) 0.16477(12)
H8 H 0.8967 0.0984 0.1779
C12 C 1.0451(4) 0.1598(4) 0.13663(14)
H9 H 1.0743 0.0802 0.1302
C13 C 1.1100(4) 0.2679(4) 0.11784(12)
C14 C 1.0648(4) 0.3861(4) 0.12683(12)
H10 H 1.1082 0.4583 0.1146
C15 C 0.9533(3) 0.3965(3) 0.15446(11)
H11 H 0.9219 0.4764 0.1599
C16 C 1.2885(4) 0.3424(5) 0.07475(14)
H12 H 1.2334 0.4037 0.0569
H13 H 1.3614 0.3146 0.0572
H14 H 1.3237 0.3803 0.0993
C17 C 0.6468(3) 0.4330(4) 0.14463(12)
C18 C 0.6567(4) 0.3670(4) 0.10764(13)
H15 H 0.6684 0.2793 0.1115
C19 C 0.6494(5) 0.4300(6) 0.06531(14)
H16 H 0.6548 0.3844 0.0410
C20 C 0.6341(4) 0.5604(6) 0.05892(15)
H17 H 0.6310 0.6028 0.0304
C21 C 0.6235(4) 0.6277(5) 0.09519(15)
H18 H 0.6130 0.7155 0.0911
C22 C 0.6286(4) 0.5644(4) 0.13761(13)
H19 H 0.6198 0.6101 0.1618
C23 C 0.5394(3) 0.3875(3) 0.21949(11)
C24 C 0.5518(4) 0.4341(4) 0.26009(12)
H20 H 0.6363 0.4547 0.2695
C25 C 0.4414(4) 0.4506(4) 0.28684(13)
H21 H 0.4521 0.4827 0.3138
C26 C 0.3131(4) 0.4187(3) 0.27320(12)
C27 C 0.2991(4) 0.3748(4) 0.23236(12)
H22 H 0.2146 0.3550 0.2227
C28 C 0.4113(3) 0.3604(4) 0.20574(12)
H23 H 0.4003 0.3320 0.1782
C29 C 0.2006(4) 0.4364(4) 0.30208(13)
C30 C 0.1127(4) 0.4550(4) 0.32782(13)
C31 C 0.0212(4) 0.4851(4) 0.36187(12)
C32 C -0.1099(4) 0.4438(4) 0.36550(12)
H24 H -0.1448 0.3968 0.3445
C33 C -0.1877(4) 0.4733(4) 0.40057(13)
H25 H -0.2750 0.4440 0.4033
C34 C -0.0160(4) 0.5850(4) 0.42739(14)
H26 H 0.0157 0.6338 0.4485
C35 C 0.0664(4) 0.5578(5) 0.39354(15)
H27 H 0.1532 0.5883 0.3917
C36 C -0.2236(4) 0.5652(4) 0.47006(14)
H28 H -0.2306 0.4875 0.4893
H29 H -0.3118 0.5953 0.4606
H30 H -0.1817 0.6273 0.4856
O5? O 0.4206(17) 1.1656(9) -0.0065(3)
O6? O 0.5237(19) 0.9775(14) 0.0013(7)
C73? C 0.284(4) 0.975(3) 0.0090(12)
H61? H 0.2169 1.0222 0.0235
H62? H 0.3052 0.8972 0.0271
H63? H 0.2495 0.9566 -0.0190
C74? C 0.412(3) 1.054(3) 0.0013(8)
C75? C 0.653(3) 1.034(3) -0.0068(7)
H64? H 0.6587 1.0718 -0.0374
H65? H 0.6648 1.1001 0.0122
C76? C 0.752(3) 0.945(2) 0.0013(8)
H66? H 0.7448 0.8837 -0.0194
H67? H 0.7424 0.9039 0.0309
H68? H 0.8374 0.9843 -0.0020
loop_
_geom_bond_atom_site_label_1
_geom_bond_atom_site_label_2
_geom_bond_site_symmetry_1
_geom_bond_site_symmetry_2
O1 C6 1_555 1_555
O2 C13 1_555 1_555
N1 C33 1_555 1_555
C1 C2 1_555 1_555
C2 C17 1_555 1_555
C3 C1 1_555 1_555
C4 C3 1_555 1_555
H1 C4 1_555 1_555
C5 C4 1_555 1_555
H2 C5 1_555 1_555
C6 C5 1_555 1_555
C7 C6 1_555 1_555
H3 C7 1_555 1_555
C8 C3 1_555 1_555
H4 C8 1_555 1_555
C9 O1 1_555 1_555
H5 C9 1_555 1_555
H6 C9 1_555 1_555
H7 C9 1_555 1_555
C10 C1 1_555 1_555
C11 C10 1_555 1_555
H8 C11 1_555 1_555
C12 C11 1_555 1_555
H9 C12 1_555 1_555
C13 C12 1_555 1_555
C14 C13 1_555 1_555
H10 C14 1_555 1_555
C15 C10 1_555 1_555
H11 C15 1_555 1_555
C16 O2 1_555 1_555
H12 C16 1_555 1_555
H13 C16 1_555 1_555
H14 C16 1_555 1_555
C17 C18 1_555 1_555
C18 H15 1_555 1_555
C19 C18 1_555 1_555
H16 C19 1_555 1_555
C20 C19 1_555 1_555
H17 C20 1_555 1_555
C21 C20 1_555 1_555
H18 C21 1_555 1_555
C22 C17 1_555 1_555
H19 C22 1_555 1_555
C23 C2 1_555 1_555
C24 C23 1_555 1_555
H20 C24 1_555 1_555
C25 C24 1_555 1_555
H21 C25 1_555 1_555
C26 C25 1_555 1_555
C27 C26 1_555 1_555
H22 C27 1_555 1_555
C28 C23 1_555 1_555
H23 C28 1_555 1_555
C29 C26 1_555 1_555
C30 C29 1_555 1_555
C31 C30 1_555 1_555
C32 C31 1_555 1_555
H24 C32 1_555 1_555
C33 C32 1_555 1_555
H25 C33 1_555 1_555
C34 N1 1_555 1_555
H26 C34 1_555 1_555
C35 C31 1_555 1_555
H27 C35 1_555 1_555
C36 N1 1_555 1_555
H28 C36 1_555 1_555
H29 C36 1_555 1_555
H30 C36 1_555 1_555
O3 C42 1_555 1_555
O4 C49 1_555 1_555
N2 C69 1_555 1_555
C37 C38 1_555 1_555
C38 C53 1_555 1_555
C39 C37 1_555 1_555
C40 C39 1_555 1_555
H31 C40 1_555 1_555
C41 C40 1_555 1_555
H32 C41 1_555 1_555
C42 C41 1_555 1_555
C43 C42 1_555 1_555
H33 C43 1_555 1_555
C44 C39 1_555 1_555
H34 C44 1_555 1_555
C45 O3 1_555 1_555
H35 C45 1_555 1_555
H36 C45 1_555 1_555
H37 C45 1_555 1_555
C46 C37 1_555 1_555
C47 C46 1_555 1_555
H38 C47 1_555 1_555
C48 C47 1_555 1_555
H39 C48 1_555 1_555
C49 C48 1_555 1_555
C50 C49 1_555 1_555
H40 C50 1_555 1_555
C51 C46 1_555 1_555
H41 C51 1_555 1_555
C52 O4 1_555 1_555
H42 C52 1_555 1_555
H43 C52 1_555 1_555
H44 C52 1_555 1_555
C53 C54 1_555 1_555
C54 H45 1_555 1_555
C55 C54 1_555 1_555
H46 C55 1_555 1_555
C56 C55 1_555 1_555
H47 C56 1_555 1_555
C57 C56 1_555 1_555
H48 C57 1_555 1_555
C58 C53 1_555 1_555
H49 C58 1_555 1_555
C59 C38 1_555 1_555
C60 C59 1_555 1_555
H50 C60 1_555 1_555
C61 C60 1_555 1_555
H51 C61 1_555 1_555
C62 C61 1_555 1_555
C63 C62 1_555 1_555
H52 C63 1_555 1_555
C64 C59 1_555 1_555
H53 C64 1_555 1_555
C65 C62 1_555 1_555
C66 C65 1_555 1_555
C67 C66 1_555 1_555
C68 C67 1_555 1_555
H54 C68 1_555 1_555
C69 C68 1_555 1_555
H55 C69 1_555 1_555
C70 N2 1_555 1_555
H56 C70 1_555 1_555
C71 C67 1_555 1_555
H57 C71 1_555 1_555
C72 N2 1_555 1_555
H58 C72 1_555 1_555
H59 C72 1_555 1_555
H60 C72 1_555 1_555
C7 C8 1_555 1_555
C14 C15 1_555 1_555
C21 C22 1_555 1_555
C27 C28 1_555 1_555
C34 C35 1_555 1_555
C43 C44 1_555 1_555
C50 C51 1_555 1_555
C57 C58 1_555 1_555
C63 C64 1_555 1_555
C70 C71 1_555 1_555

#END
