
#######################################################################
#
#                 Cambridge Crystallographic Data Centre
#                                CCDC 
#
#######################################################################
#
# If this CIF has been generated from an entry in the Cambridge 
# Structural Database, then it will include bibliographic, chemical, 
# crystal, experimental, refinement or atomic coordinate data resulting 
# from the CCDC's data processing and validation procedures.
#
#######################################################################

data_DAQVAS
_chemical_name_common            
"2,2'-Bi(1,3-bis(N'-(2-pyridyl)hydrazono)-5,5-dimethylcyclohexyl) bis(di-n-butylbarbiturate)"
_chemical_formula_moiety         'C36 H42 N12,2(C12 H20 N2 O3)'
_chemical_name_systematic        
"2,2'-Bi(1,3-bis(N'-(2-pyridyl)hydrazono)-5,5-dimethylcyclohexyl) bis(5,5-di-n-butylpyrimidine-2,4,6-trione)"
_symmetry_cell_setting           monoclinic
_symmetry_space_group_name_H-M   'P 21/n'
_symmetry_Int_Tables_number      14
_space_group_name_Hall           '-P 2yn'
loop_
_symmetry_equiv_pos_site_id
_symmetry_equiv_pos_as_xyz
1 x,y,z
2 1/2+x,1/2-y,1/2+z
3 -x,-y,-z
4 1/2-x,1/2+y,1/2-z
_cell_length_a                   10.1810(3)
_cell_length_b                   16.2190(4)
_cell_length_c                   18.4800(5)
_cell_angle_alpha                90
_cell_angle_beta                 95.490(1)
_cell_angle_gamma                90
_cell_volume                     3037.52
_exptl_crystal_colour            orange
_exptl_crystal_description       prism
_cell_formula_units_Z            2
loop_
_atom_site_label
_atom_site_type_symbol
_atom_site_fract_x
_atom_site_fract_y
_atom_site_fract_z
C1 C 0.5488(3) 0.0235(2) 0.4754(2)
C2 C 0.6254(3) 0.0906(2) 0.5200(1)
C3 C 0.5566(3) 0.1717(2) 0.5285(2)
C4 C 0.4948(3) 0.2080(2) 0.4564(2)
C5 C 0.4014(3) 0.1424(2) 0.4199(2)
C6 C 0.4704(3) 0.0624(2) 0.4089(2)
N1 N 0.7396(2) 0.0821(1) 0.5544(1)
N2 N 0.8054(2) 0.0083(1) 0.5465(1)
C7 C 0.9144(3) -0.0096(2) 0.5931(2)
N3 N 0.9822(2) -0.0759(1) 0.5737(1)
C8 C 1.0905(3) -0.0969(2) 0.6176(2)
C9 C 1.1343(3) -0.0552(2) 0.6793(2)
C10 C 1.0614(3) 0.0118(2) 0.6993(2)
C11 C 0.9490(3) 0.0352(2) 0.6567(2)
C12 C 0.6004(3) 0.2304(2) 0.4071(2)
C13 C 0.4147(3) 0.2844(2) 0.4722(2)
N4 N 0.4559(2) 0.0315(1) 0.3444(1)
N5 N 0.5230(2) -0.0403(1) 0.3313(1)
C14 C 0.4914(3) -0.0795(2) 0.2660(1)
N6 N 0.5757(2) -0.1393(2) 0.2512(1)
C15 C 0.5487(3) -0.1816(2) 0.1886(2)
C16 C 0.4419(4) -0.1658(2) 0.1403(2)
C17 C 0.3563(4) -0.1045(2) 0.1566(2)
C18 C 0.3787(3) -0.0606(2) 0.2202(2)
H1 H 0.7928 -0.0269 0.4982
H2 H 0.6117 -0.0574 0.3681
H5 H 0.6094 -0.0154 0.4593
H6 H 0.6191 0.2101 0.5501
H7 H 0.4886 0.1637 0.5596
H8 H 0.3658 0.1626 0.3739
H9 H 0.3320 0.1329 0.4497
H10 H 1.1394 -0.1436 0.6047
H11 H 1.2125 -0.0716 0.7078
H12 H 1.0890 0.0416 0.7423
H13 H 0.8968 0.0803 0.6701
H14 H 0.6574 0.2709 0.4301
H15 H 0.6500 0.1827 0.3977
H16 H 0.5599 0.2518 0.3625
H17 H 0.3762 0.3072 0.4278
H18 H 0.3470 0.2695 0.5017
H19 H 0.4710 0.3241 0.4970
H20 H 0.6071 -0.2246 0.1777
H21 H 0.4270 -0.1964 0.0964
H22 H 0.2813 -0.0924 0.1238
H23 H 0.3194 -0.0188 0.2325
C1B C 0.4512(3) -0.0235(2) 0.5246(2)
C2B C 0.3746(3) -0.0906(2) 0.4800(1)
C3B C 0.4434(3) -0.1717(2) 0.4715(2)
C4B C 0.5052(3) -0.2080(2) 0.5436(2)
C5B C 0.5986(3) -0.1424(2) 0.5801(2)
C6B C 0.5296(3) -0.0624(2) 0.5911(2)
H5B H 0.3906 0.0154 0.5407
N4B N 0.5441(2) -0.0315(1) 0.6556(1)
N5B N 0.4770(2) 0.0403(1) 0.6687(1)
C14B C 0.5086(3) 0.0795(2) 0.7340(1)
N6B N 0.4243(2) 0.1393(2) 0.7488(1)
C15B C 0.4513(3) 0.1816(2) 0.8114(2)
C16B C 0.5581(4) 0.1658(2) 0.8597(2)
C17B C 0.6437(4) 0.1045(2) 0.8434(2)
C18B C 0.6213(3) 0.0606(2) 0.7798(2)
H23B H 0.6806 0.0188 0.7675
H22B H 0.7187 0.0924 0.8762
H21B H 0.5730 0.1964 0.9036
H20B H 0.3929 0.2246 0.8223
H2B H 0.3883 0.0574 0.6319
H8B H 0.6342 -0.1626 0.6261
H9B H 0.6680 -0.1329 0.5503
C12B C 0.3996(3) -0.2304(2) 0.5929(2)
H14B H 0.3426 -0.2709 0.5699
H15B H 0.3500 -0.1827 0.6023
H16B H 0.4401 -0.2518 0.6375
C13B C 0.5853(3) -0.2844(2) 0.5278(2)
H17B H 0.6238 -0.3072 0.5722
H18B H 0.6530 -0.2695 0.4983
H19B H 0.5290 -0.3241 0.5030
H6B H 0.3809 -0.2101 0.4499
H7B H 0.5114 -0.1637 0.4404
N1B N 0.2604(2) -0.0821(1) 0.4456(1)
N2B N 0.1946(2) -0.0083(1) 0.4535(1)
C7B C 0.0856(3) 0.0096(2) 0.4069(2)
N3B N 0.0178(2) 0.0759(1) 0.4263(1)
C8B C -0.0905(3) 0.0969(2) 0.3824(2)
C9B C -0.1343(3) 0.0552(2) 0.3207(2)
C10B C -0.0614(3) -0.0118(2) 0.3007(2)
C11B C 0.0510(3) -0.0352(2) 0.3433(2)
H13B H 0.1032 -0.0803 0.3299
H12B H -0.0890 -0.0416 0.2577
H11B H -0.2125 0.0716 0.2922
H10B H -0.1394 0.1436 0.3953
H1B H 0.2072 0.0269 0.5018
C19 C 0.9751(3) -0.3047(2) 0.3673(2)
C20 C 1.0055(3) -0.2580(2) 0.4385(2)
N7 N 0.9326(2) -0.1874(1) 0.4494(1)
C21 C 0.8279(3) -0.1606(2) 0.4043(2)
N8 N 0.7942(2) -0.2031(1) 0.3415(1)
C22 C 0.8572(3) -0.2726(2) 0.3196(2)
C23 C 1.0958(4) -0.2903(2) 0.3184(2)
C24 C 1.2225(3) -0.3295(2) 0.3441(2)
C25 C 1.3296(4) -0.3101(3) 0.2954(2)
C26 C 1.4591(4) -0.3485(3) 0.3216(2)
C27 C 0.9533(3) -0.3952(2) 0.3806(2)
C28 C 0.8337(4) -0.4133(2) 0.4192(2)
C29 C 0.8077(4) -0.5068(2) 0.4279(3)
C30 C 0.6881(5) -0.5235(3) 0.4675(3)
O1 O 1.0901(2) -0.2797(1) 0.4852(1)
O2 O 0.7638(2) -0.0997(1) 0.4196(1)
O3 O 0.8183(2) -0.3051(1) 0.2625(1)
H3 H 0.9504 -0.1585 0.5007
H4 H 0.7038 -0.1796 0.3163
H24 H 1.1105 -0.2326 0.3158
H25 H 1.0697 -0.3110 0.2711
H26 H 1.2104 -0.3875 0.3453
H27 H 1.2495 -0.3101 0.3918
H28 H 1.3407 -0.2520 0.2936
H29 H 1.3030 -0.3302 0.2479
H30 H 1.5230 -0.3347 0.2894
H31 H 1.4870 -0.3285 0.3689
H32 H 1.4494 -0.4067 0.3232
H33 H 1.0285 -0.4161 0.4091
H34 H 0.9440 -0.4226 0.3349
H35 H 0.7590 -0.3894 0.3923
H36 H 0.8454 -0.3891 0.4661
H37 H 0.8825 -0.5310 0.4544
H38 H 0.7948 -0.5311 0.3810
H39 H 0.6761 -0.5814 0.4715
H40 H 0.7002 -0.4998 0.5146
H41 H 0.6125 -0.4999 0.4412
loop_
_geom_bond_atom_site_label_1
_geom_bond_atom_site_label_2
_geom_bond_site_symmetry_1
_geom_bond_site_symmetry_2
C1 C2 1_555 1_555
C2 C3 1_555 1_555
C3 C4 1_555 1_555
C4 C5 1_555 1_555
C5 C6 1_555 1_555
C6 C1 1_555 1_555
N1 C2 1_555 1_555
N2 N1 1_555 1_555
C7 N2 1_555 1_555
N3 C7 1_555 1_555
C8 N3 1_555 1_555
C9 C8 1_555 1_555
C10 C9 1_555 1_555
C11 C7 1_555 1_555
C12 C4 1_555 1_555
C13 C4 1_555 1_555
N4 C6 1_555 1_555
N5 N4 1_555 1_555
C14 N5 1_555 1_555
N6 C14 1_555 1_555
C15 N6 1_555 1_555
C16 C15 1_555 1_555
C17 C16 1_555 1_555
C18 C14 1_555 1_555
C19 C20 1_555 1_555
C20 N7 1_555 1_555
N7 C21 1_555 1_555
C21 N8 1_555 1_555
N8 C22 1_555 1_555
C22 C19 1_555 1_555
C23 C19 1_555 1_555
C24 C23 1_555 1_555
C25 C24 1_555 1_555
C26 C25 1_555 1_555
C27 C19 1_555 1_555
C28 C27 1_555 1_555
C29 C28 1_555 1_555
C30 C29 1_555 1_555
O1 C20 1_555 1_555
O2 C21 1_555 1_555
O3 C22 1_555 1_555
H1 N2 1_555 1_555
H2 N5 1_555 1_555
H3 N7 1_555 1_555
H4 N8 1_555 1_555
H5 C1 1_555 1_555
H6 C3 1_555 1_555
H7 C3 1_555 1_555
H8 C5 1_555 1_555
H9 C5 1_555 1_555
H10 C8 1_555 1_555
H11 C9 1_555 1_555
H12 C10 1_555 1_555
H13 C11 1_555 1_555
H14 C12 1_555 1_555
H15 C12 1_555 1_555
H16 C12 1_555 1_555
H17 C13 1_555 1_555
H18 C13 1_555 1_555
H19 C13 1_555 1_555
H20 C15 1_555 1_555
H21 C16 1_555 1_555
H22 C17 1_555 1_555
H23 C18 1_555 1_555
H24 C23 1_555 1_555
H25 C23 1_555 1_555
H26 C24 1_555 1_555
H27 C24 1_555 1_555
H28 C25 1_555 1_555
H29 C25 1_555 1_555
H30 C26 1_555 1_555
H31 C26 1_555 1_555
H32 C26 1_555 1_555
H33 C27 1_555 1_555
H34 C27 1_555 1_555
H35 C28 1_555 1_555
H36 C28 1_555 1_555
H37 C29 1_555 1_555
H38 C29 1_555 1_555
H39 C30 1_555 1_555
H40 C30 1_555 1_555
H41 C30 1_555 1_555
C1B C1 1_555 1_555
C2B C1B 1_555 1_555
C3B C2B 1_555 1_555
C4B C3B 1_555 1_555
C5B C4B 1_555 1_555
C6B C1B 1_555 1_555
H5B C1B 1_555 1_555
N4B C6B 1_555 1_555
N5B N4B 1_555 1_555
C14B N5B 1_555 1_555
N6B C14B 1_555 1_555
C15B N6B 1_555 1_555
C16B C15B 1_555 1_555
C17B C16B 1_555 1_555
C18B C14B 1_555 1_555
H23B C18B 1_555 1_555
H22B C17B 1_555 1_555
H21B C16B 1_555 1_555
H20B C15B 1_555 1_555
H2B N5B 1_555 1_555
H8B C5B 1_555 1_555
H9B C5B 1_555 1_555
C12B C4B 1_555 1_555
H14B C12B 1_555 1_555
H15B C12B 1_555 1_555
H16B C12B 1_555 1_555
C13B C4B 1_555 1_555
H17B C13B 1_555 1_555
H18B C13B 1_555 1_555
H19B C13B 1_555 1_555
H6B C3B 1_555 1_555
H7B C3B 1_555 1_555
N1B C2B 1_555 1_555
N2B N1B 1_555 1_555
C7B N2B 1_555 1_555
N3B C7B 1_555 1_555
C8B N3B 1_555 1_555
C9B C8B 1_555 1_555
C10B C9B 1_555 1_555
C11B C7B 1_555 1_555
H13B C11B 1_555 1_555
H12B C10B 1_555 1_555
H11B C9B 1_555 1_555
H10B C8B 1_555 1_555
H1B N2B 1_555 1_555
C10 C11 1_555 1_555
C17 C18 1_555 1_555
C5B C6B 1_555 1_555
C17B C18B 1_555 1_555
C10B C11B 1_555 1_555

#END
