
#######################################################################
#
#                 Cambridge Crystallographic Data Centre
#                                CCDC 
#
#######################################################################
#
# If this CIF has been generated from an entry in the Cambridge 
# Structural Database, then it will include bibliographic, chemical, 
# crystal, experimental, refinement or atomic coordinate data resulting 
# from the CCDC's data processing and validation procedures.
#
#######################################################################

data_DAQVOG
_chemical_formula_moiety         'C23 H22 Cl1 N1 O4'
_chemical_name_systematic        
'Methyl (((4R,5S),1S)2S)-2-chloro-2-(1-(2-oxo-4,5-diphenyl-3-oxazolidinyl)spiro(2.2)pentyl)acetate'
_symmetry_cell_setting           orthorhombic
_symmetry_space_group_name_H-M   'P 21 21 21'
_symmetry_Int_Tables_number      19
_space_group_name_Hall           'P 2ac 2ab'
loop_
_symmetry_equiv_pos_site_id
_symmetry_equiv_pos_as_xyz
1 x,y,z
2 1/2-x,-y,1/2+z
3 -x,1/2+y,1/2-z
4 1/2+x,1/2-y,-z
_cell_length_a                   11.888(1)
_cell_length_b                   13.080(2)
_cell_length_c                   13.373(1)
_cell_angle_alpha                90
_cell_angle_beta                 90
_cell_angle_gamma                90
_cell_volume                     2079.44
_exptl_crystal_colour            colorless
_exptl_crystal_description       prism
_chemical_melting_point          146deg.C
_cell_formula_units_Z            4
_exptl_crystal_recrystallization_method 'hexane/diethyl ether'
loop_
_atom_site_label
_atom_site_type_symbol
_atom_site_fract_x
_atom_site_fract_y
_atom_site_fract_z
Cl1 Cl 0.14883(6) 0.41886(5) 0.89410(5)
O1 O 0.2870(2) 0.66752(14) 0.96697(15)
O2 O 0.1025(2) 0.62912(15) 0.9813(2)
O3 O -0.0775(2) 0.68049(14) 0.75017(15)
O4 O 0.0838(2) 0.76303(14) 0.7895(2)
N1 N 0.0825(2) 0.5931(2) 0.7401(2)
C1 C 0.1985(2) 0.5679(2) 0.7596(2)
C2 C 0.2635(3) 0.5113(2) 0.6773(2)
C3 C 0.2905(2) 0.6192(2) 0.7029(2)
C4 C 0.3067(3) 0.7167(2) 0.6484(3)
C5 C 0.3916(3) 0.6805(2) 0.7268(2)
C6 C 0.2233(2) 0.5355(2) 0.8656(2)
C7 C 0.1937(2) 0.6155(2) 0.9444(2)
C8 C 0.2753(3) 0.7475(3) 1.0420(3)
C9 C 0.0367(2) 0.6856(2) 0.7627(2)
C10 C -0.1087(2) 0.5732(2) 0.7380(2)
C11 C -0.0005(2) 0.5250(2) 0.6936(2)
C12 C 0.0022(2) 0.5280(2) 0.5803(2)
C13 C 0.0345(3) 0.6143(2) 0.5283(2)
C14 C 0.0266(3) 0.6187(3) 0.4247(2)
C15 C -0.0154(3) 0.5352(3) 0.3729(3)
C16 C -0.0465(3) 0.4486(3) 0.4235(2)
C17 C -0.0375(2) 0.4429(2) 0.5264(2)
C18 C -0.2129(2) 0.5617(2) 0.6759(2)
C19 C -0.2707(3) 0.4694(2) 0.6795(2)
C20 C -0.3620(2) 0.4513(2) 0.6181(2)
C21 C -0.3971(3) 0.5251(2) 0.5510(2)
C22 C -0.3405(3) 0.6176(2) 0.5473(3)
C23 C -0.2490(2) 0.6363(2) 0.6094(3)
H1 H 0.2251(23) 0.5012(20) 0.6139(25)
H2 H 0.3160(24) 0.4555(23) 0.7007(24)
H3 H 0.3315(25) 0.7123(20) 0.5770(24)
H4 H 0.2537(27) 0.7740(24) 0.6663(25)
H5 H 0.3940(23) 0.7164(20) 0.7911(22)
H6 H 0.4707(26) 0.6537(22) 0.7032(24)
H7 H 0.3040(22) 0.5189(18) 0.8728(21)
H8 H 0.2274(29) 0.8099(27) 1.0136(27)
H9 H 0.2426(25) 0.7207(21) 1.1055(26)
H10 H 0.3513(29) 0.7710(22) 1.0550(24)
H11 H -0.1214(19) 0.5470(17) 0.8068(19)
H12 H 0.0066(20) 0.4583(19) 0.7166(19)
H13 H 0.0623(23) 0.6748(23) 0.5656(23)
H14 H 0.0515(23) 0.6764(23) 0.3872(24)
H15 H -0.0261(24) 0.5357(22) 0.3062(26)
H16 H -0.0753(24) 0.3956(22) 0.3911(24)
H17 H -0.0590(25) 0.3843(23) 0.5624(23)
H18 H -0.2449(21) 0.4220(21) 0.7226(20)
H19 H -0.4040(25) 0.3866(22) 0.6193(24)
H20 H -0.4581(24) 0.5123(21) 0.5066(23)
H21 H -0.3629(28) 0.6673(25) 0.5022(24)
H22 H -0.2122(24) 0.6989(23) 0.6082(24)
loop_
_geom_bond_atom_site_label_1
_geom_bond_atom_site_label_2
_geom_bond_site_symmetry_1
_geom_bond_site_symmetry_2
Cl1 C6 1_555 1_555
O1 C7 1_555 1_555
O2 C7 1_555 1_555
O3 C9 1_555 1_555
O4 C9 1_555 1_555
N1 C1 1_555 1_555
C1 C2 1_555 1_555
C2 C3 1_555 1_555
C3 C1 1_555 1_555
C4 C3 1_555 1_555
C5 C3 1_555 1_555
C6 C1 1_555 1_555
C7 C6 1_555 1_555
C8 O1 1_555 1_555
C9 N1 1_555 1_555
C10 O3 1_555 1_555
C11 N1 1_555 1_555
C12 C11 1_555 1_555
C13 C12 1_555 1_555
C14 C13 1_555 1_555
C15 C14 1_555 1_555
C16 C15 1_555 1_555
C17 C12 1_555 1_555
C18 C10 1_555 1_555
C19 C18 1_555 1_555
C20 C19 1_555 1_555
C21 C20 1_555 1_555
C22 C21 1_555 1_555
C23 C18 1_555 1_555
H1 C2 1_555 1_555
H2 C2 1_555 1_555
H3 C4 1_555 1_555
H4 C4 1_555 1_555
H5 C5 1_555 1_555
H6 C5 1_555 1_555
H7 C6 1_555 1_555
H8 C8 1_555 1_555
H9 C8 1_555 1_555
H10 C8 1_555 1_555
H11 C10 1_555 1_555
H12 C11 1_555 1_555
H13 C13 1_555 1_555
H14 C14 1_555 1_555
H15 C15 1_555 1_555
H16 C16 1_555 1_555
H17 C17 1_555 1_555
H18 C19 1_555 1_555
H19 C20 1_555 1_555
H20 C21 1_555 1_555
H21 C22 1_555 1_555
H22 C23 1_555 1_555
C4 C5 1_555 1_555
C10 C11 1_555 1_555
C16 C17 1_555 1_555
C22 C23 1_555 1_555

#END
