
#######################################################################
#
#                 Cambridge Crystallographic Data Centre
#                                CCDC 
#
#######################################################################
#
# If this CIF has been generated from an entry in the Cambridge 
# Structural Database, then it will include bibliographic, chemical, 
# crystal, experimental, refinement or atomic coordinate data resulting 
# from the CCDC's data processing and validation procedures.
#
#######################################################################

data_DAQVIA
_chemical_formula_moiety         'C29 H26 Cl1 N1 O4'
_chemical_name_systematic        
'Benzyl (((4R,5S),1S)2S)-2-chloro-2-(1-(2-oxo-4,5-diphenyl-3-oxazolidinyl)spiro(2.2)pentyl)acetate'
_symmetry_cell_setting           monoclinic
_symmetry_space_group_name_H-M   'C 2'
_symmetry_Int_Tables_number      5
_space_group_name_Hall           'C 2y'
loop_
_symmetry_equiv_pos_site_id
_symmetry_equiv_pos_as_xyz
1 x,y,z
2 -x,y,-z
3 1/2+x,1/2+y,z
4 1/2-x,1/2+y,-z
_cell_length_a                   18.224(3)
_cell_length_b                   6.359(1)
_cell_length_c                   21.328(4)
_cell_angle_alpha                90
_cell_angle_beta                 100.84(1)
_cell_angle_gamma                90
_cell_volume                     2427.52
_exptl_crystal_colour            colorless
_exptl_crystal_description       needle
_chemical_melting_point          133deg.C
_cell_formula_units_Z            4
_exptl_crystal_recrystallization_method 'hexane/diethyl ether'
loop_
_atom_site_label
_atom_site_type_symbol
_atom_site_fract_x
_atom_site_fract_y
_atom_site_fract_z
Cl1 Cl -0.07176(9) -0.0947(2) -0.12706(7)
O1 O -0.0721(2) 0.4173(7) -0.0600(2)
O2 O -0.1778(2) 0.2737(6) -0.1146(2)
O3 O -0.2647(2) 0.3225(6) -0.2699(2)
O4 O -0.1810(2) 0.5646(6) -0.2265(2)
N1 N -0.1455(3) 0.2267(7) -0.2465(2)
C1 C -0.0707(3) 0.2282(9) -0.2116(2)
C2 C -0.0097(3) 0.1431(8) -0.2459(3)
H1 H 0.0323(3) 0.0639(8) -0.2202(3)
H2 H -0.0251(3) 0.0942(8) -0.2905(3)
C3 C -0.0151(3) 0.3717(9) -0.2331(3)
C4 C -0.0144(4) 0.5716(10) -0.2677(3)
H3 H -0.0572(4) 0.6683(10) -0.2689(3)
H4 H 0.0080(4) 0.5724(10) -0.3066(3)
C5 C 0.0374(3) 0.5353(10) -0.2036(3)
H5 H 0.0913(3) 0.5140(10) -0.2036(3)
H6 H 0.0261(3) 0.6099(10) -0.1659(3)
C6 C -0.0594(3) 0.1831(9) -0.1421(3)
H7 H -0.0069(3) 0.2224(9) -0.1226(3)
C7 C -0.1118(4) 0.2963(9) -0.1053(3)
C8 C -0.1147(4) 0.5214(10) -0.0185(3)
H8 H -0.1584(4) 0.5913(10) -0.0449(3)
H9 H -0.0834(4) 0.6318(10) 0.0060(3)
C9 C -0.1417(3) 0.3749(10) 0.0274(2)
C10 C -0.1120(3) 0.1735(10) 0.0406(3)
H10 H -0.0746(3) 0.1226(10) 0.0189(3)
C11 C -0.1374(4) 0.0476(11) 0.0854(3)
H11 H -0.1182(4) -0.0907(11) 0.0935(3)
C12 C -0.1910(4) 0.1237(13) 0.1186(3)
H12 H -0.2064(4) 0.0398(13) 0.1506(3)
C13 C -0.2217(4) 0.3205(12) 0.1049(3)
H13 H -0.2594(4) 0.3700(12) 0.1265(3)
C14 C -0.1974(4) 0.4462(10) 0.0597(3)
H14 H -0.2188(4) 0.5816(10) 0.0504(3)
C15 C -0.1944(3) 0.3871(10) -0.2453(2)
C16 C -0.2637(3) 0.0895(8) -0.2722(3)
H15 H -0.2708(3) 0.0346(8) -0.2298(3)
C17 C -0.1839(3) 0.0412(9) -0.2798(2)
H16 H -0.1659(3) -0.0905(9) -0.2562(2)
C18 C -0.1731(3) 0.0270(9) -0.3484(3)
C19 C -0.1836(3) -0.1693(10) -0.3800(3)
H17 H -0.1953(3) -0.2897(10) -0.3574(3)
C20 C -0.1772(4) -0.1880(11) -0.4424(3)
H18 H -0.1845(4) -0.3211(11) -0.4629(3)
C21 C -0.1600(4) -0.0143(11) -0.4762(3)
H19 H -0.1554(4) -0.0279(11) -0.5197(3)
C22 C -0.1495(4) 0.1811(10) -0.4458(3)
H20 H -0.1378(4) 0.3011(10) -0.4686(3)
C23 C -0.1560(4) 0.1992(10) -0.3831(3)
H21 H -0.1486(4) 0.3326(10) -0.3628(3)
C24 C -0.3253(3) 0.0084(10) -0.3220(3)
C25 C -0.3570(4) 0.1277(11) -0.3751(3)
H22 H -0.3398(4) 0.2667(11) -0.3798(3)
C26 C -0.4139(4) 0.0434(14) -0.4212(3)
H23 H -0.4357(4) 0.1243(14) -0.4574(3)
C27 C -0.4385(4) -0.1616(13) -0.4136(3)
H24 H -0.4775(4) -0.2200(13) -0.4445(3)
C28 C -0.4068(4) -0.2783(11) -0.3618(3)
H25 H -0.4234(4) -0.4181(11) -0.3573(3)
C29 C -0.3502(4) -0.1938(10) -0.3157(3)
H26 H -0.3286(4) -0.2759(10) -0.2797(3)
loop_
_geom_bond_atom_site_label_1
_geom_bond_atom_site_label_2
_geom_bond_site_symmetry_1
_geom_bond_site_symmetry_2
Cl1 C6 1_555 1_555
O1 C7 1_555 1_555
O2 C7 1_555 1_555
O3 C15 1_555 1_555
O4 C15 1_555 1_555
N1 C1 1_555 1_555
C1 C2 1_555 1_555
C2 H1 1_555 1_555
H2 C2 1_555 1_555
C3 C1 1_555 1_555
C4 C3 1_555 1_555
H3 C4 1_555 1_555
H4 C4 1_555 1_555
C5 C3 1_555 1_555
H5 C5 1_555 1_555
H6 C5 1_555 1_555
C6 C1 1_555 1_555
H7 C6 1_555 1_555
C7 C6 1_555 1_555
C8 O1 1_555 1_555
H8 C8 1_555 1_555
H9 C8 1_555 1_555
C9 C8 1_555 1_555
C10 C9 1_555 1_555
H10 C10 1_555 1_555
C11 C10 1_555 1_555
H11 C11 1_555 1_555
C12 C11 1_555 1_555
H12 C12 1_555 1_555
C13 C12 1_555 1_555
H13 C13 1_555 1_555
C14 C9 1_555 1_555
H14 C14 1_555 1_555
C15 N1 1_555 1_555
C16 O3 1_555 1_555
H15 C16 1_555 1_555
C17 N1 1_555 1_555
H16 C17 1_555 1_555
C18 C17 1_555 1_555
C19 C18 1_555 1_555
H17 C19 1_555 1_555
C20 C19 1_555 1_555
H18 C20 1_555 1_555
C21 C20 1_555 1_555
H19 C21 1_555 1_555
C22 C21 1_555 1_555
H20 C22 1_555 1_555
C23 C18 1_555 1_555
H21 C23 1_555 1_555
C24 C16 1_555 1_555
C25 C24 1_555 1_555
H22 C25 1_555 1_555
C26 C25 1_555 1_555
H23 C26 1_555 1_555
C27 C26 1_555 1_555
H24 C27 1_555 1_555
C28 C27 1_555 1_555
H25 C28 1_555 1_555
C29 C24 1_555 1_555
H26 C29 1_555 1_555
C2 C3 1_555 1_555
C4 C5 1_555 1_555
C13 C14 1_555 1_555
C16 C17 1_555 1_555
C22 C23 1_555 1_555
C28 C29 1_555 1_555

#END
