
#######################################################################
#
#                 Cambridge Crystallographic Data Centre
#                                CCDC 
#
#######################################################################
#
# If this CIF has been generated from an entry in the Cambridge 
# Structural Database, then it will include bibliographic, chemical, 
# crystal, experimental, refinement or atomic coordinate data resulting 
# from the CCDC's data processing and validation procedures.
#
#######################################################################

data_DAQXOJ
_chemical_formula_moiety         'C12 H36 N6 6+,2(C2 O4 2-),2(C2 H1 O4 1-)'
_chemical_name_systematic        
'1,4,7,10,13,16-Hexaazoniacyclooctadecane bis(oxalate) bis(hydrogen oxalate)'
_symmetry_cell_setting           monoclinic
_symmetry_space_group_name_H-M   'P 21/c'
_symmetry_Int_Tables_number      14
_space_group_name_Hall           '-P 2ybc'
loop_
_symmetry_equiv_pos_site_id
_symmetry_equiv_pos_as_xyz
1 x,y,z
2 -x,1/2+y,1/2-z
3 -x,-y,-z
4 x,1/2-y,1/2+z
_cell_length_a                   6.47940(10)
_cell_length_b                   18.6578(2)
_cell_length_c                   11.0166(4)
_cell_angle_alpha                90
_cell_angle_beta                 91.2290(10)
_cell_angle_gamma                90
_cell_volume                     1331.51
_exptl_crystal_colour            colorless
_cell_formula_units_Z            2
loop_
_atom_site_label
_atom_site_type_symbol
_atom_site_fract_x
_atom_site_fract_y
_atom_site_fract_z
O1 O -0.60827(15) 0.26337(6) 0.11986(9)
O2 O -0.29070(15) 0.28393(5) 0.19803(8)
O3 O -0.44423(16) 0.24405(6) -0.09719(8)
O4 O -0.16342(16) 0.30535(6) -0.03436(9)
C7 C -0.4213(2) 0.27454(7) 0.11219(12)
C8 C -0.3284(2) 0.27701(7) -0.01635(12)
H19 H -0.377(4) 0.2373(14) -0.181(2)
N1 N 0.07039(18) 0.38449(6) 0.18227(10)
C1 C 0.1926(2) 0.37250(8) 0.29699(12)
H1 H 0.013(3) 0.3433(10) 0.1574(15)
N2 N 0.17359(19) 0.35051(8) 0.51605(10)
C2 C 0.0535(2) 0.35371(9) 0.40115(12)
H2 H 0.161(3) 0.3981(10) 0.1207(16)
N3 N 0.20289(19) 0.44150(7) 0.75095(12)
C3 C 0.0402(2) 0.34485(8) 0.62517(12)
H3 H 0.259(4) 0.3100(15) 0.517(2)
C4 C 0.1568(3) 0.36367(8) 0.74072(13)
H4 H 0.256(4) 0.3922(16) 0.523(2)
C5 C 0.0213(2) 0.48763(8) 0.77166(15)
H5 H 0.300(4) 0.4484(16) 0.816(3)
C6 C -0.0980(2) 0.43893(7) 0.18775(13)
H6 H 0.265(4) 0.4563(14) 0.676(2)
H7 H 0.263(3) 0.4167(10) 0.3158(16)
H8 H 0.284(3) 0.3349(9) 0.2812(15)
H9 H -0.047(4) 0.3904(13) 0.415(2)
H10 H -0.007(3) 0.3093(12) 0.3879(18)
H11 H -0.081(3) 0.3750(9) 0.6090(15)
H12 H -0.003(2) 0.2948(9) 0.6296(15)
H13 H 0.282(3) 0.3390(10) 0.7467(17)
H14 H 0.077(3) 0.3514(9) 0.8128(16)
H15 H -0.059(3) 0.4896(11) 0.695(2)
H16 H -0.063(3) 0.4659(12) 0.8341(19)
H17 H -0.205(3) 0.4214(9) 0.2425(16)
H18 H -0.155(3) 0.4409(9) 0.1063(16)
N1B N -0.07039(18) 0.61551(6) 0.81773(10)
C1B C -0.1926(2) 0.62750(8) 0.70301(12)
H1B H -0.013(3) 0.6567(10) 0.8426(15)
N2B N -0.17359(19) 0.64949(8) 0.48395(10)
C2B C -0.0535(2) 0.64629(9) 0.59885(12)
H2B H -0.161(3) 0.6019(10) 0.8793(16)
N3B N -0.20289(19) 0.55850(7) 0.24905(12)
C3B C -0.0402(2) 0.65515(8) 0.37483(12)
H3B H -0.259(4) 0.6900(15) 0.483(2)
C4B C -0.1568(3) 0.63633(8) 0.25928(13)
H4B H -0.256(4) 0.6078(16) 0.477(2)
C5B C -0.0213(2) 0.51237(8) 0.22834(15)
H5B H -0.300(4) 0.5516(16) 0.184(3)
C6B C 0.0980(2) 0.56107(7) 0.81225(13)
H6B H -0.265(4) 0.5437(14) 0.324(2)
H7B H -0.263(3) 0.5833(10) 0.6842(16)
H8B H -0.284(3) 0.6651(9) 0.7188(15)
H9B H 0.047(4) 0.6096(13) 0.585(2)
H10B H 0.007(3) 0.6907(12) 0.6121(18)
H11B H 0.081(3) 0.6250(9) 0.3910(15)
H12B H 0.003(2) 0.7052(9) 0.3704(15)
H13B H -0.282(3) 0.6610(10) 0.2533(17)
H14B H -0.077(3) 0.6486(9) 0.1872(16)
H15B H 0.059(3) 0.5104(11) 0.305(2)
H16B H 0.063(3) 0.5341(12) 0.1659(19)
H17B H 0.205(3) 0.5786(9) 0.7575(16)
H18B H 0.155(3) 0.5591(9) 0.8937(16)
O5 O 0.29639(16) 0.43760(6) -0.00102(9)
O6 O 0.45490(16) 0.49133(6) 0.15560(9)
C9 C 0.4292(2) 0.47959(7) 0.04537(12)
O5B O 0.70361(16) 0.56240(6) 0.00102(9)
O6B O 0.54510(16) 0.50867(6) -0.15560(9)
C9B C 0.5708(2) 0.52041(7) -0.04537(12)
O7 O 0.45451(18) 0.58295(6) 0.43105(15)
O8 O 0.23330(15) 0.50756(6) 0.51459(10)
C10 C 0.4099(2) 0.52632(7) 0.48405(12)
O7B O 0.54549(18) 0.41705(6) 0.56895(15)
O8B O 0.76670(15) 0.49244(6) 0.48541(10)
C10B C 0.5901(2) 0.47368(7) 0.51595(12)
loop_
_geom_bond_atom_site_label_1
_geom_bond_atom_site_label_2
_geom_bond_site_symmetry_1
_geom_bond_site_symmetry_2
O1 C7 1_555 1_555
N1 C1 1_555 1_555
C1 C2 1_555 1_555
H1 N1 1_555 1_555
O2 C7 1_555 1_555
N2 C2 1_555 1_555
C2 H9 1_555 1_555
H2 N1 1_555 1_555
O3 C8 1_555 1_555
N3 C4 1_555 1_555
C3 N2 1_555 1_555
H3 N2 1_555 1_555
O4 C8 1_555 1_555
C4 C3 1_555 1_555
H4 N2 1_555 1_555
O5 C9 1_555 1_555
C5 N3 1_555 1_555
H5 N3 1_555 1_555
O6 C9 1_555 1_555
C6 N1 1_555 1_555
H6 N3 1_555 1_555
O7 C10 1_555 1_555
C7 C8 1_555 1_555
H7 C1 1_555 1_555
O8 C10 1_555 1_555
H8 C1 1_555 1_555
C9 C9B 1_555 1_555
C10 C10B 1_555 1_555
H10 C2 1_555 1_555
H11 C3 1_555 1_555
H12 C3 1_555 1_555
H13 C4 1_555 1_555
H14 C4 1_555 1_555
H15 C5 1_555 1_555
H16 C5 1_555 1_555
H17 C6 1_555 1_555
H18 C6 1_555 1_555
H19 O3 1_555 1_555
N1B C1B 1_555 1_555
C1B C2B 1_555 1_555
H1B N1B 1_555 1_555
N2B C2B 1_555 1_555
C2B H9B 1_555 1_555
H2B N1B 1_555 1_555
N3B C4B 1_555 1_555
C3B N2B 1_555 1_555
H3B N2B 1_555 1_555
C4B C3B 1_555 1_555
H4B N2B 1_555 1_555
O5B C9B 1_555 1_555
C5B C6 1_555 1_555
H5B N3B 1_555 1_555
O6B C9B 1_555 1_555
C6B C5 1_555 1_555
H6B N3B 1_555 1_555
O7B C10B 1_555 1_555
H7B C1B 1_555 1_555
O8B C10B 1_555 1_555
H8B C1B 1_555 1_555
H10B C2B 1_555 1_555
H11B C3B 1_555 1_555
H12B C3B 1_555 1_555
H13B C4B 1_555 1_555
H14B C4B 1_555 1_555
H15B C5B 1_555 1_555
H16B C5B 1_555 1_555
H17B C6B 1_555 1_555
H18B C6B 1_555 1_555
N1B C6B 1_555 1_555
N3B C5B 1_555 1_555

#END
