
#######################################################################
#
#                 Cambridge Crystallographic Data Centre
#                                CCDC 
#
#######################################################################
#
# If this CIF has been generated from an entry in the Cambridge 
# Structural Database, then it will include bibliographic, chemical, 
# crystal, experimental, refinement or atomic coordinate data resulting 
# from the CCDC's data processing and validation procedures.
#
#######################################################################

data_DAQYOJ
_chemical_formula_moiety         'C20 H21 N1 O5 S1'
_chemical_name_systematic        
(2R,6S)-1,6-Dihydro-1-(p-toluenesulfonyl)-6-hydroxy-2-benzyloxymethyl-3(2H)-pyridinone
_symmetry_cell_setting           triclinic
_symmetry_space_group_name_H-M   'P -1'
_symmetry_Int_Tables_number      2
_space_group_name_Hall           '-P 1'
loop_
_symmetry_equiv_pos_site_id
_symmetry_equiv_pos_as_xyz
1 x,y,z
2 -x,-y,-z
_cell_length_a                   9.861(2)
_cell_length_b                   12.054(2)
_cell_length_c                   8.108(2)
_cell_angle_alpha                93.43(2)
_cell_angle_beta                 94.62(2)
_cell_angle_gamma                103.93(2)
_cell_volume                     929.239
_exptl_crystal_colour            colorless
_exptl_crystal_description       prismatic
_cell_formula_units_Z            2
loop_
_atom_site_label
_atom_site_type_symbol
_atom_site_fract_x
_atom_site_fract_y
_atom_site_fract_z
S1 S 0.39496(7) 0.68402(5) 0.48953(7)
O1 O 0.3636(2) 0.7849(1) 0.5622(2)
O2 O 0.4596(2) 0.6141(1) 0.5898(2)
O3 O 0.4286(2) 0.8539(2) -0.0268(3)
O4 O 0.7351(2) 0.7054(2) 0.3704(2)
O5 O 0.7206(2) 0.9211(1) 0.2756(2)
N1 N 0.4987(2) 0.7241(2) 0.3460(2)
C1 C 0.4781(3) 0.8202(2) 0.2523(3)
C2 C 0.4757(3) 0.7945(2) 0.0664(3)
C3 C 0.5371(3) 0.7032(3) 0.0088(4)
C4 C 0.5939(3) 0.6434(2) 0.1131(4)
C5 C 0.5972(3) 0.6582(2) 0.2985(3)
C6 C 0.2372(3) 0.5977(2) 0.3869(3)
C7 C 0.2332(3) 0.4877(2) 0.3215(4)
C8 C 0.1096(3) 0.4218(2) 0.2393(4)
C9 C -0.0107(3) 0.4608(2) 0.2239(3)
C10 C -0.0047(3) 0.5698(3) 0.2905(4)
C11 C 0.1188(3) 0.6386(3) 0.3714(4)
C12 C -0.1464(4) 0.3852(4) 0.1374(6)
C13 C 0.5849(3) 0.9326(2) 0.3107(4)
C14 C 0.8234(3) 1.0274(2) 0.3161(4)
C15 C 0.9646(3) 1.0184(2) 0.2725(3)
C16 C 0.9885(3) 0.9247(2) 0.1829(4)
C17 C 1.1225(3) 0.9259(3) 0.1418(4)
C18 C 1.2325(3) 1.0198(3) 0.1867(4)
C19 C 1.2099(3) 1.1122(3) 0.2770(4)
C20 C 1.0781(3) 1.1117(2) 0.3205(4)
H1 H 0.389(2) 0.832(2) 0.268(2)
H2 H 0.537(4) 0.691(3) -0.096(4)
H3 H 0.649(3) 0.595(2) 0.074(3)
H4 H 0.570(2) 0.584(2) 0.346(3)
H5 H 0.747(3) 0.779(3) 0.350(3)
H6 H 0.313(3) 0.459(2) 0.336(3)
H7 H 0.112(3) 0.349(2) 0.197(3)
H8 H -0.084(3) 0.600(3) 0.281(4)
H9 H 0.122(3) 0.710(2) 0.413(3)
H10 H -0.169(4) 0.317(4) 0.183(5)
H11 H -0.220(5) 0.416(4) 0.143(6)
H12 H -0.150(5) 0.378(4) 0.030(6)
H13 H 0.558(3) 0.992(2) 0.247(3)
H14 H 0.583(3) 0.948(2) 0.434(4)
H15 H 0.792(2) 1.082(2) 0.248(3)
H16 H 0.825(3) 1.044(2) 0.439(4)
H17 H 0.911(3) 0.865(3) 0.143(4)
H18 H 1.136(3) 0.866(3) 0.082(4)
H19 H 1.323(3) 1.020(2) 0.151(3)
H20 H 1.285(3) 1.181(3) 0.310(4)
H21 H 1.062(3) 1.175(3) 0.391(4)
loop_
_geom_bond_atom_site_label_1
_geom_bond_atom_site_label_2
_geom_bond_site_symmetry_1
_geom_bond_site_symmetry_2
S1 O1 1_555 1_555
O2 S1 1_555 1_555
O3 C2 1_555 1_555
O4 C5 1_555 1_555
O5 C13 1_555 1_555
N1 S1 1_555 1_555
C1 N1 1_555 1_555
C2 C1 1_555 1_555
C3 C2 1_555 1_555
C4 C3 1_555 1_555
C5 N1 1_555 1_555
C6 S1 1_555 1_555
C7 C6 1_555 1_555
C8 C7 1_555 1_555
C9 C8 1_555 1_555
C10 C9 1_555 1_555
C11 C6 1_555 1_555
C12 C9 1_555 1_555
C13 C1 1_555 1_555
C14 O5 1_555 1_555
C15 C14 1_555 1_555
C16 C15 1_555 1_555
C17 C16 1_555 1_555
C18 C17 1_555 1_555
C19 C18 1_555 1_555
C20 C15 1_555 1_555
H1 C1 1_555 1_555
H2 C3 1_555 1_555
H3 C4 1_555 1_555
H4 C5 1_555 1_555
H5 O4 1_555 1_555
H6 C7 1_555 1_555
H7 C8 1_555 1_555
H8 C10 1_555 1_555
H9 C11 1_555 1_555
H10 C12 1_555 1_555
H11 C12 1_555 1_555
H12 C12 1_555 1_555
H13 C13 1_555 1_555
H14 C13 1_555 1_555
H15 C14 1_555 1_555
H16 C14 1_555 1_555
H17 C16 1_555 1_555
H18 C17 1_555 1_555
H19 C18 1_555 1_555
H20 C19 1_555 1_555
H21 C20 1_555 1_555
C4 C5 1_555 1_555
C10 C11 1_555 1_555
C19 C20 1_555 1_555

#END
