
#######################################################################
#
#                 Cambridge Crystallographic Data Centre
#                                CCDC 
#
#######################################################################
#
# If this CIF has been generated from an entry in the Cambridge 
# Structural Database, then it will include bibliographic, chemical, 
# crystal, experimental, refinement or atomic coordinate data resulting 
# from the CCDC's data processing and validation procedures.
#
#######################################################################

data_DAQYIE
_chemical_formula_moiety         
'C14 H36 N6 4+,4(C12 H8 N2 O8 P1 1-),0.5(H2 O1)'
_chemical_name_systematic        
'1,2-bis(1-Aza-4,7-diazoniacyclononan-1-yl)ethane tetrakis(bis(4-nitrophenyl)phosphate) hemihydrate'
_symmetry_cell_setting           monoclinic
_symmetry_space_group_name_H-M   'P 21/c'
_symmetry_Int_Tables_number      14
_space_group_name_Hall           '-P 2ybc'
loop_
_symmetry_equiv_pos_site_id
_symmetry_equiv_pos_as_xyz
1 x,y,z
2 -x,1/2+y,1/2-z
3 -x,-y,-z
4 x,1/2-y,1/2+z
_cell_length_a                   14.7621(5)
_cell_length_b                   18.4102(6)
_cell_length_c                   13.9271(3)
_cell_angle_alpha                90
_cell_angle_beta                 108.575(2)
_cell_angle_gamma                90
_cell_volume                     3587.84
_exptl_crystal_colour            colorless
_cell_formula_units_Z            2
loop_
_atom_site_label
_atom_site_type_symbol
_atom_site_fract_x
_atom_site_fract_y
_atom_site_fract_z
P1 P 0.58633(10) 0.28115(8) 0.37697(12)
O1 O 0.5143(2) 0.28116(16) 0.4308(3)
O2 O 0.5633(2) 0.30759(16) 0.2715(3)
O3 O 0.6758(2) 0.32491(17) 0.4505(3)
O4 O 0.6270(2) 0.20039(18) 0.3746(3)
N4 N 1.0110(4) 0.4093(4) 0.3784(5)
O5 O 1.0219(5) 0.4707(3) 0.3685(8)
N5 N 0.6452(4) -0.0358(3) 0.6307(5)
O6 O 1.0657(3) 0.3633(3) 0.3706(3)
O7 O 0.6488(4) -0.0968(2) 0.5965(3)
O8 O 0.6468(3) -0.0261(2) 0.7173(4)
C8 C 0.7568(4) 0.3437(3) 0.4263(4)
C9 C 0.8292(4) 0.2938(3) 0.4371(4)
H19 H 0.8223 0.2451 0.4561
C10 C 0.9110(4) 0.3158(3) 0.4198(4)
H20 H 0.9609 0.282 0.4244
C11 C 0.9208(4) 0.3868(4) 0.3958(5)
C12 C 0.8497(5) 0.4370(3) 0.3850(5)
H21 H 0.8579 0.4859 0.3676
C13 C 0.7657(4) 0.4148(3) 0.4000(5)
H22 H 0.7148 0.4482 0.3923
C14 C 0.6299(3) 0.1446(3) 0.4411(5)
C15 C 0.6334(3) 0.1546(3) 0.5410(5)
H23 H 0.6335 0.2024 0.5669
C16 C 0.6367(3) 0.0951(3) 0.6029(4)
H24 H 0.6379 0.1012 0.6711
C17 C 0.6381(4) 0.0269(3) 0.5631(5)
C18 C 0.6364(4) 0.0159(3) 0.4651(5)
H25 H 0.6379 -0.0319 0.44
C19 C 0.6326(3) 0.0747(3) 0.4042(4)
H26 H 0.6317 0.0678 0.3363
N1 N 0.4316(3) 0.4173(2) 0.5233(4)
C1 C 0.3302(4) 0.4309(3) 0.4757(4)
H1 H 0.32 0.4835 0.4619
H2 H 0.2954 0.4167 0.5229
N2 N 0.3248(3) 0.3124(2) 0.3901(3)
H3 H 0.3006 0.2896 0.3285
H4 H 0.3903 0.3122 0.407
C2 C 0.2908(4) 0.3899(3) 0.3790(5)
H5 H 0.3107 0.4139 0.3253
H6 H 0.2201 0.3907 0.3579
N3 N 0.4571(3) 0.2797(2) 0.6110(3)
H7 H 0.4902 0.299 0.5711
H8 H 0.4988 0.2507 0.6587
C3 C 0.2972(4) 0.2696(3) 0.4676(5)
H9 H 0.25000 0.2323 0.4324
H10 H 0.2655 0.3026 0.5031
C4 C 0.3792(4) 0.2324(3) 0.5455(4)
H11 H 0.3527 0.2036 0.5904
H12 H 0.4084 0.1977 0.5097
C5 C 0.4270(4) 0.3416(2) 0.6656(4)
H13 H 0.4553 0.3353 0.7398
H14 H 0.3566 0.3423 0.6484
C6 C 0.4614(3) 0.4120(3) 0.6330(4)
H15 H 0.4351 0.4536 0.6607
H16 H 0.532 0.4144 0.6605
C7 C 0.4939(3) 0.4608(2) 0.4824(4)
H17 H 0.4675 0.4602 0.4075
H18 H 0.5577 0.4376 0.5017
N1B N 0.5684(3) 0.5827(2) 0.4767(4)
C1B C 0.6698(4) 0.5691(3) 0.5243(4)
H1B H 0.68 0.5165 0.5381
H2B H 0.7046 0.5833 0.4771
N2B N 0.6752(3) 0.6876(2) 0.6099(3)
H3B H 0.6994 0.7104 0.6715
H4B H 0.6097 0.6878 0.593
C2B C 0.7092(4) 0.6101(3) 0.6210(5)
H5B H 0.6893 0.5861 0.6747
H6B H 0.7799 0.6093 0.6421
N3B N 0.5429(3) 0.7203(2) 0.3890(3)
H7B H 0.5098 0.701 0.4289
H8B H 0.5012 0.7493 0.3413
C3B C 0.7028(4) 0.7304(3) 0.5324(5)
H9B H 0.75000 0.7677 0.5676
H10B H 0.7345 0.6974 0.4969
C4B C 0.6208(4) 0.7676(3) 0.4545(4)
H11B H 0.6473 0.7964 0.4096
H12B H 0.5916 0.8023 0.4903
C5B C 0.5730(4) 0.6584(2) 0.3344(4)
H13B H 0.5447 0.6647 0.2602
H14B H 0.6434 0.6577 0.3516
C6B C 0.5386(3) 0.5880(3) 0.3670(4)
H15B H 0.5649 0.5464 0.3393
H16B H 0.468 0.5856 0.3395
C7B C 0.5061(3) 0.5392(2) 0.5176(4)
H17B H 0.5325 0.5398 0.5925
H18B H 0.4423 0.5624 0.4983
P2 P 0.16327(10) 0.22310(8) 0.14596(12)
N6 N 0.1290(4) 0.5728(3) 0.0036(6)
N7 N -0.2678(3) 0.1370(3) 0.1805(3)
O9 O 0.2546(2) 0.26026(17) 0.2009(3)
O10 O 0.1597(2) 0.14821(18) 0.1083(3)
O11 O 0.0982(2) 0.23478(18) 0.2184(3)
O12 O 0.1069(2) 0.27252(19) 0.0474(3)
O13 O 0.1328(3) 0.5949(3) -0.0768(4)
O14 O 0.1333(3) 0.6123(2) 0.0775(5)
O15 O -0.3307(3) 0.1824(2) 0.1754(3)
O16 O -0.2816(2) 0.0709(2) 0.1844(3)
C20 C 0.1131(3) 0.3475(3) 0.0428(5)
C21 C 0.1104(3) 0.3748(3) -0.0503(5)
H27 H 0.1045 0.3428 -0.1055
C22 C 0.1164(4) 0.4488(4) -0.0630(5)
H28 H 0.1158 0.468 -0.1265
C23 C 0.1232(4) 0.4941(4) 0.0166(6)
C24 C 0.1233(3) 0.4675(3) 0.1093(5)
H29 H 0.127 0.4996 0.1638
C25 C 0.1177(3) 0.3932(3) 0.1214(5)
H30 H 0.1172 0.374 0.1845
C26 C 0.0053(4) 0.2080(3) 0.1980(4)
C27 C -0.0635(4) 0.2584(3) 0.2001(4)
H31 H -0.0484 0.3087 0.2064
C28 C -0.1538(4) 0.2351(3) 0.1930(4)
H32 H -0.202 0.2689 0.1945
C29 C -0.1731(4) 0.1623(3) 0.1838(4)
C30 C -0.1057(4) 0.1123(3) 0.1781(4)
H33 H -0.1215 0.0622 0.1694
C31 C -0.0140(4) 0.1358(3) 0.1852(4)
H34 H 0.0336 0.1023 0.1812
O17 O 0.3863(4) 0.3940(3) 0.2135(4)
loop_
_geom_bond_atom_site_label_1
_geom_bond_atom_site_label_2
_geom_bond_site_symmetry_1
_geom_bond_site_symmetry_2
P1 O1 1_555 1_555
N1 C1 1_555 1_555
C1 H1 1_555 1_555
H2 C1 1_555 1_555
P2 O9 1_555 1_555
O2 P1 1_555 1_555
N2 H3 1_555 1_555
H4 N2 1_555 1_555
C2 C1 1_555 1_555
H5 C2 1_555 1_555
H6 C2 1_555 1_555
O3 P1 1_555 1_555
N3 H7 1_555 1_555
H8 N3 1_555 1_555
C3 N2 1_555 1_555
H9 C3 1_555 1_555
H10 C3 1_555 1_555
O4 P1 1_555 1_555
N4 O5 1_555 1_555
C4 N3 1_555 1_555
H11 C4 1_555 1_555
H12 C4 1_555 1_555
N5 O7 1_555 1_555
C5 N3 1_555 1_555
H13 C5 1_555 1_555
H14 C5 1_555 1_555
O6 N4 1_555 1_555
N6 O13 1_555 1_555
C6 N1 1_555 1_555
H15 C6 1_555 1_555
H16 C6 1_555 1_555
N7 O15 1_555 1_555
C7 N1 1_555 1_555
H17 C7 1_555 1_555
H18 C7 1_555 1_555
O8 N5 1_555 1_555
C8 O3 1_555 1_555
C9 C8 1_555 1_555
H19 C9 1_555 1_555
O10 P2 1_555 1_555
C10 C9 1_555 1_555
H20 C10 1_555 1_555
O11 P2 1_555 1_555
C11 N4 1_555 1_555
O12 P2 1_555 1_555
C12 C11 1_555 1_555
H21 C12 1_555 1_555
C13 C8 1_555 1_555
H22 C13 1_555 1_555
O14 N6 1_555 1_555
C14 O4 1_555 1_555
C15 C14 1_555 1_555
H23 C15 1_555 1_555
O16 N7 1_555 1_555
C16 C15 1_555 1_555
H24 C16 1_555 1_555
C17 N5 1_555 1_555
C18 C17 1_555 1_555
H25 C18 1_555 1_555
C19 C14 1_555 1_555
H26 C19 1_555 1_555
C20 O12 1_555 1_555
C21 C20 1_555 1_555
H27 C21 1_555 1_555
C22 C21 1_555 1_555
H28 C22 1_555 1_555
C23 N6 1_555 1_555
C24 C23 1_555 1_555
H29 C24 1_555 1_555
C25 C20 1_555 1_555
H30 C25 1_555 1_555
C26 O11 1_555 1_555
C27 C26 1_555 1_555
H31 C27 1_555 1_555
C28 C27 1_555 1_555
H32 C28 1_555 1_555
C29 N7 1_555 1_555
C30 C29 1_555 1_555
H33 C30 1_555 1_555
C31 C26 1_555 1_555
H34 C31 1_555 1_555
N1B C1B 1_555 1_555
C1B H1B 1_555 1_555
H2B C1B 1_555 1_555
N2B H3B 1_555 1_555
H4B N2B 1_555 1_555
C2B C1B 1_555 1_555
H5B C2B 1_555 1_555
H6B C2B 1_555 1_555
N3B H7B 1_555 1_555
H8B N3B 1_555 1_555
C3B N2B 1_555 1_555
H9B C3B 1_555 1_555
H10B C3B 1_555 1_555
C4B N3B 1_555 1_555
H11B C4B 1_555 1_555
H12B C4B 1_555 1_555
C5B N3B 1_555 1_555
H13B C5B 1_555 1_555
H14B C5B 1_555 1_555
C6B N1B 1_555 1_555
H15B C6B 1_555 1_555
H16B C6B 1_555 1_555
C7B C7 1_555 1_555
H17B C7B 1_555 1_555
H18B C7B 1_555 1_555
N2 C2 1_555 1_555
C3 C4 1_555 1_555
C5 C6 1_555 1_555
C10 C11 1_555 1_555
C12 C13 1_555 1_555
C16 C17 1_555 1_555
C18 C19 1_555 1_555
C22 C23 1_555 1_555
C24 C25 1_555 1_555
C28 C29 1_555 1_555
C30 C31 1_555 1_555
N1B C7B 1_555 1_555
N2B C2B 1_555 1_555
C3B C4B 1_555 1_555
C5B C6B 1_555 1_555

#END
