
#######################################################################
#
#                 Cambridge Crystallographic Data Centre
#                                CCDC 
#
#######################################################################
#
# If this CIF has been generated from an entry in the Cambridge 
# Structural Database, then it will include bibliographic, chemical, 
# crystal, experimental, refinement or atomic coordinate data resulting 
# from the CCDC's data processing and validation procedures.
#
#######################################################################

data_DAQYAW
_chemical_formula_moiety         'C12 H32 N6 2+,2(C6 H4 N1 O2 1-),5(H2 O1)'
_chemical_name_systematic        
'4,7,13,16-Tetraaza-1,10-diazoniacyclooctadecane bis(picolinate) pentahydrate'
_symmetry_cell_setting           monoclinic
_symmetry_space_group_name_H-M   'C c'
_symmetry_Int_Tables_number      9
_space_group_name_Hall           'C -2yc'
loop_
_symmetry_equiv_pos_site_id
_symmetry_equiv_pos_as_xyz
1 x,y,z
2 x,-y,1/2+z
3 1/2+x,1/2+y,z
4 1/2+x,1/2-y,1/2+z
_cell_length_a                   12.8477(4)
_cell_length_b                   13.4255(4)
_cell_length_c                   18.8452(9)
_cell_angle_alpha                90
_cell_angle_beta                 104.038(3)
_cell_angle_gamma                90
_cell_volume                     3153.47
_cell_formula_units_Z            4
loop_
_atom_site_label
_atom_site_type_symbol
_atom_site_fract_x
_atom_site_fract_y
_atom_site_fract_z
O1 O 0.7567(4) 0.4787(3) 0.8876(2)
O2 O 0.9256(4) 0.4258(4) 0.9225(3)
N8 N 0.8017(4) 0.6342(4) 0.9818(3)
C13 C 0.8498(6) 0.4795(5) 0.9293(4)
C14 C 0.8713(5) 0.5577(5) 0.9898(3)
C15 C 0.9586(5) 0.5513(5) 1.0474(3)
H33 H 1.0061 0.4963 1.0513
C16 C 0.9780(5) 0.6255(5) 1.1004(4)
H34 H 1.0370 0.6210 1.1420
C17 C 0.9087(5) 0.7061(5) 1.0908(3)
H35 H 0.9213 0.7603 1.1242
C18 C 0.8225(5) 0.7059(5) 1.0328(3)
H36 H 0.7736 0.7600 1.0280
N1 N 0.5881(4) 0.6306(4) 0.8779(3)
H1 H 0.6604 0.6220 0.8977
H2 H 0.5673 0.5862 0.8399
C1 C 0.5279(5) 0.6098(5) 0.9345(3)
H3 H 0.4501 0.6096 0.9111
H4 H 0.5419 0.6639 0.9712
N2 N 0.5184(4) 0.4244(4) 0.9257(3)
C2 C 0.5580(6) 0.5114(6) 0.9730(4)
H5 H 0.6371 0.5073 0.9898
H6 H 0.5282 0.5087 1.0167
H7 H 0.543(6) 0.433(5) 0.880(2)
N3 N 0.5663(5) 0.2490(5) 0.8490(3)
C3 C 0.5515(6) 0.3285(6) 0.9640(4)
H8 H 0.6301 0.3290 0.9844
H9 H 0.5167 0.3219 1.0052
H10 H 0.577(10) 0.322(2) 0.845(7)
N4 N 0.7076(4) 0.3488(4) 0.7729(3)
H11 H 0.7328 0.3911 0.8117
H12 H 0.6354 0.3608 0.7554
C4 C 0.5225(6) 0.2428(5) 0.9152(4)
H13 H 0.4434 0.2378 0.8996
H14 H 0.5497 0.1813 0.9425
N5 N 0.7718(4) 0.5535(4) 0.7232(3)
C5 C 0.6815(6) 0.2281(6) 0.8664(4)
H15 H 0.6948 0.1585 0.8836
H16 H 0.7195 0.2729 0.9060
H17 H 0.731(5) 0.550(6) 0.762(3)
N6 N 0.7263(4) 0.7306(4) 0.7972(3)
C6 C 0.7235(5) 0.2439(5) 0.7988(4)
H18 H 0.8009 0.2274 0.8100
H19 H 0.6856 0.1986 0.7595
H20 H 0.741(6) 0.793(3) 0.827(4)
C7 C 0.7648(5) 0.3704(5) 0.7136(3)
H21 H 0.8431 0.3692 0.7352
H22 H 0.7482 0.3166 0.6766
C8 C 0.7363(6) 0.4673(5) 0.6762(3)
H23 H 0.7687 0.4708 0.6336
H24 H 0.6574 0.4706 0.6574
C9 C 0.7386(6) 0.6463(5) 0.6836(4)
H25 H 0.6600 0.6455 0.6635
H26 H 0.7731 0.6513 0.6421
C10 C 0.7690(6) 0.7358(5) 0.7327(4)
H27 H 0.8482 0.7408 0.7482
H28 H 0.7418 0.7968 0.7049
C11 C 0.6092(5) 0.7477(5) 0.7811(4)
H29 H 0.5723 0.7006 0.7427
H30 H 0.5929 0.8162 0.7623
C12 C 0.5683(5) 0.7331(5) 0.8496(4)
H31 H 0.6047 0.7808 0.8877
H32 H 0.4904 0.7471 0.8383
O3 O 0.5414(3) 0.4956(3) 0.7659(2)
O4 O 0.4034(4) 0.5845(4) 0.7057(3)
N7 N 0.4977(4) 0.3457(4) 0.6685(3)
C19 C 0.4607(5) 0.5066(5) 0.7157(3)
C20 C 0.4315(5) 0.4251(5) 0.6588(3)
C21 C 0.3444(6) 0.4324(5) 0.5984(4)
H37 H 0.2994 0.4895 0.5916
C22 C 0.3247(6) 0.3550(5) 0.5489(4)
H38 H 0.2650 0.3584 0.5078
C23 C 0.3905(6) 0.2732(5) 0.5582(4)
H39 H 0.3789 0.2201 0.5239
C24 C 0.4744(6) 0.2717(5) 0.6198(4)
H40 H 0.5186 0.2141 0.6282
O5 O 0.1638(4) 0.4903(4) 0.7473(3)
O6 O 0.1480(5) 0.4195(5) 0.9863(3)
O7 O -0.0167(4) 0.5344(4) 0.7939(3)
O8 O 0.2869(4) 0.4352(4) 0.8878(3)
O9 O 0.1982(4) 0.6299(4) 0.6373(2)
loop_
_geom_bond_atom_site_label_1
_geom_bond_atom_site_label_2
_geom_bond_site_symmetry_1
_geom_bond_site_symmetry_2
O1 C13 1_555 1_555
N1 H1 1_555 1_555
H2 N1 1_555 1_555
C1 N1 1_555 1_555
H3 C1 1_555 1_555
H4 C1 1_555 1_555
O2 C13 1_555 1_555
N2 C2 1_555 1_555
C2 C1 1_555 1_555
H5 C2 1_555 1_555
H6 C2 1_555 1_555
H7 N2 1_555 1_555
O3 C19 1_555 1_555
N3 H10 1_555 1_555
C3 N2 1_555 1_555
H8 C3 1_555 1_555
H9 C3 1_555 1_555
O4 C19 1_555 1_555
N4 H11 1_555 1_555
H12 N4 1_555 1_555
C4 N3 1_555 1_555
H13 C4 1_555 1_555
H14 C4 1_555 1_555
N5 H17 1_555 1_555
C5 N3 1_555 1_555
H15 C5 1_555 1_555
H16 C5 1_555 1_555
N6 H20 1_555 1_555
C6 N4 1_555 1_555
H18 C6 1_555 1_555
H19 C6 1_555 1_555
N7 C20 1_555 1_555
C7 N4 1_555 1_555
H21 C7 1_555 1_555
H22 C7 1_555 1_555
N8 C14 1_555 1_555
C8 N5 1_555 1_555
H23 C8 1_555 1_555
H24 C8 1_555 1_555
C9 N5 1_555 1_555
H25 C9 1_555 1_555
H26 C9 1_555 1_555
C10 N6 1_555 1_555
H27 C10 1_555 1_555
H28 C10 1_555 1_555
C11 N6 1_555 1_555
H29 C11 1_555 1_555
H30 C11 1_555 1_555
C12 N1 1_555 1_555
H31 C12 1_555 1_555
H32 C12 1_555 1_555
C13 C14 1_555 1_555
C14 C15 1_555 1_555
C15 H33 1_555 1_555
C16 C15 1_555 1_555
H34 C16 1_555 1_555
C17 C16 1_555 1_555
H35 C17 1_555 1_555
C18 N8 1_555 1_555
H36 C18 1_555 1_555
C19 C20 1_555 1_555
C20 C21 1_555 1_555
C21 H37 1_555 1_555
C22 C21 1_555 1_555
H38 C22 1_555 1_555
C23 C22 1_555 1_555
H39 C23 1_555 1_555
C24 N7 1_555 1_555
H40 C24 1_555 1_555
C3 C4 1_555 1_555
C5 C6 1_555 1_555
C7 C8 1_555 1_555
C9 C10 1_555 1_555
C11 C12 1_555 1_555
C17 C18 1_555 1_555
C23 C24 1_555 1_555

#END
