
#######################################################################
#
#                 Cambridge Crystallographic Data Centre
#                                CCDC 
#
#######################################################################
#
# If this CIF has been generated from an entry in the Cambridge 
# Structural Database, then it will include bibliographic, chemical, 
# crystal, experimental, refinement or atomic coordinate data resulting 
# from the CCDC's data processing and validation procedures.
#
#######################################################################

data_DAQZIF01
_chemical_formula_moiety         'C7 H5 N1 O4,0.5(C10 H8 N2)'
_chemical_name_systematic        "p-Nitrobenzoic acid hemikis(4,4'-bipyridine)"
_symmetry_cell_setting           monoclinic
_symmetry_space_group_name_H-M   'P 21/n'
_symmetry_Int_Tables_number      14
_space_group_name_Hall           '-P 2yn'
loop_
_symmetry_equiv_pos_site_id
_symmetry_equiv_pos_as_xyz
1 x,y,z
2 1/2-x,1/2+y,1/2-z
3 -x,-y,-z
4 1/2+x,1/2-y,1/2+z
_cell_length_a                   7.8399(19)
_cell_length_b                   6.8494(17)
_cell_length_c                   20.788(5)
_cell_angle_alpha                90
_cell_angle_beta                 92.555(4)
_cell_angle_gamma                90
_cell_volume                     1115.18
_exptl_crystal_colour            brown
_exptl_crystal_description       needle
_chemical_melting_point          192-194deg.C
_cell_formula_units_Z            4
_exptl_crystal_recrystallization_method methanol
loop_
_atom_site_label
_atom_site_type_symbol
_atom_site_fract_x
_atom_site_fract_y
_atom_site_fract_z
O1 O 0.27078(19) 0.2294(2) 0.14380(7)
H1 H 0.2287 0.1372 0.1236
O2 O 0.4023(2) 0.2785(2) 0.05300(7)
O3 O 0.7141(2) 1.1463(3) 0.17638(9)
O4 O 0.5885(2) 1.0961(3) 0.26447(9)
N1 N 0.6253(2) 1.0478(3) 0.21057(10)
C1 C 0.3682(2) 0.3298(3) 0.10650(9)
C2 C 0.4339(2) 0.5158(3) 0.13574(8)
C3 C 0.5253(2) 0.6401(3) 0.09774(9)
H2 H 0.5453 0.6058 0.0554
C4 C 0.5870(3) 0.8144(3) 0.12224(10)
H3 H 0.6478 0.8988 0.0967
C5 C 0.5574(2) 0.8612(3) 0.18473(9)
C6 C 0.4674(2) 0.7420(3) 0.22372(9)
H4 H 0.4486 0.7774 0.2660
C7 C 0.4052(2) 0.5682(3) 0.19883(9)
H5 H 0.3435 0.4854 0.2245
N2 N 0.1518(2) 0.9207(2) 0.08376(8)
C8 C 0.0497(3) 0.7938(3) 0.11045(10)
H6 H 0.0172 0.8175 0.1522
C9 C -0.0112(3) 0.6286(3) 0.07976(10)
H7 H -0.0818 0.5435 0.1011
C10 C 0.0320(2) 0.5880(3) 0.01730(9)
C11 C 0.1397(3) 0.7209(3) -0.00982(10)
H8 H 0.1744 0.7014 -0.0515
C12 C 0.1961(3) 0.8818(3) 0.02434(11)
H9 H 0.2693 0.9681 0.0047
N2B N -0.1518(2) 0.0793(2) -0.08376(8)
C8B C -0.0497(3) 0.2062(3) -0.11045(10)
H6B H -0.0172 0.1825 -0.1522
C9B C 0.0112(3) 0.3714(3) -0.07976(10)
H7B H 0.0818 0.4565 -0.1011
C10B C -0.0320(2) 0.4120(3) -0.01730(9)
C11B C -0.1397(3) 0.2791(3) 0.00982(10)
H8B H -0.1744 0.2986 0.0515
C12B C -0.1961(3) 0.1182(3) -0.02434(11)
H9B H -0.2693 0.0319 -0.0047
loop_
_geom_bond_atom_site_label_1
_geom_bond_atom_site_label_2
_geom_bond_site_symmetry_1
_geom_bond_site_symmetry_2
O1 H1 1_555 1_555
O2 C1 1_555 1_555
O3 N1 1_555 1_555
O4 N1 1_555 1_555
N1 C5 1_555 1_555
C1 O1 1_555 1_555
C2 C1 1_555 1_555
C3 C2 1_555 1_555
H2 C3 1_555 1_555
C4 C3 1_555 1_555
H3 C4 1_555 1_555
C5 C4 1_555 1_555
C6 C5 1_555 1_555
H4 C6 1_555 1_555
C7 C2 1_555 1_555
H5 C7 1_555 1_555
N2 C8 1_555 1_555
C8 H6 1_555 1_555
C9 C8 1_555 1_555
H7 C9 1_555 1_555
C10 C9 1_555 1_555
C11 C10 1_555 1_555
H8 C11 1_555 1_555
C12 N2 1_555 1_555
H9 C12 1_555 1_555
N2B C8B 1_555 1_555
C8B H6B 1_555 1_555
C9B C8B 1_555 1_555
H7B C9B 1_555 1_555
C10B C10 1_555 1_555
C11B C10B 1_555 1_555
H8B C11B 1_555 1_555
C12B N2B 1_555 1_555
H9B C12B 1_555 1_555
C6 C7 1_555 1_555
C11 C12 1_555 1_555
C9B C10B 1_555 1_555
C11B C12B 1_555 1_555

#END
