
#######################################################################
#
#                 Cambridge Crystallographic Data Centre
#                                CCDC 
#
#######################################################################
#
# If this CIF has been generated from an entry in the Cambridge 
# Structural Database, then it will include bibliographic, chemical, 
# crystal, experimental, refinement or atomic coordinate data resulting 
# from the CCDC's data processing and validation procedures.
#
#######################################################################

data_DARBEG
_chemical_formula_moiety         'C24 H14 O1'
_chemical_name_systematic        
benzo[b]naphtho[1'',8'':3',4',5']cyclohepta[1',2':3,4]benzo[1,2-d]furan
_symmetry_cell_setting           monoclinic
_symmetry_space_group_name_H-M   'P 21'
_symmetry_Int_Tables_number      4
_space_group_name_Hall           'P 2yb'
loop_
_symmetry_equiv_pos_site_id
_symmetry_equiv_pos_as_xyz
1 x,y,z
2 -x,1/2+y,-z
_cell_length_a                   13.3702(9)
_cell_length_b                   3.8763(2)
_cell_length_c                   14.8292(9)
_cell_angle_alpha                90
_cell_angle_beta                 98.9387(18)
_cell_angle_gamma                90
_cell_volume                     759.218
_exptl_crystal_colour            yellow
_exptl_crystal_description       Plate
_cell_formula_units_Z            2
_exptl_crystal_recrystallization_method dichloromethane
loop_
_atom_site_label
_atom_site_type_symbol
_atom_site_fract_x
_atom_site_fract_y
_atom_site_fract_z
O1 O 0.36686(6) 0.4901(3) 0.52355(5)
C1 C 0.34917(9) 0.4501(3) 0.42982(8)
C2 C 0.41531(10) 0.5466(4) 0.37214(9)
H1 H 0.4778 0.6461 0.3937
C3 C 0.38352(11) 0.4872(5) 0.28013(10)
H2 H 0.4257 0.5486 0.2385
C4 C 0.29055(12) 0.3388(5) 0.24846(9)
H3 H 0.2715 0.3042 0.1861
C5 C 0.22572(10) 0.2414(4) 0.30759(9)
H4 H 0.1634 0.1416 0.2859
C6 C 0.25590(9) 0.2960(3) 0.40053(8)
C7 C 0.21262(8) 0.2310(3) 0.48262(8)
C8 C 0.12568(8) 0.0750(4) 0.50399(8)
H5 H 0.0781 -0.0212 0.4585
C9 C 0.11170(8) 0.0661(3) 0.59375(8)
H6 H 0.0536 -0.0397 0.6078
C10 C 0.18053(8) 0.2084(3) 0.66589(8)
C11 C 0.14833(9) 0.2029(4) 0.75776(8)
C12 C 0.04551(10) 0.2215(4) 0.75901(10)
H7 H 0.0036 0.2928 0.7063
C13 C 0.00148(12) 0.1386(5) 0.83542(11)
H8 H -0.0681 0.1592 0.8338
C14 C 0.06098(12) 0.0281(5) 0.91188(10)
H9 H 0.0315 -0.0509 0.9608
C15 C 0.16729(12) 0.0312(4) 0.91844(9)
C16 C 0.21394(10) 0.1441(3) 0.84302(8)
C17 C 0.22757(15) -0.0665(5) 1.00126(10)
H10 H 0.1967 -0.1539 1.0484
C18 C 0.32956(14) -0.0351(5) 1.01313(10)
H11 H 0.3688 -0.1099 1.0669
C19 C 0.37491(12) 0.1104(5) 0.94403(9)
H12 H 0.4445 0.1476 0.9546
C20 C 0.32119(10) 0.2021(4) 0.86028(9)
C21 C 0.37709(10) 0.3931(4) 0.80034(8)
H13 H 0.4389 0.4786 0.8291
C22 C 0.35643(9) 0.4686(4) 0.71201(8)
H14 H 0.4014 0.6172 0.6897
C23 C 0.27189(8) 0.3469(3) 0.64598(8)
C24 C 0.28237(8) 0.3563(3) 0.55407(8)
loop_
_geom_bond_atom_site_label_1
_geom_bond_atom_site_label_2
_geom_bond_site_symmetry_1
_geom_bond_site_symmetry_2
O1 C1 1_555 1_555
C1 C2 1_555 1_555
C2 H1 1_555 1_555
C3 C2 1_555 1_555
H2 C3 1_555 1_555
C4 C3 1_555 1_555
H3 C4 1_555 1_555
C5 C4 1_555 1_555
H4 C5 1_555 1_555
C6 C1 1_555 1_555
C7 C6 1_555 1_555
C8 C7 1_555 1_555
H5 C8 1_555 1_555
C9 C8 1_555 1_555
H6 C9 1_555 1_555
C10 C9 1_555 1_555
C11 C10 1_555 1_555
C12 C11 1_555 1_555
H7 C12 1_555 1_555
C13 C12 1_555 1_555
H8 C13 1_555 1_555
C14 C13 1_555 1_555
H9 C14 1_555 1_555
C15 C14 1_555 1_555
C16 C11 1_555 1_555
C17 C15 1_555 1_555
H10 C17 1_555 1_555
C18 C17 1_555 1_555
H11 C18 1_555 1_555
C19 C18 1_555 1_555
H12 C19 1_555 1_555
C20 C16 1_555 1_555
C21 C20 1_555 1_555
H13 C21 1_555 1_555
C22 C21 1_555 1_555
H14 C22 1_555 1_555
C23 C10 1_555 1_555
C24 O1 1_555 1_555
C5 C6 1_555 1_555
C7 C24 1_555 1_555
C15 C16 1_555 1_555
C19 C20 1_555 1_555
C22 C23 1_555 1_555
C23 C24 1_555 1_555

#END
