
#######################################################################
#
#                 Cambridge Crystallographic Data Centre
#                                CCDC 
#
#######################################################################
#
# If this CIF has been generated from an entry in the Cambridge 
# Structural Database, then it will include bibliographic, chemical, 
# crystal, experimental, refinement or atomic coordinate data resulting 
# from the CCDC's data processing and validation procedures.
#
#######################################################################

data_DARBIK
_chemical_formula_moiety         'C20 H12 S1'
_chemical_name_systematic        
benzo[b]naphtho[1',8':3,4,5]cyclohepta[1,2-d]thiophene
_symmetry_cell_setting           monoclinic
_symmetry_space_group_name_H-M   'P 21'
_symmetry_Int_Tables_number      4
_space_group_name_Hall           'P 2yb'
loop_
_symmetry_equiv_pos_site_id
_symmetry_equiv_pos_as_xyz
1 x,y,z
2 -x,1/2+y,-z
_cell_length_a                   12.841(2)
_cell_length_b                   3.9698(6)
_cell_length_c                   13.175(2)
_cell_angle_alpha                90
_cell_angle_beta                 101.5849(73)
_cell_angle_gamma                90
_cell_volume                     657.93
_exptl_crystal_colour            red
_exptl_crystal_description       Plate
_cell_formula_units_Z            2
_exptl_crystal_recrystallization_method dichloromethane
loop_
_atom_site_label
_atom_site_type_symbol
_atom_site_fract_x
_atom_site_fract_y
_atom_site_fract_z
S1 S 0.54660(8) 0.6088(3) 0.39356(9)
C1 C 0.4225(4) 0.7493(12) 0.3314(4)
C2 C 0.3277(4) 0.7190(13) 0.3656(4)
H1 H 0.3254 0.6124 0.4280
C3 C 0.2374(4) 0.8500(15) 0.3054(4)
H2 H 0.1732 0.8389 0.3278
C4 C 0.2413(4) 0.9988(15) 0.2111(4)
H3 H 0.1786 1.0776 0.1700
C5 C 0.3337(4) 1.0339(11) 0.1766(4)
H4 H 0.3347 1.1401 0.1139
C6 C 0.4285(4) 0.9050(11) 0.2383(3)
C7 C 0.5347(3) 0.9034(11) 0.2170(3)
C8 C 0.5562(4) 1.0536(12) 0.1246(4)
H5 H 0.4997 1.1669 0.0836
C9 C 0.6472(4) 1.0524(12) 0.0896(4)
H6 H 0.6436 1.1732 0.0285
C10 C 0.7506(4) 0.8996(11) 0.1281(4)
C11 C 0.8191(4) 0.9216(13) 0.0625(4)
H7 H 0.7956 1.0258 -0.0012
C12 C 0.9227(5) 0.7971(16) 0.0850(5)
H8 H 0.9666 0.8169 0.0370
C13 C 0.9582(4) 0.6483(15) 0.1767(5)
H9 H 1.0273 0.5658 0.1925
C14 C 0.8916(3) 0.6147(14) 0.2502(4)
C15 C 0.7858(4) 0.7365(11) 0.2274(4)
C16 C 0.9358(4) 0.4629(14) 0.3456(5)
H10 H 1.0045 0.3767 0.3571
C17 C 0.8784(4) 0.4432(17) 0.4200(5)
H11 H 0.9088 0.3567 0.4848
C18 C 0.7716(4) 0.5541(13) 0.3997(4)
H12 H 0.7328 0.5368 0.4520
C19 C 0.7226(3) 0.6866(10) 0.3056(3)
C20 C 0.6078(3) 0.7534(11) 0.2937(3)
loop_
_geom_bond_atom_site_label_1
_geom_bond_atom_site_label_2
_geom_bond_site_symmetry_1
_geom_bond_site_symmetry_2
S1 C1 1_555 1_555
C1 C2 1_555 1_555
C2 H1 1_555 1_555
C3 C2 1_555 1_555
H2 C3 1_555 1_555
C4 C3 1_555 1_555
H3 C4 1_555 1_555
C5 C4 1_555 1_555
H4 C5 1_555 1_555
C6 C1 1_555 1_555
C7 C6 1_555 1_555
C8 C7 1_555 1_555
H5 C8 1_555 1_555
C9 C8 1_555 1_555
H6 C9 1_555 1_555
C10 C9 1_555 1_555
C11 C10 1_555 1_555
H7 C11 1_555 1_555
C12 C11 1_555 1_555
H8 C12 1_555 1_555
C13 C12 1_555 1_555
H9 C13 1_555 1_555
C14 C13 1_555 1_555
C15 C10 1_555 1_555
C16 C14 1_555 1_555
H10 C16 1_555 1_555
C17 C16 1_555 1_555
H11 C17 1_555 1_555
C18 C17 1_555 1_555
H12 C18 1_555 1_555
C19 C15 1_555 1_555
C20 S1 1_555 1_555
C5 C6 1_555 1_555
C7 C20 1_555 1_555
C14 C15 1_555 1_555
C18 C19 1_555 1_555
C19 C20 1_555 1_555

#END
