
#######################################################################
#
#                 Cambridge Crystallographic Data Centre
#                                CCDC 
#
#######################################################################
#
# If this CIF has been generated from an entry in the Cambridge 
# Structural Database, then it will include bibliographic, chemical, 
# crystal, experimental, refinement or atomic coordinate data resulting 
# from the CCDC's data processing and validation procedures.
#
#######################################################################

data_DARGAF
_chemical_formula_moiety         'C12 H7 N3 O7'
_chemical_name_systematic        'phenyl 2,4,6-trinitrophenyl ether'
_symmetry_cell_setting           orthorhombic
_symmetry_space_group_name_H-M   'P 21 21 21'
_symmetry_Int_Tables_number      19
_space_group_name_Hall           'P 2ac 2ab'
loop_
_symmetry_equiv_pos_site_id
_symmetry_equiv_pos_as_xyz
1 x,y,z
2 1/2-x,-y,1/2+z
3 1/2+x,1/2-y,-z
4 -x,1/2+y,1/2-z
_cell_length_a                   7.6597(15)
_cell_length_b                   9.6982(19)
_cell_length_c                   17.107(3)
_cell_angle_alpha                90
_cell_angle_beta                 90
_cell_angle_gamma                90
_cell_volume                     1270.8
_exptl_crystal_colour            colorless
_exptl_crystal_description       brick
_chemical_melting_point          '424 K'
_cell_formula_units_Z            4
loop_
_atom_site_label
_atom_site_type_symbol
_atom_site_fract_x
_atom_site_fract_y
_atom_site_fract_z
O1 O 0.8012(2) 0.72987(14) 0.13473(9)
O2 O 0.6477(2) 0.77319(16) 0.28371(9)
O3 O 0.3909(2) 0.85708(16) 0.25650(10)
O4 O 0.1740(2) 0.34017(15) 0.05578(9)
O5 O 0.0413(2) 0.48378(17) 0.13367(10)
O6 O 0.7962(2) 0.44623(17) -0.01692(10)
O7 O 0.8180(3) 0.66987(18) -0.02193(11)
N1 N 0.5144(3) 0.78004(17) 0.24399(11)
N2 N 0.1711(3) 0.44198(18) 0.09791(10)
N3 N 0.7568(2) 0.5629(2) 0.00450(10)
C1 C 0.6437(3) 0.6697(2) 0.12566(12)
C2 C 0.5007(3) 0.6860(2) 0.17651(12)
C3 C 0.3453(3) 0.6161(2) 0.16681(12)
H1 H 0.2488 0.6326 0.2004
C4 C 0.3343(3) 0.5211(2) 0.10642(11)
C5 C 0.4697(3) 0.4972(2) 0.05499(12)
H2 H 0.4607 0.4299 0.0149
C6 C 0.6191(3) 0.5757(2) 0.06432(12)
C7 C 0.8146(3) 0.8745(2) 0.13844(12)
C8 C 0.9728(3) 0.9234(2) 0.16653(13)
H3 H 1.0614 0.8617 0.1835
C9 C 0.9983(3) 1.0657(3) 0.16919(14)
H4 H 1.1060 1.1017 0.1877
C10 C 0.8677(3) 1.1553(3) 0.14504(14)
H5 H 0.8860 1.2521 0.1472
C11 C 0.7102(4) 1.1034(2) 0.11788(13)
H6 H 0.6206 1.1650 0.1021
C12 C 0.6825(3) 0.9615(2) 0.11350(12)
H7 H 0.5758 0.9254 0.0939
loop_
_geom_bond_atom_site_label_1
_geom_bond_atom_site_label_2
_geom_bond_site_symmetry_1
_geom_bond_site_symmetry_2
O1 C1 1_555 1_555
O2 N1 1_555 1_555
O3 N1 1_555 1_555
O4 N2 1_555 1_555
O5 N2 1_555 1_555
O6 N3 1_555 1_555
O7 N3 1_555 1_555
N1 C2 1_555 1_555
N2 C4 1_555 1_555
N3 C6 1_555 1_555
C1 C2 1_555 1_555
C2 C3 1_555 1_555
C3 H1 1_555 1_555
C4 C3 1_555 1_555
C5 C4 1_555 1_555
H2 C5 1_555 1_555
C6 C1 1_555 1_555
C7 O1 1_555 1_555
C8 C7 1_555 1_555
H3 C8 1_555 1_555
C9 C8 1_555 1_555
H4 C9 1_555 1_555
C10 C9 1_555 1_555
H5 C10 1_555 1_555
C11 C10 1_555 1_555
H6 C11 1_555 1_555
C12 C7 1_555 1_555
H7 C12 1_555 1_555
C5 C6 1_555 1_555
C11 C12 1_555 1_555

#END
