
#######################################################################
#
#                 Cambridge Crystallographic Data Centre
#                                CCDC 
#
#######################################################################
#
# If this CIF has been generated from an entry in the Cambridge 
# Structural Database, then it will include bibliographic, chemical, 
# crystal, experimental, refinement or atomic coordinate data resulting 
# from the CCDC's data processing and validation procedures.
#
#######################################################################

data_DARHOW
_chemical_formula_moiety         'C29 H23 N1 O1,C4 H8 O2'
_chemical_name_systematic        
'10-(2-((diphenylmethylene)amino)vinyl)-9,10-dihydrophenanthren-9-ol ethyl acetate solvate'
_symmetry_cell_setting           monoclinic
_symmetry_space_group_name_H-M   'P 21/n'
_symmetry_Int_Tables_number      14
_space_group_name_Hall           '-P 2yn'
loop_
_symmetry_equiv_pos_site_id
_symmetry_equiv_pos_as_xyz
1 x,y,z
2 1/2-x,1/2+y,1/2-z
3 -x,-y,-z
4 1/2+x,1/2-y,1/2+z
_cell_length_a                   15.552(5)
_cell_length_b                   9.109(3)
_cell_length_c                   20.000(6)
_cell_angle_alpha                90
_cell_angle_beta                 111.508(5)
_cell_angle_gamma                90
_cell_volume                     2635.97
_exptl_crystal_colour            colorless
_exptl_crystal_description       block
_cell_formula_units_Z            4
loop_
_atom_site_label
_atom_site_type_symbol
_atom_site_fract_x
_atom_site_fract_y
_atom_site_fract_z
O1 O 0.73247(9) 0.95712(16) 0.21611(7)
H1 H 0.7883 0.9356 0.2383
N1 N 0.57850(11) 1.37911(17) 0.21360(9)
C1 C 0.71648(13) 0.9776(2) 0.14217(10)
H2 H 0.7691 1.0349 0.1380
C2 C 0.70798(13) 0.8354(2) 0.10189(11)
C3 C 0.73704(14) 0.7017(2) 0.13601(11)
H3 H 0.7628 0.6975 0.1870
C4 C 0.72880(16) 0.5751(2) 0.09633(13)
H4 H 0.7492 0.4841 0.1201
C5 C 0.69102(15) 0.5801(2) 0.02242(13)
H5 H 0.6855 0.4927 -0.0048
C6 C 0.66133(14) 0.7117(2) -0.01202(11)
H6 H 0.6349 0.7142 -0.0630
C7 C 0.66951(13) 0.8413(2) 0.02679(11)
C8 C 0.63716(13) 0.9850(2) -0.00805(10)
C9 C 0.62805(14) 1.0118(2) -0.07914(11)
H7 H 0.6467 0.9391 -0.1050
C10 C 0.59215(14) 1.1431(2) -0.11202(11)
H8 H 0.5865 1.1605 -0.1603
C11 C 0.56468(15) 1.2484(2) -0.07502(11)
H9 H 0.5382 1.3375 -0.0982
C12 C 0.57555(14) 1.2251(2) -0.00385(11)
H10 H 0.5570 1.2989 0.0216
C13 C 0.61326(13) 1.0952(2) 0.03048(10)
C14 C 0.62752(13) 1.0676(2) 0.10875(10)
H11 H 0.5746 1.0075 0.1105
C15 C 0.63255(14) 1.2047(2) 0.15050(10)
H12 H 0.6857 1.2648 0.1605
C16 C 0.56873(14) 1.2485(2) 0.17445(10)
H13 H 0.5148 1.1904 0.1651
C17 C 0.51591(14) 1.4237(2) 0.23674(10)
C18 C 0.43032(14) 1.3400(2) 0.22888(10)
C19 C 0.43417(15) 1.1997(2) 0.25715(11)
H14 H 0.4926 1.1561 0.2826
C20 C 0.35457(17) 1.1228(3) 0.24889(12)
H15 H 0.3581 1.0274 0.2689
C21 C 0.26949(16) 1.1855(3) 0.21126(13)
H16 H 0.2144 1.1326 0.2050
C22 C 0.26427(15) 1.3244(3) 0.18279(13)
H17 H 0.2057 1.3667 0.1567
C23 C 0.34407(15) 1.4022(2) 0.19208(12)
H18 H 0.3401 1.4988 0.1732
C24 C 0.52835(13) 1.5690(2) 0.27217(10)
C25 C 0.57963(13) 1.6780(2) 0.25554(10)
H19 H 0.6069 1.6590 0.2210
C26 C 0.59157(14) 1.8137(2) 0.28844(11)
H20 H 0.6258 1.8880 0.2758
C27 C 0.55353(15) 1.8413(2) 0.33988(12)
H21 H 0.5624 1.9340 0.3632
C28 C 0.50285(15) 1.7339(2) 0.35726(11)
H22 H 0.4768 1.7528 0.3926
C29 C 0.48970(14) 1.5987(2) 0.32355(11)
H23 H 0.4541 1.5256 0.3355
O2 O 0.44334(12) 1.04488(18) 0.41948(9)
O3 O 0.47355(11) 1.27593(18) 0.45649(10)
C30 C 0.3246(2) 1.1912(4) 0.4334(2)
H24 H 0.2935 1.2577 0.3933
H25 H 0.3288 1.2379 0.4787
H26 H 0.2892 1.0998 0.4270
C31 C 0.41919(18) 1.1579(3) 0.43533(14)
C32 C 0.56952(16) 1.2585(3) 0.46536(14)
H27 H 0.5755 1.2458 0.4181
H28 H 0.5965 1.1717 0.4955
C33 C 0.61750(17) 1.3958(3) 0.50124(15)
H29 H 0.5907 1.4805 0.4704
H30 H 0.6835 1.3888 0.5094
H31 H 0.6097 1.4079 0.5474
loop_
_geom_bond_atom_site_label_1
_geom_bond_atom_site_label_2
_geom_bond_site_symmetry_1
_geom_bond_site_symmetry_2
O1 H1 1_555 1_555
N1 C16 1_555 1_555
C1 O1 1_555 1_555
H2 C1 1_555 1_555
C2 C1 1_555 1_555
C3 C2 1_555 1_555
H3 C3 1_555 1_555
C4 C3 1_555 1_555
H4 C4 1_555 1_555
C5 C4 1_555 1_555
H5 C5 1_555 1_555
C6 C5 1_555 1_555
H6 C6 1_555 1_555
C7 C2 1_555 1_555
C8 C7 1_555 1_555
C9 C8 1_555 1_555
H7 C9 1_555 1_555
C10 C9 1_555 1_555
H8 C10 1_555 1_555
C11 C10 1_555 1_555
H9 C11 1_555 1_555
C12 C11 1_555 1_555
H10 C12 1_555 1_555
C13 C8 1_555 1_555
C14 C1 1_555 1_555
H11 C14 1_555 1_555
C15 C14 1_555 1_555
H12 C15 1_555 1_555
C16 C15 1_555 1_555
H13 C16 1_555 1_555
C17 N1 1_555 1_555
C18 C17 1_555 1_555
C19 C18 1_555 1_555
H14 C19 1_555 1_555
C20 C19 1_555 1_555
H15 C20 1_555 1_555
C21 C20 1_555 1_555
H16 C21 1_555 1_555
C22 C21 1_555 1_555
H17 C22 1_555 1_555
C23 C18 1_555 1_555
H18 C23 1_555 1_555
C24 C17 1_555 1_555
C25 C24 1_555 1_555
H19 C25 1_555 1_555
C26 C25 1_555 1_555
H20 C26 1_555 1_555
C27 C26 1_555 1_555
H21 C27 1_555 1_555
C28 C27 1_555 1_555
H22 C28 1_555 1_555
C29 C24 1_555 1_555
H23 C29 1_555 1_555
O2 C31 1_555 1_555
O3 C31 1_555 1_555
C30 H24 1_555 1_555
H25 C30 1_555 1_555
H26 C30 1_555 1_555
C31 C30 1_555 1_555
C32 O3 1_555 1_555
H27 C32 1_555 1_555
H28 C32 1_555 1_555
C33 C32 1_555 1_555
H29 C33 1_555 1_555
H30 C33 1_555 1_555
H31 C33 1_555 1_555
C6 C7 1_555 1_555
C12 C13 1_555 1_555
C13 C14 1_555 1_555
C22 C23 1_555 1_555
C28 C29 1_555 1_555

#END
