
#######################################################################
#
#                 Cambridge Crystallographic Data Centre
#                                CCDC 
#
#######################################################################
#
# If this CIF has been generated from an entry in the Cambridge 
# Structural Database, then it will include bibliographic, chemical, 
# crystal, experimental, refinement or atomic coordinate data resulting 
# from the CCDC's data processing and validation procedures.
#
#######################################################################

data_DARNUF
_chemical_formula_moiety         'C30 H24 O3'
_chemical_name_systematic        
5,5,8,8-Tetraphenyl-2,4,9-trioxatricyclo(5.2.0.0^3,6^)nonane
_symmetry_cell_setting           triclinic
_symmetry_space_group_name_H-M   'P 1'
_symmetry_Int_Tables_number      1
_space_group_name_Hall           'P 1'
loop_
_symmetry_equiv_pos_site_id
_symmetry_equiv_pos_as_xyz
1 x,y,z
_cell_length_a                   6.526(3)
_cell_length_b                   9.339(3)
_cell_length_c                   10.487(3)
_cell_angle_alpha                76.12(3)
_cell_angle_beta                 71.83(3)
_cell_angle_gamma                69.53(3)
_cell_volume                     562.748
_chemical_melting_point          103-104deg.C
_cell_formula_units_Z            1
loop_
_atom_site_label
_atom_site_type_symbol
_atom_site_fract_x
_atom_site_fract_y
_atom_site_fract_z
O1 O -0.0024 0.2332 0.4460
O2 O 0.0240(8) 0.0689(8) 0.3045(7)
O3 O -0.2857(9) 0.4003(8) 0.5921(7)
C1 C -0.050(1) 0.1038(10) 0.4392(9)
C2 C -0.303(1) 0.1525(9) 0.4406(9)
C3 C -0.394(1) 0.3156(9) 0.4573(9)
C4 C -0.193(1) 0.3619(11) 0.4574(10)
C5 C -0.211(1) 0.1083(10) 0.2937(9)
C6 C -0.496(1) 0.3599(10) 0.6019(10)
C7 C -0.253(1) -0.0350(9) 0.2761(8)
C8 C -0.462(1) -0.0643(10) 0.3341(10)
C9 C -0.499(2) -0.1876(10) 0.3163(12)
C10 C -0.338(2) -0.2847(11) 0.2274(13)
C11 C -0.125(2) -0.2580(12) 0.1682(12)
C12 C -0.090(2) -0.1354(12) 0.1928(11)
C13 C -0.254(1) 0.2364(10) 0.1822(9)
C14 C -0.473(1) 0.3010(12) 0.1618(10)
C15 C -0.518(2) 0.4224(13) 0.0538(12)
C16 C -0.336(2) 0.4803(13) -0.0301(11)
C17 C -0.128(2) 0.4173(13) -0.0131(12)
C18 C -0.083(2) 0.2956(10) 0.0957(10)
C19 C -0.518(1) 0.2320(10) 0.7154(9)
C20 C -0.375(2) 0.1722(12) 0.7994(10)
C21 C -0.410(2) 0.0485(13) 0.9051(10)
C22 C -0.579(2) -0.0116(12) 0.9266(12)
C23 C -0.718(2) 0.0477(11) 0.8395(13)
C24 C -0.693(1) 0.1660(12) 0.7386(10)
C25 C -0.691(1) 0.5005(9) 0.6211(9)
C26 C -0.716(2) 0.6019(11) 0.7002(11)
C27 C -0.892(2) 0.7253(13) 0.7253(15)
C28 C -1.083(2) 0.7548(12) 0.6679(12)
C29 C -1.063(2) 0.6548(10) 0.5858(14)
C30 C -0.868(1) 0.5317(10) 0.5591(12)
H1 H 0.0127 0.0195 0.5161
H2 H -0.3874 0.0749 0.5146
H3 H -0.4848 0.3904 0.3785
H4 H -0.1451 0.4388 0.3886
H5 H -0.5260 -0.0368 0.4453
H6 H -0.6027 -0.2528 0.4266
H7 H -0.3649 -0.3761 0.2332
H8 H 0.0150 -0.3402 0.1002
H9 H 0.0701 -0.0872 0.1614
H10 H -0.6168 0.2549 0.2337
H11 H -0.6900 0.5037 0.0296
H12 H -0.3641 0.5645 -0.0985
H13 H 0.0168 0.4614 -0.0867
H14 H 0.0968 0.2459 0.1120
H15 H -0.2263 0.2200 0.7664
H16 H -0.3278 0.0222 0.9577
H17 H -0.6261 -0.1034 1.0162
H18 H -0.8228 0.0077 0.8511
H19 H -0.7581 0.1806 0.6780
H20 H -0.5579 0.5730 0.7575
H21 H -0.8955 0.8084 0.7914
H22 H -1.2434 0.8575 0.6910
H23 H -1.2078 0.6728 0.5380
H24 H -0.8513 0.4532 0.4847
loop_
_geom_bond_atom_site_label_1
_geom_bond_atom_site_label_2
_geom_bond_site_symmetry_1
_geom_bond_site_symmetry_2
O1 C1 1_555 1_555
O2 C1 1_555 1_555
O3 C4 1_555 1_555
C1 C2 1_555 1_555
C2 C3 1_555 1_555
C3 C4 1_555 1_555
C4 O1 1_555 1_555
C5 O2 1_555 1_555
C6 O3 1_555 1_555
C7 C5 1_555 1_555
C8 C7 1_555 1_555
C9 C8 1_555 1_555
C10 C9 1_555 1_555
C11 C10 1_555 1_555
C12 C7 1_555 1_555
C13 C5 1_555 1_555
C14 C13 1_555 1_555
C15 C14 1_555 1_555
C16 C15 1_555 1_555
C17 C16 1_555 1_555
C18 C13 1_555 1_555
C19 C6 1_555 1_555
C20 C19 1_555 1_555
C21 C20 1_555 1_555
C22 C21 1_555 1_555
C23 C22 1_555 1_555
C24 C19 1_555 1_555
C25 C6 1_555 1_555
C26 C25 1_555 1_555
C27 C26 1_555 1_555
C28 C27 1_555 1_555
C29 C28 1_555 1_555
C30 C25 1_555 1_555
H1 C1 1_555 1_555
H2 C2 1_555 1_555
H3 C3 1_555 1_555
H4 C4 1_555 1_555
H5 C8 1_555 1_555
H6 C9 1_555 1_555
H7 C10 1_555 1_555
H8 C11 1_555 1_555
H9 C12 1_555 1_555
H10 C14 1_555 1_555
H11 C15 1_555 1_555
H12 C16 1_555 1_555
H13 C17 1_555 1_555
H14 C18 1_555 1_555
H15 C20 1_555 1_555
H16 C21 1_555 1_555
H17 C22 1_555 1_555
H18 C23 1_555 1_555
H19 C24 1_555 1_555
H20 C26 1_555 1_555
H21 C27 1_555 1_555
H22 C28 1_555 1_555
H23 C29 1_555 1_555
H24 C30 1_555 1_555
C2 C5 1_555 1_555
C3 C6 1_555 1_555
C11 C12 1_555 1_555
C17 C18 1_555 1_555
C23 C24 1_555 1_555
C29 C30 1_555 1_555

#END
