
#######################################################################
#
#                 Cambridge Crystallographic Data Centre
#                                CCDC 
#
#######################################################################
#
# If this CIF has been generated from an entry in the Cambridge 
# Structural Database, then it will include bibliographic, chemical, 
# crystal, experimental, refinement or atomic coordinate data resulting 
# from the CCDC's data processing and validation procedures.
#
#######################################################################

data_DARPIY
_chemical_formula_moiety         'C16 H18 N3 O2 S1'
_chemical_name_systematic        
'4,4,5,5-tetramethyl-3-oxo-2-[5-(pyridin-3-yl)thiophen-2-yl]-4,5-dihydro-1H-3-imidazol-1-ol radical'
_symmetry_cell_setting           monoclinic
_symmetry_space_group_name_H-M   'P 21/c'
_symmetry_Int_Tables_number      14
_space_group_name_Hall           '-P 2ybc'
loop_
_symmetry_equiv_pos_site_id
_symmetry_equiv_pos_as_xyz
1 x,y,z
2 -x,1/2+y,1/2-z
3 -x,-y,-z
4 x,1/2-y,1/2+z
_cell_length_a                   9.3293(19)
_cell_length_b                   22.142(4)
_cell_length_c                   7.3843(15)
_cell_angle_alpha                90
_cell_angle_beta                 99.93(3)
_cell_angle_gamma                90
_cell_volume                     1502.52
_exptl_crystal_colour            green
_exptl_crystal_description       Prism
_cell_formula_units_Z            4
loop_
_atom_site_label
_atom_site_type_symbol
_atom_site_fract_x
_atom_site_fract_y
_atom_site_fract_z
S1 S 0.31182(4) 0.321449(19) 0.23323(6)
O1 O 0.57475(13) 0.26642(5) 0.20058(18)
O2 O 0.26319(13) 0.11248(6) 0.30462(18)
N1 N 0.37943(15) 0.14077(7) 0.28295(19)
N2 N 0.52902(15) 0.21337(6) 0.23308(18)
C1 C -0.0893(2) 0.48018(9) 0.2803(3)
H1 H -0.1801 0.4917 0.3043
C2 C 0.27751(18) 0.24479(8) 0.2522(2)
C3 C 0.39156(18) 0.20077(8) 0.2547(2)
C4 C 0.13416(18) 0.33974(8) 0.2483(2)
C5 C 0.1756(2) 0.45056(8) 0.2056(3)
H2 H 0.2661 0.4404 0.1781
N3 N 0.14097(17) 0.50949(7) 0.2038(2)
C6 C 0.08647(18) 0.40329(8) 0.2454(2)
C7 C 0.75810(19) 0.17094(8) 0.3984(2)
H3 H 0.8148 0.2033 0.3606
H4 H 0.8167 0.1352 0.4189
H5 H 0.7253 0.1820 0.5101
C8 C -0.05052(19) 0.41970(9) 0.2837(2)
H6 H -0.1147 0.3903 0.3110
C9 C 0.05383(19) 0.28855(8) 0.2653(2)
H7 H -0.0443 0.2895 0.2745
C10 C 0.13384(19) 0.23471(8) 0.2673(2)
H8 H 0.0945 0.1965 0.2776
C11 C 0.52186(18) 0.10777(7) 0.2949(2)
C12 C 0.56024(19) 0.08269(9) 0.4901(2)
H9 H 0.5715 0.1155 0.5766
H10 H 0.6496 0.0604 0.5023
H11 H 0.4837 0.0565 0.5142
C13 C 0.62649(18) 0.15880(8) 0.2481(2)
C14 C 0.6793(2) 0.15083(9) 0.0643(2)
H12 H 0.5970 0.1470 -0.0328
H13 H 0.7383 0.1151 0.0688
H14 H 0.7358 0.1854 0.0415
C15 C 0.00855(19) 0.52326(9) 0.2410(2)
H15 H -0.0186 0.5637 0.2403
C16 C 0.4977(2) 0.05566(9) 0.1572(3)
H16 H 0.4288 0.0278 0.1926
H17 H 0.5883 0.0353 0.1557
H18 H 0.4609 0.0712 0.0368
loop_
_geom_bond_atom_site_label_1
_geom_bond_atom_site_label_2
_geom_bond_site_symmetry_1
_geom_bond_site_symmetry_2
S1 C2 1_555 1_555
O1 N2 1_555 1_555
O2 N1 1_555 1_555
N1 C3 1_555 1_555
N2 C3 1_555 1_555
C1 H1 1_555 1_555
C2 C3 1_555 1_555
C4 S1 1_555 1_555
C5 H2 1_555 1_555
N3 C5 1_555 1_555
C6 C4 1_555 1_555
C7 H3 1_555 1_555
H4 C7 1_555 1_555
H5 C7 1_555 1_555
C8 C1 1_555 1_555
H6 C8 1_555 1_555
C9 C4 1_555 1_555
H7 C9 1_555 1_555
C10 C2 1_555 1_555
H8 C10 1_555 1_555
C11 N1 1_555 1_555
C12 C11 1_555 1_555
H9 C12 1_555 1_555
H10 C12 1_555 1_555
H11 C12 1_555 1_555
C13 N2 1_555 1_555
C14 C13 1_555 1_555
H12 C14 1_555 1_555
H13 C14 1_555 1_555
H14 C14 1_555 1_555
C15 C1 1_555 1_555
H15 C15 1_555 1_555
C16 C11 1_555 1_555
H16 C16 1_555 1_555
H17 C16 1_555 1_555
H18 C16 1_555 1_555
C5 C6 1_555 1_555
N3 C15 1_555 1_555
C6 C8 1_555 1_555
C7 C13 1_555 1_555
C9 C10 1_555 1_555
C11 C13 1_555 1_555

#END
