
#######################################################################
#
#                 Cambridge Crystallographic Data Centre
#                                CCDC 
#
#######################################################################
#
# If this CIF has been generated from an entry in the Cambridge 
# Structural Database, then it will include bibliographic, chemical, 
# crystal, experimental, refinement or atomic coordinate data resulting 
# from the CCDC's data processing and validation procedures.
#
#######################################################################

data_DARROG
_chemical_formula_moiety         'C30 H50 B20'
_chemical_name_systematic        
1,3-bis(2-(4-(n-butyl)phenyl)-1,2-dicarba-closo-dodecaboran-1-yl)benzene
_symmetry_cell_setting           monoclinic
_symmetry_space_group_name_H-M   'C 2/c'
_symmetry_Int_Tables_number      15
_space_group_name_Hall           '-C 2yn'
loop_
_symmetry_equiv_pos_site_id
_symmetry_equiv_pos_as_xyz
1 x,y,z
2 -x,y,1/2-z
3 1/2+x,1/2+y,z
4 1/2-x,1/2+y,1/2-z
5 -x,-y,-z
6 x,-y,1/2+z
7 1/2-x,1/2-y,-z
8 1/2+x,1/2-y,1/2+z
_cell_length_a                   17.3693(14)
_cell_length_b                   14.7994(13)
_cell_length_c                   14.4493(12)
_cell_angle_alpha                90
_cell_angle_beta                 94.758(3)
_cell_angle_gamma                90
_cell_volume                     3701.47
_exptl_crystal_colour            colorless
_exptl_crystal_description       cubic
_cell_formula_units_Z            4
loop_
_atom_site_label
_atom_site_type_symbol
_atom_site_fract_x
_atom_site_fract_y
_atom_site_fract_z
C1 C 0.41085(8) 0.30546(9) 0.42793(9)
C2 C 0.47713(8) 0.21927(8) 0.42268(9)
C3 C 0.48688(8) 0.17271(9) 0.33122(9)
C4 C 0.48448(11) 0.07878(10) 0.32895(10)
H1 H 0.4723 0.0469 0.3813
C5 C 0.5000 0.03256(14) 0.2500
H2 H 0.5000 -0.0303 0.2500
C6 C 0.5000 0.21943(12) 0.2500
H3 H 0.5000 0.2823 0.2500
C7 C 0.36575(8) 0.33943(9) 0.34154(9)
C8 C 0.38905(10) 0.41816(10) 0.29873(11)
H4 H 0.4343 0.4471 0.3213
C9 C 0.34522(11) 0.45344(11) 0.22277(12)
H5 H 0.3620 0.5056 0.1947
C10 C 0.27744(10) 0.41330(12) 0.18779(11)
C11 C 0.25452(10) 0.33545(13) 0.23041(12)
H6 H 0.2090 0.3071 0.2079
C12 C 0.29786(9) 0.29860(12) 0.30614(11)
H7 H 0.2812 0.2460 0.3334
C13 C 0.23000(12) 0.45306(14) 0.10466(13)
H8 H 0.1757 0.4423 0.1116
H9 H 0.2379 0.5179 0.1040
C14 C 0.24974(11) 0.41467(12) 0.01359(12)
H10 H 0.2402 0.3501 0.0134
H11 H 0.3044 0.4238 0.0074
C15 C 0.20356(13) 0.45704(14) -0.06986(13)
H12 H 0.1495 0.4593 -0.0578
H13 H 0.2211 0.5186 -0.0775
C16 C 0.21129(16) 0.40587(19) -0.15843(15)
H14 H 0.2649 0.4010 -0.1693
H15 H 0.1842 0.4374 -0.2092
H16 H 0.1897 0.3465 -0.1534
B1 B 0.44262(10) 0.38047(11) 0.51236(11)
H17 H 0.4303 0.4533 0.5082
B2 B 0.36936(11) 0.30060(12) 0.53155(12)
H18 H 0.3095 0.3212 0.5401
B3 B 0.53210(11) 0.33843(12) 0.56282(11)
H19 H 0.5780 0.3839 0.5920
B4 B 0.50908(9) 0.32873(10) 0.44123(11)
H20 H 0.5394 0.3670 0.3900
B5 B 0.39090(10) 0.19972(11) 0.47191(11)
H21 H 0.3454 0.1550 0.4404
B6 B 0.41309(12) 0.20801(12) 0.59356(12)
H22 H 0.3816 0.1683 0.6425
B7 B 0.51405(11) 0.23188(13) 0.61396(11)
H23 H 0.5482 0.2079 0.6767
B8 B 0.55378(10) 0.23710(12) 0.50414(11)
H24 H 0.6134 0.2164 0.4948
B9 B 0.44586(11) 0.32035(12) 0.61900(12)
H25 H 0.4359 0.3538 0.6850
B10 B 0.48027(11) 0.15768(11) 0.52380(11)
H26 H 0.4926 0.0848 0.5274
C1A C 0.58915(8) 0.30546(9) 0.07207(9)
C2A C 0.52287(8) 0.21927(8) 0.07732(9)
C3A C 0.51312(8) 0.17271(9) 0.16878(9)
C4A C 0.51552(11) 0.07878(10) 0.17105(10)
H1A H 0.5277 0.0469 0.1187
C7A C 0.63425(8) 0.33943(9) 0.15846(9)
C8A C 0.61095(10) 0.41816(10) 0.20127(11)
H4A H 0.5657 0.4471 0.1787
C9A C 0.65478(11) 0.45344(11) 0.27723(12)
H5A H 0.6380 0.5056 0.3053
C10A C 0.72256(10) 0.41330(12) 0.31221(11)
C11A C 0.74548(10) 0.33545(13) 0.26959(12)
H6A H 0.7910 0.3071 0.2921
C12A C 0.70214(9) 0.29860(12) 0.19386(11)
H7A H 0.7188 0.2460 0.1666
C13A C 0.77000(12) 0.45306(14) 0.39534(13)
H8A H 0.8243 0.4423 0.3884
H9A H 0.7621 0.5179 0.3960
C14A C 0.75026(11) 0.41467(12) 0.48641(12)
H10A H 0.7598 0.3501 0.4866
H11A H 0.6956 0.4238 0.4926
C15A C 0.79644(13) 0.45704(14) 0.56986(13)
H12A H 0.8505 0.4593 0.5578
H13A H 0.7789 0.5186 0.5775
C16A C 0.78871(16) 0.40587(19) 0.65843(15)
H14A H 0.7351 0.4010 0.6693
H15A H 0.8158 0.4374 0.7092
H16A H 0.8103 0.3465 0.6534
B1A B 0.55738(10) 0.38047(11) -0.01236(11)
H17A H 0.5697 0.4533 -0.0082
B2A B 0.63064(11) 0.30060(12) -0.03155(12)
H18A H 0.6905 0.3212 -0.0401
B3A B 0.46790(11) 0.33843(12) -0.06282(11)
H19A H 0.4220 0.3839 -0.0920
B4A B 0.49092(9) 0.32873(10) 0.05877(11)
H20A H 0.4606 0.3670 0.1100
B5A B 0.60910(10) 0.19972(11) 0.02809(11)
H21A H 0.6546 0.1550 0.0596
B6A B 0.58691(12) 0.20801(12) -0.09356(12)
H22A H 0.6184 0.1683 -0.1425
B7A B 0.48595(11) 0.23188(13) -0.11396(11)
H23A H 0.4518 0.2079 -0.1767
B8A B 0.44622(10) 0.23710(12) -0.00414(11)
H24A H 0.3866 0.2164 0.0052
B9A B 0.55414(11) 0.32035(12) -0.11900(12)
H25A H 0.5641 0.3538 -0.1850
B10A B 0.51973(11) 0.15768(11) -0.02380(11)
H26A H 0.5074 0.0848 -0.0274
loop_
_geom_bond_atom_site_label_1
_geom_bond_atom_site_label_2
_geom_bond_site_symmetry_1
_geom_bond_site_symmetry_2
C1 C2 1_555 1_555
C2 C3 1_555 1_555
C3 C4 1_555 1_555
C4 H1 1_555 1_555
C5 C4 1_555 1_555
H2 C5 1_555 1_555
C6 C3 1_555 1_555
H3 C6 1_555 1_555
C7 C1 1_555 1_555
C8 C7 1_555 1_555
H4 C8 1_555 1_555
C9 C8 1_555 1_555
H5 C9 1_555 1_555
C10 C9 1_555 1_555
C11 C10 1_555 1_555
H6 C11 1_555 1_555
C12 C7 1_555 1_555
H7 C12 1_555 1_555
C13 C10 1_555 1_555
H8 C13 1_555 1_555
H9 C13 1_555 1_555
C14 C13 1_555 1_555
H10 C14 1_555 1_555
H11 C14 1_555 1_555
C15 C14 1_555 1_555
H12 C15 1_555 1_555
H13 C15 1_555 1_555
C16 C15 1_555 1_555
H14 C16 1_555 1_555
H15 C16 1_555 1_555
H16 C16 1_555 1_555
B1 C1 1_555 1_555
H17 B1 1_555 1_555
B2 C1 1_555 1_555
H18 B2 1_555 1_555
B3 B1 1_555 1_555
H19 B3 1_555 1_555
B4 C1 1_555 1_555
H20 B4 1_555 1_555
B5 C1 1_555 1_555
H21 B5 1_555 1_555
B6 B2 1_555 1_555
H22 B6 1_555 1_555
B7 B3 1_555 1_555
H23 B7 1_555 1_555
B8 C2 1_555 1_555
H24 B8 1_555 1_555
B9 B1 1_555 1_555
H25 B9 1_555 1_555
B10 C2 1_555 1_555
H26 B10 1_555 1_555
C1A C2A 1_555 1_555
C2A C3A 1_555 1_555
C3A C6 1_555 1_555
C4A C5 1_555 1_555
H1A C4A 1_555 1_555
C7A C1A 1_555 1_555
C8A C7A 1_555 1_555
H4A C8A 1_555 1_555
C9A C8A 1_555 1_555
H5A C9A 1_555 1_555
C10A C9A 1_555 1_555
C11A C10A 1_555 1_555
H6A C11A 1_555 1_555
C12A C7A 1_555 1_555
H7A C12A 1_555 1_555
C13A C10A 1_555 1_555
H8A C13A 1_555 1_555
H9A C13A 1_555 1_555
C14A C13A 1_555 1_555
H10A C14A 1_555 1_555
H11A C14A 1_555 1_555
C15A C14A 1_555 1_555
H12A C15A 1_555 1_555
H13A C15A 1_555 1_555
C16A C15A 1_555 1_555
H14A C16A 1_555 1_555
H15A C16A 1_555 1_555
H16A C16A 1_555 1_555
B1A C1A 1_555 1_555
H17A B1A 1_555 1_555
B2A C1A 1_555 1_555
H18A B2A 1_555 1_555
B3A B1A 1_555 1_555
H19A B3A 1_555 1_555
B4A C1A 1_555 1_555
H20A B4A 1_555 1_555
B5A C1A 1_555 1_555
H21A B5A 1_555 1_555
B6A B2A 1_555 1_555
H22A B6A 1_555 1_555
B7A B3A 1_555 1_555
H23A B7A 1_555 1_555
B8A C2A 1_555 1_555
H24A B8A 1_555 1_555
B9A B1A 1_555 1_555
H25A B9A 1_555 1_555
B10A C2A 1_555 1_555
H26A B10A 1_555 1_555
C2 B4 1_555 1_555
C2 B5 1_555 1_555
C11 C12 1_555 1_555
B1 B2 1_555 1_555
B1 B4 1_555 1_555
B2 B5 1_555 1_555
B2 B9 1_555 1_555
B3 B4 1_555 1_555
B3 B8 1_555 1_555
B3 B9 1_555 1_555
B4 B8 1_555 1_555
B5 B6 1_555 1_555
B5 B10 1_555 1_555
B6 B7 1_555 1_555
B6 B9 1_555 1_555
B6 B10 1_555 1_555
B7 B8 1_555 1_555
B7 B9 1_555 1_555
B7 B10 1_555 1_555
B8 B10 1_555 1_555
C2A B4A 1_555 1_555
C2A B5A 1_555 1_555
C3A C4A 1_555 1_555
C11A C12A 1_555 1_555
B1A B2A 1_555 1_555
B1A B4A 1_555 1_555
B2A B5A 1_555 1_555
B2A B9A 1_555 1_555
B3A B4A 1_555 1_555
B3A B8A 1_555 1_555
B3A B9A 1_555 1_555
B4A B8A 1_555 1_555
B5A B6A 1_555 1_555
B5A B10A 1_555 1_555
B6A B7A 1_555 1_555
B6A B9A 1_555 1_555
B6A B10A 1_555 1_555
B7A B8A 1_555 1_555
B7A B9A 1_555 1_555
B7A B10A 1_555 1_555
B8A B10A 1_555 1_555

#END
