
#######################################################################
#
#                 Cambridge Crystallographic Data Centre
#                                CCDC 
#
#######################################################################
#
# If this CIF has been generated from an entry in the Cambridge 
# Structural Database, then it will include bibliographic, chemical, 
# crystal, experimental, refinement or atomic coordinate data resulting 
# from the CCDC's data processing and validation procedures.
#
#######################################################################

data_DARVID
_chemical_formula_moiety         'C16 H18 N2 O4'
_chemical_name_systematic        
'Benzyl 3-methyl-1,4-dioxohexahydropyrrolo[1,2-a]pyrazine-2(1H)-carboxylate'
_symmetry_cell_setting           monoclinic
_symmetry_space_group_name_H-M   'P 21/n'
_symmetry_Int_Tables_number      14
_space_group_name_Hall           '-P 2yn'
loop_
_symmetry_equiv_pos_site_id
_symmetry_equiv_pos_as_xyz
1 x,y,z
2 1/2-x,1/2+y,1/2-z
3 -x,-y,-z
4 1/2+x,1/2-y,1/2+z
_cell_length_a                   10.0745(15)
_cell_length_b                   11.0092(19)
_cell_length_c                   12.972(2)
_cell_angle_alpha                90
_cell_angle_beta                 94.768(12)
_cell_angle_gamma                90
_cell_volume                     1433.77
_exptl_crystal_colour            colorless
_exptl_crystal_description       block
_cell_formula_units_Z            4
loop_
_atom_site_label
_atom_site_type_symbol
_atom_site_fract_x
_atom_site_fract_y
_atom_site_fract_z
O1 O 0.54358(18) 0.94009(16) 0.66834(14)
O2 O 0.51618(19) 0.46258(16) 0.62716(15)
O3 O 0.17627(18) 0.66988(17) 0.59379(15)
O4 O 0.26304(17) 0.48429(16) 0.62643(14)
N1 N 0.6471(2) 0.76229(19) 0.64052(17)
N2 N 0.4028(2) 0.64507(18) 0.61010(16)
C1 C 0.7810(3) 0.7992(2) 0.6849(2)
H1 H 0.7811 0.8164 0.7598
H2 H 0.8128 0.8719 0.6494
C2 C 0.8664(3) 0.6880(2) 0.6653(2)
H3 H 0.9105 0.6974 0.6004
H4 H 0.9354 0.6754 0.7232
C3 C 0.7684(3) 0.5822(2) 0.6573(2)
H5 H 0.7498 0.5524 0.7266
H6 H 0.8028 0.5142 0.6172
C4 C 0.6442(3) 0.6382(2) 0.6006(2)
H7 H 0.6567 0.6409 0.5250
C5 C 0.5160(3) 0.5721(2) 0.61566(19)
C6 C 0.4114(3) 0.7787(2) 0.5905(2)
H8 H 0.3369 0.8181 0.6244
C7 C 0.5407(3) 0.8342(2) 0.63782(19)
C8 C 0.3920(3) 0.8089(2) 0.4750(2)
H9 H 0.3086 0.7727 0.4452
H10 H 0.4667 0.7759 0.4400
H11 H 0.3884 0.8972 0.4659
C9 C 0.2710(3) 0.6028(2) 0.60946(19)
C10 C 0.1283(3) 0.4378(2) 0.6283(2)
H12 H 0.0727 0.4661 0.5664
H13 H 0.0881 0.4677 0.6905
C11 C 0.1340(3) 0.3011(2) 0.62950(19)
C12 C 0.0143(3) 0.2377(3) 0.6155(2)
H14 H -0.0675 0.2810 0.6076
C13 C 0.0137(3) 0.1123(3) 0.6132(2)
H15 H -0.0687 0.0699 0.6045
C14 C 0.1321(3) 0.0476(3) 0.6234(2)
H16 H 0.1309 -0.0386 0.6208
C15 C 0.2520(3) 0.1093(3) 0.6373(2)
H17 H 0.3336 0.0656 0.6439
C16 C 0.2525(3) 0.2361(2) 0.6415(2)
H18 H 0.3347 0.2783 0.6528
loop_
_geom_bond_atom_site_label_1
_geom_bond_atom_site_label_2
_geom_bond_site_symmetry_1
_geom_bond_site_symmetry_2
O1 C7 1_555 1_555
O2 C5 1_555 1_555
O3 C9 1_555 1_555
O4 C9 1_555 1_555
N1 C1 1_555 1_555
N2 C5 1_555 1_555
C1 H1 1_555 1_555
H2 C1 1_555 1_555
C2 C1 1_555 1_555
H3 C2 1_555 1_555
H4 C2 1_555 1_555
C3 C2 1_555 1_555
H5 C3 1_555 1_555
H6 C3 1_555 1_555
C4 N1 1_555 1_555
H7 C4 1_555 1_555
C5 C4 1_555 1_555
C6 N2 1_555 1_555
H8 C6 1_555 1_555
C7 N1 1_555 1_555
C8 C6 1_555 1_555
H9 C8 1_555 1_555
H10 C8 1_555 1_555
H11 C8 1_555 1_555
C9 N2 1_555 1_555
C10 O4 1_555 1_555
H12 C10 1_555 1_555
H13 C10 1_555 1_555
C11 C10 1_555 1_555
C12 C11 1_555 1_555
H14 C12 1_555 1_555
C13 C12 1_555 1_555
H15 C13 1_555 1_555
C14 C13 1_555 1_555
H16 C14 1_555 1_555
C15 C14 1_555 1_555
H17 C15 1_555 1_555
C16 C11 1_555 1_555
H18 C16 1_555 1_555
C3 C4 1_555 1_555
C6 C7 1_555 1_555
C15 C16 1_555 1_555

#END
