
#######################################################################
#
#                 Cambridge Crystallographic Data Centre
#                                CCDC 
#
#######################################################################
#
# If this CIF has been generated from an entry in the Cambridge 
# Structural Database, then it will include bibliographic, chemical, 
# crystal, experimental, refinement or atomic coordinate data resulting 
# from the CCDC's data processing and validation procedures.
#
#######################################################################

data_DARXAV
_chemical_formula_moiety         'C14 H16 N2 O1 S1'
_chemical_name_systematic        2-p-Toluimido-4,4-dimethyl-(4H)-1,3-thiazine
_symmetry_cell_setting           monoclinic
_symmetry_space_group_name_H-M   'P 21/c'
_symmetry_Int_Tables_number      14
_space_group_name_Hall           '-P 2ybc'
loop_
_symmetry_equiv_pos_site_id
_symmetry_equiv_pos_as_xyz
1 x,y,z
2 -x,1/2+y,1/2-z
3 -x,-y,-z
4 x,1/2-y,1/2+z
_cell_length_a                   10.970(2)
_cell_length_b                   13.4591(5)
_cell_length_c                   11.339(2)
_cell_angle_alpha                90
_cell_angle_beta                 114.82(1)
_cell_angle_gamma                90
_cell_volume                     1519.52
_chemical_melting_point          76deg.C
_cell_formula_units_Z            4
loop_
_atom_site_label
_atom_site_type_symbol
_atom_site_fract_x
_atom_site_fract_y
_atom_site_fract_z
S1 S 0.0182(3) 0.9190(2) 0.3917(3)
O1 O -0.1380(8) 0.8000(6) 0.4554(7)
N1 N 0.0048(10) 0.8236(7) 0.1790(9)
N2 N -0.1499(10) 0.7722(7) 0.2503(8)
C1 C -0.0474(13) 0.8314(8) 0.2664(11)
C2 C 0.1346(15) 0.8634(11) 0.1907(14)
C3 C 0.1488(16) 0.9652(12) 0.2433(15)
C4 C 0.1080(14) 0.9955(10) 0.3289(14)
C5 C -0.1941(11) 0.7629(8) 0.3449(12)
C6 C 0.1090(20) 0.8679(14) 0.0379(16)
C7 C 0.2510(17) 0.7960(13) 0.2832(18)
C8 C -0.3171(11) 0.6985(8) 0.3117(11)
C9 C -0.3896(13) 0.6657(9) 0.1861(11)
C10 C -0.5001(13) 0.6042(10) 0.1589(12)
C11 C -0.5372(14) 0.5744(10) 0.2568(17)
C12 C -0.4622(15) 0.6086(11) 0.3804(14)
C13 C -0.3536(13) 0.6696(10) 0.4090(11)
C14 C -0.6551(15) 0.5015(13) 0.2274(16)
H1 H -0.052 0.790 0.096
H2 H 0.198 1.020 0.205
H3 H 0.129 1.073 0.364
H4 H -0.361 0.692 0.107
H5 H -0.559 0.579 0.058
H6 H -0.491 0.583 0.460
H7 H -0.295 0.695 0.508
loop_
_geom_bond_atom_site_label_1
_geom_bond_atom_site_label_2
_geom_bond_site_symmetry_1
_geom_bond_site_symmetry_2
S1 C1 1_555 1_555
O1 C5 1_555 1_555
N1 C1 1_555 1_555
N2 C1 1_555 1_555
C2 N1 1_555 1_555
C3 C2 1_555 1_555
C4 S1 1_555 1_555
C5 N2 1_555 1_555
C6 C2 1_555 1_555
C7 C2 1_555 1_555
C8 C5 1_555 1_555
C9 C8 1_555 1_555
C10 C9 1_555 1_555
C11 C10 1_555 1_555
C12 C11 1_555 1_555
C13 C8 1_555 1_555
C14 C11 1_555 1_555
H1 N1 1_555 1_555
H2 C3 1_555 1_555
H3 C4 1_555 1_555
H4 C9 1_555 1_555
H5 C10 1_555 1_555
H6 C12 1_555 1_555
H7 C13 1_555 1_555
C3 C4 1_555 1_555
C12 C13 1_555 1_555

#END
