
#######################################################################
#
#                 Cambridge Crystallographic Data Centre
#                                CCDC 
#
#######################################################################
#
# If this CIF has been generated from an entry in the Cambridge 
# Structural Database, then it will include bibliographic, chemical, 
# crystal, experimental, refinement or atomic coordinate data resulting 
# from the CCDC's data processing and validation procedures.
#
#######################################################################

data_DARXOM
_chemical_formula_moiety         'C24 H21 Cl2 N1 O5'
_chemical_name_systematic        
"ethyl 2'-(2,4-dichlorophenyl)-1,5-dimethyl-2,7'-dioxo-1,2-dihydro-5'H-spiro[indole-3,3'-[6]oxabicyclo[3.2.0]heptane]-5'-carboxylate"
_symmetry_cell_setting           orthorhombic
_symmetry_space_group_name_H-M   'P 21 21 21'
_symmetry_Int_Tables_number      19
_space_group_name_Hall           'P 2ac 2ab'
loop_
_symmetry_equiv_pos_site_id
_symmetry_equiv_pos_as_xyz
1 x,y,z
2 1/2-x,-y,1/2+z
3 -x,1/2+y,1/2-z
4 1/2+x,1/2-y,-z
_cell_length_a                   8.7557(2)
_cell_length_b                   9.6377(3)
_cell_length_c                   27.1288(8)
_cell_angle_alpha                90
_cell_angle_beta                 90
_cell_angle_gamma                90
_cell_volume                     2289.26
_exptl_crystal_colour            colorless
_exptl_crystal_description       prisms
_cell_formula_units_Z            4
loop_
_atom_site_label
_atom_site_type_symbol
_atom_site_fract_x
_atom_site_fract_y
_atom_site_fract_z
Cl1 Cl 1.23038(9) 0.43590(7) 0.17289(3)
Cl2 Cl 1.60465(7) 0.86411(8) 0.20641(2)
O1 O 0.80036(18) 0.67615(17) 0.01957(6)
C1 C 0.9040(2) 0.6585(2) 0.13171(7)
O2 O 0.9990(2) 0.81828(18) 0.19560(6)
C2 C 0.8958(3) 0.9145(3) 0.02475(8)
C3 C 1.2005(2) 0.6819(2) 0.12452(7)
C4 C 1.0562(2) 0.6242(2) 0.10166(7)
H1 H 1.0665 0.5231 0.0995
C5 C 1.4113(3) 0.6576(3) 0.18276(9)
H2 H 1.4659 0.6032 0.2049
O3 O 0.9766(2) 1.00104(18) 0.05188(7)
C6 C 1.2853(2) 0.6046(2) 0.15813(8)
C7 C 1.4534(2) 0.7920(3) 0.17365(9)
C8 C 0.9414(2) 0.7078(2) 0.18488(8)
O4 O 0.9327(3) 0.4836(2) -0.00430(7)
C9 C 0.8119(3) 0.5290(3) 0.14196(8)
C10 C 1.2511(3) 0.8164(3) 0.11554(8)
H3 H 1.1998 0.8705 0.0925
N1 N 0.8964(2) 0.6083(2) 0.21681(6)
C11 C 1.0255(2) 0.6813(2) 0.04919(7)
H4 H 1.1147 0.7212 0.0326
C12 C 0.8161(3) 0.5025(2) 0.19268(8)
C13 C 0.8841(2) 0.7761(2) 0.05107(8)
C14 C 0.8268(2) 0.7779(3) 0.10354(8)
H5 H 0.7168 0.7663 0.1041
H6 H 0.8515 0.8659 0.1190
O5 O 0.8451(3) 0.9394(2) -0.01501(7)
C15 C 0.9256(3) 0.5910(3) 0.01716(8)
C16 C 0.7481(3) 0.3877(3) 0.21279(9)
H7 H 0.7523 0.3711 0.2465
C17 C 1.3756(3) 0.8718(3) 0.13993(9)
H8 H 1.4065 0.9624 0.1336
C18 C 0.9084(4) 0.6236(3) 0.27009(9)
H9 H 0.9608 0.7085 0.2777
H10 H 0.9643 0.5467 0.2835
H11 H 0.8080 0.6258 0.2843
C19 C 0.7343(4) 0.4390(3) 0.11170(9)
H12 H 0.7278 0.4573 0.0781
C20 C 0.6647(4) 0.3196(4) 0.13112(12)
C21 C 0.6731(4) 0.2972(3) 0.18148(11)
H13 H 0.6267 0.2188 0.1947
C22 C 1.0110(5) 1.1373(3) 0.03078(13)
H14 H 1.0585 1.1265 -0.0013
H15 H 0.9177 1.1903 0.0267
C23 C 1.1141(5) 1.2089(3) 0.06412(17)
H16 H 1.0669 1.2176 0.0959
H17 H 1.1363 1.2996 0.0513
H18 H 1.2072 1.1570 0.0672
C24 C 0.5817(7) 0.2194(6) 0.09798(15)
H19 H 0.4750 0.2421 0.0974
H20 H 0.5946 0.1267 0.1102
H21 H 0.6226 0.2255 0.0652
loop_
_geom_bond_atom_site_label_1
_geom_bond_atom_site_label_2
_geom_bond_site_symmetry_1
_geom_bond_site_symmetry_2
Cl1 C6 1_555 1_555
Cl2 C7 1_555 1_555
O1 C13 1_555 1_555
C1 C4 1_555 1_555
O2 C8 1_555 1_555
C2 O3 1_555 1_555
C3 C4 1_555 1_555
C4 H1 1_555 1_555
C5 H2 1_555 1_555
O3 C22 1_555 1_555
C6 C3 1_555 1_555
C7 C5 1_555 1_555
C8 C1 1_555 1_555
O4 C15 1_555 1_555
C9 C1 1_555 1_555
C10 C3 1_555 1_555
H3 C10 1_555 1_555
N1 C8 1_555 1_555
C11 C4 1_555 1_555
H4 C11 1_555 1_555
C12 C9 1_555 1_555
C13 C2 1_555 1_555
C14 C1 1_555 1_555
H5 C14 1_555 1_555
H6 C14 1_555 1_555
O5 C2 1_555 1_555
C15 O1 1_555 1_555
C16 C12 1_555 1_555
H7 C16 1_555 1_555
C17 C7 1_555 1_555
H8 C17 1_555 1_555
C18 N1 1_555 1_555
H9 C18 1_555 1_555
H10 C18 1_555 1_555
H11 C18 1_555 1_555
C19 C9 1_555 1_555
H12 C19 1_555 1_555
C20 C19 1_555 1_555
C21 C16 1_555 1_555
H13 C21 1_555 1_555
C22 H14 1_555 1_555
H15 C22 1_555 1_555
C23 C22 1_555 1_555
H16 C23 1_555 1_555
H17 C23 1_555 1_555
H18 C23 1_555 1_555
C24 C20 1_555 1_555
H19 C24 1_555 1_555
H20 C24 1_555 1_555
H21 C24 1_555 1_555
C5 C6 1_555 1_555
C10 C17 1_555 1_555
N1 C12 1_555 1_555
C11 C13 1_555 1_555
C11 C15 1_555 1_555
C13 C14 1_555 1_555
C20 C21 1_555 1_555

#END
