
#######################################################################
#
#                 Cambridge Crystallographic Data Centre
#                                CCDC 
#
#######################################################################
#
# If this CIF has been generated from an entry in the Cambridge 
# Structural Database, then it will include bibliographic, chemical, 
# crystal, experimental, refinement or atomic coordinate data resulting 
# from the CCDC's data processing and validation procedures.
#
#######################################################################

data_DASCAE
_chemical_formula_moiety         'C24 H23 B1 N2 O1'
_chemical_name_systematic        
11-ethyl-10,12,12b-trimethyl-12bH-13-oxa-12a,12c-diaza-12b-borabenzo[a]cyclopenta[e]aceanthrylene
_symmetry_cell_setting           triclinic
_symmetry_space_group_name_H-M   'P -1'
_symmetry_Int_Tables_number      2
_space_group_name_Hall           '-P 1'
loop_
_symmetry_equiv_pos_site_id
_symmetry_equiv_pos_as_xyz
1 x,y,z
2 -x,-y,-z
_cell_length_a                   8.875(7)
_cell_length_b                   10.930(8)
_cell_length_c                   11.258(9)
_cell_angle_alpha                112.189(9)
_cell_angle_beta                 98.039(9)
_cell_angle_gamma                93.399(9)
_cell_volume                     993.743
_exptl_crystal_colour            colorless
_exptl_crystal_description       blocK
_cell_formula_units_Z            2
loop_
_atom_site_label
_atom_site_type_symbol
_atom_site_fract_x
_atom_site_fract_y
_atom_site_fract_z
B1 B 0.2560(3) 0.8939(3) 0.7534(3)
C1 C 0.5754(3) 0.6235(3) 0.7829(3)
H1 H 0.5784 0.5880 0.8462
C2 C 0.6620(3) 0.5747(3) 0.6846(3)
H2 H 0.7211 0.5065 0.6819
C3 C 0.6593(3) 0.6290(3) 0.5899(3)
H3 H 0.7185 0.5978 0.5251
C4 C 0.5691(3) 0.7289(3) 0.5919(3)
H4 H 0.5690 0.7643 0.5286
C5 C 0.4829(3) 0.7262(2) 0.7883(2)
C6 C 0.4043(3) 0.7916(2) 0.8977(2)
C7 C 0.0986(3) 1.2222(2) 0.9069(2)
C8 C 0.1635(3) 1.1078(2) 0.9120(2)
C9 C 0.4065(2) 0.7893(2) 1.0274(2)
C10 C 0.4736(3) 0.7115(2) 1.0911(2)
H5 H 0.5361 0.6485 1.0512
C11 C 0.4444(3) 0.7308(3) 1.2149(3)
H6 H 0.4862 0.6786 1.2568
C12 C 0.3525(3) 0.8284(3) 1.2781(3)
H7 H 0.3346 0.8388 1.3606
C13 C 0.2887(3) 0.9087(2) 1.2194(2)
H8 H 0.2306 0.9742 1.2625
C14 C 0.3138(3) 0.8886(2) 1.0925(2)
C15 C 0.2600(3) 0.9503(2) 1.0037(2)
C16 C 0.1854(3) 1.0608(2) 1.0132(2)
H9 H 0.1482 1.1056 1.0893
C17 C 0.1747(3) 1.1076(2) 0.7139(2)
C18 C 0.0341(3) 1.3238(2) 1.0157(3)
H10 H 0.1038 1.4046 1.0542
H11 H 0.0210 1.2892 1.0808
H12 H -0.0632 1.3418 0.9809
C19 C 0.4774(3) 0.7774(2) 0.6886(2)
C20 C 0.1050(3) 1.2218(2) 0.7828(2)
C21 C 0.0520(3) 1.3253(3) 0.7321(3)
H13 H -0.0340 1.3615 0.7722
H14 H 0.0157 1.2818 0.6389
C22 C 0.1101(3) 0.7828(2) 0.6707(2)
H15 H 0.0737 0.7937 0.5913
H16 H 0.0297 0.7936 0.7214
H17 H 0.1406 0.6954 0.6505
C23 C 0.2086(3) 1.0618(3) 0.5770(2)
H18 H 0.3168 1.0583 0.5795
H19 H 0.1762 1.1231 0.5389
H20 H 0.1545 0.9748 0.5256
C24 C 0.1753(4) 1.4396(3) 0.7577(4)
H21 H 0.2118 1.4837 0.8498
H22 H 0.1331 1.5018 0.7248
H23 H 0.2590 1.4053 0.7147
N1 N 0.3133(2) 0.88305(17) 0.88719(18)
N2 N 0.2104(2) 1.03892(18) 0.79155(18)
O1 O 0.39081(19) 0.87498(16) 0.68419(16)
loop_
_geom_bond_atom_site_label_1
_geom_bond_atom_site_label_2
_geom_bond_site_symmetry_1
_geom_bond_site_symmetry_2
B1 C22 1_555 1_555
C1 H1 1_555 1_555
C2 C1 1_555 1_555
H2 C2 1_555 1_555
C3 C2 1_555 1_555
H3 C3 1_555 1_555
C4 C3 1_555 1_555
H4 C4 1_555 1_555
C5 C1 1_555 1_555
C6 C5 1_555 1_555
C7 C8 1_555 1_555
C8 C16 1_555 1_555
C9 C6 1_555 1_555
C10 C9 1_555 1_555
H5 C10 1_555 1_555
C11 C10 1_555 1_555
H6 C11 1_555 1_555
C12 C11 1_555 1_555
H7 C12 1_555 1_555
C13 C12 1_555 1_555
H8 C13 1_555 1_555
C14 C9 1_555 1_555
C15 C14 1_555 1_555
C16 C15 1_555 1_555
H9 C16 1_555 1_555
C17 C20 1_555 1_555
C18 C7 1_555 1_555
H10 C18 1_555 1_555
H11 C18 1_555 1_555
H12 C18 1_555 1_555
C19 C4 1_555 1_555
C20 C7 1_555 1_555
C21 C20 1_555 1_555
H13 C21 1_555 1_555
H14 C21 1_555 1_555
C22 H15 1_555 1_555
H16 C22 1_555 1_555
H17 C22 1_555 1_555
C23 C17 1_555 1_555
H18 C23 1_555 1_555
H19 C23 1_555 1_555
H20 C23 1_555 1_555
C24 C21 1_555 1_555
H21 C24 1_555 1_555
H22 C24 1_555 1_555
H23 C24 1_555 1_555
N1 B1 1_555 1_555
N2 B1 1_555 1_555
O1 B1 1_555 1_555
C5 C19 1_555 1_555
C6 N1 1_555 1_555
C8 N2 1_555 1_555
C13 C14 1_555 1_555
C15 N1 1_555 1_555
C17 N2 1_555 1_555
C19 O1 1_555 1_555

#END
