
#######################################################################
#
#                 Cambridge Crystallographic Data Centre
#                                CCDC 
#
#######################################################################
#
# If this CIF has been generated from an entry in the Cambridge 
# Structural Database, then it will include bibliographic, chemical, 
# crystal, experimental, refinement or atomic coordinate data resulting 
# from the CCDC's data processing and validation procedures.
#
#######################################################################

data_DASFOV
_chemical_formula_moiety         'C15 H15 Cl1 O2'
_chemical_name_systematic        
3-(4-chlorophenyl)hexahydro-1H-indene-1,6(2H)-dione
_symmetry_cell_setting           orthorhombic
_symmetry_space_group_name_H-M   'P 21 21 21'
_symmetry_Int_Tables_number      19
_space_group_name_Hall           'P 2ac 2ab'
loop_
_symmetry_equiv_pos_site_id
_symmetry_equiv_pos_as_xyz
1 x,y,z
2 1/2-x,-y,1/2+z
3 1/2+x,1/2-y,-z
4 -x,1/2+y,1/2-z
_cell_length_a                   9.1478(5)
_cell_length_b                   11.1509(6)
_cell_length_c                   12.6918(7)
_cell_angle_alpha                90
_cell_angle_beta                 90
_cell_angle_gamma                90
_cell_volume                     1294.64
_exptl_crystal_colour            'light yellow'
_exptl_crystal_description       block
_cell_formula_units_Z            4
loop_
_atom_site_label
_atom_site_type_symbol
_atom_site_fract_x
_atom_site_fract_y
_atom_site_fract_z
Cl1 Cl 0.11435(9) 0.39829(8) 0.69658(7)
O1 O 0.0851(3) 1.0152(2) 0.21968(18)
O2 O -0.0843(3) 1.2404(2) 0.4481(2)
C1 C 0.1365(3) 0.6221(3) 0.4527(2)
H1 H 0.1096 0.6210 0.3821
C2 C 0.1106(3) 0.5219(3) 0.5136(2)
H2 H 0.0671 0.4544 0.4842
C3 C 0.1494(3) 0.5227(3) 0.6176(2)
C4 C 0.2152(3) 0.6223(3) 0.6619(2)
H3 H 0.2428 0.6220 0.7325
C5 C 0.2392(3) 0.7218(3) 0.6003(2)
H4 H 0.2819 0.7893 0.6305
C6 C 0.2014(3) 0.7244(3) 0.4937(2)
C7 C 0.2319(3) 0.8327(3) 0.4273(2)
H5 H 0.3363 0.8308 0.4101
C8 C 0.1480(3) 0.8402(3) 0.3216(2)
H6 H 0.1997 0.7972 0.2666
H7 H 0.0506 0.8068 0.3286
C9 C 0.1411(3) 0.9729(3) 0.2970(2)
C10 C 0.2109(3) 1.0417(3) 0.3851(2)
H8 H 0.3146 1.0511 0.3677
C11 C 0.1476(4) 1.1673(3) 0.4007(3)
H9 H 0.2222 1.2177 0.4321
H10 H 0.1243 1.2006 0.3321
C12 C 0.0144(4) 1.1729(3) 0.4677(3)
C13 C 0.0128(4) 1.0915(3) 0.5610(2)
H11 H -0.0832 1.0932 0.5933
H12 H 0.0832 1.1196 0.6126
C14 C 0.0502(3) 0.9632(2) 0.5295(2)
H13 H -0.0226 0.9339 0.4803
H14 H 0.0476 0.9123 0.5915
C15 C 0.2011(3) 0.9554(3) 0.4789(2)
H15 H 0.2771 0.9743 0.5308
loop_
_geom_bond_atom_site_label_1
_geom_bond_atom_site_label_2
_geom_bond_site_symmetry_1
_geom_bond_site_symmetry_2
Cl1 C3 1_555 1_555
O1 C9 1_555 1_555
O2 C12 1_555 1_555
C1 H1 1_555 1_555
C2 C1 1_555 1_555
H2 C2 1_555 1_555
C3 C2 1_555 1_555
C4 C3 1_555 1_555
H3 C4 1_555 1_555
C5 C4 1_555 1_555
H4 C5 1_555 1_555
C6 C1 1_555 1_555
C7 C6 1_555 1_555
H5 C7 1_555 1_555
C8 C7 1_555 1_555
H6 C8 1_555 1_555
H7 C8 1_555 1_555
C9 C8 1_555 1_555
C10 C9 1_555 1_555
H8 C10 1_555 1_555
C11 C10 1_555 1_555
H9 C11 1_555 1_555
H10 C11 1_555 1_555
C12 C11 1_555 1_555
C13 C12 1_555 1_555
H11 C13 1_555 1_555
H12 C13 1_555 1_555
C14 C13 1_555 1_555
H13 C14 1_555 1_555
H14 C14 1_555 1_555
C15 C7 1_555 1_555
H15 C15 1_555 1_555
C5 C6 1_555 1_555
C10 C15 1_555 1_555
C14 C15 1_555 1_555

#END
