
#######################################################################
#
#                 Cambridge Crystallographic Data Centre
#                                CCDC 
#
#######################################################################
#
# If this CIF has been generated from an entry in the Cambridge 
# Structural Database, then it will include bibliographic, chemical, 
# crystal, experimental, refinement or atomic coordinate data resulting 
# from the CCDC's data processing and validation procedures.
#
#######################################################################

data_DASFUB
_chemical_formula_moiety         'C18 H21 N1 O3'
_chemical_name_systematic        
5-(2-hydroxyethoxy)-3-oxo-1-phenyloctahydro-1H-indene-5-carbonitrile
_symmetry_cell_setting           orthorhombic
_symmetry_space_group_name_H-M   'P 21 21 21'
_symmetry_Int_Tables_number      19
_space_group_name_Hall           'P 2ac 2ab'
loop_
_symmetry_equiv_pos_site_id
_symmetry_equiv_pos_as_xyz
1 x,y,z
2 1/2-x,-y,1/2+z
3 1/2+x,1/2-y,-z
4 -x,1/2+y,1/2-z
_cell_length_a                   6.8548(5)
_cell_length_b                   7.4136(9)
_cell_length_c                   30.569(3)
_cell_angle_alpha                90
_cell_angle_beta                 90
_cell_angle_gamma                90
_cell_volume                     1553.48
_exptl_crystal_colour            'light colorless'
_exptl_crystal_description       block
_cell_formula_units_Z            4
loop_
_atom_site_label
_atom_site_type_symbol
_atom_site_fract_x
_atom_site_fract_y
_atom_site_fract_z
O1 O -0.1232(3) -0.8790(4) -0.09997(7)
O2 O -0.5925(3) -0.4809(3) -0.03066(6)
O3 O -0.4753(3) -0.1400(3) 0.00885(7)
H1 H -0.3646 -0.1008 0.0125
N1 N -0.2557(4) -0.4263(5) -0.10826(9)
C1 C -0.8196(4) -1.1227(5) -0.20848(10)
H2 H -0.8721 -1.1827 -0.1845
C2 C -0.9172(5) -1.1264(6) -0.24781(11)
H3 H -1.0353 -1.1875 -0.2500
C3 C -0.8415(5) -1.0405(5) -0.28392(10)
H4 H -0.9066 -1.0443 -0.3106
C4 C -0.6679(5) -0.9490(5) -0.27986(10)
H5 H -0.6156 -0.8901 -0.3040
C5 C -0.5701(5) -0.9434(5) -0.24016(9)
H6 H -0.4534 -0.8799 -0.2380
C6 C -0.6433(4) -1.0305(5) -0.20391(9)
C7 C -0.5407(4) -1.0338(5) -0.16020(9)
H7 H -0.5469 -1.1587 -0.1499
C8 C -0.3231(4) -0.9816(6) -0.16027(10)
H8 H -0.2426 -1.0842 -0.1681
H9 H -0.2987 -0.8846 -0.1809
C9 C -0.2807(4) -0.9212(5) -0.11416(10)
C10 C -0.4697(4) -0.9215(5) -0.08817(9)
H10 H -0.4787 -1.0402 -0.0743
C11 C -0.6307(4) -0.9161(5) -0.12344(9)
H11 H -0.7497 -0.9731 -0.1123
C12 C -0.6733(4) -0.7219(5) -0.13708(9)
H12 H -0.5623 -0.6742 -0.1530
H13 H -0.7851 -0.7202 -0.1565
C13 C -0.7146(4) -0.6023(5) -0.09765(9)
H14 H -0.8269 -0.6489 -0.0820
H15 H -0.7459 -0.4814 -0.1076
C14 C -0.5389(4) -0.5942(5) -0.06656(9)
C15 C -0.4810(4) -0.7834(4) -0.05148(9)
H16 H -0.3549 -0.7769 -0.0372
H17 H -0.5751 -0.8247 -0.0300
C16 C -0.3747(4) -0.5016(5) -0.08996(9)
C17 C -0.4480(4) -0.4679(5) 0.00388(9)
H18 H -0.3187 -0.4550 -0.0086
H19 H -0.4500 -0.5763 0.0217
C18 C -0.4960(4) -0.3064(5) 0.03142(9)
H20 H -0.6294 -0.3172 0.0417
H21 H -0.4114 -0.3056 0.0568
loop_
_geom_bond_atom_site_label_1
_geom_bond_atom_site_label_2
_geom_bond_site_symmetry_1
_geom_bond_site_symmetry_2
O1 C9 1_555 1_555
O2 C14 1_555 1_555
O3 H1 1_555 1_555
N1 C16 1_555 1_555
C1 H2 1_555 1_555
C2 C1 1_555 1_555
H3 C2 1_555 1_555
C3 C2 1_555 1_555
H4 C3 1_555 1_555
C4 C3 1_555 1_555
H5 C4 1_555 1_555
C5 C4 1_555 1_555
H6 C5 1_555 1_555
C6 C1 1_555 1_555
C7 C6 1_555 1_555
H7 C7 1_555 1_555
C8 C7 1_555 1_555
H8 C8 1_555 1_555
H9 C8 1_555 1_555
C9 C8 1_555 1_555
C10 C9 1_555 1_555
H10 C10 1_555 1_555
C11 C7 1_555 1_555
H11 C11 1_555 1_555
C12 C11 1_555 1_555
H12 C12 1_555 1_555
H13 C12 1_555 1_555
C13 C12 1_555 1_555
H14 C13 1_555 1_555
H15 C13 1_555 1_555
C14 C13 1_555 1_555
C15 C10 1_555 1_555
H16 C15 1_555 1_555
H17 C15 1_555 1_555
C16 C14 1_555 1_555
C17 O2 1_555 1_555
H18 C17 1_555 1_555
H19 C17 1_555 1_555
C18 O3 1_555 1_555
H20 C18 1_555 1_555
H21 C18 1_555 1_555
C5 C6 1_555 1_555
C10 C11 1_555 1_555
C14 C15 1_555 1_555
C17 C18 1_555 1_555

#END
