
#######################################################################
#
#                 Cambridge Crystallographic Data Centre
#                                CCDC 
#
#######################################################################
#
# If this CIF has been generated from an entry in the Cambridge 
# Structural Database, then it will include bibliographic, chemical, 
# crystal, experimental, refinement or atomic coordinate data resulting 
# from the CCDC's data processing and validation procedures.
#
#######################################################################

data_DASGAI
_chemical_formula_moiety         'C17 H20 O3'
_chemical_name_systematic        
1'-phenylhexahydrospiro[1,3-dioxolane-2,5'-inden]-3'(2'H)-one
_symmetry_cell_setting           orthorhombic
_symmetry_space_group_name_H-M   'P 21 21 21'
_symmetry_Int_Tables_number      19
_space_group_name_Hall           'P 2ac 2ab'
loop_
_symmetry_equiv_pos_site_id
_symmetry_equiv_pos_as_xyz
1 x,y,z
2 1/2-x,-y,1/2+z
3 1/2+x,1/2-y,-z
4 -x,1/2+y,1/2-z
_cell_length_a                   5.8091(6)
_cell_length_b                   7.6474(7)
_cell_length_c                   31.466(4)
_cell_angle_alpha                90
_cell_angle_beta                 90
_cell_angle_gamma                90
_cell_volume                     1397.86
_exptl_crystal_colour            'light colorless'
_exptl_crystal_description       block
_cell_formula_units_Z            4
loop_
_atom_site_label
_atom_site_type_symbol
_atom_site_fract_x
_atom_site_fract_y
_atom_site_fract_z
O1 O -0.2715(4) -0.9225(4) -0.05790(8)
O2 O -0.3831(4) -0.5194(3) -0.08376(6)
O3 O -0.6753(4) -0.3737(3) -0.05325(7)
C1 C -0.5466(6) -0.9644(4) -0.21869(10)
H1 H -0.4127 -0.9112 -0.2089
C2 C -0.5902(6) -0.9711(5) -0.26201(11)
H2 H -0.4866 -0.9212 -0.2810
C3 C -0.7849(6) -1.0509(5) -0.27702(11)
H3 H -0.8148 -1.0539 -0.3060
C4 C -0.9358(6) -1.1263(5) -0.24882(11)
H4 H -1.0664 -1.1832 -0.2589
C5 C -0.8948(6) -1.1182(4) -0.20581(10)
H5 H -0.9994 -1.1687 -0.1871
C6 C -0.6993(5) -1.0356(4) -0.18980(9)
C7 C -0.6683(5) -1.0211(4) -0.14229(9)
H6 H -0.7532 -1.1187 -0.1296
C8 C -0.4240(6) -1.0297(5) -0.12482(10)
H7 H -0.3769 -1.1503 -0.1208
H8 H -0.3170 -0.9739 -0.1442
C9 C -0.4296(6) -0.9344(4) -0.08291(10)
C10 C -0.6680(6) -0.8588(4) -0.07688(9)
H9 H -0.7576 -0.9473 -0.0616
C11 C -0.7652(5) -0.8522(4) -0.12234(9)
H10 H -0.9336 -0.8582 -0.1214
C12 C -0.6909(6) -0.6862(4) -0.14468(9)
H11 H -0.7681 -0.6790 -0.1720
H12 H -0.5265 -0.6911 -0.1499
C13 C -0.7456(6) -0.5228(4) -0.11897(9)
H13 H -0.6967 -0.4200 -0.1346
H14 H -0.9104 -0.5148 -0.1145
C14 C -0.6244(5) -0.5284(4) -0.07662(9)
C15 C -0.6878(6) -0.6901(4) -0.05131(10)
H15 H -0.8447 -0.6782 -0.0412
H16 H -0.5879 -0.6979 -0.0267
C16 C -0.4843(5) -0.3475(4) -0.02522(10)
H17 H -0.5152 -0.3977 0.0025
H18 H -0.4516 -0.2239 -0.0219
C17 C -0.2849(6) -0.4405(6) -0.04667(11)
H19 H -0.1650 -0.3581 -0.0544
H20 H -0.2197 -0.5287 -0.0281
loop_
_geom_bond_atom_site_label_1
_geom_bond_atom_site_label_2
_geom_bond_site_symmetry_1
_geom_bond_site_symmetry_2
O1 C9 1_555 1_555
O2 C14 1_555 1_555
O3 C14 1_555 1_555
C1 H1 1_555 1_555
C2 C1 1_555 1_555
H2 C2 1_555 1_555
C3 C2 1_555 1_555
H3 C3 1_555 1_555
C4 C3 1_555 1_555
H4 C4 1_555 1_555
C5 C4 1_555 1_555
H5 C5 1_555 1_555
C6 C1 1_555 1_555
C7 C6 1_555 1_555
H6 C7 1_555 1_555
C8 C7 1_555 1_555
H7 C8 1_555 1_555
H8 C8 1_555 1_555
C9 C8 1_555 1_555
C10 C9 1_555 1_555
H9 C10 1_555 1_555
C11 C7 1_555 1_555
H10 C11 1_555 1_555
C12 C11 1_555 1_555
H11 C12 1_555 1_555
H12 C12 1_555 1_555
C13 C12 1_555 1_555
H13 C13 1_555 1_555
H14 C13 1_555 1_555
C14 C13 1_555 1_555
C15 C10 1_555 1_555
H15 C15 1_555 1_555
H16 C15 1_555 1_555
C16 O3 1_555 1_555
H17 C16 1_555 1_555
H18 C16 1_555 1_555
C17 O2 1_555 1_555
H19 C17 1_555 1_555
H20 C17 1_555 1_555
C5 C6 1_555 1_555
C10 C11 1_555 1_555
C14 C15 1_555 1_555
C16 C17 1_555 1_555

#END
