
#######################################################################
#
#                 Cambridge Crystallographic Data Centre
#                                CCDC 
#
#######################################################################
#
# If this CIF has been generated from an entry in the Cambridge 
# Structural Database, then it will include bibliographic, chemical, 
# crystal, experimental, refinement or atomic coordinate data resulting 
# from the CCDC's data processing and validation procedures.
#
#######################################################################

data_DASJEN
_chemical_formula_moiety         'C33 H24 N2'
_chemical_name_systematic        
9-(4-(2-(4-(2-(4-pyridyl)vinyl)phenyl)vinyl)phenyl)-9H-carbazole
_symmetry_cell_setting           triclinic
_symmetry_space_group_name_H-M   'P -1'
_symmetry_Int_Tables_number      2
_space_group_name_Hall           '-P 1'
loop_
_symmetry_equiv_pos_site_id
_symmetry_equiv_pos_as_xyz
1 x,y,z
2 -x,-y,-z
_cell_length_a                   9.2893(10)
_cell_length_b                   9.6014(17)
_cell_length_c                   13.3645(15)
_cell_angle_alpha                92.365(10)
_cell_angle_beta                 97.015(6)
_cell_angle_gamma                96.292(10)
_cell_volume                     1174.13
_exptl_crystal_colour            'pale yellow'
_exptl_crystal_description       prism
_chemical_melting_point          268.4deg.C
_cell_formula_units_Z            2
loop_
_atom_site_label
_atom_site_type_symbol
_atom_site_fract_x
_atom_site_fract_y
_atom_site_fract_z
C1 C 0.6243(2) 0.1110(2) 1.42101(14)
H1 H 0.6623 0.0294 1.4409
C2 C 0.6553(2) 0.16135(19) 1.33025(13)
H2 H 0.7143 0.1152 1.2917
C3 C 0.5985(2) 0.28122(19) 1.29640(13)
C4 C 0.5096(2) 0.3410(2) 1.35834(14)
H3 H 0.4652 0.4196 1.3388
C5 C 0.4873(2) 0.2837(2) 1.44882(15)
H4 H 0.4286 0.3273 1.4891
C6 C 0.6295(2) 0.3473(2) 1.20358(13)
H5 H 0.5743 0.4188 1.1836
C7 C 0.7277(2) 0.31624(19) 1.14510(13)
H6 H 0.7810 0.2428 1.1635
C8 C 0.7605(2) 0.38689(18) 1.05377(12)
C9 C 0.8425(2) 0.32671(19) 0.98687(12)
H7 H 0.8794 0.2428 1.0021
C10 C 0.8706(2) 0.38751(18) 0.89893(12)
H8 H 0.9245 0.3436 0.8553
C11 C 0.8193(2) 0.51422(18) 0.87466(12)
C12 C 0.7426(2) 0.57748(19) 0.94366(13)
H9 H 0.7104 0.6640 0.9304
C13 C 0.7133(2) 0.51546(19) 1.03064(13)
H10 H 0.6610 0.5602 1.0749
C14 C 0.8392(2) 0.58198(19) 0.78015(13)
H11 H 0.8402 0.6790 0.7821
C15 C 0.8558(2) 0.52095(19) 0.69274(12)
H12 H 0.8611 0.4247 0.6906
C16 C 0.86650(19) 0.59263(17) 0.59861(12)
C17 C 0.8291(2) 0.51929(18) 0.50570(12)
H13 H 0.8008 0.4231 0.5037
C18 C 0.8326(2) 0.58551(18) 0.41610(12)
H14 H 0.8076 0.5340 0.3548
C19 C 0.87336(19) 0.72806(17) 0.41775(12)
C20 C 0.9110(2) 0.80230(19) 0.50927(13)
H15 H 0.9381 0.8986 0.5108
C21 C 0.9090(2) 0.73620(19) 0.59822(13)
H16 H 0.9365 0.7881 0.6592
C22 C 0.7587(2) 0.80846(17) 0.25312(12)
C23 C 0.6126(2) 0.7576(2) 0.25324(14)
H17 H 0.5814 0.7082 0.3066
C24 C 0.5162(2) 0.7832(2) 0.17157(15)
H18 H 0.4180 0.7498 0.1696
C25 C 0.5615(2) 0.8577(2) 0.09158(15)
H19 H 0.4937 0.8719 0.0368
C26 C 0.7051(2) 0.9105(2) 0.09282(14)
H20 H 0.7344 0.9616 0.0397
C27 C 0.8068(2) 0.88698(17) 0.17406(12)
C28 C 0.9614(2) 0.92654(17) 0.20052(12)
C29 C 1.0705(2) 1.00164(18) 0.15420(13)
H21 H 1.0468 1.0417 0.0930
C30 C 1.2126(2) 1.0160(2) 0.19952(14)
H22 H 1.2851 1.0657 0.1687
C31 C 1.2490(2) 0.95664(19) 0.29120(14)
H23 H 1.3459 0.9669 0.3205
C32 C 1.1446(2) 0.88313(18) 0.33942(13)
H24 H 1.1696 0.8437 0.4006
C33 C 1.0014(2) 0.86966(17) 0.29402(12)
N1 N 0.5434(2) 0.17115(19) 1.48239(12)
N2 N 0.87750(16) 0.79870(14) 0.32562(10)
loop_
_geom_bond_atom_site_label_1
_geom_bond_atom_site_label_2
_geom_bond_site_symmetry_1
_geom_bond_site_symmetry_2
C1 H1 1_555 1_555
C2 C1 1_555 1_555
H2 C2 1_555 1_555
C3 C2 1_555 1_555
C4 C3 1_555 1_555
H3 C4 1_555 1_555
C5 C4 1_555 1_555
H4 C5 1_555 1_555
C6 C3 1_555 1_555
H5 C6 1_555 1_555
C7 C6 1_555 1_555
H6 C7 1_555 1_555
C8 C7 1_555 1_555
C9 C8 1_555 1_555
H7 C9 1_555 1_555
C10 C9 1_555 1_555
H8 C10 1_555 1_555
C11 C10 1_555 1_555
C12 C11 1_555 1_555
H9 C12 1_555 1_555
C13 C8 1_555 1_555
H10 C13 1_555 1_555
C14 C11 1_555 1_555
H11 C14 1_555 1_555
C15 C14 1_555 1_555
H12 C15 1_555 1_555
C16 C15 1_555 1_555
C17 C16 1_555 1_555
H13 C17 1_555 1_555
C18 C17 1_555 1_555
H14 C18 1_555 1_555
C19 C18 1_555 1_555
C20 C19 1_555 1_555
H15 C20 1_555 1_555
C21 C16 1_555 1_555
H16 C21 1_555 1_555
C22 C23 1_555 1_555
C23 H17 1_555 1_555
C24 C23 1_555 1_555
H18 C24 1_555 1_555
C25 C24 1_555 1_555
H19 C25 1_555 1_555
C26 C25 1_555 1_555
H20 C26 1_555 1_555
C27 C22 1_555 1_555
C28 C27 1_555 1_555
C29 C28 1_555 1_555
H21 C29 1_555 1_555
C30 C29 1_555 1_555
H22 C30 1_555 1_555
C31 C30 1_555 1_555
H23 C31 1_555 1_555
C32 C31 1_555 1_555
H24 C32 1_555 1_555
C33 C28 1_555 1_555
N1 C1 1_555 1_555
N2 C19 1_555 1_555
C5 N1 1_555 1_555
C12 C13 1_555 1_555
C20 C21 1_555 1_555
C22 N2 1_555 1_555
C26 C27 1_555 1_555
C32 C33 1_555 1_555
C33 N2 1_555 1_555

#END
