
#######################################################################
#
#                 Cambridge Crystallographic Data Centre
#                                CCDC 
#
#######################################################################
#
# If this CIF has been generated from an entry in the Cambridge 
# Structural Database, then it will include bibliographic, chemical, 
# crystal, experimental, refinement or atomic coordinate data resulting 
# from the CCDC's data processing and validation procedures.
#
#######################################################################

data_DASKEQ
_chemical_formula_moiety         'C16 H23 N3'
_chemical_name_systematic        
1-(4-phenylbuta-1,3-dien-1-yl)-3,3-bis(propan-2-yl)triaz-1-ene
_symmetry_cell_setting           orthorhombic
_symmetry_space_group_name_H-M   'P c a 21'
_symmetry_Int_Tables_number      29
_space_group_name_Hall           'P 2c -2ac'
loop_
_symmetry_equiv_pos_site_id
_symmetry_equiv_pos_as_xyz
1 x,y,z
2 -x,-y,1/2+z
3 1/2+x,-y,z
4 1/2-x,y,1/2+z
_cell_length_a                   10.4082(5)
_cell_length_b                   7.7785(3)
_cell_length_c                   19.6994(9)
_cell_angle_alpha                90
_cell_angle_beta                 90
_cell_angle_gamma                90
_cell_volume                     1594.87
_exptl_crystal_colour            'pale yellow'
_exptl_crystal_description       plate
_cell_formula_units_Z            4
loop_
_atom_site_label
_atom_site_type_symbol
_atom_site_fract_x
_atom_site_fract_y
_atom_site_fract_z
N1 N 0.45967(14) 0.79604(18) 0.52301(8)
N2 N 0.53721(15) 0.74554(18) 0.57241(8)
N3 N 0.64408(15) 0.82605(19) 0.57663(8)
C1 C 0.50109(18) 0.9185(2) 0.47039(10)
H1 H 0.563(2) 0.992(3) 0.4933(12)
C2 C 0.5688(2) 0.8241(3) 0.41295(11)
H2 H 0.641(3) 0.754(4) 0.4301(15)
H3 H 0.611(2) 0.905(4) 0.3801(14)
H4 H 0.505(2) 0.754(3) 0.3877(14)
C3 C 0.3891(2) 1.0266(3) 0.44474(11)
H5 H 0.329(3) 0.961(4) 0.4130(15)
H6 H 0.426(3) 1.126(4) 0.4189(15)
H7 H 0.338(3) 1.071(4) 0.4830(16)
C4 C 0.34834(18) 0.6809(2) 0.51270(10)
H8 H 0.303(2) 0.725(3) 0.4710(14)
C5 C 0.2535(2) 0.6995(3) 0.57031(15)
H9 H 0.300(3) 0.664(3) 0.6146(14)
H10 H 0.176(3) 0.628(4) 0.5609(17)
H11 H 0.221(3) 0.822(4) 0.5735(18)
C6 C 0.3903(2) 0.4949(3) 0.50284(12)
H12 H 0.457(3) 0.488(4) 0.4669(15)
H13 H 0.311(3) 0.422(4) 0.4924(15)
H14 H 0.432(2) 0.450(3) 0.5445(13)
C7 C 0.71911(19) 0.7616(2) 0.62915(10)
H15 H 0.683(3) 0.663(4) 0.6557(14)
C8 C 0.8366(2) 0.8244(3) 0.64158(9)
H16 H 0.871(3) 0.923(4) 0.6147(15)
C9 C 0.9234(2) 0.7518(2) 0.69070(9)
H17 H 0.893(2) 0.650(3) 0.7172(13)
C10 C 1.04225(19) 0.8114(3) 0.70238(10)
H18 H 1.067(3) 0.912(4) 0.6780(15)
C11 C 1.13739(19) 0.7365(3) 0.74857(9)
C12 C 1.1231(2) 0.5729(3) 0.77716(11)
H19 H 1.047(3) 0.501(4) 0.7652(15)
C13 C 1.2139(2) 0.5087(3) 0.82157(11)
H20 H 1.204(3) 0.394(4) 0.8399(17)
C14 C 1.3218(2) 0.6019(3) 0.83726(11)
H21 H 1.387(3) 0.558(4) 0.8661(15)
C15 C 1.3403(2) 0.7609(3) 0.80769(12)
H22 H 1.417(3) 0.825(4) 0.8138(17)
C16 C 1.2486(2) 0.8280(3) 0.76393(11)
H23 H 1.259(3) 0.940(4) 0.7441(15)
loop_
_geom_bond_atom_site_label_1
_geom_bond_atom_site_label_2
_geom_bond_site_symmetry_1
_geom_bond_site_symmetry_2
N1 N2 1_555 1_555
N2 N3 1_555 1_555
N3 C7 1_555 1_555
C1 N1 1_555 1_555
H1 C1 1_555 1_555
C2 C1 1_555 1_555
H2 C2 1_555 1_555
H3 C2 1_555 1_555
H4 C2 1_555 1_555
C3 C1 1_555 1_555
H5 C3 1_555 1_555
H6 C3 1_555 1_555
H7 C3 1_555 1_555
C4 N1 1_555 1_555
H8 C4 1_555 1_555
C5 C4 1_555 1_555
H9 C5 1_555 1_555
H10 C5 1_555 1_555
H11 C5 1_555 1_555
C6 C4 1_555 1_555
H12 C6 1_555 1_555
H13 C6 1_555 1_555
H14 C6 1_555 1_555
C7 H15 1_555 1_555
C8 C7 1_555 1_555
H16 C8 1_555 1_555
C9 C8 1_555 1_555
H17 C9 1_555 1_555
C10 C9 1_555 1_555
H18 C10 1_555 1_555
C11 C10 1_555 1_555
C12 C11 1_555 1_555
H19 C12 1_555 1_555
C13 C12 1_555 1_555
H20 C13 1_555 1_555
C14 C13 1_555 1_555
H21 C14 1_555 1_555
C15 C14 1_555 1_555
H22 C15 1_555 1_555
C16 C11 1_555 1_555
H23 C16 1_555 1_555
C15 C16 1_555 1_555

#END
