
#######################################################################
#
#                 Cambridge Crystallographic Data Centre
#                                CCDC 
#
#######################################################################
#
# If this CIF has been generated from an entry in the Cambridge 
# Structural Database, then it will include bibliographic, chemical, 
# crystal, experimental, refinement or atomic coordinate data resulting 
# from the CCDC's data processing and validation procedures.
#
#######################################################################

data_DASKUG
_chemical_compound_source        'Daldinia eschscholzii IFB-TL01'
_chemical_name_common            'Dalescone B'
_chemical_formula_moiety         'C30 H20 O7'
_chemical_name_systematic        
4,10,15-trihydroxy-17-(hydroxymethyl)-12a,13-dihydrobenzo[3,4]naphtho[1',2':1,7]cyclohepta[1,2-a]acenaphthylene-3,11,14(12H)-trione
_symmetry_cell_setting           triclinic
_symmetry_space_group_name_H-M   'P -1'
_symmetry_Int_Tables_number      2
_space_group_name_Hall           '-P 1'
loop_
_symmetry_equiv_pos_site_id
_symmetry_equiv_pos_as_xyz
1 x,y,z
2 -x,-y,-z
_cell_length_a                   7.3385(2)
_cell_length_b                   11.9720(3)
_cell_length_c                   13.1171(3)
_cell_angle_alpha                91.1660(10)
_cell_angle_beta                 101.4300(10)
_cell_angle_gamma                96.5690(10)
_cell_volume                     1121.06
_cell_formula_units_Z            2
loop_
_atom_site_label
_atom_site_type_symbol
_atom_site_fract_x
_atom_site_fract_y
_atom_site_fract_z
C1 C 0.1887(3) 0.69732(18) 0.59902(17)
O1 O 0.5009(2) 0.77897(18) 0.61876(15)
O2 O 0.2923(3) 0.7353(2) 0.43858(15)
H1 H 0.3844 0.7645 0.4805
O3 O -0.3064(3) 0.49633(17) 1.05835(15)
C2 C -0.0615(3) 0.61700(17) 0.81884(17)
C3 C 0.1258(3) 0.88935(17) 0.75647(15)
C4 C 0.0348(3) 0.65964(16) 0.64576(16)
C5 C 0.0395(3) 0.67795(16) 0.75717(16)
C6 C -0.1373(3) 0.62089(17) 0.58284(17)
H2 H -0.2379 0.5971 0.6137
C7 C -0.0480(3) 0.68235(18) 0.91425(16)
C8 C 0.2805(3) 0.96873(18) 0.74948(18)
C9 C 0.1494(3) 0.78417(17) 0.81894(15)
C10 C -0.1363(3) 0.6485(2) 0.99489(18)
C11 C 0.0629(3) 0.78414(18) 0.91544(16)
C12 C 0.4662(3) 0.9603(2) 0.8115(2)
C13 C -0.1627(3) 0.61677(18) 0.47473(17)
C14 C -0.0498(3) 0.90552(19) 0.70364(17)
H3 H -0.1526 0.8553 0.7106
C15 C -0.2381(3) 0.5363(2) 0.98559(19)
C16 C -0.1716(3) 0.50804(18) 0.80845(19)
H4 H -0.1869 0.4634 0.7478
O4 O 0.6038(3) 1.02666(18) 0.8037(2)
C17 C 0.3782(3) 0.73050(19) 0.65972(19)
O5 O -0.1918(3) 0.6980(2) 1.16295(16)
H5 H -0.2583 0.6375 1.1502
C18 C -0.0152(4) 0.6533(2) 0.42886(18)
H6 H -0.0309 0.6493 0.3567
C19 C 0.4276(3) 0.6951(2) 0.76940(19)
H7 H 0.5630 0.6999 0.7889
H8 H 0.3784 0.6166 0.7710
C20 C 0.1582(3) 0.6963(2) 0.48950(18)
O6 O 0.3938(3) 1.13702(18) 0.6715(2)
H9 H 0.4899 1.1254 0.7116
C21 C -0.0752(4) 0.9955(2) 0.6404(2)
H10 H -0.1951 1.0053 0.6054
C22 C -0.1128(4) 0.7248(2) 1.08083(18)
C23 C 0.2510(4) 1.0593(2) 0.6835(2)
C24 C 0.3584(3) 0.76146(19) 0.85295(17)
H11 H 0.3646 0.7145 0.9136
C25 C -0.2524(3) 0.4716(2) 0.8876(2)
H12 H -0.3216 0.4007 0.8795
C26 C 0.0737(4) 1.0707(2) 0.6285(2)
H13 H 0.0554 1.1292 0.5835
C27 C 0.0824(4) 0.8582(2) 1.00037(18)
H14 H 0.1546 0.9277 1.0030
C28 C 0.4843(3) 0.8710(2) 0.8893(2)
H15 H 0.4544 0.8991 0.9531
H16 H 0.6135 0.8554 0.9050
C29 C -0.3596(4) 0.5764(2) 0.41116(19)
H17 H -0.3817 0.4951 0.4127
H18 H -0.4513 0.6073 0.4441
C30 C -0.0065(4) 0.8281(2) 1.08189(19)
H19 H 0.0059 0.8786 1.1383
O7 O -0.3865(3) 0.6063(2) 0.30964(16)
H20 H -0.3364 0.6707 0.3067
loop_
_geom_bond_atom_site_label_1
_geom_bond_atom_site_label_2
_geom_bond_site_symmetry_1
_geom_bond_site_symmetry_2
C1 C4 1_555 1_555
O1 C17 1_555 1_555
O2 H1 1_555 1_555
O3 C15 1_555 1_555
C2 C5 1_555 1_555
C3 C8 1_555 1_555
C4 C5 1_555 1_555
C5 C9 1_555 1_555
C6 C4 1_555 1_555
H2 C6 1_555 1_555
C7 C2 1_555 1_555
C8 C12 1_555 1_555
C9 C3 1_555 1_555
C10 C7 1_555 1_555
C11 C7 1_555 1_555
C12 O4 1_555 1_555
C13 C6 1_555 1_555
C14 C3 1_555 1_555
H3 C14 1_555 1_555
C15 C10 1_555 1_555
C16 C2 1_555 1_555
H4 C16 1_555 1_555
C17 C1 1_555 1_555
O5 H5 1_555 1_555
C18 C13 1_555 1_555
H6 C18 1_555 1_555
C19 C17 1_555 1_555
H7 C19 1_555 1_555
H8 C19 1_555 1_555
C20 C1 1_555 1_555
O6 H9 1_555 1_555
C21 C14 1_555 1_555
H10 C21 1_555 1_555
C22 C10 1_555 1_555
C23 C8 1_555 1_555
C24 C9 1_555 1_555
H11 C24 1_555 1_555
C25 C15 1_555 1_555
H12 C25 1_555 1_555
C26 C21 1_555 1_555
H13 C26 1_555 1_555
C27 C11 1_555 1_555
H14 C27 1_555 1_555
C28 C12 1_555 1_555
H15 C28 1_555 1_555
H16 C28 1_555 1_555
C29 C13 1_555 1_555
H17 C29 1_555 1_555
H18 C29 1_555 1_555
C30 C22 1_555 1_555
H19 C30 1_555 1_555
O7 C29 1_555 1_555
H20 O7 1_555 1_555
O2 C20 1_555 1_555
C9 C11 1_555 1_555
C16 C25 1_555 1_555
O5 C22 1_555 1_555
C18 C20 1_555 1_555
C19 C24 1_555 1_555
O6 C23 1_555 1_555
C23 C26 1_555 1_555
C24 C28 1_555 1_555
C27 C30 1_555 1_555

#END
