
#######################################################################
#
#                 Cambridge Crystallographic Data Centre
#                                CCDC 
#
#######################################################################
#
# If this CIF has been generated from an entry in the Cambridge 
# Structural Database, then it will include bibliographic, chemical, 
# crystal, experimental, refinement or atomic coordinate data resulting 
# from the CCDC's data processing and validation procedures.
#
#######################################################################

data_DASMUG
_chemical_formula_moiety         'C64 H72 O24,2.5(C3 H6 O1)'
_chemical_name_systematic        
'4,5,6,10,11,12,16,17,18,22,23,24-dodecakis(Acetoxy)-2,8,14,20-tetrapropylcalix[4]arene acetone solvate'
_symmetry_cell_setting           triclinic
_symmetry_space_group_name_H-M   'P -1'
_symmetry_Int_Tables_number      2
_space_group_name_Hall           '-P 1'
loop_
_symmetry_equiv_pos_site_id
_symmetry_equiv_pos_as_xyz
1 x,y,z
2 -x,-y,-z
_cell_length_a                   14.3989(8)
_cell_length_b                   17.0332(13)
_cell_length_c                   17.6797(14)
_cell_angle_alpha                106.518(3)
_cell_angle_beta                 93.644(4)
_cell_angle_gamma                92.285(4)
_cell_volume                     4141.14
_exptl_crystal_colour            colorless
_exptl_crystal_description       block
_chemical_melting_point          286deg.C
_cell_formula_units_Z            2
loop_
_atom_site_label
_atom_site_type_symbol
_atom_site_fract_x
_atom_site_fract_y
_atom_site_fract_z
C1 C 0.3749(6) -0.3283(5) 0.3902(5)
C2 C 0.3724(6) -0.3296(5) 0.3121(6)
H1 H 0.3182 -0.3124 0.2894
C3 C 0.4458(6) -0.3552(5) 0.2640(5)
C4 C 0.5235(6) -0.3781(6) 0.2980(5)
C5 C 0.5295(6) -0.3772(6) 0.3768(6)
C6 C 0.4564(6) -0.3521(6) 0.4230(5)
C7 C 0.4376(7) -0.3611(6) 0.1755(5)
H2 H 0.4993 -0.3766 0.1547
C8 C 0.4173(6) -0.2789(6) 0.1618(5)
C9 C 0.3307(6) -0.2624(5) 0.1316(5)
H3 H 0.2819 -0.3043 0.1190
C10 C 0.3128(5) -0.1868(5) 0.1190(4)
C11 C 0.3851(6) -0.1271(5) 0.1402(5)
C12 C 0.4701(6) -0.1405(6) 0.1710(5)
C13 C 0.4869(6) -0.2158(6) 0.1816(5)
C14 C 0.2191(5) -0.1688(5) 0.0854(5)
H4 H 0.2320 -0.1389 0.0457
C15 C 0.1690(5) -0.1112(5) 0.1501(5)
C16 C 0.1504(5) -0.1301(5) 0.2192(5)
H5 H 0.1731 -0.1789 0.2274
C17 C 0.0996(5) -0.0803(5) 0.2772(5)
C18 C 0.0682(5) -0.0100(5) 0.2646(5)
C19 C 0.0867(5) 0.0126(6) 0.1977(5)
C20 C 0.1355(5) -0.0387(5) 0.1400(5)
C21 C 0.0786(5) -0.1054(6) 0.3513(5)
H6 H 0.0531 -0.0570 0.3889
C22 C 0.1664(5) -0.1254(6) 0.3931(5)
C23 C 0.1878(5) -0.2037(5) 0.3964(5)
H7 H 0.1470 -0.2491 0.3680
C24 C 0.2663(5) -0.2179(5) 0.4394(5)
C25 C 0.3247(6) -0.1517(6) 0.4786(5)
C26 C 0.3104(6) -0.0733(5) 0.4742(5)
C27 C 0.2316(6) -0.0609(5) 0.4305(5)
C28 C 0.2911(5) -0.3038(5) 0.4394(5)
H8 H 0.3120 -0.3009 0.4952
C29 C 0.3651(9) -0.4324(6) 0.1329(6)
H9 H 0.3773 -0.4806 0.1520
H10 H 0.3019 -0.4155 0.1464
C30 C 0.3687(13) -0.4568(8) 0.0430(7)
H11 H 0.3371 -0.4162 0.0216
H12 H 0.4344 -0.4566 0.0297
C31 C 0.3230(13) -0.5387(10) 0.0064(10)
H13 H 0.3240 -0.5523 -0.0512
H14 H 0.2583 -0.5391 0.0205
H15 H 0.3562 -0.5793 0.0256
C32 C 0.1540(6) -0.2447(6) 0.0422(5)
H16 H 0.1490 -0.2810 0.0769
H17 H 0.0909 -0.2265 0.0328
C33 C 0.1873(7) -0.2938(7) -0.0369(6)
H18 H 0.1965 -0.2568 -0.0704
H19 H 0.2483 -0.3156 -0.0273
C34 C 0.1212(13) -0.3622(10) -0.0796(10)
H20 H 0.1219 -0.4049 -0.0522
H21 H 0.1392 -0.3851 -0.1336
H22 H 0.0583 -0.3424 -0.0813
C35 C 0.0009(6) -0.1741(7) 0.3290(6)
H23 H 0.0268 -0.2246 0.2963
H24 H -0.0488 -0.1587 0.2956
C36 C -0.0436(7) -0.1944(9) 0.3985(8)
H25 H -0.0852 -0.2447 0.3775
H26 H 0.0063 -0.2064 0.4340
C37 C -0.0955(12) -0.1315(13) 0.4433(10)
H27 H -0.1211 -0.1487 0.4865
H28 H -0.1466 -0.1204 0.4091
H29 H -0.0548 -0.0816 0.4653
C38 C 0.2118(6) -0.3694(6) 0.4135(6)
H30 H 0.1833 -0.3684 0.3614
H31 H 0.2375 -0.4238 0.4068
C39 C 0.1365(7) -0.3592(7) 0.4712(7)
H32 H 0.1645 -0.3618 0.5230
H33 H 0.1117 -0.3043 0.4790
C40 C 0.0584(10) -0.4227(9) 0.4437(10)
H34 H 0.0231 -0.4140 0.3979
H35 H 0.0171 -0.4189 0.4865
H36 H 0.0834 -0.4772 0.4288
O1 O 0.6027(4) -0.3988(4) 0.2586(4)
O2 O 0.6080(5) -0.4059(5) 0.4089(4)
O3 O 0.4660(4) -0.3477(4) 0.5036(4)
O4 O 0.3702(4) -0.0474(4) 0.1364(4)
O5 O 0.5346(4) -0.0729(4) 0.2022(4)
O6 O 0.5705(4) -0.2242(4) 0.2217(4)
O7 O 0.0204(4) 0.0446(3) 0.3219(3)
O8 O 0.0485(4) 0.0822(4) 0.1855(3)
O9 O 0.1589(4) -0.0116(4) 0.0748(3)
O10 O 0.4088(4) -0.1607(4) 0.5207(4)
O11 O 0.3778(4) -0.0091(4) 0.5062(4)
O12 O 0.2171(4) 0.0182(4) 0.4265(3)
C41 C 0.4289(8) -0.4126(8) 0.5244(7)
C42 C 0.4381(9) -0.4000(7) 0.6095(6)
H37 H 0.3853 -0.4285 0.6249
H38 H 0.4388 -0.3412 0.6368
H39 H 0.4964 -0.4218 0.6241
C43 C 0.6825(9) -0.3508(10) 0.4368(7)
C44 C 0.7628(8) -0.3941(8) 0.4604(8)
H40 H 0.8089 -0.3538 0.4950
H41 H 0.7916 -0.4248 0.4130
H42 H 0.7405 -0.4322 0.4887
C45 C 0.6115(10) -0.4799(9) 0.2225(7)
C46 C 0.7031(9) -0.4943(9) 0.1861(8)
H43 H 0.7508 -0.5005 0.2257
H44 H 0.7216 -0.4474 0.1674
H45 H 0.6967 -0.5442 0.1413
C47 C 0.6458(7) -0.2521(7) 0.1833(8)
C48 C 0.7292(7) -0.2396(8) 0.2376(7)
H46 H 0.7138 -0.2535 0.2857
H47 H 0.7525 -0.1821 0.2515
H48 H 0.7772 -0.2749 0.2122
C49 C 0.6020(7) -0.0611(7) 0.1595(7)
C50 C 0.6616(7) 0.0149(7) 0.1987(7)
H49 H 0.7235 0.0001 0.2143
H50 H 0.6330 0.0468 0.2457
H51 H 0.6677 0.0479 0.1617
C51 C 0.3807(7) -0.0272(7) 0.0666(7)
C52 C 0.3802(8) 0.0619(6) 0.0812(7)
H52 H 0.4385 0.0880 0.1109
H53 H 0.3274 0.0826 0.1119
H54 H 0.3742 0.0748 0.0305
C53 C 0.1051(7) -0.0456(6) 0.0045(6)
C54 C 0.1452(7) -0.0203(7) -0.0608(6)
H55 H 0.0962 -0.0244 -0.1032
H56 H 0.1948 -0.0562 -0.0816
H57 H 0.1710 0.0365 -0.0408
C55 C 0.1089(10) 0.1471(7) 0.1873(6)
C56 C 0.0551(9) 0.2148(7) 0.1712(7)
H58 H 0.0977 0.2625 0.1756
H59 H 0.0081 0.2302 0.2097
H60 H 0.0241 0.1961 0.1176
C57 C -0.0760(6) 0.0365(7) 0.3099(6)
C58 C -0.1180(7) 0.0961(7) 0.3798(6)
H61 H -0.1648 0.1269 0.3597
H62 H -0.0686 0.1342 0.4124
H63 H -0.1475 0.0651 0.4117
C59 C 0.2735(7) 0.0453(6) 0.3768(6)
C60 C 0.2500(7) 0.1323(6) 0.3799(6)
H64 H 0.2744 0.1700 0.4309
H65 H 0.1822 0.1350 0.3738
H66 H 0.2783 0.1481 0.3370
C61 C 0.3678(7) 0.0416(6) 0.5793(6)
C62 C 0.4460(8) 0.1058(7) 0.6011(6)
H67 H 0.4238 0.1573 0.6337
H68 H 0.4692 0.1143 0.5530
H69 H 0.4965 0.0880 0.6311
C63 C 0.4032(7) -0.1679(6) 0.5965(6)
C64 C 0.4995(6) -0.1622(7) 0.6359(7)
H70 H 0.5235 -0.1047 0.6534
H71 H 0.5404 -0.1946 0.5983
H72 H 0.4975 -0.1835 0.6818
O13 O 0.3919(6) -0.4718(5) 0.4762(5)
O14 O 0.6801(7) -0.2804(6) 0.4425(6)
O15 O 0.5515(7) -0.5306(6) 0.2214(5)
O16 O 0.6398(7) -0.2840(8) 0.1161(6)
O17 O 0.6144(9) -0.1089(8) 0.1003(7)
O18 O 0.3883(7) -0.0801(5) 0.0063(5)
O19 O 0.0359(5) -0.0909(5) 0.0000(4)
O20 O 0.1916(6) 0.1478(4) 0.2014(5)
O21 O -0.1149(4) -0.0124(6) 0.2535(5)
O22 O 0.3298(5) 0.0048(4) 0.3396(4)
O23 O 0.3059(6) 0.0322(6) 0.6161(5)
O24 O 0.3318(4) -0.1764(4) 0.6233(4)
O25 O 0.8958(19) -0.3168(18) -0.0019(18)
C65 C 0.798(2) -0.249(2) -0.0159(15)
H73 H 0.8113 -0.1980 -0.0294
H74 H 0.7387 -0.2469 0.0082
H75 H 0.7951 -0.2955 -0.0640
C66 C 0.8679(14) -0.2588(15) 0.0364(17)
C67 C 0.8976(10) -0.1962(11) 0.1008(11)
H76 H 0.9343 -0.2174 0.1385
H77 H 0.8437 -0.1698 0.1259
H78 H 0.9364 -0.1561 0.0848
O27 O 0.1729(15) -0.6123(14) 0.3243(15)
C68 C 0.3114(13) -0.5613(12) 0.2673(11)
H79 H 0.2740 -0.5277 0.2417
H80 H 0.3484 -0.5968 0.2283
H81 H 0.3531 -0.5254 0.3102
C69 C 0.2456(13) -0.6150(12) 0.3015(11)
C70 C 0.2995(13) -0.6717(12) 0.3331(12)
H82 H 0.3434 -0.6402 0.3768
H83 H 0.3340 -0.7059 0.2912
H84 H 0.2569 -0.7068 0.3523
O30 O 0.4271(19) -0.7274(17) 0.1609(17)
C71 C 0.5794(16) -0.7531(15) 0.1663(15)
H85 H 0.5699 -0.7621 0.2177
H86 H 0.6266 -0.7081 0.1733
H87 H 0.6004 -0.8032 0.1304
C72 C 0.5022(11) -0.7346(10) 0.1368(10)
C73 C 0.5065(16) -0.7196(14) 0.0614(13)
H88 H 0.4959 -0.6619 0.0668
H89 H 0.4585 -0.7546 0.0238
H90 H 0.5681 -0.7320 0.0421
O31 O 0.2112(19) -0.4013(17) 0.6888(13)
C74 C 0.075(3) -0.376(3) 0.675(2)
H91 H 0.0605 -0.4353 0.6587
H92 H 0.0568 -0.3536 0.6312
H93 H 0.0393 -0.3503 0.7205
C75 C 0.1563(19) -0.361(2) 0.6935(13)
C76 C 0.187(3) -0.273(2) 0.7207(17)
H94 H 0.2532 -0.2662 0.7384
H95 H 0.1507 -0.2445 0.7646
H96 H 0.1763 -0.2485 0.6769
O32 O 0.1268(7) -0.3539(6) 0.2084(6)
C77 C 0.0766(16) -0.4551(14) 0.0964(13)
H97 H 0.1282 -0.4316 0.0747
H98 H 0.0183 -0.4542 0.0649
H99 H 0.0883 -0.5119 0.0947
C78 C 0.0688(10) -0.4062(9) 0.1797(8)
C79 C -0.0248(17) -0.4110(17) 0.2083(16)
H100 H -0.0313 -0.4591 0.2278
H101 H -0.0723 -0.4157 0.1647
H102 H -0.0329 -0.3613 0.2512
O26? O 0.897(2) -0.327(2) 0.048(2)
O28? O 0.1698(18) -0.6005(16) 0.2821(18)
O29? O 0.4734(15) -0.7432(13) 0.1936(14)
loop_
_geom_bond_atom_site_label_1
_geom_bond_atom_site_label_2
_geom_bond_site_symmetry_1
_geom_bond_site_symmetry_2
C1 C2 1_555 1_555
C2 H1 1_555 1_555
C3 C2 1_555 1_555
C4 C3 1_555 1_555
C5 C4 1_555 1_555
C6 C1 1_555 1_555
C7 C3 1_555 1_555
H2 C7 1_555 1_555
C8 C7 1_555 1_555
C9 C8 1_555 1_555
H3 C9 1_555 1_555
C10 C9 1_555 1_555
C11 C10 1_555 1_555
C12 C11 1_555 1_555
C13 C8 1_555 1_555
C14 C10 1_555 1_555
H4 C14 1_555 1_555
C15 C14 1_555 1_555
C16 C15 1_555 1_555
H5 C16 1_555 1_555
C17 C16 1_555 1_555
C18 C17 1_555 1_555
C19 C18 1_555 1_555
C20 C15 1_555 1_555
C21 C17 1_555 1_555
H6 C21 1_555 1_555
C22 C21 1_555 1_555
C23 C22 1_555 1_555
H7 C23 1_555 1_555
C24 C23 1_555 1_555
C25 C24 1_555 1_555
C26 C25 1_555 1_555
C27 C22 1_555 1_555
C28 C1 1_555 1_555
H8 C28 1_555 1_555
C29 C7 1_555 1_555
H9 C29 1_555 1_555
H10 C29 1_555 1_555
C30 C29 1_555 1_555
H11 C30 1_555 1_555
H12 C30 1_555 1_555
C31 C30 1_555 1_555
H13 C31 1_555 1_555
H14 C31 1_555 1_555
H15 C31 1_555 1_555
C32 C14 1_555 1_555
H16 C32 1_555 1_555
H17 C32 1_555 1_555
C33 C32 1_555 1_555
H18 C33 1_555 1_555
H19 C33 1_555 1_555
C34 C33 1_555 1_555
H20 C34 1_555 1_555
H21 C34 1_555 1_555
H22 C34 1_555 1_555
C35 C21 1_555 1_555
H23 C35 1_555 1_555
H24 C35 1_555 1_555
C36 C35 1_555 1_555
H25 C36 1_555 1_555
H26 C36 1_555 1_555
C37 C36 1_555 1_555
H27 C37 1_555 1_555
H28 C37 1_555 1_555
H29 C37 1_555 1_555
C38 C28 1_555 1_555
H30 C38 1_555 1_555
H31 C38 1_555 1_555
C39 C38 1_555 1_555
H32 C39 1_555 1_555
H33 C39 1_555 1_555
C40 C39 1_555 1_555
H34 C40 1_555 1_555
H35 C40 1_555 1_555
H36 C40 1_555 1_555
O1 C4 1_555 1_555
O2 C5 1_555 1_555
O3 C6 1_555 1_555
O4 C11 1_555 1_555
O5 C12 1_555 1_555
O6 C13 1_555 1_555
O7 C18 1_555 1_555
O8 C19 1_555 1_555
O9 C20 1_555 1_555
O10 C25 1_555 1_555
O11 C26 1_555 1_555
O12 C27 1_555 1_555
C41 O3 1_555 1_555
C42 C41 1_555 1_555
H37 C42 1_555 1_555
H38 C42 1_555 1_555
H39 C42 1_555 1_555
C43 O2 1_555 1_555
C44 C43 1_555 1_555
H40 C44 1_555 1_555
H41 C44 1_555 1_555
H42 C44 1_555 1_555
C45 O1 1_555 1_555
C46 C45 1_555 1_555
H43 C46 1_555 1_555
H44 C46 1_555 1_555
H45 C46 1_555 1_555
C47 O6 1_555 1_555
C48 C47 1_555 1_555
H46 C48 1_555 1_555
H47 C48 1_555 1_555
H48 C48 1_555 1_555
C49 O5 1_555 1_555
C50 C49 1_555 1_555
H49 C50 1_555 1_555
H50 C50 1_555 1_555
H51 C50 1_555 1_555
C51 O4 1_555 1_555
C52 C51 1_555 1_555
H52 C52 1_555 1_555
H53 C52 1_555 1_555
H54 C52 1_555 1_555
C53 O9 1_555 1_555
C54 C53 1_555 1_555
H55 C54 1_555 1_555
H56 C54 1_555 1_555
H57 C54 1_555 1_555
C55 O8 1_555 1_555
C56 C55 1_555 1_555
H58 C56 1_555 1_555
H59 C56 1_555 1_555
H60 C56 1_555 1_555
C57 O7 1_555 1_555
C58 C57 1_555 1_555
H61 C58 1_555 1_555
H62 C58 1_555 1_555
H63 C58 1_555 1_555
C59 O12 1_555 1_555
C60 C59 1_555 1_555
H64 C60 1_555 1_555
H65 C60 1_555 1_555
H66 C60 1_555 1_555
C61 O11 1_555 1_555
C62 C61 1_555 1_555
H67 C62 1_555 1_555
H68 C62 1_555 1_555
H69 C62 1_555 1_555
C63 O10 1_555 1_555
C64 C63 1_555 1_555
H70 C64 1_555 1_555
H71 C64 1_555 1_555
H72 C64 1_555 1_555
O13 C41 1_555 1_555
O14 C43 1_555 1_555
O15 C45 1_555 1_555
O16 C47 1_555 1_555
O17 C49 1_555 1_555
O18 C51 1_555 1_555
O19 C53 1_555 1_555
O20 C55 1_555 1_555
O21 C57 1_555 1_555
O22 C59 1_555 1_555
O23 C61 1_555 1_555
O24 C63 1_555 1_555
O25 C66 1_555 1_555
C65 H73 1_555 1_555
H74 C65 1_555 1_555
H75 C65 1_555 1_555
C66 C65 1_555 1_555
C67 C66 1_555 1_555
H76 C67 1_555 1_555
H77 C67 1_555 1_555
H78 C67 1_555 1_555
O27 C69 1_555 1_555
C68 H79 1_555 1_555
H80 C68 1_555 1_555
H81 C68 1_555 1_555
C69 C68 1_555 1_555
C70 C69 1_555 1_555
H82 C70 1_555 1_555
H83 C70 1_555 1_555
H84 C70 1_555 1_555
O30 C72 1_555 1_555
C71 H85 1_555 1_555
H86 C71 1_555 1_555
H87 C71 1_555 1_555
C72 C71 1_555 1_555
C73 C72 1_555 1_555
H88 C73 1_555 1_555
H89 C73 1_555 1_555
H90 C73 1_555 1_555
O31 C75 1_555 1_555
C74 H91 1_555 1_555
H92 C74 1_555 1_555
H93 C74 1_555 1_555
C75 C74 1_555 1_555
C76 C75 1_555 1_555
H94 C76 1_555 1_555
H95 C76 1_555 1_555
H96 C76 1_555 1_555
O32 C78 1_555 1_555
C77 H97 1_555 1_555
H98 C77 1_555 1_555
H99 C77 1_555 1_555
C78 C77 1_555 1_555
C79 C78 1_555 1_555
H100 C79 1_555 1_555
H101 C79 1_555 1_555
H102 C79 1_555 1_555
C5 C6 1_555 1_555
C12 C13 1_555 1_555
C19 C20 1_555 1_555
C24 C28 1_555 1_555
C26 C27 1_555 1_555

#END
