
#######################################################################
#
#                 Cambridge Crystallographic Data Centre
#                                CCDC 
#
#######################################################################
#
# If this CIF has been generated from an entry in the Cambridge 
# Structural Database, then it will include bibliographic, chemical, 
# crystal, experimental, refinement or atomic coordinate data resulting 
# from the CCDC's data processing and validation procedures.
#
#######################################################################

data_DASNOD
_chemical_compound_source        'branches of Trichilia connaroides'
_chemical_name_common            'Triconoid A methanol solvate'
_chemical_formula_moiety         'C33 H33 N1 O10,C1 H4 O1'
_chemical_name_systematic        
'6-(3-furyl)-16-(methoxycarbonyl)-1,5,15-trimethyl-8,18,20-trioxo-7,17-dioxapentacyclo[11.6.1.0^2,11^.0^5,10^.0^15,19^]icos-11-en-14-yl nicotinate methanol solvate'
_symmetry_cell_setting           orthorhombic
_symmetry_space_group_name_H-M   'P 21 21 21'
_symmetry_Int_Tables_number      19
_space_group_name_Hall           'P 2ac 2ab'
loop_
_symmetry_equiv_pos_site_id
_symmetry_equiv_pos_as_xyz
1 x,y,z
2 1/2+x,1/2-y,-z
3 -x,1/2+y,1/2-z
4 1/2-x,-y,1/2+z
_cell_length_a                   8.2479(3)
_cell_length_b                   13.1646(4)
_cell_length_c                   28.6827(9)
_cell_angle_alpha                90
_cell_angle_beta                 90
_cell_angle_gamma                90
_cell_volume                     3114.38
_exptl_crystal_colour            colorless
_chemical_melting_point          '146-148 deg.C'
_cell_formula_units_Z            4
_exptl_crystal_recrystallization_method methanol
loop_
_atom_site_label
_atom_site_type_symbol
_atom_site_fract_x
_atom_site_fract_y
_atom_site_fract_z
N1 N 0.9728(5) 0.5410(4) 0.27093(17)
O1 O 0.4739(4) 0.14162(19) 0.04474(9)
O2 O -0.0071(3) 0.3387(2) 0.13096(9)
O3 O 0.1438(3) 0.3117(2) 0.19412(8)
O4 O 0.3342(4) 0.4796(2) 0.19805(9)
O5 O 0.4496(4) 0.4084(3) 0.26027(10)
O6 O 0.6360(2) 0.35737(15) 0.16772(7)
O7 O 0.7487(4) 0.2724(2) 0.22754(9)
O8 O 0.6166(3) 0.6451(2) 0.08728(10)
O9 O 0.8758(4) 0.6146(3) 0.08082(13)
O10 O 0.2766(9) 0.8729(4) 0.1091(2)
C1 C 0.4566(4) 0.2152(2) 0.06983(10)
C2 C 0.5973(4) 0.2630(2) 0.09615(10)
H1 H 0.6953 0.2232 0.0898
C3 C 0.5679(4) 0.2639(2) 0.15009(10)
H2 H 0.6250 0.2063 0.1642
C4 C 0.3858(4) 0.2545(2) 0.16034(10)
C5 C 0.2881(3) 0.3148(2) 0.12441(10)
H3 H 0.3337 0.3836 0.1245
C6 C 0.1242(4) 0.3232(3) 0.14714(12)
C7 C 0.3757(4) 0.4014(3) 0.22452(11)
C8 C 0.5053(4) 0.4107(2) 0.04665(10)
C9 C 0.3349(4) 0.3696(2) 0.04045(10)
H4 H 0.3272 0.3447 0.0083
C10 C 0.3009(4) 0.2764(2) 0.07319(10)
C11 C 0.2064(4) 0.4536(2) 0.04588(11)
H5 H 0.1024 0.4277 0.0354
H6 H 0.1963 0.4709 0.0786
C12 C 0.2471(4) 0.5492(3) 0.01844(12)
H7 H 0.1698 0.6017 0.0267
H8 H 0.2335 0.5348 -0.0145
C13 C 0.4198(4) 0.5909(2) 0.02625(11)
C14 C 0.5406(4) 0.5035(2) 0.01643(11)
H9 H 0.5256 0.4830 -0.0161
C15 C 0.7121(5) 0.5434(3) 0.02104(13)
H10 H 0.7867 0.4865 0.0196
H11 H 0.7351 0.5872 -0.0053
C16 C 0.7425(4) 0.6009(3) 0.06465(14)
C17 C 0.4468(4) 0.6231(2) 0.07681(12)
H12 H 0.4130 0.5665 0.0968
C18 C 0.4435(5) 0.6796(3) -0.00796(14)
H13 H 0.4255 0.6562 -0.0392
H14 H 0.3679 0.7327 -0.0008
H15 H 0.5521 0.7052 -0.0052
C19 C 0.1555(5) 0.2149(3) 0.05585(13)
H16 H 0.0589 0.2552 0.0583
H17 H 0.1724 0.1961 0.0239
H18 H 0.1441 0.1547 0.0745
C20 C 0.3555(5) 0.7162(3) 0.09239(15)
C21 C 0.4048(10) 0.8161(4) 0.0919(3)
H19 H 0.5048 0.8407 0.0820
C22 C 0.2038(7) 0.7191(5) 0.10943(19)
H20 H 0.1394 0.6614 0.1118
C23 C 0.1532(7) 0.8085(4) 0.1223(2)
H21 H 0.0563 0.8251 0.1370
C24 C 0.3438(5) 0.1405(3) 0.16036(13)
H22 H 0.4081 0.1062 0.1834
H23 H 0.2309 0.1318 0.1675
H24 H 0.3662 0.1122 0.1302
C25 C 0.3136(4) 0.3002(3) 0.20567(11)
H25 H 0.3229 0.2494 0.2305
C26 C 0.6168(4) 0.3671(2) 0.07367(10)
H26 H 0.7125 0.4024 0.0791
C27 C 0.3795(7) 0.5793(4) 0.2149(2)
H27 H 0.3437 0.6300 0.1932
H28 H 0.3296 0.5911 0.2447
H29 H 0.4952 0.5829 0.2181
C28 C 0.7322(4) 0.3493(3) 0.20577(11)
C29 C 0.8116(4) 0.4467(3) 0.21698(12)
C30 C 0.8956(5) 0.4554(4) 0.25830(15)
H30 H 0.8990 0.3997 0.2783
C31 C 0.9677(6) 0.6187(4) 0.2420(2)
H31 H 1.0215 0.6779 0.2506
C32 C 0.8876(7) 0.6173(4) 0.20000(19)
H32 H 0.8872 0.6741 0.1807
C33 C 0.8074(5) 0.5292(3) 0.18699(14)
H33 H 0.7521 0.5256 0.1588
C34 C 0.7776(12) -0.0160(6) 0.1308(3)
H34 H 0.8401 -0.0774 0.1286
H35 H 0.7211 -0.0048 0.1020
H36 H 0.7005 -0.0222 0.1557
O11 O 0.8773(11) 0.0630(6) 0.1393(2)
H37 H 0.9508 0.0447 0.1566
loop_
_geom_bond_atom_site_label_1
_geom_bond_atom_site_label_2
_geom_bond_site_symmetry_1
_geom_bond_site_symmetry_2
N1 C30 1_555 1_555
O1 C1 1_555 1_555
O2 C6 1_555 1_555
O3 C6 1_555 1_555
O4 C7 1_555 1_555
O5 C7 1_555 1_555
O6 C3 1_555 1_555
O7 C28 1_555 1_555
O8 C16 1_555 1_555
O9 C16 1_555 1_555
O10 C21 1_555 1_555
C1 C2 1_555 1_555
C2 H1 1_555 1_555
C3 C2 1_555 1_555
H2 C3 1_555 1_555
C4 C3 1_555 1_555
C5 C4 1_555 1_555
H3 C5 1_555 1_555
C6 C5 1_555 1_555
C7 C25 1_555 1_555
C8 C9 1_555 1_555
C9 H4 1_555 1_555
C10 C1 1_555 1_555
C11 C9 1_555 1_555
H5 C11 1_555 1_555
H6 C11 1_555 1_555
C12 C11 1_555 1_555
H7 C12 1_555 1_555
H8 C12 1_555 1_555
C13 C12 1_555 1_555
C14 C8 1_555 1_555
H9 C14 1_555 1_555
C15 C14 1_555 1_555
H10 C15 1_555 1_555
H11 C15 1_555 1_555
C16 C15 1_555 1_555
C17 O8 1_555 1_555
H12 C17 1_555 1_555
C18 C13 1_555 1_555
H13 C18 1_555 1_555
H14 C18 1_555 1_555
H15 C18 1_555 1_555
C19 C10 1_555 1_555
H16 C19 1_555 1_555
H17 C19 1_555 1_555
H18 C19 1_555 1_555
C20 C17 1_555 1_555
C21 C20 1_555 1_555
H19 C21 1_555 1_555
C22 C20 1_555 1_555
H20 C22 1_555 1_555
C23 O10 1_555 1_555
H21 C23 1_555 1_555
C24 C4 1_555 1_555
H22 C24 1_555 1_555
H23 C24 1_555 1_555
H24 C24 1_555 1_555
C25 O3 1_555 1_555
H25 C25 1_555 1_555
C26 C2 1_555 1_555
H26 C26 1_555 1_555
C27 O4 1_555 1_555
H27 C27 1_555 1_555
H28 C27 1_555 1_555
H29 C27 1_555 1_555
C28 O6 1_555 1_555
C29 C28 1_555 1_555
C30 C29 1_555 1_555
H30 C30 1_555 1_555
C31 N1 1_555 1_555
H31 C31 1_555 1_555
C32 C31 1_555 1_555
H32 C32 1_555 1_555
C33 C29 1_555 1_555
H33 C33 1_555 1_555
C34 H34 1_555 1_555
H35 C34 1_555 1_555
H36 C34 1_555 1_555
O11 C34 1_555 1_555
H37 O11 1_555 1_555
C4 C25 1_555 1_555
C5 C10 1_555 1_555
C8 C26 1_555 1_555
C9 C10 1_555 1_555
C13 C14 1_555 1_555
C13 C17 1_555 1_555
C22 C23 1_555 1_555
C32 C33 1_555 1_555

#END
