
#######################################################################
#
#                 Cambridge Crystallographic Data Centre
#                                CCDC 
#
#######################################################################
#
# If this CIF has been generated from an entry in the Cambridge 
# Structural Database, then it will include bibliographic, chemical, 
# crystal, experimental, refinement or atomic coordinate data resulting 
# from the CCDC's data processing and validation procedures.
#
#######################################################################

data_DASPIZ
_chemical_formula_moiety         'C10 H14 N1 O1 1+,Cl1 1-'
_chemical_name_systematic        
'1-hydroxy-1,2,3,4-tetrahydronaphthalen-2-aminium chloride'
_symmetry_cell_setting           orthorhombic
_symmetry_space_group_name_H-M   'P 21 21 21'
_symmetry_Int_Tables_number      19
_space_group_name_Hall           'P 2ac 2ab'
loop_
_symmetry_equiv_pos_site_id
_symmetry_equiv_pos_as_xyz
1 x,y,z
2 1/2-x,-y,1/2+z
3 -x,1/2+y,1/2-z
4 1/2+x,1/2-y,-z
_cell_length_a                   4.7337(2)
_cell_length_b                   6.2908(2)
_cell_length_c                   33.7597(12)
_cell_angle_alpha                90
_cell_angle_beta                 90
_cell_angle_gamma                90
_cell_volume                     1005.32
_exptl_crystal_colour            colorless
_exptl_crystal_description       block
_cell_formula_units_Z            4
loop_
_atom_site_label
_atom_site_type_symbol
_atom_site_fract_x
_atom_site_fract_y
_atom_site_fract_z
Cl1 Cl 0.2695(3) 0.03528(16) 0.27143(3)
O1 O 0.6884(7) 0.2863(5) 0.32600(10)
H1 H 0.6265 0.1891 0.3123
N1 N 0.2316(10) 0.5491(6) 0.29292(11)
H2 H 0.3526 0.4834 0.2769
H3 H 0.1835 0.6738 0.2825
H4 H 0.0779 0.4693 0.2959
C1 C 0.3679(9) 0.5840(7) 0.33246(13)
H5 H 0.5328 0.6762 0.3288
C2 C 0.5676(10) 0.3982(8) 0.39177(14)
C3 C 0.4666(10) 0.3733(8) 0.34914(14)
H6 H 0.3072 0.2739 0.3488
C4 C 0.4892(11) 0.5698(9) 0.41481(15)
C5 C 0.1630(10) 0.6934(8) 0.36007(15)
H7 H 0.0015 0.6017 0.3647
H8 H 0.0955 0.8235 0.3479
C6 C 0.7472(13) 0.2439(8) 0.40709(15)
H9 H 0.7982 0.1286 0.3914
C7 C 0.3042(14) 0.7447(9) 0.39916(17)
H10 H 0.4178 0.8719 0.3959
H11 H 0.1593 0.7757 0.4186
C8 C 0.5962(14) 0.5824(12) 0.45354(17)
H12 H 0.5470 0.6970 0.4695
C9 C 0.8511(14) 0.2590(12) 0.44522(18)
H13 H 0.9727 0.1558 0.4551
C10 C 0.7727(16) 0.4277(12) 0.46817(16)
H14 H 0.8395 0.4380 0.4940
loop_
_geom_bond_atom_site_label_1
_geom_bond_atom_site_label_2
_geom_bond_site_symmetry_1
_geom_bond_site_symmetry_2
O1 H1 1_555 1_555
N1 H2 1_555 1_555
H3 N1 1_555 1_555
H4 N1 1_555 1_555
C1 N1 1_555 1_555
H5 C1 1_555 1_555
C2 C3 1_555 1_555
C3 O1 1_555 1_555
H6 C3 1_555 1_555
C4 C2 1_555 1_555
C5 C1 1_555 1_555
H7 C5 1_555 1_555
H8 C5 1_555 1_555
C6 C2 1_555 1_555
H9 C6 1_555 1_555
C7 C4 1_555 1_555
H10 C7 1_555 1_555
H11 C7 1_555 1_555
C8 C4 1_555 1_555
H12 C8 1_555 1_555
C9 C6 1_555 1_555
H13 C9 1_555 1_555
C10 C8 1_555 1_555
H14 C10 1_555 1_555
C1 C3 1_555 1_555
C5 C7 1_555 1_555
C9 C10 1_555 1_555

#END
