
#######################################################################
#
#                 Cambridge Crystallographic Data Centre
#                                CCDC 
#
#######################################################################
#
# If this CIF has been generated from an entry in the Cambridge 
# Structural Database, then it will include bibliographic, chemical, 
# crystal, experimental, refinement or atomic coordinate data resulting 
# from the CCDC's data processing and validation procedures.
#
#######################################################################

data_DATGUD
_chemical_formula_moiety         'C26 H34 O4 Si1'
_chemical_name_systematic        
'benzyl 2-[t-butyl(dimethyl)silyl]-2-hydroxy-3-methyl-6-oxo-6-phenylhex-4-enoate'
_symmetry_cell_setting           orthorhombic
_symmetry_space_group_name_H-M   'P 21 21 21'
_symmetry_Int_Tables_number      19
_space_group_name_Hall           'P 2ac 2ab'
loop_
_symmetry_equiv_pos_site_id
_symmetry_equiv_pos_as_xyz
1 x,y,z
2 1/2-x,-y,1/2+z
3 -x,1/2+y,1/2-z
4 1/2+x,1/2-y,-z
_cell_length_a                   9.4700(19)
_cell_length_b                   15.075(3)
_cell_length_c                   17.824(4)
_cell_angle_alpha                90
_cell_angle_beta                 90
_cell_angle_gamma                90
_cell_volume                     2544.56
_exptl_crystal_colour            colorless
_exptl_crystal_description       block
_cell_formula_units_Z            4
loop_
_atom_site_label
_atom_site_type_symbol
_atom_site_fract_x
_atom_site_fract_y
_atom_site_fract_z
Si1 Si 0.41940(5) 0.25523(3) 0.18762(3)
O1 O 0.9154(2) 0.15993(11) 0.23941(9)
O2 O 0.57778(15) 0.40389(9) 0.16834(8)
H1 H 0.6126 0.4507 0.1826
O3 O 0.30555(14) 0.40399(8) 0.30663(8)
O4 O 0.36656(17) 0.49985(9) 0.21624(9)
C1 C 0.92616(19) 0.09960(12) 0.36108(12)
C2 C 1.0467(2) 0.05152(15) 0.34350(15)
H2 H 1.0847 0.0552 0.2955
C3 C 1.1105(2) -0.00149(17) 0.39628(17)
H3 H 1.1908 -0.0338 0.3838
C4 C 1.0565(3) -0.00671(19) 0.46643(18)
H4 H 1.1016 -0.0414 0.5023
C5 C 0.9357(3) 0.0387(2) 0.48527(16)
H5 H 0.8982 0.0340 0.5333
C6 C 0.8708(3) 0.09132(16) 0.43236(14)
H6 H 0.7886 0.1217 0.4448
C7 C 0.8645(2) 0.15864(13) 0.30199(12)
C8 C 0.7439(2) 0.21646(13) 0.32162(12)
H7 H 0.6890 0.2028 0.3633
C9 C 0.7124(2) 0.28728(12) 0.28102(12)
H8 H 0.7676 0.2987 0.2389
C10 C 0.5942(2) 0.35058(12) 0.29792(10)
H9 H 0.5367 0.3255 0.3384
C11 C 0.6585(3) 0.43850(15) 0.32550(16)
H10 H 0.7106 0.4282 0.3709
H11 H 0.5842 0.4804 0.3351
H12 H 0.7206 0.4618 0.2878
C12 C 0.49814(19) 0.36503(11) 0.22810(10)
C13 C 0.38414(19) 0.43052(11) 0.24865(10)
C14 C 0.1918(3) 0.46407(15) 0.32667(14)
H13 H 0.1289 0.4717 0.2842
H14 H 0.2304 0.5216 0.3397
C15 C 0.1119(2) 0.42720(16) 0.39173(12)
C16 C 0.1073(4) 0.3392(2) 0.40982(16)
H15 H 0.1585 0.2982 0.3820
C17 C 0.0251(4) 0.3112(3) 0.4705(2)
H16 H 0.0222 0.2516 0.4836
C18 C -0.0515(3) 0.3727(4) 0.51052(19)
H17 H -0.1095 0.3542 0.5496
C19 C -0.0428(4) 0.4606(5) 0.4930(2)
H18 H -0.0913 0.5021 0.5218
C20 C 0.0359(3) 0.4877(3) 0.43414(16)
H19 H 0.0391 0.5476 0.4219
C21 C 0.3600(3) 0.18423(13) 0.26694(14)
H20 H 0.3308 0.1275 0.2481
H21 H 0.2821 0.2122 0.2920
H22 H 0.4365 0.1764 0.3017
C22 C 0.5642(3) 0.19865(18) 0.13528(14)
H23 H 0.6286 0.1720 0.1703
H24 H 0.6137 0.2413 0.1051
H25 H 0.5248 0.1535 0.1035
C23 C 0.2663(2) 0.27691(15) 0.12061(14)
C24 C 0.2150(4) 0.1857(2) 0.0927(2)
H26 H 0.1933 0.1487 0.1349
H27 H 0.2879 0.1584 0.0632
H28 H 0.1320 0.1933 0.0624
C25 C 0.3137(4) 0.3346(3) 0.05512(18)
H29 H 0.2340 0.3481 0.0239
H30 H 0.3834 0.3034 0.0263
H31 H 0.3536 0.3888 0.0740
C26 C 0.1394(3) 0.31967(19) 0.1588(2)
H32 H 0.1614 0.3801 0.1713
H33 H 0.1170 0.2875 0.2038
H34 H 0.0598 0.3184 0.1255
loop_
_geom_bond_atom_site_label_1
_geom_bond_atom_site_label_2
_geom_bond_site_symmetry_1
_geom_bond_site_symmetry_2
Si1 C12 1_555 1_555
O1 C7 1_555 1_555
O2 H1 1_555 1_555
O3 C13 1_555 1_555
O4 C13 1_555 1_555
C1 C2 1_555 1_555
C2 H2 1_555 1_555
C3 C2 1_555 1_555
H3 C3 1_555 1_555
C4 C3 1_555 1_555
H4 C4 1_555 1_555
C5 C4 1_555 1_555
H5 C5 1_555 1_555
C6 C1 1_555 1_555
H6 C6 1_555 1_555
C7 C1 1_555 1_555
C8 C7 1_555 1_555
H7 C8 1_555 1_555
C9 C8 1_555 1_555
H8 C9 1_555 1_555
C10 C9 1_555 1_555
H9 C10 1_555 1_555
C11 C10 1_555 1_555
H10 C11 1_555 1_555
H11 C11 1_555 1_555
H12 C11 1_555 1_555
C12 O2 1_555 1_555
C13 C12 1_555 1_555
C14 O3 1_555 1_555
H13 C14 1_555 1_555
H14 C14 1_555 1_555
C15 C14 1_555 1_555
C16 C15 1_555 1_555
H15 C16 1_555 1_555
C17 C16 1_555 1_555
H16 C17 1_555 1_555
C18 C17 1_555 1_555
H17 C18 1_555 1_555
C19 C18 1_555 1_555
H18 C19 1_555 1_555
C20 C15 1_555 1_555
H19 C20 1_555 1_555
C21 Si1 1_555 1_555
H20 C21 1_555 1_555
H21 C21 1_555 1_555
H22 C21 1_555 1_555
C22 Si1 1_555 1_555
H23 C22 1_555 1_555
H24 C22 1_555 1_555
H25 C22 1_555 1_555
C23 Si1 1_555 1_555
C24 C23 1_555 1_555
H26 C24 1_555 1_555
H27 C24 1_555 1_555
H28 C24 1_555 1_555
C25 C23 1_555 1_555
H29 C25 1_555 1_555
H30 C25 1_555 1_555
H31 C25 1_555 1_555
C26 C23 1_555 1_555
H32 C26 1_555 1_555
H33 C26 1_555 1_555
H34 C26 1_555 1_555
C5 C6 1_555 1_555
C10 C12 1_555 1_555
C19 C20 1_555 1_555

#END
