
#######################################################################
#
#                 Cambridge Crystallographic Data Centre
#                                CCDC 
#
#######################################################################
#
# If this CIF has been generated from an entry in the Cambridge 
# Structural Database, then it will include bibliographic, chemical, 
# crystal, experimental, refinement or atomic coordinate data resulting 
# from the CCDC's data processing and validation procedures.
#
#######################################################################

data_DATQOF
_chemical_formula_moiety         'C12 H8 Cl2 O2 S1,C12 H12 N2'
_chemical_name_systematic        
'bis(2-Hydroxy-5-chlorophenyl)sulfide 1,2-bis(4-pyridyl)ethane'
_symmetry_cell_setting           orthorhombic
_symmetry_space_group_name_H-M   'P n a 21'
_symmetry_Int_Tables_number      33
_space_group_name_Hall           'P 2c -2n'
loop_
_symmetry_equiv_pos_site_id
_symmetry_equiv_pos_as_xyz
1 x,y,z
2 -x,-y,1/2+z
3 1/2+x,1/2-y,z
4 1/2-x,1/2+y,1/2+z
_cell_length_a                   23.188(5)
_cell_length_b                   12.378(3)
_cell_length_c                   7.9602(16)
_cell_angle_alpha                90
_cell_angle_beta                 90
_cell_angle_gamma                90
_cell_volume                     2284.75
_exptl_crystal_colour            'light yellow'
_exptl_crystal_description       prism
_cell_formula_units_Z            4
_exptl_crystal_recrystallization_method ethanol
loop_
_atom_site_label
_atom_site_type_symbol
_atom_site_fract_x
_atom_site_fract_y
_atom_site_fract_z
Cl1 Cl 0.55904(6) 0.65732(10) 0.1153(2)
Cl2 Cl 0.55578(5) 1.13013(9) 0.25919(16)
S1 S 0.36117(4) 0.88047(9) 0.2599(2)
O1 O 0.34299(11) 0.7099(2) 0.4909(4)
H1 H 0.3380 0.6605 0.5580
O2 O 0.32784(11) 1.0198(2) -0.0157(4)
H2 H 0.3182 1.0624 -0.0895
C1 C 0.39297(16) 0.6949(3) 0.4092(5)
C2 C 0.42863(18) 0.6075(3) 0.4365(5)
H3 H 0.4183 0.5561 0.5162
C3 C 0.47972(19) 0.5946(3) 0.3474(6)
H4 H 0.5037 0.5360 0.3692
C4 C 0.49449(18) 0.6689(3) 0.2269(5)
C5 C 0.45927(17) 0.7570(3) 0.1955(5)
H5 H 0.4693 0.8066 0.1127
C6 C 0.40898(16) 0.7713(3) 0.2877(5)
C7 C 0.40320(16) 0.9850(3) 0.1743(5)
C8 C 0.45721(15) 1.0122(3) 0.2423(5)
H6 H 0.4730 0.9705 0.3278
C9 C 0.48660(17) 1.1006(3) 0.1825(5)
C10 C 0.46271(18) 1.1652(3) 0.0593(5)
H7 H 0.4825 1.2256 0.0208
C11 C 0.40899(18) 1.1396(3) -0.0071(5)
H8 H 0.3926 1.1844 -0.0878
C12 C 0.37957(16) 1.0483(3) 0.0455(5)
N1 N 0.17007(14) 1.0753(3) 0.2532(5)
N2 N 0.19619(15) 0.6284(3) 1.1967(4)
C13 C 0.13144(19) 1.0872(4) 0.3740(6)
H9 H 0.1016 1.1362 0.3572
C14 C 0.1331(2) 1.0311(3) 0.5228(6)
H10 H 0.1048 1.0431 0.6037
C15 C 0.1762(2) 0.9575(3) 0.5529(5)
C16 C 0.21649(19) 0.9456(4) 0.4283(6)
H11 H 0.2467 0.8970 0.4421
C17 C 0.21243(19) 1.0055(4) 0.2826(6)
H12 H 0.2407 0.9965 0.2009
C18 C 0.1787(3) 0.8989(4) 0.7196(6)
H13 H 0.1918 0.9499 0.8038
H14 H 0.1397 0.8781 0.7495
C19 C 0.21504(19) 0.8029(4) 0.7309(5)
H15 H 0.2550 0.8242 0.7174
H16 H 0.2054 0.7545 0.6393
C20 C 0.20864(17) 0.7428(3) 0.8953(5)
C21 C 0.24749(19) 0.7511(3) 1.0218(6)
H17 H 0.2796 0.7955 1.0092
C22 C 0.23975(19) 0.6942(4) 1.1693(6)
H18 H 0.2669 0.7028 1.2542
C23 C 0.15847(19) 0.6198(3) 1.0736(6)
H19 H 0.1273 0.5735 1.0885
C24 C 0.16244(19) 0.6757(3) 0.9235(5)
H20 H 0.1340 0.6679 0.8421
loop_
_geom_bond_atom_site_label_1
_geom_bond_atom_site_label_2
_geom_bond_site_symmetry_1
_geom_bond_site_symmetry_2
Cl1 C4 1_555 1_555
Cl2 C9 1_555 1_555
S1 C6 1_555 1_555
O1 H1 1_555 1_555
O2 H2 1_555 1_555
N1 C13 1_555 1_555
N2 C22 1_555 1_555
C1 O1 1_555 1_555
C2 C1 1_555 1_555
H3 C2 1_555 1_555
C3 C2 1_555 1_555
H4 C3 1_555 1_555
C4 C3 1_555 1_555
C5 C4 1_555 1_555
H5 C5 1_555 1_555
C6 C1 1_555 1_555
C7 S1 1_555 1_555
C8 C7 1_555 1_555
H6 C8 1_555 1_555
C9 C8 1_555 1_555
C10 C9 1_555 1_555
H7 C10 1_555 1_555
C11 C10 1_555 1_555
H8 C11 1_555 1_555
C12 O2 1_555 1_555
C13 H9 1_555 1_555
C14 C13 1_555 1_555
H10 C14 1_555 1_555
C15 C14 1_555 1_555
C16 C15 1_555 1_555
H11 C16 1_555 1_555
C17 N1 1_555 1_555
H12 C17 1_555 1_555
C18 C15 1_555 1_555
H13 C18 1_555 1_555
H14 C18 1_555 1_555
C19 C18 1_555 1_555
H15 C19 1_555 1_555
H16 C19 1_555 1_555
C20 C19 1_555 1_555
C21 C20 1_555 1_555
H17 C21 1_555 1_555
C22 C21 1_555 1_555
H18 C22 1_555 1_555
C23 N2 1_555 1_555
H19 C23 1_555 1_555
C24 C20 1_555 1_555
H20 C24 1_555 1_555
C5 C6 1_555 1_555
C7 C12 1_555 1_555
C11 C12 1_555 1_555
C16 C17 1_555 1_555
C23 C24 1_555 1_555

#END
