
#######################################################################
#
#                 Cambridge Crystallographic Data Centre
#                                CCDC 
#
#######################################################################
#
# If this CIF has been generated from an entry in the Cambridge 
# Structural Database, then it will include bibliographic, chemical, 
# crystal, experimental, refinement or atomic coordinate data resulting 
# from the CCDC's data processing and validation procedures.
#
#######################################################################

data_DATQUL
_chemical_formula_moiety         'C12 H8 Cl2 O2 S1,C10 H8 N2 O2'
_chemical_name_systematic        
"bis(2-Hydroxy-5-chlorophenyl)sulfide 4,4'-bipyridine N,N'-dioxide"
_symmetry_cell_setting           triclinic
_symmetry_space_group_name_H-M   'P -1'
_symmetry_Int_Tables_number      2
_space_group_name_Hall           '-P 1'
loop_
_symmetry_equiv_pos_site_id
_symmetry_equiv_pos_as_xyz
1 x,y,z
2 -x,-y,-z
_cell_length_a                   7.6461(15)
_cell_length_b                   9.5667(19)
_cell_length_c                   14.891(3)
_cell_angle_alpha                85.90(3)
_cell_angle_beta                 89.07(3)
_cell_angle_gamma                70.81(3)
_cell_volume                     1026.06
_exptl_crystal_colour            'light yellow'
_exptl_crystal_description       prism
_cell_formula_units_Z            2
_exptl_crystal_recrystallization_method ethanol
loop_
_atom_site_label
_atom_site_type_symbol
_atom_site_fract_x
_atom_site_fract_y
_atom_site_fract_z
S1 S 0.82230(6) 0.51578(5) 0.29207(3)
Cl1 Cl 0.16160(6) 0.60965(5) 0.45624(3)
Cl2 Cl 1.09211(8) 0.26158(6) -0.01660(3)
O1 O 0.8038(2) 0.21469(15) 0.34722(8)
H1 H 0.8083 0.1292 0.3616
O2 O 0.58735(19) 0.64565(16) 0.12920(8)
H2 H 0.5208 0.6986 0.0889
C1 C 1.0107(2) 0.24424(19) 0.09226(11)
C2 C 1.0044(2) 0.10882(19) 0.12723(12)
H3 H 1.0458 0.0259 0.0937
C3 C 0.9357(2) 0.09814(19) 0.21296(12)
H4 H 0.9302 0.0072 0.2369
C4 C 0.8745(2) 0.22136(18) 0.26408(11)
C5 C 0.8851(2) 0.35770(17) 0.22785(10)
C6 C 0.9531(2) 0.36759(18) 0.14137(11)
H5 H 0.9597 0.4578 0.1166
C7 C 0.5773(2) 0.57714(16) 0.28384(10)
C8 C 0.4748(2) 0.56918(16) 0.36082(10)
H6 H 0.5355 0.5276 0.4148
C9 C 0.2839(2) 0.62233(16) 0.35795(10)
C10 C 0.1901(2) 0.68313(17) 0.27812(11)
H7 H 0.0614 0.7183 0.2764
C11 C 0.2915(2) 0.69060(17) 0.20094(11)
H8 H 0.2296 0.7305 0.1470
C12 C 0.4847(2) 0.63934(16) 0.20274(10)
O3 O 0.3821(2) 0.81124(17) 1.00128(8)
O4 O 0.8144(2) 0.94223(15) 0.39780(9)
N1 N 0.4493(2) 0.82467(17) 0.92019(9)
N2 N 0.76238(19) 0.92199(15) 0.48095(9)
C13 C 0.4413(3) 0.9603(2) 0.88508(12)
H9 H 0.3928 1.0420 0.9191
C14 C 0.5035(3) 0.97913(19) 0.80028(12)
H10 H 0.4953 1.0740 0.7771
C15 C 0.5791(2) 0.85938(17) 0.74774(10)
C16 C 0.5873(3) 0.72073(18) 0.78656(11)
H11 H 0.6376 0.6371 0.7543
C17 C 0.5220(3) 0.7059(2) 0.87182(11)
H12 H 0.5282 0.6123 0.8965
C18 C 0.6452(2) 0.87967(16) 0.65550(10)
C19 C 0.7058(3) 0.99822(19) 0.62936(12)
H13 H 0.7067 1.0659 0.6710
C20 C 0.7642(3) 1.01708(19) 0.54341(12)
H14 H 0.8057 1.0966 0.5278
C21 C 0.7075(3) 0.80445(19) 0.50426(11)
H15 H 0.7096 0.7372 0.4618
C22 C 0.6486(3) 0.78280(18) 0.58987(11)
H16 H 0.6100 0.7014 0.6044
loop_
_geom_bond_atom_site_label_1
_geom_bond_atom_site_label_2
_geom_bond_site_symmetry_1
_geom_bond_site_symmetry_2
S1 C5 1_555 1_555
Cl1 C9 1_555 1_555
Cl2 C1 1_555 1_555
O1 H1 1_555 1_555
O2 H2 1_555 1_555
O3 N1 1_555 1_555
O4 N2 1_555 1_555
N1 C13 1_555 1_555
N2 C20 1_555 1_555
C1 C2 1_555 1_555
C2 H3 1_555 1_555
C3 C2 1_555 1_555
H4 C3 1_555 1_555
C4 O1 1_555 1_555
C5 C4 1_555 1_555
C6 C1 1_555 1_555
H5 C6 1_555 1_555
C7 S1 1_555 1_555
C8 C7 1_555 1_555
H6 C8 1_555 1_555
C9 C8 1_555 1_555
C10 C9 1_555 1_555
H7 C10 1_555 1_555
C11 C10 1_555 1_555
H8 C11 1_555 1_555
C12 O2 1_555 1_555
C13 H9 1_555 1_555
C14 C13 1_555 1_555
H10 C14 1_555 1_555
C15 C14 1_555 1_555
C16 C15 1_555 1_555
H11 C16 1_555 1_555
C17 N1 1_555 1_555
H12 C17 1_555 1_555
C18 C15 1_555 1_555
C19 C18 1_555 1_555
H13 C19 1_555 1_555
C20 C19 1_555 1_555
H14 C20 1_555 1_555
C21 N2 1_555 1_555
H15 C21 1_555 1_555
C22 C18 1_555 1_555
H16 C22 1_555 1_555
C3 C4 1_555 1_555
C5 C6 1_555 1_555
C7 C12 1_555 1_555
C11 C12 1_555 1_555
C16 C17 1_555 1_555
C21 C22 1_555 1_555

#END
