
#######################################################################
#
#                 Cambridge Crystallographic Data Centre
#                                CCDC 
#
#######################################################################
#
# If this CIF has been generated from an entry in the Cambridge 
# Structural Database, then it will include bibliographic, chemical, 
# crystal, experimental, refinement or atomic coordinate data resulting 
# from the CCDC's data processing and validation procedures.
#
#######################################################################

data_DATQIZ
_chemical_formula_moiety         'C12 H8 Cl2 O2 S1,C12 H10 N2'
_chemical_name_systematic        
'bis(2-Hydroxy-5-chlorophenyl)sulfide 1,2-bis(4-pyridyl)ethene'
_symmetry_cell_setting           monoclinic
_symmetry_space_group_name_H-M   'P 21/c'
_symmetry_Int_Tables_number      14
_space_group_name_Hall           '-P 2ybc'
loop_
_symmetry_equiv_pos_site_id
_symmetry_equiv_pos_as_xyz
1 x,y,z
2 -x,1/2+y,1/2-z
3 -x,-y,-z
4 x,1/2-y,1/2+z
_cell_length_a                   9.7293(19)
_cell_length_b                   17.198(3)
_cell_length_c                   13.894(3)
_cell_angle_alpha                90
_cell_angle_beta                 104.98(3)
_cell_angle_gamma                90
_cell_volume                     2245.8
_exptl_crystal_colour            colorless
_exptl_crystal_description       platelet
_cell_formula_units_Z            4
_exptl_crystal_recrystallization_method ethanol
loop_
_atom_site_label
_atom_site_type_symbol
_atom_site_fract_x
_atom_site_fract_y
_atom_site_fract_z
Cl1 Cl 1.15599(11) 0.10284(5) 0.41608(5)
Cl2 Cl 0.56952(7) 0.12962(5) 0.64497(7)
S1 S 1.11947(6) 0.05093(3) 0.79852(4)
O1 O 1.32160(17) -0.06566(9) 0.79509(13)
H1 H 1.3811 -0.0993 0.7947
O2 O 1.16178(18) 0.23087(10) 0.79572(13)
H2 H 1.2176 0.1944 0.8103
C1 C 1.2863(2) -0.02856(12) 0.70505(17)
C2 C 1.3450(3) -0.04646(14) 0.6273(2)
H3 H 1.4124 -0.0859 0.6352
C3 C 1.3050(3) -0.00678(15) 0.53824(19)
H4 H 1.3452 -0.0190 0.4862
C4 C 1.2054(3) 0.05076(13) 0.52773(16)
C5 C 1.1444(2) 0.07007(12) 0.60349(15)
H5 H 1.0762 0.1092 0.5944
C6 C 1.1855(2) 0.03077(11) 0.69334(15)
C7 C 0.9922(2) 0.12457(12) 0.75462(15)
C8 C 0.8499(2) 0.10292(13) 0.71683(17)
H6 H 0.8254 0.0506 0.7100
C9 C 0.7465(2) 0.15862(14) 0.68987(17)
C10 C 0.7810(3) 0.23669(14) 0.69913(17)
H7 H 0.7100 0.2741 0.6811
C11 C 0.9202(3) 0.25872(13) 0.73494(17)
H8 H 0.9429 0.3113 0.7410
C12 C 1.0287(2) 0.20338(13) 0.76264(15)
N1 N 0.4250(2) 0.32948(14) 0.36910(16)
N2 N 1.4095(2) 0.37510(12) 0.66011(16)
C13 C 0.4847(4) 0.39601(19) 0.4077(2)
H9 H 0.4268 0.4394 0.4049
C14 C 0.6275(4) 0.4035(2) 0.4514(2)
H10 H 0.6632 0.4512 0.4783
C15 C 0.7181(3) 0.3423(3) 0.4563(2)
C16 C 0.6565(3) 0.2735(2) 0.4170(2)
H11 H 0.7124 0.2293 0.4190
C17 C 0.5113(3) 0.2697(2) 0.3747(2)
H12 H 0.4726 0.2224 0.3487
C18 C 0.8685(5) 0.3688(3) 0.5133(3)
H13 H 0.8812 0.4154 0.5485
C19 C 0.9693(4) 0.3287(2) 0.5119(3)
H14 H 0.9564 0.2819 0.4774
C22 C 1.1199 0.3557 0.5679
C23 C 1.1691 0.4170 0.6298
H17 H 1.1055 0.4536 0.6424
C24 C 1.3122(3) 0.4247(2) 0.6732(2)
H18 H 1.3425 0.4674 0.7144
C25 C 1.3595(3) 0.31596(17) 0.6007(2)
H19 H 1.4244 0.2795 0.5898
C26 C 1.2187(3) 0.30464(18) 0.5542(2)
H20 H 1.1910 0.2617 0.5130
C20? C 0.8794 0.3157 0.4805
H15? H 0.9116 0.2681 0.4633
C21? C 0.9718 0.3798 0.5357
H16? H 0.9386 0.4286 0.5477
loop_
_geom_bond_atom_site_label_1
_geom_bond_atom_site_label_2
_geom_bond_site_symmetry_1
_geom_bond_site_symmetry_2
Cl1 C4 1_555 1_555
Cl2 C9 1_555 1_555
S1 C6 1_555 1_555
O1 H1 1_555 1_555
O2 H2 1_555 1_555
N1 C13 1_555 1_555
N2 C24 1_555 1_555
C1 O1 1_555 1_555
C2 C1 1_555 1_555
H3 C2 1_555 1_555
C3 C2 1_555 1_555
H4 C3 1_555 1_555
C4 C3 1_555 1_555
C5 C4 1_555 1_555
H5 C5 1_555 1_555
C6 C1 1_555 1_555
C7 S1 1_555 1_555
C8 C7 1_555 1_555
H6 C8 1_555 1_555
C9 C8 1_555 1_555
C10 C9 1_555 1_555
H7 C10 1_555 1_555
C11 C10 1_555 1_555
H8 C11 1_555 1_555
C12 O2 1_555 1_555
C13 H9 1_555 1_555
C14 C13 1_555 1_555
H10 C14 1_555 1_555
C15 C14 1_555 1_555
C16 C15 1_555 1_555
H11 C16 1_555 1_555
C17 N1 1_555 1_555
H12 C17 1_555 1_555
C18 C15 1_555 1_555
H13 C18 1_555 1_555
C19 C18 1_555 1_555
H14 C19 1_555 1_555
C22 C19 1_555 1_555
C23 C22 1_555 1_555
H17 C23 1_555 1_555
C24 C23 1_555 1_555
H18 C24 1_555 1_555
C25 N2 1_555 1_555
H19 C25 1_555 1_555
C26 C22 1_555 1_555
H20 C26 1_555 1_555
C5 C6 1_555 1_555
C7 C12 1_555 1_555
C11 C12 1_555 1_555
C16 C17 1_555 1_555
C25 C26 1_555 1_555

#END
