
#######################################################################
#
#                 Cambridge Crystallographic Data Centre
#                                CCDC 
#
#######################################################################
#
# If this CIF has been generated from an entry in the Cambridge 
# Structural Database, then it will include bibliographic, chemical, 
# crystal, experimental, refinement or atomic coordinate data resulting 
# from the CCDC's data processing and validation procedures.
#
#######################################################################

data_DATRIZ02
_chemical_formula_moiety         '2(C10 H8 S8 1+),I3 1-,0.5(I8 2-)'
_chemical_name_systematic        
'\e-bis(bis(Ethylenedithio)tetrathiafulvalene) tri-iodide octa-iodide'
_symmetry_cell_setting           monoclinic
_symmetry_space_group_name_H-M   'P 21/a'
_symmetry_Int_Tables_number      14
_space_group_name_Hall           '-P 2yab'
loop_
_symmetry_equiv_pos_site_id
_symmetry_equiv_pos_as_xyz
1 x,y,z
2 1/2-x,1/2+y,-z
3 -x,-y,-z
4 1/2+x,1/2-y,z
_cell_length_a                   17.458(9)
_cell_length_b                   14.035(7)
_cell_length_c                   18.808(8)
_cell_angle_alpha                90
_cell_angle_beta                 112.70(3)
_cell_angle_gamma                90
_cell_volume                     4251.42
_exptl_crystal_colour            black
_cell_formula_units_Z            4
loop_
_atom_site_label
_atom_site_type_symbol
_atom_site_fract_x
_atom_site_fract_y
_atom_site_fract_z
I1 I 0.21367(8) 0.49319(8) 0.15994(7)
I2 I 0.19925(7) 0.49041(8) 0.00119(7)
I3 I 0.18152(8) 0.47365(9) -0.15910(7)
I4 I 0.73864(11) 0.10116(13) 0.43885(11)
I5 I 0.90076(9) 0.13295(9) 0.44213(7)
I6 I 1.07521(10) 0.16971(12) 0.45452(7)
I7 I 1.02507(14) 0.4092(2) 0.48660(11)
I7B I 0.97493(14) 0.5908(2) 0.51340(11)
I6B I 0.92479(10) 0.83029(12) 0.54548(7)
I5B I 1.09924(9) 0.86705(9) 0.55787(7)
I4B I 1.26136(11) 0.89884(13) 0.56115(11)
S1 S 0.6940(3) 0.2615(3) 0.0858(2)
S2 S 0.5925(3) 0.4312(3) 0.0658(2)
S3 S 0.6582(3) 0.2621(3) -0.0962(2)
S4 S 0.5569(2) 0.4319(3) -0.1162(2)
S5 S 0.7555(3) 0.2596(3) 0.2560(2)
S6 S 0.6290(3) 0.4607(3) 0.2299(2)
S7 S 0.6509(3) 0.2570(3) -0.2552(2)
S8 S 0.5265(3) 0.4622(3) -0.2791(2)
C1 C 0.6322(9) 0.3437(9) 0.0240(8)
C2 C 0.6135(10) 0.3454(10) -0.0571(8)
C3 C 0.6918(9) 0.3110(10) 0.1687(7)
C4 C 0.6448(10) 0.3895(10) 0.1591(8)
C5 C 0.6192(11) 0.3099(11) -0.1883(8)
C6 C 0.5745(10) 0.3911(11) -0.1974(8)
C7 C 0.7570(20) 0.3444(17) 0.3231(11)
C8 C 0.7108(13) 0.4201(14) 0.3190(11)
C9 C 0.6349(21) 0.3598(24) -0.3212(18)
C10 C 0.5516(17) 0.3956(14) -0.3469(11)
S9 S 0.5178(3) 0.1338(3) 0.0411(2)
S10 S 0.4039(3) 0.2955(3) 0.0042(2)
S11 S 0.4877(3) 0.1243(3) -0.1439(2)
S12 S 0.3761(3) 0.2853(3) -0.1696(2)
S13 S 0.5459(3) 0.1272(3) 0.2064(2)
S14 S 0.4049(3) 0.32141(3) 0.1579(2)
S15 S 0.4563(3) 0.0937(3) -0.3083(2)
S16 S 0.3239(3) 0.2905(3) -0.3382(2)
C11 C 0.4556(9) 0.2122(9) -0.0274(8)
C12 C 0.4424(9) 0.2055(9) -0.1037(9)
C13 C 0.4948(9) 0.1817(10) 0.1152(8)
C14 C 0.4418(10) 0.2550(11) 0.0996(8)
C15 C 0.4370(9) 0.1602(10) -0.2393(8)
C16 C 0.3864(10) 0.2344(10) -0.2508(9)
C17 C 0.4802(13) 0.1768(13) 0.2570(10)
C18 C 0.4688(12) 0.2790(12) 0.2532(9)
C19 C 0.3858(16) 0.1465(16) -0.3965(10)
C20 C 0.3078(15) 0.1898(16) -0.4018(12)
loop_
_geom_bond_atom_site_label_1
_geom_bond_atom_site_label_2
_geom_bond_site_symmetry_1
_geom_bond_site_symmetry_2
I1 I2 1_555 1_555
I2 I3 1_555 1_555
I4 I5 1_555 1_555
I5 I6 1_555 1_555
I6 I7 1_555 1_555
I7 I7B 1_555 1_555
S1 C1 1_555 1_555
S2 C1 1_555 1_555
S3 C2 1_555 1_555
S4 C2 1_555 1_555
S5 C3 1_555 1_555
S6 C4 1_555 1_555
S7 C5 1_555 1_555
S8 C6 1_555 1_555
C1 C2 1_555 1_555
C3 S1 1_555 1_555
C4 S2 1_555 1_555
C5 S3 1_555 1_555
C6 S4 1_555 1_555
C7 S5 1_555 1_555
C8 S6 1_555 1_555
C9 S7 1_555 1_555
C10 S8 1_555 1_555
S9 C11 1_555 1_555
S10 C11 1_555 1_555
S11 C12 1_555 1_555
S12 C12 1_555 1_555
S13 C13 1_555 1_555
S14 C14 1_555 1_555
S15 C15 1_555 1_555
S16 C16 1_555 1_555
C11 C12 1_555 1_555
C13 S9 1_555 1_555
C14 S10 1_555 1_555
C15 S11 1_555 1_555
C16 S12 1_555 1_555
C17 S13 1_555 1_555
C18 S14 1_555 1_555
C19 S15 1_555 1_555
C20 S16 1_555 1_555
I7B I6B 1_555 1_555
I6B I5B 1_555 1_555
I5B I4B 1_555 1_555
C3 C4 1_555 1_555
C5 C6 1_555 1_555
C7 C8 1_555 1_555
C9 C10 1_555 1_555
C13 C14 1_555 1_555
C15 C16 1_555 1_555
C17 C18 1_555 1_555
C19 C20 1_555 1_555

#END
