
#######################################################################
#
#                 Cambridge Crystallographic Data Centre
#                                CCDC 
#
#######################################################################
#
# If this CIF has been generated from an entry in the Cambridge 
# Structural Database, then it will include bibliographic, chemical, 
# crystal, experimental, refinement or atomic coordinate data resulting 
# from the CCDC's data processing and validation procedures.
#
#######################################################################

data_DATREW
_chemical_formula_moiety         'C21 H24 O4,C10 H8 N2 O2,H2 O1'
_chemical_name_systematic        
"Spirobichromane 4,4'-bipyridine N,N'-dioxide monohydrate"
_symmetry_cell_setting           monoclinic
_symmetry_space_group_name_H-M   'P 21/c'
_symmetry_Int_Tables_number      14
_space_group_name_Hall           '-P 2ybc'
loop_
_symmetry_equiv_pos_site_id
_symmetry_equiv_pos_as_xyz
1 x,y,z
2 -x,1/2+y,1/2-z
3 -x,-y,-z
4 x,1/2-y,1/2+z
_cell_length_a                   16.274(3)
_cell_length_b                   10.564(2)
_cell_length_c                   16.094(3)
_cell_angle_alpha                90
_cell_angle_beta                 92.52(3)
_cell_angle_gamma                90
_cell_volume                     2764.18
_exptl_crystal_colour            yellow
_exptl_crystal_description       needle
_cell_formula_units_Z            4
_exptl_crystal_recrystallization_method ethanol
loop_
_atom_site_label
_atom_site_type_symbol
_atom_site_fract_x
_atom_site_fract_y
_atom_site_fract_z
O1 O 0.90452(10) 0.98256(16) 0.33687(10)
H1 H 0.9201 0.9111 0.3253
O2 O 0.69814(9) 0.87875(15) 0.13286(9)
O3 O 0.62566(9) 0.97316(13) 0.02344(8)
O4 O 0.73308(12) 1.08176(16) -0.23086(10)
H2 H 0.7688 1.0573 -0.2615
C1 C 0.78073(15) 1.0998(2) 0.32984(15)
H3 H 0.8005 1.1492 0.3742
C2 C 0.70388(15) 1.1209(2) 0.29466(14)
H4 H 0.6725 1.1860 0.3158
C3 C 0.67036(13) 1.0498(2) 0.22888(12)
C4 C 0.58426(14) 1.0712(2) 0.19207(13)
C5 C 0.52232(15) 1.0971(3) 0.25966(15)
H5 H 0.5213 1.0262 0.2969
H6 H 0.4685 1.1094 0.2340
H7 H 0.5385 1.1718 0.2902
C6 C 0.58352(17) 1.1853(2) 0.13302(15)
H8 H 0.6220 1.1714 0.0905
H9 H 0.5987 1.2603 0.1638
H10 H 0.5294 1.1958 0.1079
C7 C 0.55779(12) 0.9492(2) 0.14797(12)
H11 H 0.5445 0.8875 0.1899
H12 H 0.5077 0.9663 0.1150
C8 C 0.65866(12) 0.9268(2) -0.04819(12)
C9 C 0.68062(13) 1.0193(2) -0.10341(13)
H13 H 0.6737 1.1042 -0.0901
C10 C 0.71289(14) 0.9862(2) -0.17866(13)
C11 C 0.72264(14) 0.8605(2) -0.19754(13)
H14 H 0.7439 0.8365 -0.2479
C12 C 0.70045(13) 0.7704(2) -0.14075(13)
H15 H 0.7076 0.6855 -0.1540
C13 C 0.66786(12) 0.79991(19) -0.06446(12)
C14 C 0.64629(12) 0.69880(19) -0.00213(13)
C15 C 0.59595(15) 0.5911(2) -0.04337(15)
H16 H 0.6277 0.5511 -0.0849
H17 H 0.5463 0.6249 -0.0690
H18 H 0.5824 0.5300 -0.0020
C16 C 0.72563(14) 0.6408(2) 0.03613(14)
H19 H 0.7586 0.7061 0.0622
H20 H 0.7558 0.6012 -0.0068
H21 H 0.7121 0.5787 0.0769
C17 C 0.59376(13) 0.7595(2) 0.06312(13)
H22 H 0.5375 0.7637 0.0407
H23 H 0.5942 0.7042 0.1112
C18 C 0.61889(12) 0.8901(2) 0.09207(12)
C19 C 0.72109(12) 0.9578(2) 0.19826(11)
C20 C 0.79940(12) 0.9356(2) 0.23098(12)
H24 H 0.8324 0.8746 0.2074
C21 C 0.82868(13) 1.0044(2) 0.29880(13)
O5 O 0.96041(10) -0.25252(16) -0.19727(10)
O6 O 0.84737(10) 0.45800(15) 0.15780(10)
N1 N 0.94040(11) -0.15406(18) -0.15068(11)
N2 N 0.85884(11) 0.36231(18) 0.10778(11)
C22 C 0.95880(15) -0.0370(2) -0.17492(14)
H25 H 0.9847 -0.0248 -0.2247
C23 C 0.93993(15) 0.0648(2) -0.12738(14)
H26 H 0.9522 0.1457 -0.1460
C24 C 0.90281(13) 0.0508(2) -0.05177(13)
C25 C 0.88419(13) -0.0717(2) -0.02937(13)
H27 H 0.8584 -0.0862 0.0202
C26 C 0.90285(14) -0.1719(2) -0.07850(14)
H28 H 0.8896 -0.2535 -0.0621
C27 C 0.88593(13) 0.1600(2) 0.00219(12)
C28 C 0.92482(13) 0.2749(2) -0.00686(13)
H29 H 0.9609 0.2856 -0.0495
C29 C 0.91089(14) 0.3735(2) 0.04631(14)
H30 H 0.9383 0.4498 0.0394
C30 C 0.81902(16) 0.2528(2) 0.11737(15)
H31 H 0.7824 0.2447 0.1598
C31 C 0.83159(16) 0.1530(2) 0.06564(15)
H32 H 0.8028 0.0781 0.0733
O7 O 0.91886(10) 0.69654(15) 0.13326(10)
loop_
_geom_bond_atom_site_label_1
_geom_bond_atom_site_label_2
_geom_bond_site_symmetry_1
_geom_bond_site_symmetry_2
O1 H1 1_555 1_555
O2 C18 1_555 1_555
O3 C8 1_555 1_555
O4 H2 1_555 1_555
O5 N1 1_555 1_555
O6 N2 1_555 1_555
N1 C22 1_555 1_555
N2 C29 1_555 1_555
C1 H3 1_555 1_555
C2 C1 1_555 1_555
H4 C2 1_555 1_555
C3 C2 1_555 1_555
C4 C3 1_555 1_555
C5 C4 1_555 1_555
H5 C5 1_555 1_555
H6 C5 1_555 1_555
H7 C5 1_555 1_555
C6 C4 1_555 1_555
H8 C6 1_555 1_555
H9 C6 1_555 1_555
H10 C6 1_555 1_555
C7 C4 1_555 1_555
H11 C7 1_555 1_555
H12 C7 1_555 1_555
C8 C9 1_555 1_555
C9 H13 1_555 1_555
C10 O4 1_555 1_555
C11 C10 1_555 1_555
H14 C11 1_555 1_555
C12 C11 1_555 1_555
H15 C12 1_555 1_555
C13 C8 1_555 1_555
C14 C13 1_555 1_555
C15 C14 1_555 1_555
H16 C15 1_555 1_555
H17 C15 1_555 1_555
H18 C15 1_555 1_555
C16 C14 1_555 1_555
H19 C16 1_555 1_555
H20 C16 1_555 1_555
H21 C16 1_555 1_555
C17 C14 1_555 1_555
H22 C17 1_555 1_555
H23 C17 1_555 1_555
C18 O3 1_555 1_555
C19 O2 1_555 1_555
C20 C19 1_555 1_555
H24 C20 1_555 1_555
C21 O1 1_555 1_555
C22 H25 1_555 1_555
C23 C22 1_555 1_555
H26 C23 1_555 1_555
C24 C23 1_555 1_555
C25 C24 1_555 1_555
H27 C25 1_555 1_555
C26 N1 1_555 1_555
H28 C26 1_555 1_555
C27 C24 1_555 1_555
C28 C27 1_555 1_555
H29 C28 1_555 1_555
C29 C28 1_555 1_555
H30 C29 1_555 1_555
C30 N2 1_555 1_555
H31 C30 1_555 1_555
C31 C27 1_555 1_555
H32 C31 1_555 1_555
C1 C21 1_555 1_555
C3 C19 1_555 1_555
C7 C18 1_555 1_555
C9 C10 1_555 1_555
C12 C13 1_555 1_555
C17 C18 1_555 1_555
C20 C21 1_555 1_555
C25 C26 1_555 1_555
C30 C31 1_555 1_555

#END
