
#######################################################################
#
#                 Cambridge Crystallographic Data Centre
#                                CCDC 
#
#######################################################################
#
# If this CIF has been generated from an entry in the Cambridge 
# Structural Database, then it will include bibliographic, chemical, 
# crystal, experimental, refinement or atomic coordinate data resulting 
# from the CCDC's data processing and validation procedures.
#
#######################################################################

data_DATRUN
_chemical_formula_moiety         'C14 H17 Cl1 N4 O2 S1'
_chemical_name_systematic        
'Methyl 8-chloro-4-(diethylamino)-2-(methylsulfanyl)pyrido[3,2-d]pyrimidine-6-carboxylate'
_symmetry_cell_setting           monoclinic
_symmetry_space_group_name_H-M   'P 21/n'
_symmetry_Int_Tables_number      14
_space_group_name_Hall           '-P 2yn'
loop_
_symmetry_equiv_pos_site_id
_symmetry_equiv_pos_as_xyz
1 x,y,z
2 1/2-x,1/2+y,1/2-z
3 -x,-y,-z
4 1/2+x,1/2-y,1/2+z
_cell_length_a                   7.4207(5)
_cell_length_b                   17.8547(9)
_cell_length_c                   11.9918(9)
_cell_angle_alpha                90
_cell_angle_beta                 100.761(8)
_cell_angle_gamma                90
_cell_volume                     1560.91
_exptl_crystal_colour            colorless
_exptl_crystal_description       prism
_cell_formula_units_Z            4
loop_
_atom_site_label
_atom_site_type_symbol
_atom_site_fract_x
_atom_site_fract_y
_atom_site_fract_z
Cl1 Cl 0.14494(7) 0.34008(3) -0.06845(5)
S1 S -0.01553(7) 0.58905(3) -0.31349(5)
O1 O 0.58823(19) 0.51120(9) 0.36015(12)
O2 O 0.51574(18) 0.38875(8) 0.33738(11)
N1 N 0.1760(2) 0.63044(10) -0.12071(13)
N2 N 0.1196(2) 0.49779(10) -0.14262(14)
N3 N 0.3910(2) 0.53739(10) 0.14240(14)
N4 N 0.3314(3) 0.68767(10) 0.03852(14)
C1 C 0.2977(3) 0.54811(11) 0.03612(16)
C2 C 0.2699(3) 0.62327(12) -0.01455(16)
C3 C 0.1072(3) 0.56812(12) -0.17664(16)
C4 C 0.2162(3) 0.48843(12) -0.03564(17)
C5 C 0.2408(3) 0.41568(12) 0.01265(16)
C6 C 0.3360(3) 0.40471(12) 0.11995(16)
C7 C 0.4106(3) 0.46789(12) 0.18237(17)
C8 C 0.4319(3) 0.69627(12) 0.15643(17)
C9 C 0.3029(3) 0.70591(14) 0.23901(18)
C10 C 0.2769(3) 0.75888(13) -0.02098(18)
C11 C 0.4015(4) 0.78110(14) -0.1030(3)
C12 C -0.0849(3) 0.49755(13) -0.36733(18)
C13 C 0.5150(3) 0.46048(12) 0.30228(17)
C14 C 0.6067(3) 0.37511(13) 0.45320(17)
H1 H 0.35224 0.35433 0.15292
H2 H 0.50720 0.65156 0.17757
H3 H 0.51135 0.74041 0.16062
H4 H 0.22763 0.75059 0.21800
H5 H 0.22347 0.66175 0.23494
H6 H 0.36953 0.71161 0.31728
H7 H 0.15169 0.75359 -0.06415
H8 H 0.28035 0.79863 0.03553
H9 H 0.52679 0.78644 -0.05983
H10 H 0.39813 0.74140 -0.15950
H11 H 0.36542 0.82838 -0.14236
H12 H 0.02157 0.46864 -0.37459
H13 H -0.15320 0.47214 -0.31528
H14 H -0.16400 0.50288 -0.44180
H15 H 0.73513 0.38878 0.46175
H16 H 0.54870 0.40535 0.50523
H17 H 0.59650 0.32203 0.47072
loop_
_geom_bond_atom_site_label_1
_geom_bond_atom_site_label_2
_geom_bond_site_symmetry_1
_geom_bond_site_symmetry_2
Cl1 C5 1_555 1_555
S1 C3 1_555 1_555
O1 C13 1_555 1_555
O2 C13 1_555 1_555
N1 C2 1_555 1_555
N2 C3 1_555 1_555
N3 C1 1_555 1_555
N4 C2 1_555 1_555
C1 C2 1_555 1_555
C3 N1 1_555 1_555
C4 N2 1_555 1_555
C5 C4 1_555 1_555
C6 C5 1_555 1_555
C7 N3 1_555 1_555
C8 N4 1_555 1_555
C9 C8 1_555 1_555
C10 N4 1_555 1_555
C11 C10 1_555 1_555
C12 S1 1_555 1_555
C13 C7 1_555 1_555
C14 O2 1_555 1_555
H1 C6 1_555 1_555
H2 C8 1_555 1_555
H3 C8 1_555 1_555
H4 C9 1_555 1_555
H5 C9 1_555 1_555
H6 C9 1_555 1_555
H7 C10 1_555 1_555
H8 C10 1_555 1_555
H9 C11 1_555 1_555
H10 C11 1_555 1_555
H11 C11 1_555 1_555
H12 C12 1_555 1_555
H13 C12 1_555 1_555
H14 C12 1_555 1_555
H15 C14 1_555 1_555
H16 C14 1_555 1_555
H17 C14 1_555 1_555
C1 C4 1_555 1_555
C6 C7 1_555 1_555

#END
