
#######################################################################
#
#                 Cambridge Crystallographic Data Centre
#                                CCDC 
#
#######################################################################
#
# If this CIF has been generated from an entry in the Cambridge 
# Structural Database, then it will include bibliographic, chemical, 
# crystal, experimental, refinement or atomic coordinate data resulting 
# from the CCDC's data processing and validation procedures.
#
#######################################################################

data_DATSOI
_chemical_formula_moiety         'C13 H9 N1 O3'
_chemical_name_systematic        2-(1,3-Benzoxazol-2-yl)benzene-1,3-diol
_symmetry_cell_setting           monoclinic
_symmetry_space_group_name_H-M   'P 21/c'
_symmetry_Int_Tables_number      14
_space_group_name_Hall           '-P 2ybc'
loop_
_symmetry_equiv_pos_site_id
_symmetry_equiv_pos_as_xyz
1 x,y,z
2 -x,1/2+y,1/2-z
3 -x,-y,-z
4 x,1/2-y,1/2+z
_cell_length_a                   16.301(10)
_cell_length_b                   4.863(3)
_cell_length_c                   13.818(8)
_cell_angle_alpha                90
_cell_angle_beta                 101.652(9)
_cell_angle_gamma                90
_cell_volume                     1072.8
_exptl_crystal_colour            colorless
_exptl_crystal_description       rod
_cell_formula_units_Z            4
loop_
_atom_site_label
_atom_site_type_symbol
_atom_site_fract_x
_atom_site_fract_y
_atom_site_fract_z
O1 O 0.25002(12) 0.5685(4) 0.26584(14)
O2 O 0.13308(12) 0.9597(4) 0.20000(14)
H1 H 0.1716 0.8503 0.1941
O3 O 0.22505(13) 0.7746(4) 0.55739(14)
H2 H 0.2586 0.6678 0.5376
N1 N 0.29434(14) 0.4860(4) 0.43135(17)
C1 C 0.17637(17) 0.9064(6) 0.4775(2)
C2 C 0.11906(18) 1.1050(6) 0.4970(2)
H3 H 0.1141 1.1429 0.5630
C3 C 0.06920(18) 1.2467(6) 0.4177(2)
H4 H 0.0302 1.3800 0.4307
C4 C 0.07591(17) 1.1950(6) 0.3200(2)
H5 H 0.0423 1.2956 0.2676
C5 C 0.13213(17) 0.9948(5) 0.2988(2)
C6 C 0.18385(17) 0.8452(5) 0.37805(19)
C7 C 0.24334(17) 0.6304(5) 0.36277(19)
C8 C 0.31216(17) 0.3624(5) 0.2767(2)
C9 C 0.34190(18) 0.2256(6) 0.2018(2)
H6 H 0.3223 0.2659 0.1338
C10 C 0.40322(19) 0.0233(6) 0.2346(2)
H7 H 0.4261 -0.0769 0.1873
C11 C 0.43160(18) -0.0341(6) 0.3368(3)
H8 H 0.4728 -0.1724 0.3561
C12 C 0.40030(19) 0.1084(6) 0.4100(2)
H9 H 0.4196 0.0696 0.4782
C13 C 0.33911(18) 0.3110(6) 0.3782(2)
loop_
_geom_bond_atom_site_label_1
_geom_bond_atom_site_label_2
_geom_bond_site_symmetry_1
_geom_bond_site_symmetry_2
O1 C7 1_555 1_555
O2 H1 1_555 1_555
O3 H2 1_555 1_555
N1 C7 1_555 1_555
C1 O3 1_555 1_555
C2 C1 1_555 1_555
H3 C2 1_555 1_555
C3 C2 1_555 1_555
H4 C3 1_555 1_555
C4 C3 1_555 1_555
H5 C4 1_555 1_555
C5 O2 1_555 1_555
C6 C1 1_555 1_555
C7 C6 1_555 1_555
C8 O1 1_555 1_555
C9 C8 1_555 1_555
H6 C9 1_555 1_555
C10 C9 1_555 1_555
H7 C10 1_555 1_555
C11 C10 1_555 1_555
H8 C11 1_555 1_555
C12 C11 1_555 1_555
H9 C12 1_555 1_555
C13 N1 1_555 1_555
C4 C5 1_555 1_555
C5 C6 1_555 1_555
C8 C13 1_555 1_555
C12 C13 1_555 1_555

#END
