
#######################################################################
#
#                 Cambridge Crystallographic Data Centre
#                                CCDC 
#
#######################################################################
#
# If this CIF has been generated from an entry in the Cambridge 
# Structural Database, then it will include bibliographic, chemical, 
# crystal, experimental, refinement or atomic coordinate data resulting 
# from the CCDC's data processing and validation procedures.
#
#######################################################################

data_DATVEB
_chemical_name_common            
1,5-Anhydro-2-deoxy-3,4:6,7-di-O-isopropylidene-1-C-(4-methoxyphenyl)-D-manno-hept-1-enitol
_chemical_formula_moiety         'C20 H26 O6'
_chemical_name_systematic        
4-(2,2-Dimethyl-1,3-dioxolan-4-yl)-6-(4-methoxyphenyl)-2,2-dimethyl-3a,7a-dihydro-4H-[1,3]dioxolo[4,5-c]pyran
_symmetry_cell_setting           orthorhombic
_symmetry_space_group_name_H-M   'P 21 21 21'
_symmetry_Int_Tables_number      19
_space_group_name_Hall           'P 2ac 2ab'
loop_
_symmetry_equiv_pos_site_id
_symmetry_equiv_pos_as_xyz
1 x,y,z
2 1/2-x,-y,1/2+z
3 1/2+x,1/2-y,-z
4 -x,1/2+y,1/2-z
_cell_length_a                   5.3633(2)
_cell_length_b                   11.0398(4)
_cell_length_c                   32.0423(12)
_cell_angle_alpha                90
_cell_angle_beta                 90
_cell_angle_gamma                90
_cell_volume                     1897.22
_exptl_crystal_colour            colorless
_exptl_crystal_description       block
_cell_formula_units_Z            4
loop_
_atom_site_label
_atom_site_type_symbol
_atom_site_fract_x
_atom_site_fract_y
_atom_site_fract_z
O1 O 1.0587(8) 1.1104(3) 0.65467(9)
O2 O 0.4257(8) 0.9817(3) 0.81402(10)
O3 O 1.4303(7) 0.8259(3) 0.61422(10)
O4 O 1.1716(7) 0.9639(3) 0.58336(10)
O5 O 1.3040(11) 1.2657(3) 0.56457(12)
O6 O 1.0476(12) 1.4273(3) 0.58142(13)
C1 C 1.1167(10) 1.0158(4) 0.68138(12)
C2 C 1.3046(10) 0.9406(4) 0.67475(14)
H1 H 1.3445 0.8841 0.6961
C3 C 1.4583(11) 0.9390(4) 0.63577(14)
H2 H 1.6377 0.9548 0.6423
C4 C 1.3616(10) 1.0300(4) 0.60438(14)
H3 H 1.4965 1.0537 0.5845
C5 C 1.2514(12) 1.1404(4) 0.62486(14)
H4 H 1.3870 1.1857 0.6395
C6 C 1.1227(15) 1.2252(4) 0.59431(15)
H5 H 0.9851 1.1814 0.5796
C7 C 1.022(2) 1.3410(5) 0.61377(18)
H6 H 0.8457 1.3315 0.6221
H7 H 1.1215 1.3646 0.6385
C8 C 0.9362(10) 1.0114(4) 0.71624(12)
C9 C 0.7898(10) 1.1106(4) 0.72719(12)
H8 H 0.8081 1.1842 0.7121
C10 C 0.6172(10) 1.1050(4) 0.75969(13)
H9 H 0.5193 1.1739 0.7665
C11 C 0.5891(10) 0.9976(4) 0.78217(13)
C12 C 0.7325(11) 0.8978(4) 0.77169(13)
H10 H 0.7143 0.8245 0.7869
C13 C 0.9015(10) 0.9040(4) 0.73935(13)
H11 H 0.9969 0.8343 0.7325
C14 C 0.2735(12) 1.0833(5) 0.82577(18)
H12 H 0.1629 1.0598 0.8487
H13 H 0.1733 1.1091 0.8018
H14 H 0.3806 1.1503 0.8348
C15 C 1.2524(11) 0.8400(4) 0.58193(16)
C16 C 1.0274(12) 0.7616(5) 0.5903(3)
H15 H 1.0773 0.6762 0.5903
H16 H 0.9022 0.7751 0.5686
H17 H 0.9566 0.7825 0.6176
C17 C 1.3707(14) 0.8150(6) 0.54045(17)
H18 H 1.4143 0.7290 0.5386
H19 H 1.5218 0.8642 0.5375
H20 H 1.2533 0.8356 0.5181
C18 C 1.236(3) 1.4042(16) 0.5610(4)
C19 C 1.229(3) 1.4305(13) 0.5142(3)
H21 H 1.3906 1.4096 0.5018
H22 H 1.1953 1.5167 0.5097
H23 H 1.0977 1.3820 0.5011
C20 C 1.465(3) 1.4613(13) 0.5808(5)
H24 H 1.6128 1.4419 0.5640
H25 H 1.4872 1.4293 0.6091
H26 H 1.4441 1.5493 0.5820
C21? C 1.233(3) 1.3719(16) 0.5504(4)
C22? C 1.058(3) 1.3523(13) 0.5130(4)
C23? C 1.450(3) 1.4483(13) 0.5343(5)
H27? H 0.9166 1.3021 0.5216
H28? H 1.1496 1.3115 0.4905
H29? H 0.9974 1.4308 0.5030
H30? H 1.5682 1.4630 0.5571
H31? H 1.3865 1.5258 0.5239
H32? H 1.5342 1.4050 0.5117
loop_
_geom_bond_atom_site_label_1
_geom_bond_atom_site_label_2
_geom_bond_site_symmetry_1
_geom_bond_site_symmetry_2
O1 C1 1_555 1_555
O2 C11 1_555 1_555
O3 C3 1_555 1_555
O4 C4 1_555 1_555
O5 C6 1_555 1_555
O6 C7 1_555 1_555
C1 C2 1_555 1_555
C2 H1 1_555 1_555
C3 C2 1_555 1_555
H2 C3 1_555 1_555
C4 C3 1_555 1_555
H3 C4 1_555 1_555
C5 O1 1_555 1_555
H4 C5 1_555 1_555
C6 C5 1_555 1_555
H5 C6 1_555 1_555
C7 C6 1_555 1_555
H6 C7 1_555 1_555
H7 C7 1_555 1_555
C8 C1 1_555 1_555
C9 C8 1_555 1_555
H8 C9 1_555 1_555
C10 C9 1_555 1_555
H9 C10 1_555 1_555
C11 C10 1_555 1_555
C12 C11 1_555 1_555
H10 C12 1_555 1_555
C13 C8 1_555 1_555
H11 C13 1_555 1_555
C14 O2 1_555 1_555
H12 C14 1_555 1_555
H13 C14 1_555 1_555
H14 C14 1_555 1_555
C15 O3 1_555 1_555
C16 C15 1_555 1_555
H15 C16 1_555 1_555
H16 C16 1_555 1_555
H17 C16 1_555 1_555
C17 C15 1_555 1_555
H18 C17 1_555 1_555
H19 C17 1_555 1_555
H20 C17 1_555 1_555
C18 O5 1_555 1_555
C19 C18 1_555 1_555
H21 C19 1_555 1_555
H22 C19 1_555 1_555
H23 C19 1_555 1_555
C20 C18 1_555 1_555
H24 C20 1_555 1_555
H25 C20 1_555 1_555
H26 C20 1_555 1_555
O4 C15 1_555 1_555
O6 C18 1_555 1_555
C4 C5 1_555 1_555
C12 C13 1_555 1_555

#END
