
#######################################################################
#
#                 Cambridge Crystallographic Data Centre
#                                CCDC 
#
#######################################################################
#
# If this CIF has been generated from an entry in the Cambridge 
# Structural Database, then it will include bibliographic, chemical, 
# crystal, experimental, refinement or atomic coordinate data resulting 
# from the CCDC's data processing and validation procedures.
#
#######################################################################

data_DATWIE
_chemical_formula_moiety         'C23 H16 F9 N1 O7 S3,0.5(C6 H6)'
_chemical_name_systematic        
"(2,4,6-tris(Trifluoromethylsulfonyl)-phenyl)-1-spiro-2'-(3'-isopropyl-naphtho(1,2-e)-1',3'-oxazoniacyclohexadiene) benzene solvate"
_symmetry_cell_setting           triclinic
_symmetry_space_group_name_H-M   'P -1'
_symmetry_Int_Tables_number      2
_space_group_name_Hall           '-P 1'
loop_
_symmetry_equiv_pos_site_id
_symmetry_equiv_pos_as_xyz
1 x,y,z
2 -x,-y,-z
_cell_length_a                   10.055(1)
_cell_length_b                   12.081(2)
_cell_length_c                   14.122(1)
_cell_angle_alpha                105.61(2)
_cell_angle_beta                 103.72(2)
_cell_angle_gamma                105.41(2)
_cell_volume                     1502.19
_chemical_melting_point          166-168deg.C
_cell_formula_units_Z            2
loop_
_atom_site_label
_atom_site_type_symbol
_atom_site_fract_x
_atom_site_fract_y
_atom_site_fract_z
S1 S 0.6353(1) 0.8723(1) 0.4107(1)
S2 S 0.8851(1) 1.3569(1) 0.5843(1)
S3 S 0.8470(1) 1.1564(1) 0.1888(1)
O1 O 0.7864(3) 0.9230(2) 0.2517(2)
O2 O 0.5459(3) 0.7771(2) 0.3109(2)
O3 O 0.5810(4) 0.8936(3) 0.4950(2)
O4 O 0.8757(6) 1.3193(3) 0.6706(3)
O5 O 1.0132(4) 1.4462(3) 0.5898(3)
O6 O 0.7391(3) 1.0650(3) 0.0933(2)
O7 O 0.8874(3) 1.2838(2) 0.2030(2)
N1 N 0.5619(3) 0.9670(2) 0.2116(2)
C1 C 0.7154(3) 1.0070(3) 0.2876(2)
C2 C 0.7099(4) 1.0098(3) 0.3933(3)
C3 C 0.7574(4) 1.1141(3) 0.4782(3)
C4 C 0.8245(4) 1.2286(3) 0.4741(3)
C5 C 0.8536(4) 1.2368(3) 0.3839(3)
C6 C 0.8042(3) 1.1335(3) 0.2962(2)
C7 C 0.5077(4) 0.8730(3) 0.1235(2)
C8 C 0.5873(4) 0.7979(3) 0.0926(2)
C9 C 0.7254(4) 0.8232(3) 0.1604(3)
C10 C 0.8098(4) 0.7507(4) 0.1415(3)
C11 C 0.7552(5) 0.6529(4) 0.0500(3)
C12 C 0.6174(4) 0.6236(3) -0.0255(3)
C13 C 0.5295(4) 0.6941(3) -0.0048(3)
C14 C 0.3923(4) 0.6629(3) -0.0795(3)
C15 C 0.3467(5) 0.5659(4) -0.1716(3)
C16 C 0.4338(6) 0.4974(4) -0.1926(3)
C17 C 0.5676(5) 0.5238(4) -0.1214(3)
C18 C 0.7892(6) 0.8246(4) 0.4584(4)
C19 C 0.7426(7) 1.4245(4) 0.5616(5)
C20 C 1.0192(5) 1.1278(4) 0.1888(4)
C21 C 0.4680(4) 1.0379(3) 0.2437(3)
C22 C 0.3304(5) 0.9554(4) 0.2482(4)
C23 C 0.4391(6) 1.1111(4) 0.1740(4)
F1 F 0.8557(4) 0.8008(4) 0.3903(3)
F2 F 0.7446(4) 0.7283(4) 0.4819(3)
F3 F 0.8893(4) 0.9146(3) 0.5446(3)
F4 F 0.6196(6) 1.3571(4) 0.5542(6)
F5 F 0.7840(7) 1.5301(4) 0.6376(5)
F6 F 0.7281(6) 1.4505(5) 0.4768(5)
F7 F 1.0638(4) 1.1657(4) 0.1207(3)
F8 F 1.1218(3) 1.1926(4) 0.2802(3)
F9 F 1.0045(4) 1.0137(3) 0.1689(4)
H1 H 0.738(3) 1.102(3) 0.538(2)
H2 H 0.912(4) 1.313(3) 0.376(2)
H3 H 0.405(4) 0.867(3) 0.078(3)
H4 H 0.904(7) 0.770(6) 0.194(5)
H5 H 0.820(6) 0.603(4) 0.042(4)
H6 H 0.332(5) 0.710(4) -0.065(4)
H7 H 0.247(5) 0.550(4) -0.215(4)
H8 H 0.415(6) 0.444(5) -0.253(4)
H9 H 0.637(5) 0.475(4) -0.126(4)
H10 H 0.512(6) 1.093(5) 0.309(4)
H11 H 0.338(7) 0.894(6) 0.287(5)
H12 H 0.272(6) 0.999(5) 0.273(4)
H13 H 0.283(7) 0.904(6) 0.180(5)
H14 H 0.393(6) 1.159(5) 0.198(5)
H15 H 0.386(8) 1.050(7) 0.105(6)
H16 H 0.526(6) 1.160(5) 0.167(4)
C24 C 0.0732(5) 0.6149(4) 0.0007(4)
C25 C 0.0947(5) 0.5915(4) 0.0919(3)
C26 C -0.0229(5) 0.5214(4) -0.0924(3)
H17 H 0.133(6) 0.708(5) 0.007(4)
H18 H 0.171(6) 0.665(5) 0.161(4)
H19 H -0.047(6) 0.536(5) -0.161(4)
C26A C 0.0229(5) 0.4786(4) 0.0924(3)
C25A C -0.0947(5) 0.4085(4) -0.0919(3)
C24A C -0.0732(5) 0.3851(4) -0.0007(4)
H19A H 0.047(6) 0.464(5) 0.161(4)
H18A H -0.171(6) 0.335(5) -0.161(4)
H17A H -0.133(6) 0.292(5) -0.007(4)
loop_
_geom_bond_atom_site_label_1
_geom_bond_atom_site_label_2
_geom_bond_site_symmetry_1
_geom_bond_site_symmetry_2
S1 O2 1_555 1_555
S2 O4 1_555 1_555
S3 O6 1_555 1_555
O1 C1 1_555 1_555
O3 S1 1_555 1_555
O5 S2 1_555 1_555
O7 S3 1_555 1_555
N1 C1 1_555 1_555
C1 C2 1_555 1_555
C2 S1 1_555 1_555
C3 C2 1_555 1_555
C4 S2 1_555 1_555
C5 C4 1_555 1_555
C6 S3 1_555 1_555
C7 N1 1_555 1_555
C8 C7 1_555 1_555
C9 O1 1_555 1_555
C10 C9 1_555 1_555
C11 C10 1_555 1_555
C12 C11 1_555 1_555
C13 C8 1_555 1_555
C14 C13 1_555 1_555
C15 C14 1_555 1_555
C16 C15 1_555 1_555
C17 C12 1_555 1_555
C18 S1 1_555 1_555
C19 S2 1_555 1_555
C20 S3 1_555 1_555
C21 N1 1_555 1_555
C22 C21 1_555 1_555
C23 C21 1_555 1_555
F1 C18 1_555 1_555
F2 C18 1_555 1_555
F3 C18 1_555 1_555
F4 C19 1_555 1_555
F5 C19 1_555 1_555
F6 C19 1_555 1_555
F7 C20 1_555 1_555
F8 C20 1_555 1_555
F9 C20 1_555 1_555
C24 C25 1_555 1_555
C25 H18 1_555 1_555
C26 C24 1_555 1_555
H1 C3 1_555 1_555
H2 C5 1_555 1_555
H3 C7 1_555 1_555
H4 C10 1_555 1_555
H5 C11 1_555 1_555
H6 C14 1_555 1_555
H7 C15 1_555 1_555
H8 C16 1_555 1_555
H9 C17 1_555 1_555
H10 C21 1_555 1_555
H11 C22 1_555 1_555
H12 C22 1_555 1_555
H13 C22 1_555 1_555
H14 C23 1_555 1_555
H15 C23 1_555 1_555
H16 C23 1_555 1_555
H17 C24 1_555 1_555
H19 C26 1_555 1_555
C26A C25 1_555 1_555
C25A C26 1_555 1_555
C24A C26A 1_555 1_555
H19A C26A 1_555 1_555
H18A C25A 1_555 1_555
H17A C24A 1_555 1_555
C1 C6 1_555 1_555
C3 C4 1_555 1_555
C5 C6 1_555 1_555
C8 C9 1_555 1_555
C12 C13 1_555 1_555
C16 C17 1_555 1_555
C25A C24A 1_555 1_555

#END
