
#######################################################################
#
#                 Cambridge Crystallographic Data Centre
#                                CCDC 
#
#######################################################################
#
# If this CIF has been generated from an entry in the Cambridge 
# Structural Database, then it will include bibliographic, chemical, 
# crystal, experimental, refinement or atomic coordinate data resulting 
# from the CCDC's data processing and validation procedures.
#
#######################################################################

data_DATYEE
_chemical_formula_moiety         
'3(C45 H50 N20 O10),6(K1 1+),6(Cl1 1-),60(H2 O1)'
_chemical_name_systematic        
'tris(Cyclopentanocucurbit[5]uril) hexa-potassium hexachloride hexacontahydrate'
_symmetry_cell_setting           monoclinic
_symmetry_space_group_name_H-M   'P 21/c'
_symmetry_Int_Tables_number      14
_space_group_name_Hall           '-P 2ybc'
loop_
_symmetry_equiv_pos_site_id
_symmetry_equiv_pos_as_xyz
1 x,y,z
2 -x,1/2+y,1/2-z
3 -x,-y,-z
4 x,1/2-y,1/2+z
_cell_length_a                   20.2298(8)
_cell_length_b                   33.2253(11)
_cell_length_c                   29.4252(10)
_cell_angle_alpha                90
_cell_angle_beta                 95.186(2)
_cell_angle_gamma                90
_cell_volume                     19696.9
_exptl_crystal_colour            colorless
_exptl_crystal_description       block
_cell_formula_units_Z            4
loop_
_atom_site_label
_atom_site_type_symbol
_atom_site_fract_x
_atom_site_fract_y
_atom_site_fract_z
O1 O 0.81109(13) 0.61404(8) 0.22559(10)
O2 O 0.81140(14) 0.57740(8) 0.34444(11)
O3 O 0.32339(13) 0.75998(8) 0.26029(10)
O4 O 1.3282(2) 0.7618(2) 0.38065(15)
O5 O 0.4014(3) 0.7821(2) 0.1236(2)
Cl1 Cl 1.10510(5) 0.40248(4) 0.13805(4)
Cl2 Cl 0.72946(7) 0.81564(4) 0.08651(5)
Cl3 Cl 0.98740(9) 0.31742(5) 0.38823(5)
Cl4 Cl 0.75598(9) 0.43000(8) -0.06777(5)
Cl5 Cl 0.48283(12) 0.57978(7) 0.10135(7)
Cl6 Cl 1.09401(14) 0.45330(9) 0.04720(11)
K1 K 0.92745(4) 0.58962(3) 0.29988(3)
K2 K 0.43947(4) 0.77167(3) 0.33099(3)
K3 K 0.74230(4) 0.31955(3) 0.18126(3)
K4 K 0.77530(4) 0.65903(3) 0.30446(3)
K5 K 1.27134(4) 0.69657(3) 0.30528(3)
K6 K 0.73470(4) 0.54709(3) 0.23356(3)
C1 C 0.66637(19) 0.63217(12) 0.40185(14)
C2 C 0.59381(18) 0.65838(11) 0.45238(13)
C3 C 0.55695(17) 0.62573(11) 0.42105(13)
C4 C 0.50181(19) 0.68822(12) 0.41088(13)
C5 C 0.59728(18) 0.58310(11) 0.35636(13)
H1 H 0.6397 0.5709 0.3518
H2 H 0.5686 0.5621 0.3663
C6 C 0.44915(18) 0.63125(12) 0.36759(13)
H3 H 0.4418 0.6039 0.3776
H4 H 0.4089 0.6464 0.3710
C7 C 0.60659(18) 0.60766(10) 0.27832(13)
C8 C 0.49809(17) 0.59933(10) 0.29801(13)
C9 C 0.49660(17) 0.61411(11) 0.24819(13)
C10 C 0.43936(18) 0.66058(11) 0.29027(14)
C11 C 0.59082(19) 0.62768(10) 0.19752(13)
H5 H 0.5603 0.6172 0.1730
H6 H 0.6330 0.6141 0.1960
C12 C 0.44459(18) 0.67729(11) 0.20895(13)
H7 H 0.4044 0.6923 0.2131
H8 H 0.4356 0.6602 0.1824
C13 C 0.65985(19) 0.68908(11) 0.20140(13)
C14 C 0.54954(17) 0.69795(10) 0.17061(13)
C15 C 0.58703(18) 0.73966(11) 0.17075(13)
C16 C 0.49642(18) 0.74476(11) 0.21532(14)
C17 C 0.70860(18) 0.75680(11) 0.19801(14)
H9 H 0.7057 0.7761 0.1731
H10 H 0.7495 0.7418 0.1967
C18 C 0.56131(19) 0.80629(10) 0.20909(13)
H11 H 0.5193 0.8190 0.2137
H12 H 0.5776 0.8183 0.1822
C19 C 0.75318(18) 0.76777(12) 0.27825(14)
C20 C 0.67936(17) 0.81773(10) 0.24687(13)
C21 C 0.70445(17) 0.82904(10) 0.29777(14)
C22 C 0.58876(18) 0.82211(11) 0.29051(14)
C23 C 0.78478(18) 0.79176(12) 0.35662(14)
H13 H 0.8248 0.7762 0.3538
H14 H 0.7982 0.8182 0.3681
C24 C 0.63872(19) 0.84149(11) 0.36729(14)
H15 H 0.6734 0.8610 0.3757
H16 H 0.5964 0.8548 0.3691
C25 C 0.75382(18) 0.73227(12) 0.40030(14)
C26 C 0.70748(18) 0.79333(12) 0.42121(14)
C27 C 0.68411(19) 0.75868(11) 0.45279(14)
C28 C 0.59059(19) 0.78968(12) 0.41401(14)
C29 C 0.71437(18) 0.68340(11) 0.45535(14)
H17 H 0.7557 0.6700 0.4504
H18 H 0.7124 0.6861 0.4880
C30 C 0.56740(18) 0.73283(12) 0.46466(14)
H19 H 0.5249 0.7462 0.4656
H20 H 0.5849 0.7275 0.4959
C31 C 0.5914(2) 0.64324(14) 0.50160(16)
H21 H 0.6323 0.6495 0.5201
H22 H 0.5544 0.6550 0.5156
C32 C 0.5828(2) 0.59867(14) 0.49598(16)
H23 H 0.5640 0.5872 0.5222
H24 H 0.6251 0.5858 0.4926
C33 C 0.5360(2) 0.59315(15) 0.45318(15)
H25 H 0.4902 0.5968 0.4596
H26 H 0.5410 0.5666 0.4402
C34 C 0.46358(19) 0.55831(11) 0.29652(14)
H27 H 0.4954 0.5366 0.2951
H28 H 0.4390 0.5545 0.3230
C35 C 0.4173(2) 0.56043(12) 0.25302(14)
H29 H 0.4042 0.5337 0.2424
H30 H 0.3777 0.5758 0.2578
C36 C 0.4579(2) 0.58132(11) 0.21920(14)
H31 H 0.4294 0.5933 0.1946
H32 H 0.4880 0.5626 0.2064
C37 C 0.5269(2) 0.68961(12) 0.12103(13)
H33 H 0.4820 0.6994 0.1133
H34 H 0.5284 0.6610 0.1144
C38 C 0.5767(2) 0.71283(13) 0.09517(15)
H35 H 0.5596 0.7173 0.0637
H36 H 0.6186 0.6985 0.0957
C39 C 0.5850(2) 0.75299(12) 0.12154(14)
H37 H 0.6258 0.7665 0.1155
H38 H 0.5478 0.7709 0.1137
C40 C 0.70379(19) 0.85165(12) 0.21735(15)
H39 H 0.7185 0.8410 0.1893
H40 H 0.6688 0.8712 0.2099
C41 C 0.7608(2) 0.87052(13) 0.24638(16)
H41 H 0.7684 0.8979 0.2367
H42 H 0.8013 0.8551 0.2447
C42 C 0.73883(19) 0.86966(11) 0.29463(15)
H43 H 0.7084 0.8916 0.2992
H44 H 0.7767 0.8717 0.3172
C43 C 0.7441(2) 0.82339(13) 0.45358(15)
H45 H 0.7916 0.8187 0.4557
H46 H 0.7353 0.8508 0.4433
C44 C 0.7165(3) 0.81594(15) 0.49926(18)
H47 H 0.7467 0.8259 0.5242
H48 H 0.6737 0.8289 0.5004
C45 C 0.7098(2) 0.77072(13) 0.50163(14)
H49 H 0.6786 0.7630 0.5232
H50 H 0.7523 0.7582 0.5105
N1 N 0.65959(14) 0.65851(9) 0.43699(11)
N2 N 0.60709(14) 0.61283(9) 0.39195(10)
N3 N 0.55678(15) 0.69479(9) 0.44101(11)
N4 N 0.50270(14) 0.64867(9) 0.39711(11)
N5 N 0.56859(14) 0.59889(9) 0.31343(10)
N6 N 0.56560(14) 0.61823(9) 0.24036(10)
N7 N 0.46060(14) 0.63048(9) 0.32003(11)
N8 N 0.45997(14) 0.65220(9) 0.24825(10)
N9 N 0.60033(15) 0.67072(9) 0.18993(11)
N10 N 0.65350(14) 0.72919(9) 0.19101(11)
N11 N 0.49677(15) 0.70550(9) 0.20023(11)
N12 N 0.54993(14) 0.76414(9) 0.20057(11)
N13 N 0.71207(14) 0.77883(9) 0.24100(11)
N14 N 0.74969(14) 0.79636(9) 0.31161(11)
N15 N 0.60811(14) 0.81496(9) 0.24826(11)
N16 N 0.64390(14) 0.82871(9) 0.32035(11)
N17 N 0.74662(14) 0.77230(9) 0.38956(11)
N18 N 0.71442(15) 0.72347(9) 0.43490(11)
N19 N 0.64418(15) 0.80895(9) 0.39944(11)
N20 N 0.61214(15) 0.75957(9) 0.44409(11)
O6 O 0.71733(13) 0.62617(8) 0.38319(10)
O7 O 0.66734(12) 0.60582(7) 0.28067(9)
O8 O 0.71072(13) 0.67297(7) 0.21781(10)
O9 O 0.78853(12) 0.73788(8) 0.28100(10)
O10 O 0.78979(13) 0.70878(8) 0.38263(10)
O11 O 0.45961(13) 0.71289(8) 0.39879(10)
O12 O 0.40740(12) 0.69020(7) 0.29972(9)
O13 O 0.45533(13) 0.75962(7) 0.23821(10)
O14 O 0.53124(12) 0.82382(8) 0.30056(9)
O15 O 0.53211(12) 0.79858(8) 0.40297(10)
C46 C 0.82622(17) 0.39708(11) 0.11297(13)
C47 C 0.82842(16) 0.46140(10) 0.08011(12)
C48 C 0.88936(17) 0.45604(11) 0.11610(12)
C49 C 0.82514(17) 0.51123(11) 0.13718(13)
C50 C 0.93048(16) 0.39461(10) 0.16314(12)
H51 H 0.9269 0.3662 0.1556
H52 H 0.9740 0.4037 0.1561
C51 C 0.92503(17) 0.49667(10) 0.18908(12)
H53 H 0.9706 0.4932 0.1820
H54 H 0.9196 0.5245 0.1980
C52 C 0.89129(17) 0.37281(11) 0.23588(13)
C53 C 0.94980(17) 0.43389(10) 0.23844(13)
C54 C 0.92944(17) 0.42377(10) 0.28720(13)
C55 C 0.88542(17) 0.48638(11) 0.26384(13)
C56 C 0.85986(18) 0.36461(11) 0.31445(13)
H55 H 0.8574 0.3363 0.3063
H56 H 0.8871 0.3668 0.3432
C57 C 0.86146(18) 0.46449(11) 0.34095(13)
H57 H 0.8615 0.4931 0.3475
H58 H 0.8897 0.4514 0.3650
C58 C 0.73935(18) 0.35880(12) 0.30066(13)
C59 C 0.77704(18) 0.40812(11) 0.35388(13)
C60 C 0.69927(18) 0.40873(11) 0.34803(12)
C61 C 0.73936(19) 0.47205(12) 0.32878(13)
C62 C 0.61697(18) 0.36398(11) 0.29879(13)
H59 H 0.6181 0.3359 0.2897
H60 H 0.5889 0.3659 0.3237
C63 C 0.61795(18) 0.46550(11) 0.32321(13)
H61 H 0.5914 0.4540 0.3458
H62 H 0.6207 0.4943 0.3287
C64 C 0.58845(17) 0.37480(11) 0.21620(13)
C65 C 0.54652(17) 0.42333(10) 0.26446(13)
C66 C 0.52153(17) 0.43240(10) 0.21375(13)
C67 C 0.58348(17) 0.48743(11) 0.24460(13)
C68 C 0.53941(17) 0.39330(11) 0.14001(12)
H63 H 0.4943 0.4018 0.1308
H64 H 0.5416 0.3645 0.1352
C69 C 0.54001(18) 0.49409(11) 0.16356(13)
H65 H 0.4961 0.4887 0.1487
H66 H 0.5429 0.5228 0.1695
C70 C 0.63912(18) 0.39427(11) 0.09790(12)
C71 C 0.57711(17) 0.45456(10) 0.09603(13)
C72 C 0.63823(16) 0.46023(10) 0.06800(13)
C73 C 0.64131(18) 0.50812(11) 0.12684(13)
C74 C 0.73469(16) 0.41176(11) 0.05423(12)
H67 H 0.7361 0.3830 0.0489
H68 H 0.7353 0.4251 0.0250
C75 C 0.73286(16) 0.51238(11) 0.07635(13)
H69 H 0.7325 0.5094 0.0435
H70 H 0.7319 0.5409 0.0830
C76 C 0.85682(17) 0.46987(12) 0.03496(13)
H71 H 0.8615 0.4453 0.0178
H72 H 0.8290 0.4886 0.0165
C77 C 0.92401(19) 0.48828(12) 0.04957(14)
H73 H 0.9195 0.5161 0.0587
H74 H 0.9530 0.4870 0.0251
C78 C 0.95074(17) 0.46235(12) 0.08996(13)
H75 H 0.9856 0.4762 0.1086
H76 H 0.9677 0.4369 0.0798
C79 C 1.02519(17) 0.43727(11) 0.24401(13)
H77 H 1.0443 0.4280 0.2168
H78 H 1.0390 0.4648 0.2502
C80 C 1.04578(18) 0.41029(12) 0.28437(14)
H79 H 1.0901 0.4170 0.2976
H80 H 1.0448 0.3822 0.2754
C81 C 0.99427(18) 0.41884(12) 0.31786(13)
H81 H 1.0051 0.4432 0.3351
H82 H 0.9913 0.3966 0.3390
C82 C 0.7964(2) 0.39713(15) 0.40335(15)
H83 H 0.8332 0.3783 0.4057
H84 H 0.8091 0.4209 0.4212
C83 C 0.7364(2) 0.37855(15) 0.41925(16)
H85 H 0.7362 0.3816 0.4520
H86 H 0.7349 0.3501 0.4120
C84 C 0.6773(2) 0.40023(15) 0.39469(15)
H87 H 0.6679 0.4250 0.4103
H88 H 0.6381 0.3833 0.3926
C85 C 0.48362(18) 0.41765(11) 0.28935(14)
H89 H 0.4716 0.3894 0.2907
H90 H 0.4896 0.4284 0.3201
C86 C 0.43120(19) 0.44156(12) 0.25983(14)
H91 H 0.3868 0.4332 0.2656
H92 H 0.4359 0.4702 0.2656
C87 C 0.44548(18) 0.43139(11) 0.21120(14)
H93 H 0.4261 0.4512 0.1897
H94 H 0.4285 0.4050 0.2023
C88 C 0.51690(18) 0.46154(12) 0.06255(13)
H95 H 0.5032 0.4895 0.0626
H96 H 0.4800 0.4447 0.0697
C89 C 0.5411(2) 0.44987(12) 0.01684(14)
H97 H 0.5123 0.4608 -0.0083
H98 H 0.5432 0.4209 0.0136
C90 C 0.61035(18) 0.46864(12) 0.01892(13)
H99 H 0.6372 0.4560 -0.0028
H100 H 0.6079 0.4973 0.0129
N21 N 0.79317(14) 0.42349(8) 0.08334(10)
N22 N 0.88033(14) 0.41644(8) 0.13451(10)
N23 N 0.79368(14) 0.49565(9) 0.09760(10)
N24 N 0.88143(14) 0.48884(8) 0.14835(10)
N25 N 0.92573(14) 0.39933(8) 0.21139(10)
N26 N 0.89220(14) 0.38617(9) 0.27978(11)
N27 N 0.91383(14) 0.47132(8) 0.22718(10)
N28 N 0.88926(15) 0.45827(9) 0.29818(10)
N29 N 0.79421(14) 0.37865(9) 0.32083(11)
N30 N 0.68385(14) 0.37647(9) 0.31521(11)
N31 N 0.79396(14) 0.44922(9) 0.34173(11)
N32 N 0.68418(14) 0.44875(9) 0.32996(11)
N33 N 0.58730(14) 0.38740(9) 0.26059(10)
N34 N 0.55378(14) 0.40143(8) 0.18811(10)
N35 N 0.58401(14) 0.45881(9) 0.27841(11)
N36 N 0.54688(14) 0.47305(9) 0.20666(10)
N37 N 0.58361(14) 0.41287(9) 0.11097(10)
N38 N 0.67307(14) 0.42177(9) 0.07377(10)
N39 N 0.58829(14) 0.48366(8) 0.13257(10)
N40 N 0.67336(14) 0.49385(9) 0.09102(10)
O16 O 0.81077(12) 0.36179(8) 0.11912(9)
O17 O 0.86691(12) 0.34099(7) 0.22136(9)
O18 O 0.74036(12) 0.33077(8) 0.27389(10)
O19 O 0.61709(12) 0.34480(7) 0.20399(9)
O20 O 0.65592(12) 0.35965(8) 0.10566(9)
O21 O 0.80747(12) 0.54025(8) 0.15835(9)
O22 O 0.85958(12) 0.51970(7) 0.26626(9)
O23 O 0.73905(13) 0.50787(8) 0.31862(9)
O24 O 0.60957(12) 0.52046(7) 0.24809(9)
O25 O 0.65687(12) 0.53821(8) 0.14974(9)
C91 C 0.9954(2) 0.63060(12) 0.19415(14)
C92 C 1.0543(2) 0.68333(11) 0.16346(13)
C93 C 1.0892(2) 0.64222(11) 0.15443(13)
C94 C 1.16542(19) 0.68386(11) 0.19623(13)
C95 C 1.0575(2) 0.56976(11) 0.17512(13)
H101 H 1.0144 0.5570 0.1753
H102 H 1.0756 0.5622 0.1469
C96 C 1.2076(2) 0.61683(12) 0.17873(14)
H103 H 1.2037 0.6023 0.1501
H104 H 1.2499 0.6307 0.1811
C97 C 1.07645(19) 0.54253(11) 0.25284(13)
C98 C 1.17200(19) 0.55021(11) 0.21382(13)
C99 C 1.19196(18) 0.53114(11) 0.26213(13)
C100 C 1.24578(18) 0.59344(11) 0.25580(15)
C101 C 1.1181(2) 0.51073(11) 0.32557(13)
H105 H 1.0737 0.4994 0.3231
H106 H 1.1492 0.4887 0.3310
C102 C 1.27022(19) 0.55797(12) 0.32947(14)
H107 H 1.2817 0.5301 0.3360
H108 H 1.3112 0.5733 0.3312
C103 C 1.0711(2) 0.55521(11) 0.38145(13)
C104 C 1.18690(19) 0.54796(12) 0.38930(14)
C105 C 1.1648(2) 0.57750(11) 0.42685(13)
C106 C 1.2394(2) 0.61039(12) 0.38376(16)
C107 C 1.0484(2) 0.60199(11) 0.44248(14)
H109 H 1.0638 0.6013 0.4747
H110 H 1.0048 0.5897 0.4389
C108 C 1.2027(2) 0.65017(12) 0.44653(15)
C109 C 0.9910(2) 0.65661(12) 0.39822(14)
C110 C 1.0832(2) 0.67730(11) 0.44754(13)
C111 C 1.04845(19) 0.71497(11) 0.42332(13)
C112 C 1.1596(2) 0.71120(12) 0.40617(14)
C113 C 0.94518(18) 0.72018(12) 0.36641(13)
H111 H 0.9035 0.7057 0.3657
H112 H 0.9395 0.7457 0.3816
C114 C 1.09421(18) 0.76784(11) 0.37062(13)
H113 H 1.0640 0.7865 0.3834
H114 H 1.1370 0.7810 0.3706
C115 C 0.93978(17) 0.70283(11) 0.28506(13)
C116 C 0.99993(17) 0.76146(10) 0.30611(13)
C117 C 1.00237(17) 0.75393(10) 0.25414(13)
C118 C 1.11081(18) 0.75365(10) 0.29015(13)
C119 C 0.94878(18) 0.69794(11) 0.20220(13)
H115 H 0.9413 0.7185 0.1789
H116 H 0.9080 0.6826 0.2028
C120 C 1.10152(19) 0.74640(11) 0.20637(14)
H117 H 1.1453 0.7585 0.2100
H118 H 1.0745 0.7621 0.1840
C121 C 1.0328(2) 0.70105(13) 0.11650(14)
H119 H 1.0380 0.7301 0.1166
H120 H 0.9870 0.6944 0.1070
C122 C 1.0800(3) 0.68112(15) 0.08544(17)
H121 H 1.0612 0.6816 0.0539
H122 H 1.1224 0.6949 0.0876
C123 C 1.0882(3) 0.63838(13) 0.10239(15)
H123 H 1.1293 0.6268 0.0938
H124 H 1.0514 0.6217 0.0902
C124 C 1.1950(2) 0.51978(12) 0.17907(14)
H125 H 1.1582 0.5032 0.1666
H126 H 1.2141 0.5335 0.1542
C125 C 1.2457(3) 0.49498(16) 0.20589(18)
H127 H 1.2887 0.5082 0.2075
H128 H 1.2496 0.4688 0.1918
C126 C 1.2229(2) 0.49046(12) 0.25288(15)
H129 H 1.2600 0.4848 0.2752
H130 H 1.1905 0.4690 0.2536
C127 C 1.2197(2) 0.51211(12) 0.41568(15)
H131 H 1.2104 0.4871 0.3994
H132 H 1.2674 0.5157 0.4208
C128 C 1.1876(3) 0.51272(14) 0.46041(16)
H133 H 1.2134 0.4972 0.4836
H134 H 1.1429 0.5020 0.4565
C129 C 1.1870(3) 0.55725(13) 0.47320(15)
H135 H 1.2308 0.5664 0.4850
H136 H 1.1558 0.5626 0.4956
C130 C 1.0797(3) 0.68373(12) 0.49877(14)
H137 H 1.1193 0.6737 0.5161
H138 H 1.0411 0.6706 0.5093
C131 C 1.0745(2) 0.72983(12) 0.50278(15)
H139 H 1.0566 0.7375 0.5310
H140 H 1.1174 0.7425 0.5014
C132 C 1.0270(2) 0.74120(12) 0.46148(14)
H141 H 0.9814 0.7356 0.4671
H142 H 1.0311 0.7695 0.4541
C133 C 0.96637(19) 0.80206(11) 0.31071(15)
H143 H 0.9987 0.8236 0.3145
H144 H 0.9391 0.8023 0.3362
C134 C 0.9240(2) 0.80551(12) 0.26509(16)
H145 H 0.8847 0.7887 0.2648
H146 H 0.9104 0.8331 0.2591
C135 C 0.96977(19) 0.79080(11) 0.22994(15)
H147 H 1.0025 0.8110 0.2240
H148 H 0.9448 0.7834 0.2015
N41 N 1.00064(15) 0.67133(9) 0.18969(11)
N42 N 1.04856(16) 0.61321(9) 0.17561(11)
N43 N 1.10743(15) 0.70582(9) 0.18910(11)
N44 N 1.15507(16) 0.64657(9) 0.17754(11)
N45 N 1.10066(15) 0.55446(9) 0.21307(11)
N46 N 1.12930(14) 0.52944(9) 0.28250(10)
N47 N 1.20759(16) 0.58807(9) 0.21571(11)
N48 N 1.23846(15) 0.56060(9) 0.28337(11)
N49 N 1.12473(15) 0.53711(9) 0.36420(10)
N50 N 1.09309(16) 0.57874(9) 0.41740(11)
N51 N 1.23010(15) 0.57255(9) 0.36412(11)
N52 N 1.19869(17) 0.61431(9) 0.41750(12)
N53 N 1.04283(16) 0.64389(9) 0.42761(11)
N54 N 0.99573(15) 0.69721(9) 0.39289(11)
N55 N 1.14970(16) 0.67891(9) 0.43285(11)
N56 N 1.10149(15) 0.73271(9) 0.39964(11)
N57 N 0.95961(14) 0.72794(9) 0.32046(11)
N58 N 0.96303(14) 0.71740(9) 0.24595(11)
N59 N 1.06958(14) 0.75894(9) 0.32412(10)
N60 N 1.07282(14) 0.74860(9) 0.24913(11)
O26 O 0.95134(13) 0.61240(8) 0.21065(10)
O27 O 1.01844(12) 0.54170(7) 0.26056(9)
O28 O 1.01264(13) 0.54910(8) 0.36726(10)
O29 O 0.94716(14) 0.63501(8) 0.38000(10)
O30 O 0.90524(12) 0.67277(7) 0.28740(9)
O31 O 1.21717(13) 0.69668(8) 0.21535(10)
O32 O 1.28228(13) 0.62205(8) 0.26560(10)
O33 O 1.27865(14) 0.63548(9) 0.37156(11)
O34 O 1.21133(13) 0.71950(8) 0.39071(10)
O35 O 1.17111(11) 0.75356(7) 0.29523(9)
loop_
_geom_bond_atom_site_label_1
_geom_bond_atom_site_label_2
_geom_bond_site_symmetry_1
_geom_bond_site_symmetry_2
C1 N1 1_555 1_555
C2 C3 1_555 1_555
C3 C33 1_555 1_555
C4 N3 1_555 1_555
C5 H1 1_555 1_555
H2 C5 1_555 1_555
C6 H3 1_555 1_555
H4 C6 1_555 1_555
C7 N5 1_555 1_555
C8 C9 1_555 1_555
C9 C36 1_555 1_555
C10 N7 1_555 1_555
C11 H5 1_555 1_555
H6 C11 1_555 1_555
C12 H7 1_555 1_555
H8 C12 1_555 1_555
C13 N9 1_555 1_555
C14 C15 1_555 1_555
C15 C39 1_555 1_555
C16 N11 1_555 1_555
C17 H9 1_555 1_555
H10 C17 1_555 1_555
C18 H11 1_555 1_555
H12 C18 1_555 1_555
C19 N13 1_555 1_555
C20 C21 1_555 1_555
C21 C42 1_555 1_555
C22 N15 1_555 1_555
C23 H13 1_555 1_555
H14 C23 1_555 1_555
C24 H15 1_555 1_555
H16 C24 1_555 1_555
C25 N17 1_555 1_555
C26 C27 1_555 1_555
C27 C45 1_555 1_555
C28 N19 1_555 1_555
C29 H17 1_555 1_555
H18 C29 1_555 1_555
C30 H19 1_555 1_555
H20 C30 1_555 1_555
C31 C2 1_555 1_555
H21 C31 1_555 1_555
H22 C31 1_555 1_555
C32 C31 1_555 1_555
H23 C32 1_555 1_555
H24 C32 1_555 1_555
C33 C32 1_555 1_555
H25 C33 1_555 1_555
H26 C33 1_555 1_555
C34 C8 1_555 1_555
H27 C34 1_555 1_555
H28 C34 1_555 1_555
C35 C34 1_555 1_555
H29 C35 1_555 1_555
H30 C35 1_555 1_555
C36 C35 1_555 1_555
H31 C36 1_555 1_555
H32 C36 1_555 1_555
C37 C14 1_555 1_555
H33 C37 1_555 1_555
H34 C37 1_555 1_555
C38 C37 1_555 1_555
H35 C38 1_555 1_555
H36 C38 1_555 1_555
C39 C38 1_555 1_555
H37 C39 1_555 1_555
H38 C39 1_555 1_555
C40 C20 1_555 1_555
H39 C40 1_555 1_555
H40 C40 1_555 1_555
C41 C40 1_555 1_555
H41 C41 1_555 1_555
H42 C41 1_555 1_555
C42 C41 1_555 1_555
H43 C42 1_555 1_555
H44 C42 1_555 1_555
C43 C26 1_555 1_555
H45 C43 1_555 1_555
H46 C43 1_555 1_555
C44 C43 1_555 1_555
H47 C44 1_555 1_555
H48 C44 1_555 1_555
C45 C44 1_555 1_555
H49 C45 1_555 1_555
H50 C45 1_555 1_555
N1 C2 1_555 1_555
N2 C1 1_555 1_555
N3 C2 1_555 1_555
N4 C3 1_555 1_555
N5 C5 1_555 1_555
N6 C7 1_555 1_555
N7 C6 1_555 1_555
N8 C9 1_555 1_555
N9 C11 1_555 1_555
N10 C13 1_555 1_555
N11 C12 1_555 1_555
N12 C15 1_555 1_555
N13 C17 1_555 1_555
N14 C19 1_555 1_555
N15 C18 1_555 1_555
N16 C21 1_555 1_555
N17 C23 1_555 1_555
N18 C25 1_555 1_555
N19 C24 1_555 1_555
N20 C27 1_555 1_555
O6 C1 1_555 1_555
O7 C7 1_555 1_555
O8 C13 1_555 1_555
O9 C19 1_555 1_555
O10 C25 1_555 1_555
O11 C4 1_555 1_555
O12 C10 1_555 1_555
O13 C16 1_555 1_555
O14 C22 1_555 1_555
O15 C28 1_555 1_555
C46 N21 1_555 1_555
C47 C48 1_555 1_555
C48 C78 1_555 1_555
C49 N23 1_555 1_555
C50 H51 1_555 1_555
H52 C50 1_555 1_555
C51 H53 1_555 1_555
H54 C51 1_555 1_555
C52 N25 1_555 1_555
C53 C54 1_555 1_555
C54 C81 1_555 1_555
C55 N27 1_555 1_555
C56 H55 1_555 1_555
H56 C56 1_555 1_555
C57 H57 1_555 1_555
H58 C57 1_555 1_555
C58 N29 1_555 1_555
C59 C60 1_555 1_555
C60 C84 1_555 1_555
C61 N31 1_555 1_555
C62 H59 1_555 1_555
H60 C62 1_555 1_555
C63 H61 1_555 1_555
H62 C63 1_555 1_555
C64 N33 1_555 1_555
C65 C66 1_555 1_555
C66 C87 1_555 1_555
C67 N35 1_555 1_555
C68 H63 1_555 1_555
H64 C68 1_555 1_555
C69 H65 1_555 1_555
H66 C69 1_555 1_555
C70 N37 1_555 1_555
C71 C72 1_555 1_555
C72 C90 1_555 1_555
C73 N39 1_555 1_555
C74 H67 1_555 1_555
H68 C74 1_555 1_555
C75 H69 1_555 1_555
H70 C75 1_555 1_555
C76 C47 1_555 1_555
H71 C76 1_555 1_555
H72 C76 1_555 1_555
C77 C76 1_555 1_555
H73 C77 1_555 1_555
H74 C77 1_555 1_555
C78 C77 1_555 1_555
H75 C78 1_555 1_555
H76 C78 1_555 1_555
C79 C53 1_555 1_555
H77 C79 1_555 1_555
H78 C79 1_555 1_555
C80 C79 1_555 1_555
H79 C80 1_555 1_555
H80 C80 1_555 1_555
C81 C80 1_555 1_555
H81 C81 1_555 1_555
H82 C81 1_555 1_555
C82 C59 1_555 1_555
H83 C82 1_555 1_555
H84 C82 1_555 1_555
C83 C82 1_555 1_555
H85 C83 1_555 1_555
H86 C83 1_555 1_555
C84 C83 1_555 1_555
H87 C84 1_555 1_555
H88 C84 1_555 1_555
C85 C65 1_555 1_555
H89 C85 1_555 1_555
H90 C85 1_555 1_555
C86 C85 1_555 1_555
H91 C86 1_555 1_555
H92 C86 1_555 1_555
C87 C86 1_555 1_555
H93 C87 1_555 1_555
H94 C87 1_555 1_555
C88 C71 1_555 1_555
H95 C88 1_555 1_555
H96 C88 1_555 1_555
C89 C88 1_555 1_555
H97 C89 1_555 1_555
H98 C89 1_555 1_555
C90 C89 1_555 1_555
H99 C90 1_555 1_555
H100 C90 1_555 1_555
N21 C47 1_555 1_555
N22 C46 1_555 1_555
N23 C47 1_555 1_555
N24 C48 1_555 1_555
N25 C50 1_555 1_555
N26 C52 1_555 1_555
N27 C51 1_555 1_555
N28 C54 1_555 1_555
N29 C56 1_555 1_555
N30 C58 1_555 1_555
N31 C57 1_555 1_555
N32 C60 1_555 1_555
N33 C62 1_555 1_555
N34 C64 1_555 1_555
N35 C63 1_555 1_555
N36 C66 1_555 1_555
N37 C68 1_555 1_555
N38 C70 1_555 1_555
N39 C69 1_555 1_555
N40 C72 1_555 1_555
O16 C46 1_555 1_555
O17 C52 1_555 1_555
O18 C58 1_555 1_555
O19 C64 1_555 1_555
O20 C70 1_555 1_555
O21 C49 1_555 1_555
O22 C55 1_555 1_555
O23 C61 1_555 1_555
O24 C67 1_555 1_555
O25 C73 1_555 1_555
C91 N41 1_555 1_555
C92 C93 1_555 1_555
C93 C123 1_555 1_555
C94 N43 1_555 1_555
C95 H101 1_555 1_555
H102 C95 1_555 1_555
C96 H103 1_555 1_555
H104 C96 1_555 1_555
C97 N45 1_555 1_555
C98 C99 1_555 1_555
C99 C126 1_555 1_555
C100 N47 1_555 1_555
C101 H105 1_555 1_555
H106 C101 1_555 1_555
C102 H107 1_555 1_555
H108 C102 1_555 1_555
C103 N49 1_555 1_555
C104 C105 1_555 1_555
C105 C129 1_555 1_555
C106 N51 1_555 1_555
C107 H109 1_555 1_555
H110 C107 1_555 1_555
C108 N52 1_555 1_555
C109 N53 1_555 1_555
C110 C111 1_555 1_555
C111 C132 1_555 1_555
C112 N55 1_555 1_555
C113 H111 1_555 1_555
H112 C113 1_555 1_555
C114 H113 1_555 1_555
H114 C114 1_555 1_555
C115 N57 1_555 1_555
C116 C117 1_555 1_555
C117 C135 1_555 1_555
C118 N59 1_555 1_555
C119 H115 1_555 1_555
H116 C119 1_555 1_555
C120 H117 1_555 1_555
H118 C120 1_555 1_555
C121 C92 1_555 1_555
H119 C121 1_555 1_555
H120 C121 1_555 1_555
C122 C121 1_555 1_555
H121 C122 1_555 1_555
H122 C122 1_555 1_555
C123 C122 1_555 1_555
H123 C123 1_555 1_555
H124 C123 1_555 1_555
C124 C98 1_555 1_555
H125 C124 1_555 1_555
H126 C124 1_555 1_555
C125 C124 1_555 1_555
H127 C125 1_555 1_555
H128 C125 1_555 1_555
C126 C125 1_555 1_555
H129 C126 1_555 1_555
H130 C126 1_555 1_555
C127 C104 1_555 1_555
H131 C127 1_555 1_555
H132 C127 1_555 1_555
C128 C127 1_555 1_555
H133 C128 1_555 1_555
H134 C128 1_555 1_555
C129 C128 1_555 1_555
H135 C129 1_555 1_555
H136 C129 1_555 1_555
C130 C110 1_555 1_555
H137 C130 1_555 1_555
H138 C130 1_555 1_555
C131 C130 1_555 1_555
H139 C131 1_555 1_555
H140 C131 1_555 1_555
C132 C131 1_555 1_555
H141 C132 1_555 1_555
H142 C132 1_555 1_555
C133 C116 1_555 1_555
H143 C133 1_555 1_555
H144 C133 1_555 1_555
C134 C133 1_555 1_555
H145 C134 1_555 1_555
H146 C134 1_555 1_555
C135 C134 1_555 1_555
H147 C135 1_555 1_555
H148 C135 1_555 1_555
N41 C92 1_555 1_555
N42 C91 1_555 1_555
N43 C92 1_555 1_555
N44 C93 1_555 1_555
N45 C95 1_555 1_555
N46 C97 1_555 1_555
N47 C96 1_555 1_555
N48 C99 1_555 1_555
N49 C101 1_555 1_555
N50 C103 1_555 1_555
N51 C102 1_555 1_555
N52 C105 1_555 1_555
N53 C107 1_555 1_555
N54 C109 1_555 1_555
N55 C108 1_555 1_555
N56 C111 1_555 1_555
N57 C113 1_555 1_555
N58 C115 1_555 1_555
N59 C114 1_555 1_555
N60 C117 1_555 1_555
O26 C91 1_555 1_555
O27 C97 1_555 1_555
O28 C103 1_555 1_555
O29 C109 1_555 1_555
O30 C115 1_555 1_555
O31 C94 1_555 1_555
O32 C100 1_555 1_555
O33 C106 1_555 1_555
O34 C112 1_555 1_555
O35 C118 1_555 1_555
C3 N2 1_555 1_555
C4 N4 1_555 1_555
C5 N2 1_555 1_555
C6 N4 1_555 1_555
C8 N5 1_555 1_555
C8 N7 1_555 1_555
C9 N6 1_555 1_555
C10 N8 1_555 1_555
C11 N6 1_555 1_555
C12 N8 1_555 1_555
C14 N9 1_555 1_555
C14 N11 1_555 1_555
C15 N10 1_555 1_555
C16 N12 1_555 1_555
C17 N10 1_555 1_555
C18 N12 1_555 1_555
C20 N13 1_555 1_555
C20 N15 1_555 1_555
C21 N14 1_555 1_555
C22 N16 1_555 1_555
C23 N14 1_555 1_555
C24 N16 1_555 1_555
C26 N17 1_555 1_555
C26 N19 1_555 1_555
C27 N18 1_555 1_555
C28 N20 1_555 1_555
C29 N1 1_555 1_555
C29 N18 1_555 1_555
C30 N3 1_555 1_555
C30 N20 1_555 1_555
C48 N22 1_555 1_555
C49 N24 1_555 1_555
C50 N22 1_555 1_555
C51 N24 1_555 1_555
C53 N25 1_555 1_555
C53 N27 1_555 1_555
C54 N26 1_555 1_555
C55 N28 1_555 1_555
C56 N26 1_555 1_555
C57 N28 1_555 1_555
C59 N29 1_555 1_555
C59 N31 1_555 1_555
C60 N30 1_555 1_555
C61 N32 1_555 1_555
C62 N30 1_555 1_555
C63 N32 1_555 1_555
C65 N33 1_555 1_555
C65 N35 1_555 1_555
C66 N34 1_555 1_555
C67 N36 1_555 1_555
C68 N34 1_555 1_555
C69 N36 1_555 1_555
C71 N37 1_555 1_555
C71 N39 1_555 1_555
C72 N38 1_555 1_555
C73 N40 1_555 1_555
C74 N21 1_555 1_555
C74 N38 1_555 1_555
C75 N23 1_555 1_555
C75 N40 1_555 1_555
C93 N42 1_555 1_555
C94 N44 1_555 1_555
C95 N42 1_555 1_555
C96 N44 1_555 1_555
C98 N45 1_555 1_555
C98 N47 1_555 1_555
C99 N46 1_555 1_555
C100 N48 1_555 1_555
C101 N46 1_555 1_555
C102 N48 1_555 1_555
C104 N49 1_555 1_555
C104 N51 1_555 1_555
C105 N50 1_555 1_555
C106 N52 1_555 1_555
C107 N50 1_555 1_555
C110 N53 1_555 1_555
C110 N55 1_555 1_555
C111 N54 1_555 1_555
C112 N56 1_555 1_555
C113 N54 1_555 1_555
C114 N56 1_555 1_555
C116 N57 1_555 1_555
C116 N59 1_555 1_555
C117 N58 1_555 1_555
C118 N60 1_555 1_555
C119 N41 1_555 1_555
C119 N58 1_555 1_555
C120 N43 1_555 1_555
C120 N60 1_555 1_555

#END
