
#######################################################################
#
#                 Cambridge Crystallographic Data Centre
#                                CCDC 
#
#######################################################################
#
# If this CIF has been generated from an entry in the Cambridge 
# Structural Database, then it will include bibliographic, chemical, 
# crystal, experimental, refinement or atomic coordinate data resulting 
# from the CCDC's data processing and validation procedures.
#
#######################################################################

data_DATYII
_chemical_formula_moiety         'C12 H16 N4 O4'
_chemical_name_systematic        
3,9-Dioxa-1,5,7,11-tetraazapentacyclo[9.6.1.0^5,17^.0^7,12^.0^12,17^]octadecane-6,18-dione
_symmetry_cell_setting           monoclinic
_symmetry_space_group_name_H-M   'P 21/c'
_symmetry_Int_Tables_number      14
_space_group_name_Hall           '-P 2ybc'
loop_
_symmetry_equiv_pos_site_id
_symmetry_equiv_pos_as_xyz
1 x,y,z
2 -x,1/2+y,1/2-z
3 -x,-y,-z
4 x,1/2-y,1/2+z
_cell_length_a                   8.402(3)
_cell_length_b                   11.908(4)
_cell_length_c                   13.721(4)
_cell_angle_alpha                90
_cell_angle_beta                 114.964(18)
_cell_angle_gamma                90
_cell_volume                     1244.54
_exptl_crystal_colour            colorless
_exptl_crystal_description       block
_cell_formula_units_Z            4
loop_
_atom_site_label
_atom_site_type_symbol
_atom_site_fract_x
_atom_site_fract_y
_atom_site_fract_z
O1 O 0.79575(12) -0.51248(7) -0.20212(8)
O2 O 0.78358(12) -0.10000(7) -0.29792(7)
O3 O 1.12581(12) -0.29666(7) -0.16077(7)
O4 O 0.46060(11) -0.31494(7) -0.33022(7)
N1 N 0.94092(13) -0.36862(8) -0.08374(8)
N2 N 0.64675(13) -0.37472(8) -0.15313(8)
N3 N 0.93420(12) -0.17295(8) -0.12599(8)
N4 N 0.64093(12) -0.18139(8) -0.20349(8)
C1 C 0.79541(16) -0.42695(10) -0.15343(10)
C2 C 0.89274(16) -0.25620(9) -0.06080(9)
C3 C 0.68937(16) -0.25927(9) -0.11224(9)
C4 C 0.78675(16) -0.14834(10) -0.21885(10)
C5 C 1.10851(16) -0.37862(11) -0.08966(11)
H1 H 1.2026 -0.3689 -0.0184
H2 H 1.1191 -0.4532 -0.1148
C6 C 1.10358(17) -0.18520(11) -0.12888(12)
H3 H 1.1135 -0.1314 -0.1791
H4 H 1.1958 -0.1693 -0.0583
C7 C 0.47885(17) -0.38955(11) -0.24483(11)
H5 H 0.4687 -0.4664 -0.2701
H6 H 0.3849 -0.3759 -0.2229
C8 C 0.47480(17) -0.20178(11) -0.29401(11)
H7 H 0.3800 -0.1857 -0.2734
H8 H 0.4631 -0.1516 -0.3523
C9 C 0.97242(18) -0.22681(11) 0.05812(10)
H9 H 1.0984 -0.2178 0.0837
H10 H 0.9513 -0.2877 0.0982
C10 C 0.89296(19) -0.11817(12) 0.07784(11)
H11 H 0.9401 -0.0551 0.0537
H12 H 0.9288 -0.1095 0.1545
C11 C 0.69230(19) -0.11444(12) 0.02072(11)
H13 H 0.6462 -0.0967 0.0729
H14 H 0.6573 -0.0547 -0.0323
C12 C 0.61107(19) -0.22492(12) -0.03510(11)
H15 H 0.6328 -0.2833 0.0184
H16 H 0.4851 -0.2160 -0.0743
loop_
_geom_bond_atom_site_label_1
_geom_bond_atom_site_label_2
_geom_bond_site_symmetry_1
_geom_bond_site_symmetry_2
O1 C1 1_555 1_555
O2 C4 1_555 1_555
O3 C5 1_555 1_555
O4 C7 1_555 1_555
N1 C1 1_555 1_555
N2 C1 1_555 1_555
N3 C2 1_555 1_555
N4 C3 1_555 1_555
C2 N1 1_555 1_555
C3 N2 1_555 1_555
C4 N3 1_555 1_555
C5 N1 1_555 1_555
H1 C5 1_555 1_555
H2 C5 1_555 1_555
C6 O3 1_555 1_555
H3 C6 1_555 1_555
H4 C6 1_555 1_555
C7 N2 1_555 1_555
H5 C7 1_555 1_555
H6 C7 1_555 1_555
C8 O4 1_555 1_555
H7 C8 1_555 1_555
H8 C8 1_555 1_555
C9 C2 1_555 1_555
H9 C9 1_555 1_555
H10 C9 1_555 1_555
C10 C9 1_555 1_555
H11 C10 1_555 1_555
H12 C10 1_555 1_555
C11 C10 1_555 1_555
H13 C11 1_555 1_555
H14 C11 1_555 1_555
C12 C3 1_555 1_555
H15 C12 1_555 1_555
H16 C12 1_555 1_555
N3 C6 1_555 1_555
N4 C4 1_555 1_555
N4 C8 1_555 1_555
C2 C3 1_555 1_555
C11 C12 1_555 1_555

#END
