
#######################################################################
#
#                 Cambridge Crystallographic Data Centre
#                                CCDC 
#
#######################################################################
#
# If this CIF has been generated from an entry in the Cambridge 
# Structural Database, then it will include bibliographic, chemical, 
# crystal, experimental, refinement or atomic coordinate data resulting 
# from the CCDC's data processing and validation procedures.
#
#######################################################################

data_DATZEF
_chemical_formula_moiety         'C24 H14 B1 F2 N3 S4'
_chemical_name_systematic        
5,5-Difluoro-1,3,7,9-tetrakis(2-thienyl)-5H-4\l^5^,5\l^5^-dipyrrolo[1,2-c:2',1'-f][1,3,5,2]triazaborinine
_symmetry_cell_setting           orthorhombic
_symmetry_space_group_name_H-M   'P c a 21'
_symmetry_Int_Tables_number      29
_space_group_name_Hall           'P 2c -2ac'
loop_
_symmetry_equiv_pos_site_id
_symmetry_equiv_pos_as_xyz
1 x,y,z
2 -x,-y,1/2+z
3 1/2+x,-y,z
4 1/2-x,y,1/2+z
_cell_length_a                   12.984(11)
_cell_length_b                   16.310(13)
_cell_length_c                   21.560(17)
_cell_angle_alpha                90
_cell_angle_beta                 90
_cell_angle_gamma                90
_cell_volume                     4565.74
_exptl_crystal_colour            purple
_exptl_crystal_description       block
_cell_formula_units_Z            8
loop_
_atom_site_label
_atom_site_type_symbol
_atom_site_fract_x
_atom_site_fract_y
_atom_site_fract_z
S1 S 0.9468(5) 0.1102(4) -0.0682(4)
C1 C 1.0510(3) -0.0033(3) 0.0016(3)
H1 H 1.0718 -0.0379 0.0335
S3 S 0.3569(3) 0.3635(3) 0.0622(2)
S4 S 0.8172(4) -0.0552(3) 0.2249(3)
F2 F 0.5503(5) 0.1121(4) 0.1311(3)
C2 C 1.0993(10) 0.0170(8) -0.0614(6)
H2 H 1.1614 -0.0080 -0.0716
C3 C 1.0449(10) 0.0790(8) -0.0996(6)
H3 H 1.0646 0.0972 -0.1357
C4 C 0.9475(8) 0.0583(6) -0.0064(6)
N1 N 0.6034(7) 0.2157(5) 0.0549(4)
F4 F 0.6514(5) 0.2166(4) 0.1639(3)
N2 N 0.7276(6) 0.1140(5) 0.0977(4)
N3 N 0.7531(7) 0.1706(5) -0.0041(4)
S8 S 0.7657(4) 0.2388(3) -0.1360(2)
C9 C 0.6673(9) 0.2148(6) 0.0041(6)
C11 C 0.8679(9) 0.0665(6) 0.0420(5)
C12 C 0.7826(9) 0.0543(6) 0.1330(6)
C15 C 0.7806(8) 0.1185(6) 0.0435(6)
C16 C 0.7505(10) 0.0301(7) 0.1949(7)
C19 C 0.5266(9) 0.2703(6) 0.0443(5)
B1 B 0.6325(10) 0.1634(7) 0.1157(6)
C22 C 0.4422(9) 0.2878(7) 0.0852(7)
C24 C 0.6347(8) 0.3648(7) -0.1417(5)
H8 H 0.5857 0.4045 -0.1323
C25 C 0.6772(8) 0.0640(6) 0.2424(5)
H9 H 0.6354 0.1100 0.2382
C29 C 0.6289(8) 0.2755(6) -0.0430(6)
C32 C 0.8667(9) 0.0249(7) 0.0981(6)
H13 H 0.9132 -0.0152 0.1105
C33 C 0.6678(9) 0.2920(7) -0.1025(6)
C37 C 0.4145(9) 0.2561(7) 0.1459(8)
H17 H 0.4513 0.2167 0.1679
C39 C 0.5404(9) 0.3045(7) -0.0148(7)
H19 H 0.4957 0.3422 -0.0328
C40 C 0.6847(12) 0.0091(9) 0.2978(7)
H20 H 0.6468 0.0162 0.3340
C41 C 0.2828(11) 0.3529(10) 0.1247(8)
H21 H 0.2224 0.3825 0.1308
C42 C 0.3201(12) 0.2956(10) 0.1670(10)
H22 H 0.2882 0.2838 0.2046
C45 C 0.7554(13) -0.0538(10) 0.2886(8)
H25 H 0.7663 -0.0937 0.3187
C46 C 0.6946(14) 0.3581(10) -0.1944(9)
H26 H 0.6850 0.3945 -0.2271
C48 C 0.7679(13) 0.2981(9) -0.1989(7)
H28 H 0.8125 0.2914 -0.2323
S2 S 0.1422(3) 0.1394(2) 0.44710(19)
S5 S 0.6062(4) 0.5559(2) 0.2851(2)
S6 S 0.5618(4) 0.2471(3) 0.6429(3)
S7 S 0.7307(3) 0.3917(2) 0.5834(2)
F1 F 0.3373(4) 0.3917(4) 0.3821(3)
F3 F 0.4339(5) 0.2837(4) 0.3458(3)
C5 C 0.8307(6) 0.4984(5) 0.5081(4)
H4 H 0.8507 0.5321 0.4754
C6 C 0.7330(9) 0.4441(6) 0.5152(6)
C7 C 0.4573(8) 0.2864(6) 0.5061(6)
N4 N 0.3934(7) 0.2881(5) 0.4547(4)
N5 N 0.5408(7) 0.3285(5) 0.5120(5)
C8 C 0.4623(8) 0.4407(7) 0.2694(5)
H5 H 0.4194 0.3954 0.2739
N6 N 0.5183(7) 0.3865(5) 0.4105(5)
C10 C 0.6552(8) 0.4327(7) 0.4671(6)
C13 C 0.1877(10) 0.2567(7) 0.3697(5)
H6 H 0.2205 0.2998 0.3495
C14 C 0.5719(8) 0.3785(6) 0.4660(5)
C17 C 0.4092(6) 0.1358(5) 0.6523(4)
H7 H 0.3504 0.1045 0.6458
C18 C 0.3096(8) 0.2350(7) 0.4663(6)
C20 C 0.5468(10) 0.4740(7) 0.3137(6)
C21 C 0.4597(9) 0.2064(7) 0.6099(6)
C23 C 0.5672(10) 0.4424(7) 0.3768(6)
C26 C 0.8845(10) 0.4812(8) 0.5693(7)
H10 H 0.9481 0.5045 0.5783
C27 C 0.4172(10) 0.2298(6) 0.5519(6)
C28 C 0.2228(8) 0.2184(7) 0.4248(7)
C30 C 0.3272(10) 0.1969(7) 0.5251(6)
H11 H 0.2858 0.1567 0.5429
C31 C 0.8409(10) 0.4352(7) 0.6068(6)
H12 H 0.8681 0.4253 0.6460
B2 B 0.4194(10) 0.3389(7) 0.3953(6)
C34 C 0.0668(10) 0.1555(8) 0.3867(7)
H14 H 0.0092 0.1237 0.3779
C35 C 0.6504(8) 0.4719(7) 0.4107(6)
H15 H 0.6959 0.5121 0.3973
C36 C 0.5625(12) 0.1882(10) 0.7026(7)
H16 H 0.6145 0.1921 0.7322
C38 C 0.4683(12) 0.4988(10) 0.2194(6)
H18 H 0.4242 0.4941 0.1856
C43 C 0.0975(12) 0.2204(10) 0.3509(8)
H23 H 0.0604 0.2383 0.3166
C44 C 0.5363(12) 0.5588(10) 0.2214(7)
H24 H 0.5439 0.5981 0.1904
C47 C 0.4888(13) 0.1349(9) 0.7087(8)
H27 H 0.4830 0.0997 0.7425
C49? C 0.9468(5) 0.1102(4) -0.0682(4)
H29? H 0.8996 0.1491 -0.0818
S9? S 1.0510(3) -0.0033(3) 0.0016(3)
loop_
_geom_bond_atom_site_label_1
_geom_bond_atom_site_label_2
_geom_bond_site_symmetry_1
_geom_bond_site_symmetry_2
S1 C3 1_555 1_555
C1 H1 1_555 1_555
S2 C28 1_555 1_555
S3 C22 1_555 1_555
S4 C16 1_555 1_555
S5 C20 1_555 1_555
S6 C21 1_555 1_555
S7 C6 1_555 1_555
F1 B2 1_555 1_555
F2 B1 1_555 1_555
C2 C1 1_555 1_555
H2 C2 1_555 1_555
C3 C2 1_555 1_555
H3 C3 1_555 1_555
C4 S1 1_555 1_555
F3 B2 1_555 1_555
N1 C9 1_555 1_555
F4 B1 1_555 1_555
N2 C12 1_555 1_555
C5 H4 1_555 1_555
C6 C5 1_555 1_555
C7 N4 1_555 1_555
N3 C9 1_555 1_555
S8 C33 1_555 1_555
N4 C18 1_555 1_555
N5 C7 1_555 1_555
C8 H5 1_555 1_555
N6 C14 1_555 1_555
C9 C29 1_555 1_555
C10 C6 1_555 1_555
C11 C4 1_555 1_555
C12 C16 1_555 1_555
C13 H6 1_555 1_555
C14 N5 1_555 1_555
C15 N2 1_555 1_555
C16 C25 1_555 1_555
C17 H7 1_555 1_555
C18 C28 1_555 1_555
C19 N1 1_555 1_555
C20 C8 1_555 1_555
C21 C17 1_555 1_555
B1 N1 1_555 1_555
C22 C19 1_555 1_555
C23 N6 1_555 1_555
C24 H8 1_555 1_555
C25 H9 1_555 1_555
C26 C5 1_555 1_555
H10 C26 1_555 1_555
C27 C7 1_555 1_555
C28 C13 1_555 1_555
C29 C33 1_555 1_555
C30 C18 1_555 1_555
H11 C30 1_555 1_555
C31 S7 1_555 1_555
H12 C31 1_555 1_555
C32 C11 1_555 1_555
H13 C32 1_555 1_555
B2 N4 1_555 1_555
C33 C24 1_555 1_555
C34 S2 1_555 1_555
H14 C34 1_555 1_555
C35 C10 1_555 1_555
H15 C35 1_555 1_555
C36 S6 1_555 1_555
H16 C36 1_555 1_555
C37 C22 1_555 1_555
H17 C37 1_555 1_555
C38 C8 1_555 1_555
H18 C38 1_555 1_555
C39 C19 1_555 1_555
H19 C39 1_555 1_555
C40 C25 1_555 1_555
H20 C40 1_555 1_555
C41 S3 1_555 1_555
H21 C41 1_555 1_555
C42 C37 1_555 1_555
H22 C42 1_555 1_555
C43 C13 1_555 1_555
H23 C43 1_555 1_555
C44 S5 1_555 1_555
H24 C44 1_555 1_555
C45 S4 1_555 1_555
H25 C45 1_555 1_555
C46 C24 1_555 1_555
H26 C46 1_555 1_555
C47 C17 1_555 1_555
H27 C47 1_555 1_555
C48 S8 1_555 1_555
H28 C48 1_555 1_555
C1 C4 1_555 1_555
N2 B1 1_555 1_555
N3 C15 1_555 1_555
N6 B2 1_555 1_555
C10 C14 1_555 1_555
C11 C15 1_555 1_555
C12 C32 1_555 1_555
C20 C23 1_555 1_555
C21 C27 1_555 1_555
C23 C35 1_555 1_555
C26 C31 1_555 1_555
C27 C30 1_555 1_555
C29 C39 1_555 1_555
C34 C43 1_555 1_555
C36 C47 1_555 1_555
C38 C44 1_555 1_555
C40 C45 1_555 1_555
C41 C42 1_555 1_555
C46 C48 1_555 1_555

#END
