
#######################################################################
#
#                 Cambridge Crystallographic Data Centre
#                                CCDC 
#
#######################################################################
#
# If this CIF has been generated from an entry in the Cambridge 
# Structural Database, then it will include bibliographic, chemical, 
# crystal, experimental, refinement or atomic coordinate data resulting 
# from the CCDC's data processing and validation procedures.
#
#######################################################################

data_DATZAB
_chemical_formula_moiety         'C28 H18 B1 F2 N3 S2'
_chemical_name_systematic        
5,5-Difluoro-1,9-diphenyl-3,7-di(2-thienyl)-5H-4\l^5^,5\l^5^-dipyrrolo[1,2-c:2',1'-f][1,3,5,2]triazaborinine
_symmetry_cell_setting           orthorhombic
_symmetry_space_group_name_H-M   'P n a 21'
_symmetry_Int_Tables_number      33
_space_group_name_Hall           'P 2c -2n'
loop_
_symmetry_equiv_pos_site_id
_symmetry_equiv_pos_as_xyz
1 x,y,z
2 -x,-y,1/2+z
3 1/2+x,1/2-y,z
4 1/2-x,1/2+y,1/2+z
_cell_length_a                   10.776(2)
_cell_length_b                   12.517(3)
_cell_length_c                   17.465(4)
_cell_angle_alpha                90
_cell_angle_beta                 90
_cell_angle_gamma                90
_cell_volume                     2355.73
_exptl_crystal_colour            brown
_exptl_crystal_description       block
_cell_formula_units_Z            4
loop_
_atom_site_label
_atom_site_type_symbol
_atom_site_fract_x
_atom_site_fract_y
_atom_site_fract_z
C1 C 0.43470(16) 0.59307(12) 0.46053(10)
H1 H 0.3726 0.5529 0.4838
C2 C 0.69012(15) 1.32948(13) 0.45601(11)
H2 H 0.6639 1.3932 0.4781
S3 S 0.71561(14) 1.12743(13) 0.41379(11)
S4 S 0.59239(17) 0.75197(16) 0.41464(13)
F1 F 0.63237(17) 0.94744(16) 0.51540(14)
F2 F 0.49924(18) 0.98157(16) 0.41699(14)
N1 N 0.3129(2) 1.0265(2) 0.60845(17)
N2 N 0.4829(2) 1.0881(2) 0.53157(17)
N3 N 0.4169(2) 0.8971(2) 0.53065(17)
C5 C 0.5380(5) 0.5628(4) 0.4018(3)
H5 H 0.5435 0.4947 0.3809
C6 C 0.6176(4) 0.6415(4) 0.3815(3)
H6 H 0.6863 0.6277 0.3509
C7 C 0.4739(3) 0.7233(3) 0.4676(2)
C8 C 0.4017(3) 0.7906(3) 0.5168(2)
C9 C 0.2997(3) 0.7539(3) 0.5601(2)
H7 H 0.2724 0.6835 0.5620
C10 C 0.2485(3) 0.8375(3) 0.5995(2)
C11 C 0.3246(3) 0.9289(3) 0.5808(2)
C12 C 0.1401(3) 0.8343(3) 0.6497(2)
C13 C 0.0979(4) 0.7351(3) 0.6765(2)
H8 H 0.1416 0.6736 0.6636
C14 C -0.0065(4) 0.7266(4) 0.7212(3)
H9 H -0.0330 0.6599 0.7380
C15 C -0.0721(4) 0.8175(4) 0.7412(3)
H10 H -0.1425 0.8121 0.7717
C16 C -0.0331(4) 0.9155(4) 0.7159(3)
H11 H -0.0777 0.9763 0.7292
C17 C 0.0733(4) 0.9253(3) 0.6702(2)
H12 H 0.0992 0.9922 0.6535
C18 C 0.7921(4) 1.3100(5) 0.4001(3)
H13 H 0.8421 1.3650 0.3819
C19 C 0.8077(4) 1.2053(5) 0.3776(3)
H14 H 0.8680 1.1839 0.3428
C20 C 0.6369(3) 1.2082(3) 0.4679(2)
C21 C 0.5359(3) 1.1858(3) 0.5181(2)
C22 C 0.4750(3) 1.2625(3) 0.5645(2)
H15 H 0.4941 1.3349 0.5663
C23 C 0.3836(3) 1.2133(3) 0.6063(2)
C24 C 0.3894(3) 1.1022(3) 0.5850(2)
C25 C 0.2923(3) 1.2612(3) 0.6581(2)
C26 C 0.2372(4) 1.2031(3) 0.7173(2)
H16 H 0.2628 1.1334 0.7268
C27 C 0.1445(4) 1.2483(3) 0.7621(3)
H17 H 0.1061 1.2081 0.8001
C28 C 0.1092(4) 1.3533(3) 0.7501(3)
H18 H 0.0483 1.3841 0.7807
C29 C 0.1633(4) 1.4117(3) 0.6934(3)
H19 H 0.1386 1.4820 0.6855
C30 C 0.2553(4) 1.3675(3) 0.6472(3)
H20 H 0.2922 1.4085 0.6091
B1 B 0.5120(3) 0.9772(3) 0.4958(2)
S1? S 0.43470(16) 0.59307(12) 0.46053(10)
S2? S 0.69012(15) 1.32948(13) 0.45601(11)
C3? C 0.71561(14) 1.12743(13) 0.41379(11)
H3? H 0.7071 1.0541 0.4068
C4? C 0.59239(17) 0.75197(16) 0.41464(13)
H4? H 0.6330 0.8166 0.4068
loop_
_geom_bond_atom_site_label_1
_geom_bond_atom_site_label_2
_geom_bond_site_symmetry_1
_geom_bond_site_symmetry_2
C1 H1 1_555 1_555
C2 H2 1_555 1_555
S3 C19 1_555 1_555
S4 C6 1_555 1_555
F1 B1 1_555 1_555
F2 B1 1_555 1_555
N1 C11 1_555 1_555
N2 C21 1_555 1_555
N3 C8 1_555 1_555
C5 C1 1_555 1_555
H5 C5 1_555 1_555
C6 C5 1_555 1_555
H6 C6 1_555 1_555
C7 C1 1_555 1_555
C8 C7 1_555 1_555
C9 C8 1_555 1_555
H7 C9 1_555 1_555
C10 C9 1_555 1_555
C11 N3 1_555 1_555
C12 C10 1_555 1_555
C13 C12 1_555 1_555
H8 C13 1_555 1_555
C14 C13 1_555 1_555
H9 C14 1_555 1_555
C15 C14 1_555 1_555
H10 C15 1_555 1_555
C16 C15 1_555 1_555
H11 C16 1_555 1_555
C17 C12 1_555 1_555
H12 C17 1_555 1_555
C18 C2 1_555 1_555
H13 C18 1_555 1_555
C19 C18 1_555 1_555
H14 C19 1_555 1_555
C20 C2 1_555 1_555
C21 C20 1_555 1_555
C22 C21 1_555 1_555
H15 C22 1_555 1_555
C23 C22 1_555 1_555
C24 N1 1_555 1_555
C25 C23 1_555 1_555
C26 C25 1_555 1_555
H16 C26 1_555 1_555
C27 C26 1_555 1_555
H17 C27 1_555 1_555
C28 C27 1_555 1_555
H18 C28 1_555 1_555
C29 C28 1_555 1_555
H19 C29 1_555 1_555
C30 C25 1_555 1_555
H20 C30 1_555 1_555
B1 N2 1_555 1_555
S3 C20 1_555 1_555
S4 C7 1_555 1_555
N2 C24 1_555 1_555
N3 B1 1_555 1_555
C10 C11 1_555 1_555
C16 C17 1_555 1_555
C23 C24 1_555 1_555
C29 C30 1_555 1_555

#END
