
#######################################################################
#
#                 Cambridge Crystallographic Data Centre
#                                CCDC 
#
#######################################################################
#
# If this CIF has been generated from an entry in the Cambridge 
# Structural Database, then it will include bibliographic, chemical, 
# crystal, experimental, refinement or atomic coordinate data resulting 
# from the CCDC's data processing and validation procedures.
#
#######################################################################

data_DAVFAH
_chemical_formula_moiety         'C22 H25 N1 O3'
_chemical_name_systematic        
(4S)-N-(2-(1'-Methylethyl)-3-phenylpropanoyl)-4-benzyl-1,3-oxazolidin-2-one
_symmetry_cell_setting           orthorhombic
_symmetry_space_group_name_H-M   'P 21 21 21'
_symmetry_Int_Tables_number      19
_space_group_name_Hall           'P 2ac 2ab'
loop_
_symmetry_equiv_pos_site_id
_symmetry_equiv_pos_as_xyz
1 x,y,z
2 1/2-x,-y,1/2+z
3 -x,1/2+y,1/2-z
4 1/2+x,1/2-y,-z
_cell_length_a                   6.4010(9)
_cell_length_b                   17.414(5)
_cell_length_c                   17.595(2)
_cell_angle_alpha                90
_cell_angle_beta                 90
_cell_angle_gamma                90
_cell_volume                     1961.26
_exptl_crystal_colour            colorless
_exptl_crystal_description       needle
_chemical_melting_point          128-128.5deg.C
_cell_formula_units_Z            4
_exptl_crystal_recrystallization_method 'ethyl acetate/hexane'
loop_
_atom_site_label
_atom_site_type_symbol
_atom_site_fract_x
_atom_site_fract_y
_atom_site_fract_z
O1 O -0.4732(8) -0.4333(3) 0.0429(3)
O2 O -0.0010(9) -0.5808(4) -0.0364(4)
O3 O -0.2677(9) -0.6622(3) -0.0368(3)
N1 N -0.3317(9) -0.5447(3) 0.0064(3)
C1 C -0.0739(13) -0.3963(4) 0.1519(4)
C2 C -0.2398(13) -0.3953(4) 0.2026(5)
H1 H -0.3690(13) -0.3716(4) 0.1879(5)
C3 C -0.2222(15) -0.4279(5) 0.2740(5)
H2 H -0.3387(15) -0.4265(5) 0.3083(5)
C4 C -0.0396(17) -0.4619(5) 0.2958(5)
H3 H -0.0293(17) -0.4845(5) 0.3454(5)
C5 C 0.1305(15) -0.4644(5) 0.2476(5)
H4 H 0.2580(15) -0.4891(5) 0.2627(5)
C6 C 0.1114(13) -0.4299(4) 0.1766(4)
H5 H 0.2304(13) -0.4292(4) 0.1434(4)
C7 C -0.0872(14) -0.3632(4) 0.0735(4)
H6 H 0.0361(14) -0.3335(4) 0.0636(4)
H7 H -0.2053(14) -0.3293(4) 0.0707(4)
C8 C -0.1089(12) -0.4255(4) 0.0124(4)
H8 H 0.0008(12) -0.4623(4) 0.0197(4)
C9 C -0.0953(13) -0.3953(5) -0.0700(4)
H9 H -0.1404(13) -0.4358(5) -0.1031(4)
C10 C 0.1317(15) -0.3769(6) -0.0897(5)
H10 H 0.2174(15) -0.4209(6) -0.0795(5)
H11 H 0.1786(15) -0.3344(6) -0.0595(5)
H12 H 0.1417(15) -0.3638(6) -0.1426(5)
C11 C -0.2314(16) -0.3254(5) -0.0862(5)
H13 H -0.3740(16) -0.3369(5) -0.0738(5)
H14 H -0.2214(16) -0.3123(5) -0.1391(5)
H15 H -0.1845(16) -0.2828(5) -0.0560(5)
C12 C -0.3165(12) -0.4663(4) 0.0219(4)
C13 C -0.1802(15) -0.5934(5) -0.0227(5)
C14 C -0.4908(13) -0.6592(5) -0.0256(5)
H16 H -0.5381(13) -0.7034(5) 0.0022(5)
H17 H -0.5622(13) -0.6575(5) -0.0735(5)
C15 C -0.5300(11) -0.5858(5) 0.0196(5)
H18 H -0.6436(11) -0.5576(5) -0.0026(5)
C16 C -0.5715(13) -0.5988(5) 0.1039(4)
H19 H -0.5772(13) -0.5497(5) 0.1286(4)
H20 H -0.7064(13) -0.6222(5) 0.1092(4)
C17 C -0.4156(14) -0.6473(4) 0.1443(4)
C18 C -0.2279(14) -0.6186(5) 0.1707(5)
H21 H -0.1994(14) -0.5648(5) 0.1651(5)
C19 C -0.0819(15) -0.6643(6) 0.2044(4)
H22 H 0.0495(15) -0.6428(6) 0.2199(4)
C20 C -0.1214(17) -0.7407(5) 0.2164(4)
H23 H -0.0213(17) -0.7727(5) 0.2418(4)
C21 C -0.3107(17) -0.7706(5) 0.1907(5)
H24 H -0.3392(17) -0.8243(5) 0.1972(5)
C22 C -0.4558(15) -0.7252(5) 0.1564(5)
H25 H -0.5866(15) -0.7468(5) 0.1405(5)
loop_
_geom_bond_atom_site_label_1
_geom_bond_atom_site_label_2
_geom_bond_site_symmetry_1
_geom_bond_site_symmetry_2
O1 C12 1_555 1_555
O2 C13 1_555 1_555
O3 C13 1_555 1_555
N1 C12 1_555 1_555
C1 C2 1_555 1_555
C2 H1 1_555 1_555
C3 C2 1_555 1_555
H2 C3 1_555 1_555
C4 C3 1_555 1_555
H3 C4 1_555 1_555
C5 C4 1_555 1_555
H4 C5 1_555 1_555
C6 C1 1_555 1_555
H5 C6 1_555 1_555
C7 C1 1_555 1_555
H6 C7 1_555 1_555
H7 C7 1_555 1_555
C8 C7 1_555 1_555
H8 C8 1_555 1_555
C9 C8 1_555 1_555
H9 C9 1_555 1_555
C10 C9 1_555 1_555
H10 C10 1_555 1_555
H11 C10 1_555 1_555
H12 C10 1_555 1_555
C11 C9 1_555 1_555
H13 C11 1_555 1_555
H14 C11 1_555 1_555
H15 C11 1_555 1_555
C12 C8 1_555 1_555
C13 N1 1_555 1_555
C14 O3 1_555 1_555
H16 C14 1_555 1_555
H17 C14 1_555 1_555
C15 N1 1_555 1_555
H18 C15 1_555 1_555
C16 C15 1_555 1_555
H19 C16 1_555 1_555
H20 C16 1_555 1_555
C17 C16 1_555 1_555
C18 C17 1_555 1_555
H21 C18 1_555 1_555
C19 C18 1_555 1_555
H22 C19 1_555 1_555
C20 C19 1_555 1_555
H23 C20 1_555 1_555
C21 C20 1_555 1_555
H24 C21 1_555 1_555
C22 C17 1_555 1_555
H25 C22 1_555 1_555
C5 C6 1_555 1_555
C14 C15 1_555 1_555
C21 C22 1_555 1_555

#END
