
#######################################################################
#
#                 Cambridge Crystallographic Data Centre
#                                CCDC 
#
#######################################################################
#
# If this CIF has been generated from an entry in the Cambridge 
# Structural Database, then it will include bibliographic, chemical, 
# crystal, experimental, refinement or atomic coordinate data resulting 
# from the CCDC's data processing and validation procedures.
#
#######################################################################

data_DAVJER
_chemical_name_common            '3-(3-Methoxycinnamoyl)benzotriazole 1-oxide'
_chemical_formula_moiety         'C16 H13 N3 O3'
_chemical_name_systematic        
1-(3-Hydroxy-1H-1\l^5^,2,3-benzotriazol-1-yl)-3-(3-methoxyphenyl)prop-2-en-1-one
_symmetry_cell_setting           triclinic
_symmetry_space_group_name_H-M   'P -1'
_symmetry_Int_Tables_number      2
_space_group_name_Hall           '-P 1'
loop_
_symmetry_equiv_pos_site_id
_symmetry_equiv_pos_as_xyz
1 x,y,z
2 -x,-y,-z
_cell_length_a                   5.7297(3)
_cell_length_b                   10.8440(6)
_cell_length_c                   11.4965(6)
_cell_angle_alpha                89.689(3)
_cell_angle_beta                 76.019(3)
_cell_angle_gamma                75.047(3)
_cell_volume                     668.443
_exptl_crystal_colour            colorless
_exptl_crystal_description       rhomb
_cell_formula_units_Z            2
loop_
_atom_site_label
_atom_site_type_symbol
_atom_site_fract_x
_atom_site_fract_y
_atom_site_fract_z
O1 O 0.00435(19) 0.86128(10) 0.86137(10)
O2 O 0.7900(2) 0.41182(11) 0.77760(10)
O3 O 0.6468(2) -0.01340(10) 0.30177(10)
N1 N 0.4669(2) 0.58946(12) 0.82007(11)
N2 N 0.2555(2) 0.66495(12) 0.79278(11)
N3 N 0.1923(2) 0.76944(12) 0.86307(11)
C1 C 0.3542(3) 0.76539(14) 0.93795(13)
C2 C 0.3510(3) 0.85515(15) 1.02437(14)
H1 H 0.2277 0.9347 1.0418
C3 C 0.5391(3) 0.82104(15) 1.08319(14)
H2 H 0.5460 0.8783 1.1438
C4 C 0.7212(3) 0.70305(15) 1.05531(14)
H3 H 0.8479 0.6833 1.0979
C5 C 0.7233(3) 0.61433(15) 0.96823(14)
H4 H 0.8471 0.5350 0.9498
C6 C 0.5317(3) 0.64936(14) 0.90947(13)
C7 C 0.5950(3) 0.47110(14) 0.75612(14)
C8 C 0.4756(3) 0.43118(15) 0.66887(14)
H5 H 0.3225 0.4845 0.6590
C9 C 0.5790(3) 0.32119(14) 0.60331(14)
H6 H 0.7311 0.2704 0.6167
C10 C 0.4812(3) 0.27057(14) 0.51234(14)
C11 C 0.6167(3) 0.15257(14) 0.45183(13)
H7 H 0.7677 0.1072 0.4702
C12 C 0.5300(3) 0.10143(14) 0.36448(13)
C13 C 0.3110(3) 0.16890(15) 0.33651(14)
H8 H 0.2532 0.1350 0.2761
C14 C 0.1772(3) 0.28529(15) 0.39655(15)
H9 H 0.0271 0.3308 0.3774
C15 C 0.2602(3) 0.33659(15) 0.48474(14)
H10 H 0.1663 0.4163 0.5259
C16 C 0.8796(3) -0.08325(15) 0.32256(15)
H11 H 1.0003 -0.0320 0.3020
H12 H 0.9422 -0.1634 0.2725
H13 H 0.8560 -0.1022 0.4074
loop_
_geom_bond_atom_site_label_1
_geom_bond_atom_site_label_2
_geom_bond_site_symmetry_1
_geom_bond_site_symmetry_2
O1 N3 1_555 1_555
O2 C7 1_555 1_555
O3 C12 1_555 1_555
N1 N2 1_555 1_555
N2 N3 1_555 1_555
N3 C1 1_555 1_555
C1 C2 1_555 1_555
C2 H1 1_555 1_555
C3 C2 1_555 1_555
H2 C3 1_555 1_555
C4 C3 1_555 1_555
H3 C4 1_555 1_555
C5 C4 1_555 1_555
H4 C5 1_555 1_555
C6 N1 1_555 1_555
C7 N1 1_555 1_555
C8 C7 1_555 1_555
H5 C8 1_555 1_555
C9 C8 1_555 1_555
H6 C9 1_555 1_555
C10 C9 1_555 1_555
C11 C10 1_555 1_555
H7 C11 1_555 1_555
C12 C11 1_555 1_555
C13 C12 1_555 1_555
H8 C13 1_555 1_555
C14 C13 1_555 1_555
H9 C14 1_555 1_555
C15 C10 1_555 1_555
H10 C15 1_555 1_555
C16 O3 1_555 1_555
H11 C16 1_555 1_555
H12 C16 1_555 1_555
H13 C16 1_555 1_555
C1 C6 1_555 1_555
C5 C6 1_555 1_555
C14 C15 1_555 1_555

#END
