
#######################################################################
#
#                 Cambridge Crystallographic Data Centre
#                                CCDC 
#
#######################################################################
#
# If this CIF has been generated from an entry in the Cambridge 
# Structural Database, then it will include bibliographic, chemical, 
# crystal, experimental, refinement or atomic coordinate data resulting 
# from the CCDC's data processing and validation procedures.
#
#######################################################################

data_DAVJUI
_chemical_formula_moiety         'C18 H17 N1 O2'
_chemical_name_systematic        
2-(1-ethyl-2,6-dimethylpyridin-4(1H)-ylidene)-1H-indene-1,3(2H)-dione
_symmetry_cell_setting           monoclinic
_symmetry_space_group_name_H-M   'P 21/n'
_symmetry_Int_Tables_number      14
_space_group_name_Hall           '-P 2yn'
loop_
_symmetry_equiv_pos_site_id
_symmetry_equiv_pos_as_xyz
1 x,y,z
2 1/2-x,1/2+y,1/2-z
3 -x,-y,-z
4 1/2+x,1/2-y,1/2+z
_cell_length_a                   8.914(2)
_cell_length_b                   13.304(3)
_cell_length_c                   12.052(3)
_cell_angle_alpha                90
_cell_angle_beta                 101.441(4)
_cell_angle_gamma                90
_cell_volume                     1400.87
_exptl_crystal_colour            colorless
_exptl_crystal_description       prismatic
_cell_formula_units_Z            4
loop_
_atom_site_label
_atom_site_type_symbol
_atom_site_fract_x
_atom_site_fract_y
_atom_site_fract_z
N1 N 0.15458(16) -0.02924(11) 0.76725(12)
O1 O 0.33314(16) 0.05065(10) 0.38097(11)
O2 O -0.04471(16) 0.26577(10) 0.47565(12)
C1 C 0.2317(2) 0.11326(13) 0.38045(15)
C2 C 0.1427(2) 0.13559(12) 0.46542(14)
C3 C 0.0455(2) 0.22044(13) 0.42807(15)
C4 C 0.0714(2) 0.24859(13) 0.31247(15)
C5 C 0.18053(19) 0.18448(13) 0.28426(14)
C6 C 0.2252(2) 0.19199(14) 0.18167(15)
H1 H 0.2988 0.1491 0.1631
C7 C 0.1568(2) 0.26578(15) 0.10655(16)
H2 H 0.1844 0.2719 0.0364
C8 C 0.0487(2) 0.33009(15) 0.13472(17)
H3 H 0.0047 0.3791 0.0834
C9 C 0.0050(2) 0.32245(14) 0.23878(16)
H4 H -0.0673 0.3660 0.2582
C10 C 0.14610(19) 0.07969(12) 0.56668(14)
C11 C 0.2407(2) -0.00499(12) 0.59538(15)
H5 H 0.3024 -0.0257 0.5459
C12 C 0.2452(2) -0.05780(13) 0.69294(14)
C13 C 0.0584(2) 0.05154(13) 0.74260(15)
C14 C 0.0542(2) 0.10434(13) 0.64504(15)
H6 H -0.0121 0.1588 0.6297
C15 C 0.3473(2) -0.14776(14) 0.71914(17)
H7 H 0.2862 -0.2077 0.7107
H8 H 0.4039 -0.1432 0.7956
H9 H 0.4173 -0.1499 0.6680
C16 C -0.0427(2) 0.08100(16) 0.82259(18)
H10 H -0.1005 0.1397 0.7943
H11 H 0.0191 0.0954 0.8956
H12 H -0.1115 0.0268 0.8292
C17 C 0.1706(2) -0.08044(15) 0.87783(15)
H13 H 0.1967 -0.1505 0.8696
H14 H 0.0737 -0.0780 0.9029
C18 C 0.2933(3) -0.03119(18) 0.96567(17)
H15 H 0.3897 -0.0350 0.9418
H16 H 0.3010 -0.0653 1.0368
H17 H 0.2671 0.0380 0.9742
loop_
_geom_bond_atom_site_label_1
_geom_bond_atom_site_label_2
_geom_bond_site_symmetry_1
_geom_bond_site_symmetry_2
N1 C12 1_555 1_555
O1 C1 1_555 1_555
O2 C3 1_555 1_555
C1 C2 1_555 1_555
C2 C3 1_555 1_555
C3 C4 1_555 1_555
C4 C5 1_555 1_555
C5 C1 1_555 1_555
C6 C5 1_555 1_555
H1 C6 1_555 1_555
C7 C6 1_555 1_555
H2 C7 1_555 1_555
C8 C7 1_555 1_555
H3 C8 1_555 1_555
C9 C4 1_555 1_555
H4 C9 1_555 1_555
C10 C2 1_555 1_555
C11 C10 1_555 1_555
H5 C11 1_555 1_555
C12 C11 1_555 1_555
C13 N1 1_555 1_555
C14 C10 1_555 1_555
H6 C14 1_555 1_555
C15 C12 1_555 1_555
H7 C15 1_555 1_555
H8 C15 1_555 1_555
H9 C15 1_555 1_555
C16 C13 1_555 1_555
H10 C16 1_555 1_555
H11 C16 1_555 1_555
H12 C16 1_555 1_555
C17 N1 1_555 1_555
H13 C17 1_555 1_555
H14 C17 1_555 1_555
C18 C17 1_555 1_555
H15 C18 1_555 1_555
H16 C18 1_555 1_555
H17 C18 1_555 1_555
C8 C9 1_555 1_555
C13 C14 1_555 1_555

#END
