
#######################################################################
#
#                 Cambridge Crystallographic Data Centre
#                                CCDC 
#
#######################################################################
#
# If this CIF has been generated from an entry in the Cambridge 
# Structural Database, then it will include bibliographic, chemical, 
# crystal, experimental, refinement or atomic coordinate data resulting 
# from the CCDC's data processing and validation procedures.
#
#######################################################################

data_DAVJOC
_chemical_formula_moiety         'C19 H14 F1 N1 O2'
_chemical_name_systematic        
1-[5-fluoro-3-(1H-indol-1-yl)-2-benzofuran-1(3H)-ylidene]propan-2-one
_symmetry_cell_setting           orthorhombic
_symmetry_space_group_name_H-M   'P b c a'
_symmetry_Int_Tables_number      61
_space_group_name_Hall           '-P 2ac 2ab'
loop_
_symmetry_equiv_pos_site_id
_symmetry_equiv_pos_as_xyz
1 x,y,z
2 1/2-x,-y,1/2+z
3 -x,1/2+y,1/2-z
4 1/2+x,1/2-y,-z
5 -x,-y,-z
6 1/2+x,y,1/2-z
7 x,1/2-y,1/2+z
8 1/2-x,1/2+y,z
_cell_length_a                   16.748(7)
_cell_length_b                   8.083(3)
_cell_length_c                   22.751(9)
_cell_angle_alpha                90
_cell_angle_beta                 90
_cell_angle_gamma                90
_cell_volume                     3079.9
_exptl_crystal_colour            colorless
_exptl_crystal_description       block
_cell_formula_units_Z            8
loop_
_atom_site_label
_atom_site_type_symbol
_atom_site_fract_x
_atom_site_fract_y
_atom_site_fract_z
C1 C 0.18523(18) 0.8717(3) 0.10546(12)
H1 H 0.2253 0.9564 0.1072
H2 H 0.2061 0.7772 0.0850
H3 H 0.1702 0.8401 0.1446
C2 C 0.11399(18) 0.9357(3) 0.07367(10)
C3 C 0.04627(16) 0.8303(3) 0.06199(9)
H4 H 0.0065 0.8768 0.0387
C4 C 0.03256(14) 0.6742(3) 0.08002(8)
C5 C -0.03609(14) 0.5708(3) 0.06823(8)
C6 C -0.10399(16) 0.5977(3) 0.03393(9)
H5 H -0.1117 0.6980 0.0147
C7 C -0.15881(16) 0.4733(4) 0.02938(11)
H6 H -0.2044 0.4874 0.0065
C8 C -0.14616(17) 0.3274(4) 0.05875(11)
C9 C -0.08133(16) 0.2965(3) 0.09303(10)
H7 H -0.0748 0.1966 0.1127
C10 C -0.02585(14) 0.4221(3) 0.09691(9)
C11 C 0.05268(14) 0.4237(2) 0.12821(9)
H8 H 0.0874 0.3381 0.1116
C12 C -0.00657(16) 0.4842(3) 0.22626(10)
H9 H -0.0523 0.5386 0.2134
C13 C 0.01700(16) 0.4713(3) 0.28283(10)
H10 H -0.0098 0.5134 0.3153
C14 C 0.09012(15) 0.3818(3) 0.28387(9)
C15 C 0.10847(13) 0.3410(2) 0.22531(9)
C16 C 0.17343(14) 0.2456(3) 0.21029(10)
H11 H 0.1839 0.2186 0.1713
C17 C 0.22217(17) 0.1918(4) 0.25490(12)
H12 H 0.2665 0.1272 0.2461
C18 C 0.20610(19) 0.2327(4) 0.31284(13)
H13 H 0.2402 0.1952 0.3422
C19 C 0.14190(18) 0.3261(3) 0.32790(10)
H14 H 0.1324 0.3528 0.3670
F1 F -0.20087(10) 0.2053(2) 0.05182(7)
N1 N 0.04815(11) 0.4037(2) 0.19004(7)
O1 O 0.08533(9) 0.58809(18) 0.11411(6)
O2 O 0.11414(14) 1.0804(2) 0.05713(9)
loop_
_geom_bond_atom_site_label_1
_geom_bond_atom_site_label_2
_geom_bond_site_symmetry_1
_geom_bond_site_symmetry_2
C1 H1 1_555 1_555
H2 C1 1_555 1_555
H3 C1 1_555 1_555
C2 C1 1_555 1_555
C3 C2 1_555 1_555
H4 C3 1_555 1_555
C4 C3 1_555 1_555
C5 C4 1_555 1_555
C6 C5 1_555 1_555
H5 C6 1_555 1_555
C7 C6 1_555 1_555
H6 C7 1_555 1_555
C8 C7 1_555 1_555
C9 C8 1_555 1_555
H7 C9 1_555 1_555
C10 C5 1_555 1_555
C11 C10 1_555 1_555
H8 C11 1_555 1_555
C12 H9 1_555 1_555
C13 C12 1_555 1_555
H10 C13 1_555 1_555
C14 C13 1_555 1_555
C15 C14 1_555 1_555
C16 C15 1_555 1_555
H11 C16 1_555 1_555
C17 C16 1_555 1_555
H12 C17 1_555 1_555
C18 C17 1_555 1_555
H13 C18 1_555 1_555
C19 C14 1_555 1_555
H14 C19 1_555 1_555
F1 C8 1_555 1_555
N1 C11 1_555 1_555
O1 C4 1_555 1_555
O2 C2 1_555 1_555
C9 C10 1_555 1_555
C11 O1 1_555 1_555
C12 N1 1_555 1_555
C15 N1 1_555 1_555
C18 C19 1_555 1_555

#END
