
#######################################################################
#
#                 Cambridge Crystallographic Data Centre
#                                CCDC 
#
#######################################################################
#
# If this CIF has been generated from an entry in the Cambridge 
# Structural Database, then it will include bibliographic, chemical, 
# crystal, experimental, refinement or atomic coordinate data resulting 
# from the CCDC's data processing and validation procedures.
#
#######################################################################

data_DAVMUL
_chemical_formula_moiety         'C24 H17 Cl1 F3 N3 O7 S1'
_chemical_name_systematic        
2-((2R.3R.4S)-7-chloro-3-nitro-1-((4-nitrophenyl)sulfonyl)-2-trifluoromethyl-1,2,3,4-tetrahydroquinolin-4-yl}-1-phenylethan-1-one
_symmetry_cell_setting           orthorhombic
_symmetry_space_group_name_H-M   'P 21 21 21'
_symmetry_Int_Tables_number      19
_space_group_name_Hall           'P 2ac 2ab'
loop_
_symmetry_equiv_pos_site_id
_symmetry_equiv_pos_as_xyz
1 x,y,z
2 1/2-x,-y,1/2+z
3 1/2+x,1/2-y,-z
4 -x,1/2+y,1/2-z
_cell_length_a                   9.6118(5)
_cell_length_b                   9.9839(5)
_cell_length_c                   26.2874(14)
_cell_angle_alpha                90
_cell_angle_beta                 90
_cell_angle_gamma                90
_cell_volume                     2522.62
_exptl_crystal_colour            colorless
_exptl_crystal_description       block
_chemical_melting_point          '161-162 deg.C'
_cell_formula_units_Z            4
loop_
_atom_site_label
_atom_site_type_symbol
_atom_site_fract_x
_atom_site_fract_y
_atom_site_fract_z
Cl1 Cl 0.14624(13) 0.37739(10) 0.05379(4)
S1 S 0.33063(11) 0.92402(9) 0.03795(3)
F1 F -0.1108(2) 0.8868(3) 0.07568(9)
F2 F -0.0305(2) 1.0103(3) 0.01644(7)
F3 F -0.1145(3) 1.0989(3) 0.08428(9)
O1 O 0.2224(5) 1.1781(3) 0.16477(13)
O2 O 0.0143(4) 1.1746(4) 0.19463(12)
O3 O 0.4142(3) 0.8070(4) 0.23119(10)
O4 O 0.7910(5) 0.9117(5) 0.22443(16)
O5 O 0.7901(6) 0.7054(5) 0.20557(16)
O6 O 0.3234(3) 1.0639(3) 0.02666(9)
O7 O 0.3434(3) 0.8275(3) -0.00160(8)
N1 N 0.1852(3) 0.8886(3) 0.06996(9)
N2 N 0.1089(5) 1.1264(4) 0.17118(12)
N3 N 0.7523(4) 0.8193(5) 0.19936(15)
C1 C 0.1022(3) 0.9960(3) 0.09134(11)
H1 H 0.1486 1.0810 0.0835
C2 C 0.0874(4) 0.9858(3) 0.14976(11)
H2 H -0.0068 0.9551 0.1581
C3 C 0.1929(4) 0.8907(3) 0.17335(10)
H3 H 0.2854 0.9251 0.1647
C4 C 0.1773(4) 0.7572(3) 0.14670(11)
C5 C 0.1744(4) 0.7599(3) 0.09349(11)
C6 C 0.1627(4) 0.6443(3) 0.06481(13)
H4 H 0.1587 0.6482 0.0295
C7 C 0.1570(4) 0.5231(3) 0.08992(14)
C8 C 0.1574(4) 0.5162(3) 0.14235(14)
H5 H 0.1510 0.4337 0.1587
C9 C 0.1673(4) 0.6335(3) 0.17058(13)
H6 H 0.1673 0.6291 0.2059
C10 C 0.1835(4) 0.8883(4) 0.23157(10)
H7 H 0.1570 0.9766 0.2435
H8 H 0.1111 0.8261 0.2417
C11 C 0.3172(4) 0.8485(4) 0.25644(12)
C12 C 0.3318(4) 0.8614(4) 0.31291(12)
C13 C 0.4627(5) 0.8490(4) 0.33434(15)
H9 H 0.5400 0.8336 0.3139
C14 C 0.4774(5) 0.8599(5) 0.38671(15)
H10 H 0.5653 0.8526 0.4013
C15 C 0.3652(5) 0.8809(5) 0.41682(14)
H11 H 0.3763 0.8852 0.4519
C16 C 0.2358(5) 0.8958(5) 0.39606(13)
H12 H 0.1596 0.9119 0.4170
C17 C 0.2180(4) 0.8869(4) 0.34346(12)
H13 H 0.1303 0.8980 0.3291
C18 C -0.0397(4) 0.9978(4) 0.06639(12)
C19 C 0.4649(4) 0.8953(4) 0.08227(13)
C20 C 0.5139(4) 0.7652(4) 0.08970(15)
H14 H 0.4827 0.6954 0.0693
C21 C 0.6100(4) 0.7418(4) 0.12806(16)
H15 H 0.6449 0.6562 0.1336
C22 C 0.6521(4) 0.8458(4) 0.15728(14)
C23 C 0.6092(4) 0.9754(4) 0.14973(16)
H16 H 0.6436 1.0449 0.1696
C24 C 0.5130(4) 0.9995(4) 0.11158(15)
H17 H 0.4810 1.0861 0.1058
loop_
_geom_bond_atom_site_label_1
_geom_bond_atom_site_label_2
_geom_bond_site_symmetry_1
_geom_bond_site_symmetry_2
Cl1 C7 1_555 1_555
S1 O6 1_555 1_555
F1 C18 1_555 1_555
F2 C18 1_555 1_555
F3 C18 1_555 1_555
O1 N2 1_555 1_555
O2 N2 1_555 1_555
O3 C11 1_555 1_555
O4 N3 1_555 1_555
O5 N3 1_555 1_555
O7 S1 1_555 1_555
N1 S1 1_555 1_555
N2 C2 1_555 1_555
N3 C22 1_555 1_555
C1 N1 1_555 1_555
H1 C1 1_555 1_555
C2 C1 1_555 1_555
H2 C2 1_555 1_555
C3 C2 1_555 1_555
H3 C3 1_555 1_555
C4 C3 1_555 1_555
C5 N1 1_555 1_555
C6 C5 1_555 1_555
H4 C6 1_555 1_555
C7 C6 1_555 1_555
C8 C7 1_555 1_555
H5 C8 1_555 1_555
C9 C4 1_555 1_555
H6 C9 1_555 1_555
C10 C3 1_555 1_555
H7 C10 1_555 1_555
H8 C10 1_555 1_555
C11 C10 1_555 1_555
C12 C11 1_555 1_555
C13 C12 1_555 1_555
H9 C13 1_555 1_555
C14 C13 1_555 1_555
H10 C14 1_555 1_555
C15 C14 1_555 1_555
H11 C15 1_555 1_555
C16 C15 1_555 1_555
H12 C16 1_555 1_555
C17 C12 1_555 1_555
H13 C17 1_555 1_555
C18 C1 1_555 1_555
C19 S1 1_555 1_555
C20 C19 1_555 1_555
H14 C20 1_555 1_555
C21 C20 1_555 1_555
H15 C21 1_555 1_555
C22 C21 1_555 1_555
C23 C22 1_555 1_555
H16 C23 1_555 1_555
C24 C19 1_555 1_555
H17 C24 1_555 1_555
C4 C5 1_555 1_555
C8 C9 1_555 1_555
C16 C17 1_555 1_555
C23 C24 1_555 1_555

#END
