
#######################################################################
#
#                 Cambridge Crystallographic Data Centre
#                                CCDC 
#
#######################################################################
#
# If this CIF has been generated from an entry in the Cambridge 
# Structural Database, then it will include bibliographic, chemical, 
# crystal, experimental, refinement or atomic coordinate data resulting 
# from the CCDC's data processing and validation procedures.
#
#######################################################################

data_DAVQUP
_chemical_formula_moiety         'C20 H28 N2 O2'
_chemical_name_systematic        N,N'-dicyclohexylterephthalamide
_symmetry_cell_setting           monoclinic
_symmetry_space_group_name_H-M   'P 21/c'
_symmetry_Int_Tables_number      14
_space_group_name_Hall           '-P 2ybc'
loop_
_symmetry_equiv_pos_site_id
_symmetry_equiv_pos_as_xyz
1 x,y,z
2 -x,1/2+y,1/2-z
3 -x,-y,-z
4 x,1/2-y,1/2+z
_cell_length_a                   5.165(2)
_cell_length_b                   6.636(3)
_cell_length_c                   25.5397(12)
_cell_angle_alpha                90
_cell_angle_beta                 93.956(6)
_cell_angle_gamma                90
_cell_volume                     873.286
_exptl_crystal_colour            colorless
_exptl_crystal_description       Plate
_cell_formula_units_Z            2
loop_
_atom_site_label
_atom_site_type_symbol
_atom_site_fract_x
_atom_site_fract_y
_atom_site_fract_z
O1 O 0.2046(5) 0.6212(5) 0.58139(13)
N1 N 0.6349(7) 0.5513(5) 0.58487(13)
C1 C 0.6198(7) 0.3879(6) 0.62324(14)
H1 H 0.4470 0.3269 0.6184
C2 C 0.6544(10) 0.4698(7) 0.67919(16)
H2 H 0.5188 0.5670 0.6848
H3 H 0.8203 0.5381 0.6842
C3 C 0.6429(10) 0.2987(7) 0.71908(17)
H4 H 0.6781 0.3524 0.7542
H5 H 0.4693 0.2421 0.7170
C4 C 0.8379(9) 0.1321(7) 0.70964(17)
H6 H 1.0126 0.1840 0.7163
H7 H 0.8148 0.0223 0.7339
C5 C 0.8046(9) 0.0531(7) 0.65370(17)
H8 H 0.6380 -0.0139 0.6483
H9 H 0.9393 -0.0450 0.6482
C6 C 0.8200(8) 0.2260(6) 0.61379(16)
H10 H 0.9924 0.2847 0.6169
H11 H 0.7895 0.1733 0.5785
C7 C 0.4257(7) 0.6593(6) 0.56823(15)
C8 C 0.4700(7) 0.8328(6) 0.53234(15)
C9 C 0.2994(7) 0.9951(6) 0.53329(15)
H12 H 0.1642 0.9914 0.5555
C10 C 0.3283(7) 1.1627(6) 0.50144(15)
H13 H 0.2143 1.2708 0.5026
H14 H 0.774(12) 0.593(9) 0.581(2)
O1B O 0.7954(5) 1.3788(5) 0.41861(13)
N1B N 0.3651(7) 1.4487(5) 0.41513(13)
C1B C 0.3802(7) 1.6121(6) 0.37676(14)
H1B H 0.5530 1.6731 0.3816
C2B C 0.3456(10) 1.5302(7) 0.32081(16)
H2B H 0.4812 1.4330 0.3152
H3B H 0.1797 1.4619 0.3158
C3B C 0.3571(10) 1.7013(7) 0.28092(17)
H4B H 0.3219 1.6476 0.2458
H5B H 0.5307 1.7579 0.2830
C4B C 0.1621(9) 1.8679(7) 0.29036(17)
H6B H -0.0126 1.8160 0.2837
H7B H 0.1852 1.9777 0.2661
C5B C 0.1954(9) 1.9469(7) 0.34630(17)
H8B H 0.3620 2.0139 0.3517
H9B H 0.0607 2.0450 0.3518
C6B C 0.1800(8) 1.7740(6) 0.38621(16)
H10B H 0.0076 1.7153 0.3831
H11B H 0.2105 1.8267 0.4215
C7B C 0.5743(7) 1.3407(6) 0.43177(15)
C8B C 0.5300(7) 1.1672(6) 0.46766(15)
C9B C 0.7006(7) 1.0049(6) 0.46671(15)
H12B H 0.8358 1.0086 0.4445
C10B C 0.6717(7) 0.8373(6) 0.49856(15)
H13B H 0.7857 0.7292 0.4974
H14B H 0.226(12) 1.407(9) 0.419(2)
loop_
_geom_bond_atom_site_label_1
_geom_bond_atom_site_label_2
_geom_bond_site_symmetry_1
_geom_bond_site_symmetry_2
O1 C7 1_555 1_555
N1 C1 1_555 1_555
C1 H1 1_555 1_555
C2 C1 1_555 1_555
H2 C2 1_555 1_555
H3 C2 1_555 1_555
C3 C2 1_555 1_555
H4 C3 1_555 1_555
H5 C3 1_555 1_555
C4 C3 1_555 1_555
H6 C4 1_555 1_555
H7 C4 1_555 1_555
C5 C4 1_555 1_555
H8 C5 1_555 1_555
H9 C5 1_555 1_555
C6 C1 1_555 1_555
H10 C6 1_555 1_555
H11 C6 1_555 1_555
C7 N1 1_555 1_555
C8 C7 1_555 1_555
C9 C8 1_555 1_555
H12 C9 1_555 1_555
C10 C9 1_555 1_555
H13 C10 1_555 1_555
H14 N1 1_555 1_555
O1B C7B 1_555 1_555
N1B C1B 1_555 1_555
C1B H1B 1_555 1_555
C2B C1B 1_555 1_555
H2B C2B 1_555 1_555
H3B C2B 1_555 1_555
C3B C2B 1_555 1_555
H4B C3B 1_555 1_555
H5B C3B 1_555 1_555
C4B C3B 1_555 1_555
H6B C4B 1_555 1_555
H7B C4B 1_555 1_555
C5B C4B 1_555 1_555
H8B C5B 1_555 1_555
H9B C5B 1_555 1_555
C6B C1B 1_555 1_555
H10B C6B 1_555 1_555
H11B C6B 1_555 1_555
C7B N1B 1_555 1_555
C8B C10 1_555 1_555
C9B C8B 1_555 1_555
H12B C9B 1_555 1_555
C10B C8 1_555 1_555
H13B C10B 1_555 1_555
H14B N1B 1_555 1_555
C5 C6 1_555 1_555
C5B C6B 1_555 1_555
C7B C8B 1_555 1_555
C9B C10B 1_555 1_555

#END
