
#######################################################################
#
#                 Cambridge Crystallographic Data Centre
#                                CCDC 
#
#######################################################################
#
# If this CIF has been generated from an entry in the Cambridge 
# Structural Database, then it will include bibliographic, chemical, 
# crystal, experimental, refinement or atomic coordinate data resulting 
# from the CCDC's data processing and validation procedures.
#
#######################################################################

data_DAVSUQ
_chemical_formula_moiety         'C19 H16 N3 O2 1+,F6 P1 1-'
_chemical_name_systematic        
'1-(2-(6-Amino-1,3-dioxo-1H-benzo[de]isoquinolin-2(3H)-yl)ethyl)pyridinium hexafluorophosphate'
_symmetry_cell_setting           monoclinic
_symmetry_space_group_name_H-M   'P 21/c'
_symmetry_Int_Tables_number      14
_space_group_name_Hall           '-P 2ybc'
loop_
_symmetry_equiv_pos_site_id
_symmetry_equiv_pos_as_xyz
1 x,y,z
2 -x,1/2+y,1/2-z
3 -x,-y,-z
4 x,1/2-y,1/2+z
_cell_length_a                   9.4536(19)
_cell_length_b                   9.3865(19)
_cell_length_c                   21.293(4)
_cell_angle_alpha                90
_cell_angle_beta                 100.03(3)
_cell_angle_gamma                90
_cell_volume                     1860.58
_exptl_crystal_colour            orange
_exptl_crystal_description       block
_cell_formula_units_Z            4
loop_
_atom_site_label
_atom_site_type_symbol
_atom_site_fract_x
_atom_site_fract_y
_atom_site_fract_z
O1 O 0.04515(18) 0.85881(19) 0.03802(8)
O2 O 0.40945(19) 1.12811(19) 0.14510(8)
N1 N 0.7747(2) 0.7067(2) -0.00059(11)
H1 H 0.8703 0.7259 0.0113
H2 H 0.7445 0.6353 -0.0328
N2 N 0.2282(2) 0.9917(2) 0.09120(9)
N3 N 0.2108(2) 1.0291(2) 0.23046(10)
C1 C 0.3748(3) 1.0278(3) 0.10828(11)
C2 C 0.4758(3) 0.9416(3) 0.08150(11)
C3 C 0.6224(3) 0.9675(3) 0.09726(12)
H3 H 0.6559 1.0412 0.1267
C4 C 0.7210(3) 0.8876(3) 0.07076(12)
H4 H 0.8207 0.9059 0.0835
C5 C 0.6767(3) 0.7803(3) 0.02545(12)
C6 C 0.5257(3) 0.7516(3) 0.00739(12)
C7 C 0.4694(3) 0.6488(3) -0.03930(13)
H5 H 0.5337 0.5967 -0.0602
C8 C 0.3253(3) 0.6227(3) -0.05503(13)
H6 H 0.2909 0.5536 -0.0866
C9 C 0.2288(3) 0.6976(3) -0.02471(12)
H7 H 0.1290 0.6775 -0.0348
C10 C 0.2784(3) 0.8013(3) 0.01999(11)
C11 C 0.4272(3) 0.8312(2) 0.03675(11)
C12 C 0.1742(3) 0.8822(3) 0.04932(11)
C13 C 0.1224(3) 1.0800(3) 0.11640(11)
H8 H 0.0340 1.0868 0.0839
H9 H 0.1615 1.1774 0.1244
C14 C 0.0841(3) 1.0206(3) 0.17800(12)
H10 H 0.0034 1.0758 0.1898
H11 H 0.0531 0.9202 0.1715
C15 C 0.2909(3) 0.9116(3) 0.24809(12)
H12 H 0.2605 0.8217 0.2302
C16 C 0.4162(3) 0.9220(3) 0.29189(13)
H13 H 0.4720 0.8395 0.3049
C17 C 0.4597(3) 1.0548(3) 0.31672(13)
H14 H 0.5476 1.0644 0.3458
C18 C 0.3756(3) 1.1725(3) 0.29919(13)
H15 H 0.4034 1.2631 0.3170
C19 C 0.2509(3) 1.1579(3) 0.25567(12)
H16 H 0.1926 1.2389 0.2432
P1 P 0.10629(7) 0.53203(7) 0.16054(3)
F1 F 0.20744(17) 0.66053(16) 0.14535(7)
F2 F 0.0078(2) 0.4032(2) 0.17685(11)
F3 F -0.0077(3) 0.6432(2) 0.17576(16)
F4 F 0.0330(3) 0.5274(3) 0.08780(11)
F5 F 0.2237(2) 0.42113(19) 0.14503(12)
F6 F 0.1858(3) 0.5331(3) 0.23285(9)
loop_
_geom_bond_atom_site_label_1
_geom_bond_atom_site_label_2
_geom_bond_site_symmetry_1
_geom_bond_site_symmetry_2
O1 C12 1_555 1_555
O2 C1 1_555 1_555
N1 H1 1_555 1_555
H2 N1 1_555 1_555
N2 C1 1_555 1_555
N3 C14 1_555 1_555
C1 C2 1_555 1_555
C2 C3 1_555 1_555
C3 H3 1_555 1_555
C4 C3 1_555 1_555
H4 C4 1_555 1_555
C5 N1 1_555 1_555
C6 C5 1_555 1_555
C7 C6 1_555 1_555
H5 C7 1_555 1_555
C8 C7 1_555 1_555
H6 C8 1_555 1_555
C9 C8 1_555 1_555
H7 C9 1_555 1_555
C10 C9 1_555 1_555
C11 C2 1_555 1_555
C12 N2 1_555 1_555
C13 N2 1_555 1_555
H8 C13 1_555 1_555
H9 C13 1_555 1_555
C14 C13 1_555 1_555
H10 C14 1_555 1_555
H11 C14 1_555 1_555
C15 N3 1_555 1_555
H12 C15 1_555 1_555
C16 C15 1_555 1_555
H13 C16 1_555 1_555
C17 C16 1_555 1_555
H14 C17 1_555 1_555
C18 C17 1_555 1_555
H15 C18 1_555 1_555
C19 N3 1_555 1_555
H16 C19 1_555 1_555
P1 F1 1_555 1_555
F2 P1 1_555 1_555
F3 P1 1_555 1_555
F4 P1 1_555 1_555
F5 P1 1_555 1_555
F6 P1 1_555 1_555
C4 C5 1_555 1_555
C6 C11 1_555 1_555
C10 C11 1_555 1_555
C10 C12 1_555 1_555
C18 C19 1_555 1_555

#END
