
#######################################################################
#
#                 Cambridge Crystallographic Data Centre
#                                CCDC 
#
#######################################################################
#
# If this CIF has been generated from an entry in the Cambridge 
# Structural Database, then it will include bibliographic, chemical, 
# crystal, experimental, refinement or atomic coordinate data resulting 
# from the CCDC's data processing and validation procedures.
#
#######################################################################

data_DAVTEB
_chemical_formula_moiety         'C22 H24 Br1 N1 O6'
_chemical_name_systematic        
'Triethyl 6-(2-bromophenyl)-1-cyanocyclohex-3-ene-1,2,3-tricarboxylate'
_symmetry_cell_setting           monoclinic
_symmetry_space_group_name_H-M   'P 21'
_symmetry_Int_Tables_number      4
_space_group_name_Hall           'P 2yb'
loop_
_symmetry_equiv_pos_site_id
_symmetry_equiv_pos_as_xyz
1 x,y,z
2 -x,1/2+y,-z
_cell_length_a                   8.1070(11)
_cell_length_b                   12.1050(16)
_cell_length_c                   11.6138(16)
_cell_angle_alpha                90
_cell_angle_beta                 101.055(2)
_cell_angle_gamma                90
_cell_volume                     1118.57
_exptl_crystal_colour            colorless
_exptl_crystal_description       prismatic
_cell_formula_units_Z            2
loop_
_atom_site_label
_atom_site_type_symbol
_atom_site_fract_x
_atom_site_fract_y
_atom_site_fract_z
Br1 Br -0.02566(9) 0.50074(6) 1.29440(5)
N1 N 0.1609(7) 0.9379(4) 1.0208(4)
O1 O 0.4193(6) 0.7307(4) 1.1341(6)
O2 O 0.2774(5) 0.5739(3) 1.1409(4)
O3 O 0.2111(6) 0.7574(4) 0.7976(4)
O4 O 0.2824(5) 0.5852(4) 0.8590(4)
O5 O -0.0869(8) 0.6171(5) 0.7002(4)
O6 O -0.2843(6) 0.7423(5) 0.6943(4)
C1 C -0.0163(6) 0.7074(4) 1.1220(4)
H1 H -0.0460 0.6289 1.1151
C2 C 0.1259(6) 0.7256(4) 1.0525(4)
C3 C 0.0676(6) 0.6655(4) 0.9310(4)
H2 H 0.0564 0.5867 0.9469
C4 C -0.1045(6) 0.7082(4) 0.8744(4)
C5 C -0.2087(7) 0.7564(5) 0.9337(5)
H3 H -0.3108 0.7822 0.8918
C6 C -0.1722(7) 0.7721(5) 1.0650(4)
H4 H -0.2679 0.7474 1.0970
H5 H -0.1550 0.8500 1.0830
C7 C 0.0357(7) 0.7326(5) 1.2521(4)
C8 C 0.0740(9) 0.8375(6) 1.2919(6)
H6 H 0.0701 0.8946 1.2379
C9 C 0.1183(10) 0.8612(6) 1.4103(5)
H7 H 0.1455 0.9333 1.4347
C10 C 0.1224(11) 0.7792(7) 1.4918(6)
H8 H 0.1524 0.7953 1.5714
C11 C 0.0817(9) 0.6723(7) 1.4553(5)
H9 H 0.0849 0.6163 1.5104
C12 C 0.0361(8) 0.6484(5) 1.3364(5)
C13 C 0.1481(7) 0.8456(5) 1.0330(4)
C14 C 0.2934(8) 0.6784(5) 1.1129(5)
C15 C 0.4207(10) 0.5189(7) 1.2039(6)
H10 H 0.4828 0.5692 1.2614
H11 H 0.3846 0.4569 1.2459
C16 C 0.5255(15) 0.4810(13) 1.1319(11)
H12 H 0.4621 0.4709 1.0539
H13 H 0.5741 0.4118 1.1612
H14 H 0.6133 0.5339 1.1304
C17 C 0.1951(8) 0.6770(5) 0.8545(5)
C18 C 0.4126(13) 0.5862(9) 0.7853(10)
H15 H 0.3779 0.6345 0.7185
H16 H 0.5175 0.6140 0.8305
C19 C 0.4351(14) 0.4816(10) 0.7475(10)
H17 H 0.4130 0.4294 0.8049
H18 H 0.5489 0.4732 0.7366
H19 H 0.3594 0.4687 0.6744
C20 C -0.1570(9) 0.6843(6) 0.7474(5)
C21 C -0.3506(12) 0.7176(10) 0.5721(6)
H20 H -0.4220 0.6527 0.5648
H21 H -0.2604 0.7051 0.5296
C22 C -0.453(3) 0.8211(19) 0.526(2)
H24 H -0.5272 0.8397 0.5781
H25 H -0.5169 0.8065 0.4492
H26 H -0.3773 0.8816 0.5222
H22? H -0.4613 0.6863 0.5623
H23? H -0.2751 0.6678 0.5440
C23? C -0.339(3) 0.8183(17) 0.5059(19)
H27? H -0.3785 0.8796 0.5459
H28? H -0.4077 0.8113 0.4291
H29? H -0.2247 0.8307 0.4992
loop_
_geom_bond_atom_site_label_1
_geom_bond_atom_site_label_2
_geom_bond_site_symmetry_1
_geom_bond_site_symmetry_2
Br1 C12 1_555 1_555
N1 C13 1_555 1_555
O1 C14 1_555 1_555
O2 C14 1_555 1_555
O3 C17 1_555 1_555
O4 C17 1_555 1_555
O5 C20 1_555 1_555
O6 C20 1_555 1_555
C1 H1 1_555 1_555
C2 C1 1_555 1_555
C3 C2 1_555 1_555
H2 C3 1_555 1_555
C4 C3 1_555 1_555
C5 C4 1_555 1_555
H3 C5 1_555 1_555
C6 C1 1_555 1_555
H4 C6 1_555 1_555
H5 C6 1_555 1_555
C7 C1 1_555 1_555
C8 C7 1_555 1_555
H6 C8 1_555 1_555
C9 C8 1_555 1_555
H7 C9 1_555 1_555
C10 C9 1_555 1_555
H8 C10 1_555 1_555
C11 C10 1_555 1_555
H9 C11 1_555 1_555
C12 C7 1_555 1_555
C13 C2 1_555 1_555
C14 C2 1_555 1_555
C15 O2 1_555 1_555
H10 C15 1_555 1_555
H11 C15 1_555 1_555
C16 C15 1_555 1_555
H12 C16 1_555 1_555
H13 C16 1_555 1_555
H14 C16 1_555 1_555
C17 C3 1_555 1_555
C18 O4 1_555 1_555
H15 C18 1_555 1_555
H16 C18 1_555 1_555
C19 C18 1_555 1_555
H17 C19 1_555 1_555
H18 C19 1_555 1_555
H19 C19 1_555 1_555
C20 C4 1_555 1_555
C21 O6 1_555 1_555
H20 C21 1_555 1_555
H21 C21 1_555 1_555
C22 C21 1_555 1_555
H24 C22 1_555 1_555
H25 C22 1_555 1_555
H26 C22 1_555 1_555
C5 C6 1_555 1_555
C11 C12 1_555 1_555

#END
