
#######################################################################
#
#                 Cambridge Crystallographic Data Centre
#                                CCDC 
#
#######################################################################
#
# If this CIF has been generated from an entry in the Cambridge 
# Structural Database, then it will include bibliographic, chemical, 
# crystal, experimental, refinement or atomic coordinate data resulting 
# from the CCDC's data processing and validation procedures.
#
#######################################################################

data_DAVVEE
_chemical_formula_moiety         'C11 H12 N2 2+,C11 H11 N2 1+,I3 1-,2(I1 1-)'
_chemical_name_systematic        
"1-methyl-4-(pyridin-4-yl)pyridin-1-ium 1-methyl-4,4'-bipyridinium triiodine diiodide"
_symmetry_cell_setting           triclinic
_symmetry_space_group_name_H-M   'P -1'
_symmetry_Int_Tables_number      2
_space_group_name_Hall           '-P 1'
loop_
_symmetry_equiv_pos_site_id
_symmetry_equiv_pos_as_xyz
1 x,y,z
2 -x,-y,-z
_cell_length_a                   9.8611(3)
_cell_length_b                   21.0117(8)
_cell_length_c                   22.6116(10)
_cell_angle_alpha                68.296(4)
_cell_angle_beta                 78.859(3)
_cell_angle_gamma                84.254(3)
_cell_volume                     4268.8
_exptl_crystal_colour            yellow
_exptl_crystal_description       block
_cell_formula_units_Z            6
loop_
_atom_site_label
_atom_site_type_symbol
_atom_site_fract_x
_atom_site_fract_y
_atom_site_fract_z
N1 N 0.1437(9) 0.3350(5) 0.2932(5)
H1 H 0.2000 0.3649 0.2631
N2 N -0.3071(9) 0.0991(5) 0.5352(4)
C1 C -0.3545(11) 0.1625(5) 0.5043(6)
H2 H -0.4489 0.1746 0.5154
C2 C -0.2703(11) 0.2099(6) 0.4574(6)
H3 H -0.3055 0.2549 0.4368
C3 C -0.1300(11) 0.1923(5) 0.4392(5)
C4 C -0.0853(11) 0.1243(6) 0.4711(6)
H4 H 0.0065 0.1093 0.4592
C5 C -0.1752(11) 0.0800(6) 0.5195(6)
H5 H -0.1435 0.0349 0.5422
C6 C -0.0369(11) 0.2418(5) 0.3882(6)
C7 C -0.0721(12) 0.3124(6) 0.3646(7)
H6 H -0.1584 0.3290 0.3812
C8 C 0.0177(14) 0.3562(7) 0.3180(7)
H7 H -0.0078 0.4036 0.3019
C9 C 0.1810(13) 0.2694(6) 0.3145(7)
H8 H 0.2688 0.2550 0.2971
C10 C 0.0932(12) 0.2209(6) 0.3625(5)
H9 H 0.1217 0.1739 0.3776
C11 C -0.4026(12) 0.0500(6) 0.5869(6)
H10 H -0.4402 0.0209 0.5690
H11 H -0.4785 0.0753 0.6043
H12 H -0.3524 0.0213 0.6214
N3 N 0.3411(10) 0.3959(5) 0.4419(5)
H13 H 0.4028 0.4251 0.4148
N4 N -0.1449(10) 0.1638(5) 0.6641(5)
C12 C 0.3304(13) 0.3352(6) 0.4362(6)
H14 H 0.3869 0.3247 0.4017
C13 C 0.2370(13) 0.2879(6) 0.4805(7)
H15 H 0.2303 0.2448 0.4767
C14 C 0.1542(11) 0.3036(6) 0.5301(6)
C15 C 0.1675(14) 0.3666(7) 0.5339(8)
H16 H 0.1132 0.3782 0.5683
C16 C 0.2569(16) 0.4118(7) 0.4894(7)
H17 H 0.2608 0.4559 0.4915
C17 C 0.0503(12) 0.2544(6) 0.5768(6)
C18 C 0.0580(12) 0.1860(6) 0.5839(6)
H18 H 0.1312 0.1695 0.5587
C19 C -0.0391(14) 0.1418(7) 0.6269(7)
H19 H -0.0327 0.0950 0.6310
C20 C -0.1509(15) 0.2285(7) 0.6591(8)
H20 H -0.2222 0.2432 0.6865
C21 C -0.0591(14) 0.2754(7) 0.6163(7)
H21 H -0.0691 0.3220 0.6131
C22 C -0.2512(11) 0.1157(6) 0.7084(6)
H22 H -0.2541 0.1139 0.7526
H23 H -0.2282 0.0699 0.7066
H24 H -0.3416 0.1314 0.6955
N5 N 0.4132(9) -0.0309(5) 0.1087(5)
H25 H 0.3838 -0.0446 0.0811
N6 N 0.6408(9) 0.0775(5) 0.3301(4)
C23 C 0.5296(13) -0.0586(7) 0.1302(7)
H26 H 0.5799 -0.0927 0.1159
C24 C 0.5779(12) -0.0373(7) 0.1742(7)
H27 H 0.6610 -0.0567 0.1899
C25 C 0.5027(10) 0.0124(6) 0.1943(5)
C26 C 0.3817(11) 0.0396(6) 0.1710(6)
H28 H 0.3279 0.0734 0.1847
C27 C 0.3405(13) 0.0167(6) 0.1274(6)
H29 H 0.2583 0.0356 0.1105
C28 C 0.5515(11) 0.0361(5) 0.2413(5)
C29 C 0.6739(11) 0.0095(6) 0.2650(6)
H30 H 0.7284 -0.0234 0.2504
C30 C 0.7160(11) 0.0302(6) 0.3086(6)
H31 H 0.7993 0.0113 0.3244
C31 C 0.5195(10) 0.1040(5) 0.3075(6)
H32 H 0.4654 0.1367 0.3227
C32 C 0.4768(11) 0.0841(6) 0.2645(5)
H33 H 0.3931 0.1035 0.2493
C33 C 0.6860(12) 0.0976(6) 0.3788(5)
H34 H 0.6267 0.0768 0.4206
H35 H 0.6794 0.1476 0.3658
H36 H 0.7821 0.0818 0.3823
N7 N 0.3293(10) -0.0749(5) 0.0229(5)
N8 N 0.1048(9) -0.1986(4) -0.1913(4)
C34 C 0.2137(13) -0.0494(6) -0.0002(6)
H37 H 0.1599 -0.0159 0.0137
C35 C 0.1697(13) -0.0711(6) -0.0446(6)
H38 H 0.0877 -0.0511 -0.0611
C36 C 0.2438(11) -0.1216(6) -0.0654(6)
C37 C 0.3662(12) -0.1490(6) -0.0380(6)
H39 H 0.4206 -0.1846 -0.0484
C38 C 0.4023(13) -0.1228(7) 0.0031(6)
H40 H 0.4861 -0.1398 0.0192
C39 C 0.1949(11) -0.1464(5) -0.1106(5)
C40 C 0.0670(10) -0.1285(6) -0.1278(5)
H41 H 0.0078 -0.0979 -0.1117
C41 C 0.0238(11) -0.1545(6) -0.1683(5)
H42 H -0.0649 -0.1412 -0.1802
C42 C 0.2330(12) -0.2172(6) -0.1753(6)
H43 H 0.2906 -0.2474 -0.1925
C43 C 0.2795(12) -0.1931(7) -0.1350(6)
H44 H 0.3680 -0.2074 -0.1231
C44 C 0.0532(13) -0.2273(6) -0.2316(6)
H45 H 0.0375 -0.1905 -0.2719
H46 H -0.0340 -0.2499 -0.2087
H47 H 0.1212 -0.2608 -0.2415
N9 N 0.5226(11) 0.4886(5) 0.3588(6)
N10 N 1.0143(9) 0.7305(5) 0.1523(5)
C45 C 0.5418(14) 0.5434(7) 0.3711(7)
H48 H 0.4869 0.5497 0.4081
C46 C 0.6394(13) 0.5929(6) 0.3324(6)
H49 H 0.6508 0.6313 0.3433
C47 C 0.7200(12) 0.5843(6) 0.2770(6)
C48 C 0.7000(14) 0.5255(6) 0.2653(7)
H50 H 0.7535 0.5166 0.2294
C49 C 0.6008(13) 0.4805(7) 0.3071(7)
H51 H 0.5876 0.4411 0.2981
C50 C 0.8238(12) 0.6355(6) 0.2338(6)
C51 C 0.8101(12) 0.7033(6) 0.2303(6)
H52 H 0.7349 0.7174 0.2564
C52 C 0.9047(12) 0.7492(6) 0.1895(6)
H53 H 0.8939 0.7955 0.1869
C53 C 1.0312(12) 0.6640(6) 0.1572(6)
H54 H 1.1104 0.6502 0.1330
C54 C 0.9361(13) 0.6165(7) 0.1965(6)
H55 H 0.9476 0.5705 0.1980
C55 C 1.1151(13) 0.7815(7) 0.1087(8)
H56 H 1.1446 0.8068 0.1326
H57 H 1.0722 0.8135 0.0729
H58 H 1.1956 0.7582 0.0917
N11 N 0.3188(10) 0.4241(5) 0.2055(5)
N12 N 0.8186(10) 0.6598(5) 0.0064(5)
C56 C 0.3167(12) 0.4848(6) 0.2094(6)
H59 H 0.2479 0.4954 0.2404
C57 C 0.4112(12) 0.5348(6) 0.1700(6)
H60 H 0.4069 0.5785 0.1739
C58 C 0.5132(11) 0.5186(6) 0.1243(6)
C59 C 0.5132(13) 0.4539(6) 0.1209(6)
H61 H 0.5801 0.4416 0.0903
C60 C 0.4146(13) 0.4070(6) 0.1624(6)
H62 H 0.4153 0.3627 0.1601
C61 C 0.6177(12) 0.5688(5) 0.0828(6)
C62 C 0.6466(14) 0.6224(7) 0.1004(6)
H63 H 0.5969 0.6282 0.1386
C63 C 0.7507(12) 0.6678(6) 0.0604(6)
H64 H 0.7727 0.7042 0.0719
C64 C 0.7896(12) 0.6099(6) -0.0131(6)
H65 H 0.8391 0.6056 -0.0520
C65 C 0.6862(13) 0.5653(6) 0.0248(6)
H66 H 0.6618 0.5314 0.0106
C66 C 0.9323(11) 0.7072(6) -0.0337(6)
H67 H 0.9259 0.7208 -0.0795
H68 H 1.0218 0.6838 -0.0260
H69 H 0.9237 0.7480 -0.0218
I1 I 0.44028(9) 0.73550(5) 0.19776(5)
I2 I 0.24680(8) 0.62818(4) 0.28132(4)
I3 I 0.05061(9) 0.52235(5) 0.36276(5)
I4 I -0.24132(11) 0.40376(5) 0.48802(5)
I5 I -0.43638(9) 0.29895(5) 0.57320(5)
I6 I -0.63031(9) 0.19286(4) 0.65834(5)
I7 I 1.30925(8) 0.64210(4) 0.00155(4)
I8 I 1.10460(8) 0.53576(4) 0.07231(4)
I9 I 0.90493(9) 0.42952(4) 0.14610(4)
I10 I 0.08926(7) 0.05211(4) 0.32725(4)
I11 I 0.79408(7) -0.14468(4) 0.03002(4)
I12 I 0.99005(7) -0.07332(4) 0.18466(4)
I13 I 0.58064(7) 0.29623(4) 0.29953(4)
I14 I 0.33354(7) 0.24197(4) 0.14159(4)
I15 I 0.30941(7) 0.09051(4) 0.48759(4)
loop_
_geom_bond_atom_site_label_1
_geom_bond_atom_site_label_2
_geom_bond_site_symmetry_1
_geom_bond_site_symmetry_2
N1 H1 1_555 1_555
N2 C1 1_555 1_555
C1 H2 1_555 1_555
C2 C1 1_555 1_555
H3 C2 1_555 1_555
C3 C2 1_555 1_555
C4 C3 1_555 1_555
H4 C4 1_555 1_555
C5 N2 1_555 1_555
H5 C5 1_555 1_555
C6 C3 1_555 1_555
C7 C6 1_555 1_555
H6 C7 1_555 1_555
C8 N1 1_555 1_555
H7 C8 1_555 1_555
C9 N1 1_555 1_555
H8 C9 1_555 1_555
C10 C6 1_555 1_555
H9 C10 1_555 1_555
C11 N2 1_555 1_555
H10 C11 1_555 1_555
H11 C11 1_555 1_555
H12 C11 1_555 1_555
N3 H13 1_555 1_555
N4 C19 1_555 1_555
C12 N3 1_555 1_555
H14 C12 1_555 1_555
C13 C12 1_555 1_555
H15 C13 1_555 1_555
C14 C13 1_555 1_555
C15 C14 1_555 1_555
H16 C15 1_555 1_555
C16 N3 1_555 1_555
H17 C16 1_555 1_555
C17 C14 1_555 1_555
C18 C17 1_555 1_555
H18 C18 1_555 1_555
C19 C18 1_555 1_555
H19 C19 1_555 1_555
C20 N4 1_555 1_555
H20 C20 1_555 1_555
C21 C17 1_555 1_555
H21 C21 1_555 1_555
C22 N4 1_555 1_555
H22 C22 1_555 1_555
H23 C22 1_555 1_555
H24 C22 1_555 1_555
N5 H25 1_555 1_555
N6 C30 1_555 1_555
C23 N5 1_555 1_555
H26 C23 1_555 1_555
C24 C23 1_555 1_555
H27 C24 1_555 1_555
C25 C24 1_555 1_555
C26 C25 1_555 1_555
H28 C26 1_555 1_555
C27 N5 1_555 1_555
H29 C27 1_555 1_555
C28 C25 1_555 1_555
C29 C28 1_555 1_555
H30 C29 1_555 1_555
C30 C29 1_555 1_555
H31 C30 1_555 1_555
C31 N6 1_555 1_555
H32 C31 1_555 1_555
C32 C28 1_555 1_555
H33 C32 1_555 1_555
C33 N6 1_555 1_555
H34 C33 1_555 1_555
H35 C33 1_555 1_555
H36 C33 1_555 1_555
N7 C34 1_555 1_555
N8 C41 1_555 1_555
C34 H37 1_555 1_555
C35 C34 1_555 1_555
H38 C35 1_555 1_555
C36 C35 1_555 1_555
C37 C36 1_555 1_555
H39 C37 1_555 1_555
C38 N7 1_555 1_555
H40 C38 1_555 1_555
C39 C36 1_555 1_555
C40 C39 1_555 1_555
H41 C40 1_555 1_555
C41 C40 1_555 1_555
H42 C41 1_555 1_555
C42 N8 1_555 1_555
H43 C42 1_555 1_555
C43 C39 1_555 1_555
H44 C43 1_555 1_555
C44 N8 1_555 1_555
H45 C44 1_555 1_555
H46 C44 1_555 1_555
H47 C44 1_555 1_555
N9 C45 1_555 1_555
N10 C52 1_555 1_555
C45 H48 1_555 1_555
C46 C45 1_555 1_555
H49 C46 1_555 1_555
C47 C46 1_555 1_555
C48 C47 1_555 1_555
H50 C48 1_555 1_555
C49 N9 1_555 1_555
H51 C49 1_555 1_555
C50 C47 1_555 1_555
C51 C50 1_555 1_555
H52 C51 1_555 1_555
C52 C51 1_555 1_555
H53 C52 1_555 1_555
C53 N10 1_555 1_555
H54 C53 1_555 1_555
C54 C50 1_555 1_555
H55 C54 1_555 1_555
C55 N10 1_555 1_555
H56 C55 1_555 1_555
H57 C55 1_555 1_555
H58 C55 1_555 1_555
N11 C56 1_555 1_555
N12 C63 1_555 1_555
C56 H59 1_555 1_555
C57 C56 1_555 1_555
H60 C57 1_555 1_555
C58 C57 1_555 1_555
C59 C58 1_555 1_555
H61 C59 1_555 1_555
C60 N11 1_555 1_555
H62 C60 1_555 1_555
C61 C58 1_555 1_555
C62 C61 1_555 1_555
H63 C62 1_555 1_555
C63 C62 1_555 1_555
H64 C63 1_555 1_555
C64 N12 1_555 1_555
H65 C64 1_555 1_555
C65 C61 1_555 1_555
H66 C65 1_555 1_555
C66 N12 1_555 1_555
H67 C66 1_555 1_555
H68 C66 1_555 1_555
H69 C66 1_555 1_555
I1 I2 1_555 1_555
I2 I3 1_555 1_555
I4 I5 1_555 1_555
I5 I6 1_555 1_555
I7 I8 1_555 1_555
I8 I9 1_555 1_555
C4 C5 1_555 1_555
C7 C8 1_555 1_555
C9 C10 1_555 1_555
C15 C16 1_555 1_555
C20 C21 1_555 1_555
C26 C27 1_555 1_555
C31 C32 1_555 1_555
C37 C38 1_555 1_555
C42 C43 1_555 1_555
C48 C49 1_555 1_555
C53 C54 1_555 1_555
C59 C60 1_555 1_555
C64 C65 1_555 1_555

#END
