
#######################################################################
#
#                 Cambridge Crystallographic Data Centre
#                                CCDC 
#
#######################################################################
#
# If this CIF has been generated from an entry in the Cambridge 
# Structural Database, then it will include bibliographic, chemical, 
# crystal, experimental, refinement or atomic coordinate data resulting 
# from the CCDC's data processing and validation procedures.
#
#######################################################################

data_DAWLAR
_chemical_formula_moiety         'C12 H13 N3'
_chemical_name_systematic        
(1-ethyl-2,6-dimethylpyridin-4(1H)-ylidene)malononitrile
_symmetry_cell_setting           triclinic
_symmetry_space_group_name_H-M   'P -1'
_symmetry_Int_Tables_number      2
_space_group_name_Hall           '-P 1'
loop_
_symmetry_equiv_pos_site_id
_symmetry_equiv_pos_as_xyz
1 x,y,z
2 -x,-y,-z
_cell_length_a                   6.9599(7)
_cell_length_b                   7.5636(8)
_cell_length_c                   10.3122(10)
_cell_angle_alpha                98.430(2)
_cell_angle_beta                 92.196(2)
_cell_angle_gamma                103.452(2)
_cell_volume                     520.775
_exptl_crystal_description       Block
_cell_formula_units_Z            2
loop_
_atom_site_label
_atom_site_type_symbol
_atom_site_fract_x
_atom_site_fract_y
_atom_site_fract_z
N1 N 0.29717(15) 0.68168(14) 0.24960(10)
N2 N 0.13093(19) 0.03659(17) -0.17885(13)
N3 N 0.30408(18) 0.56402(18) -0.33343(12)
C1 C 0.1912(2) 0.39267(18) 0.34245(13)
H1 H 0.1139 0.2696 0.3124
H2 H 0.1198 0.4560 0.4038
H3 H 0.3148 0.3882 0.3848
C2 C 0.23015(18) 0.49308(17) 0.22732(13)
C3 C 0.20118(18) 0.39821(17) 0.10223(13)
H4 H 0.1554 0.2707 0.0892
C4 C 0.23897(17) 0.48865(17) -0.00823(12)
C5 C 0.29085(18) 0.68323(18) 0.01902(13)
H5 H 0.3052 0.7495 -0.0506
C6 C 0.32047(18) 0.77664(18) 0.14474(13)
C7 C 0.3787(2) 0.98309(18) 0.17073(13)
H6 H 0.3710 1.0295 0.0894
H7 H 0.5119 1.0239 0.2102
H8 H 0.2905 1.0280 0.2292
C8 C 0.22298(18) 0.39107(18) -0.13734(13)
C9 C 0.17215(19) 0.19611(19) -0.16162(13)
C10 C 0.26746(19) 0.48510(19) -0.24610(13)
C11 C 0.34475(19) 0.78194(18) 0.38639(13)
H9 H 0.4541 0.8884 0.3871
H10 H 0.3874 0.7021 0.4411
C12 C 0.1700(2) 0.84556(19) 0.44514(13)
H11 H 0.1400 0.9392 0.3998
H12 H 0.2031 0.8946 0.5366
H13 H 0.0566 0.7430 0.4360
loop_
_geom_bond_atom_site_label_1
_geom_bond_atom_site_label_2
_geom_bond_site_symmetry_1
_geom_bond_site_symmetry_2
N1 C2 1_555 1_555
N2 C9 1_555 1_555
N3 C10 1_555 1_555
C1 H1 1_555 1_555
H2 C1 1_555 1_555
H3 C1 1_555 1_555
C2 C1 1_555 1_555
C3 C2 1_555 1_555
H4 C3 1_555 1_555
C4 C3 1_555 1_555
C5 C4 1_555 1_555
H5 C5 1_555 1_555
C6 N1 1_555 1_555
C7 C6 1_555 1_555
H6 C7 1_555 1_555
H7 C7 1_555 1_555
H8 C7 1_555 1_555
C8 C4 1_555 1_555
C9 C8 1_555 1_555
C10 C8 1_555 1_555
C11 N1 1_555 1_555
H9 C11 1_555 1_555
H10 C11 1_555 1_555
C12 C11 1_555 1_555
H11 C12 1_555 1_555
H12 C12 1_555 1_555
H13 C12 1_555 1_555
C5 C6 1_555 1_555

#END
