
#######################################################################
#
#                 Cambridge Crystallographic Data Centre
#                                CCDC 
#
#######################################################################
#
# If this CIF has been generated from an entry in the Cambridge 
# Structural Database, then it will include bibliographic, chemical, 
# crystal, experimental, refinement or atomic coordinate data resulting 
# from the CCDC's data processing and validation procedures.
#
#######################################################################

data_DAWLIZ
_chemical_formula_moiety         'C14 H17 N3'
_chemical_name_systematic        
(1-butyl-2,6-dimethylpyridin-4(1H)-ylidene)malononitrile
_symmetry_cell_setting           triclinic
_symmetry_space_group_name_H-M   'P -1'
_symmetry_Int_Tables_number      2
_space_group_name_Hall           '-P 1'
loop_
_symmetry_equiv_pos_site_id
_symmetry_equiv_pos_as_xyz
1 x,y,z
2 -x,-y,-z
_cell_length_a                   7.6023(8)
_cell_length_b                   9.0012(10)
_cell_length_c                   9.9056(11)
_cell_angle_alpha                79.040(2)
_cell_angle_beta                 84.018(2)
_cell_angle_gamma                80.824(2)
_cell_volume                     655.046
_exptl_crystal_description       Block
_cell_formula_units_Z            2
loop_
_atom_site_label
_atom_site_type_symbol
_atom_site_fract_x
_atom_site_fract_y
_atom_site_fract_z
N1 N 0.10928(11) 0.19813(9) 0.26928(8)
N2 N -0.52233(12) 0.07398(10) 0.65687(9)
N3 N -0.16902(13) 0.31647(11) 0.83373(9)
C1 C 0.32618(14) 0.32469(13) 0.36067(11)
H1 H 0.3326 0.3742 0.4374
H2 H 0.3340 0.3972 0.2764
H3 H 0.4233 0.2424 0.3593
C2 C 0.15234(13) 0.26266(11) 0.37457(10)
C3 C 0.03823(13) 0.26791(10) 0.49050(10)
H4 H 0.0681 0.3138 0.5599
C4 C -0.12355(13) 0.20565(10) 0.50782(10)
C5 C -0.16180(13) 0.14095(10) 0.39699(10)
H5 H -0.2668 0.0984 0.4036
C6 C -0.04897(13) 0.13900(11) 0.28029(10)
C7 C -0.09788(14) 0.07386(12) 0.16307(10)
H6 H -0.2134 0.0414 0.1852
H7 H -0.0106 -0.0121 0.1478
H8 H -0.1009 0.1506 0.0811
C8 C -0.24087(13) 0.20542(11) 0.62878(10)
C9 C -0.39684(13) 0.13440(11) 0.64473(9)
C10 C -0.20223(13) 0.26759(11) 0.74137(10)
C11 C 0.23132(13) 0.19478(11) 0.14249(10)
H9 H 0.2210 0.1048 0.1050
H10 H 0.3535 0.1864 0.1664
C12 C 0.19199(13) 0.33611(11) 0.03233(10)
H11 H 0.2065 0.4263 0.0679
H12 H 0.0692 0.3466 0.0093
C13 C 0.31704(15) 0.32476(13) -0.09698(11)
H13 H 0.4397 0.3124 -0.0731
H14 H 0.3014 0.2348 -0.1325
C14 C 0.28325(16) 0.46499(14) -0.20886(12)
H15 H 0.1622 0.4773 -0.2333
H16 H 0.3636 0.4522 -0.2886
H17 H 0.3026 0.5539 -0.1753
loop_
_geom_bond_atom_site_label_1
_geom_bond_atom_site_label_2
_geom_bond_site_symmetry_1
_geom_bond_site_symmetry_2
N1 C2 1_555 1_555
N2 C9 1_555 1_555
N3 C10 1_555 1_555
C1 H1 1_555 1_555
H2 C1 1_555 1_555
H3 C1 1_555 1_555
C2 C1 1_555 1_555
C3 C2 1_555 1_555
H4 C3 1_555 1_555
C4 C3 1_555 1_555
C5 C4 1_555 1_555
H5 C5 1_555 1_555
C6 N1 1_555 1_555
C7 C6 1_555 1_555
H6 C7 1_555 1_555
H7 C7 1_555 1_555
H8 C7 1_555 1_555
C8 C4 1_555 1_555
C9 C8 1_555 1_555
C10 C8 1_555 1_555
C11 N1 1_555 1_555
H9 C11 1_555 1_555
H10 C11 1_555 1_555
C12 C11 1_555 1_555
H11 C12 1_555 1_555
H12 C12 1_555 1_555
C13 C12 1_555 1_555
H13 C13 1_555 1_555
H14 C13 1_555 1_555
C14 C13 1_555 1_555
H15 C14 1_555 1_555
H16 C14 1_555 1_555
H17 C14 1_555 1_555
C5 C6 1_555 1_555

#END
