
#######################################################################
#
#                 Cambridge Crystallographic Data Centre
#                                CCDC 
#
#######################################################################
#
# If this CIF has been generated from an entry in the Cambridge 
# Structural Database, then it will include bibliographic, chemical, 
# crystal, experimental, refinement or atomic coordinate data resulting 
# from the CCDC's data processing and validation procedures.
#
#######################################################################

data_DAWMAS
_chemical_formula_moiety         'C17 H23 N3 O2 S1,H2 O1'
_chemical_name_systematic        
'1,3-diethyl-5-(1-ethyl-2,6-dimethylpyridin-4(1H)-ylidene)-2-sulfanylidenedihydropyrimidine-4,6(1H,5H)-dione monohydrate'
_symmetry_cell_setting           monoclinic
_symmetry_space_group_name_H-M   'P 21/c'
_symmetry_Int_Tables_number      14
_space_group_name_Hall           '-P 2ybc'
loop_
_symmetry_equiv_pos_site_id
_symmetry_equiv_pos_as_xyz
1 x,y,z
2 -x,1/2+y,1/2-z
3 -x,-y,-z
4 x,1/2-y,1/2+z
_cell_length_a                   10.9827(13)
_cell_length_b                   14.2402(17)
_cell_length_c                   12.5749(11)
_cell_angle_alpha                90
_cell_angle_beta                 115.917(8)
_cell_angle_gamma                90
_cell_volume                     1768.87
_exptl_crystal_colour            orange
_exptl_crystal_description       Block
_cell_formula_units_Z            4
loop_
_atom_site_label
_atom_site_type_symbol
_atom_site_fract_x
_atom_site_fract_y
_atom_site_fract_z
S1 S -0.21019(5) -0.11923(4) 0.05932(4)
O1 O -0.15461(14) 0.12692(11) 0.34905(13)
O2 O 0.23329(13) -0.03716(11) 0.38027(13)
N1 N -0.16711(13) 0.00703(10) 0.22802(12)
N2 N 0.02368(14) -0.07074(9) 0.23958(12)
N3 N 0.29660(15) 0.21806(10) 0.68752(13)
C1 C -0.09028(17) 0.06606(12) 0.32615(14)
C2 C -0.11297(17) -0.05822(11) 0.18164(14)
C3 C 0.11214(17) -0.01829(11) 0.34078(14)
C4 C 0.05260(16) 0.05084(10) 0.38567(14)
C5 C 0.13631(16) 0.10728(11) 0.48842(14)
C6 C 0.08088(17) 0.16923(11) 0.54340(14)
H1 H -0.0128 0.1730 0.5137
C7 C 0.15897(18) 0.22411(12) 0.63875(14)
C8 C 0.35610(19) 0.16015(13) 0.63770(17)
C9 C 0.27871(18) 0.10616(13) 0.54092(16)
H2 H 0.3222 0.0673 0.5089
C10 C -0.31527(17) 0.02256(14) 0.17325(16)
H3 H -0.3423 0.0414 0.2339
H4 H -0.3609 -0.0360 0.1394
C11 C -0.3592(2) 0.09632(19) 0.0785(2)
H5 H -0.3117 0.1538 0.1108
H6 H -0.4549 0.1067 0.0489
H7 H -0.3392 0.0757 0.0152
C12 C 0.09008(19) -0.14121(13) 0.19535(17)
H8 H 0.0268 -0.1917 0.1565
H9 H 0.1672 -0.1679 0.2618
C13 C 0.1371(2) -0.09923(17) 0.1098(2)
H10 H 0.0610 -0.0731 0.0436
H11 H 0.1782 -0.1472 0.0827
H12 H 0.2020 -0.0506 0.1486
C14 C 0.0929(2) 0.29200(15) 0.68824(18)
H13 H 0.1229 0.2797 0.7710
H14 H -0.0036 0.2849 0.6476
H15 H 0.1171 0.3550 0.6779
C15 C 0.5080(2) 0.1546(2) 0.6905(2)
H16 H 0.5446 0.2166 0.6959
H17 H 0.5343 0.1163 0.6412
H18 H 0.5420 0.1275 0.7680
C16 C 0.3799(2) 0.27483(15) 0.79539(17)
H19 H 0.4644 0.2424 0.8415
H20 H 0.3316 0.2806 0.8439
C17 C 0.4097(3) 0.37117(17) 0.7639(2)
H21 H 0.4570 0.3657 0.7155
H22 H 0.4649 0.4049 0.8348
H23 H 0.3264 0.4044 0.7211
O3 O 0.7072(2) 0.20148(17) 0.4706(2)
H24 H 0.7149 0.1586 0.5202
H25 H 0.7343 0.1809 0.4211
loop_
_geom_bond_atom_site_label_1
_geom_bond_atom_site_label_2
_geom_bond_site_symmetry_1
_geom_bond_site_symmetry_2
S1 C2 1_555 1_555
O1 C1 1_555 1_555
O2 C3 1_555 1_555
N1 C1 1_555 1_555
N2 C2 1_555 1_555
N3 C7 1_555 1_555
C1 C4 1_555 1_555
C2 N1 1_555 1_555
C3 N2 1_555 1_555
C4 C3 1_555 1_555
C5 C4 1_555 1_555
C6 C5 1_555 1_555
H1 C6 1_555 1_555
C7 C6 1_555 1_555
C8 N3 1_555 1_555
C9 C5 1_555 1_555
H2 C9 1_555 1_555
C10 N1 1_555 1_555
H3 C10 1_555 1_555
H4 C10 1_555 1_555
C11 C10 1_555 1_555
H5 C11 1_555 1_555
H6 C11 1_555 1_555
H7 C11 1_555 1_555
C12 N2 1_555 1_555
H8 C12 1_555 1_555
H9 C12 1_555 1_555
C13 C12 1_555 1_555
H10 C13 1_555 1_555
H11 C13 1_555 1_555
H12 C13 1_555 1_555
C14 C7 1_555 1_555
H13 C14 1_555 1_555
H14 C14 1_555 1_555
H15 C14 1_555 1_555
C15 C8 1_555 1_555
H16 C15 1_555 1_555
H17 C15 1_555 1_555
H18 C15 1_555 1_555
C16 N3 1_555 1_555
H19 C16 1_555 1_555
H20 C16 1_555 1_555
C17 C16 1_555 1_555
H21 C17 1_555 1_555
H22 C17 1_555 1_555
H23 C17 1_555 1_555
O3 H24 1_555 1_555
H25 O3 1_555 1_555
C8 C9 1_555 1_555

#END
