
#######################################################################
#
#                 Cambridge Crystallographic Data Centre
#                                CCDC 
#
#######################################################################
#
# If this CIF has been generated from an entry in the Cambridge 
# Structural Database, then it will include bibliographic, chemical, 
# crystal, experimental, refinement or atomic coordinate data resulting 
# from the CCDC's data processing and validation procedures.
#
#######################################################################

data_DAWMOE
_chemical_formula_moiety         'C14 H25 Cl1 O1'
_chemical_name_systematic        
(2-(4-Chlorobutyl)cyclopropyl)-cyclohexylmethanol
_symmetry_cell_setting           monoclinic
_symmetry_space_group_name_H-M   'C 2'
_symmetry_Int_Tables_number      5
_space_group_name_Hall           'C 2y'
loop_
_symmetry_equiv_pos_site_id
_symmetry_equiv_pos_as_xyz
1 x,y,z
2 -x,y,-z
3 1/2+x,1/2+y,z
4 1/2-x,1/2+y,-z
_cell_length_a                   19.300(5)
_cell_length_b                   4.7397(10)
_cell_length_c                   16.127(4)
_cell_angle_alpha                90
_cell_angle_beta                 102.838(7)
_cell_angle_gamma                90
_cell_volume                     1438.36
_cell_formula_units_Z            4
loop_
_atom_site_label
_atom_site_type_symbol
_atom_site_fract_x
_atom_site_fract_y
_atom_site_fract_z
C1 C 0.11114(17) 0.6051(7) 0.48355(18)
H1 H 0.0655 0.6210 0.4439
H2 H 0.1284 0.7943 0.4990
C2 C 0.16257(14) 0.4557(8) 0.44062(15)
H3 H 0.1441 0.2698 0.4228
H4 H 0.2075 0.4314 0.4812
C3 C 0.17531(14) 0.6158(7) 0.36376(17)
H5 H 0.1300 0.6472 0.3246
H6 H 0.1953 0.7989 0.3823
C4 C 0.22461(13) 0.4663(6) 0.31663(15)
H7 H 0.2700 0.4351 0.3556
H8 H 0.2047 0.2832 0.2980
C5 C 0.23674(13) 0.6267(6) 0.24079(16)
H9 H 0.2605 0.8092 0.2540
C6 C 0.18233(14) 0.6175(7) 0.15794(17)
H10 H 0.1412 0.4972 0.1547
H11 H 0.1733 0.7901 0.1250
C7 C 0.25334(13) 0.4778(6) 0.16571(14)
H12 H 0.2525 0.2714 0.1689
C8 C 0.30473(12) 0.5962(6) 0.11725(14)
H13 H 0.3048 0.8020 0.1232
C9 C 0.38082(12) 0.4936(6) 0.14781(14)
H14 H 0.3804 0.2875 0.1427
C10 C 0.42868(13) 0.6088(7) 0.09268(17)
H15 H 0.4259 0.8132 0.0921
H16 H 0.4115 0.5431 0.0348
C11 C 0.50662(13) 0.5199(7) 0.12349(18)
H17 H 0.5106 0.3174 0.1174
H18 H 0.5352 0.6103 0.0886
C12 C 0.53440(14) 0.6013(7) 0.21547(17)
H19 H 0.5355 0.8053 0.2204
H20 H 0.5826 0.5321 0.2346
C13 C 0.48808(13) 0.4802(7) 0.27177(17)
H21 H 0.5054 0.5463 0.3296
H22 H 0.4916 0.2761 0.2721
C14 C 0.41027(13) 0.5661(6) 0.24092(15)
H23 H 0.3821 0.4714 0.2754
H24 H 0.4060 0.7677 0.2487
O1 O 0.28128(9) 0.5304(4) 0.02844(10)
H25 H 0.2558 0.6578 0.0045
Cl1 Cl 0.09989(5) 0.4235(2) 0.57661(5)
loop_
_geom_bond_atom_site_label_1
_geom_bond_atom_site_label_2
_geom_bond_site_symmetry_1
_geom_bond_site_symmetry_2
C1 H1 1_555 1_555
H2 C1 1_555 1_555
C2 C1 1_555 1_555
H3 C2 1_555 1_555
H4 C2 1_555 1_555
C3 C2 1_555 1_555
H5 C3 1_555 1_555
H6 C3 1_555 1_555
C4 C3 1_555 1_555
H7 C4 1_555 1_555
H8 C4 1_555 1_555
C5 C4 1_555 1_555
H9 C5 1_555 1_555
C6 C5 1_555 1_555
H10 C6 1_555 1_555
H11 C6 1_555 1_555
C7 C5 1_555 1_555
H12 C7 1_555 1_555
C8 C7 1_555 1_555
H13 C8 1_555 1_555
C9 C8 1_555 1_555
H14 C9 1_555 1_555
C10 C9 1_555 1_555
H15 C10 1_555 1_555
H16 C10 1_555 1_555
C11 C10 1_555 1_555
H17 C11 1_555 1_555
H18 C11 1_555 1_555
C12 C11 1_555 1_555
H19 C12 1_555 1_555
H20 C12 1_555 1_555
C13 C12 1_555 1_555
H21 C13 1_555 1_555
H22 C13 1_555 1_555
C14 C9 1_555 1_555
H23 C14 1_555 1_555
H24 C14 1_555 1_555
O1 C8 1_555 1_555
H25 O1 1_555 1_555
Cl1 C1 1_555 1_555
C6 C7 1_555 1_555
C13 C14 1_555 1_555

#END
