
#######################################################################
#
#                 Cambridge Crystallographic Data Centre
#                                CCDC 
#
#######################################################################
#
# If this CIF has been generated from an entry in the Cambridge 
# Structural Database, then it will include bibliographic, chemical, 
# crystal, experimental, refinement or atomic coordinate data resulting 
# from the CCDC's data processing and validation procedures.
#
#######################################################################

data_DAWMIZ
_chemical_formula_moiety         'C42 H70 O35,C4 H10 N2,12(H2 O1)'
_chemical_name_systematic        
'\b-Cyclodextrin piperazine solvate dodecahydrate'
_symmetry_cell_setting           orthorhombic
_symmetry_space_group_name_H-M   'P 21 21 21'
_symmetry_Int_Tables_number      19
_space_group_name_Hall           'P 2ac 2ab'
loop_
_symmetry_equiv_pos_site_id
_symmetry_equiv_pos_as_xyz
1 x,y,z
2 1/2+x,1/2-y,-z
3 -x,1/2+y,1/2-z
4 1/2-x,-y,1/2+z
_cell_length_a                   14.9066(5)
_cell_length_b                   20.4267(8)
_cell_length_c                   21.8526(9)
_cell_angle_alpha                90
_cell_angle_beta                 90
_cell_angle_gamma                90
_cell_volume                     6653.96
_exptl_crystal_colour            colorless
_exptl_crystal_description       prism
_cell_formula_units_Z            4
loop_
_atom_site_label
_atom_site_type_symbol
_atom_site_fract_x
_atom_site_fract_y
_atom_site_fract_z
O1 O 0.3578(2) 1.04689(15) 1.00479(15)
O2 O 0.3515(2) 1.07764(18) 1.12891(16)
H1 H 0.3881 1.0550 1.1106
O3 O 0.1605(2) 1.04933(18) 1.14257(15)
H2 H 0.1918 1.0285 1.1665
O4 O 0.2568(2) 1.13124(16) 0.98166(16)
O5 O 0.1544(3) 1.10856(18) 0.86785(17)
H3 H 0.1848 1.1407 0.8591
O6 O 0.0700(2) 1.02732(15) 1.03310(15)
O7 O -0.0106(2) 0.98791(18) 1.14019(15)
H4 H 0.0421 0.9964 1.1330
O8 O -0.1072(2) 0.87961(15) 1.08948(14)
H5 H -0.1223 0.8480 1.0688
O9 O -0.0688(2) 1.04892(15) 0.98706(15)
O10 O -0.2044(2) 1.02127(19) 0.90279(17)
H6 H -0.2086 1.0380 0.9368
O11 O -0.1076(2) 0.87385(15) 0.95868(15)
O12 O -0.1697(2) 0.76972(17) 1.02597(15)
H7 H -0.1191 0.7558 1.0328
O13 O -0.1148(2) 0.66675(16) 0.93747(16)
H8 H -0.1605 0.6510 0.9226
O14 O -0.2046(2) 0.84903(15) 0.87787(14)
O15 O -0.2361(2) 0.79392(17) 0.75861(16)
H9 H -0.2806 0.8174 0.7573
O16 O -0.0472(2) 0.72077(15) 0.82730(14)
O17 O -0.0446(2) 0.58897(16) 0.84197(15)
H10 H -0.0593 0.6186 0.8652
O18 O 0.1270(2) 0.56031(16) 0.78516(16)
H11 H 0.1695 0.5593 0.7614
O19 O -0.0300(2) 0.71365(16) 0.72148(14)
O20 O 0.0689(3) 0.7329(2) 0.61113(16)
H12 H 0.0156 0.7372 0.6028
O21 O 0.2088(2) 0.67172(15) 0.73190(14)
O22 O 0.2816(2) 0.54768(15) 0.71197(16)
H13 H 0.3163 0.5167 0.7147
O23 O 0.4583(2) 0.58242(16) 0.75951(16)
H14 H 0.4542 0.5685 0.7946
O24 O 0.3068(2) 0.71431(16) 0.65928(14)
O25 O 0.4633(2) 0.7659(2) 0.61432(16)
H15 H 0.4278 0.7461 0.5925
O26 O 0.46537(19) 0.72349(15) 0.78818(14)
O27 O 0.5713(2) 0.67043(15) 0.87987(16)
H16 H 0.5180 0.6614 0.8762
O28 O 0.5852(2) 0.78363(17) 0.95626(15)
H17 H 0.5833 0.8197 0.9727
O29 O 0.5739(2) 0.80399(14) 0.76740(15)
O30 O 0.6423(2) 0.93165(17) 0.76537(15)
H18 H 0.6617 0.9236 0.7311
O31 O 0.5221(2) 0.90346(15) 0.90333(14)
O32 O 0.6153(2) 0.90935(17) 1.00935(16)
H19 H 0.6378 0.9164 1.0430
O33 O 0.5022(2) 1.00486(16) 1.07649(14)
H20 H 0.4953 0.9727 1.0985
O34 O 0.5328(2) 1.01634(16) 0.88963(15)
O35 O 0.3941(3) 1.0687(2) 0.81223(16)
H21 H 0.4429 1.0673 0.7950
C1 C 0.3238(3) 1.1091(2) 1.0227(2)
H22 H 0.3730 1.1409 1.0239
C2 C 0.2852(3) 1.1004(2) 1.0872(2)
H23 H 0.2639 1.1431 1.1015
C3 C 0.2047(3) 1.0537(2) 1.0846(2)
H24 H 0.2258 1.0100 1.0728
C4 C 0.1372(3) 1.0774(2) 1.0378(2)
H25 H 0.1099 1.1185 1.0515
C5 C 0.1819(3) 1.0871(2) 0.9759(2)
H26 H 0.2039 1.0447 0.9612
C6 C 0.1204(3) 1.1156(3) 0.9284(2)
H27 H 0.0624 1.0942 0.9310
H28 H 0.1115 1.1618 0.9369
C7 C -0.0208(3) 1.0440(2) 1.0433(2)
H29 H -0.0233 1.0863 1.0644
C8 C -0.0620(3) 0.9919(2) 1.0843(2)
H30 H -0.1236 1.0047 1.0944
C9 C -0.0640(3) 0.9273(2) 1.0509(2)
H31 H -0.0023 0.9131 1.0427
C10 C -0.1133(3) 0.9356(2) 0.9904(2)
H32 H -0.1762 0.9471 0.9978
C11 C -0.0679(3) 0.9884(2) 0.9524(2)
H33 H -0.0056 0.9756 0.9445
C12 C -0.1139(3) 1.0023(2) 0.8923(2)
H34 H -0.0824 1.0370 0.8709
H35 H -0.1125 0.9634 0.8668
C13 C -0.1894(3) 0.8433(2) 0.9420(2)
H36 H -0.2388 0.8646 0.9639
C14 C -0.1847(3) 0.7717(2) 0.9611(2)
H37 H -0.2427 0.7511 0.9524
C15 C -0.1122(3) 0.7357(2) 0.9253(2)
H38 H -0.0535 0.7527 0.9378
C16 C -0.1244(3) 0.7479(2) 0.8574(2)
H39 H -0.1781 0.7247 0.8433
C17 C -0.1335(3) 0.8211(2) 0.8416(2)
H40 H -0.0770 0.8437 0.8504
C18 C -0.1595(3) 0.8324(2) 0.7757(2)
H41 H -0.1730 0.8784 0.7697
H42 H -0.1093 0.8212 0.7495
C19 C -0.0620(3) 0.6821(2) 0.7745(2)
H43 H -0.1266 0.6745 0.7701
C20 C -0.0153(3) 0.6163(2) 0.7847(2)
H44 H -0.0331 0.5865 0.7517
C21 C 0.0861(3) 0.6237(2) 0.7832(2)
H45 H 0.1051 0.6485 0.8194
C22 C 0.1142(3) 0.6609(2) 0.7264(2)
H46 H 0.1014 0.6349 0.6898
C23 C 0.0654(3) 0.7262(2) 0.7230(2)
H47 H 0.0795 0.7518 0.7597
C24 C 0.0883(3) 0.7662(3) 0.6672(2)
H48 H 0.0547 0.8069 0.6683
H49 H 0.1516 0.7771 0.6682
C25 C 0.2629(3) 0.6578(2) 0.67957(19)
H50 H 0.2245 0.6412 0.6467
C26 C 0.3309(3) 0.6060(2) 0.6963(2)
H51 H 0.3689 0.5970 0.6607
C27 C 0.3894(3) 0.6292(2) 0.7487(2)
H52 H 0.3528 0.6345 0.7857
C28 C 0.4326(3) 0.6946(2) 0.7316(2)
H53 H 0.4832 0.6868 0.7039
C29 C 0.3677(3) 0.7441(2) 0.7025(2)
H54 H 0.3333 0.7662 0.7347
C30 C 0.4166(3) 0.7949(2) 0.6641(2)
H55 H 0.3735 0.8263 0.6483
H56 H 0.4588 0.8183 0.6897
C31 C 0.5571(3) 0.7394(2) 0.7906(2)
H57 H 0.5909 0.7077 0.7660
C32 C 0.5871(3) 0.7344(2) 0.8568(2)
H58 H 0.6522 0.7411 0.8571
C33 C 0.5462(3) 0.7878(2) 0.8970(2)
H59 H 0.4812 0.7811 0.9000
C34 C 0.5650(3) 0.8539(2) 0.8671(2)
H60 H 0.6298 0.8617 0.8669
C35 C 0.5299(3) 0.8556(2) 0.8011(2)
H61 H 0.4651 0.8473 0.8014
C36 C 0.5476(3) 0.9185(2) 0.7672(2)
H62 H 0.5246 0.9151 0.7258
H63 H 0.5169 0.9543 0.7874
C37 C 0.5733(3) 0.9604(2) 0.9160(2)
H64 H 0.6334 0.9550 0.8986
C38 C 0.5816(3) 0.9688(2) 0.9848(2)
H65 H 0.6244 1.0040 0.9934
C39 C 0.4917(3) 0.9860(2) 1.0137(2)
H66 H 0.4524 0.9477 1.0117
C40 C 0.4469(3) 1.0424(2) 0.9806(2)
H67 H 0.4797 1.0832 0.9885
C41 C 0.4434(3) 1.0292(2) 0.9120(2)
H68 H 0.4059 0.9906 0.9046
C42 C 0.4066(4) 1.0863(3) 0.8749(2)
H69 H 0.3497 1.1001 0.8922
H70 H 0.4479 1.1229 0.8774
C43 C 0.2649(6) 0.8993(5) 0.9351(4)
H71 H 0.2730 0.9433 0.9507
H72 H 0.3185 0.8742 0.9442
C44 C 0.1831(6) 0.8672(4) 0.9657(3)
H73 H 0.1907 0.8665 1.0098
H74 H 0.1290 0.8916 0.9562
C45 C 0.1602(7) 0.8016(5) 0.8734(3)
H75 H 0.1058 0.8261 0.8651
H76 H 0.1527 0.7577 0.8573
C46 C 0.2397(7) 0.8346(4) 0.8426(4)
H77 H 0.2938 0.8094 0.8499
H78 H 0.2298 0.8369 0.7988
N1 N 0.2500(5) 0.9013(3) 0.8679(3)
H79 H 0.2974 0.9208 0.8501
N2 N 0.1763(5) 0.7986(3) 0.9412(3)
H80 H 0.1304 0.7775 0.9594
O36 O 0.6380(2) 0.7951(2) 0.59032(16)
H91 H 0.5819(10) 0.793(3) 0.597(2)
H92 H 0.648(3) 0.806(3) 0.5534(11)
O37 O 0.6053(3) 0.09210(19) 0.14345(18)
H93 H 0.581(4) 0.064(2) 0.1197(19)
H94 H 0.581(4) 0.090(3) 0.1786(13)
O38 O 0.9037(3) 0.78593(19) 0.59117(17)
H95 H 0.858(3) 0.767(2) 0.607(3)
H96 H 0.908(4) 0.8251(13) 0.605(3)
O39 O 0.2365(3) 0.2241(2) 0.84774(18)
H97 H 0.275(3) 0.235(3) 0.874(2)
H98 H 0.238(5) 0.240(3) 0.8119(13)
O40 O 0.7188(2) 0.9372(2) 0.10388(17)
H99 H 0.692(4) 0.941(3) 0.1384(14)
H100 H 0.761(3) 0.910(3) 0.106(3)
O41 O 0.1781(3) 0.66903(18) 0.52955(17)
H101 H 0.146(4) 0.692(3) 0.554(2)
H102 H 0.163(4) 0.6295(11) 0.535(3)
O42 O 0.7054(3) 0.9053(2) 0.65295(19)
H103 H 0.7607(14) 0.914(3) 0.648(3)
H104 H 0.692(4) 0.8693(19) 0.636(3)
O43 O 0.7384(3) 0.6109(2) 0.8785(2)
H105 H 0.6833(16) 0.621(4) 0.873(3)
H106 H 0.745(5) 0.589(3) 0.8454(19)
O44 O 0.3733(3) 0.6919(3) 0.53220(19)
H107 H 0.381(4) 0.707(4) 0.4962(16)
H108 H 0.3190(18) 0.680(4) 0.538(3)
O45 O 0.2430(3) 0.9684(3) 0.2300(2)
H109 H 0.259(4) 0.976(4) 0.2671(10)
H110 H 0.288(3) 0.977(4) 0.206(2)
O46 O 0.1245(4) 0.9886(3) 0.8164(2)
H111 H 0.093(5) 0.957(3) 0.832(3)
H112 H 0.124(6) 1.022(2) 0.840(3)
O47 O 0.4688(4) 0.0874(3) 0.2331(2)
C47? C 0.2594(13) 0.8953(13) 0.9438(14)
H81? H 0.2973 0.9052 0.9787
H82? H 0.2602 0.9333 0.9172
C48? C 0.1709(12) 0.8864(13) 0.9651(11)
H83? H 0.1478 0.9286 0.9780
H84? H 0.1729 0.8585 1.0010
C49? C 0.1471(12) 0.7972(12) 0.8920(14)
H85? H 0.1062 0.7785 0.8622
H86? H 0.1585 0.7646 0.9234
C50? C 0.2360(12) 0.8168(13) 0.8606(9)
H87? H 0.2609 0.7797 0.8387
H88? H 0.2256 0.8519 0.8316
N3? N 0.3005(9) 0.8392(8) 0.9098(8)
H89? H 0.3525 0.8521 0.8927
N4? N 0.1064(10) 0.8572(10) 0.9201(9)
H90? H 0.0551 0.8462 0.9393
O48? O 0.5319(10) 0.0441(8) 0.2464(8)
loop_
_geom_bond_atom_site_label_1
_geom_bond_atom_site_label_2
_geom_bond_site_symmetry_1
_geom_bond_site_symmetry_2
O1 C1 1_555 1_555
O2 H1 1_555 1_555
O3 H2 1_555 1_555
O4 C1 1_555 1_555
O5 H3 1_555 1_555
O6 C4 1_555 1_555
O7 H4 1_555 1_555
O8 H5 1_555 1_555
O9 C7 1_555 1_555
O10 H6 1_555 1_555
O11 C10 1_555 1_555
O12 H7 1_555 1_555
O13 H8 1_555 1_555
O14 C13 1_555 1_555
O15 H9 1_555 1_555
O16 C16 1_555 1_555
O17 H10 1_555 1_555
O18 H11 1_555 1_555
O19 C19 1_555 1_555
O20 H12 1_555 1_555
O21 C22 1_555 1_555
O22 H13 1_555 1_555
O23 H14 1_555 1_555
O24 C25 1_555 1_555
O25 H15 1_555 1_555
O26 C28 1_555 1_555
O27 H16 1_555 1_555
O28 H17 1_555 1_555
O29 C31 1_555 1_555
O30 H18 1_555 1_555
O31 C34 1_555 1_555
O32 H19 1_555 1_555
O33 H20 1_555 1_555
O34 C37 1_555 1_555
O35 H21 1_555 1_555
C1 H22 1_555 1_555
C2 O2 1_555 1_555
H23 C2 1_555 1_555
C3 O3 1_555 1_555
H24 C3 1_555 1_555
C4 C3 1_555 1_555
H25 C4 1_555 1_555
C5 O4 1_555 1_555
H26 C5 1_555 1_555
C6 O5 1_555 1_555
H27 C6 1_555 1_555
H28 C6 1_555 1_555
C7 O6 1_555 1_555
H29 C7 1_555 1_555
C8 O7 1_555 1_555
H30 C8 1_555 1_555
C9 O8 1_555 1_555
H31 C9 1_555 1_555
C10 C9 1_555 1_555
H32 C10 1_555 1_555
C11 O9 1_555 1_555
H33 C11 1_555 1_555
C12 O10 1_555 1_555
H34 C12 1_555 1_555
H35 C12 1_555 1_555
C13 O11 1_555 1_555
H36 C13 1_555 1_555
C14 O12 1_555 1_555
H37 C14 1_555 1_555
C15 O13 1_555 1_555
H38 C15 1_555 1_555
C16 C15 1_555 1_555
H39 C16 1_555 1_555
C17 O14 1_555 1_555
H40 C17 1_555 1_555
C18 O15 1_555 1_555
H41 C18 1_555 1_555
H42 C18 1_555 1_555
C19 O16 1_555 1_555
H43 C19 1_555 1_555
C20 O17 1_555 1_555
H44 C20 1_555 1_555
C21 O18 1_555 1_555
H45 C21 1_555 1_555
C22 C21 1_555 1_555
H46 C22 1_555 1_555
C23 O19 1_555 1_555
H47 C23 1_555 1_555
C24 O20 1_555 1_555
H48 C24 1_555 1_555
H49 C24 1_555 1_555
C25 O21 1_555 1_555
H50 C25 1_555 1_555
C26 O22 1_555 1_555
H51 C26 1_555 1_555
C27 O23 1_555 1_555
H52 C27 1_555 1_555
C28 C27 1_555 1_555
H53 C28 1_555 1_555
C29 O24 1_555 1_555
H54 C29 1_555 1_555
C30 O25 1_555 1_555
H55 C30 1_555 1_555
H56 C30 1_555 1_555
C31 O26 1_555 1_555
H57 C31 1_555 1_555
C32 O27 1_555 1_555
H58 C32 1_555 1_555
C33 O28 1_555 1_555
H59 C33 1_555 1_555
C34 C33 1_555 1_555
H60 C34 1_555 1_555
C35 O29 1_555 1_555
H61 C35 1_555 1_555
C36 O30 1_555 1_555
H62 C36 1_555 1_555
H63 C36 1_555 1_555
C37 O31 1_555 1_555
H64 C37 1_555 1_555
C38 O32 1_555 1_555
H65 C38 1_555 1_555
C39 O33 1_555 1_555
H66 C39 1_555 1_555
C40 O1 1_555 1_555
H67 C40 1_555 1_555
C41 O34 1_555 1_555
H68 C41 1_555 1_555
C42 O35 1_555 1_555
H69 C42 1_555 1_555
H70 C42 1_555 1_555
C43 H71 1_555 1_555
H72 C43 1_555 1_555
C44 C43 1_555 1_555
H73 C44 1_555 1_555
H74 C44 1_555 1_555
C45 H75 1_555 1_555
H76 C45 1_555 1_555
C46 C45 1_555 1_555
H77 C46 1_555 1_555
H78 C46 1_555 1_555
N1 C43 1_555 1_555
H79 N1 1_555 1_555
N2 C44 1_555 1_555
H80 N2 1_555 1_555
O36 H91 1_555 1_555
H92 O36 1_555 1_555
O37 H93 1_555 1_555
H94 O37 1_555 1_555
O38 H95 1_555 1_555
H96 O38 1_555 1_555
O39 H97 1_555 1_555
H98 O39 1_555 1_555
O40 H99 1_555 1_555
H100 O40 1_555 1_555
O41 H101 1_555 1_555
H102 O41 1_555 1_555
O42 H103 1_555 1_555
H104 O42 1_555 1_555
O43 H105 1_555 1_555
H106 O43 1_555 1_555
O44 H107 1_555 1_555
H108 O44 1_555 1_555
O45 H109 1_555 1_555
H110 O45 1_555 1_555
O46 H111 1_555 1_555
H112 O46 1_555 1_555
C1 C2 1_555 1_555
C2 C3 1_555 1_555
C4 C5 1_555 1_555
C5 C6 1_555 1_555
C7 C8 1_555 1_555
C8 C9 1_555 1_555
C10 C11 1_555 1_555
C11 C12 1_555 1_555
C13 C14 1_555 1_555
C14 C15 1_555 1_555
C16 C17 1_555 1_555
C17 C18 1_555 1_555
C19 C20 1_555 1_555
C20 C21 1_555 1_555
C22 C23 1_555 1_555
C23 C24 1_555 1_555
C25 C26 1_555 1_555
C26 C27 1_555 1_555
C28 C29 1_555 1_555
C29 C30 1_555 1_555
C31 C32 1_555 1_555
C32 C33 1_555 1_555
C34 C35 1_555 1_555
C35 C36 1_555 1_555
C37 C38 1_555 1_555
C38 C39 1_555 1_555
C39 C40 1_555 1_555
C40 C41 1_555 1_555
C41 C42 1_555 1_555
C45 N2 1_555 1_555
C46 N1 1_555 1_555

#END
