
#######################################################################
#
#                 Cambridge Crystallographic Data Centre
#                                CCDC 
#
#######################################################################
#
# If this CIF has been generated from an entry in the Cambridge 
# Structural Database, then it will include bibliographic, chemical, 
# crystal, experimental, refinement or atomic coordinate data resulting 
# from the CCDC's data processing and validation procedures.
#
#######################################################################

data_DAWMAS01
_chemical_formula_moiety         'C17 H23 N3 O2 S1,H2 O1'
_chemical_name_systematic        
'1,3-diethyl-5-(1-ethyl-2,6-dimethylpyridin-4(1H)-ylidene)-2-sulfanylidenedihydropyrimidine-4,6(1H,5H)-dione hydrate'
_symmetry_cell_setting           monoclinic
_symmetry_space_group_name_H-M   'P 21/n'
_symmetry_Int_Tables_number      14
_space_group_name_Hall           '-P 2yn'
loop_
_symmetry_equiv_pos_site_id
_symmetry_equiv_pos_as_xyz
1 x,y,z
2 1/2-x,1/2+y,1/2-z
3 -x,-y,-z
4 1/2+x,1/2-y,1/2+z
_cell_length_a                   10.9669(13)
_cell_length_b                   14.1993(16)
_cell_length_c                   12.5425(15)
_cell_angle_alpha                90
_cell_angle_beta                 115.925(2)
_cell_angle_gamma                90
_cell_volume                     1756.6
_exptl_crystal_colour            yellow
_exptl_crystal_description       prismatic
_cell_formula_units_Z            4
loop_
_atom_site_label
_atom_site_type_symbol
_atom_site_fract_x
_atom_site_fract_y
_atom_site_fract_z
S1 S 0.73062(7) 1.11921(4) 0.44092(5)
N1 N 0.78398(17) 1.07078(11) 0.26042(15)
N2 N 0.60475(16) 0.99290(11) 0.27189(14)
N3 N 0.60908(19) 0.78189(12) -0.18773(15)
O1 O 0.85305(17) 1.03732(12) 0.11968(15)
O2 O 0.49625(19) 0.87315(12) 0.15097(16)
C1 C 0.7055(2) 1.05827(13) 0.31844(18)
C2 C 0.7714(2) 1.01838(14) 0.15926(18)
C3 C 0.66708(19) 0.94913(13) 0.11431(17)
C4 C 0.5834(2) 0.93406(14) 0.17394(18)
C5 C 0.6480(2) 0.89282(13) 0.01175(17)
C6 C 0.7378(2) 0.89364(15) -0.04119(19)
H1 H 0.8136 0.9326 -0.0092
C7 C 0.7186(2) 0.83965(16) -0.1378(2)
C8 C 0.5203(2) 0.77600(14) -0.13895(18)
C9 C 0.5376(2) 0.83081(13) -0.04371(17)
H2 H 0.4735 0.8270 -0.0141
C10 C 0.8952(2) 1.14126(15) 0.3048(2)
H3 H 0.8707 1.1921 0.3434
H4 H 0.9061 1.1677 0.2382
C11 C 1.0268(2) 1.09969(19) 0.3904(2)
H5 H 1.0167 1.0735 0.4566
H6 H 1.0951 1.1479 0.4178
H7 H 1.0533 1.0509 0.3517
C12 C 0.5118(2) 0.97732(16) 0.3271(2)
H8 H 0.4237 0.9587 0.2664
H9 H 0.5005 1.0360 0.3614
C13 C 0.5618(3) 0.9037(2) 0.4211(2)
H10 H 0.5763 0.8460 0.3884
H11 H 0.4959 0.8937 0.4510
H12 H 0.6457 0.9240 0.4845
C14 C 0.8174(3) 0.8455(2) -0.1911(3)
H13 H 0.8461 0.7833 -0.1996
H14 H 0.8948 0.8820 -0.1402
H15 H 0.7745 0.8751 -0.2675
C15 C 0.4048(3) 0.70782(17) -0.1885(2)
H16 H 0.3515 0.7204 -0.2713
H17 H 0.3492 0.7145 -0.1474
H18 H 0.4396 0.6448 -0.1787
C16 C 0.5843(3) 0.72529(17) -0.2953(2)
H19 H 0.6225 0.7580 -0.3416
H20 H 0.4874 0.7195 -0.3437
C17 C 0.6456(4) 0.6288(2) -0.2645(3)
H21 H 0.7413 0.6342 -0.2153
H22 H 0.6305 0.5956 -0.3359
H23 H 0.6043 0.5949 -0.2226
O3 O 0.2371(3) 0.79838(19) 0.0292(2)
H24 H 0.1826 0.8360 -0.0333
H25 H 0.2926 0.8368 0.0772
loop_
_geom_bond_atom_site_label_1
_geom_bond_atom_site_label_2
_geom_bond_site_symmetry_1
_geom_bond_site_symmetry_2
S1 C1 1_555 1_555
N1 C1 1_555 1_555
N2 C1 1_555 1_555
N3 C7 1_555 1_555
O1 C2 1_555 1_555
O2 C4 1_555 1_555
C2 N1 1_555 1_555
C3 C2 1_555 1_555
C4 N2 1_555 1_555
C5 C3 1_555 1_555
C6 C5 1_555 1_555
H1 C6 1_555 1_555
C7 C6 1_555 1_555
C8 N3 1_555 1_555
C9 C5 1_555 1_555
H2 C9 1_555 1_555
C10 N1 1_555 1_555
H3 C10 1_555 1_555
H4 C10 1_555 1_555
C11 C10 1_555 1_555
H5 C11 1_555 1_555
H6 C11 1_555 1_555
H7 C11 1_555 1_555
C12 N2 1_555 1_555
H8 C12 1_555 1_555
H9 C12 1_555 1_555
C13 C12 1_555 1_555
H10 C13 1_555 1_555
H11 C13 1_555 1_555
H12 C13 1_555 1_555
C14 C7 1_555 1_555
H13 C14 1_555 1_555
H14 C14 1_555 1_555
H15 C14 1_555 1_555
C15 C8 1_555 1_555
H16 C15 1_555 1_555
H17 C15 1_555 1_555
H18 C15 1_555 1_555
C16 N3 1_555 1_555
H19 C16 1_555 1_555
H20 C16 1_555 1_555
C17 C16 1_555 1_555
H21 C17 1_555 1_555
H22 C17 1_555 1_555
H23 C17 1_555 1_555
O3 H24 1_555 1_555
H25 O3 1_555 1_555
C3 C4 1_555 1_555
C8 C9 1_555 1_555

#END
