
#######################################################################
#
#                 Cambridge Crystallographic Data Centre
#                                CCDC 
#
#######################################################################
#
# If this CIF has been generated from an entry in the Cambridge 
# Structural Database, then it will include bibliographic, chemical, 
# crystal, experimental, refinement or atomic coordinate data resulting 
# from the CCDC's data processing and validation procedures.
#
#######################################################################

data_DAWNEV
_chemical_formula_moiety         'C18 H27 I1 O4'
_chemical_name_systematic        
'1-(3-Iodo-2,2-dimethylcyclopropyl)propyl 4,7,7-trimethyl-3-oxo-2-oxabicyclo[2.2.1]heptane-1-carboxylate'
_symmetry_cell_setting           orthorhombic
_symmetry_space_group_name_H-M   'P 21 21 21'
_symmetry_Int_Tables_number      19
_space_group_name_Hall           'P 2ac 2ab'
loop_
_symmetry_equiv_pos_site_id
_symmetry_equiv_pos_as_xyz
1 x,y,z
2 1/2+x,1/2-y,-z
3 -x,1/2+y,1/2-z
4 1/2-x,-y,1/2+z
_cell_length_a                   6.094(6)
_cell_length_b                   15.229(14)
_cell_length_c                   20.355(18)
_cell_angle_alpha                90
_cell_angle_beta                 90
_cell_angle_gamma                90
_cell_volume                     1889.06
_cell_formula_units_Z            4
loop_
_atom_site_label
_atom_site_type_symbol
_atom_site_fract_x
_atom_site_fract_y
_atom_site_fract_z
I1 I -0.04008(3) 0.572897(12) 0.213940(10)
O1 O 0.3432(3) 0.69439(11) 0.32749(9)
O2 O 0.0185(3) 0.71244(10) 0.37904(8)
O3 O 0.1506(3) 0.61465(11) 0.48216(9)
O4 O 0.1355(3) 0.51835(13) 0.56479(11)
C1 C 0.2608(4) 0.62545(17) 0.17904(14)
H1 H 0.3634 0.5809 0.1628
C2 C 0.3707(4) 0.70188(14) 0.21283(15)
H2 H 0.5311 0.6977 0.2141
C3 C 0.2771(5) 0.71222(17) 0.14387(15)
C4 C 0.0762(5) 0.76866(16) 0.13204(14)
H3 H 0.0027 0.7492 0.0929
H4 H 0.1201 0.8288 0.1268
H5 H -0.0216 0.7637 0.1688
C5 C 0.4397(5) 0.71360(17) 0.08816(13)
H6 H 0.5580 0.6740 0.0977
H7 H 0.4966 0.7720 0.0830
H8 H 0.3681 0.6958 0.0483
C6 C 0.2733(4) 0.74688(16) 0.27139(14)
H9 H 0.1128 0.7463 0.2682
C7 C 0.3534(5) 0.84050(17) 0.28134(19)
H10 H 0.2991 0.8763 0.2454
H11 H 0.2894 0.8631 0.3216
C8 C 0.6002(5) 0.85127(18) 0.2852(2)
H12 H 0.6585 0.8110 0.3170
H13 H 0.6348 0.9103 0.2981
H14 H 0.6637 0.8393 0.2430
C9 C 0.2018(5) 0.68424(16) 0.37778(14)
C10 C 0.3145(4) 0.63373(17) 0.43112(13)
C11 C 0.5008(4) 0.68215(14) 0.46665(13)
H15 H 0.4451 0.7303 0.4930
H16 H 0.6088 0.7044 0.4359
C12 C 0.5971(4) 0.60874(16) 0.51005(14)
H17 H 0.5814 0.6229 0.5563
H18 H 0.7513 0.5995 0.5004
C13 C 0.4603(5) 0.52701(14) 0.49190(12)
C14 C 0.2355(5) 0.54822(18) 0.51949(15)
C15 C 0.4106(4) 0.54150(15) 0.41737(13)
C16 C 0.6144(4) 0.54000(17) 0.37395(14)
H19 H 0.5746 0.5555 0.3298
H20 H 0.6771 0.4822 0.3743
H21 H 0.7197 0.5814 0.3904
C17 C 0.2424(5) 0.47685(16) 0.38965(16)
H22 H 0.2031 0.4941 0.3458
H23 H 0.1138 0.4769 0.4169
H24 H 0.3046 0.4189 0.3888
C18 C 0.5526(5) 0.43988(16) 0.51397(13)
H25 H 0.5674 0.4397 0.5609
H26 H 0.6938 0.4310 0.4942
H27 H 0.4553 0.3935 0.5008
loop_
_geom_bond_atom_site_label_1
_geom_bond_atom_site_label_2
_geom_bond_site_symmetry_1
_geom_bond_site_symmetry_2
I1 C1 1_555 1_555
O1 C6 1_555 1_555
O2 C9 1_555 1_555
O3 C10 1_555 1_555
O4 C14 1_555 1_555
C1 H1 1_555 1_555
C2 C1 1_555 1_555
H2 C2 1_555 1_555
C3 C1 1_555 1_555
C4 C3 1_555 1_555
H3 C4 1_555 1_555
H4 C4 1_555 1_555
H5 C4 1_555 1_555
C5 C3 1_555 1_555
H6 C5 1_555 1_555
H7 C5 1_555 1_555
H8 C5 1_555 1_555
C6 C2 1_555 1_555
H9 C6 1_555 1_555
C7 C6 1_555 1_555
H10 C7 1_555 1_555
H11 C7 1_555 1_555
C8 C7 1_555 1_555
H12 C8 1_555 1_555
H13 C8 1_555 1_555
H14 C8 1_555 1_555
C9 O1 1_555 1_555
C10 C9 1_555 1_555
C11 C10 1_555 1_555
H15 C11 1_555 1_555
H16 C11 1_555 1_555
C12 C11 1_555 1_555
H17 C12 1_555 1_555
H18 C12 1_555 1_555
C13 C12 1_555 1_555
C14 O3 1_555 1_555
C15 C10 1_555 1_555
C16 C15 1_555 1_555
H19 C16 1_555 1_555
H20 C16 1_555 1_555
H21 C16 1_555 1_555
C17 C15 1_555 1_555
H22 C17 1_555 1_555
H23 C17 1_555 1_555
H24 C17 1_555 1_555
C18 C13 1_555 1_555
H25 C18 1_555 1_555
H26 C18 1_555 1_555
H27 C18 1_555 1_555
C2 C3 1_555 1_555
C13 C14 1_555 1_555
C13 C15 1_555 1_555

#END
