
#######################################################################
#
#                 Cambridge Crystallographic Data Centre
#                                CCDC 
#
#######################################################################
#
# If this CIF has been generated from an entry in the Cambridge 
# Structural Database, then it will include bibliographic, chemical, 
# crystal, experimental, refinement or atomic coordinate data resulting 
# from the CCDC's data processing and validation procedures.
#
#######################################################################

data_DAWREZ
_chemical_formula_moiety         'C54 H54 N6 O12,6(C3 H7 N1 O1)'
_chemical_name_systematic        
'4^4^,4^5^,10^4^,10^5^,16^4^,16^5^-Hexaethoxy-1^2^,1^3^,7^2^,7^3^,13^2^,13^3^-hexahydroxy-3,5,9,11,15,17-hexa-aza-1,7,13(1,4)4,10,16(1,2)-hexabenzenacyclo-octadecaphane-2,5,8,11,14,17-hexaene dimethylformamide solvate'
_symmetry_cell_setting           triclinic
_symmetry_space_group_name_H-M   'P -1'
_symmetry_Int_Tables_number      2
_space_group_name_Hall           '-P 1'
loop_
_symmetry_equiv_pos_site_id
_symmetry_equiv_pos_as_xyz
1 x,y,z
2 -x,-y,-z
_cell_length_a                   10.3139(9)
_cell_length_b                   16.569(2)
_cell_length_c                   22.171(3)
_cell_angle_alpha                83.097(4)
_cell_angle_beta                 79.186(4)
_cell_angle_gamma                77.884(4)
_cell_volume                     3625.74
_exptl_crystal_colour            red
_exptl_crystal_description       plate
_cell_formula_units_Z            2
_exptl_crystal_recrystallization_method DMF/ether
loop_
_atom_site_label
_atom_site_type_symbol
_atom_site_fract_x
_atom_site_fract_y
_atom_site_fract_z
C1 C 0.8023(3) 0.5663(2) 0.92929(14)
C2 C 0.8554(3) 0.4883(2) 0.95658(14)
H1 H 0.9389 0.4582 0.9375
C3 C 0.7885(3) 0.4544(2) 1.01070(14)
C4 C 0.6667(3) 0.5013(2) 1.03915(13)
C5 C 0.6132(3) 0.5774(2) 1.01249(14)
H2 H 0.5307 0.6080 1.0321
C6 C 0.6791(3) 0.6104(2) 0.95651(14)
C7 C 0.5002(3) 0.7070(2) 0.92561(14)
H3 H 0.4435 0.6705 0.9465
C8 C 0.4409(3) 0.7841(2) 0.89282(14)
C9 C 0.3056(3) 0.7966(2) 0.88698(17)
H4 H 0.2529 0.7569 0.9060
C10 C 0.2483(3) 0.8661(2) 0.85390(18)
H5 H 0.1551 0.8750 0.8518
C11 C 0.3241(3) 0.9236(2) 0.82342(14)
C12 C 0.4600(3) 0.9118(2) 0.82900(15)
C13 C 0.5187(3) 0.8416(2) 0.86408(14)
C14 C 0.2639(3) 0.9922(2) 0.78376(15)
H6 H 0.1693 1.0021 0.7851
C15 C 0.2658(3) 1.10456(19) 0.70922(14)
C16 C 0.1415(3) 1.1527(2) 0.73123(15)
H7 H 0.1001 1.1419 0.7726
C17 C 0.0770(3) 1.2157(2) 0.69429(16)
C18 C 0.1390(3) 1.23096(18) 0.63245(15)
C19 C 0.2617(3) 1.18534(18) 0.61116(15)
H8 H 0.3033 1.1970 0.5699
C20 C 0.3286(3) 1.12145(18) 0.64853(14)
C21 C 0.5052(3) 1.07532(19) 0.56897(14)
H9 H 0.4539 1.1100 0.5410
C22 C 0.6345(3) 1.02836(17) 0.54469(13)
C23 C 0.6795(3) 1.0350(2) 0.48110(15)
H10 H 0.6253 1.0713 0.4551
C24 C 0.7997(3) 0.9904(2) 0.45578(14)
H11 H 0.8279 0.9954 0.4124
C25 C 0.8825(3) 0.93717(17) 0.49320(13)
C26 C 0.8392(3) 0.93048(17) 0.55709(13)
C27 C 0.7160(3) 0.97607(17) 0.58311(13)
C28 C 1.0093(3) 0.88951(18) 0.46549(13)
H12 H 1.0378 0.8967 0.4222
C29 C 1.2079(3) 0.78991(17) 0.47412(13)
C30 C 1.2728(3) 0.80024(17) 0.41319(13)
H13 H 1.2324 0.8422 0.3856
C31 C 1.3945(3) 0.75068(17) 0.39226(12)
C32 C 1.4567(3) 0.68927(17) 0.43338(13)
C33 C 1.3945(3) 0.67993(17) 0.49405(13)
H14 H 1.4370 0.6393 0.5219
C34 C 1.2700(3) 0.72925(17) 0.51521(12)
C35 C 1.2627(3) 0.69027(17) 0.62115(12)
H15 H 1.3575 0.6858 0.6150
C36 C 1.1910(3) 0.66856(16) 0.68197(12)
C37 C 1.2614(3) 0.64572(19) 0.73208(13)
H16 H 1.3547 0.6469 0.7262
C38 C 1.1969(3) 0.62188(19) 0.78898(13)
H17 H 1.2457 0.6067 0.8223
C39 C 1.0597(3) 0.61963(18) 0.79871(13)
C40 C 0.9875(3) 0.64376(19) 0.75013(13)
C41 C 1.0534(3) 0.66739(17) 0.69137(13)
C42 C 0.9932(3) 0.5908(2) 0.85915(14)
H18 H 1.0459 0.5666 0.8899
C43 C 0.9807(8) 0.3320(5) 1.0149(6)
H19 H 0.9864 0.3188 0.9720
H20 H 1.0454 0.3685 1.0149
C44 C 1.0174(5) 0.2526(3) 1.0551(3)
H21 H 1.1090 0.2247 1.0393
H22 H 0.9543 0.2161 1.0544
H23 H 1.0125 0.2658 1.0975
C45 C 0.4761(3) 0.5069(2) 1.12072(14)
H24 H 0.4126 0.5118 1.0915
H25 H 0.4791 0.5633 1.1303
C46 C 0.4312(3) 0.4551(2) 1.17946(15)
H26 H 0.4350 0.3984 1.1698
H27 H 0.3388 0.4793 1.1972
H28 H 0.4910 0.4543 1.2092
C47 C -0.1050(4) 1.2554(3) 0.7755(2)
H29 H -0.0420 1.2584 0.8034
H30 H -0.1319 1.2006 0.7839
C48 C -0.2282(4) 1.3245(3) 0.7853(3)
H31 H -0.2847 1.3246 0.7543
H32 H -0.1994 1.3779 0.7813
H33 H -0.2797 1.3155 0.8266
C49 C 0.1247(3) 1.3026(2) 0.53370(16)
H34 H 0.1355 1.2500 0.5147
H35 H 0.2144 1.3175 0.5290
C50 C 0.0317(4) 1.3702(2) 0.50224(19)
H36 H -0.0560 1.3543 0.5059
H37 H 0.0703 1.3784 0.4586
H38 H 0.0203 1.4218 0.5218
C51 C 1.3992(3) 0.81685(19) 0.29027(13)
H39 H 1.3919 0.8728 0.3035
H40 H 1.3078 0.8084 0.2887
C52 C 1.4867(4) 0.8086(2) 0.22750(14)
H41 H 1.5785 0.8132 0.2303
H42 H 1.4504 0.8526 0.1981
H43 H 1.4877 0.7545 0.2135
C53 C 1.6243(3) 0.56873(18) 0.44700(14)
H44 H 1.5562 0.5330 0.4583
H45 H 1.6436 0.5853 0.4853
C54 C 1.7514(3) 0.5224(2) 0.41077(15)
H46 H 1.7305 0.5044 0.3738
H47 H 1.7890 0.4738 0.4363
H48 H 1.8170 0.5589 0.3987
N1 N 0.8647(3) 0.59764(19) 0.87154(12)
N2 N 0.6261(3) 0.68787(19) 0.92667(11)
N3 N 0.3322(2) 1.03965(16) 0.74721(12)
N4 N 0.4556(2) 1.07250(15) 0.62709(11)
N5 N 1.0841(2) 0.83763(14) 0.49842(11)
N6 N 1.1991(2) 0.71549(14) 0.57544(10)
O1 O 0.6507(2) 0.83130(18) 0.86690(12)
H73 H 0.6746 0.7867 0.8879
O2 O 0.5406(2) 0.96457(16) 0.79987(12)
H74 H 0.4953 1.0038 0.7806
O3 O 0.6778(2) 0.96797(14) 0.64500(9)
H75 H 0.6018 0.9979 0.6547
O4 O 0.9138(2) 0.87931(15) 0.59571(9)
H76 H 0.9846 0.8543 0.5751
O5 O 0.97904(19) 0.68840(14) 0.64571(9)
H77 H 1.0283 0.7012 0.6128
O6 O 0.8539(2) 0.64444(16) 0.75664(10)
H78 H 0.8249 0.6286 0.7932
O7 O 0.8329(2) 0.37862(16) 1.03972(10)
O8 O 0.6078(2) 0.46559(15) 1.09425(9)
O9 O -0.0430(2) 1.26687(14) 0.71294(12)
O10 O 0.0685(2) 1.29275(13) 0.59781(11)
O11 O 1.46098(19) 0.75518(12) 0.33270(9)
O12 O 1.57477(18) 0.64072(12) 0.40893(9)
C55 C 0.3775(4) 0.2163(2) 0.40081(17)
H49 H 0.2845 0.2401 0.4040
C56 C 0.5832(4) 0.1592(2) 0.33600(18)
H50 H 0.6257 0.1680 0.3700
H51 H 0.6312 0.1807 0.2970
H52 H 0.5867 0.0998 0.3350
C57 C 0.3742(5) 0.2166(3) 0.29213(18)
H53 H 0.3791 0.1638 0.2753
H54 H 0.4163 0.2539 0.2604
H55 H 0.2799 0.2418 0.3054
N7 N 0.4450(3) 0.20197(18) 0.34480(13)
O13 O 0.4241(3) 0.20164(17) 0.44887(12)
C58 C 0.2334(5) 0.3848(3) 0.8439(2)
H56 H 0.3093 0.3841 0.8626
C59 C 0.1373(5) 0.4048(4) 0.7524(2)
H57 H 0.0570 0.3971 0.7823
H58 H 0.1584 0.3621 0.7231
H59 H 0.1206 0.4597 0.7300
C60 C 0.3746(4) 0.4136(3) 0.74737(19)
H60 H 0.4436 0.4055 0.7736
H61 H 0.3616 0.4706 0.7284
H62 H 0.4034 0.3750 0.7151
N8 N 0.2493(3) 0.39825(18) 0.78434(14)
O14 O 0.1313(4) 0.3730(3) 0.87809(17)
C61 C 0.6601(4) 0.5639(3) 0.6438(2)
H63 H 0.6837 0.6102 0.6574
C62 C 0.7183(4) 0.4226(3) 0.6218(3)
H64 H 0.6312 0.4124 0.6444
H65 H 0.7886 0.3745 0.6292
H66 H 0.7144 0.4320 0.5776
C63 C 0.8804(4) 0.4900(3) 0.6577(2)
H67 H 0.9487 0.4794 0.6208
H68 H 0.8971 0.4449 0.6898
H69 H 0.8849 0.5425 0.6726
N9 N 0.7483(2) 0.49479(17) 0.64252(13)
O15 O 0.5496(3) 0.5736(2) 0.6288(2)
C64 C 0.8600(6) 0.9818(4) 0.8124(3)
C65 C 0.9209(5) 0.8600(3) 0.7559(2)
H70 H 0.9618 0.8442 0.7143
H71 H 0.8299 0.8480 0.7659
H72 H 0.9755 0.8285 0.7857
C66 C 0.9457(6) 1.0003(4) 0.7050(3)
N10 N 0.9145(3) 0.9474(2) 0.75827(16)
O16 O 0.8473(6) 1.0596(4) 0.8175(3)
O17? O 0.9020(12) 1.0690(8) 0.7005(5)
C67? C 0.9268(15) 0.3346(8) 1.0072(6)
H79? H 0.9686 0.2877 1.0337
H80? H 0.9961 0.3679 0.9891
C68? C 0.8823(11) 0.3007(6) 0.9555(4)
H81? H 0.9602 0.2669 0.9317
H82? H 0.8427 0.3468 0.9284
H83? H 0.8152 0.2665 0.9730
loop_
_geom_bond_atom_site_label_1
_geom_bond_atom_site_label_2
_geom_bond_site_symmetry_1
_geom_bond_site_symmetry_2
C1 C2 1_555 1_555
C2 H1 1_555 1_555
C3 C2 1_555 1_555
C4 C3 1_555 1_555
C5 C4 1_555 1_555
H2 C5 1_555 1_555
C6 C1 1_555 1_555
C7 H3 1_555 1_555
C8 C7 1_555 1_555
C9 C8 1_555 1_555
H4 C9 1_555 1_555
C10 C9 1_555 1_555
H5 C10 1_555 1_555
C11 C10 1_555 1_555
C12 C11 1_555 1_555
C13 C8 1_555 1_555
C14 C11 1_555 1_555
H6 C14 1_555 1_555
C15 C16 1_555 1_555
C16 H7 1_555 1_555
C17 C16 1_555 1_555
C18 C17 1_555 1_555
C19 C18 1_555 1_555
H8 C19 1_555 1_555
C20 C15 1_555 1_555
C21 H9 1_555 1_555
C22 C21 1_555 1_555
C23 C22 1_555 1_555
H10 C23 1_555 1_555
C24 C23 1_555 1_555
H11 C24 1_555 1_555
C25 C24 1_555 1_555
C26 C25 1_555 1_555
C27 C22 1_555 1_555
C28 C25 1_555 1_555
H12 C28 1_555 1_555
C29 C30 1_555 1_555
C30 H13 1_555 1_555
C31 C30 1_555 1_555
C32 C31 1_555 1_555
C33 C32 1_555 1_555
H14 C33 1_555 1_555
C34 C29 1_555 1_555
C35 H15 1_555 1_555
C36 C35 1_555 1_555
C37 C36 1_555 1_555
H16 C37 1_555 1_555
C38 C37 1_555 1_555
H17 C38 1_555 1_555
C39 C38 1_555 1_555
C40 C39 1_555 1_555
C41 C36 1_555 1_555
C42 C39 1_555 1_555
H18 C42 1_555 1_555
C43 H19 1_555 1_555
H20 C43 1_555 1_555
C44 C43 1_555 1_555
H21 C44 1_555 1_555
H22 C44 1_555 1_555
H23 C44 1_555 1_555
C45 H24 1_555 1_555
H25 C45 1_555 1_555
C46 C45 1_555 1_555
H26 C46 1_555 1_555
H27 C46 1_555 1_555
H28 C46 1_555 1_555
C47 H29 1_555 1_555
H30 C47 1_555 1_555
C48 C47 1_555 1_555
H31 C48 1_555 1_555
H32 C48 1_555 1_555
H33 C48 1_555 1_555
C49 H34 1_555 1_555
H35 C49 1_555 1_555
C50 C49 1_555 1_555
H36 C50 1_555 1_555
H37 C50 1_555 1_555
H38 C50 1_555 1_555
C51 H39 1_555 1_555
H40 C51 1_555 1_555
C52 C51 1_555 1_555
H41 C52 1_555 1_555
H42 C52 1_555 1_555
H43 C52 1_555 1_555
C53 H44 1_555 1_555
H45 C53 1_555 1_555
C54 C53 1_555 1_555
H46 C54 1_555 1_555
H47 C54 1_555 1_555
H48 C54 1_555 1_555
C55 H49 1_555 1_555
C56 H50 1_555 1_555
H51 C56 1_555 1_555
H52 C56 1_555 1_555
C57 H53 1_555 1_555
H54 C57 1_555 1_555
H55 C57 1_555 1_555
C58 H56 1_555 1_555
C59 H57 1_555 1_555
H58 C59 1_555 1_555
H59 C59 1_555 1_555
C60 H60 1_555 1_555
H61 C60 1_555 1_555
H62 C60 1_555 1_555
C61 H63 1_555 1_555
C62 H64 1_555 1_555
H65 C62 1_555 1_555
H66 C62 1_555 1_555
C63 H67 1_555 1_555
H68 C63 1_555 1_555
H69 C63 1_555 1_555
C64 N10 1_555 1_555
C65 H70 1_555 1_555
H71 C65 1_555 1_555
H72 C65 1_555 1_555
C66 N10 1_555 1_555
N1 C1 1_555 1_555
N2 C6 1_555 1_555
N3 C14 1_555 1_555
N4 C20 1_555 1_555
N5 C28 1_555 1_555
N6 C34 1_555 1_555
N7 C55 1_555 1_555
N8 C58 1_555 1_555
N9 C61 1_555 1_555
N10 C65 1_555 1_555
O1 C13 1_555 1_555
H73 O1 1_555 1_555
O2 C12 1_555 1_555
H74 O2 1_555 1_555
O3 C27 1_555 1_555
H75 O3 1_555 1_555
O4 C26 1_555 1_555
H76 O4 1_555 1_555
O5 C41 1_555 1_555
H77 O5 1_555 1_555
O6 C40 1_555 1_555
H78 O6 1_555 1_555
O7 C3 1_555 1_555
O8 C4 1_555 1_555
O9 C17 1_555 1_555
O10 C18 1_555 1_555
O11 C31 1_555 1_555
O12 C32 1_555 1_555
O13 C55 1_555 1_555
O14 C58 1_555 1_555
O15 C61 1_555 1_555
O16 C64 1_555 1_555
C5 C6 1_555 1_555
C7 N2 1_555 1_555
C12 C13 1_555 1_555
C15 N3 1_555 1_555
C19 C20 1_555 1_555
C21 N4 1_555 1_555
C26 C27 1_555 1_555
C29 N5 1_555 1_555
C33 C34 1_555 1_555
C35 N6 1_555 1_555
C40 C41 1_555 1_555
C42 N1 1_555 1_555
C43 O7 1_555 1_555
C45 O8 1_555 1_555
C47 O9 1_555 1_555
C49 O10 1_555 1_555
C51 O11 1_555 1_555
C53 O12 1_555 1_555
C56 N7 1_555 1_555
C57 N7 1_555 1_555
C59 N8 1_555 1_555
C60 N8 1_555 1_555
C62 N9 1_555 1_555
C63 N9 1_555 1_555

#END
