
#######################################################################
#
#                 Cambridge Crystallographic Data Centre
#                                CCDC 
#
#######################################################################
#
# If this CIF has been generated from an entry in the Cambridge 
# Structural Database, then it will include bibliographic, chemical, 
# crystal, experimental, refinement or atomic coordinate data resulting 
# from the CCDC's data processing and validation procedures.
#
#######################################################################

data_DAWREB
_chemical_formula_moiety         '2(C11 H9 N1 O1),C10 H8,2(C6 F4 I2)'
_chemical_name_systematic        
'bis(4-phenylpyridin-1-oxide) bis(1,2,4,5-tetrafluoro-3,6-diiodobenzene) naphthalene'
_symmetry_cell_setting           orthorhombic
_symmetry_space_group_name_H-M   'P c c n'
_symmetry_Int_Tables_number      56
_space_group_name_Hall           '-P 2ab 2ac'
loop_
_symmetry_equiv_pos_site_id
_symmetry_equiv_pos_as_xyz
1 x,y,z
2 1/2-x,1/2-y,z
3 -x,1/2+y,1/2-z
4 1/2+x,-y,1/2-z
5 -x,-y,-z
6 1/2+x,1/2+y,-z
7 x,1/2-y,1/2+z
8 1/2-x,y,1/2+z
_cell_length_a                   14.020(7)
_cell_length_b                   15.882(8)
_cell_length_c                   19.423(9)
_cell_angle_alpha                90
_cell_angle_beta                 90
_cell_angle_gamma                90
_cell_volume                     4324.83
_exptl_crystal_colour            colorless
_exptl_crystal_description       block
_cell_formula_units_Z            4
loop_
_atom_site_label
_atom_site_type_symbol
_atom_site_fract_x
_atom_site_fract_y
_atom_site_fract_z
C1 C 0.6042(7) 0.6260(6) 0.3155(5)
H1 H 0.5945 0.5974 0.2744
C2 C 0.6094(6) 0.7110(5) 0.3135(4)
H2 H 0.6036 0.7391 0.2717
C3 C 0.6235(5) 0.7567(5) 0.3740(5)
C4 C 0.6277(6) 0.8498(5) 0.3749(5)
C5 C 0.6467(8) 0.8967(6) 0.3142(5)
H3 H 0.6570 0.8682 0.2730
C6 C 0.6501(8) 0.9816(7) 0.3149(7)
H4 H 0.6605 1.0106 0.2739
C7 C 0.6385(9) 1.0257(8) 0.3747(7)
H5 H 0.6446 1.0840 0.3751
C8 C 0.6178(9) 0.9829(8) 0.4339(7)
H6 H 0.6052 1.0131 0.4739
C9 C 0.6151(8) 0.8949(6) 0.4357(6)
H7 H 0.6049 0.8668 0.4770
C10 C 0.6340(6) 0.7096(6) 0.4332(4)
H8 H 0.6455 0.7375 0.4745
C11 C 0.6281(7) 0.6232(6) 0.4338(5)
H9 H 0.6347 0.5938 0.4749
N1 N 0.6124(6) 0.5807(5) 0.3736(4)
O1 O 0.6065(6) 0.4987(4) 0.3746(4)
C12 C 0.6249(6) 0.3086(6) 0.5691(6)
C13 C 0.6208(7) 0.2223(7) 0.5568(5)
C14 C 0.6226(6) 0.1669(6) 0.6128(5)
C15 C 0.6225(6) 0.1935(6) 0.6802(5)
C16 C 0.6252(6) 0.2805(6) 0.6896(5)
C17 C 0.6266(7) 0.3339(6) 0.6351(5)
F1 F 0.6238(5) 0.3107(4) 0.7537(3)
F2 F 0.6289(6) 0.4180(4) 0.6504(4)
F3 F 0.6185(6) 0.1905(4) 0.4944(3)
F4 F 0.6207(5) 0.0829(4) 0.5993(3)
I1 I 0.61825(5) 0.10888(4) 0.76203(4)
I2 I 0.62164(5) 0.39219(4) 0.48706(4)
C18 C 0.3891(10) 0.3053(12) 0.3763(10)
H10 H 0.4201 0.3571 0.3763
C19 C 0.4418(10) 0.2312(15) 0.3774(12)
H11 H 0.5081 0.2334 0.3781
C20 C 0.3955(13) 0.1538(12) 0.3774(14)
H12 H 0.4308 0.1042 0.3781
C21 C 0.2965(14) 0.1505(9) 0.3763(12)
H13 H 0.2655 0.0987 0.3764
C22 C 0.2437(10) 0.2246(9) 0.3752(5)
C23 C 0.2900(10) 0.3020(9) 0.3752(6)
C24 C 0.2373(14) 0.3761(9) 0.3741(13)
H14 H 0.2682 0.4278 0.3741
C25 C 0.1382(14) 0.3728(12) 0.3731(15)
H15 H 0.1029 0.4223 0.3723
C26 C 0.0919(10) 0.2954(14) 0.3731(13)
H16 H 0.0256 0.2932 0.3724
C27 C 0.1446(10) 0.2213(12) 0.3742(11)
H17 H 0.1137 0.1695 0.3742
C18A C 0.1109(10) 0.1947(12) 0.3763(10)
H10A H 0.0799 0.1429 0.3763
C19A C 0.0582(10) 0.2688(15) 0.3774(12)
H11A H -0.0081 0.2666 0.3781
C20A C 0.1045(13) 0.3462(12) 0.3774(14)
H12A H 0.0692 0.3958 0.3781
C21A C 0.2035(14) 0.3495(9) 0.3763(12)
H13A H 0.2345 0.4013 0.3764
C22A C 0.2563(10) 0.2754(9) 0.3752(5)
C23A C 0.2100(10) 0.1980(9) 0.3752(6)
C24A C 0.2627(14) 0.1239(9) 0.3741(13)
H14A H 0.2318 0.0722 0.3741
C25A C 0.3618(14) 0.1272(12) 0.3731(15)
H15A H 0.3971 0.0777 0.3723
C26A C 0.4081(10) 0.2046(14) 0.3731(13)
H16A H 0.4744 0.2068 0.3724
C27A C 0.3554(10) 0.2787(12) 0.3742(11)
H17A H 0.3863 0.3305 0.3742
loop_
_geom_bond_atom_site_label_1
_geom_bond_atom_site_label_2
_geom_bond_site_symmetry_1
_geom_bond_site_symmetry_2
C1 H1 1_555 1_555
C2 C1 1_555 1_555
H2 C2 1_555 1_555
C3 C2 1_555 1_555
C4 C3 1_555 1_555
C5 C4 1_555 1_555
H3 C5 1_555 1_555
C6 C5 1_555 1_555
H4 C6 1_555 1_555
C7 C6 1_555 1_555
H5 C7 1_555 1_555
C8 C7 1_555 1_555
H6 C8 1_555 1_555
C9 C4 1_555 1_555
H7 C9 1_555 1_555
C10 C3 1_555 1_555
H8 C10 1_555 1_555
C11 C10 1_555 1_555
H9 C11 1_555 1_555
N1 C1 1_555 1_555
O1 N1 1_555 1_555
C12 C13 1_555 1_555
C13 C14 1_555 1_555
C14 C15 1_555 1_555
C15 C16 1_555 1_555
C16 C17 1_555 1_555
C17 C12 1_555 1_555
F1 C16 1_555 1_555
F2 C17 1_555 1_555
F3 C13 1_555 1_555
F4 C14 1_555 1_555
I1 C15 1_555 1_555
I2 C12 1_555 1_555
C18 H10 1_555 1_555
C19 C18 1_555 1_555
H11 C19 1_555 1_555
C20 C19 1_555 1_555
H12 C20 1_555 1_555
C21 C20 1_555 1_555
H13 C21 1_555 1_555
C22 C21 1_555 1_555
C23 C18 1_555 1_555
C24 C23 1_555 1_555
H14 C24 1_555 1_555
C25 C24 1_555 1_555
H15 C25 1_555 1_555
C26 C25 1_555 1_555
H16 C26 1_555 1_555
C27 C22 1_555 1_555
H17 C27 1_555 1_555
C18A H10A 1_555 1_555
C19A C18A 1_555 1_555
H11A C19A 1_555 1_555
C20A C19A 1_555 1_555
H12A C20A 1_555 1_555
C21A C20A 1_555 1_555
H13A C21A 1_555 1_555
C22A C21A 1_555 1_555
C23A C18A 1_555 1_555
C24A C23A 1_555 1_555
H14A C24A 1_555 1_555
C25A C24A 1_555 1_555
H15A C25A 1_555 1_555
C26A C25A 1_555 1_555
H16A C26A 1_555 1_555
C27A C22A 1_555 1_555
H17A C27A 1_555 1_555
C8 C9 1_555 1_555
C11 N1 1_555 1_555
C22 C23 1_555 1_555
C26 C27 1_555 1_555
C22A C23A 1_555 1_555
C26A C27A 1_555 1_555

#END
