
#######################################################################
#
#                 Cambridge Crystallographic Data Centre
#                                CCDC 
#
#######################################################################
#
# If this CIF has been generated from an entry in the Cambridge 
# Structural Database, then it will include bibliographic, chemical, 
# crystal, experimental, refinement or atomic coordinate data resulting 
# from the CCDC's data processing and validation procedures.
#
#######################################################################

data_DAWSIG
_chemical_formula_moiety         'C11 H9 N1 O1,2(C6 F4 I2)'
_chemical_name_systematic        
'4-phenylpyridin-1-oxide bis(1,2,4,5-tetrafluoro-3,6-diiodobenzene)'
_symmetry_cell_setting           monoclinic
_symmetry_space_group_name_H-M   'C 2/c'
_symmetry_Int_Tables_number      15
_space_group_name_Hall           '-C 2yn'
loop_
_symmetry_equiv_pos_site_id
_symmetry_equiv_pos_as_xyz
1 x,y,z
2 -x,y,1/2-z
3 1/2+x,1/2+y,z
4 1/2-x,1/2+y,1/2-z
5 -x,-y,-z
6 x,-y,1/2+z
7 1/2-x,1/2-y,-z
8 1/2+x,1/2-y,1/2+z
_cell_length_a                   7.4416(3)
_cell_length_b                   28.9654(12)
_cell_length_c                   12.0008(5)
_cell_angle_alpha                90
_cell_angle_beta                 98.579(4)
_cell_angle_gamma                90
_cell_volume                     2557.82
_exptl_crystal_colour            'light yellow'
_exptl_crystal_description       block
_cell_formula_units_Z            4
loop_
_atom_site_label
_atom_site_type_symbol
_atom_site_fract_x
_atom_site_fract_y
_atom_site_fract_z
I1 I 0.82567(3) 0.71288(2) 0.86173(2)
F1 F 0.9834(3) 0.81314(7) 0.94187(17)
F2 F 1.1957(3) 0.65926(7) 0.95108(18)
C1 C 1.0780(4) 0.73502(12) 0.9442(3)
C2 C 1.2199(5) 0.70443(11) 0.9747(3)
C3 C 1.1138(5) 0.78081(11) 0.9709(3)
I1F I 1.67433(3) 0.78712(2) 1.13827(2)
F1F F 1.5166(3) 0.68686(7) 1.05813(17)
F2F F 1.3043(3) 0.84074(7) 1.04892(18)
C1F C 1.4220(4) 0.76498(12) 1.0558(3)
C2F C 1.2801(5) 0.79557(11) 1.0253(3)
C3F C 1.3862(5) 0.71919(11) 1.0291(3)
I2 I 0.0000 0.42802(2) 0.2500
I3 I 0.0000 0.66875(2) 0.2500
F3 F 0.1588(4) 0.59435(10) 0.4352(2)
F4 F 0.1609(4) 0.50282(10) 0.4342(2)
C4 C 0.0000 0.5001(2) 0.2500
C5 C 0.0795(5) 0.57220(15) 0.3425(3)
C6 C 0.0796(5) 0.52491(16) 0.3415(3)
C7 C 0.0000 0.5973(2) 0.2500
F3A F -0.1588(4) 0.59435(10) 0.0648(2)
F4A F -0.1609(4) 0.50282(10) 0.0658(2)
C5A C -0.0795(5) 0.57220(15) 0.1575(3)
C6A C -0.0796(5) 0.52491(16) 0.1585(3)
O1 O 0.5000 0.67899(12) 0.7500
N1 N 0.5000 0.63316(14) 0.7500
C8 C 0.4727(5) 0.60995(12) 0.6518(3)
H1 H 0.4539 0.6262 0.5842
C9 C 0.5000 0.53695(16) 0.7500
C10 C 0.5000 0.48580(17) 0.7500
C11 C 0.4724(5) 0.56255(13) 0.6504(3)
H2 H 0.4534 0.5472 0.5816
C12 C 0.4127(5) 0.46108(12) 0.6583(3)
H3 H 0.3529 0.4769 0.5961
C13 C 0.5000 0.38935(19) 0.7500
H4 H 0.5000 0.3572 0.7500
C14 C 0.4135(5) 0.41327(13) 0.6582(3)
H5 H 0.3554 0.3973 0.5959
C8A C 0.5273(5) 0.60995(12) 0.8482(3)
H1A H 0.5461 0.6262 0.9158
C11A C 0.5276(5) 0.56255(13) 0.8496(3)
H2A H 0.5466 0.5472 0.9184
C12A C 0.5873(5) 0.46108(12) 0.8417(3)
H3A H 0.6471 0.4769 0.9039
C14A C 0.5865(5) 0.41327(13) 0.8418(3)
H5A H 0.6446 0.3973 0.9041
loop_
_geom_bond_atom_site_label_1
_geom_bond_atom_site_label_2
_geom_bond_site_symmetry_1
_geom_bond_site_symmetry_2
I1 C1 1_555 1_555
F1 C3 1_555 1_555
F2 C2 1_555 1_555
C1 C2 1_555 1_555
C2 C3F 1_555 1_555
C3 C1 1_555 1_555
I2 C4 1_555 1_555
I3 C7 1_555 1_555
F3 C5 1_555 1_555
F4 C6 1_555 1_555
C4 C6 1_555 1_555
C5 C6 1_555 1_555
C7 C5 1_555 1_555
O1 N1 1_555 1_555
N1 C8 1_555 1_555
C8 H1 1_555 1_555
C9 C10 1_555 1_555
C10 C12 1_555 1_555
C11 C8 1_555 1_555
H2 C11 1_555 1_555
C12 H3 1_555 1_555
C13 H4 1_555 1_555
C14 C12 1_555 1_555
H5 C14 1_555 1_555
I1F C1F 1_555 1_555
F1F C3F 1_555 1_555
F2F C2F 1_555 1_555
C1F C2F 1_555 1_555
C2F C3 1_555 1_555
C3F C1F 1_555 1_555
F3A C5A 1_555 1_555
F4A C6A 1_555 1_555
C5A C7 1_555 1_555
C6A C4 1_555 1_555
C8A N1 1_555 1_555
H1A C8A 1_555 1_555
C11A C9 1_555 1_555
H2A C11A 1_555 1_555
C12A C10 1_555 1_555
H3A C12A 1_555 1_555
C14A C13 1_555 1_555
H5A C14A 1_555 1_555
C9 C11 1_555 1_555
C13 C14 1_555 1_555
C5A C6A 1_555 1_555
C8A C11A 1_555 1_555
C12A C14A 1_555 1_555

#END
