
#######################################################################
#
#                 Cambridge Crystallographic Data Centre
#                                CCDC 
#
#######################################################################
#
# If this CIF has been generated from an entry in the Cambridge 
# Structural Database, then it will include bibliographic, chemical, 
# crystal, experimental, refinement or atomic coordinate data resulting 
# from the CCDC's data processing and validation procedures.
#
#######################################################################

data_DAXBEK
_chemical_formula_moiety         'C17 H15 F3 N2 O2'
_chemical_name_systematic        
3-(n-Butoxycarbonyl)-1-trifluoromethyl-9H-pyrido(3,4-b)indole
_symmetry_cell_setting           monoclinic
_symmetry_space_group_name_H-M   'P 21/n'
_symmetry_Int_Tables_number      14
_space_group_name_Hall           '-P 2yn'
loop_
_symmetry_equiv_pos_site_id
_symmetry_equiv_pos_as_xyz
1 x,y,z
2 1/2-x,1/2+y,1/2-z
3 -x,-y,-z
4 1/2+x,1/2-y,1/2+z
_cell_length_a                   8.1231(4)
_cell_length_b                   17.1197(8)
_cell_length_c                   11.6388(6)
_cell_angle_alpha                90
_cell_angle_beta                 93.615(2)
_cell_angle_gamma                90
_cell_volume                     1615.33
_exptl_crystal_colour            colorless
_exptl_crystal_description       Block
_cell_formula_units_Z            4
_exptl_crystal_recrystallization_method dichloromethane/ether
loop_
_atom_site_label
_atom_site_type_symbol
_atom_site_fract_x
_atom_site_fract_y
_atom_site_fract_z
O1 O 0.3596(6) 0.2568(3) 0.6425(5)
O2 O 0.5948(7) 0.2109(3) 0.7232(6)
N1 N 0.7146(7) 0.3623(3) 0.7407(5)
N2 N 0.6984(7) 0.5769(3) 0.7033(5)
H1 H 0.7892 0.5997 0.7256
C1 C 0.9414(11) 0.4442(5) 0.7903(9)
C2 C 0.7704(9) 0.4350(4) 0.7460(6)
C3 C 0.6691(9) 0.4980(4) 0.7077(6)
C4 C 0.5582(9) 0.6135(4) 0.6575(5)
C5 C 0.5310(11) 0.6926(5) 0.6378(7)
H2 H 0.6121 0.7296 0.6570
C6 C 0.3809(11) 0.7138(5) 0.5895(8)
H3 H 0.3596 0.7665 0.5761
C7 C 0.2589(11) 0.6600(5) 0.5597(8)
H4 H 0.1585 0.6770 0.5258
C8 C 0.2842(10) 0.5814(4) 0.5796(6)
H5 H 0.2021 0.5451 0.5595
C9 C 0.4373(9) 0.5574(4) 0.6309(5)
C10 C 0.5088(8) 0.4834(4) 0.6650(5)
C11 C 0.4545(8) 0.4068(4) 0.6591(6)
H6 H 0.3486 0.3950 0.6291
C12 C 0.5603(8) 0.3482(4) 0.6984(6)
C13 C 0.5093(10) 0.2635(4) 0.6909(7)
C14 C 0.2973(10) 0.1782(4) 0.6218(7)
H7 H 0.2915 0.1504 0.6941
H8 H 0.3696 0.1496 0.5736
C15 C 0.1295(9) 0.1855(4) 0.5630(7)
H9 H 0.1372 0.2141 0.4916
H10 H 0.0594 0.2151 0.6115
C16 C 0.0512(9) 0.1060(4) 0.5370(7)
H11 H 0.1160 0.0785 0.4826
H12 H 0.0541 0.0755 0.6074
C17 C -0.1243(11) 0.1117(5) 0.4883(8)
H13 H -0.1905 0.1361 0.5435
H14 H -0.1661 0.0602 0.4711
H15 H -0.1283 0.1423 0.4190
F1 F 0.9931(16) 0.3947(7) 0.8708(17)
F2 F 1.0441(14) 0.4334(9) 0.7064(14)
F3 F 0.9707(18) 0.5140(11) 0.8346(14)
F4? F 1.0447(15) 0.3922(7) 0.7536(15)
F5? F 1.0106(15) 0.5115(10) 0.7633(15)
F6? F 0.9600(17) 0.4334(10) 0.9021(16)
loop_
_geom_bond_atom_site_label_1
_geom_bond_atom_site_label_2
_geom_bond_site_symmetry_1
_geom_bond_site_symmetry_2
O1 C13 1_555 1_555
O2 C13 1_555 1_555
N1 C2 1_555 1_555
N2 H1 1_555 1_555
C1 C2 1_555 1_555
C2 C3 1_555 1_555
C3 N2 1_555 1_555
C4 N2 1_555 1_555
C5 C4 1_555 1_555
H2 C5 1_555 1_555
C6 C5 1_555 1_555
H3 C6 1_555 1_555
C7 C6 1_555 1_555
H4 C7 1_555 1_555
C8 C7 1_555 1_555
H5 C8 1_555 1_555
C9 C4 1_555 1_555
C10 C3 1_555 1_555
C11 C10 1_555 1_555
H6 C11 1_555 1_555
C12 N1 1_555 1_555
C13 C12 1_555 1_555
C14 O1 1_555 1_555
H7 C14 1_555 1_555
H8 C14 1_555 1_555
C15 C14 1_555 1_555
H9 C15 1_555 1_555
H10 C15 1_555 1_555
C16 C15 1_555 1_555
H11 C16 1_555 1_555
H12 C16 1_555 1_555
C17 C16 1_555 1_555
H13 C17 1_555 1_555
H14 C17 1_555 1_555
H15 C17 1_555 1_555
F1 C1 1_555 1_555
F2 C1 1_555 1_555
F3 C1 1_555 1_555
C8 C9 1_555 1_555
C9 C10 1_555 1_555
C11 C12 1_555 1_555

#END
