
#######################################################################
#
#                 Cambridge Crystallographic Data Centre
#                                CCDC 
#
#######################################################################
#
# If this CIF has been generated from an entry in the Cambridge 
# Structural Database, then it will include bibliographic, chemical, 
# crystal, experimental, refinement or atomic coordinate data resulting 
# from the CCDC's data processing and validation procedures.
#
#######################################################################

data_DAXDAK
_chemical_formula_moiety         'C17 H19 N1 O2 S1'
_chemical_name_systematic        
1-[(4-methylphenyl)sulfonyl]-3-phenylpyrrolidine
_symmetry_cell_setting           monoclinic
_symmetry_space_group_name_H-M   'P 21'
_symmetry_Int_Tables_number      4
_space_group_name_Hall           'P 2yb'
loop_
_symmetry_equiv_pos_site_id
_symmetry_equiv_pos_as_xyz
1 x,y,z
2 -x,1/2+y,-z
_cell_length_a                   11.3637(4)
_cell_length_b                   6.0455(3)
_cell_length_c                   11.3636(4)
_cell_angle_alpha                90
_cell_angle_beta                 98.45
_cell_angle_gamma                90
_cell_volume                     772.196
_exptl_crystal_colour            colorless
_exptl_crystal_description       block
_cell_formula_units_Z            2
loop_
_atom_site_label
_atom_site_type_symbol
_atom_site_fract_x
_atom_site_fract_y
_atom_site_fract_z
S1 S -0.23350(7) 0.45348(14) 0.01378(6)
O1 O -0.2498(2) 0.5856(4) -0.09169(18)
O2 O -0.2339(2) 0.2172(4) 0.0057(2)
N1 N -0.1059(2) 0.5228(4) 0.0872(2)
C1 C -0.3432(3) 0.5317(6) 0.1002(3)
C2 C -0.3941(3) 0.7391(6) 0.0869(3)
H1 H -0.3732 0.8365 0.0301
C3 C -0.4776(3) 0.8014(6) 0.1599(3)
H2 H -0.5127 0.9406 0.1508
C4 C -0.5085(3) 0.6583(7) 0.2454(3)
C5 C -0.4574(3) 0.4498(8) 0.2561(3)
H3 H -0.4790 0.3516 0.3122
C6 C -0.3744(3) 0.3851(6) 0.1845(3)
H4 H -0.3401 0.2452 0.1929
C7 C -0.5962(4) 0.7322(9) 0.3259(4)
H5 H -0.6640 0.7989 0.2789
H6 H -0.5587 0.8379 0.3824
H7 H -0.6214 0.6064 0.3674
C8 C -0.0716(3) 0.7578(6) 0.0992(3)
H8 H -0.1392 0.8493 0.1102
H9 H -0.0393 0.8089 0.0296
C9 C 0.0234(3) 0.7631(6) 0.2099(3)
H10 H 0.0905 0.8536 0.1960
H11 H -0.0092 0.8225 0.2776
C10 C 0.0615(3) 0.5232(6) 0.2322(3)
H12 H 0.1158 0.4844 0.1759
C11 C -0.0554(3) 0.4006(5) 0.1952(3)
H13 H -0.0418 0.2464 0.1777
H14 H -0.1066 0.4096 0.2562
C12 C 0.1208(2) 0.4612(7) 0.3561(2)
C13 C 0.1095(3) 0.5836(7) 0.4566(3)
H15 H 0.0638 0.7119 0.4497
C14 C 0.1659(4) 0.5165(7) 0.5677(3)
H16 H 0.1591 0.6029 0.6341
C15 C 0.2313(3) 0.3255(8) 0.5812(3)
H17 H 0.2681 0.2811 0.6559
C16 C 0.2414(3) 0.2001(7) 0.4816(3)
H18 H 0.2844 0.0687 0.4893
C17 C 0.1880(3) 0.2689(6) 0.3708(3)
H19 H 0.1973 0.1844 0.3044
loop_
_geom_bond_atom_site_label_1
_geom_bond_atom_site_label_2
_geom_bond_site_symmetry_1
_geom_bond_site_symmetry_2
S1 O1 1_555 1_555
O2 S1 1_555 1_555
N1 S1 1_555 1_555
C1 S1 1_555 1_555
C2 C1 1_555 1_555
H1 C2 1_555 1_555
C3 C2 1_555 1_555
H2 C3 1_555 1_555
C4 C3 1_555 1_555
C5 C4 1_555 1_555
H3 C5 1_555 1_555
C6 C1 1_555 1_555
H4 C6 1_555 1_555
C7 C4 1_555 1_555
H5 C7 1_555 1_555
H6 C7 1_555 1_555
H7 C7 1_555 1_555
C8 N1 1_555 1_555
H8 C8 1_555 1_555
H9 C8 1_555 1_555
C9 C8 1_555 1_555
H10 C9 1_555 1_555
H11 C9 1_555 1_555
C10 C9 1_555 1_555
H12 C10 1_555 1_555
C11 N1 1_555 1_555
H13 C11 1_555 1_555
H14 C11 1_555 1_555
C12 C10 1_555 1_555
C13 C12 1_555 1_555
H15 C13 1_555 1_555
C14 C13 1_555 1_555
H16 C14 1_555 1_555
C15 C14 1_555 1_555
H17 C15 1_555 1_555
C16 C15 1_555 1_555
H18 C16 1_555 1_555
C17 C12 1_555 1_555
H19 C17 1_555 1_555
C5 C6 1_555 1_555
C10 C11 1_555 1_555
C16 C17 1_555 1_555

#END
