
#######################################################################
#
#                 Cambridge Crystallographic Data Centre
#                                CCDC 
#
#######################################################################
#
# If this CIF has been generated from an entry in the Cambridge 
# Structural Database, then it will include bibliographic, chemical, 
# crystal, experimental, refinement or atomic coordinate data resulting 
# from the CCDC's data processing and validation procedures.
#
#######################################################################

data_DAXKUL
_chemical_formula_moiety         'C20 H17 O3 1+,Cl1 O4 1-,H2 O1'
_chemical_name_systematic        
'6-hydroxy-4-[(2-hydroxyphenyl)methylidene]-1,2,3,4-tetrahydroxanthen-10-ium perchlorate monohydrate'
_symmetry_cell_setting           orthorhombic
_symmetry_space_group_name_H-M   'P 21 21 21'
_symmetry_Int_Tables_number      19
_space_group_name_Hall           'P 2ac 2ab'
loop_
_symmetry_equiv_pos_site_id
_symmetry_equiv_pos_as_xyz
1 x,y,z
2 1/2-x,-y,1/2+z
3 1/2+x,1/2-y,-z
4 -x,1/2+y,1/2-z
_cell_length_a                   7.3050(9)
_cell_length_b                   16.254(3)
_cell_length_c                   16.7183(19)
_cell_angle_alpha                90
_cell_angle_beta                 90
_cell_angle_gamma                90
_cell_volume                     1985.06
_exptl_crystal_colour            'light red'
_exptl_crystal_description       prism
_cell_formula_units_Z            4
loop_
_atom_site_label
_atom_site_type_symbol
_atom_site_fract_x
_atom_site_fract_y
_atom_site_fract_z
O1 O 0.2726(11) 0.1950(7) 0.6065(5)
O2 O 0.4390(19) -0.0559(10) 0.7291(7)
H1 H 0.4963 -0.0696 0.6860
O3 O 0.1285(15) 0.1702(8) 0.3429(6)
H2 H 0.0938 0.1338 0.3089
C1 C 0.184(2) 0.4036(9) 0.5339(9)
H3 H 0.1363 0.4211 0.4825
H4 H 0.3002 0.4311 0.5420
C2 C 0.052(3) 0.4310(10) 0.5990(10)
H5 H -0.0702 0.4108 0.5874
H6 H 0.0473 0.4906 0.6011
C3 C 0.118(2) 0.3969(11) 0.6792(10)
H7 H 0.2181 0.4310 0.6977
H8 H 0.0187 0.4028 0.7176
C4 C 0.179(2) 0.3104(11) 0.6804(9)
C5 C 0.193(2) 0.2685(15) 0.7465(10)
H9 H 0.1640 0.2942 0.7946
C6 C 0.250(2) 0.1869(14) 0.7480(7)
C7 C 0.276(3) 0.1388(17) 0.8177(11)
H10 H 0.2535 0.1603 0.8683
C8 C 0.332(3) 0.0609(19) 0.8081(10)
H11 H 0.3405 0.0279 0.8534
C9 C 0.381(3) 0.0255(14) 0.7331(11)
C10 C 0.349(2) 0.0737(11) 0.6653(8)
H12 H 0.3661 0.0521 0.6143
C11 C 0.2933(18) 0.1520(12) 0.6752(7)
C12 C 0.2184(16) 0.2761(9) 0.6077(7)
C13 C 0.2163(14) 0.3132(7) 0.5312(6)
C14 C 0.2419(15) 0.2706(8) 0.4644(7)
H13 H 0.2536 0.2142 0.4724
C15 C 0.2550(17) 0.2953(8) 0.3818(7)
C16 C 0.3306(19) 0.3725(9) 0.3605(8)
H14 H 0.3708 0.4101 0.3986
C17 C 0.341(2) 0.3886(15) 0.2773(14)
H15 H 0.3964 0.4371 0.2605
C18 C 0.276(3) 0.338(2) 0.2227(10)
H16 H 0.2765 0.3548 0.1694
C19 C 0.208(2) 0.2617(15) 0.2422(10)
H17 H 0.1714 0.2239 0.2037
C20 C 0.199(2) 0.2461(11) 0.3210(8)
Cl1 Cl 1.0304(12) -0.1026(7) 0.5451(4)
O4 O 1.177(5) -0.154(2) 0.5184(19)
O5 O 1.083(7) -0.0230(14) 0.518(3)
O6 O 1.072(7) -0.092(3) 0.6271(10)
O7 O 0.854(3) -0.113(3) 0.5114(18)
O12 O 0.542(3) -0.1049(12) 0.5934(12)
H18 H 0.4626 -0.1344 0.5686
H19 H 0.6543 -0.1070 0.5770
O8? O 1.144(7) -0.045(2) 0.505(3)
O9? O 0.940(6) -0.076(3) 0.6153(16)
O10? O 0.915(4) -0.110(3) 0.4770(14)
O11? O 1.086(6) -0.1850(14) 0.5598(19)
O13? O 0.509(16) -0.189(6) 0.510(6)
H20? H 0.5724 -0.1536 0.5353
H21? H 0.4728 -0.1698 0.4645
loop_
_geom_bond_atom_site_label_1
_geom_bond_atom_site_label_2
_geom_bond_site_symmetry_1
_geom_bond_site_symmetry_2
O1 C11 1_555 1_555
O2 H1 1_555 1_555
O3 H2 1_555 1_555
C1 H3 1_555 1_555
H4 C1 1_555 1_555
C2 C1 1_555 1_555
H5 C2 1_555 1_555
H6 C2 1_555 1_555
C3 C2 1_555 1_555
H7 C3 1_555 1_555
H8 C3 1_555 1_555
C4 C3 1_555 1_555
C5 C4 1_555 1_555
H9 C5 1_555 1_555
C6 C5 1_555 1_555
C7 C6 1_555 1_555
H10 C7 1_555 1_555
C8 C7 1_555 1_555
H11 C8 1_555 1_555
C9 O2 1_555 1_555
C10 C9 1_555 1_555
H12 C10 1_555 1_555
C11 C6 1_555 1_555
C12 O1 1_555 1_555
C13 C1 1_555 1_555
C14 C13 1_555 1_555
H13 C14 1_555 1_555
C15 C14 1_555 1_555
C16 C15 1_555 1_555
H14 C16 1_555 1_555
C17 C16 1_555 1_555
H15 C17 1_555 1_555
C18 C17 1_555 1_555
H16 C18 1_555 1_555
C19 C18 1_555 1_555
H17 C19 1_555 1_555
C20 O3 1_555 1_555
Cl1 O4 1_555 1_555
O5 Cl1 1_555 1_555
O6 Cl1 1_555 1_555
O7 Cl1 1_555 1_555
O12 H18 1_555 1_555
H19 O12 1_555 1_555
C4 C12 1_555 1_555
C8 C9 1_555 1_555
C10 C11 1_555 1_555
C12 C13 1_555 1_555
C15 C20 1_555 1_555
C19 C20 1_555 1_555

#END
