
#######################################################################
#
#                 Cambridge Crystallographic Data Centre
#                                CCDC 
#
#######################################################################
#
# If this CIF has been generated from an entry in the Cambridge 
# Structural Database, then it will include bibliographic, chemical, 
# crystal, experimental, refinement or atomic coordinate data resulting 
# from the CCDC's data processing and validation procedures.
#
#######################################################################

data_DAXQUR
_chemical_formula_moiety         'C29 H20 F1 N3'
_chemical_name_systematic        
5-(4-fluorophenyl)-1-(triphenylpropadienyl)-1H-1,2,3-triazole
_symmetry_cell_setting           triclinic
_symmetry_space_group_name_H-M   'P -1'
_symmetry_Int_Tables_number      2
_space_group_name_Hall           '-P 1'
loop_
_symmetry_equiv_pos_site_id
_symmetry_equiv_pos_as_xyz
1 x,y,z
2 -x,-y,-z
_cell_length_a                   9.6673(7)
_cell_length_b                   10.8096(8)
_cell_length_c                   11.3855(9)
_cell_angle_alpha                99.155(6)
_cell_angle_beta                 97.058(6)
_cell_angle_gamma                106.058(6)
_cell_volume                     1111.19
_exptl_crystal_colour            yellow
_exptl_crystal_description       block
_cell_formula_units_Z            2
loop_
_atom_site_label
_atom_site_type_symbol
_atom_site_fract_x
_atom_site_fract_y
_atom_site_fract_z
F1 F 0.37791(14) 1.17894(13) 0.41177(11)
N1 N 0.43417(14) 0.80530(14) 0.93382(13)
N2 N 0.29327(14) 0.79055(13) 0.92276(12)
N3 N 0.25910(13) 0.85068(12) 0.83274(11)
C1 C -0.19905(19) 0.49956(17) 0.48124(16)
H1 H -0.2267 0.4287 0.5218
C2 C -0.2219(2) 0.4758(2) 0.35575(18)
H2 H -0.2642 0.3884 0.3109
C3 C -0.18395(19) 0.5776(2) 0.29595(16)
H3 H -0.1989 0.5605 0.2101
C4 C -0.12402(19) 0.7048(2) 0.36092(16)
H4 H -0.0991 0.7757 0.3198
C5 C -0.10035(17) 0.72919(17) 0.48543(15)
H5 H -0.0593 0.8170 0.5296
C6 C -0.13576(16) 0.62700(15) 0.54731(14)
C7 C -0.10184(15) 0.65259(15) 0.68155(14)
C8 C -0.19678(16) 0.56773(15) 0.75011(14)
C9 C -0.34329(17) 0.56139(18) 0.73975(17)
H6 H -0.3840 0.6039 0.6838
C10 C -0.43015(18) 0.4934(2) 0.81073(18)
H7 H -0.5297 0.4912 0.8048
C11 C -0.37330(19) 0.42879(17) 0.88982(17)
H8 H -0.4336 0.3816 0.9379
C12 C -0.22930(19) 0.43275(17) 0.89903(16)
H9 H -0.1900 0.3876 0.9532
C13 C -0.14101(17) 0.50216(16) 0.82981(15)
H10 H -0.0412 0.5048 0.8371
C14 C 0.01054(16) 0.75079(15) 0.74190(13)
C15 C 0.11190(15) 0.85700(15) 0.80144(13)
C16 C 0.08732(15) 0.98524(14) 0.84334(13)
C17 C -0.05349(16) 0.99600(16) 0.82072(14)
H11 H -0.1314 0.9225 0.7761
C18 C -0.08049(18) 1.11230(18) 0.86252(16)
H12 H -0.1769 1.1184 0.8468
C19 C 0.03178(19) 1.22003(17) 0.92711(15)
H13 H 0.0126 1.3000 0.9560
C20 C 0.17157(18) 1.21109(16) 0.94940(14)
H14 H 0.2490 1.2852 0.9935
C21 C 0.19981(17) 1.09442(15) 0.90775(13)
H15 H 0.2966 1.0891 0.9233
C22 C 0.48836(17) 0.87454(16) 0.85203(15)
H16 H 0.5877 0.8984 0.8418
C23 C 0.37897(16) 0.90506(15) 0.78639(13)
C24 C 0.37648(16) 0.97751(16) 0.68758(14)
C25 C 0.46991(18) 1.10422(17) 0.70323(17)
H17 H 0.5341 1.1441 0.7781
C26 C 0.4702(2) 1.17304(19) 0.6104(2)
H18 H 0.5339 1.2599 0.6204
C27 C 0.3761(2) 1.1124(2) 0.50356(18)
C28 C 0.2818(2) 0.9887(2) 0.48485(17)
H19 H 0.2173 0.9501 0.4099
C29 C 0.28239(18) 0.92078(18) 0.57804(15)
H20 H 0.2176 0.8342 0.5670
loop_
_geom_bond_atom_site_label_1
_geom_bond_atom_site_label_2
_geom_bond_site_symmetry_1
_geom_bond_site_symmetry_2
F1 C27 1_555 1_555
N1 N2 1_555 1_555
N2 N3 1_555 1_555
N3 C15 1_555 1_555
C1 H1 1_555 1_555
C2 C1 1_555 1_555
H2 C2 1_555 1_555
C3 C2 1_555 1_555
H3 C3 1_555 1_555
C4 C3 1_555 1_555
H4 C4 1_555 1_555
C5 C4 1_555 1_555
H5 C5 1_555 1_555
C6 C1 1_555 1_555
C7 C6 1_555 1_555
C8 C7 1_555 1_555
C9 C8 1_555 1_555
H6 C9 1_555 1_555
C10 C9 1_555 1_555
H7 C10 1_555 1_555
C11 C10 1_555 1_555
H8 C11 1_555 1_555
C12 C11 1_555 1_555
H9 C12 1_555 1_555
C13 C8 1_555 1_555
H10 C13 1_555 1_555
C14 C7 1_555 1_555
C15 C14 1_555 1_555
C16 C15 1_555 1_555
C17 C16 1_555 1_555
H11 C17 1_555 1_555
C18 C17 1_555 1_555
H12 C18 1_555 1_555
C19 C18 1_555 1_555
H13 C19 1_555 1_555
C20 C19 1_555 1_555
H14 C20 1_555 1_555
C21 C16 1_555 1_555
H15 C21 1_555 1_555
C22 N1 1_555 1_555
H16 C22 1_555 1_555
C23 N3 1_555 1_555
C24 C23 1_555 1_555
C25 C24 1_555 1_555
H17 C25 1_555 1_555
C26 C25 1_555 1_555
H18 C26 1_555 1_555
C27 C26 1_555 1_555
C28 C27 1_555 1_555
H19 C28 1_555 1_555
C29 C24 1_555 1_555
H20 C29 1_555 1_555
C5 C6 1_555 1_555
C12 C13 1_555 1_555
C20 C21 1_555 1_555
C22 C23 1_555 1_555
C28 C29 1_555 1_555

#END
