
#######################################################################
#
#                 Cambridge Crystallographic Data Centre
#                                CCDC 
#
#######################################################################
#
# If this CIF has been generated from an entry in the Cambridge 
# Structural Database, then it will include bibliographic, chemical, 
# crystal, experimental, refinement or atomic coordinate data resulting 
# from the CCDC's data processing and validation procedures.
#
#######################################################################

data_DAXQAX
_chemical_formula_moiety         'C19 H18 N2 O2'
_chemical_name_systematic        
6-amino-4-(4-methoxyphenyl)-2-phenyl-3,4-dihydro-2H-pyran-5-carbonitrile
_symmetry_cell_setting           monoclinic
_symmetry_space_group_name_H-M   'P 21'
_symmetry_Int_Tables_number      4
_space_group_name_Hall           'P 2yb'
loop_
_symmetry_equiv_pos_site_id
_symmetry_equiv_pos_as_xyz
1 x,y,z
2 -x,1/2+y,-z
_cell_length_a                   9.7979(17)
_cell_length_b                   6.8652(12)
_cell_length_c                   12.478(2)
_cell_angle_alpha                90
_cell_angle_beta                 94.477(4)
_cell_angle_gamma                90
_cell_volume                     836.766
_exptl_crystal_colour            colorless
_exptl_crystal_description       prismatic
_cell_formula_units_Z            2
loop_
_atom_site_label
_atom_site_type_symbol
_atom_site_fract_x
_atom_site_fract_y
_atom_site_fract_z
N1 N 0.9324(4) 0.7340(5) 0.0077(3)
N2 N 1.1170(3) 0.4606(6) 0.2034(2)
O1 O 0.8132(2) 0.9564(3) 0.08760(15)
O2 O 0.6671(3) 0.4509(5) 0.61784(19)
C1 C 0.9048(3) 0.8105(5) 0.1024(2)
C2 C 0.9604(3) 0.7579(5) 0.1995(2)
C3 C 0.9363(3) 0.8639(5) 0.3024(2)
H1 H 1.0262 0.8998 0.3366
C4 C 0.8606(3) 1.0531(5) 0.2716(3)
H2 H 0.8207 1.1062 0.3340
H3 H 0.9247 1.1479 0.2472
C5 C 0.7498(3) 1.0156(4) 0.1839(2)
H4 H 0.6923 0.9086 0.2064
C6 C 0.6603(3) 1.1874(5) 0.1559(2)
C7 C 0.5377(3) 1.2021(6) 0.2022(3)
H5 H 0.5119 1.1046 0.2483
C8 C 0.4538(4) 1.3581(8) 0.1814(4)
H6 H 0.3710 1.3657 0.2129
C9 C 0.4906(5) 1.5027(7) 0.1148(4)
H7 H 0.4334 1.6094 0.1011
C10 C 0.6120(4) 1.4906(6) 0.0682(3)
H8 H 0.6372 1.5887 0.0223
C11 C 0.6968(3) 1.3337(5) 0.0891(3)
H9 H 0.7798 1.3267 0.0578
C12 C 1.0481(3) 0.5944(6) 0.2032(3)
C13 C 0.8636(3) 0.7461(4) 0.3833(2)
C14 C 0.7834(3) 0.5868(5) 0.3558(2)
H10 H 0.7743 0.5463 0.2845
C15 C 0.7158(3) 0.4851(5) 0.4312(3)
H11 H 0.6621 0.3779 0.4104
C16 C 0.7280(3) 0.5425(5) 0.5363(3)
C17 C 0.8066(3) 0.7015(6) 0.5661(3)
H12 H 0.8145 0.7416 0.6375
C18 C 0.8735(3) 0.8014(5) 0.4910(2)
H13 H 0.9269 0.9087 0.5124
C19 C 0.5917(6) 0.2803(8) 0.5933(4)
H14 H 0.5193 0.3082 0.5392
H15 H 0.5534 0.2332 0.6569
H16 H 0.6510 0.1829 0.5671
H17 H 0.885(4) 0.776(7) -0.057(4)
H18 H 0.998(4) 0.656(7) 0.007(3)
loop_
_geom_bond_atom_site_label_1
_geom_bond_atom_site_label_2
_geom_bond_site_symmetry_1
_geom_bond_site_symmetry_2
N1 C1 1_555 1_555
N2 C12 1_555 1_555
O1 C1 1_555 1_555
O2 C16 1_555 1_555
C1 C2 1_555 1_555
C2 C3 1_555 1_555
C3 H1 1_555 1_555
C4 C3 1_555 1_555
H2 C4 1_555 1_555
H3 C4 1_555 1_555
C5 O1 1_555 1_555
H4 C5 1_555 1_555
C6 C5 1_555 1_555
C7 C6 1_555 1_555
H5 C7 1_555 1_555
C8 C7 1_555 1_555
H6 C8 1_555 1_555
C9 C8 1_555 1_555
H7 C9 1_555 1_555
C10 C9 1_555 1_555
H8 C10 1_555 1_555
C11 C6 1_555 1_555
H9 C11 1_555 1_555
C12 C2 1_555 1_555
C13 C3 1_555 1_555
C14 C13 1_555 1_555
H10 C14 1_555 1_555
C15 C14 1_555 1_555
H11 C15 1_555 1_555
C16 C15 1_555 1_555
C17 C16 1_555 1_555
H12 C17 1_555 1_555
C18 C13 1_555 1_555
H13 C18 1_555 1_555
C19 O2 1_555 1_555
H14 C19 1_555 1_555
H15 C19 1_555 1_555
H16 C19 1_555 1_555
H17 N1 1_555 1_555
H18 N1 1_555 1_555
C4 C5 1_555 1_555
C10 C11 1_555 1_555
C17 C18 1_555 1_555

#END
