
#######################################################################
#
#                 Cambridge Crystallographic Data Centre
#                                CCDC 
#
#######################################################################
#
# If this CIF has been generated from an entry in the Cambridge 
# Structural Database, then it will include bibliographic, chemical, 
# crystal, experimental, refinement or atomic coordinate data resulting 
# from the CCDC's data processing and validation procedures.
#
#######################################################################

data_DAXREC
_chemical_formula_moiety         'C19 H14 N2 O4'
_chemical_name_systematic        
2-(hydroxy(4-nitrophenyl)methyl)-1-methyl-3H-pyrrolo[1,2-a]indol-3-one
_symmetry_cell_setting           monoclinic
_symmetry_space_group_name_H-M   'P 21/n'
_symmetry_Int_Tables_number      14
_space_group_name_Hall           '-P 2yn'
loop_
_symmetry_equiv_pos_site_id
_symmetry_equiv_pos_as_xyz
1 x,y,z
2 1/2-x,1/2+y,1/2-z
3 -x,-y,-z
4 1/2+x,1/2-y,1/2+z
_cell_length_a                   13.456(4)
_cell_length_b                   7.520(2)
_cell_length_c                   15.678(4)
_cell_angle_alpha                90
_cell_angle_beta                 105.424(6)
_cell_angle_gamma                90
_cell_volume                     1529.31
_exptl_crystal_colour            red
_exptl_crystal_description       block
_cell_formula_units_Z            4
loop_
_atom_site_label
_atom_site_type_symbol
_atom_site_fract_x
_atom_site_fract_y
_atom_site_fract_z
O1 O 0.74469(10) 0.8270(2) 0.19891(9)
O2 O 0.60438(12) 1.12881(19) 0.35445(11)
H1 H 0.6365 1.2083 0.3351
N1 N 0.58044(12) 0.8031(2) 0.10335(11)
O3 O 0.63103(14) 0.3000(2) 0.59251(12)
O4 O 0.62287(14) 0.5150(3) 0.68122(12)
N2 N 0.62589(13) 0.4580(3) 0.60867(13)
C1 C 0.65076(14) 0.8404(2) 0.18300(13)
C2 C 0.47178(15) 0.7384(3) -0.02921(14)
C3 C 0.57707(15) 0.7401(3) 0.01846(13)
C4 C 0.58879(15) 0.8996(3) 0.24283(14)
C5 C 0.62749(14) 0.8277(3) 0.40593(13)
C6 C 0.48034(14) 0.8376(3) 0.10868(14)
C7 C 0.62413(14) 0.5872(3) 0.53813(14)
C8 C 0.65438(16) 0.6847(3) -0.01822(14)
H2 H 0.7247 0.6857 0.0148
C9 C 0.41256(15) 0.8001(3) 0.03014(14)
H3 H 0.3397 0.8120 0.0163
C10 C 0.48730(15) 0.8966(3) 0.19829(14)
C11 C 0.63945(16) 0.9593(3) 0.33574(14)
H4 H 0.7149 0.9704 0.3411
C12 C 0.63439(15) 0.6458(3) 0.39205(14)
H5 H 0.6406 0.6046 0.3364
C13 C 0.63237(15) 0.5243(3) 0.45733(14)
H6 H 0.6365 0.4004 0.4471
C14 C 0.61689(16) 0.8858(3) 0.48752(15)
H7 H 0.6106 1.0093 0.4977
C15 C 0.44504(17) 0.6811(3) -0.11635(14)
H8 H 0.3749 0.6800 -0.1499
C16 C 0.52171(18) 0.6259(3) -0.15366(15)
H9 H 0.5040 0.5859 -0.2133
C17 C 0.62476(18) 0.6279(3) -0.10519(15)
H10 H 0.6760 0.5892 -0.1326
C18 C 0.61541(17) 0.7651(3) 0.55394(15)
H11 H 0.6085 0.8050 0.6096
C19 C 0.39603(16) 0.9436(3) 0.23077(16)
H12 H 0.4160 0.9448 0.2956
H13 H 0.3415 0.8555 0.2094
H14 H 0.3707 1.0616 0.2086
loop_
_geom_bond_atom_site_label_1
_geom_bond_atom_site_label_2
_geom_bond_site_symmetry_1
_geom_bond_site_symmetry_2
O1 C1 1_555 1_555
O2 H1 1_555 1_555
N1 C1 1_555 1_555
O3 N2 1_555 1_555
O4 N2 1_555 1_555
N2 C7 1_555 1_555
C1 C4 1_555 1_555
C2 C3 1_555 1_555
C3 N1 1_555 1_555
C4 C10 1_555 1_555
C5 C11 1_555 1_555
C6 N1 1_555 1_555
C7 C13 1_555 1_555
C8 C3 1_555 1_555
H2 C8 1_555 1_555
C9 C2 1_555 1_555
H3 C9 1_555 1_555
C10 C6 1_555 1_555
C11 O2 1_555 1_555
H4 C11 1_555 1_555
C12 C5 1_555 1_555
H5 C12 1_555 1_555
C13 C12 1_555 1_555
H6 C13 1_555 1_555
C14 C5 1_555 1_555
H7 C14 1_555 1_555
C15 C2 1_555 1_555
H8 C15 1_555 1_555
C16 C15 1_555 1_555
H9 C16 1_555 1_555
C17 C8 1_555 1_555
H10 C17 1_555 1_555
C18 C7 1_555 1_555
H11 C18 1_555 1_555
C19 C10 1_555 1_555
H12 C19 1_555 1_555
H13 C19 1_555 1_555
H14 C19 1_555 1_555
C4 C11 1_555 1_555
C6 C9 1_555 1_555
C14 C18 1_555 1_555
C16 C17 1_555 1_555

#END
