
#######################################################################
#
#                 Cambridge Crystallographic Data Centre
#                                CCDC 
#
#######################################################################
#
# If this CIF has been generated from an entry in the Cambridge 
# Structural Database, then it will include bibliographic, chemical, 
# crystal, experimental, refinement or atomic coordinate data resulting 
# from the CCDC's data processing and validation procedures.
#
#######################################################################

data_DAXRAY
_chemical_formula_moiety         'C21 H17 N3'
_chemical_name_systematic        1-(diphenylmethyl)-5-phenyl-1H-1,2,3-triazole
_symmetry_cell_setting           triclinic
_symmetry_space_group_name_H-M   'P -1'
_symmetry_Int_Tables_number      2
_space_group_name_Hall           '-P 1'
loop_
_symmetry_equiv_pos_site_id
_symmetry_equiv_pos_as_xyz
1 x,y,z
2 -x,-y,-z
_cell_length_a                   9.7574(7)
_cell_length_b                   9.8733(8)
_cell_length_c                   10.1948(9)
_cell_angle_alpha                74.937(3)
_cell_angle_beta                 61.753(2)
_cell_angle_gamma                76.281(2)
_cell_volume                     827.9
_exptl_crystal_colour            colorless
_exptl_crystal_description       chunk
_cell_formula_units_Z            2
loop_
_atom_site_label
_atom_site_type_symbol
_atom_site_fract_x
_atom_site_fract_y
_atom_site_fract_z
C1 C 0.6360(2) 0.3139(2) 0.1234(3)
H1 H 0.5844 0.4110 0.1348
C2 C 0.9130(3) 0.2937(3) 0.2668(3)
H2 H 0.9744 0.3260 0.2965
C3 C 0.7973(3) 0.3761(2) 0.2315(3)
C4 C 0.7366(3) 0.5278(2) 0.2314(3)
C5 C 0.5769(3) 0.5748(3) 0.3000(3)
H3 H 0.5054 0.5098 0.3471
C6 C 0.5234(3) 0.7180(3) 0.2988(3)
H4 H 0.4162 0.7486 0.3439
C7 C 0.6279(4) 0.8150(3) 0.2315(4)
H5 H 0.5917 0.9111 0.2305
C8 C 0.7857(4) 0.7693(3) 0.1657(4)
H6 H 0.8566 0.8348 0.1217
C9 C 0.8409(3) 0.6271(3) 0.1640(3)
H7 H 0.9483 0.5977 0.1174
C10 C 0.5060(2) 0.2206(2) 0.2084(3)
C11 C 0.4352(3) 0.1847(2) 0.1340(3)
H8 H 0.4738 0.2110 0.0296
C12 C 0.3074(3) 0.1101(3) 0.2139(3)
H9 H 0.2607 0.0870 0.1629
C13 C 0.2496(3) 0.0701(3) 0.3680(3)
H10 H 0.1642 0.0197 0.4211
C14 C 0.3183(3) 0.1047(3) 0.4435(3)
H11 H 0.2793 0.0778 0.5478
C15 C 0.4453(3) 0.1795(2) 0.3644(3)
H12 H 0.4908 0.2027 0.4163
C16 C 0.7280(2) 0.3149(2) -0.0451(3)
C17 C 0.8115(3) 0.1925(3) -0.1040(3)
H13 H 0.8100 0.1065 -0.0388
C18 C 0.8962(3) 0.1972(3) -0.2572(3)
H14 H 0.9526 0.1149 -0.2956
C19 C 0.8974(4) 0.3236(4) -0.3535(4)
H15 H 0.9551 0.3267 -0.4573
C20 C 0.8139(4) 0.4462(4) -0.2977(4)
H16 H 0.8138 0.5313 -0.3638
C21 C 0.7302(3) 0.4422(3) -0.1431(3)
H17 H 0.6755 0.5250 -0.1050
N1 N 0.7441(2) 0.28358(18) 0.1943(2)
N2 N 0.8224(2) 0.15170(19) 0.2065(2)
N3 N 0.9255(3) 0.1583(2) 0.2523(3)
loop_
_geom_bond_atom_site_label_1
_geom_bond_atom_site_label_2
_geom_bond_site_symmetry_1
_geom_bond_site_symmetry_2
C1 H1 1_555 1_555
C2 H2 1_555 1_555
C3 C2 1_555 1_555
C4 C3 1_555 1_555
C5 C4 1_555 1_555
H3 C5 1_555 1_555
C6 C5 1_555 1_555
H4 C6 1_555 1_555
C7 C6 1_555 1_555
H5 C7 1_555 1_555
C8 C7 1_555 1_555
H6 C8 1_555 1_555
C9 C4 1_555 1_555
H7 C9 1_555 1_555
C10 C1 1_555 1_555
C11 C10 1_555 1_555
H8 C11 1_555 1_555
C12 C11 1_555 1_555
H9 C12 1_555 1_555
C13 C12 1_555 1_555
H10 C13 1_555 1_555
C14 C13 1_555 1_555
H11 C14 1_555 1_555
C15 C10 1_555 1_555
H12 C15 1_555 1_555
C16 C1 1_555 1_555
C17 C16 1_555 1_555
H13 C17 1_555 1_555
C18 C17 1_555 1_555
H14 C18 1_555 1_555
C19 C18 1_555 1_555
H15 C19 1_555 1_555
C20 C19 1_555 1_555
H16 C20 1_555 1_555
C21 C16 1_555 1_555
H17 C21 1_555 1_555
N1 C1 1_555 1_555
N2 N1 1_555 1_555
N3 C2 1_555 1_555
C3 N1 1_555 1_555
C8 C9 1_555 1_555
C14 C15 1_555 1_555
C20 C21 1_555 1_555
N2 N3 1_555 1_555

#END
