
#######################################################################
#
#                 Cambridge Crystallographic Data Centre
#                                CCDC 
#
#######################################################################
#
# If this CIF has been generated from an entry in the Cambridge 
# Structural Database, then it will include bibliographic, chemical, 
# crystal, experimental, refinement or atomic coordinate data resulting 
# from the CCDC's data processing and validation procedures.
#
#######################################################################

data_DAXWIL
_chemical_formula_moiety         'C32 H30 N2 O2 S1'
_chemical_name_systematic        
N-(1,5-dibenzyl-5-phenyl-5,6-dihydropyridin-2(1H)-ylidene)-4-methylbenzenesulfonamide
_symmetry_cell_setting           monoclinic
_symmetry_space_group_name_H-M   'P 21/c'
_symmetry_Int_Tables_number      14
_space_group_name_Hall           '-P 2ybc'
loop_
_symmetry_equiv_pos_site_id
_symmetry_equiv_pos_as_xyz
1 x,y,z
2 -x,1/2+y,1/2-z
3 -x,-y,-z
4 x,1/2-y,1/2+z
_cell_length_a                   8.0697(3)
_cell_length_b                   32.4621(12)
_cell_length_c                   9.8721(4)
_cell_angle_alpha                90
_cell_angle_beta                 90.5490(17)
_cell_angle_gamma                90
_cell_volume                     2585.97
_exptl_crystal_description       block
_cell_formula_units_Z            4
_exptl_crystal_recrystallization_method dichloromethane/hexane
loop_
_atom_site_label
_atom_site_type_symbol
_atom_site_fract_x
_atom_site_fract_y
_atom_site_fract_z
S1 S 0.44479(5) 0.35542(2) 0.73368(4)
O1 O 0.39741(17) 0.31530(4) 0.78368(12)
O2 O 0.55336(16) 0.37941(4) 0.81818(12)
N1 N 0.53609(17) 0.33885(4) 0.36207(14)
N2 N 0.53270(18) 0.35399(4) 0.58776(14)
C1 C -0.0269(2) 0.43043(5) 0.66960(16)
C2 C 0.2174(2) 0.36451(5) 0.21016(16)
C3 C 0.4633(2) 0.33519(5) 0.48234(16)
C4 C 0.2608(2) 0.38433(5) 0.70865(15)
C5 C 0.0428(2) 0.28323(5) 0.09643(16)
C6 C 0.2720(2) 0.42597(5) 0.67837(16)
H1 H 0.3751 0.4385 0.6708
C7 C 0.2585(2) 0.38357(5) 0.08803(16)
H2 H 0.3206 0.3692 0.0247
C8 C -0.0359(2) 0.38870(5) 0.70067(18)
H3 H -0.1389 0.3761 0.7085
C9 C 0.1071(2) 0.36566(5) 0.72006(17)
H4 H 0.0998 0.3378 0.7407
C10 C 0.6531(2) 0.40323(5) 0.27365(17)
C11 C 0.5627(2) 0.43298(5) 0.34266(18)
H5 H 0.5235 0.4273 0.4289
C12 C 0.1285(2) 0.38722(5) 0.30413(16)
H6 H 0.1018 0.3754 0.3869
C13 C 0.4665(2) 0.31838(5) 0.24264(16)
H7 H 0.5015 0.2898 0.2425
H8 H 0.5101 0.3313 0.1619
C14 C 0.2187(2) 0.30491(5) 0.37294(17)
H9 H 0.1182 0.2910 0.3786
C15 C 0.3088(2) 0.31090(5) 0.48443(16)
H10 H 0.2737 0.2995 0.5657
C16 C 0.2766(2) 0.32019(5) 0.23763(16)
C17 C 0.2249(2) 0.28985(5) 0.12288(17)
H11 H 0.2741 0.2995 0.0394
H12 H 0.2740 0.2633 0.1434
C18 C 0.1288(2) 0.44869(5) 0.65946(17)
H13 H 0.1364 0.4766 0.6396
C19 C -0.0467(2) 0.30930(6) 0.01091(17)
H14 H 0.0031 0.3331 -0.0220
C20 C 0.2083(2) 0.42339(6) 0.05988(17)
H15 H 0.2358 0.4355 -0.0223
C21 C 0.6891(2) 0.36243(5) 0.34148(18)
H16 H 0.7642 0.3466 0.2858
H17 H 0.7430 0.3673 0.4283
C22 C 0.1173(2) 0.44537(5) 0.15323(19)
H18 H 0.0822 0.4720 0.1337
C23 C 0.0789(2) 0.42739(5) 0.27604(18)
H19 H 0.0197 0.4422 0.3401
C24 C -0.0383(2) 0.24899(5) 0.1483(2)
H20 H 0.0172 0.2319 0.2093
C25 C -0.2093(3) 0.30032(6) -0.02587(19)
H21 H -0.2673 0.3180 -0.0833
C26 C -0.2853(2) 0.26525(6) 0.0223(2)
H22 H -0.3929 0.2588 -0.0047
C27 C -0.2001(3) 0.23981(6) 0.1112(2)
H23 H -0.2515 0.2165 0.1460
C28 C -0.1834(2) 0.45490(6) 0.6482(2)
H24 H -0.1688 0.4821 0.6843
H25 H -0.2734 0.4416 0.6935
H26 H -0.2079 0.4566 0.5530
C29 C 0.5308(2) 0.47082(6) 0.2848(2)
H27 H 0.4715 0.4906 0.3323
C30 C 0.7065(2) 0.41172(6) 0.14352(18)
H28 H 0.7646 0.3919 0.0953
C31 C 0.6734(3) 0.44982(7) 0.0850(2)
H29 H 0.7094 0.4554 -0.0023
C32 C 0.5874(3) 0.47933(6) 0.1557(2)
H30 H 0.5672 0.5050 0.1168
loop_
_geom_bond_atom_site_label_1
_geom_bond_atom_site_label_2
_geom_bond_site_symmetry_1
_geom_bond_site_symmetry_2
S1 O1 1_555 1_555
O2 S1 1_555 1_555
N1 C3 1_555 1_555
N2 S1 1_555 1_555
C1 C8 1_555 1_555
C2 C7 1_555 1_555
C3 N2 1_555 1_555
C4 S1 1_555 1_555
C5 C17 1_555 1_555
C6 C4 1_555 1_555
H1 C6 1_555 1_555
C7 H2 1_555 1_555
C8 H3 1_555 1_555
C9 C4 1_555 1_555
H4 C9 1_555 1_555
C10 C11 1_555 1_555
C11 H5 1_555 1_555
C12 C2 1_555 1_555
H6 C12 1_555 1_555
C13 N1 1_555 1_555
H7 C13 1_555 1_555
H8 C13 1_555 1_555
C14 H9 1_555 1_555
C15 C3 1_555 1_555
H10 C15 1_555 1_555
C16 C2 1_555 1_555
C17 C16 1_555 1_555
H11 C17 1_555 1_555
H12 C17 1_555 1_555
C18 C1 1_555 1_555
H13 C18 1_555 1_555
C19 C5 1_555 1_555
H14 C19 1_555 1_555
C20 C7 1_555 1_555
H15 C20 1_555 1_555
C21 N1 1_555 1_555
H16 C21 1_555 1_555
H17 C21 1_555 1_555
C22 C20 1_555 1_555
H18 C22 1_555 1_555
C23 C12 1_555 1_555
H19 C23 1_555 1_555
C24 C5 1_555 1_555
H20 C24 1_555 1_555
C25 C19 1_555 1_555
H21 C25 1_555 1_555
C26 C25 1_555 1_555
H22 C26 1_555 1_555
C27 C24 1_555 1_555
H23 C27 1_555 1_555
C28 C1 1_555 1_555
H24 C28 1_555 1_555
H25 C28 1_555 1_555
H26 C28 1_555 1_555
C29 C11 1_555 1_555
H27 C29 1_555 1_555
C30 C10 1_555 1_555
H28 C30 1_555 1_555
C31 C30 1_555 1_555
H29 C31 1_555 1_555
C32 C29 1_555 1_555
H30 C32 1_555 1_555
C6 C18 1_555 1_555
C8 C9 1_555 1_555
C10 C21 1_555 1_555
C13 C16 1_555 1_555
C14 C15 1_555 1_555
C14 C16 1_555 1_555
C22 C23 1_555 1_555
C26 C27 1_555 1_555
C31 C32 1_555 1_555

#END
