
#######################################################################
#
#                 Cambridge Crystallographic Data Centre
#                                CCDC 
#
#######################################################################
#
# If this CIF has been generated from an entry in the Cambridge 
# Structural Database, then it will include bibliographic, chemical, 
# crystal, experimental, refinement or atomic coordinate data resulting 
# from the CCDC's data processing and validation procedures.
#
#######################################################################

data_DAXWAD
_chemical_formula_moiety         'C19 H18 Br1 F1 N2 O1'
_chemical_name_systematic        
3-(4-bromo-2-t-butylphenyl)-5-fluoro-2-methylquinazolin-4(3H)-one
_symmetry_cell_setting           orthorhombic
_symmetry_space_group_name_H-M   'P 21 21 21'
_symmetry_Int_Tables_number      19
_space_group_name_Hall           'P 2ac 2ab'
loop_
_symmetry_equiv_pos_site_id
_symmetry_equiv_pos_as_xyz
1 x,y,z
2 1/2-x,-y,1/2+z
3 -x,1/2+y,1/2-z
4 1/2+x,1/2-y,-z
_cell_length_a                   8.5688(3)
_cell_length_b                   12.4308(4)
_cell_length_c                   16.2377(6)
_cell_angle_alpha                90
_cell_angle_beta                 90
_cell_angle_gamma                90
_cell_volume                     1729.59
_exptl_crystal_colour            colorless
_exptl_crystal_description       prism
_cell_formula_units_Z            4
loop_
_atom_site_label
_atom_site_type_symbol
_atom_site_fract_x
_atom_site_fract_y
_atom_site_fract_z
Br1 Br 0.80603(3) 0.26133(2) 0.28707(2)
F1 F 0.06262(19) 0.56956(15) 0.61402(9)
O1 O 0.3034(2) 0.48737(16) 0.52831(11)
N1 N 0.5470(3) 0.4698(2) 0.74402(14)
N2 N 0.5246(3) 0.44881(19) 0.59983(14)
C1 C 0.3966(3) 0.5108(2) 0.74523(17)
C2 C 0.3338(4) 0.5403(2) 0.82179(17)
H1 H 0.3951 0.5333 0.8702
C3 C 0.1837(4) 0.5792(2) 0.82693(18)
H2 H 0.1420 0.5986 0.8791
C4 C 0.0915(3) 0.5906(3) 0.75606(18)
H3 H -0.0116 0.6183 0.7594
C5 C 0.1546(3) 0.5608(2) 0.68181(17)
C6 C 0.3056(3) 0.5211(2) 0.67336(16)
C7 C 0.3706(3) 0.4864(2) 0.59444(17)
C8 C 0.6044(3) 0.4403(2) 0.67357(17)
C9 C 0.7652(3) 0.3935(3) 0.67164(19)
H4 H 0.7589 0.3166 0.6585
H5 H 0.8146 0.4027 0.7256
H6 H 0.8274 0.4303 0.6296
C10 C 0.5955(3) 0.4112(2) 0.52405(16)
C11 C 0.5818(3) 0.3015(2) 0.51007(17)
H7 H 0.5290 0.2580 0.5493
C12 C 0.6437(3) 0.2541(2) 0.43985(17)
H8 H 0.6349 0.1790 0.4300
C13 C 0.7184(3) 0.3211(2) 0.38536(16)
C14 C 0.7325(3) 0.4303(2) 0.39771(16)
H9 H 0.7855 0.4726 0.3578
C15 C 0.6704(3) 0.4805(2) 0.46796(16)
C16 C 0.6806(3) 0.6045(2) 0.47290(16)
C17 C 0.8371(4) 0.6438(3) 0.43758(19)
H10 H 0.9232 0.6098 0.4676
H11 H 0.8442 0.7221 0.4435
H12 H 0.8436 0.6246 0.3791
C18 C 0.6691(4) 0.6529(2) 0.56004(17)
H13 H 0.5651 0.6387 0.5827
H14 H 0.6864 0.7308 0.5572
H15 H 0.7483 0.6201 0.5956
C19 C 0.5469(4) 0.6494(3) 0.41986(18)
H16 H 0.5600 0.6253 0.3628
H17 H 0.5487 0.7282 0.4218
H18 H 0.4469 0.6233 0.4412
loop_
_geom_bond_atom_site_label_1
_geom_bond_atom_site_label_2
_geom_bond_site_symmetry_1
_geom_bond_site_symmetry_2
Br1 C13 1_555 1_555
F1 C5 1_555 1_555
O1 C7 1_555 1_555
N1 C1 1_555 1_555
N2 C7 1_555 1_555
C1 C2 1_555 1_555
C2 H1 1_555 1_555
C3 C2 1_555 1_555
H2 C3 1_555 1_555
C4 C3 1_555 1_555
H3 C4 1_555 1_555
C5 C4 1_555 1_555
C6 C1 1_555 1_555
C7 C6 1_555 1_555
C8 N1 1_555 1_555
C9 C8 1_555 1_555
H4 C9 1_555 1_555
H5 C9 1_555 1_555
H6 C9 1_555 1_555
C10 N2 1_555 1_555
C11 C10 1_555 1_555
H7 C11 1_555 1_555
C12 C11 1_555 1_555
H8 C12 1_555 1_555
C13 C12 1_555 1_555
C14 C13 1_555 1_555
H9 C14 1_555 1_555
C15 C10 1_555 1_555
C16 C15 1_555 1_555
C17 C16 1_555 1_555
H10 C17 1_555 1_555
H11 C17 1_555 1_555
H12 C17 1_555 1_555
C18 C16 1_555 1_555
H13 C18 1_555 1_555
H14 C18 1_555 1_555
H15 C18 1_555 1_555
C19 C16 1_555 1_555
H16 C19 1_555 1_555
H17 C19 1_555 1_555
H18 C19 1_555 1_555
N2 C8 1_555 1_555
C5 C6 1_555 1_555
C14 C15 1_555 1_555

#END
