
#######################################################################
#
#                 Cambridge Crystallographic Data Centre
#                                CCDC 
#
#######################################################################
#
# If this CIF has been generated from an entry in the Cambridge 
# Structural Database, then it will include bibliographic, chemical, 
# crystal, experimental, refinement or atomic coordinate data resulting 
# from the CCDC's data processing and validation procedures.
#
#######################################################################

data_DAXXEI
_chemical_formula_moiety         'C24 H19 Cl1 O4'
_chemical_name_systematic        
'2-methoxyphenyl (4-(4-chlorophenyl)-3,4-dihydro-2H-chromen-2-ylidene)acetate'
_symmetry_cell_setting           tetragonal
_symmetry_space_group_name_H-M   'P 43 21 2'
_symmetry_Int_Tables_number      96
_space_group_name_Hall           'P 4nw 2abw'
loop_
_symmetry_equiv_pos_site_id
_symmetry_equiv_pos_as_xyz
1 x,y,z
2 1/2-y,1/2+x,3/4+z
3 -x,-y,1/2+z
4 1/2+y,1/2-x,1/4+z
5 1/2+x,1/2-y,1/4-z
6 1/2-x,1/2+y,3/4-z
7 y,x,-z
8 -y,-x,1/2-z
_cell_length_a                   8.2642(2)
_cell_length_b                   8.2642(2)
_cell_length_c                   59.668(4)
_cell_angle_alpha                90
_cell_angle_beta                 90
_cell_angle_gamma                90
_cell_volume                     4075.15
_exptl_crystal_colour            colorless
_exptl_crystal_description       block
_cell_formula_units_Z            8
loop_
_atom_site_label
_atom_site_type_symbol
_atom_site_fract_x
_atom_site_fract_y
_atom_site_fract_z
Cl1 Cl 0.00515(14) 0.97290(14) 0.04145(2)
O1 O -0.7237(3) 0.2117(3) 0.04301(4)
O2 O -0.8016(3) 0.5363(3) 0.09846(4)
O3 O -0.9450(3) 0.3254(3) 0.11121(3)
O4 O -1.2089(3) 0.5087(3) 0.11623(4)
C1 C -0.5983(4) 0.2081(4) 0.02764(5)
C2 C -0.6204(5) 0.1054(4) 0.00958(5)
H1 H -0.7156 0.0462 0.0082
C3 C -0.5009(5) 0.0913(4) -0.00635(6)
H2 H -0.5153 0.0232 -0.0186
C4 C -0.3597(5) 0.1785(4) -0.00405(6)
H3 H -0.2779 0.1691 -0.0147
C5 C -0.3405(4) 0.2806(4) 0.01423(6)
H4 H -0.2448 0.3389 0.0157
C6 C -0.4598(4) 0.2978(3) 0.03026(5)
C7 C -0.4454(4) 0.4055(4) 0.05067(5)
H5 H -0.4048 0.3393 0.0631
C8 C -0.6154(4) 0.4654(4) 0.05701(5)
H6 H -0.6102 0.5265 0.0709
H7 H -0.6563 0.5363 0.0454
C9 C -0.7261(4) 0.3252(4) 0.05982(5)
C10 C -0.8305(4) 0.2968(4) 0.07631(5)
H8 H -0.8934 0.2037 0.0755
C11 C -0.8521(4) 0.4022(4) 0.09546(5)
C12 C -0.9693(4) 0.4092(4) 0.13155(5)
C13 C -1.1084(4) 0.5007(4) 0.13410(5)
C14 C -1.1315(5) 0.5771(4) 0.15464(6)
H9 H -1.2234 0.6400 0.1569
C15 C -1.0218(6) 0.5613(5) 0.17155(6)
H10 H -1.0398 0.6132 0.1852
C16 C -0.8836(6) 0.4686(5) 0.16866(6)
H11 H -0.8091 0.4577 0.1802
C17 C -0.8578(5) 0.3920(4) 0.14818(6)
H12 H -0.7655 0.3298 0.1459
C18 C -0.3295(4) 0.5474(4) 0.04758(5)
C19 C -0.3560(4) 0.6653(4) 0.03164(5)
H13 H -0.4444 0.6561 0.0221
C20 C -0.2541(4) 0.7963(4) 0.02963(6)
H14 H -0.2741 0.8760 0.0190
C21 C -0.1234(4) 0.8076(5) 0.04353(6)
C22 C -0.1966(4) 0.5627(5) 0.06141(6)
H15 H -0.1767 0.4840 0.0722
C23 C -0.0932(4) 0.6920(5) 0.05956(7)
H16 H -0.0041 0.7012 0.0690
C24 C -1.3562(6) 0.5983(6) 0.11878(9)
H17 H -1.4213 0.5857 0.1056
H18 H -1.3314 0.7107 0.1209
H19 H -1.4144 0.5584 0.1316
loop_
_geom_bond_atom_site_label_1
_geom_bond_atom_site_label_2
_geom_bond_site_symmetry_1
_geom_bond_site_symmetry_2
Cl1 C21 1_555 1_555
O1 C1 1_555 1_555
O2 C11 1_555 1_555
O3 C11 1_555 1_555
O4 C13 1_555 1_555
C1 C2 1_555 1_555
C2 H1 1_555 1_555
C3 C2 1_555 1_555
H2 C3 1_555 1_555
C4 C3 1_555 1_555
H3 C4 1_555 1_555
C5 C4 1_555 1_555
H4 C5 1_555 1_555
C6 C1 1_555 1_555
C7 C6 1_555 1_555
H5 C7 1_555 1_555
C8 C7 1_555 1_555
H6 C8 1_555 1_555
H7 C8 1_555 1_555
C9 O1 1_555 1_555
C10 C9 1_555 1_555
H8 C10 1_555 1_555
C11 C10 1_555 1_555
C12 O3 1_555 1_555
C13 C12 1_555 1_555
C14 C13 1_555 1_555
H9 C14 1_555 1_555
C15 C14 1_555 1_555
H10 C15 1_555 1_555
C16 C15 1_555 1_555
H11 C16 1_555 1_555
C17 C12 1_555 1_555
H12 C17 1_555 1_555
C18 C7 1_555 1_555
C19 C18 1_555 1_555
H13 C19 1_555 1_555
C20 C19 1_555 1_555
H14 C20 1_555 1_555
C21 C20 1_555 1_555
C22 C18 1_555 1_555
H15 C22 1_555 1_555
C23 C21 1_555 1_555
H16 C23 1_555 1_555
C24 O4 1_555 1_555
H17 C24 1_555 1_555
H18 C24 1_555 1_555
H19 C24 1_555 1_555
C5 C6 1_555 1_555
C8 C9 1_555 1_555
C16 C17 1_555 1_555
C22 C23 1_555 1_555

#END
