
#######################################################################
#
#                 Cambridge Crystallographic Data Centre
#                                CCDC 
#
#######################################################################
#
# If this CIF has been generated from an entry in the Cambridge 
# Structural Database, then it will include bibliographic, chemical, 
# crystal, experimental, refinement or atomic coordinate data resulting 
# from the CCDC's data processing and validation procedures.
#
#######################################################################

data_DAYGUG
_chemical_formula_moiety         'C14 H18 O11,H2 O1'
_chemical_name_systematic        
'1,2,3,4-tetra-O-acetyl-\b-D-glucopyranuronic acid monohydrate'
_symmetry_cell_setting           monoclinic
_symmetry_space_group_name_H-M   'P 21'
_symmetry_Int_Tables_number      4
_space_group_name_Hall           'P 2yb'
loop_
_symmetry_equiv_pos_site_id
_symmetry_equiv_pos_as_xyz
1 x,y,z
2 -x,1/2+y,-z
_cell_length_a                   9.0644(4)
_cell_length_b                   10.4661(6)
_cell_length_c                   9.7703(5)
_cell_angle_alpha                90
_cell_angle_beta                 103.131(3)
_cell_angle_gamma                90
_cell_volume                     902.662
_exptl_crystal_colour            colorless
_exptl_crystal_description       block
_chemical_melting_point          '369-372 K'
_cell_formula_units_Z            2
_exptl_crystal_recrystallization_method acetone/water
loop_
_atom_site_label
_atom_site_type_symbol
_atom_site_fract_x
_atom_site_fract_y
_atom_site_fract_z
O1 O 0.42805(19) 0.46522(18) 0.77167(18)
O2 O 0.38300(17) 0.38689(18) 0.49169(16)
O3 O 0.68869(17) 0.38490(19) 0.40710(16)
O4 O 0.89148(18) 0.23428(17) 0.59788(17)
O5 O 0.66600(17) 0.38688(18) 0.81798(16)
O6 O 0.9919(2) 0.19442(18) 0.9011(2)
H1 H 1.0722 0.1990 0.9639
O7 O 0.94414(18) 0.38859(19) 0.98099(18)
O8 O 0.3598(2) 0.3156(3) 0.9117(2)
O9 O 0.4084(2) 0.54617(18) 0.34423(19)
O10 O 0.5171(2) 0.2611(2) 0.26446(19)
O11 O 1.0875(2) 0.3712(2) 0.6386(2)
C1 C 0.5211(2) 0.3752(3) 0.7257(2)
H2 H 0.4801 0.2867 0.7278
C2 C 0.5319(2) 0.4128(2) 0.5774(2)
H3 H 0.5572 0.5055 0.5734
C3 C 0.6493(2) 0.3314(3) 0.5306(2)
H4 H 0.6100 0.2425 0.5105
C4 C 0.7976(3) 0.3288(2) 0.6406(2)
H5 H 0.8478 0.4143 0.6458
C5 C 0.7678(3) 0.2938(2) 0.7852(2)
H6 H 0.7215 0.2068 0.7815
C6 C 0.9125(3) 0.2992(3) 0.9019(2)
C7 C 0.3517(3) 0.4233(3) 0.8689(3)
C8 C 0.2641(4) 0.5306(4) 0.9125(4)
H7 H 0.1952 0.4969 0.9679
H8 H 0.2053 0.5740 0.8288
H9 H 0.3343 0.5915 0.9696
C9 C 0.3323(3) 0.4618(3) 0.3774(2)
C10 C 0.1761(3) 0.4243(3) 0.3033(3)
H10 H 0.1361 0.4869 0.2297
H11 H 0.1109 0.4216 0.3707
H12 H 0.1786 0.3398 0.2608
C11 C 0.6147(3) 0.3407(3) 0.2791(2)
C12 C 0.6709(4) 0.4071(4) 0.1661(3)
H13 H 0.6436 0.4978 0.1648
H14 H 0.6249 0.3685 0.0751
H15 H 0.7814 0.3988 0.1841
C13 C 1.0369(3) 0.2674(3) 0.6024(3)
C14 C 1.1212(3) 0.1584(3) 0.5588(4)
H16 H 1.2167 0.1894 0.5399
H17 H 1.0598 0.1194 0.4735
H18 H 1.1427 0.0947 0.6342
O12 O 0.7790(2) 0.6501(2) 0.8916(2)
H19 H 0.768(5) 0.564(5) 0.891(5)
H20 H 0.696(5) 0.688(4) 0.885(4)
loop_
_geom_bond_atom_site_label_1
_geom_bond_atom_site_label_2
_geom_bond_site_symmetry_1
_geom_bond_site_symmetry_2
O1 C1 1_555 1_555
O2 C2 1_555 1_555
O3 C3 1_555 1_555
O4 C4 1_555 1_555
O5 C1 1_555 1_555
O6 H1 1_555 1_555
O7 C6 1_555 1_555
O8 C7 1_555 1_555
O9 C9 1_555 1_555
O10 C11 1_555 1_555
O11 C13 1_555 1_555
C1 H2 1_555 1_555
C2 C1 1_555 1_555
H3 C2 1_555 1_555
C3 C2 1_555 1_555
H4 C3 1_555 1_555
C4 C3 1_555 1_555
H5 C4 1_555 1_555
C5 O5 1_555 1_555
H6 C5 1_555 1_555
C6 O6 1_555 1_555
C7 O1 1_555 1_555
C8 C7 1_555 1_555
H7 C8 1_555 1_555
H8 C8 1_555 1_555
H9 C8 1_555 1_555
C9 O2 1_555 1_555
C10 C9 1_555 1_555
H10 C10 1_555 1_555
H11 C10 1_555 1_555
H12 C10 1_555 1_555
C11 O3 1_555 1_555
C12 C11 1_555 1_555
H13 C12 1_555 1_555
H14 C12 1_555 1_555
H15 C12 1_555 1_555
C13 O4 1_555 1_555
C14 C13 1_555 1_555
H16 C14 1_555 1_555
H17 C14 1_555 1_555
H18 C14 1_555 1_555
O12 H19 1_555 1_555
H20 O12 1_555 1_555
C4 C5 1_555 1_555
C5 C6 1_555 1_555

#END
