
#######################################################################
#
#                 Cambridge Crystallographic Data Centre
#                                CCDC 
#
#######################################################################
#
# If this CIF has been generated from an entry in the Cambridge 
# Structural Database, then it will include bibliographic, chemical, 
# crystal, experimental, refinement or atomic coordinate data resulting 
# from the CCDC's data processing and validation procedures.
#
#######################################################################

data_DAYREA01
_chemical_formula_moiety         '0.85(C4 H8 N2 O3),0.15(C4 H7 N1 O4),H2 O1'
_chemical_name_systematic        'L-Asparagine L-aspartic acid monohydrate'
_symmetry_cell_setting           orthorhombic
_symmetry_space_group_name_H-M   'P 21 21 21'
_symmetry_Int_Tables_number      19
_space_group_name_Hall           'P 2ac 2ab'
loop_
_symmetry_equiv_pos_site_id
_symmetry_equiv_pos_as_xyz
1 x,y,z
2 1/2+x,1/2-y,-z
3 -x,1/2+y,1/2-z
4 1/2-x,-y,1/2+z
_cell_length_a                   5.565(1)
_cell_length_b                   9.774(2)
_cell_length_c                   11.698(3)
_cell_angle_alpha                90
_cell_angle_beta                 90
_cell_angle_gamma                90
_cell_volume                     636.281
_cell_formula_units_Z            4
loop_
_atom_site_label
_atom_site_type_symbol
_atom_site_fract_x
_atom_site_fract_y
_atom_site_fract_z
C1 C -0.1212(1) -0.0556(1) 0.0339(1)
C2 C -0.3043(1) -0.0255(1) 0.1289(1)
C3 C -0.2062(1) 0.0594(1) 0.2268(1)
C4 C 0.0209(2) 0.0005(1) 0.2791(1)
N1 N -0.4122(11) -0.1554(1) 0.1711(1)
N2 N 0.1091(2) 0.0655(1) 0.3693(1)
O2 O -0.0020(2) 0.0456(2) -0.0019(1)
O3 O -0.1143(1) -0.1738(2) -0.0058(1)
O4 O 0.1160(2) -0.1029(2) 0.2375(1)
H3 H -0.3098(39) -0.2026(22) 0.2305(15)
H4 H -0.4418(30) -0.2202(21) 0.1087(20)
H5 H -0.5739(45) -0.1338(20) 0.2073(14)
H6 H 0.2579(53) 0.0210(25) 0.4079(19)
H7 H 0.0113(49) 0.1556(27) 0.3975(19)
H8 H -0.4355(66) 0.0257(29) 0.0926(20)
H9 H -0.1723(33) 0.1515(45) 0.1983(17)
H10 H -0.3241(60) 0.0698(16) 0.2891(31)
O1 O 0.3004(2) 0.2287(1) 0.1149(2)
H1 H 0.1880(29) 0.1751(22) 0.0720(17)
H2 H 0.3494(34) 0.3006(20) 0.0639(17)
loop_
_geom_bond_atom_site_label_1
_geom_bond_atom_site_label_2
_geom_bond_site_symmetry_1
_geom_bond_site_symmetry_2
O1 H1 1_555 1_555
H2 O1 1_555 1_555
C1 C2 1_555 1_555
C2 C3 1_555 1_555
C3 C4 1_555 1_555
C4 N2 1_555 1_555
N1 C2 1_555 1_555
N2 H6 1_555 1_555
O2 C1 1_555 1_555
O3 C1 1_555 1_555
O4 C4 1_555 1_555
H3 N1 1_555 1_555
H4 N1 1_555 1_555
H5 N1 1_555 1_555
H7 N2 1_555 1_555
H8 C2 1_555 1_555
H9 C3 1_555 1_555
H10 C3 1_555 1_555

#END
