
#######################################################################
#
#                 Cambridge Crystallographic Data Centre
#                                CCDC 
#
#######################################################################
#
# If this CIF has been generated from an entry in the Cambridge 
# Structural Database, then it will include bibliographic, chemical, 
# crystal, experimental, refinement or atomic coordinate data resulting 
# from the CCDC's data processing and validation procedures.
#
#######################################################################

data_DAYROL
_chemical_formula_moiety         'C12 H7 Cl1 F1 N3'
_chemical_name_systematic        
6-Chloro-2-(4-fluorophenyl)imidazo(1,2-b)pyridazine
_chemical_properties_biological  'potential biological activity'
_symmetry_cell_setting           triclinic
_symmetry_space_group_name_H-M   'P -1'
_symmetry_Int_Tables_number      2
_space_group_name_Hall           '-P 1'
loop_
_symmetry_equiv_pos_site_id
_symmetry_equiv_pos_as_xyz
1 x,y,z
2 -x,-y,-z
_cell_length_a                   5.6051(7)
_cell_length_b                   7.4946(10)
_cell_length_c                   13.2471(17)
_cell_angle_alpha                101.308(2)
_cell_angle_beta                 91.883(2)
_cell_angle_gamma                100.565(2)
_cell_volume                     535.062
_exptl_crystal_colour            colorless
_exptl_crystal_description       block
_chemical_melting_point          '494 K'
_cell_formula_units_Z            2
_exptl_crystal_recrystallization_method 'ethyl acetate'
loop_
_atom_site_label
_atom_site_type_symbol
_atom_site_fract_x
_atom_site_fract_y
_atom_site_fract_z
Cl1 Cl 0.36529(10) 0.81996(8) 1.31801(4)
F1 F -0.1971(3) 0.7435(2) 0.46559(11)
N1 N -0.2159(3) 0.6766(2) 0.93779(13)
N2 N 0.1221(3) 0.7882(2) 1.04173(12)
N3 N 0.2758(3) 0.8302(2) 1.12816(12)
C1 C -0.0337(3) 0.7582(2) 0.88491(15)
C2 C 0.1760(3) 0.8278(2) 0.94772(15)
H1 H 0.3235 0.8890 0.9300
C3 C 0.1764(3) 0.7742(3) 1.20699(16)
C4 C -0.0677(3) 0.6793(3) 1.20807(16)
H2 H -0.1248 0.6450 1.2680
C5 C -0.2143(3) 0.6400(3) 1.12104(16)
H3 H -0.3744 0.5776 1.1193
C6 C -0.1192(3) 0.6958(2) 1.03229(15)
C7 C -0.0741(3) 0.7576(2) 0.77545(15)
C8 C -0.3013(4) 0.6785(3) 0.72334(17)
H4 H -0.4269 0.6281 0.7596
C9 C -0.3436(4) 0.6734(3) 0.61991(18)
H5 H -0.4957 0.6212 0.5861
C10 C -0.1558(4) 0.7472(3) 0.56837(18)
C11 C 0.0694(4) 0.8294(4) 0.61565(19)
H6 H 0.1926 0.8808 0.5787
C12 C 0.1084(4) 0.8338(3) 0.71906(18)
H7 H 0.2604 0.8891 0.7522
loop_
_geom_bond_atom_site_label_1
_geom_bond_atom_site_label_2
_geom_bond_site_symmetry_1
_geom_bond_site_symmetry_2
Cl1 C3 1_555 1_555
F1 C10 1_555 1_555
N1 C1 1_555 1_555
N2 N3 1_555 1_555
N3 C3 1_555 1_555
C1 C2 1_555 1_555
C2 N2 1_555 1_555
H1 C2 1_555 1_555
C3 C4 1_555 1_555
C4 H2 1_555 1_555
C5 C4 1_555 1_555
H3 C5 1_555 1_555
C6 N1 1_555 1_555
C7 C1 1_555 1_555
C8 C7 1_555 1_555
H4 C8 1_555 1_555
C9 C8 1_555 1_555
H5 C9 1_555 1_555
C10 C9 1_555 1_555
C11 C10 1_555 1_555
H6 C11 1_555 1_555
C12 C7 1_555 1_555
H7 C12 1_555 1_555
N2 C6 1_555 1_555
C5 C6 1_555 1_555
C11 C12 1_555 1_555

#END
