
#######################################################################
#
#                 Cambridge Crystallographic Data Centre
#                                CCDC 
#
#######################################################################
#
# If this CIF has been generated from an entry in the Cambridge 
# Structural Database, then it will include bibliographic, chemical, 
# crystal, experimental, refinement or atomic coordinate data resulting 
# from the CCDC's data processing and validation procedures.
#
#######################################################################

data_DAYSEC
_chemical_formula_moiety         'C16 H19 N2 O3 P1'
_chemical_name_systematic        
5,5-Dimethyl-2-oxo-4-phenyl-2-(2-pyridylamino)-1,3,2-dioxaphosphorinane
_symmetry_cell_setting           monoclinic
_symmetry_space_group_name_H-M   'P 21/c'
_symmetry_Int_Tables_number      14
_space_group_name_Hall           '-P 2ybc'
loop_
_symmetry_equiv_pos_site_id
_symmetry_equiv_pos_as_xyz
1 x,y,z
2 -x,1/2+y,1/2-z
3 -x,-y,-z
4 x,1/2-y,1/2+z
_cell_length_a                   10.3775(9)
_cell_length_b                   7.4406(7)
_cell_length_c                   20.6390(18)
_cell_angle_alpha                90
_cell_angle_beta                 96.231(2)
_cell_angle_gamma                90
_cell_volume                     1584.22
_exptl_crystal_colour            colorless
_exptl_crystal_description       block
_chemical_melting_point          '515 K'
_cell_formula_units_Z            4
_exptl_crystal_recrystallization_method dioxane/DMF
loop_
_atom_site_label
_atom_site_type_symbol
_atom_site_fract_x
_atom_site_fract_y
_atom_site_fract_z
C1 C 0.5936(2) 0.3092(3) 0.30954(10)
H1 H 0.5538 0.4188 0.2987
C2 C 0.5922(2) 0.2412(4) 0.37190(11)
H2 H 0.5535 0.3068 0.4029
C3 C 0.6475(2) 0.0781(4) 0.38824(11)
H3 H 0.6443 0.0313 0.4298
C4 C 0.7076(3) -0.0158(3) 0.34287(11)
H4 H 0.7462 -0.1260 0.3540
C5 C 0.7113(2) 0.0522(3) 0.28061(10)
H5 H 0.7528 -0.0123 0.2503
C6 C 0.65345(17) 0.2157(3) 0.26306(9)
C7 C 0.65045(17) 0.2870(2) 0.19469(9)
H6 H 0.5694 0.3538 0.1844
C8 C 0.76406(19) 0.4105(3) 0.18032(9)
C9 C 0.7594(3) 0.5852(3) 0.21957(12)
H7 H 0.6743 0.6368 0.2119
H8 H 0.8219 0.6685 0.2062
H9 H 0.7789 0.5595 0.2652
C10 C 0.89577(19) 0.3188(3) 0.19583(11)
H10 H 0.9630 0.3973 0.1842
H11 H 0.8972 0.2091 0.1714
H12 H 0.9098 0.2925 0.2416
C11 C 0.7428(2) 0.4627(3) 0.10860(10)
H13 H 0.6633 0.5316 0.1009
H14 H 0.8136 0.5391 0.0985
C12 C 0.80205(18) -0.0963(3) 0.04401(9)
N1 N 0.88497(17) -0.0663(3) 0.09618(8)
C13 C 1.0038(2) -0.1390(3) 0.09510(13)
H15 H 1.0642 -0.1205 0.1312
C14 C 1.0413(2) -0.2376(4) 0.04501(14)
H16 H 1.1248 -0.2840 0.0469
C15 C 0.9530(2) -0.2669(3) -0.00844(13)
H17 H 0.9757 -0.3338 -0.0436
C16 C 0.8312(2) -0.1961(3) -0.00913(10)
H18 H 0.7692 -0.2146 -0.0446
N2 N 0.67749(16) -0.0220(2) 0.04232(8)
O1 O 0.64703(13) 0.12989(18) 0.15188(6)
O2 O 0.73462(14) 0.30758(19) 0.06512(6)
O3 O 0.49756(14) 0.2045(2) 0.04927(7)
P1 P 0.63039(5) 0.16044(7) 0.07590(2)
H19 H 0.6215(16) -0.066(3) 0.0134(8)
loop_
_geom_bond_atom_site_label_1
_geom_bond_atom_site_label_2
_geom_bond_site_symmetry_1
_geom_bond_site_symmetry_2
C1 H1 1_555 1_555
C2 C1 1_555 1_555
H2 C2 1_555 1_555
C3 C2 1_555 1_555
H3 C3 1_555 1_555
C4 C3 1_555 1_555
H4 C4 1_555 1_555
C5 C4 1_555 1_555
H5 C5 1_555 1_555
C6 C1 1_555 1_555
C7 C6 1_555 1_555
H6 C7 1_555 1_555
C8 C7 1_555 1_555
C9 C8 1_555 1_555
H7 C9 1_555 1_555
H8 C9 1_555 1_555
H9 C9 1_555 1_555
C10 C8 1_555 1_555
H10 C10 1_555 1_555
H11 C10 1_555 1_555
H12 C10 1_555 1_555
C11 C8 1_555 1_555
H13 C11 1_555 1_555
H14 C11 1_555 1_555
C12 N1 1_555 1_555
N1 C13 1_555 1_555
C13 H15 1_555 1_555
C14 C13 1_555 1_555
H16 C14 1_555 1_555
C15 C14 1_555 1_555
H17 C15 1_555 1_555
C16 C12 1_555 1_555
H18 C16 1_555 1_555
N2 C12 1_555 1_555
O1 C7 1_555 1_555
O2 C11 1_555 1_555
O3 P1 1_555 1_555
P1 N2 1_555 1_555
H19 N2 1_555 1_555
C5 C6 1_555 1_555
C15 C16 1_555 1_555
O1 P1 1_555 1_555
O2 P1 1_555 1_555

#END
