
#######################################################################
#
#                 Cambridge Crystallographic Data Centre
#                                CCDC 
#
#######################################################################
#
# If this CIF has been generated from an entry in the Cambridge 
# Structural Database, then it will include bibliographic, chemical, 
# crystal, experimental, refinement or atomic coordinate data resulting 
# from the CCDC's data processing and validation procedures.
#
#######################################################################

data_DAYXIL
_chemical_formula_moiety         'C12 H13 N4 1+,C7 H7 O3 S1 1-'
_chemical_name_systematic        
'5-Amino-1-benzyl-4-cyano-3-methylimidazolium toluene-p-sulfonate'
_symmetry_cell_setting           triclinic
_symmetry_space_group_name_H-M   'P -1'
_symmetry_Int_Tables_number      2
_space_group_name_Hall           '-P 1'
loop_
_symmetry_equiv_pos_site_id
_symmetry_equiv_pos_as_xyz
1 x,y,z
2 -x,-y,-z
_cell_length_a                   5.87600(10)
_cell_length_b                   7.51630(10)
_cell_length_c                   21.3393(2)
_cell_angle_alpha                100.0470(10)
_cell_angle_beta                 92.5700(10)
_cell_angle_gamma                93.0060(10)
_cell_volume                     925.339
_exptl_crystal_colour            colorless
_exptl_crystal_description       plate
_cell_formula_units_Z            2
_exptl_crystal_recrystallization_method ethanol
loop_
_atom_site_label
_atom_site_type_symbol
_atom_site_fract_x
_atom_site_fract_y
_atom_site_fract_z
S1 S 0.22670(6) 0.78427(5) 0.285713(16)
O1 O 0.47434(18) 0.80565(16) 0.28859(5)
O2 O 0.13945(19) 0.62120(15) 0.30744(5)
O3 O 0.1221(2) 0.94592(16) 0.31822(5)
C13 C 0.1347(2) 0.75941(17) 0.20410(6)
C14 C -0.0837(3) 0.6854(2) 0.18348(7)
H14 H -0.1823 0.6438 0.2127
C15 C -0.1566(3) 0.6728(2) 0.11976(7)
H15 H -0.3053 0.6216 0.1057
C16 C -0.0151(3) 0.7339(2) 0.07622(7)
C17 C 0.2033(3) 0.8067(2) 0.09759(7)
H16 H 0.3022 0.8476 0.0683
C18 C 0.2790(3) 0.8206(2) 0.16118(7)
H17 H 0.4279 0.8713 0.1752
C19 C -0.1006(4) 0.7257(3) 0.00752(8)
H18 H -0.1592 0.8423 0.0025
H19 H -0.2230 0.6302 -0.0037
H20 H 0.0252 0.6991 -0.0206
N1 N 0.5884(2) 0.38763(16) 0.35785(5)
C1 C 0.7026(3) 0.55153(19) 0.36521(7)
H1 H 0.8304 0.5799 0.3422
N2 N 0.6092(2) 0.66562(16) 0.40918(5)
C2 C 0.6793(3) 0.8585(2) 0.42860(7)
H2 H 0.8054 0.8901 0.4033
H3 H 0.7292 0.8828 0.4739
H4 H 0.5500 0.9313 0.4216
C3 C 0.4230(2) 0.57469(18) 0.43110(6)
C4 C 0.2718(2) 0.65646(19) 0.47527(7)
N3 N 0.1439(2) 0.71599(19) 0.51152(7)
C5 C 0.4098(2) 0.39801(19) 0.39796(6)
N4 N 0.2673(2) 0.25630(18) 0.40363(6)
H5 H 0.152(3) 0.283(2) 0.4262(9)
H6 H 0.243(3) 0.165(3) 0.3703(10)
C6 C 0.6575(3) 0.22480(19) 0.31515(7)
H7 H 0.5636 0.1180 0.3226
H8 H 0.8189 0.2056 0.3260
C7 C 0.6318(2) 0.23823(18) 0.24533(6)
C8 C 0.7978(3) 0.1675(2) 0.20516(7)
H9 H 0.9287 0.1197 0.2222
C9 C 0.7712(3) 0.1671(2) 0.13972(7)
H10 H 0.8839 0.1182 0.1122
C10 C 0.5811(3) 0.2377(2) 0.11479(7)
H11 H 0.5632 0.2364 0.0702
C11 C 0.4167(3) 0.3104(2) 0.15484(8)
H12 H 0.2875 0.3602 0.1377
C12 C 0.4408(3) 0.3103(2) 0.22007(7)
H13 H 0.3276 0.3592 0.2474
loop_
_geom_bond_atom_site_label_1
_geom_bond_atom_site_label_2
_geom_bond_site_symmetry_1
_geom_bond_site_symmetry_2
S1 O1 1_555 1_555
O2 S1 1_555 1_555
O3 S1 1_555 1_555
N1 C1 1_555 1_555
C1 H1 1_555 1_555
N2 C1 1_555 1_555
C2 N2 1_555 1_555
H2 C2 1_555 1_555
H3 C2 1_555 1_555
H4 C2 1_555 1_555
C3 N2 1_555 1_555
C4 C3 1_555 1_555
N3 C4 1_555 1_555
C5 N1 1_555 1_555
N4 C5 1_555 1_555
H5 N4 1_555 1_555
H6 N4 1_555 1_555
C6 N1 1_555 1_555
H7 C6 1_555 1_555
H8 C6 1_555 1_555
C7 C6 1_555 1_555
C8 C7 1_555 1_555
H9 C8 1_555 1_555
C9 C8 1_555 1_555
H10 C9 1_555 1_555
C10 C9 1_555 1_555
H11 C10 1_555 1_555
C11 C10 1_555 1_555
H12 C11 1_555 1_555
C12 C7 1_555 1_555
H13 C12 1_555 1_555
C13 S1 1_555 1_555
C14 C13 1_555 1_555
H14 C14 1_555 1_555
C15 C14 1_555 1_555
H15 C15 1_555 1_555
C16 C15 1_555 1_555
C17 C16 1_555 1_555
H16 C17 1_555 1_555
C18 C13 1_555 1_555
H17 C18 1_555 1_555
C19 C16 1_555 1_555
H18 C19 1_555 1_555
H19 C19 1_555 1_555
H20 C19 1_555 1_555
C3 C5 1_555 1_555
C11 C12 1_555 1_555
C17 C18 1_555 1_555

#END
