
#######################################################################
#
#                 Cambridge Crystallographic Data Centre
#                                CCDC 
#
#######################################################################
#
# If this CIF has been generated from an entry in the Cambridge 
# Structural Database, then it will include bibliographic, chemical, 
# crystal, experimental, refinement or atomic coordinate data resulting 
# from the CCDC's data processing and validation procedures.
#
#######################################################################

data_DAYYIO
_chemical_formula_moiety         'C24 H19 N3 O3'
_chemical_name_systematic        
N-benzyl-1-cyano-2-(4-nitrophenyl)-3-phenylcyclopropanecarboxamide
_symmetry_cell_setting           monoclinic
_symmetry_space_group_name_H-M   'P 21/n'
_symmetry_Int_Tables_number      14
_space_group_name_Hall           '-P 2yn'
loop_
_symmetry_equiv_pos_site_id
_symmetry_equiv_pos_as_xyz
1 x,y,z
2 1/2-x,1/2+y,1/2-z
3 -x,-y,-z
4 1/2+x,1/2-y,1/2+z
_cell_length_a                   5.7444(2)
_cell_length_b                   26.3902(8)
_cell_length_c                   13.5940(4)
_cell_angle_alpha                90
_cell_angle_beta                 96.660(3)
_cell_angle_gamma                90
_cell_volume                     2046.89
_exptl_crystal_description       block
_cell_formula_units_Z            4
loop_
_atom_site_label
_atom_site_type_symbol
_atom_site_fract_x
_atom_site_fract_y
_atom_site_fract_z
O1 O 0.8958(3) 0.41283(7) 0.62281(14)
O2 O 1.2019(4) 0.25117(9) 0.96261(13)
C1 C 1.0676(4) 0.35510(8) 0.47160(15)
H1 H 0.9280 0.3461 0.5030
N1 N 1.3617(4) 0.27574(9) 0.93604(15)
C2 C 1.2889(4) 0.34835(8) 0.53814(14)
H2 H 1.4244 0.3398 0.5037
O3 O 1.5379(5) 0.28529(12) 0.99017(16)
N2 N 1.1932(4) 0.46841(8) 0.63885(15)
N3 N 1.4249(4) 0.45720(9) 0.40460(16)
C3 C 1.3218(4) 0.43312(8) 0.45355(16)
C4 C 1.0409(4) 0.34497(8) 0.36287(15)
C5 C 1.1912(4) 0.40254(8) 0.51595(15)
C6 C 1.5031(4) 0.33795(11) 0.70550(18)
H3 H 1.6257 0.3560 0.6832
C7 C 1.3432(4) 0.29415(8) 0.83327(15)
C8 C 1.3034(4) 0.32848(8) 0.64144(14)
C9 C 0.9692(5) 0.32521(11) 0.16030(18)
H4 H 0.9441 0.3182 0.0929
C10 C 1.1446(4) 0.28372(10) 0.77153(16)
H5 H 1.0236 0.2653 0.7943
C11 C 1.1251(4) 0.30070(9) 0.67510(16)
H6 H 0.9909 0.2934 0.6324
C12 C 1.1698(5) 0.31064(12) 0.21473(19)
H7 H 1.2845 0.2940 0.1841
C13 C 1.2070(5) 0.32020(11) 0.31558(18)
H8 H 1.3461 0.3097 0.3518
C14 C 1.1109(6) 0.49458(10) 0.72297(19)
H9 H 0.9424 0.4989 0.7101
H10 H 1.1811 0.5280 0.7285
C15 C 1.0780(4) 0.42874(8) 0.59688(16)
C16 C 0.8371(4) 0.36021(11) 0.30632(19)
H11 H 0.7221 0.3771 0.3363
C17 C 0.8026(5) 0.35059(13) 0.2063(2)
H12 H 0.6652 0.3614 0.1693
C18 C 1.5234(5) 0.32096(12) 0.80206(19)
H13 H 1.6577 0.3277 0.8451
C19 C 1.1670(5) 0.46732(10) 0.82004(18)
C20 C 1.2615(8) 0.41931(18) 1.0025(3)
H14 H 1.2754 0.4110 1.0694
C21 C 1.0249(11) 0.4319(2) 0.8544(4)
H15 H 0.8855 0.4249 0.8148
C22 C 1.4353(16) 0.4453(3) 0.9624(6)
H16 H 1.5859 0.4450 0.9960
C23 C 1.3945(12) 0.4727(3) 0.8713(5)
H17 H 1.5091 0.4927 0.8475
C24 C 1.0654(10) 0.4060(3) 0.9392(4)
H18 H 0.9658 0.3802 0.9549
H19 H 1.321(5) 0.4795(12) 0.620(2)
H20? H 1.2895 0.4010 1.0612
C25? C 1.0085(9) 0.4724(3) 0.8900(3)
H21? H 0.8733 0.4918 0.8762
C26? C 1.0574(11) 0.4479(3) 0.9809(4)
H22? H 0.9524 0.4506 1.0278
C27? C 1.3539(14) 0.4415(3) 0.8497(6)
H23? H 1.4587 0.4383 0.8028
C28? C 1.4205(15) 0.4193(4) 0.9335(6)
H24? H 1.5671 0.4041 0.9465
loop_
_geom_bond_atom_site_label_1
_geom_bond_atom_site_label_2
_geom_bond_site_symmetry_1
_geom_bond_site_symmetry_2
O1 C15 1_555 1_555
O2 N1 1_555 1_555
C1 H1 1_555 1_555
N1 O3 1_555 1_555
C2 C1 1_555 1_555
H2 C2 1_555 1_555
N2 C14 1_555 1_555
N3 C3 1_555 1_555
C3 C5 1_555 1_555
C4 C1 1_555 1_555
C5 C1 1_555 1_555
C6 H3 1_555 1_555
C7 N1 1_555 1_555
C8 C2 1_555 1_555
C9 H4 1_555 1_555
C10 C7 1_555 1_555
H5 C10 1_555 1_555
C11 C8 1_555 1_555
H6 C11 1_555 1_555
C12 C9 1_555 1_555
H7 C12 1_555 1_555
C13 C4 1_555 1_555
H8 C13 1_555 1_555
C14 H9 1_555 1_555
H10 C14 1_555 1_555
C15 N2 1_555 1_555
C16 C4 1_555 1_555
H11 C16 1_555 1_555
C17 C9 1_555 1_555
H12 C17 1_555 1_555
C18 C6 1_555 1_555
H13 C18 1_555 1_555
C19 C14 1_555 1_555
C20 H14 1_555 1_555
C21 C19 1_555 1_555
H15 C21 1_555 1_555
C22 C20 1_555 1_555
H16 C22 1_555 1_555
C23 C19 1_555 1_555
H17 C23 1_555 1_555
C24 C20 1_555 1_555
H18 C24 1_555 1_555
H19 N2 1_555 1_555
C2 C5 1_555 1_555
C5 C15 1_555 1_555
C6 C8 1_555 1_555
C7 C18 1_555 1_555
C10 C11 1_555 1_555
C12 C13 1_555 1_555
C16 C17 1_555 1_555
C21 C24 1_555 1_555
C22 C23 1_555 1_555

#END
