
#######################################################################
#
#                 Cambridge Crystallographic Data Centre
#                                CCDC 
#
#######################################################################
#
# If this CIF has been generated from an entry in the Cambridge 
# Structural Database, then it will include bibliographic, chemical, 
# crystal, experimental, refinement or atomic coordinate data resulting 
# from the CCDC's data processing and validation procedures.
#
#######################################################################

data_DAYZOT
_chemical_formula_moiety         'C12 H8 N4 O1,C3 H4 O4'
_chemical_name_systematic        
'2,5-Di-4-pyridyl-1,3,4-oxadiazole malonic acid'
_symmetry_cell_setting           triclinic
_symmetry_space_group_name_H-M   'P -1'
_symmetry_Int_Tables_number      2
_space_group_name_Hall           '-P 1'
loop_
_symmetry_equiv_pos_site_id
_symmetry_equiv_pos_as_xyz
1 x,y,z
2 -x,-y,-z
_cell_length_a                   5.1232(8)
_cell_length_b                   9.5108(15)
_cell_length_c                   15.566(3)
_cell_angle_alpha                85.297(3)
_cell_angle_beta                 81.159(3)
_cell_angle_gamma                86.289(3)
_cell_volume                     745.883
_exptl_crystal_colour            colorless
_exptl_crystal_description       block
_cell_formula_units_Z            2
_exptl_crystal_recrystallization_method methanol/water
loop_
_atom_site_label
_atom_site_type_symbol
_atom_site_fract_x
_atom_site_fract_y
_atom_site_fract_z
O1 O 0.4419(3) 0.54283(18) 0.69567(10)
N1 N 0.6046(5) 0.2547(3) 0.97090(15)
N2 N 0.1179(5) 0.3963(3) 0.71125(14)
N3 N 0.1126(4) 0.4805(2) 0.63383(14)
N4 N 0.5534(4) 0.8539(2) 0.41470(13)
C1 C 0.4283(7) 0.1927(4) 0.93462(19)
C2 C 0.3294(6) 0.2480(3) 0.86197(19)
C3 C 0.4121(5) 0.3771(3) 0.82397(15)
C4 C 0.5922(6) 0.4439(3) 0.86138(17)
C5 C 0.6812(6) 0.3801(3) 0.93445(19)
C6 C 0.3149(5) 0.4360(3) 0.74492(16)
C7 C 0.3053(5) 0.5632(3) 0.62712(15)
C8 C 0.3902(5) 0.6662(3) 0.55528(15)
C9 C 0.2739(5) 0.6729(3) 0.48004(17)
C10 C 0.3594(6) 0.7676(3) 0.41295(17)
C11 C 0.6649(6) 0.8469(3) 0.48714(17)
C12 C 0.5900(5) 0.7557(3) 0.55847(17)
H1 H 0.661(5) 0.524(3) 0.8369(16)
H2 H 0.813(6) 0.426(3) 0.9592(18)
H3 H 0.800(5) 0.908(3) 0.4823(16)
H4 H 0.282(5) 0.772(3) 0.3603(18)
H5 H 0.211(6) 0.200(3) 0.8397(17)
H6 H 0.669(6) 0.755(3) 0.6091(18)
H7 H 0.148(6) 0.605(3) 0.4772(17)
H8 H 0.370(6) 0.103(3) 0.9591(19)
O2 O 0.0706(6) 0.6759(3) 0.86582(18)
O3 O 0.1280(6) 0.8819(2) 0.91084(14)
O4 O -0.0294(5) 0.9287(3) 0.64474(14)
O5 O 0.2464(5) 0.9954(3) 0.72484(14)
C13 C 0.0343(6) 0.8014(4) 0.86131(18)
C14 C -0.1267(7) 0.8781(5) 0.7974(2)
C15 C 0.0336(5) 0.9359(3) 0.71471(17)
H9 H -0.245(9) 0.826(4) 0.781(3)
H10 H 0.244(15) 0.809(7) 0.938(4)
H11 H -0.200(9) 0.954(5) 0.826(3)
H12 H 0.326(7) 1.037(4) 0.669(2)
loop_
_geom_bond_atom_site_label_1
_geom_bond_atom_site_label_2
_geom_bond_site_symmetry_1
_geom_bond_site_symmetry_2
O1 C6 1_555 1_555
O2 C13 1_555 1_555
O3 C13 1_555 1_555
O4 C15 1_555 1_555
O5 C15 1_555 1_555
N1 C1 1_555 1_555
N2 N3 1_555 1_555
N3 C7 1_555 1_555
N4 C10 1_555 1_555
C1 C2 1_555 1_555
C2 C3 1_555 1_555
C3 C4 1_555 1_555
C4 C5 1_555 1_555
C5 N1 1_555 1_555
C6 N2 1_555 1_555
C7 O1 1_555 1_555
C8 C7 1_555 1_555
C9 C8 1_555 1_555
C10 C9 1_555 1_555
C11 N4 1_555 1_555
C12 C8 1_555 1_555
C13 C14 1_555 1_555
C14 C15 1_555 1_555
H1 C4 1_555 1_555
H2 C5 1_555 1_555
H3 C11 1_555 1_555
H4 C10 1_555 1_555
H5 C2 1_555 1_555
H6 C12 1_555 1_555
H7 C9 1_555 1_555
H8 C1 1_555 1_555
H9 C14 1_555 1_555
H10 O3 1_555 1_555
H11 C14 1_555 1_555
H12 O5 1_555 1_555
C3 C6 1_555 1_555
C11 C12 1_555 1_555

#END
