
#######################################################################
#
#                 Cambridge Crystallographic Data Centre
#                                CCDC 
#
#######################################################################
#
# If this CIF has been generated from an entry in the Cambridge 
# Structural Database, then it will include bibliographic, chemical, 
# crystal, experimental, refinement or atomic coordinate data resulting 
# from the CCDC's data processing and validation procedures.
#
#######################################################################

data_DAYZUZ
_chemical_formula_moiety         'C13 H16 N2 O3'
_chemical_name_systematic        
1-(5-(4-Hydroxy-3-methoxyphenyl)-3-methyl-4,5-dihydropyrazol-1-yl)ethanone
_symmetry_cell_setting           monoclinic
_symmetry_space_group_name_H-M   'P 21/n'
_symmetry_Int_Tables_number      14
_space_group_name_Hall           '-P 2yn'
loop_
_symmetry_equiv_pos_site_id
_symmetry_equiv_pos_as_xyz
1 x,y,z
2 1/2-x,1/2+y,1/2-z
3 -x,-y,-z
4 1/2+x,1/2-y,1/2+z
_cell_length_a                   7.5862(6)
_cell_length_b                   10.5414(9)
_cell_length_c                   15.6452(13)
_cell_angle_alpha                90
_cell_angle_beta                 102.9130(10)
_cell_angle_gamma                90
_cell_volume                     1219.49
_exptl_crystal_colour            colorless
_exptl_crystal_description       plate
_cell_formula_units_Z            4
_exptl_crystal_recrystallization_method acetone
loop_
_atom_site_label
_atom_site_type_symbol
_atom_site_fract_x
_atom_site_fract_y
_atom_site_fract_z
N1 N 0.68420(14) -0.09002(11) 0.14043(8)
O1 O 1.23438(14) 0.37267(11) 0.17968(8)
H1 H 1.3266 0.3619 0.2179
N2 N 0.50968(15) -0.10015(11) 0.08657(8)
O2 O 0.95458(14) -0.17535(11) 0.19561(9)
C1 C 1.10610(17) 0.28676(13) 0.19044(10)
O3 O 0.92813(16) 0.37700(11) 0.06366(8)
C2 C 1.13115(18) 0.20335(13) 0.25949(9)
H2 H 1.2377 0.2057 0.3026
C3 C 0.83850(17) 0.11013(12) 0.20232(9)
C4 C 0.99764(18) 0.11515(13) 0.26529(9)
H3 H 1.0161 0.0589 0.3123
C5 C 0.81057(18) 0.19775(13) 0.13336(9)
H4 H 0.7027 0.1965 0.0911
C6 C 0.94242(19) 0.28625(13) 0.12762(9)
C7 C 0.40911(18) -0.02067(13) 0.11477(9)
C8 C 0.69904(18) 0.00970(13) 0.20889(9)
H5 H 0.7316 -0.0302 0.2669
C9 C 0.81033(19) -0.17982(13) 0.14113(11)
C10 C 0.50222(18) 0.05534(15) 0.19217(10)
H6 H 0.4507 0.0388 0.2425
H7 H 0.4938 0.1454 0.1792
C11 C 0.7698(2) -0.28377(16) 0.07422(13)
H8 H 0.8811 -0.3189 0.0654
H9 H 0.7015 -0.2500 0.0199
H10 H 0.7009 -0.3490 0.0946
C12 C 0.7644(3) 0.38608(17) 0.00018(12)
H11 H 0.7412 0.3074 -0.0312
H12 H 0.7732 0.4532 -0.0401
H13 H 0.6674 0.4039 0.0286
C13 C 0.21349(19) -0.00653(17) 0.07377(11)
H14 H 0.1838 -0.0571 0.0215
H15 H 0.1872 0.0809 0.0592
H16 H 0.1431 -0.0343 0.1142
loop_
_geom_bond_atom_site_label_1
_geom_bond_atom_site_label_2
_geom_bond_site_symmetry_1
_geom_bond_site_symmetry_2
N1 N2 1_555 1_555
O1 H1 1_555 1_555
N2 C7 1_555 1_555
O2 C9 1_555 1_555
C1 O1 1_555 1_555
O3 C6 1_555 1_555
C2 C1 1_555 1_555
H2 C2 1_555 1_555
C3 C4 1_555 1_555
C4 C2 1_555 1_555
H3 C4 1_555 1_555
C5 C3 1_555 1_555
H4 C5 1_555 1_555
C6 C1 1_555 1_555
C7 C10 1_555 1_555
C8 N1 1_555 1_555
H5 C8 1_555 1_555
C9 N1 1_555 1_555
C10 C8 1_555 1_555
H6 C10 1_555 1_555
H7 C10 1_555 1_555
C11 C9 1_555 1_555
H8 C11 1_555 1_555
H9 C11 1_555 1_555
H10 C11 1_555 1_555
C12 O3 1_555 1_555
H11 C12 1_555 1_555
H12 C12 1_555 1_555
H13 C12 1_555 1_555
C13 C7 1_555 1_555
H14 C13 1_555 1_555
H15 C13 1_555 1_555
H16 C13 1_555 1_555
C3 C8 1_555 1_555
C5 C6 1_555 1_555

#END
