
#######################################################################
#
#                 Cambridge Crystallographic Data Centre
#                                CCDC 
#
#######################################################################
#
# If this CIF has been generated from an entry in the Cambridge 
# Structural Database, then it will include bibliographic, chemical, 
# crystal, experimental, refinement or atomic coordinate data resulting 
# from the CCDC's data processing and validation procedures.
#
#######################################################################

data_DAYZIN
_chemical_formula_moiety         'C12 H12 N4 S2'
_chemical_name_systematic        
trans-1,4-bis(Pyrimidin-2-ylsulfanyl)but-2-ene
_symmetry_cell_setting           monoclinic
_symmetry_space_group_name_H-M   'P 21/c'
_symmetry_Int_Tables_number      14
_space_group_name_Hall           '-P 2ybc'
loop_
_symmetry_equiv_pos_site_id
_symmetry_equiv_pos_as_xyz
1 x,y,z
2 -x,1/2+y,1/2-z
3 -x,-y,-z
4 x,1/2-y,1/2+z
_cell_length_a                   7.7711(16)
_cell_length_b                   9.7259(19)
_cell_length_c                   9.825(4)
_cell_angle_alpha                90
_cell_angle_beta                 118.29(2)
_cell_angle_gamma                90
_cell_volume                     653.889
_exptl_crystal_colour            yellow
_exptl_crystal_description       needle
_cell_formula_units_Z            2
_exptl_crystal_recrystallization_method chloroform
loop_
_atom_site_label
_atom_site_type_symbol
_atom_site_fract_x
_atom_site_fract_y
_atom_site_fract_z
S1 S 0.22164(18) 0.66086(10) 0.33876(16)
N1 N 0.2659(5) 0.4033(3) 0.2643(4)
N2 N 0.2459(6) 0.5851(4) 0.0956(5)
C1 C 0.2461(5) 0.5346(4) 0.2219(5)
C2 C 0.2858(7) 0.3156(5) 0.1695(6)
H1 H 0.3015 0.2228 0.1957
C3 C 0.2855(7) 0.3541(5) 0.0355(6)
H2 H 0.2986 0.2907 -0.0300
C4 C 0.0519(5) 0.4873(4) 0.4646(5)
H3 H 0.0086 0.4192 0.3892
C5 C 0.2367(6) 0.5618(4) 0.4993(5)
H4 H 0.2701 0.6228 0.5864
H5 H 0.3414 0.4953 0.5296
C6 C 0.2639(7) 0.4935(5) 0.0028(6)
H6 H 0.2624 0.5244 -0.0873
S1B S -0.22164(18) 0.33914(10) 0.66124(16)
N1B N -0.2659(5) 0.5967(3) 0.7357(4)
N2B N -0.2459(6) 0.4149(4) 0.9044(5)
C1B C -0.2461(5) 0.4654(4) 0.7781(5)
C2B C -0.2858(7) 0.6844(5) 0.8305(6)
H1B H -0.3015 0.7772 0.8043
C3B C -0.2855(7) 0.6459(5) 0.9645(6)
H2B H -0.2986 0.7093 1.0300
C4B C -0.0519(5) 0.5127(4) 0.5354(5)
H3B H -0.0086 0.5808 0.6108
C5B C -0.2367(6) 0.4382(4) 0.5007(5)
H4B H -0.2701 0.3772 0.4136
H5B H -0.3414 0.5047 0.4704
C6B C -0.2639(7) 0.5065(5) 0.9972(6)
H6B H -0.2624 0.4756 1.0873
loop_
_geom_bond_atom_site_label_1
_geom_bond_atom_site_label_2
_geom_bond_site_symmetry_1
_geom_bond_site_symmetry_2
S1 C1 1_555 1_555
N1 C1 1_555 1_555
N2 C1 1_555 1_555
C2 N1 1_555 1_555
H1 C2 1_555 1_555
C3 C2 1_555 1_555
H2 C3 1_555 1_555
C4 H3 1_555 1_555
C5 S1 1_555 1_555
H4 C5 1_555 1_555
H5 C5 1_555 1_555
C6 N2 1_555 1_555
H6 C6 1_555 1_555
S1B C1B 1_555 1_555
N1B C1B 1_555 1_555
N2B C1B 1_555 1_555
C2B N1B 1_555 1_555
H1B C2B 1_555 1_555
C3B C2B 1_555 1_555
H2B C3B 1_555 1_555
C4B C4 1_555 1_555
H3B C4B 1_555 1_555
C5B S1B 1_555 1_555
H4B C5B 1_555 1_555
H5B C5B 1_555 1_555
C6B N2B 1_555 1_555
H6B C6B 1_555 1_555
C3 C6 1_555 1_555
C4 C5 1_555 1_555
C3B C6B 1_555 1_555
C4B C5B 1_555 1_555

#END
