
#######################################################################
#
#                 Cambridge Crystallographic Data Centre
#                                CCDC 
#
#######################################################################
#
# If this CIF has been generated from an entry in the Cambridge 
# Structural Database, then it will include bibliographic, chemical, 
# crystal, experimental, refinement or atomic coordinate data resulting 
# from the CCDC's data processing and validation procedures.
#
#######################################################################

data_DAZBOW
_chemical_formula_moiety         'C33 H37 Br1 N2 O1'
_chemical_name_systematic        
6-Bromo-1'-ethyl-4-(1-ethyl-3,3-dimethyl-2,3-dimethyl-1H-indolin-2-ylidenemethyl)-3',3'-dimethylspiro(3,4-dihydro-2H-1-benzopyran-2,2'(3'H)-1H-indoline)
_symmetry_cell_setting           monoclinic
_symmetry_space_group_name_H-M   'P 21/n'
_symmetry_Int_Tables_number      14
_space_group_name_Hall           '-P 2yn'
loop_
_symmetry_equiv_pos_site_id
_symmetry_equiv_pos_as_xyz
1 x,y,z
2 1/2-x,1/2+y,1/2-z
3 -x,-y,-z
4 1/2+x,1/2-y,1/2+z
_cell_length_a                   12.4808(15)
_cell_length_b                   12.0528(15)
_cell_length_c                   20.146(3)
_cell_angle_alpha                90
_cell_angle_beta                 107.031(4)
_cell_angle_gamma                90
_cell_volume                     2897.63
_exptl_crystal_colour            colorless
_exptl_crystal_description       block
_chemical_melting_point          '456-458 K'
_cell_formula_units_Z            4
_exptl_crystal_recrystallization_method chloroform/ethanol
loop_
_atom_site_label
_atom_site_type_symbol
_atom_site_fract_x
_atom_site_fract_y
_atom_site_fract_z
Br1 Br 0.83197(4) 0.62034(4) 1.132891(19)
O1 O 0.70680(15) 0.49790(16) 0.83010(10)
N1 N 0.4475(2) 0.93270(19) 0.91665(12)
N2 N 0.6294(2) 0.5369(2) 0.71310(12)
C1 C 0.7285(2) 0.5288(2) 0.89797(15)
C2 C 0.6624(2) 0.6031(2) 0.92190(14)
C3 C 0.6950(2) 0.6293(2) 0.99215(15)
H1 H 0.6511 0.6794 1.0096
C4 C 0.7904(3) 0.5833(3) 1.03696(16)
C5 C 0.8561(3) 0.5100(3) 1.01294(17)
H2 H 0.9217 0.4787 1.0439
C6 C 0.8247(2) 0.4833(2) 0.94345(16)
H3 H 0.8692 0.4333 0.9264
C7 C 0.5589(2) 0.6548(2) 0.87177(14)
H4 H 0.4918 0.6109 0.8734
C8 C 0.5705(2) 0.6472(2) 0.79841(15)
H5 H 0.4983 0.6689 0.7649
H6 H 0.6276 0.7017 0.7942
C9 C 0.6029(2) 0.5346(2) 0.77829(14)
C10 C 0.5415(2) 0.7729(2) 0.88818(15)
H7 H 0.5986 0.8229 0.8849
C11 C 0.4570(2) 0.8185(2) 0.90678(14)
C12 C 0.3570(2) 0.7611(2) 0.92228(14)
C13 C 0.2930(2) 0.8603(2) 0.93758(15)
C14 C 0.1933(3) 0.8647(3) 0.95438(16)
H8 H 0.1551 0.7984 0.9592
C15 C 0.1495(3) 0.9681(3) 0.96410(17)
H9 H 0.0814 0.9722 0.9760
C16 C 0.2043(3) 1.0637(3) 0.95657(17)
H10 H 0.1730 1.1333 0.9629
C17 C 0.3053(3) 1.0610(3) 0.93987(17)
H11 H 0.3431 1.1274 0.9347
C18 C 0.3481(2) 0.9575(3) 0.93111(14)
C19 C 0.5146(2) 0.4386(2) 0.76736(14)
C20 C 0.5492(2) 0.3671(2) 0.71496(14)
C21 C 0.5233(2) 0.2592(2) 0.69451(15)
H12 H 0.4801 0.2150 0.7162
C22 C 0.5615(3) 0.2155(3) 0.64142(16)
H13 H 0.5448 0.1407 0.6271
C23 C 0.6231(3) 0.2797(3) 0.60988(16)
H14 H 0.6478 0.2490 0.5735
C24 C 0.6498(3) 0.3888(3) 0.63025(16)
H15 H 0.6922 0.4332 0.6081
C25 C 0.6131(2) 0.4313(2) 0.68364(14)
C26 C 0.5150(3) 1.0155(3) 0.89537(17)
H16 H 0.5940 0.9904 0.9088
H17 H 0.5118 1.0857 0.9202
C27 C 0.4760(3) 1.0366(3) 0.8181(2)
H18 H 0.4821 0.9680 0.7933
H19 H 0.5227 1.0942 0.8063
H20 H 0.3977 1.0612 0.8044
C28 C 0.3948(3) 0.6840(3) 0.98545(17)
H21 H 0.4366 0.6214 0.9744
H22 H 0.3289 0.6563 0.9973
H23 H 0.4429 0.7252 1.0249
C29 C 0.2824(3) 0.6967(3) 0.85981(17)
H24 H 0.2657 0.7436 0.8183
H25 H 0.2124 0.6757 0.8692
H26 H 0.3217 0.6297 0.8522
C30 C 0.7137(3) 0.6120(3) 0.70176(19)
H27 H 0.7723 0.5681 0.6895
H28 H 0.7498 0.6523 0.7454
C31 C 0.6646(4) 0.6950(4) 0.6446(2)
H29 H 0.6303 0.6555 0.6011
H30 H 0.7241 0.7438 0.6390
H31 H 0.6075 0.7395 0.6569
C32 C 0.5168(3) 0.3747(3) 0.83336(16)
H32 H 0.4621 0.3141 0.8217
H33 H 0.4978 0.4250 0.8664
H34 H 0.5919 0.3441 0.8542
C33 C 0.3960(2) 0.4828(3) 0.73230(17)
H35 H 0.3957 0.5246 0.6905
H36 H 0.3729 0.5316 0.7646
H37 H 0.3436 0.4204 0.7195
loop_
_geom_bond_atom_site_label_1
_geom_bond_atom_site_label_2
_geom_bond_site_symmetry_1
_geom_bond_site_symmetry_2
Br1 C4 1_555 1_555
O1 C1 1_555 1_555
N1 C11 1_555 1_555
N2 C9 1_555 1_555
C1 C2 1_555 1_555
C2 C3 1_555 1_555
C3 H1 1_555 1_555
C4 C3 1_555 1_555
C5 C4 1_555 1_555
H2 C5 1_555 1_555
C6 C1 1_555 1_555
H3 C6 1_555 1_555
C7 C2 1_555 1_555
H4 C7 1_555 1_555
C8 C7 1_555 1_555
H5 C8 1_555 1_555
H6 C8 1_555 1_555
C9 O1 1_555 1_555
C10 C7 1_555 1_555
H7 C10 1_555 1_555
C11 C10 1_555 1_555
C12 C11 1_555 1_555
C13 C12 1_555 1_555
C14 C13 1_555 1_555
H8 C14 1_555 1_555
C15 C14 1_555 1_555
H9 C15 1_555 1_555
C16 C15 1_555 1_555
H10 C16 1_555 1_555
C17 C16 1_555 1_555
H11 C17 1_555 1_555
C18 N1 1_555 1_555
C19 C9 1_555 1_555
C20 C19 1_555 1_555
C21 C20 1_555 1_555
H12 C21 1_555 1_555
C22 C21 1_555 1_555
H13 C22 1_555 1_555
C23 C22 1_555 1_555
H14 C23 1_555 1_555
C24 C23 1_555 1_555
H15 C24 1_555 1_555
C25 N2 1_555 1_555
C26 N1 1_555 1_555
H16 C26 1_555 1_555
H17 C26 1_555 1_555
C27 C26 1_555 1_555
H18 C27 1_555 1_555
H19 C27 1_555 1_555
H20 C27 1_555 1_555
C28 C12 1_555 1_555
H21 C28 1_555 1_555
H22 C28 1_555 1_555
H23 C28 1_555 1_555
C29 C12 1_555 1_555
H24 C29 1_555 1_555
H25 C29 1_555 1_555
H26 C29 1_555 1_555
C30 N2 1_555 1_555
H27 C30 1_555 1_555
H28 C30 1_555 1_555
C31 C30 1_555 1_555
H29 C31 1_555 1_555
H30 C31 1_555 1_555
H31 C31 1_555 1_555
C32 C19 1_555 1_555
H32 C32 1_555 1_555
H33 C32 1_555 1_555
H34 C32 1_555 1_555
C33 C19 1_555 1_555
H35 C33 1_555 1_555
H36 C33 1_555 1_555
H37 C33 1_555 1_555
C5 C6 1_555 1_555
C8 C9 1_555 1_555
C13 C18 1_555 1_555
C17 C18 1_555 1_555
C20 C25 1_555 1_555
C24 C25 1_555 1_555

#END
