
#######################################################################
#
#                 Cambridge Crystallographic Data Centre
#                                CCDC 
#
#######################################################################
#
# If this CIF has been generated from an entry in the Cambridge 
# Structural Database, then it will include bibliographic, chemical, 
# crystal, experimental, refinement or atomic coordinate data resulting 
# from the CCDC's data processing and validation procedures.
#
#######################################################################

data_DAZDIU
_chemical_formula_moiety         'C18 H12 N4 O3 S1,2(C2 H6 O1 S1)'
_chemical_name_systematic        
'1-(2-oxo-2H-chromen-3-yl)-3-(5-phenyl-1,3,4-thiadiazol-2-yl)urea dimethyl sulfoxide solvate'
_symmetry_cell_setting           monoclinic
_symmetry_space_group_name_H-M   'P 21/m'
_symmetry_Int_Tables_number      11
_space_group_name_Hall           '-P 2yb'
loop_
_symmetry_equiv_pos_site_id
_symmetry_equiv_pos_as_xyz
1 x,y,z
2 -x,1/2+y,-z
3 -x,-y,-z
4 x,1/2-y,z
_cell_length_a                   13.3519(9)
_cell_length_b                   6.8053(6)
_cell_length_c                   15.1405(9)
_cell_angle_alpha                90
_cell_angle_beta                 113.397(7)
_cell_angle_gamma                90
_cell_volume                     1262.6
_exptl_crystal_colour            colorless
_exptl_crystal_description       needle
_cell_formula_units_Z            2
loop_
_atom_site_label
_atom_site_type_symbol
_atom_site_fract_x
_atom_site_fract_y
_atom_site_fract_z
S1 S -0.13713(7) 0.2500 0.41158(5)
O1 O 0.30335(19) 0.2500 0.86831(15)
O2 O 0.44917(18) 0.2500 0.83498(17)
O3 O 0.08382(16) 0.2500 0.52247(14)
N1 N 0.16082(19) 0.2500 0.68755(17)
H1 H 0.1449 0.2500 0.7373
N2 N -0.02345(19) 0.2500 0.60710(16)
H2 H -0.0240 0.2500 0.6637
N3 N -0.2120(2) 0.2500 0.54208(19)
N4 N -0.3024(2) 0.2500 0.4552(2)
C1 C 0.3399(3) 0.2500 0.8073(2)
C2 C 0.4968(3) 0.2500 0.7686(3)
C3 C 0.6095(3) 0.2500 0.8069(4)
H3 H 0.6499 0.2500 0.8730
C4 C 0.6594(4) 0.2500 0.7428(5)
H4 H 0.7352 0.2500 0.7658
C5 C 0.5991(5) 0.2500 0.6464(5)
H5 H 0.6348 0.2500 0.6046
C6 C 0.4865(4) 0.2500 0.6086(4)
H6 H 0.4468 0.2500 0.5424
C7 C 0.4331(3) 0.2500 0.6715(3)
C8 C 0.3163(3) 0.2500 0.6394(2)
H7 H 0.2722 0.2500 0.5740
C9 C 0.2713(2) 0.2500 0.7041(2)
C10 C 0.0759(2) 0.2500 0.5998(2)
C11 C -0.1220(2) 0.2500 0.5294(2)
C12 C -0.2764(3) 0.2500 0.3818(2)
C13 C -0.3573(3) 0.2500 0.2824(2)
C14 C -0.4671(3) 0.2500 0.2633(3)
H8 H -0.4899 0.2500 0.3139
C15 C -0.5439(4) 0.2500 0.1691(4)
H9 H -0.6178 0.2500 0.1571
C16 C -0.5124(5) 0.2500 0.0943(4)
H10 H -0.5645 0.2500 0.0314
C17 C -0.4037(5) 0.2500 0.1114(3)
H11 H -0.3821 0.2500 0.0601
C18 C -0.3253(4) 0.2500 0.2060(3)
H12 H -0.2515 0.2500 0.2176
S2 S 0.04309(8) 0.2500 0.90602(6)
O4 O 0.0366(2) 0.2500 0.80463(16)
C19 C 0.1320(3) 0.0542(5) 0.9653(2)
H13 H 0.0956 -0.0688 0.9428
H14 H 0.1522 0.0648 1.0334
H15 H 0.1963 0.0605 0.9517
C19C C 0.1320(3) 0.4458(5) 0.9653(2)
H13C H 0.0956 0.5688 0.9428
H14C H 0.1522 0.4352 1.0334
H15C H 0.1963 0.4395 0.9517
S3? S 0.13993(13) 0.3520(3) 0.25191(11)
O5? O 0.1121(3) 0.2500 0.1564(2)
C20? C 0.2531(6) 0.2500 0.3332(5)
H16? H 0.2633 0.2500 0.4003
H17? H 0.3190 0.2500 0.3208
C21? C 0.0432(5) 0.2500 0.2919(4)
H18? H -0.0333 0.2500 0.2487
H19? H 0.0591 0.2500 0.3603
loop_
_geom_bond_atom_site_label_1
_geom_bond_atom_site_label_2
_geom_bond_site_symmetry_1
_geom_bond_site_symmetry_2
S1 C11 1_555 1_555
O1 C1 1_555 1_555
O2 C1 1_555 1_555
O3 C10 1_555 1_555
N1 H1 1_555 1_555
N2 H2 1_555 1_555
N3 N4 1_555 1_555
N4 C12 1_555 1_555
C1 C9 1_555 1_555
C2 O2 1_555 1_555
C3 C2 1_555 1_555
H3 C3 1_555 1_555
C4 C3 1_555 1_555
H4 C4 1_555 1_555
C5 C4 1_555 1_555
H5 C5 1_555 1_555
C6 C5 1_555 1_555
H6 C6 1_555 1_555
C7 C2 1_555 1_555
C8 C7 1_555 1_555
H7 C8 1_555 1_555
C9 N1 1_555 1_555
C10 N1 1_555 1_555
C11 N2 1_555 1_555
C12 S1 1_555 1_555
C13 C12 1_555 1_555
C14 C13 1_555 1_555
H8 C14 1_555 1_555
C15 C14 1_555 1_555
H9 C15 1_555 1_555
C16 C15 1_555 1_555
H10 C16 1_555 1_555
C17 C16 1_555 1_555
H11 C17 1_555 1_555
C18 C13 1_555 1_555
H12 C18 1_555 1_555
S2 O4 1_555 1_555
C19 S2 1_555 1_555
H13 C19 1_555 1_555
H14 C19 1_555 1_555
H15 C19 1_555 1_555
C19C S2 1_555 1_555
H13C C19C 1_555 1_555
H14C C19C 1_555 1_555
H15C C19C 1_555 1_555
N2 C10 1_555 1_555
N3 C11 1_555 1_555
C6 C7 1_555 1_555
C8 C9 1_555 1_555
C17 C18 1_555 1_555

#END
