
#######################################################################
#
#                 Cambridge Crystallographic Data Centre
#                                CCDC 
#
#######################################################################
#
# If this CIF has been generated from an entry in the Cambridge 
# Structural Database, then it will include bibliographic, chemical, 
# crystal, experimental, refinement or atomic coordinate data resulting 
# from the CCDC's data processing and validation procedures.
#
#######################################################################

data_DAZMUM
_chemical_formula_moiety         'C44 H40 O6 S1'
_chemical_name_systematic        
34,35,36,37,38,39-Hexamethoxy-28-thiaheptacyclo(28.3.1.1^2,6^.1^7,11^.1^12,16^.1^17,21^.1^22,26^)nonatriaconta-1(34),2,4,6(39),7,9,11(38),12,14,16(37),17,19,21(36),22,24,26(35),30,32-octadecaene
_symmetry_cell_setting           monoclinic
_symmetry_space_group_name_H-M   'C c'
_symmetry_Int_Tables_number      9
_space_group_name_Hall           'C -2yc'
loop_
_symmetry_equiv_pos_site_id
_symmetry_equiv_pos_as_xyz
1 x,y,z
2 1/2+x,1/2+y,z
3 x,-y,1/2+z
4 1/2+x,1/2-y,1/2+z
_cell_length_a                   12.693(4)
_cell_length_b                   18.382(9)
_cell_length_c                   16.009(7)
_cell_angle_alpha                90
_cell_angle_beta                 99.50(3)
_cell_angle_gamma                90
_cell_volume                     3684.04
_exptl_crystal_colour            colorless
_cell_formula_units_Z            4
loop_
_atom_site_label
_atom_site_type_symbol
_atom_site_fract_x
_atom_site_fract_y
_atom_site_fract_z
S1 S 0.65500 -0.09898(13) -0.11900
C1 C 0.7855(7) -0.0684(6) -0.1398(6)
C2 C 0.8793(6) -0.0927(5) -0.0718(5)
C3 C 0.9751(6) -0.0519(4) -0.0653(5)
O1 O 0.9802(5) 0.0032(4) -0.1208(4)
C4 C 0.9683(10) 0.0729(7) -0.0890(8)
C5 C 1.0633(6) -0.0711(4) -0.0048(5)
C6 C 1.0558(7) -0.1285(5) 0.0487(7)
C7 C 0.9625(8) -0.1678(5) 0.0416(8)
C8 C 0.8755(77) -0.1506(5) -0.0191(7)
C9 C 1.1654(6) -0.0286(4) 0.0045(5)
C10 C 1.1914(6) 0.0189(5) 0.0677(5)
O2 O 1.1209(5) 0.0283(6) 0.1268(4)
C11 C 1.1561(10) -0.0002(7) 0.2080(8)
C12 C 1.28296 0.0650(5) 0.0768(5)
C13 C 1.3519(7) 0.0534(6) 0.0169(6)
C14 C 1.3286(7) 0.0042(5) -0.0456(7)
C15 C 1.2327(7) -0.0370(6) -0.0554(6)
C16 C 1.2989(6) 0.1251(5) 0.1383(5)
C17 C 1.2244(6) 0.1805(4) 0.1316(5)
O3 O 1.1387(4) 0.1788(3) 0.0659(4)
C18 C 1.1489(10) 0.2212(7) -0.0032(8)
C19 C 1.2313(6) 0.2363(4) 0.1906(5)
C20 C 1.3198(6) 0.2387(5) 0.2547(5)
C21 C 1.3970(6) 0.1840(6) 0.2610(6)
C22 C 1.3871(6) 0.1284(5) 0.2041(6)
C23 C 1.1441(6) 0.2924(5) 0.1882(5)
C24 C 1.0392(6) 0.2649(4) 0.1888(5)
O4 O 1.0220(4) 0.1941(3) 0.1997(4)
C25 C 1.0293(8) 0.1713(5) 0.2836(7)
C26 C 0.9534(6) 0.3161(4) 0.1810(5)
C27 C 0.9715(7) 0.3872(4) 0.1751(5)
C28 C 1.0758(7) 0.4150(5) 0.1787(6)
C29 C 1.1592(7) 0.3660(4) 0.1826(5)
C30 C 0.8434(6) 0.2828(4) 0.1773(5)
C31 C 0.8042(6) 0.2361(4) 0.1133(5)
O5 O 0.8585(4) 0.2230(3) 0.0460(4)
C32 C 0.8585(10) 0.2831(7) -0.0108(7)
C33 C 0.7092(6) 0.1972(4) 0.1125(5)
C34 C 0.6560(6) 0.2082(5) 0.1817(5)
C35 C 0.6913(6) 0.2563(5) 0.2440(6)
C36 C 0.7857(6) 0.2948(5) 0.2441(5)
C37 C 0.6677(6) 0.1478(4) 0.0392(5)
C38 C 0.6812(5) 0.0751(4) 0.0422(5)
O6 O 0.7331(4) 0.0417(3) 0.1145(4)
C39 C 0.8487(7) 0.0426(6) 0.1247(6)
C40 C 0.6393(6) 0.0297(4) -0.0266(5)
C41 C 0.5846(6) 0.0646(5) -0.0985(5)
C42 C 0.5711(7) 0.1374(6) -0.1025(6)
C43 C 0.6103(7) 0.1813(5) -0.0340(6)
C44 C 0.6485(7) -0.0503(5) -0.0213(6)
H1 H 0.785 -0.014 -0.142
H2 H 0.797 -0.089 -0.196
H3 H 0.975 0.115 -0.128
H4 H 1.016 0.082 -0.034
H5 H 0.893 0.068 -0.080
H6 H 1.118 -0.142 0.093
H7 H 0.958 -0.209 0.081
H8 H 0.809 -0.181 -0.024
H9 H 1.101 0.006 0.245
H10 H 1.223 0.026 0.233
H11 H 1.172 -0.053 0.203
H12 H 1.419 0.082 0.021
H13 H 1.380 -0.004 -0.086
H14 H 1.214 -0.071 -0.104
H15 H 1.079 0.216 -0.043
H16 H 1.207 0.197 -0.028
H17 H 1.165 0.274 0.006
H18 H 1.328 0.280 0.296
H19 H 1.460 0.186 0.308
H20 H 1.443 0.090 0.209
H21 H 1.011 0.119 0.286
H22 H 0.986 0.200 0.319
H23 H 1.107 0.178 0.307
H24 H 0.910 0.422 0.168
H25 H 1.089 0.469 0.179
H26 H 1.233 0.385 0.181
H27 H 0.901 0.259 -0.051
H28 H 0.898 0.327 0.015
H29 H 0.788 0.299 -0.043
H30 H 0.590 0.180 0.185
H31 H 0.649 0.264 0.291
H32 H 0.812 0.330 0.290
H33 H 0.876 0.021 0.181
H34 H 0.881 0.091 0.120
H35 H 0.868 0.010 0.079
H36 H 0.554 0.034 -0.149
H37 H 0.532 0.160 -0.156
H38 H 0.598 0.235 -0.036
H39 H 0.715 -0.062 0.019
H40 H 0.585 -0.069 0.002
loop_
_geom_bond_atom_site_label_1
_geom_bond_atom_site_label_2
_geom_bond_site_symmetry_1
_geom_bond_site_symmetry_2
S1 C1 1_555 1_555
C1 C2 1_555 1_555
C2 C3 1_555 1_555
C3 O1 1_555 1_555
O1 C4 1_555 1_555
C4 H3 1_555 1_555
C5 C3 1_555 1_555
C6 C5 1_555 1_555
C7 C6 1_555 1_555
C8 C2 1_555 1_555
C9 C5 1_555 1_555
C10 C9 1_555 1_555
O2 C10 1_555 1_555
C11 O2 1_555 1_555
C12 C10 1_555 1_555
C13 C12 1_555 1_555
C14 C13 1_555 1_555
C15 C9 1_555 1_555
C16 C12 1_555 1_555
C17 C16 1_555 1_555
O3 C17 1_555 1_555
C18 O3 1_555 1_555
C19 C17 1_555 1_555
C20 C19 1_555 1_555
C21 C20 1_555 1_555
C22 C16 1_555 1_555
C23 C19 1_555 1_555
C24 C23 1_555 1_555
O4 C24 1_555 1_555
C25 O4 1_555 1_555
C26 C24 1_555 1_555
C27 C26 1_555 1_555
C28 C27 1_555 1_555
C29 C23 1_555 1_555
C30 C26 1_555 1_555
C31 C30 1_555 1_555
O5 C31 1_555 1_555
C32 O5 1_555 1_555
C33 C31 1_555 1_555
C34 C33 1_555 1_555
C35 C34 1_555 1_555
C36 C30 1_555 1_555
C37 C33 1_555 1_555
C38 C37 1_555 1_555
O6 C38 1_555 1_555
C39 O6 1_555 1_555
C40 C38 1_555 1_555
C41 C40 1_555 1_555
C42 C41 1_555 1_555
C43 C37 1_555 1_555
C44 S1 1_555 1_555
H1 C1 1_555 1_555
H2 C1 1_555 1_555
H4 C4 1_555 1_555
H5 C4 1_555 1_555
H6 C6 1_555 1_555
H7 C7 1_555 1_555
H8 C8 1_555 1_555
H9 C11 1_555 1_555
H10 C11 1_555 1_555
H11 C11 1_555 1_555
H12 C13 1_555 1_555
H13 C14 1_555 1_555
H14 C15 1_555 1_555
H15 C18 1_555 1_555
H16 C18 1_555 1_555
H17 C18 1_555 1_555
H18 C20 1_555 1_555
H19 C21 1_555 1_555
H20 C22 1_555 1_555
H21 C25 1_555 1_555
H22 C25 1_555 1_555
H23 C25 1_555 1_555
H24 C27 1_555 1_555
H25 C28 1_555 1_555
H26 C29 1_555 1_555
H27 C32 1_555 1_555
H28 C32 1_555 1_555
H29 C32 1_555 1_555
H30 C34 1_555 1_555
H31 C35 1_555 1_555
H32 C36 1_555 1_555
H33 C39 1_555 1_555
H34 C39 1_555 1_555
H35 C39 1_555 1_555
H36 C41 1_555 1_555
H37 C42 1_555 1_555
H38 C43 1_555 1_555
H39 C44 1_555 1_555
H40 C44 1_555 1_555
C7 C8 1_555 1_555
C14 C15 1_555 1_555
C21 C22 1_555 1_555
C28 C29 1_555 1_555
C35 C36 1_555 1_555
C40 C44 1_555 1_555
C42 C43 1_555 1_555

#END
