
#######################################################################
#
#                 Cambridge Crystallographic Data Centre
#                                CCDC 
#
#######################################################################
#
# If this CIF has been generated from an entry in the Cambridge 
# Structural Database, then it will include bibliographic, chemical, 
# crystal, experimental, refinement or atomic coordinate data resulting 
# from the CCDC's data processing and validation procedures.
#
#######################################################################

data_DAZMAV
_chemical_formula_moiety         'C22 H18 O2'
_chemical_name_systematic        
4'-phenyl-3',4'-dihydro-3H-spiro[2-benzofuran-1,2'-[1]benzopyran]
_symmetry_cell_setting           triclinic
_symmetry_space_group_name_H-M   'P -1'
_symmetry_Int_Tables_number      2
_space_group_name_Hall           '-P 1'
loop_
_symmetry_equiv_pos_site_id
_symmetry_equiv_pos_as_xyz
1 x,y,z
2 -x,-y,-z
_cell_length_a                   7.689(3)
_cell_length_b                   10.820(4)
_cell_length_c                   11.135(5)
_cell_angle_alpha                100.707(3)
_cell_angle_beta                 101.208(3)
_cell_angle_gamma                106.471(3)
_cell_volume                     842.359
_cell_formula_units_Z            2
loop_
_atom_site_label
_atom_site_type_symbol
_atom_site_fract_x
_atom_site_fract_y
_atom_site_fract_z
O1 O 0.57950(13) 0.73466(9) 0.00820(8)
O2 O 0.36728(14) 0.85048(9) 0.01970(8)
C1 C 0.51397(18) 0.78225(13) 0.38312(12)
C2 C 0.4129(2) 0.83099(14) 0.45880(13)
H1 H 0.3483 0.8861 0.4324
C3 C 0.4062(2) 0.79957(17) 0.57260(15)
H2 H 0.3377 0.8337 0.6221
C4 C 0.4998(2) 0.71849(18) 0.61297(15)
H3 H 0.4964 0.6980 0.6902
C5 C 0.5991(2) 0.66741(17) 0.53846(16)
H4 H 0.6618 0.6113 0.5650
C6 C 0.6065(2) 0.69901(15) 0.42411(14)
H5 H 0.6742 0.6640 0.3745
C7 C 0.8642(2) 0.94496(14) 0.32288(13)
H6 H 0.8532 0.9754 0.4039
C8 C 1.0375(2) 0.98709(15) 0.29829(15)
H7 H 1.1410 1.0460 0.3617
C9 C 1.0562(2) 0.94111(16) 0.17884(15)
H8 H 1.1731 0.9675 0.1620
C10 C 0.9011(2) 0.85598(15) 0.08448(14)
H9 H 0.9135 0.8248 0.0040
C11 C 0.72677(18) 0.81684(13) 0.10973(12)
C12 C 0.70519(18) 0.85832(13) 0.23028(12)
C13 C 0.51350(18) 0.81551(13) 0.25657(12)
H10 H 0.4656 0.8904 0.2569
C14 C 0.37796(19) 0.69851(14) 0.14789(12)
H11 H 0.4070 0.6179 0.1538
H12 H 0.2501 0.6845 0.1542
C15 C 0.39437(18) 0.72677(13) 0.02244(12)
C16 C 0.25684(18) 0.63074(13) -0.09510(12)
C17 C 0.18551(19) 0.70170(14) -0.17098(13)
C18 C 0.2748(2) 0.84726(14) -0.10655(13)
H13 H 0.3646 0.8907 -0.1487
H14 H 0.1808 0.8909 -0.1056
C19 C 0.0554(2) 0.63597(17) -0.28575(14)
H15 H 0.0077 0.6833 -0.3377
C20 C -0.0026(2) 0.49813(17) -0.32201(15)
H16 H -0.0915 0.4524 -0.3987
C21 C 0.0695(2) 0.42759(16) -0.24609(15)
H17 H 0.0293 0.3350 -0.2724
C22 C 0.2007(2) 0.49294(14) -0.13145(14)
H18 H 0.2499 0.4457 -0.0801
loop_
_geom_bond_atom_site_label_1
_geom_bond_atom_site_label_2
_geom_bond_site_symmetry_1
_geom_bond_site_symmetry_2
O1 C11 1_555 1_555
O2 C15 1_555 1_555
C1 C2 1_555 1_555
C2 H1 1_555 1_555
C3 C2 1_555 1_555
H2 C3 1_555 1_555
C4 C3 1_555 1_555
H3 C4 1_555 1_555
C5 C4 1_555 1_555
H4 C5 1_555 1_555
C6 C1 1_555 1_555
H5 C6 1_555 1_555
C7 H6 1_555 1_555
C8 C7 1_555 1_555
H7 C8 1_555 1_555
C9 C8 1_555 1_555
H8 C9 1_555 1_555
C10 C9 1_555 1_555
H9 C10 1_555 1_555
C11 C10 1_555 1_555
C12 C7 1_555 1_555
C13 C1 1_555 1_555
H10 C13 1_555 1_555
C14 C13 1_555 1_555
H11 C14 1_555 1_555
H12 C14 1_555 1_555
C15 O1 1_555 1_555
C16 C15 1_555 1_555
C17 C16 1_555 1_555
C18 O2 1_555 1_555
H13 C18 1_555 1_555
H14 C18 1_555 1_555
C19 C17 1_555 1_555
H15 C19 1_555 1_555
C20 C19 1_555 1_555
H16 C20 1_555 1_555
C21 C20 1_555 1_555
H17 C21 1_555 1_555
C22 C16 1_555 1_555
H18 C22 1_555 1_555
C5 C6 1_555 1_555
C11 C12 1_555 1_555
C12 C13 1_555 1_555
C14 C15 1_555 1_555
C17 C18 1_555 1_555
C21 C22 1_555 1_555

#END
