
#######################################################################
#
#                 Cambridge Crystallographic Data Centre
#                                CCDC 
#
#######################################################################
#
# If this CIF has been generated from an entry in the Cambridge 
# Structural Database, then it will include bibliographic, chemical, 
# crystal, experimental, refinement or atomic coordinate data resulting 
# from the CCDC's data processing and validation procedures.
#
#######################################################################

data_DAZPUS02
_chemical_formula_moiety         'C43 H64'
_chemical_name_systematic        tris(3,5-di-t-butylphenyl)methane
_symmetry_cell_setting           cubic
_symmetry_space_group_name_H-M   'P a -3'
_symmetry_Int_Tables_number      205
_space_group_name_Hall           '-P 2ac 2ab 3'
loop_
_symmetry_equiv_pos_site_id
_symmetry_equiv_pos_as_xyz
1 x,y,z
2 1/2-x,-y,1/2+z
3 -x,1/2+y,1/2-z
4 1/2+x,1/2-y,-z
5 z,x,y
6 1/2+z,1/2-x,-y
7 1/2-z,-x,1/2+y
8 -z,1/2+x,1/2-y
9 y,z,x
10 -y,1/2+z,1/2-x
11 1/2+y,1/2-z,-x
12 1/2-y,-z,1/2+x
13 -x,-y,-z
14 1/2+x,y,1/2-z
15 x,1/2-y,1/2+z
16 1/2-x,1/2+y,z
17 -z,-x,-y
18 1/2-z,1/2+x,y
19 1/2+z,x,1/2-y
20 z,1/2-x,1/2+y
21 -y,-z,-x
22 y,1/2-z,1/2+x
23 1/2-y,1/2+z,x
24 1/2+y,z,1/2-x
_cell_length_a                   20.0336(3)
_cell_length_b                   20.0336(3)
_cell_length_c                   20.0336(3)
_cell_angle_alpha                90
_cell_angle_beta                 90
_cell_angle_gamma                90
_cell_volume                     8040.39
_exptl_crystal_colour            colorless
_exptl_crystal_description       blocks
_cell_formula_units_Z            8
loop_
_atom_site_label
_atom_site_type_symbol
_atom_site_fract_x
_atom_site_fract_y
_atom_site_fract_z
C1 C 0.55725(7) 1.05493(6) 0.31927(6)
C2 C 0.55819(6) 1.01946(6) 0.37861(6)
C3 C 0.55441(6) 1.05441(6) 0.44559(6)
C4 C 0.56425(7) 0.95018(6) 0.37706(7)
C5 C 0.56890(7) 0.95315(7) 0.25764(7)
C6 C 0.56942(8) 0.91592(7) 0.31699(7)
C7 C 0.56268(7) 1.02239(7) 0.25786(7)
C8 C 0.57820(11) 0.84018(8) 0.31622(9)
C9 C 0.56078(9) 1.06461(8) 0.19428(8)
C10 C 0.56903(17) 1.02354(11) 0.13126(10)
C11 C 0.49436(15) 1.10192(14) 0.19131(11)
C12 C 0.61754(16) 1.11600(14) 0.19621(12)
C13 C 0.5448(2) 0.80673(11) 0.37556(16)
C14 C 0.5461(4) 0.80866(13) 0.25523(17)
C15 C 0.6517(2) 0.82371(16) 0.3166(3)
H1 H 0.55149(19) 1.10804(15) 0.32094(16)
H2 H 0.52298(14) 1.02298(14) 0.47702(14)
H3 H 0.5651(2) 0.92375(17) 0.42395(17)
H4 H 0.5730(2) 0.92741(18) 0.21055(17)
H5 H 0.5510(5) 0.7533(2) 0.3715(3)
H6 H 0.5286(5) 0.9874(3) 0.1260(3)
H7 H 0.6163(4) 1.1464(3) 0.1512(3)
H8 H 0.5672(4) 1.0568(3) 0.0883(2)
H9 H 0.5666(7) 0.8214(3) 0.4214(3)
H10 H 0.4920(4) 1.1322(3) 0.1464(3)
H11 H 0.6147(4) 0.9976(3) 0.1304(3)
H12 H 0.4543(3) 1.0674(4) 0.1904(4)
H13 H 0.4948(6) 0.8186(4) 0.3798(6)
H14 H 0.6598(5) 0.7706(4) 0.3189(6)
H15 H 0.6137(4) 1.1480(3) 0.2376(3)
H16 H 0.6646(4) 1.0919(5) 0.1985(4)
H17 H 0.4879(4) 1.1340(3) 0.2333(3)
H18 H 0.6762(5) 0.8455(6) 0.3620(9)
H19 H 0.6737(5) 0.8418(5) 0.2730(7)
H20 H 0.5539(6) 0.7550(2) 0.2564(3)
H21 H 0.5669(8) 0.8243(3) 0.2100(3)
H22 H 0.4955(6) 0.8181(5) 0.2528(6)
C1G C 0.68073(6) 1.05725(7) 0.44507(6)
C2G C 0.62139(6) 1.05819(6) 0.48054(6)
C4G C 0.62294(7) 1.06425(7) 0.54982(6)
C5G C 0.74236(7) 1.06890(7) 0.54685(7)
C6G C 0.68301(7) 1.06942(8) 0.58408(7)
C7G C 0.74214(7) 1.06268(7) 0.47761(7)
C8G C 0.68378(9) 1.07820(11) 0.65982(8)
C9G C 0.80572(8) 1.06078(9) 0.43539(8)
C10G C 0.86874(10) 1.06903(17) 0.47646(11)
C11G C 0.80869(11) 0.99436(15) 0.39808(14)
C12G C 0.80379(12) 1.11754(16) 0.38400(14)
C13G C 0.62444(16) 1.0448(2) 0.69327(11)
C14G C 0.74477(17) 1.0461(4) 0.69134(13)
C15G C 0.6834(3) 1.1517(2) 0.67629(16)
H1G H 0.67906(16) 1.05149(19) 0.39196(15)
H3G H 0.57605(17) 1.0651(2) 0.57625(17)
H4G H 0.78945(17) 1.0730(2) 0.57259(18)
H5G H 0.6285(3) 1.0510(5) 0.7467(2)
H6G H 0.8740(3) 1.0286(5) 0.5126(3)
H7G H 0.8488(3) 1.1163(4) 0.3536(3)
H8G H 0.9117(2) 1.0672(4) 0.4432(3)
H9G H 0.5786(3) 1.0666(7) 0.6786(3)
H10G H 0.8536(3) 0.9920(4) 0.3678(3)
H11G H 0.8696(3) 1.1147(4) 0.5024(3)
H12G H 0.8096(4) 0.9543(3) 0.4326(4)
H13G H 0.6202(6) 0.9948(6) 0.6814(4)
H14G H 0.6811(6) 1.1598(5) 0.7294(4)
H15G H 0.7624(3) 1.1137(4) 0.3520(3)
H16G H 0.8015(4) 1.1646(4) 0.4081(5)
H17G H 0.7667(3) 0.9879(4) 0.3660(3)
H18G H 0.6380(9) 1.1762(5) 0.6545(6)
H19G H 0.7270(7) 1.1737(5) 0.6582(5)
H20G H 0.7436(3) 1.0539(6) 0.7450(2)
H21G H 0.7900(3) 1.0669(8) 0.6757(3)
H22G H 0.7472(6) 0.9955(6) 0.6819(5)
C1J C 0.55493(6) 1.18073(6) 0.44275(7)
C2J C 0.51946(6) 1.12139(6) 0.44181(6)
C4J C 0.45018(6) 1.12294(7) 0.43575(7)
C5J C 0.45315(7) 1.24236(7) 0.43110(7)
C6J C 0.41592(7) 1.18301(7) 0.43058(8)
C7J C 0.52239(7) 1.24214(7) 0.43732(7)
C8J C 0.34018(8) 1.18378(9) 0.42180(11)
C9J C 0.56461(8) 1.30572(8) 0.43922(9)
C10J C 0.52354(11) 1.36874(10) 0.43097(17)
C11J C 0.60192(14) 1.30869(11) 0.50564(15)
C12J C 0.61600(14) 1.30379(12) 0.38246(16)
C13J C 0.30673(11) 1.12444(16) 0.4552(2)
C14J C 0.30866(13) 1.24477(17) 0.4539(4)
C15J C 0.32371(16) 1.1834(3) 0.3483(2)
H1J H 0.60804(15) 1.17906(16) 0.44851(19)
H3J H 0.42375(17) 1.07605(17) 0.4349(2)
H4J H 0.42741(18) 1.28945(17) 0.4270(2)
H5J H 0.2533(2) 1.1285(3) 0.4490(5)
H6J H 0.4874(3) 1.3740(3) 0.4714(5)
H7J H 0.6464(3) 1.3488(3) 0.3837(4)
H8J H 0.5568(3) 1.4117(2) 0.4328(4)
H9J H 0.3214(3) 1.0786(3) 0.4334(7)
H10J H 0.6322(3) 1.3536(3) 0.5080(4)
H11J H 0.4976(3) 1.3696(3) 0.3853(4)
H12J H 0.5674(4) 1.3096(4) 0.5457(3)
H13J H 0.3186(4) 1.1202(6) 0.5052(6)
H14J H 0.2706(4) 1.1811(6) 0.3402(5)
H15J H 0.6480(3) 1.2624(3) 0.3863(4)
H16J H 0.5919(5) 1.3015(4) 0.3354(4)
H17J H 0.6340(3) 1.2667(3) 0.5121(4)
H18J H 0.3455(6) 1.1380(9) 0.3238(5)
H19J H 0.3418(5) 1.2270(7) 0.3263(5)
H20J H 0.2550(2) 1.2436(3) 0.4461(6)
H21J H 0.3243(3) 1.2900(3) 0.4331(8)
H22J H 0.3181(5) 1.2472(6) 0.5045(6)
loop_
_geom_bond_atom_site_label_1
_geom_bond_atom_site_label_2
_geom_bond_site_symmetry_1
_geom_bond_site_symmetry_2
C1 C2 1_555 1_555
C2 C3 1_555 1_555
C3 H2 1_555 1_555
C4 C2 1_555 1_555
C5 C6 1_555 1_555
C6 C4 1_555 1_555
C7 C1 1_555 1_555
C8 C6 1_555 1_555
C9 C7 1_555 1_555
C10 C9 1_555 1_555
C11 C9 1_555 1_555
C12 C9 1_555 1_555
C13 C8 1_555 1_555
C14 C8 1_555 1_555
C15 C8 1_555 1_555
H1 C1 1_555 1_555
H3 C4 1_555 1_555
H4 C5 1_555 1_555
H5 C13 1_555 1_555
H6 C10 1_555 1_555
H7 C12 1_555 1_555
H8 C10 1_555 1_555
H9 C13 1_555 1_555
H10 C11 1_555 1_555
H11 C10 1_555 1_555
H12 C11 1_555 1_555
H13 C13 1_555 1_555
H14 C15 1_555 1_555
H15 C12 1_555 1_555
H16 C12 1_555 1_555
H17 C11 1_555 1_555
H18 C15 1_555 1_555
H19 C15 1_555 1_555
H20 C14 1_555 1_555
H21 C14 1_555 1_555
H22 C14 1_555 1_555
C1G C2G 1_555 1_555
C2G C3 1_555 1_555
C4G C2G 1_555 1_555
C5G C6G 1_555 1_555
C6G C4G 1_555 1_555
C7G C1G 1_555 1_555
C8G C6G 1_555 1_555
C9G C7G 1_555 1_555
C10G C9G 1_555 1_555
C11G C9G 1_555 1_555
C12G C9G 1_555 1_555
C13G C8G 1_555 1_555
C14G C8G 1_555 1_555
C15G C8G 1_555 1_555
H1G C1G 1_555 1_555
H3G C4G 1_555 1_555
H4G C5G 1_555 1_555
H5G C13G 1_555 1_555
H6G C10G 1_555 1_555
H7G C12G 1_555 1_555
H8G C10G 1_555 1_555
H9G C13G 1_555 1_555
H10G C11G 1_555 1_555
H11G C10G 1_555 1_555
H12G C11G 1_555 1_555
H13G C13G 1_555 1_555
H14G C15G 1_555 1_555
H15G C12G 1_555 1_555
H16G C12G 1_555 1_555
H17G C11G 1_555 1_555
H18G C15G 1_555 1_555
H19G C15G 1_555 1_555
H20G C14G 1_555 1_555
H21G C14G 1_555 1_555
H22G C14G 1_555 1_555
C1J C2J 1_555 1_555
C2J C3 1_555 1_555
C4J C2J 1_555 1_555
C5J C6J 1_555 1_555
C6J C4J 1_555 1_555
C7J C1J 1_555 1_555
C8J C6J 1_555 1_555
C9J C7J 1_555 1_555
C10J C9J 1_555 1_555
C11J C9J 1_555 1_555
C12J C9J 1_555 1_555
C13J C8J 1_555 1_555
C14J C8J 1_555 1_555
C15J C8J 1_555 1_555
H1J C1J 1_555 1_555
H3J C4J 1_555 1_555
H4J C5J 1_555 1_555
H5J C13J 1_555 1_555
H6J C10J 1_555 1_555
H7J C12J 1_555 1_555
H8J C10J 1_555 1_555
H9J C13J 1_555 1_555
H10J C11J 1_555 1_555
H11J C10J 1_555 1_555
H12J C11J 1_555 1_555
H13J C13J 1_555 1_555
H14J C15J 1_555 1_555
H15J C12J 1_555 1_555
H16J C12J 1_555 1_555
H17J C11J 1_555 1_555
H18J C15J 1_555 1_555
H19J C15J 1_555 1_555
H20J C14J 1_555 1_555
H21J C14J 1_555 1_555
H22J C14J 1_555 1_555
C5 C7 1_555 1_555
C5G C7G 1_555 1_555
C5J C7J 1_555 1_555

#END
