
#######################################################################
#
#                 Cambridge Crystallographic Data Centre
#                                CCDC 
#
#######################################################################
#
# If this CIF has been generated from an entry in the Cambridge 
# Structural Database, then it will include bibliographic, chemical, 
# crystal, experimental, refinement or atomic coordinate data resulting 
# from the CCDC's data processing and validation procedures.
#
#######################################################################

data_DAZQIH
_chemical_formula_moiety         'C25 H28'
_chemical_name_systematic        tris(3,5-dimethylphenyl)methane
_symmetry_cell_setting           triclinic
_symmetry_space_group_name_H-M   'P -1'
_symmetry_Int_Tables_number      2
_space_group_name_Hall           '-P 1'
loop_
_symmetry_equiv_pos_site_id
_symmetry_equiv_pos_as_xyz
1 x,y,z
2 -x,-y,-z
_cell_length_a                   9.3384(7)
_cell_length_b                   12.9354(9)
_cell_length_c                   16.6265(11)
_cell_angle_alpha                101.298(2)
_cell_angle_beta                 97.815(2)
_cell_angle_gamma                90.575(2)
_cell_volume                     1949.81
_exptl_crystal_colour            colorless
_exptl_crystal_description       block
_cell_formula_units_Z            4
loop_
_atom_site_label
_atom_site_type_symbol
_atom_site_fract_x
_atom_site_fract_y
_atom_site_fract_z
C1 C 0.58129(15) 0.86310(11) 0.52159(8)
H1 H 0.557201 0.936529 0.515371
C2 C 0.56796(15) 0.85906(10) 0.61166(8)
C3 C 0.43422(15) 0.83930(11) 0.63521(9)
H2 H 0.351984 0.822595 0.593943
C4 C 0.41848(16) 0.84352(12) 0.71800(9)
C5 C 0.27297(18) 0.82127(15) 0.74230(11)
H3 H 0.283431 0.771238 0.779815
H4 H 0.205545 0.790982 0.692555
H5 H 0.235470 0.887153 0.770294
C6 C 0.53891(17) 0.86856(12) 0.77827(9)
H6 H 0.529331 0.870351 0.834683
C7 C 0.67324(16) 0.89104(11) 0.75710(9)
C8 C 0.80191(17) 0.92218(13) 0.82346(9)
H7 H 0.889060 0.927697 0.797486
H8 H 0.814297 0.868615 0.857895
H9 H 0.785894 0.990455 0.858071
C9 C 0.68624(15) 0.88528(11) 0.67377(9)
H10 H 0.778043 0.899592 0.658914
C10 C 0.47497(14) 0.79050(11) 0.45586(8)
C11 C 0.44793(15) 0.68561(11) 0.45953(8)
H11 H 0.489312 0.659385 0.506640
C12 C 0.36116(15) 0.61851(11) 0.39521(9)
C13 C 0.33411(17) 0.50448(11) 0.39882(9)
H12 H 0.229698 0.488522 0.390421
H13 H 0.376545 0.491756 0.453087
H14 H 0.378500 0.459061 0.355306
C14 C 0.30067(15) 0.65761(11) 0.32651(9)
H15 H 0.241469 0.612159 0.282446
C15 C 0.26101(18) 0.80303(13) 0.24571(10)
H16 H 0.293743 0.876597 0.251089
H17 H 0.155247 0.798795 0.240801
H18 H 0.292167 0.760111 0.196177
C16 C 0.32549(15) 0.76236(11) 0.32126(9)
C17 C 0.41224(15) 0.82784(11) 0.38672(9)
H19 H 0.428929 0.899592 0.384091
C18 C 0.73282(15) 0.84714(11) 0.49773(8)
C19 C 0.81605(15) 0.76338(11) 0.51599(8)
H20 H 0.780623 0.717260 0.547375
C20 C 0.94973(15) 0.74652(11) 0.48898(9)
C21 C 1.03915(17) 0.65615(13) 0.50867(10)
H21 H 1.057701 0.610497 0.457003
H22 H 0.986664 0.615371 0.539939
H23 H 1.131315 0.683750 0.541879
C22 C 0.99968(16) 0.81406(12) 0.44181(9)
H24 H 1.090898 0.802787 0.422955
C23 C 0.91877(16) 0.89711(12) 0.42203(9)
C24 C 0.97187(19) 0.96858(13) 0.36968(10)
H25 H 0.972950 1.042081 0.399183
H26 H 0.907205 0.960001 0.317016
H27 H 1.069913 0.950028 0.358866
C25 C 0.78599(16) 0.91343(11) 0.45116(8)
H28 H 0.730615 0.971039 0.438942
C26 C 0.40686(14) 0.45189(11) 0.09060(8)
H29 H 0.400425 0.490723 0.043881
C27 C 0.25750(15) 0.45531(11) 0.11865(8)
C28 C 0.21871(15) 0.39073(11) 0.17079(9)
H30 H 0.283749 0.339693 0.186211
C29 C 0.08634(16) 0.39982(12) 0.20060(9)
C30 C 0.04490(19) 0.32809(14) 0.25573(11)
H31 H -0.014559 0.366121 0.295264
H32 H 0.132553 0.305341 0.285982
H33 H -0.010219 0.266185 0.221783
C31 C -0.00753(16) 0.47594(13) 0.17814(10)
H34 H -0.097891 0.482915 0.198541
C32 C -0.07153(18) 0.62599(14) 0.10476(11)
H35 H -0.048872 0.645929 0.053862
H36 H -0.058740 0.687944 0.150031
H37 H -0.171952 0.598853 0.096193
C33 C 0.02851(16) 0.54168(12) 0.12659(9)
C34 C 0.16140(15) 0.52992(12) 0.09691(9)
H38 H 0.186762 0.573857 0.061072
C35 C 0.45587(15) 0.34131(11) 0.05686(8)
C36 C 0.35577(15) 0.25964(11) 0.01993(8)
H39 H 0.255668 0.270936 0.021213
C37 C 0.39867(16) 0.16174(11) -0.01886(8)
C38 C 0.28614(18) 0.07581(12) -0.05876(10)
H40 H 0.331393 0.018304 -0.092912
H41 H 0.209712 0.104486 -0.093636
H42 H 0.244264 0.048841 -0.015628
C39 C 0.54517(16) 0.14599(11) -0.02026(9)
H43 H 0.575472 0.079684 -0.046954
C40 C 0.64885(16) 0.22566(12) 0.01678(9)
C41 C 0.80842(17) 0.20793(13) 0.01537(11)
H44 H 0.864195 0.272602 0.043350
H45 H 0.827247 0.189281 -0.042168
H46 H 0.837210 0.150419 0.044005
C42 C 0.60269(15) 0.32274(11) 0.05490(8)
H47 H 0.672437 0.377538 0.080121
C43 C 0.51243(14) 0.51637(11) 0.16119(8)
C44 C 0.57132(15) 0.47357(11) 0.22873(9)
H48 H 0.551827 0.401371 0.228813
C45 C 0.65812(15) 0.53542(12) 0.29583(9)
C46 C 0.72093(17) 0.48952(13) 0.36897(9)
H49 H 0.699265 0.534554 0.420192
H50 H 0.825978 0.485600 0.370453
H51 H 0.678390 0.418557 0.363830
C47 C 0.68542(15) 0.64123(12) 0.29508(9)
H52 H 0.744563 0.683838 0.340819
C48 C 0.62782(15) 0.68570(12) 0.22875(9)
C49 C 0.65747(18) 0.80057(13) 0.22939(10)
H53 H 0.587618 0.823565 0.187505
H54 H 0.755694 0.810334 0.216883
H55 H 0.648377 0.842541 0.284193
C50 C 0.54185(15) 0.62184(11) 0.16177(9)
H56 H 0.502810 0.651169 0.115766
loop_
_geom_bond_atom_site_label_1
_geom_bond_atom_site_label_2
_geom_bond_site_symmetry_1
_geom_bond_site_symmetry_2
C1 H1 1_555 1_555
C2 C1 1_555 1_555
C3 C2 1_555 1_555
H2 C3 1_555 1_555
C4 C3 1_555 1_555
C5 C4 1_555 1_555
H3 C5 1_555 1_555
H4 C5 1_555 1_555
H5 C5 1_555 1_555
C6 C4 1_555 1_555
H6 C6 1_555 1_555
C7 C6 1_555 1_555
C8 C7 1_555 1_555
H7 C8 1_555 1_555
H8 C8 1_555 1_555
H9 C8 1_555 1_555
C9 C2 1_555 1_555
H10 C9 1_555 1_555
C10 C1 1_555 1_555
C11 C10 1_555 1_555
H11 C11 1_555 1_555
C12 C11 1_555 1_555
C13 C12 1_555 1_555
H12 C13 1_555 1_555
H13 C13 1_555 1_555
H14 C13 1_555 1_555
C14 C12 1_555 1_555
H15 C14 1_555 1_555
C15 H16 1_555 1_555
H17 C15 1_555 1_555
H18 C15 1_555 1_555
C16 C14 1_555 1_555
C17 C10 1_555 1_555
H19 C17 1_555 1_555
C18 C1 1_555 1_555
C19 C18 1_555 1_555
H20 C19 1_555 1_555
C20 C19 1_555 1_555
C21 C20 1_555 1_555
H21 C21 1_555 1_555
H22 C21 1_555 1_555
H23 C21 1_555 1_555
C22 C20 1_555 1_555
H24 C22 1_555 1_555
C23 C22 1_555 1_555
C24 C23 1_555 1_555
H25 C24 1_555 1_555
H26 C24 1_555 1_555
H27 C24 1_555 1_555
C25 C18 1_555 1_555
H28 C25 1_555 1_555
C26 H29 1_555 1_555
C27 C26 1_555 1_555
C28 C27 1_555 1_555
H30 C28 1_555 1_555
C29 C28 1_555 1_555
C30 C29 1_555 1_555
H31 C30 1_555 1_555
H32 C30 1_555 1_555
H33 C30 1_555 1_555
C31 C29 1_555 1_555
H34 C31 1_555 1_555
C32 H35 1_555 1_555
H36 C32 1_555 1_555
H37 C32 1_555 1_555
C33 C31 1_555 1_555
C34 C27 1_555 1_555
H38 C34 1_555 1_555
C35 C26 1_555 1_555
C36 C35 1_555 1_555
H39 C36 1_555 1_555
C37 C36 1_555 1_555
C38 C37 1_555 1_555
H40 C38 1_555 1_555
H41 C38 1_555 1_555
H42 C38 1_555 1_555
C39 C37 1_555 1_555
H43 C39 1_555 1_555
C40 C39 1_555 1_555
C41 C40 1_555 1_555
H44 C41 1_555 1_555
H45 C41 1_555 1_555
H46 C41 1_555 1_555
C42 C35 1_555 1_555
H47 C42 1_555 1_555
C43 C26 1_555 1_555
C44 C43 1_555 1_555
H48 C44 1_555 1_555
C45 C44 1_555 1_555
C46 C45 1_555 1_555
H49 C46 1_555 1_555
H50 C46 1_555 1_555
H51 C46 1_555 1_555
C47 C45 1_555 1_555
H52 C47 1_555 1_555
C48 C47 1_555 1_555
C49 C48 1_555 1_555
H53 C49 1_555 1_555
H54 C49 1_555 1_555
H55 C49 1_555 1_555
C50 C43 1_555 1_555
H56 C50 1_555 1_555
C7 C9 1_555 1_555
C15 C16 1_555 1_555
C16 C17 1_555 1_555
C23 C25 1_555 1_555
C32 C33 1_555 1_555
C33 C34 1_555 1_555
C40 C42 1_555 1_555
C48 C50 1_555 1_555

#END
