
#######################################################################
#
#                 Cambridge Crystallographic Data Centre
#                                CCDC 
#
#######################################################################
#
# If this CIF has been generated from an entry in the Cambridge 
# Structural Database, then it will include bibliographic, chemical, 
# crystal, experimental, refinement or atomic coordinate data resulting 
# from the CCDC's data processing and validation procedures.
#
#######################################################################

data_DAZSAB
_chemical_formula_moiety         'C27 H19 F2 N3'
_chemical_name_systematic        
1-benzyl-5-(2,2-difluoro-1-(2-naphthyl)vinyl)-4-phenyl-1H-1,2,3-triazole
_symmetry_cell_setting           monoclinic
_symmetry_space_group_name_H-M   'P 21/c'
_symmetry_Int_Tables_number      14
_space_group_name_Hall           '-P 2ybc'
loop_
_symmetry_equiv_pos_site_id
_symmetry_equiv_pos_as_xyz
1 x,y,z
2 -x,1/2+y,1/2-z
3 -x,-y,-z
4 x,1/2-y,1/2+z
_cell_length_a                   11.1360(19)
_cell_length_b                   17.321(2)
_cell_length_c                   12.0233(19)
_cell_angle_alpha                90
_cell_angle_beta                 112.15(2)
_cell_angle_gamma                90
_cell_volume                     2147.98
_exptl_crystal_colour            'light yellow'
_cell_formula_units_Z            4
loop_
_atom_site_label
_atom_site_type_symbol
_atom_site_fract_x
_atom_site_fract_y
_atom_site_fract_z
C1 C 0.69287(17) 0.38695(10) 1.06539(15)
C2 C 0.79018(18) 0.37634(10) 1.02246(16)
H1 H 0.7724 0.3472 0.9511
C3 C 0.91565(18) 0.40741(11) 1.08112(16)
C4 C 1.01615(19) 0.39613(13) 1.03777(19)
H2 H 1.0005 0.3656 0.9680
C5 C 1.1354(2) 0.42856(15) 1.0950(2)
H3 H 1.2020 0.4204 1.0650
C6 C 1.1596(2) 0.47337(15) 1.1969(2)
H4 H 1.2425 0.4963 1.2355
C7 C 1.0657(2) 0.48481(14) 1.24216(19)
H5 H 1.0840 0.5154 1.3122
C8 C 0.94111(18) 0.45152(12) 1.18586(16)
C9 C 0.8409(2) 0.46030(13) 1.23020(17)
H6 H 0.8575 0.4890 1.3018
C10 C 0.72100(19) 0.42867(12) 1.17296(16)
H7 H 0.6562 0.4348 1.2058
C11 C 0.56257(17) 0.35374(10) 0.99834(15)
C12 C 0.45476(18) 0.38106(10) 1.00426(16)
C13 C 0.43890(17) 0.34241(10) 0.70007(15)
C14 C 0.35059(18) 0.32276(12) 0.58678(17)
H8 H 0.3209 0.2710 0.5703
C15 C 0.3059(2) 0.37803(14) 0.49809(19)
H9 H 0.2464 0.3641 0.4204
C16 C 0.3469(2) 0.45309(14) 0.52161(19)
H10 H 0.3156 0.4910 0.4603
C17 C 0.4335(2) 0.47353(12) 0.63388(18)
H11 H 0.4614 0.5256 0.6502
C18 C 0.47948(19) 0.41857(10) 0.72236(17)
H12 H 0.5397 0.4329 0.7995
C19 C 0.49381(17) 0.28300(10) 0.79201(16)
C20 C 0.54894(16) 0.28925(10) 0.91515(15)
N1 N 0.56087(17) 0.16807(9) 0.85904(15)
C21 C 0.66030(19) 0.18848(12) 1.07434(17)
H13 H 0.6324 0.1350 1.0809
H14 H 0.6377 0.2208 1.1315
C22 C 0.8059(2) 0.18952(12) 1.10967(19)
C23 C 0.8831(2) 0.21957(15) 1.2199(2)
H15 H 0.8447 0.2408 1.2714
C24 C 1.0175(3) 0.21863(19) 1.2551(3)
H16 H 1.0705 0.2385 1.3316
C25 C 1.0740(3) 0.1895(2) 1.1813(3)
H17 H 1.1656 0.1896 1.2056
C26 C 0.9973(3) 0.1602(2) 1.0715(3)
H18 H 1.0364 0.1401 1.0197
C27 C 0.8638(2) 0.15949(15) 1.0354(2)
H19 H 0.8117 0.1384 0.9596
N2 N 0.58957(15) 0.21652(9) 0.95279(14)
N3 N 0.50258(16) 0.20801(9) 0.76100(15)
F1 F 0.44306(10) 0.44081(6) 1.06686(10)
F2 F 0.33715(10) 0.35237(6) 0.94439(10)
loop_
_geom_bond_atom_site_label_1
_geom_bond_atom_site_label_2
_geom_bond_site_symmetry_1
_geom_bond_site_symmetry_2
C1 C2 1_555 1_555
C2 H1 1_555 1_555
C3 C2 1_555 1_555
C4 C3 1_555 1_555
H2 C4 1_555 1_555
C5 C4 1_555 1_555
H3 C5 1_555 1_555
C6 C5 1_555 1_555
H4 C6 1_555 1_555
C7 C6 1_555 1_555
H5 C7 1_555 1_555
C8 C3 1_555 1_555
C9 C8 1_555 1_555
H6 C9 1_555 1_555
C10 C1 1_555 1_555
H7 C10 1_555 1_555
C11 C1 1_555 1_555
C12 C11 1_555 1_555
C13 C14 1_555 1_555
C14 H8 1_555 1_555
C15 C14 1_555 1_555
H9 C15 1_555 1_555
C16 C15 1_555 1_555
H10 C16 1_555 1_555
C17 C16 1_555 1_555
H11 C17 1_555 1_555
C18 C13 1_555 1_555
H12 C18 1_555 1_555
C19 C13 1_555 1_555
C20 C11 1_555 1_555
N1 N2 1_555 1_555
C21 H13 1_555 1_555
H14 C21 1_555 1_555
C22 C21 1_555 1_555
C23 C22 1_555 1_555
H15 C23 1_555 1_555
C24 C23 1_555 1_555
H16 C24 1_555 1_555
C25 C24 1_555 1_555
H17 C25 1_555 1_555
C26 C25 1_555 1_555
H18 C26 1_555 1_555
C27 C22 1_555 1_555
H19 C27 1_555 1_555
N2 C20 1_555 1_555
N3 C19 1_555 1_555
F1 C12 1_555 1_555
F2 C12 1_555 1_555
C7 C8 1_555 1_555
C9 C10 1_555 1_555
C17 C18 1_555 1_555
C19 C20 1_555 1_555
N1 N3 1_555 1_555
C21 N2 1_555 1_555
C26 C27 1_555 1_555

#END
