
#######################################################################
#
#                 Cambridge Crystallographic Data Centre
#                                CCDC 
#
#######################################################################
#
# If this CIF has been generated from an entry in the Cambridge 
# Structural Database, then it will include bibliographic, chemical, 
# crystal, experimental, refinement or atomic coordinate data resulting 
# from the CCDC's data processing and validation procedures.
#
#######################################################################

data_DAZVAC
_chemical_formula_moiety         'C13 H10 S1'
_chemical_name_systematic        
5-Thiatricyclo(7.4.1.0^3,7^)tetradeca-1,3,6,8,10,12-hexaene
_symmetry_cell_setting           orthorhombic
_symmetry_space_group_name_H-M   'P 21 21 21'
_symmetry_Int_Tables_number      19
_space_group_name_Hall           'P 2ac 2ab'
loop_
_symmetry_equiv_pos_site_id
_symmetry_equiv_pos_as_xyz
1 x,y,z
2 1/2-x,-y,1/2+z
3 1/2+x,1/2-y,-z
4 -x,1/2+y,1/2-z
_cell_length_a                   9.989(2)
_cell_length_b                   16.491(2)
_cell_length_c                   5.974(2)
_cell_angle_alpha                90
_cell_angle_beta                 90
_cell_angle_gamma                90
_cell_volume                     984.089
_exptl_crystal_colour            yellow
_exptl_crystal_description       prismatic
_chemical_melting_point          102.5-103deg.C
_cell_formula_units_Z            4
loop_
_atom_site_label
_atom_site_type_symbol
_atom_site_fract_x
_atom_site_fract_y
_atom_site_fract_z
S1 S 0.3234(2) 0.12575(9) 0.9076(3)
C1 C 0.4400(6) 0.0947(3) 0.720(1)
C2 C 0.3488(5) 0.0439(3) 1.073(1)
C3 C 0.4440(5) -0.0084(3) 0.988(1)
C4 C 0.4936(5) -0.0775(3) 1.1081(10)
C5 C 0.5525(6) -0.1419(3) 1.004(1)
C6 C 0.6499(6) -0.1971(3) 1.101(1)
C7 C 0.7612(6) -0.2212(4) 0.991(1)
C8 C 0.8179(6) -0.1889(4) 0.785(1)
C9 C 0.7761(6) -0.1280(4) 0.654(1)
C10 C 0.6453(5) -0.0913(3) 0.6770(9)
C11 C 0.6164(6) -0.0122(3) 0.6693(10)
C12 C 0.4990(6) 0.0219(3) 0.778(1)
C13 C 0.5385(6) -0.1468(3) 0.7561(10)
H1 H 0.4625 0.1244 0.5890
H2 H 0.3026 0.0349 1.2098
H3 H 0.4850 -0.0784 1.2664
H4 H 0.6346 -0.2171 1.2477
H5 H 0.8089 -0.2649 1.0575
H6 H 0.8971 -0.2153 0.7354
H7 H 0.8348 -0.1082 0.5413
H8 H 0.6749 0.0231 0.5901
H9 H 0.4527 -0.1288 0.7090
H10 H 0.5531 -0.2005 0.7042
loop_
_geom_bond_atom_site_label_1
_geom_bond_atom_site_label_2
_geom_bond_site_symmetry_1
_geom_bond_site_symmetry_2
S1 C1 1_555 1_555
C1 C12 1_555 1_555
C2 S1 1_555 1_555
C3 C2 1_555 1_555
C4 C3 1_555 1_555
C5 C4 1_555 1_555
C6 C5 1_555 1_555
C7 C6 1_555 1_555
C8 C7 1_555 1_555
C9 C8 1_555 1_555
C10 C9 1_555 1_555
C11 C10 1_555 1_555
C12 C3 1_555 1_555
C13 C5 1_555 1_555
H1 C1 1_555 1_555
H2 C2 1_555 1_555
H3 C4 1_555 1_555
H4 C6 1_555 1_555
H5 C7 1_555 1_555
H6 C8 1_555 1_555
H7 C9 1_555 1_555
H8 C11 1_555 1_555
H9 C13 1_555 1_555
H10 C13 1_555 1_555
C10 C13 1_555 1_555
C11 C12 1_555 1_555

#END
