
#######################################################################
#
#                 Cambridge Crystallographic Data Centre
#                                CCDC 
#
#######################################################################
#
# If this CIF has been generated from an entry in the Cambridge 
# Structural Database, then it will include bibliographic, chemical, 
# crystal, experimental, refinement or atomic coordinate data resulting 
# from the CCDC's data processing and validation procedures.
#
#######################################################################

data_DAZZIO
_chemical_formula_moiety         'C10 H6 Se2'
_chemical_name_systematic        Benzo(1,2-b:4,5-b')diselenophene
_symmetry_cell_setting           triclinic
_symmetry_space_group_name_H-M   'P -1'
_symmetry_Int_Tables_number      2
_space_group_name_Hall           '-P 1'
loop_
_symmetry_equiv_pos_site_id
_symmetry_equiv_pos_as_xyz
1 x,y,z
2 -x,-y,-z
_cell_length_a                   5.7985(6)
_cell_length_b                   7.9434(8)
_cell_length_c                   9.864(1)
_cell_angle_alpha                97.41(1)
_cell_angle_beta                 101.48(1)
_cell_angle_gamma                91.567(9)
_cell_volume                     440.869
_exptl_crystal_colour            colorless
_exptl_crystal_description       plate
_chemical_melting_point          255-257deg.C
_cell_formula_units_Z            2
_exptl_crystal_recrystallization_method chloroform
loop_
_atom_site_label
_atom_site_type_symbol
_atom_site_fract_x
_atom_site_fract_y
_atom_site_fract_z
Se1 Se 0.3256(1) 0.31683(9) 0.68077(7)
C1 C 0.626(2) 0.426(1) 0.6649(9)
C2 C 0.7335(8) 0.5021(6) 0.7607(7)
C3 C 0.6271(8) 0.5109(6) 0.8947(6)
C4 C 0.4081(9) 0.4169(6) 0.8685(6)
C5 C 0.7194(8) 0.5946(6) 1.0279(6)
H1 H 0.6790 0.4150 0.5785
H2 H 0.8809 0.5594 0.7615
H3 H 0.8656 0.6587 1.0482
Se1A Se 0.6744(1) 0.68317(9) 1.31923(7)
C1A C 0.374(2) 0.574(1) 1.3351(9)
C2A C 0.2665(8) 0.4979(6) 1.2393(7)
C3A C 0.3729(8) 0.4891(6) 1.1053(6)
C4A C 0.5919(9) 0.5831(6) 1.1315(6)
C5A C 0.2806(8) 0.4054(6) 0.9721(6)
H1A H 0.3210 0.5850 1.4215
H2A H 0.1191 0.4406 1.2385
H3A H 0.1344 0.3413 0.9518
Se2 Se 0.1919(1) 0.04199(7) 0.33641(6)
C6 C -0.090(1) 0.1504(7) 0.3394(6)
C7 C -0.2222(10) 0.1592(6) 0.2127(6)
C8 C -0.1230(8) 0.0804(5) 0.0971(5)
C9 C 0.0991(8) 0.0114(6) 0.1404(5)
C10 C -0.2215(8) 0.0687(6) -0.0445(5)
H4 H -0.1351 0.1969 0.4238
H5 H -0.3685 0.2130 0.1987
H6 H -0.3712 0.1135 -0.0755
Se2A Se -0.1919(1) -0.04199(7) -0.33641(6)
C6A C 0.090(1) -0.1504(7) -0.3394(6)
C7A C 0.2222(10) -0.1592(6) -0.2127(6)
C8A C 0.1230(8) -0.0804(5) -0.0971(5)
C9A C -0.0991(8) -0.0114(6) -0.1404(5)
C10A C 0.2215(8) -0.0687(6) 0.0445(5)
H4A H 0.1351 -0.1969 -0.4238
H5A H 0.3685 -0.2130 -0.1987
H6A H 0.3712 -0.1135 0.0755
loop_
_geom_bond_atom_site_label_1
_geom_bond_atom_site_label_2
_geom_bond_site_symmetry_1
_geom_bond_site_symmetry_2
Se1 C1 1_555 1_555
Se2 C6 1_555 1_555
C1 C2 1_555 1_555
C2 C3 1_555 1_555
C3 C4 1_555 1_555
C4 Se1 1_555 1_555
C5 C3 1_555 1_555
C6 C7 1_555 1_555
C7 C8 1_555 1_555
C8 C9 1_555 1_555
C9 Se2 1_555 1_555
C10 C8 1_555 1_555
H1 C1 1_555 1_555
H2 C2 1_555 1_555
H3 C5 1_555 1_555
H4 C6 1_555 1_555
H5 C7 1_555 1_555
H6 C10 1_555 1_555
Se1A C1A 1_555 1_555
Se2A C6A 1_555 1_555
C1A C2A 1_555 1_555
C2A C3A 1_555 1_555
C3A C4A 1_555 1_555
C4A C5 1_555 1_555
C5A C4 1_555 1_555
C6A C7A 1_555 1_555
C7A C8A 1_555 1_555
C8A C9A 1_555 1_555
C9A C10 1_555 1_555
C10A C9 1_555 1_555
H1A C1A 1_555 1_555
H2A C2A 1_555 1_555
H3A C5A 1_555 1_555
H4A C6A 1_555 1_555
H5A C7A 1_555 1_555
H6A C10A 1_555 1_555
Se1A C4A 1_555 1_555
Se2A C9A 1_555 1_555
C3A C5A 1_555 1_555
C8A C10A 1_555 1_555

#END
