
#######################################################################
#
#                 Cambridge Crystallographic Data Centre
#                                CCDC 
#
#######################################################################
#
# If this CIF has been generated from an entry in the Cambridge 
# Structural Database, then it will include bibliographic, chemical, 
# crystal, experimental, refinement or atomic coordinate data resulting 
# from the CCDC's data processing and validation procedures.
#
#######################################################################

data_DAZZOU
_chemical_formula_moiety         'C10 H6 Te2'
_chemical_name_systematic        Benzo(1,2-b:4,5-b')ditellurophene
_symmetry_cell_setting           triclinic
_symmetry_space_group_name_H-M   'P -1'
_symmetry_Int_Tables_number      2
_space_group_name_Hall           '-P 1'
loop_
_symmetry_equiv_pos_site_id
_symmetry_equiv_pos_as_xyz
1 x,y,z
2 -x,-y,-z
_cell_length_a                   5.822(2)
_cell_length_b                   8.122(2)
_cell_length_c                   10.292(3)
_cell_angle_alpha                95.85(2)
_cell_angle_beta                 102.59(2)
_cell_angle_gamma                91.30(2)
_cell_volume                     471.989
_exptl_crystal_colour            'pale yellow'
_exptl_crystal_description       plate
_chemical_melting_point          283-285deg.C
_cell_formula_units_Z            2
_exptl_crystal_recrystallization_method chloroform
loop_
_atom_site_label
_atom_site_type_symbol
_atom_site_fract_x
_atom_site_fract_y
_atom_site_fract_z
Te1 Te 0.20365(6) 0.03604(5) 0.34434(3)
C1 C -0.109(1) 0.1558(7) 0.3245(6)
C2 C -0.2257(9) 0.1553(6) 0.1972(6)
C3 C -0.1199(8) 0.0771(6) 0.0922(5)
C4 C 0.1002(8) 0.0067(6) 0.1354(5)
C5 C -0.2164(9) 0.0712(6) -0.0446(5)
H1 H -0.1647 0.2068 0.3993
H2 H -0.3747 0.2062 0.1754
H3 H -0.3625 0.1223 -0.0755
Te1A Te -0.20365(6) -0.03604(5) -0.34434(3)
C1A C 0.109(1) -0.1558(7) -0.3245(6)
C2A C 0.2257(9) -0.1553(6) -0.1972(6)
C3A C 0.1199(8) -0.0771(6) -0.0922(5)
C4A C -0.1002(8) -0.0067(6) -0.1354(5)
C5A C 0.2164(9) -0.0712(6) 0.0446(5)
H1A H 0.1647 -0.2068 -0.3993
H2A H 0.3747 -0.2062 -0.1754
H3A H 0.3625 -0.1223 0.0755
Te2 Te -0.31621(7) -0.32395(5) 0.32785(4)
C6 C -0.637(1) -0.4423(8) 0.3307(6)
C7 C -0.7393(9) -0.5214(7) 0.2134(6)
C8 C -0.6258(8) -0.5145(6) 0.1006(5)
C9 C -0.4085(9) -0.4235(6) 0.1276(5)
C10 C -0.7163(9) -0.5937(6) -0.0287(6)
H4 H -0.7003 -0.4395 0.4090
H5 H -0.8852 -0.5838 0.2020
H6 H -0.8614 -0.6592 -0.0493
Te2A Te -0.68379(7) -0.67605(5) -0.32785(4)
C6A C -0.363(1) -0.5577(8) -0.3307(6)
C7A C -0.2607(9) -0.4786(7) -0.2134(6)
C8A C -0.3742(8) -0.4855(6) -0.1006(5)
C9A C -0.5915(9) -0.5765(6) -0.1276(5)
C10A C -0.2837(9) -0.4063(6) 0.0287(6)
H4A H -0.2997 -0.5605 -0.4090
H5A H -0.1148 -0.4162 -0.2020
H6A H -0.1386 -0.3408 0.0493
loop_
_geom_bond_atom_site_label_1
_geom_bond_atom_site_label_2
_geom_bond_site_symmetry_1
_geom_bond_site_symmetry_2
Te1 C1 1_555 1_555
Te2 C6 1_555 1_555
C1 C2 1_555 1_555
C2 C3 1_555 1_555
C3 C4 1_555 1_555
C4 Te1 1_555 1_555
C5 C3 1_555 1_555
C6 C7 1_555 1_555
C7 C8 1_555 1_555
C8 C9 1_555 1_555
C9 Te2 1_555 1_555
C10 C8 1_555 1_555
H1 C1 1_555 1_555
H2 C2 1_555 1_555
H3 C5 1_555 1_555
H4 C6 1_555 1_555
H5 C7 1_555 1_555
H6 C10 1_555 1_555
Te1A C1A 1_555 1_555
Te2A C6A 1_555 1_555
C1A C2A 1_555 1_555
C2A C3A 1_555 1_555
C3A C4A 1_555 1_555
C4A C5 1_555 1_555
C5A C4 1_555 1_555
C6A C7A 1_555 1_555
C7A C8A 1_555 1_555
C8A C9A 1_555 1_555
C9A C10 1_555 1_555
C10A C9 1_555 1_555
H1A C1A 1_555 1_555
H2A C2A 1_555 1_555
H3A C5A 1_555 1_555
H4A C6A 1_555 1_555
H5A C7A 1_555 1_555
H6A C10A 1_555 1_555
Te1A C4A 1_555 1_555
Te2A C9A 1_555 1_555
C3A C5A 1_555 1_555
C8A C10A 1_555 1_555

#END
