
#######################################################################
#
#                 Cambridge Crystallographic Data Centre
#                                CCDC 
#
#######################################################################
#
# If this CIF has been generated from an entry in the Cambridge 
# Structural Database, then it will include bibliographic, chemical, 
# crystal, experimental, refinement or atomic coordinate data resulting 
# from the CCDC's data processing and validation procedures.
#
#######################################################################

data_DAZZEM
_chemical_formula_moiety         'C30 H26 N2 O12'
_chemical_name_systematic        
"7-oxo-1,2,5a,6,7,8,8a,10,11,12a-decahydro-3aH-furo[2',3':7,7a][1]benzofuro[2,3-e][1]benzofuran-5,12b(5bH)-diyl bis(4-nitrobenzoate) unknown solvate"
_symmetry_cell_setting           triclinic
_symmetry_space_group_name_H-M   'P -1'
_symmetry_Int_Tables_number      2
_space_group_name_Hall           '-P 1'
loop_
_symmetry_equiv_pos_site_id
_symmetry_equiv_pos_as_xyz
1 x,y,z
2 -x,-y,-z
_cell_length_a                   9.210(3)
_cell_length_b                   13.341(4)
_cell_length_c                   13.832(5)
_cell_angle_alpha                109.554(4)
_cell_angle_beta                 105.763(4)
_cell_angle_gamma                104.633(2)
_cell_volume                     1426.43
_exptl_crystal_colour            colorless
_exptl_crystal_description       plate
_cell_formula_units_Z            2
loop_
_atom_site_label
_atom_site_type_symbol
_atom_site_fract_x
_atom_site_fract_y
_atom_site_fract_z
O1 O -0.2797(4) -0.1986(2) 0.7874(3)
O2 O -0.0469(5) -0.2139(3) 0.8408(4)
O3 O 0.3435(3) 0.3545(3) 0.9631(2)
O4 O 0.1058(3) 0.3445(2) 0.8493(2)
O5 O -0.0234(3) 0.5249(2) 0.8763(2)
O6 O 0.2099(3) 0.3541(2) 0.6838(2)
O7 O 0.1490(3) 0.2068(2) 0.4351(2)
O8 O 0.7122(3) 0.4377(3) 0.5814(2)
O9 O 0.2831(3) 0.6969(2) 0.7205(2)
O10 O 0.4144(4) 0.8168(2) 0.9022(2)
O11 O 0.5927(15) 1.1679(10) 0.6182(9)
O12 O 0.5580(15) 1.2678(8) 0.7631(8)
N1 N -0.1309(5) -0.1594(3) 0.8224(3)
N2 N 0.5569(5) 1.1740(4) 0.6936(4)
C1 C -0.0464(5) -0.0390(3) 0.8451(3)
C2 C 0.1155(5) 0.0142(4) 0.9094(4)
H1 H 0.1740 -0.0249 0.9397
C3 C 0.1942(5) 0.1284(4) 0.9302(3)
H2 H 0.3074 0.1680 0.9753
C4 C 0.1068(5) 0.1833(3) 0.8850(3)
C5 C -0.0571(5) 0.1267(4) 0.8192(4)
H3 H -0.1162 0.1649 0.7880
C6 C -0.1364(5) 0.0130(4) 0.7983(4)
H4 H -0.2495 -0.0272 0.7531
C7 C 0.2010(5) 0.3030(3) 0.9051(3)
C8 C 0.1811(4) 0.4572(3) 0.8525(3)
C9 C 0.2512(5) 0.5543(3) 0.9715(3)
H5 H 0.2699 0.5236 1.0278
H6 H 0.3553 0.6130 0.9865
C10 C 0.1188(5) 0.6053(4) 0.9731(4)
H7 H 0.0970 0.6157 1.0414
H8 H 0.1537 0.6808 0.9710
C11 C 0.0353(5) 0.4806(3) 0.7914(3)
H9 H -0.0504 0.4086 0.7270
C12 C 0.0925(5) 0.5722(3) 0.7550(3)
H10 H 0.0209 0.6082 0.7336
C13 C 0.2363(4) 0.6045(3) 0.7514(3)
C14 C 0.3626(4) 0.5546(3) 0.7717(3)
H11 H 0.4660 0.6131 0.8355
C15 C 0.3938(4) 0.5008(3) 0.6657(3)
H12 H 0.3857 0.5474 0.6224
C16 C 0.5609(4) 0.4893(3) 0.6927(3)
H13 H 0.6485 0.5669 0.7320
H14 H 0.5727 0.4512 0.7431
C17 C 0.5802(5) 0.4206(3) 0.5886(3)
C18 C 0.4265(5) 0.3322(3) 0.4932(3)
H15 H 0.4508 0.2676 0.4496
H16 H 0.3855 0.3666 0.4437
C19 C 0.2947(4) 0.2862(3) 0.5309(3)
H17 H 0.3323 0.2459 0.5760
C20 C 0.0196(5) 0.2445(4) 0.4392(4)
H18 H -0.0465 0.2050 0.4710
H19 H -0.0520 0.2286 0.3635
C21 C 0.0987(5) 0.3724(3) 0.5128(3)
H20 H 0.0268 0.4002 0.5472
H21 H 0.1270 0.4158 0.4705
C22 C 0.2520(4) 0.3827(3) 0.6007(3)
C23 C 0.2964(4) 0.4498(3) 0.7920(3)
H22 H 0.3900 0.4365 0.8353
C24 C 0.3735(5) 0.8012(3) 0.8058(3)
C25 C 0.4196(5) 0.8953(3) 0.7713(3)
C26 C 0.3974(5) 0.8734(3) 0.6622(3)
H23 H 0.3503 0.7967 0.6056
C27 C 0.4459(5) 0.9666(4) 0.6370(4)
H24 H 0.4356 0.9544 0.5633
C28 C 0.5085(5) 1.0760(4) 0.7209(4)
C29 C 0.5276(6) 1.0998(4) 0.8283(4)
H25 H 0.5690 1.1766 0.8839
C30 C 0.4839(5) 1.0070(3) 0.8525(4)
H26 H 0.4985 1.0204 0.9270
O13? O 0.521(2) 1.1451(14) 0.5900(11)
O14? O 0.632(2) 1.2714(11) 0.7622(12)
loop_
_geom_bond_atom_site_label_1
_geom_bond_atom_site_label_2
_geom_bond_site_symmetry_1
_geom_bond_site_symmetry_2
O1 N1 1_555 1_555
O2 N1 1_555 1_555
O3 C7 1_555 1_555
O4 C7 1_555 1_555
O5 C10 1_555 1_555
O6 C22 1_555 1_555
O7 C19 1_555 1_555
O8 C17 1_555 1_555
O9 C13 1_555 1_555
O10 C24 1_555 1_555
O11 N2 1_555 1_555
O12 N2 1_555 1_555
N1 C1 1_555 1_555
N2 C28 1_555 1_555
C1 C2 1_555 1_555
C2 H1 1_555 1_555
C3 C2 1_555 1_555
H2 C3 1_555 1_555
C4 C3 1_555 1_555
C5 C4 1_555 1_555
H3 C5 1_555 1_555
C6 C1 1_555 1_555
H4 C6 1_555 1_555
C7 C4 1_555 1_555
C8 O4 1_555 1_555
C9 C8 1_555 1_555
H5 C9 1_555 1_555
H6 C9 1_555 1_555
C10 C9 1_555 1_555
H7 C10 1_555 1_555
H8 C10 1_555 1_555
C11 O5 1_555 1_555
H9 C11 1_555 1_555
C12 C11 1_555 1_555
H10 C12 1_555 1_555
C13 C12 1_555 1_555
C14 C13 1_555 1_555
H11 C14 1_555 1_555
C15 C14 1_555 1_555
H12 C15 1_555 1_555
C16 C15 1_555 1_555
H13 C16 1_555 1_555
H14 C16 1_555 1_555
C17 C16 1_555 1_555
C18 C17 1_555 1_555
H15 C18 1_555 1_555
H16 C18 1_555 1_555
C19 C18 1_555 1_555
H17 C19 1_555 1_555
C20 O7 1_555 1_555
H18 C20 1_555 1_555
H19 C20 1_555 1_555
C21 C20 1_555 1_555
H20 C21 1_555 1_555
H21 C21 1_555 1_555
C22 C15 1_555 1_555
C23 O6 1_555 1_555
H22 C23 1_555 1_555
C24 O9 1_555 1_555
C25 C24 1_555 1_555
C26 C25 1_555 1_555
H23 C26 1_555 1_555
C27 C26 1_555 1_555
H24 C27 1_555 1_555
C28 C27 1_555 1_555
C29 C28 1_555 1_555
H25 C29 1_555 1_555
C30 C25 1_555 1_555
H26 C30 1_555 1_555
C5 C6 1_555 1_555
C8 C11 1_555 1_555
C8 C23 1_555 1_555
C14 C23 1_555 1_555
C19 C22 1_555 1_555
C21 C22 1_555 1_555
C29 C30 1_555 1_555

#END
