
#######################################################################
#
#                 Cambridge Crystallographic Data Centre
#                                CCDC 
#
#######################################################################
#
# If this CIF has been generated from an entry in the Cambridge 
# Structural Database, then it will include bibliographic, chemical, 
# crystal, experimental, refinement or atomic coordinate data resulting 
# from the CCDC's data processing and validation procedures.
#
#######################################################################

data_DBRBIP02
_chemical_formula_moiety         'C12 H8 Br2'
_chemical_name_systematic        4,4'-dibromobiphenyl
_symmetry_cell_setting           monoclinic
_symmetry_space_group_name_H-M   'P 21/n'
_symmetry_Int_Tables_number      14
_space_group_name_Hall           '-P 2yn'
loop_
_symmetry_equiv_pos_site_id
_symmetry_equiv_pos_as_xyz
1 x,y,z
2 1/2-x,1/2+y,1/2-z
3 -x,-y,-z
4 1/2+x,1/2-y,1/2+z
_cell_length_a                   9.807(2)
_cell_length_b                   14.129(3)
_cell_length_c                   15.806(3)
_cell_angle_alpha                90
_cell_angle_beta                 96.81(3)
_cell_angle_gamma                90
_cell_volume                     2174.68
_exptl_crystal_colour            colorless
_exptl_crystal_description       block
_cell_formula_units_Z            8
loop_
_atom_site_label
_atom_site_type_symbol
_atom_site_fract_x
_atom_site_fract_y
_atom_site_fract_z
Br1 Br 0.65280(5) 0.59577(4) 0.15498(4)
Br2 Br 0.59155(6) -0.16727(4) 0.10909(3)
C1 C 0.6329(4) 0.4626(3) 0.1445(3)
C2 C 0.5932(5) -0.0334(3) 0.1143(3)
C3 C 0.6088(4) 0.2675(3) 0.1302(2)
C4 C 0.6012(4) 0.1628(3) 0.1235(2)
C5 C 0.6784(5) 0.0163(3) 0.0675(3)
H1 H 0.7336 -0.0156 0.0329
C6 C 0.5150(4) 0.1096(3) 0.1694(2)
H2 H 0.4592 0.1406 0.2042
C7 C 0.6052(4) 0.3128(3) 0.2079(3)
H3 H 0.5947 0.2770 0.2561
C8 C 0.5108(5) 0.0124(3) 0.1644(3)
H4 H 0.4521 -0.0218 0.1950
C9 C 0.6250(4) 0.3236(3) 0.0594(3)
H5 H 0.6285 0.2950 0.0067
C10 C 0.6167(4) 0.4096(3) 0.2149(3)
H6 H 0.6135 0.4388 0.2674
C11 C 0.6818(5) 0.1134(3) 0.0719(3)
H7 H 0.7391 0.1468 0.0397
C12 C 0.6359(4) 0.4198(3) 0.0660(3)
H8 H 0.6451 0.4562 0.0181
Br3 Br 0.08119(6) 0.08321(4) 0.10125(4)
Br4 Br 0.16932(6) 0.84567(4) 0.14299(3)
C13 C 0.1246(4) 0.4120(3) 0.1231(2)
C14 C 0.1004(4) 0.2164(3) 0.1113(2)
C15 C 0.1569(5) 0.7116(3) 0.1357(3)
C16 C 0.1366(4) 0.5164(3) 0.1281(2)
C17 C 0.2310(4) 0.3561(3) 0.0988(2)
H9 H 0.3116 0.3851 0.0868
C18 C 0.2578(4) 0.5603(3) 0.1618(3)
H10 H 0.3335 0.5235 0.1818
C19 C 0.0074(4) 0.3660(3) 0.1423(3)
H11 H -0.0647 0.4015 0.1589
C20 C -0.0050(4) 0.2690(4) 0.1374(3)
H12 H -0.0839 0.2394 0.1516
C21 C 0.0343(5) 0.6701(3) 0.1011(2)
H13 H -0.0408 0.7073 0.0808
C22 C 0.2676(5) 0.6577(4) 0.1662(3)
H14 H 0.3487 0.6863 0.1897
C23 C 0.2193(4) 0.2594(3) 0.0921(3)
H15 H 0.2906 0.2235 0.0749
C24 C 0.0263(4) 0.5735(3) 0.0977(2)
H16 H -0.0553 0.5453 0.0744
loop_
_geom_bond_atom_site_label_1
_geom_bond_atom_site_label_2
_geom_bond_site_symmetry_1
_geom_bond_site_symmetry_2
Br1 C1 1_555 1_555
Br2 C2 1_555 1_555
C1 C10 1_555 1_555
C2 C5 1_555 1_555
C3 C4 1_555 1_555
C4 C6 1_555 1_555
C5 H1 1_555 1_555
C6 H2 1_555 1_555
C7 C3 1_555 1_555
H3 C7 1_555 1_555
C8 C2 1_555 1_555
H4 C8 1_555 1_555
C9 C3 1_555 1_555
H5 C9 1_555 1_555
C10 C7 1_555 1_555
H6 C10 1_555 1_555
C11 C4 1_555 1_555
H7 C11 1_555 1_555
C12 C1 1_555 1_555
H8 C12 1_555 1_555
Br3 C14 1_555 1_555
Br4 C15 1_555 1_555
C13 C16 1_555 1_555
C14 C20 1_555 1_555
C15 C21 1_555 1_555
C16 C18 1_555 1_555
C17 C13 1_555 1_555
H9 C17 1_555 1_555
C18 H10 1_555 1_555
C19 C13 1_555 1_555
H11 C19 1_555 1_555
C20 C19 1_555 1_555
H12 C20 1_555 1_555
C21 H13 1_555 1_555
C22 C15 1_555 1_555
H14 C22 1_555 1_555
C23 C14 1_555 1_555
H15 C23 1_555 1_555
C24 C16 1_555 1_555
H16 C24 1_555 1_555
C5 C11 1_555 1_555
C6 C8 1_555 1_555
C9 C12 1_555 1_555
C17 C23 1_555 1_555
C18 C22 1_555 1_555
C21 C24 1_555 1_555

#END
