
#######################################################################
#
#                 Cambridge Crystallographic Data Centre
#                                CCDC 
#
#######################################################################
#
# If this CIF has been generated from an entry in the Cambridge 
# Structural Database, then it will include bibliographic, chemical, 
# crystal, experimental, refinement or atomic coordinate data resulting 
# from the CCDC's data processing and validation procedures.
#
#######################################################################

data_DBZOSS05
_chemical_formula_moiety         'C14 H10 O2 S2'
_chemical_name_systematic        'dibenzoyl disulfide'
_symmetry_cell_setting           monoclinic
_symmetry_space_group_name_H-M   'P 21/c'
_symmetry_Int_Tables_number      14
_space_group_name_Hall           '-P 2ybc'
loop_
_symmetry_equiv_pos_site_id
_symmetry_equiv_pos_as_xyz
1 x,y,z
2 -x,1/2+y,1/2-z
3 -x,-y,-z
4 x,1/2-y,1/2+z
_cell_length_a                   12.3797(7)
_cell_length_b                   12.0931(7)
_cell_length_c                   9.0883(5)
_cell_angle_alpha                90
_cell_angle_beta                 107.1450(10)
_cell_angle_gamma                90
_cell_volume                     1300.14
_exptl_crystal_colour            yellow
_exptl_crystal_description       parallelepiped
_cell_formula_units_Z            4
loop_
_atom_site_label
_atom_site_type_symbol
_atom_site_fract_x
_atom_site_fract_y
_atom_site_fract_z
S1 S 0.62517(3) 0.67252(3) 0.18393(6)
S2 S 0.71762(3) 0.59516(4) 0.06479(5)
O1 O 0.55629(10) 0.46518(9) 0.18013(14)
O2 O 0.83457(10) 0.54541(12) 0.35184(13)
C1 C 0.39392(14) 0.50504(14) 0.33796(18)
H1 H 0.4120 0.4316 0.3263
C2 C 0.31295(14) 0.53062(16) 0.40915(19)
H2 H 0.2767 0.4744 0.4460
C3 C 0.28573(15) 0.63937(19) 0.4258(2)
H3 H 0.2310 0.6562 0.4738
C4 C 0.33872(16) 0.72300(17) 0.3719(2)
H4 H 0.3198 0.7962 0.3835
C5 C 0.42020(14) 0.69853(14) 0.3004(2)
H5 H 0.4559 0.7553 0.2637
C6 C 0.44866(11) 0.58953(12) 0.28354(16)
C7 C 0.53759(12) 0.55753(12) 0.21266(16)
C8 C 0.82519(11) 0.52777(12) 0.21838(16)
C9 C 0.89930(11) 0.45154(12) 0.16351(16)
C10 C 0.99988(13) 0.41821(14) 0.26898(18)
H6 H 1.0201 0.4453 0.3692
C11 C 1.06988(15) 0.34463(16) 0.2246(2)
H7 H 1.1373 0.3224 0.2952
C12 C 1.04042(14) 0.30399(15) 0.0761(2)
H8 H 1.0875 0.2540 0.0471
C13 C 0.94124(16) 0.33771(15) -0.0289(2)
H9 H 0.9217 0.3109 -0.1292
C14 C 0.87036(13) 0.41127(14) 0.01389(17)
H10 H 0.8034 0.4337 -0.0575
loop_
_geom_bond_atom_site_label_1
_geom_bond_atom_site_label_2
_geom_bond_site_symmetry_1
_geom_bond_site_symmetry_2
S1 S2 1_555 1_555
S2 C8 1_555 1_555
O1 C7 1_555 1_555
O2 C8 1_555 1_555
C1 H1 1_555 1_555
C2 C1 1_555 1_555
H2 C2 1_555 1_555
C3 C2 1_555 1_555
H3 C3 1_555 1_555
C4 C3 1_555 1_555
H4 C4 1_555 1_555
C5 C4 1_555 1_555
H5 C5 1_555 1_555
C6 C1 1_555 1_555
C7 S1 1_555 1_555
C8 C9 1_555 1_555
C9 C10 1_555 1_555
C10 H6 1_555 1_555
C11 C10 1_555 1_555
H7 C11 1_555 1_555
C12 C11 1_555 1_555
H8 C12 1_555 1_555
C13 C12 1_555 1_555
H9 C13 1_555 1_555
C14 C9 1_555 1_555
H10 C14 1_555 1_555
C5 C6 1_555 1_555
C6 C7 1_555 1_555
C13 C14 1_555 1_555

#END
