
#######################################################################
#
#                 Cambridge Crystallographic Data Centre
#                                CCDC 
#
#######################################################################
#
# If this CIF has been generated from an entry in the Cambridge 
# Structural Database, then it will include bibliographic, chemical, 
# crystal, experimental, refinement or atomic coordinate data resulting 
# from the CCDC's data processing and validation procedures.
#
#######################################################################

data_DCLBPH
_chemical_formula_moiety         'C12 Cl10'
_chemical_name_systematic        Decachlorobiphenyl
_symmetry_cell_setting           orthorhombic
_symmetry_space_group_name_H-M   'P b c n'
_symmetry_Int_Tables_number      60
_space_group_name_Hall           '-P 2n 2ab'
loop_
_symmetry_equiv_pos_site_id
_symmetry_equiv_pos_as_xyz
1 x,y,z
2 1/2-x,1/2-y,1/2+z
3 1/2+x,1/2-y,-z
4 -x,y,1/2-z
5 -x,-y,-z
6 1/2+x,1/2+y,1/2-z
7 1/2-x,1/2+y,z
8 x,-y,1/2+z
_cell_length_a                   13.372(2)
_cell_length_b                   10.497(3)
_cell_length_c                   11.992(2)
_cell_angle_alpha                90
_cell_angle_beta                 90
_cell_angle_gamma                90
_cell_volume                     1683.27
_chemical_melting_point          304deg.C
_cell_formula_units_Z            4
loop_
_atom_site_label
_atom_site_type_symbol
_atom_site_fract_x
_atom_site_fract_y
_atom_site_fract_z
Cl1 Cl 0.48260 0.19575 0.08605
Cl2 Cl 0.25270 0.18136 0.04836
Cl3 Cl 0.11231 0.36335 0.17898
Cl4 Cl 0.20081 0.55783 0.34774
Cl5 Cl 0.43045 0.56652 0.38821
C1 C 0.44408 0.37761 0.23821
C2 C 0.40355 0.29423 0.16067
C3 C 0.30046 0.28900 0.14086
C4 C 0.23931 0.36953 0.19985
C5 C 0.27711 0.45545 0.27583
C6 C 0.38055 0.45929 0.29502
C1C C 0.55592 0.37761 0.26179
C2C C 0.59645 0.29423 0.33933
C6C C 0.61945 0.45929 0.20498
Cl1C Cl 0.51740 0.19575 0.41395
C3C C 0.69954 0.28900 0.35914
Cl5C Cl 0.56955 0.56652 0.11179
C5C C 0.72289 0.45545 0.22417
Cl2C Cl 0.74730 0.18136 0.45164
C4C C 0.76069 0.36953 0.30015
Cl4C Cl 0.79919 0.55783 0.15226
Cl3C Cl 0.88769 0.36335 0.32102
loop_
_geom_bond_atom_site_label_1
_geom_bond_atom_site_label_2
_geom_bond_site_symmetry_1
_geom_bond_site_symmetry_2
Cl1 C2 1_555 1_555
Cl2 C3 1_555 1_555
Cl3 C4 1_555 1_555
Cl4 C5 1_555 1_555
Cl5 C6 1_555 1_555
C1 C2 1_555 1_555
C2 C3 1_555 1_555
C3 C4 1_555 1_555
C4 C5 1_555 1_555
C5 C6 1_555 1_555
C6 C1 1_555 1_555
C1C C1 1_555 1_555
C2C C1C 1_555 1_555
C6C C1C 1_555 1_555
Cl1C C2C 1_555 1_555
C3C C2C 1_555 1_555
Cl5C C6C 1_555 1_555
C5C C6C 1_555 1_555
Cl2C C3C 1_555 1_555
C4C C3C 1_555 1_555
Cl4C C5C 1_555 1_555
Cl3C C4C 1_555 1_555
C5C C4C 1_555 1_555

#END
