
#######################################################################
#
#                 Cambridge Crystallographic Data Centre
#                                CCDC 
#
#######################################################################
#
# If this CIF has been generated from an entry in the Cambridge 
# Structural Database, then it will include bibliographic, chemical, 
# crystal, experimental, refinement or atomic coordinate data resulting 
# from the CCDC's data processing and validation procedures.
#
#######################################################################

data_DCPHDS02
_chemical_formula_moiety         'C12 H8 Cl2 S2'
_chemical_name_systematic        'bis(4-chlorophenyl) disulfide'
_symmetry_cell_setting           orthorhombic
_symmetry_space_group_name_H-M   'P b c n'
_symmetry_Int_Tables_number      60
_space_group_name_Hall           '-P 2n 2ab'
loop_
_symmetry_equiv_pos_site_id
_symmetry_equiv_pos_as_xyz
1 x,y,z
2 1/2-x,1/2-y,1/2+z
3 -x,y,1/2-z
4 1/2+x,1/2-y,-z
5 -x,-y,-z
6 1/2+x,1/2+y,1/2-z
7 x,-y,1/2+z
8 1/2-x,1/2+y,z
_cell_length_a                   7.6783(10)
_cell_length_b                   5.9892(8)
_cell_length_c                   27.227(3)
_cell_angle_alpha                90
_cell_angle_beta                 90
_cell_angle_gamma                90
_cell_volume                     1252.08
_exptl_crystal_colour            yellow
_exptl_crystal_description       parallelepiped
_cell_formula_units_Z            4
loop_
_atom_site_label
_atom_site_type_symbol
_atom_site_fract_x
_atom_site_fract_y
_atom_site_fract_z
Cl1 Cl 1.07686(17) 0.8191(2) 0.45549(4)
S1 S 0.89913(11) 0.21196(14) 0.27442(3)
C1 C 1.0346(5) 0.6497(6) 0.40470(12)
C2 C 1.0834(4) 0.7223(5) 0.35879(13)
H1 H 1.1410 0.8579 0.3551
C3 C 1.0462(4) 0.5917(5) 0.31808(11)
H2 H 1.0771 0.6411 0.2869
C4 C 0.9633(4) 0.3882(5) 0.32370(10)
C5 C 0.9171(4) 0.3167(6) 0.37050(13)
H3 H 0.8623 0.1794 0.3745
C6 C 0.9517(5) 0.4475(6) 0.41122(12)
H4 H 0.9197 0.3999 0.4425
Cl1B Cl 0.92314(17) 0.8191(2) 0.04451(4)
S1B S 1.10087(11) 0.21196(14) 0.22558(3)
C1B C 0.9654(5) 0.6497(6) 0.09530(12)
C2B C 0.9166(4) 0.7223(5) 0.14121(13)
H1B H 0.8590 0.8579 0.1449
C3B C 0.9538(4) 0.5917(5) 0.18192(11)
H2B H 0.9229 0.6411 0.2131
C4B C 1.0367(4) 0.3882(5) 0.17630(10)
C5B C 1.0829(4) 0.3167(6) 0.12950(13)
H3B H 1.1377 0.1794 0.1255
C6B C 1.0483(5) 0.4475(6) 0.08878(12)
H4B H 1.0803 0.3999 0.0575
loop_
_geom_bond_atom_site_label_1
_geom_bond_atom_site_label_2
_geom_bond_site_symmetry_1
_geom_bond_site_symmetry_2
Cl1 C1 1_555 1_555
S1 C4 1_555 1_555
C1 C2 1_555 1_555
C2 H1 1_555 1_555
C3 C2 1_555 1_555
H2 C3 1_555 1_555
C4 C3 1_555 1_555
C5 C4 1_555 1_555
H3 C5 1_555 1_555
C6 C1 1_555 1_555
H4 C6 1_555 1_555
Cl1B C1B 1_555 1_555
S1B S1 1_555 1_555
C1B C2B 1_555 1_555
C2B H1B 1_555 1_555
C3B C2B 1_555 1_555
H2B C3B 1_555 1_555
C4B S1B 1_555 1_555
C5B C4B 1_555 1_555
H3B C5B 1_555 1_555
C6B C1B 1_555 1_555
H4B C6B 1_555 1_555
C5 C6 1_555 1_555
C3B C4B 1_555 1_555
C5B C6B 1_555 1_555

#END
