
#######################################################################
#
#                 Cambridge Crystallographic Data Centre
#                                CCDC 
#
#######################################################################
#
# If this CIF has been generated from an entry in the Cambridge 
# Structural Database, then it will include bibliographic, chemical, 
# crystal, experimental, refinement or atomic coordinate data resulting 
# from the CCDC's data processing and validation procedures.
#
#######################################################################

data_DEAMBF
_chemical_formula_moiety         'C8 H20 B2 F4 N2'
_chemical_name_systematic        'Diethylaminoboron difluoride dimer'
_symmetry_cell_setting           tetragonal
_symmetry_space_group_name_H-M   'P 42/n'
_symmetry_Int_Tables_number      86
_space_group_name_Hall           '-P 4bc'
loop_
_symmetry_equiv_pos_site_id
_symmetry_equiv_pos_as_xyz
1 x,y,z
2 -y,1/2+x,1/2+z
3 1/2-x,1/2-y,z
4 1/2+y,-x,1/2+z
5 -x,-y,-z
6 y,1/2-x,1/2-z
7 1/2+x,1/2+y,-z
8 1/2-y,x,1/2-z
_cell_length_a                   14.2(1)
_cell_length_b                   14.2(1)
_cell_length_c                   6.44(1)
_cell_angle_alpha                90
_cell_angle_beta                 90
_cell_angle_gamma                90
_cell_volume                     1298.56
_cell_formula_units_Z            4
loop_
_atom_site_label
_atom_site_type_symbol
_atom_site_fract_x
_atom_site_fract_y
_atom_site_fract_z
B1 B 0.07275 -0.00437 0.06957
C1 C -0.04148 0.11732 0.25807
C2 C 0.02768 0.16077 -0.10481
C3 C -0.12430 0.18592 0.23106
C4 C 0.10415 0.22627 -0.00419
F1 F 0.09056 -0.02683 0.27733
F2 F 0.15570 0.01261 -0.04332
N1 N -0.00415 0.08099 0.04581
N1D N 0.00415 -0.08099 -0.04581
B1D B -0.07275 0.00437 -0.06957
C1D C 0.04148 -0.11732 -0.25807
C2D C -0.02768 -0.16077 0.10481
F1D F -0.09056 0.02683 -0.27733
F2D F -0.15570 -0.01261 0.04332
C3D C 0.12430 -0.18592 -0.23106
C4D C -0.10415 -0.22627 0.00419
loop_
_geom_bond_atom_site_label_1
_geom_bond_atom_site_label_2
_geom_bond_site_symmetry_1
_geom_bond_site_symmetry_2
B1 F1 1_555 1_555
C1 C3 1_555 1_555
C2 C4 1_555 1_555
F2 B1 1_555 1_555
N1 B1 1_555 1_555
N1D B1 1_555 1_555
B1D N1 1_555 1_555
C1D N1D 1_555 1_555
C2D N1D 1_555 1_555
F1D B1D 1_555 1_555
F2D B1D 1_555 1_555
C3D C1D 1_555 1_555
C4D C2D 1_555 1_555
C1 N1 1_555 1_555
C2 N1 1_555 1_555
N1D B1D 1_555 1_555

#END
