
#######################################################################
#
#                 Cambridge Crystallographic Data Centre
#                                CCDC 
#
#######################################################################
#
# If this CIF has been generated from an entry in the Cambridge 
# Structural Database, then it will include bibliographic, chemical, 
# crystal, experimental, refinement or atomic coordinate data resulting 
# from the CCDC's data processing and validation procedures.
#
#######################################################################

data_DEBBAN
_chemical_compound_source        'Pseudopterogorgia americana'
_chemical_formula_moiety         'C30 H50 O4'
_chemical_name_systematic        
\f^5^-9,11-seco-Gorgostene-3\b,11,24\b-triol-9-one
_symmetry_cell_setting           monoclinic
_symmetry_space_group_name_H-M   'P 21'
_symmetry_Int_Tables_number      4
_space_group_name_Hall           'P 2yb'
loop_
_symmetry_equiv_pos_site_id
_symmetry_equiv_pos_as_xyz
1 x,y,z
2 -x,1/2+y,-z
_cell_length_a                   11.260(2)
_cell_length_b                   14.917(2)
_cell_length_c                   17.292(3)
_cell_angle_alpha                90
_cell_angle_beta                 103.84(1)
_cell_angle_gamma                90
_cell_volume                     2820.13
_cell_formula_units_Z            4
loop_
_atom_site_label
_atom_site_type_symbol
_atom_site_fract_x
_atom_site_fract_y
_atom_site_fract_z
C1 C 0.2100(3) 0.5474(3) 0.4058(2)
C2 C 0.2238(3) 0.5116(3) 0.4893(2)
C3 C 0.3161(3) 0.4385(3) 0.5071(2)
O1 O 0.3244(2) 0.4033(2) 0.5856(1)
C4 C 0.4399(3) 0.4704(2) 0.4964(2)
C5 C 0.4281(2) 0.5087(2) 0.4144(2)
C6 C 0.4931(3) 0.4780(2) 0.3646(2)
C7 C 0.4844(3) 0.5136(2) 0.2818(2)
C8 C 0.4292(2) 0.6083(2) 0.2727(1)
C9 C 0.3144(2) 0.5994(2) 0.3015(1)
O2 O 0.2134(2) 0.6016(2) 0.2559(1)
C10 C 0.3311(2) 0.5809(2) 0.3899(1)
C11 C 0.4185(3) 0.8518(2) 0.2456(2)
O3 O 0.4578(2) 0.9202(2) 0.3018(1)
C12 C 0.5280(2) 0.7975(2) 0.2382(1)
C13 C 0.5076(2) 0.7203(2) 0.1777(1)
C14 C 0.4076(2) 0.6545(2) 0.1900(1)
C15 C 0.3821(3) 0.5955(2) 0.1161(2)
C16 C 0.4045(3) 0.6561(2) 0.0496(2)
C17 C 0.4527(2) 0.7468(2) 0.0885(1)
C18 C 0.6311(2) 0.6723(2) 0.1873(2)
C19 C 0.3689(3) 0.6706(2) 0.4347(2)
C20 C 0.5346(2) 0.8006(2) 0.0455(1)
C21 C 0.5329(3) 0.9012(2) 0.0666(2)
C22 C 0.4987(2) 0.7958(2) -0.0452(1)
C23 C 0.5494(2) 0.7342(2) -0.0990(1)
C24 C 0.4646(2) 0.7082(2) -0.1793(2)
O4 O 0.3970(2) 0.7860(2) -0.2150(1)
C25 C 0.5366(3) 0.6754(2) -0.2400(2)
C26 C 0.6337(3) 0.7418(3) -0.2515(2)
C27 C 0.4540(4) 0.6512(3) -0.3208(2)
C28 C 0.5898(3) 0.8294(2) -0.0888(2)
C29 C 0.6420(3) 0.6628(2) -0.0624(2)
C30 C 0.3717(3) 0.6389(3) -0.1670(2)
H1 H 0.1786 0.5005 0.3687
H2 H 0.1531 0.5964 0.3979
H3 H 0.1464 0.4887 0.4945
H4 H 0.2492 0.5594 0.5267
H5 H 0.2902 0.3907 0.4697
H6 H 0.3956(29) 0.4213(36) 0.6111(17)
H7 H 0.4954 0.4206 0.5039
H8 H 0.4711 0.5157 0.5353
H9 H 0.5493 0.4300 0.3829
H10 H 0.5647 0.5156 0.2720
H11 H 0.4334 0.4745 0.2438
H12 H 0.4882 0.6492 0.3030
H13 H 0.3611 0.8139 0.2630
H14 H 0.3802 0.8776 0.1950
H15 H 0.3934(29) 0.9448(29) 0.3104(26)
H16 H 0.5852 0.8382 0.2238
H17 H 0.5632 0.7723 0.2896
H18 H 0.3345 0.6853 0.1940
H19 H 0.4367 0.5451 0.1238
H20 H 0.2991 0.5746 0.1038
H21 H 0.4641 0.6294 0.0252
H22 H 0.3296 0.6651 0.0101
H23 H 0.3899 0.7913 0.0843
H24 H 0.6212 0.6238 0.1499
H25 H 0.6578 0.6490 0.2404
H26 H 0.6910 0.7135 0.1772
H27 H 0.3812 0.6619 0.4910
H28 H 0.3027 0.7118 0.4164
H29 H 0.4421 0.6945 0.4235
H30 H 0.6134 0.7733 0.0638
H31 H 0.5622 0.9074 0.1231
H32 H 0.4505 0.9231 0.0506
H33 H 0.5842 0.9350 0.0403
H34 H 0.4149(15) 0.8112(18) -0.0666(14)
H35 H 0.3262(21) 0.7776(28) -0.2150(28)
H36 H 0.5768 0.6219 -0.2166
H37 H 0.6881 0.7564 -0.2013
H38 H 0.5934 0.7953 -0.2752
H39 H 0.6795 0.7162 -0.2862
H40 H 0.3937 0.6088 -0.3134
H41 H 0.5018 0.6255 -0.3543
H42 H 0.4140 0.7043 -0.3454
H43 H 0.6715 0.8433 -0.0598
H44 H 0.5648 0.8708 -0.1320
H45 H 0.5968 0.6097 -0.0568
H46 H 0.6897 0.6811 -0.0112
H47 H 0.6953 0.6508 -0.0969
H48 H 0.4147 0.5846 -0.1482
H49 H 0.3153 0.6279 -0.2173
H50 H 0.3276 0.6589 -0.1292
C31 C 0.2662(3) 0.1248(3) 0.4715(2)
C32 C 0.2506(3) 0.1807(3) 0.5426(2)
C33 C 0.1380(3) 0.2374(2) 0.5211(2)
O5 O 0.1228(2) 0.2923(2) 0.5866(1)
C34 C 0.0261(3) 0.1798(2) 0.4926(2)
C35 C 0.0397(2) 0.1252(2) 0.4219(2)
C36 C -0.0363(3) 0.1334(2) 0.3512(2)
C37 C -0.0216(3) 0.0880(3) 0.2772(2)
C38 C 0.0564(2) 0.0029(2) 0.2949(2)
C39 C 0.1693(2) 0.0261(2) 0.3580(1)
O6 O 0.2717(2) 0.0124(2) 0.3494(1)
C40 C 0.1531(2) 0.0667(2) 0.4351(2)
C41 C 0.0265(4) -0.2414(2) 0.2671(2)
O7 O 0.0794(3) -0.2049(2) 0.3448(2)
C42 C -0.0619(3) -0.1795(2) 0.2143(2)
C43 C -0.0118(2) -0.1052(2) 0.1697(1)
C44 C 0.0877(2) -0.0472(2) 0.2247(1)
C45 C 0.1410(3) 0.0084(2) 0.1668(2)
C46 C 0.1265(3) -0.0510(2) 0.0918(2)
C47 C 0.0644(2) -0.1376(2) 0.1103(1)
C48 C -0.1214(3) -0.0490(3) 0.1245(2)
C49 C 0.1436(4) -0.0138(3) 0.4896(2)
C50 C 0.0001(2) -0.1946(2) 0.0380(1)
C51 C 0.0001(4) -0.2950(2) 0.0605(2)
C52 C 0.0549(2) -0.1885(2) -0.0336(1)
C53 C 0.0121(2) -0.1299(2) -0.1070(2)
C54 C 0.1058(2) -0.0969(2) -0.1509(2)
O8 O 0.1885(2) -0.1712(3) -0.1531(2)
C55 C 0.0472(3) -0.0690(2) -0.2378(2)
C56 C -0.0297(5) -0.1433(3) -0.2842(2)
C57 C 0.1378(4) -0.0357(4) -0.2833(2)
C58 C -0.0193(3) -0.2277(2) -0.1098(2)
C59 C -0.0930(3) -0.0646(2) -0.1087(2)
C60 C 0.1815(4) -0.0222(4) -0.1054(2)
H51 H 0.2808 0.1647 0.4313
H52 H 0.3355 0.0861 0.4889
H53 H 0.3206 0.2187 0.5597
H54 H 0.2443 0.1412 0.5852
H55 H 0.1480 0.2765 0.4790
H56 H 0.1839(34) 0.3281(26) 0.5971(23)
H57 H -0.0448 0.2174 0.4775
H58 H 0.0172 0.1404 0.5347
H59 H -0.1064 0.1713 0.3471
H60 H -0.1009 0.0723 0.2455
H61 H 0.0172 0.1289 0.2481
H62 H 0.0057 -0.0407 0.3122
H63 H 0.0904 -0.2551 0.2409
H64 H 0.0209(35) -0.2129(42) 0.3679(19)
H65 H -0.1151 -0.2158 0.1750
H66 H -0.1086 -0.1508 0.2471
H67 H 0.1476 -0.0851 0.2581
H68 H 0.0966 0.0634 0.1539
H69 H 0.2257 0.0214 0.1893
H70 H 0.2050 -0.0641 0.0819
H71 H 0.0764 -0.0215 0.0462
H72 H 0.1214 -0.1833 0.1342
H73 H -0.0924 -0.0010 0.0971
H74 H -0.1667 -0.0249 0.1602
H75 H -0.1734 -0.0875 0.0866
H76 H 0.1409 0.0054 0.5421
H77 H 0.2142 -0.0508 0.4926
H78 H 0.0711 -0.0474 0.4666
H79 H -0.0808 -0.1698 0.0233
H80 H -0.0328 -0.3089 0.1053
H81 H 0.0842 -0.3133 0.0714
H82 H -0.0456 -0.3260 0.0144
H83 H 0.1381(16) -0.2005(20) -0.0238(16)
H84 H 0.1743(44) -0.2041(24) -0.1170(27)
H85 H -0.0044 -0.0192 -0.2328
H86 H -0.0979 -0.1621 -0.2639
H87 H 0.0248 -0.1928 -0.2833
H88 H -0.0587 -0.1224 -0.3379
H89 H 0.1813 0.0150 -0.2561
H90 H 0.0942 -0.0181 -0.3357
H91 H 0.1949 -0.0823 -0.2870
H92 H 0.0182 -0.2681 -0.1400
H93 H -0.1021 -0.2460 -0.1134
H94 H -0.1370 -0.0831 -0.0702
H95 H -0.1479 -0.0623 -0.1604
H96 H -0.0585 -0.0063 -0.0948
H97 H 0.1274 0.0282 -0.1092
H98 H 0.2478 -0.0071 -0.1290
H99 H 0.2133 -0.0374 -0.0504
loop_
_geom_bond_atom_site_label_1
_geom_bond_atom_site_label_2
_geom_bond_site_symmetry_1
_geom_bond_site_symmetry_2
C1 C2 1_555 1_555
C2 C3 1_555 1_555
C3 O1 1_555 1_555
O1 H6 1_555 1_555
C4 C3 1_555 1_555
C5 C4 1_555 1_555
C6 C5 1_555 1_555
C7 C6 1_555 1_555
C8 C7 1_555 1_555
C9 C8 1_555 1_555
O2 C9 1_555 1_555
C10 C1 1_555 1_555
C11 O3 1_555 1_555
O3 H15 1_555 1_555
C12 C11 1_555 1_555
C13 C12 1_555 1_555
C14 C8 1_555 1_555
C15 C14 1_555 1_555
C16 C15 1_555 1_555
C17 C13 1_555 1_555
C18 C13 1_555 1_555
C19 C10 1_555 1_555
C20 C17 1_555 1_555
C21 C20 1_555 1_555
C22 C20 1_555 1_555
C23 C22 1_555 1_555
C24 C23 1_555 1_555
O4 C24 1_555 1_555
C25 C24 1_555 1_555
C26 C25 1_555 1_555
C27 C25 1_555 1_555
C28 C22 1_555 1_555
C29 C23 1_555 1_555
C30 C24 1_555 1_555
H1 C1 1_555 1_555
H2 C1 1_555 1_555
H3 C2 1_555 1_555
H4 C2 1_555 1_555
H5 C3 1_555 1_555
H7 C4 1_555 1_555
H8 C4 1_555 1_555
H9 C6 1_555 1_555
H10 C7 1_555 1_555
H11 C7 1_555 1_555
H12 C8 1_555 1_555
H13 C11 1_555 1_555
H14 C11 1_555 1_555
H16 C12 1_555 1_555
H17 C12 1_555 1_555
H18 C14 1_555 1_555
H19 C15 1_555 1_555
H20 C15 1_555 1_555
H21 C16 1_555 1_555
H22 C16 1_555 1_555
H23 C17 1_555 1_555
H24 C18 1_555 1_555
H25 C18 1_555 1_555
H26 C18 1_555 1_555
H27 C19 1_555 1_555
H28 C19 1_555 1_555
H29 C19 1_555 1_555
H30 C20 1_555 1_555
H31 C21 1_555 1_555
H32 C21 1_555 1_555
H33 C21 1_555 1_555
H34 C22 1_555 1_555
H35 O4 1_555 1_555
H36 C25 1_555 1_555
H37 C26 1_555 1_555
H38 C26 1_555 1_555
H39 C26 1_555 1_555
H40 C27 1_555 1_555
H41 C27 1_555 1_555
H42 C27 1_555 1_555
H43 C28 1_555 1_555
H44 C28 1_555 1_555
H45 C29 1_555 1_555
H46 C29 1_555 1_555
H47 C29 1_555 1_555
H48 C30 1_555 1_555
H49 C30 1_555 1_555
H50 C30 1_555 1_555
C31 C32 1_555 1_555
C32 C33 1_555 1_555
C33 O5 1_555 1_555
O5 H56 1_555 1_555
C34 C33 1_555 1_555
C35 C34 1_555 1_555
C36 C35 1_555 1_555
C37 C36 1_555 1_555
C38 C37 1_555 1_555
C39 C38 1_555 1_555
O6 C39 1_555 1_555
C40 C31 1_555 1_555
C41 O7 1_555 1_555
O7 H64 1_555 1_555
C42 C41 1_555 1_555
C43 C42 1_555 1_555
C44 C38 1_555 1_555
C45 C44 1_555 1_555
C46 C45 1_555 1_555
C47 C43 1_555 1_555
C48 C43 1_555 1_555
C49 C40 1_555 1_555
C50 C47 1_555 1_555
C51 C50 1_555 1_555
C52 C50 1_555 1_555
C53 C52 1_555 1_555
C54 C53 1_555 1_555
O8 C54 1_555 1_555
C55 C54 1_555 1_555
C56 C55 1_555 1_555
C57 C55 1_555 1_555
C58 C52 1_555 1_555
C59 C53 1_555 1_555
C60 C54 1_555 1_555
H51 C31 1_555 1_555
H52 C31 1_555 1_555
H53 C32 1_555 1_555
H54 C32 1_555 1_555
H55 C33 1_555 1_555
H57 C34 1_555 1_555
H58 C34 1_555 1_555
H59 C36 1_555 1_555
H60 C37 1_555 1_555
H61 C37 1_555 1_555
H62 C38 1_555 1_555
H63 C41 1_555 1_555
H65 C42 1_555 1_555
H66 C42 1_555 1_555
H67 C44 1_555 1_555
H68 C45 1_555 1_555
H69 C45 1_555 1_555
H70 C46 1_555 1_555
H71 C46 1_555 1_555
H72 C47 1_555 1_555
H73 C48 1_555 1_555
H74 C48 1_555 1_555
H75 C48 1_555 1_555
H76 C49 1_555 1_555
H77 C49 1_555 1_555
H78 C49 1_555 1_555
H79 C50 1_555 1_555
H80 C51 1_555 1_555
H81 C51 1_555 1_555
H82 C51 1_555 1_555
H83 C52 1_555 1_555
H84 O8 1_555 1_555
H85 C55 1_555 1_555
H86 C56 1_555 1_555
H87 C56 1_555 1_555
H88 C56 1_555 1_555
H89 C57 1_555 1_555
H90 C57 1_555 1_555
H91 C57 1_555 1_555
H92 C58 1_555 1_555
H93 C58 1_555 1_555
H94 C59 1_555 1_555
H95 C59 1_555 1_555
H96 C59 1_555 1_555
H97 C60 1_555 1_555
H98 C60 1_555 1_555
H99 C60 1_555 1_555
C5 C10 1_555 1_555
C9 C10 1_555 1_555
C13 C14 1_555 1_555
C16 C17 1_555 1_555
C23 C28 1_555 1_555
C35 C40 1_555 1_555
C39 C40 1_555 1_555
C43 C44 1_555 1_555
C46 C47 1_555 1_555
C53 C58 1_555 1_555

#END
