
#######################################################################
#
#                 Cambridge Crystallographic Data Centre
#                                CCDC 
#
#######################################################################
#
# If this CIF has been generated from an entry in the Cambridge 
# Structural Database, then it will include bibliographic, chemical, 
# crystal, experimental, refinement or atomic coordinate data resulting 
# from the CCDC's data processing and validation procedures.
#
#######################################################################

data_DEBFEY
_chemical_formula_moiety         'C21 H28 O3'
_chemical_name_systematic        
10,17-dihydroxy-7-methyl-19-norpregn-4-en-20-yn-3-one
_symmetry_cell_setting           monoclinic
_symmetry_space_group_name_H-M   'P 21'
_symmetry_Int_Tables_number      4
_space_group_name_Hall           'P 2yb'
loop_
_symmetry_equiv_pos_site_id
_symmetry_equiv_pos_as_xyz
1 x,y,z
2 -x,1/2+y,-z
_cell_length_a                   6.47080(10)
_cell_length_b                   20.0417(4)
_cell_length_c                   7.2325(2)
_cell_angle_alpha                90
_cell_angle_beta                 107.4890(10)
_cell_angle_gamma                90
_cell_volume                     894.596
_exptl_crystal_colour            colorless
_exptl_crystal_description       prismatic
_cell_formula_units_Z            2
loop_
_atom_site_label
_atom_site_type_symbol
_atom_site_fract_x
_atom_site_fract_y
_atom_site_fract_z
O1 O -0.1230(4) 0.73979(11) 0.6927(4)
O2 O 0.3643(4) 0.60727(10) 0.4097(3)
H1 H 0.3736 0.6480 0.4034
O3 O 0.5565(3) 0.25950(10) 0.5739(3)
H2 H 0.4359 0.2557 0.4951
C1 C 0.0029(5) 0.59967(14) 0.4450(4)
H3 H -0.0751 0.5733 0.5146
H4 H -0.0347 0.5829 0.3132
C2 C -0.0704(5) 0.67219(15) 0.4403(5)
H5 H -0.0050 0.6982 0.3594
H6 H -0.2265 0.6746 0.3847
C3 C -0.0059(5) 0.70061(13) 0.6408(5)
C4 C 0.2068(5) 0.68157(14) 0.7659(4)
H7 H 0.2605 0.7035 0.8840
C5 C 0.3301(5) 0.63436(12) 0.7213(4)
C6 C 0.5600(5) 0.62243(13) 0.8355(5)
H8 H 0.5946 0.6494 0.9521
H9 H 0.6527 0.6368 0.7598
C7 C 0.6094(5) 0.54916(14) 0.8930(4)
H10 H 0.7670 0.5446 0.9468
C8 C 0.5353(4) 0.50490(12) 0.7099(4)
H11 H 0.6209 0.5169 0.6237
C9 C 0.2946(4) 0.51644(12) 0.6005(4)
H12 H 0.2143 0.5063 0.6924
C10 C 0.2452(4) 0.59054(12) 0.5406(4)
C11 C 0.2086(4) 0.46844(12) 0.4290(4)
H13 H 0.0539 0.4752 0.3729
H14 H 0.2774 0.4786 0.3302
C12 C 0.2513(4) 0.39514(12) 0.4896(4)
H15 H 0.1703 0.3834 0.5780
H16 H 0.2017 0.3668 0.3760
C13 C 0.4917(4) 0.38302(12) 0.5877(4)
C14 C 0.5716(4) 0.43097(12) 0.7603(4)
H17 H 0.4840 0.4211 0.8464
C15 C 0.8015(5) 0.40559(15) 0.8665(5)
H18 H 0.8381 0.4141 1.0046
H19 H 0.9082 0.4271 0.8167
C16 C 0.7914(5) 0.32985(14) 0.8247(5)
H20 H 0.8947 0.3177 0.7572
H21 H 0.8241 0.3047 0.9446
C17 C 0.5583(4) 0.31569(13) 0.6971(4)
C18 C 0.6178(5) 0.39053(14) 0.4390(4)
H22 H 0.5559 0.3617 0.3306
H23 H 0.7667 0.3787 0.4986
H24 H 0.6093 0.4360 0.3952
C19 C 0.5093(7) 0.53028(19) 1.0513(4)
H25 H 0.5597 0.5604 1.1586
H26 H 0.5508 0.4856 1.0941
H27 H 0.3543 0.5330 1.0011
C20 C 0.4223(4) 0.30063(12) 0.8253(4)
C21 C 0.3287(5) 0.28863(16) 0.9385(5)
H28 H 0.2550 0.2792 1.0277
loop_
_geom_bond_atom_site_label_1
_geom_bond_atom_site_label_2
_geom_bond_site_symmetry_1
_geom_bond_site_symmetry_2
O1 C3 1_555 1_555
O2 H1 1_555 1_555
O3 H2 1_555 1_555
C1 H3 1_555 1_555
H4 C1 1_555 1_555
C2 C1 1_555 1_555
H5 C2 1_555 1_555
H6 C2 1_555 1_555
C3 C2 1_555 1_555
C4 C3 1_555 1_555
H7 C4 1_555 1_555
C5 C4 1_555 1_555
C6 C5 1_555 1_555
H8 C6 1_555 1_555
H9 C6 1_555 1_555
C7 C6 1_555 1_555
H10 C7 1_555 1_555
C8 C7 1_555 1_555
H11 C8 1_555 1_555
C9 C8 1_555 1_555
H12 C9 1_555 1_555
C10 O2 1_555 1_555
C11 C9 1_555 1_555
H13 C11 1_555 1_555
H14 C11 1_555 1_555
C12 C11 1_555 1_555
H15 C12 1_555 1_555
H16 C12 1_555 1_555
C13 C12 1_555 1_555
C14 C8 1_555 1_555
H17 C14 1_555 1_555
C15 C14 1_555 1_555
H18 C15 1_555 1_555
H19 C15 1_555 1_555
C16 C15 1_555 1_555
H20 C16 1_555 1_555
H21 C16 1_555 1_555
C17 O3 1_555 1_555
C18 C13 1_555 1_555
H22 C18 1_555 1_555
H23 C18 1_555 1_555
H24 C18 1_555 1_555
C19 C7 1_555 1_555
H25 C19 1_555 1_555
H26 C19 1_555 1_555
H27 C19 1_555 1_555
C20 C17 1_555 1_555
C21 C20 1_555 1_555
H28 C21 1_555 1_555
C1 C10 1_555 1_555
C5 C10 1_555 1_555
C9 C10 1_555 1_555
C13 C14 1_555 1_555
C13 C17 1_555 1_555
C16 C17 1_555 1_555

#END
