
#######################################################################
#
#                 Cambridge Crystallographic Data Centre
#                                CCDC 
#
#######################################################################
#
# If this CIF has been generated from an entry in the Cambridge 
# Structural Database, then it will include bibliographic, chemical, 
# crystal, experimental, refinement or atomic coordinate data resulting 
# from the CCDC's data processing and validation procedures.
#
#######################################################################

data_DEBGOJ
_chemical_formula_moiety         'C14 H16 O4'
_chemical_name_systematic        
'5-oxo-4-phenyl-2-propyloxolane-3-carboxylic acid'
_symmetry_cell_setting           monoclinic
_symmetry_space_group_name_H-M   'P 21/c'
_symmetry_Int_Tables_number      14
_space_group_name_Hall           '-P 2ybc'
loop_
_symmetry_equiv_pos_site_id
_symmetry_equiv_pos_as_xyz
1 x,y,z
2 -x,1/2+y,1/2-z
3 -x,-y,-z
4 x,1/2-y,1/2+z
_cell_length_a                   8.22602(16)
_cell_length_b                   15.4712(3)
_cell_length_c                   10.0483(2)
_cell_angle_alpha                90
_cell_angle_beta                 103.364(2)
_cell_angle_gamma                90
_cell_volume                     1244.18
_exptl_crystal_colour            colorless
_exptl_crystal_description       prism
_cell_formula_units_Z            4
loop_
_atom_site_label
_atom_site_type_symbol
_atom_site_fract_x
_atom_site_fract_y
_atom_site_fract_z
O1 O 0.90858(9) 0.50137(5) 0.31929(8)
O2 O 0.51952(10) 0.59844(6) 0.50150(8)
O3 O 1.10409(9) 0.60097(6) 0.39208(9)
O4 O 0.37274(10) 0.57271(6) 0.28815(9)
C1 C 0.83294(13) 0.72329(7) 0.41279(11)
C2 C 0.51332(13) 0.58611(7) 0.38215(12)
C3 C 0.74955(14) 0.77364(8) 0.30331(12)
C4 C 0.81782(13) 0.62597(7) 0.41408(11)
C5 C 0.72690(13) 0.49036(7) 0.30701(12)
C6 C 0.96014(13) 0.57771(7) 0.37495(11)
C7 C 0.65271(14) 0.44626(8) 0.17287(12)
C8 C 0.93446(15) 0.76423(8) 0.52540(12)
C9 C 0.66568(13) 0.58343(7) 0.32153(11)
C10 C 0.86690(16) 0.90307(8) 0.41981(13)
C11 C 0.76689(15) 0.86304(8) 0.30706(12)
C12 C 0.95128(16) 0.85340(9) 0.52880(13)
C13 C 0.70604(16) 0.35209(8) 0.16706(13)
C14 C 0.62479(19) 0.30990(9) 0.03106(14)
H1 H 0.6378(16) 0.6092(8) 0.2330(14)
H2 H 0.7151(15) 0.4550(8) 0.3857(13)
H3 H 0.6831(16) 0.4786(9) 0.0983(14)
H4 H 0.8220(17) 0.6067(9) 0.5071(15)
H5 H 0.5302(18) 0.4496(9) 0.1609(14)
H6 H 0.6781(18) 0.7481(10) 0.2232(15)
H7 H 0.8773(18) 0.9664(11) 0.4209(15)
H8 H 0.6774(19) 0.3200(10) 0.2435(16)
H9 H 0.9923(19) 0.7297(10) 0.6013(16)
H10 H 0.830(2) 0.3497(10) 0.1836(15)
H11 H 0.7055(18) 0.8969(10) 0.2313(16)
H12 H 0.500(2) 0.3099(11) 0.0167(16)
H13 H 0.653(2) 0.3426(11) -0.0432(18)
H14 H 0.288(2) 0.5767(12) 0.3302(19)
H15 H 1.027(2) 0.8799(11) 0.6077(17)
H16 H 0.663(2) 0.2496(12) 0.0267(17)
loop_
_geom_bond_atom_site_label_1
_geom_bond_atom_site_label_2
_geom_bond_site_symmetry_1
_geom_bond_site_symmetry_2
O1 C5 1_555 1_555
O2 C2 1_555 1_555
O3 C6 1_555 1_555
O4 C2 1_555 1_555
C1 C3 1_555 1_555
C2 C9 1_555 1_555
C3 C11 1_555 1_555
C4 C1 1_555 1_555
C5 C7 1_555 1_555
C6 O1 1_555 1_555
C7 C13 1_555 1_555
C8 C1 1_555 1_555
C9 C4 1_555 1_555
C10 C11 1_555 1_555
C11 H11 1_555 1_555
C12 C8 1_555 1_555
C13 C14 1_555 1_555
C14 H12 1_555 1_555
H1 C9 1_555 1_555
H2 C5 1_555 1_555
H3 C7 1_555 1_555
H4 C4 1_555 1_555
H5 C7 1_555 1_555
H6 C3 1_555 1_555
H7 C10 1_555 1_555
H8 C13 1_555 1_555
H9 C8 1_555 1_555
H10 C13 1_555 1_555
H13 C14 1_555 1_555
H14 O4 1_555 1_555
H15 C12 1_555 1_555
H16 C14 1_555 1_555
C4 C6 1_555 1_555
C5 C9 1_555 1_555
C10 C12 1_555 1_555

#END
