
#######################################################################
#
#                 Cambridge Crystallographic Data Centre
#                                CCDC 
#
#######################################################################
#
# If this CIF has been generated from an entry in the Cambridge 
# Structural Database, then it will include bibliographic, chemical, 
# crystal, experimental, refinement or atomic coordinate data resulting 
# from the CCDC's data processing and validation procedures.
#
#######################################################################

data_DEBHEA
_chemical_formula_moiety         'C15 H14 O5'
_chemical_name_systematic        
'dimethyl 6-phenyl-2-oxabicyclo[3.1.0]hex-3-ene-3,6-dicarboxylate'
_symmetry_cell_setting           monoclinic
_symmetry_space_group_name_H-M   'P 21'
_symmetry_Int_Tables_number      4
_space_group_name_Hall           'P 2yb'
loop_
_symmetry_equiv_pos_site_id
_symmetry_equiv_pos_as_xyz
1 x,y,z
2 -x,1/2+y,-z
_cell_length_a                   9.82867(19)
_cell_length_b                   6.11703(12)
_cell_length_c                   11.6406(2)
_cell_angle_alpha                90
_cell_angle_beta                 100.4716(19)
_cell_angle_gamma                90
_cell_volume                     688.203
_cell_formula_units_Z            2
loop_
_atom_site_label
_atom_site_type_symbol
_atom_site_fract_x
_atom_site_fract_y
_atom_site_fract_z
O1 O 0.97472(9) 0.62018(16) 0.60239(8)
O2 O 0.56672(10) 0.28591(18) 0.67516(8)
O3 O 1.29182(10) 0.54557(18) 0.80128(10)
O4 O 1.19985(10) 0.85806(19) 0.71964(9)
O5 O 0.64386(11) 0.1719(2) 0.51506(9)
C1 C 0.79399(14) 0.3788(2) 0.65938(12)
C2 C 0.79947(13) 0.5105(2) 0.76835(11)
C3 C 0.74866(15) 0.7231(2) 0.75980(13)
H1 H 0.7159 0.7831 0.6866
C4 C 0.85141(15) 0.4251(3) 0.87840(12)
H2 H 0.8874 0.2842 0.8853
C5 C 0.79696(16) 0.7591(3) 0.96823(14)
H3 H 0.7955 0.8416 1.0351
C6 C 1.07764(14) 0.5220(3) 0.68246(12)
C7 C 1.19337(14) 0.6641(3) 0.73440(12)
C8 C 0.74624(15) 0.8464(3) 0.85899(14)
H4 H 0.7106 0.9876 0.8524
C9 C 1.05564(14) 0.3115(2) 0.70130(12)
H5 H 1.1154 0.2191 0.7500
C10 C 0.84974(15) 0.5492(3) 0.97761(13)
H6 H 0.8843 0.4910 1.0509
C11 C 0.92083(15) 0.2498(3) 0.63204(12)
H7 H 0.9083 0.1076 0.5928
C12 C 1.41479(17) 0.6652(4) 0.85241(18)
H8 H 1.4534 0.7346 0.7917
H9 H 1.4814 0.5662 0.8948
H10 H 1.3912 0.7744 0.9047
C13 C 0.87412(15) 0.4558(3) 0.56656(12)
H11 H 0.8306 0.4463 0.4840
C14 C 0.66236(14) 0.2689(2) 0.60755(12)
C15 C 0.43474(16) 0.1842(3) 0.62976(15)
H12 H 0.3896 0.2631 0.5622
H13 H 0.3777 0.1867 0.6885
H14 H 0.4495 0.0356 0.6085
loop_
_geom_bond_atom_site_label_1
_geom_bond_atom_site_label_2
_geom_bond_site_symmetry_1
_geom_bond_site_symmetry_2
O1 C6 1_555 1_555
O2 C14 1_555 1_555
O3 C7 1_555 1_555
O4 C7 1_555 1_555
O5 C14 1_555 1_555
C1 C2 1_555 1_555
C2 C3 1_555 1_555
C3 H1 1_555 1_555
C4 C2 1_555 1_555
H2 C4 1_555 1_555
C5 H3 1_555 1_555
C6 C7 1_555 1_555
C8 C3 1_555 1_555
H4 C8 1_555 1_555
C9 C6 1_555 1_555
H5 C9 1_555 1_555
C10 C4 1_555 1_555
H6 C10 1_555 1_555
C11 C1 1_555 1_555
H7 C11 1_555 1_555
C12 O3 1_555 1_555
H8 C12 1_555 1_555
H9 C12 1_555 1_555
H10 C12 1_555 1_555
C13 O1 1_555 1_555
H11 C13 1_555 1_555
C14 C1 1_555 1_555
C15 O2 1_555 1_555
H12 C15 1_555 1_555
H13 C15 1_555 1_555
H14 C15 1_555 1_555
C1 C13 1_555 1_555
C5 C8 1_555 1_555
C5 C10 1_555 1_555
C9 C11 1_555 1_555
C11 C13 1_555 1_555

#END
