
#######################################################################
#
#                 Cambridge Crystallographic Data Centre
#                                CCDC 
#
#######################################################################
#
# If this CIF has been generated from an entry in the Cambridge 
# Structural Database, then it will include bibliographic, chemical, 
# crystal, experimental, refinement or atomic coordinate data resulting 
# from the CCDC's data processing and validation procedures.
#
#######################################################################

data_DEBKAZ
_chemical_formula_moiety         'C23 H23 Br1 O3'
_chemical_name_systematic        
'2-methylpropyl 2-[5-(4-bromophenyl)-3-phenyl-2,3-dihydrofuran-2-yl]prop-2-enoate'
_symmetry_cell_setting           monoclinic
_symmetry_space_group_name_H-M   'P 21'
_symmetry_Int_Tables_number      4
_space_group_name_Hall           'P 2yb'
loop_
_symmetry_equiv_pos_site_id
_symmetry_equiv_pos_as_xyz
1 x,y,z
2 -x,1/2+y,-z
_cell_length_a                   5.5574(2)
_cell_length_b                   11.2786(4)
_cell_length_c                   16.5421(6)
_cell_angle_alpha                90
_cell_angle_beta                 99.2570(10)
_cell_angle_gamma                90
_cell_volume                     1023.35
_exptl_crystal_colour            colorless
_exptl_crystal_description       block
_cell_formula_units_Z            2
loop_
_atom_site_label
_atom_site_type_symbol
_atom_site_fract_x
_atom_site_fract_y
_atom_site_fract_z
Br1 Br -0.59891(8) 0.94697(5) -0.00075(3)
O1 O -0.0340(7) 0.5373(4) 0.2698(2)
O2 O 0.4897(13) 0.3474(4) 0.4280(4)
C1 C 0.5034(12) 0.4552(8) 0.4272(4)
C2 C 0.3315(11) 0.5306(5) 0.3721(3)
C3 C 0.3363(14) 0.6464(5) 0.3773(4)
H1 H 0.452513 0.684398 0.417360
H2 H 0.223526 0.692521 0.340964
C4 C 0.1551(9) 0.4616(6) 0.3104(3)
H3 H 0.080764 0.396370 0.339037
C5 C 0.2851(9) 0.4079(5) 0.2421(3)
H4 H 0.465864 0.409948 0.259521
C6 C 0.2095(10) 0.4984(5) 0.1755(3)
H5 H 0.281871 0.507415 0.127645
C7 C 0.0272(10) 0.5635(5) 0.1939(3)
C8 C 0.2039(9) 0.2833(5) 0.2157(3)
C9 C 0.3559(11) 0.1879(6) 0.2341(5)
H6 H 0.515126 0.199937 0.263722
C10 C 0.2804(14) 0.0737(7) 0.2101(6)
H7 H 0.386893 0.008448 0.224348
C11 C 0.0539(13) 0.0552(6) 0.1661(5)
H8 H 0.005742 -0.022276 0.147653
C12 C -0.1015(11) 0.1467(6) 0.1487(4)
H9 H -0.261041 0.133205 0.119702
C13 C -0.0275(11) 0.2625(6) 0.1735(3)
H10 H -0.137734 0.326792 0.161083
C14 C -0.1202(10) 0.6564(5) 0.1481(3)
C15 C -0.0726(9) 0.6929(5) 0.0708(3)
H11 H 0.058515 0.658243 0.048673
C16 C -0.2143(10) 0.7782(5) 0.0271(3)
H12 H -0.180280 0.803118 -0.024745
C17 C -0.4062(9) 0.8276(5) 0.0587(3)
C18 C -0.4619(10) 0.7916(5) 0.1338(3)
H13 H -0.596503 0.825210 0.154476
C19 C -0.3173(9) 0.7056(4) 0.1784(3)
H14 H -0.353638 0.680281 0.229863
O3 O 0.701(4) 0.512(3) 0.4677(16)
C20 C 1.150(4) 0.429(3) 0.6505(12)
H15 H 1.311284 0.458853 0.643951
H16 H 1.131363 0.347240 0.631220
H17 H 1.132158 0.432651 0.708516
C21 C 0.953(2) 0.5066(14) 0.6005(8)
H18 H 0.807735 0.513041 0.628787
C22 C 1.050(13) 0.630(3) 0.584(4)
H19 H 1.096660 0.671342 0.636554
H20 H 0.922066 0.674850 0.549645
H21 H 1.191935 0.622077 0.556656
C23 C 0.886(4) 0.443(3) 0.5187(10)
H22 H 1.031376 0.434820 0.491737
H23 H 0.822293 0.362907 0.527473
O4? O 0.637(5) 0.515(3) 0.4841(18)
C24? C 1.234(4) 0.431(3) 0.6217(13)
H24? H 1.217895 0.449960 0.678420
H25? H 1.401635 0.448047 0.613212
H26? H 1.198049 0.347219 0.610948
C25? C 1.056(3) 0.5076(16) 0.5631(9)
H27? H 1.121261 0.518122 0.510672
C26? C 1.009(15) 0.630(3) 0.598(5)
H28? H 0.850699 0.660393 0.570623
H29? H 1.137945 0.685074 0.588251
H30? H 1.007022 0.623705 0.656832
C27? C 0.807(4) 0.450(3) 0.5446(13)
H31? H 0.825702 0.368528 0.524328
H32? H 0.737741 0.444131 0.595994
loop_
_geom_bond_atom_site_label_1
_geom_bond_atom_site_label_2
_geom_bond_site_symmetry_1
_geom_bond_site_symmetry_2
Br1 C17 1_555 1_555
O1 C4 1_555 1_555
O2 C1 1_555 1_555
C1 C2 1_555 1_555
C2 C3 1_555 1_555
C3 H1 1_555 1_555
H2 C3 1_555 1_555
C4 C2 1_555 1_555
H3 C4 1_555 1_555
C5 C4 1_555 1_555
H4 C5 1_555 1_555
C6 C5 1_555 1_555
H5 C6 1_555 1_555
C7 O1 1_555 1_555
C8 C5 1_555 1_555
C9 C8 1_555 1_555
H6 C9 1_555 1_555
C10 C9 1_555 1_555
H7 C10 1_555 1_555
C11 C10 1_555 1_555
H8 C11 1_555 1_555
C12 C11 1_555 1_555
H9 C12 1_555 1_555
C13 C8 1_555 1_555
H10 C13 1_555 1_555
C14 C7 1_555 1_555
C15 C14 1_555 1_555
H11 C15 1_555 1_555
C16 C15 1_555 1_555
H12 C16 1_555 1_555
C17 C16 1_555 1_555
C18 C17 1_555 1_555
H13 C18 1_555 1_555
C19 C14 1_555 1_555
H14 C19 1_555 1_555
O3 C1 1_555 1_555
C20 H15 1_555 1_555
H16 C20 1_555 1_555
H17 C20 1_555 1_555
C21 C20 1_555 1_555
H18 C21 1_555 1_555
C22 C21 1_555 1_555
H19 C22 1_555 1_555
H20 C22 1_555 1_555
H21 C22 1_555 1_555
C23 O3 1_555 1_555
H22 C23 1_555 1_555
H23 C23 1_555 1_555
C6 C7 1_555 1_555
C12 C13 1_555 1_555
C18 C19 1_555 1_555
C21 C23 1_555 1_555

#END
