
#######################################################################
#
#                 Cambridge Crystallographic Data Centre
#                                CCDC 
#
#######################################################################
#
# If this CIF has been generated from an entry in the Cambridge 
# Structural Database, then it will include bibliographic, chemical, 
# crystal, experimental, refinement or atomic coordinate data resulting 
# from the CCDC's data processing and validation procedures.
#
#######################################################################

data_DEBLUU
_chemical_formula_moiety         'C37 H26 O2 S1'
_chemical_name_systematic        
'2-(9,9-dimethyl-9H-fluoren-2-yl)-8-(naphthalen-1-yl)-5H-5\l^6^-dibenzo[b,d]thiophene-5,5-dione unknown solvate'
_symmetry_cell_setting           orthorhombic
_symmetry_space_group_name_H-M   'P b c n'
_symmetry_Int_Tables_number      60
_space_group_name_Hall           '-P 2n 2ab'
loop_
_symmetry_equiv_pos_site_id
_symmetry_equiv_pos_as_xyz
1 x,y,z
2 1/2-x,1/2-y,1/2+z
3 -x,y,1/2-z
4 1/2+x,1/2-y,-z
5 -x,-y,-z
6 1/2+x,1/2+y,1/2-z
7 x,-y,1/2+z
8 1/2-x,1/2+y,z
_cell_length_a                   13.7489(6)
_cell_length_b                   12.7062(5)
_cell_length_c                   34.5595(14)
_cell_angle_alpha                90
_cell_angle_beta                 90
_cell_angle_gamma                90
_cell_volume                     6037.42
_exptl_crystal_colour            colorless
_exptl_crystal_description       block
_cell_formula_units_Z            8
loop_
_atom_site_label
_atom_site_type_symbol
_atom_site_fract_x
_atom_site_fract_y
_atom_site_fract_z
S1 S 0.34816(6) 0.72527(5) 0.21474(2)
O1 O 0.25389(18) 0.77081(17) 0.21845(6)
O2 O 0.42983(18) 0.79448(14) 0.21171(6)
C1 C 0.42809(19) 0.0072(2) 0.36147(7)
C2 C 0.4465(2) -0.0956(2) 0.37147(9)
H1 H 0.4817 -0.1391 0.3550
C3 C 0.4120(3) -0.1334(3) 0.40630(11)
H2 H 0.4241 -0.2028 0.4133
C4 C 0.3604(2) -0.0696(3) 0.43055(9)
H3 H 0.3383 -0.0964 0.4540
C5 C 0.3400(2) 0.0338(2) 0.42104(8)
H4 H 0.3044 0.0766 0.4377
C6 C 0.37432(19) 0.0717(2) 0.38610(7)
C7 C 0.36567(18) 0.1763(2) 0.36827(7)
C8 C 0.32148(19) 0.2677(2) 0.38045(8)
H5 H 0.2893 0.2697 0.4041
C9 C 0.32510(19) 0.3559(2) 0.35751(7)
H6 H 0.2943 0.4171 0.3658
C10 C 0.37394(18) 0.35623(19) 0.32196(7)
C11 C 0.41880(17) 0.26294(18) 0.31019(7)
H7 H 0.4517 0.2608 0.2867
C12 C 0.41497(18) 0.17424(19) 0.33286(7)
C13 C 0.45759(19) 0.06561(19) 0.32512(7)
C14 C 0.56887(19) 0.0703(2) 0.32108(8)
H8 H 0.5963 0.1017 0.3439
H9 H 0.5857 0.1119 0.2989
H10 H 0.5941 0.0004 0.3180
C15 C 0.4105(2) 0.0157(2) 0.28936(7)
H11 H 0.4388 -0.0522 0.2848
H12 H 0.4213 0.0600 0.2673
H13 H 0.3418 0.0082 0.2936
C16 C 0.37462(17) 0.45105(19) 0.29710(7)
C17 C 0.3752(2) 0.5528(2) 0.31267(8)
H14 H 0.3798 0.5609 0.3393
C18 C 0.3691(2) 0.6408(2) 0.28977(8)
H15 H 0.3686 0.7078 0.3006
C19 C 0.36373(18) 0.62719(18) 0.25009(8)
C20 C 0.34734(18) 0.63361(18) 0.17681(7)
C21 C 0.3377(2) 0.6559(2) 0.13794(8)
H16 H 0.3333 0.7250 0.1293
C22 C 0.3349(2) 0.5730(2) 0.11242(8)
H17 H 0.3284 0.5864 0.0861
C23 C 0.34156(18) 0.46903(19) 0.12518(7)
C24 C 0.35258(17) 0.44911(19) 0.16456(7)
H18 H 0.3580 0.3801 0.1733
C25 C 0.35544(17) 0.53127(18) 0.19065(7)
C26 C 0.36494(17) 0.52805(18) 0.23331(7)
C27 C 0.37102(17) 0.44020(18) 0.25688(7)
H19 H 0.3727 0.3734 0.2459
C28 C 0.26532(19) 0.36658(19) 0.06924(7)
C29 C 0.1825(2) 0.4326(2) 0.06722(8)
H20 H 0.1756 0.4871 0.0849
C30 C 0.1125(2) 0.4174(3) 0.03964(10)
H21 H 0.0595 0.4628 0.0383
C31 C 0.1201(3) 0.3348(3) 0.01368(10)
H22 H 0.0720 0.3249 -0.0049
C32 C 0.1969(3) 0.2685(3) 0.01507(9)
H23 H 0.2006 0.2132 -0.0025
C33 C 0.2714(2) 0.2815(2) 0.04271(7)
C34 C 0.3509(2) 0.2120(2) 0.04485(8)
H24 H 0.3563 0.1575 0.0270
C35 C 0.4195(2) 0.2238(2) 0.07260(9)
H25 H 0.4703 0.1756 0.0743
C36 C 0.4146(2) 0.3073(2) 0.09854(8)
H26 H 0.4629 0.3144 0.1172
C37 C 0.34089(19) 0.37882(19) 0.09731(7)
loop_
_geom_bond_atom_site_label_1
_geom_bond_atom_site_label_2
_geom_bond_site_symmetry_1
_geom_bond_site_symmetry_2
S1 O1 1_555 1_555
O2 S1 1_555 1_555
C1 C2 1_555 1_555
C2 H1 1_555 1_555
C3 C2 1_555 1_555
H2 C3 1_555 1_555
C4 C3 1_555 1_555
H3 C4 1_555 1_555
C5 C4 1_555 1_555
H4 C5 1_555 1_555
C6 C1 1_555 1_555
C7 C6 1_555 1_555
C8 C7 1_555 1_555
H5 C8 1_555 1_555
C9 C8 1_555 1_555
H6 C9 1_555 1_555
C10 C9 1_555 1_555
C11 C10 1_555 1_555
H7 C11 1_555 1_555
C12 C7 1_555 1_555
C13 C1 1_555 1_555
C14 C13 1_555 1_555
H8 C14 1_555 1_555
H9 C14 1_555 1_555
H10 C14 1_555 1_555
C15 C13 1_555 1_555
H11 C15 1_555 1_555
H12 C15 1_555 1_555
H13 C15 1_555 1_555
C16 C10 1_555 1_555
C17 C16 1_555 1_555
H14 C17 1_555 1_555
C18 C17 1_555 1_555
H15 C18 1_555 1_555
C19 S1 1_555 1_555
C20 S1 1_555 1_555
C21 C20 1_555 1_555
H16 C21 1_555 1_555
C22 C21 1_555 1_555
H17 C22 1_555 1_555
C23 C22 1_555 1_555
C24 C23 1_555 1_555
H18 C24 1_555 1_555
C25 C20 1_555 1_555
C26 C19 1_555 1_555
C27 C16 1_555 1_555
H19 C27 1_555 1_555
C28 C29 1_555 1_555
C29 H20 1_555 1_555
C30 C29 1_555 1_555
H21 C30 1_555 1_555
C31 C30 1_555 1_555
H22 C31 1_555 1_555
C32 C31 1_555 1_555
H23 C32 1_555 1_555
C33 C28 1_555 1_555
C34 C33 1_555 1_555
H24 C34 1_555 1_555
C35 C34 1_555 1_555
H25 C35 1_555 1_555
C36 C35 1_555 1_555
H26 C36 1_555 1_555
C37 C23 1_555 1_555
C5 C6 1_555 1_555
C11 C12 1_555 1_555
C12 C13 1_555 1_555
C18 C19 1_555 1_555
C24 C25 1_555 1_555
C25 C26 1_555 1_555
C26 C27 1_555 1_555
C28 C37 1_555 1_555
C32 C33 1_555 1_555
C36 C37 1_555 1_555

#END
