
#######################################################################
#
#                 Cambridge Crystallographic Data Centre
#                                CCDC 
#
#######################################################################
#
# If this CIF has been generated from an entry in the Cambridge 
# Structural Database, then it will include bibliographic, chemical, 
# crystal, experimental, refinement or atomic coordinate data resulting 
# from the CCDC's data processing and validation procedures.
#
#######################################################################

data_DEBNIK
_chemical_formula_moiety         'C23 H18 Br1 N1 O4'
_chemical_name_systematic        
'ethyl 3-(3-bromophenyl)-4-(3-cyano-2-oxo-2H-1-benzopyran-4-yl)-2-methylidenebutanoate'
_symmetry_cell_setting           orthorhombic
_symmetry_space_group_name_H-M   'P 21 21 21'
_symmetry_Int_Tables_number      19
_space_group_name_Hall           'P 2ac 2ab'
loop_
_symmetry_equiv_pos_site_id
_symmetry_equiv_pos_as_xyz
1 x,y,z
2 1/2-x,-y,1/2+z
3 -x,1/2+y,1/2-z
4 1/2+x,1/2-y,-z
_cell_length_a                   6.0773(2)
_cell_length_b                   14.9171(6)
_cell_length_c                   21.7733(8)
_cell_angle_alpha                90
_cell_angle_beta                 90
_cell_angle_gamma                90
_cell_volume                     1973.87
_exptl_crystal_colour            colorless
_exptl_crystal_description       Block
_cell_formula_units_Z            4
loop_
_atom_site_label
_atom_site_type_symbol
_atom_site_fract_x
_atom_site_fract_y
_atom_site_fract_z
O1 O 0.6020(3) 0.71387(11) -0.13657(8)
C1 C 0.4219(4) 0.69431(15) -0.11748(10)
O2 O 0.3056(3) 0.74652(10) -0.07945(7)
C2 C 0.4027(4) 0.83347(15) -0.06471(12)
H1 H 0.4134 0.8701 -0.1014
H2 H 0.5491 0.8257 -0.0478
C3 C 0.2549(5) 0.87729(18) -0.01850(12)
H3 H 0.3137 0.9349 -0.0076
H4 H 0.2457 0.8404 0.0175
H5 H 0.1108 0.8847 -0.0358
Br1 Br 0.17149(4) 0.38884(2) 0.06349(2)
O3 O 0.8007(3) 0.26413(10) -0.25751(7)
C4 C 0.3388(4) 0.46156(14) -0.04835(9)
H6 H 0.2074 0.4935 -0.0493
C5 C 0.3027(4) 0.61063(16) -0.13537(9)
O4 O 0.6010(3) 0.16520(10) -0.20734(7)
C6 C 1.0624(4) 0.44698(16) -0.33735(11)
H7 H 1.1846 0.4562 -0.3623
C7 C 0.6888(4) 0.42320(14) -0.09176(10)
H8 H 0.7939 0.4301 -0.1224
C8 C 0.3518(4) 0.47538(14) -0.20465(9)
H9 H 0.2127 0.4496 -0.1918
H10 H 0.3230 0.5147 -0.2392
C9 C 0.7285(4) 0.36466(14) -0.04380(11)
H11 H 0.8588 0.3320 -0.0429
C10 C 0.6219(4) 0.24225(15) -0.22286(10)
C11 C 0.8364(4) 0.35051(14) -0.27824(10)
C12 C 0.3831(4) 0.40261(15) -0.00027(10)
C13 C 0.6932(4) 0.42051(14) -0.26293(9)
C14 C 0.5756(4) 0.35428(15) 0.00288(11)
H12 H 0.6025 0.3156 0.0355
C15 C 0.0859(4) 0.61182(18) -0.13985(11)
H13 H 0.0088 0.6644 -0.1319
H14 H 0.0104 0.5601 -0.1509
C16 C 0.4933(4) 0.47204(14) -0.09484(10)
C17 C 1.0203(4) 0.36259(15) -0.31463(11)
H15 H 1.1135 0.3149 -0.3236
C18 C 0.7430(4) 0.50585(15) -0.28695(10)
H16 H 0.6518 0.5541 -0.2779
C19 C 0.4719(4) 0.31498(15) -0.20699(10)
C20 C 0.5032(4) 0.40161(14) -0.22479(10)
C21 C 0.9247(4) 0.51875(16) -0.32356(11)
H17 H 0.9556 0.5755 -0.3391
C22 C 0.4492(4) 0.53142(14) -0.15084(10)
H18 H 0.5911 0.5554 -0.1646
C23 C 0.2868(4) 0.28904(14) -0.16990(11)
N1 N 0.1367(4) 0.26945(14) -0.14080(10)
loop_
_geom_bond_atom_site_label_1
_geom_bond_atom_site_label_2
_geom_bond_site_symmetry_1
_geom_bond_site_symmetry_2
O1 C1 1_555 1_555
C1 O2 1_555 1_555
O2 C2 1_555 1_555
C2 H1 1_555 1_555
H2 C2 1_555 1_555
C3 C2 1_555 1_555
H3 C3 1_555 1_555
H4 C3 1_555 1_555
H5 C3 1_555 1_555
Br1 C12 1_555 1_555
O3 C10 1_555 1_555
C4 H6 1_555 1_555
C5 C1 1_555 1_555
O4 C10 1_555 1_555
C6 H7 1_555 1_555
C7 H8 1_555 1_555
C8 H9 1_555 1_555
H10 C8 1_555 1_555
C9 C7 1_555 1_555
H11 C9 1_555 1_555
C10 C19 1_555 1_555
C11 O3 1_555 1_555
C12 C4 1_555 1_555
C13 C11 1_555 1_555
C14 C9 1_555 1_555
H12 C14 1_555 1_555
C15 C5 1_555 1_555
H13 C15 1_555 1_555
H14 C15 1_555 1_555
C16 C4 1_555 1_555
C17 C6 1_555 1_555
H15 C17 1_555 1_555
C18 C13 1_555 1_555
H16 C18 1_555 1_555
C19 C20 1_555 1_555
C20 C8 1_555 1_555
C21 C6 1_555 1_555
H17 C21 1_555 1_555
C22 C5 1_555 1_555
H18 C22 1_555 1_555
C23 C19 1_555 1_555
N1 C23 1_555 1_555
C7 C16 1_555 1_555
C8 C22 1_555 1_555
C11 C17 1_555 1_555
C12 C14 1_555 1_555
C13 C20 1_555 1_555
C16 C22 1_555 1_555
C18 C21 1_555 1_555

#END
