
#######################################################################
#
#                 Cambridge Crystallographic Data Centre
#                                CCDC 
#
#######################################################################
#
# If this CIF has been generated from an entry in the Cambridge 
# Structural Database, then it will include bibliographic, chemical, 
# crystal, experimental, refinement or atomic coordinate data resulting 
# from the CCDC's data processing and validation procedures.
#
#######################################################################

data_DEBPAE
_chemical_formula_moiety         'C25 H22 N2 O6'
_chemical_name_systematic        
'dimethyl N-[(naphthalen-2-yl)methylidene]-4-[(4-nitrophenyl)methylidene]-D-glutamate'
_symmetry_cell_setting           monoclinic
_symmetry_space_group_name_H-M   'P 21'
_symmetry_Int_Tables_number      4
_space_group_name_Hall           'P 2yb'
loop_
_symmetry_equiv_pos_site_id
_symmetry_equiv_pos_as_xyz
1 x,y,z
2 -x,1/2+y,-z
_cell_length_a                   11.5902(18)
_cell_length_b                   7.8925(11)
_cell_length_c                   25.534(4)
_cell_angle_alpha                90
_cell_angle_beta                 96.954(3)
_cell_angle_gamma                90
_cell_volume                     2318.56
_exptl_crystal_colour            colorless
_exptl_crystal_description       block
_cell_formula_units_Z            4
loop_
_atom_site_label
_atom_site_type_symbol
_atom_site_fract_x
_atom_site_fract_y
_atom_site_fract_z
C1 C 0.2617(4) 0.3052(6) 0.8882(2)
C2 C 0.2410(3) 0.4911(5) 0.87963(15)
H1 H 0.1577 0.5123 0.8704
C3 C 0.3073(3) 0.5555(7) 0.83583(16)
H2 H 0.3896 0.5353 0.8459
H3 H 0.2837 0.4902 0.8042
C4 C 0.2898(3) 0.7403(6) 0.82317(14)
C5 C 0.3722(3) 0.8587(6) 0.82879(14)
H4 H 0.3490 0.9657 0.8165
C6 C 0.1708(4) 0.7859(9) 0.79951(15)
C7 C 0.2017(6) 0.0608(7) 0.9333(2)
H5 H 0.2812 0.0404 0.9473
H6 H 0.1812 -0.0103 0.9032
H7 H 0.1522 0.0356 0.9598
C8 C 0.0339(4) 1.0075(10) 0.7810(2)
H8 H -0.0215 0.9470 0.7990
H9 H 0.0191 0.9860 0.7438
H10 H 0.0270 1.1268 0.7874
C9 C 0.4951(3) 0.8448(5) 0.85175(14)
C10 C 0.5793(3) 0.9260(5) 0.82709(15)
H11 H 0.5573 0.9871 0.7964
C11 C 0.6944(3) 0.9183(5) 0.84695(15)
H12 H 0.7508 0.9689 0.8292
C12 C 0.7250(3) 0.8337(5) 0.89401(15)
C13 C 0.6434(3) 0.7582(6) 0.92075(15)
H13 H 0.6651 0.7050 0.9529
C14 C 0.5281(3) 0.7624(6) 0.89907(15)
H14 H 0.4721 0.7093 0.9165
C15 C 0.2080(3) 0.6220(5) 0.95867(15)
H15 H 0.1297 0.6080 0.9464
C16 C 0.2381(3) 0.6977(5) 1.01051(14)
C17 C 0.1531(3) 0.7488(5) 1.03987(15)
H16 H 0.0756 0.7356 1.0261
C18 C 0.1796(3) 0.8208(5) 1.09034(15)
C19 C 0.0939(4) 0.8750(7) 1.12129(17)
H17 H 0.0160 0.8626 1.1081
C20 C 0.1220(5) 0.9453(8) 1.17004(19)
H18 H 0.0639 0.9819 1.1895
C21 C 0.2389(5) 0.9615(7) 1.19025(18)
H19 H 0.2588 1.0075 1.2236
C22 C 0.3224(5) 0.9111(7) 1.16183(18)
H20 H 0.3997 0.9235 1.1761
C23 C 0.2975(3) 0.8399(6) 1.11112(15)
C24 C 0.3831(3) 0.7837(7) 1.08074(18)
H21 H 0.4609 0.7937 1.0944
C25 C 0.3558(3) 0.7155(6) 1.03224(15)
H22 H 0.4147 0.6801 1.0130
N1 N 0.2819(2) 0.5747(4) 0.92972(11)
N2 N 0.8480(3) 0.8246(5) 0.91603(16)
O1 O 0.3352(3) 0.2258(5) 0.8712(2)
O2 O 0.1876(3) 0.2374(4) 0.91788(13)
O3 O 0.0992(3) 0.6846(6) 0.78140(14)
O4 O 0.1500(2) 0.9517(6) 0.80049(12)
O5 O 0.9210(2) 0.8804(6) 0.89033(13)
O6 O 0.8723(3) 0.7614(6) 0.95936(15)
C26 C 0.2468(4) -0.2951(7) 0.6084(2)
C27 C 0.2603(3) -0.1079(6) 0.61675(16)
H23 H 0.3428 -0.0804 0.6257
C28 C 0.1924(4) -0.0468(7) 0.66073(18)
H24 H 0.1104 -0.0686 0.6504
H25 H 0.2164 -0.1127 0.6922
C29 C 0.2079(3) 0.1376(8) 0.67393(15)
C30 C 0.1240(3) 0.2548(7) 0.66918(15)
H26 H 0.1463 0.3627 0.6811
C31 C 0.3261(4) 0.1863(13) 0.69857(17)
C32 C 0.3140(6) -0.5374(7) 0.5666(2)
H27 H 0.2346 -0.5652 0.5545
H28 H 0.3402 -0.6041 0.5972
H29 H 0.3615 -0.5611 0.5392
C33 C 0.4565(4) 0.4115(14) 0.7230(3)
H30 H 0.5110 0.3888 0.6984
H31 H 0.4804 0.3532 0.7556
H32 H 0.4539 0.5311 0.7295
C34 C 0.0002(3) 0.2356(6) 0.64739(15)
C35 C -0.0840(3) 0.3099(6) 0.67389(17)
H33 H -0.0618 0.3693 0.7049
C36 C -0.1997(3) 0.2974(7) 0.65514(17)
H34 H -0.2559 0.3450 0.6737
C37 C -0.2307(3) 0.2141(6) 0.60896(17)
C38 C -0.1509(3) 0.1430(6) 0.58064(17)
H35 H -0.1741 0.0891 0.5487
C39 C -0.0345(3) 0.1526(6) 0.60044(16)
H36 H 0.0209 0.1027 0.5819
C40 C 0.2886(3) 0.0254(5) 0.53738(15)
H37 H 0.3672 0.0204 0.5501
C41 C 0.2558(3) 0.0939(5) 0.48468(15)
C42 C 0.3383(3) 0.1494(5) 0.45521(16)
H38 H 0.4159 0.1455 0.4696
C43 C 0.3102(3) 0.2125(6) 0.40360(16)
C44 C 0.3935(4) 0.2702(8) 0.37215(19)
H39 H 0.4716 0.2687 0.3859
C45 C 0.3636(5) 0.3275(10) 0.3226(2)
H40 H 0.4205 0.3670 0.3029
C46 C 0.2475(6) 0.3275(9) 0.3010(2)
H41 H 0.2273 0.3650 0.2666
C47 C 0.1636(5) 0.2734(7) 0.32947(19)
H42 H 0.0864 0.2743 0.3144
C48 C 0.1917(4) 0.2157(6) 0.38173(16)
C49 C 0.1077(4) 0.1578(6) 0.41268(18)
H43 H 0.0297 0.1590 0.3987
C50 C 0.1378(3) 0.1001(6) 0.46264(17)
H44 H 0.0803 0.0642 0.4825
N3 N 0.2163(3) -0.0272(4) 0.56640(12)
N4 N -0.3556(3) 0.2025(6) 0.58799(19)
O7 O 0.3225(3) -0.3578(5) 0.58021(14)
O8 O 0.1764(4) -0.3791(6) 0.6261(3)
O9 O 0.3991(3) 0.0804(8) 0.71424(13)
O10 O 0.3428(3) 0.3533(9) 0.70144(15)
O11 O -0.4267(3) 0.2554(6) 0.61503(16)
O12 O -0.3813(3) 0.1410(7) 0.54488(17)
loop_
_geom_bond_atom_site_label_1
_geom_bond_atom_site_label_2
_geom_bond_site_symmetry_1
_geom_bond_site_symmetry_2
C1 C2 1_555 1_555
C2 H1 1_555 1_555
C3 C2 1_555 1_555
H2 C3 1_555 1_555
H3 C3 1_555 1_555
C4 C3 1_555 1_555
C5 C4 1_555 1_555
H4 C5 1_555 1_555
C6 C4 1_555 1_555
C7 H5 1_555 1_555
H6 C7 1_555 1_555
H7 C7 1_555 1_555
C8 H8 1_555 1_555
H9 C8 1_555 1_555
H10 C8 1_555 1_555
C9 C5 1_555 1_555
C10 C9 1_555 1_555
H11 C10 1_555 1_555
C11 C10 1_555 1_555
H12 C11 1_555 1_555
C12 C11 1_555 1_555
C13 C12 1_555 1_555
H13 C13 1_555 1_555
C14 C9 1_555 1_555
H14 C14 1_555 1_555
C15 H15 1_555 1_555
C16 C15 1_555 1_555
C17 C16 1_555 1_555
H16 C17 1_555 1_555
C18 C17 1_555 1_555
C19 C18 1_555 1_555
H17 C19 1_555 1_555
C20 C19 1_555 1_555
H18 C20 1_555 1_555
C21 C20 1_555 1_555
H19 C21 1_555 1_555
C22 C21 1_555 1_555
H20 C22 1_555 1_555
C23 C18 1_555 1_555
C24 C23 1_555 1_555
H21 C24 1_555 1_555
C25 C16 1_555 1_555
H22 C25 1_555 1_555
N1 C2 1_555 1_555
N2 C12 1_555 1_555
O1 C1 1_555 1_555
O2 C1 1_555 1_555
O3 C6 1_555 1_555
O4 C6 1_555 1_555
O5 N2 1_555 1_555
O6 N2 1_555 1_555
C26 C27 1_555 1_555
C27 H23 1_555 1_555
C28 C27 1_555 1_555
H24 C28 1_555 1_555
H25 C28 1_555 1_555
C29 C28 1_555 1_555
C30 C29 1_555 1_555
H26 C30 1_555 1_555
C31 C29 1_555 1_555
C32 H27 1_555 1_555
H28 C32 1_555 1_555
H29 C32 1_555 1_555
C33 H30 1_555 1_555
H31 C33 1_555 1_555
H32 C33 1_555 1_555
C34 C30 1_555 1_555
C35 C34 1_555 1_555
H33 C35 1_555 1_555
C36 C35 1_555 1_555
H34 C36 1_555 1_555
C37 C36 1_555 1_555
C38 C37 1_555 1_555
H35 C38 1_555 1_555
C39 C34 1_555 1_555
H36 C39 1_555 1_555
C40 H37 1_555 1_555
C41 C40 1_555 1_555
C42 C41 1_555 1_555
H38 C42 1_555 1_555
C43 C42 1_555 1_555
C44 C43 1_555 1_555
H39 C44 1_555 1_555
C45 C44 1_555 1_555
H40 C45 1_555 1_555
C46 C45 1_555 1_555
H41 C46 1_555 1_555
C47 C46 1_555 1_555
H42 C47 1_555 1_555
C48 C43 1_555 1_555
C49 C48 1_555 1_555
H43 C49 1_555 1_555
C50 C41 1_555 1_555
H44 C50 1_555 1_555
N3 C27 1_555 1_555
N4 C37 1_555 1_555
O7 C26 1_555 1_555
O8 C26 1_555 1_555
O9 C31 1_555 1_555
O10 C31 1_555 1_555
O11 N4 1_555 1_555
O12 N4 1_555 1_555
C7 O2 1_555 1_555
C8 O4 1_555 1_555
C13 C14 1_555 1_555
C15 N1 1_555 1_555
C22 C23 1_555 1_555
C24 C25 1_555 1_555
C32 O7 1_555 1_555
C33 O10 1_555 1_555
C38 C39 1_555 1_555
C40 N3 1_555 1_555
C47 C48 1_555 1_555
C49 C50 1_555 1_555

#END
