
#######################################################################
#
#                 Cambridge Crystallographic Data Centre
#                                CCDC 
#
#######################################################################
#
# If this CIF has been generated from an entry in the Cambridge 
# Structural Database, then it will include bibliographic, chemical, 
# crystal, experimental, refinement or atomic coordinate data resulting 
# from the CCDC's data processing and validation procedures.
#
#######################################################################

data_DEBPEI
_chemical_formula_moiety         'C13 H7 F3 O2 S1'
_chemical_name_systematic        
3-(trifluoromethyl)-5H-5-dibenzo[b,d]thiophene-5,5-dione
_symmetry_cell_setting           orthorhombic
_symmetry_space_group_name_H-M   'P n m a'
_symmetry_Int_Tables_number      62
_space_group_name_Hall           '-P 2ac 2n'
loop_
_symmetry_equiv_pos_site_id
_symmetry_equiv_pos_as_xyz
1 x,y,z
2 1/2-x,-y,1/2+z
3 -x,1/2+y,-z
4 1/2+x,1/2-y,1/2-z
5 -x,-y,-z
6 1/2+x,y,1/2-z
7 x,1/2-y,z
8 1/2-x,1/2+y,1/2+z
_cell_length_a                   21.918(4)
_cell_length_b                   6.9184(12)
_cell_length_c                   8.0372(14)
_cell_angle_alpha                90
_cell_angle_beta                 90
_cell_angle_gamma                90
_cell_volume                     1218.74
_exptl_crystal_colour            colorless
_exptl_crystal_description       block
_cell_formula_units_Z            4
loop_
_atom_site_label
_atom_site_type_symbol
_atom_site_fract_x
_atom_site_fract_y
_atom_site_fract_z
S1 S 0.43412(8) 0.250000 0.29457(17)
O1 O 0.42050(18) 0.0723(5) 0.3783(4)
C1 C 0.2574(5) 0.250000 -0.1584(11)
C2 C 0.3237(3) 0.250000 -0.1133(9)
C3 C 0.3401(3) 0.250000 0.0573(8)
H1 H 0.310832 0.250000 0.141060
C4 C 0.4013(3) 0.250000 0.0925(7)
C5 C 0.5090(3) 0.250000 0.2181(8)
C6 C 0.5627(4) 0.250000 0.3104(9)
H2 H 0.561842 0.250000 0.426081
C7 C 0.6170(4) 0.250000 0.2247(12)
H3 H 0.653619 0.250000 0.283358
C8 C 0.5645(3) 0.250000 -0.0398(9)
H4 H 0.565611 0.250000 -0.155456
C9 C 0.5091(3) 0.250000 0.0432(7)
C10 C 0.4453(3) 0.250000 -0.0245(6)
C11 C 0.4290(3) 0.250000 -0.1969(8)
H5 H 0.458465 0.250000 -0.280206
C12 C 0.3683(4) 0.250000 -0.2328(8)
H6 H 0.356538 0.250000 -0.343953
C13 C 0.6181(4) 0.250000 0.0508(11)
H7 H 0.655326 0.250000 -0.004616
F1 F 0.2418(9) 0.433(3) -0.211(3)
F2 F 0.2285(5) 0.098(2) -0.098(2)
F3 F 0.2470(5) 0.1625(19) -0.3017(13)
F4 F 0.2214(7) 0.293(3) -0.0287(16)
O1F O 0.42050(18) 0.4277(5) 0.3783(4)
F1F F 0.2418(9) 0.067(3) -0.211(3)
F2F F 0.2285(5) 0.402(2) -0.098(2)
F3F F 0.2470(5) 0.3375(19) -0.3017(13)
F4F F 0.2214(7) 0.207(3) -0.0287(16)
loop_
_geom_bond_atom_site_label_1
_geom_bond_atom_site_label_2
_geom_bond_site_symmetry_1
_geom_bond_site_symmetry_2
S1 O1 1_555 1_555
C1 C2 1_555 1_555
C2 C3 1_555 1_555
C3 H1 1_555 1_555
C4 S1 1_555 1_555
C5 S1 1_555 1_555
C6 C5 1_555 1_555
H2 C6 1_555 1_555
C7 C6 1_555 1_555
H3 C7 1_555 1_555
C8 H4 1_555 1_555
C9 C5 1_555 1_555
C10 C4 1_555 1_555
C11 C10 1_555 1_555
H5 C11 1_555 1_555
C12 C2 1_555 1_555
H6 C12 1_555 1_555
C13 C7 1_555 1_555
H7 C13 1_555 1_555
F1 C1 1_555 1_555
F2 C1 1_555 1_555
F3 C1 1_555 1_555
F4 C1 1_555 1_555
O1F S1 1_555 1_555
F1F C1 1_555 1_555
F2F C1 1_555 1_555
F3F C1 1_555 1_555
F4F C1 1_555 1_555
C3 C4 1_555 1_555
C8 C9 1_555 1_555
C8 C13 1_555 1_555
C9 C10 1_555 1_555
C11 C12 1_555 1_555

#END
