
#######################################################################
#
#                 Cambridge Crystallographic Data Centre
#                                CCDC 
#
#######################################################################
#
# If this CIF has been generated from an entry in the Cambridge 
# Structural Database, then it will include bibliographic, chemical, 
# crystal, experimental, refinement or atomic coordinate data resulting 
# from the CCDC's data processing and validation procedures.
#
#######################################################################

data_DEBPIM
_chemical_formula_moiety         'C30 H18 O2 S1'
_chemical_name_systematic        
2-(naphthalen-1-yl)-8-(phenylethynyl)-5H-5-dibenzo[b,d]thiophene-5,5-dione
_symmetry_cell_setting           monoclinic
_symmetry_space_group_name_H-M   'P 21/c'
_symmetry_Int_Tables_number      14
_space_group_name_Hall           '-P 2ybc'
loop_
_symmetry_equiv_pos_site_id
_symmetry_equiv_pos_as_xyz
1 x,y,z
2 -x,1/2+y,1/2-z
3 -x,-y,-z
4 x,1/2-y,1/2+z
_cell_length_a                   17.946(9)
_cell_length_b                   9.832(5)
_cell_length_c                   13.938(7)
_cell_angle_alpha                90
_cell_angle_beta                 111.169(9)
_cell_angle_gamma                90
_cell_volume                     2293.34
_exptl_crystal_colour            colorless
_exptl_crystal_description       prismatic
_cell_formula_units_Z            4
loop_
_atom_site_label
_atom_site_type_symbol
_atom_site_fract_x
_atom_site_fract_y
_atom_site_fract_z
S1 S 0.17521(9) 0.96075(17) 0.12621(11)
O1 O 0.1499(3) 0.8963(5) 0.0277(3)
O2 O 0.2063(3) 1.0971(4) 0.1326(3)
C1 C 0.4530(3) 0.6634(6) 0.5527(4)
C2 C 0.4890(4) 0.7904(7) 0.5469(5)
H1 H 0.4616 0.8516 0.4953
C3 C 0.5633(4) 0.8250(8) 0.6157(6)
H2 H 0.5861 0.9080 0.6095
C4 C 0.6047(4) 0.7356(9) 0.6949(5)
H3 H 0.6558 0.7578 0.7397
C5 C 0.5708(4) 0.6169(8) 0.7070(5)
H4 H 0.5980 0.5604 0.7620
C6 C 0.4950(4) 0.5776(6) 0.6375(4)
C7 C 0.4596(4) 0.4549(6) 0.6490(5)
H5 H 0.4865 0.3984 0.7042
C8 C 0.3865(4) 0.4160(6) 0.5811(5)
H6 H 0.3634 0.3350 0.5909
C9 C 0.3466(4) 0.4995(6) 0.4967(4)
H7 H 0.2980 0.4706 0.4488
C10 C 0.3768(3) 0.6215(6) 0.4827(4)
C11 C 0.3298(3) 0.7054(5) 0.3910(4)
C12 C 0.3620(4) 0.7474(6) 0.3202(4)
H8 H 0.4146 0.7247 0.3305
C13 C 0.3179(4) 0.8235(6) 0.2328(4)
H9 H 0.3396 0.8505 0.1845
C14 C 0.2408(3) 0.8558(6) 0.2227(4)
C15 C 0.2068(3) 0.8187(5) 0.2931(4)
C16 C 0.2516(3) 0.7388(5) 0.3778(4)
H10 H 0.2291 0.7086 0.4246
C17 C 0.1251(3) 0.8731(5) 0.2695(4)
C18 C 0.1011(3) 0.9526(5) 0.1805(4)
C19 C 0.0271(3) 1.0192(6) 0.1458(4)
H11 H 0.0112 1.0732 0.0870
C20 C -0.0212(4) 1.0016(6) 0.2021(4)
H12 H -0.0712 1.0430 0.1792
C21 C 0.0012(3) 0.9247(6) 0.2917(4)
C22 C 0.0766(3) 0.8598(5) 0.3253(4)
H13 H 0.0932 0.8082 0.3852
C23 C -0.0501(4) 0.9127(6) 0.3504(5)
C24 C -0.0911(4) 0.9055(6) 0.4001(5)
C25 C -0.1414(4) 0.8952(6) 0.4593(5)
C26 C -0.2154(4) 0.9629(7) 0.4286(5)
H14 H -0.2322 1.0158 0.3693
C27 C -0.2631(4) 0.9503(9) 0.4871(7)
H15 H -0.3118 0.9955 0.4679
C28 C -0.2376(6) 0.8701(10) 0.5743(7)
H16 H -0.2708 0.8596 0.6119
C29 C -0.1662(6) 0.8065(8) 0.6068(6)
H17 H -0.1493 0.7554 0.6670
C30 C -0.1192(4) 0.8194(6) 0.5484(5)
H18 H -0.0701 0.7749 0.5700
loop_
_geom_bond_atom_site_label_1
_geom_bond_atom_site_label_2
_geom_bond_site_symmetry_1
_geom_bond_site_symmetry_2
S1 O1 1_555 1_555
O2 S1 1_555 1_555
C1 C2 1_555 1_555
C2 H1 1_555 1_555
C3 C2 1_555 1_555
H2 C3 1_555 1_555
C4 C3 1_555 1_555
H3 C4 1_555 1_555
C5 C4 1_555 1_555
H4 C5 1_555 1_555
C6 C1 1_555 1_555
C7 C6 1_555 1_555
H5 C7 1_555 1_555
C8 C7 1_555 1_555
H6 C8 1_555 1_555
C9 C8 1_555 1_555
H7 C9 1_555 1_555
C10 C1 1_555 1_555
C11 C10 1_555 1_555
C12 C11 1_555 1_555
H8 C12 1_555 1_555
C13 C12 1_555 1_555
H9 C13 1_555 1_555
C14 S1 1_555 1_555
C15 C14 1_555 1_555
C16 C11 1_555 1_555
H10 C16 1_555 1_555
C17 C15 1_555 1_555
C18 S1 1_555 1_555
C19 C18 1_555 1_555
H11 C19 1_555 1_555
C20 C19 1_555 1_555
H12 C20 1_555 1_555
C21 C20 1_555 1_555
C22 C17 1_555 1_555
H13 C22 1_555 1_555
C23 C21 1_555 1_555
C24 C23 1_555 1_555
C25 C24 1_555 1_555
C26 C25 1_555 1_555
H14 C26 1_555 1_555
C27 C26 1_555 1_555
H15 C27 1_555 1_555
C28 C27 1_555 1_555
H16 C28 1_555 1_555
C29 C28 1_555 1_555
H17 C29 1_555 1_555
C30 C25 1_555 1_555
H18 C30 1_555 1_555
C5 C6 1_555 1_555
C9 C10 1_555 1_555
C13 C14 1_555 1_555
C15 C16 1_555 1_555
C17 C18 1_555 1_555
C21 C22 1_555 1_555
C29 C30 1_555 1_555

#END
