
#######################################################################
#
#                 Cambridge Crystallographic Data Centre
#                                CCDC 
#
#######################################################################
#
# If this CIF has been generated from an entry in the Cambridge 
# Structural Database, then it will include bibliographic, chemical, 
# crystal, experimental, refinement or atomic coordinate data resulting 
# from the CCDC's data processing and validation procedures.
#
#######################################################################

data_DEBQEJ
_chemical_formula_moiety         'C36 H40 N4'
_chemical_name_systematic        
1,1'-[(2,2-diphenylethene-1,1-diyl)bis(4,1-phenylene)]bis(4-methylpiperazine)
_symmetry_cell_setting           monoclinic
_symmetry_space_group_name_H-M   'P 21/c'
_symmetry_Int_Tables_number      14
_space_group_name_Hall           '-P 2ybc'
loop_
_symmetry_equiv_pos_site_id
_symmetry_equiv_pos_as_xyz
1 x,y,z
2 -x,1/2+y,1/2-z
3 -x,-y,-z
4 x,1/2-y,1/2+z
_cell_length_a                   13.1123(13)
_cell_length_b                   20.5840(16)
_cell_length_c                   11.2600(9)
_cell_angle_alpha                90
_cell_angle_beta                 99.391(9)
_cell_angle_gamma                90
_cell_volume                     2998.38
_exptl_crystal_colour            yellow
_exptl_crystal_description       block
_cell_formula_units_Z            4
loop_
_atom_site_label
_atom_site_type_symbol
_atom_site_fract_x
_atom_site_fract_y
_atom_site_fract_z
C1 C 0.3160(2) 0.71295(13) 0.5366(2)
C2 C 0.4160(2) 0.72597(13) 0.5278(2)
C3 C 0.2826(2) 0.64792(13) 0.5734(2)
C4 C 0.3408(2) 0.61395(13) 0.6688(2)
H1 H 0.4004 0.6340 0.7132
C5 C 0.3142(2) 0.55217(13) 0.7003(2)
H2 H 0.3548 0.5312 0.7670
C6 C 0.2289(2) 0.51979(14) 0.6363(2)
C7 C 0.1662(2) 0.55521(14) 0.5454(2)
H3 H 0.1041 0.5364 0.5044
C8 C 0.1941(2) 0.61711(15) 0.5154(2)
H4 H 0.1510 0.6395 0.4525
C9 C 0.2334(2) 0.76251(13) 0.5049(2)
C10 C 0.1557(2) 0.77264(13) 0.5749(2)
H5 H 0.1556 0.7471 0.6451
C11 C 0.0796(2) 0.81863(13) 0.5447(2)
H6 H 0.0297 0.8250 0.5960
C12 C 0.0742(2) 0.85634(12) 0.4401(2)
C13 C 0.1497(2) 0.84480(13) 0.3685(2)
H7 H 0.1481 0.8686 0.2960
C14 C 0.2264(2) 0.79955(13) 0.4012(2)
H8 H 0.2768 0.7935 0.3504
C15 C 0.1288(3) 0.26226(15) 0.7483(3)
H9 H 0.0593 0.2473 0.7138
H10 H 0.1432 0.2510 0.8340
H11 H 0.1797 0.2413 0.7063
N1 N 0.2087(2) 0.45435(11) 0.6589(2)
C16 C 0.2383(3) 0.43044(14) 0.7797(3)
H12 H 0.1905 0.4482 0.8312
H13 H 0.3088 0.4460 0.8121
C17 C 0.2365(3) 0.35708(15) 0.7853(3)
H14 H 0.2887 0.3391 0.7399
H15 H 0.2545 0.3428 0.8701
N2 N 0.1348(2) 0.33253(12) 0.7347(2)
C18 C 0.1161(3) 0.35115(15) 0.6089(3)
H16 H 0.0489 0.3332 0.5700
H17 H 0.1708 0.3325 0.5681
C19 C 0.1150(3) 0.42460(14) 0.5942(3)
H18 H 0.1082 0.4355 0.5077
H19 H 0.0542 0.4427 0.6247
C20 C -0.2487(3) 1.03509(14) 0.2919(3)
H20 H -0.3181 1.0222 0.3041
H21 H -0.2516 1.0522 0.2102
H22 H -0.2222 1.0688 0.3504
N3 N -0.00087(19) 0.90563(11) 0.41195(19)
C21 C -0.0088(3) 0.93622(15) 0.2944(3)
H23 H -0.0373 0.9046 0.2314
H24 H 0.0610 0.9489 0.2802
C22 C -0.0775(3) 0.99571(15) 0.2847(3)
H25 H -0.0466 1.0289 0.3435
H26 H -0.0831 1.0145 0.2030
N4 N -0.1798(2) 0.97845(11) 0.3084(2)
C23 C -0.1682(2) 0.95531(14) 0.4310(2)
H27 H -0.2372 0.9454 0.4514
H28 H -0.1363 0.9898 0.4863
C24 C -0.1017(2) 0.89503(14) 0.4482(3)
H29 H -0.0916 0.8820 0.5340
H30 H -0.1376 0.8591 0.4000
C25 C 0.4965(2) 0.67422(14) 0.5327(2)
C26 C 0.4798(3) 0.61985(13) 0.4572(2)
H31 H 0.4173 0.6160 0.4015
C27 C 0.5551(3) 0.57135(15) 0.4638(3)
H32 H 0.5444 0.5348 0.4117
C28 C 0.6450(3) 0.57657(16) 0.5463(3)
H33 H 0.6947 0.5427 0.5529
C29 C 0.6630(3) 0.62979(15) 0.6182(3)
H34 H 0.7256 0.6333 0.6737
C30 C 0.5898(3) 0.67910(14) 0.6104(2)
H35 H 0.6038 0.7167 0.6592
C31 C 0.4570(2) 0.79286(13) 0.5152(2)
C32 C 0.4397(2) 0.84287(14) 0.5923(3)
H36 H 0.3984 0.8351 0.6527
C33 C 0.4816(3) 0.90356(14) 0.5823(3)
H37 H 0.4694 0.9371 0.6363
C34 C 0.5414(2) 0.91624(14) 0.4944(3)
H38 H 0.5695 0.9583 0.4870
C35 C 0.5597(2) 0.86706(14) 0.4176(2)
H39 H 0.6003 0.8753 0.3567
C36 C 0.5193(2) 0.80573(14) 0.4286(2)
H40 H 0.5342 0.7719 0.3766
loop_
_geom_bond_atom_site_label_1
_geom_bond_atom_site_label_2
_geom_bond_site_symmetry_1
_geom_bond_site_symmetry_2
C1 C2 1_555 1_555
C2 C25 1_555 1_555
C3 C1 1_555 1_555
C4 C3 1_555 1_555
H1 C4 1_555 1_555
C5 C4 1_555 1_555
H2 C5 1_555 1_555
C6 C5 1_555 1_555
C7 C6 1_555 1_555
H3 C7 1_555 1_555
C8 C3 1_555 1_555
H4 C8 1_555 1_555
C9 C1 1_555 1_555
C10 C9 1_555 1_555
H5 C10 1_555 1_555
C11 C10 1_555 1_555
H6 C11 1_555 1_555
C12 C11 1_555 1_555
C13 C12 1_555 1_555
H7 C13 1_555 1_555
C14 C9 1_555 1_555
H8 C14 1_555 1_555
C15 H9 1_555 1_555
H10 C15 1_555 1_555
H11 C15 1_555 1_555
N1 C6 1_555 1_555
C16 N1 1_555 1_555
H12 C16 1_555 1_555
H13 C16 1_555 1_555
C17 C16 1_555 1_555
H14 C17 1_555 1_555
H15 C17 1_555 1_555
N2 C15 1_555 1_555
C18 N2 1_555 1_555
H16 C18 1_555 1_555
H17 C18 1_555 1_555
C19 N1 1_555 1_555
H18 C19 1_555 1_555
H19 C19 1_555 1_555
C20 H20 1_555 1_555
H21 C20 1_555 1_555
H22 C20 1_555 1_555
N3 C12 1_555 1_555
C21 N3 1_555 1_555
H23 C21 1_555 1_555
H24 C21 1_555 1_555
C22 C21 1_555 1_555
H25 C22 1_555 1_555
H26 C22 1_555 1_555
N4 C20 1_555 1_555
C23 N4 1_555 1_555
H27 C23 1_555 1_555
H28 C23 1_555 1_555
C24 N3 1_555 1_555
H29 C24 1_555 1_555
H30 C24 1_555 1_555
C25 C26 1_555 1_555
C26 H31 1_555 1_555
C27 C26 1_555 1_555
H32 C27 1_555 1_555
C28 C27 1_555 1_555
H33 C28 1_555 1_555
C29 C28 1_555 1_555
H34 C29 1_555 1_555
C30 C25 1_555 1_555
H35 C30 1_555 1_555
C31 C2 1_555 1_555
C32 C31 1_555 1_555
H36 C32 1_555 1_555
C33 C32 1_555 1_555
H37 C33 1_555 1_555
C34 C33 1_555 1_555
H38 C34 1_555 1_555
C35 C34 1_555 1_555
H39 C35 1_555 1_555
C36 C31 1_555 1_555
H40 C36 1_555 1_555
C7 C8 1_555 1_555
C13 C14 1_555 1_555
C17 N2 1_555 1_555
C18 C19 1_555 1_555
C22 N4 1_555 1_555
C23 C24 1_555 1_555
C29 C30 1_555 1_555
C35 C36 1_555 1_555

#END
