
#######################################################################
#
#                 Cambridge Crystallographic Data Centre
#                                CCDC 
#
#######################################################################
#
# If this CIF has been generated from an entry in the Cambridge 
# Structural Database, then it will include bibliographic, chemical, 
# crystal, experimental, refinement or atomic coordinate data resulting 
# from the CCDC's data processing and validation procedures.
#
#######################################################################

data_DEBQEG
_chemical_formula_moiety         'C11 H15 Br1 O5'
_chemical_name_systematic        
4-Bromo-5-hydroxy-2-(methoxycarbonyl)-2-methyl-8-oxabicyclo(4.3.0)nonan-9-one
_symmetry_cell_setting           triclinic
_symmetry_space_group_name_H-M   'P -1'
_symmetry_Int_Tables_number      2
_space_group_name_Hall           '-P 1'
loop_
_symmetry_equiv_pos_site_id
_symmetry_equiv_pos_as_xyz
1 x,y,z
2 -x,-y,-z
_cell_length_a                   8.614(2)
_cell_length_b                   17.667(5)
_cell_length_c                   8.446(3)
_cell_angle_alpha                97.02(3)
_cell_angle_beta                 91.42(2)
_cell_angle_gamma                79.31(2)
_cell_volume                     1253.56
_exptl_crystal_colour            colorless
_exptl_crystal_description       prismatic
_chemical_melting_point          127-128deg.C
_cell_formula_units_Z            4
loop_
_atom_site_label
_atom_site_type_symbol
_atom_site_fract_x
_atom_site_fract_y
_atom_site_fract_z
Br1 Br 0.3358(1) 0.09472(4) 0.25215(7)
O1 O 0.1261(5) -0.0190(2) 0.6383(5)
O2 O 0.1887(5) 0.0231(2) 0.8845(4)
O3 O 0.5855(5) 0.1043(3) 0.5380(7)
O4 O 0.3581(5) 0.2681(2) 0.8448(5)
O5 O 0.0980(5) 0.2953(2) 0.8134(4)
C1 C 0.2358(6) 0.1591(3) 0.8068(6)
C2 C 0.1177(5) 0.1191(3) 0.7087(6)
C3 C 0.1447(7) 0.1236(3) 0.5309(6)
C4 C 0.3128(7) 0.0917(3) 0.4821(6)
C5 C 0.4258(6) 0.1366(3) 0.5726(6)
C6 C 0.4074(6) 0.1358(3) 0.7519(6)
C7 C 0.4815(8) 0.1992(3) 0.8446(9)
C8 C 0.2159(7) 0.2474(3) 0.8195(5)
C9 C -0.0548(7) 0.1522(4) 0.7532(10)
C10 C 0.1444(5) 0.0330(3) 0.7372(6)
C11 C 0.208(1) -0.0554(4) 0.924(1)
H1 H 0.229(6) 0.149(3) 0.912(7)
H2 H 0.090(6) 0.099(3) 0.480(6)
H3 H 0.114(6) 0.179(3) 0.515(6)
H4 H 0.334(6) 0.039(3) 0.501(5)
H5 H 0.398(5) 0.187(3) 0.551(5)
H6 H 0.454(6) 0.086(3) 0.782(5)
H7 H 0.508(7) 0.192(3) 0.943(7)
H8 H 0.563(9) 0.212(4) 0.796(8)
H9 H -0.089(7) 0.199(4) 0.710(7)
H10 H -0.12(1) 0.118(5) 0.71(1)
H11 H -0.061(6) 0.154(3) 0.874(7)
H12 H 0.259(9) -0.091(5) 0.849(9)
H13 H 0.09(1) -0.075(6) 0.89(1)
H14 H 0.234(9) -0.049(4) 1.028(10)
H15 H 0.611(9) 0.126(4) 0.482(9)
Br2 Br 0.24089(8) 0.34464(5) 0.3649(1)
O6 O -0.3899(5) 0.4917(2) 0.2155(6)
O7 O -0.1845(4) 0.4561(2) 0.0531(4)
O8 O -0.3294(5) 0.2972(2) 0.5943(5)
O9 O -0.3363(5) 0.2258(3) 0.3621(6)
O10 O 0.0035(7) 0.4246(3) 0.6437(6)
C12 C -0.3157(6) 0.3645(3) 0.3756(6)
C13 C -0.2378(6) 0.3626(3) 0.2145(5)
C14 C -0.0583(6) 0.3359(3) 0.2276(6)
C15 C 0.0113(6) 0.3836(3) 0.3604(7)
C16 C -0.0587(7) 0.3782(3) 0.5181(6)
C17 C -0.2365(7) 0.4046(3) 0.5169(6)
C18 C -0.310(1) 0.3765(4) 0.6558(8)
C19 C -0.3277(6) 0.2875(4) 0.4349(7)
C20 C -0.305(1) 0.3106(4) 0.0799(8)
C21 C -0.2793(6) 0.4442(3) 0.1655(6)
C22 C -0.2236(10) 0.5299(4) -0.0109(9)
H16 H -0.418(7) 0.386(3) 0.362(6)
H17 H -0.038(5) 0.283(3) 0.244(5)
H18 H -0.015(6) 0.338(3) 0.122(7)
H19 H -0.002(6) 0.436(3) 0.344(6)
H20 H -0.037(5) 0.325(3) 0.539(5)
H21 H -0.256(6) 0.453(3) 0.516(6)
H22 H -0.416(9) 0.403(4) 0.672(8)
H23 H -0.249(10) 0.378(5) 0.76(1)
H24 H -0.291(6) 0.266(4) 0.103(6)
H25 H -0.415(9) 0.335(4) 0.075(8)
H26 H -0.254(9) 0.317(5) -0.02(1)
H27 H -0.239(9) 0.564(5) 0.075(10)
H28 H -0.144(9) 0.526(4) -0.082(9)
H29 H -0.315(9) 0.532(4) -0.063(9)
H30 H 0.045(8) 0.400(4) 0.700(8)
loop_
_geom_bond_atom_site_label_1
_geom_bond_atom_site_label_2
_geom_bond_site_symmetry_1
_geom_bond_site_symmetry_2
Br1 C4 1_555 1_555
Br2 C15 1_555 1_555
O1 C10 1_555 1_555
O2 C10 1_555 1_555
O3 C5 1_555 1_555
O4 C7 1_555 1_555
O5 C8 1_555 1_555
O6 C21 1_555 1_555
O7 C21 1_555 1_555
O8 C18 1_555 1_555
O9 C19 1_555 1_555
O10 C16 1_555 1_555
C1 C2 1_555 1_555
C2 C3 1_555 1_555
C3 C4 1_555 1_555
C4 C5 1_555 1_555
C5 C6 1_555 1_555
C6 C1 1_555 1_555
C7 C6 1_555 1_555
C8 O4 1_555 1_555
C9 C2 1_555 1_555
C10 C2 1_555 1_555
C11 O2 1_555 1_555
C12 C13 1_555 1_555
C13 C14 1_555 1_555
C14 C15 1_555 1_555
C15 C16 1_555 1_555
C16 C17 1_555 1_555
C17 C12 1_555 1_555
C18 C17 1_555 1_555
C19 O8 1_555 1_555
C20 C13 1_555 1_555
C21 C13 1_555 1_555
C22 O7 1_555 1_555
H1 C1 1_555 1_555
H2 C3 1_555 1_555
H3 C3 1_555 1_555
H4 C4 1_555 1_555
H5 C5 1_555 1_555
H6 C6 1_555 1_555
H7 C7 1_555 1_555
H8 C7 1_555 1_555
H9 C9 1_555 1_555
H10 C9 1_555 1_555
H11 C9 1_555 1_555
H12 C11 1_555 1_555
H13 C11 1_555 1_555
H14 C11 1_555 1_555
H15 O3 1_555 1_555
H16 C12 1_555 1_555
H17 C14 1_555 1_555
H18 C14 1_555 1_555
H19 C15 1_555 1_555
H20 C16 1_555 1_555
H21 C17 1_555 1_555
H22 C18 1_555 1_555
H23 C18 1_555 1_555
H24 C20 1_555 1_555
H25 C20 1_555 1_555
H26 C20 1_555 1_555
H27 C22 1_555 1_555
H28 C22 1_555 1_555
H29 C22 1_555 1_555
H30 O10 1_555 1_555
C1 C8 1_555 1_555
C12 C19 1_555 1_555

#END
