
#######################################################################
#
#                 Cambridge Crystallographic Data Centre
#                                CCDC 
#
#######################################################################
#
# If this CIF has been generated from an entry in the Cambridge 
# Structural Database, then it will include bibliographic, chemical, 
# crystal, experimental, refinement or atomic coordinate data resulting 
# from the CCDC's data processing and validation procedures.
#
#######################################################################

data_DEBSEL
_chemical_compound_source        
'isolated and characterized from a Hyrtios sp. marine sponge collected from the South China Sea'
_chemical_name_common            'Nakijinol B'
_chemical_formula_moiety         'C22 H29 N1 O3'
_chemical_name_systematic        
7-[(1,2,4a-trimethyl-5-methylidenedecahydronaphthalen-1-yl)methyl]-1,3-benzoxazole-5,6-diol
_symmetry_cell_setting           monoclinic
_symmetry_space_group_name_H-M   'P 21'
_symmetry_Int_Tables_number      4
_space_group_name_Hall           'P 2yb'
loop_
_symmetry_equiv_pos_site_id
_symmetry_equiv_pos_as_xyz
1 x,y,z
2 -x,1/2+y,-z
_cell_length_a                   16.6578(11)
_cell_length_b                   9.9005(7)
_cell_length_c                   12.3571(8)
_cell_angle_alpha                90
_cell_angle_beta                 102.887(4)
_cell_angle_gamma                90
_cell_volume                     1986.61
_exptl_crystal_colour            yellow
_exptl_crystal_description       plate
_cell_formula_units_Z            4
loop_
_atom_site_label
_atom_site_type_symbol
_atom_site_fract_x
_atom_site_fract_y
_atom_site_fract_z
O1 O -0.12697(18) -0.4276(3) -0.7543(3)
O2 O -0.0072(2) -0.9317(4) -0.6482(3)
H1 H 0.018718 -0.934799 -0.583506
O3 O -0.0804(3) -0.8889(4) -0.8563(3)
H2 H -0.074674 -0.960633 -0.822291
N1 N -0.0671(2) -0.4571(4) -0.5733(3)
C1 C -0.2495(3) -0.8848(6) -1.0409(5)
H3 H -0.275695 -0.876423 -1.118983
H4 H -0.190460 -0.877337 -1.033578
C2 C -0.2692(4) -1.0213(6) -0.9996(10)
H5 H -0.238041 -1.033811 -0.923996
H6 H -0.252653 -1.091104 -1.045200
C3 C -0.3605(4) -1.0360(7) -1.0027(9)
H7 H -0.391146 -1.039464 -1.079236
H8 H -0.369999 -1.119825 -0.966913
C4 C -0.3903(3) -0.9210(8) -0.9454(5)
C5 C -0.3741(3) -0.7826(6) -0.9883(4)
C6 C -0.4003(3) -0.6704(10) -0.9209(7)
H9 H -0.376678 -0.686305 -0.842857
H10 H -0.459764 -0.672116 -0.931394
C7 C -0.3736(4) -0.5292(8) -0.9530(9)
H11 H -0.397677 -0.512035 -1.030744
H12 H -0.393734 -0.460875 -0.909420
C8 C -0.2807(4) -0.5195(6) -0.9330(7)
H13 H -0.258967 -0.532793 -0.853253
C9 C -0.2418(3) -0.6305(5) -0.9938(5)
C10 C -0.2787(2) -0.7705(5) -0.9766(4)
H14 H -0.255259 -0.792172 -0.898582
C11 C -0.4298(5) -0.9393(13) -0.8645(7)
H15 H -0.439576 -1.026321 -0.842130
H16 H -0.447731 -0.865178 -0.830139
C12 C -0.4252(3) -0.7717(7) -1.1091(5)
H17 H -0.424368 -0.680022 -1.134166
H18 H -0.480998 -0.798400 -1.111679
H19 H -0.401930 -0.829774 -1.156225
C13 C -0.2550(6) -0.3719(7) -0.9617(8)
H20 H -0.196094 -0.364497 -0.944251
H21 H -0.277665 -0.307148 -0.918839
H22 H -0.275819 -0.354502 -1.039318
C14 C -0.2507(4) -0.5990(8) -1.1206(5)
H23 H -0.216535 -0.523369 -1.128845
H24 H -0.307119 -0.578050 -1.153679
H25 H -0.233965 -0.676507 -1.156802
C15 C -0.1466(3) -0.6325(5) -0.9462(4)
H26 H -0.123573 -0.699678 -0.987727
H27 H -0.125295 -0.545577 -0.962593
C16 C -0.1127(2) -0.6605(4) -0.8243(4)
C17 C -0.1040(2) -0.5620(5) -0.7417(4)
C18 C -0.1030(3) -0.3749(5) -0.6498(4)
H28 H -0.112153 -0.284879 -0.634735
C19 C -0.0664(2) -0.5806(5) -0.6308(3)
C20 C -0.0322(3) -0.7033(5) -0.5928(4)
H29 H -0.006068 -0.716839 -0.518817
C21 C -0.0391(3) -0.8054(5) -0.6712(3)
C22 C -0.0785(3) -0.7848(5) -0.7835(3)
O4 O 0.12432(19) -0.6523(3) -0.7471(3)
O5 O 0.0818(3) -0.1910(4) -0.6458(3)
H30 H 0.057620 -0.126047 -0.679299
O6 O 0.0063(2) -0.1468(4) -0.8530(3)
H31 H -0.013770 -0.140224 -0.919697
N2 N 0.0653(2) -0.6212(4) -0.9252(3)
C23 C 0.2459(7) -0.7129(12) -0.5281(10)
H32 H 0.186442 -0.708519 -0.539784
H33 H 0.268185 -0.732716 -0.450308
C24 C 0.2694(7) -0.8264(13) -0.5993(10)
H34 H 0.249829 -0.912023 -0.577136
H35 H 0.243221 -0.810908 -0.676629
C25 C 0.3603(7) -0.8325(14) -0.5867(10)
H36 H 0.373638 -0.900902 -0.636034
H37 H 0.386050 -0.857974 -0.511112
C26 C 0.3937(6) -0.6992(15) -0.6128(8)
C27 C 0.3745(4) -0.5850(13) -0.5428(6)
C28 C 0.4009(4) -0.4487(15) -0.5808(9)
H38 H 0.376901 -0.437004 -0.659245
H39 H 0.460372 -0.447278 -0.570762
C29 C 0.3740(5) -0.3303(13) -0.5153(10)
H40 H 0.397118 -0.342761 -0.436651
H41 H 0.395320 -0.246289 -0.537935
C30 C 0.2795(4) -0.3214(9) -0.5353(9)
H42 H 0.258070 -0.303999 -0.614572
C31 C 0.2431(3) -0.4540(7) -0.5076(4)
C32 C 0.2785(3) -0.5767(7) -0.5566(4)
H43 H 0.257229 -0.567961 -0.636895
C33 C 0.4328(7) -0.698(2) -0.6892(9)
H44 H 0.439698 -0.776952 -0.726342
H45 H 0.454666 -0.616987 -0.708446
C34 C 0.4235(4) -0.6110(13) -0.4202(6)
H46 H 0.479165 -0.635590 -0.420418
H47 H 0.397701 -0.682888 -0.388354
H48 H 0.423372 -0.530308 -0.377159
C35 C 0.2584(7) -0.2008(12) -0.4720(14)
H49 H 0.199660 -0.193558 -0.483048
H50 H 0.279771 -0.120254 -0.498499
H51 H 0.282340 -0.211985 -0.394375
C36 C 0.2510(4) -0.4718(11) -0.3818(5)
H52 H 0.215345 -0.408789 -0.356604
H53 H 0.306961 -0.455327 -0.343560
H54 H 0.235738 -0.562195 -0.366900
C37 C 0.1472(3) -0.4460(6) -0.5550(3)
H55 H 0.123802 -0.530676 -0.537295
H56 H 0.126107 -0.375867 -0.513962
C38 C 0.1130(2) -0.4188(5) -0.6782(4)
C39 C 0.1015(2) -0.5185(5) -0.7596(4)
C40 C 0.0997(3) -0.7036(6) -0.8497(4)
H57 H 0.107168 -0.794136 -0.864841
C41 C 0.0638(2) -0.4996(5) -0.8698(4)
C42 C 0.0302(2) -0.3752(5) -0.9066(4)
H58 H 0.003477 -0.361351 -0.980333
C43 C 0.0379(3) -0.2739(5) -0.8299(3)
C44 C 0.0790(3) -0.2962(5) -0.7169(3)
loop_
_geom_bond_atom_site_label_1
_geom_bond_atom_site_label_2
_geom_bond_site_symmetry_1
_geom_bond_site_symmetry_2
O1 C17 1_555 1_555
O2 H1 1_555 1_555
O3 H2 1_555 1_555
N1 C18 1_555 1_555
C1 H3 1_555 1_555
H4 C1 1_555 1_555
C2 C1 1_555 1_555
H5 C2 1_555 1_555
H6 C2 1_555 1_555
C3 C2 1_555 1_555
H7 C3 1_555 1_555
H8 C3 1_555 1_555
C4 C3 1_555 1_555
C5 C4 1_555 1_555
C6 C5 1_555 1_555
H9 C6 1_555 1_555
H10 C6 1_555 1_555
C7 C6 1_555 1_555
H11 C7 1_555 1_555
H12 C7 1_555 1_555
C8 C7 1_555 1_555
H13 C8 1_555 1_555
C9 C8 1_555 1_555
C10 C1 1_555 1_555
H14 C10 1_555 1_555
C11 C4 1_555 1_555
H15 C11 1_555 1_555
H16 C11 1_555 1_555
C12 C5 1_555 1_555
H17 C12 1_555 1_555
H18 C12 1_555 1_555
H19 C12 1_555 1_555
C13 C8 1_555 1_555
H20 C13 1_555 1_555
H21 C13 1_555 1_555
H22 C13 1_555 1_555
C14 C9 1_555 1_555
H23 C14 1_555 1_555
H24 C14 1_555 1_555
H25 C14 1_555 1_555
C15 C9 1_555 1_555
H26 C15 1_555 1_555
H27 C15 1_555 1_555
C16 C15 1_555 1_555
C17 C16 1_555 1_555
C18 O1 1_555 1_555
H28 C18 1_555 1_555
C19 N1 1_555 1_555
C20 C19 1_555 1_555
H29 C20 1_555 1_555
C21 O2 1_555 1_555
C22 O3 1_555 1_555
O4 C39 1_555 1_555
O5 H30 1_555 1_555
O6 H31 1_555 1_555
N2 C40 1_555 1_555
C23 H32 1_555 1_555
H33 C23 1_555 1_555
C24 C23 1_555 1_555
H34 C24 1_555 1_555
H35 C24 1_555 1_555
C25 C24 1_555 1_555
H36 C25 1_555 1_555
H37 C25 1_555 1_555
C26 C25 1_555 1_555
C27 C26 1_555 1_555
C28 C27 1_555 1_555
H38 C28 1_555 1_555
H39 C28 1_555 1_555
C29 C28 1_555 1_555
H40 C29 1_555 1_555
H41 C29 1_555 1_555
C30 C29 1_555 1_555
H42 C30 1_555 1_555
C31 C30 1_555 1_555
C32 C23 1_555 1_555
H43 C32 1_555 1_555
C33 C26 1_555 1_555
H44 C33 1_555 1_555
H45 C33 1_555 1_555
C34 C27 1_555 1_555
H46 C34 1_555 1_555
H47 C34 1_555 1_555
H48 C34 1_555 1_555
C35 C30 1_555 1_555
H49 C35 1_555 1_555
H50 C35 1_555 1_555
H51 C35 1_555 1_555
C36 C31 1_555 1_555
H52 C36 1_555 1_555
H53 C36 1_555 1_555
H54 C36 1_555 1_555
C37 C31 1_555 1_555
H55 C37 1_555 1_555
H56 C37 1_555 1_555
C38 C37 1_555 1_555
C39 C38 1_555 1_555
C40 O4 1_555 1_555
H57 C40 1_555 1_555
C41 N2 1_555 1_555
C42 C41 1_555 1_555
H58 C42 1_555 1_555
C43 O6 1_555 1_555
C44 O5 1_555 1_555
C5 C10 1_555 1_555
C9 C10 1_555 1_555
C16 C22 1_555 1_555
C17 C19 1_555 1_555
C20 C21 1_555 1_555
C21 C22 1_555 1_555
C27 C32 1_555 1_555
C31 C32 1_555 1_555
C38 C44 1_555 1_555
C39 C41 1_555 1_555
C42 C43 1_555 1_555
C43 C44 1_555 1_555

#END
