
#######################################################################
#
#                 Cambridge Crystallographic Data Centre
#                                CCDC 
#
#######################################################################
#
# If this CIF has been generated from an entry in the Cambridge 
# Structural Database, then it will include bibliographic, chemical, 
# crystal, experimental, refinement or atomic coordinate data resulting 
# from the CCDC's data processing and validation procedures.
#
#######################################################################

data_DEBSEI
_chemical_formula_moiety         'C17 H23 N1 O7,C12 H14 N1 1+,Cl1 O4 1-'
_chemical_name_systematic        
'(4S,14S)-4,14-Dimethyl-3,6,9,12,15-pentaoxa-21-azabicyclo(15.3.1)heneicosa-1(21),17,19-triene-2,16-dione (S)-\a-(1-naphthyl)ethylammonium perchlorate'
_symmetry_cell_setting           monoclinic
_symmetry_space_group_name_H-M   'P 21'
_symmetry_Int_Tables_number      4
_space_group_name_Hall           'P 2yb'
loop_
_symmetry_equiv_pos_site_id
_symmetry_equiv_pos_as_xyz
1 x,y,z
2 -x,1/2+y,-z
_cell_length_a                   8.654(2)
_cell_length_b                   11.954(3)
_cell_length_c                   15.130(4)
_cell_angle_alpha                90
_cell_angle_beta                 97.39(2)
_cell_angle_gamma                90
_cell_volume                     1552.2
_cell_formula_units_Z            2
loop_
_atom_site_label
_atom_site_type_symbol
_atom_site_fract_x
_atom_site_fract_y
_atom_site_fract_z
C1 C 0.8218(9) 0.2974(6) 0.1039(5)
C2 C 0.9275(11) 0.3779(8) 0.1580(6)
C3 C 1.0975(10) 0.4176(6) 0.2866(6)
C4 C 1.1984(10) 0.3450(8) 0.3528(6)
C5 C 1.2050(10) 0.2416(8) 0.4874(5)
C6 C 1.2847(10) 0.1367(8) 0.4630(5)
C7 C 1.2448(10) -0.0491(8) 0.4199(6)
C8 C 1.1220(11) -0.1325(8) 0.3939(6)
C9 C 0.9096(13) -0.1661(9) 0.2733(6)
C10 C 0.8769(12) -0.1520(6) 0.1788(6)
C11 C 0.7540(10) -0.0015(8) 0.0886(5)
C12 C 0.7434(9) 0.1181(6) 0.0717(5)
C13 C 0.6410(11) 0.1542(8) 0.0022(6)
C14 C 0.6264(6) 0.2676(4) -0.0140(3)
C15 C 0.7230(10) 0.3382(6) 0.0359(6)
C16 C 0.9880(12) -0.1987(9) 0.1189(6)
C17 C 1.0103(13) 0.5066(8) 0.3326(6)
N1 N 0.8322(13) 0.1877(8) 0.1250(6)
O1 O 0.9531(8) 0.4692(6) 0.1276(4)
O2 O 0.9901(6) 0.3416(4) 0.2368(3)
O3 O 1.1127(6) 0.2910(5) 0.4142(3)
O4 O 1.1768(6) 0.0544(6) 0.4384(3)
O5 O 1.0360(6) -0.0980(5) 0.3103(5)
O6 O 0.8504(8) -0.0314(5) 0.1608(4)
O7 O 0.6822(8) -0.0706(6) 0.0428(5)
C18 C 0.7486(11) 0.1047(8) 0.3401(6)
C19 C 0.7609(6) 0.0925(5) 0.4412(5)
C20 C 0.6423(11) 0.1960(8) 0.3004(6)
C21 C 0.6806(13) 0.3068(8) 0.3233(6)
C22 C 0.5980(10) 0.3970(8) 0.2796(9)
C23 C 0.4793(10) 0.3780(8) 0.2120(6)
C24 C 0.4289(10) 0.2686(8) 0.1870(5)
C25 C 0.3024(10) 0.2463(8) 0.1218(5)
C26 C 0.2533(10) 0.1414(8) 0.1063(5)
C27 C 0.3239(10) 0.0504(8) 0.1486(5)
C28 C 0.4523(10) 0.0666(8) 0.2105(6)
C29 C 0.5081(10) 0.1744(8) 0.2335(6)
H1 H 0.8718(12) 0.1488(9) 0.2438(6)
H2 H 0.9751(12) 0.0492(6) 0.3144(6)
H3 H 0.9680(12) 0.1900(9) 0.3486(6)
N2 N 0.9036(12) 0.1235(6) 0.3122(6)
Cl1 Cl 0.4800(12) 0.7182(9) 0.2942(6)
O8 O 0.4066(12) 0.6577(9) 0.3554(6)
O9 O 0.6244(8) 0.6692(5) 0.2829(4)
O10 O 0.5277(10) 0.8207(8) 0.3378(5)
O11 O 0.3639(8) 0.7515(6) 0.2289(5)
loop_
_geom_bond_atom_site_label_1
_geom_bond_atom_site_label_2
_geom_bond_site_symmetry_1
_geom_bond_site_symmetry_2
C1 C2 1_555 1_555
C2 O1 1_555 1_555
C3 C4 1_555 1_555
C4 O3 1_555 1_555
C5 C6 1_555 1_555
C6 O4 1_555 1_555
C7 C8 1_555 1_555
C8 O5 1_555 1_555
C9 C10 1_555 1_555
C10 C16 1_555 1_555
C11 C12 1_555 1_555
C12 C13 1_555 1_555
C13 C14 1_555 1_555
C14 C15 1_555 1_555
C15 C1 1_555 1_555
C17 C3 1_555 1_555
N1 C1 1_555 1_555
O2 C2 1_555 1_555
O3 C5 1_555 1_555
O4 C7 1_555 1_555
O5 C9 1_555 1_555
O6 C10 1_555 1_555
O7 C11 1_555 1_555
C18 C19 1_555 1_555
C20 C18 1_555 1_555
C21 C20 1_555 1_555
C22 C21 1_555 1_555
C23 C22 1_555 1_555
C24 C23 1_555 1_555
C25 C24 1_555 1_555
C26 C25 1_555 1_555
C27 C26 1_555 1_555
C28 C27 1_555 1_555
C29 C20 1_555 1_555
H1 N2 1_555 1_555
H2 N2 1_555 1_555
H3 N2 1_555 1_555
N2 C18 1_555 1_555
Cl1 O8 1_555 1_555
O9 Cl1 1_555 1_555
O10 Cl1 1_555 1_555
O11 Cl1 1_555 1_555
C3 O2 1_555 1_555
C11 O6 1_555 1_555
C12 N1 1_555 1_555
C24 C29 1_555 1_555
C28 C29 1_555 1_555

#END
