
#######################################################################
#
#                 Cambridge Crystallographic Data Centre
#                                CCDC 
#
#######################################################################
#
# If this CIF has been generated from an entry in the Cambridge 
# Structural Database, then it will include bibliographic, chemical, 
# crystal, experimental, refinement or atomic coordinate data resulting 
# from the CCDC's data processing and validation procedures.
#
#######################################################################

data_DEBSAH
_chemical_compound_source        
'isolated and characterized from a Hyrtios sp. marine sponge collected from the South China Sea'
_chemical_name_common            'Hyrtiolacton A'
_chemical_formula_moiety         'C21 H28 O3'
_chemical_name_systematic        
7-methoxy-4a,6a,11a-trimethyl-4-methylidene-2,3,4,4a,5,6,6a,11,11a,11b-decahydrobenzo[4,5]indeno[2,1-b]pyran-9(1H)-one
_symmetry_cell_setting           orthorhombic
_symmetry_space_group_name_H-M   'P 21 21 21'
_symmetry_Int_Tables_number      19
_space_group_name_Hall           'P 2ac 2ab'
loop_
_symmetry_equiv_pos_site_id
_symmetry_equiv_pos_as_xyz
1 x,y,z
2 1/2-x,-y,1/2+z
3 -x,1/2+y,1/2-z
4 1/2+x,1/2-y,-z
_cell_length_a                   10.02100(10)
_cell_length_b                   13.4995(2)
_cell_length_c                   26.1852(4)
_cell_angle_alpha                90
_cell_angle_beta                 90
_cell_angle_gamma                90
_cell_volume                     3542.29
_exptl_crystal_colour            colorless
_exptl_crystal_description       block
_cell_formula_units_Z            8
loop_
_atom_site_label
_atom_site_type_symbol
_atom_site_fract_x
_atom_site_fract_y
_atom_site_fract_z
O1 O 0.44341(15) 0.70558(11) 0.45403(5)
O2 O 0.57574(17) 0.83307(12) 0.47107(6)
O3 O 0.66720(15) 0.51666(11) 0.54365(6)
C1 C 0.3046(2) 0.41090(17) 0.34949(8)
H1 H 0.241948 0.356380 0.352329
H2 H 0.253636 0.471766 0.346642
C2 C 0.3889(3) 0.39731(18) 0.30159(8)
H3 H 0.445878 0.454710 0.296913
H4 H 0.331081 0.391948 0.272023
C3 C 0.4751(3) 0.30411(19) 0.30586(9)
H5 H 0.418185 0.246006 0.305097
H6 H 0.535029 0.300652 0.276824
C4 C 0.5557(3) 0.30415(16) 0.35468(9)
C5 C 0.4749(2) 0.31762(17) 0.40390(8)
C6 C 0.5661(2) 0.33098(17) 0.45045(8)
H7 H 0.617613 0.270963 0.455567
H8 H 0.628123 0.384648 0.443881
C7 C 0.4876(2) 0.35365(16) 0.49873(8)
H9 H 0.549366 0.359618 0.527072
H10 H 0.428591 0.298419 0.505942
C8 C 0.4043(2) 0.44861(16) 0.49533(8)
C9 C 0.3126(2) 0.45238(16) 0.44589(8)
C10 C 0.3915(2) 0.41501(16) 0.39779(8)
H11 H 0.457524 0.466856 0.390924
C11 C 0.2894(2) 0.56588(16) 0.43838(8)
H12 H 0.281466 0.582753 0.402497
H13 H 0.210233 0.588122 0.456333
C12 C 0.4126(2) 0.60872(16) 0.46111(7)
C13 C 0.4825(2) 0.54521(16) 0.48979(7)
C14 C 0.5993(2) 0.58234(16) 0.51487(7)
C15 C 0.6338(2) 0.67923(16) 0.50869(8)
H14 H 0.710261 0.702895 0.524686
C16 C 0.5558(2) 0.74562(16) 0.47832(8)
C17 C 0.3222(2) 0.45820(18) 0.54503(8)
H15 H 0.381470 0.467881 0.573390
H16 H 0.271158 0.398868 0.550234
H17 H 0.262899 0.513818 0.542336
C18 C 0.1783(2) 0.39899(17) 0.45327(9)
H18 H 0.194214 0.330967 0.462069
H19 H 0.127884 0.402136 0.422148
H20 H 0.129167 0.430557 0.480194
C19 C 0.3910(3) 0.22214(17) 0.41088(9)
H21 H 0.342476 0.225811 0.442434
H22 H 0.449185 0.165651 0.411536
H23 H 0.329398 0.215797 0.382998
C20 C 0.6869(3) 0.29170(18) 0.35340(10)
H24 H 0.730141 0.282848 0.322301
H25 H 0.735765 0.291822 0.383605
C21 C 0.7855(2) 0.55239(19) 0.56895(10)
H26 H 0.848897 0.574269 0.543894
H27 H 0.823877 0.499982 0.588904
H28 H 0.762443 0.606711 0.590903
O4 O 0.48967(14) 0.67182(11) 0.34093(6)
O5 O 0.30389(15) 0.76054(13) 0.33663(7)
O6 O 0.72545(15) 0.92342(11) 0.34155(6)
C22 C 0.8443(2) 0.49061(17) 0.25820(9)
H29 H 0.926912 0.456372 0.265950
H30 H 0.772030 0.455692 0.275059
C23 C 0.8212(2) 0.49008(18) 0.20081(9)
H31 H 0.736783 0.521876 0.193092
H32 H 0.817097 0.422303 0.188613
C24 C 0.9345(2) 0.54499(19) 0.17378(9)
H33 H 1.016649 0.507810 0.177728
H34 H 0.914744 0.549248 0.137575
C25 C 0.9536(2) 0.64779(17) 0.19487(8)
C26 C 0.9690(2) 0.65507(16) 0.25301(8)
C27 C 0.9602(2) 0.76248(16) 0.27102(8)
H35 H 1.035234 0.799187 0.257276
H36 H 0.879128 0.791936 0.257609
C28 C 0.9602(2) 0.77210(16) 0.32891(8)
H37 H 0.952660 0.841667 0.337724
H38 H 1.045207 0.748586 0.341829
C29 C 0.8484(2) 0.71529(17) 0.35566(8)
C30 C 0.8408(2) 0.60330(16) 0.33804(8)
C31 C 0.8515(2) 0.59693(15) 0.27836(8)
H39 H 0.770365 0.629052 0.265615
C32 C 0.6943(2) 0.57466(17) 0.35182(9)
H40 H 0.659679 0.524470 0.328854
H41 H 0.687383 0.551160 0.386730
C33 C 0.6246(2) 0.67008(16) 0.34501(8)
C34 C 0.7047(2) 0.74936(16) 0.34499(8)
C35 C 0.6436(2) 0.84436(16) 0.34111(7)
C36 C 0.5074(2) 0.84999(17) 0.33706(8)
H42 H 0.467562 0.911842 0.333578
C37 C 0.4247(2) 0.76356(17) 0.33803(8)
C38 C 0.8722(2) 0.72503(19) 0.41360(8)
H43 H 0.861747 0.792997 0.423614
H44 H 0.960984 0.703306 0.421647
H45 H 0.808755 0.684848 0.431635
C39 C 0.9386(2) 0.53562(17) 0.36609(9)
H46 H 0.931588 0.469582 0.352750
H47 H 0.917770 0.535169 0.401872
H48 H 1.027921 0.559578 0.361265
C40 C 1.1097(2) 0.61376(17) 0.26546(9)
H49 H 1.129609 0.625318 0.300825
H50 H 1.174894 0.646523 0.244572
H51 H 1.111694 0.543887 0.258696
C41 C 0.9625(2) 0.72481(19) 0.16373(9)
H52 H 0.956899 0.715595 0.128601
H53 H 0.974250 0.788114 0.176999
C42 C 0.6657(2) 1.01986(16) 0.33950(9)
H54 H 0.604171 1.027194 0.367342
H55 H 0.618938 1.027463 0.307741
H56 H 0.733993 1.069489 0.342035
loop_
_geom_bond_atom_site_label_1
_geom_bond_atom_site_label_2
_geom_bond_site_symmetry_1
_geom_bond_site_symmetry_2
O1 C12 1_555 1_555
O2 C16 1_555 1_555
O3 C14 1_555 1_555
C1 H1 1_555 1_555
H2 C1 1_555 1_555
C2 C1 1_555 1_555
H3 C2 1_555 1_555
H4 C2 1_555 1_555
C3 C2 1_555 1_555
H5 C3 1_555 1_555
H6 C3 1_555 1_555
C4 C3 1_555 1_555
C5 C4 1_555 1_555
C6 C5 1_555 1_555
H7 C6 1_555 1_555
H8 C6 1_555 1_555
C7 C6 1_555 1_555
H9 C7 1_555 1_555
H10 C7 1_555 1_555
C8 C7 1_555 1_555
C9 C8 1_555 1_555
C10 C1 1_555 1_555
H11 C10 1_555 1_555
C11 C9 1_555 1_555
H12 C11 1_555 1_555
H13 C11 1_555 1_555
C12 C11 1_555 1_555
C13 C8 1_555 1_555
C14 C13 1_555 1_555
C15 C14 1_555 1_555
H14 C15 1_555 1_555
C16 O1 1_555 1_555
C17 C8 1_555 1_555
H15 C17 1_555 1_555
H16 C17 1_555 1_555
H17 C17 1_555 1_555
C18 C9 1_555 1_555
H18 C18 1_555 1_555
H19 C18 1_555 1_555
H20 C18 1_555 1_555
C19 C5 1_555 1_555
H21 C19 1_555 1_555
H22 C19 1_555 1_555
H23 C19 1_555 1_555
C20 C4 1_555 1_555
H24 C20 1_555 1_555
H25 C20 1_555 1_555
C21 O3 1_555 1_555
H26 C21 1_555 1_555
H27 C21 1_555 1_555
H28 C21 1_555 1_555
O4 C33 1_555 1_555
O5 C37 1_555 1_555
O6 C35 1_555 1_555
C22 H29 1_555 1_555
H30 C22 1_555 1_555
C23 C22 1_555 1_555
H31 C23 1_555 1_555
H32 C23 1_555 1_555
C24 C23 1_555 1_555
H33 C24 1_555 1_555
H34 C24 1_555 1_555
C25 C24 1_555 1_555
C26 C25 1_555 1_555
C27 C26 1_555 1_555
H35 C27 1_555 1_555
H36 C27 1_555 1_555
C28 C27 1_555 1_555
H37 C28 1_555 1_555
H38 C28 1_555 1_555
C29 C28 1_555 1_555
C30 C29 1_555 1_555
C31 C22 1_555 1_555
H39 C31 1_555 1_555
C32 C30 1_555 1_555
H40 C32 1_555 1_555
H41 C32 1_555 1_555
C33 C32 1_555 1_555
C34 C29 1_555 1_555
C35 C34 1_555 1_555
C36 C35 1_555 1_555
H42 C36 1_555 1_555
C37 O4 1_555 1_555
C38 C29 1_555 1_555
H43 C38 1_555 1_555
H44 C38 1_555 1_555
H45 C38 1_555 1_555
C39 C30 1_555 1_555
H46 C39 1_555 1_555
H47 C39 1_555 1_555
H48 C39 1_555 1_555
C40 C26 1_555 1_555
H49 C40 1_555 1_555
H50 C40 1_555 1_555
H51 C40 1_555 1_555
C41 C25 1_555 1_555
H52 C41 1_555 1_555
H53 C41 1_555 1_555
C42 O6 1_555 1_555
H54 C42 1_555 1_555
H55 C42 1_555 1_555
H56 C42 1_555 1_555
C5 C10 1_555 1_555
C9 C10 1_555 1_555
C12 C13 1_555 1_555
C15 C16 1_555 1_555
C26 C31 1_555 1_555
C30 C31 1_555 1_555
C33 C34 1_555 1_555
C36 C37 1_555 1_555

#END
