
#######################################################################
#
#                 Cambridge Crystallographic Data Centre
#                                CCDC 
#
#######################################################################
#
# If this CIF has been generated from an entry in the Cambridge 
# Structural Database, then it will include bibliographic, chemical, 
# crystal, experimental, refinement or atomic coordinate data resulting 
# from the CCDC's data processing and validation procedures.
#
#######################################################################

data_DEBVOX
_chemical_formula_moiety         'C17 H14 Br1 N1'
_chemical_name_systematic        6-Bromo-1-(1-phenylprop-2-en-1-yl)-1H-indole
_symmetry_cell_setting           monoclinic
_symmetry_space_group_name_H-M   'C 2'
_symmetry_Int_Tables_number      5
_space_group_name_Hall           'C 2y'
loop_
_symmetry_equiv_pos_site_id
_symmetry_equiv_pos_as_xyz
1 x,y,z
2 -x,y,-z
3 1/2+x,1/2+y,z
4 1/2-x,1/2+y,-z
_cell_length_a                   19.721(4)
_cell_length_b                   6.0088(13)
_cell_length_c                   12.568(3)
_cell_angle_alpha                90
_cell_angle_beta                 101.104(4)
_cell_angle_gamma                90
_cell_volume                     1461.42
_exptl_crystal_colour            colorless
_exptl_crystal_description       prismatic
_cell_formula_units_Z            4
loop_
_atom_site_label
_atom_site_type_symbol
_atom_site_fract_x
_atom_site_fract_y
_atom_site_fract_z
Br1 Br 0.05405(4) 0.2208(3) 0.15133(7)
N1 N 0.3188(4) 0.4355(11) 0.2053(5)
C1 C 0.2504(5) 0.4662(12) 0.1715(6)
C2 C 0.1967(4) 0.3264(14) 0.1843(6)
H1 H 0.2036 0.1893 0.2191
C3 C 0.1301(6) 0.411(2) 0.1396(7)
C4 C 0.1157(7) 0.5978(18) 0.0850(8)
H2 H 0.0703 0.6384 0.0566
C5 C 0.1699(7) 0.730(2) 0.0717(6)
H3 H 0.1605 0.8613 0.0327
C6 C 0.2380(6) 0.6760(15) 0.1136(6)
C7 C 0.3054(8) 0.7628(18) 0.1141(7)
H4 H 0.3148 0.8943 0.0808
C8 C 0.3517(6) 0.630(2) 0.1687(7)
H5 H 0.3991 0.6557 0.1821
C9 C 0.3512(4) 0.244(2) 0.2727(6)
H6 H 0.3251 0.1086 0.2479
C10 C 0.4214(5) 0.219(3) 0.2513(8)
H7 H 0.4270 0.2348 0.1799
C11 C 0.4756(5) 0.178(4) 0.3228(11)
H8 H 0.4722 0.1612 0.3951
H9 H 0.5183 0.1650 0.3023
C12 C 0.3488(4) 0.2798(16) 0.3939(6)
C13 C 0.3723(6) 0.4756(15) 0.4445(7)
H10 H 0.3892 0.5919 0.4084
C14 C 0.3690(7) 0.487(2) 0.5523(8)
H11 H 0.3844 0.6168 0.5891
C15 C 0.3457(7) 0.327(3) 0.6083(9)
H12 H 0.3477 0.3406 0.6825
C16 C 0.3197(5) 0.149(3) 0.5562(10)
H13 H 0.2989 0.0413 0.5923
C17 C 0.3228(5) 0.1179(14) 0.4455(7)
H14 H 0.3069 -0.0132 0.4099
loop_
_geom_bond_atom_site_label_1
_geom_bond_atom_site_label_2
_geom_bond_site_symmetry_1
_geom_bond_site_symmetry_2
Br1 C3 1_555 1_555
N1 C1 1_555 1_555
C1 C2 1_555 1_555
C2 H1 1_555 1_555
C3 C2 1_555 1_555
C4 C3 1_555 1_555
H2 C4 1_555 1_555
C5 C4 1_555 1_555
H3 C5 1_555 1_555
C6 C1 1_555 1_555
C7 C6 1_555 1_555
H4 C7 1_555 1_555
C8 N1 1_555 1_555
H5 C8 1_555 1_555
C9 N1 1_555 1_555
H6 C9 1_555 1_555
C10 C9 1_555 1_555
H7 C10 1_555 1_555
C11 C10 1_555 1_555
H8 C11 1_555 1_555
H9 C11 1_555 1_555
C12 C9 1_555 1_555
C13 C12 1_555 1_555
H10 C13 1_555 1_555
C14 C13 1_555 1_555
H11 C14 1_555 1_555
C15 C14 1_555 1_555
H12 C15 1_555 1_555
C16 C15 1_555 1_555
H13 C16 1_555 1_555
C17 C12 1_555 1_555
H14 C17 1_555 1_555
C5 C6 1_555 1_555
C7 C8 1_555 1_555
C16 C17 1_555 1_555

#END
