
#######################################################################
#
#                 Cambridge Crystallographic Data Centre
#                                CCDC 
#
#######################################################################
#
# If this CIF has been generated from an entry in the Cambridge 
# Structural Database, then it will include bibliographic, chemical, 
# crystal, experimental, refinement or atomic coordinate data resulting 
# from the CCDC's data processing and validation procedures.
#
#######################################################################

data_DEBXIT01
_chemical_formula_moiety         'C23 H14 N6 O3'
_chemical_name_systematic        
5,7,15,17,24,26-hexaazaoctacyclo[9.9.9.0^2,10^.0^4,8^.0^12,20^.0^14,18^.0^21,29^.0^23,27^]nonacosa-2(10),3,8,12(20),13,18,21(29),22,27-nonaene-6,16,25-trione
_symmetry_cell_setting           hexagonal
_symmetry_space_group_name_H-M   'P 63/m m c'
_symmetry_Int_Tables_number      194
_space_group_name_Hall           "-P 6c 2'c"
loop_
_symmetry_equiv_pos_site_id
_symmetry_equiv_pos_as_xyz
1 x,y,z
2 x,x-y,1/2-z
3 -y,x-y,z
4 -x,-y,1/2+z
5 y,-x+y,1/2+z
6 x-y,x,1/2+z
7 -x+y,y,1/2-z
8 -x+y,-x,z
9 y,x,-z
10 x-y,-y,-z
11 -x,-x+y,-z
12 -y,-x,1/2-z
13 -x,-y,-z
14 -x,-x+y,1/2+z
15 y,-x+y,-z
16 x,y,1/2-z
17 -y,x-y,1/2-z
18 -x+y,-x,1/2-z
19 x-y,-y,1/2+z
20 x-y,x,-z
21 -y,-x,z
22 -x+y,y,z
23 x,x-y,z
24 y,x,1/2+z
_cell_length_a                   23.2209(12)
_cell_length_b                   23.2209(12)
_cell_length_c                   7.2864(4)
_cell_angle_alpha                90
_cell_angle_beta                 90
_cell_angle_gamma                120
_cell_volume                     3402.53
_exptl_crystal_colour            colorless
_exptl_crystal_description       needle
_cell_formula_units_Z            2
loop_
_atom_site_label
_atom_site_type_symbol
_atom_site_fract_x
_atom_site_fract_y
_atom_site_fract_z
O1 O 0.51096(3) 0.48904(3) 0.7500
N1 N 0.45989(3) 0.54011(3) 0.59980(14)
C1 C 0.3333 0.6667 0.5736(2)
C2 C 0.36832(3) 0.63168(3) 0.65311(13)
C3 C 0.39756(3) 0.60244(3) 0.55466(15)
C4 C 0.42682(3) 0.57318(3) 0.65379(15)
C5 C 0.48002(5) 0.51998(5) 0.7500
H1 H 0.3977(3) 0.6023(3) 0.416(2)
H2 H 0.3333 0.6667 0.432(3)
H3 H 0.4686(4) 0.5314(4) 0.482(3)
O1A O 0.51096(3) 1.02192(4) 0.7500
N1B N 0.45989(3) 0.91978(4) 0.59980(14)
C2B C 0.36832(3) 0.73664(4) 0.65311(13)
C3B C 0.39756(3) 0.79512(4) 0.55466(15)
C4B C 0.42682(3) 0.85364(4) 0.65379(15)
C5A C 0.48002(5) 0.96004(7) 0.7500
H1B H 0.3977(3) 0.7954(4) 0.416(2)
H3B H 0.4686(4) 0.9372(6) 0.482(3)
O1U O -0.02192(4) 0.48904(3) 0.7500
N1U N 0.08022(4) 0.54011(3) 0.59980(14)
C2U C 0.26336(4) 0.63168(3) 0.65311(13)
C3U C 0.20488(4) 0.60244(3) 0.55466(15)
C4U C 0.14636(4) 0.57318(3) 0.65379(15)
C5U C 0.03996(7) 0.51998(5) 0.7500
H1U H 0.2046(4) 0.6023(3) 0.416(2)
H3U H 0.0628(6) 0.5314(4) 0.482(3)
N1F N 0.08022(4) 0.54011(3) 0.90020(14)
C1A C 0.3333 0.6666 0.9264(2)
C2F C 0.26336(4) 0.63168(3) 0.84689(13)
C3F C 0.20488(4) 0.60244(3) 0.94534(15)
C4F C 0.14636(4) 0.57318(3) 0.84621(15)
H1F H 0.2046(4) 0.6023(3) 1.084(2)
H2A H 0.3333 0.6666 1.068(3)
H3F H 0.0628(6) 0.5314(4) 1.018(3)
N1O N 0.45989(3) 0.54011(3) 0.90020(14)
C2O C 0.36832(3) 0.63168(3) 0.84689(13)
C3O C 0.39756(3) 0.60244(3) 0.94534(15)
C4O C 0.42682(3) 0.57318(3) 0.84621(15)
H1O H 0.3977(3) 0.6023(3) 1.084(2)
H3O H 0.4686(4) 0.5314(4) 1.018(3)
N1A N 0.45989(3) 0.91978(4) 0.90020(14)
C2A C 0.36832(3) 0.73664(4) 0.84689(13)
C3A C 0.39756(3) 0.79512(4) 0.94534(15)
C4A C 0.42682(3) 0.85364(4) 0.84621(15)
H1A H 0.3977(3) 0.7954(4) 1.084(2)
H3A H 0.4686(4) 0.9372(6) 1.018(3)
loop_
_geom_bond_atom_site_label_1
_geom_bond_atom_site_label_2
_geom_bond_site_symmetry_1
_geom_bond_site_symmetry_2
O1 C5 1_555 1_555
N1 C4 1_555 1_555
C1 C2 1_555 1_555
C2 C3 1_555 1_555
C3 C4 1_555 1_555
C4 C4O 1_555 1_555
C5 N1 1_555 1_555
H1 C3 1_555 1_555
H2 C1 1_555 1_555
H3 N1 1_555 1_555
O1A C5A 1_555 1_555
N1B C4B 1_555 1_555
C2B C1 1_555 1_555
C3B C2B 1_555 1_555
C4B C3B 1_555 1_555
C5A N1B 1_555 1_555
H1B C3B 1_555 1_555
H3B N1B 1_555 1_555
O1U C5U 1_555 1_555
N1U C4U 1_555 1_555
C2U C1 1_555 1_555
C3U C2U 1_555 1_555
C4U C3U 1_555 1_555
C5U N1U 1_555 1_555
H1U C3U 1_555 1_555
H3U N1U 1_555 1_555
N1F C5U 1_555 1_555
C1A C2F 1_555 1_555
C2F C2U 1_555 1_555
C3F C2F 1_555 1_555
C4F C4U 1_555 1_555
H1F C3F 1_555 1_555
H2A C1A 1_555 1_555
H3F N1F 1_555 1_555
N1O C5 1_555 1_555
C2O C2 1_555 1_555
C3O C2O 1_555 1_555
C4O N1O 1_555 1_555
H1O C3O 1_555 1_555
H3O N1O 1_555 1_555
N1A C5A 1_555 1_555
C2A C2B 1_555 1_555
C3A C2A 1_555 1_555
C4A C4B 1_555 1_555
H1A C3A 1_555 1_555
H3A N1A 1_555 1_555
N1F C4F 1_555 1_555
C1A C2O 1_555 1_555
C1A C2A 1_555 1_555
C3F C4F 1_555 1_555
C3O C4O 1_555 1_555
N1A C4A 1_555 1_555
C3A C4A 1_555 1_555

#END
