
#######################################################################
#
#                 Cambridge Crystallographic Data Centre
#                                CCDC 
#
#######################################################################
#
# If this CIF has been generated from an entry in the Cambridge 
# Structural Database, then it will include bibliographic, chemical, 
# crystal, experimental, refinement or atomic coordinate data resulting 
# from the CCDC's data processing and validation procedures.
#
#######################################################################

data_DECDIB
_chemical_formula_moiety         'C20 H30 O3'
_chemical_name_systematic        
5a-methyl-6-(6-methylhept-5-en-2-yl)octahydro-2H-indeno[5,4-b]furan-2,8(1H)-dione
_symmetry_cell_setting           monoclinic
_symmetry_space_group_name_H-M   'P 21'
_symmetry_Int_Tables_number      4
_space_group_name_Hall           'P 2yb'
loop_
_symmetry_equiv_pos_site_id
_symmetry_equiv_pos_as_xyz
1 x,y,z
2 -x,1/2+y,-z
_cell_length_a                   10.1944(2)
_cell_length_b                   6.53348(13)
_cell_length_c                   13.5748(3)
_cell_angle_alpha                90
_cell_angle_beta                 95.120(2)
_cell_angle_gamma                90
_cell_volume                     900.541
_exptl_crystal_colour            'light colorless'
_exptl_crystal_description       needle
_cell_formula_units_Z            2
loop_
_atom_site_label
_atom_site_type_symbol
_atom_site_fract_x
_atom_site_fract_y
_atom_site_fract_z
O1 O 0.50612(12) 0.2793(2) 0.08515(10)
O2 O 0.94315(12) 0.0914(2) -0.04245(10)
O3 O 0.44099(13) 0.2595(2) -0.07499(11)
C1 C 1.06057(17) 0.1170(3) 0.11998(14)
H1 H 1.1197 0.2226 0.1000
H2 H 1.1077 -0.0120 0.1252
C2 C 0.52958(18) 0.2826(3) -0.01081(16)
C3 C 0.94114(17) 0.1007(3) 0.04694(14)
C4 C 1.00743(18) 0.1724(3) 0.21870(14)
H3 H 0.9926 0.3206 0.2184
C5 C 0.74172(17) 0.3019(3) 0.08332(14)
H4 H 0.8017 0.4178 0.0966
C6 C 0.62562(17) 0.3184(3) 0.14911(14)
H5 H 0.6224 0.4578 0.1755
C7 C 0.81779(17) 0.0993(3) 0.10177(13)
H6 H 0.7616 -0.0162 0.0791
C8 C 0.8798(2) -0.1639(3) 0.23208(16)
H7 H 0.9356 -0.2253 0.1870
H8 H 0.7936 -0.2240 0.2228
H9 H 0.9164 -0.1870 0.2988
C9 C 1.1066(2) 0.1241(4) 0.30797(15)
H10 H 1.1249 -0.0230 0.3063
C10 C 0.77421(18) 0.1639(3) 0.28171(15)
H11 H 0.7772 0.0856 0.3426
H12 H 0.8024 0.3024 0.2983
C11 C 0.63327(19) 0.1683(3) 0.23371(15)
H13 H 0.6078 0.0330 0.2095
H14 H 0.5736 0.2093 0.2819
C12 C 1.4147(2) 0.6729(3) 0.37794(15)
C13 C 1.2377(2) 0.2361(4) 0.29944(16)
H15 H 1.2967 0.2037 0.3573
H16 H 1.2771 0.1833 0.2422
C14 C 0.67245(18) 0.3207(3) -0.02135(15)
H17 H 0.6853 0.4564 -0.0479
H18 H 0.7067 0.2205 -0.0651
C15 C 0.86974(17) 0.0676(3) 0.21231(14)
C16 C 1.2276(2) 0.4698(4) 0.29001(19)
H19 H 1.1840 0.5050 0.2258
H20 H 1.1749 0.5226 0.3403
C17 C 1.0544(2) 0.1707(5) 0.40808(16)
H21 H 1.0207 0.3079 0.4077
H22 H 1.1247 0.1571 0.4597
H23 H 0.9853 0.0762 0.4195
C18 C 1.3436(3) 0.7302(5) 0.46561(18)
H24 H 1.3148 0.8699 0.4593
H25 H 1.4018 0.7151 0.5248
H26 H 1.2686 0.6424 0.4690
C19 C 1.3612(2) 0.5666(4) 0.30142(17)
H27 H 1.4126 0.5503 0.2487
C20 C 1.5534(3) 0.7482(5) 0.3815(2)
H28 H 1.5542 0.8947 0.3866
H29 H 1.5913 0.7078 0.3222
H30 H 1.6037 0.6904 0.4378
loop_
_geom_bond_atom_site_label_1
_geom_bond_atom_site_label_2
_geom_bond_site_symmetry_1
_geom_bond_site_symmetry_2
O1 C2 1_555 1_555
O2 C3 1_555 1_555
O3 C2 1_555 1_555
C1 H1 1_555 1_555
H2 C1 1_555 1_555
C2 C14 1_555 1_555
C3 C1 1_555 1_555
C4 C1 1_555 1_555
H3 C4 1_555 1_555
C5 H4 1_555 1_555
C6 O1 1_555 1_555
H5 C6 1_555 1_555
C7 C3 1_555 1_555
H6 C7 1_555 1_555
C8 H7 1_555 1_555
H8 C8 1_555 1_555
H9 C8 1_555 1_555
C9 C4 1_555 1_555
H10 C9 1_555 1_555
C10 H11 1_555 1_555
H12 C10 1_555 1_555
C11 C6 1_555 1_555
H13 C11 1_555 1_555
H14 C11 1_555 1_555
C12 C18 1_555 1_555
C13 C9 1_555 1_555
H15 C13 1_555 1_555
H16 C13 1_555 1_555
C14 C5 1_555 1_555
H17 C14 1_555 1_555
H18 C14 1_555 1_555
C15 C4 1_555 1_555
C16 C13 1_555 1_555
H19 C16 1_555 1_555
H20 C16 1_555 1_555
C17 C9 1_555 1_555
H21 C17 1_555 1_555
H22 C17 1_555 1_555
H23 C17 1_555 1_555
C18 H24 1_555 1_555
H25 C18 1_555 1_555
H26 C18 1_555 1_555
C19 C12 1_555 1_555
H27 C19 1_555 1_555
C20 C12 1_555 1_555
H28 C20 1_555 1_555
H29 C20 1_555 1_555
H30 C20 1_555 1_555
C5 C6 1_555 1_555
C5 C7 1_555 1_555
C7 C15 1_555 1_555
C8 C15 1_555 1_555
C10 C11 1_555 1_555
C10 C15 1_555 1_555
C16 C19 1_555 1_555

#END
