
#######################################################################
#
#                 Cambridge Crystallographic Data Centre
#                                CCDC 
#
#######################################################################
#
# If this CIF has been generated from an entry in the Cambridge 
# Structural Database, then it will include bibliographic, chemical, 
# crystal, experimental, refinement or atomic coordinate data resulting 
# from the CCDC's data processing and validation procedures.
#
#######################################################################

data_DECFAS
_chemical_formula_moiety         'C17 H24 N1 O2 1+,Cl1 1-'
_chemical_name_systematic        
'2-(Tropan-3-yl)-1-(p-methoxyphenyl)-ethan-1-one hydrochloride'
_symmetry_cell_setting           orthorhombic
_symmetry_space_group_name_H-M   'P 21 21 21'
_symmetry_Int_Tables_number      19
_space_group_name_Hall           'P 2ac 2ab'
loop_
_symmetry_equiv_pos_site_id
_symmetry_equiv_pos_as_xyz
1 x,y,z
2 1/2-x,-y,1/2+z
3 -x,1/2+y,1/2-z
4 1/2+x,1/2-y,-z
_cell_length_a                   6.341(1)
_cell_length_b                   11.558(1)
_cell_length_c                   21.415(4)
_cell_angle_alpha                90
_cell_angle_beta                 90
_cell_angle_gamma                90
_cell_volume                     1569.49
_exptl_crystal_colour            amber
_exptl_crystal_description       block
_cell_formula_units_Z            4
loop_
_atom_site_label
_atom_site_type_symbol
_atom_site_fract_x
_atom_site_fract_y
_atom_site_fract_z
Cl1 Cl 1.31301(8) 0.68637(4) 0.35969(2)
O1 O 0.6676(2) 0.69786(12) 0.13370(7)
O2 O -0.1360(2) 0.48215(12) 0.00267(7)
N1 N 1.0065(3) 0.48554(14) 0.34309(7)
H1 H 1.119(4) 0.549(2) 0.3405(10)
C1 C 0.7921(3) 0.54022(17) 0.33029(9)
H2 H 0.745(3) 0.5880(17) 0.3654(10)
C2 C 0.8168(4) 0.61657(16) 0.27231(9)
H3 H 0.922(4) 0.678(2) 0.2851(10)
H4 H 0.681(4) 0.655(2) 0.2656(10)
C3 C 0.8986(3) 0.55303(18) 0.21326(9)
H5 H 0.960(4) 0.6091(19) 0.1890(10)
C4 C 1.0648(3) 0.46057(18) 0.23110(9)
H6 H 1.078(4) 0.401(2) 0.1955(13)
H7 H 1.199(4) 0.500(2) 0.2352(10)
C5 C 1.0183(3) 0.39547(17) 0.29171(9)
H8 H 1.135(4) 0.3451(18) 0.3013(10)
C6 C 0.7986(4) 0.33888(16) 0.29500(9)
H9 H 0.807(4) 0.269(2) 0.3237(11)
H10 H 0.748(4) 0.3096(19) 0.2532(11)
C7 C 0.6510(3) 0.43324(18) 0.32170(9)
H11 H 0.587(4) 0.413(2) 0.3612(13)
H12 H 0.529(4) 0.451(2) 0.2945(12)
C8 C 1.0308(4) 0.4360(2) 0.40698(10)
H13 H 1.149(4) 0.382(2) 0.4063(11)
H14 H 0.918(5) 0.404(2) 0.4195(13)
H15 H 1.076(4) 0.500(2) 0.4351(11)
C9 C 0.7217(3) 0.50493(17) 0.17167(9)
H16 H 0.783(4) 0.446(2) 0.1416(11)
H17 H 0.617(4) 0.461(2) 0.1952(11)
C10 C 0.6085(3) 0.59737(16) 0.13358(9)
C11 C 0.4199(3) 0.56109(18) 0.09693(9)
C12 C 0.2966(3) 0.64645(17) 0.06778(9)
H18 H 0.343(4) 0.725(2) 0.0700(10)
C13 C 0.1134(3) 0.61801(17) 0.03637(9)
H19 H 0.034(4) 0.680(2) 0.0169(11)
C14 C 0.0500(3) 0.50234(18) 0.03259(9)
C15 C 0.1736(3) 0.41591(16) 0.05989(9)
H20 H 0.119(4) 0.336(2) 0.0576(11)
C16 C 0.3572(3) 0.44573(17) 0.09190(9)
H21 H 0.437(3) 0.3839(18) 0.1124(10)
C17 C -0.1993(4) 0.36277(19) -0.00365(10)
H22 H -0.208(4) 0.323(2) 0.0374(12)
H23 H -0.347(4) 0.3682(19) -0.0227(10)
H24 H -0.099(4) 0.320(2) -0.0302(12)
loop_
_geom_bond_atom_site_label_1
_geom_bond_atom_site_label_2
_geom_bond_site_symmetry_1
_geom_bond_site_symmetry_2
O1 C10 1_555 1_555
O2 C14 1_555 1_555
N1 H1 1_555 1_555
C1 N1 1_555 1_555
H2 C1 1_555 1_555
C2 C1 1_555 1_555
H3 C2 1_555 1_555
H4 C2 1_555 1_555
C3 C2 1_555 1_555
H5 C3 1_555 1_555
C4 C3 1_555 1_555
H6 C4 1_555 1_555
H7 C4 1_555 1_555
C5 N1 1_555 1_555
H8 C5 1_555 1_555
C6 C5 1_555 1_555
H9 C6 1_555 1_555
H10 C6 1_555 1_555
C7 C1 1_555 1_555
H11 C7 1_555 1_555
H12 C7 1_555 1_555
C8 N1 1_555 1_555
H13 C8 1_555 1_555
H14 C8 1_555 1_555
H15 C8 1_555 1_555
C9 C3 1_555 1_555
H16 C9 1_555 1_555
H17 C9 1_555 1_555
C10 C9 1_555 1_555
C11 C10 1_555 1_555
C12 C11 1_555 1_555
H18 C12 1_555 1_555
C13 C12 1_555 1_555
H19 C13 1_555 1_555
C14 C13 1_555 1_555
C15 C14 1_555 1_555
H20 C15 1_555 1_555
C16 C11 1_555 1_555
H21 C16 1_555 1_555
C17 O2 1_555 1_555
H22 C17 1_555 1_555
H23 C17 1_555 1_555
H24 C17 1_555 1_555
C4 C5 1_555 1_555
C6 C7 1_555 1_555
C15 C16 1_555 1_555

#END
