
#######################################################################
#
#                 Cambridge Crystallographic Data Centre
#                                CCDC 
#
#######################################################################
#
# If this CIF has been generated from an entry in the Cambridge 
# Structural Database, then it will include bibliographic, chemical, 
# crystal, experimental, refinement or atomic coordinate data resulting 
# from the CCDC's data processing and validation procedures.
#
#######################################################################

data_DECJIF
_chemical_formula_moiety         'C2 H2 B1 F3 I1 N1'
_chemical_name_systematic        N-(Trifluoroboryl)-iodoacetonitrile
_symmetry_cell_setting           monoclinic
_symmetry_space_group_name_H-M   'P 21/c'
_symmetry_Int_Tables_number      14
_space_group_name_Hall           '-P 2ybc'
loop_
_symmetry_equiv_pos_site_id
_symmetry_equiv_pos_as_xyz
1 x,y,z
2 -x,1/2+y,1/2-z
3 -x,-y,-z
4 x,1/2-y,1/2+z
_cell_length_a                   9.947(2)
_cell_length_b                   8.240(1)
_cell_length_c                   7.671(4)
_cell_angle_alpha                90
_cell_angle_beta                 108.96(2)
_cell_angle_gamma                90
_cell_volume                     594.628
_exptl_crystal_colour            colorless
_exptl_crystal_description       plate
_cell_formula_units_Z            4
loop_
_atom_site_label
_atom_site_type_symbol
_atom_site_fract_x
_atom_site_fract_y
_atom_site_fract_z
I1 I 0.09320(7) 0.13721(8) 0.78003(9)
C1 C 0.3080(10) 0.0234(12) 0.6107(13)
C2 C 0.3045(11) 0.1045(12) 0.7754(14)
H1 H 0.3509 0.2118 0.7839
H2 H 0.3591 0.0401 0.8843
N1 N 0.3119(8) -0.0367(10) 0.4810(11)
B1 B 0.3338(12) -0.1315(14) 0.3037(14)
F1 F 0.3708(7) -0.0089(8) 0.2067(8)
F2 F 0.4377(6) -0.2396(7) 0.3761(8)
F3 F 0.2060(7) -0.1980(9) 0.2101(9)
loop_
_geom_bond_atom_site_label_1
_geom_bond_atom_site_label_2
_geom_bond_site_symmetry_1
_geom_bond_site_symmetry_2
I1 C2 1_555 1_555
C1 C2 1_555 1_555
C2 H1 1_555 1_555
H2 C2 1_555 1_555
N1 C1 1_555 1_555
B1 N1 1_555 1_555
F1 B1 1_555 1_555
F2 B1 1_555 1_555
F3 B1 1_555 1_555

#END
