
#######################################################################
#
#                 Cambridge Crystallographic Data Centre
#                                CCDC 
#
#######################################################################
#
# If this CIF has been generated from an entry in the Cambridge 
# Structural Database, then it will include bibliographic, chemical, 
# crystal, experimental, refinement or atomic coordinate data resulting 
# from the CCDC's data processing and validation procedures.
#
#######################################################################

data_DECLIJ
_chemical_compound_source        
'isolated from the whole plants of Zephyranthes carinata'
_chemical_name_common            'galanthine N-beta-oxide trihydrate'
_chemical_formula_moiety         'C18 H23 N1 O5,3(H2 O1)'
_chemical_name_systematic        
'2,9,10-trimethoxy-6-oxo-1,2,4,5,6,7,11b,11c-octahydro-6\l^5^-pyrrolo[3,2,1-de]phenanthridin-1-ol trihydrate'
_symmetry_cell_setting           monoclinic
_symmetry_space_group_name_H-M   'P 21'
_symmetry_Int_Tables_number      4
_space_group_name_Hall           'P 2yb'
loop_
_symmetry_equiv_pos_site_id
_symmetry_equiv_pos_as_xyz
1 x,y,z
2 -x,1/2+y,-z
_cell_length_a                   9.5350(3)
_cell_length_b                   7.4498(2)
_cell_length_c                   14.7161(4)
_cell_angle_alpha                90
_cell_angle_beta                 103.4880(10)
_cell_angle_gamma                90
_cell_volume                     1016.51
_exptl_crystal_colour            colorless
_exptl_crystal_description       block
_cell_formula_units_Z            2
loop_
_atom_site_label
_atom_site_type_symbol
_atom_site_fract_x
_atom_site_fract_y
_atom_site_fract_z
C1 C 0.77593(15) 0.07665(17) 0.35976(9)
H1 H 0.8726 0.0277 0.3848
C2 C 0.69296(16) 0.0844(2) 0.43861(10)
H2 H 0.6628 -0.0374 0.4506
C3 C 0.56294(16) 0.2046(2) 0.41858(11)
H3 H 0.4961 0.1948 0.4554
C4 C 0.54067(16) 0.3236(2) 0.35038(11)
C5 C 0.69835(16) 0.5443(2) 0.17583(10)
H4 H 0.7168 0.6699 0.1656
H5 H 0.6292 0.5005 0.1212
C6 C 0.92631(18) 0.4851(2) 0.12842(10)
H6 H 0.9007 0.5801 0.0868
C7 C 1.05137(17) 0.3914(2) 0.13052(10)
C8 C 1.08911(16) 0.2467(2) 0.19197(10)
C9 C 1.00325(16) 0.20388(19) 0.25262(9)
H7 H 1.0301 0.1102 0.2948
C10 C 0.43221(18) 0.4751(2) 0.32429(12)
H8 H 0.4362 0.5551 0.3768
H9 H 0.3350 0.4284 0.3038
C11 C 0.47868(16) 0.5720(2) 0.24444(11)
H10 H 0.4248 0.5287 0.1842
H11 H 0.4645 0.7006 0.2478
C12 C 0.8898(2) 0.0362(3) 0.57278(12)
H12 H 0.8482 -0.0801 0.5766
H13 H 0.9278 0.0818 0.6346
H14 H 0.9661 0.0266 0.5405
C13 C 1.1126(3) 0.5738(4) 0.01193(18)
H15 H 1.0182 0.5583 -0.0279
H16 H 1.1825 0.5799 -0.0255
H17 H 1.1153 0.6829 0.0470
C14 C 1.2541(2) 0.0076(3) 0.24288(15)
H18 H 1.2663 0.0407 0.3073
H19 H 1.3435 -0.0384 0.2331
H20 H 1.1809 -0.0831 0.2271
C15 C 0.63801(15) 0.33198(16) 0.28509(9)
H21 H 0.5949 0.2625 0.2290
C16 C 0.83745(16) 0.43927(18) 0.18797(9)
C17 C 0.87662(14) 0.29945(17) 0.25140(9)
C18 C 0.78873(14) 0.26644(16) 0.32319(9)
H22 H 0.8304 0.3414 0.3775
N1 N 0.63635(13) 0.52724(14) 0.25933(8)
O1 O 0.70158(14) -0.03398(14) 0.28595(7)
H23 H 0.7109 -0.1394 0.3022
O2 O 0.78187(12) 0.15527(16) 0.52320(7)
O3 O 0.71594(11) 0.62742(12) 0.33324(7)
O4 O 1.14502(15) 0.4260(2) 0.07449(9)
O5 O 1.21242(13) 0.16013(17) 0.18571(8)
O6 O 0.78529(19) 0.5561(2) 0.52896(9)
H24 H 0.7883 0.4450 0.5318
H25 H 0.7583 0.5849 0.4737
O7 O 0.40243(17) 0.2422(2) 0.04979(10)
H26 H 0.3981 0.2994 0.0010
H27 H 0.3267 0.2594 0.0665
O8 O 0.5870(2) 0.9644(2) 0.09410(10)
H28 H 0.5335 1.0510 0.0792
H29 H 0.6255 0.9672 0.1501
loop_
_geom_bond_atom_site_label_1
_geom_bond_atom_site_label_2
_geom_bond_site_symmetry_1
_geom_bond_site_symmetry_2
C1 H1 1_555 1_555
C2 C1 1_555 1_555
H2 C2 1_555 1_555
C3 C2 1_555 1_555
H3 C3 1_555 1_555
C4 C3 1_555 1_555
C5 H4 1_555 1_555
H5 C5 1_555 1_555
C6 H6 1_555 1_555
C7 C6 1_555 1_555
C8 C7 1_555 1_555
C9 C8 1_555 1_555
H7 C9 1_555 1_555
C10 C4 1_555 1_555
H8 C10 1_555 1_555
H9 C10 1_555 1_555
C11 C10 1_555 1_555
H10 C11 1_555 1_555
H11 C11 1_555 1_555
C12 H12 1_555 1_555
H13 C12 1_555 1_555
H14 C12 1_555 1_555
C13 H15 1_555 1_555
H16 C13 1_555 1_555
H17 C13 1_555 1_555
C14 H18 1_555 1_555
H19 C14 1_555 1_555
H20 C14 1_555 1_555
C15 C4 1_555 1_555
H21 C15 1_555 1_555
C16 C5 1_555 1_555
C17 C9 1_555 1_555
C18 C1 1_555 1_555
H22 C18 1_555 1_555
N1 C5 1_555 1_555
O1 C1 1_555 1_555
H23 O1 1_555 1_555
O2 C2 1_555 1_555
O3 N1 1_555 1_555
O4 C7 1_555 1_555
O5 C8 1_555 1_555
O6 H24 1_555 1_555
H25 O6 1_555 1_555
O7 H26 1_555 1_555
H27 O7 1_555 1_555
O8 H28 1_555 1_555
H29 O8 1_555 1_555
C6 C16 1_555 1_555
C11 N1 1_555 1_555
C12 O2 1_555 1_555
C13 O4 1_555 1_555
C14 O5 1_555 1_555
C15 C18 1_555 1_555
C15 N1 1_555 1_555
C16 C17 1_555 1_555
C17 C18 1_555 1_555

#END
