
#######################################################################
#
#                 Cambridge Crystallographic Data Centre
#                                CCDC 
#
#######################################################################
#
# If this CIF has been generated from an entry in the Cambridge 
# Structural Database, then it will include bibliographic, chemical, 
# crystal, experimental, refinement or atomic coordinate data resulting 
# from the CCDC's data processing and validation procedures.
#
#######################################################################

data_DECQAG
_chemical_formula_moiety         'C24 H12 N4 O4,C10 H7 Cl1'
_chemical_name_systematic        
'2,7-bis(pyridin-4-yl)benzo[lmn][3,8]phenanthroline-1,3,6,8(2H,7H)-tetrone 1-chloronaphthalene solvate'
_symmetry_cell_setting           triclinic
_symmetry_space_group_name_H-M   'P -1'
_symmetry_Int_Tables_number      2
_space_group_name_Hall           '-P 1'
loop_
_symmetry_equiv_pos_site_id
_symmetry_equiv_pos_as_xyz
1 x,y,z
2 -x,-y,-z
_cell_length_a                   7.1033(6)
_cell_length_b                   13.5720(12)
_cell_length_c                   13.7408(13)
_cell_angle_alpha                93.996(7)
_cell_angle_beta                 93.869(7)
_cell_angle_gamma                102.883(7)
_cell_volume                     1283.51
_exptl_crystal_colour            yellow
_exptl_crystal_description       block
_cell_formula_units_Z            2
loop_
_atom_site_label
_atom_site_type_symbol
_atom_site_fract_x
_atom_site_fract_y
_atom_site_fract_z
Cl1 Cl 0.7486(2) 0.59208(13) 0.38169(13)
C1 C 0.7153(6) 0.6537(3) 0.2794(3)
C2 C 0.6233(6) 0.5942(2) 0.1959(3)
H1 H 0.5849 0.5226 0.1967
C3 C 0.5873(6) 0.6395(3) 0.1110(3)
H2 H 0.5244 0.5988 0.0539
C4 C 0.6434(6) 0.7442(3) 0.1097(2)
H3 H 0.6188 0.7751 0.0517
C5 C 0.7354(5) 0.8037(2) 0.1933(3)
C6 C 0.7714(5) 0.7585(3) 0.2781(2)
C7 C 0.8662(9) 0.8229(6) 0.3624(5)
H4 H 0.8915 0.7937 0.4214
C8 C 0.9190(9) 0.9221(6) 0.3594(5)
H5 H 0.9811 0.9629 0.4167
C9 C 0.8870(8) 0.9679(4) 0.2767(5)
H6 H 0.9267 1.0397 0.2780
C10 C 0.7976(8) 0.9123(4) 0.1905(4)
H7 H 0.7783 0.9443 0.1325
O1 O 0.9656(5) 0.5430(2) 0.8449(2)
O2 O 0.7252(5) 0.4296(3) 0.5322(3)
O3 O 0.7654(5) 0.0375(3) 0.9755(3)
O4 O 0.5235(5) -0.0735(3) 0.6632(3)
N1 N 0.9318(7) 0.7900(3) 0.6205(3)
N2 N 0.8393(6) 0.4859(3) 0.6892(3)
N3 N 0.6435(6) -0.0169(3) 0.8199(3)
N4 N 0.5450(7) -0.3276(3) 0.8690(3)
C11 C 0.7531(9) 0.7336(4) 0.6242(4)
H8 H 0.6464 0.7639 0.6121
C12 C 0.7154(8) 0.6322(4) 0.6448(4)
H9 H 0.5863 0.5940 0.6466
C13 C 0.8709(7) 0.5896(4) 0.6626(4)
C14 C 1.0570(8) 0.6450(4) 0.6575(4)
H10 H 1.1656 0.6158 0.6680
C15 C 1.0800(9) 0.7462(4) 0.6361(4)
H11 H 1.2076 0.7855 0.6325
C16 C 0.8937(7) 0.4709(4) 0.7864(4)
C17 C 0.8560(7) 0.3640(4) 0.8115(4)
C18 C 0.7661(6) 0.2847(3) 0.7408(3)
C19 C 0.7163(6) 0.3044(4) 0.6437(4)
C20 C 0.7578(7) 0.4090(3) 0.6149(4)
C21 C 0.9067(7) 0.3443(4) 0.9062(4)
H12 H 0.9683 0.3984 0.9534
C22 C 0.8659(7) 0.2430(4) 0.9321(4)
H13 H 0.9008 0.2290 0.9968
C23 C 0.7762(6) 0.1649(3) 0.8641(4)
C24 C 0.7243(7) 0.1835(4) 0.7674(4)
C25 C 0.6344(7) 0.1051(3) 0.6952(4)
C26 C 0.5825(7) 0.1252(4) 0.6031(4)
H14 H 0.5168 0.0713 0.5567
C27 C 0.6250(7) 0.2251(4) 0.5759(4)
H15 H 0.5910 0.2382 0.5108
C28 C 0.7331(7) 0.0588(4) 0.8933(4)
C29 C 0.5936(7) -0.0023(4) 0.7211(4)
C30 C 0.6121(7) -0.1225(4) 0.8430(4)
C31 C 0.7652(8) -0.1668(4) 0.8579(4)
H16 H 0.8949 -0.1281 0.8606
C32 C 0.7252(8) -0.2704(4) 0.8690(4)
H17 H 0.8310 -0.3022 0.8768
C33 C 0.3987(8) -0.2807(4) 0.8590(4)
H18 H 0.2703 -0.3195 0.8613
C34 C 0.4246(8) -0.1777(4) 0.8454(4)
H19 H 0.3174 -0.1469 0.8380
Cl2? Cl 0.577(2) 0.6054(11) 0.0697(8)
loop_
_geom_bond_atom_site_label_1
_geom_bond_atom_site_label_2
_geom_bond_site_symmetry_1
_geom_bond_site_symmetry_2
Cl1 C1 1_555 1_555
C1 C2 1_555 1_555
C2 H1 1_555 1_555
C3 C2 1_555 1_555
H2 C3 1_555 1_555
C4 C3 1_555 1_555
H3 C4 1_555 1_555
C5 C4 1_555 1_555
C6 C1 1_555 1_555
C7 C6 1_555 1_555
H4 C7 1_555 1_555
C8 C7 1_555 1_555
H5 C8 1_555 1_555
C9 C8 1_555 1_555
H6 C9 1_555 1_555
C10 C5 1_555 1_555
H7 C10 1_555 1_555
O1 C16 1_555 1_555
O2 C20 1_555 1_555
O3 C28 1_555 1_555
O4 C29 1_555 1_555
N1 C11 1_555 1_555
N2 C13 1_555 1_555
N3 C28 1_555 1_555
N4 C32 1_555 1_555
C11 H8 1_555 1_555
C12 C11 1_555 1_555
H9 C12 1_555 1_555
C13 C12 1_555 1_555
C14 C13 1_555 1_555
H10 C14 1_555 1_555
C15 N1 1_555 1_555
H11 C15 1_555 1_555
C16 N2 1_555 1_555
C17 C16 1_555 1_555
C18 C17 1_555 1_555
C19 C18 1_555 1_555
C20 N2 1_555 1_555
C21 C17 1_555 1_555
H12 C21 1_555 1_555
C22 C21 1_555 1_555
H13 C22 1_555 1_555
C23 C22 1_555 1_555
C24 C18 1_555 1_555
C25 C24 1_555 1_555
C26 C25 1_555 1_555
H14 C26 1_555 1_555
C27 C19 1_555 1_555
H15 C27 1_555 1_555
C28 C23 1_555 1_555
C29 N3 1_555 1_555
C30 N3 1_555 1_555
C31 C30 1_555 1_555
H16 C31 1_555 1_555
C32 C31 1_555 1_555
H17 C32 1_555 1_555
C33 N4 1_555 1_555
H18 C33 1_555 1_555
C34 C30 1_555 1_555
H19 C34 1_555 1_555
C5 C6 1_555 1_555
C9 C10 1_555 1_555
C14 C15 1_555 1_555
C19 C20 1_555 1_555
C23 C24 1_555 1_555
C25 C29 1_555 1_555
C26 C27 1_555 1_555
C33 C34 1_555 1_555

#END
