
#######################################################################
#
#                 Cambridge Crystallographic Data Centre
#                                CCDC 
#
#######################################################################
#
# If this CIF has been generated from an entry in the Cambridge 
# Structural Database, then it will include bibliographic, chemical, 
# crystal, experimental, refinement or atomic coordinate data resulting 
# from the CCDC's data processing and validation procedures.
#
#######################################################################

data_DECROT
_chemical_formula_moiety         'C13 H22 B1 N1 O2'
_chemical_name_systematic        
'(2-(Diisopropylaminomethyl)phenyl)boronic acid'
_symmetry_cell_setting           monoclinic
_symmetry_space_group_name_H-M   'P 21/c'
_symmetry_Int_Tables_number      14
_space_group_name_Hall           '-P 2ybc'
loop_
_symmetry_equiv_pos_site_id
_symmetry_equiv_pos_as_xyz
1 x,y,z
2 -x,1/2+y,1/2-z
3 -x,-y,-z
4 x,1/2-y,1/2+z
_cell_length_a                   13.6197(3)
_cell_length_b                   7.6578(2)
_cell_length_c                   13.4864(3)
_cell_angle_alpha                90
_cell_angle_beta                 109.6060(10)
_cell_angle_gamma                90
_cell_volume                     1325.04
_exptl_crystal_colour            colorless
_exptl_crystal_description       plate
_chemical_melting_point          '152.0-152.9 deg.C'
_cell_formula_units_Z            4
_exptl_crystal_recrystallization_method water
loop_
_atom_site_label
_atom_site_type_symbol
_atom_site_fract_x
_atom_site_fract_y
_atom_site_fract_z
O1 O 0.38497(7) 1.12989(11) 0.50784(7)
H1 H 0.4471 1.0992 0.5382
O2 O 0.41155(6) 0.95351(11) 0.37540(6)
H2 H 0.3775 0.9145 0.3155
N1 N 0.30368(7) 0.87093(12) 0.17913(8)
C1 C 0.23751(9) 1.12199(14) 0.33500(9)
C2 C 0.26259(9) 1.05099(15) 0.15725(9)
H3 H 0.2188 1.0589 0.0822
H4 H 0.3220 1.1321 0.1687
C3 C 0.19848(9) 1.11125(14) 0.22411(9)
C4 C 0.37576(9) 0.82638(16) 0.11945(9)
H5 H 0.3772 0.6962 0.1143
C5 C 0.09771(9) 1.17105(16) 0.16980(10)
H6 H 0.0713 1.1617 0.0953
C6 C 0.48629(10) 0.88536(17) 0.18102(11)
H7 H 0.5066 0.8398 0.2530
H8 H 0.4891 1.0132 0.1830
H9 H 0.5343 0.8410 0.1467
C7 C 0.17208(9) 1.19408(16) 0.38551(10)
H10 H 0.1968 1.2013 0.4602
C8 C 0.26488(10) 0.56784(16) 0.22061(11)
H11 H 0.3116 0.5901 0.2925
H12 H 0.3040 0.5119 0.1801
H13 H 0.2082 0.4907 0.2226
C9 C 0.03527(10) 1.24371(18) 0.22197(11)
H14 H -0.0325 1.2852 0.1834
C10 C 0.34471(12) 0.89843(19) 0.00712(11)
H15 H 0.2737 0.8608 -0.0330
H16 H 0.3930 0.8543 -0.0270
H17 H 0.3476 1.0263 0.0094
C11 C 0.21959(9) 0.74014(15) 0.16858(9)
H18 H 0.1758 0.7873 0.2090
B1 B 0.35064(10) 1.06381(17) 0.40795(10)
C12 C 0.07278(10) 1.25510(18) 0.33085(11)
H19 H 0.0309 1.3042 0.3676
C13 C 0.14607(10) 0.70840(18) 0.05641(11)
H20 H 0.1175 0.8201 0.0240
H21 H 0.0890 0.6318 0.0581
H22 H 0.1846 0.6529 0.0152
loop_
_geom_bond_atom_site_label_1
_geom_bond_atom_site_label_2
_geom_bond_site_symmetry_1
_geom_bond_site_symmetry_2
O1 H1 1_555 1_555
O2 H2 1_555 1_555
N1 C2 1_555 1_555
C1 C3 1_555 1_555
C2 H3 1_555 1_555
H4 C2 1_555 1_555
C3 C2 1_555 1_555
C4 N1 1_555 1_555
H5 C4 1_555 1_555
C5 C3 1_555 1_555
H6 C5 1_555 1_555
C6 C4 1_555 1_555
H7 C6 1_555 1_555
H8 C6 1_555 1_555
H9 C6 1_555 1_555
C7 C1 1_555 1_555
H10 C7 1_555 1_555
C8 H11 1_555 1_555
H12 C8 1_555 1_555
H13 C8 1_555 1_555
C9 C5 1_555 1_555
H14 C9 1_555 1_555
C10 C4 1_555 1_555
H15 C10 1_555 1_555
H16 C10 1_555 1_555
H17 C10 1_555 1_555
C11 N1 1_555 1_555
H18 C11 1_555 1_555
B1 O1 1_555 1_555
C12 C7 1_555 1_555
H19 C12 1_555 1_555
C13 C11 1_555 1_555
H20 C13 1_555 1_555
H21 C13 1_555 1_555
H22 C13 1_555 1_555
O2 B1 1_555 1_555
C1 B1 1_555 1_555
C8 C11 1_555 1_555
C9 C12 1_555 1_555

#END
