
#######################################################################
#
#                 Cambridge Crystallographic Data Centre
#                                CCDC 
#
#######################################################################
#
# If this CIF has been generated from an entry in the Cambridge 
# Structural Database, then it will include bibliographic, chemical, 
# crystal, experimental, refinement or atomic coordinate data resulting 
# from the CCDC's data processing and validation procedures.
#
#######################################################################

data_DECRIN
_chemical_formula_moiety         'C26 H36 B1 N2 O2 1+,Cl1 1-'
_chemical_name_systematic        
"1-Bora-N,N'-3H,3'H-1,1'-spirobi((2)benzofuran)-3,3'-diylidenebis(N-isopropylisopropanaminium) dichloride"
_symmetry_cell_setting           monoclinic
_symmetry_space_group_name_H-M   'P 21'
_symmetry_Int_Tables_number      4
_space_group_name_Hall           'P 2yb'
loop_
_symmetry_equiv_pos_site_id
_symmetry_equiv_pos_as_xyz
1 x,y,z
2 -x,1/2+y,-z
_cell_length_a                   10.7057(2)
_cell_length_b                   9.3890(2)
_cell_length_c                   13.4072(3)
_cell_angle_alpha                90
_cell_angle_beta                 106.3620(10)
_cell_angle_gamma                90
_cell_volume                     1293.06
_exptl_crystal_colour            colorless
_chemical_melting_point          '268-269 deg.C'
_cell_formula_units_Z            2
_exptl_crystal_recrystallization_method hexane
loop_
_atom_site_label
_atom_site_type_symbol
_atom_site_fract_x
_atom_site_fract_y
_atom_site_fract_z
C1 C -0.2659(2) -0.1460(3) 0.41587(17)
H1 H -0.1786 -0.1692 0.4603
H2 H -0.3263 -0.2228 0.4199
H3 H -0.2954 -0.0567 0.4395
C2 C -0.39504(16) -0.09310(19) 0.23100(15)
H4 H -0.3882 -0.0833 0.1599
H5 H -0.4259 -0.0033 0.2528
H6 H -0.4567 -0.1694 0.2332
C3 C -0.26160(15) -0.12944(17) 0.30419(14)
H7 H -0.2347 -0.2233 0.2816
C4 C -0.11629(17) 0.20346(19) 0.40466(13)
H8 H -0.1235 0.1470 0.4643
H9 H -0.1509 0.2993 0.4087
H10 H -0.0246 0.2101 0.4055
C5 C -0.18813(16) 0.21300(18) 0.20684(13)
H11 H -0.2395 0.1622 0.1450
H12 H -0.0975 0.2198 0.2049
H13 H -0.2237 0.3089 0.2081
C6 C -0.19381(14) 0.13198(16) 0.30436(12)
H14 H -0.2869 0.1347 0.3051
C7 C -0.04237(14) -0.06133(16) 0.29813(11)
C8 C 0.01777(14) -0.20509(16) 0.29712(10)
C9 C -0.02623(15) -0.34404(16) 0.30811(12)
H15 H -0.1107 -0.3601 0.3157
C10 C 0.05747(15) -0.45697(17) 0.30753(12)
H16 H 0.0295 -0.5513 0.3151
C11 C 0.18145(16) -0.43519(17) 0.29612(13)
H17 H 0.2368 -0.5142 0.2960
C12 C 0.22428(14) -0.29763(17) 0.28494(11)
H18 H 0.3086 -0.2829 0.2767
C13 C 0.14360(14) -0.18189(16) 0.28580(11)
C14 C 0.29363(13) 0.05894(15) 0.35679(11)
C15 C 0.35471(14) 0.04215(16) 0.46198(11)
H19 H 0.3158 -0.0151 0.5035
C16 C 0.47325(15) 0.10933(16) 0.50675(12)
H20 H 0.5164 0.0957 0.5784
C17 C 0.52857(14) 0.19644(17) 0.44662(12)
H21 H 0.6098 0.2410 0.4782
C18 C 0.46828(14) 0.22007(17) 0.34156(12)
H22 H 0.5053 0.2821 0.3017
C19 C 0.34997(13) 0.14823(15) 0.29659(11)
C20 C 0.26565(14) 0.13765(16) 0.18674(11)
C21 C 0.20256(18) 0.0071(2) -0.02999(13)
H23 H 0.2953 -0.0085 -0.0225
H24 H 0.1522 -0.0118 -0.1020
H25 H 0.1738 -0.0572 0.0167
C22 C 0.03940(16) 0.1972(2) -0.01134(13)
H26 H 0.0329 0.2972 0.0075
H27 H 0.0079 0.1360 0.0357
H28 H -0.0137 0.1814 -0.0830
C23 C 0.18132(15) 0.16108(18) -0.00228(12)
H29 H 0.2065 0.2215 -0.0549
C24 C 0.2968(2) 0.45445(19) 0.04961(15)
H30 H 0.2323 0.4837 0.0849
H31 H 0.2530 0.4354 -0.0238
H32 H 0.3608 0.5308 0.0549
C25 C 0.46806(17) 0.2660(2) 0.05104(16)
H33 H 0.5088 0.1797 0.0870
H34 H 0.5346 0.3395 0.0563
H35 H 0.4268 0.2441 -0.0223
C26 C 0.36588(16) 0.31957(18) 0.10077(13)
H36 H 0.4116 0.3435 0.1747
N1 N -0.16009(12) -0.02356(13) 0.29947(10)
N2 N 0.27041(11) 0.20369(14) 0.10183(9)
O1 O 0.04002(9) 0.04113(11) 0.29638(8)
O2 O 0.17297(9) 0.04248(12) 0.17764(8)
B1 B 0.16784(16) -0.01475(18) 0.28256(13)
Cl1 Cl 0.62587(4) 0.52185(4) 0.25756(3)
loop_
_geom_bond_atom_site_label_1
_geom_bond_atom_site_label_2
_geom_bond_site_symmetry_1
_geom_bond_site_symmetry_2
C1 H1 1_555 1_555
H2 C1 1_555 1_555
H3 C1 1_555 1_555
C2 H4 1_555 1_555
H5 C2 1_555 1_555
H6 C2 1_555 1_555
C3 C1 1_555 1_555
H7 C3 1_555 1_555
C4 H8 1_555 1_555
H9 C4 1_555 1_555
H10 C4 1_555 1_555
C5 H11 1_555 1_555
H12 C5 1_555 1_555
H13 C5 1_555 1_555
C6 C4 1_555 1_555
H14 C6 1_555 1_555
C7 C8 1_555 1_555
C8 C9 1_555 1_555
C9 H15 1_555 1_555
C10 C9 1_555 1_555
H16 C10 1_555 1_555
C11 C10 1_555 1_555
H17 C11 1_555 1_555
C12 C11 1_555 1_555
H18 C12 1_555 1_555
C13 C8 1_555 1_555
C14 C15 1_555 1_555
C15 H19 1_555 1_555
C16 C15 1_555 1_555
H20 C16 1_555 1_555
C17 C16 1_555 1_555
H21 C17 1_555 1_555
C18 C17 1_555 1_555
H22 C18 1_555 1_555
C19 C14 1_555 1_555
C20 C19 1_555 1_555
C21 H23 1_555 1_555
H24 C21 1_555 1_555
H25 C21 1_555 1_555
C22 H26 1_555 1_555
H27 C22 1_555 1_555
H28 C22 1_555 1_555
C23 C21 1_555 1_555
H29 C23 1_555 1_555
C24 H30 1_555 1_555
H31 C24 1_555 1_555
H32 C24 1_555 1_555
C25 H33 1_555 1_555
H34 C25 1_555 1_555
H35 C25 1_555 1_555
C26 C24 1_555 1_555
H36 C26 1_555 1_555
N1 C3 1_555 1_555
N2 C20 1_555 1_555
O1 C7 1_555 1_555
O2 C20 1_555 1_555
B1 C13 1_555 1_555
C2 C3 1_555 1_555
C5 C6 1_555 1_555
C6 N1 1_555 1_555
C7 N1 1_555 1_555
C12 C13 1_555 1_555
C14 B1 1_555 1_555
C18 C19 1_555 1_555
C22 C23 1_555 1_555
C23 N2 1_555 1_555
C25 C26 1_555 1_555
C26 N2 1_555 1_555
O1 B1 1_555 1_555
O2 B1 1_555 1_555

#END
