
#######################################################################
#
#                 Cambridge Crystallographic Data Centre
#                                CCDC 
#
#######################################################################
#
# If this CIF has been generated from an entry in the Cambridge 
# Structural Database, then it will include bibliographic, chemical, 
# crystal, experimental, refinement or atomic coordinate data resulting 
# from the CCDC's data processing and validation procedures.
#
#######################################################################

data_DECSAG
_chemical_formula_moiety         'C13 H21 B1 F3 N1'
_chemical_name_systematic        
1-(Diisopropylaminomethyl)-2-(trifluoroboryl)benzene
_symmetry_cell_setting           monoclinic
_symmetry_space_group_name_H-M   'P 21/c'
_symmetry_Int_Tables_number      14
_space_group_name_Hall           '-P 2ybc'
loop_
_symmetry_equiv_pos_site_id
_symmetry_equiv_pos_as_xyz
1 x,y,z
2 -x,1/2+y,1/2-z
3 -x,-y,-z
4 x,1/2-y,1/2+z
_cell_length_a                   7.6697(2)
_cell_length_b                   13.8627(3)
_cell_length_c                   12.9921(3)
_cell_angle_alpha                90
_cell_angle_beta                 101.0230(10)
_cell_angle_gamma                90
_cell_volume                     1355.87
_exptl_crystal_colour            colorless
_chemical_melting_point          '194-196 deg.C'
_cell_formula_units_Z            4
_exptl_crystal_recrystallization_method acetonitrile
loop_
_atom_site_label
_atom_site_type_symbol
_atom_site_fract_x
_atom_site_fract_y
_atom_site_fract_z
C1 C 0.05121(14) 0.42067(7) 0.81682(8)
H1 H 0.0159 0.4884 0.8197
H2 H 0.1811 0.4160 0.8318
H3 H 0.0028 0.3835 0.8691
F1 F 0.14611(8) 0.19702(5) 0.90290(4)
F2 F 0.40798(9) 0.27275(4) 0.89526(5)
F3 F 0.40916(9) 0.13193(5) 0.98738(5)
N1 N 0.03527(10) 0.27449(5) 0.70466(6)
C2 C 0.34035(11) 0.12076(6) 0.79032(7)
C3 C 0.21173(11) 0.26047(6) 0.67063(7)
H4 H 0.2997 0.3059 0.7100
H5 H 0.1976 0.2762 0.5952
C4 C 0.28213(11) 0.15854(6) 0.68850(7)
C5 C 0.29583(12) 0.10450(7) 0.59951(8)
H6 H 0.2573 0.1315 0.5317
C6 C -0.02053(12) 0.38045(6) 0.70809(8)
H7 H -0.1531 0.3821 0.6972
C7 C 0.40966(12) 0.02664(7) 0.79731(8)
H8 H 0.4493 -0.0010 0.8646
C8 C -0.11036(12) 0.20872(7) 0.64682(8)
H9 H -0.0551 0.1443 0.6398
C9 C 0.36549(13) 0.01144(7) 0.60948(9)
H10 H 0.3742 -0.0252 0.5489
C10 C 0.03442(16) 0.44203(7) 0.62287(9)
H11 H -0.0052 0.5086 0.6293
H12 H -0.0201 0.4164 0.5539
H13 H 0.1640 0.4407 0.6305
C11 C -0.18671(14) 0.24392(9) 0.53672(9)
H14 H -0.2797 0.1994 0.5032
H15 H -0.0922 0.2466 0.4956
H16 H -0.2375 0.3084 0.5403
C12 C -0.25073(15) 0.19454(9) 0.71394(11)
H17 H -0.1938 0.1720 0.7838
H18 H -0.3376 0.1466 0.6810
H19 H -0.3111 0.2559 0.7203
C13 C 0.42197(13) -0.02727(7) 0.70856(9)
H20 H 0.4692 -0.0908 0.7160
B1 B 0.33160(14) 0.18035(8) 0.89632(8)
H21 H 0.0549(18) 0.2526(10) 0.7732(11)
loop_
_geom_bond_atom_site_label_1
_geom_bond_atom_site_label_2
_geom_bond_site_symmetry_1
_geom_bond_site_symmetry_2
C1 H1 1_555 1_555
H2 C1 1_555 1_555
H3 C1 1_555 1_555
F1 B1 1_555 1_555
F2 B1 1_555 1_555
F3 B1 1_555 1_555
N1 C3 1_555 1_555
C2 C4 1_555 1_555
C3 H4 1_555 1_555
H5 C3 1_555 1_555
C4 C3 1_555 1_555
C5 C4 1_555 1_555
H6 C5 1_555 1_555
C6 C1 1_555 1_555
H7 C6 1_555 1_555
C7 C2 1_555 1_555
H8 C7 1_555 1_555
C8 N1 1_555 1_555
H9 C8 1_555 1_555
C9 C5 1_555 1_555
H10 C9 1_555 1_555
C10 C6 1_555 1_555
H11 C10 1_555 1_555
H12 C10 1_555 1_555
H13 C10 1_555 1_555
C11 C8 1_555 1_555
H14 C11 1_555 1_555
H15 C11 1_555 1_555
H16 C11 1_555 1_555
C12 C8 1_555 1_555
H17 C12 1_555 1_555
H18 C12 1_555 1_555
H19 C12 1_555 1_555
C13 C7 1_555 1_555
H20 C13 1_555 1_555
B1 C2 1_555 1_555
H21 N1 1_555 1_555
N1 C6 1_555 1_555
C9 C13 1_555 1_555

#END
