
#######################################################################
#
#                 Cambridge Crystallographic Data Centre
#                                CCDC 
#
#######################################################################
#
# If this CIF has been generated from an entry in the Cambridge 
# Structural Database, then it will include bibliographic, chemical, 
# crystal, experimental, refinement or atomic coordinate data resulting 
# from the CCDC's data processing and validation procedures.
#
#######################################################################

data_DECWAJ
_chemical_formula_moiety         'C17 H18 O1'
_chemical_name_systematic        o-t-Butylbenzophenone
_symmetry_cell_setting           orthorhombic
_symmetry_space_group_name_H-M   'P b c a'
_symmetry_Int_Tables_number      61
_space_group_name_Hall           '-P 2ac 2ab'
loop_
_symmetry_equiv_pos_site_id
_symmetry_equiv_pos_as_xyz
1 x,y,z
2 1/2-x,-y,1/2+z
3 1/2+x,1/2-y,-z
4 -x,1/2+y,1/2-z
5 -x,-y,-z
6 1/2+x,y,1/2-z
7 1/2-x,1/2+y,z
8 x,1/2-y,1/2+z
_cell_length_a                   12.770(2)
_cell_length_b                   16.082(4)
_cell_length_c                   13.706(3)
_cell_angle_alpha                90
_cell_angle_beta                 90
_cell_angle_gamma                90
_cell_volume                     2814.76
_exptl_crystal_colour            colorless
_chemical_melting_point          70-71.6deg.C
_cell_formula_units_Z            8
loop_
_atom_site_label
_atom_site_type_symbol
_atom_site_fract_x
_atom_site_fract_y
_atom_site_fract_z
O1 O 0.3213(2) 0.4487(2) 0.0634(2)
C1 C 0.2067(4) 0.4940(3) 0.2286(3)
C2 C 0.1508(4) 0.5096(3) 0.3128(3)
C3 C 0.0577(4) 0.4697(3) 0.3300(3)
C4 C 0.0192(4) 0.4139(3) 0.2630(3)
C5 C 0.0750(3) 0.3976(2) 0.1782(3)
C6 C 0.1690(3) 0.4375(2) 0.1606(2)
C7 C 0.2333(3) 0.4210(2) 0.0715(3)
C8 C 0.1838(3) 0.3737(2) -0.0117(2)
C9 C 0.1052(3) 0.41832 -0.0594(3)
C10 C 0.0597(3) 0.3889(3) -0.1434(3)
C11 C 0.0906(4) 0.3137(3) -0.1789(3)
C12 C 0.1665(4) 0.2684(3) -0.1314(3)
C13 C 0.2160(3) 0.2962(2) -0.0470(2)
C14 C 0.3016(3) 0.2431(2) 0.0016(3)
C15 C 0.2918(5) 0.2427(4) 0.1126(4)
C16 C 0.4092(4) 0.2779(4) -0.0282(4)
C17 C 0.2964(6) 0.1514(3) -0.0325(5)
H1 H 0.273(2) 0.518(2) 0.214(2)
H2 H 0.181(3) 0.549(2) 0.357(3)
H3 H 0.017(3) 0.484(2) 0.393(3)
H4 H -0.048(3) 0.386(2) 0.276(3)
H5 H 0.049(2) 0.356(2) 0.131(2)
H6 H 0.083(2) 0.473(2) -0.032(2)
H7 H 0.004(2) 0.422(2) -0.174(2)
H8 H 0.061(3) 0.289(2) -0.241(3)
H9 H 0.180(2) 0.214(2) -0.158(2)
H10 H 0.219(3) 0.222(3) 0.133(3)
H11 H 0.306(3) 0.297(2) 0.142(3)
H12 H 0.346(4) 0.203(3) 0.145(3)
H13 H 0.435(4) 0.3413 -0.009(4)
H14 H 0.420(3) 0.280(2) -0.099(3)
H15 H 0.464(3) 0.242(2) -0.002(2)
H16 H 0.316(3) 0.152(2) -0.108(3)
H17 H 0.220(3) 0.130(3) -0.013(3)
H18 H 0.353(4) 0.119(3) 0.007(3)
loop_
_geom_bond_atom_site_label_1
_geom_bond_atom_site_label_2
_geom_bond_site_symmetry_1
_geom_bond_site_symmetry_2
O1 C7 1_555 1_555
C1 C2 1_555 1_555
C2 C3 1_555 1_555
C3 C4 1_555 1_555
C4 C5 1_555 1_555
C5 C6 1_555 1_555
C6 C1 1_555 1_555
C7 C6 1_555 1_555
C8 C7 1_555 1_555
C9 C8 1_555 1_555
C10 C9 1_555 1_555
C11 C10 1_555 1_555
C12 C11 1_555 1_555
C13 C8 1_555 1_555
C14 C13 1_555 1_555
C15 C14 1_555 1_555
C16 C14 1_555 1_555
C17 C14 1_555 1_555
H1 C1 1_555 1_555
H2 C2 1_555 1_555
H3 C3 1_555 1_555
H4 C4 1_555 1_555
H5 C5 1_555 1_555
H6 C9 1_555 1_555
H7 C10 1_555 1_555
H8 C11 1_555 1_555
H9 C12 1_555 1_555
H10 C15 1_555 1_555
H11 C15 1_555 1_555
H12 C15 1_555 1_555
H13 C16 1_555 1_555
H14 C16 1_555 1_555
H15 C16 1_555 1_555
H16 C17 1_555 1_555
H17 C17 1_555 1_555
H18 C17 1_555 1_555
C12 C13 1_555 1_555

#END
