
#######################################################################
#
#                 Cambridge Crystallographic Data Centre
#                                CCDC 
#
#######################################################################
#
# If this CIF has been generated from an entry in the Cambridge 
# Structural Database, then it will include bibliographic, chemical, 
# crystal, experimental, refinement or atomic coordinate data resulting 
# from the CCDC's data processing and validation procedures.
#
#######################################################################

data_DECWAM
_chemical_formula_moiety         'C49 H38 N4'
_chemical_name_systematic        
1-(4-t-butylphenyl)-2-{5-[9-(4-methylphenyl)-9H-carbazol-3-yl]pyridin-2-yl}-1H-phenanthro[9,10-d]imidazole
_symmetry_cell_setting           triclinic
_symmetry_space_group_name_H-M   'P -1'
_symmetry_Int_Tables_number      2
_space_group_name_Hall           '-P 1'
loop_
_symmetry_equiv_pos_site_id
_symmetry_equiv_pos_as_xyz
1 x,y,z
2 -x,-y,-z
_cell_length_a                   9.0069(5)
_cell_length_b                   11.0409(6)
_cell_length_c                   19.3194(12)
_cell_angle_alpha                74.556(2)
_cell_angle_beta                 87.910(3)
_cell_angle_gamma                82.95(2)
_cell_volume                     1837.82
_cell_formula_units_Z            2
loop_
_atom_site_label
_atom_site_type_symbol
_atom_site_fract_x
_atom_site_fract_y
_atom_site_fract_z
N1 N 1.4145(2) 0.27189(17) 1.41567(9)
N2 N 1.51730(17) 0.25651(15) 1.56062(9)
N3 N 1.67736(18) 0.39476(16) 1.50959(9)
N4 N 1.2368(2) 0.4178(2) 1.00469(11)
C1 C 1.5176(2) 0.34323(19) 1.42489(11)
C2 C 1.5789(2) 0.4267(2) 1.36748(12)
H1 H 1.6488 0.4771 1.3752
C3 C 1.5353(2) 0.4340(2) 1.29935(12)
H2 H 1.5781 0.4881 1.2605
C4 C 1.4281(2) 0.3617(2) 1.28748(11)
C5 C 1.3723(2) 0.2834(2) 1.34871(11)
H3 H 1.2992 0.2347 1.3425
C6 C 1.5692(2) 0.33217(19) 1.49785(11)
C7 C 1.6957(2) 0.36019(19) 1.58263(11)
C8 C 1.5996(2) 0.27432(19) 1.61553(11)
C9 C 1.6012(2) 0.21804(19) 1.69199(11)
C10 C 1.5153(3) 0.1209(2) 1.72752(12)
H4 H 1.4476 0.0933 1.7015
C11 C 1.5305(3) 0.0667(2) 1.79982(13)
H5 H 1.4753 0.0012 1.8222
C12 C 1.6269(3) 0.1085(3) 1.83955(14)
H6 H 1.6353 0.0725 1.8888
C13 C 1.7105(3) 0.2034(2) 1.80631(13)
H7 H 1.7737 0.2319 1.8340
C14 C 1.7041(2) 0.2590(2) 1.73231(12)
C15 C 1.8042(2) 0.3528(2) 1.69732(12)
C16 C 1.8010(2) 0.40195(19) 1.62217(12)
C17 C 1.8999(2) 0.4884(2) 1.58745(13)
H8 H 1.8958 0.5211 1.5379
C18 C 2.0018(3) 0.5243(2) 1.62624(16)
H9 H 2.0684 0.5801 1.6031
C19 C 2.0058(3) 0.4773(3) 1.70026(16)
H10 H 2.0748 0.5025 1.7266
C20 C 1.9095(3) 0.3946(2) 1.73486(14)
H11 H 1.9136 0.3651 1.7846
C21 C 1.3938(2) 0.18191(19) 1.57114(11)
C22 C 1.4169(2) 0.0558(2) 1.57401(11)
H12 H 1.5107 0.0195 1.5633
C23 C 1.3008(2) -0.0171(2) 1.59275(12)
H13 H 1.3178 -0.1026 1.5943
C24 C 1.1595(2) 0.0329(2) 1.60938(11)
C25 C 1.1388(2) 0.1615(2) 1.60417(12)
H14 H 1.0446 0.1988 1.6135
C26 C 1.2540(2) 0.2357(2) 1.58553(12)
H15 H 1.2374 0.3217 1.5827
C27 C 1.0365(3) -0.0517(2) 1.63519(14)
C28 C 0.8881(6) 0.0161(6) 1.6413(4)
H16 H 0.8605 0.0744 1.5959
H17 H 0.8905 0.0618 1.6770
H18 H 0.8161 -0.0434 1.6549
C29 C 1.0848(5) -0.1452(5) 1.7083(3)
H19 H 1.0106 -0.2022 1.7243
H20 H 1.0944 -0.0987 1.7431
H21 H 1.1791 -0.1927 1.7027
C30 C 1.0282(6) -0.1405(5) 1.5834(4)
H22 H 1.1231 -0.1905 1.5829
H23 H 1.0043 -0.0895 1.5357
H24 H 0.9522 -0.1954 1.6002
C31 C 1.2756(3) 0.3856(3) 1.07719(12)
C32 C 1.2743(3) 0.2723(2) 1.12986(13)
H25 H 1.2403 0.2025 1.1200
C33 C 1.3250(3) 0.2665(2) 1.19722(12)
H26 H 1.3262 0.1906 1.2327
C34 C 1.3747(2) 0.3699(2) 1.21455(12)
C35 C 1.3749(2) 0.4819(2) 1.16112(12)
H27 H 1.4073 0.5520 1.1713
C36 C 1.3273(2) 0.4901(2) 1.09278(12)
C37 C 1.3212(3) 0.5905(2) 1.02668(13)
C38 C 1.3588(3) 0.7130(3) 1.00880(14)
H28 H 1.3963 0.7456 1.0434
C39 C 1.3401(4) 0.7852(3) 0.93982(17)
H29 H 1.3651 0.8675 0.9275
C40 C 1.2844(4) 0.7376(4) 0.88796(17)
H30 H 1.2735 0.7889 0.8412
C41 C 1.2446(3) 0.6176(3) 0.90326(14)
H31 H 1.2052 0.5869 0.8683
C42 C 1.2662(3) 0.5430(3) 0.97403(14)
C43 C 1.1960(3) 0.3337(3) 0.96651(14)
C44 C 1.2741(3) 0.3240(3) 0.90456(15)
H32 H 1.3528 0.3720 0.8891
C45 C 1.2369(4) 0.2455(4) 0.86643(19)
H33 H 1.2885 0.2430 0.8241
C46 C 1.1253(5) 0.1696(4) 0.8886(2)
C47 C 1.0449(4) 0.1794(3) 0.9499(2)
H34 H 0.9672 0.1302 0.9653
C48 C 1.0795(3) 0.2627(3) 0.98904(17)
H35 H 1.0243 0.2697 1.0297
C49 C 1.0864(4) 0.0787(4) 0.8475(2)
H36 H 1.0226 0.0213 0.8765
H37 H 1.1765 0.0317 0.8360
H38 H 1.0355 0.1253 0.8040
C50? C 1.0623(14) -0.1761(11) 1.6379(9)
H39? H 0.9713 -0.2141 1.6502
H40? H 1.1367 -0.2168 1.6736
H41? H 1.0972 -0.1857 1.5919
C51? C 0.8867(14) 0.0190(14) 1.5899(8)
H42? H 0.8944 0.0077 1.5423
H43? H 0.8770 0.1076 1.5873
H44? H 0.8004 -0.0169 1.6135
C52? C 0.9852(13) -0.0302(11) 1.7141(6)
H45? H 0.9102 -0.0842 1.7345
H46? H 0.9452 0.0565 1.7084
H47? H 1.0704 -0.0505 1.7453
loop_
_geom_bond_atom_site_label_1
_geom_bond_atom_site_label_2
_geom_bond_site_symmetry_1
_geom_bond_site_symmetry_2
N1 C1 1_555 1_555
N2 C6 1_555 1_555
N3 C6 1_555 1_555
N4 C31 1_555 1_555
C1 C2 1_555 1_555
C2 H1 1_555 1_555
C3 C2 1_555 1_555
H2 C3 1_555 1_555
C4 C3 1_555 1_555
C5 N1 1_555 1_555
H3 C5 1_555 1_555
C6 C1 1_555 1_555
C7 N3 1_555 1_555
C8 N2 1_555 1_555
C9 C8 1_555 1_555
C10 C9 1_555 1_555
H4 C10 1_555 1_555
C11 C10 1_555 1_555
H5 C11 1_555 1_555
C12 C11 1_555 1_555
H6 C12 1_555 1_555
C13 C12 1_555 1_555
H7 C13 1_555 1_555
C14 C9 1_555 1_555
C15 C14 1_555 1_555
C16 C7 1_555 1_555
C17 C16 1_555 1_555
H8 C17 1_555 1_555
C18 C17 1_555 1_555
H9 C18 1_555 1_555
C19 C18 1_555 1_555
H10 C19 1_555 1_555
C20 C15 1_555 1_555
H11 C20 1_555 1_555
C21 N2 1_555 1_555
C22 C21 1_555 1_555
H12 C22 1_555 1_555
C23 C22 1_555 1_555
H13 C23 1_555 1_555
C24 C23 1_555 1_555
C25 C24 1_555 1_555
H14 C25 1_555 1_555
C26 C21 1_555 1_555
H15 C26 1_555 1_555
C27 C24 1_555 1_555
C28 C27 1_555 1_555
H16 C28 1_555 1_555
H17 C28 1_555 1_555
H18 C28 1_555 1_555
C29 C27 1_555 1_555
H19 C29 1_555 1_555
H20 C29 1_555 1_555
H21 C29 1_555 1_555
C30 C27 1_555 1_555
H22 C30 1_555 1_555
H23 C30 1_555 1_555
H24 C30 1_555 1_555
C31 C32 1_555 1_555
C32 H25 1_555 1_555
C33 C32 1_555 1_555
H26 C33 1_555 1_555
C34 C4 1_555 1_555
C35 C34 1_555 1_555
H27 C35 1_555 1_555
C36 C31 1_555 1_555
C37 C36 1_555 1_555
C38 C37 1_555 1_555
H28 C38 1_555 1_555
C39 C38 1_555 1_555
H29 C39 1_555 1_555
C40 C39 1_555 1_555
H30 C40 1_555 1_555
C41 C40 1_555 1_555
H31 C41 1_555 1_555
C42 N4 1_555 1_555
C43 N4 1_555 1_555
C44 C43 1_555 1_555
H32 C44 1_555 1_555
C45 C44 1_555 1_555
H33 C45 1_555 1_555
C46 C45 1_555 1_555
C47 C46 1_555 1_555
H34 C47 1_555 1_555
C48 C43 1_555 1_555
H35 C48 1_555 1_555
C49 C46 1_555 1_555
H36 C49 1_555 1_555
H37 C49 1_555 1_555
H38 C49 1_555 1_555
C4 C5 1_555 1_555
C7 C8 1_555 1_555
C13 C14 1_555 1_555
C15 C16 1_555 1_555
C19 C20 1_555 1_555
C25 C26 1_555 1_555
C33 C34 1_555 1_555
C35 C36 1_555 1_555
C37 C42 1_555 1_555
C41 C42 1_555 1_555
C47 C48 1_555 1_555

#END
