
#######################################################################
#
#                 Cambridge Crystallographic Data Centre
#                                CCDC 
#
#######################################################################
#
# If this CIF has been generated from an entry in the Cambridge 
# Structural Database, then it will include bibliographic, chemical, 
# crystal, experimental, refinement or atomic coordinate data resulting 
# from the CCDC's data processing and validation procedures.
#
#######################################################################

data_DEDCEX
_chemical_formula_moiety         'C33 H25 O2 P1'
_chemical_name_systematic        
1,3-diphenyl-2-(triphenylphosphoranylidene)propane-1,3-dione
_symmetry_cell_setting           monoclinic
_symmetry_space_group_name_H-M   'P 21/n'
_symmetry_Int_Tables_number      14
_space_group_name_Hall           '-P 2yn'
loop_
_symmetry_equiv_pos_site_id
_symmetry_equiv_pos_as_xyz
1 x,y,z
2 1/2-x,1/2+y,1/2-z
3 -x,-y,-z
4 1/2+x,1/2-y,1/2+z
_cell_length_a                   15.3685(7)
_cell_length_b                   8.3421(8)
_cell_length_c                   19.9017(17)
_cell_angle_alpha                90
_cell_angle_beta                 98.438(5)
_cell_angle_gamma                90
_cell_volume                     2523.89
_exptl_crystal_colour            colorless
_exptl_crystal_description       prism
_cell_formula_units_Z            4
loop_
_atom_site_label
_atom_site_type_symbol
_atom_site_fract_x
_atom_site_fract_y
_atom_site_fract_z
P1 P 0.25839(6) 0.70534(11) 0.01071(5)
C1 C 0.1847(2) 0.6014(4) -0.04984(18)
C2 C 0.2308(2) 0.4931(4) -0.08886(18)
O1 O 0.31288(17) 0.5042(3) -0.08618(14)
C3 C 0.1859(2) 0.3603(4) -0.12850(19)
C4 C 0.2083(3) 0.3187(5) -0.1911(2)
H1 H 0.2524 0.3756 -0.2080
C5 C 0.1669(5) 0.1955(6) -0.2288(3)
H2 H 0.1810 0.1735 -0.2718
C6 C 0.1058(5) 0.1058(6) -0.2037(3)
H3 H 0.0786 0.0212 -0.2290
C7 C 0.0839(3) 0.1393(6) -0.1413(3)
H4 H 0.0429 0.0752 -0.1239
C8 C 0.1214(3) 0.2662(5) -0.1034(2)
H5 H 0.1044 0.2899 -0.0616
C9 C 0.0903(2) 0.6256(4) -0.05841(19)
O2 O 0.04987(16) 0.6684(3) -0.01164(13)
C10 C 0.0392(2) 0.6102(4) -0.12836(18)
C11 C 0.0693(3) 0.6804(5) -0.18408(19)
H6 H 0.1237 0.7312 -0.1785
C12 C 0.0189(3) 0.6753(5) -0.2480(2)
H7 H 0.0384 0.7270 -0.2844
C13 C -0.0599(3) 0.5938(6) -0.2575(2)
H8 H -0.0929 0.5872 -0.3005
C14 C -0.0896(3) 0.5218(6) -0.2024(2)
H9 H -0.1427 0.4664 -0.2087
C15 C -0.0414(2) 0.5314(5) -0.1385(2)
H10 H -0.0629 0.4847 -0.1018
C16 C 0.3291(2) 0.5670(4) 0.06178(18)
C17 C 0.4218(2) 0.5769(5) 0.0706(2)
H11 H 0.4487 0.6585 0.0493
C18 C 0.4727(3) 0.4675(5) 0.1102(2)
H12 H 0.5337 0.4758 0.1158
C19 C 0.4338(3) 0.3456(6) 0.1416(2)
H13 H 0.4684 0.2728 0.1690
C20 C 0.3430(3) 0.3315(5) 0.1322(2)
H14 H 0.3169 0.2480 0.1530
C21 C 0.2914(2) 0.4390(5) 0.0927(2)
H15 H 0.2306 0.4270 0.0863
C22 C 0.3217(2) 0.8573(4) -0.02634(18)
C23 C 0.3621(3) 0.9783(5) 0.0132(2)
H16 H 0.3644 0.9737 0.0601
C24 C 0.3994(3) 1.1074(6) -0.0158(2)
H17 H 0.4271 1.1885 0.0114
C25 C 0.3951(3) 1.1143(6) -0.0853(2)
H18 H 0.4177 1.2029 -0.1053
C26 C 0.3582(3) 0.9934(6) -0.1246(2)
H19 H 0.3587 0.9961 -0.1713
C27 C 0.3198(3) 0.8655(5) -0.0960(2)
H20 H 0.2925 0.7847 -0.1237
C28 C 0.2045(2) 0.8271(4) 0.06807(18)
C29 C 0.2210(3) 0.8080(5) 0.1378(2)
H21 H 0.2557 0.7235 0.1569
C30 C 0.1846(3) 0.9184(6) 0.1796(2)
H22 H 0.1948 0.9064 0.2266
C31 C 0.1349(3) 1.0421(6) 0.1515(3)
H23 H 0.1111 1.1139 0.1796
C32 C 0.1189(3) 1.0635(5) 0.0824(3)
H24 H 0.0858 1.1502 0.0638
C33 C 0.1526(3) 0.9549(5) 0.0412(2)
H25 H 0.1405 0.9671 -0.0057
loop_
_geom_bond_atom_site_label_1
_geom_bond_atom_site_label_2
_geom_bond_site_symmetry_1
_geom_bond_site_symmetry_2
P1 C1 1_555 1_555
C1 C2 1_555 1_555
C2 O1 1_555 1_555
C3 C2 1_555 1_555
C4 C3 1_555 1_555
H1 C4 1_555 1_555
C5 C4 1_555 1_555
H2 C5 1_555 1_555
C6 C5 1_555 1_555
H3 C6 1_555 1_555
C7 C6 1_555 1_555
H4 C7 1_555 1_555
C8 C3 1_555 1_555
H5 C8 1_555 1_555
C9 C1 1_555 1_555
O2 C9 1_555 1_555
C10 C9 1_555 1_555
C11 C10 1_555 1_555
H6 C11 1_555 1_555
C12 C11 1_555 1_555
H7 C12 1_555 1_555
C13 C12 1_555 1_555
H8 C13 1_555 1_555
C14 C13 1_555 1_555
H9 C14 1_555 1_555
C15 C10 1_555 1_555
H10 C15 1_555 1_555
C16 P1 1_555 1_555
C17 C16 1_555 1_555
H11 C17 1_555 1_555
C18 C17 1_555 1_555
H12 C18 1_555 1_555
C19 C18 1_555 1_555
H13 C19 1_555 1_555
C20 C19 1_555 1_555
H14 C20 1_555 1_555
C21 C16 1_555 1_555
H15 C21 1_555 1_555
C22 P1 1_555 1_555
C23 C22 1_555 1_555
H16 C23 1_555 1_555
C24 C23 1_555 1_555
H17 C24 1_555 1_555
C25 C24 1_555 1_555
H18 C25 1_555 1_555
C26 C25 1_555 1_555
H19 C26 1_555 1_555
C27 C22 1_555 1_555
H20 C27 1_555 1_555
C28 P1 1_555 1_555
C29 C28 1_555 1_555
H21 C29 1_555 1_555
C30 C29 1_555 1_555
H22 C30 1_555 1_555
C31 C30 1_555 1_555
H23 C31 1_555 1_555
C32 C31 1_555 1_555
H24 C32 1_555 1_555
C33 C28 1_555 1_555
H25 C33 1_555 1_555
C7 C8 1_555 1_555
C14 C15 1_555 1_555
C20 C21 1_555 1_555
C26 C27 1_555 1_555
C32 C33 1_555 1_555

#END
