
#######################################################################
#
#                 Cambridge Crystallographic Data Centre
#                                CCDC 
#
#######################################################################
#
# If this CIF has been generated from an entry in the Cambridge 
# Structural Database, then it will include bibliographic, chemical, 
# crystal, experimental, refinement or atomic coordinate data resulting 
# from the CCDC's data processing and validation procedures.
#
#######################################################################

data_DEDQOT
_chemical_formula_moiety         'C13 H18 F1 N1 O1'
_chemical_name_systematic        
(Z)-1-((Dimethylamino)methyl)-2-(p-fluorophenyl)-1-(hydroxymethyl)cyclopropane
_symmetry_cell_setting           monoclinic
_symmetry_space_group_name_H-M   'P 21/n'
_symmetry_Int_Tables_number      14
_space_group_name_Hall           '-P 2yn'
loop_
_symmetry_equiv_pos_site_id
_symmetry_equiv_pos_as_xyz
1 x,y,z
2 1/2-x,1/2+y,1/2-z
3 -x,-y,-z
4 1/2+x,1/2-y,1/2+z
_cell_length_a                   9.5148(9)
_cell_length_b                   6.3264(10)
_cell_length_c                   21.554(3)
_cell_angle_alpha                90
_cell_angle_beta                 101.981(8)
_cell_angle_gamma                90
_cell_volume                     1269.17
_exptl_crystal_colour            colorless
_exptl_crystal_description       plate
_cell_formula_units_Z            4
loop_
_atom_site_label
_atom_site_type_symbol
_atom_site_fract_x
_atom_site_fract_y
_atom_site_fract_z
N1 N 0.29033(17) 0.3909(3) 0.55620(8)
C1 C 0.1916(3) 0.5566(4) 0.56651(14)
H1 H 0.1183 0.5742 0.5289
H2 H 0.2433 0.6869 0.5761
H3 H 0.1481 0.5182 0.6013
C2 C 0.2103(3) 0.1972(4) 0.53691(12)
H4 H 0.1394 0.2231 0.4990
H5 H 0.1638 0.1519 0.5701
H6 H 0.2752 0.0891 0.5289
C3 C 0.4022(2) 0.3636(3) 0.61391(9)
H7 H 0.3577 0.3130 0.6477
H8 H 0.4449 0.5002 0.6267
C4 C 0.5193(2) 0.2126(3) 0.60628(9)
O1 O 0.65136(17) 0.4680(3) 0.56149(8)
H9 H 0.661(3) 0.511(4) 0.5231(12)
C5 C 0.5950(2) 0.2614(3) 0.55359(9)
H10 H 0.6722 0.1608 0.5541
H11 H 0.5283 0.2500 0.5131
C6 C 0.5035(3) -0.0160(4) 0.62355(11)
H12 H 0.541(2) -0.119(4) 0.5976(10)
H13 H 0.414(3) -0.051(4) 0.6384(10)
C7 C 0.6081(2) 0.1203(3) 0.66715(9)
H14 H 0.575(2) 0.171(3) 0.7028(10)
C8 C 0.7654(2) 0.0869(3) 0.67650(9)
C9 C 0.8586(2) 0.2475(4) 0.70175(10)
H15 H 0.8211 0.3764 0.7112
C10 C 1.0056(3) 0.2217(5) 0.71325(12)
H16 H 1.0670 0.3310 0.7303
F1 F 1.20356(16) 0.0056(4) 0.71015(9)
C11 C 1.0581(3) 0.0330(6) 0.69911(13)
C12 C 0.9720(3) -0.1298(5) 0.67380(13)
H17 H 1.0112 -0.2570 0.6640
C13 C 0.8248(3) -0.1024(4) 0.66292(11)
H18 H 0.7646 -0.2134 0.6462
loop_
_geom_bond_atom_site_label_1
_geom_bond_atom_site_label_2
_geom_bond_site_symmetry_1
_geom_bond_site_symmetry_2
N1 C1 1_555 1_555
C1 H1 1_555 1_555
H2 C1 1_555 1_555
H3 C1 1_555 1_555
C2 N1 1_555 1_555
H4 C2 1_555 1_555
H5 C2 1_555 1_555
H6 C2 1_555 1_555
C3 N1 1_555 1_555
H7 C3 1_555 1_555
H8 C3 1_555 1_555
C4 C3 1_555 1_555
O1 H9 1_555 1_555
C5 C4 1_555 1_555
H10 C5 1_555 1_555
H11 C5 1_555 1_555
C6 C4 1_555 1_555
H12 C6 1_555 1_555
H13 C6 1_555 1_555
C7 C4 1_555 1_555
H14 C7 1_555 1_555
C8 C7 1_555 1_555
C9 C8 1_555 1_555
H15 C9 1_555 1_555
C10 C9 1_555 1_555
H16 C10 1_555 1_555
F1 C11 1_555 1_555
C11 C10 1_555 1_555
C12 C11 1_555 1_555
H17 C12 1_555 1_555
C13 C8 1_555 1_555
H18 C13 1_555 1_555
O1 C5 1_555 1_555
C6 C7 1_555 1_555
C12 C13 1_555 1_555

#END
