
#######################################################################
#
#                 Cambridge Crystallographic Data Centre
#                                CCDC 
#
#######################################################################
#
# If this CIF has been generated from an entry in the Cambridge 
# Structural Database, then it will include bibliographic, chemical, 
# crystal, experimental, refinement or atomic coordinate data resulting 
# from the CCDC's data processing and validation procedures.
#
#######################################################################

data_DEDVEQ
_chemical_formula_moiety         
'C72 H84 N12,C60 H72 N12,2.25(C1 H2 Cl2),6(H2 O1),1.96(C4 H8 O2)'
_chemical_name_systematic        
'5,12,20,27,35,42,50,57,62,69,74,81-dodecaazatridecacyclo[29.29.10.10^16,46^.1^3,59^.1^14,18^.1^29,33^.1^44,48^.0^6,11^.0^21,26^.0^36,41^.0^51,56^.0^63,68^.0^75,80^]tetraoctaconta-1,3(71),4,12,14(84),15,17,19,27,29(83),30,32,34,42,44(72),45,47,49,57,59,61,69,73,81-tetracosaene 6,6,17,17,28,28,40,40,47,47,55,55-dodecamethyl-5,8,16,19,27,30,38,41,46,49,54,57-dodecaazaheptacyclo[21.21.6.6^12,34^.1^3,43^.1^10,14^.1^21,25^.1^32,36^]hexaconta-1,3(51),4,8,10(60),11,13,15,19,21(59),22,24,26,30,32(52),33,35,37,41,43,45,49,53,57-tetracosaene 1,4-dioxane dichloromethane solvate hexahydrate'
_symmetry_cell_setting           trigonal
_symmetry_space_group_name_H-M   'P 3 2 1'
_symmetry_Int_Tables_number      150
_space_group_name_Hall           'P 3 2"'
loop_
_symmetry_equiv_pos_site_id
_symmetry_equiv_pos_as_xyz
1 x,y,z
2 -y,x-y,z
3 -x+y,-x,z
4 y,x,-z
5 x-y,-y,-z
6 -x,-x+y,-z
_cell_length_a                   17.5575(7)
_cell_length_b                   17.5575(7)
_cell_length_c                   28.6921(12)
_cell_angle_alpha                90
_cell_angle_beta                 90
_cell_angle_gamma                120
_cell_volume                     7659.82
_exptl_crystal_colour            colorless
_exptl_crystal_description       plate
_cell_formula_units_Z            2
loop_
_atom_site_label
_atom_site_type_symbol
_atom_site_fract_x
_atom_site_fract_y
_atom_site_fract_z
N5 N 0.5071(10) 0.5206(8) 0.2783(5)
N6 N 0.3812(10) 0.2981(10) 0.0899(5)
N7 N 0.5620(8) 0.4733(8) 0.3639(4)
N8 N 0.3534(10) 0.1171(11) 0.0985(5)
C25 C 0.5579(7) 0.5217(7) 0.2016(3)
C26 C 0.4839(6) 0.4433(7) 0.1886(3)
H29 H 0.4371 0.4130 0.2101
C27 C 0.4785(6) 0.4092(6) 0.1443(3)
C28 C 0.5471(7) 0.4535(8) 0.1128(3)
H30 H 0.5434 0.4302 0.0825
C29 C 0.6211(6) 0.5319(8) 0.1257(3)
C30 C 0.6265(6) 0.5660(6) 0.1701(4)
H31 H 0.6771 0.6196 0.1790
C31 C 0.5645(13) 0.5618(12) 0.2469(6)
H32 H 0.6121 0.6192 0.2531
C32 C 0.3949(13) 0.3258(13) 0.1319(6)
H33 H 0.3525 0.2939 0.1553
C33 C 0.6966(11) 0.4226(11) 0.3674(4)
H34 H 0.7172 0.4840 0.3680
C34 C 0.6068(10) 0.3638(10) 0.3670(4)
C35 C 0.5419(10) 0.3929(11) 0.3654(4)
H35 H 0.4814 0.3493 0.3654
C36 C 0.4948(12) 0.4999(14) 0.3655(7)
C37 C 0.511(2) 0.5594(16) 0.3271(8)
H36 H 0.5701 0.6118 0.3313
H37 H 0.4675 0.5793 0.3285
C38 C 0.3020(15) 0.2231(17) 0.0826(7)
H38 H 0.2675 0.2372 0.0605
H39 H 0.2694 0.2060 0.1125
C39 C 0.3057(18) 0.1431(18) 0.0636(8)
C40 C 0.4222(13) 0.1162(13) 0.0900(6)
H40 H 0.4474 0.1332 0.0598
C41 C 0.2196(14) 0.0653(14) 0.0527(7)
H41 H 0.2276 0.0152 0.0455
H42 H 0.1937 0.0782 0.0257
H43 H 0.1803 0.0510 0.0796
C42 C 0.3580(16) 0.1733(16) 0.0172(6)
H44 H 0.4090 0.2323 0.0212
H45 H 0.3200 0.1746 -0.0074
H46 H 0.3780 0.1322 0.0086
C43 C 0.5098(13) 0.5552(13) 0.4070(7)
H47 H 0.5090 0.5229 0.4350
H48 H 0.4634 0.5706 0.4091
H49 H 0.5671 0.6091 0.4043
C44 C 0.4026(13) 0.4273(13) 0.3581(6)
H50 H 0.4007 0.3914 0.3315
H51 H 0.3647 0.4523 0.3519
H52 H 0.3818 0.3905 0.3861
N5A N 0.4794(8) -0.0135(13) 0.2783(5)
N6A N 0.7019(10) 0.0831(14) 0.0899(5)
N7A N 0.5267(8) 0.0887(11) 0.3639(4)
N8A N 0.8829(11) 0.2363(15) 0.0985(5)
C25A C 0.4783(7) 0.0362(10) 0.2016(3)
C26A C 0.5567(7) 0.0406(9) 0.1886(3)
H29A H 0.5870 0.0241 0.2101
C27A C 0.5908(6) 0.0693(8) 0.1443(3)
C28A C 0.5465(8) 0.0936(11) 0.1128(3)
H30A H 0.5698 0.1132 0.0825
C29A C 0.4681(8) 0.0892(10) 0.1257(3)
C30A C 0.4340(6) 0.0605(8) 0.1701(4)
H31A H 0.3804 0.0575 0.1790
C31A C 0.4382(12) 0.0027(18) 0.2469(6)
H32A H 0.3808 -0.0071 0.2531
C32A C 0.6742(13) 0.0691(18) 0.1319(6)
H33A H 0.7061 0.0586 0.1553
C33A C 0.5774(11) 0.2740(16) 0.3674(4)
H34A H 0.5160 0.2332 0.3680
C34A C 0.6362(10) 0.2430(14) 0.3670(4)
C35A C 0.6071(11) 0.1490(15) 0.3654(4)
H35A H 0.6507 0.1321 0.3654
C36A C 0.5001(14) -0.0051(18) 0.3655(7)
C37A C 0.4406(16) -0.0484(26) 0.3271(8)
H36A H 0.3882 -0.0417 0.3313
H37A H 0.4207 -0.1118 0.3285
C38A C 0.7769(17) 0.0789(23) 0.0826(7)
H38A H 0.7628 0.0303 0.0605
H39A H 0.7940 0.0634 0.1125
C39A C 0.8569(18) 0.1626(25) 0.0636(8)
C40A C 0.8838(13) 0.3060(18) 0.0900(6)
H40A H 0.8668 0.3142 0.0598
C41A C 0.9347(14) 0.1543(20) 0.0527(7)
H41A H 0.9848 0.2124 0.0455
H42A H 0.9218 0.1155 0.0257
H43A H 0.9490 0.1293 0.0796
C42A C 0.8267(16) 0.1847(23) 0.0172(6)
H44A H 0.7677 0.1767 0.0212
H45A H 0.8254 0.1454 -0.0074
H46A H 0.8678 0.2458 0.0086
C43A C 0.4448(13) -0.0454(18) 0.4070(7)
H47A H 0.4771 -0.0139 0.4350
H48A H 0.4294 -0.1072 0.4091
H49A H 0.3909 -0.0420 0.4043
C44A C 0.5727(13) -0.0247(18) 0.3581(6)
H50A H 0.6086 0.0093 0.3315
H51A H 0.5477 -0.0876 0.3519
H52A H 0.6095 -0.0087 0.3861
N5B N 1.0135(13) 0.4929(10) 0.2783(5)
N6B N 0.9169(14) 0.6188(10) 0.0899(5)
N7B N 0.9113(11) 0.4380(8) 0.3639(4)
N8B N 0.7637(15) 0.6466(10) 0.0985(5)
C25B C 0.9638(10) 0.4421(7) 0.2016(3)
C26B C 0.9594(9) 0.5161(6) 0.1886(3)
H29B H 0.9759 0.5629 0.2101
C27B C 0.9307(8) 0.5215(6) 0.1443(3)
C28B C 0.9064(11) 0.4529(7) 0.1128(3)
H30B H 0.8868 0.4566 0.0825
C29B C 0.9108(10) 0.3789(6) 0.1257(3)
C30B C 0.9395(8) 0.3735(6) 0.1701(4)
H31B H 0.9425 0.3229 0.1790
C31B C 0.9973(18) 0.4355(13) 0.2469(6)
H32B H 1.0071 0.3879 0.2531
C32B C 0.9309(18) 0.6051(13) 0.1319(6)
H33B H 0.9414 0.6475 0.1553
C33B C 0.7260(16) 0.3034(11) 0.3674(4)
H34B H 0.7668 0.2828 0.3680
C34B C 0.7570(14) 0.3932(10) 0.3670(4)
C35B C 0.8510(15) 0.4581(10) 0.3654(4)
H35B H 0.8679 0.5186 0.3654
C36B C 1.0051(18) 0.5052(12) 0.3655(7)
C37B C 1.0484(26) 0.489(2) 0.3271(8)
H36B H 1.0417 0.4299 0.3313
H37B H 1.1118 0.5325 0.3285
C38B C 0.9211(23) 0.6980(15) 0.0826(7)
H38B H 0.9697 0.7325 0.0605
H39B H 0.9366 0.7306 0.1125
C39B C 0.8374(25) 0.6943(18) 0.0636(8)
C40B C 0.6940(18) 0.5778(13) 0.0900(6)
H40B H 0.6858 0.5526 0.0598
C41B C 0.8457(20) 0.7804(14) 0.0527(7)
H41B H 0.7876 0.7724 0.0455
H42B H 0.8845 0.8063 0.0257
H43B H 0.8707 0.8197 0.0796
C42B C 0.8153(23) 0.6420(16) 0.0172(6)
H44B H 0.8233 0.5910 0.0212
H45B H 0.8546 0.6800 -0.0074
H46B H 0.7542 0.6220 0.0086
C43B C 1.0454(18) 0.4902(13) 0.4070(7)
H47B H 1.0139 0.4910 0.4350
H48B H 1.1072 0.5366 0.4091
H49B H 1.0420 0.4329 0.4043
C44B C 1.0247(18) 0.5974(13) 0.3581(6)
H50B H 0.9907 0.5993 0.3315
H51B H 1.0876 0.6353 0.3519
H52B H 1.0087 0.6182 0.3861
O1 O 0.6667 0.3334 -0.040(5)
Cl1 Cl 0.4605(8) 0.5434(7) 0.0292(3)
C45 C 0.4464(17) 0.4464(17) 0.0000
H53 H 0.4276 0.3985 0.0232
Cl1C Cl 0.5434(7) 0.4605(8) -0.0292(3)
H53C H 0.3985 0.4276 -0.0232
O2 O 1.0000 1.0000 0.5000
O3 O 0.3333 0.6667 0.288(2)
O4 O 0.3333 0.6667 0.388(4)
N1 N 0.9279(5) 0.6933(6) 0.4279(3)
N2 N 0.7748(5) 0.7132(5) 0.4361(3)
N3 N 0.7563(5) 0.8906(5) 0.1664(2)
N4 N 0.6509(6) 0.8173(5) 0.2484(3)
C1 C 0.9371(7) 1.0256(6) 0.1689(3)
H1 H 0.8941 1.0434 0.1695
C2 C 0.9111(7) 0.9376(6) 0.1685(3)
C3 C 0.8178(6) 0.8693(6) 0.1682(3)
H2 H 0.8020 0.8091 0.1694
C4 C 0.6663(6) 0.8183(7) 0.1635(4)
H3 H 0.6653 0.7611 0.1664
C5 C 0.6284(8) 0.8230(8) 0.1163(4)
H4 H 0.6610 0.8131 0.0912
H5 H 0.6363 0.8825 0.1121
C6 C 0.5300(10) 0.7541(11) 0.1126(7)
H6 H 0.5065 0.7614 0.0826
H7 H 0.5223 0.6943 0.1134
C7 C 0.4810(10) 0.7648(12) 0.1518(7)
H8 H 0.4183 0.7188 0.1496
H9 H 0.4845 0.8227 0.1490
C8 C 0.5160(8) 0.7587(10) 0.1988(6)
H10 H 0.5083 0.6992 0.2028
H11 H 0.4823 0.7679 0.2236
C9 C 0.6134(6) 0.8275(6) 0.2032(4)
H12 H 0.6201 0.8875 0.2020
C10 C 0.6762(7) 0.8787(8) 0.2767(4)
H13 H 0.6721 0.9289 0.2683
C11 C 0.7133(4) 0.8767(4) 0.32379(18)
C12 C 0.7365(5) 0.9462(3) 0.3545(2)
H14 H 0.7311 0.9952 0.3452
C13 C 0.7677(5) 0.9439(3) 0.3987(2)
C14 C 0.7756(5) 0.8722(4) 0.41222(17)
H15 H 0.7969 0.8707 0.4424
C15 C 0.7524(5) 0.8027(3) 0.3815(2)
C16 C 0.7212(4) 0.8050(3) 0.33732(19)
H16 H 0.7054 0.7575 0.3163
C17 C 0.7568(7) 0.7234(6) 0.3955(4)
H17 H 0.7456 0.6795 0.3729
C18 C 0.7740(6) 0.6324(6) 0.4478(3)
H18 H 0.7598 0.5948 0.4193
C19 C 0.7035(7) 0.5822(7) 0.4857(4)
H19 H 0.7142 0.6218 0.5125
H20 H 0.6446 0.5646 0.4729
C20 C 0.7048(8) 0.5015(7) 0.5023(4)
H21 H 0.6908 0.4601 0.4760
H22 H 0.6596 0.4717 0.5267
C21 C 0.7961(7) 0.5272(7) 0.5221(4)
H23 H 0.8100 0.5674 0.5490
H24 H 0.7973 0.4742 0.5326
C22 C 0.8631(7) 0.5731(7) 0.4829(4)
H25 H 0.9224 0.5885 0.4942
H26 H 0.8484 0.5318 0.4564
C23 C 0.8648(6) 0.6546(6) 0.4662(3)
H27 H 0.8822 0.6977 0.4924
C24 C 0.9834(7) 0.7748(7) 0.4327(4)
H28 H 0.9784 0.8053 0.4587
N1A N 1.3067(6) 1.2346(8) 0.4279(3)
N2A N 1.2868(5) 1.0616(7) 0.4361(3)
N3A N 1.1094(5) 0.8657(7) 0.1664(2)
N4A N 1.1827(5) 0.8336(8) 0.2484(3)
C1A C 0.9744(6) 0.9115(9) 0.1689(3)
H1A H 0.9566 0.8507 0.1695
C2A C 1.0624(6) 0.9735(9) 0.1685(3)
C3A C 1.1307(6) 0.9485(8) 0.1682(3)
H2A H 1.1909 0.9929 0.1694
C4A C 1.1817(7) 0.8480(9) 0.1635(4)
H3A H 1.2389 0.9042 0.1664
C5A C 1.1770(8) 0.8054(11) 0.1163(4)
H4A H 1.1869 0.8479 0.0912
H5A H 1.1175 0.7538 0.1121
C6A C 1.2459(11) 0.7759(15) 0.1126(7)
H6A H 1.2386 0.7451 0.0826
H7A H 1.3057 0.8280 0.1134
C7A C 1.2352(12) 0.7162(16) 0.1518(7)
H8A H 1.2812 0.6995 0.1496
H9A H 1.1773 0.6618 0.1490
C8A C 1.2413(10) 0.7573(13) 0.1988(6)
H10A H 1.3008 0.8091 0.2028
H11A H 1.2321 0.7144 0.2236
C9A C 1.1725(6) 0.7859(8) 0.2032(4)
H12A H 1.1125 0.7326 0.2020
C10A C 1.1213(8) 0.7975(11) 0.2767(4)
H13A H 1.0711 0.7432 0.2683
C11A C 1.1233(4) 0.8366(6) 0.32379(18)
C12A C 1.0538(3) 0.7903(6) 0.3545(2)
H14A H 1.0048 0.7359 0.3452
C13A C 1.0561(3) 0.8238(6) 0.3987(2)
C14A C 1.1278(4) 0.9034(6) 0.41222(17)
H15A H 1.1293 0.9262 0.4424
C15A C 1.1973(3) 0.9497(6) 0.3815(2)
C16A C 1.1950(3) 0.9162(5) 0.33732(19)
H16A H 1.2425 0.9479 0.3163
C17A C 1.2766(6) 1.0334(9) 0.3955(4)
H17A H 1.3205 1.0661 0.3729
C18A C 1.3676(6) 1.1416(8) 0.4478(3)
H18A H 1.4052 1.1650 0.4193
C19A C 1.4178(7) 1.1213(10) 0.4857(4)
H19A H 1.3782 1.0924 0.5125
H20A H 1.4354 1.0800 0.4729
C20A C 1.4985(7) 1.2033(11) 0.5023(4)
H21A H 1.5399 1.2307 0.4760
H22A H 1.5283 1.1879 0.5267
C21A C 1.4728(7) 1.2689(10) 0.5221(4)
H23A H 1.4326 1.2426 0.5490
H24A H 1.5258 1.3231 0.5326
C22A C 1.4269(7) 1.2900(10) 0.4829(4)
H25A H 1.4115 1.3339 0.4942
H26A H 1.4682 1.3166 0.4564
C23A C 1.3454(6) 1.2102(8) 0.4662(3)
H27A H 1.3023 1.1845 0.4924
C24A C 1.2252(7) 1.2086(10) 0.4327(4)
H28A H 1.1947 1.1731 0.4587
N1B N 0.7654(8) 1.0721(5) 0.4279(3)
N2B N 0.9384(7) 1.2252(5) 0.4361(3)
N3B N 1.1343(7) 1.2437(5) 0.1664(2)
N4B N 1.1664(8) 1.3491(6) 0.2484(3)
C1B C 1.0885(9) 1.0629(7) 0.1689(3)
H1B H 1.1493 1.1059 0.1695
C2B C 1.0265(9) 1.0889(7) 0.1685(3)
C3B C 1.0515(8) 1.1822(6) 0.1682(3)
H2B H 1.0071 1.1980 0.1694
C4B C 1.1520(9) 1.3337(6) 0.1635(4)
H3B H 1.0958 1.3347 0.1664
C5B C 1.1946(11) 1.3716(8) 0.1163(4)
H4B H 1.1521 1.3390 0.0912
H5B H 1.2462 1.3637 0.1121
C6B C 1.2241(15) 1.4700(10) 0.1126(7)
H6B H 1.2549 1.4935 0.0826
H7B H 1.1720 1.4777 0.1134
C7B C 1.2838(16) 1.5190(10) 0.1518(7)
H8B H 1.3005 1.5817 0.1496
H9B H 1.3382 1.5155 0.1490
C8B C 1.2427(13) 1.4840(8) 0.1988(6)
H10B H 1.1909 1.4917 0.2028
H11B H 1.2856 1.5177 0.2236
C9B C 1.2141(8) 1.3866(6) 0.2032(4)
H12B H 1.2674 1.3799 0.2020
C10B C 1.2025(11) 1.3238(7) 0.2767(4)
H13B H 1.2568 1.3279 0.2683
C11B C 1.1634(6) 1.2867(4) 0.32379(18)
C12B C 1.2097(6) 1.2635(5) 0.3545(2)
H14B H 1.2641 1.2689 0.3452
C13B C 1.1762(6) 1.2323(5) 0.3987(2)
C14B C 1.0966(6) 1.2244(5) 0.41222(17)
H15B H 1.0738 1.2031 0.4424
C15B C 1.0503(6) 1.2476(5) 0.3815(2)
C16B C 1.0838(5) 1.2788(4) 0.33732(19)
H16B H 1.0521 1.2946 0.3163
C17B C 0.9666(9) 1.2432(7) 0.3955(4)
H17B H 0.9339 1.2544 0.3729
C18B C 0.8584(8) 1.2260(6) 0.4478(3)
H18B H 0.8350 1.2402 0.4193
C19B C 0.8787(10) 1.2965(7) 0.4857(4)
H19B H 0.9076 1.2858 0.5125
H20B H 0.9200 1.3554 0.4729
C20B C 0.7967(11) 1.2952(8) 0.5023(4)
H21B H 0.7693 1.3092 0.4760
H22B H 0.8121 1.3404 0.5267
C21B C 0.7311(10) 1.2039(7) 0.5221(4)
H23B H 0.7574 1.1900 0.5490
H24B H 0.6769 1.2027 0.5326
C22B C 0.7100(10) 1.1369(7) 0.4829(4)
H25B H 0.6661 1.0776 0.4942
H26B H 0.6834 1.1516 0.4564
C23B C 0.7898(8) 1.1352(6) 0.4662(3)
H27B H 0.8155 1.1178 0.4924
C24B C 0.7914(10) 1.0166(7) 0.4327(4)
H28B H 0.8269 1.0216 0.4587
N9? N 0.6057(19) 0.5686(7) 0.3137(8)
N10? N 0.802(3) 0.578(2) 0.0484(12)
N11? N 0.9686(15) 0.5639(7) 0.3169(8)
N12? N 0.8502(19) 0.6798(5) 0.1324(7)
C46? C 0.8463(10) 0.6328(3) 0.2078(4)
C47? C 0.7662(9) 0.6273(4) 0.2177(4)
H54? H 0.7371 0.6420 0.1945
C48? C 0.7285(8) 0.6002(4) 0.2616(5)
H55? H 0.7454 0.5602 0.3255
C49? C 0.8512(9) 0.5843(4) 0.2857(4)
C50? C 0.8888(8) 0.6113(4) 0.2418(4)
H56? H 0.9436 0.6152 0.2350
C51? C 0.6426(14) 0.5929(6) 0.2743(8)
H57? H 0.6135 0.6076 0.2511
C52? C 0.8876(15) 0.6608(5) 0.1625(6)
H58? H 0.9424 0.6643 0.1562
C53? C 0.8971(14) 0.5612(6) 0.3221(7)
H59? H 0.8694 0.5430 0.3517
C54? C 0.6047(17) 0.360(2) 0.0553(14)
H60? H 0.5623 0.3787 0.0573
C55? C 0.694(2) 0.4227(10) 0.0538(14)
C56? C 0.728(3) 0.523(3) 0.0550(14)
H61? H 0.6867 0.5419 0.0616
C57? C 0.519(2) 0.562(2) 0.317(2)
H62? H 0.5012 0.5999 0.3026
C58? C 1.020(2) 0.538(2) 0.3477(9)
H63? H 0.9840 0.5043 0.3748
H64? H 1.0734 0.5910 0.3591
C59? C 0.898(2) 0.722(3) 0.0891(10)
H65? H 0.9493 0.7132 0.0849
H66? H 0.9185 0.7854 0.0889
C60? C 0.827(3) 0.672(2) 0.0509(18)
C61? C 0.770(4) 0.705(4) 0.0485(18)
H67? H 0.7348 0.6836 0.0201
H68? H 0.8042 0.7695 0.0480
H69? H 0.7314 0.6854 0.0758
O5? O 0.618(6) 0.334(8) 0.007(3)
O6? O 0.454(3) 0.483(4) 0.0278(14)
H70? H 0.4276 0.3985 0.0232
O7? O 0.9160(8) 0.6598(8) 0.2514(4)
O8? O 0.7673(8) 0.6738(8) 0.2736(4)
C62? C 0.8307(11) 0.5802(11) 0.2562(6)
H71? H 0.8408 0.5301 0.2608
H72? H 0.7986 0.5702 0.2264
C63? C 0.9041(13) 0.7304(13) 0.2366(6)
H73? H 0.8746 0.7165 0.2058
H74? H 0.9620 0.7846 0.2334
C64? C 0.8520(13) 0.7436(13) 0.2699(7)
H75? H 0.8808 0.7544 0.3008
H76? H 0.8495 0.7969 0.2613
C65? C 0.7711(9) 0.5787(4) 0.2955(4)
H77? H 0.7989 0.5888 0.3267
H78? H 0.7127 0.5245 0.2957
O9? O 0.9104(12) 0.8307(10) 0.2875(5)
Cl2? Cl 1.0000 1.0000 0.2865(6)
C66? C 1.059(3) 1.022(3) 0.3257(15)
Cl3? Cl 1.027(11) 0.985(12) 0.3671(18)
Cl4? Cl 0.6357(17) 0.3605(16) 0.1597(7)
C67? C 0.623(4) 0.286(2) 0.2022(12)
Cl5? Cl 0.6688(14) 0.3589(8) 0.2495(3)
O10? O 1.0000 1.0000 0.027(4)
loop_
_geom_bond_atom_site_label_1
_geom_bond_atom_site_label_2
_geom_bond_site_symmetry_1
_geom_bond_site_symmetry_2
N1 C23 1_555 1_555
N2 C17 1_555 1_555
N3 C3 1_555 1_555
N4 C9 1_555 1_555
C1 H1 1_555 1_555
C2 C1 1_555 1_555
C3 C2 1_555 1_555
H2 C3 1_555 1_555
C4 N3 1_555 1_555
H3 C4 1_555 1_555
C5 C4 1_555 1_555
H4 C5 1_555 1_555
H5 C5 1_555 1_555
C6 C5 1_555 1_555
H6 C6 1_555 1_555
H7 C6 1_555 1_555
C7 C6 1_555 1_555
H8 C7 1_555 1_555
H9 C7 1_555 1_555
C8 C7 1_555 1_555
H10 C8 1_555 1_555
H11 C8 1_555 1_555
C9 C4 1_555 1_555
H12 C9 1_555 1_555
C10 N4 1_555 1_555
H13 C10 1_555 1_555
C11 C10 1_555 1_555
C12 C11 1_555 1_555
H14 C12 1_555 1_555
C13 C12 1_555 1_555
C14 C13 1_555 1_555
H15 C14 1_555 1_555
C15 C14 1_555 1_555
C16 C11 1_555 1_555
H16 C16 1_555 1_555
C17 C15 1_555 1_555
H17 C17 1_555 1_555
C18 N2 1_555 1_555
H18 C18 1_555 1_555
C19 C18 1_555 1_555
H19 C19 1_555 1_555
H20 C19 1_555 1_555
C20 C19 1_555 1_555
H21 C20 1_555 1_555
H22 C20 1_555 1_555
C21 C20 1_555 1_555
H23 C21 1_555 1_555
H24 C21 1_555 1_555
C22 C21 1_555 1_555
H25 C22 1_555 1_555
H26 C22 1_555 1_555
C23 C18 1_555 1_555
H27 C23 1_555 1_555
C24 N1 1_555 1_555
H28 C24 1_555 1_555
N5 C31 1_555 1_555
N6 C32 1_555 1_555
N7 C35 1_555 1_555
N8 C39 1_555 1_555
C25 C26 1_555 1_555
C26 H29 1_555 1_555
C27 C26 1_555 1_555
C28 C27 1_555 1_555
H30 C28 1_555 1_555
C29 C28 1_555 1_555
C30 C25 1_555 1_555
H31 C30 1_555 1_555
C31 C25 1_555 1_555
H32 C31 1_555 1_555
C32 C27 1_555 1_555
H33 C32 1_555 1_555
C33 H34 1_555 1_555
C34 C33 1_555 1_555
C35 C34 1_555 1_555
H35 C35 1_555 1_555
C36 N7 1_555 1_555
C37 N5 1_555 1_555
H36 C37 1_555 1_555
H37 C37 1_555 1_555
C38 N6 1_555 1_555
H38 C38 1_555 1_555
H39 C38 1_555 1_555
C39 C38 1_555 1_555
C40 N8 1_555 1_555
H40 C40 1_555 1_555
C41 C39 1_555 1_555
H41 C41 1_555 1_555
H42 C41 1_555 1_555
H43 C41 1_555 1_555
C42 C39 1_555 1_555
H44 C42 1_555 1_555
H45 C42 1_555 1_555
H46 C42 1_555 1_555
C43 C36 1_555 1_555
H47 C43 1_555 1_555
H48 C43 1_555 1_555
H49 C43 1_555 1_555
C44 C36 1_555 1_555
H50 C44 1_555 1_555
H51 C44 1_555 1_555
H52 C44 1_555 1_555
Cl1 C45 1_555 1_555
C45 H53 1_555 1_555
N1A C23A 1_555 1_555
N2A C17A 1_555 1_555
N3A C3A 1_555 1_555
N4A C9A 1_555 1_555
C1A C2 1_555 1_555
H1A C1A 1_555 1_555
C2A C1A 1_555 1_555
C3A C2A 1_555 1_555
H2A C3A 1_555 1_555
C4A N3A 1_555 1_555
H3A C4A 1_555 1_555
C5A C4A 1_555 1_555
H4A C5A 1_555 1_555
H5A C5A 1_555 1_555
C6A C5A 1_555 1_555
H6A C6A 1_555 1_555
H7A C6A 1_555 1_555
C7A C6A 1_555 1_555
H8A C7A 1_555 1_555
H9A C7A 1_555 1_555
C8A C7A 1_555 1_555
H10A C8A 1_555 1_555
H11A C8A 1_555 1_555
C9A C4A 1_555 1_555
H12A C9A 1_555 1_555
C10A N4A 1_555 1_555
H13A C10A 1_555 1_555
C11A C10A 1_555 1_555
C12A C11A 1_555 1_555
H14A C12A 1_555 1_555
C13A C24 1_555 1_555
C14A C13A 1_555 1_555
H15A C14A 1_555 1_555
C15A C14A 1_555 1_555
C16A C11A 1_555 1_555
H16A C16A 1_555 1_555
C17A C15A 1_555 1_555
H17A C17A 1_555 1_555
C18A N2A 1_555 1_555
H18A C18A 1_555 1_555
C19A C18A 1_555 1_555
H19A C19A 1_555 1_555
H20A C19A 1_555 1_555
C20A C19A 1_555 1_555
H21A C20A 1_555 1_555
H22A C20A 1_555 1_555
C21A C20A 1_555 1_555
H23A C21A 1_555 1_555
H24A C21A 1_555 1_555
C22A C21A 1_555 1_555
H25A C22A 1_555 1_555
H26A C22A 1_555 1_555
C23A C18A 1_555 1_555
H27A C23A 1_555 1_555
C24A N1A 1_555 1_555
H28A C24A 1_555 1_555
N1B C23B 1_555 1_555
N2B C17B 1_555 1_555
N3B C3B 1_555 1_555
N4B C9B 1_555 1_555
C1B C2A 1_555 1_555
H1B C1B 1_555 1_555
C2B C1 1_555 1_555
C3B C2B 1_555 1_555
H2B C3B 1_555 1_555
C4B N3B 1_555 1_555
H3B C4B 1_555 1_555
C5B C4B 1_555 1_555
H4B C5B 1_555 1_555
H5B C5B 1_555 1_555
C6B C5B 1_555 1_555
H6B C6B 1_555 1_555
H7B C6B 1_555 1_555
C7B C6B 1_555 1_555
H8B C7B 1_555 1_555
H9B C7B 1_555 1_555
C8B C7B 1_555 1_555
H10B C8B 1_555 1_555
H11B C8B 1_555 1_555
C9B C4B 1_555 1_555
H12B C9B 1_555 1_555
C10B N4B 1_555 1_555
H13B C10B 1_555 1_555
C11B C10B 1_555 1_555
C12B C11B 1_555 1_555
H14B C12B 1_555 1_555
C13B C24A 1_555 1_555
C14B C13B 1_555 1_555
H15B C14B 1_555 1_555
C15B C14B 1_555 1_555
C16B C11B 1_555 1_555
H16B C16B 1_555 1_555
C17B C15B 1_555 1_555
H17B C17B 1_555 1_555
C18B N2B 1_555 1_555
H18B C18B 1_555 1_555
C19B C18B 1_555 1_555
H19B C19B 1_555 1_555
H20B C19B 1_555 1_555
C20B C19B 1_555 1_555
H21B C20B 1_555 1_555
H22B C20B 1_555 1_555
C21B C20B 1_555 1_555
H23B C21B 1_555 1_555
H24B C21B 1_555 1_555
C22B C21B 1_555 1_555
H25B C22B 1_555 1_555
H26B C22B 1_555 1_555
C23B C18B 1_555 1_555
H27B C23B 1_555 1_555
C24B C13 1_555 1_555
H28B C24B 1_555 1_555
N5A C31A 1_555 1_555
N6A C32A 1_555 1_555
N7A C35A 1_555 1_555
N8A C39A 1_555 1_555
C25A C26A 1_555 1_555
C26A H29A 1_555 1_555
C27A C26A 1_555 1_555
C28A C27A 1_555 1_555
H30A C28A 1_555 1_555
C29A C40 1_555 1_555
C30A C25A 1_555 1_555
H31A C30A 1_555 1_555
C31A C25A 1_555 1_555
H32A C31A 1_555 1_555
C32A C27A 1_555 1_555
H33A C32A 1_555 1_555
C33A C34 1_555 1_555
H34A C33A 1_555 1_555
C34A C33A 1_555 1_555
C35A C34A 1_555 1_555
H35A C35A 1_555 1_555
C36A N7A 1_555 1_555
C37A N5A 1_555 1_555
H36A C37A 1_555 1_555
H37A C37A 1_555 1_555
C38A N6A 1_555 1_555
H38A C38A 1_555 1_555
H39A C38A 1_555 1_555
C39A C38A 1_555 1_555
C40A N8A 1_555 1_555
H40A C40A 1_555 1_555
C41A C39A 1_555 1_555
H41A C41A 1_555 1_555
H42A C41A 1_555 1_555
H43A C41A 1_555 1_555
C42A C39A 1_555 1_555
H44A C42A 1_555 1_555
H45A C42A 1_555 1_555
H46A C42A 1_555 1_555
C43A C36A 1_555 1_555
H47A C43A 1_555 1_555
H48A C43A 1_555 1_555
H49A C43A 1_555 1_555
C44A C36A 1_555 1_555
H50A C44A 1_555 1_555
H51A C44A 1_555 1_555
H52A C44A 1_555 1_555
N5B C31B 1_555 1_555
N6B C32B 1_555 1_555
N7B C35B 1_555 1_555
N8B C39B 1_555 1_555
C25B C26B 1_555 1_555
C26B H29B 1_555 1_555
C27B C26B 1_555 1_555
C28B C27B 1_555 1_555
H30B C28B 1_555 1_555
C29B C40A 1_555 1_555
C30B C25B 1_555 1_555
H31B C30B 1_555 1_555
C31B C25B 1_555 1_555
H32B C31B 1_555 1_555
C32B C27B 1_555 1_555
H33B C32B 1_555 1_555
C33B C34A 1_555 1_555
H34B C33B 1_555 1_555
C34B C33 1_555 1_555
C35B C34B 1_555 1_555
H35B C35B 1_555 1_555
C36B N7B 1_555 1_555
C37B N5B 1_555 1_555
H36B C37B 1_555 1_555
H37B C37B 1_555 1_555
C38B N6B 1_555 1_555
H38B C38B 1_555 1_555
H39B C38B 1_555 1_555
C39B C38B 1_555 1_555
C40B C29 1_555 1_555
H40B C40B 1_555 1_555
C41B C39B 1_555 1_555
H41B C41B 1_555 1_555
H42B C41B 1_555 1_555
H43B C41B 1_555 1_555
C42B C39B 1_555 1_555
H44B C42B 1_555 1_555
H45B C42B 1_555 1_555
H46B C42B 1_555 1_555
C43B C36B 1_555 1_555
H47B C43B 1_555 1_555
H48B C43B 1_555 1_555
H49B C43B 1_555 1_555
C44B C36B 1_555 1_555
H50B C44B 1_555 1_555
H51B C44B 1_555 1_555
H52B C44B 1_555 1_555
Cl1C C45 1_555 1_555
H53C C45 1_555 1_555
C8 C9 1_555 1_555
C15 C16 1_555 1_555
C22 C23 1_555 1_555
C29 C30 1_555 1_555
C36 C37 1_555 1_555
C8A C9A 1_555 1_555
C12A C13A 1_555 1_555
C15A C16A 1_555 1_555
C22A C23A 1_555 1_555
N1B C24B 1_555 1_555
C1B C2B 1_555 1_555
C8B C9B 1_555 1_555
C12B C13B 1_555 1_555
C15B C16B 1_555 1_555
C22B C23B 1_555 1_555
C28A C29A 1_555 1_555
C29A C30A 1_555 1_555
C36A C37A 1_555 1_555
N8B C40B 1_555 1_555
C28B C29B 1_555 1_555
C29B C30B 1_555 1_555
C33B C34B 1_555 1_555
C36B C37B 1_555 1_555

#END
