
#######################################################################
#
#                 Cambridge Crystallographic Data Centre
#                                CCDC 
#
#######################################################################
#
# If this CIF has been generated from an entry in the Cambridge 
# Structural Database, then it will include bibliographic, chemical, 
# crystal, experimental, refinement or atomic coordinate data resulting 
# from the CCDC's data processing and validation procedures.
#
#######################################################################

data_DEFFIE
_chemical_formula_moiety         'C39 H55 Ca1 I1 N2 O2 P2 Si2,C4 H8 O1'
_chemical_name_systematic        
(bis((N-trimethylsilylimino)diphenylphosphoranyl)methanide)-iodo-bis(tetrahydrofuran)-calcium(ii)
_symmetry_cell_setting           monoclinic
_symmetry_space_group_name_H-M   'P 21/n'
_symmetry_Int_Tables_number      14
_space_group_name_Hall           '-P 2yn'
loop_
_symmetry_equiv_pos_site_id
_symmetry_equiv_pos_as_xyz
1 x,y,z
2 1/2-x,1/2+y,1/2-z
3 -x,-y,-z
4 1/2+x,1/2-y,1/2+z
_cell_length_a                   11.947(2)
_cell_length_b                   15.169(3)
_cell_length_c                   26.367(5)
_cell_angle_alpha                90
_cell_angle_beta                 101.25(3)
_cell_angle_gamma                90
_cell_volume                     4686.52
_exptl_crystal_colour            colorless
_exptl_crystal_description       prism
_cell_formula_units_Z            4
_exptl_crystal_recrystallization_method tetrahydrofuran/pentane
loop_
_atom_site_label
_atom_site_type_symbol
_atom_site_fract_x
_atom_site_fract_y
_atom_site_fract_z
C1 C -0.0032(5) -0.3846(4) -0.0952(2)
H1 H -0.0283 -0.4430 -0.1041
C2 C -0.2201(5) -0.3781(4) -0.0659(2)
C3 C -0.2961(6) -0.3440(5) -0.0369(2)
H2 H -0.2756 -0.2934 -0.0160
C4 C -0.4020(6) -0.3838(6) -0.0385(3)
H3 H -0.4534 -0.3597 -0.0189
C5 C -0.4331(6) -0.4580(5) -0.0686(3)
H4 H -0.5049 -0.4854 -0.0694
C6 C -0.3581(7) -0.4913(5) -0.0972(3)
H5 H -0.3785 -0.5421 -0.1179
C7 C -0.2531(6) -0.4516(4) -0.0961(3)
H6 H -0.2030 -0.4753 -0.1165
C8 C -0.0370(5) -0.2929(4) 0.0003(2)
C9 C -0.0660(6) -0.2202(4) 0.0252(2)
H7 H -0.1187 -0.1788 0.0070
C10 C -0.0187(7) -0.2063(5) 0.0776(3)
H8 H -0.0422 -0.1566 0.0948
C11 C 0.0596(7) -0.2622(6) 0.1038(2)
H9 H 0.0949 -0.2502 0.1386
C12 C 0.0872(7) -0.3356(5) 0.0799(2)
H10 H 0.1392 -0.3765 0.0990
C13 C 0.0415(5) -0.3528(4) 0.0280(2)
H11 H 0.0631 -0.4042 0.0117
C14 C 0.2043(5) -0.4538(4) -0.1161(2)
C15 C 0.2667(6) -0.4568(4) -0.1549(2)
H12 H 0.2707 -0.4060 -0.1756
C16 C 0.3234(6) -0.5329(5) -0.1640(3)
H13 H 0.3664 -0.5341 -0.1908
C17 C 0.3178(7) -0.6065(5) -0.1347(3)
H14 H 0.3580 -0.6581 -0.1410
C18 C 0.2547(7) -0.6067(5) -0.0962(3)
H15 H 0.2497 -0.6585 -0.0765
C19 C 0.1984(6) -0.5299(4) -0.0863(2)
H16 H 0.1559 -0.5290 -0.0593
C20 C 0.2154(5) -0.3000(4) -0.0494(2)
C21 C 0.2985(6) -0.3434(5) -0.0135(2)
H17 H 0.3205 -0.4020 -0.0198
C22 C 0.3484(7) -0.3000(6) 0.0314(3)
H18 H 0.4049 -0.3299 0.0557
C23 C 0.3201(8) -0.2176(6) 0.0419(3)
H19 H 0.3566 -0.1902 0.0732
C24 C 0.2368(8) -0.1717(6) 0.0071(3)
H20 H 0.2154 -0.1134 0.0144
C25 C 0.1862(6) -0.2137(5) -0.0387(3)
H21 H 0.1307 -0.1830 -0.0630
C26 C -0.3002(8) -0.1124(6) -0.0784(3)
H22 H -0.3336 -0.0546 -0.0888
H23 H -0.2843 -0.1169 -0.0406
H24 H -0.3538 -0.1589 -0.0931
C27 C -0.0569(8) -0.0482(5) -0.0666(4)
H25 H -0.0289 -0.0710 -0.0316
H26 H -0.0914 0.0099 -0.0644
H27 H 0.0070 -0.0431 -0.0848
C28 C -0.1950(8) -0.0837(5) -0.1702(3)
H28 H -0.2479 -0.1238 -0.1920
H29 H -0.1234 -0.0806 -0.1830
H30 H -0.2292 -0.0249 -0.1711
C29 C 0.3577(6) -0.2162(5) -0.1350(3)
H31 H 0.3573 -0.1820 -0.1035
H32 H 0.4110 -0.1894 -0.1544
H33 H 0.3817 -0.2768 -0.1257
C30 C 0.2229(6) -0.2471(5) -0.2436(2)
H34 H 0.1464 -0.2517 -0.2652
H35 H 0.2622 -0.3039 -0.2433
H36 H 0.2664 -0.2015 -0.2576
C31 C 0.1527(7) -0.1037(5) -0.1789(3)
H37 H 0.0793 -0.1018 -0.2032
H38 H 0.2063 -0.0632 -0.1907
H39 H 0.1419 -0.0859 -0.1445
C32 C 0.0019(8) -0.4461(6) -0.2653(3)
H40 H 0.0747 -0.4132 -0.2563
H41 H -0.0433 -0.4212 -0.2976
C33 C 0.0244(9) -0.5435(6) -0.2720(4)
H42 H -0.0296 -0.5676 -0.3020
H43 H 0.1032 -0.5528 -0.2775
C34 C 0.0080(8) -0.5872(5) -0.2232(3)
H44 H 0.0807 -0.5905 -0.1978
H45 H -0.0233 -0.6474 -0.2301
C35 C -0.0759(7) -0.5276(5) -0.2046(3)
H46 H -0.1549 -0.5483 -0.2176
H47 H -0.0618 -0.5269 -0.1663
C36 C -0.3263(7) -0.3934(9) -0.2514(4)
H48 H -0.3066 -0.4559 -0.2435
H49 H -0.2918 -0.3750 -0.2810
C37 C -0.4484(8) -0.3828(8) -0.2641(4)
H50 H -0.4862 -0.4395 -0.2755
H51 H -0.4702 -0.3387 -0.2920
C38 C -0.4808(8) -0.3519(8) -0.2149(4)
H52 H -0.5502 -0.3147 -0.2223
H53 H -0.4949 -0.4025 -0.1933
C39 C -0.3819(6) -0.3006(5) -0.1892(3)
H54 H -0.3722 -0.3054 -0.1511
H55 H -0.3909 -0.2376 -0.1990
N1 N -0.1168(4) -0.2299(3) -0.10379(18)
N2 N 0.1166(4) -0.2874(3) -0.15488(18)
O1 O -0.0604(4) -0.4406(3) -0.22415(18)
O2 O -0.2838(4) -0.3392(3) -0.20707(18)
Si1 Si -0.16573(17) -0.12527(12) -0.10254(7)
Si2 Si 0.21064(15) -0.21715(12) -0.17605(7)
P1 P -0.09139(13) -0.31536(9) -0.06854(5)
P2 P 0.12967(13) -0.35165(10) -0.10641(5)
Ca1 Ca -0.08643(10) -0.29928(8) -0.18610(4)
I1 I -0.12349(5) -0.20426(4) -0.293683(17)
C40 C -0.256(2) -0.0810(17) 0.0736(10)
H56 H -0.2168 -0.0727 0.1099
H57 H -0.2029 -0.0752 0.0494
C41 C -0.358(2) -0.0329(17) 0.0595(9)
H58 H -0.3381 0.0305 0.0595
H59 H -0.3934 -0.0491 0.0236
C42 C -0.435(2) -0.0448(17) 0.0901(10)
H60 H -0.5133 -0.0525 0.0693
H61 H -0.4354 0.0053 0.1142
C43 C -0.394(3) -0.1269(18) 0.1183(10)
H62 H -0.4558 -0.1667 0.1242
H63 H -0.3380 -0.1166 0.1507
O3 O -0.331(3) -0.159(2) 0.0647(12)
O4? O -0.271(3) -0.139(2) 0.1170(11)
loop_
_geom_bond_atom_site_label_1
_geom_bond_atom_site_label_2
_geom_bond_site_symmetry_1
_geom_bond_site_symmetry_2
C1 H1 1_555 1_555
C2 C3 1_555 1_555
C3 H2 1_555 1_555
C4 C3 1_555 1_555
H3 C4 1_555 1_555
C5 C4 1_555 1_555
H4 C5 1_555 1_555
C6 C5 1_555 1_555
H5 C6 1_555 1_555
C7 C2 1_555 1_555
H6 C7 1_555 1_555
C8 C9 1_555 1_555
C9 H7 1_555 1_555
C10 C9 1_555 1_555
H8 C10 1_555 1_555
C11 C10 1_555 1_555
H9 C11 1_555 1_555
C12 C11 1_555 1_555
H10 C12 1_555 1_555
C13 C8 1_555 1_555
H11 C13 1_555 1_555
C14 C15 1_555 1_555
C15 H12 1_555 1_555
C16 C15 1_555 1_555
H13 C16 1_555 1_555
C17 C16 1_555 1_555
H14 C17 1_555 1_555
C18 C17 1_555 1_555
H15 C18 1_555 1_555
C19 C14 1_555 1_555
H16 C19 1_555 1_555
C20 C21 1_555 1_555
C21 H17 1_555 1_555
C22 C21 1_555 1_555
H18 C22 1_555 1_555
C23 C22 1_555 1_555
H19 C23 1_555 1_555
C24 C23 1_555 1_555
H20 C24 1_555 1_555
C25 C20 1_555 1_555
H21 C25 1_555 1_555
C26 H22 1_555 1_555
H23 C26 1_555 1_555
H24 C26 1_555 1_555
C27 H25 1_555 1_555
H26 C27 1_555 1_555
H27 C27 1_555 1_555
C28 H28 1_555 1_555
H29 C28 1_555 1_555
H30 C28 1_555 1_555
C29 H31 1_555 1_555
H32 C29 1_555 1_555
H33 C29 1_555 1_555
C30 H34 1_555 1_555
H35 C30 1_555 1_555
H36 C30 1_555 1_555
C31 H37 1_555 1_555
H38 C31 1_555 1_555
H39 C31 1_555 1_555
C32 H40 1_555 1_555
H41 C32 1_555 1_555
C33 C32 1_555 1_555
H42 C33 1_555 1_555
H43 C33 1_555 1_555
C34 C33 1_555 1_555
H44 C34 1_555 1_555
H45 C34 1_555 1_555
C35 C34 1_555 1_555
H46 C35 1_555 1_555
H47 C35 1_555 1_555
C36 H48 1_555 1_555
H49 C36 1_555 1_555
C37 C36 1_555 1_555
H50 C37 1_555 1_555
H51 C37 1_555 1_555
C38 C37 1_555 1_555
H52 C38 1_555 1_555
H53 C38 1_555 1_555
C39 C38 1_555 1_555
H54 C39 1_555 1_555
H55 C39 1_555 1_555
C40 H56 1_555 1_555
H57 C40 1_555 1_555
C41 C40 1_555 1_555
H58 C41 1_555 1_555
H59 C41 1_555 1_555
C42 C41 1_555 1_555
H60 C42 1_555 1_555
H61 C42 1_555 1_555
C43 C42 1_555 1_555
H62 C43 1_555 1_555
H63 C43 1_555 1_555
N1 Si1 1_555 1_555
N2 Si2 1_555 1_555
O1 C32 1_555 1_555
O2 C36 1_555 1_555
O3 C40 1_555 1_555
Si1 C26 1_555 1_555
Si2 C29 1_555 1_555
P1 C1 1_555 1_555
P2 C1 1_555 1_555
Ca1 C1 1_555 1_555
I1 Ca1 1_555 1_555
C2 P1 1_555 1_555
C6 C7 1_555 1_555
C8 P1 1_555 1_555
C12 C13 1_555 1_555
C14 P2 1_555 1_555
C18 C19 1_555 1_555
C20 P2 1_555 1_555
C24 C25 1_555 1_555
C27 Si1 1_555 1_555
C28 Si1 1_555 1_555
C30 Si2 1_555 1_555
C31 Si2 1_555 1_555
C35 O1 1_555 1_555
C39 O2 1_555 1_555
C43 O3 1_555 1_555
N1 P1 1_555 1_555
N1 Ca1 1_555 1_555
N2 P2 1_555 1_555
N2 Ca1 1_555 1_555
O1 Ca1 1_555 1_555
O2 Ca1 1_555 1_555

#END
