
#######################################################################
#
#                 Cambridge Crystallographic Data Centre
#                                CCDC 
#
#######################################################################
#
# If this CIF has been generated from an entry in the Cambridge 
# Structural Database, then it will include bibliographic, chemical, 
# crystal, experimental, refinement or atomic coordinate data resulting 
# from the CCDC's data processing and validation procedures.
#
#######################################################################

data_DEFMIL
_chemical_formula_moiety         'C21 H17 N3 O1'
_chemical_name_systematic        
3-(5-Methyl-1H-indol-3-yl)-3-(1H-pyrrol-2-yl)indolin-2-one
_symmetry_cell_setting           tetragonal
_symmetry_space_group_name_H-M   'I 41/a'
_symmetry_Int_Tables_number      88
_space_group_name_Hall           '-I 4ad'
loop_
_symmetry_equiv_pos_site_id
_symmetry_equiv_pos_as_xyz
1 x,y,z
2 3/4-y,1/4+x,1/4+z
3 1/2+x,1/2+y,1/2+z
4 1/4-y,3/4+x,3/4+z
5 1/4+y,1/4-x,1/4+z
6 1/2-x,-y,1/2+z
7 3/4+y,3/4-x,3/4+z
8 -x,1/2-y,z
9 -x,-y,-z
10 1/4+y,3/4-x,3/4-z
11 1/2-x,1/2-y,1/2-z
12 3/4+y,1/4-x,1/4-z
13 3/4-y,3/4+x,3/4-z
14 1/2+x,y,1/2-z
15 1/4-y,1/4+x,1/4-z
16 x,1/2+y,-z
_cell_length_a                   25.490(5)
_cell_length_b                   25.490(5)
_cell_length_c                   9.918(2)
_cell_angle_alpha                90
_cell_angle_beta                 90
_cell_angle_gamma                90
_cell_volume                     6444.12
_exptl_crystal_colour            brown
_exptl_crystal_description       polyhedron
_chemical_melting_point          '252-255 deg.C(dec.)'
_cell_formula_units_Z            16
loop_
_atom_site_label
_atom_site_type_symbol
_atom_site_fract_x
_atom_site_fract_y
_atom_site_fract_z
O1 O 0.53701(5) 0.68458(6) 0.46309(14)
N1 N 0.60509(7) 0.73501(7) 0.54078(17)
N2 N 0.59203(8) 0.58196(7) 0.37161(18)
N3 N 0.59471(7) 0.73013(7) 0.03484(18)
C1 C 0.62681(7) 0.67454(7) 0.36951(18)
C2 C 0.58319(8) 0.69834(8) 0.46163(18)
C3 C 0.65924(8) 0.74099(8) 0.5152(2)
C4 C 0.69330(10) 0.77667(9) 0.5716(2)
H1 H 0.6820 0.8006 0.6390
C5 C 0.74493(10) 0.77620(10) 0.5261(2)
H2 H 0.7695 0.8003 0.5628
C6 C 0.76100(9) 0.74121(10) 0.4284(2)
H3 H 0.7965 0.7414 0.3992
C7 C 0.72574(8) 0.70538(9) 0.3719(2)
H4 H 0.7368 0.6815 0.3041
C8 C 0.67452(8) 0.70549(8) 0.41655(19)
C9 C 0.63108(8) 0.61706(8) 0.40359(18)
C10 C 0.60641(10) 0.53265(8) 0.4100(2)
H5 H 0.5865 0.5015 0.3979
C11 C 0.65394(11) 0.53610(9) 0.4680(2)
H6 H 0.6733 0.5077 0.5052
C12 C 0.67025(9) 0.58936(9) 0.4642(2)
H7 H 0.7024 0.6031 0.4977
C13 C 0.61457(7) 0.68486(7) 0.22182(18)
C14 C 0.59491(8) 0.73094(8) 0.1729(2)
H8 H 0.5831 0.7594 0.2268
C15 C 0.61391(8) 0.68282(8) -0.0084(2)
C16 C 0.62018(9) 0.66343(9) -0.1391(2)
H9 H 0.6111 0.6841 -0.2153
C17 C 0.63980(9) 0.61375(9) -0.1544(2)
H10 H 0.6444 0.6001 -0.2427
C18 C 0.65333(9) 0.58239(8) -0.0429(2)
C19 C 0.64736(8) 0.60187(8) 0.0863(2)
H11 H 0.6568 0.5809 0.1618
C20 C 0.62725(7) 0.65274(8) 0.10613(19)
C21 C 0.67404(11) 0.52783(9) -0.0652(3)
H12 H 0.7106 0.5297 -0.0951
H13 H 0.6529 0.5102 -0.1342
H14 H 0.6721 0.5080 0.0193
H15 H 0.5878(10) 0.7516(10) 0.606(3)
H16 H 0.5598(11) 0.5887(11) 0.324(3)
H17 H 0.5820(10) 0.7551(10) -0.018(3)
loop_
_geom_bond_atom_site_label_1
_geom_bond_atom_site_label_2
_geom_bond_site_symmetry_1
_geom_bond_site_symmetry_2
O1 C2 1_555 1_555
N1 C2 1_555 1_555
N2 C9 1_555 1_555
N3 C14 1_555 1_555
C1 C2 1_555 1_555
C3 N1 1_555 1_555
C4 C3 1_555 1_555
H1 C4 1_555 1_555
C5 C4 1_555 1_555
H2 C5 1_555 1_555
C6 C5 1_555 1_555
H3 C6 1_555 1_555
C7 C6 1_555 1_555
H4 C7 1_555 1_555
C8 C1 1_555 1_555
C9 C1 1_555 1_555
C10 N2 1_555 1_555
H5 C10 1_555 1_555
C11 C10 1_555 1_555
H6 C11 1_555 1_555
C12 C9 1_555 1_555
H7 C12 1_555 1_555
C13 C1 1_555 1_555
C14 C13 1_555 1_555
H8 C14 1_555 1_555
C15 N3 1_555 1_555
C16 C15 1_555 1_555
H9 C16 1_555 1_555
C17 C16 1_555 1_555
H10 C17 1_555 1_555
C18 C17 1_555 1_555
C19 C18 1_555 1_555
H11 C19 1_555 1_555
C20 C13 1_555 1_555
C21 C18 1_555 1_555
H12 C21 1_555 1_555
H13 C21 1_555 1_555
H14 C21 1_555 1_555
H15 N1 1_555 1_555
H16 N2 1_555 1_555
H17 N3 1_555 1_555
C3 C8 1_555 1_555
C7 C8 1_555 1_555
C11 C12 1_555 1_555
C15 C20 1_555 1_555
C19 C20 1_555 1_555

#END
