
#######################################################################
#
#                 Cambridge Crystallographic Data Centre
#                                CCDC 
#
#######################################################################
#
# If this CIF has been generated from an entry in the Cambridge 
# Structural Database, then it will include bibliographic, chemical, 
# crystal, experimental, refinement or atomic coordinate data resulting 
# from the CCDC's data processing and validation procedures.
#
#######################################################################

data_DEGBEX
_chemical_formula_moiety         'C30 H25 N5 O4'
_chemical_name_systematic        
1-Acetyl-3,3-bis(3-(2-methylphenyl)-1,2,4-oxadiazol-5-yl)-1H-indolin-2(3H)-one
_symmetry_cell_setting           monoclinic
_symmetry_space_group_name_H-M   'P 21/c'
_symmetry_Int_Tables_number      14
_space_group_name_Hall           '-P 2ybc'
loop_
_symmetry_equiv_pos_site_id
_symmetry_equiv_pos_as_xyz
1 x,y,z
2 -x,1/2+y,1/2-z
3 -x,-y,-z
4 x,1/2-y,1/2+z
_cell_length_a                   11.680(2)
_cell_length_b                   12.234(2)
_cell_length_c                   18.396(4)
_cell_angle_alpha                90
_cell_angle_beta                 93.85(3)
_cell_angle_gamma                90
_cell_volume                     2622.73
_exptl_crystal_colour            colorless
_exptl_crystal_description       block
_cell_formula_units_Z            4
_exptl_crystal_recrystallization_method ethanol
loop_
_atom_site_label
_atom_site_type_symbol
_atom_site_fract_x
_atom_site_fract_y
_atom_site_fract_z
O1 O 0.96848(18) 0.5258(2) 0.18722(13)
O2 O 0.58841(18) 0.54239(18) 0.07950(12)
O3 O 0.6494(3) 0.8469(2) -0.00570(16)
O4 O 0.43250(18) 0.6889(2) 0.29942(11)
N1 N 1.0462(2) 0.5553(3) 0.13436(17)
N2 N 0.86902(18) 0.6141(2) 0.10125(14)
N3 N 0.41117(19) 0.6927(2) 0.18048(13)
N4 N 0.3372(2) 0.7581(3) 0.28072(14)
N5 N 0.63447(18) 0.72749(19) 0.08589(12)
C1 C 1.0914(4) 0.7664(4) -0.1016(2)
H1 H 1.1151 0.8039 -0.1420
C2 C 0.9807(4) 0.7793(3) -0.0811(2)
H2 H 0.9289 0.8239 -0.1079
C3 C 0.9483(3) 0.7248(3) -0.02023(18)
H3 H 0.8739 0.7331 -0.0059
C4 C 1.0251(2) 0.6571(2) 0.02048(17)
C5 C 1.1375(3) 0.6437(3) -0.00172(18)
C6 C 1.1666(3) 0.6992(4) -0.0631(2)
H4 H 1.2401 0.6906 -0.0789
C7 C 1.2241(3) 0.5710(3) 0.0377(2)
H5 H 1.2920 0.5676 0.0112
H6 H 1.1926 0.4989 0.0417
H7 H 1.2431 0.5998 0.0855
C8 C 0.9836(2) 0.6069(2) 0.08563(16)
C9 C 0.8660(2) 0.5634(3) 0.16148(17)
C10 C 0.7672(2) 0.5386(3) 0.20532(17)
H8 H 0.7932 0.5393 0.2565
H9 H 0.7398 0.4655 0.1934
C11 C 0.6658(2) 0.6204(2) 0.19283(15)
C12 C 0.6235(2) 0.6211(2) 0.11297(16)
C13 C 0.6788(2) 0.7965(2) 0.14334(18)
C14 C 0.6988(3) 0.9080(3) 0.1422(2)
H10 H 0.6859 0.9486 0.0997
C15 C 0.7383(3) 0.9557(4) 0.2064(3)
H11 H 0.7530 1.0305 0.2069
C16 C 0.7572(3) 0.8978(4) 0.2702(3)
H12 H 0.7841 0.9331 0.3127
C17 C 0.7362(3) 0.7875(4) 0.2706(2)
H13 H 0.7481 0.7474 0.3133
C18 C 0.6973(2) 0.7372(3) 0.20685(17)
C19 C 0.5619(4) 0.6800(3) -0.03975(19)
H14 H 0.5455 0.7157 -0.0858
H15 H 0.4916 0.6547 -0.0214
H16 H 0.6119 0.6190 -0.0461
C20 C 0.6182(3) 0.7580(3) 0.01246(19)
C21 C 0.5695(2) 0.5789(3) 0.23925(17)
H17 H 0.5445 0.5074 0.2218
H18 H 0.5996 0.5709 0.2894
C22 C 0.4689(2) 0.6545(2) 0.23648(16)
C23 C 0.3291(2) 0.7567(2) 0.21075(15)
C24 C 0.3715(3) 0.8873(3) 0.0770(2)
H19 H 0.4301 0.8928 0.1160
H20 H 0.3734 0.9510 0.0467
H21 H 0.3847 0.8233 0.0485
C25 C 0.2561(3) 0.8789(3) 0.10815(18)
C26 C 0.1631(3) 0.9355(3) 0.0751(2)
H22 H 0.1743 0.9786 0.0345
C27 C 0.0559(3) 0.9295(3) 0.1005(2)
H23 H -0.0045 0.9677 0.0769
C28 C 0.0372(3) 0.8684(3) 0.1596(2)
H24 H -0.0359 0.8644 0.1766
C29 C 0.1270(2) 0.8120(3) 0.19460(18)
H25 H 0.1143 0.7705 0.2356
C30 C 0.2370(2) 0.8165(2) 0.16906(16)
loop_
_geom_bond_atom_site_label_1
_geom_bond_atom_site_label_2
_geom_bond_site_symmetry_1
_geom_bond_site_symmetry_2
O1 N1 1_555 1_555
O2 C12 1_555 1_555
O3 C20 1_555 1_555
O4 N4 1_555 1_555
N1 C8 1_555 1_555
N2 C8 1_555 1_555
N3 C22 1_555 1_555
N4 C23 1_555 1_555
N5 C12 1_555 1_555
C1 H1 1_555 1_555
C2 C1 1_555 1_555
H2 C2 1_555 1_555
C3 C2 1_555 1_555
H3 C3 1_555 1_555
C4 C3 1_555 1_555
C5 C4 1_555 1_555
C6 C1 1_555 1_555
H4 C6 1_555 1_555
C7 C5 1_555 1_555
H5 C7 1_555 1_555
H6 C7 1_555 1_555
H7 C7 1_555 1_555
C8 C4 1_555 1_555
C9 O1 1_555 1_555
C10 C9 1_555 1_555
H8 C10 1_555 1_555
H9 C10 1_555 1_555
C11 C10 1_555 1_555
C12 C11 1_555 1_555
C13 N5 1_555 1_555
C14 C13 1_555 1_555
H10 C14 1_555 1_555
C15 C14 1_555 1_555
H11 C15 1_555 1_555
C16 C15 1_555 1_555
H12 C16 1_555 1_555
C17 C16 1_555 1_555
H13 C17 1_555 1_555
C18 C11 1_555 1_555
C19 H14 1_555 1_555
H15 C19 1_555 1_555
H16 C19 1_555 1_555
C20 N5 1_555 1_555
C21 C11 1_555 1_555
H17 C21 1_555 1_555
H18 C21 1_555 1_555
C22 O4 1_555 1_555
C23 N3 1_555 1_555
C24 H19 1_555 1_555
H20 C24 1_555 1_555
H21 C24 1_555 1_555
C25 C24 1_555 1_555
C26 C25 1_555 1_555
H22 C26 1_555 1_555
C27 C26 1_555 1_555
H23 C27 1_555 1_555
C28 C27 1_555 1_555
H24 C28 1_555 1_555
C29 C28 1_555 1_555
H25 C29 1_555 1_555
C30 C23 1_555 1_555
N2 C9 1_555 1_555
C5 C6 1_555 1_555
C13 C18 1_555 1_555
C17 C18 1_555 1_555
C19 C20 1_555 1_555
C21 C22 1_555 1_555
C25 C30 1_555 1_555
C29 C30 1_555 1_555

#END
