
#######################################################################
#
#                 Cambridge Crystallographic Data Centre
#                                CCDC 
#
#######################################################################
#
# If this CIF has been generated from an entry in the Cambridge 
# Structural Database, then it will include bibliographic, chemical, 
# crystal, experimental, refinement or atomic coordinate data resulting 
# from the CCDC's data processing and validation procedures.
#
#######################################################################

data_DEGDUP
_chemical_formula_moiety         'C28 H22 N4 O2'
_chemical_name_systematic        
N,N'-(4,5-Dimethyl-o-phenylene)bis(quinoline-2-carboxamide)
_symmetry_cell_setting           triclinic
_symmetry_space_group_name_H-M   'P -1'
_symmetry_Int_Tables_number      2
_space_group_name_Hall           '-P 1'
loop_
_symmetry_equiv_pos_site_id
_symmetry_equiv_pos_as_xyz
1 x,y,z
2 -x,-y,-z
_cell_length_a                   7.7346(10)
_cell_length_b                   11.9127(17)
_cell_length_c                   13.0732(18)
_cell_angle_alpha                105.682(2)
_cell_angle_beta                 92.228(3)
_cell_angle_gamma                106.699(2)
_cell_volume                     1101.91
_exptl_crystal_colour            'pale yellow'
_exptl_crystal_description       block
_cell_formula_units_Z            2
_exptl_crystal_recrystallization_method dichloromethane/methanol
loop_
_atom_site_label
_atom_site_type_symbol
_atom_site_fract_x
_atom_site_fract_y
_atom_site_fract_z
N1 N 0.2182(2) 0.72034(14) 0.68496(13)
N2 N 0.2439(2) 0.52259(14) 0.54550(13)
H1 H 0.2468 0.5411 0.6156
N3 N 0.2951(2) 0.38106(15) 0.67372(12)
H2 H 0.3691 0.4538 0.7099
N4 N 0.3069(2) 0.49454(15) 0.88242(13)
O1 O 0.1944(2) 0.59574(13) 0.40656(11)
O2 O 0.0755(2) 0.21272(13) 0.68724(11)
C1 C 0.2044(3) 0.82109(18) 0.76088(16)
C2 C 0.2374(3) 0.82960(19) 0.86964(16)
H3 H 0.2669 0.7652 0.8887
C3 C 0.2276(3) 0.92896(19) 0.94816(17)
H4 H 0.2517 0.9337 1.0213
C4 C 0.1818(3) 1.02458(19) 0.92114(18)
H5 H 0.1742 1.0934 0.9759
C5 C 0.1483(3) 1.01803(18) 0.81599(17)
H6 H 0.1166 1.0826 0.7986
C6 C 0.1598(3) 0.91782(18) 0.73282(16)
C7 C 0.1322(3) 0.90805(18) 0.62356(17)
H7 H 0.1023 0.9709 0.6020
C8 C 0.1484(3) 0.80823(18) 0.54855(17)
H8 H 0.1311 0.8006 0.4743
C9 C 0.1917(3) 0.71626(18) 0.58393(16)
C10 C 0.2099(3) 0.60600(19) 0.50195(17)
C11 C 0.2755(3) 0.41046(18) 0.49642(16)
C12 C 0.2809(3) 0.36765(18) 0.38655(15)
H9 H 0.2672 0.4168 0.3423
C13 C 0.3057(3) 0.25501(19) 0.34060(16)
C14 C 0.3291(3) 0.18231(19) 0.40461(17)
C15 C 0.3281(3) 0.22709(18) 0.51489(16)
H10 H 0.3461 0.1795 0.5597
C16 C 0.3014(3) 0.33907(18) 0.56061(16)
C17 C 0.1826(3) 0.3159(2) 0.72812(17)
C18 C 0.1950(3) 0.38115(19) 0.84568(16)
C19 C 0.0861(3) 0.31723(19) 0.90839(17)
H11 H 0.0060 0.2364 0.8771
C20 C 0.0985(3) 0.37428(19) 1.01515(17)
H12 H 0.0288 0.3326 1.0596
C21 C 0.2143(3) 0.49460(19) 1.05908(16)
C22 C 0.2282(3) 0.5614(2) 1.16813(16)
H13 H 0.1617 0.5230 1.2156
C23 C 0.3358(3) 0.6803(2) 1.20583(17)
H14 H 0.3425 0.7245 1.2790
C24 C 0.4371(3) 0.7377(2) 1.13679(17)
H15 H 0.5112 0.8208 1.1637
C25 C 0.4302(3) 0.67545(19) 1.03118(17)
H16 H 0.5019 0.7147 0.9859
C26 C 0.3167(3) 0.55302(18) 0.98962(15)
C27 C 0.3071(3) 0.2132(2) 0.22023(16)
H17 H 0.2974 0.2782 0.1899
H18 H 0.2038 0.1391 0.1883
H19 H 0.4208 0.1951 0.2048
C28 C 0.3500(3) 0.05664(19) 0.35778(18)
H20 H 0.2369 0.0013 0.3133
H21 H 0.3765 0.0243 0.4159
H22 H 0.4502 0.0630 0.3138
loop_
_geom_bond_atom_site_label_1
_geom_bond_atom_site_label_2
_geom_bond_site_symmetry_1
_geom_bond_site_symmetry_2
N1 C1 1_555 1_555
N2 H1 1_555 1_555
N3 H2 1_555 1_555
N4 C18 1_555 1_555
O1 C10 1_555 1_555
O2 C17 1_555 1_555
C1 C2 1_555 1_555
C2 H3 1_555 1_555
C3 C2 1_555 1_555
H4 C3 1_555 1_555
C4 C3 1_555 1_555
H5 C4 1_555 1_555
C5 C4 1_555 1_555
H6 C5 1_555 1_555
C6 C1 1_555 1_555
C7 C6 1_555 1_555
H7 C7 1_555 1_555
C8 C7 1_555 1_555
H8 C8 1_555 1_555
C9 N1 1_555 1_555
C10 N2 1_555 1_555
C11 N2 1_555 1_555
C12 C11 1_555 1_555
H9 C12 1_555 1_555
C13 C12 1_555 1_555
C14 C13 1_555 1_555
C15 C14 1_555 1_555
H10 C15 1_555 1_555
C16 N3 1_555 1_555
C17 N3 1_555 1_555
C18 C17 1_555 1_555
C19 C18 1_555 1_555
H11 C19 1_555 1_555
C20 C19 1_555 1_555
H12 C20 1_555 1_555
C21 C20 1_555 1_555
C22 C21 1_555 1_555
H13 C22 1_555 1_555
C23 C22 1_555 1_555
H14 C23 1_555 1_555
C24 C23 1_555 1_555
H15 C24 1_555 1_555
C25 C24 1_555 1_555
H16 C25 1_555 1_555
C26 N4 1_555 1_555
C27 C13 1_555 1_555
H17 C27 1_555 1_555
H18 C27 1_555 1_555
H19 C27 1_555 1_555
C28 C14 1_555 1_555
H20 C28 1_555 1_555
H21 C28 1_555 1_555
H22 C28 1_555 1_555
C5 C6 1_555 1_555
C8 C9 1_555 1_555
C9 C10 1_555 1_555
C11 C16 1_555 1_555
C15 C16 1_555 1_555
C21 C26 1_555 1_555
C25 C26 1_555 1_555

#END
