
#######################################################################
#
#                 Cambridge Crystallographic Data Centre
#                                CCDC 
#
#######################################################################
#
# If this CIF has been generated from an entry in the Cambridge 
# Structural Database, then it will include bibliographic, chemical, 
# crystal, experimental, refinement or atomic coordinate data resulting 
# from the CCDC's data processing and validation procedures.
#
#######################################################################

data_DEGFIF
_chemical_formula_moiety         'C9 H13 N1 O3'
_chemical_name_systematic        
(3S,4S)-4-(Cyclopropylcarbonyl)-3-((1R)-1-hydroxyethyl)azetidin-2-one
_symmetry_cell_setting           orthorhombic
_symmetry_space_group_name_H-M   'P 21 21 21'
_symmetry_Int_Tables_number      19
_space_group_name_Hall           'P 2ac 2ab'
loop_
_symmetry_equiv_pos_site_id
_symmetry_equiv_pos_as_xyz
1 x,y,z
2 1/2-x,-y,1/2+z
3 -x,1/2+y,1/2-z
4 1/2+x,1/2-y,-z
_cell_length_a                   5.422(2)
_cell_length_b                   7.436(3)
_cell_length_c                   24.043(9)
_cell_angle_alpha                90
_cell_angle_beta                 90
_cell_angle_gamma                90
_cell_volume                     969.365
_exptl_crystal_colour            colorless
_exptl_crystal_description       block
_cell_formula_units_Z            4
_exptl_crystal_recrystallization_method 'ethyl acetate/petroleum ether'
loop_
_atom_site_label
_atom_site_type_symbol
_atom_site_fract_x
_atom_site_fract_y
_atom_site_fract_z
O1 O 1.3402(4) 0.5557(3) 0.02004(9)
N1 N 0.9531(5) 0.6450(3) 0.05115(10)
H1 H 0.9041 0.7364 0.0322
O2 O 0.9128(5) 0.1673(3) 0.13383(10)
H2 H 0.8997 0.0575 0.1322
C1 C 1.1590(6) 0.5491(4) 0.04943(11)
C2 C 1.0775(5) 0.4287(3) 0.09780(10)
H3 H 1.1736 0.4524 0.1315
O3 O 0.7980(8) 0.8078(3) 0.14917(13)
C3 C 0.8378(6) 0.5430(4) 0.09597(11)
H4 H 0.6966 0.4728 0.0827
C4 C 1.0481(6) 0.2297(3) 0.08738(11)
H5 H 0.9501 0.2117 0.0536
C5 C 1.2918(7) 0.1357(5) 0.08108(16)
H6 H 1.3883 0.1532 0.1141
H7 H 1.3782 0.1844 0.0497
H8 H 1.2644 0.0095 0.0754
C6 C 0.7763(7) 0.6481(4) 0.14711(14)
C7 C 0.6867(7) 0.5440(4) 0.19431(12)
H9 H 0.6864 0.4129 0.1904
C8 C 0.4843(10) 0.6259(7) 0.22872(18)
H10 H 0.4214 0.7425 0.2175
H11 H 0.3623 0.5456 0.2447
C9 C 0.7345(12) 0.6176(7) 0.25064(17)
H12 H 0.7671 0.5326 0.2803
H13 H 0.8261 0.7293 0.2532
loop_
_geom_bond_atom_site_label_1
_geom_bond_atom_site_label_2
_geom_bond_site_symmetry_1
_geom_bond_site_symmetry_2
O1 C1 1_555 1_555
N1 H1 1_555 1_555
O2 H2 1_555 1_555
C1 N1 1_555 1_555
C2 C1 1_555 1_555
H3 C2 1_555 1_555
O3 C6 1_555 1_555
C3 N1 1_555 1_555
H4 C3 1_555 1_555
C4 O2 1_555 1_555
H5 C4 1_555 1_555
C5 C4 1_555 1_555
H6 C5 1_555 1_555
H7 C5 1_555 1_555
H8 C5 1_555 1_555
C6 C3 1_555 1_555
C7 C6 1_555 1_555
H9 C7 1_555 1_555
C8 C7 1_555 1_555
H10 C8 1_555 1_555
H11 C8 1_555 1_555
C9 C7 1_555 1_555
H12 C9 1_555 1_555
H13 C9 1_555 1_555
C2 C3 1_555 1_555
C2 C4 1_555 1_555
C8 C9 1_555 1_555

#END
