
#######################################################################
#
#                 Cambridge Crystallographic Data Centre
#                                CCDC 
#
#######################################################################
#
# If this CIF has been generated from an entry in the Cambridge 
# Structural Database, then it will include bibliographic, chemical, 
# crystal, experimental, refinement or atomic coordinate data resulting 
# from the CCDC's data processing and validation procedures.
#
#######################################################################

data_DEGGEB03
_chemical_formula_moiety         'C10 H8 S8 1+,F6 P1 1-'
_chemical_name_systematic        
'bis(Ethylenedithio)tetrathiafulvalenium hexafluorophosphate'
_symmetry_cell_setting           triclinic
_symmetry_space_group_name_H-M   'P -1'
_symmetry_Int_Tables_number      2
_space_group_name_Hall           '-P 1'
loop_
_symmetry_equiv_pos_site_id
_symmetry_equiv_pos_as_xyz
1 x,y,z
2 -x,-y,-z
_cell_length_a                   6.2793(1)
_cell_length_b                   7.3680(1)
_cell_length_c                   9.9006(1)
_cell_angle_alpha                92.542(1)
_cell_angle_beta                 93.255(1)
_cell_angle_gamma                98.763(1)
_cell_volume                     451.33
_cell_formula_units_Z            1
loop_
_atom_site_label
_atom_site_type_symbol
_atom_site_fract_x
_atom_site_fract_y
_atom_site_fract_z
S1 S 0.1459(1) 0.6637(1) 0.8422(1)
S2 S -0.2455(1) 0.6782(1) 0.9834(1)
S3 S 0.1264(1) 0.9988(1) 0.6947(1)
S4 S -0.3544(1) 1.0082(1) 0.8529(1)
C1 C -0.0215(3) 0.5734(3) 0.9621(2)
C2 C 0.0087(3) 0.8468(3) 0.8088(2)
C3 C -0.1744(3) 0.8523(3) 0.8742(2)
C4 C -0.0658(4) 1.1564(3) 0.6727(2)
C5 C -0.2974(4) 1.0698(3) 0.6823(2)
H1 H -0.0216(50) 1.2598(44) 0.7400(31)
H2 H -0.0443(41) 1.1962(35) 0.5800(26)
H3 H -0.3309(46) 0.9602(43) 0.6219(29)
H4 H -0.3896(43) 1.1553(36) 0.6655(25)
C1A C 0.0215(3) 0.4266(3) 1.0379(2)
S1A S -0.1459(1) 0.3363(1) 1.1578(1)
C2A C -0.0087(3) 0.1532(3) 1.1912(2)
S3A S -0.1264(1) 0.0012(1) 1.3053(1)
C4A C 0.0658(4) -0.1564(3) 1.3273(2)
C5A C 0.2974(4) -0.0698(3) 1.3177(2)
S4A S 0.3544(1) -0.0082(1) 1.1471(1)
C3A C 0.1744(3) 0.1477(3) 1.1258(2)
S2A S 0.2455(1) 0.3218(1) 1.0166(1)
H3A H 0.3309(46) 0.0398(43) 1.3781(29)
H4A H 0.3896(43) -0.1553(36) 1.3345(25)
H1A H 0.0216(50) -0.2598(44) 1.2600(31)
H2A H 0.0443(41) -0.1962(35) 1.4200(26)
P1 P 0.5000 0.5000 0.5000
F2 F 0.3395(7) 0.3315(7) 0.5419(11)
F3 F 0.6169(16) 0.5087(7) 0.6448(5)
F4 F 0.4090(34) 0.6685(17) 0.5597(19)
F2A F 0.6605(7) 0.6685(7) 0.4581(11)
F3A F 0.3831(16) 0.4913(7) 0.3552(5)
F4A F 0.5910(34) 0.3315(17) 0.4403(19)
F1? F 0.3532(16) 0.6419(10) 0.5481(8)
F5? F 0.4047(31) 0.3918(19) 0.6206(15)
F6? F 0.2848(17) 0.4500(23) 0.4185(22)
loop_
_geom_bond_atom_site_label_1
_geom_bond_atom_site_label_2
_geom_bond_site_symmetry_1
_geom_bond_site_symmetry_2
S1 C1 1_555 1_555
S2 C1 1_555 1_555
S3 C2 1_555 1_555
S4 C3 1_555 1_555
C1 C1A 1_555 1_555
C2 S1 1_555 1_555
C3 S2 1_555 1_555
C4 S3 1_555 1_555
C5 S4 1_555 1_555
P1 F2 1_555 1_555
F3 P1 1_555 1_555
F4 P1 1_555 1_555
H1 C4 1_555 1_555
H2 C4 1_555 1_555
H3 C5 1_555 1_555
H4 C5 1_555 1_555
C1A S1A 1_555 1_555
S1A C2A 1_555 1_555
C2A S3A 1_555 1_555
S3A C4A 1_555 1_555
C4A C5A 1_555 1_555
C5A S4A 1_555 1_555
S4A C3A 1_555 1_555
C3A C2A 1_555 1_555
S2A C1A 1_555 1_555
H3A C5A 1_555 1_555
H4A C5A 1_555 1_555
H1A C4A 1_555 1_555
H2A C4A 1_555 1_555
F2A P1 1_555 1_555
F3A P1 1_555 1_555
F4A P1 1_555 1_555
C2 C3 1_555 1_555
C4 C5 1_555 1_555
C3A S2A 1_555 1_555

#END
