
#######################################################################
#
#                 Cambridge Crystallographic Data Centre
#                                CCDC 
#
#######################################################################
#
# If this CIF has been generated from an entry in the Cambridge 
# Structural Database, then it will include bibliographic, chemical, 
# crystal, experimental, refinement or atomic coordinate data resulting 
# from the CCDC's data processing and validation procedures.
#
#######################################################################

data_DEGGAY
_chemical_formula_moiety         'C16 H17 Cl1 N4 O2 S2'
_chemical_name_systematic        
'1-(4-Chlorobenzoyl)-2-(1H-1,2,4-triazol-1-yl)ethyl morpholine-4-carbodithioate'
_symmetry_cell_setting           monoclinic
_symmetry_space_group_name_H-M   'P 21/c'
_symmetry_Int_Tables_number      14
_space_group_name_Hall           '-P 2ybc'
loop_
_symmetry_equiv_pos_site_id
_symmetry_equiv_pos_as_xyz
1 x,y,z
2 -x,1/2+y,1/2-z
3 -x,-y,-z
4 x,1/2-y,1/2+z
_cell_length_a                   16.8253(15)
_cell_length_b                   7.4853(7)
_cell_length_c                   14.8743(13)
_cell_angle_alpha                90
_cell_angle_beta                 97.1710(10)
_cell_angle_gamma                90
_cell_volume                     1858.65
_exptl_crystal_colour            'pale yellow'
_exptl_crystal_description       block
_cell_formula_units_Z            4
_exptl_crystal_recrystallization_method 'ethyl acetate/ethanol'
loop_
_atom_site_label
_atom_site_type_symbol
_atom_site_fract_x
_atom_site_fract_y
_atom_site_fract_z
Cl1 Cl -0.10571(5) 0.26262(11) 1.12226(6)
S1 S 0.27092(3) 0.07266(7) 0.96262(4)
S2 S 0.34633(4) 0.33692(7) 1.10056(4)
O1 O 0.13254(10) 0.2254(3) 0.79620(11)
O2 O 0.50878(10) -0.2610(2) 1.13711(13)
N1 N 0.26898(10) 0.5024(2) 0.79557(12)
N2 N 0.29997(12) 0.6589(3) 0.83016(14)
N3 N 0.22370(14) 0.7050(3) 0.69629(14)
N4 N 0.38657(10) -0.0051(2) 1.08983(12)
C1 C 0.00892(14) 0.2170(3) 0.90611(17)
H1 H -0.0037 0.1868 0.8454
C2 C -0.05047(14) 0.2195(4) 0.96183(19)
H2 H -0.1031 0.1924 0.9389
C3 C -0.03126(14) 0.2621(3) 1.05111(18)
C4 C 0.04564(14) 0.3050(3) 1.08640(16)
H3 H 0.0576 0.3344 1.1473
C5 C 0.10493(13) 0.3039(3) 1.03018(15)
H4 H 0.1571 0.3334 1.0535
C6 C 0.08772(12) 0.2593(3) 0.93933(14)
C7 C 0.14912(13) 0.2557(3) 0.87609(14)
C8 C 0.23743(12) 0.2863(3) 0.91337(14)
H5 H 0.2418 0.3792 0.9602
C9 C 0.28949(13) 0.3332(3) 0.84014(16)
H6 H 0.3450 0.3374 0.8671
H7 H 0.2846 0.2391 0.7949
C10 C 0.27041(17) 0.7733(4) 0.76769(18)
H8 H 0.2813 0.8949 0.7728
C11 C 0.22446(14) 0.5338(3) 0.71678(16)
H9 H 0.1974 0.4460 0.6808
C12 C 0.34157(11) 0.1321(3) 1.05723(13)
C13 C 0.44120(14) 0.0085(3) 1.17450(15)
H10 H 0.4171 -0.0478 1.2232
H11 H 0.4505 0.1333 1.1900
C14 C 0.51919(14) -0.0806(4) 1.16435(18)
H12 H 0.5455 -0.0163 1.1198
H13 H 0.5536 -0.0754 1.2217
C15 C 0.46083(14) -0.2700(3) 1.05231(17)
H14 H 0.4550 -0.3939 1.0336
H15 H 0.4875 -0.2070 1.0076
C16 C 0.37884(13) -0.1898(3) 1.05524(16)
H16 H 0.3493 -0.1900 0.9949
H17 H 0.3493 -0.2611 1.0943
loop_
_geom_bond_atom_site_label_1
_geom_bond_atom_site_label_2
_geom_bond_site_symmetry_1
_geom_bond_site_symmetry_2
Cl1 C3 1_555 1_555
S1 C8 1_555 1_555
S2 C12 1_555 1_555
O1 C7 1_555 1_555
O2 C14 1_555 1_555
N1 N2 1_555 1_555
N2 C10 1_555 1_555
N3 C10 1_555 1_555
N4 C12 1_555 1_555
C1 H1 1_555 1_555
C2 C1 1_555 1_555
H2 C2 1_555 1_555
C3 C2 1_555 1_555
C4 C3 1_555 1_555
H3 C4 1_555 1_555
C5 C4 1_555 1_555
H4 C5 1_555 1_555
C6 C1 1_555 1_555
C7 C6 1_555 1_555
C8 C7 1_555 1_555
H5 C8 1_555 1_555
C9 N1 1_555 1_555
H6 C9 1_555 1_555
H7 C9 1_555 1_555
C10 H8 1_555 1_555
C11 N1 1_555 1_555
H9 C11 1_555 1_555
C12 S1 1_555 1_555
C13 N4 1_555 1_555
H10 C13 1_555 1_555
H11 C13 1_555 1_555
C14 C13 1_555 1_555
H12 C14 1_555 1_555
H13 C14 1_555 1_555
C15 O2 1_555 1_555
H14 C15 1_555 1_555
H15 C15 1_555 1_555
C16 N4 1_555 1_555
H16 C16 1_555 1_555
H17 C16 1_555 1_555
N3 C11 1_555 1_555
C5 C6 1_555 1_555
C8 C9 1_555 1_555
C15 C16 1_555 1_555

#END
