
#######################################################################
#
#                 Cambridge Crystallographic Data Centre
#                                CCDC 
#
#######################################################################
#
# If this CIF has been generated from an entry in the Cambridge 
# Structural Database, then it will include bibliographic, chemical, 
# crystal, experimental, refinement or atomic coordinate data resulting 
# from the CCDC's data processing and validation procedures.
#
#######################################################################

data_DEGHIH
_chemical_formula_moiety         'C59 H74 Li4 N6 O1,2(C4 H10 O1)'
_chemical_name_systematic        
'(\m~4~-\h^3^-2-(6-(1,3-Dimethyl-3-(2-pyridyl)-1,4-bis(2,4,6-trimethylanilinio)butyl)-2-pyridyl)-2-methyl-1,3-bis(2,4,6-trimethylanilinio)propane)-(diethyl ether-O)-tetra-lithium(i) diethyl ether solvate'
_symmetry_cell_setting           triclinic
_symmetry_space_group_name_H-M   'P -1'
_symmetry_Int_Tables_number      2
_space_group_name_Hall           '-P 1'
loop_
_symmetry_equiv_pos_site_id
_symmetry_equiv_pos_as_xyz
1 x,y,z
2 -x,-y,-z
_cell_length_a                   11.607(2)
_cell_length_b                   14.302(3)
_cell_length_c                   17.477(4)
_cell_angle_alpha                78.18(3)
_cell_angle_beta                 72.68(3)
_cell_angle_gamma                80.31(3)
_cell_volume                     2693.02
_exptl_crystal_colour            yellow
_exptl_crystal_description       block
_cell_formula_units_Z            2
loop_
_atom_site_label
_atom_site_type_symbol
_atom_site_fract_x
_atom_site_fract_y
_atom_site_fract_z
O2 O 1.0339 0.4814 -0.0072
C62 C 1.0944 0.5482 -0.0728
C63 C 1.0743 0.6558 -0.0664
O2A O 0.9661 0.5186 0.0072
C62A C 0.9056 0.4518 0.0728
C63A C 0.9257 0.3442 0.0664
Li1 Li 0.7451(4) 0.2096(3) 0.7821(3)
Li2 Li 0.6433(5) 0.0889(3) 0.7436(3)
Li3 Li 0.6008(5) 0.6041(3) 0.8068(3)
Li4 Li 0.5436(5) 0.4873(3) 0.7342(3)
N1 N 0.7888(2) 0.06762(15) 0.78459(15)
N2 N 0.6711(2) 0.22286(16) 0.68750(15)
N3 N 0.8956(2) 0.26499(15) 0.71481(15)
N4 N 0.6483(2) 0.46919(15) 0.81021(14)
N5 N 0.7514(2) 0.65913(16) 0.79263(16)
N6 N 0.5895(2) 0.62457(16) 0.69496(15)
O1 O 0.5815(2) 0.00686(18) 0.69246(15)
C1 C 0.9679(3) 0.1061(2) 0.5593(2)
C2 C 0.8928(3) 0.1430(2) 0.63835(19)
C3 C 0.8734(3) 0.05210(19) 0.70595(18)
C4 C 0.8107(3) 0.00375(18) 0.85267(18)
C5 C 0.7140(3) -0.04321(19) 0.90868(18)
C6 C 0.7307(3) -0.1085(2) 0.97646(19)
C7 C 0.8424(3) -0.1300(2) 0.99362(19)
C8 C 0.9358(3) -0.0813(2) 0.9414(2)
C9 C 0.9243(3) -0.01446(19) 0.87250(19)
C10 C 0.5890(3) -0.0244(2) 0.8962(2)
C11 C 0.8586(3) -0.2023(3) 1.0674(2)
C12 C 1.0298(3) 0.0404(2) 0.8250(2)
C13 C 0.7737(3) 0.1982(2) 0.61890(19)
C14 C 0.5879(2) 0.30074(18) 0.67972(17)
C15 C 0.4828(3) 0.30696(19) 0.74838(18)
C16 C 0.3866(3) 0.37940(19) 0.74953(19)
C17 C 0.3853(2) 0.45402(19) 0.68461(18)
C18 C 0.4878(3) 0.45240(19) 0.61887(18)
C19 C 0.5878(3) 0.3806(2) 0.61350(17)
C20 C 0.4723(3) 0.2288(2) 0.82212(19)
C21 C 0.2785(3) 0.5309(2) 0.6854(2)
C22 C 0.6898(3) 0.3941(2) 0.5356(2)
C23 C 0.9626(3) 0.20880(19) 0.66114(19)
C24 C 1.0893(3) 0.2105(2) 0.6328(2)
C25 C 1.1430(3) 0.2677(2) 0.6633(2)
C26 C 1.0729(3) 0.3261(2) 0.7180(2)
C27 C 0.9478(3) 0.32595(19) 0.74035(19)
C28 C 0.8583(3) 0.39146(19) 0.79394(19)
C29 C 0.9203(3) 0.4466(2) 0.8343(2)
C30 C 0.7659(3) 0.33536(19) 0.86184(18)
C31 C 0.7846(3) 0.2525(2) 0.91553(19)
C32 C 0.6893(3) 0.2212(2) 0.98112(19)
C33 C 0.5763(3) 0.2774(2) 0.99052(19)
C34 C 0.5541(3) 0.3617(2) 0.93692(19)
C35 C 0.6509(3) 0.39003(19) 0.87025(18)
C36 C 0.7091(3) 0.1318(2) 1.0415(2)
C37 C 0.4317(3) 0.4200(2) 0.9504(2)
C38 C 0.7665(3) 0.45829(18) 0.74766(18)
C39 C 0.8086(3) 0.55284(19) 0.68906(18)
C40 C 0.8384(3) 0.62864(19) 0.72886(19)
C41 C 0.9478(3) 0.6686(2) 0.6995(2)
C42 C 0.9702(3) 0.7369(2) 0.7376(3)
C43 C 0.8824(3) 0.7654(2) 0.8041(2)
C44 C 0.7749(3) 0.7260(2) 0.8286(2)
C45 C 0.9204(3) 0.5227(2) 0.62126(19)
C46 C 0.7103(3) 0.6012(2) 0.64285(18)
C47 C 0.5060(3) 0.69239(19) 0.66532(18)
C48 C 0.4053(3) 0.72876(19) 0.72614(19)
C49 C 0.3128(3) 0.7954(2) 0.7067(2)
C50 C 0.3128(3) 0.8325(2) 0.6266(2)
C51 C 0.4093(3) 0.7973(2) 0.5678(2)
C52 C 0.5054(3) 0.7288(2) 0.58290(19)
C53 C 0.4016(3) 0.6961(2) 0.8141(2)
C54 C 0.2146(3) 0.9079(3) 0.6061(3)
C55 C 0.5987(3) 0.6981(2) 0.50957(19)
C56 C 0.7084(6) -0.1091(4) 0.6073(4)
C57 C 0.6320(6) -0.0917(3) 0.6879(3)
C58 C 0.4671(12) 0.0682(10) 0.6657(6)
C59 C 0.3535(8) 0.0419(6) 0.7316(7)
H1 H 0.7784 0.3979 0.5445
H2 H 0.1393 0.9136 0.6524
H3 H 0.6230 0.6246 0.5197
H4 H 0.5641 0.7150 0.4590
H5 H 0.6738 0.7308 0.4965
H6 H 0.6550 0.4579 0.5033
H7 H 0.2348 0.5183 0.6531
H8 H 0.3037 0.5916 0.6578
H9 H 0.9210 0.0627 0.5451
H10 H 1.0462 0.0697 0.5671
H11 H 0.9853 0.1620 0.5144
H12 H 0.3726 0.3858 0.9984
H13 H 0.8173 -0.1822 1.1252
H14 H 1.0859 0.0451 0.8621
H15 H 0.3840 0.4291 0.9027
H16 H 1.0834 0.0026 0.7819
H17 H 1.0012 0.1168 0.8026
H18 H 0.6970 0.3352 0.5056
H19 H 0.5360 -0.0650 0.9467
H20 H 0.2270 0.5283 0.7460
H21 H 0.9468 -0.2157 1.0649
H22 H 0.4415 0.4958 0.9506
H23 H 0.6307 0.1233 1.0888
H24 H 0.8426 -0.2703 1.0604
H25 H 0.5585 0.0456 0.8936
H26 H 0.5907 -0.0419 0.8392
H27 H 0.7438 0.0698 1.0140
H28 H 0.9541 0.0251 0.7156
H29 H 0.8423 0.0041 0.6851
H30 H 0.4032 0.2499 0.8727
H31 H 0.4821 0.7152 0.8279
H32 H 0.4066 0.6265 0.8286
H33 H 0.4587 0.1634 0.8022
H34 H 0.5468 0.2199 0.8409
H35 H 0.3246 0.7150 0.8502
H36 H 0.6601 -0.1414 1.0136
H37 H 1.0167 -0.0948 0.9532
H38 H 0.7949 0.2596 0.5815
H39 H 0.7446 0.1568 0.5905
H40 H 0.3154 0.3778 0.7989
H41 H 0.4909 0.5057 0.5715
H42 H 1.1391 0.1708 0.5910
H43 H 1.2333 0.2673 0.6451
H44 H 1.1113 0.3671 0.7412
H45 H 0.8572 0.4889 0.8686
H46 H 0.9658 0.4000 0.8691
H47 H 0.9781 0.4870 0.7914
H48 H 0.8672 0.2153 0.9075
H49 H 0.5075 0.2565 1.0380
H50 H 0.7762 0.1443 1.0670
H51 H 0.7529 0.4177 0.7116
H52 H 1.0098 0.6482 0.6505
H53 H 1.0492 0.7649 0.7174
H54 H 0.8972 0.8133 0.8335
H55 H 0.7103 0.7476 0.8760
H56 H 0.8997 0.4733 0.5959
H57 H 0.9898 0.4948 0.6448
H58 H 0.9438 0.5800 0.5790
H59 H 0.7389 0.6618 0.6075
H60 H 0.7042 0.5556 0.6082
H61 H 0.2438 0.8175 0.7517
H62 H 0.4117 0.8228 0.5097
H63 H 0.2496 0.9752 0.5874
H64 H 0.1897 0.8903 0.5557
H65 H 0.7410 -0.1786 0.6082
H66 H 0.7775 -0.0692 0.5905
H67 H 0.6584 -0.0896 0.5676
H68 H 0.6828 -0.1120 0.7270
H69 H 0.5637 -0.1324 0.7041
H70 H 0.4735 0.1387 0.6566
H71 H 0.4593 0.0502 0.6153
H72 H 0.2766 0.0772 0.7205
H73 H 0.3638 0.0596 0.7814
H74 H 0.3496 -0.0289 0.7402
C60? C 0.4962(9) 0.0113(9) 0.6502(7)
C61? C 0.4024(17) 0.0866(12) 0.6824(13)
C64? C 0.9068 0.4760 0.0202
C65? C 0.8849 0.3908 0.0907
H75? H 0.4681 -0.0527 0.6555
H76? H 0.5282 0.0379 0.5914
H77? H 0.3333 0.0974 0.6573
H78? H 0.3737 0.0587 0.7412
H79? H 0.4338 0.1493 0.6771
loop_
_geom_bond_atom_site_label_1
_geom_bond_atom_site_label_2
_geom_bond_site_symmetry_1
_geom_bond_site_symmetry_2
Li1 N1 1_555 1_555
Li2 N1 1_555 1_555
Li3 N4 1_555 1_555
Li4 N4 1_555 1_555
N1 C3 1_555 1_555
N2 Li1 1_555 1_555
N3 Li1 1_555 1_555
N4 C35 1_555 1_555
N5 Li3 1_555 1_555
N6 Li3 1_555 1_555
O1 Li2 1_555 1_555
C1 C2 1_555 1_555
C2 C3 1_555 1_555
C3 H28 1_555 1_555
C4 N1 1_555 1_555
C5 C4 1_555 1_555
C6 C5 1_555 1_555
C7 C6 1_555 1_555
C8 C7 1_555 1_555
C9 C4 1_555 1_555
C10 C5 1_555 1_555
C11 C7 1_555 1_555
C12 C9 1_555 1_555
C13 N2 1_555 1_555
C14 N2 1_555 1_555
C15 C14 1_555 1_555
C16 Li4 1_555 1_555
C17 Li4 1_555 1_555
C18 Li4 1_555 1_555
C19 C14 1_555 1_555
C20 C15 1_555 1_555
C21 C17 1_555 1_555
C22 C19 1_555 1_555
C23 N3 1_555 1_555
C24 C23 1_555 1_555
C25 C24 1_555 1_555
C26 C25 1_555 1_555
C27 N3 1_555 1_555
C28 C27 1_555 1_555
C29 C28 1_555 1_555
C30 C28 1_555 1_555
C31 C30 1_555 1_555
C32 C31 1_555 1_555
C33 C32 1_555 1_555
C34 C33 1_555 1_555
C35 C30 1_555 1_555
C36 C32 1_555 1_555
C37 C34 1_555 1_555
C38 N4 1_555 1_555
C39 C38 1_555 1_555
C40 N5 1_555 1_555
C41 C40 1_555 1_555
C42 C41 1_555 1_555
C43 C42 1_555 1_555
C44 N5 1_555 1_555
C45 C39 1_555 1_555
C46 N6 1_555 1_555
C47 N6 1_555 1_555
C48 C47 1_555 1_555
C49 C48 1_555 1_555
C50 C49 1_555 1_555
C51 C50 1_555 1_555
C52 C47 1_555 1_555
C53 C48 1_555 1_555
C54 C50 1_555 1_555
C55 C52 1_555 1_555
C56 C57 1_555 1_555
C57 O1 1_555 1_555
C58 O1 1_555 1_555
C59 C58 1_555 1_555
O2 C62 1_555 1_555
C62 C63 1_555 1_555
H1 C22 1_555 1_555
H2 C54 1_555 1_555
H3 C55 1_555 1_555
H4 C55 1_555 1_555
H5 C55 1_555 1_555
H6 C22 1_555 1_555
H7 C21 1_555 1_555
H8 C21 1_555 1_555
H9 C1 1_555 1_555
H10 C1 1_555 1_555
H11 C1 1_555 1_555
H12 C37 1_555 1_555
H13 C11 1_555 1_555
H14 C12 1_555 1_555
H15 C37 1_555 1_555
H16 C12 1_555 1_555
H17 C12 1_555 1_555
H18 C22 1_555 1_555
H19 C10 1_555 1_555
H20 C21 1_555 1_555
H21 C11 1_555 1_555
H22 C37 1_555 1_555
H23 C36 1_555 1_555
H24 C11 1_555 1_555
H25 C10 1_555 1_555
H26 C10 1_555 1_555
H27 C36 1_555 1_555
H29 C3 1_555 1_555
H30 C20 1_555 1_555
H31 C53 1_555 1_555
H32 C53 1_555 1_555
H33 C20 1_555 1_555
H34 C20 1_555 1_555
H35 C53 1_555 1_555
H36 C6 1_555 1_555
H37 C8 1_555 1_555
H38 C13 1_555 1_555
H39 C13 1_555 1_555
H40 C16 1_555 1_555
H41 C18 1_555 1_555
H42 C24 1_555 1_555
H43 C25 1_555 1_555
H44 C26 1_555 1_555
H45 C29 1_555 1_555
H46 C29 1_555 1_555
H47 C29 1_555 1_555
H48 C31 1_555 1_555
H49 C33 1_555 1_555
H50 C36 1_555 1_555
H51 C38 1_555 1_555
H52 C41 1_555 1_555
H53 C42 1_555 1_555
H54 C43 1_555 1_555
H55 C44 1_555 1_555
H56 C45 1_555 1_555
H57 C45 1_555 1_555
H58 C45 1_555 1_555
H59 C46 1_555 1_555
H60 C46 1_555 1_555
H61 C49 1_555 1_555
H62 C51 1_555 1_555
H63 C54 1_555 1_555
H64 C54 1_555 1_555
H65 C56 1_555 1_555
H66 C56 1_555 1_555
H67 C56 1_555 1_555
H68 C57 1_555 1_555
H69 C57 1_555 1_555
H70 C58 1_555 1_555
H71 C58 1_555 1_555
H72 C59 1_555 1_555
H73 C59 1_555 1_555
H74 C59 1_555 1_555
O2A O2 1_555 1_555
C62A O2 1_555 1_555
C63A C62A 1_555 1_555
Li2 N2 1_555 1_555
Li4 N6 1_555 1_555
C2 C13 1_555 1_555
C2 C23 1_555 1_555
C8 C9 1_555 1_555
C15 C16 1_555 1_555
C16 C17 1_555 1_555
C17 C18 1_555 1_555
C18 C19 1_555 1_555
C26 C27 1_555 1_555
C28 C38 1_555 1_555
C34 C35 1_555 1_555
C39 C40 1_555 1_555
C39 C46 1_555 1_555
C43 C44 1_555 1_555
C51 C52 1_555 1_555
C62 O2A 1_555 1_555
O2A C62A 1_555 1_555

#END
