
#######################################################################
#
#                 Cambridge Crystallographic Data Centre
#                                CCDC 
#
#######################################################################
#
# If this CIF has been generated from an entry in the Cambridge 
# Structural Database, then it will include bibliographic, chemical, 
# crystal, experimental, refinement or atomic coordinate data resulting 
# from the CCDC's data processing and validation procedures.
#
#######################################################################

data_DEGHED
_chemical_formula_moiety         'C5 H15 O7 P3,H2 O1'
_chemical_name_systematic        
'(1-Hydroxy-1-phosphono-2-(trimethylphosphonium-1-yl)ethyl)phosphonate monohydrate'
_symmetry_cell_setting           monoclinic
_symmetry_space_group_name_H-M   'P 21/c'
_symmetry_Int_Tables_number      14
_space_group_name_Hall           '-P 2ybc'
loop_
_symmetry_equiv_pos_site_id
_symmetry_equiv_pos_as_xyz
1 x,y,z
2 -x,1/2+y,1/2-z
3 -x,-y,-z
4 x,1/2-y,1/2+z
_cell_length_a                   7.165(2)
_cell_length_b                   10.545(4)
_cell_length_c                   16.613(6)
_cell_angle_alpha                90
_cell_angle_beta                 98.475(5)
_cell_angle_gamma                90
_cell_volume                     1241.49
_exptl_crystal_colour            colorless
_exptl_crystal_description       plate
_cell_formula_units_Z            4
_exptl_crystal_recrystallization_method ethanol/water
loop_
_atom_site_label
_atom_site_type_symbol
_atom_site_fract_x
_atom_site_fract_y
_atom_site_fract_z
C1 C 0.3856(2) 0.86178(17) 0.27958(11)
C2 C 0.2968(3) 0.74517(18) 0.31708(11)
H1 H 0.352(3) 0.6664(17) 0.3042(13)
H2 H 0.161(2) 0.737(2) 0.2988(13)
C3 C 0.2178(4) 0.5882(2) 0.44715(14)
H3 H 0.2238 0.5775 0.5061
H4 H 0.2957 0.5233 0.4261
H5 H 0.0868 0.5795 0.4208
C4 C 0.1493(4) 0.8580(2) 0.45764(14)
H6 H 0.1438 0.8480 0.5159
H7 H 0.0227 0.8468 0.4269
H8 H 0.1960 0.9429 0.4474
C5 C 0.5342(4) 0.7577(2) 0.48253(14)
H9 H 0.5881 0.8395 0.4700
H10 H 0.6147 0.6890 0.4677
H11 H 0.5266 0.7532 0.5409
O1 O 0.7372(2) 0.76143(13) 0.32410(9)
H12 H 0.727(4) 0.6829(16) 0.3281(16)
O2 O 0.69703(19) 0.93685(14) 0.22312(10)
H13 H 0.809(2) 0.935(3) 0.2253(17)
O3 O 0.5721(2) 0.71504(13) 0.18113(8)
O4 O 0.1593(2) 0.81800(13) 0.13459(8)
H14 H 0.081(3) 0.765(2) 0.1445(15)
O5 O 0.30086(19) 1.03090(12) 0.15469(8)
O6 O 0.04508(18) 0.96552(13) 0.23834(8)
O7 O 0.4255(2) 0.95532(12) 0.34274(8)
H15 H 0.449(3) 1.0248(17) 0.3264(15)
P1 P 0.21033(7) 0.92654(4) 0.19694(3)
P2 P 0.60806(7) 0.81168(5) 0.24725(3)
P3 P 0.30399(8) 0.74214(5) 0.42618(3)
O8 O 0.9185(2) 0.64720(14) 0.14180(9)
H16 H 0.938(4) 0.588(2) 0.1748(14)
H17 H 0.809(3) 0.672(2) 0.1452(16)
loop_
_geom_bond_atom_site_label_1
_geom_bond_atom_site_label_2
_geom_bond_site_symmetry_1
_geom_bond_site_symmetry_2
C1 C2 1_555 1_555
C2 H1 1_555 1_555
H2 C2 1_555 1_555
C3 H3 1_555 1_555
H4 C3 1_555 1_555
H5 C3 1_555 1_555
C4 H6 1_555 1_555
H7 C4 1_555 1_555
H8 C4 1_555 1_555
C5 H9 1_555 1_555
H10 C5 1_555 1_555
H11 C5 1_555 1_555
O1 H12 1_555 1_555
O2 H13 1_555 1_555
O3 P2 1_555 1_555
O4 H14 1_555 1_555
O5 P1 1_555 1_555
O6 P1 1_555 1_555
O7 C1 1_555 1_555
H15 O7 1_555 1_555
O8 H16 1_555 1_555
H17 O8 1_555 1_555
P1 C1 1_555 1_555
P2 C1 1_555 1_555
P3 C2 1_555 1_555
C3 P3 1_555 1_555
C4 P3 1_555 1_555
C5 P3 1_555 1_555
O1 P2 1_555 1_555
O2 P2 1_555 1_555
O4 P1 1_555 1_555

#END
