
#######################################################################
#
#                 Cambridge Crystallographic Data Centre
#                                CCDC 
#
#######################################################################
#
# If this CIF has been generated from an entry in the Cambridge 
# Structural Database, then it will include bibliographic, chemical, 
# crystal, experimental, refinement or atomic coordinate data resulting 
# from the CCDC's data processing and validation procedures.
#
#######################################################################

data_DEGMOU
_chemical_formula_moiety         'C18 H16 O3'
_chemical_name_systematic        
7-ethoxy-3-(4-methylphenyl)-2H-1-benzopyran-2-one
_symmetry_cell_setting           triclinic
_symmetry_space_group_name_H-M   'P -1'
_symmetry_Int_Tables_number      2
_space_group_name_Hall           '-P 1'
loop_
_symmetry_equiv_pos_site_id
_symmetry_equiv_pos_as_xyz
1 x,y,z
2 -x,-y,-z
_cell_length_a                   8.9194(14)
_cell_length_b                   12.524(2)
_cell_length_c                   14.3997(17)
_cell_angle_alpha                69.356(12)
_cell_angle_beta                 86.259(11)
_cell_angle_gamma                84.917(13)
_cell_volume                     1498.34
_exptl_crystal_colour            'light colorless'
_exptl_crystal_description       plate
_cell_formula_units_Z            4
loop_
_atom_site_label
_atom_site_type_symbol
_atom_site_fract_x
_atom_site_fract_y
_atom_site_fract_z
O1 O 0.4243(3) 0.7712(2) 0.0727(2)
O2 O 0.3166(3) 0.9422(2) 0.0480(2)
O3 O 0.1157(3) 1.3230(2) -0.0056(2)
C1 C 0.2229(5) 0.5833(4) 0.1322(3)
H1 H 0.2688 0.6156 0.0697
C2 C 0.2077(6) 0.4677(4) 0.1696(4)
H2 H 0.2439 0.4236 0.1316
C3 C 0.1409(5) 0.4148(4) 0.2609(4)
C4 C 0.0900(5) 0.4834(4) 0.3157(3)
H3 H 0.0451 0.4501 0.3783
C5 C 0.1045(5) 0.5996(4) 0.2794(3)
H4 H 0.0693 0.6431 0.3180
C6 C 0.1711(4) 0.6533(3) 0.1858(3)
C7 C 0.1789(4) 0.7778(3) 0.1466(3)
C8 C 0.3122(5) 0.8251(4) 0.0882(3)
C9 C 0.2020(5) 1.0158(3) 0.0643(3)
C10 C 0.2213(5) 1.1304(3) 0.0197(3)
H5 H 0.3071 1.1554 -0.0195
C11 C 0.1101(5) 1.2078(4) 0.0344(3)
C12 C -0.0165(5) 1.1686(4) 0.0941(3)
H6 H -0.0907 1.2207 0.1044
C13 C -0.0326(5) 1.0536(4) 0.1379(3)
H7 H -0.1178 1.0287 0.1780
C14 C 0.0770(4) 0.9723(4) 0.1237(3)
C15 C 0.0697(5) 0.8525(3) 0.1632(3)
H8 H -0.0142 0.8231 0.2026
C16 C 0.2309(6) 1.3686(4) -0.0793(4)
H9 H 0.2235 1.3424 -0.1346
H10 H 0.3292 1.3423 -0.0513
C17 C 0.2132(6) 1.4962(4) -0.1148(4)
H11 H 0.1204 1.5222 -0.1486
H12 H 0.2959 1.5270 -0.1596
H13 H 0.2120 1.5215 -0.0591
C18 C 0.1200(6) 0.2890(4) 0.3010(4)
H14 H 0.1780 0.2533 0.3592
H15 H 0.1531 0.2561 0.2515
H16 H 0.0154 0.2770 0.3179
O4 O 0.8878(4) 0.7363(3) 0.4319(2)
O5 O 0.8117(3) 0.5677(2) 0.4514(2)
O6 O 0.6741(3) 0.1926(2) 0.5028(2)
C19 C 0.5817(5) 0.9159(4) 0.2186(3)
H17 H 0.5643 0.8724 0.1803
C20 C 0.5537(5) 1.0342(4) 0.1802(3)
H18 H 0.5168 1.0681 0.1167
C21 C 0.5793(5) 1.1024(4) 0.2341(4)
C22 C 0.6333(5) 1.0487(4) 0.3276(4)
H19 H 0.6512 1.0927 0.3654
C23 C 0.6619(5) 0.9308(4) 0.3675(3)
H20 H 0.6992 0.8974 0.4309
C24 C 0.6354(4) 0.8621(3) 0.3134(3)
C25 C 0.6617(5) 0.7367(3) 0.3539(3)
C26 C 0.7911(5) 0.6852(4) 0.4137(3)
C27 C 0.7152(5) 0.4974(4) 0.4340(3)
C28 C 0.7487(4) 0.3813(3) 0.4787(3)
H21 H 0.8317 0.3532 0.5183
C29 C 0.6554(5) 0.3088(3) 0.4626(3)
C30 C 0.5292(5) 0.3521(4) 0.4044(3)
H22 H 0.4652 0.3025 0.3949
C31 C 0.5006(5) 0.4680(4) 0.3616(3)
H23 H 0.4170 0.4963 0.3225
C32 C 0.5936(5) 0.5447(3) 0.3752(3)
C33 C 0.5700(5) 0.6660(3) 0.3363(3)
H24 H 0.4877 0.6983 0.2969
C34 C 0.7922(6) 0.1426(4) 0.5709(4)
H25 H 0.7760 0.1674 0.6277
H26 H 0.8883 0.1678 0.5388
C35 C 0.7948(7) 0.0174(4) 0.6042(5)
H27 H 0.8154 -0.0070 0.5482
H28 H 0.6987 -0.0071 0.6345
H29 H 0.8718 -0.0156 0.6516
C36 C 0.5517(6) 1.2306(4) 0.1897(4)
H30 H 0.4512 1.2526 0.2075
H31 H 0.5638 1.2545 0.1187
H32 H 0.6227 1.2662 0.2147
loop_
_geom_bond_atom_site_label_1
_geom_bond_atom_site_label_2
_geom_bond_site_symmetry_1
_geom_bond_site_symmetry_2
O1 C8 1_555 1_555
O2 C8 1_555 1_555
O3 C11 1_555 1_555
C1 H1 1_555 1_555
C2 C1 1_555 1_555
H2 C2 1_555 1_555
C3 C2 1_555 1_555
C4 C3 1_555 1_555
H3 C4 1_555 1_555
C5 C4 1_555 1_555
H4 C5 1_555 1_555
C6 C1 1_555 1_555
C7 C6 1_555 1_555
C8 C7 1_555 1_555
C9 O2 1_555 1_555
C10 C9 1_555 1_555
H5 C10 1_555 1_555
C11 C10 1_555 1_555
C12 C11 1_555 1_555
H6 C12 1_555 1_555
C13 C12 1_555 1_555
H7 C13 1_555 1_555
C14 C9 1_555 1_555
C15 C7 1_555 1_555
H8 C15 1_555 1_555
C16 O3 1_555 1_555
H9 C16 1_555 1_555
H10 C16 1_555 1_555
C17 C16 1_555 1_555
H11 C17 1_555 1_555
H12 C17 1_555 1_555
H13 C17 1_555 1_555
C18 C3 1_555 1_555
H14 C18 1_555 1_555
H15 C18 1_555 1_555
H16 C18 1_555 1_555
O4 C26 1_555 1_555
O5 C26 1_555 1_555
O6 C29 1_555 1_555
C19 H17 1_555 1_555
C20 C19 1_555 1_555
H18 C20 1_555 1_555
C21 C20 1_555 1_555
C22 C21 1_555 1_555
H19 C22 1_555 1_555
C23 C22 1_555 1_555
H20 C23 1_555 1_555
C24 C19 1_555 1_555
C25 C24 1_555 1_555
C26 C25 1_555 1_555
C27 O5 1_555 1_555
C28 C27 1_555 1_555
H21 C28 1_555 1_555
C29 C28 1_555 1_555
C30 C29 1_555 1_555
H22 C30 1_555 1_555
C31 C30 1_555 1_555
H23 C31 1_555 1_555
C32 C27 1_555 1_555
C33 C25 1_555 1_555
H24 C33 1_555 1_555
C34 O6 1_555 1_555
H25 C34 1_555 1_555
H26 C34 1_555 1_555
C35 C34 1_555 1_555
H27 C35 1_555 1_555
H28 C35 1_555 1_555
H29 C35 1_555 1_555
C36 C21 1_555 1_555
H30 C36 1_555 1_555
H31 C36 1_555 1_555
H32 C36 1_555 1_555
C5 C6 1_555 1_555
C13 C14 1_555 1_555
C14 C15 1_555 1_555
C23 C24 1_555 1_555
C31 C32 1_555 1_555
C32 C33 1_555 1_555

#END
