
#######################################################################
#
#                 Cambridge Crystallographic Data Centre
#                                CCDC 
#
#######################################################################
#
# If this CIF has been generated from an entry in the Cambridge 
# Structural Database, then it will include bibliographic, chemical, 
# crystal, experimental, refinement or atomic coordinate data resulting 
# from the CCDC's data processing and validation procedures.
#
#######################################################################

data_DEGNEJ
_chemical_formula_moiety         'C15 H10 Cl2 N4 O5 S1'
_chemical_name_systematic        
2-(2,4-Dichlorophenyl)-5-methyl-4-(2-nitrophenylsulfonyl)-2H-1,2,4-triazol-3(4H)-one
_symmetry_cell_setting           monoclinic
_symmetry_space_group_name_H-M   'P 21/c'
_symmetry_Int_Tables_number      14
_space_group_name_Hall           '-P 2ybc'
loop_
_symmetry_equiv_pos_site_id
_symmetry_equiv_pos_as_xyz
1 x,y,z
2 -x,1/2+y,1/2-z
3 -x,-y,-z
4 x,1/2-y,1/2+z
_cell_length_a                   8.192(2)
_cell_length_b                   12.648(3)
_cell_length_c                   16.975(4)
_cell_angle_alpha                90
_cell_angle_beta                 93.155(4)
_cell_angle_gamma                90
_cell_volume                     1756.15
_exptl_crystal_colour            colorless
_exptl_crystal_description       prism
_chemical_melting_point          '430-431 K'
_cell_formula_units_Z            4
_exptl_crystal_recrystallization_method 'dichloromethane/petroleum ether'
loop_
_atom_site_label
_atom_site_type_symbol
_atom_site_fract_x
_atom_site_fract_y
_atom_site_fract_z
S1 S 0.22952(7) 0.52420(4) 0.34821(3)
Cl1 Cl 0.07290(8) 0.69737(5) 0.05810(4)
Cl2 Cl 0.36623(12) 0.57862(6) -0.20042(4)
O1 O 0.3224(2) 0.62940(13) 0.19429(9)
O2 O 0.1673(2) 0.44306(13) 0.39586(9)
O3 O 0.1656(2) 0.62811(13) 0.35209(10)
O4 O 0.4117(2) 0.30611(14) 0.33875(12)
O5 O 0.5090(3) 0.29454(17) 0.45946(13)
N1 N 0.1977(2) 0.48863(14) 0.12645(10)
N2 N 0.1259(2) 0.39336(14) 0.14695(11)
N3 N 0.1979(2) 0.48491(14) 0.25434(10)
N4 N 0.4813(3) 0.34252(16) 0.39789(13)
C1 C 0.1871(3) 0.60433(16) 0.01097(13)
C2 C 0.2298(3) 0.62617(18) -0.06515(13)
H1 H 0.2051 0.6913 -0.0884
C3 C 0.3095(3) 0.54931(19) -0.10558(13)
C4 C 0.3443(3) 0.45176(18) -0.07375(14)
H2 H 0.3925 0.3996 -0.1033
C5 C 0.3061(3) 0.43268(17) 0.00318(13)
H3 H 0.3319 0.3676 0.0261
C6 C 0.2303(3) 0.50883(17) 0.04647(12)
C7 C 0.2494(3) 0.54723(17) 0.19065(13)
C8 C 0.1257(3) 0.39263(17) 0.22277(13)
C9 C 0.0496(4) 0.3066(2) 0.26757(15)
H4 H 0.0097 0.2526 0.2317
H5 H -0.0396 0.3346 0.2954
H6 H 0.1296 0.2767 0.3046
C10 C 0.4440(3) 0.53342(17) 0.36412(12)
C11 C 0.5141(3) 0.63192(19) 0.35598(14)
H7 H 0.4510 0.6882 0.3364
C12 C 0.6786(4) 0.6468(2) 0.37695(17)
H8 H 0.7264 0.7126 0.3698
C13 C 0.7711(3) 0.5650(3) 0.40821(18)
H9 H 0.8804 0.5762 0.4237
C14 C 0.7034(3) 0.4665(2) 0.41684(16)
H10 H 0.7662 0.4112 0.4382
C15 C 0.5424(3) 0.45082(18) 0.39359(13)
loop_
_geom_bond_atom_site_label_1
_geom_bond_atom_site_label_2
_geom_bond_site_symmetry_1
_geom_bond_site_symmetry_2
S1 O2 1_555 1_555
Cl1 C1 1_555 1_555
Cl2 C3 1_555 1_555
O1 C7 1_555 1_555
O3 S1 1_555 1_555
O4 N4 1_555 1_555
O5 N4 1_555 1_555
N1 N2 1_555 1_555
N2 C8 1_555 1_555
N3 S1 1_555 1_555
N4 C15 1_555 1_555
C1 C2 1_555 1_555
C2 H1 1_555 1_555
C3 C2 1_555 1_555
C4 C3 1_555 1_555
H2 C4 1_555 1_555
C5 C4 1_555 1_555
H3 C5 1_555 1_555
C6 N1 1_555 1_555
C7 N1 1_555 1_555
C8 N3 1_555 1_555
C9 C8 1_555 1_555
H4 C9 1_555 1_555
H5 C9 1_555 1_555
H6 C9 1_555 1_555
C10 S1 1_555 1_555
C11 C10 1_555 1_555
H7 C11 1_555 1_555
C12 C11 1_555 1_555
H8 C12 1_555 1_555
C13 C12 1_555 1_555
H9 C13 1_555 1_555
C14 C13 1_555 1_555
H10 C14 1_555 1_555
C15 C10 1_555 1_555
N3 C7 1_555 1_555
C1 C6 1_555 1_555
C5 C6 1_555 1_555
C14 C15 1_555 1_555

#END
