
#######################################################################
#
#                 Cambridge Crystallographic Data Centre
#                                CCDC 
#
#######################################################################
#
# If this CIF has been generated from an entry in the Cambridge 
# Structural Database, then it will include bibliographic, chemical, 
# crystal, experimental, refinement or atomic coordinate data resulting 
# from the CCDC's data processing and validation procedures.
#
#######################################################################

data_DEGRIQ
_chemical_formula_moiety         '0.5(C4 H8 O2),C18 H21 N2 1+,I1 1-'
_chemical_name_systematic        
'Dioxane 1,5,13-trimethyl-1-azonia-9-azatetracyclo(7.7.1.0^2,7^.0^10,15^)heptadeca-2,4,6,10,12,14-hexaene iodide clathrate'
_symmetry_cell_setting           triclinic
_symmetry_space_group_name_H-M   'P -1'
_symmetry_Int_Tables_number      2
_space_group_name_Hall           '-P 1'
loop_
_symmetry_equiv_pos_site_id
_symmetry_equiv_pos_as_xyz
1 x,y,z
2 -x,-y,-z
_cell_length_a                   8.437(2)
_cell_length_b                   9.485(2)
_cell_length_c                   13.277(3)
_cell_angle_alpha                94.62(2)
_cell_angle_beta                 99.08(2)
_cell_angle_gamma                105.15(2)
_cell_volume                     1004.41
_exptl_crystal_colour            'light yellow'
_cell_formula_units_Z            2
loop_
_atom_site_label
_atom_site_type_symbol
_atom_site_fract_x
_atom_site_fract_y
_atom_site_fract_z
C1 C 0.7583(6) 0.0274(5) 0.8684(4)
C2 C 0.9232(6) 0.0542(5) 0.8576(4)
C3 C 1.0046(6) 0.1939(6) 0.8403(4)
C4 C 0.9263(6) 0.3043(6) 0.8347(4)
C5 C 0.7629(6) 0.2746(5) 0.8469(4)
C6 C 0.6383(7) 0.4236(6) 0.7304(4)
C7 C 0.5063(6) 0.2962(6) 0.6672(4)
C8 C 0.4908(8) 0.2773(8) 0.5607(5)
C9 C 0.3752(10) 0.1613(10) 0.4999(5)
C10 C 0.2729(9) 0.0600(9) 0.5462(6)
C11 C 0.2843(7) 0.0754(7) 0.6535(5)
C12 C 0.4016(6) 0.1936(6) 0.7135(4)
C13 C 0.4905(6) 0.0968(5) 0.8686(4)
C14 C 0.6743(6) 0.1353(5) 0.8625(4)
C15 C 0.5065(6) 0.3482(5) 0.8737(4)
C16 C 1.0084(7) -0.0663(6) 0.8631(5)
C17 C 0.3616(11) 0.1397(11) 0.3839(5)
C18 C 0.7796(7) 0.5339(5) 0.9065(5)
N1 N 0.6772(5) 0.3948(4) 0.8392(3)
N2 N 0.4151(5) 0.2051(4) 0.8233(3)
H1 H 0.6995 -0.0692 0.8802
H2 H 1.1190 0.2147 0.8318
H3 H 0.9853 0.4007 0.8224
H4 H 0.5994 0.5101 0.7292
H5 H 0.7380 0.4393 0.7016
H6 H 0.5639 0.3483 0.5290
H7 H 0.1920 -0.0230 0.5046
H8 H 0.2108 0.0041 0.6848
H9 H 0.4785 0.0968 0.9393
H10 H 0.4350 0.0008 0.8316
H11 H 0.4445 0.4172 0.8560
H12 H 0.5241 0.3468 0.9468
H13 H 1.1218 -0.0288 0.8541
H14 H 0.9504 -0.1458 0.8097
H15 H 1.0074 -0.1014 0.9289
H16 H 0.4419 0.2193 0.3638
H17 H 0.2512 0.1380 0.3511
H18 H 0.3833 0.0482 0.3635
H19 H 0.8865 0.5661 0.8866
H20 H 0.7949 0.5156 0.9770
H21 H 0.7227 0.6089 0.8990
I1 I 0.6903(1) 0.3340(1) 0.1678(1)
C19 C 0.0090(17) 0.3950(11) 0.5612(7)
C20 C 0.0207(14) 0.3752(11) 0.4553(8)
O1 O -0.0931(7) 0.4902(7) 0.5760(4)
H22 H 0.1187 0.4377 0.6017
H23 H -0.0395 0.3013 0.5822
H24 H 0.0881 0.3096 0.4456
H25 H -0.0892 0.3337 0.4148
O1A O 0.0931(7) 0.5098(7) 0.4240(4)
C20A C -0.0207(14) 0.6248(11) 0.5447(8)
C19A C -0.0090(17) 0.6050(11) 0.4388(7)
H24A H -0.0881 0.6904 0.5544
H25A H 0.0892 0.6663 0.5852
H22A H -0.1187 0.5623 0.3983
H23A H 0.0395 0.6987 0.4178
loop_
_geom_bond_atom_site_label_1
_geom_bond_atom_site_label_2
_geom_bond_site_symmetry_1
_geom_bond_site_symmetry_2
C1 C2 1_555 1_555
C2 C3 1_555 1_555
C3 C4 1_555 1_555
C4 C5 1_555 1_555
C5 C14 1_555 1_555
C6 C7 1_555 1_555
C7 C8 1_555 1_555
C8 C9 1_555 1_555
C9 C10 1_555 1_555
C10 C11 1_555 1_555
C11 C12 1_555 1_555
C12 C7 1_555 1_555
C13 C14 1_555 1_555
C14 C1 1_555 1_555
C15 N1 1_555 1_555
C16 C2 1_555 1_555
C17 C9 1_555 1_555
C18 N1 1_555 1_555
N1 C5 1_555 1_555
N2 C12 1_555 1_555
H1 C1 1_555 1_555
H2 C3 1_555 1_555
H3 C4 1_555 1_555
H4 C6 1_555 1_555
H5 C6 1_555 1_555
H6 C8 1_555 1_555
H7 C10 1_555 1_555
H8 C11 1_555 1_555
H9 C13 1_555 1_555
H10 C13 1_555 1_555
H11 C15 1_555 1_555
H12 C15 1_555 1_555
H13 C16 1_555 1_555
H14 C16 1_555 1_555
H15 C16 1_555 1_555
H16 C17 1_555 1_555
H17 C17 1_555 1_555
H18 C17 1_555 1_555
H19 C18 1_555 1_555
H20 C18 1_555 1_555
H21 C18 1_555 1_555
C19 C20 1_555 1_555
C20 H24 1_555 1_555
O1 C19 1_555 1_555
H22 C19 1_555 1_555
H23 C19 1_555 1_555
H25 C20 1_555 1_555
O1A C20 1_555 1_555
C20A O1 1_555 1_555
C19A O1A 1_555 1_555
H24A C20A 1_555 1_555
H25A C20A 1_555 1_555
H22A C19A 1_555 1_555
H23A C19A 1_555 1_555
C6 N1 1_555 1_555
C13 N2 1_555 1_555
C15 N2 1_555 1_555
C20A C19A 1_555 1_555

#END
