
#######################################################################
#
#                 Cambridge Crystallographic Data Centre
#                                CCDC 
#
#######################################################################
#
# If this CIF has been generated from an entry in the Cambridge 
# Structural Database, then it will include bibliographic, chemical, 
# crystal, experimental, refinement or atomic coordinate data resulting 
# from the CCDC's data processing and validation procedures.
#
#######################################################################

data_DEGXUK
_chemical_formula_moiety         'C21 H34 Cl2 N1 O1 1+,Cl1 1-'
_chemical_name_systematic        
'cis-2-((4-t-Butyl-1-(2,4-dichlorobenzyl)cyclohexyl)oxy)-N,N-dimethylethanaminium chloride'
_symmetry_cell_setting           monoclinic
_symmetry_space_group_name_H-M   'P 21/n'
_symmetry_Int_Tables_number      14
_space_group_name_Hall           '-P 2yn'
loop_
_symmetry_equiv_pos_site_id
_symmetry_equiv_pos_as_xyz
1 x,y,z
2 1/2-x,1/2+y,1/2-z
3 -x,-y,-z
4 1/2+x,1/2-y,1/2+z
_cell_length_a                   18.308(9)
_cell_length_b                   10.588(5)
_cell_length_c                   23.636(11)
_cell_angle_alpha                90
_cell_angle_beta                 94.192(6)
_cell_angle_gamma                90
_cell_volume                     4569.47
_exptl_crystal_colour            colorless
_exptl_crystal_description       plate
_cell_formula_units_Z            8
loop_
_atom_site_label
_atom_site_type_symbol
_atom_site_fract_x
_atom_site_fract_y
_atom_site_fract_z
Cl1 Cl 0.26090(5) 0.33114(8) 0.11816(3)
Cl4 Cl 0.32990(5) 0.61651(9) 0.30118(4)
O2 O 0.55911(11) 0.37513(19) 0.28531(9)
N2 N 0.69843(14) 0.2601(3) 0.19563(11)
C4 C 0.30596(18) 0.4720(3) 0.20910(13)
H3 H 0.2558 0.4767 0.2168
C6 C 0.57373(16) 0.3939(3) 0.43501(13)
H5 H 0.5498 0.4657 0.4540
C11 C 0.62601(17) 0.2756(3) 0.21925(14)
H12 H 0.6161 0.2010 0.2427
H13 H 0.5875 0.2796 0.1876
C12 C 0.39918(18) 0.4008(3) 0.15046(13)
H14 H 0.4128 0.3581 0.1175
C13 C 0.43360(17) 0.5229(3) 0.23546(13)
C15 C 0.49420(17) 0.5781(3) 0.27476(13)
H17 H 0.4738 0.6473 0.2969
H18 H 0.5318 0.6149 0.2517
C16 C 0.47724(16) 0.4194(3) 0.35331(13)
H19 H 0.4402 0.3726 0.3289
H20 H 0.4514 0.4862 0.3733
C19 C 0.59187(17) 0.5442(3) 0.35362(13)
H26 H 0.5711 0.6160 0.3740
H27 H 0.6291 0.5783 0.3294
C24 C 0.35967(18) 0.5302(3) 0.24443(13)
C25 C 0.45131(17) 0.4574(3) 0.18707(13)
H35 H 0.5013 0.4516 0.1791
C26 C 0.51354(17) 0.3289(3) 0.39695(14)
H36 H 0.5351 0.2572 0.3770
H37 H 0.4760 0.2946 0.4208
C27 C 0.53110(16) 0.4808(3) 0.31620(13)
C29 C 0.62862(17) 0.4525(3) 0.39681(13)
H39 H 0.6668 0.4980 0.4206
H40 H 0.6529 0.3844 0.3764
C30 C 0.32729(17) 0.4075(3) 0.16260(13)
C33 C 0.62213(18) 0.3944(3) 0.25533(14)
H44 H 0.6664 0.4031 0.2817
H45 H 0.6169 0.4708 0.2312
C34 C 0.5504(2) 0.2423(4) 0.51495(17)
H46 H 0.5733 0.2013 0.5489
H47 H 0.5258 0.1786 0.4902
H48 H 0.5144 0.3044 0.5260
C35 C 0.6996(2) 0.1378(4) 0.16320(16)
H49 H 0.6911 0.0673 0.1887
H50 H 0.7475 0.1275 0.1477
H51 H 0.6612 0.1391 0.1321
C36 C 0.6533(2) 0.3922(4) 0.52605(16)
H52 H 0.6706 0.3413 0.5590
H53 H 0.6222 0.4609 0.5383
H54 H 0.6954 0.4278 0.5083
C39 C 0.7169(2) 0.3671(4) 0.15866(16)
H58 H 0.7197 0.4453 0.1809
H59 H 0.6790 0.3756 0.1274
H60 H 0.7643 0.3511 0.1432
C41 C 0.6589(2) 0.2091(4) 0.46017(19)
H64 H 0.6749 0.1503 0.4906
H65 H 0.7017 0.2500 0.4457
H66 H 0.6320 0.1626 0.4294
C42 C 0.60914(18) 0.3089(3) 0.48318(15)
Cl2 Cl 0.53976(4) 0.28075(7) 0.05997(3)
Cl3 Cl 0.35857(4) 0.16465(8) 0.26814(3)
Cl5 Cl 0.56620(6) -0.08947(9) 0.39180(4)
O1 O 0.46065(10) -0.12444(17) 0.11353(8)
N1 N 0.55986(13) -0.2903(2) 0.04894(10)
C1 C 0.40237(15) -0.0402(3) 0.12811(12)
C2 C 0.46795(16) 0.0387(3) 0.22028(12)
C3 C 0.31531(16) -0.2276(3) 0.12892(12)
H1 H 0.2811 -0.2709 0.1531
H2 H 0.3524 -0.2900 0.1187
C5 C 0.27246(16) -0.1813(3) 0.07439(12)
H4 H 0.2338 -0.1225 0.0865
C7 C 0.23214(16) -0.2892(3) 0.04022(12)
C8 C 0.43395(17) 0.0734(3) 0.16219(12)
H6 H 0.4715 0.1148 0.1405
H7 H 0.3943 0.1354 0.1666
C9 C 0.35781(16) 0.0060(3) 0.07474(12)
H8 H 0.3185 0.0630 0.0860
H9 H 0.3901 0.0551 0.0511
C10 C 0.57416(17) -0.1596(3) 0.07188(13)
H10 H 0.5965 -0.1660 0.1112
H11 H 0.6098 -0.1170 0.0488
C14 C 0.32358(16) -0.1027(3) 0.03968(12)
H15 H 0.3628 -0.1575 0.0267
H16 H 0.2955 -0.0684 0.0057
C17 C 0.28530(17) -0.3877(3) 0.01979(13)
H21 H 0.2578 -0.4535 -0.0017
H22 H 0.3129 -0.4256 0.0526
H23 H 0.3193 -0.3469 -0.0047
C18 C 0.35348(16) -0.1214(3) 0.16276(12)
H24 H 0.3836 -0.1583 0.1951
H25 H 0.3159 -0.0668 0.1784
C20 C 0.56214(18) -0.0736(3) 0.27788(14)
H28 H 0.6054 -0.1234 0.2806
C21 C 0.50617(16) -0.0803(3) 0.07180(12)
H29 H 0.5198 0.0088 0.0797
H30 H 0.4792 -0.0842 0.0340
C22 C 0.17783(17) -0.3541(3) 0.07717(14)
H31 H 0.1479 -0.4143 0.0541
H32 H 0.1460 -0.2904 0.0927
H33 H 0.2048 -0.3990 0.1084
C23 C 0.53141(17) -0.0340(3) 0.22598(13)
H34 H 0.5544 -0.0573 0.1928
C28 C 0.46650(17) 0.0336(3) 0.32293(13)
H38 H 0.4441 0.0568 0.3564
C31 C 0.52863(18) -0.0389(3) 0.32571(14)
C32 C 0.18795(19) -0.2350(3) -0.01165(14)
H41 H 0.1593 -0.3025 -0.0310
H42 H 0.2215 -0.1984 -0.0377
H43 H 0.1548 -0.1692 0.0005
C37 C 0.52546(19) -0.3729(3) 0.09053(14)
H55 H 0.4775 -0.3385 0.0983
H56 H 0.5570 -0.3764 0.1259
H57 H 0.5193 -0.4582 0.0748
C38 C 0.43722(16) 0.0720(3) 0.27018(13)
C40 C 0.62936(19) -0.3495(3) 0.03273(16)
H61 H 0.6502 -0.2984 0.0033
H62 H 0.6192 -0.4348 0.0181
H63 H 0.6643 -0.3542 0.0661
Cl6 Cl 0.69066(5) 0.72420(10) 0.20507(4)
loop_
_geom_bond_atom_site_label_1
_geom_bond_atom_site_label_2
_geom_bond_site_symmetry_1
_geom_bond_site_symmetry_2
Cl1 C30 1_555 1_555
Cl3 C38 1_555 1_555
Cl4 C24 1_555 1_555
Cl5 C31 1_555 1_555
O1 C1 1_555 1_555
O2 C27 1_555 1_555
N1 C10 1_555 1_555
N2 C11 1_555 1_555
C1 C8 1_555 1_555
C2 C8 1_555 1_555
C3 H1 1_555 1_555
H2 C3 1_555 1_555
C4 H3 1_555 1_555
C5 C3 1_555 1_555
H4 C5 1_555 1_555
C6 H5 1_555 1_555
C7 C5 1_555 1_555
C8 H6 1_555 1_555
H7 C8 1_555 1_555
C9 C1 1_555 1_555
H8 C9 1_555 1_555
H9 C9 1_555 1_555
C10 H10 1_555 1_555
H11 C10 1_555 1_555
C11 H12 1_555 1_555
H13 C11 1_555 1_555
C12 H14 1_555 1_555
C13 C15 1_555 1_555
C14 C5 1_555 1_555
H15 C14 1_555 1_555
H16 C14 1_555 1_555
C15 H17 1_555 1_555
H18 C15 1_555 1_555
C16 H19 1_555 1_555
H20 C16 1_555 1_555
C17 C7 1_555 1_555
H21 C17 1_555 1_555
H22 C17 1_555 1_555
H23 C17 1_555 1_555
C18 C1 1_555 1_555
H24 C18 1_555 1_555
H25 C18 1_555 1_555
C19 H26 1_555 1_555
H27 C19 1_555 1_555
C20 H28 1_555 1_555
C21 O1 1_555 1_555
H29 C21 1_555 1_555
H30 C21 1_555 1_555
C22 C7 1_555 1_555
H31 C22 1_555 1_555
H32 C22 1_555 1_555
H33 C22 1_555 1_555
C23 C2 1_555 1_555
H34 C23 1_555 1_555
C24 C4 1_555 1_555
C25 C12 1_555 1_555
H35 C25 1_555 1_555
C26 C6 1_555 1_555
H36 C26 1_555 1_555
H37 C26 1_555 1_555
C27 C15 1_555 1_555
C28 H38 1_555 1_555
C29 C6 1_555 1_555
H39 C29 1_555 1_555
H40 C29 1_555 1_555
C30 C4 1_555 1_555
C31 C20 1_555 1_555
C32 C7 1_555 1_555
H41 C32 1_555 1_555
H42 C32 1_555 1_555
H43 C32 1_555 1_555
C33 O2 1_555 1_555
H44 C33 1_555 1_555
H45 C33 1_555 1_555
C34 H46 1_555 1_555
H47 C34 1_555 1_555
H48 C34 1_555 1_555
C35 N2 1_555 1_555
H49 C35 1_555 1_555
H50 C35 1_555 1_555
H51 C35 1_555 1_555
C36 H52 1_555 1_555
H53 C36 1_555 1_555
H54 C36 1_555 1_555
C37 N1 1_555 1_555
H55 C37 1_555 1_555
H56 C37 1_555 1_555
H57 C37 1_555 1_555
C38 C2 1_555 1_555
C39 N2 1_555 1_555
H58 C39 1_555 1_555
H59 C39 1_555 1_555
H60 C39 1_555 1_555
C40 N1 1_555 1_555
H61 C40 1_555 1_555
H62 C40 1_555 1_555
H63 C40 1_555 1_555
C41 H64 1_555 1_555
H65 C41 1_555 1_555
H66 C41 1_555 1_555
C42 C6 1_555 1_555
C3 C18 1_555 1_555
C9 C14 1_555 1_555
C10 C21 1_555 1_555
C11 C33 1_555 1_555
C12 C30 1_555 1_555
C13 C24 1_555 1_555
C13 C25 1_555 1_555
C16 C26 1_555 1_555
C16 C27 1_555 1_555
C19 C27 1_555 1_555
C19 C29 1_555 1_555
C20 C23 1_555 1_555
C28 C31 1_555 1_555
C28 C38 1_555 1_555
C34 C42 1_555 1_555
C36 C42 1_555 1_555
C41 C42 1_555 1_555

#END
