
#######################################################################
#
#                 Cambridge Crystallographic Data Centre
#                                CCDC 
#
#######################################################################
#
# If this CIF has been generated from an entry in the Cambridge 
# Structural Database, then it will include bibliographic, chemical, 
# crystal, experimental, refinement or atomic coordinate data resulting 
# from the CCDC's data processing and validation procedures.
#
#######################################################################

data_DEGXUL
_chemical_formula_moiety         'C10 H22 B10'
_chemical_name_systematic        
1,2-(2-(propan-2-ylidene)cyclopentane-1,3-diyl)-1,2-dicarba-closo-dodecaborane(10)
_symmetry_cell_setting           orthorhombic
_symmetry_space_group_name_H-M   'P b c a'
_symmetry_Int_Tables_number      61
_space_group_name_Hall           '-P 2ac 2ab'
loop_
_symmetry_equiv_pos_site_id
_symmetry_equiv_pos_as_xyz
1 x,y,z
2 1/2-x,-y,1/2+z
3 -x,1/2+y,1/2-z
4 1/2+x,1/2-y,-z
5 -x,-y,-z
6 1/2+x,y,1/2-z
7 x,1/2-y,1/2+z
8 1/2-x,1/2+y,z
_cell_length_a                   13.5459(4)
_cell_length_b                   13.5926(4)
_cell_length_c                   16.3839(5)
_cell_angle_alpha                90
_cell_angle_beta                 90
_cell_angle_gamma                90
_cell_volume                     3016.67
_exptl_crystal_colour            colorless
_exptl_crystal_description       block
_cell_formula_units_Z            8
loop_
_atom_site_label
_atom_site_type_symbol
_atom_site_fract_x
_atom_site_fract_y
_atom_site_fract_z
C1 C 0.93832(14) 0.09810(15) 0.72064(13)
C2 C 0.91054(16) 0.20668(14) 0.68854(13)
C3 C 0.93857(17) 0.03657(16) 0.63885(13)
H1 H 0.9325 -0.0349 0.6451
C4 C 1.02287(18) 0.07192(19) 0.58531(14)
C5 C 1.00125(19) 0.16147(19) 0.55894(14)
H2 H 0.9991 0.1623 0.4998
H3 H 1.0512 0.2078 0.5769
C6 C 0.90077(17) 0.19017(16) 0.59368(13)
H4 H 0.8648 0.2412 0.5636
C7 C 0.85591(17) 0.08709(16) 0.59089(12)
C8 C 0.77781(17) 0.05180(18) 0.55242(13)
C9 C 0.7499(2) -0.0558(2) 0.55779(17)
H5 H 0.7980 -0.0903 0.5899
H6 H 0.7476 -0.0835 0.5039
H7 H 0.6862 -0.0619 0.5830
C10 C 0.7090(2) 0.1154(2) 0.50430(16)
H8 H 0.7326 0.1820 0.5048
H9 H 0.6444 0.1129 0.5282
H10 H 0.7060 0.0921 0.4490
B1 B 0.81890(17) 0.14164(19) 0.74166(14)
H11 H 0.7500 0.1130 0.7153
B2 B 0.88617(19) 0.0736(2) 0.81393(15)
H12 H 0.8620 0.0000 0.8334
B3 B 1.01358(19) 0.1020(2) 0.80499(16)
H13 H 1.0706 0.0467 0.8186
B4 B 1.02948(18) 0.18880(19) 0.72698(16)
H14 H 1.0980 0.1911 0.6910
B5 B 0.8358(2) 0.2684(2) 0.75692(16)
H15 H 0.7790 0.3221 0.7391
B6 B 0.8220(2) 0.1846(2) 0.84090(16)
H16 H 0.7559 0.1844 0.8799
B7 B 0.9407(2) 0.1599(2) 0.88182(16)
H17 H 0.9512 0.1430 0.9469
B8 B 1.0274(2) 0.2306(2) 0.82674(17)
H18 H 1.0936 0.2603 0.8567
B9 B 0.9631(2) 0.29641(19) 0.74781(18)
H19 H 0.9874 0.3682 0.7241
B10 B 0.9091(2) 0.2811(2) 0.84631(18)
H20 H 0.8991 0.3436 0.8882
loop_
_geom_bond_atom_site_label_1
_geom_bond_atom_site_label_2
_geom_bond_site_symmetry_1
_geom_bond_site_symmetry_2
C1 C2 1_555 1_555
C2 C6 1_555 1_555
C3 C1 1_555 1_555
H1 C3 1_555 1_555
C4 C3 1_555 1_555
C5 C4 1_555 1_555
H2 C5 1_555 1_555
H3 C5 1_555 1_555
C6 C5 1_555 1_555
H4 C6 1_555 1_555
C7 C3 1_555 1_555
C8 C7 1_555 1_555
C9 C8 1_555 1_555
H5 C9 1_555 1_555
H6 C9 1_555 1_555
H7 C9 1_555 1_555
C10 C8 1_555 1_555
H8 C10 1_555 1_555
H9 C10 1_555 1_555
H10 C10 1_555 1_555
B1 C1 1_555 1_555
H11 B1 1_555 1_555
B2 C1 1_555 1_555
H12 B2 1_555 1_555
B3 C1 1_555 1_555
H13 B3 1_555 1_555
B4 C1 1_555 1_555
H14 B4 1_555 1_555
B5 C2 1_555 1_555
H15 B5 1_555 1_555
B6 B1 1_555 1_555
H16 B6 1_555 1_555
B7 B2 1_555 1_555
H17 B7 1_555 1_555
B8 B3 1_555 1_555
H18 B8 1_555 1_555
B9 C2 1_555 1_555
H19 B9 1_555 1_555
B10 B5 1_555 1_555
H20 B10 1_555 1_555
C2 B1 1_555 1_555
C2 B4 1_555 1_555
C6 C7 1_555 1_555
B1 B2 1_555 1_555
B1 B5 1_555 1_555
B2 B3 1_555 1_555
B2 B6 1_555 1_555
B3 B4 1_555 1_555
B3 B7 1_555 1_555
B4 B8 1_555 1_555
B4 B9 1_555 1_555
B5 B6 1_555 1_555
B5 B9 1_555 1_555
B6 B7 1_555 1_555
B6 B10 1_555 1_555
B7 B8 1_555 1_555
B7 B10 1_555 1_555
B8 B9 1_555 1_555
B8 B10 1_555 1_555
B9 B10 1_555 1_555

#END
