
#######################################################################
#
#                 Cambridge Crystallographic Data Centre
#                                CCDC 
#
#######################################################################
#
# If this CIF has been generated from an entry in the Cambridge 
# Structural Database, then it will include bibliographic, chemical, 
# crystal, experimental, refinement or atomic coordinate data resulting 
# from the CCDC's data processing and validation procedures.
#
#######################################################################

data_DEGYOG
_chemical_formula_moiety         'C14 H19 B10 Cl1'
_chemical_name_systematic        
1,2-(2-[(2-chlorophenyl)methylidene]cyclopent-4-ene-1,3-diyl)-1,2-dicarba-closo-dodecaborane(10)
_symmetry_cell_setting           monoclinic
_symmetry_space_group_name_H-M   'C 2/c'
_symmetry_Int_Tables_number      15
_space_group_name_Hall           '-C 2yn'
loop_
_symmetry_equiv_pos_site_id
_symmetry_equiv_pos_as_xyz
1 x,y,z
2 -x,y,1/2-z
3 1/2+x,1/2+y,z
4 1/2-x,1/2+y,1/2-z
5 -x,-y,-z
6 x,-y,1/2+z
7 1/2-x,1/2-y,-z
8 1/2+x,1/2-y,1/2+z
_cell_length_a                   18.7428(6)
_cell_length_b                   14.4650(5)
_cell_length_c                   13.5805(4)
_cell_angle_alpha                90
_cell_angle_beta                 101.814(2)
_cell_angle_gamma                90
_cell_volume                     3603.88
_exptl_crystal_colour            colorless
_exptl_crystal_description       block
_cell_formula_units_Z            8
loop_
_atom_site_label
_atom_site_type_symbol
_atom_site_fract_x
_atom_site_fract_y
_atom_site_fract_z
Cl1 Cl 0.48140(4) 0.13784(5) 0.55089(6)
C1 C 0.69436(11) 0.14273(14) 0.22783(15)
C2 C 0.73947(12) 0.06784(14) 0.30402(16)
C3 C 0.67832(12) 0.02649(15) 0.35618(19)
H1 H 0.6956 -0.0059 0.4200
C4 C 0.62271(14) -0.02429(18) 0.2788(2)
H2 H 0.6155 -0.0879 0.2758
C5 C 0.58602(14) 0.03725(18) 0.2160(2)
H3 H 0.5487 0.0241 0.1613
C6 C 0.61500(12) 0.13261(16) 0.24833(16)
H4 H 0.5818 0.1843 0.2263
C7 C 0.63135(12) 0.11210(15) 0.36094(17)
C8 C 0.60463(12) 0.14529(16) 0.43657(17)
H5 H 0.6159 0.1137 0.4974
C9 C 0.55848(12) 0.22810(15) 0.43254(16)
C10 C 0.57187(14) 0.30763(17) 0.38096(18)
H6 H 0.6096 0.3072 0.3459
C11 C 0.53091(15) 0.38673(18) 0.3804(2)
H7 H 0.5411 0.4386 0.3451
C12 C 0.47516(15) 0.38899(19) 0.4318(2)
H8 H 0.4472 0.4421 0.4313
C13 C 0.46087(14) 0.3117(2) 0.4843(2)
H9 H 0.4233 0.3128 0.5196
C14 C 0.50207(13) 0.23354(16) 0.48425(17)
B1 B 0.72778(16) 0.04556(19) 0.1750(2)
H10 H 0.6945 -0.0105 0.1344
B2 B 0.72931(16) 0.1554(2) 0.1212(2)
H11 H 0.6961 0.1712 0.0465
B3 B 0.74544(16) 0.23934(18) 0.2184(2)
H12 H 0.7223 0.3092 0.2055
B4 B 0.75416(14) 0.18449(17) 0.3351(2)
H13 H 0.7381 0.2194 0.3991
B5 B 0.81071(15) 0.02222(18) 0.2571(2)
H14 H 0.8307 -0.0490 0.2713
B6 B 0.80725(16) 0.0810(2) 0.1403(2)
H15 H 0.8265 0.0489 0.0770
B7 B 0.81864(16) 0.2006(2) 0.1659(2)
H16 H 0.8447 0.2464 0.1190
B8 B 0.83244(15) 0.21626(19) 0.2967(2)
H17 H 0.8679 0.2716 0.3348
B9 B 0.82647(14) 0.1058(2) 0.3540(2)
H18 H 0.8565 0.0878 0.4299
B10 B 0.86923(16) 0.1173(2) 0.2489(2)
H19 H 0.9283 0.1082 0.2563
loop_
_geom_bond_atom_site_label_1
_geom_bond_atom_site_label_2
_geom_bond_site_symmetry_1
_geom_bond_site_symmetry_2
Cl1 C14 1_555 1_555
C1 C2 1_555 1_555
C2 C3 1_555 1_555
C3 H1 1_555 1_555
C4 C3 1_555 1_555
H2 C4 1_555 1_555
C5 C4 1_555 1_555
H3 C5 1_555 1_555
C6 C1 1_555 1_555
H4 C6 1_555 1_555
C7 C3 1_555 1_555
C8 C7 1_555 1_555
H5 C8 1_555 1_555
C9 C8 1_555 1_555
C10 C9 1_555 1_555
H6 C10 1_555 1_555
C11 C10 1_555 1_555
H7 C11 1_555 1_555
C12 C11 1_555 1_555
H8 C12 1_555 1_555
C13 C12 1_555 1_555
H9 C13 1_555 1_555
C14 C9 1_555 1_555
B1 C1 1_555 1_555
H10 B1 1_555 1_555
B2 C1 1_555 1_555
H11 B2 1_555 1_555
B3 C1 1_555 1_555
H12 B3 1_555 1_555
B4 C1 1_555 1_555
H13 B4 1_555 1_555
B5 C2 1_555 1_555
H14 B5 1_555 1_555
B6 B1 1_555 1_555
H15 B6 1_555 1_555
B7 B2 1_555 1_555
H16 B7 1_555 1_555
B8 B3 1_555 1_555
H17 B8 1_555 1_555
B9 C2 1_555 1_555
H18 B9 1_555 1_555
B10 B5 1_555 1_555
H19 B10 1_555 1_555
C2 B1 1_555 1_555
C2 B4 1_555 1_555
C5 C6 1_555 1_555
C6 C7 1_555 1_555
C13 C14 1_555 1_555
B1 B2 1_555 1_555
B1 B5 1_555 1_555
B2 B3 1_555 1_555
B2 B6 1_555 1_555
B3 B4 1_555 1_555
B3 B7 1_555 1_555
B4 B8 1_555 1_555
B4 B9 1_555 1_555
B5 B6 1_555 1_555
B5 B9 1_555 1_555
B6 B7 1_555 1_555
B6 B10 1_555 1_555
B7 B8 1_555 1_555
B7 B10 1_555 1_555
B8 B9 1_555 1_555
B8 B10 1_555 1_555
B9 B10 1_555 1_555

#END
