
#######################################################################
#
#                 Cambridge Crystallographic Data Centre
#                                CCDC 
#
#######################################################################
#
# If this CIF has been generated from an entry in the Cambridge 
# Structural Database, then it will include bibliographic, chemical, 
# crystal, experimental, refinement or atomic coordinate data resulting 
# from the CCDC's data processing and validation procedures.
#
#######################################################################

data_DEGYUM
_chemical_formula_moiety         'C17 H25 B10 N1 O1'
_chemical_name_systematic        
1,2-(3-phenyl-5-(propan-2-ylidene)-4,5,6,6a-tetrahydro-3aH-cyclopenta[d][1,2]oxazole-4,6-diyl)-1,2-dicarba-closo-dodecaborane(10)
_symmetry_cell_setting           monoclinic
_symmetry_space_group_name_H-M   'C 2/c'
_symmetry_Int_Tables_number      15
_space_group_name_Hall           '-C 2yn'
loop_
_symmetry_equiv_pos_site_id
_symmetry_equiv_pos_as_xyz
1 x,y,z
2 -x,y,1/2-z
3 1/2+x,1/2+y,z
4 1/2-x,1/2+y,1/2-z
5 -x,-y,-z
6 x,-y,1/2+z
7 1/2-x,1/2-y,-z
8 1/2+x,1/2-y,1/2+z
_cell_length_a                   32.5603(10)
_cell_length_b                   7.1933(2)
_cell_length_c                   22.6560(8)
_cell_angle_alpha                90
_cell_angle_beta                 128.5482(19)
_cell_angle_gamma                90
_cell_volume                     4150.05
_exptl_crystal_colour            colorless
_exptl_crystal_description       block
_cell_formula_units_Z            8
loop_
_atom_site_label
_atom_site_type_symbol
_atom_site_fract_x
_atom_site_fract_y
_atom_site_fract_z
O1 O 0.07092(7) 0.0316(2) 0.24756(12)
N1 N 0.02247(8) 0.1229(3) 0.19568(14)
B1 B 0.20695(9) 0.4188(3) 0.26525(13)
H1 H 0.1922 0.3811 0.2080
B2 B 0.20826(9) 0.6506(3) 0.29006(13)
H2 H 0.1937 0.7635 0.2487
B3 B 0.19945(10) 0.6587(3) 0.35997(14)
H3 H 0.1792 0.7760 0.3631
B4 B 0.19355(9) 0.4311(3) 0.38160(13)
H4 H 0.1701 0.4015 0.4003
B5 B 0.25769(9) 0.2916(3) 0.34437(13)
H5 H 0.2754 0.1700 0.3385
B6 B 0.26718(9) 0.5252(3) 0.32777(14)
H6 H 0.2923 0.5579 0.3122
B7 B 0.26360(10) 0.6757(4) 0.38632(15)
H7 H 0.2860 0.8063 0.4081
B8 B 0.25407(10) 0.5374(4) 0.44158(14)
H8 H 0.2707 0.5779 0.4994
B9 B 0.24943(9) 0.2982(3) 0.41467(13)
H9 H 0.2618 0.1805 0.4535
B10 B 0.29446(10) 0.4528(3) 0.42043(14)
H10 H 0.3371 0.4378 0.4647
C1 C 0.16838(8) 0.4946(3) 0.29014(11)
C2 C 0.19611(8) 0.2925(3) 0.32072(11)
C3 C 0.11017(7) 0.4436(3) 0.22730(11)
H11 H 0.0893 0.5413 0.1896
C4 C 0.11386(8) 0.2628(3) 0.19589(12)
C5 C 0.08587(9) 0.2046(3) 0.12518(13)
C6 C 0.04891(11) 0.3298(4) 0.05950(14)
H12 H 0.0325 0.2619 0.0133
H13 H 0.0225 0.3749 0.0625
H14 H 0.0680 0.4330 0.0605
C7 C 0.08788(11) 0.0074(4) 0.10447(17)
H15 H 0.0647 -0.0053 0.0505
H16 H 0.1231 -0.0220 0.1242
H17 H 0.0771 -0.0761 0.1255
C8 C 0.14888(8) 0.1581(3) 0.27007(12)
H18 H 0.1584 0.0321 0.2661
C9 C 0.11240(9) 0.1674(3) 0.29184(14)
H19 H 0.1315 0.1528 0.3462
C10 C 0.08517(8) 0.3598(3) 0.26194(13)
H20 H 0.0897 0.4385 0.3010
C11 C 0.02918(9) 0.2992(3) 0.20207(14)
C12 C -0.01551(8) 0.4252(3) 0.15341(13)
C13 C -0.01054(9) 0.6146(3) 0.16750(14)
H21 H 0.0220 0.6638 0.2068
C14 C -0.05342(10) 0.7311(4) 0.12381(16)
H22 H -0.0497 0.8577 0.1343
C15 C -0.10165(10) 0.6599(4) 0.06476(17)
H23 H -0.1306 0.7381 0.0356
C16 C -0.10681(10) 0.4737(4) 0.04927(16)
H24 H -0.1393 0.4262 0.0091
C17 C -0.06464(9) 0.3563(4) 0.09222(15)
H25 H -0.0687 0.2303 0.0807
loop_
_geom_bond_atom_site_label_1
_geom_bond_atom_site_label_2
_geom_bond_site_symmetry_1
_geom_bond_site_symmetry_2
O1 N1 1_555 1_555
N1 C11 1_555 1_555
B1 H1 1_555 1_555
B2 B1 1_555 1_555
H2 B2 1_555 1_555
B3 B2 1_555 1_555
H3 B3 1_555 1_555
B4 B3 1_555 1_555
H4 B4 1_555 1_555
B5 B1 1_555 1_555
H5 B5 1_555 1_555
B6 B1 1_555 1_555
H6 B6 1_555 1_555
B7 B2 1_555 1_555
H7 B7 1_555 1_555
B8 B3 1_555 1_555
H8 B8 1_555 1_555
B9 B4 1_555 1_555
H9 B9 1_555 1_555
B10 B5 1_555 1_555
H10 B10 1_555 1_555
C1 B1 1_555 1_555
C2 B1 1_555 1_555
C3 C1 1_555 1_555
H11 C3 1_555 1_555
C4 C3 1_555 1_555
C5 C4 1_555 1_555
C6 C5 1_555 1_555
H12 C6 1_555 1_555
H13 C6 1_555 1_555
H14 C6 1_555 1_555
C7 C5 1_555 1_555
H15 C7 1_555 1_555
H16 C7 1_555 1_555
H17 C7 1_555 1_555
C8 C2 1_555 1_555
H18 C8 1_555 1_555
C9 O1 1_555 1_555
H19 C9 1_555 1_555
C10 C3 1_555 1_555
H20 C10 1_555 1_555
C11 C10 1_555 1_555
C12 C11 1_555 1_555
C13 C12 1_555 1_555
H21 C13 1_555 1_555
C14 C13 1_555 1_555
H22 C14 1_555 1_555
C15 C14 1_555 1_555
H23 C15 1_555 1_555
C16 C15 1_555 1_555
H24 C16 1_555 1_555
C17 C12 1_555 1_555
H25 C17 1_555 1_555
B2 B6 1_555 1_555
B2 C1 1_555 1_555
B3 B7 1_555 1_555
B3 C1 1_555 1_555
B4 B8 1_555 1_555
B4 C1 1_555 1_555
B4 C2 1_555 1_555
B5 B6 1_555 1_555
B5 B9 1_555 1_555
B5 C2 1_555 1_555
B6 B7 1_555 1_555
B6 B10 1_555 1_555
B7 B8 1_555 1_555
B7 B10 1_555 1_555
B8 B9 1_555 1_555
B8 B10 1_555 1_555
B9 B10 1_555 1_555
B9 C2 1_555 1_555
C1 C2 1_555 1_555
C4 C8 1_555 1_555
C8 C9 1_555 1_555
C9 C10 1_555 1_555
C16 C17 1_555 1_555

#END
