
#######################################################################
#
#                 Cambridge Crystallographic Data Centre
#                                CCDC 
#
#######################################################################
#
# If this CIF has been generated from an entry in the Cambridge 
# Structural Database, then it will include bibliographic, chemical, 
# crystal, experimental, refinement or atomic coordinate data resulting 
# from the CCDC's data processing and validation procedures.
#
#######################################################################

data_DEGYIA
_chemical_formula_moiety         'C15 H22 B10'
_chemical_name_systematic        
1,2-(2-[(4-methylphenyl)methylidene]cyclopent-4-ene-1,3-diyl)-1,2-dicarba-closo-dodecaborane(10)
_symmetry_cell_setting           monoclinic
_symmetry_space_group_name_H-M   'P 21/c'
_symmetry_Int_Tables_number      14
_space_group_name_Hall           '-P 2ybc'
loop_
_symmetry_equiv_pos_site_id
_symmetry_equiv_pos_as_xyz
1 x,y,z
2 -x,1/2+y,1/2-z
3 -x,-y,-z
4 x,1/2-y,1/2+z
_cell_length_a                   12.7398(6)
_cell_length_b                   10.9784(5)
_cell_length_c                   15.0838(7)
_cell_angle_alpha                90
_cell_angle_beta                 123.622(2)
_cell_angle_gamma                90
_cell_volume                     1756.73
_exptl_crystal_colour            colorless
_exptl_crystal_description       block
_cell_formula_units_Z            4
loop_
_atom_site_label
_atom_site_type_symbol
_atom_site_fract_x
_atom_site_fract_y
_atom_site_fract_z
C1 C 0.13046(17) 0.45744(15) 0.31136(15)
C2 C 0.20536(16) 0.58144(15) 0.32555(15)
C3 C 0.08759(19) 0.41727(18) 0.19568(16)
H1 H 0.0628 0.3317 0.1778
C4 C -0.0051(2) 0.5100(2) 0.11588(17)
H2 H -0.0910 0.4975 0.0672
C5 C 0.0569(2) 0.6115(2) 0.12748(17)
H3 H 0.0226 0.6825 0.0880
C6 C 0.19476(18) 0.59204(17) 0.21705(15)
H4 H 0.2558 0.6460 0.2168
C7 C 0.19925(18) 0.45780(16) 0.19123(15)
C8 C 0.26271(19) 0.39633(17) 0.16029(16)
H5 H 0.2400 0.3151 0.1427
C9 C 0.36434(19) 0.43985(17) 0.15010(15)
C10 C 0.4563(2) 0.35873(19) 0.16389(18)
H6 H 0.4497 0.2767 0.1755
C11 C 0.5571(2) 0.3981(2) 0.1607(2)
H7 H 0.6169 0.3416 0.1703
C12 C 0.57166(19) 0.5180(2) 0.14369(17)
C13 C 0.4779(2) 0.5975(2) 0.12557(19)
H8 H 0.4836 0.6789 0.1116
C14 C 0.3760(2) 0.55969(19) 0.12757(18)
H9 H 0.3138 0.6157 0.1135
C15 C 0.6830(2) 0.5610(3) 0.1427(2)
H10 H 0.6760 0.6471 0.1291
H11 H 0.6850 0.5190 0.0878
H12 H 0.7592 0.5445 0.2104
B1 B 0.0625(2) 0.5936(2) 0.31673(19)
H13 H -0.0250 0.6345 0.2504
B2 B 0.0593(2) 0.4614(2) 0.3806(2)
H14 H -0.0299 0.4149 0.3545
B3 B 0.1997(2) 0.3770(2) 0.42897(19)
H15 H 0.1997 0.2770 0.4334
B4 B 0.2959(2) 0.45377(19) 0.39781(18)
H16 H 0.3605 0.4035 0.3843
B5 B 0.1930(2) 0.6840(2) 0.40511(19)
H17 H 0.1914 0.7834 0.3951
B6 B 0.1023(2) 0.6065(2) 0.4456(2)
H18 H 0.0418 0.6557 0.4645
B7 B 0.1856(2) 0.4735(2) 0.5163(2)
H19 H 0.1783 0.4360 0.5803
B8 B 0.3297(2) 0.4704(2) 0.52442(19)
H20 H 0.4158 0.4317 0.5940
B9 B 0.3338(2) 0.6000(2) 0.45410(19)
H21 H 0.4214 0.6460 0.4751
B10 B 0.2682(2) 0.6117(2) 0.53175(19)
H22 H 0.3148 0.6648 0.6060
loop_
_geom_bond_atom_site_label_1
_geom_bond_atom_site_label_2
_geom_bond_site_symmetry_1
_geom_bond_site_symmetry_2
C1 C2 1_555 1_555
C2 C6 1_555 1_555
C3 C1 1_555 1_555
H1 C3 1_555 1_555
C4 C3 1_555 1_555
H2 C4 1_555 1_555
C5 C4 1_555 1_555
H3 C5 1_555 1_555
C6 C5 1_555 1_555
H4 C6 1_555 1_555
C7 C3 1_555 1_555
C8 C7 1_555 1_555
H5 C8 1_555 1_555
C9 C8 1_555 1_555
C10 C9 1_555 1_555
H6 C10 1_555 1_555
C11 C10 1_555 1_555
H7 C11 1_555 1_555
C12 C11 1_555 1_555
C13 C12 1_555 1_555
H8 C13 1_555 1_555
C14 C9 1_555 1_555
H9 C14 1_555 1_555
C15 C12 1_555 1_555
H10 C15 1_555 1_555
H11 C15 1_555 1_555
H12 C15 1_555 1_555
B1 C1 1_555 1_555
H13 B1 1_555 1_555
B2 C1 1_555 1_555
H14 B2 1_555 1_555
B3 C1 1_555 1_555
H15 B3 1_555 1_555
B4 C1 1_555 1_555
H16 B4 1_555 1_555
B5 C2 1_555 1_555
H17 B5 1_555 1_555
B6 B1 1_555 1_555
H18 B6 1_555 1_555
B7 B2 1_555 1_555
H19 B7 1_555 1_555
B8 B3 1_555 1_555
H20 B8 1_555 1_555
B9 C2 1_555 1_555
H21 B9 1_555 1_555
B10 B5 1_555 1_555
H22 B10 1_555 1_555
C2 B1 1_555 1_555
C2 B4 1_555 1_555
C6 C7 1_555 1_555
C13 C14 1_555 1_555
B1 B2 1_555 1_555
B1 B5 1_555 1_555
B2 B3 1_555 1_555
B2 B6 1_555 1_555
B3 B4 1_555 1_555
B3 B7 1_555 1_555
B4 B8 1_555 1_555
B4 B9 1_555 1_555
B5 B6 1_555 1_555
B5 B9 1_555 1_555
B6 B7 1_555 1_555
B6 B10 1_555 1_555
B7 B8 1_555 1_555
B7 B10 1_555 1_555
B8 B9 1_555 1_555
B8 B10 1_555 1_555
B9 B10 1_555 1_555

#END
