
#######################################################################
#
#                 Cambridge Crystallographic Data Centre
#                                CCDC 
#
#######################################################################
#
# If this CIF has been generated from an entry in the Cambridge 
# Structural Database, then it will include bibliographic, chemical, 
# crystal, experimental, refinement or atomic coordinate data resulting 
# from the CCDC's data processing and validation procedures.
#
#######################################################################

data_DEGZIB
_chemical_formula_moiety         'C18 H25 B10 N3 O2,0.5(C1 H2 Cl2)'
_chemical_name_systematic        
'1,2-(7,7-dimethyl-1,3-dioxo-2-phenyltetrahydro-1H,5H,7H-5,6a-methanocyclopropa[d][1,2,4]triazolo[1,2-a]pyridazine-6,9-diyl)-1,2-dicarba-closo-dodecaborane(10) dichloromethane solvate'
_symmetry_cell_setting           monoclinic
_symmetry_space_group_name_H-M   'P 21'
_symmetry_Int_Tables_number      4
_space_group_name_Hall           'P 2yb'
loop_
_symmetry_equiv_pos_site_id
_symmetry_equiv_pos_as_xyz
1 x,y,z
2 -x,1/2+y,-z
_cell_length_a                   10.2678(16)
_cell_length_b                   14.544(2)
_cell_length_c                   16.439(3)
_cell_angle_alpha                90
_cell_angle_beta                 92.372(8)
_cell_angle_gamma                90
_cell_volume                     2452.81
_exptl_crystal_colour            colorless
_exptl_crystal_description       block
_cell_formula_units_Z            4
loop_
_atom_site_label
_atom_site_type_symbol
_atom_site_fract_x
_atom_site_fract_y
_atom_site_fract_z
Cl1 Cl 1.0444(5) 0.3799(5) 0.1379(4)
Cl2 Cl 0.7721(4) 0.3242(3) 0.1251(2)
C1 C 0.955(3) 0.2898(9) 0.1186(13)
H1 H 0.9763 0.2417 0.1578
H2 H 0.9710 0.2667 0.0646
N1 N 0.4157(6) 0.4011(4) 0.1746(3)
N2 N 0.3576(6) 0.3612(4) 0.2431(3)
N3 N 0.3547(6) 0.2608(4) 0.1444(3)
O1 O 0.4678(6) 0.3453(4) 0.0494(3)
O2 O 0.2605(7) 0.2218(4) 0.2659(3)
C2 C 0.6616(6) 0.5401(4) 0.3017(4)
C3 C 0.5738(6) 0.6270(4) 0.3265(3)
C4 C 0.5663(6) 0.4669(4) 0.2727(3)
H3 H 0.5936 0.4034 0.2840
C5 C 0.4973(7) 0.4827(4) 0.1886(3)
H4 H 0.5504 0.5037 0.1440
C6 C 0.4047(6) 0.5510(4) 0.2245(3)
H5 H 0.3157 0.5553 0.2009
C7 C 0.4354(6) 0.5972(4) 0.3053(3)
H6 H 0.3648 0.6306 0.3307
C8 C 0.4288(6) 0.4942(4) 0.3044(3)
C9 C 0.3354(6) 0.4176(4) 0.3193(3)
C10 C 0.3752(8) 0.3589(5) 0.3938(4)
H7 H 0.3121 0.3111 0.4004
H8 H 0.4592 0.3320 0.3862
H9 H 0.3794 0.3970 0.4416
C11 C 0.1956(8) 0.4494(6) 0.3223(5)
H10 H 0.1405 0.3976 0.3320
H11 H 0.1881 0.4933 0.3655
H12 H 0.1695 0.4775 0.2714
C12 C 0.4197(7) 0.3364(4) 0.1139(3)
C13 C 0.3163(7) 0.2758(4) 0.2244(4)
C14 C 0.3374(6) 0.1740(4) 0.1032(4)
C15 C 0.2603(9) 0.1682(7) 0.0342(5)
H13 H 0.2164 0.2193 0.0130
C16 C 0.2494(10) 0.0816(8) -0.0038(5)
H14 H 0.2022 0.0762 -0.0531
C17 C 0.3074(10) 0.0048(6) 0.0306(6)
H15 H 0.2945 -0.0528 0.0069
C18 C 0.3827(11) 0.0142(6) 0.0985(6)
H16 H 0.4244 -0.0372 0.1210
C19 C 0.4002(8) 0.1001(5) 0.1367(4)
H17 H 0.4533 0.1061 0.1836
B1 B 0.6402(7) 0.5606(5) 0.4058(4)
H18 H 0.5855 0.5165 0.4467
B2 B 0.7940(8) 0.5259(6) 0.3695(5)
H19 H 0.8380 0.4593 0.3864
B3 B 0.8108(9) 0.5744(6) 0.2702(5)
H20 H 0.8660 0.5385 0.2239
B4 B 0.6691(8) 0.6387(5) 0.2420(4)
H21 H 0.6331 0.6449 0.1783
B5 B 0.6344(8) 0.6817(5) 0.4127(4)
H22 H 0.5748 0.7161 0.4577
B6 B 0.7793(8) 0.6204(6) 0.4391(5)
H23 H 0.8162 0.6158 0.5028
B7 B 0.8873(9) 0.6279(6) 0.3579(6)
H24 H 0.9937 0.6274 0.3685
B8 B 0.8102(9) 0.6970(6) 0.2803(5)
H25 H 0.8671 0.7417 0.2411
B9 B 0.6523(9) 0.7295(5) 0.3137(5)
H26 H 0.6039 0.7944 0.2959
B10 B 0.7895(9) 0.7244(6) 0.3843(5)
H27 H 0.8326 0.7869 0.4119
N4 N 1.0376(6) 0.8996(4) 0.1963(3)
N5 N 1.1401(6) 0.8789(4) 0.2534(3)
N6 N 1.1471(6) 0.7843(4) 0.1510(3)
C20 C 0.8205(6) 1.0364(4) 0.3332(3)
C21 C 0.9061(6) 1.1277(4) 0.3483(3)
C22 C 0.9137(6) 0.9656(4) 0.2998(3)
H28 H 0.8964 0.9018 0.3149
C23 C 0.9551(6) 0.9799(4) 0.2117(3)
H29 H 0.8872 0.9958 0.1704
C24 C 1.0504(6) 1.0536(4) 0.2382(3)
H30 H 1.1307 1.0611 0.2086
C25 C 1.0384(6) 1.1024(4) 0.3199(3)
H31 H 1.1122 1.1402 0.3394
C26 C 1.0562(5) 1.0007(4) 0.3214(3)
C27 C 1.1624(7) 0.9318(4) 0.3325(4)
C28 C 1.1454(8) 0.8673(6) 0.4043(4)
H32 H 1.2170 0.8248 0.4080
H33 H 1.1434 0.9025 0.4537
H34 H 1.0652 0.8339 0.3966
C29 C 1.2961(7) 0.9738(6) 0.3345(5)
H35 H 1.3604 0.9262 0.3417
H36 H 1.3089 1.0053 0.2841
H37 H 1.3045 1.0166 0.3788
C30 C 1.0409(7) 0.8427(4) 0.1329(4)
C31 C 1.2066(8) 0.8063(6) 0.2252(5)
C32 C 1.1902(8) 0.7124(5) 0.0995(4)
C33 C 1.1116(10) 0.6432(8) 0.0782(6)
H38 H 1.0269 0.6419 0.0960
C34 C 1.1566(15) 0.5712(9) 0.0281(8)
H39 H 1.1025 0.5222 0.0133
C35 C 1.2795(15) 0.5756(9) 0.0027(6)
H40 H 1.3095 0.5291 -0.0306
C36 C 1.3592(11) 0.6448(7) 0.0238(6)
H41 H 1.4433 0.6460 0.0049
C37 C 1.3173(10) 0.7150(6) 0.0739(6)
H42 H 1.3732 0.7626 0.0899
O3 O 0.9688(6) 0.8410(5) 0.0725(3)
O4 O 1.3017(7) 0.7687(5) 0.2580(4)
B11 B 0.7858(6) 1.1308(5) 0.2705(4)
H43 H 0.8018 1.1351 0.2049
B12 B 0.6602(7) 1.0616(6) 0.3093(4)
H44 H 0.5960 1.0197 0.2690
B13 B 0.7097(8) 1.0211(6) 0.4074(4)
H45 H 0.6763 0.9539 0.4292
B14 B 0.8688(8) 1.0632(5) 0.4330(4)
H46 H 0.9384 1.0236 0.4718
B15 B 0.8171(8) 1.2254(5) 0.3362(4)
H47 H 0.8542 1.2909 0.3131
B16 B 0.6534(8) 1.1843(5) 0.3132(5)
H48 H 0.5819 1.2238 0.2758
B17 B 0.6056(9) 1.1191(7) 0.3969(5)
H49 H 0.5028 1.1170 0.4131
B18 B 0.7346(8) 1.1183(7) 0.4733(4)
H50 H 0.7149 1.1151 0.5385
B19 B 0.8668(8) 1.1840(6) 0.4346(4)
H51 H 0.9360 1.2229 0.4741
B20 B 0.7056(8) 1.2183(6) 0.4146(5)
H52 H 0.6683 1.2811 0.4428
loop_
_geom_bond_atom_site_label_1
_geom_bond_atom_site_label_2
_geom_bond_site_symmetry_1
_geom_bond_site_symmetry_2
Cl1 C1 1_555 1_555
Cl2 C1 1_555 1_555
C1 H1 1_555 1_555
H2 C1 1_555 1_555
N1 N2 1_555 1_555
N2 C9 1_555 1_555
N3 C12 1_555 1_555
O1 C12 1_555 1_555
O2 C13 1_555 1_555
C2 C3 1_555 1_555
C3 C7 1_555 1_555
C4 C2 1_555 1_555
H3 C4 1_555 1_555
C5 N1 1_555 1_555
H4 C5 1_555 1_555
C6 C5 1_555 1_555
H5 C6 1_555 1_555
C7 C6 1_555 1_555
H6 C7 1_555 1_555
C8 C4 1_555 1_555
C9 C8 1_555 1_555
C10 C9 1_555 1_555
H7 C10 1_555 1_555
H8 C10 1_555 1_555
H9 C10 1_555 1_555
C11 C9 1_555 1_555
H10 C11 1_555 1_555
H11 C11 1_555 1_555
H12 C11 1_555 1_555
C12 N1 1_555 1_555
C13 N2 1_555 1_555
C14 N3 1_555 1_555
C15 C14 1_555 1_555
H13 C15 1_555 1_555
C16 C15 1_555 1_555
H14 C16 1_555 1_555
C17 C16 1_555 1_555
H15 C17 1_555 1_555
C18 C17 1_555 1_555
H16 C18 1_555 1_555
C19 C14 1_555 1_555
H17 C19 1_555 1_555
B1 C2 1_555 1_555
H18 B1 1_555 1_555
B2 C2 1_555 1_555
H19 B2 1_555 1_555
B3 C2 1_555 1_555
H20 B3 1_555 1_555
B4 C2 1_555 1_555
H21 B4 1_555 1_555
B5 C3 1_555 1_555
H22 B5 1_555 1_555
B6 B1 1_555 1_555
H23 B6 1_555 1_555
B7 B2 1_555 1_555
H24 B7 1_555 1_555
B8 B3 1_555 1_555
H25 B8 1_555 1_555
B9 C3 1_555 1_555
H26 B9 1_555 1_555
B10 B5 1_555 1_555
H27 B10 1_555 1_555
N4 N5 1_555 1_555
N5 C27 1_555 1_555
N6 C30 1_555 1_555
C20 C21 1_555 1_555
C21 C25 1_555 1_555
C22 C20 1_555 1_555
H28 C22 1_555 1_555
C23 N4 1_555 1_555
H29 C23 1_555 1_555
C24 C23 1_555 1_555
H30 C24 1_555 1_555
C25 C24 1_555 1_555
H31 C25 1_555 1_555
C26 C22 1_555 1_555
C27 C26 1_555 1_555
C28 C27 1_555 1_555
H32 C28 1_555 1_555
H33 C28 1_555 1_555
H34 C28 1_555 1_555
C29 C27 1_555 1_555
H35 C29 1_555 1_555
H36 C29 1_555 1_555
H37 C29 1_555 1_555
C30 N4 1_555 1_555
C31 N5 1_555 1_555
C32 N6 1_555 1_555
C33 C32 1_555 1_555
H38 C33 1_555 1_555
C34 C33 1_555 1_555
H39 C34 1_555 1_555
C35 C34 1_555 1_555
H40 C35 1_555 1_555
C36 C35 1_555 1_555
H41 C36 1_555 1_555
C37 C32 1_555 1_555
H42 C37 1_555 1_555
O3 C30 1_555 1_555
O4 C31 1_555 1_555
B11 C20 1_555 1_555
H43 B11 1_555 1_555
B12 C20 1_555 1_555
H44 B12 1_555 1_555
B13 C20 1_555 1_555
H45 B13 1_555 1_555
B14 C20 1_555 1_555
H46 B14 1_555 1_555
B15 C21 1_555 1_555
H47 B15 1_555 1_555
B16 B11 1_555 1_555
H48 B16 1_555 1_555
B17 B12 1_555 1_555
H49 B17 1_555 1_555
B18 B13 1_555 1_555
H50 B18 1_555 1_555
B19 C21 1_555 1_555
H51 B19 1_555 1_555
B20 B15 1_555 1_555
H52 B20 1_555 1_555
N3 C13 1_555 1_555
C3 B1 1_555 1_555
C3 B4 1_555 1_555
C4 C5 1_555 1_555
C6 C8 1_555 1_555
C7 C8 1_555 1_555
C18 C19 1_555 1_555
B1 B2 1_555 1_555
B1 B5 1_555 1_555
B2 B3 1_555 1_555
B2 B6 1_555 1_555
B3 B4 1_555 1_555
B3 B7 1_555 1_555
B4 B8 1_555 1_555
B4 B9 1_555 1_555
B5 B6 1_555 1_555
B5 B9 1_555 1_555
B6 B7 1_555 1_555
B6 B10 1_555 1_555
B7 B8 1_555 1_555
B7 B10 1_555 1_555
B8 B9 1_555 1_555
B8 B10 1_555 1_555
B9 B10 1_555 1_555
N6 C31 1_555 1_555
C21 B11 1_555 1_555
C21 B14 1_555 1_555
C22 C23 1_555 1_555
C24 C26 1_555 1_555
C25 C26 1_555 1_555
C36 C37 1_555 1_555
B11 B12 1_555 1_555
B11 B15 1_555 1_555
B12 B13 1_555 1_555
B12 B16 1_555 1_555
B13 B14 1_555 1_555
B13 B17 1_555 1_555
B14 B18 1_555 1_555
B14 B19 1_555 1_555
B15 B16 1_555 1_555
B15 B19 1_555 1_555
B16 B17 1_555 1_555
B16 B20 1_555 1_555
B17 B18 1_555 1_555
B17 B20 1_555 1_555
B18 B19 1_555 1_555
B18 B20 1_555 1_555
B19 B20 1_555 1_555

#END
