
#######################################################################
#
#                 Cambridge Crystallographic Data Centre
#                                CCDC 
#
#######################################################################
#
# If this CIF has been generated from an entry in the Cambridge 
# Structural Database, then it will include bibliographic, chemical, 
# crystal, experimental, refinement or atomic coordinate data resulting 
# from the CCDC's data processing and validation procedures.
#
#######################################################################

data_DEHDUS
_chemical_formula_moiety         'C25 H25 N3 O2 S1'
_chemical_name_systematic        
N-{3-[(3,5-dimethylphenyl)imino]-4,6-dimethyl-3H-indol-2-yl}-4-methylbenzene-1-sulfonamide
_symmetry_cell_setting           triclinic
_symmetry_space_group_name_H-M   'P -1'
_symmetry_Int_Tables_number      2
_space_group_name_Hall           '-P 1'
loop_
_symmetry_equiv_pos_site_id
_symmetry_equiv_pos_as_xyz
1 x,y,z
2 -x,-y,-z
_cell_length_a                   10.3022(7)
_cell_length_b                   10.3972(7)
_cell_length_c                   11.6686(6)
_cell_angle_alpha                65.882(6)
_cell_angle_beta                 79.944(5)
_cell_angle_gamma                81.015(6)
_cell_volume                     1118.22
_cell_formula_units_Z            2
loop_
_atom_site_label
_atom_site_type_symbol
_atom_site_fract_x
_atom_site_fract_y
_atom_site_fract_z
S1 S 0.50227(6) 0.54590(6) 0.72085(5)
O1 O 0.45946(17) 0.5305(2) 0.61675(16)
O2 O 0.5264(2) 0.42024(19) 0.82986(17)
N1 N 0.63183(18) 0.6327(2) 0.67749(17)
H1 H 0.646754 0.676016 0.724124
N2 N 0.71580(17) 0.58511(19) 0.49272(16)
N3 N 0.86766(19) 0.8012(2) 0.58953(19)
C1 C 0.7139(2) 0.6417(2) 0.57894(19)
C2 C 0.8380(2) 0.7188(2) 0.54378(19)
C3 C 0.9143(2) 0.6839(2) 0.44054(19)
C4 C 1.0387(2) 0.7143(2) 0.3725(2)
C5 C 1.0774(2) 0.6681(2) 0.2750(2)
H2 H 1.162706 0.686185 0.228734
C6 C 0.9976(2) 0.5965(2) 0.2414(2)
C7 C 0.8723(2) 0.5664(2) 0.3104(2)
H3 H 0.815389 0.517798 0.289400
C8 C 0.8345(2) 0.6089(2) 0.40877(19)
C9 C 0.7758(2) 0.8489(2) 0.6732(2)
C10 C 0.7994(3) 0.8099(3) 0.7969(2)
H4 H 0.875030 0.747479 0.826965
C11 C 0.7131(3) 0.8616(3) 0.8768(2)
C12 C 0.6093(3) 0.9590(3) 0.8291(2)
H5 H 0.551337 0.996507 0.883173
C13 C 0.5869(2) 1.0038(3) 0.7044(2)
C14 C 0.6705(2) 0.9471(2) 0.6277(2)
H6 H 0.655674 0.975810 0.542243
C15 C 1.1284(3) 0.7938(3) 0.4029(3)
H7 H 1.220286 0.771649 0.371898
H8 H 1.119657 0.765860 0.494671
H9 H 1.103723 0.895695 0.361851
C16 C 1.0435(3) 0.5517(3) 0.1329(2)
H10 H 1.038231 0.634472 0.052979
H11 H 0.986945 0.482099 0.136932
H12 H 1.135304 0.509369 0.137949
C17 C 0.7316(4) 0.8101(4) 1.0145(3)
H13 H 0.690407 0.881860 1.047307
H14 H 0.826356 0.793338 1.023005
H15 H 0.689927 0.721805 1.062575
C18 C 0.4747(3) 1.1136(3) 0.6539(3)
H16 H 0.390235 1.072887 0.691958
H17 H 0.482737 1.144510 0.561809
H18 H 0.478084 1.194958 0.675083
C19 C 0.3853(2) 0.6635(2) 0.7659(2)
C20 C 0.3931(3) 0.6814(3) 0.8754(2)
H19 H 0.460750 0.629722 0.927077
C21 C 0.3006(3) 0.7759(3) 0.9082(2)
H20 H 0.305527 0.788674 0.983359
C22 C 0.2011(3) 0.8524(3) 0.8350(3)
C23 C 0.1970(3) 0.8328(3) 0.7260(3)
H21 H 0.129620 0.884345 0.674073
C24 C 0.2885(3) 0.7400(3) 0.6908(2)
H22 H 0.284761 0.729012 0.614576
C25 C 0.1009(3) 0.9538(4) 0.8731(4)
H23 H 0.127377 1.050162 0.827480
H24 H 0.096011 0.927913 0.964405
H25 H 0.013956 0.949458 0.852376
loop_
_geom_bond_atom_site_label_1
_geom_bond_atom_site_label_2
_geom_bond_site_symmetry_1
_geom_bond_site_symmetry_2
S1 O1 1_555 1_555
O2 S1 1_555 1_555
N1 S1 1_555 1_555
H1 N1 1_555 1_555
N2 C1 1_555 1_555
N3 C2 1_555 1_555
C1 N1 1_555 1_555
C2 C1 1_555 1_555
C3 C2 1_555 1_555
C4 C3 1_555 1_555
C5 C4 1_555 1_555
H2 C5 1_555 1_555
C6 C5 1_555 1_555
C7 C6 1_555 1_555
H3 C7 1_555 1_555
C8 N2 1_555 1_555
C9 N3 1_555 1_555
C10 C9 1_555 1_555
H4 C10 1_555 1_555
C11 C10 1_555 1_555
C12 C11 1_555 1_555
H5 C12 1_555 1_555
C13 C12 1_555 1_555
C14 C9 1_555 1_555
H6 C14 1_555 1_555
C15 C4 1_555 1_555
H7 C15 1_555 1_555
H8 C15 1_555 1_555
H9 C15 1_555 1_555
C16 C6 1_555 1_555
H10 C16 1_555 1_555
H11 C16 1_555 1_555
H12 C16 1_555 1_555
C17 C11 1_555 1_555
H13 C17 1_555 1_555
H14 C17 1_555 1_555
H15 C17 1_555 1_555
C18 C13 1_555 1_555
H16 C18 1_555 1_555
H17 C18 1_555 1_555
H18 C18 1_555 1_555
C19 S1 1_555 1_555
C20 C19 1_555 1_555
H19 C20 1_555 1_555
C21 C20 1_555 1_555
H20 C21 1_555 1_555
C22 C21 1_555 1_555
C23 C22 1_555 1_555
H21 C23 1_555 1_555
C24 C19 1_555 1_555
H22 C24 1_555 1_555
C25 C22 1_555 1_555
H23 C25 1_555 1_555
H24 C25 1_555 1_555
H25 C25 1_555 1_555
C3 C8 1_555 1_555
C7 C8 1_555 1_555
C13 C14 1_555 1_555
C23 C24 1_555 1_555

#END
