
#######################################################################
#
#                 Cambridge Crystallographic Data Centre
#                                CCDC 
#
#######################################################################
#
# If this CIF has been generated from an entry in the Cambridge 
# Structural Database, then it will include bibliographic, chemical, 
# crystal, experimental, refinement or atomic coordinate data resulting 
# from the CCDC's data processing and validation procedures.
#
#######################################################################

data_DEHRAJ
_chemical_name_common            
"anti-(3S,3'S,4S,4'S)-Coumarin dimer-(head to head)"
_chemical_formula_moiety         'C18 H12 O4'
_chemical_name_systematic        
(-)-5,6:9,10-Dibenzo-4,11-dioxatricyclo(6.4.0.0^2,7^)dodecadien-3,12-dione
_symmetry_cell_setting           orthorhombic
_symmetry_space_group_name_H-M   'P 21 21 21'
_symmetry_Int_Tables_number      19
_space_group_name_Hall           'P 2ac 2ab'
loop_
_symmetry_equiv_pos_site_id
_symmetry_equiv_pos_as_xyz
1 x,y,z
2 1/2+x,1/2-y,-z
3 -x,1/2+y,1/2-z
4 1/2-x,-y,1/2+z
_cell_length_a                   8.711(1)
_cell_length_b                   12.493(4)
_cell_length_c                   12.728(3)
_cell_angle_alpha                90
_cell_angle_beta                 90
_cell_angle_gamma                90
_cell_volume                     1385.14
_exptl_crystal_colour            colorless
_chemical_melting_point          168.5-169deg.C
_cell_formula_units_Z            4
loop_
_atom_site_label
_atom_site_type_symbol
_atom_site_fract_x
_atom_site_fract_y
_atom_site_fract_z
O1 O 0.5802(3) -0.1063(2) 0.8124(2)
C1 C 0.4660(3) -0.0947(3) 0.7404(3)
C2 C 0.3448(3) -0.0134(2) 0.7624(2)
C3 C 0.3098(3) 0.0180(3) 0.8773(2)
C4 C 0.4664(5) 0.0616(3) 1.0378(2)
C5 C 0.6038(5) 0.0571(3) 1.0950(3)
C6 C 0.7250(5) -0.0016(3) 1.0572(3)
C7 C 0.7168(4) -0.0555(3) 0.9625(3)
C8 C 0.5786(4) -0.0491(3) 0.9071(3)
C9 C 0.4527(4) 0.0088(3) 0.9420(2)
O2 O 0.4721(3) -0.1494(2) 0.6624(2)
O3 O 0.2094(3) 0.1882(2) 0.6193(2)
C10 C 0.3506(4) 0.1481(3) 0.6361(3)
C11 C 0.3881(3) 0.1064(3) 0.7424(2)
C12 C 0.2869(3) 0.1351(2) 0.8381(2)
C13 C 0.0026(4) 0.1602(2) 0.8716(3)
C14 C -0.1454(4) 0.1880(3) 0.8373(3)
C15 C -0.1674(4) 0.2157(3) 0.7338(3)
C16 C -0.0480(4) 0.2171(3) 0.6627(3)
C17 C 0.0968(4) 0.1870(3) 0.6991(3)
C18 C 0.1265(3) 0.1598(2) 0.8031(2)
O4 O 0.4369(3) 0.1464(3) 0.5634(2)
loop_
_geom_bond_atom_site_label_1
_geom_bond_atom_site_label_2
_geom_bond_site_symmetry_1
_geom_bond_site_symmetry_2
O1 C1 1_555 1_555
C1 C2 1_555 1_555
C2 C3 1_555 1_555
C3 C9 1_555 1_555
C4 C5 1_555 1_555
C5 C6 1_555 1_555
C6 C7 1_555 1_555
C7 C8 1_555 1_555
C8 O1 1_555 1_555
C9 C4 1_555 1_555
O2 C1 1_555 1_555
O3 C10 1_555 1_555
C10 C11 1_555 1_555
C11 C2 1_555 1_555
C12 C3 1_555 1_555
C13 C14 1_555 1_555
C14 C15 1_555 1_555
C15 C16 1_555 1_555
C16 C17 1_555 1_555
C17 O3 1_555 1_555
C18 C12 1_555 1_555
O4 C10 1_555 1_555
C8 C9 1_555 1_555
C11 C12 1_555 1_555
C13 C18 1_555 1_555
C17 C18 1_555 1_555

#END
