
#######################################################################
#
#                 Cambridge Crystallographic Data Centre
#                                CCDC 
#
#######################################################################
#
# If this CIF has been generated from an entry in the Cambridge 
# Structural Database, then it will include bibliographic, chemical, 
# crystal, experimental, refinement or atomic coordinate data resulting 
# from the CCDC's data processing and validation procedures.
#
#######################################################################

data_DEHWOC
_chemical_compound_source        'from the roots of Neolitsa zeylanica'
_chemical_formula_moiety         'C17 H18 O7'
_chemical_name_systematic        (1S*,2R*,5S*,6R*,7R*,10S*)-Zeylanidine
_chemical_properties_biological  
'significant inhibitory activity of platelet-activating factor-induced platelet aggregation'
_symmetry_cell_setting           orthorhombic
_symmetry_space_group_name_H-M   'P 21 21 21'
_symmetry_Int_Tables_number      19
_space_group_name_Hall           'P 2ac 2ab'
loop_
_symmetry_equiv_pos_site_id
_symmetry_equiv_pos_as_xyz
1 x,y,z
2 1/2-x,-y,1/2+z
3 1/2+x,1/2-y,-z
4 -x,1/2+y,1/2-z
_cell_length_a                   15.081(4)
_cell_length_b                   15.534(3)
_cell_length_c                   6.786(2)
_cell_angle_alpha                90
_cell_angle_beta                 90
_cell_angle_gamma                90
_cell_volume                     1589.74
_exptl_crystal_colour            colorless
_exptl_crystal_description       prisms
_cell_formula_units_Z            4
_exptl_crystal_recrystallization_method methanol/chloroform
loop_
_atom_site_label
_atom_site_type_symbol
_atom_site_fract_x
_atom_site_fract_y
_atom_site_fract_z
O1 O 0.0417(2) 0.1069(2) 0.5615(5)
O2 O 0.3504(2) 0.2804(2) 0.3967(7)
O3 O 0.2485(2) 0.2283(2) 0.0810(5)
O4 O -0.0158(2) 0.3385(2) 0.1247(5)
O5 O 0.0393(2) 0.1382(2) 0.1569(5)
O6 O 0.3043(2) 0.0995(2) 0.1532(7)
O7 O -0.1072(2) 0.1127(2) 0.1366(8)
C1 C 0.0668(3) 0.1905(3) 0.4847(7)
C2 C 0.1337(3) 0.1213(3) 0.5037(8)
C3 C 0.2031(4) 0.1193(3) 0.6604(9)
C4 C 0.2917(4) 0.1503(4) 0.589(1)
C5 C 0.2885(3) 0.2067(3) 0.4079(9)
C6 C 0.2564(3) 0.2945(3) 0.3903(9)
C7 C 0.2273(3) 0.3085(3) 0.1826(7)
C8 C 0.1320(3) 0.3327(3) 0.1476(7)
C9 C 0.0550(3) 0.2914(3) 0.1926(6)
C10 C 0.0249(3) 0.2097(3) 0.2894(7)
C11 C 0.1065(3) 0.4111(3) 0.0463(7)
C12 C 0.0183(3) 0.4105(3) 0.0369(8)
C13 C 0.1695(4) 0.4798(3) -0.0330(8)
C14 C 0.0570(4) 0.2619(3) 0.6352(8)
C15 C 0.2829(3) 0.1703(4) 0.2079(10)
C16 C -0.0330(4) 0.0926(3) 0.0993(8)
C17 C -0.0051(4) 0.0145(3) -0.0128(8)
H1 H 0.1504 0.0948 0.3823
H2 H 0.1845 0.1548 0.7664
H3 H 0.2095 0.0616 0.7053
H4 H 0.3187 0.1824 0.6919
H5 H 0.3272 0.1016 0.5587
H6 H 0.2264 0.3218 0.4969
H7 H 0.2635 0.3527 0.1278
H8 H -0.0374 0.2143 0.3103
H9 H -0.0164 0.4546 -0.0232
H10 H 0.2291 0.4632 -0.0049
H11 H 0.1620 0.4848 -0.1715
H12 H 0.1571 0.5331 0.0286
H13 H 0.0939 0.2501 0.7459
H14 H 0.0741 0.3151 0.5777
H15 H -0.0031 0.2652 0.6771
H16 H -0.0566 -0.0165 -0.0533
H17 H 0.0272 0.0318 -0.1269
H18 H 0.0307 -0.0207 0.0677
loop_
_geom_bond_atom_site_label_1
_geom_bond_atom_site_label_2
_geom_bond_site_symmetry_1
_geom_bond_site_symmetry_2
O1 C1 1_555 1_555
O2 C5 1_555 1_555
O3 C7 1_555 1_555
O4 C9 1_555 1_555
O5 C10 1_555 1_555
O6 C15 1_555 1_555
O7 C16 1_555 1_555
C1 C2 1_555 1_555
C2 O1 1_555 1_555
C3 C2 1_555 1_555
C4 C3 1_555 1_555
C5 C4 1_555 1_555
C6 O2 1_555 1_555
C7 C6 1_555 1_555
C8 C7 1_555 1_555
C9 C8 1_555 1_555
C10 C1 1_555 1_555
C11 C8 1_555 1_555
C12 O4 1_555 1_555
C13 C11 1_555 1_555
C14 C1 1_555 1_555
C15 O3 1_555 1_555
C16 O5 1_555 1_555
C17 C16 1_555 1_555
H1 C2 1_555 1_555
H2 C3 1_555 1_555
H3 C3 1_555 1_555
H4 C4 1_555 1_555
H5 C4 1_555 1_555
H6 C6 1_555 1_555
H7 C7 1_555 1_555
H8 C10 1_555 1_555
H9 C12 1_555 1_555
H10 C13 1_555 1_555
H11 C13 1_555 1_555
H12 C13 1_555 1_555
H13 C14 1_555 1_555
H14 C14 1_555 1_555
H15 C14 1_555 1_555
H16 C17 1_555 1_555
H17 C17 1_555 1_555
H18 C17 1_555 1_555
C5 C15 1_555 1_555
C5 C6 1_555 1_555
C9 C10 1_555 1_555
C11 C12 1_555 1_555

#END
