
#######################################################################
#
#                 Cambridge Crystallographic Data Centre
#                                CCDC 
#
#######################################################################
#
# If this CIF has been generated from an entry in the Cambridge 
# Structural Database, then it will include bibliographic, chemical, 
# crystal, experimental, refinement or atomic coordinate data resulting 
# from the CCDC's data processing and validation procedures.
#
#######################################################################

data_DEHXUJ
_chemical_compound_source        'from the stems of Neolitsea parvigemma'
_chemical_formula_moiety         'C15 H16 O4'
_chemical_name_systematic        (1R*,2R*,7R*)-Pseudolinderane
_chemical_properties_biological  
'possible inhibitory activity towards platelet aggregation'
_symmetry_cell_setting           orthorhombic
_symmetry_space_group_name_H-M   'P 21 21 21'
_symmetry_Int_Tables_number      19
_space_group_name_Hall           'P 2ac 2ab'
loop_
_symmetry_equiv_pos_site_id
_symmetry_equiv_pos_as_xyz
1 x,y,z
2 1/2-x,-y,1/2+z
3 1/2+x,1/2-y,-z
4 -x,1/2+y,1/2-z
_cell_length_a                   6.460(2)
_cell_length_b                   13.480(3)
_cell_length_c                   14.827(2)
_cell_angle_alpha                90
_cell_angle_beta                 90
_cell_angle_gamma                90
_cell_volume                     1291.15
_exptl_crystal_colour            colorless
_exptl_crystal_description       prisms
_cell_formula_units_Z            4
_exptl_crystal_recrystallization_method methanol/chloroform
loop_
_atom_site_label
_atom_site_type_symbol
_atom_site_fract_x
_atom_site_fract_y
_atom_site_fract_z
O1 O 1.2607(4) -0.0403(2) 0.8253(2)
O2 O 0.8235(4) -0.1200(2) 0.5569(2)
O3 O 0.8449(4) 0.1814(2) 0.6565(2)
O4 O 0.8870(5) -0.2610(2) 0.6302(2)
C1 C 1.2015(6) 0.0043(3) 0.7400(2)
C2 C 1.2370(6) -0.1034(3) 0.7472(2)
C3 C 1.4159(7) -0.1580(3) 0.7065(3)
C4 C 1.3441(7) -0.2123(3) 0.6208(3)
C5 C 1.1702(6) -0.1590(3) 0.5762(2)
C6 C 1.1617(6) -0.0756(3) 0.5305(2)
C7 C 0.9470(6) -0.0412(3) 0.5174(2)
C8 C 0.8934(6) 0.0573(3) 0.5605(2)
C9 C 0.9165(6) 0.0868(3) 0.6478(2)
C10 C 0.9828(6) 0.0413(3) 0.7357(3)
C11 C 0.8023(6) 0.1384(3) 0.5124(2)
C12 C 0.7759(7) 0.2112(3) 0.5732(3)
C13 C 0.7413(8) 0.1403(3) 0.4139(3)
C14 C 1.3643(7) 0.0741(3) 0.7030(3)
C15 C 0.9531(6) -0.1893(3) 0.5925(2)
H1 H 1.1124 -0.1409 0.7480
H2 H 1.5224 -0.1124 0.6916
H3 H 1.4673 -0.2051 0.7487
H4 H 1.4570 -0.2166 0.5798
H5 H 1.2995 -0.2771 0.6364
H6 H 1.2798 -0.0413 0.5083
H7 H 0.9188 -0.0376 0.4546
H8 H 0.8939 -0.0133 0.7476
H9 H 0.9662 0.0900 0.7814
H10 H 0.7178 0.2743 0.5599
H11 H 0.5963 0.1505 0.4096
H12 H 0.8124 0.1926 0.3847
H13 H 0.7770 0.0788 0.3871
H14 H 1.4893 0.0383 0.6935
H15 H 1.3179 0.1013 0.6477
H16 H 1.3881 0.1259 0.7453
loop_
_geom_bond_atom_site_label_1
_geom_bond_atom_site_label_2
_geom_bond_site_symmetry_1
_geom_bond_site_symmetry_2
O1 C1 1_555 1_555
O2 C7 1_555 1_555
O3 C9 1_555 1_555
O4 C15 1_555 1_555
C1 C2 1_555 1_555
C2 O1 1_555 1_555
C3 C2 1_555 1_555
C4 C3 1_555 1_555
C5 C4 1_555 1_555
C6 C5 1_555 1_555
C7 C6 1_555 1_555
C8 C7 1_555 1_555
C9 C8 1_555 1_555
C10 C1 1_555 1_555
C11 C8 1_555 1_555
C12 O3 1_555 1_555
C13 C11 1_555 1_555
C14 C1 1_555 1_555
C15 O2 1_555 1_555
H1 C2 1_555 1_555
H2 C3 1_555 1_555
H3 C3 1_555 1_555
H4 C4 1_555 1_555
H5 C4 1_555 1_555
H6 C6 1_555 1_555
H7 C7 1_555 1_555
H8 C10 1_555 1_555
H9 C10 1_555 1_555
H10 C12 1_555 1_555
H11 C13 1_555 1_555
H12 C13 1_555 1_555
H13 C13 1_555 1_555
H14 C14 1_555 1_555
H15 C14 1_555 1_555
H16 C14 1_555 1_555
C5 C15 1_555 1_555
C9 C10 1_555 1_555
C11 C12 1_555 1_555

#END
