
#######################################################################
#
#                 Cambridge Crystallographic Data Centre
#                                CCDC 
#
#######################################################################
#
# If this CIF has been generated from an entry in the Cambridge 
# Structural Database, then it will include bibliographic, chemical, 
# crystal, experimental, refinement or atomic coordinate data resulting 
# from the CCDC's data processing and validation procedures.
#
#######################################################################

data_DEJDUU
_chemical_formula_moiety         'C2 N10 O2 2-,2(H4 N1 O1 1+),H2 O1'
_chemical_name_systematic        
'bis(hydroxyammonium) 5-[5-(nitroazanidyl)-1H-tetrazol-1-yl]tetrazol-2-ide monohydrate'
_symmetry_cell_setting           triclinic
_symmetry_space_group_name_H-M   'P -1'
_symmetry_Int_Tables_number      2
_space_group_name_Hall           '-P 1'
loop_
_symmetry_equiv_pos_site_id
_symmetry_equiv_pos_as_xyz
1 x,y,z
2 -x,-y,-z
_cell_length_a                   7.7628(8)
_cell_length_b                   8.4720(9)
_cell_length_c                   8.6864(9)
_cell_angle_alpha                96.566(2)
_cell_angle_beta                 99.093(2)
_cell_angle_gamma                107.015(2)
_cell_volume                     531.544
_exptl_crystal_colour            'whiteish colorless'
_exptl_crystal_description       block
_cell_formula_units_Z            2
loop_
_atom_site_label
_atom_site_type_symbol
_atom_site_fract_x
_atom_site_fract_y
_atom_site_fract_z
O1 O 0.06264(15) 0.59988(12) 0.31301(12)
O2 O 0.25497(16) 0.83799(12) 0.43900(13)
N1 N 0.32396(16) 0.36578(14) 0.59761(14)
N2 N 0.54378(16) 0.59136(14) 0.79158(14)
N3 N 0.53836(16) 0.33069(14) 0.80954(14)
N4 N 0.28571(17) 0.61235(14) 0.52284(14)
N5 N 0.66968(17) 0.43765(14) 0.92611(14)
N6 N 0.67257(17) 0.59079(14) 0.91508(14)
N7 N 0.19682(17) 0.68020(14) 0.42139(14)
N8 N 0.26085(18) 0.19691(15) 0.54487(15)
N9 N 0.13860(18) 0.17466(15) 0.41930(15)
N10 N 0.11642(17) 0.32114(14) 0.38398(14)
C1 C 0.46601(18) 0.43010(16) 0.73171(15)
C2 C 0.23448(18) 0.44114(16) 0.49633(16)
O3 O 0.56958(15) 0.91984(13) 0.81313(14)
H1 H 0.5433 0.8153 0.7906
N11 N 0.41362(18) 0.96706(15) 0.75810(16)
H2 H 0.323(3) 0.924(2) 0.815(2)
H3 H 0.454(3) 1.079(3) 0.783(2)
H4 H 0.370(3) 0.934(3) 0.647(3)
O4 O -0.15354(16) 0.24768(13) 0.10436(13)
H5 H -0.199(3) 0.317(3) 0.070(3)
H6 H -0.065(4) 0.295(3) 0.184(3)
O5 O 0.85892(15) 0.88609(13) 1.09714(13)
H7 H 0.7960 0.7916 1.0444
N12 N 1.03637(17) 0.88281(15) 1.16129(15)
H8 H 1.0276 0.7931 1.2014
H9 H 1.0993 0.8844 1.0879
H10 H 1.084(3) 0.974(3) 1.250(3)
loop_
_geom_bond_atom_site_label_1
_geom_bond_atom_site_label_2
_geom_bond_site_symmetry_1
_geom_bond_site_symmetry_2
O1 N7 1_555 1_555
O2 N7 1_555 1_555
N1 N8 1_555 1_555
N2 N6 1_555 1_555
N3 N5 1_555 1_555
N4 N7 1_555 1_555
N5 N6 1_555 1_555
N8 N9 1_555 1_555
N9 N10 1_555 1_555
N10 C2 1_555 1_555
C1 N1 1_555 1_555
C2 N1 1_555 1_555
O3 H1 1_555 1_555
N11 O3 1_555 1_555
H2 N11 1_555 1_555
H3 N11 1_555 1_555
H4 N11 1_555 1_555
O4 H5 1_555 1_555
H6 O4 1_555 1_555
O5 H7 1_555 1_555
N12 O5 1_555 1_555
H8 N12 1_555 1_555
H9 N12 1_555 1_555
H10 N12 1_555 1_555
N2 C1 1_555 1_555
N3 C1 1_555 1_555
N4 C2 1_555 1_555

#END
