
#######################################################################
#
#                 Cambridge Crystallographic Data Centre
#                                CCDC 
#
#######################################################################
#
# If this CIF has been generated from an entry in the Cambridge 
# Structural Database, then it will include bibliographic, chemical, 
# crystal, experimental, refinement or atomic coordinate data resulting 
# from the CCDC's data processing and validation procedures.
#
#######################################################################

data_DEJDII
_chemical_formula_moiety         'C2 H1 N10 O2 1-,C1 H6 N5 O2 1+,2(H2 O1)'
_chemical_name_systematic        
"2-(N'-nitrocarbamimidoyl)hydrazinium ([2'H-[1,5'-bitetrazole]]-5-yl)(nitro)azanide dihydrate"
_symmetry_cell_setting           triclinic
_symmetry_space_group_name_H-M   'P -1'
_symmetry_Int_Tables_number      2
_space_group_name_Hall           '-P 1'
loop_
_symmetry_equiv_pos_site_id
_symmetry_equiv_pos_as_xyz
1 x,y,z
2 -x,-y,-z
_cell_length_a                   6.6274(11)
_cell_length_b                   9.3787(14)
_cell_length_c                   11.2469(18)
_cell_angle_alpha                102.272(3)
_cell_angle_beta                 91.229(3)
_cell_angle_gamma                105.997(3)
_cell_volume                     654.253
_exptl_crystal_colour            colorless
_exptl_crystal_description       block
_cell_formula_units_Z            2
loop_
_atom_site_label
_atom_site_type_symbol
_atom_site_fract_x
_atom_site_fract_y
_atom_site_fract_z
O1 O 0.2157(3) 0.4926(2) 0.08702(18)
H1 H 0.115(5) 0.417(4) 0.084(3)
H2 H 0.212(5) 0.553(4) 0.153(3)
N1 N 0.3227(3) 0.2778(2) 0.88740(17)
O2 O 0.1981(4) 0.0191(2) 0.82903(18)
O3 O 0.3406(4) 0.1308(2) 1.01142(17)
N2 N 0.2865(3) 0.1363(2) 0.90826(18)
N3 N 0.3723(4) 0.5550(2) 0.87430(19)
N4 N 0.2905(3) 0.4361(2) 0.76849(19)
C1 C 0.2847(3) 0.2921(2) 0.7738(2)
N5 N 0.2434(3) 0.1888(2) 0.6695(2)
H3 H 0.513(4) 0.578(3) 0.881(2)
H4 H 0.324(5) 0.520(4) 0.941(3)
H5 H 0.247(6) 0.105(4) 0.668(3)
H6 H 0.276(5) 0.459(4) 0.694(3)
H7 H 0.232(5) 0.209(4) 0.591(3)
H8 H 0.306(6) 0.645(4) 0.874(3)
O4 O 0.1392(3) 0.7629(2) 0.9345(2)
H9 H 0.193(6) 0.813(5) 1.002(4)
H10 H 0.156(8) 0.833(6) 0.885(5)
O5 O 0.2431(3) 0.3365(2) 0.46633(17)
O6 O 0.2881(3) 0.30288(19) 0.27309(16)
N6 N 0.2525(3) 0.7653(2) 0.47646(17)
N7 N 0.2741(3) 0.5275(2) 0.36823(18)
N8 N 0.2684(3) 0.3870(2) 0.37239(18)
N9 N 0.2689(3) 0.9897(2) 0.40800(18)
N10 N 0.2617(3) 1.0131(2) 0.29572(19)
N11 N 0.2462(3) 0.8921(2) 0.20905(19)
N12 N 0.2411(3) 0.7792(2) 0.26432(18)
C2 C 0.2554(3) 0.8431(2) 0.3832(2)
C3 C 0.2586(3) 0.6202(2) 0.4763(2)
N13 N 0.2406(4) 0.8384(2) 0.59358(19)
N14 N 0.2390(4) 0.7421(2) 0.65972(19)
N15 N 0.2500(3) 0.6058(2) 0.59125(18)
H11 H 0.267(6) 1.114(5) 0.282(4)
loop_
_geom_bond_atom_site_label_1
_geom_bond_atom_site_label_2
_geom_bond_site_symmetry_1
_geom_bond_site_symmetry_2
O1 H1 1_555 1_555
H2 O1 1_555 1_555
N1 N2 1_555 1_555
O2 N2 1_555 1_555
O3 N2 1_555 1_555
N3 N4 1_555 1_555
N4 C1 1_555 1_555
C1 N1 1_555 1_555
N5 C1 1_555 1_555
H3 N3 1_555 1_555
H4 N3 1_555 1_555
H5 N5 1_555 1_555
H6 N4 1_555 1_555
H7 N5 1_555 1_555
H8 N3 1_555 1_555
O4 H9 1_555 1_555
H10 O4 1_555 1_555
O5 N8 1_555 1_555
O6 N8 1_555 1_555
N6 C2 1_555 1_555
N7 N8 1_555 1_555
N9 N10 1_555 1_555
N10 N11 1_555 1_555
N11 N12 1_555 1_555
N12 C2 1_555 1_555
C2 N9 1_555 1_555
C3 N6 1_555 1_555
N13 N6 1_555 1_555
N14 N13 1_555 1_555
N15 C3 1_555 1_555
H11 N10 1_555 1_555
N7 C3 1_555 1_555
N14 N15 1_555 1_555

#END
