
#######################################################################
#
#                 Cambridge Crystallographic Data Centre
#                                CCDC 
#
#######################################################################
#
# If this CIF has been generated from an entry in the Cambridge 
# Structural Database, then it will include bibliographic, chemical, 
# crystal, experimental, refinement or atomic coordinate data resulting 
# from the CCDC's data processing and validation procedures.
#
#######################################################################

data_DEJDEE
_chemical_formula_moiety         'C2 H1 N10 O2 1-,H4 N1 1+,H2 O1'
_chemical_name_systematic        
"ammonium ([2'H-[1,5'-bitetrazole]]-5-yl)(nitro)azanide monohydrate"
_symmetry_cell_setting           monoclinic
_symmetry_space_group_name_H-M   'P 21/c'
_symmetry_Int_Tables_number      14
_space_group_name_Hall           '-P 2ybc'
loop_
_symmetry_equiv_pos_site_id
_symmetry_equiv_pos_as_xyz
1 x,y,z
2 -x,1/2+y,1/2-z
3 -x,-y,-z
4 x,1/2-y,1/2+z
_cell_length_a                   6.663(9)
_cell_length_b                   16.418(17)
_cell_length_c                   16.589(17)
_cell_angle_alpha                90
_cell_angle_beta                 99.96(3)
_cell_angle_gamma                90
_cell_volume                     1787.37
_exptl_crystal_colour            colorless
_exptl_crystal_description       block
_cell_formula_units_Z            8
loop_
_atom_site_label
_atom_site_type_symbol
_atom_site_fract_x
_atom_site_fract_y
_atom_site_fract_z
N1 N 0.9631(4) 0.33209(13) 0.74307(14)
N2 N 0.9478(4) 0.26503(14) 0.86627(14)
O1 O 0.9134(4) 0.19942(13) 0.97653(14)
O2 O 0.9139(5) 0.12810(13) 0.86800(15)
N3 N 1.0287(4) 0.53457(14) 0.76854(16)
N4 N 0.9261(4) 0.20207(14) 0.73039(15)
N5 N 0.9523(4) 0.31445(14) 0.66171(15)
N6 N 0.9242(4) 0.19430(14) 0.90313(16)
N7 N 0.9300(4) 0.23726(15) 0.65629(15)
N8 N 1.0056(5) 0.47244(14) 0.71780(16)
C1 C 0.9462(4) 0.26165(16) 0.78498(17)
N9 N 1.0007(5) 0.43597(15) 0.84599(17)
C2 C 0.9883(4) 0.41295(16) 0.76912(17)
N10 N 1.0254(5) 0.51587(16) 0.84351(17)
H1 H 1.050(5) 0.5832(14) 0.756(2)
N11 N 0.4307(4) 0.24295(14) 0.66767(13)
O3 O 0.5160(4) 0.47937(13) 0.80714(14)
O4 O 0.4837(4) 0.37028(14) 0.87590(14)
N12 N 0.4748(4) 0.36691(14) 0.73819(14)
N13 N 0.4434(4) 0.23077(14) 0.79845(14)
N14 N 0.4921(4) 0.40484(15) 0.80983(14)
N15 N 0.4129(4) 0.16246(15) 0.68315(16)
N16 N 0.4278(4) 0.26915(16) 0.46531(15)
N17 N 0.4215(4) 0.15674(15) 0.76050(16)
N18 N 0.4419(4) 0.21877(15) 0.52752(15)
N19 N 0.4046(5) 0.34611(16) 0.56387(16)
N20 N 0.4080(5) 0.34461(16) 0.48390(16)
C3 C 0.4506(4) 0.28522(17) 0.73974(16)
C4 C 0.4253(5) 0.26942(17) 0.58723(17)
H2 H 0.433(5) 0.253(2) 0.4162(14)
N21 N 0.9141(5) 0.37733(14) 1.00567(15)
H3 H 0.8117 0.4090 0.9991
H4 H 0.9142 0.3500 0.9622
H5 H 1.026(4) 0.398(2) 1.023(3)
H6 H 0.887(10) 0.350(3) 1.046(2)
O5 O 0.6983(4) 0.53209(16) 0.97284(17)
H7 H 0.6182 0.5283 0.9272
H8 H 0.6538 0.5681 1.0022
N22 N 0.4763(6) 0.51109(17) 0.62536(17)
H9 H 0.5048 0.5453 0.6642
H10 H 0.3704 0.5266 0.5929
H11 H 0.460(10) 0.466(2) 0.650(4)
H12 H 0.561(8) 0.491(4) 0.600(4)
O6 O 0.8190(5) 0.03409(18) 1.02924(19)
H13 H 0.8879 0.0060 1.0673
H14 H 0.8654 0.0824 1.0311
loop_
_geom_bond_atom_site_label_1
_geom_bond_atom_site_label_2
_geom_bond_site_symmetry_1
_geom_bond_site_symmetry_2
N1 N5 1_555 1_555
N2 N6 1_555 1_555
O1 N6 1_555 1_555
O2 N6 1_555 1_555
N3 N8 1_555 1_555
N4 N7 1_555 1_555
N5 N7 1_555 1_555
N8 C2 1_555 1_555
C1 N1 1_555 1_555
N9 C2 1_555 1_555
C2 N1 1_555 1_555
N10 N3 1_555 1_555
H1 N3 1_555 1_555
N11 N15 1_555 1_555
O3 N14 1_555 1_555
O4 N14 1_555 1_555
N12 N14 1_555 1_555
N13 N17 1_555 1_555
N15 N17 1_555 1_555
N16 N18 1_555 1_555
N18 C4 1_555 1_555
N19 N20 1_555 1_555
N20 N16 1_555 1_555
C3 N11 1_555 1_555
C4 N11 1_555 1_555
H2 N16 1_555 1_555
N21 H3 1_555 1_555
H4 N21 1_555 1_555
H5 N21 1_555 1_555
H6 N21 1_555 1_555
O5 H7 1_555 1_555
H8 O5 1_555 1_555
N22 H9 1_555 1_555
H10 N22 1_555 1_555
H11 N22 1_555 1_555
H12 N22 1_555 1_555
O6 H13 1_555 1_555
H14 O6 1_555 1_555
N2 C1 1_555 1_555
N4 C1 1_555 1_555
N9 N10 1_555 1_555
N12 C3 1_555 1_555
N13 C3 1_555 1_555
N19 C4 1_555 1_555

#END
