
#######################################################################
#
#                 Cambridge Crystallographic Data Centre
#                                CCDC 
#
#######################################################################
#
# If this CIF has been generated from an entry in the Cambridge 
# Structural Database, then it will include bibliographic, chemical, 
# crystal, experimental, refinement or atomic coordinate data resulting 
# from the CCDC's data processing and validation procedures.
#
#######################################################################

data_DEJFIK
_chemical_formula_moiety         'C38 H24 N2 O2,1.35(C1 H1 Cl3),0.15(C1 H2 Cl2)'
_chemical_name_systematic        
'4-ethynyl-N-{11-[(4-ethynylbenzoyl)amino]pentacyclo[6.6.6.0^2,7^.0^9,14^.0^15,20^]icosa-2,4,6,9,11,13,15,17,19-nonaen-4-yl}benzamide chloroform dichloromethane solvate'
_symmetry_cell_setting           tetragonal
_symmetry_space_group_name_H-M   'P 41'
_symmetry_Int_Tables_number      76
_space_group_name_Hall           'P 4w'
loop_
_symmetry_equiv_pos_site_id
_symmetry_equiv_pos_as_xyz
1 x,y,z
2 -x,-y,1/2+z
3 -y,x,1/4+z
4 y,-x,3/4+z
_cell_length_a                   12.4015(3)
_cell_length_b                   12.4015(3)
_cell_length_c                   44.3208(11)
_cell_angle_alpha                90
_cell_angle_beta                 90
_cell_angle_gamma                90
_cell_volume                     6816.42
_exptl_crystal_colour            colorless
_exptl_crystal_description       plate
_cell_formula_units_Z            8
loop_
_atom_site_label
_atom_site_type_symbol
_atom_site_fract_x
_atom_site_fract_y
_atom_site_fract_z
C1 C 0.2990(6) 0.5275(5) 0.53172(16)
C2 C 0.2526(5) 0.5980(6) 0.51195(18)
H1 H 0.1769 0.5965 0.5086
C3 C 0.3176(6) 0.6728(5) 0.49654(16)
H2 H 0.2853 0.7224 0.4829
C4 C 0.4268(6) 0.6751(6) 0.50093(16)
C5 C 0.4759(5) 0.6026(5) 0.52134(15)
H3 H 0.5514 0.6049 0.5248
C6 C 0.4117(5) 0.5281(6) 0.53626(15)
C7 C 0.4491(6) 0.4403(6) 0.55792(15)
H4 H 0.5289 0.4408 0.5611
C8 C 0.4095(5) 0.3365(6) 0.54454(15)
C9 C 0.4704(5) 0.2463(6) 0.53708(15)
H5 H 0.5455 0.2456 0.5413
C10 C 0.4232(5) 0.1574(6) 0.52363(15)
H6 H 0.4653 0.0959 0.5187
C11 C 0.3135(5) 0.1593(5) 0.51746(15)
C12 C 0.2508(5) 0.2468(6) 0.52541(16)
H7 H 0.1755 0.2465 0.5214
C13 C 0.2980(5) 0.3346(5) 0.53930(15)
C14 C 0.2429(6) 0.4376(6) 0.54935(17)
H8 H 0.1632 0.4362 0.5460
C15 C 0.2730(6) 0.4555(6) 0.58221(17)
C16 C 0.2046(7) 0.4668(7) 0.60666(18)
H9 H 0.1286 0.4666 0.6038
C17 C 0.2478(8) 0.4785(8) 0.6353(2)
H10 H 0.2005 0.4858 0.6520
C18 C 0.3571(9) 0.4799(8) 0.6401(2)
H11 H 0.3847 0.4894 0.6599
C19 C 0.4277(7) 0.4674(7) 0.61573(18)
H12 H 0.5035 0.4662 0.6189
C20 C 0.3864(6) 0.4568(6) 0.58727(17)
N1 N 0.4918(4) 0.7500(5) 0.48509(13)
H13 H 0.4771 0.8192 0.4866
O1 O 0.6011(4) 0.6237(4) 0.46542(12)
C21 C 0.5753(6) 0.7188(5) 0.46783(16)
C22 C 0.6420(5) 0.8044(6) 0.45265(15)
C23 C 0.6154(6) 0.9131(6) 0.45113(18)
H14 H 0.5500 0.9373 0.4600
C24 C 0.6809(6) 0.9854(6) 0.43722(18)
H15 H 0.6594 1.0589 0.4363
C25 C 0.7779(6) 0.9553(6) 0.42438(17)
C26 C 0.8047(6) 0.8454(7) 0.4256(2)
H16 H 0.8698 0.8216 0.4165
C27 C 0.7394(7) 0.7715(7) 0.4396(2)
H17 H 0.7602 0.6979 0.4405
C28 C 0.8499(6) 1.0308(7) 0.41039(19)
C29 C 0.9079(8) 1.0922(9) 0.3991(2)
H18 H 0.9553 1.1425 0.3899
N2 N 0.2587(4) 0.0728(5) 0.50290(13)
H19 H 0.1878 0.0747 0.5037
O2 O 0.4000(4) -0.0309(4) 0.48698(13)
C30 C 0.3016(5) -0.0112(6) 0.48806(16)
C31 C 0.2255(5) -0.0828(6) 0.47173(16)
C32 C 0.2557(7) -0.1234(6) 0.44375(17)
H20 H 0.3208 -0.0996 0.4347
C33 C 0.1927(7) -0.1970(6) 0.42922(19)
H21 H 0.2146 -0.2242 0.4101
C34 C 0.0971(6) -0.2328(6) 0.4420(2)
C35 C 0.0659(6) -0.1922(7) 0.4693(2)
H22 H 0.0003 -0.2164 0.4781
C36 C 0.1281(6) -0.1163(7) 0.4845(2)
H23 H 0.1048 -0.0876 0.5033
C37 C 0.0339(8) -0.3161(8) 0.4276(3)
C38 C -0.0185(8) -0.3819(9) 0.4158(3)
H24 H -0.0612 -0.4354 0.4062
C39 C 0.1330(5) 0.3591(5) 0.45340(15)
C40 C 0.0612(5) 0.4042(6) 0.47339(16)
H25 H 0.0620 0.4798 0.4768
C41 C -0.0126(5) 0.3396(6) 0.48866(16)
H26 H -0.0610 0.3706 0.5028
C42 C -0.0148(5) 0.2296(5) 0.48304(15)
C43 C 0.0559(5) 0.1824(5) 0.46182(15)
H27 H 0.0523 0.1074 0.4575
C44 C 0.1302(5) 0.2472(5) 0.44754(15)
C45 C 0.2127(5) 0.2121(5) 0.42419(15)
H28 H 0.2107 0.1329 0.4200
C46 C 0.3208(5) 0.2501(5) 0.43616(15)
C47 C 0.4108(5) 0.1873(5) 0.44181(16)
H29 H 0.4106 0.1130 0.4367
C48 C 0.5015(5) 0.2328(5) 0.45498(16)
H30 H 0.5634 0.1895 0.4585
C49 C 0.5030(5) 0.3407(5) 0.46312(15)
C50 C 0.4137(5) 0.4065(5) 0.45605(15)
H31 H 0.4149 0.4815 0.4605
C51 C 0.3245(5) 0.3601(5) 0.44254(14)
C52 C 0.2191(5) 0.4178(5) 0.43509(14)
H32 H 0.2218 0.4969 0.4393
C53 C 0.1916(5) 0.3923(5) 0.40242(15)
C54 C 0.1672(6) 0.4643(6) 0.38013(16)
H33 H 0.1711 0.5396 0.3839
C55 C 0.1364(6) 0.4262(7) 0.35173(17)
H34 H 0.1184 0.4760 0.3362
C56 C 0.1319(6) 0.3171(7) 0.34598(16)
H35 H 0.1109 0.2923 0.3266
C57 C 0.1580(5) 0.2433(6) 0.36835(16)
H36 H 0.1549 0.1681 0.3644
C58 C 0.1882(5) 0.2804(5) 0.39629(15)
N3 N -0.0915(4) 0.1623(5) 0.49822(13)
H37 H -0.1608 0.1733 0.4954
O3 O 0.0361(4) 0.0675(4) 0.52278(12)
C59 C -0.0596(5) 0.0827(6) 0.51673(15)
C60 C -0.1459(5) 0.0119(5) 0.53006(15)
C61 C -0.2492(6) 0.0053(6) 0.51894(16)
H38 H -0.2704 0.0495 0.5025
C62 C -0.3226(6) -0.0659(6) 0.53166(17)
H39 H -0.3940 -0.0696 0.5240
C63 C -0.2924(6) -0.1314(6) 0.55551(17)
C64 C -0.1877(6) -0.1262(6) 0.56665(18)
H40 H -0.1660 -0.1718 0.5828
C65 C -0.1150(6) -0.0538(6) 0.55401(16)
H41 H -0.0437 -0.0491 0.5618
C66 C -0.3676(7) -0.2078(7) 0.56910(19)
C67 C -0.4250(8) -0.2693(8) 0.5803(2)
H42 H -0.4721 -0.3199 0.5896
N4 N 0.5868(4) 0.3908(5) 0.47970(13)
H43 H 0.5842 0.4615 0.4812
O4 O 0.6942(15) 0.2459(9) 0.4897(4)
C68 C 0.6697(8) 0.3417(9) 0.4934(3)
C69 C 0.7307(7) 0.4088(10) 0.5160(3)
C70 C 0.7604(12) 0.3581(11) 0.5430(3)
H44 H 0.7413 0.2848 0.5463
C71 C 0.8168(11) 0.4132(13) 0.5646(3)
H45 H 0.8374 0.3774 0.5827
C72 C 0.8443(12) 0.5204(12) 0.5605(3)
C73 C 0.8161(11) 0.5719(11) 0.5335(4)
H46 H 0.8358 0.6450 0.5302
C74 C 0.7592(12) 0.5159(11) 0.5114(3)
H47 H 0.7399 0.5510 0.4931
C75 C 0.9028(14) 0.5819(12) 0.5829(4)
C76 C 0.9469(19) 0.6241(14) 0.6027(5)
H48 H 0.9831 0.6586 0.6190
C77 C 0.1353(6) 0.8675(5) 0.3378(2)
H49 H 0.0973 0.8610 0.3179
Cl1 Cl 0.2416(2) 0.9586(2) 0.33288(7)
Cl2 Cl 0.0419(2) 0.9181(2) 0.36394(5)
Cl3 Cl 0.1750(2) 0.7370(2) 0.34865(6)
C78 C 0.2803(7) 0.7896(8) 0.5719(2)
H50 H 0.3178 0.7353 0.5590
Cl4 Cl 0.3045(6) 0.7576(5) 0.60961(12)
Cl5 Cl 0.3296(6) 0.9170(4) 0.56291(14)
Cl6 Cl 0.1419(4) 0.7822(7) 0.56483(13)
C79 C 0.6591(9) 0.7761(7) 0.6612(4)
H51 H 0.6945 0.7876 0.6812
Cl7 Cl 0.6439(3) 0.9023(2) 0.64449(9)
Cl8 Cl 0.5335(5) 0.7168(5) 0.66798(18)
H52 H 0.6770 0.7624 0.6356
H53? H 0.5858 0.4617 0.4796
O5? O 0.687(5) 0.249(3) 0.4955(14)
C80? C 0.6668(18) 0.347(2) 0.4954(6)
C81? C 0.7350(18) 0.418(3) 0.5149(7)
C82? C 0.762(4) 0.383(3) 0.5440(8)
H54? H 0.7389 0.3138 0.5507
C83? C 0.821(3) 0.448(4) 0.5629(8)
H55? H 0.8356 0.4243 0.5829
C84? C 0.859(4) 0.546(3) 0.5533(9)
C85? C 0.834(4) 0.582(3) 0.5244(10)
H56? H 0.8585 0.6503 0.5177
C86? C 0.772(4) 0.518(3) 0.5053(9)
H57? H 0.7561 0.5422 0.4855
C87? C 0.931(4) 0.607(4) 0.5727(12)
C88? C 0.980(5) 0.650(5) 0.5915(14)
H58? H 1.0191 0.6855 0.6070
C89? C 0.306(3) 0.815(2) 0.5718(8)
H59? H 0.3463 0.7719 0.5565
Cl9? Cl 0.292(4) 0.737(3) 0.6045(9)
Cl10? Cl 0.378(3) 0.933(2) 0.5795(10)
Cl11? Cl 0.179(3) 0.848(3) 0.5572(6)
C90? C 0.660(2) 0.740(3) 0.6564(10)
H60? H 0.7172 0.6911 0.6636
Cl12? Cl 0.6507(19) 0.8525(18) 0.6798(6)
Cl13? Cl 0.5354(19) 0.6734(19) 0.6571(5)
Cl14? Cl 0.7384(3) 0.6845(3) 0.64112(10)
loop_
_geom_bond_atom_site_label_1
_geom_bond_atom_site_label_2
_geom_bond_site_symmetry_1
_geom_bond_site_symmetry_2
C1 C2 1_555 1_555
C2 H1 1_555 1_555
C3 C2 1_555 1_555
H2 C3 1_555 1_555
C4 C3 1_555 1_555
C5 C4 1_555 1_555
H3 C5 1_555 1_555
C6 C1 1_555 1_555
C7 C6 1_555 1_555
H4 C7 1_555 1_555
C8 C7 1_555 1_555
C9 C8 1_555 1_555
H5 C9 1_555 1_555
C10 C9 1_555 1_555
H6 C10 1_555 1_555
C11 C10 1_555 1_555
C12 C11 1_555 1_555
H7 C12 1_555 1_555
C13 C8 1_555 1_555
C14 C1 1_555 1_555
H8 C14 1_555 1_555
C15 C14 1_555 1_555
C16 C15 1_555 1_555
H9 C16 1_555 1_555
C17 C16 1_555 1_555
H10 C17 1_555 1_555
C18 C17 1_555 1_555
H11 C18 1_555 1_555
C19 C18 1_555 1_555
H12 C19 1_555 1_555
C20 C7 1_555 1_555
N1 C4 1_555 1_555
H13 N1 1_555 1_555
O1 C21 1_555 1_555
C21 N1 1_555 1_555
C22 C21 1_555 1_555
C23 C22 1_555 1_555
H14 C23 1_555 1_555
C24 C23 1_555 1_555
H15 C24 1_555 1_555
C25 C24 1_555 1_555
C26 C25 1_555 1_555
H16 C26 1_555 1_555
C27 C22 1_555 1_555
H17 C27 1_555 1_555
C28 C25 1_555 1_555
C29 C28 1_555 1_555
H18 C29 1_555 1_555
N2 C11 1_555 1_555
H19 N2 1_555 1_555
O2 C30 1_555 1_555
C30 N2 1_555 1_555
C31 C30 1_555 1_555
C32 C31 1_555 1_555
H20 C32 1_555 1_555
C33 C32 1_555 1_555
H21 C33 1_555 1_555
C34 C33 1_555 1_555
C35 C34 1_555 1_555
H22 C35 1_555 1_555
C36 C31 1_555 1_555
H23 C36 1_555 1_555
C37 C34 1_555 1_555
C38 C37 1_555 1_555
H24 C38 1_555 1_555
C39 C40 1_555 1_555
C40 H25 1_555 1_555
C41 C40 1_555 1_555
H26 C41 1_555 1_555
C42 C41 1_555 1_555
C43 C42 1_555 1_555
H27 C43 1_555 1_555
C44 C39 1_555 1_555
C45 C44 1_555 1_555
H28 C45 1_555 1_555
C46 C45 1_555 1_555
C47 C46 1_555 1_555
H29 C47 1_555 1_555
C48 C47 1_555 1_555
H30 C48 1_555 1_555
C49 C48 1_555 1_555
C50 C49 1_555 1_555
H31 C50 1_555 1_555
C51 C46 1_555 1_555
C52 C39 1_555 1_555
H32 C52 1_555 1_555
C53 C52 1_555 1_555
C54 C53 1_555 1_555
H33 C54 1_555 1_555
C55 C54 1_555 1_555
H34 C55 1_555 1_555
C56 C55 1_555 1_555
H35 C56 1_555 1_555
C57 C56 1_555 1_555
H36 C57 1_555 1_555
C58 C45 1_555 1_555
N3 C42 1_555 1_555
H37 N3 1_555 1_555
O3 C59 1_555 1_555
C59 N3 1_555 1_555
C60 C59 1_555 1_555
C61 C60 1_555 1_555
H38 C61 1_555 1_555
C62 C61 1_555 1_555
H39 C62 1_555 1_555
C63 C62 1_555 1_555
C64 C63 1_555 1_555
H40 C64 1_555 1_555
C65 C60 1_555 1_555
H41 C65 1_555 1_555
C66 C63 1_555 1_555
C67 C66 1_555 1_555
H42 C67 1_555 1_555
N4 C49 1_555 1_555
H43 N4 1_555 1_555
O4 C68 1_555 1_555
C68 N4 1_555 1_555
C69 C68 1_555 1_555
C70 C69 1_555 1_555
H44 C70 1_555 1_555
C71 C70 1_555 1_555
H45 C71 1_555 1_555
C72 C71 1_555 1_555
C73 C72 1_555 1_555
H46 C73 1_555 1_555
C74 C69 1_555 1_555
H47 C74 1_555 1_555
C75 C72 1_555 1_555
C76 C75 1_555 1_555
H48 C76 1_555 1_555
C77 H49 1_555 1_555
Cl1 C77 1_555 1_555
Cl2 C77 1_555 1_555
Cl3 C77 1_555 1_555
C78 H50 1_555 1_555
Cl4 C78 1_555 1_555
Cl5 C78 1_555 1_555
Cl6 C78 1_555 1_555
C79 H51 1_555 1_555
Cl7 C79 1_555 1_555
Cl8 C79 1_555 1_555
H52 C79 1_555 1_555
C5 C6 1_555 1_555
C12 C13 1_555 1_555
C13 C14 1_555 1_555
C15 C20 1_555 1_555
C19 C20 1_555 1_555
C26 C27 1_555 1_555
C35 C36 1_555 1_555
C43 C44 1_555 1_555
C50 C51 1_555 1_555
C51 C52 1_555 1_555
C53 C58 1_555 1_555
C57 C58 1_555 1_555
C64 C65 1_555 1_555
C73 C74 1_555 1_555

#END
