
#######################################################################
#
#                 Cambridge Crystallographic Data Centre
#                                CCDC 
#
#######################################################################
#
# If this CIF has been generated from an entry in the Cambridge 
# Structural Database, then it will include bibliographic, chemical, 
# crystal, experimental, refinement or atomic coordinate data resulting 
# from the CCDC's data processing and validation procedures.
#
#######################################################################

data_DEJFEG
_chemical_formula_moiety         'C2 H2 N9 1-,K1 1+'
_chemical_name_systematic        
'potassium 5-(5-amino-1H-tetrazol-1-yl)tetrazol-2-ide'
_symmetry_cell_setting           monoclinic
_symmetry_space_group_name_H-M   'P 21/c'
_symmetry_Int_Tables_number      14
_space_group_name_Hall           '-P 2ybc'
loop_
_symmetry_equiv_pos_site_id
_symmetry_equiv_pos_as_xyz
1 x,y,z
2 -x,1/2+y,1/2-z
3 -x,-y,-z
4 x,1/2-y,1/2+z
_cell_length_a                   7.767(3)
_cell_length_b                   11.993(4)
_cell_length_c                   7.360(3)
_cell_angle_alpha                90
_cell_angle_beta                 101.904(14)
_cell_angle_gamma                90
_cell_volume                     670.838
_exptl_crystal_colour            'whiteish colorless'
_exptl_crystal_description       block
_cell_formula_units_Z            4
loop_
_atom_site_label
_atom_site_type_symbol
_atom_site_fract_x
_atom_site_fract_y
_atom_site_fract_z
K1 K 0.86409(4) 0.73879(2) 0.43818(4)
N1 N 0.68095(15) 0.37443(9) 0.84942(17)
N2 N 0.97543(16) 0.40264(10) 0.80418(18)
N3 N 1.05507(16) 0.49267(10) 0.74767(18)
N4 N 0.94497(16) 0.57584(10) 0.71334(18)
N5 N 0.78685(16) 0.54454(10) 0.74701(18)
N6 N 0.42871(16) 0.30713(10) 0.87937(19)
N7 N 0.71242(18) 0.26966(10) 0.9255(2)
N8 N 0.42969(18) 0.48914(11) 0.7493(2)
N9 N 0.56107(18) 0.23257(11) 0.9415(2)
C1 C 0.81358(18) 0.43940(11) 0.80094(19)
C2 C 0.50641(19) 0.39586(12) 0.8222(2)
H1 H 0.493(2) 0.5384(15) 0.713(2)
H2 H 0.310(3) 0.4971(15) 0.739(3)
loop_
_geom_bond_atom_site_label_1
_geom_bond_atom_site_label_2
_geom_bond_site_symmetry_1
_geom_bond_site_symmetry_2
N1 N7 1_555 1_555
N2 N3 1_555 1_555
N3 N4 1_555 1_555
N4 N5 1_555 1_555
N5 C1 1_555 1_555
N6 N9 1_555 1_555
N7 N9 1_555 1_555
N8 C2 1_555 1_555
C1 N1 1_555 1_555
C2 N1 1_555 1_555
H1 N8 1_555 1_555
H2 N8 1_555 1_555
N2 C1 1_555 1_555
N6 C2 1_555 1_555

#END
