
#######################################################################
#
#                 Cambridge Crystallographic Data Centre
#                                CCDC 
#
#######################################################################
#
# If this CIF has been generated from an entry in the Cambridge 
# Structural Database, then it will include bibliographic, chemical, 
# crystal, experimental, refinement or atomic coordinate data resulting 
# from the CCDC's data processing and validation procedures.
#
#######################################################################

data_DEJGAA
_chemical_formula_moiety         'C12 H12 N2 2+,2(Br1 1-),C1 H4 O1'
_chemical_name_systematic        
"6,12-Dihydro-dipyrido(1,2-a:1',2'-d)pyrazinium dibromide methanol solvate"
_symmetry_cell_setting           orthorhombic
_symmetry_space_group_name_H-M   'C m c 21'
_symmetry_Int_Tables_number      36
_space_group_name_Hall           'C 2n -2'
loop_
_symmetry_equiv_pos_site_id
_symmetry_equiv_pos_as_xyz
1 x,y,z
2 1/2+x,1/2+y,z
3 -x,y,z
4 1/2-x,1/2+y,z
5 x,-y,1/2+z
6 1/2+x,1/2-y,1/2+z
7 -x,-y,1/2+z
8 1/2-x,1/2-y,1/2+z
_cell_length_a                   8.113(4)
_cell_length_b                   12.214(6)
_cell_length_c                   13.700(7)
_cell_angle_alpha                90
_cell_angle_beta                 90
_cell_angle_gamma                90
_cell_volume                     1357.56
_exptl_crystal_colour            purple
_cell_formula_units_Z            4
loop_
_atom_site_label
_atom_site_type_symbol
_atom_site_fract_x
_atom_site_fract_y
_atom_site_fract_z
Br2 Br 0.0000 0.2488(1) 0.5995(2)
C1 C 0.1686(12) 0.3778(7) 0.2718(8)
C2 C 0.0875(14) 0.3445(7) 0.3513(8)
C3 C 0.0862(11) 0.3616(7) -0.1525(7)
C4 C 0.1706(12) 0.3920(7) -0.0665(7)
C5 C 0.1684(12) 0.4580(7) 0.1050(8)
C6 C 0.0843(10) 0.4222(7) 0.0153(7)
N1 N 0.0844(10) 0.4131(7) 0.1937(6)
H1 H 0.2869 0.3767 0.2707
H2 H 0.1472 0.3207 0.4080
H3 H 0.1463 0.3412 -0.2100
H4 H 0.2889 0.3917 -0.0652
H5 H 0.2804 0.4327 0.1037
H6 H 0.1671 0.5366 0.1080
C2B C -0.0875(14) 0.3445(7) 0.3513(8)
N1B N -0.0844(10) 0.4131(7) 0.1937(6)
C6B C -0.0843(10) 0.4222(7) 0.0153(7)
C3B C -0.0862(11) 0.3616(7) -0.1525(7)
C1B C -0.1686(12) 0.3778(7) 0.2718(8)
H2B H -0.1472 0.3207 0.4080
C5B C -0.1684(12) 0.4580(7) 0.1050(8)
C4B C -0.1706(12) 0.3920(7) -0.0665(7)
H3B H -0.1463 0.3412 -0.2100
H1B H -0.2869 0.3767 0.2707
H5B H -0.2804 0.4327 0.1037
H6B H -0.1671 0.5366 0.1080
H4B H -0.2889 0.3917 -0.0652
Br1 Br 0.0000 0.0766(1) 0.2500
loop_
_geom_bond_atom_site_label_1
_geom_bond_atom_site_label_2
_geom_bond_site_symmetry_1
_geom_bond_site_symmetry_2
C1 C2 1_555 1_555
C2 H2 1_555 1_555
C3 C4 1_555 1_555
C4 C6 1_555 1_555
C5 C6 1_555 1_555
C6 C6B 1_555 1_555
N1 C1 1_555 1_555
H1 C1 1_555 1_555
H3 C3 1_555 1_555
H4 C4 1_555 1_555
H5 C5 1_555 1_555
H6 C5 1_555 1_555
C2B C2 1_555 1_555
N1B N1 1_555 1_555
C6B C5B 1_555 1_555
C3B C3 1_555 1_555
C1B C2B 1_555 1_555
H2B C2B 1_555 1_555
C5B N1B 1_555 1_555
C4B C6B 1_555 1_555
H3B C3B 1_555 1_555
H1B C1B 1_555 1_555
H5B C5B 1_555 1_555
H6B C5B 1_555 1_555
H4B C4B 1_555 1_555
C5 N1 1_555 1_555
N1B C1B 1_555 1_555
C3B C4B 1_555 1_555

#END
