
#######################################################################
#
#                 Cambridge Crystallographic Data Centre
#                                CCDC 
#
#######################################################################
#
# If this CIF has been generated from an entry in the Cambridge 
# Structural Database, then it will include bibliographic, chemical, 
# crystal, experimental, refinement or atomic coordinate data resulting 
# from the CCDC's data processing and validation procedures.
#
#######################################################################

data_DEJGIL
_chemical_formula_moiety         'C24 H24 Cl1 N2 O3 P1'
_chemical_name_systematic        
'diethyl [(5-chloro-2-phenyl-2H-indazol-3-yl)(phenyl)methyl]phosphonate'
_symmetry_cell_setting           monoclinic
_symmetry_space_group_name_H-M   'P 21/n'
_symmetry_Int_Tables_number      14
_space_group_name_Hall           '-P 2yn'
loop_
_symmetry_equiv_pos_site_id
_symmetry_equiv_pos_as_xyz
1 x,y,z
2 1/2-x,1/2+y,1/2-z
3 -x,-y,-z
4 1/2+x,1/2-y,1/2+z
_cell_length_a                   10.918(2)
_cell_length_b                   14.453(3)
_cell_length_c                   14.576(3)
_cell_angle_alpha                90
_cell_angle_beta                 95.125(6)
_cell_angle_gamma                90
_cell_volume                     2290.87
_exptl_crystal_colour            colorless
_exptl_crystal_description       block
_cell_formula_units_Z            4
_exptl_crystal_recrystallization_method dichloromethane
loop_
_atom_site_label
_atom_site_type_symbol
_atom_site_fract_x
_atom_site_fract_y
_atom_site_fract_z
Cl1 Cl 0.03754(7) 0.33387(7) 0.80770(6)
P1 P 0.57000(7) 0.40037(6) 0.84411(5)
O1 O 0.48482(19) 0.37422(15) 0.91110(13)
O2 O 0.5443(2) 0.49560(14) 0.79569(14)
O3 O 0.70827(19) 0.40418(17) 0.88275(14)
N1 N 0.4883(2) 0.34035(15) 0.58282(14)
N2 N 0.3833(2) 0.34673(17) 0.52525(15)
C1 C 0.2942(3) 0.34697(18) 0.58411(18)
C2 C 0.1654(3) 0.3492(2) 0.5607(2)
H1 H 0.1325 0.3532 0.4990
C3 C 0.0914(3) 0.3454(2) 0.6303(2)
H2 H 0.0056 0.3460 0.6167
C4 C 0.1413(3) 0.34058(19) 0.7237(2)
C5 C 0.2639(2) 0.33898(18) 0.74920(18)
H3 H 0.2946 0.3363 0.8115
C6 C 0.3437(2) 0.34158(17) 0.67720(17)
C7 C 0.4706(2) 0.33703(18) 0.67369(16)
C8 C 0.5778(2) 0.32530(19) 0.74475(17)
H4 H 0.6510 0.3457 0.7147
C9 C 0.6023(2) 0.2246(2) 0.77259(16)
C10 C 0.5075(3) 0.1611(2) 0.77161(19)
H5 H 0.4261 0.1807 0.7564
C11 C 0.5308(3) 0.0691(2) 0.7928(2)
H6 H 0.4655 0.0265 0.7916
C12 C 0.6498(3) 0.0398(2) 0.8156(2)
H7 H 0.6662 -0.0227 0.8295
C13 C 0.7431(3) 0.1021(3) 0.8178(2)
H8 H 0.8242 0.0824 0.8341
C14 C 0.7204(3) 0.1944(2) 0.7962(2)
H9 H 0.7861 0.2366 0.7977
C15 C 0.6038(2) 0.33157(19) 0.54259(17)
C16 C 0.6638(3) 0.2480(2) 0.54716(19)
H10 H 0.6301 0.1975 0.5768
C17 C 0.7737(3) 0.2382(3) 0.50809(19)
H11 H 0.8145 0.1809 0.5102
C18 C 0.8231(3) 0.3130(3) 0.4661(2)
H12 H 0.8983 0.3070 0.4400
C19 C 0.7630(3) 0.3962(3) 0.4623(2)
H13 H 0.7971 0.4470 0.4335
C20 C 0.6524(3) 0.4059(2) 0.5005(2)
H14 H 0.6110 0.4630 0.4977
C21 C 0.4872(4) 0.5750(3) 0.8371(3)
H15 H 0.4795 0.5627 0.9025
H16 H 0.5394 0.6297 0.8327
C22 C 0.3662(4) 0.5928(3) 0.7902(3)
H17 H 0.3742 0.6067 0.7259
H18 H 0.3289 0.6450 0.8190
H19 H 0.3147 0.5385 0.7946
C23 C 0.7578(6) 0.3813(5) 0.9723(4)
H20 H 0.8100 0.3262 0.9706
H21 H 0.6915 0.3679 1.0114
C24 C 0.8311(11) 0.4605(7) 1.0097(8)
H22 H 0.8724 0.4892 0.9608
H23 H 0.8917 0.4392 1.0577
H24 H 0.7773 0.5053 1.0352
C25? C 0.7483(10) 0.4449(9) 0.9678(7)
H25? H 0.6859 0.4343 1.0110
H26? H 0.7554 0.5118 0.9593
C26? C 0.8644(10) 0.4100(8) 1.0079(9)
H27? H 0.9293 0.4294 0.9708
H28? H 0.8615 0.3429 1.0100
H29? H 0.8806 0.4341 1.0699
loop_
_geom_bond_atom_site_label_1
_geom_bond_atom_site_label_2
_geom_bond_site_symmetry_1
_geom_bond_site_symmetry_2
Cl1 C4 1_555 1_555
P1 O1 1_555 1_555
O2 P1 1_555 1_555
O3 P1 1_555 1_555
N1 N2 1_555 1_555
N2 C1 1_555 1_555
C1 C2 1_555 1_555
C2 H1 1_555 1_555
C3 C2 1_555 1_555
H2 C3 1_555 1_555
C4 C3 1_555 1_555
C5 C4 1_555 1_555
H3 C5 1_555 1_555
C6 C1 1_555 1_555
C7 N1 1_555 1_555
C8 P1 1_555 1_555
H4 C8 1_555 1_555
C9 C8 1_555 1_555
C10 C9 1_555 1_555
H5 C10 1_555 1_555
C11 C10 1_555 1_555
H6 C11 1_555 1_555
C12 C11 1_555 1_555
H7 C12 1_555 1_555
C13 C12 1_555 1_555
H8 C13 1_555 1_555
C14 C9 1_555 1_555
H9 C14 1_555 1_555
C15 N1 1_555 1_555
C16 C15 1_555 1_555
H10 C16 1_555 1_555
C17 C16 1_555 1_555
H11 C17 1_555 1_555
C18 C17 1_555 1_555
H12 C18 1_555 1_555
C19 C18 1_555 1_555
H13 C19 1_555 1_555
C20 C15 1_555 1_555
H14 C20 1_555 1_555
C21 O2 1_555 1_555
H15 C21 1_555 1_555
H16 C21 1_555 1_555
C22 C21 1_555 1_555
H17 C22 1_555 1_555
H18 C22 1_555 1_555
H19 C22 1_555 1_555
C23 O3 1_555 1_555
H20 C23 1_555 1_555
H21 C23 1_555 1_555
C24 C23 1_555 1_555
H22 C24 1_555 1_555
H23 C24 1_555 1_555
H24 C24 1_555 1_555
C5 C6 1_555 1_555
C6 C7 1_555 1_555
C7 C8 1_555 1_555
C13 C14 1_555 1_555
C19 C20 1_555 1_555

#END
