
#######################################################################
#
#                 Cambridge Crystallographic Data Centre
#                                CCDC 
#
#######################################################################
#
# If this CIF has been generated from an entry in the Cambridge 
# Structural Database, then it will include bibliographic, chemical, 
# crystal, experimental, refinement or atomic coordinate data resulting 
# from the CCDC's data processing and validation procedures.
#
#######################################################################

data_DEJKAG
_chemical_formula_moiety         'C28 H38 N2 O2'
_chemical_name_systematic        
4,4-Dimethyl-5-phenyl-2-(phenyl((2,2,6,6-tetramethylpiperidin-1-yl)oxy)methyl)-3,4-dihydro-2H-pyrrole-1-oxide
_symmetry_cell_setting           monoclinic
_symmetry_space_group_name_H-M   'P 21/c'
_symmetry_Int_Tables_number      14
_space_group_name_Hall           '-P 2ybc'
loop_
_symmetry_equiv_pos_site_id
_symmetry_equiv_pos_as_xyz
1 x,y,z
2 -x,1/2+y,1/2-z
3 -x,-y,-z
4 x,1/2-y,1/2+z
_cell_length_a                   14.032(6)
_cell_length_b                   17.655(7)
_cell_length_c                   10.352(4)
_cell_angle_alpha                90
_cell_angle_beta                 106.449(4)
_cell_angle_gamma                90
_cell_volume                     2459.59
_exptl_crystal_colour            colorless
_exptl_crystal_description       block
_chemical_melting_point          '171-173 deg.C'
_cell_formula_units_Z            4
loop_
_atom_site_label
_atom_site_type_symbol
_atom_site_fract_x
_atom_site_fract_y
_atom_site_fract_z
C1 C 0.21910(19) -0.13918(14) 0.3927(3)
H1 H 0.2095 -0.1269 0.4754
C2 C 0.17549(19) -0.20301(15) 0.3265(3)
H2 H 0.1358 -0.2332 0.3639
C3 C 0.1900(2) -0.22254(16) 0.2060(3)
H3 H 0.1599 -0.2657 0.1610
C4 C 0.2490(2) -0.17844(17) 0.1517(3)
H4 H 0.2600 -0.1922 0.0704
C5 C 0.29203(19) -0.11389(16) 0.2170(3)
H5 H 0.3316 -0.0841 0.1790
C6 C 0.27727(16) -0.09272(13) 0.3381(2)
C7 C 0.31787(16) -0.02204(13) 0.4073(2)
C8 C 0.29704(16) 0.05685(13) 0.3528(2)
C9 C 0.34949(18) 0.10684(14) 0.4759(2)
H6 H 0.3987 0.1391 0.4540
H7 H 0.3013 0.1387 0.5010
C10 C 0.39940(16) 0.05384(12) 0.5915(2)
H8 H 0.4716 0.0595 0.6111
C11 C 0.37162(15) 0.06121(13) 0.7227(2)
H9 H 0.3833 0.0120 0.7682
C12 C 0.43190(15) 0.11912(13) 0.8180(2)
C13 C 0.46141(17) 0.10310(14) 0.9541(2)
H10 H 0.4428 0.0573 0.9841
C14 C 0.51776(18) 0.15330(15) 1.0462(3)
H11 H 0.5369 0.1412 1.1374
C15 C 0.54569(18) 0.22109(16) 1.0037(3)
H12 H 0.5840 0.2550 1.0657
C16 C 0.51680(18) 0.23858(14) 0.8691(3)
H13 H 0.5349 0.2848 0.8399
C17 C 0.46093(17) 0.18791(14) 0.7768(2)
H14 H 0.4425 0.2001 0.6856
C18 C 0.34068(19) 0.07293(15) 0.2361(2)
H15 H 0.4104 0.0614 0.2632
H16 H 0.3314 0.1254 0.2117
H17 H 0.3077 0.0421 0.1603
C19 C 0.18492(17) 0.06996(15) 0.3069(3)
H18 H 0.1545 0.0341 0.2378
H19 H 0.1715 0.1204 0.2721
H20 H 0.1583 0.0636 0.3821
C20 C 0.16696(17) -0.00159(13) 0.7830(2)
C21 C 0.1094(2) 0.00073(16) 0.8880(3)
H21 H 0.0694 -0.0448 0.8795
H22 H 0.1565 0.0005 0.9771
C22 C 0.0427(2) 0.06867(17) 0.8760(3)
H23 H -0.0084 0.0676 0.7904
H24 H 0.0106 0.0682 0.9477
C23 C 0.1048(2) 0.13870(16) 0.8858(3)
H25 H 0.1519 0.1408 0.9747
H26 H 0.0620 0.1827 0.8762
C24 C 0.16177(17) 0.14302(14) 0.7804(3)
C25 C 0.24424(19) -0.06424(14) 0.8235(3)
H27 H 0.2753 -0.0719 0.7530
H28 H 0.2125 -0.1103 0.8383
H29 H 0.2936 -0.0501 0.9049
C26 C 0.09748(19) -0.02109(16) 0.6445(2)
H30 H 0.0386 0.0095 0.6275
H31 H 0.0796 -0.0736 0.6424
H32 H 0.1305 -0.0114 0.5768
C27 C 0.0908(2) 0.15927(17) 0.6403(3)
H33 H 0.1247 0.1507 0.5731
H34 H 0.0691 0.2110 0.6360
H35 H 0.0342 0.1263 0.6242
C28 C 0.2345(2) 0.20850(15) 0.8187(4)
H36 H 0.2859 0.1958 0.8990
H37 H 0.2000 0.2529 0.8346
H38 H 0.2635 0.2181 0.7468
N1 N 0.37096(13) -0.02280(11) 0.53276(19)
N2 N 0.22113(13) 0.07188(10) 0.79203(18)
O1 O 0.26572(10) 0.07423(9) 0.68110(14)
O2 O 0.40138(13) -0.08108(9) 0.60767(17)
loop_
_geom_bond_atom_site_label_1
_geom_bond_atom_site_label_2
_geom_bond_site_symmetry_1
_geom_bond_site_symmetry_2
C1 H1 1_555 1_555
C2 C1 1_555 1_555
H2 C2 1_555 1_555
C3 C2 1_555 1_555
H3 C3 1_555 1_555
C4 C3 1_555 1_555
H4 C4 1_555 1_555
C5 C4 1_555 1_555
H5 C5 1_555 1_555
C6 C1 1_555 1_555
C7 C6 1_555 1_555
C8 C7 1_555 1_555
C9 C8 1_555 1_555
H6 C9 1_555 1_555
H7 C9 1_555 1_555
C10 C9 1_555 1_555
H8 C10 1_555 1_555
C11 C10 1_555 1_555
H9 C11 1_555 1_555
C12 C11 1_555 1_555
C13 C12 1_555 1_555
H10 C13 1_555 1_555
C14 C13 1_555 1_555
H11 C14 1_555 1_555
C15 C14 1_555 1_555
H12 C15 1_555 1_555
C16 C15 1_555 1_555
H13 C16 1_555 1_555
C17 C12 1_555 1_555
H14 C17 1_555 1_555
C18 C8 1_555 1_555
H15 C18 1_555 1_555
H16 C18 1_555 1_555
H17 C18 1_555 1_555
C19 C8 1_555 1_555
H18 C19 1_555 1_555
H19 C19 1_555 1_555
H20 C19 1_555 1_555
C20 C21 1_555 1_555
C21 H21 1_555 1_555
H22 C21 1_555 1_555
C22 C21 1_555 1_555
H23 C22 1_555 1_555
H24 C22 1_555 1_555
C23 C22 1_555 1_555
H25 C23 1_555 1_555
H26 C23 1_555 1_555
C24 C23 1_555 1_555
C25 C20 1_555 1_555
H27 C25 1_555 1_555
H28 C25 1_555 1_555
H29 C25 1_555 1_555
C26 C20 1_555 1_555
H30 C26 1_555 1_555
H31 C26 1_555 1_555
H32 C26 1_555 1_555
C27 C24 1_555 1_555
H33 C27 1_555 1_555
H34 C27 1_555 1_555
H35 C27 1_555 1_555
C28 C24 1_555 1_555
H36 C28 1_555 1_555
H37 C28 1_555 1_555
H38 C28 1_555 1_555
N1 C7 1_555 1_555
N2 C20 1_555 1_555
O1 C11 1_555 1_555
O2 N1 1_555 1_555
C5 C6 1_555 1_555
C10 N1 1_555 1_555
C16 C17 1_555 1_555
C24 N2 1_555 1_555
N2 O1 1_555 1_555

#END
