
#######################################################################
#
#                 Cambridge Crystallographic Data Centre
#                                CCDC 
#
#######################################################################
#
# If this CIF has been generated from an entry in the Cambridge 
# Structural Database, then it will include bibliographic, chemical, 
# crystal, experimental, refinement or atomic coordinate data resulting 
# from the CCDC's data processing and validation procedures.
#
#######################################################################

data_DEJTET
_chemical_formula_moiety         'C12 H12 Br1 N1 O3'
_chemical_name_systematic        
(3S,4R)-3-(4-Bromophenyl)-4-nitrocyclohexanone
_symmetry_cell_setting           orthorhombic
_symmetry_space_group_name_H-M   'P 21 21 2'
_symmetry_Int_Tables_number      18
_space_group_name_Hall           'P 2 2ab'
loop_
_symmetry_equiv_pos_site_id
_symmetry_equiv_pos_as_xyz
1 x,y,z
2 -x,-y,z
3 1/2+x,1/2-y,-z
4 1/2-x,1/2+y,-z
_cell_length_a                   5.8470(2)
_cell_length_b                   17.7680(8)
_cell_length_c                   13.5502(5)
_cell_angle_alpha                90
_cell_angle_beta                 90
_cell_angle_gamma                90
_cell_volume                     1407.72
_exptl_crystal_colour            colorless
_exptl_crystal_description       irregular
_cell_formula_units_Z            4
loop_
_atom_site_label
_atom_site_type_symbol
_atom_site_fract_x
_atom_site_fract_y
_atom_site_fract_z
Br1 Br 0.24684(8) 0.07101(2) 0.45794(3)
O1 O 0.2528(5) 0.52230(12) 0.78725(17)
C1 C 0.2490(8) 0.43351(18) 0.9197(2)
H1 H 0.0936 0.4175 0.9396
H2 H 0.2916 0.4775 0.9605
C2 C 0.2451(8) 0.45661(18) 0.8125(2)
C3 C 0.2277(7) 0.39326(19) 0.7398(2)
H3 H 0.2591 0.4131 0.6729
H4 H 0.0690 0.3738 0.7402
O2 O 0.7267(5) 0.24716(16) 0.86820(19)
C4 C 0.2927(6) 0.1473(2) 0.5547(3)
N1 N 0.5269(6) 0.24071(18) 0.8921(2)
C5 C 0.4961(6) 0.1863(2) 0.5556(3)
H5 H 0.6136 0.1741 0.5099
C6 C 0.5280(6) 0.2434(2) 0.6236(3)
H6 H 0.6686 0.2702 0.6245
O3 O 0.4502(5) 0.18599(17) 0.9357(2)
C7 C 0.4171(6) 0.3694(2) 0.9399(3)
H7 H 0.4024 0.3525 1.0092
H8 H 0.5758 0.3871 0.9294
C8 C 0.3561(6) 0.2623(2) 0.6911(3)
C9 C 0.3639(6) 0.3043(2) 0.8698(2)
H9 H 0.2034 0.2868 0.8809
C10 C 0.1539(6) 0.2207(2) 0.6899(3)
H10 H 0.0373 0.2315 0.7366
C11 C 0.3931(6) 0.3274(2) 0.7607(2)
H11 H 0.5530 0.3461 0.7515
C12 C 0.1208(7) 0.1637(2) 0.6214(3)
H12 H -0.0186 0.1362 0.6203
loop_
_geom_bond_atom_site_label_1
_geom_bond_atom_site_label_2
_geom_bond_site_symmetry_1
_geom_bond_site_symmetry_2
Br1 C4 1_555 1_555
O1 C2 1_555 1_555
C1 H1 1_555 1_555
H2 C1 1_555 1_555
C2 C1 1_555 1_555
C3 C2 1_555 1_555
H3 C3 1_555 1_555
H4 C3 1_555 1_555
O2 N1 1_555 1_555
C4 C5 1_555 1_555
N1 O3 1_555 1_555
C5 H5 1_555 1_555
C6 C5 1_555 1_555
H6 C6 1_555 1_555
C7 C1 1_555 1_555
H7 C7 1_555 1_555
H8 C7 1_555 1_555
C8 C6 1_555 1_555
C9 N1 1_555 1_555
H9 C9 1_555 1_555
C10 C8 1_555 1_555
H10 C10 1_555 1_555
C11 C3 1_555 1_555
H11 C11 1_555 1_555
C12 C4 1_555 1_555
H12 C12 1_555 1_555
C7 C9 1_555 1_555
C8 C11 1_555 1_555
C9 C11 1_555 1_555
C10 C12 1_555 1_555

#END
