
#######################################################################
#
#                 Cambridge Crystallographic Data Centre
#                                CCDC 
#
#######################################################################
#
# If this CIF has been generated from an entry in the Cambridge 
# Structural Database, then it will include bibliographic, chemical, 
# crystal, experimental, refinement or atomic coordinate data resulting 
# from the CCDC's data processing and validation procedures.
#
#######################################################################

data_DEJVEW
_chemical_formula_moiety         'C13 H20 N2 O4'
_chemical_name_systematic        
'5-(1,4-diazaspiro[4.5]dec-1-en-3-oxo-2-yl)pentanoic acid 1-oxide'
_symmetry_cell_setting           monoclinic
_symmetry_space_group_name_H-M   'P 21/a'
_symmetry_Int_Tables_number      14
_space_group_name_Hall           '-P 2yab'
loop_
_symmetry_equiv_pos_site_id
_symmetry_equiv_pos_as_xyz
1 x,y,z
2 1/2-x,1/2+y,-z
3 -x,-y,-z
4 1/2+x,1/2-y,z
_cell_length_a                   21.215(5)
_cell_length_b                   10.627(5)
_cell_length_c                   6.129(2)
_cell_angle_alpha                90
_cell_angle_beta                 92.90(2)
_cell_angle_gamma                90
_cell_volume                     1380.02
_exptl_crystal_colour            colorless
_exptl_crystal_description       prismatic
_chemical_melting_point          '412-413 K'
_cell_formula_units_Z            4
loop_
_atom_site_label
_atom_site_type_symbol
_atom_site_fract_x
_atom_site_fract_y
_atom_site_fract_z
O1 O 0.09534(10) 0.42297(18) 0.7732(4)
O2 O 0.08421(8) 0.03706(17) 0.4160(3)
O3 O 0.34212(11) 0.5673(3) 0.0704(4)
O4 O 0.30549(10) 0.4786(2) -0.2314(3)
N1 N 0.07854(10) 0.3162(2) 0.6967(4)
N2 N 0.01699(9) 0.14693(19) 0.6276(3)
C1 C 0.01492(11) 0.2644(2) 0.7473(4)
C2 C 0.07089(11) 0.1297(2) 0.5286(4)
C3 C 0.11062(11) 0.2402(2) 0.5758(4)
C4 C -0.03648(13) 0.3514(2) 0.6571(5)
H1 H -0.0343 0.3579 0.4998
H2 H -0.0304 0.4348 0.7190
C5 C -0.10101(13) 0.3009(3) 0.7129(6)
H3 H -0.1335 0.3597 0.6622
H4 H -0.1087 0.2214 0.6385
C6 C -0.10441(14) 0.2820(3) 0.9579(6)
H5 H -0.1452 0.2470 0.9890
H6 H -0.1002 0.3627 1.0312
C7 C -0.05248(13) 0.1939(3) 1.0458(5)
H7 H -0.0545 0.1866 1.2031
H8 H -0.0589 0.1108 0.9829
C8 C 0.01206(12) 0.2427(3) 0.9907(4)
H9 H 0.0206 0.3211 1.0679
H10 H 0.0442 0.1823 1.0382
C9 C 0.17487(12) 0.2674(3) 0.5033(5)
H11 H 0.1946 0.1891 0.4628
H12 H 0.2000 0.3032 0.6246
C10 C 0.17498(13) 0.3558(3) 0.3148(5)
H13 H 0.1547 0.4335 0.3561
H14 H 0.1496 0.3195 0.1946
C11 C 0.23931(12) 0.3872(3) 0.2345(5)
H15 H 0.2662 0.4155 0.3576
H16 H 0.2578 0.3110 0.1784
C12 C 0.23878(14) 0.4840(4) 0.0634(6)
H17 H 0.2212 0.5603 0.1223
H18 H 0.2104 0.4564 -0.0561
C13 C 0.30061(13) 0.5162(3) -0.0282(5)
H19 H -0.0125(12) 0.098(2) 0.620(4)
H20 H 0.3430(19) 0.505(3) -0.279(6)
loop_
_geom_bond_atom_site_label_1
_geom_bond_atom_site_label_2
_geom_bond_site_symmetry_1
_geom_bond_site_symmetry_2
O1 N1 1_555 1_555
O2 C2 1_555 1_555
O3 C13 1_555 1_555
O4 C13 1_555 1_555
N1 C1 1_555 1_555
N2 C1 1_555 1_555
C1 C4 1_555 1_555
C2 N2 1_555 1_555
C3 N1 1_555 1_555
C4 H1 1_555 1_555
H2 C4 1_555 1_555
C5 C4 1_555 1_555
H3 C5 1_555 1_555
H4 C5 1_555 1_555
C6 C5 1_555 1_555
H5 C6 1_555 1_555
H6 C6 1_555 1_555
C7 C6 1_555 1_555
H7 C7 1_555 1_555
H8 C7 1_555 1_555
C8 C1 1_555 1_555
H9 C8 1_555 1_555
H10 C8 1_555 1_555
C9 C3 1_555 1_555
H11 C9 1_555 1_555
H12 C9 1_555 1_555
C10 C9 1_555 1_555
H13 C10 1_555 1_555
H14 C10 1_555 1_555
C11 C10 1_555 1_555
H15 C11 1_555 1_555
H16 C11 1_555 1_555
C12 C11 1_555 1_555
H17 C12 1_555 1_555
H18 C12 1_555 1_555
C13 C12 1_555 1_555
H19 N2 1_555 1_555
H20 O4 1_555 1_555
C2 C3 1_555 1_555
C7 C8 1_555 1_555

#END
