
#######################################################################
#
#                 Cambridge Crystallographic Data Centre
#                                CCDC 
#
#######################################################################
#
# If this CIF has been generated from an entry in the Cambridge 
# Structural Database, then it will include bibliographic, chemical, 
# crystal, experimental, refinement or atomic coordinate data resulting 
# from the CCDC's data processing and validation procedures.
#
#######################################################################

data_DEJXUN
_chemical_name_common            
'Ethyl 3-oxo-3-phenyl-2,2-bis(p-tosylamino)propanoate dichloromethane solvate'
_chemical_formula_moiety         'C25 H26 N2 O7 S2,C1 H2 Cl2'
_chemical_name_systematic        
'Ethyl N-((4-methylphenyl)sulfonyl)-\a-(((4-methylphenyl)sulfonyl)amino)-\b-oxophenylalaninate dichloromethane solvate'
_symmetry_cell_setting           triclinic
_symmetry_space_group_name_H-M   'P -1'
_symmetry_Int_Tables_number      2
_space_group_name_Hall           '-P 1'
loop_
_symmetry_equiv_pos_site_id
_symmetry_equiv_pos_as_xyz
1 x,y,z
2 -x,-y,-z
_cell_length_a                   11.3640(5)
_cell_length_b                   11.6929(6)
_cell_length_c                   12.1766(6)
_cell_angle_alpha                64.759(2)
_cell_angle_beta                 74.276(2)
_cell_angle_gamma                85.977(2)
_cell_volume                     1406.84
_exptl_crystal_colour            colorless
_exptl_crystal_description       block
_chemical_melting_point          '155-159 deg.C'
_cell_formula_units_Z            2
loop_
_atom_site_label
_atom_site_type_symbol
_atom_site_fract_x
_atom_site_fract_y
_atom_site_fract_z
C1 C 0.83139(15) 0.57927(17) 0.07293(15)
H1 H 0.7725 0.5120 0.0911
H2 H 0.8875 0.6022 -0.0110
H3 H 0.7874 0.6536 0.0756
C2 C 0.90295(13) 0.53319(16) 0.16973(14)
H4 H 0.9435 0.4547 0.1721
H5 H 0.9665 0.5982 0.1495
C3 C 0.86241(11) 0.48284(12) 0.38687(12)
C4 C 0.75729(10) 0.45842(12) 0.50773(11)
C5 C 0.67051(10) 0.35229(12) 0.52078(12)
C6 C 0.71770(11) 0.22699(12) 0.53286(12)
C7 C 0.83175(12) 0.18702(13) 0.55255(13)
H6 H 0.8864 0.2419 0.5568
C8 C 0.86467(13) 0.06564(14) 0.56595(14)
H7 H 0.9422 0.0380 0.5796
C9 C 0.78661(15) -0.01475(14) 0.55968(16)
H8 H 0.8098 -0.0977 0.5702
C10 C 0.67408(14) 0.02555(15) 0.53789(17)
H9 H 0.6207 -0.0296 0.5323
C11 C 0.63905(12) 0.14551(14) 0.52421(15)
H10 H 0.5619 0.1728 0.5090
C12 C 0.75594(12) 0.78977(13) 0.28279(13)
C13 C 0.65108(13) 0.82676(15) 0.24118(14)
H11 H 0.5726 0.8070 0.2999
C14 C 0.66203(16) 0.89285(15) 0.11308(16)
H12 H 0.5905 0.9186 0.0845
C15 C 0.77641(17) 0.92198(15) 0.02581(15)
C16 C 0.7880(2) 0.99432(18) -0.11301(17)
H13 H 0.8530 1.0612 -0.1501
H14 H 0.7103 1.0323 -0.1255
H15 H 0.8083 0.9365 -0.1539
C17 C 0.87924(16) 0.88191(16) 0.07002(16)
H16 H 0.9576 0.9001 0.0111
C18 C 0.87128(13) 0.81597(15) 0.19788(16)
H17 H 0.9428 0.7895 0.2264
C19 C 0.66577(12) 0.49407(13) 0.78792(12)
C20 C 0.54092(13) 0.51218(15) 0.80563(16)
H18 H 0.4891 0.4573 0.7979
C21 C 0.49307(13) 0.61146(16) 0.83468(18)
H19 H 0.4078 0.6239 0.8471
C22 C 0.56756(14) 0.69318(15) 0.84600(15)
C23 C 0.51487(17) 0.79947(18) 0.88021(19)
H20 H 0.4264 0.7994 0.8900
H21 H 0.5534 0.8805 0.8133
H22 H 0.5306 0.7875 0.9596
C24 C 0.69283(14) 0.67398(15) 0.82552(15)
H23 H 0.7451 0.7297 0.8316
C25 C 0.74230(13) 0.57574(14) 0.79659(14)
H24 H 0.8278 0.5641 0.7827
N1 N 0.68491(9) 0.56841(10) 0.49452(10)
H25 H 0.6109(14) 0.5646(16) 0.4939(16)
N2 N 0.81252(9) 0.41565(11) 0.61213(10)
H26 H 0.8785(15) 0.4606(16) 0.5930(16)
O1 O 0.81475(8) 0.50861(10) 0.29163(9)
O2 O 0.96935(8) 0.47706(10) 0.38207(9)
O3 O 0.56704(8) 0.37860(9) 0.51322(10)
O4 O 0.86126(9) 0.69780(10) 0.46481(11)
O5 O 0.65033(9) 0.77281(9) 0.50472(10)
O6 O 0.62956(9) 0.28792(10) 0.76932(10)
O7 O 0.81399(9) 0.31236(10) 0.83195(10)
S1 S 0.74116(3) 0.71060(3) 0.44595(3)
S2 S 0.72847(3) 0.36537(3) 0.75759(3)
loop_
_geom_bond_atom_site_label_1
_geom_bond_atom_site_label_2
_geom_bond_site_symmetry_1
_geom_bond_site_symmetry_2
C1 H1 1_555 1_555
H2 C1 1_555 1_555
H3 C1 1_555 1_555
C2 C1 1_555 1_555
H4 C2 1_555 1_555
H5 C2 1_555 1_555
C3 C4 1_555 1_555
C4 C5 1_555 1_555
C5 C6 1_555 1_555
C6 C7 1_555 1_555
C7 H6 1_555 1_555
C8 C7 1_555 1_555
H7 C8 1_555 1_555
C9 C8 1_555 1_555
H8 C9 1_555 1_555
C10 C9 1_555 1_555
H9 C10 1_555 1_555
C11 C6 1_555 1_555
H10 C11 1_555 1_555
C12 C13 1_555 1_555
C13 H11 1_555 1_555
C14 C13 1_555 1_555
H12 C14 1_555 1_555
C15 C14 1_555 1_555
C16 C15 1_555 1_555
H13 C16 1_555 1_555
H14 C16 1_555 1_555
H15 C16 1_555 1_555
C17 C15 1_555 1_555
H16 C17 1_555 1_555
C18 C12 1_555 1_555
H17 C18 1_555 1_555
C19 C20 1_555 1_555
C20 H18 1_555 1_555
C21 C20 1_555 1_555
H19 C21 1_555 1_555
C22 C21 1_555 1_555
C23 C22 1_555 1_555
H20 C23 1_555 1_555
H21 C23 1_555 1_555
H22 C23 1_555 1_555
C24 C22 1_555 1_555
H23 C24 1_555 1_555
C25 C19 1_555 1_555
H24 C25 1_555 1_555
N1 C4 1_555 1_555
H25 N1 1_555 1_555
N2 C4 1_555 1_555
H26 N2 1_555 1_555
O1 C2 1_555 1_555
O2 C3 1_555 1_555
O3 C5 1_555 1_555
O4 S1 1_555 1_555
O5 S1 1_555 1_555
O6 S2 1_555 1_555
O7 S2 1_555 1_555
S1 C12 1_555 1_555
S2 C19 1_555 1_555
C3 O1 1_555 1_555
C10 C11 1_555 1_555
C17 C18 1_555 1_555
C24 C25 1_555 1_555
N1 S1 1_555 1_555
N2 S2 1_555 1_555

#END
