
#######################################################################
#
#                 Cambridge Crystallographic Data Centre
#                                CCDC 
#
#######################################################################
#
# If this CIF has been generated from an entry in the Cambridge 
# Structural Database, then it will include bibliographic, chemical, 
# crystal, experimental, refinement or atomic coordinate data resulting 
# from the CCDC's data processing and validation procedures.
#
#######################################################################

data_DEJZIE
_chemical_formula_moiety         'C28 H24 N4 O2 S1'
_chemical_name_systematic        
N-(4-(1,3-benzothiazol-2-yl)phenyl)-N^2^-(2-hydroxybenzyl)-N^2^-(pyridin-2-ylmethyl)glycinamide
_symmetry_cell_setting           monoclinic
_symmetry_space_group_name_H-M   'P 21/c'
_symmetry_Int_Tables_number      14
_space_group_name_Hall           '-P 2ybc'
loop_
_symmetry_equiv_pos_site_id
_symmetry_equiv_pos_as_xyz
1 x,y,z
2 -x,1/2+y,1/2-z
3 -x,-y,-z
4 x,1/2-y,1/2+z
_cell_length_a                   9.6309(14)
_cell_length_b                   15.230(2)
_cell_length_c                   17.197(3)
_cell_angle_alpha                90
_cell_angle_beta                 105.222(2)
_cell_angle_gamma                90
_cell_volume                     2433.93
_exptl_crystal_colour            yellow
_exptl_crystal_description       plate
_cell_formula_units_Z            4
loop_
_atom_site_label
_atom_site_type_symbol
_atom_site_fract_x
_atom_site_fract_y
_atom_site_fract_z
C1 C 0.95375(19) -0.21155(11) 1.10139(11)
C2 C 1.0216(2) -0.27168(13) 1.16020(13)
H1 H 1.1133 -0.2929 1.1627
C3 C 0.9473(3) -0.29841(15) 1.21450(12)
H2 H 0.9897 -0.3390 1.2540
C4 C 0.8117(3) -0.26672(15) 1.21208(12)
H3 H 0.7648 -0.2863 1.2497
C5 C 0.7457(2) -0.20672(14) 1.15489(12)
H4 H 0.6548 -0.1852 1.1538
C6 C 0.81687(19) -0.17838(11) 1.09827(10)
C7 C 0.85272(17) -0.10906(10) 0.99179(10)
C8 C 0.82758(18) -0.05223(10) 0.92056(10)
C9 C 0.9315(2) -0.04293(12) 0.87773(11)
H5 H 1.0178 -0.0734 0.8949
C10 C 0.9096(2) 0.01013(12) 0.81091(11)
H6 H 0.9806 0.0154 0.7835
C11 C 0.78074(18) 0.05587(11) 0.78444(10)
C12 C 0.67601(19) 0.04741(13) 0.82703(12)
H7 H 0.5898 0.0780 0.8099
C13 C 0.69927(19) -0.00570(13) 0.89397(11)
H8 H 0.6287 -0.0106 0.9217
C14 C 0.83673(18) 0.13328(11) 0.66869(10)
C15 C 0.77934(19) 0.20773(14) 0.61089(12)
H9 H 0.8227 0.2622 0.6347
H10 H 0.8087 0.1983 0.5617
C16 C 0.5767(2) 0.30943(13) 0.58138(11)
H11 H 0.4739 0.3118 0.5566
H12 H 0.6250 0.3394 0.5461
C17 C 0.60979(19) 0.35551(12) 0.66135(12)
C18 C 0.6886(2) 0.43384(14) 0.67499(17)
H13 H 0.7218 0.4578 0.6335
C19 C 0.7180(3) 0.47627(17) 0.7482(2)
H14 H 0.7714 0.5279 0.7560
C20 C 0.6686(3) 0.44235(19) 0.80929(19)
H15 H 0.6884 0.4709 0.8588
C21 C 0.5899(3) 0.36613(17) 0.79792(15)
H16 H 0.5562 0.3436 0.8398
C22 C 0.5599(2) 0.32238(13) 0.72464(12)
C23 C 0.5521(2) 0.16234(16) 0.52311(12)
H17 H 0.6067 0.1086 0.5248
H18 H 0.5522 0.1926 0.4735
C24 C 0.3986(2) 0.13884(12) 0.52122(10)
C25 C 0.3133(2) 0.09126(13) 0.45727(12)
H19 H 0.3500 0.0736 0.4149
C26 C 0.1743(3) 0.07059(14) 0.45728(13)
H20 H 0.1159 0.0388 0.4150
C27 C 0.1227(2) 0.09763(13) 0.52077(13)
H21 H 0.0292 0.0843 0.5222
C28 C 0.2114(2) 0.14442(12) 0.58156(12)
H22 H 0.1761 0.1628 0.6243
N1 N 0.76150(16) -0.11932(10) 1.03601(9)
N2 N 0.75113(15) 0.11267(10) 0.71797(9)
H23 H 0.6683 0.1378 0.7068
N3 N 0.62362(15) 0.21696(10) 0.59046(8)
N4 N 0.34759(17) 0.16518(10) 0.58257(9)
O1 O 0.95214(14) 0.09927(10) 0.67116(8)
O2 O 0.48324(16) 0.24704(9) 0.72028(8)
H24 H 0.4601 0.2295 0.6736
S1 S 1.01417(5) -0.16875(3) 1.02332(3)
loop_
_geom_bond_atom_site_label_1
_geom_bond_atom_site_label_2
_geom_bond_site_symmetry_1
_geom_bond_site_symmetry_2
C1 C2 1_555 1_555
C2 H1 1_555 1_555
C3 C2 1_555 1_555
H2 C3 1_555 1_555
C4 C3 1_555 1_555
H3 C4 1_555 1_555
C5 C4 1_555 1_555
H4 C5 1_555 1_555
C6 C1 1_555 1_555
C7 C8 1_555 1_555
C8 C9 1_555 1_555
C9 H5 1_555 1_555
C10 C9 1_555 1_555
H6 C10 1_555 1_555
C11 C10 1_555 1_555
C12 C11 1_555 1_555
H7 C12 1_555 1_555
C13 C8 1_555 1_555
H8 C13 1_555 1_555
C14 C15 1_555 1_555
C15 H9 1_555 1_555
H10 C15 1_555 1_555
C16 H11 1_555 1_555
H12 C16 1_555 1_555
C17 C16 1_555 1_555
C18 C17 1_555 1_555
H13 C18 1_555 1_555
C19 C18 1_555 1_555
H14 C19 1_555 1_555
C20 C19 1_555 1_555
H15 C20 1_555 1_555
C21 C20 1_555 1_555
H16 C21 1_555 1_555
C22 C17 1_555 1_555
C23 H17 1_555 1_555
H18 C23 1_555 1_555
C24 C23 1_555 1_555
C25 C24 1_555 1_555
H19 C25 1_555 1_555
C26 C25 1_555 1_555
H20 C26 1_555 1_555
C27 C26 1_555 1_555
H21 C27 1_555 1_555
C28 C27 1_555 1_555
H22 C28 1_555 1_555
N1 C6 1_555 1_555
N2 C11 1_555 1_555
H23 N2 1_555 1_555
N3 C15 1_555 1_555
N4 C24 1_555 1_555
O1 C14 1_555 1_555
O2 C22 1_555 1_555
H24 O2 1_555 1_555
S1 C1 1_555 1_555
C5 C6 1_555 1_555
C7 N1 1_555 1_555
C7 S1 1_555 1_555
C12 C13 1_555 1_555
C14 N2 1_555 1_555
C16 N3 1_555 1_555
C21 C22 1_555 1_555
C23 N3 1_555 1_555
C28 N4 1_555 1_555

#END
