
#######################################################################
#
#                 Cambridge Crystallographic Data Centre
#                                CCDC 
#
#######################################################################
#
# If this CIF has been generated from an entry in the Cambridge 
# Structural Database, then it will include bibliographic, chemical, 
# crystal, experimental, refinement or atomic coordinate data resulting 
# from the CCDC's data processing and validation procedures.
#
#######################################################################

data_DEKDIH
_chemical_formula_moiety         'C58 H47 N1 O6'
_chemical_name_systematic        
4,4'-bis(2-(4-(1',3'-Indandione)-6-t-butyl-4H-pyran-2-yl)ethylene)triphenylamine
_symmetry_cell_setting           triclinic
_symmetry_space_group_name_H-M   'P -1'
_symmetry_Int_Tables_number      2
_space_group_name_Hall           '-P 1'
loop_
_symmetry_equiv_pos_site_id
_symmetry_equiv_pos_as_xyz
1 x,y,z
2 -x,-y,-z
_cell_length_a                   9.982(2)
_cell_length_b                   14.753(3)
_cell_length_c                   17.369(4)
_cell_angle_alpha                73.06(3)
_cell_angle_beta                 89.62(3)
_cell_angle_gamma                88.72(3)
_cell_volume                     2446.24
_cell_formula_units_Z            2
_exptl_crystal_recrystallization_method tetrahydrofuran/methanol
loop_
_atom_site_label
_atom_site_type_symbol
_atom_site_fract_x
_atom_site_fract_y
_atom_site_fract_z
C1 C 1.0397(5) 0.4858(3) 0.3090(3)
C2 C 1.1275(5) 0.4053(3) 0.3043(3)
C3 C 1.2192(5) 0.3962(4) 0.2472(3)
H1 H 1.2335 0.4466 0.2014
C4 C 1.2891(6) 0.3123(4) 0.2586(4)
H2 H 1.3503 0.3060 0.2197
C5 C 1.2705(6) 0.2374(4) 0.3263(4)
H3 H 1.3191 0.1811 0.3332
C6 C 1.1792(6) 0.2459(4) 0.3842(3)
H4 H 1.1650 0.1953 0.4298
C7 C 1.1100(5) 0.3298(3) 0.3733(3)
C8 C 1.0096(5) 0.3596(3) 0.4262(3)
C9 C 0.9661(5) 0.4559(3) 0.3846(2)
C10 C 0.8694(5) 0.5094(3) 0.4113(2)
C11 C 0.8220(5) 0.6000(3) 0.3655(2)
H5 H 0.8591 0.6268 0.3149
C12 C 0.7276(5) 0.6485(3) 0.3910(2)
C13 C 0.6697(5) 0.7457(3) 0.3512(3)
C14 C 0.7123(6) 0.7770(3) 0.2636(3)
H6 H 0.8083 0.7792 0.2604
H7 H 0.6748 0.8389 0.2378
H8 H 0.6808 0.7328 0.2371
C15 C 0.7213(6) 0.8158(3) 0.3940(3)
H9 H 0.8174 0.8170 0.3911
H10 H 0.6937 0.7962 0.4493
H11 H 0.6851 0.8780 0.3682
C16 C 0.5168(6) 0.7426(4) 0.3539(3)
H12 H 0.4868 0.6991 0.3263
H13 H 0.4800 0.8047 0.3282
H14 H 0.4875 0.7221 0.4089
C17 C 0.7154(5) 0.5259(3) 0.5144(3)
C18 C 0.8062(5) 0.4735(3) 0.4886(2)
H15 H 0.8289 0.4131 0.5211
C19 C 0.6456(5) 0.4979(3) 0.5900(2)
H16 H 0.6740 0.4414 0.6269
C20 C 0.5446(5) 0.5445(3) 0.6126(2)
H17 H 0.5160 0.6004 0.5751
C21 C 0.4734(5) 0.5189(3) 0.6887(2)
C22 C 0.3597(5) 0.5676(3) 0.6992(2)
H18 H 0.3283 0.6174 0.6564
C23 C 0.2897(5) 0.5454(3) 0.7711(3)
H19 H 0.2118 0.5792 0.7757
C24 C 0.3352(5) 0.4735(3) 0.8354(2)
C25 C 0.4488(5) 0.4223(3) 0.8268(3)
H20 H 0.4781 0.3717 0.8696
C26 C 0.5196(5) 0.4456(3) 0.7552(3)
H21 H 0.5984 0.4124 0.7511
C27 C 0.2517(5) 0.3548(3) 0.9537(3)
C28 C 0.3006(5) 0.3138(3) 1.0300(3)
H22 H 0.3383 0.3518 1.0580
C29 C 0.2948(6) 0.2174(4) 1.0658(3)
H23 H 0.3280 0.1908 1.1175
C30 C 0.2390(6) 0.1606(3) 1.0240(3)
H24 H 0.2372 0.0952 1.0470
C31 C 0.1870(6) 0.2005(3) 0.9494(3)
H25 H 0.1481 0.1624 0.9218
C32 C 0.1913(5) 0.2961(3) 0.9147(3)
H26 H 0.1533 0.3225 0.8641
C33 C 0.2636(5) 0.5226(3) 0.9519(2)
C34 C 0.3552(5) 0.5959(3) 0.9312(3)
H27 H 0.4171 0.5991 0.8903
C35 C 0.3535(5) 0.6637(3) 0.9716(3)
H28 H 0.4137 0.7130 0.9565
C36 C 0.2644(5) 0.6608(3) 1.0343(3)
C37 C 0.1725(5) 0.5870(3) 1.0537(3)
H29 H 0.1101 0.5835 1.0944
C38 C 0.1738(5) 0.5194(3) 1.0131(2)
H30 H 0.1126 0.4707 1.0273
C39 C 0.2675(5) 0.7302(3) 1.0810(3)
H31 H 0.1997 0.7282 1.1184
C40 C 0.3606(5) 0.7950(3) 1.0730(3)
H32 H 0.4268 0.7974 1.0346
C41 C 0.3682(5) 0.8613(3) 1.1182(3)
C42 C 0.4690(5) 0.9218(3) 1.1154(3)
H33 H 0.5383 0.9241 1.0789
C43 C 0.4734(5) 0.9820(3) 1.1660(3)
C44 C 0.3606(5) 0.9741(3) 1.2187(3)
H34 H 0.3559 1.0125 1.2528
C45 C 0.2609(5) 0.9132(3) 1.2209(3)
C46 C 0.1376(6) 0.8967(4) 1.2716(3)
C47 C 0.1374(9) 0.9598(7) 1.3251(6)
H35 H 0.2104 0.9417 1.3626
H36 H 0.0543 0.9538 1.3541
H37 H 0.1473 1.0243 1.2931
C48 C 0.1284(6) 0.7933(4) 1.3166(3)
H38 H 0.2017 0.7750 1.3538
H39 H 0.1323 0.7565 1.2792
H40 H 0.0453 0.7824 1.3456
C49 C 0.0191(8) 0.9244(5) 1.2146(4)
H41 H -0.0627 0.9140 1.2450
H42 H 0.0207 0.8866 1.1780
H43 H 0.0242 0.9902 1.1848
C50 C 0.5799(5) 1.0413(3) 1.1669(3)
C51 C 0.6982(5) 1.0533(3) 1.1174(3)
C52 C 0.7844(6) 1.1209(3) 1.1406(3)
C53 C 0.9062(6) 1.1589(4) 1.1089(4)
H44 H 0.9457 1.1439 1.0654
C54 C 0.9671(6) 1.2209(4) 1.1455(5)
H45 H 1.0494 1.2466 1.1266
C55 C 0.9071(7) 1.2441(4) 1.2083(5)
H46 H 0.9492 1.2855 1.2312
C56 C 0.7843(7) 1.2070(4) 1.2387(4)
H47 H 0.7440 1.2225 1.2818
C57 C 0.7250(5) 1.1468(3) 1.2029(3)
C58 C 0.5929(6) 1.0992(4) 1.2191(3)
N1 N 0.2661(4) 0.4523(2) 0.9112(2)
O1 O 1.0333(4) 0.5625(2) 0.2563(2)
O2 O 0.9761(4) 0.3082(2) 0.4921(2)
O3 O 0.6731(3) 0.6129(2) 0.46610(17)
O4 O 0.2660(3) 0.8562(2) 1.17139(19)
O5 O 0.7305(4) 1.0141(2) 1.0657(2)
O6 O 0.5154(4) 1.1116(3) 1.2711(3)
loop_
_geom_bond_atom_site_label_1
_geom_bond_atom_site_label_2
_geom_bond_site_symmetry_1
_geom_bond_site_symmetry_2
C1 C2 1_555 1_555
C2 C3 1_555 1_555
C3 H1 1_555 1_555
C4 C3 1_555 1_555
H2 C4 1_555 1_555
C5 C4 1_555 1_555
H3 C5 1_555 1_555
C6 C5 1_555 1_555
H4 C6 1_555 1_555
C7 C2 1_555 1_555
C8 C7 1_555 1_555
C9 C1 1_555 1_555
C10 C9 1_555 1_555
C11 C10 1_555 1_555
H5 C11 1_555 1_555
C12 C11 1_555 1_555
C13 C12 1_555 1_555
C14 C13 1_555 1_555
H6 C14 1_555 1_555
H7 C14 1_555 1_555
H8 C14 1_555 1_555
C15 C13 1_555 1_555
H9 C15 1_555 1_555
H10 C15 1_555 1_555
H11 C15 1_555 1_555
C16 C13 1_555 1_555
H12 C16 1_555 1_555
H13 C16 1_555 1_555
H14 C16 1_555 1_555
C17 C18 1_555 1_555
C18 C10 1_555 1_555
H15 C18 1_555 1_555
C19 C17 1_555 1_555
H16 C19 1_555 1_555
C20 C19 1_555 1_555
H17 C20 1_555 1_555
C21 C20 1_555 1_555
C22 C21 1_555 1_555
H18 C22 1_555 1_555
C23 C22 1_555 1_555
H19 C23 1_555 1_555
C24 C23 1_555 1_555
C25 C24 1_555 1_555
H20 C25 1_555 1_555
C26 C21 1_555 1_555
H21 C26 1_555 1_555
C27 C28 1_555 1_555
C28 H22 1_555 1_555
C29 C28 1_555 1_555
H23 C29 1_555 1_555
C30 C29 1_555 1_555
H24 C30 1_555 1_555
C31 C30 1_555 1_555
H25 C31 1_555 1_555
C32 C27 1_555 1_555
H26 C32 1_555 1_555
C33 C34 1_555 1_555
C34 H27 1_555 1_555
C35 C34 1_555 1_555
H28 C35 1_555 1_555
C36 C35 1_555 1_555
C37 C36 1_555 1_555
H29 C37 1_555 1_555
C38 C33 1_555 1_555
H30 C38 1_555 1_555
C39 C36 1_555 1_555
H31 C39 1_555 1_555
C40 C39 1_555 1_555
H32 C40 1_555 1_555
C41 C40 1_555 1_555
C42 C41 1_555 1_555
H33 C42 1_555 1_555
C43 C42 1_555 1_555
C44 C43 1_555 1_555
H34 C44 1_555 1_555
C45 C44 1_555 1_555
C46 C45 1_555 1_555
C47 C46 1_555 1_555
H35 C47 1_555 1_555
H36 C47 1_555 1_555
H37 C47 1_555 1_555
C48 C46 1_555 1_555
H38 C48 1_555 1_555
H39 C48 1_555 1_555
H40 C48 1_555 1_555
C49 C46 1_555 1_555
H41 C49 1_555 1_555
H42 C49 1_555 1_555
H43 C49 1_555 1_555
C50 C43 1_555 1_555
C51 C50 1_555 1_555
C52 C51 1_555 1_555
C53 C52 1_555 1_555
H44 C53 1_555 1_555
C54 C53 1_555 1_555
H45 C54 1_555 1_555
C55 C54 1_555 1_555
H46 C55 1_555 1_555
C56 C55 1_555 1_555
H47 C56 1_555 1_555
C57 C52 1_555 1_555
C58 C50 1_555 1_555
N1 C24 1_555 1_555
O1 C1 1_555 1_555
O2 C8 1_555 1_555
O3 C12 1_555 1_555
O4 C41 1_555 1_555
O5 C51 1_555 1_555
O6 C58 1_555 1_555
C6 C7 1_555 1_555
C8 C9 1_555 1_555
C17 O3 1_555 1_555
C25 C26 1_555 1_555
C27 N1 1_555 1_555
C31 C32 1_555 1_555
C33 N1 1_555 1_555
C37 C38 1_555 1_555
C45 O4 1_555 1_555
C56 C57 1_555 1_555
C57 C58 1_555 1_555

#END
