
#######################################################################
#
#                 Cambridge Crystallographic Data Centre
#                                CCDC 
#
#######################################################################
#
# If this CIF has been generated from an entry in the Cambridge 
# Structural Database, then it will include bibliographic, chemical, 
# crystal, experimental, refinement or atomic coordinate data resulting 
# from the CCDC's data processing and validation procedures.
#
#######################################################################

data_DEKDIG01
_chemical_formula_moiety         'C12 H8 N2 O4 S1'
_chemical_name_systematic        bis(2-nitrophenyl)sulfide
_symmetry_cell_setting           monoclinic
_symmetry_space_group_name_H-M   'C c'
_symmetry_Int_Tables_number      9
_space_group_name_Hall           'C -2yc'
loop_
_symmetry_equiv_pos_site_id
_symmetry_equiv_pos_as_xyz
1 x,y,z
2 x,-y,1/2+z
3 1/2+x,1/2+y,z
4 1/2+x,1/2-y,1/2+z
_cell_length_a                   11.759(3)
_cell_length_b                   9.809(4)
_cell_length_c                   10.917(6)
_cell_angle_alpha                90
_cell_angle_beta                 114.940(2)
_cell_angle_gamma                90
_cell_volume                     1141.79
_exptl_crystal_colour            colorless
_cell_formula_units_Z            4
loop_
_atom_site_label
_atom_site_type_symbol
_atom_site_fract_x
_atom_site_fract_y
_atom_site_fract_z
S1 S 0.8920(1) -0.0381(1) 0.3568(1)
O1 O 0.8270(4) 0.2014(4) 0.4847(5)
O2 O 0.9731(4) 0.3500(4) 0.5826(5)
O3 O 0.6882(4) -0.0960(4) 0.1432(4)
O4 O 0.6077(4) -0.0025(6) -0.0562(5)
N1 N 0.9385(4) 0.2341(5) 0.5497(5)
N2 N 0.6851(4) -0.0064(6) 0.0620(5)
C1 C 1.0232(5) 0.0102(7) 0.5081(6)
C2 C 1.1193(6) -0.0875(7) 0.5595(6)
C3 C 1.2183(6) -0.0715(7) 0.6863(7)
C4 C 1.2271(6) 0.0423(6) 0.7645(7)
C5 C 1.1331(5) 0.1427(7) 0.7144(6)
C6 C 1.0335(5) 0.1238(6) 0.5893(6)
C7 C 0.8772(5) 0.0967(6) 0.2441(5)
C8 C 0.7790(5) 0.1011(5) 0.1119(5)
C9 C 0.7715(5) 0.2094(6) 0.0263(6)
C10 C 0.8600(5) 0.3104(6) 0.0719(6)
C11 C 0.9534(5) 0.2992(6) 0.2011(6)
C12 C 0.9620(4) 0.1960(5) 0.2872(5)
loop_
_geom_bond_atom_site_label_1
_geom_bond_atom_site_label_2
_geom_bond_site_symmetry_1
_geom_bond_site_symmetry_2
S1 C1 1_555 1_555
O1 N1 1_555 1_555
O2 N1 1_555 1_555
O3 N2 1_555 1_555
O4 N2 1_555 1_555
N1 C6 1_555 1_555
N2 C8 1_555 1_555
C1 C2 1_555 1_555
C2 C3 1_555 1_555
C3 C4 1_555 1_555
C4 C5 1_555 1_555
C5 C6 1_555 1_555
C6 C1 1_555 1_555
C7 S1 1_555 1_555
C8 C7 1_555 1_555
C9 C8 1_555 1_555
C10 C9 1_555 1_555
C11 C10 1_555 1_555
C12 C7 1_555 1_555
C11 C12 1_555 1_555

#END
