
#######################################################################
#
#                 Cambridge Crystallographic Data Centre
#                                CCDC 
#
#######################################################################
#
# If this CIF has been generated from an entry in the Cambridge 
# Structural Database, then it will include bibliographic, chemical, 
# crystal, experimental, refinement or atomic coordinate data resulting 
# from the CCDC's data processing and validation procedures.
#
#######################################################################

data_DEKJOS
_chemical_formula_moiety         'C18 H22 O6,H2 O1'
_chemical_name_systematic        
'bis((o-Hydroxyphenoxy)-ethoxy)-ethane monohydrate'
_symmetry_cell_setting           orthorhombic
_symmetry_space_group_name_H-M   'P 21 21 21'
_symmetry_Int_Tables_number      19
_space_group_name_Hall           'P 2ac 2ab'
loop_
_symmetry_equiv_pos_site_id
_symmetry_equiv_pos_as_xyz
1 x,y,z
2 1/2+x,1/2-y,-z
3 -x,1/2+y,1/2-z
4 1/2-x,-y,1/2+z
_cell_length_a                   25.909(5)
_cell_length_b                   8.542(3)
_cell_length_c                   8.187(3)
_cell_angle_alpha                90
_cell_angle_beta                 90
_cell_angle_gamma                90
_cell_volume                     1811.9
_cell_formula_units_Z            4
loop_
_atom_site_label
_atom_site_type_symbol
_atom_site_fract_x
_atom_site_fract_y
_atom_site_fract_z
O1 O 0.4838(2) 0.6829(7) 0.1026(8)
H1 H 0.5140 0.7090 0.1120
H2 H 0.4800 0.6190 0.0350
O2 O 0.5541(2) 0.9428(7) 0.2014(7)
O3 O 0.6001(2) 0.7077(7) 0.0616(9)
O4 O 0.5458(3) 0.4611(7) -0.0932(10)
O5 O 0.4392(4) 0.4545(11) -0.1214(17)
O6 O 0.3845(3) 0.7316(7) -0.1195(9)
O7 O 0.4289(3) 0.9589(9) 0.0519(11)
C1 C 0.6051(3) 0.9600(10) 0.1739(9)
C2 C 0.6307(3) 0.8360(10) 0.0938(12)
C3 C 0.6241(4) 0.5712(12) -0.0013(14)
C4 C 0.5886(6) 0.4418(14) 0.0067(16)
C5 C 0.5150(5) 0.3289(15) -0.0937(19)
C6 C 0.4707(6) 0.3433(19) -0.2011(27)
C7 C 0.3951(5) 0.4741(13) -0.2113(21)
C8 C 0.3595(4) 0.5948(14) -0.1620(16)
C9 C 0.3553(3) 0.8624(11) -0.0892(14)
C10 C 0.3799(4) 0.9766(11) -0.0049(13)
C11 C 0.6323(3) 1.0907(12) 0.2142(13)
C12 C 0.6856(4) 1.1030(14) 0.1759(17)
C13 C 0.7079(3) 0.9800(17) 0.0939(20)
C14 C 0.6814(3) 0.8434(15) 0.0481(18)
C15 C 0.3057(4) 0.8828(14) -0.1544(18)
C16 C 0.2808(4) 1.0233(17) -0.1155(22)
C17 C 0.3046(5) 1.1382(15) -0.0323(19)
C18 C 0.3543(4) 1.1142(14) 0.0265(15)
H3 H 0.5380 1.0200 0.2920
H4 H 0.4370 0.8460 0.0410
H5 H 0.6357 0.5908 -0.1162
H6 H 0.6552 0.5454 0.0588
H7 H 0.5751 0.4302 0.1119
H8 H 0.6036 0.3460 -0.0323
H9 H 0.5045 0.3009 0.0099
H10 H 0.5354 0.2426 -0.1432
H11 H 0.4829 0.3641 -0.2998
H12 H 0.4548 0.2413 -0.1887
H13 H 0.4036 0.4744 -0.3126
H14 H 0.3793 0.3729 -0.1728
H15 H 0.3389 0.5568 -0.0767
H16 H 0.3407 0.6082 -0.2604
H17 H 0.6152 1.1772 0.2712
H18 H 0.7053 1.1955 0.2049
H19 H 0.7439 0.9902 0.0675
H20 H 0.6989 0.7609 -0.0098
H21 H 0.2894 0.8013 -0.2155
H22 H 0.2445 1.1036 -0.1488
H23 H 0.2856 1.2343 -0.0177
H24 H 0.3687 1.1996 0.0833
loop_
_geom_bond_atom_site_label_1
_geom_bond_atom_site_label_2
_geom_bond_site_symmetry_1
_geom_bond_site_symmetry_2
O1 H1 1_555 1_555
H2 O1 1_555 1_555
O2 C1 1_555 1_555
O3 C2 1_555 1_555
O4 C4 1_555 1_555
O5 C6 1_555 1_555
O6 C8 1_555 1_555
O7 C10 1_555 1_555
C1 C2 1_555 1_555
C2 C14 1_555 1_555
C3 O3 1_555 1_555
C4 C3 1_555 1_555
C5 O4 1_555 1_555
C6 C5 1_555 1_555
C7 O5 1_555 1_555
C8 C7 1_555 1_555
C9 O6 1_555 1_555
C10 C9 1_555 1_555
C11 C1 1_555 1_555
C12 C11 1_555 1_555
C13 C12 1_555 1_555
C14 C13 1_555 1_555
C15 C9 1_555 1_555
C16 C15 1_555 1_555
C17 C16 1_555 1_555
C18 C10 1_555 1_555
H3 O2 1_555 1_555
H4 O7 1_555 1_555
H5 C3 1_555 1_555
H6 C3 1_555 1_555
H7 C4 1_555 1_555
H8 C4 1_555 1_555
H9 C5 1_555 1_555
H10 C5 1_555 1_555
H11 C6 1_555 1_555
H12 C6 1_555 1_555
H13 C7 1_555 1_555
H14 C7 1_555 1_555
H15 C8 1_555 1_555
H16 C8 1_555 1_555
H17 C11 1_555 1_555
H18 C12 1_555 1_555
H19 C13 1_555 1_555
H20 C14 1_555 1_555
H21 C15 1_555 1_555
H22 C16 1_555 1_555
H23 C17 1_555 1_555
H24 C18 1_555 1_555
C17 C18 1_555 1_555

#END
