
#######################################################################
#
#                 Cambridge Crystallographic Data Centre
#                                CCDC 
#
#######################################################################
#
# If this CIF has been generated from an entry in the Cambridge 
# Structural Database, then it will include bibliographic, chemical, 
# crystal, experimental, refinement or atomic coordinate data resulting 
# from the CCDC's data processing and validation procedures.
#
#######################################################################

data_DEKQAO
_chemical_formula_moiety         'C19 H16 B1 Cl1 O2'
_chemical_name_systematic        
3-(4-chlorophenyl)-5,5-dimethyl-4-(phenylethynyl)-1,2-oxaborol-2(5H)-ol
_symmetry_cell_setting           monoclinic
_symmetry_space_group_name_H-M   'P 21/n'
_symmetry_Int_Tables_number      14
_space_group_name_Hall           '-P 2yn'
loop_
_symmetry_equiv_pos_site_id
_symmetry_equiv_pos_as_xyz
1 x,y,z
2 1/2-x,1/2+y,1/2-z
3 -x,-y,-z
4 1/2+x,1/2-y,1/2+z
_cell_length_a                   5.64157(13)
_cell_length_b                   17.0712(3)
_cell_length_c                   17.5424(5)
_cell_angle_alpha                90
_cell_angle_beta                 90.6571(15)
_cell_angle_gamma                90
_cell_volume                     1689.37
_exptl_crystal_colour            colorless
_exptl_crystal_description       needle
_cell_formula_units_Z            4
loop_
_atom_site_label
_atom_site_type_symbol
_atom_site_fract_x
_atom_site_fract_y
_atom_site_fract_z
Cl1 Cl 0.2977(2) 0.00304(6) 0.37204(7)
O1 O 0.3200(4) 0.44635(13) 0.56393(13)
O2 O 0.5275(4) 0.39946(13) 0.45416(13)
C1 C -0.2437(7) 0.2585(2) 0.6629(2)
C2 C 0.2229(7) 0.2384(2) 0.4885(2)
C3 C -0.0932(7) 0.2923(2) 0.6280(2)
C4 C 0.2184(6) 0.3146(2) 0.5278(2)
C5 C -0.4247(7) 0.2163(2) 0.7027(2)
C6 C 0.4478(7) 0.1484(2) 0.4100(2)
C7 C 0.0837(7) 0.3362(2) 0.5886(2)
C8 C -0.4489(7) 0.2261(2) 0.7812(2)
C9 C 0.0667(8) 0.1097(2) 0.4580(2)
C10 C -0.7635(7) 0.1303(2) 0.7015(3)
C11 C 0.4233(7) 0.2210(2) 0.4456(2)
C12 C -0.7905(7) 0.1405(2) 0.7792(2)
C13 C -0.6311(7) 0.1874(2) 0.8180(2)
C14 C -0.5804(7) 0.1674(2) 0.6627(2)
C15 C 0.0438(7) 0.1824(2) 0.4941(2)
C16 C -0.0670(6) 0.4719(2) 0.6141(2)
C17 C 0.1415(7) 0.4177(2) 0.6175(2)
C18 C 0.2559(6) 0.4148(2) 0.6972(2)
C19 C 0.2670(8) 0.0936(2) 0.4166(2)
B1 B 0.3700(8) 0.3884(3) 0.5112(3)
H1 H 0.60418 0.12971 0.37453
H2 H 0.55482 0.26997 0.44149
H3 H -0.09407 0.07792 0.46489
H4 H -0.12853 0.19101 0.52467
H5 H -0.56868 0.16517 0.59961
H6 H -0.88978 0.09948 0.66368
H7 H -0.94841 0.11023 0.80516
H8 H -0.64929 0.19384 0.87563
H9 H -0.29838 0.26179 0.81315
H10 H 0.40431 0.37899 0.69512
H11 H 0.12531 0.39199 0.73612
H12 H 0.30131 0.47299 0.71012
H13 H -0.18776 0.45438 0.65348
H14 H -0.04076 0.52538 0.62648
H15 H -0.14276 0.47638 0.55648
H16 H 0.51447 0.45752 0.44787
loop_
_geom_bond_atom_site_label_1
_geom_bond_atom_site_label_2
_geom_bond_site_symmetry_1
_geom_bond_site_symmetry_2
Cl1 C19 1_555 1_555
O1 C17 1_555 1_555
O2 B1 1_555 1_555
C1 C3 1_555 1_555
C2 C4 1_555 1_555
C3 C7 1_555 1_555
C4 C7 1_555 1_555
C5 C1 1_555 1_555
C6 C11 1_555 1_555
C7 C17 1_555 1_555
C8 C5 1_555 1_555
C9 C15 1_555 1_555
C10 C12 1_555 1_555
C11 C2 1_555 1_555
C12 C13 1_555 1_555
C13 C8 1_555 1_555
C14 C5 1_555 1_555
C15 C2 1_555 1_555
C16 C17 1_555 1_555
C17 C18 1_555 1_555
C18 H10 1_555 1_555
C19 C6 1_555 1_555
B1 O1 1_555 1_555
H1 C6 1_555 1_555
H2 C11 1_555 1_555
H3 C9 1_555 1_555
H4 C15 1_555 1_555
H5 C14 1_555 1_555
H6 C10 1_555 1_555
H7 C12 1_555 1_555
H8 C13 1_555 1_555
H9 C8 1_555 1_555
H11 C18 1_555 1_555
H12 C18 1_555 1_555
H13 C16 1_555 1_555
H14 C16 1_555 1_555
H15 C16 1_555 1_555
H16 O2 1_555 1_555
C4 B1 1_555 1_555
C9 C19 1_555 1_555
C10 C14 1_555 1_555

#END
