
#######################################################################
#
#                 Cambridge Crystallographic Data Centre
#                                CCDC 
#
#######################################################################
#
# If this CIF has been generated from an entry in the Cambridge 
# Structural Database, then it will include bibliographic, chemical, 
# crystal, experimental, refinement or atomic coordinate data resulting 
# from the CCDC's data processing and validation procedures.
#
#######################################################################

data_DELDOQ
_chemical_formula_moiety         
'C40 H32 N4 2+,C26 H24 Br2 N2 2+,4(F6 P1 1-),2(C2 H3 N1)'
_chemical_name_systematic        
"(2)-((N,N'-bis(4-(bromomethyl)benzyl)bipyridinium radical)-(1,4(1,4)-dibenzena-2(1,4),3(4,1)-dipyridinia-5(2,7)-2,7-diazapyreniacyclopentaphane))  rotaxane tetrakis(hexafluorophosphate) acetonitrile solvate"
_symmetry_cell_setting           monoclinic
_symmetry_space_group_name_H-M   'P 21/m'
_symmetry_Int_Tables_number      11
_space_group_name_Hall           '-P 2yb'
loop_
_symmetry_equiv_pos_site_id
_symmetry_equiv_pos_as_xyz
1 x,y,z
2 -x,1/2+y,-z
3 -x,-y,-z
4 x,1/2-y,z
_cell_length_a                   11.0874(5)
_cell_length_b                   17.3630(7)
_cell_length_c                   18.0711(8)
_cell_angle_alpha                90
_cell_angle_beta                 97.398(3)
_cell_angle_gamma                90
_cell_volume                     3449.92
_exptl_crystal_colour            black
_exptl_crystal_description       block
_cell_formula_units_Z            2
loop_
_atom_site_label
_atom_site_type_symbol
_atom_site_fract_x
_atom_site_fract_y
_atom_site_fract_z
N1 N -0.0032(4) 0.5472(2) 0.8213(2)
N2 N 0.5024(3) 0.5527(2) 0.6812(3)
C1 C -0.0639(4) 0.5860(3) 0.7620(3)
H1 H -0.1029 0.5579 0.7206
C2 C -0.0695(4) 0.6641(3) 0.7614(2)
H2 H -0.1141 0.6894 0.7200
C3 C -0.0104(4) 0.7091(2) 0.8209(2)
C4 C 0.0511(4) 0.6652(3) 0.8820(3)
H3 H 0.0915 0.6913 0.9244
C5 C 0.0518(4) 0.5870(3) 0.8798(3)
H4 H 0.0928 0.5595 0.9211
C6 C 0.0240(5) 0.4641(3) 0.8140(4)
H5 H -0.0421 0.4389 0.7805
H6 H 0.0301 0.4389 0.8634
C7 C 0.1424(5) 0.4559(3) 0.7823(4)
C8 C 0.2518(5) 0.4610(3) 0.8285(4)
H7 H 0.2520 0.4638 0.8810
C9 C 0.3614(5) 0.4623(3) 0.7987(4)
H8 H 0.4359 0.4658 0.8310
C10 C 0.3625(5) 0.4583(3) 0.7227(4)
C11 C 0.2523(6) 0.4509(3) 0.6755(4)
H9 H 0.2519 0.4469 0.6231
C12 C 0.1435(5) 0.4496(3) 0.7063(4)
H10 H 0.0688 0.4444 0.6744
C13 C 0.4793(5) 0.4676(3) 0.6893(4)
H11 H 0.4726 0.4421 0.6400
H12 H 0.5474 0.4436 0.7222
C14 C 0.4464(4) 0.5891(3) 0.6210(3)
H13 H 0.4046 0.5601 0.5811
C15 C 0.4490(4) 0.6688(3) 0.6165(2)
C16 C 0.5134(3) 0.7101(2) 0.6768(2)
C17 C 0.5759(4) 0.6690(3) 0.7381(2)
C18 C 0.5670(4) 0.5895(3) 0.7380(3)
H14 H 0.6072 0.5608 0.7787
C19 C 0.3875(4) 0.7113(3) 0.5546(2)
H15 H 0.3463 0.6843 0.5131
C20 C 0.6406(4) 0.7113(3) 0.7991(2)
H16 H 0.6839 0.6843 0.8399
N1C N -0.0032(4) 0.9528(2) 0.8213(2)
N2C N 0.5024(3) 0.9473(2) 0.6812(3)
C1C C -0.0639(4) 0.9140(3) 0.7620(3)
H1C H -0.1029 0.9421 0.7206
C2C C -0.0695(4) 0.8359(3) 0.7614(2)
H2C H -0.1141 0.8106 0.7200
C3C C -0.0104(4) 0.7909(2) 0.8209(2)
C4C C 0.0511(4) 0.8348(3) 0.8820(3)
H3C H 0.0915 0.8087 0.9244
C5C C 0.0518(4) 0.9130(3) 0.8798(3)
H4C H 0.0928 0.9405 0.9211
C6C C 0.0240(5) 1.0359(3) 0.8140(4)
H5C H -0.0421 1.0611 0.7805
H6C H 0.0301 1.0611 0.8634
C7C C 0.1424(5) 1.0441(3) 0.7823(4)
C8C C 0.2518(5) 1.0390(3) 0.8285(4)
H7C H 0.2520 1.0362 0.8810
C9C C 0.3614(5) 1.0377(3) 0.7987(4)
H8C H 0.4359 1.0342 0.8310
C10C C 0.3625(5) 1.0417(3) 0.7227(4)
C11C C 0.2523(6) 1.0491(3) 0.6755(4)
H9C H 0.2519 1.0531 0.6231
C12C C 0.1435(5) 1.0504(3) 0.7063(4)
H10C H 0.0688 1.0556 0.6744
C13C C 0.4793(5) 1.0324(3) 0.6893(4)
H11C H 0.4726 1.0579 0.6400
H12C H 0.5474 1.0564 0.7222
C14C C 0.4464(4) 0.9109(3) 0.6210(3)
H13C H 0.4046 0.9399 0.5811
C15C C 0.4490(4) 0.8312(3) 0.6165(2)
C16C C 0.5134(3) 0.7899(2) 0.6768(2)
C17C C 0.5759(4) 0.8310(3) 0.7381(2)
C18C C 0.5670(4) 0.9105(3) 0.7380(3)
H14C H 0.6072 0.9392 0.7787
C19C C 0.3875(4) 0.7887(3) 0.5546(2)
H15C H 0.3463 0.8157 0.5131
C20C C 0.6406(4) 0.7887(3) 0.7991(2)
H16C H 0.6839 0.8157 0.8399
Br1 Br 1.00591(7) 0.7500 1.16086(4)
Br2 Br 0.46370(16) 0.7500 0.30700(19)
N3 N 0.3875(5) 0.7500 0.9178(3)
N4 N 0.0474(5) 0.7500 0.5610(3)
C21 C 0.9741(8) 0.7500 1.0517(4)
H17 H 1.0110 0.7962 1.0317
C22 C 0.8359(7) 0.7500 1.0274(4)
C23 C 0.7735(5) 0.6811(3) 1.0183(3)
H18 H 0.8168 0.6338 1.0203
C24 C 0.6484(5) 0.6812(3) 1.0064(3)
H19 H 0.6056 0.6338 1.0006
C25 C 0.5840(7) 0.7500 1.0029(4)
C26 C 0.4472(7) 0.7500 0.9963(4)
H20 H 0.4203 0.7039 1.0220
C27 C 0.3587(4) 0.6826(3) 0.8818(3)
H21 H 0.3827 0.6356 0.9061
C28 C 0.2968(4) 0.6806(3) 0.8123(2)
H22 H 0.2788 0.6324 0.7886
C29 C 0.2579(5) 0.7500 0.7740(3)
C30 C 0.1874(5) 0.7500 0.7018(3)
C31 C 0.1479(4) 0.6808(3) 0.6637(3)
H23 H 0.1692 0.6326 0.6865
C32 C 0.0804(4) 0.6825(3) 0.5955(3)
H24 H 0.0558 0.6354 0.5714
C33 C -0.0212(8) 0.7500 0.4849(4)
H25 H -0.0741 0.7961 0.4788
C34 C 0.0617(7) 0.7500 0.4253(4)
C35 C 0.1007(6) 0.6811(4) 0.3974(3)
H26 H 0.0755 0.6336 0.4163
C36 C 0.1752(6) 0.6816(4) 0.3428(3)
H27 H 0.2014 0.6341 0.3242
C37 C 0.2131(7) 0.7500 0.3141(4)
C38 C 0.2966(8) 0.7500 0.2551(5)
H28 H 0.2824 0.7963 0.2232
H17C H 1.0110 0.7038 1.0317
C23C C 0.7735(5) 0.8189(3) 1.0183(3)
H18C H 0.8168 0.8662 1.0203
C24C C 0.6484(5) 0.8188(3) 1.0064(3)
H19C H 0.6056 0.8662 1.0006
H20C H 0.4203 0.7961 1.0220
C27C C 0.3587(4) 0.8174(3) 0.8818(3)
H21C H 0.3827 0.8644 0.9061
C28C C 0.2968(4) 0.8194(3) 0.8123(2)
H22C H 0.2788 0.8676 0.7886
C31C C 0.1479(4) 0.8192(3) 0.6637(3)
H23C H 0.1692 0.8674 0.6865
C32C C 0.0804(4) 0.8175(3) 0.5955(3)
H24C H 0.0558 0.8646 0.5714
H25C H -0.0741 0.7039 0.4788
C35C C 0.1007(6) 0.8189(4) 0.3974(3)
H26C H 0.0755 0.8664 0.4163
C36C C 0.1752(6) 0.8184(4) 0.3428(3)
H27C H 0.2014 0.8659 0.3242
H28C H 0.2824 0.7037 0.2232
P1 P 0.72267(14) 0.45130(8) 0.92081(8)
F1 F 0.6875(4) 0.4554(3) 1.0027(2)
F2 F 0.7538(4) 0.4489(3) 0.8374(2)
F3 F 0.6059(3) 0.3989(2) 0.8925(3)
F4 F 0.6407(5) 0.5260(2) 0.9000(2)
F5 F 0.8381(4) 0.5011(3) 0.9472(2)
F6 F 0.7952(4) 0.3757(2) 0.9433(3)
P2 P 0.75706(13) 0.52647(10) 0.55139(10)
F7 F 0.7279(4) 0.5865(3) 0.6130(2)
F8 F 0.7834(3) 0.4629(2) 0.4922(2)
F9 F 0.6379(3) 0.5534(2) 0.5002(2)
F10 F 0.8346(3) 0.5872(2) 0.5135(3)
F11 F 0.8775(4) 0.4998(3) 0.6039(2)
F12 F 0.6786(4) 0.4633(3) 0.5889(3)
N5 N 0.7676(8) 0.7500 0.6123(5)
C39 C 0.7191(9) 0.7500 0.5537(6)
C40 C 0.6537(10) 0.7500 0.4769(6)
N6 N 0.2031(9) 0.2500 0.6703(5)
C41 C 0.2466(9) 0.2500 0.7296(6)
C42 C 0.3072(10) 0.2500 0.8059(5)
H29 H 0.3212 0.1968 0.8230
H29C H 0.3212 0.3032 0.8230
H30? H 0.2723 0.7955 0.2237
Br3? Br 0.4823(8) 0.7500 0.2677(11)
H31? H 1.0110 0.7962 1.0317
H32? H 0.4203 0.7039 1.0220
H33? H -0.0741 0.7961 0.4788
H34? H 0.2723 0.7955 0.2237
H35? H 0.6540 0.6979 0.4561
H36? H 0.5696 0.7668 0.4780
H37? H 0.6942 0.7853 0.4457
H38? H 0.2558 0.2763 0.8383
H39? H 0.3852 0.2769 0.8080
loop_
_geom_bond_atom_site_label_1
_geom_bond_atom_site_label_2
_geom_bond_site_symmetry_1
_geom_bond_site_symmetry_2
N1 C1 1_555 1_555
N2 C13 1_555 1_555
C1 H1 1_555 1_555
C2 C1 1_555 1_555
H2 C2 1_555 1_555
C3 C2 1_555 1_555
C4 C3 1_555 1_555
H3 C4 1_555 1_555
C5 N1 1_555 1_555
H4 C5 1_555 1_555
C6 N1 1_555 1_555
H5 C6 1_555 1_555
H6 C6 1_555 1_555
C7 C6 1_555 1_555
C8 C7 1_555 1_555
H7 C8 1_555 1_555
C9 C8 1_555 1_555
H8 C9 1_555 1_555
C10 C9 1_555 1_555
C11 C10 1_555 1_555
H9 C11 1_555 1_555
C12 C7 1_555 1_555
H10 C12 1_555 1_555
C13 C10 1_555 1_555
H11 C13 1_555 1_555
H12 C13 1_555 1_555
C14 N2 1_555 1_555
H13 C14 1_555 1_555
C15 C14 1_555 1_555
C16 C15 1_555 1_555
C17 C16 1_555 1_555
C18 N2 1_555 1_555
H14 C18 1_555 1_555
C19 C15 1_555 1_555
H15 C19 1_555 1_555
C20 C17 1_555 1_555
H16 C20 1_555 1_555
Br1 C21 1_555 1_555
Br2 C38 1_555 1_555
N3 C26 1_555 1_555
N4 C32 1_555 1_555
C21 H17 1_555 1_555
C22 C21 1_555 1_555
C23 C22 1_555 1_555
H18 C23 1_555 1_555
C24 C23 1_555 1_555
H19 C24 1_555 1_555
C25 C24 1_555 1_555
C26 C25 1_555 1_555
H20 C26 1_555 1_555
C27 N3 1_555 1_555
H21 C27 1_555 1_555
C28 C27 1_555 1_555
H22 C28 1_555 1_555
C29 C28 1_555 1_555
C30 C29 1_555 1_555
C31 C30 1_555 1_555
H23 C31 1_555 1_555
C32 C31 1_555 1_555
H24 C32 1_555 1_555
C33 N4 1_555 1_555
H25 C33 1_555 1_555
C34 C33 1_555 1_555
C35 C34 1_555 1_555
H26 C35 1_555 1_555
C36 C35 1_555 1_555
H27 C36 1_555 1_555
C37 C36 1_555 1_555
C38 C37 1_555 1_555
H28 C38 1_555 1_555
P1 F1 1_555 1_555
F2 P1 1_555 1_555
F3 P1 1_555 1_555
F4 P1 1_555 1_555
F5 P1 1_555 1_555
F6 P1 1_555 1_555
P2 F7 1_555 1_555
F8 P2 1_555 1_555
F9 P2 1_555 1_555
F10 P2 1_555 1_555
F11 P2 1_555 1_555
F12 P2 1_555 1_555
N5 C39 1_555 1_555
C39 C40 1_555 1_555
N6 C41 1_555 1_555
C41 C42 1_555 1_555
C42 H29 1_555 1_555
N1C C1C 1_555 1_555
N2C C13C 1_555 1_555
C1C H1C 1_555 1_555
C2C C1C 1_555 1_555
H2C C2C 1_555 1_555
C3C C3 1_555 1_555
C4C C3C 1_555 1_555
H3C C4C 1_555 1_555
C5C N1C 1_555 1_555
H4C C5C 1_555 1_555
C6C N1C 1_555 1_555
H5C C6C 1_555 1_555
H6C C6C 1_555 1_555
C7C C6C 1_555 1_555
C8C C7C 1_555 1_555
H7C C8C 1_555 1_555
C9C C8C 1_555 1_555
H8C C9C 1_555 1_555
C10C C9C 1_555 1_555
C11C C10C 1_555 1_555
H9C C11C 1_555 1_555
C12C C7C 1_555 1_555
H10C C12C 1_555 1_555
C13C C10C 1_555 1_555
H11C C13C 1_555 1_555
H12C C13C 1_555 1_555
C14C N2C 1_555 1_555
H13C C14C 1_555 1_555
C15C C14C 1_555 1_555
C16C C16 1_555 1_555
C17C C16C 1_555 1_555
C18C N2C 1_555 1_555
H14C C18C 1_555 1_555
C19C C19 1_555 1_555
H15C C19C 1_555 1_555
C20C C20 1_555 1_555
H16C C20C 1_555 1_555
H17C C21 1_555 1_555
C23C C22 1_555 1_555
H18C C23C 1_555 1_555
C24C C25 1_555 1_555
H19C C24C 1_555 1_555
H20C C26 1_555 1_555
C27C N3 1_555 1_555
H21C C27C 1_555 1_555
C28C C29 1_555 1_555
H22C C28C 1_555 1_555
C31C C30 1_555 1_555
H23C C31C 1_555 1_555
C32C N4 1_555 1_555
H24C C32C 1_555 1_555
H25C C33 1_555 1_555
C35C C34 1_555 1_555
H26C C35C 1_555 1_555
C36C C37 1_555 1_555
H27C C36C 1_555 1_555
H28C C38 1_555 1_555
H29C C42 1_555 1_555
C4 C5 1_555 1_555
C11 C12 1_555 1_555
C17 C18 1_555 1_555
C2C C3C 1_555 1_555
C4C C5C 1_555 1_555
C11C C12C 1_555 1_555
C15C C16C 1_555 1_555
C15C C19C 1_555 1_555
C17C C18C 1_555 1_555
C17C C20C 1_555 1_555
C23C C24C 1_555 1_555
C27C C28C 1_555 1_555
C31C C32C 1_555 1_555
C35C C36C 1_555 1_555

#END
