
#######################################################################
#
#                 Cambridge Crystallographic Data Centre
#                                CCDC 
#
#######################################################################
#
# If this CIF has been generated from an entry in the Cambridge 
# Structural Database, then it will include bibliographic, chemical, 
# crystal, experimental, refinement or atomic coordinate data resulting 
# from the CCDC's data processing and validation procedures.
#
#######################################################################

data_DELDAC
_chemical_formula_moiety         'C24 H19 N1 O3'
_chemical_name_systematic        
1-methyl-2'-phenyl-2'H,5'H-spiro[indole-3,4'-[2,5]methano[1,3]benzodioxepin]-2(1H)-one
_symmetry_cell_setting           triclinic
_symmetry_space_group_name_H-M   'P -1'
_symmetry_Int_Tables_number      2
_space_group_name_Hall           '-P 1'
loop_
_symmetry_equiv_pos_site_id
_symmetry_equiv_pos_as_xyz
1 x,y,z
2 -x,-y,-z
_cell_length_a                   9.5595(9)
_cell_length_b                   9.7636(9)
_cell_length_c                   10.1483(10)
_cell_angle_alpha                84.7530(10)
_cell_angle_beta                 79.2070(10)
_cell_angle_gamma                72.8890(10)
_cell_volume                     888.586
_exptl_crystal_colour            colorless
_exptl_crystal_description       block
_cell_formula_units_Z            2
loop_
_atom_site_label
_atom_site_type_symbol
_atom_site_fract_x
_atom_site_fract_y
_atom_site_fract_z
O1 O 0.58548(7) 0.21135(7) 0.29083(6)
O2 O 0.73392(7) 0.40177(7) 0.09409(7)
O3 O 0.48474(7) 0.03138(7) 0.24881(7)
N1 N 0.57031(9) 0.56371(8) 0.24171(8)
C1 C 1.00784(10) -0.22717(10) 0.25801(10)
H1 H 1.0969 -0.2987 0.2705
C2 C 0.90642(10) -0.16462(10) 0.36926(10)
H2 H 0.9269 -0.1933 0.4573
C3 C 0.77548(10) -0.06028(10) 0.35114(9)
H3 H 0.7062 -0.0188 0.4269
C4 C 0.74582(9) -0.01643(9) 0.22127(9)
C5 C 0.60403(9) 0.09764(9) 0.20393(9)
C6 C 0.51082(9) 0.34663(9) 0.23087(9)
C7 C 0.39962(10) 0.44221(9) 0.33405(9)
C8 C 0.44159(10) 0.56751(9) 0.33715(9)
C9 C 0.36688(11) 0.67356(10) 0.42786(9)
H4 H 0.3980 0.7571 0.4297
C10 C 0.24360(11) 0.65201(11) 0.51660(10)
H5 H 0.1895 0.7228 0.5798
C11 C 0.97825(10) -0.18461(10) 0.12909(10)
H6 H 1.0469 -0.2274 0.0535
C12 C 0.84718(10) -0.07865(10) 0.11075(9)
H7 H 0.8275 -0.0492 0.0226
C13 C 0.62213(10) 0.43642(9) 0.17926(9)
C14 C 0.64459(11) 0.67603(10) 0.22018(10)
H8 H 0.7338 0.6473 0.1519
H9 H 0.6727 0.6916 0.3044
H10 H 0.5773 0.7650 0.1897
C15 C 0.19857(10) 0.52914(11) 0.51434(9)
H11 H 0.1136 0.5178 0.5748
C16 C 0.27791(10) 0.42181(10) 0.42331(9)
H12 H 0.2487 0.3369 0.4229
C17 C 0.45660(9) 0.30223(9) 0.11119(9)
H13 H 0.4396 0.3795 0.0393
C18 C 0.32259(10) 0.24843(9) 0.16080(9)
C19 C 0.34558(10) 0.11253(9) 0.22555(9)
C20 C 0.22805(10) 0.05314(10) 0.26899(9)
H14 H 0.2451 -0.0403 0.3102
C21 C 0.08506(10) 0.13268(11) 0.25119(10)
H15 H 0.0045 0.0927 0.2800
C22 C 0.05930(10) 0.27037(11) 0.19143(10)
H16 H -0.0387 0.3251 0.1820
C23 C 0.17848(10) 0.32699(10) 0.14559(9)
H17 H 0.1613 0.4201 0.1036
C24 C 0.58795(10) 0.17132(9) 0.06598(9)
H18 H 0.5629 0.1116 0.0053
H19 H 0.6779 0.1991 0.0228
loop_
_geom_bond_atom_site_label_1
_geom_bond_atom_site_label_2
_geom_bond_site_symmetry_1
_geom_bond_site_symmetry_2
O1 C5 1_555 1_555
O2 C13 1_555 1_555
O3 C5 1_555 1_555
N1 C8 1_555 1_555
C1 H1 1_555 1_555
C2 C1 1_555 1_555
H2 C2 1_555 1_555
C3 C2 1_555 1_555
H3 C3 1_555 1_555
C4 C3 1_555 1_555
C5 C4 1_555 1_555
C6 O1 1_555 1_555
C7 C6 1_555 1_555
C8 C7 1_555 1_555
C9 C8 1_555 1_555
H4 C9 1_555 1_555
C10 C9 1_555 1_555
H5 C10 1_555 1_555
C11 C1 1_555 1_555
H6 C11 1_555 1_555
C12 C4 1_555 1_555
H7 C12 1_555 1_555
C13 N1 1_555 1_555
C14 N1 1_555 1_555
H8 C14 1_555 1_555
H9 C14 1_555 1_555
H10 C14 1_555 1_555
C15 C10 1_555 1_555
H11 C15 1_555 1_555
C16 C7 1_555 1_555
H12 C16 1_555 1_555
C17 C6 1_555 1_555
H13 C17 1_555 1_555
C18 C17 1_555 1_555
C19 O3 1_555 1_555
C20 C19 1_555 1_555
H14 C20 1_555 1_555
C21 C20 1_555 1_555
H15 C21 1_555 1_555
C22 C21 1_555 1_555
H16 C22 1_555 1_555
C23 C18 1_555 1_555
H17 C23 1_555 1_555
C24 C5 1_555 1_555
H18 C24 1_555 1_555
H19 C24 1_555 1_555
C6 C13 1_555 1_555
C11 C12 1_555 1_555
C15 C16 1_555 1_555
C17 C24 1_555 1_555
C18 C19 1_555 1_555
C22 C23 1_555 1_555

#END
