
#######################################################################
#
#                 Cambridge Crystallographic Data Centre
#                                CCDC 
#
#######################################################################
#
# If this CIF has been generated from an entry in the Cambridge 
# Structural Database, then it will include bibliographic, chemical, 
# crystal, experimental, refinement or atomic coordinate data resulting 
# from the CCDC's data processing and validation procedures.
#
#######################################################################

data_DELGUY
_chemical_formula_moiety         'C24 H24 O7'
_chemical_name_systematic        
'4-Methyl-2,7-dioxo-7,8,9,10-tetrahydro-2H-benzo[h]chromen-8-yl 4,7,7-trimethyl-3-oxo-2-oxabicyclo[2.2.1]heptane-1-carboxylate'
_symmetry_cell_setting           triclinic
_symmetry_space_group_name_H-M   'P 1'
_symmetry_Int_Tables_number      1
_space_group_name_Hall           'P 1'
loop_
_symmetry_equiv_pos_site_id
_symmetry_equiv_pos_as_xyz
1 x,y,z
_cell_length_a                   6.6194(9)
_cell_length_b                   11.1508(14)
_cell_length_c                   15.728(2)
_cell_angle_alpha                101.101(2)
_cell_angle_beta                 101.161(2)
_cell_angle_gamma                106.115(2)
_cell_volume                     1056.19
_exptl_crystal_colour            colorless
_exptl_crystal_description       prismatic
_chemical_melting_point          '186-188 deg.C'
_cell_formula_units_Z            2
loop_
_atom_site_label
_atom_site_type_symbol
_atom_site_fract_x
_atom_site_fract_y
_atom_site_fract_z
O1 O 0.1227(7) 1.1476(4) 0.6160(2)
O2 O 0.1810(4) 1.0469(2) 0.49368(15)
O3 O 0.3809(6) 0.7897(3) 0.16955(19)
O4 O -0.0040(4) 0.6047(2) 0.13605(14)
O5 O 0.2287(6) 0.4961(3) 0.16398(18)
O6 O -0.2991(6) 0.4546(4) -0.17946(19)
O7 O -0.1573(4) 0.4848(3) -0.03235(15)
C1 C 0.2498(8) 1.1457(4) 0.5726(3)
C2 C 0.4646(8) 1.2385(4) 0.5903(3)
H1 H 0.5127 1.3068 0.6417
C3 C 0.5996(7) 1.2319(4) 0.5366(2)
C4 C 0.5237(7) 1.1224(3) 0.4575(2)
C5 C 0.6538(7) 1.1014(4) 0.3995(2)
C6 C 0.5729(7) 0.9961(4) 0.3260(2)
H2 H 0.6586 0.9832 0.2870
C7 C 0.3648(6) 0.9087(4) 0.3092(2)
C8 C 0.2302(6) 0.9246(3) 0.3654(2)
C9 C 0.3159(6) 1.0335(4) 0.4393(2)
C10 C 0.0070(6) 0.8282(4) 0.3497(2)
H3 H -0.0924 0.8744 0.3630
H4 H 0.0144 0.7737 0.3906
C11 C -0.0830(6) 0.7429(4) 0.2534(2)
H5 H -0.2137 0.6732 0.2491
H6 H -0.1213 0.7937 0.2131
C12 C 0.0862(6) 0.6875(3) 0.2263(2)
C13 C 0.2876(7) 0.7954(4) 0.2286(2)
C14 C 0.8157(8) 1.3323(4) 0.5576(3)
H7 H 0.8353 1.3968 0.6114
H8 H 0.8242 1.3719 0.5088
H9 H 0.9278 1.2933 0.5663
C15 C 0.0901(6) 0.5168(3) 0.1134(2)
C16 C -0.0007(6) 0.4376(3) 0.0173(2)
C17 C -0.1216(8) 0.2954(4) 0.0053(2)
H10 H -0.2638 0.2828 0.0169
H11 H -0.0388 0.2580 0.0441
C18 C -0.1410(9) 0.2381(4) -0.0944(2)
H12 H -0.0696 0.1731 -0.1011
H13 H -0.2925 0.1996 -0.1284
C19 C -0.0254(7) 0.3558(4) -0.1253(2)
C20 C -0.1753(7) 0.4355(4) -0.1212(2)
C21 C 0.1626(6) 0.4365(4) -0.0409(2)
C22 C 0.2781(9) 0.5713(6) -0.0492(3)
H14 H 0.3962 0.6168 0.0034
H15 H 0.1766 0.6181 -0.0551
H16 H 0.3340 0.5635 -0.1012
C23 C 0.3243(9) 0.3680(7) -0.0153(3)
H17 H 0.3854 0.3473 -0.0646
H18 H 0.2514 0.2899 -0.0013
H19 H 0.4387 0.4235 0.0362
C24 C 0.0269(10) 0.3230(6) -0.2158(3)
H20 H -0.1032 0.2671 -0.2603
H21 H 0.1344 0.2802 -0.2107
H22 H 0.0823 0.4011 -0.2331
H42 H 0.806(6) 1.163(3) 0.4150(19)
H43 H 0.131(5) 0.636(3) 0.2654(19)
O8 O 0.5516(6) 0.0068(3) -0.0430(2)
O9 O 0.4495(4) 0.1013(2) 0.07003(15)
O10 O 0.1683(6) 0.3112(4) 0.3848(2)
O11 O 0.5489(5) 0.5062(3) 0.43547(15)
O12 O 0.2983(7) 0.6060(4) 0.4169(2)
O13 O 0.9811(5) 0.7222(4) 0.73008(19)
O14 O 0.7234(5) 0.6250(3) 0.60150(16)
C25 C 0.4068(8) 0.0027(4) -0.0066(2)
C26 C 0.1951(7) -0.0941(4) -0.0337(2)
H23 H 0.1607 -0.1590 -0.0863
C27 C 0.0440(7) -0.0966(3) 0.0124(2)
C28 C 0.0945(6) 0.0093(3) 0.0927(2)
C29 C -0.0521(7) 0.0206(4) 0.1443(3)
C30 C 0.0094(7) 0.1208(4) 0.2198(3)
C31 C 0.2139(7) 0.2154(4) 0.2454(2)
C32 C 0.3641(6) 0.2104(3) 0.1938(2)
C33 C 0.2981(6) 0.1053(3) 0.1178(2)
C34 C 0.5806(6) 0.3144(4) 0.2167(2)
H24 H 0.5719 0.3727 0.1787
H25 H 0.6891 0.2753 0.2041
C35 C 0.6534(7) 0.3920(4) 0.3152(2)
C36 C 0.4710(7) 0.4341(4) 0.3418(2)
C37 C 0.2733(8) 0.3204(4) 0.3291(3)
C38 C -0.1676(8) -0.2042(4) -0.0156(3)
H26 H -0.1768 -0.2623 -0.0710
H27 H -0.2853 -0.1695 -0.0239
H28 H -0.1769 -0.2501 0.0300
C39 C 0.4406(8) 0.5826(5) 0.4635(3)
C40 C 0.5144(6) 0.6397(4) 0.5645(2)
C41 C 0.3635(8) 0.5787(4) 0.6181(3)
H29 H 0.3676 0.4929 0.6197
H30 H 0.2144 0.5740 0.5938
C42 C 0.4638(7) 0.6746(5) 0.7113(3)
H31 H 0.5198 0.6334 0.7551
H32 H 0.3571 0.7095 0.7313
C43 C 0.6502(6) 0.7819(4) 0.6972(2)
C44 C 0.8107(7) 0.7138(4) 0.6825(2)
C45 C 0.5567(6) 0.7847(3) 0.5997(2)
C46 C 0.3554(9) 0.8248(5) 0.5872(3)
H33 H 0.3938 0.9146 0.6174
H34 H 0.2513 0.7738 0.6120
H35 H 0.2929 0.8114 0.5243
C47 C 0.7235(10) 0.8663(5) 0.5610(3)
H36 H 0.6608 0.8550 0.4984
H37 H 0.8501 0.8394 0.5678
H38 H 0.7644 0.9558 0.5924
C48 C 0.7416(10) 0.9079(5) 0.7687(3)
H39 H 0.8305 0.8972 0.8208
H40 H 0.6242 0.9339 0.7844
H41 H 0.8284 0.9729 0.7464
H44 H -0.182(8) -0.042(4) 0.122(3)
H45 H -0.094(10) 0.131(5) 0.253(3)
H46 H 0.429(6) 0.486(3) 0.305(2)
H47 H 0.695(5) 0.339(3) 0.351(2)
H48 H 0.771(6) 0.469(4) 0.319(2)
loop_
_geom_bond_atom_site_label_1
_geom_bond_atom_site_label_2
_geom_bond_site_symmetry_1
_geom_bond_site_symmetry_2
O1 C1 1_555 1_555
O2 C1 1_555 1_555
O3 C13 1_555 1_555
O4 C12 1_555 1_555
O5 C15 1_555 1_555
O6 C20 1_555 1_555
O7 C16 1_555 1_555
O8 C25 1_555 1_555
O9 C25 1_555 1_555
O10 C37 1_555 1_555
O11 C36 1_555 1_555
O12 C39 1_555 1_555
O13 C44 1_555 1_555
O14 C40 1_555 1_555
C1 C2 1_555 1_555
C2 H1 1_555 1_555
C3 C2 1_555 1_555
C4 C3 1_555 1_555
C5 C4 1_555 1_555
C6 C5 1_555 1_555
H2 C6 1_555 1_555
C7 C6 1_555 1_555
C8 C7 1_555 1_555
C9 O2 1_555 1_555
C10 C8 1_555 1_555
H3 C10 1_555 1_555
H4 C10 1_555 1_555
C11 C10 1_555 1_555
H5 C11 1_555 1_555
H6 C11 1_555 1_555
C12 C11 1_555 1_555
C13 C7 1_555 1_555
C14 C3 1_555 1_555
H7 C14 1_555 1_555
H8 C14 1_555 1_555
H9 C14 1_555 1_555
C15 O4 1_555 1_555
C16 C15 1_555 1_555
C17 C16 1_555 1_555
H10 C17 1_555 1_555
H11 C17 1_555 1_555
C18 C17 1_555 1_555
H12 C18 1_555 1_555
H13 C18 1_555 1_555
C19 C18 1_555 1_555
C20 O7 1_555 1_555
C21 C16 1_555 1_555
C22 C21 1_555 1_555
H14 C22 1_555 1_555
H15 C22 1_555 1_555
H16 C22 1_555 1_555
C23 C21 1_555 1_555
H17 C23 1_555 1_555
H18 C23 1_555 1_555
H19 C23 1_555 1_555
C24 C19 1_555 1_555
H20 C24 1_555 1_555
H21 C24 1_555 1_555
H22 C24 1_555 1_555
C25 C26 1_555 1_555
C26 H23 1_555 1_555
C27 C26 1_555 1_555
C28 C27 1_555 1_555
C29 C28 1_555 1_555
C30 C29 1_555 1_555
C31 C30 1_555 1_555
C32 C31 1_555 1_555
C33 O9 1_555 1_555
C34 C32 1_555 1_555
H24 C34 1_555 1_555
H25 C34 1_555 1_555
C35 C34 1_555 1_555
C36 C35 1_555 1_555
C37 C31 1_555 1_555
C38 C27 1_555 1_555
H26 C38 1_555 1_555
H27 C38 1_555 1_555
H28 C38 1_555 1_555
C39 O11 1_555 1_555
C40 C39 1_555 1_555
C41 C40 1_555 1_555
H29 C41 1_555 1_555
H30 C41 1_555 1_555
C42 C41 1_555 1_555
H31 C42 1_555 1_555
H32 C42 1_555 1_555
C43 C42 1_555 1_555
C44 O14 1_555 1_555
C45 C40 1_555 1_555
C46 C45 1_555 1_555
H33 C46 1_555 1_555
H34 C46 1_555 1_555
H35 C46 1_555 1_555
C47 C45 1_555 1_555
H36 C47 1_555 1_555
H37 C47 1_555 1_555
H38 C47 1_555 1_555
C48 C43 1_555 1_555
H39 C48 1_555 1_555
H40 C48 1_555 1_555
H41 C48 1_555 1_555
H42 C5 1_555 1_555
H43 C12 1_555 1_555
H44 C29 1_555 1_555
H45 C30 1_555 1_555
H46 C36 1_555 1_555
H47 C35 1_555 1_555
H48 C35 1_555 1_555
C4 C9 1_555 1_555
C8 C9 1_555 1_555
C12 C13 1_555 1_555
C19 C20 1_555 1_555
C19 C21 1_555 1_555
C28 C33 1_555 1_555
C32 C33 1_555 1_555
C36 C37 1_555 1_555
C43 C44 1_555 1_555
C43 C45 1_555 1_555

#END
