
#######################################################################
#
#                 Cambridge Crystallographic Data Centre
#                                CCDC 
#
#######################################################################
#
# If this CIF has been generated from an entry in the Cambridge 
# Structural Database, then it will include bibliographic, chemical, 
# crystal, experimental, refinement or atomic coordinate data resulting 
# from the CCDC's data processing and validation procedures.
#
#######################################################################

data_DELGOS
_chemical_formula_moiety         'C14 H12 O4'
_chemical_name_systematic        
8-Hydroxy-4-methyl-9,10-dihydro-2H-benzo[h]chromene-2,7(8H)-dione
_symmetry_cell_setting           monoclinic
_symmetry_space_group_name_H-M   'P 21/c'
_symmetry_Int_Tables_number      14
_space_group_name_Hall           '-P 2ybc'
loop_
_symmetry_equiv_pos_site_id
_symmetry_equiv_pos_as_xyz
1 x,y,z
2 -x,1/2+y,1/2-z
3 -x,-y,-z
4 x,1/2-y,1/2+z
_cell_length_a                   10.439(2)
_cell_length_b                   15.075(3)
_cell_length_c                   7.3966(14)
_cell_angle_alpha                90
_cell_angle_beta                 107.147(3)
_cell_angle_gamma                90
_cell_volume                     1112.25
_exptl_crystal_colour            colorless
_exptl_crystal_description       prismatic
_chemical_melting_point          'decomposes above 220 deg.C'
_cell_formula_units_Z            4
loop_
_atom_site_label
_atom_site_type_symbol
_atom_site_fract_x
_atom_site_fract_y
_atom_site_fract_z
O1 O 1.16365(15) 0.89552(10) 1.3000(2)
O2 O 0.96103(12) 0.85985(8) 1.12472(19)
O3 O 0.42677(15) 0.75759(11) 0.6219(2)
O4 O 0.35861(17) 0.93193(13) 0.6402(3)
C1 C 1.0871(2) 0.83583(15) 1.2354(3)
C2 C 1.1134(2) 0.74238(14) 1.2626(3)
H1 H 1.1975 0.7246 1.3383
C3 C 1.0231(2) 0.67939(13) 1.1847(3)
C4 C 0.89179(18) 0.70724(13) 1.0621(3)
C5 C 0.7896(2) 0.64886(13) 0.9670(3)
H2 H 0.8039 0.5880 0.9783
C6 C 0.6682(2) 0.68097(14) 0.8570(3)
H3 H 0.6018 0.6416 0.7930
C7 C 0.64389(19) 0.77206(13) 0.8405(3)
C8 C 0.74235(19) 0.83224(13) 0.9327(3)
C9 C 0.86578(18) 0.79739(13) 1.0393(3)
C10 C 0.7193(2) 0.93096(13) 0.9241(3)
H4 H 0.7980 0.9600 0.9076
H5 H 0.7090 0.9506 1.0439
C11 C 0.5973(5) 0.9603(3) 0.7661(7)
H6 H 0.6134 0.9529 0.6443
H7 H 0.5781 1.0223 0.7815
C12 C 0.4790(6) 0.9026(4) 0.7764(7)
H8 H 0.4689 0.9046 0.9039
C13 C 0.5093(2) 0.80537(16) 0.7254(3)
C14 C 1.0546(2) 0.58302(14) 1.2193(3)
H9 H 1.1411 0.5765 1.3104
H10 H 1.0548 0.5550 1.1029
H11 H 0.9879 0.5557 1.2668
H12 H 0.323(3) 0.900(2) 0.546(4)
C15? C 0.5707(8) 0.9499(6) 0.8534(10)
C16? C 0.4902(10) 0.8999(6) 0.6902(11)
H13? H 0.7634 0.9576 0.8407
H14? H 0.7544 0.9554 1.0487
H15? H 0.5335 0.9396 0.9573
H16? H 0.5595 1.0125 0.8223
H17? H 0.5257 0.9138 0.5847
loop_
_geom_bond_atom_site_label_1
_geom_bond_atom_site_label_2
_geom_bond_site_symmetry_1
_geom_bond_site_symmetry_2
O1 C1 1_555 1_555
O2 C1 1_555 1_555
O3 C13 1_555 1_555
O4 C12 1_555 1_555
C1 C2 1_555 1_555
C2 H1 1_555 1_555
C3 C2 1_555 1_555
C4 C3 1_555 1_555
C5 C4 1_555 1_555
H2 C5 1_555 1_555
C6 C5 1_555 1_555
H3 C6 1_555 1_555
C7 C6 1_555 1_555
C8 C7 1_555 1_555
C9 O2 1_555 1_555
C10 C8 1_555 1_555
H4 C10 1_555 1_555
H5 C10 1_555 1_555
C11 C10 1_555 1_555
H6 C11 1_555 1_555
H7 C11 1_555 1_555
C12 C11 1_555 1_555
H8 C12 1_555 1_555
C13 C7 1_555 1_555
C14 C3 1_555 1_555
H9 C14 1_555 1_555
H10 C14 1_555 1_555
H11 C14 1_555 1_555
H12 O4 1_555 1_555
C4 C9 1_555 1_555
C8 C9 1_555 1_555
C12 C13 1_555 1_555

#END
