
#######################################################################
#
#                 Cambridge Crystallographic Data Centre
#                                CCDC 
#
#######################################################################
#
# If this CIF has been generated from an entry in the Cambridge 
# Structural Database, then it will include bibliographic, chemical, 
# crystal, experimental, refinement or atomic coordinate data resulting 
# from the CCDC's data processing and validation procedures.
#
#######################################################################

data_DELKOX
_chemical_formula_moiety         'C36 H31 N2 P1'
_chemical_name_systematic        
4,9-dimethyl-1,2,2,2-tetraphenyl-4,9-dihydro-2H-2\l^5^-phospholo[3,4-b]quinoxaline
_symmetry_cell_setting           triclinic
_symmetry_space_group_name_H-M   'P -1'
_symmetry_Int_Tables_number      2
_space_group_name_Hall           '-P 1'
loop_
_symmetry_equiv_pos_site_id
_symmetry_equiv_pos_as_xyz
1 x,y,z
2 -x,-y,-z
_cell_length_a                   10.3043(3)
_cell_length_b                   11.2791(3)
_cell_length_c                   12.1658(3)
_cell_angle_alpha                81.848(2)
_cell_angle_beta                 69.810(2)
_cell_angle_gamma                80.231(2)
_cell_volume                     1302.52
_exptl_crystal_colour            colorless
_exptl_crystal_description       prism
_cell_formula_units_Z            2
_exptl_crystal_recrystallization_method 
'Dissolved in CH2Cl2, then added diethyl ether and recrystallized at -15 deg.C.'
loop_
_atom_site_label
_atom_site_type_symbol
_atom_site_fract_x
_atom_site_fract_y
_atom_site_fract_z
P1 P 0.59958(3) 0.65947(3) 0.26167(3)
N1 N 0.41691(11) 0.87709(9) 0.51945(9)
N2 N 0.29987(11) 0.96107(9) 0.34418(9)
C1 C 0.56586(13) 0.72277(11) 0.39642(11)
H1 H 0.6167 0.6922 0.4486
C2 C 0.46304(13) 0.81730(11) 0.41979(10)
C3 C 0.39798(13) 0.85658(11) 0.32694(11)
C4 C 0.44931(13) 0.78725(11) 0.23599(11)
C5 C 0.48773(14) 0.84488(12) 0.60666(11)
H2 H 0.4417 0.7831 0.6656
H3 H 0.4838 0.9167 0.6451
H4 H 0.5853 0.8131 0.5678
C6 C 0.29227(13) 0.95743(11) 0.54598(11)
C7 C 0.22595(14) 0.99619(12) 0.65819(11)
H5 H 0.2625 0.9643 0.7197
C8 C 0.10703(15) 1.08091(12) 0.68123(12)
H6 H 0.0629 1.1071 0.7579
C9 C 0.05350(14) 1.12679(12) 0.59193(12)
H7 H -0.0263 1.1862 0.6068
C10 C 0.11561(14) 1.08658(12) 0.48072(12)
H8 H 0.0766 1.1176 0.4206
C11 C 0.23485(13) 1.00107(11) 0.45582(11)
C12 C 0.25987(14) 1.02589(11) 0.24609(11)
H9 H 0.1735 1.0002 0.2464
H10 H 0.3342 1.0082 0.1721
H11 H 0.2450 1.1129 0.2537
C13 C 0.45564(14) 0.84219(12) 0.02525(11)
H12 H 0.5406 0.8747 0.0073
C14 C 0.39625(15) 0.84573(13) -0.06223(12)
H13 H 0.4396 0.8828 -0.1385
C15 C 0.27485(15) 0.79587(13) -0.03924(12)
H14 H 0.2352 0.7980 -0.0995
C16 C 0.21133(15) 0.74260(13) 0.07270(13)
H15 H 0.1283 0.7076 0.0891
C17 C 0.26928(14) 0.74053(12) 0.16070(12)
H16 H 0.2249 0.7039 0.2369
C18 C 0.39181(13) 0.79141(11) 0.13936(11)
C19 C 0.38538(13) 0.51753(12) 0.36000(11)
H17 H 0.3720 0.5528 0.4302
C20 C 0.29745(14) 0.43721(12) 0.35968(12)
H18 H 0.2247 0.4171 0.4298
C21 C 0.31548(15) 0.38602(12) 0.25703(13)
H19 H 0.2544 0.3319 0.2566
C22 C 0.42230(15) 0.41413(12) 0.15609(13)
H20 H 0.4350 0.3790 0.0860
C23 C 0.51163(14) 0.49352(12) 0.15618(12)
H21 H 0.5858 0.5115 0.0863
C24 C 0.49336(13) 0.54686(11) 0.25782(11)
C25 C 0.73769(13) 0.41737(12) 0.32709(11)
H22 H 0.6628 0.3834 0.3202
C26 C 0.83821(14) 0.34239(12) 0.36687(12)
H23 H 0.8308 0.2587 0.3870
C27 C 0.94841(14) 0.38999(12) 0.37699(12)
H24 H 1.0159 0.3397 0.4055
C28 C 0.95933(14) 0.51278(12) 0.34488(13)
H25 H 1.0356 0.5461 0.3500
C29 C 0.85952(14) 0.58556(12) 0.30577(12)
H26 H 0.8688 0.6687 0.2838
C30 C 0.74452(13) 0.54089(11) 0.29725(11)
C31 C 0.81329(14) 0.62878(12) 0.04214(12)
H27 H 0.8037 0.5452 0.0589
C32 C 0.91254(14) 0.66848(13) -0.06139(12)
H28 H 0.9674 0.6128 -0.1166
C33 C 0.93101(14) 0.78966(14) -0.08356(12)
H29 H 0.9992 0.8168 -0.1539
C34 C 0.85061(14) 0.87117(13) -0.00371(12)
H30 H 0.8655 0.9536 -0.0180
C35 C 0.74773(13) 0.83201(12) 0.09783(11)
H31 H 0.6908 0.8886 0.1513
C36 C 0.72759(13) 0.71063(12) 0.12169(11)
loop_
_geom_bond_atom_site_label_1
_geom_bond_atom_site_label_2
_geom_bond_site_symmetry_1
_geom_bond_site_symmetry_2
P1 C1 1_555 1_555
N1 C2 1_555 1_555
N2 C3 1_555 1_555
C1 H1 1_555 1_555
C2 C1 1_555 1_555
C3 C2 1_555 1_555
C4 P1 1_555 1_555
C5 N1 1_555 1_555
H2 C5 1_555 1_555
H3 C5 1_555 1_555
H4 C5 1_555 1_555
C6 N1 1_555 1_555
C7 C6 1_555 1_555
H5 C7 1_555 1_555
C8 C7 1_555 1_555
H6 C8 1_555 1_555
C9 C8 1_555 1_555
H7 C9 1_555 1_555
C10 C9 1_555 1_555
H8 C10 1_555 1_555
C11 N2 1_555 1_555
C12 N2 1_555 1_555
H9 C12 1_555 1_555
H10 C12 1_555 1_555
H11 C12 1_555 1_555
C13 H12 1_555 1_555
C14 C13 1_555 1_555
H13 C14 1_555 1_555
C15 C14 1_555 1_555
H14 C15 1_555 1_555
C16 C15 1_555 1_555
H15 C16 1_555 1_555
C17 C16 1_555 1_555
H16 C17 1_555 1_555
C18 C4 1_555 1_555
C19 H17 1_555 1_555
C20 C19 1_555 1_555
H18 C20 1_555 1_555
C21 C20 1_555 1_555
H19 C21 1_555 1_555
C22 C21 1_555 1_555
H20 C22 1_555 1_555
C23 C22 1_555 1_555
H21 C23 1_555 1_555
C24 P1 1_555 1_555
C25 H22 1_555 1_555
C26 C25 1_555 1_555
H23 C26 1_555 1_555
C27 C26 1_555 1_555
H24 C27 1_555 1_555
C28 C27 1_555 1_555
H25 C28 1_555 1_555
C29 C28 1_555 1_555
H26 C29 1_555 1_555
C30 P1 1_555 1_555
C31 H27 1_555 1_555
C32 C31 1_555 1_555
H28 C32 1_555 1_555
C33 C32 1_555 1_555
H29 C33 1_555 1_555
C34 C33 1_555 1_555
H30 C34 1_555 1_555
C35 C34 1_555 1_555
H31 C35 1_555 1_555
C36 P1 1_555 1_555
C3 C4 1_555 1_555
C6 C11 1_555 1_555
C10 C11 1_555 1_555
C13 C18 1_555 1_555
C17 C18 1_555 1_555
C19 C24 1_555 1_555
C23 C24 1_555 1_555
C25 C30 1_555 1_555
C29 C30 1_555 1_555
C31 C36 1_555 1_555
C35 C36 1_555 1_555

#END
