
#######################################################################
#
#                 Cambridge Crystallographic Data Centre
#                                CCDC 
#
#######################################################################
#
# If this CIF has been generated from an entry in the Cambridge 
# Structural Database, then it will include bibliographic, chemical, 
# crystal, experimental, refinement or atomic coordinate data resulting 
# from the CCDC's data processing and validation procedures.
#
#######################################################################

data_DELKEN
_chemical_formula_moiety         'C29 H36 N4 Si1'
_chemical_name_systematic        
3-{[1,3-bis(propan-2-yl)-2,3-dihydro-1H-benzimidazol-2-yl]methylidene}-1,4-dimethyl-2-phenyl-1,2,3,4-tetrahydro-1,4,2-benzodiazasiline
_symmetry_cell_setting           triclinic
_symmetry_space_group_name_H-M   'P -1'
_symmetry_Int_Tables_number      2
_space_group_name_Hall           '-P 1'
loop_
_symmetry_equiv_pos_site_id
_symmetry_equiv_pos_as_xyz
1 x,y,z
2 -x,-y,-z
_cell_length_a                   7.8338(4)
_cell_length_b                   13.3697(6)
_cell_length_c                   13.7847(6)
_cell_angle_alpha                67.399(2)
_cell_angle_beta                 88.006(3)
_cell_angle_gamma                73.304(2)
_cell_volume                     1272.01
_exptl_crystal_colour            colorless
_exptl_crystal_description       prism
_cell_formula_units_Z            2
_exptl_crystal_recrystallization_method 'THF/Hexane diffusion at -20 deg.C.'
_exptl_crystal_preparation       THF/Hexane
loop_
_atom_site_label
_atom_site_type_symbol
_atom_site_fract_x
_atom_site_fract_y
_atom_site_fract_z
Si1 Si 0.40483(4) 0.34938(3) 0.25221(3)
H1 H 0.5011 0.2907 0.3071
N1 N 0.31300(13) 0.28105(8) 0.58276(8)
N2 N 0.12247(13) 0.20215(8) 0.53504(8)
N3 N 0.13455(13) 0.53411(8) 0.23507(8)
N4 N 0.48329(14) 0.45689(9) 0.16845(8)
C1 C 0.16158(15) 0.38318(10) 0.40639(9)
H2 H 0.0539 0.4286 0.4205
C2 C 0.24823(15) 0.26852(10) 0.49008(9)
H3 H 0.3494 0.2247 0.4625
C3 C 0.47374(15) 0.31944(10) 0.57061(9)
H4 H 0.4754 0.3638 0.4935
C4 C 0.64755(17) 0.22229(12) 0.60444(11)
H5 H 0.6565 0.1800 0.6809
H6 H 0.7492 0.2529 0.5855
H7 H 0.6487 0.1714 0.5686
C5 C 0.46143(17) 0.40095(11) 0.62488(10)
H8 H 0.3535 0.4657 0.5959
H9 H 0.5671 0.4280 0.6129
H10 H 0.4558 0.3616 0.7008
C6 C 0.28751(15) 0.19343(10) 0.67287(9)
C7 C 0.34659(16) 0.15739(10) 0.77753(10)
H11 H 0.4235 0.1908 0.7978
C8 C 0.29006(17) 0.07012(11) 0.85310(10)
H12 H 0.3292 0.0443 0.9254
C9 C 0.17848(17) 0.02133(11) 0.82395(10)
H13 H 0.1428 -0.0381 0.8762
C10 C 0.11728(17) 0.05859(11) 0.71806(10)
H14 H 0.0404 0.0252 0.6978
C11 C 0.17148(15) 0.14519(10) 0.64368(9)
C12 C 0.07435(17) 0.13823(11) 0.47962(10)
H15 H -0.0053 0.0963 0.5250
C13 C -0.03371(18) 0.21592(12) 0.37498(11)
H16 H -0.1329 0.2740 0.3856
H17 H -0.0813 0.1713 0.3468
H18 H 0.0433 0.2526 0.3250
C14 C 0.23676(19) 0.04865(12) 0.46782(12)
H19 H 0.3215 0.0858 0.4262
H20 H 0.1979 0.0073 0.4320
H21 H 0.2950 -0.0046 0.5377
C15 C 0.22572(15) 0.42619(10) 0.31271(9)
C16 C -0.05241(16) 0.58277(11) 0.24823(10)
H22 H -0.1131 0.5239 0.2688
H23 H -0.1107 0.6441 0.1816
H24 H -0.0591 0.6130 0.3032
C17 C 0.23209(16) 0.61066(10) 0.18042(9)
C18 C 0.15946(17) 0.72582(11) 0.15856(10)
H25 H 0.0491 0.7511 0.1853
C19 C 0.24426(19) 0.80504(11) 0.09857(10)
H26 H 0.1917 0.8833 0.0840
C20 C 0.40538(19) 0.76861(12) 0.06049(10)
H27 H 0.4626 0.8222 0.0178
C21 C 0.48378(17) 0.65387(12) 0.08460(10)
H28 H 0.5962 0.6299 0.0593
C22 C 0.40209(16) 0.57244(11) 0.14508(9)
C23 C 0.65369(17) 0.42354(12) 0.12505(11)
H29 H 0.7448 0.4441 0.1539
H30 H 0.6391 0.4628 0.0481
H31 H 0.6911 0.3414 0.1441
C24 C 0.15428(16) 0.34890(11) 0.10887(10)
H32 H 0.1071 0.4275 0.0946
C25 C 0.07289(17) 0.30083(12) 0.05804(10)
H33 H -0.0284 0.3465 0.0089
C26 C 0.13959(18) 0.18588(12) 0.07898(11)
H34 H 0.0833 0.1528 0.0446
C27 C 0.28790(19) 0.11960(12) 0.14979(11)
H35 H 0.3331 0.0408 0.1644
C28 C 0.37112(17) 0.16816(11) 0.19967(10)
H36 H 0.4744 0.1223 0.2471
C29 C 0.30500(16) 0.28348(10) 0.18099(9)
loop_
_geom_bond_atom_site_label_1
_geom_bond_atom_site_label_2
_geom_bond_site_symmetry_1
_geom_bond_site_symmetry_2
Si1 H1 1_555 1_555
N1 C2 1_555 1_555
N2 C2 1_555 1_555
N3 C15 1_555 1_555
N4 Si1 1_555 1_555
C1 H2 1_555 1_555
C2 C1 1_555 1_555
H3 C2 1_555 1_555
C3 N1 1_555 1_555
H4 C3 1_555 1_555
C4 C3 1_555 1_555
H5 C4 1_555 1_555
H6 C4 1_555 1_555
H7 C4 1_555 1_555
C5 C3 1_555 1_555
H8 C5 1_555 1_555
H9 C5 1_555 1_555
H10 C5 1_555 1_555
C6 N1 1_555 1_555
C7 C6 1_555 1_555
H11 C7 1_555 1_555
C8 C7 1_555 1_555
H12 C8 1_555 1_555
C9 C8 1_555 1_555
H13 C9 1_555 1_555
C10 C9 1_555 1_555
H14 C10 1_555 1_555
C11 N2 1_555 1_555
C12 N2 1_555 1_555
H15 C12 1_555 1_555
C13 C12 1_555 1_555
H16 C13 1_555 1_555
H17 C13 1_555 1_555
H18 C13 1_555 1_555
C14 C12 1_555 1_555
H19 C14 1_555 1_555
H20 C14 1_555 1_555
H21 C14 1_555 1_555
C15 Si1 1_555 1_555
C16 N3 1_555 1_555
H22 C16 1_555 1_555
H23 C16 1_555 1_555
H24 C16 1_555 1_555
C17 N3 1_555 1_555
C18 C17 1_555 1_555
H25 C18 1_555 1_555
C19 C18 1_555 1_555
H26 C19 1_555 1_555
C20 C19 1_555 1_555
H27 C20 1_555 1_555
C21 C20 1_555 1_555
H28 C21 1_555 1_555
C22 N4 1_555 1_555
C23 N4 1_555 1_555
H29 C23 1_555 1_555
H30 C23 1_555 1_555
H31 C23 1_555 1_555
C24 H32 1_555 1_555
C25 C24 1_555 1_555
H33 C25 1_555 1_555
C26 C25 1_555 1_555
H34 C26 1_555 1_555
C27 C26 1_555 1_555
H35 C27 1_555 1_555
C28 C27 1_555 1_555
H36 C28 1_555 1_555
C29 Si1 1_555 1_555
C1 C15 1_555 1_555
C6 C11 1_555 1_555
C10 C11 1_555 1_555
C17 C22 1_555 1_555
C21 C22 1_555 1_555
C24 C29 1_555 1_555
C28 C29 1_555 1_555

#END
