
#######################################################################
#
#                 Cambridge Crystallographic Data Centre
#                                CCDC 
#
#######################################################################
#
# If this CIF has been generated from an entry in the Cambridge 
# Structural Database, then it will include bibliographic, chemical, 
# crystal, experimental, refinement or atomic coordinate data resulting 
# from the CCDC's data processing and validation procedures.
#
#######################################################################

data_DELMIT
_chemical_formula_moiety         'C19 H22 O2'
_chemical_name_systematic        
'benzyl (R)-3-cyclohexyl-2-methylidenepent-4-ynoate'
_symmetry_cell_setting           orthorhombic
_symmetry_space_group_name_H-M   'P 21 21 21'
_symmetry_Int_Tables_number      19
_space_group_name_Hall           'P 2ac 2ab'
loop_
_symmetry_equiv_pos_site_id
_symmetry_equiv_pos_as_xyz
1 x,y,z
2 1/2-x,-y,1/2+z
3 -x,1/2+y,1/2-z
4 1/2+x,1/2-y,-z
_cell_length_a                   6.27230(10)
_cell_length_b                   16.0553(3)
_cell_length_c                   16.2734(3)
_cell_angle_alpha                90
_cell_angle_beta                 90
_cell_angle_gamma                90
_cell_volume                     1638.79
_exptl_crystal_colour            colorless
_exptl_crystal_description       block
_cell_formula_units_Z            4
loop_
_atom_site_label
_atom_site_type_symbol
_atom_site_fract_x
_atom_site_fract_y
_atom_site_fract_z
O1 O 0.1834(2) 1.01604(9) 0.51384(8)
C1 C 0.3882(3) 0.99861(10) 0.52553(11)
C2 C 0.6826(3) 0.86233(10) 0.61549(10)
H1 H 0.6294 0.8518 0.5598
C3 C 0.7394(3) 0.98133(10) 0.71290(11)
C4 C 0.4450(3) 0.99073(9) 0.61412(10)
O2 O 0.5159(2) 0.99085(9) 0.47080(8)
C5 C 0.9125(3) 0.83278(12) 0.61812(14)
H2 H 0.9729 0.8454 0.6716
H3 H 0.9945 0.8625 0.5770
C6 C 0.6659(2) 0.95763(9) 0.63089(10)
H4 H 0.7617 0.9846 0.5915
C7 C 0.1203(3) 1.12243(11) 0.41057(10)
C8 C 0.7999(3) 1.00245(12) 0.77939(13)
C9 C 0.2952(4) 1.15707(14) 0.37334(13)
H5 H 0.4106 1.1234 0.3596
C10 C 0.3023(5) 1.24025(17) 0.35618(15)
H6 H 0.4213 1.2628 0.3304
C11 C -0.0479(4) 1.17353(16) 0.43001(14)
H7 H -0.1688 1.1512 0.4547
C12 C 0.5442(3) 0.81150(11) 0.67455(12)
H8 H 0.5874 0.8229 0.7307
H9 H 0.3963 0.8281 0.6686
C13 C 0.7936(4) 0.69041(12) 0.66112(16)
H10 H 0.8474 0.6978 0.7165
H11 H 0.8019 0.6316 0.6477
C14 C 0.3085(3) 1.01363(13) 0.67124(12)
H12 H 0.1760 1.0348 0.6564
H13 H 0.3445 1.0086 0.7265
C15 C 0.1105(4) 1.03180(13) 0.42993(14)
H14 H -0.0349 1.0122 0.4238
H15 H 0.1994 1.0013 0.3916
C16 C 0.5649(4) 0.71840(12) 0.65739(14)
H16 H 0.4821 0.6876 0.6975
H17 H 0.5074 0.7063 0.6034
C17 C 0.9294(4) 0.73915(14) 0.60220(18)
H18 H 0.8846 0.7273 0.5464
H19 H 1.0769 0.7219 0.6078
C18 C 0.1343(6) 1.29039(15) 0.37695(17)
H20 H 0.1400 1.3472 0.3659
C19 C -0.0394(5) 1.25760(18) 0.41335(17)
H21 H -0.1536 1.2917 0.4272
loop_
_geom_bond_atom_site_label_1
_geom_bond_atom_site_label_2
_geom_bond_site_symmetry_1
_geom_bond_site_symmetry_2
O1 C1 1_555 1_555
C1 C4 1_555 1_555
C2 H1 1_555 1_555
C3 C6 1_555 1_555
C4 C6 1_555 1_555
O2 C1 1_555 1_555
C5 C2 1_555 1_555
H2 C5 1_555 1_555
H3 C5 1_555 1_555
C6 C2 1_555 1_555
H4 C6 1_555 1_555
C7 C9 1_555 1_555
C8 C3 1_555 1_555
C9 H5 1_555 1_555
C10 C9 1_555 1_555
H6 C10 1_555 1_555
C11 C7 1_555 1_555
H7 C11 1_555 1_555
C12 C2 1_555 1_555
H8 C12 1_555 1_555
H9 C12 1_555 1_555
C13 H10 1_555 1_555
H11 C13 1_555 1_555
C14 C4 1_555 1_555
H12 C14 1_555 1_555
H13 C14 1_555 1_555
C15 O1 1_555 1_555
H14 C15 1_555 1_555
H15 C15 1_555 1_555
C16 C12 1_555 1_555
H16 C16 1_555 1_555
H17 C16 1_555 1_555
C17 C5 1_555 1_555
H18 C17 1_555 1_555
H19 C17 1_555 1_555
C18 C10 1_555 1_555
H20 C18 1_555 1_555
C19 C11 1_555 1_555
H21 C19 1_555 1_555
C7 C15 1_555 1_555
C13 C16 1_555 1_555
C13 C17 1_555 1_555
C18 C19 1_555 1_555

#END
