
#######################################################################
#
#                 Cambridge Crystallographic Data Centre
#                                CCDC 
#
#######################################################################
#
# If this CIF has been generated from an entry in the Cambridge 
# Structural Database, then it will include bibliographic, chemical, 
# crystal, experimental, refinement or atomic coordinate data resulting 
# from the CCDC's data processing and validation procedures.
#
#######################################################################

data_DELNAK
_chemical_formula_moiety         'C24 H25 Br1 N4 O4'
_chemical_name_systematic        
'Methyl 2-(2-(1-(3-(4-bromophenyl)-1,2,4-oxadiazol-5-yl)-2-(dimethylamino)vinyloxy)phenyl)-3-(dimethylamino)acrylate'
_symmetry_cell_setting           monoclinic
_symmetry_space_group_name_H-M   'P 21/n'
_symmetry_Int_Tables_number      14
_space_group_name_Hall           '-P 2yn'
loop_
_symmetry_equiv_pos_site_id
_symmetry_equiv_pos_as_xyz
1 x,y,z
2 1/2-x,1/2+y,1/2-z
3 -x,-y,-z
4 1/2+x,1/2-y,1/2+z
_cell_length_a                   15.479(3)
_cell_length_b                   8.5690(17)
_cell_length_c                   17.919(4)
_cell_angle_alpha                90
_cell_angle_beta                 98.37(3)
_cell_angle_gamma                90
_cell_volume                     2351.45
_exptl_crystal_colour            colorless
_exptl_crystal_description       block
_cell_formula_units_Z            4
_exptl_crystal_recrystallization_method ethanol
loop_
_atom_site_label
_atom_site_type_symbol
_atom_site_fract_x
_atom_site_fract_y
_atom_site_fract_z
Br1 Br 0.94458(5) 0.76743(8) 0.56809(5)
O1 O 0.7163(3) -0.0515(5) 0.6679(2)
O2 O 0.6984(2) -0.2752(4) 0.49564(19)
O3 O 0.7908(3) -0.6172(4) 0.3535(2)
O4 O 0.6514(3) -0.5581(4) 0.3607(2)
N1 N 0.7546(4) 0.0985(6) 0.6809(3)
N2 N 0.7538(3) 0.0257(5) 0.5593(2)
C1 C 0.5801(4) -0.5530(8) 0.6657(3)
H1 H 0.5924 -0.4911 0.7106
H2 H 0.6086 -0.6524 0.6737
H3 H 0.5182 -0.5685 0.6537
C2 C 0.6107(4) -0.5610(7) 0.5344(3)
H4 H 0.5920 -0.4947 0.4919
H5 H 0.5710 -0.6471 0.5342
H6 H 0.6682 -0.5998 0.5312
N3 N 0.6120(3) -0.4729(6) 0.6034(3)
C3 C 0.6470(3) -0.3298(7) 0.6138(3)
H7 H 0.6459 -0.2899 0.6620
C4 C 0.6834(3) -0.2326(6) 0.5680(3)
C5 C 0.7189(3) -0.0862(7) 0.5941(3)
C6 C 0.7753(3) 0.1360(6) 0.6151(3)
C7 C 0.8165(3) 0.2853(6) 0.6030(3)
C8 C 0.8237(4) 0.3995(7) 0.6592(3)
H8 H 0.8028 0.3790 0.7043
C9 C 0.8613(4) 0.5417(7) 0.6488(4)
H9 H 0.8647 0.6179 0.6860
C10 C 0.8936(4) 0.5697(7) 0.5825(4)
C11 C 0.8863(3) 0.4619(7) 0.5250(3)
H10 H 0.9061 0.4844 0.4796
C12 C 0.8486(3) 0.3183(7) 0.5367(3)
H11 H 0.8449 0.2428 0.4991
C13 C 0.6453(3) -0.2127(5) 0.4338(3)
C14 C 0.5728(3) -0.1235(6) 0.4398(3)
H12 H 0.5572 -0.1035 0.4870
C15 C 0.5233(3) -0.0637(6) 0.3764(3)
H13 H 0.4745 -0.0027 0.3805
C16 C 0.5465(3) -0.0951(6) 0.3068(3)
H14 H 0.5134 -0.0547 0.2636
C17 C 0.6187(4) -0.1865(6) 0.3006(3)
H15 H 0.6332 -0.2078 0.2531
C18 C 0.6701(3) -0.2471(5) 0.3641(3)
C19 C 0.9558(4) -0.1468(8) 0.3386(4)
H16 H 0.9888 -0.1101 0.3848
H17 H 0.9614 -0.0740 0.2989
H18 H 0.9776 -0.2468 0.3260
C20 C 0.8205(4) -0.0161(6) 0.3626(3)
H19 H 0.7775 0.0086 0.3200
H20 H 0.8624 0.0669 0.3709
H21 H 0.7924 -0.0288 0.4066
N4 N 0.8648(3) -0.1609(5) 0.3478(3)
C21 C 0.8283(4) -0.3039(6) 0.3484(3)
H22 H 0.8658 -0.3860 0.3418
C22 C 0.7464(3) -0.3477(6) 0.3571(3)
C23 C 0.7346(4) -0.5182(7) 0.3566(3)
C24 C 0.6341(5) -0.7234(6) 0.3621(4)
H23 H 0.6497 -0.7712 0.3175
H24 H 0.5731 -0.7401 0.3640
H25 H 0.6680 -0.7689 0.4059
loop_
_geom_bond_atom_site_label_1
_geom_bond_atom_site_label_2
_geom_bond_site_symmetry_1
_geom_bond_site_symmetry_2
Br1 C10 1_555 1_555
O1 N1 1_555 1_555
O2 C4 1_555 1_555
O3 C23 1_555 1_555
O4 C23 1_555 1_555
N1 C6 1_555 1_555
N2 C5 1_555 1_555
C1 H1 1_555 1_555
H2 C1 1_555 1_555
H3 C1 1_555 1_555
C2 H4 1_555 1_555
H5 C2 1_555 1_555
H6 C2 1_555 1_555
N3 C1 1_555 1_555
C3 N3 1_555 1_555
H7 C3 1_555 1_555
C4 C3 1_555 1_555
C5 O1 1_555 1_555
C6 N2 1_555 1_555
C7 C6 1_555 1_555
C8 C7 1_555 1_555
H8 C8 1_555 1_555
C9 C8 1_555 1_555
H9 C9 1_555 1_555
C10 C9 1_555 1_555
C11 C10 1_555 1_555
H10 C11 1_555 1_555
C12 C7 1_555 1_555
H11 C12 1_555 1_555
C13 O2 1_555 1_555
C14 C13 1_555 1_555
H12 C14 1_555 1_555
C15 C14 1_555 1_555
H13 C15 1_555 1_555
C16 C15 1_555 1_555
H14 C16 1_555 1_555
C17 C16 1_555 1_555
H15 C17 1_555 1_555
C18 C13 1_555 1_555
C19 H16 1_555 1_555
H17 C19 1_555 1_555
H18 C19 1_555 1_555
C20 H19 1_555 1_555
H20 C20 1_555 1_555
H21 C20 1_555 1_555
N4 C19 1_555 1_555
C21 N4 1_555 1_555
H22 C21 1_555 1_555
C22 C18 1_555 1_555
C23 C22 1_555 1_555
C24 O4 1_555 1_555
H23 C24 1_555 1_555
H24 C24 1_555 1_555
H25 C24 1_555 1_555
C2 N3 1_555 1_555
C4 C5 1_555 1_555
C11 C12 1_555 1_555
C17 C18 1_555 1_555
C20 N4 1_555 1_555
C21 C22 1_555 1_555

#END
