
#######################################################################
#
#                 Cambridge Crystallographic Data Centre
#                                CCDC 
#
#######################################################################
#
# If this CIF has been generated from an entry in the Cambridge 
# Structural Database, then it will include bibliographic, chemical, 
# crystal, experimental, refinement or atomic coordinate data resulting 
# from the CCDC's data processing and validation procedures.
#
#######################################################################

data_DELPEQ
_chemical_formula_moiety         'C9 H11 N3 O2'
_chemical_name_systematic        'Acetone (2-nitrophenyl)hydrazone'
_symmetry_cell_setting           monoclinic
_symmetry_space_group_name_H-M   'P 21/c'
_symmetry_Int_Tables_number      14
_space_group_name_Hall           '-P 2ybc'
loop_
_symmetry_equiv_pos_site_id
_symmetry_equiv_pos_as_xyz
1 x,y,z
2 -x,1/2+y,1/2-z
3 -x,-y,-z
4 x,1/2-y,1/2+z
_cell_length_a                   8.5080(17)
_cell_length_b                   15.479(3)
_cell_length_c                   8.1420(16)
_cell_angle_alpha                90
_cell_angle_beta                 112.96(3)
_cell_angle_gamma                90
_cell_volume                     987.316
_exptl_crystal_colour            red
_exptl_crystal_description       block
_cell_formula_units_Z            4
_exptl_crystal_recrystallization_method ethanol
loop_
_atom_site_label
_atom_site_type_symbol
_atom_site_fract_x
_atom_site_fract_y
_atom_site_fract_z
O1 O 0.3849(2) 0.17799(11) 0.1594(2)
O2 O 0.5530(2) 0.09039(12) 0.3575(2)
N1 N 0.5059(2) 0.12668(11) 0.2101(2)
N2 N 0.76540(19) -0.00839(11) 0.2807(2)
H1 H 0.7268 0.0022 0.3618
N3 N 0.8774(2) -0.07660(11) 0.3015(2)
C1 C 0.5935(2) 0.10844(12) 0.0931(2)
C2 C 0.5482(2) 0.15828(13) -0.0621(3)
H2 H 0.4665 0.2015 -0.0847
C3 C 0.6228(3) 0.14391(15) -0.1803(3)
H3 H 0.5941 0.1778 -0.2823
C4 C 0.7420(3) 0.07826(15) -0.1468(3)
H4 H 0.7921 0.0681 -0.2281
C5 C 0.7879(3) 0.02790(14) 0.0032(3)
H5 H 0.8673 -0.0161 0.0209
C6 C 0.7166(2) 0.04180(12) 0.1314(2)
C7 C 0.9043(2) -0.12657(13) 0.4352(3)
C8 C 0.8259(3) -0.11777(17) 0.5698(3)
H6 H 0.7070 -0.1038 0.5102
H7 H 0.8827 -0.0726 0.6524
H8 H 0.8376 -0.1712 0.6332
C9 C 1.0256(3) -0.20019(16) 0.4600(3)
H9 H 1.0654 -0.2003 0.3646
H10 H 0.9683 -0.2537 0.4593
H11 H 1.1211 -0.1938 0.5718
loop_
_geom_bond_atom_site_label_1
_geom_bond_atom_site_label_2
_geom_bond_site_symmetry_1
_geom_bond_site_symmetry_2
O1 N1 1_555 1_555
O2 N1 1_555 1_555
N1 C1 1_555 1_555
N2 H1 1_555 1_555
N3 N2 1_555 1_555
C1 C2 1_555 1_555
C2 H2 1_555 1_555
C3 C2 1_555 1_555
H3 C3 1_555 1_555
C4 C3 1_555 1_555
H4 C4 1_555 1_555
C5 C4 1_555 1_555
H5 C5 1_555 1_555
C6 N2 1_555 1_555
C7 N3 1_555 1_555
C8 C7 1_555 1_555
H6 C8 1_555 1_555
H7 C8 1_555 1_555
H8 C8 1_555 1_555
C9 C7 1_555 1_555
H9 C9 1_555 1_555
H10 C9 1_555 1_555
H11 C9 1_555 1_555
C1 C6 1_555 1_555
C5 C6 1_555 1_555

#END
