
#######################################################################
#
#                 Cambridge Crystallographic Data Centre
#                                CCDC 
#
#######################################################################
#
# If this CIF has been generated from an entry in the Cambridge 
# Structural Database, then it will include bibliographic, chemical, 
# crystal, experimental, refinement or atomic coordinate data resulting 
# from the CCDC's data processing and validation procedures.
#
#######################################################################

data_DELQER
_chemical_formula_moiety         'C18 H16 N2 O3,H2 O1'
_chemical_name_systematic        
'N-(3-Methoxyphenyl)-2-(quinolin-8-yloxy)acetamide monohydrate'
_symmetry_cell_setting           monoclinic
_symmetry_space_group_name_H-M   'P 21'
_symmetry_Int_Tables_number      4
_space_group_name_Hall           'P 2yb'
loop_
_symmetry_equiv_pos_site_id
_symmetry_equiv_pos_as_xyz
1 x,y,z
2 -x,1/2+y,-z
_cell_length_a                   8.1881(11)
_cell_length_b                   7.0491(10)
_cell_length_c                   14.094(2)
_cell_angle_alpha                90
_cell_angle_beta                 100.553(2)
_cell_angle_gamma                90
_cell_volume                     799.728
_exptl_crystal_colour            colorless
_exptl_crystal_description       block
_cell_formula_units_Z            2
_exptl_crystal_recrystallization_method 'ethyl acetate'
loop_
_atom_site_label
_atom_site_type_symbol
_atom_site_fract_x
_atom_site_fract_y
_atom_site_fract_z
O1 O 0.7750(4) 0.6915(4) 0.1053(2)
H1 H 0.730(5) 0.795(4) 0.117(3)
H2 H 0.803(5) 0.700(7) 0.0497(15)
O2 O 0.7023(3) 0.0511(3) 0.98167(15)
O3 O 0.6257(3) 0.0294(3) 1.15802(18)
O4 O 0.8185(3) 0.7170(4) 1.46917(16)
N1 N 0.8503(3) -0.2497(4) 0.9194(2)
N2 N 0.6730(3) 0.3448(4) 1.17961(18)
H3 H 0.6906 0.4467 1.1495
C1 C 0.7967(4) -0.1079(4) 0.8548(2)
C2 C 0.9218(4) -0.3979(5) 0.8872(3)
H4 H 0.9585 -0.4947 0.9308
C3 C 0.9462(4) -0.4197(6) 0.7927(3)
H5 H 0.9967 -0.5282 0.7740
C4 C 0.8949(4) -0.2792(5) 0.7286(3)
H6 H 0.9108 -0.2908 0.6652
C5 C 0.8178(4) -0.1161(5) 0.7570(2)
C6 C 0.7573(4) 0.0331(6) 0.6943(2)
H7 H 0.7688 0.0279 0.6299
C7 C 0.6826(5) 0.1840(6) 0.7269(3)
H8 H 0.6437 0.2818 0.6844
C8 C 0.6620(4) 0.1972(5) 0.8236(2)
H9 H 0.6110 0.3029 0.8447
C9 C 0.7177(4) 0.0535(5) 0.8861(2)
C10 C 0.6507(4) 0.2206(4) 1.0207(2)
H10 H 0.5404 0.2554 0.9874
H11 H 0.7265 0.3230 1.0133
C11 C 0.6495(4) 0.1864(5) 1.1264(2)
C12 C 0.6722(4) 0.3646(4) 1.2802(2)
C13 C 0.7477(4) 0.5267(5) 1.3232(2)
H12 H 0.7973 0.6127 1.2871
C14 C 0.7490(4) 0.5601(6) 1.4199(2)
C15 C 0.6782(5) 0.4307(6) 1.4737(3)
H13 H 0.6805 0.4517 1.5390
C16 C 0.6051(5) 0.2718(6) 1.4302(3)
H14 H 0.5578 0.1849 1.4668
C17 C 0.5990(4) 0.2359(5) 1.3330(3)
H15 H 0.5469 0.1278 1.3042
C18 C 0.8902(5) 0.8547(6) 1.4173(3)
H16 H 0.9339 0.9562 1.4598
H17 H 0.8072 0.9036 1.3661
H18 H 0.9784 0.7982 1.3906
loop_
_geom_bond_atom_site_label_1
_geom_bond_atom_site_label_2
_geom_bond_site_symmetry_1
_geom_bond_site_symmetry_2
O1 H1 1_555 1_555
H2 O1 1_555 1_555
O2 C9 1_555 1_555
O3 C11 1_555 1_555
O4 C14 1_555 1_555
N1 C1 1_555 1_555
N2 H3 1_555 1_555
C1 C5 1_555 1_555
C2 N1 1_555 1_555
H4 C2 1_555 1_555
C3 C2 1_555 1_555
H5 C3 1_555 1_555
C4 C3 1_555 1_555
H6 C4 1_555 1_555
C5 C4 1_555 1_555
C6 C5 1_555 1_555
H7 C6 1_555 1_555
C7 C6 1_555 1_555
H8 C7 1_555 1_555
C8 C7 1_555 1_555
H9 C8 1_555 1_555
C9 C1 1_555 1_555
C10 O2 1_555 1_555
H10 C10 1_555 1_555
H11 C10 1_555 1_555
C11 N2 1_555 1_555
C12 N2 1_555 1_555
C13 C12 1_555 1_555
H12 C13 1_555 1_555
C14 C13 1_555 1_555
C15 C14 1_555 1_555
H13 C15 1_555 1_555
C16 C15 1_555 1_555
H14 C16 1_555 1_555
C17 C12 1_555 1_555
H15 C17 1_555 1_555
C18 O4 1_555 1_555
H16 C18 1_555 1_555
H17 C18 1_555 1_555
H18 C18 1_555 1_555
C8 C9 1_555 1_555
C10 C11 1_555 1_555
C16 C17 1_555 1_555

#END
