
#######################################################################
#
#                 Cambridge Crystallographic Data Centre
#                                CCDC 
#
#######################################################################
#
# If this CIF has been generated from an entry in the Cambridge 
# Structural Database, then it will include bibliographic, chemical, 
# crystal, experimental, refinement or atomic coordinate data resulting 
# from the CCDC's data processing and validation procedures.
#
#######################################################################

data_DELZIE
_chemical_formula_moiety         'C10 H12 Cl1 N1 O2'
_chemical_name_systematic        N-(4-Ethoxyphenyl)-2-chloroacetamide
_symmetry_cell_setting           monoclinic
_symmetry_space_group_name_H-M   'P 21/c'
_symmetry_Int_Tables_number      14
_space_group_name_Hall           '-P 2ybc'
loop_
_symmetry_equiv_pos_site_id
_symmetry_equiv_pos_as_xyz
1 x,y,z
2 -x,1/2+y,1/2-z
3 -x,-y,-z
4 x,1/2-y,1/2+z
_cell_length_a                   11.3149(13)
_cell_length_b                   10.0120(12)
_cell_length_c                   9.1966(11)
_cell_angle_alpha                90
_cell_angle_beta                 97.155(2)
_cell_angle_gamma                90
_cell_volume                     1033.72
_exptl_crystal_colour            colorless
_exptl_crystal_description       block
_cell_formula_units_Z            4
_exptl_crystal_recrystallization_method 'ethyl acetate'
loop_
_atom_site_label
_atom_site_type_symbol
_atom_site_fract_x
_atom_site_fract_y
_atom_site_fract_z
Cl1 Cl 0.39904(5) 0.40770(5) 0.11532(6)
O1 O 0.57690(12) 0.19058(14) 0.18059(13)
O2 O 0.95454(12) -0.23321(15) -0.06892(17)
N1 N 0.59618(13) 0.14633(15) -0.05723(15)
H1 H 0.5686 0.1704 -0.1447
C1 C 0.43727(16) 0.28680(18) -0.0106(2)
H2 H 0.3700 0.2276 -0.0359
H3 H 0.4539 0.3313 -0.0995
C2 C 0.54491(15) 0.20471(16) 0.05011(18)
C3 C 0.68928(14) 0.05066(17) -0.04774(18)
C4 C 0.75861(15) 0.01403(18) 0.08039(19)
H4 H 0.7449 0.0525 0.1688
C5 C 0.84905(16) -0.08042(18) 0.0780(2)
H5 H 0.8955 -0.1044 0.1647
C6 C 0.86992(16) -0.13861(19) -0.0531(2)
C7 C 0.79983(17) -0.1006(2) -0.1819(2)
H6 H 0.8133 -0.1388 -0.2705
C8 C 0.71139(16) -0.00747(19) -0.1796(2)
H7 H 0.6657 0.0172 -0.2666
C9 C 1.04211(17) -0.2600(2) 0.0522(2)
H8 H 1.0056 -0.3003 0.1315
H9 H 1.0811 -0.1779 0.0877
C10 C 1.1310(2) -0.3546(3) -0.0011(3)
H10 H 1.1917 -0.3755 0.0781
H11 H 1.1667 -0.3134 -0.0792
H12 H 1.0912 -0.4352 -0.0362
loop_
_geom_bond_atom_site_label_1
_geom_bond_atom_site_label_2
_geom_bond_site_symmetry_1
_geom_bond_site_symmetry_2
Cl1 C1 1_555 1_555
O1 C2 1_555 1_555
O2 C6 1_555 1_555
N1 H1 1_555 1_555
C1 H2 1_555 1_555
H3 C1 1_555 1_555
C2 N1 1_555 1_555
C3 N1 1_555 1_555
C4 C3 1_555 1_555
H4 C4 1_555 1_555
C5 C4 1_555 1_555
H5 C5 1_555 1_555
C6 C5 1_555 1_555
C7 C6 1_555 1_555
H6 C7 1_555 1_555
C8 C3 1_555 1_555
H7 C8 1_555 1_555
C9 O2 1_555 1_555
H8 C9 1_555 1_555
H9 C9 1_555 1_555
C10 C9 1_555 1_555
H10 C10 1_555 1_555
H11 C10 1_555 1_555
H12 C10 1_555 1_555
C1 C2 1_555 1_555
C7 C8 1_555 1_555

#END
