
#######################################################################
#
#                 Cambridge Crystallographic Data Centre
#                                CCDC 
#
#######################################################################
#
# If this CIF has been generated from an entry in the Cambridge 
# Structural Database, then it will include bibliographic, chemical, 
# crystal, experimental, refinement or atomic coordinate data resulting 
# from the CCDC's data processing and validation procedures.
#
#######################################################################

data_DEMCEE
_chemical_formula_moiety         'C21 H6 Br9 N3 O3'
_chemical_name_systematic        
2,4,6-tris(2,4,6-Tribromophenoxy)-1,3,5-triazine
_symmetry_cell_setting           rhombohedral
_symmetry_space_group_name_H-M   'R -3'
_symmetry_Int_Tables_number      148
_space_group_name_Hall           '-R 3'
loop_
_symmetry_equiv_pos_site_id
_symmetry_equiv_pos_as_xyz
1 x,y,z
2 -y,x-y,z
3 -x+y,-x,z
4 2/3+x,1/3+y,1/3+z
5 2/3-y,1/3+x-y,1/3+z
6 2/3-x+y,1/3-x,1/3+z
7 1/3+x,2/3+y,2/3+z
8 1/3-y,2/3+x-y,2/3+z
9 1/3-x+y,2/3-x,2/3+z
10 -x,-y,-z
11 y,-x+y,-z
12 x-y,x,-z
13 1/3-x,2/3-y,2/3-z
14 1/3+y,2/3-x+y,2/3-z
15 1/3+x-y,2/3+x,2/3-z
16 2/3-x,1/3-y,1/3-z
17 2/3+y,1/3-x+y,1/3-z
18 2/3+x-y,1/3+x,1/3-z
_cell_length_a                   42.524(3)
_cell_length_b                   42.524(3)
_cell_length_c                   8.4270(13)
_cell_angle_alpha                90
_cell_angle_beta                 90
_cell_angle_gamma                120.00
_cell_volume                     13196.9
_exptl_crystal_colour            colorless
_exptl_crystal_description       column
_cell_formula_units_Z            18
_exptl_crystal_recrystallization_method 'ethyl acetate'
loop_
_atom_site_label
_atom_site_type_symbol
_atom_site_fract_x
_atom_site_fract_y
_atom_site_fract_z
Br1 Br 0.14695(2) 1.05886(2) 0.78799(9)
Br2 Br 0.05370(2) 1.04421(2) 1.29489(10)
Br3 Br 0.16224(3) 1.00730(3) 1.38390(11)
Br4 Br 0.11745(2) 0.911279(19) 0.56823(8)
Br5 Br 0.11478(2) 0.77903(2) 0.69715(10)
Br6 Br 0.12460(3) 0.87120(2) 1.19684(9)
Br7 Br 0.28900(3) 0.99514(2) 1.15098(10)
Br8 Br 0.38069(2) 1.12582(2) 0.82690(12)
Br9 Br 0.24690(2) 1.02452(3) 0.55981(11)
O1 O 0.18184(11) 1.03598(10) 1.0440(6)
O2 O 0.11984(9) 0.91584(10) 0.9284(5)
O3 O 0.24200(10) 0.98118(10) 0.8607(5)
N1 N 0.21305(12) 1.01046(13) 0.9544(6)
N2 N 0.14877(12) 0.97531(12) 0.9853(6)
N3 N 0.18222(12) 0.94728(12) 0.8951(6)
C1 C 0.18037(16) 1.00549(15) 0.9908(7)
C2 C 0.15233(16) 0.94745(15) 0.9344(7)
C3 C 0.21106(15) 0.97999(16) 0.9067(7)
C4 C 0.14995(16) 1.03448(15) 1.0974(9)
C5 C 0.13206(16) 1.04686(15) 0.9990(8)
C6 C 0.10373(16) 1.05016(15) 1.0567(8)
H1 H 0.0919 1.0588 0.9928
C7 C 0.09319(15) 1.04021(16) 1.2127(8)
C8 C 0.10979(17) 1.02683(17) 1.3111(8)
H2 H 0.1018 1.0196 1.4146
C9 C 0.13826(18) 1.02463(16) 1.2501(9)
C10 C 0.12016(14) 0.88482(15) 0.8738(7)
C11 C 0.11741(15) 0.87749(15) 0.7135(7)
C12 C 0.11546(16) 0.84582(16) 0.6595(8)
H3 H 0.1136 0.8407 0.5514
C13 C 0.11638(16) 0.82203(15) 0.7670(8)
C14 C 0.11850(17) 0.82893(16) 0.9267(8)
H4 H 0.1189 0.8126 0.9988
C15 C 0.12005(17) 0.86035(16) 0.9795(7)
C16 C 0.27324(15) 1.01554(15) 0.8556(7)
C17 C 0.29862(17) 1.02586(16) 0.9727(7)
C18 C 0.33117(17) 1.05808(18) 0.9665(8)
H5 H 0.3482 1.0647 1.0473
C19 C 0.33758(16) 1.08018(16) 0.8366(9)
C20 C 0.31306(18) 1.07056(17) 0.7147(8)
H6 H 0.3179 1.0856 0.6272
C21 C 0.28077(16) 1.03772(18) 0.7254(8)
loop_
_geom_bond_atom_site_label_1
_geom_bond_atom_site_label_2
_geom_bond_site_symmetry_1
_geom_bond_site_symmetry_2
Br1 C5 1_555 1_555
Br2 C7 1_555 1_555
Br3 C9 1_555 1_555
Br4 C11 1_555 1_555
Br5 C13 1_555 1_555
Br6 C15 1_555 1_555
Br7 C17 1_555 1_555
Br8 C19 1_555 1_555
Br9 C21 1_555 1_555
O1 C1 1_555 1_555
O2 C2 1_555 1_555
O3 C3 1_555 1_555
N1 C1 1_555 1_555
N2 C1 1_555 1_555
N3 C2 1_555 1_555
C2 N2 1_555 1_555
C3 N1 1_555 1_555
C4 O1 1_555 1_555
C5 C4 1_555 1_555
C6 C5 1_555 1_555
H1 C6 1_555 1_555
C7 C6 1_555 1_555
C8 C7 1_555 1_555
H2 C8 1_555 1_555
C9 C4 1_555 1_555
C10 O2 1_555 1_555
C11 C10 1_555 1_555
C12 C11 1_555 1_555
H3 C12 1_555 1_555
C13 C12 1_555 1_555
C14 C13 1_555 1_555
H4 C14 1_555 1_555
C15 C10 1_555 1_555
C16 O3 1_555 1_555
C17 C16 1_555 1_555
C18 C17 1_555 1_555
H5 C18 1_555 1_555
C19 C18 1_555 1_555
C20 C19 1_555 1_555
H6 C20 1_555 1_555
C21 C16 1_555 1_555
N3 C3 1_555 1_555
C8 C9 1_555 1_555
C14 C15 1_555 1_555
C20 C21 1_555 1_555

#END
