
#######################################################################
#
#                 Cambridge Crystallographic Data Centre
#                                CCDC 
#
#######################################################################
#
# If this CIF has been generated from an entry in the Cambridge 
# Structural Database, then it will include bibliographic, chemical, 
# crystal, experimental, refinement or atomic coordinate data resulting 
# from the CCDC's data processing and validation procedures.
#
#######################################################################

data_DEMDOP
_chemical_formula_moiety         'C15 H19 N3 O2 S1'
_chemical_name_systematic        (E)-5-t-Butyl-1-cinnamoylthiobiuret
_chemical_properties_biological  herbicide
_symmetry_cell_setting           orthorhombic
_symmetry_space_group_name_H-M   'P b c a'
_symmetry_Int_Tables_number      61
_space_group_name_Hall           '-P 2ac 2ab'
loop_
_symmetry_equiv_pos_site_id
_symmetry_equiv_pos_as_xyz
1 x,y,z
2 1/2-x,-y,1/2+z
3 -x,1/2+y,1/2-z
4 1/2+x,1/2-y,-z
5 -x,-y,-z
6 1/2+x,y,1/2-z
7 x,1/2-y,1/2+z
8 1/2-x,1/2+y,z
_cell_length_a                   7.898(2)
_cell_length_b                   11.910(5)
_cell_length_c                   35.170(16)
_cell_angle_alpha                90
_cell_angle_beta                 90
_cell_angle_gamma                90
_cell_volume                     3308.27
_exptl_crystal_colour            yellow
_exptl_crystal_description       prism
_chemical_melting_point          '457 K'
_cell_formula_units_Z            8
_exptl_crystal_recrystallization_method ethanol/water
loop_
_atom_site_label
_atom_site_type_symbol
_atom_site_fract_x
_atom_site_fract_y
_atom_site_fract_z
S1 S 0.16144(15) 0.73310(10) 0.32335(4)
O1 O 0.4501(3) 0.9575(2) 0.40536(8)
O2 O -0.0025(3) 1.0721(2) 0.36750(8)
N1 N 0.3883(4) 0.7959(3) 0.37290(9)
H1 H 0.423(5) 0.719(4) 0.3702(11)
N2 N 0.1803(4) 0.9276(3) 0.36252(9)
H2 H 0.232(5) 0.965(3) 0.3817(10)
N3 N -0.0327(4) 0.9544(3) 0.31710(10)
H3 H -0.006(5) 0.877(4) 0.3112(11)
C1 C 1.0301(5) 0.9040(4) 0.45964(12)
H4 H 0.992(5) 0.982(4) 0.4634(12)
C2 C 1.1865(6) 0.8699(5) 0.47467(13)
H5 H 1.247(6) 0.925(4) 0.4890(13)
C3 C 1.2404(6) 0.7622(5) 0.46988(13)
H6 H 1.353(6) 0.737(4) 0.4811(13)
C4 C 1.1430(6) 0.6864(4) 0.45010(14)
H7 H 1.175(6) 0.605(4) 0.4481(13)
C5 C 0.9878(6) 0.7183(4) 0.43555(13)
H8 H 0.932(5) 0.663(4) 0.4219(11)
C6 C 0.9292(5) 0.8279(3) 0.44034(10)
C7 C 0.7641(5) 0.8663(4) 0.42626(11)
H9 H 0.737(5) 0.943(3) 0.4332(10)
C8 C 0.6464(5) 0.8061(3) 0.40861(11)
H10 H 0.658(5) 0.728(4) 0.4032(11)
C9 C 0.4872(5) 0.8613(3) 0.39656(11)
C10 C 0.2406(5) 0.8256(3) 0.35380(10)
C11 C 0.0373(4) 0.9894(3) 0.34902(11)
C12 C -0.1769(5) 1.0081(4) 0.29738(12)
C13 C -0.1352(10) 1.1288(5) 0.2880(2)
H11 H -0.217(9) 1.149(6) 0.2695(18)
H12 H -0.128(7) 1.179(5) 0.3123(16)
H13 H -0.036(8) 1.133(6) 0.2762(17)
C14 C -0.3350(7) 0.9975(8) 0.3221(2)
H14 H -0.315(5) 1.042(4) 0.3488(13)
H15 H -0.343(12) 0.929(9) 0.329(3)
H16 H -0.418(7) 1.023(5) 0.3103(15)
C15 C -0.2018(7) 0.9414(6) 0.26092(16)
H17 H -0.294(6) 0.974(4) 0.2448(13)
H18 H -0.105(7) 0.931(4) 0.2455(15)
H19 H -0.238(8) 0.867(5) 0.2692(15)
loop_
_geom_bond_atom_site_label_1
_geom_bond_atom_site_label_2
_geom_bond_site_symmetry_1
_geom_bond_site_symmetry_2
S1 C10 1_555 1_555
O1 C9 1_555 1_555
O2 C11 1_555 1_555
N1 H1 1_555 1_555
N2 H2 1_555 1_555
N3 H3 1_555 1_555
C1 H4 1_555 1_555
C2 C1 1_555 1_555
H5 C2 1_555 1_555
C3 C2 1_555 1_555
H6 C3 1_555 1_555
C4 C3 1_555 1_555
H7 C4 1_555 1_555
C5 C4 1_555 1_555
H8 C5 1_555 1_555
C6 C1 1_555 1_555
C7 C6 1_555 1_555
H9 C7 1_555 1_555
C8 C7 1_555 1_555
H10 C8 1_555 1_555
C9 N1 1_555 1_555
C10 N1 1_555 1_555
C11 N2 1_555 1_555
C12 N3 1_555 1_555
C13 C12 1_555 1_555
H11 C13 1_555 1_555
H12 C13 1_555 1_555
H13 C13 1_555 1_555
C14 C12 1_555 1_555
H14 C14 1_555 1_555
H15 C14 1_555 1_555
H16 C14 1_555 1_555
C15 C12 1_555 1_555
H17 C15 1_555 1_555
H18 C15 1_555 1_555
H19 C15 1_555 1_555
N2 C10 1_555 1_555
N3 C11 1_555 1_555
C5 C6 1_555 1_555
C8 C9 1_555 1_555

#END
