
#######################################################################
#
#                 Cambridge Crystallographic Data Centre
#                                CCDC 
#
#######################################################################
#
# If this CIF has been generated from an entry in the Cambridge 
# Structural Database, then it will include bibliographic, chemical, 
# crystal, experimental, refinement or atomic coordinate data resulting 
# from the CCDC's data processing and validation procedures.
#
#######################################################################

data_DEMDUV
_chemical_formula_moiety         'C13 H16 O4'
_chemical_name_systematic        'Diethyl diprop-2-ynylmalonate'
_symmetry_cell_setting           orthorhombic
_symmetry_space_group_name_H-M   'P n a 21'
_symmetry_Int_Tables_number      33
_space_group_name_Hall           'P 2c -2n'
loop_
_symmetry_equiv_pos_site_id
_symmetry_equiv_pos_as_xyz
1 x,y,z
2 1/2-x,1/2+y,1/2+z
3 1/2+x,1/2-y,z
4 -x,-y,1/2+z
_cell_length_a                   17.695(4)
_cell_length_b                   8.3610(9)
_cell_length_c                   8.8050(12)
_cell_angle_alpha                90
_cell_angle_beta                 90
_cell_angle_gamma                90
_cell_volume                     1302.68
_exptl_crystal_colour            colorless
_exptl_crystal_description       block
_chemical_melting_point          '315 K'
_cell_formula_units_Z            4
_exptl_crystal_recrystallization_method 'petrol oil/diethyl ether'
loop_
_atom_site_label
_atom_site_type_symbol
_atom_site_fract_x
_atom_site_fract_y
_atom_site_fract_z
O1 O 0.08033(7) 0.00132(15) 0.35396(18)
O2 O 0.02397(8) 0.23783(14) 0.31109(17)
O3 O 0.09666(8) 0.49233(15) 0.56102(18)
O4 O 0.06475(8) 0.25758(15) 0.66800(17)
C1 C 0.13896(11) 0.2449(2) 0.4464(2)
C2 C 0.17897(10) 0.3577(2) 0.3328(2)
H1 H 0.1406 0.4270 0.2841
H2 H 0.2143 0.4276 0.3894
C3 C 0.22084(11) 0.2734(2) 0.2150(2)
C4 C 0.25742(13) 0.2058(3) 0.1220(2)
H3 H 0.2867 0.1517 0.0475
C5 C 0.19491(10) 0.1291(2) 0.5232(2)
H4 H 0.1663 0.0496 0.5834
H5 H 0.2234 0.0706 0.4440
C6 C 0.24818(11) 0.2120(2) 0.6227(2)
C7 C 0.29119(12) 0.2808(2) 0.7032(3)
H6 H 0.3256 0.3358 0.7675
C8 C 0.07870(9) 0.1446(2) 0.3650(2)
C9 C -0.04209(11) 0.1554(3) 0.2478(3)
H7 H -0.0254 0.0614 0.1881
H8 H -0.0698 0.2284 0.1791
C10 C -0.09288(11) 0.1024(3) 0.3735(3)
H9 H -0.1370 0.0478 0.3308
H10 H -0.1095 0.1958 0.4319
H11 H -0.0654 0.0289 0.4404
C11 C 0.09825(10) 0.3483(2) 0.5639(2)
C12 C 0.02665(12) 0.3418(2) 0.7917(2)
H12 H -0.0118 0.2709 0.8379
H13 H 0.0006 0.4374 0.7511
C13 C 0.08266(14) 0.3918(3) 0.9106(3)
H14 H 0.0563 0.4476 0.9928
H15 H 0.1202 0.4634 0.8651
H16 H 0.1081 0.2969 0.9514
loop_
_geom_bond_atom_site_label_1
_geom_bond_atom_site_label_2
_geom_bond_site_symmetry_1
_geom_bond_site_symmetry_2
O1 C8 1_555 1_555
O2 C8 1_555 1_555
O3 C11 1_555 1_555
O4 C11 1_555 1_555
C1 C2 1_555 1_555
C2 H1 1_555 1_555
H2 C2 1_555 1_555
C3 C2 1_555 1_555
C4 C3 1_555 1_555
H3 C4 1_555 1_555
C5 C1 1_555 1_555
H4 C5 1_555 1_555
H5 C5 1_555 1_555
C6 C5 1_555 1_555
C7 C6 1_555 1_555
H6 C7 1_555 1_555
C8 C1 1_555 1_555
C9 O2 1_555 1_555
H7 C9 1_555 1_555
H8 C9 1_555 1_555
C10 C9 1_555 1_555
H9 C10 1_555 1_555
H10 C10 1_555 1_555
H11 C10 1_555 1_555
C11 C1 1_555 1_555
C12 O4 1_555 1_555
H12 C12 1_555 1_555
H13 C12 1_555 1_555
C13 C12 1_555 1_555
H14 C13 1_555 1_555
H15 C13 1_555 1_555
H16 C13 1_555 1_555

#END
