
#######################################################################
#
#                 Cambridge Crystallographic Data Centre
#                                CCDC 
#
#######################################################################
#
# If this CIF has been generated from an entry in the Cambridge 
# Structural Database, then it will include bibliographic, chemical, 
# crystal, experimental, refinement or atomic coordinate data resulting 
# from the CCDC's data processing and validation procedures.
#
#######################################################################

data_DEMFUX
_chemical_formula_moiety         'C19 H15 Cl1 N2 O1'
_chemical_name_systematic        
2-((2-Aminophenylimino)(phenyl)methyl)-4-chlorophenol
_symmetry_cell_setting           triclinic
_symmetry_space_group_name_H-M   'P -1'
_symmetry_Int_Tables_number      2
_space_group_name_Hall           '-P 1'
loop_
_symmetry_equiv_pos_site_id
_symmetry_equiv_pos_as_xyz
1 x,y,z
2 -x,-y,-z
_cell_length_a                   8.5630(17)
_cell_length_b                   9.4940(19)
_cell_length_c                   11.069(2)
_cell_angle_alpha                68.96(3)
_cell_angle_beta                 84.84(3)
_cell_angle_gamma                77.75(3)
_cell_volume                     820.666
_exptl_crystal_colour            orange-red
_exptl_crystal_description       block
_cell_formula_units_Z            2
_exptl_crystal_recrystallization_method methanol
loop_
_atom_site_label
_atom_site_type_symbol
_atom_site_fract_x
_atom_site_fract_y
_atom_site_fract_z
Cl1 Cl 0.18057(7) 0.20413(7) 0.91289(5)
O1 O 0.80388(15) 0.18775(16) 0.64595(14)
N1 N 0.8660(2) 0.00353(19) 0.36404(17)
H1 H 0.9313 -0.0653 0.3414
H2 H 0.8364 -0.0158 0.4438
N2 N 0.66648(16) 0.22691(16) 0.44144(14)
C1 C 0.6405(2) 0.4014(2) 0.21374(18)
H3 H 0.5679 0.4751 0.2377
C2 C 0.6902(2) 0.4337(2) 0.08618(19)
H4 H 0.6523 0.5291 0.0244
C3 C 0.7975(2) 0.3222(3) 0.05075(19)
H5 H 0.8313 0.3437 -0.0351
C4 C 0.8544(2) 0.1800(2) 0.14210(19)
H6 H 0.9243 0.1061 0.1165
C5 C 0.80827(19) 0.1457(2) 0.27199(17)
C6 C 0.69861(19) 0.2590(2) 0.30684(16)
C7 C 0.52507(19) 0.24673(17) 0.49311(15)
C8 C 0.37497(19) 0.28955(18) 0.41849(15)
C9 C 0.3489(2) 0.1992(2) 0.34851(17)
H7 H 0.4242 0.1121 0.3501
C10 C 0.2112(3) 0.2397(3) 0.2771(2)
H8 H 0.1935 0.1791 0.2317
C11 C 0.0997(3) 0.3707(3) 0.2734(2)
H9 H 0.0076 0.3978 0.2251
C12 C 0.1247(2) 0.4611(3) 0.3411(2)
H10 H 0.0501 0.5494 0.3374
C13 C 0.2605(2) 0.4205(2) 0.41441(18)
H11 H 0.2758 0.4805 0.4612
C14 C 0.5173(2) 0.22144(18) 0.63330(16)
C15 C 0.6580(2) 0.19452(19) 0.70322(17)
C16 C 0.6472(3) 0.1754(2) 0.83422(19)
H12 H 0.7397 0.1597 0.8791
C17 C 0.5024(3) 0.1794(2) 0.89834(18)
H13 H 0.4966 0.1680 0.9856
C18 C 0.3647(2) 0.2006(2) 0.83165(18)
C19 C 0.3710(2) 0.22072(19) 0.70174(17)
H14 H 0.2774 0.2340 0.6590
H15 H 0.785(3) 0.200(3) 0.560(3)
loop_
_geom_bond_atom_site_label_1
_geom_bond_atom_site_label_2
_geom_bond_site_symmetry_1
_geom_bond_site_symmetry_2
Cl1 C18 1_555 1_555
O1 C15 1_555 1_555
N1 H1 1_555 1_555
H2 N1 1_555 1_555
N2 C6 1_555 1_555
C1 H3 1_555 1_555
C2 C1 1_555 1_555
H4 C2 1_555 1_555
C3 C2 1_555 1_555
H5 C3 1_555 1_555
C4 C3 1_555 1_555
H6 C4 1_555 1_555
C5 N1 1_555 1_555
C6 C1 1_555 1_555
C7 N2 1_555 1_555
C8 C7 1_555 1_555
C9 C8 1_555 1_555
H7 C9 1_555 1_555
C10 C9 1_555 1_555
H8 C10 1_555 1_555
C11 C10 1_555 1_555
H9 C11 1_555 1_555
C12 C11 1_555 1_555
H10 C12 1_555 1_555
C13 C8 1_555 1_555
H11 C13 1_555 1_555
C14 C7 1_555 1_555
C15 C14 1_555 1_555
C16 C15 1_555 1_555
H12 C16 1_555 1_555
C17 C16 1_555 1_555
H13 C17 1_555 1_555
C18 C17 1_555 1_555
C19 C14 1_555 1_555
H14 C19 1_555 1_555
H15 O1 1_555 1_555
C4 C5 1_555 1_555
C5 C6 1_555 1_555
C12 C13 1_555 1_555
C18 C19 1_555 1_555

#END
