
#######################################################################
#
#                 Cambridge Crystallographic Data Centre
#                                CCDC 
#
#######################################################################
#
# If this CIF has been generated from an entry in the Cambridge 
# Structural Database, then it will include bibliographic, chemical, 
# crystal, experimental, refinement or atomic coordinate data resulting 
# from the CCDC's data processing and validation procedures.
#
#######################################################################

data_DEMHAH
_chemical_formula_moiety         'C14 H26 N3 O3 P1 S1'
_chemical_name_systematic        
N-[bis(diethylamino)phosphoryl]benzenesulfonamide
_symmetry_cell_setting           monoclinic
_symmetry_space_group_name_H-M   'P 21/c'
_symmetry_Int_Tables_number      14
_space_group_name_Hall           '-P 2ybc'
loop_
_symmetry_equiv_pos_site_id
_symmetry_equiv_pos_as_xyz
1 x,y,z
2 -x,1/2+y,1/2-z
3 -x,-y,-z
4 x,1/2-y,1/2+z
_cell_length_a                   10.1911(2)
_cell_length_b                   33.7250(11)
_cell_length_c                   10.8284(3)
_cell_angle_alpha                90
_cell_angle_beta                 100.304(2)
_cell_angle_gamma                90
_cell_volume                     3661.64
_exptl_crystal_colour            colorless
_exptl_crystal_description       block
_cell_formula_units_Z            8
loop_
_atom_site_label
_atom_site_type_symbol
_atom_site_fract_x
_atom_site_fract_y
_atom_site_fract_z
S1 S 0.45766(10) 0.16226(4) 0.11702(11)
P1 P 0.60966(10) 0.14680(4) 0.37154(11)
N1 N 0.4692(3) 0.14729(11) 0.2611(3)
H1 H 0.3973 0.1388 0.2834
N2 N 0.5670(4) 0.12063(14) 0.4837(4)
N3 N 0.6333(3) 0.19267(12) 0.4172(4)
O1 O 0.3357(3) 0.18349(11) 0.0820(3)
O2 O 0.5798(3) 0.18115(10) 0.1066(3)
O3 O 0.7236(3) 0.12923(10) 0.3234(3)
C1 C 0.4438(4) 0.11833(14) 0.0285(4)
C2 C 0.5400(6) 0.08957(18) 0.0554(5)
H2 H 0.6104 0.0929 0.1221
C3 C 0.5318(7) 0.0560(2) -0.0162(7)
H3 H 0.5959 0.0362 0.0032
C4 C 0.4308(9) 0.0511(2) -0.1154(7)
H4 H 0.4269 0.0284 -0.1645
C5 C 0.3361(8) 0.0794(3) -0.1428(6)
H5 H 0.2672 0.0759 -0.2109
C6 C 0.3401(6) 0.11389(19) -0.0699(5)
H6 H 0.2742 0.1332 -0.0879
C7 C 0.5287(6) 0.22300(18) 0.4156(7)
H7 H 0.4431 0.2105 0.3861
H8 H 0.5295 0.2313 0.5015
C8 C 0.5366(9) 0.2584(2) 0.3401(8)
H9 H 0.4579 0.2742 0.3386
H10 H 0.5433 0.2508 0.2560
H11 H 0.6138 0.2736 0.3759
C9 C 0.7665(5) 0.2036(2) 0.4821(6)
H12 H 0.8146 0.1796 0.5118
H13 H 0.7582 0.2195 0.5549
C10 C 0.8471(11) 0.2265(4) 0.4011(12)
H14 H 0.8668 0.2096 0.3354
H15 H 0.9289 0.2354 0.4518
H16 H 0.7967 0.2490 0.3649
C11 C 0.5024(9) 0.1351(3) 0.5817(8)
H17 H 0.4204 0.1203 0.5797
H18 H 0.4782 0.1626 0.5644
C12 C 0.584(2) 0.1324(8) 0.7123(9)
H19 H 0.6706 0.1437 0.7129
H20 H 0.5935 0.1051 0.7374
H21 H 0.5399 0.1467 0.7698
C13 C 0.5209(12) 0.0798(2) 0.4536(11)
H22 H 0.5039 0.0755 0.3636
H23 H 0.4399 0.0744 0.4859
C14 C 0.6340(14) 0.0537(4) 0.517(2)
H24 H 0.5987 0.0291 0.5409
H25 H 0.6808 0.0669 0.5907
H26 H 0.6944 0.0487 0.4603
S2 S 0.05669(11) 0.10946(3) 0.53036(10)
P2 P 0.08125(10) 0.10227(4) 0.26510(11)
N4 N -0.0014(3) 0.11410(11) 0.3817(3)
H42 H -0.0809 0.1233 0.3605
N5 N 0.0709(4) 0.05454(12) 0.2475(4)
N6 N -0.0107(4) 0.12101(13) 0.1405(4)
O4 O -0.0503(3) 0.09802(11) 0.5906(3)
O5 O 0.1735(3) 0.08503(9) 0.5442(3)
O6 O 0.2184(3) 0.11762(11) 0.2918(3)
C19 C 0.1072(4) 0.15770(13) 0.5858(4)
C20 C 0.1750(5) 0.18263(16) 0.5193(6)
H43 H 0.1928 0.1748 0.4416
C21 C 0.2166(5) 0.21914(17) 0.5672(7)
H44 H 0.2626 0.2360 0.5220
C22 C 0.1903(6) 0.23067(19) 0.6816(7)
H45 H 0.2182 0.2554 0.7138
C23 C 0.1240(8) 0.2062(2) 0.7478(6)
H46 H 0.1079 0.2140 0.8261
C24 C 0.0797(6) 0.16950(18) 0.6999(5)
H47 H 0.0319 0.1530 0.7445
C25 C -0.0556(9) 0.0327(4) 0.2398(16)
H48 H -0.0603 0.0146 0.1696
H49 H -0.1262 0.0520 0.2158
C26 C -0.094(3) 0.0089(7) 0.3461(18)
H50 H -0.1701 -0.0074 0.3144
H51 H -0.1159 0.0265 0.4089
H52 H -0.0208 -0.0077 0.3825
C27 C 0.1870(14) 0.0289(5) 0.2910(11)
H53 H 0.1572 0.0052 0.3286
H54 H 0.2482 0.0428 0.3555
C28 C 0.2604(10) 0.0169(3) 0.1877(11)
H55 H 0.3356 0.0006 0.2214
H56 H 0.2023 0.0025 0.1235
H57 H 0.2908 0.0405 0.1524
C29 C 0.016(2) 0.1629(2) 0.114(3)
H58 H 0.0040 0.1659 0.0231
H59 H 0.1094 0.1681 0.1467
C30 C -0.0659(17) 0.1946(5) 0.163(2)
H60 H -0.0339 0.2203 0.1445
H61 H -0.0581 0.1917 0.2524
H62 H -0.1577 0.1919 0.1241
C31 C -0.1312(9) 0.1042(4) 0.0666(9)
H63 H -0.1989 0.1247 0.0521
H64 H -0.1636 0.0835 0.1156
C32 C -0.1149(14) 0.0869(5) -0.0592(12)
H65 H -0.1871 0.0957 -0.1228
H66 H -0.1155 0.0585 -0.0545
H67 H -0.0318 0.0957 -0.0797
H27? H 0.8031 0.2231 0.4320
H28? H 0.8229 0.1802 0.4873
C15? C 0.7723(18) 0.2199(6) 0.6134(11)
H29? H 0.7568 0.1988 0.6687
H30? H 0.7051 0.2399 0.6121
H31? H 0.8586 0.2312 0.6426
H32? H 0.4471 0.1146 0.6090
H33? H 0.4471 0.1579 0.5534
C16? C 0.617(6) 0.1457(15) 0.686(5)
H34? H 0.6173 0.1738 0.7009
H35? H 0.6999 0.1380 0.6628
H36? H 0.6066 0.1320 0.7617
C17? C 0.6163(19) 0.0795(3) 0.501(2)
H37? H 0.6264 0.0736 0.5894
H38? H 0.7052 0.0794 0.4801
C18? C 0.541(3) 0.0450(8) 0.431(3)
H39? H 0.5969 0.0218 0.4416
H40? H 0.5186 0.0513 0.3432
H41? H 0.4616 0.0401 0.4638
C33? C 0.0099(16) 0.0270(4) 0.3250(11)
H68? H -0.0261 0.0415 0.3886
H69? H 0.0767 0.0086 0.3670
C34? C -0.101(2) 0.0042(7) 0.2424(19)
H70? H -0.1828 0.0079 0.2728
H71? H -0.0786 -0.0235 0.2443
H72? H -0.1108 0.0138 0.1578
C35? C 0.1391(13) 0.0423(5) 0.1449(9)
H73? H 0.1657 0.0658 0.1040
H74? H 0.0767 0.0276 0.0832
H75? H 0.2970 0.0109 0.1141
H76? H 0.3244 0.0316 0.2459
H77? H 0.2393 -0.0074 0.2262
C36? C -0.048(2) 0.1630(3) 0.1353(12)
H78? H 0.0010 0.1761 0.2090
H79? H -0.1423 0.1648 0.1401
C37? C -0.025(4) 0.1855(6) 0.021(2)
H80? H 0.0650 0.1816 0.0089
H81? H -0.0407 0.2133 0.0318
H82? H -0.0854 0.1761 -0.0519
C38? C 0.010(2) 0.1030(5) 0.0214(10)
H83? H 0.0280 0.0748 0.0330
H84? H 0.0858 0.1152 -0.0065
C39? C -0.116(2) 0.1093(9) -0.0754(19)
H85? H -0.1407 0.1368 -0.0761
H86? H -0.1862 0.0933 -0.0545
H87? H -0.0990 0.1020 -0.1569
loop_
_geom_bond_atom_site_label_1
_geom_bond_atom_site_label_2
_geom_bond_site_symmetry_1
_geom_bond_site_symmetry_2
S1 N1 1_555 1_555
P1 N1 1_555 1_555
N1 H1 1_555 1_555
N2 P1 1_555 1_555
N3 P1 1_555 1_555
O1 S1 1_555 1_555
O2 S1 1_555 1_555
O3 P1 1_555 1_555
C1 S1 1_555 1_555
C2 C1 1_555 1_555
H2 C2 1_555 1_555
C3 C2 1_555 1_555
H3 C3 1_555 1_555
C4 C3 1_555 1_555
H4 C4 1_555 1_555
C5 C4 1_555 1_555
H5 C5 1_555 1_555
C6 C1 1_555 1_555
H6 C6 1_555 1_555
C7 N3 1_555 1_555
H7 C7 1_555 1_555
H8 C7 1_555 1_555
C8 C7 1_555 1_555
H9 C8 1_555 1_555
H10 C8 1_555 1_555
H11 C8 1_555 1_555
C9 N3 1_555 1_555
H12 C9 1_555 1_555
H13 C9 1_555 1_555
C10 C9 1_555 1_555
H14 C10 1_555 1_555
H15 C10 1_555 1_555
H16 C10 1_555 1_555
C11 N2 1_555 1_555
H17 C11 1_555 1_555
H18 C11 1_555 1_555
C12 C11 1_555 1_555
H19 C12 1_555 1_555
H20 C12 1_555 1_555
H21 C12 1_555 1_555
C13 N2 1_555 1_555
H22 C13 1_555 1_555
H23 C13 1_555 1_555
C14 C13 1_555 1_555
H24 C14 1_555 1_555
H25 C14 1_555 1_555
H26 C14 1_555 1_555
S2 N4 1_555 1_555
P2 N4 1_555 1_555
N4 H42 1_555 1_555
N5 P2 1_555 1_555
N6 P2 1_555 1_555
O4 S2 1_555 1_555
O5 S2 1_555 1_555
O6 P2 1_555 1_555
C19 S2 1_555 1_555
C20 C19 1_555 1_555
H43 C20 1_555 1_555
C21 C20 1_555 1_555
H44 C21 1_555 1_555
C22 C21 1_555 1_555
H45 C22 1_555 1_555
C23 C22 1_555 1_555
H46 C23 1_555 1_555
C24 C19 1_555 1_555
H47 C24 1_555 1_555
C25 N5 1_555 1_555
H48 C25 1_555 1_555
H49 C25 1_555 1_555
C26 C25 1_555 1_555
H50 C26 1_555 1_555
H51 C26 1_555 1_555
H52 C26 1_555 1_555
C27 N5 1_555 1_555
H53 C27 1_555 1_555
H54 C27 1_555 1_555
C28 C27 1_555 1_555
H55 C28 1_555 1_555
H56 C28 1_555 1_555
H57 C28 1_555 1_555
C29 N6 1_555 1_555
H58 C29 1_555 1_555
H59 C29 1_555 1_555
C30 C29 1_555 1_555
H60 C30 1_555 1_555
H61 C30 1_555 1_555
H62 C30 1_555 1_555
C31 N6 1_555 1_555
H63 C31 1_555 1_555
H64 C31 1_555 1_555
C32 C31 1_555 1_555
H65 C32 1_555 1_555
H66 C32 1_555 1_555
H67 C32 1_555 1_555
C5 C6 1_555 1_555
C23 C24 1_555 1_555

#END
