
#######################################################################
#
#                 Cambridge Crystallographic Data Centre
#                                CCDC 
#
#######################################################################
#
# If this CIF has been generated from an entry in the Cambridge 
# Structural Database, then it will include bibliographic, chemical, 
# crystal, experimental, refinement or atomic coordinate data resulting 
# from the CCDC's data processing and validation procedures.
#
#######################################################################

data_DEMHUY10
_chemical_name_common            3-Oxo-nonane-9-diolide
_chemical_formula_moiety         'C18 H28 O6'
_chemical_name_systematic        1,11-Dioxacycloicosa-2,4,12,14-tetraone
_symmetry_cell_setting           monoclinic
_symmetry_space_group_name_H-M   'P 21/c'
_symmetry_Int_Tables_number      14
_space_group_name_Hall           '-P 2ybc'
loop_
_symmetry_equiv_pos_site_id
_symmetry_equiv_pos_as_xyz
1 x,y,z
2 -x,1/2+y,1/2-z
3 -x,-y,-z
4 x,1/2-y,1/2+z
_cell_length_a                   4.671(2)
_cell_length_b                   24.095(9)
_cell_length_c                   8.344(3)
_cell_angle_alpha                90
_cell_angle_beta                 103.78(3)
_cell_angle_gamma                90
_cell_volume                     912.069
_exptl_crystal_colour            colorless
_chemical_melting_point          115-117deg.C
_cell_formula_units_Z            2
loop_
_atom_site_label
_atom_site_type_symbol
_atom_site_fract_x
_atom_site_fract_y
_atom_site_fract_z
O1 O 0.4447(4) 0.6652(1) 0.9039(2)
C1 C 0.2317(6) 0.6959(1) 0.8154(3)
O2 O 0.1633(6) 0.7399(1) 0.8596(3)
C2 C 0.0876(7) 0.6695(1) 0.6542(3)
C3 C 0.2153(6) 0.6129(1) 0.6314(3)
O3 O 0.4024(5) 0.6081(1) 0.5545(2)
C4 C 0.0931(6) 0.5639(1) 0.7037(3)
C5 C 0.2841(6) 0.5124(1) 0.7265(3)
C6 C 0.1374(6) 0.4621(1) 0.7813(3)
C7 C 0.3340(6) 0.4117(1) 0.8176(3)
C8 C 0.1827(6) 0.3599(1) 0.8629(4)
C9 C 0.6077(7) 0.6856(1) 1.0635(4)
H1 H -0.1181 0.6648 0.6502
H2 H 0.1099 0.6937 0.5667
H3 H 0.0617 0.5747 0.8090
H4 H -0.0923 0.5544 0.6308
H5 H 0.3348 0.5039 0.6242
H6 H 0.4602 0.5202 0.8097
H7 H -0.0303 0.4526 0.6944
H8 H 0.0729 0.4716 0.8788
H9 H 0.4071 0.4036 0.7220
H10 H 0.4960 0.4206 0.9086
H11 H 0.0512 0.3460 0.7648
H12 H 0.0718 0.3703 0.9414
H13 H 0.4747 0.6927 1.1329
H14 H 0.7114 0.7191 1.0507
C9B C 0.3923(7) 0.3144(1) 0.9365(4)
C8B C 0.8173(6) 0.6401(1) 1.1371(4)
O1B O 0.5553(4) 0.3348(1) 1.0961(2)
H13B H 0.5253 0.3073 0.8671
H14B H 0.2886 0.2809 0.9493
C7B C 0.6660(6) 0.5883(1) 1.1824(3)
H11B H 0.9488 0.6540 1.2352
H12B H 0.9282 0.6297 1.0586
C1B C 0.7683(6) 0.3041(1) 1.1846(3)
C6B C 0.8626(6) 0.5379(1) 1.2187(3)
H9B H 0.5929 0.5964 1.2780
H10B H 0.5040 0.5794 1.0914
O2B O 0.8367(6) 0.2601(1) 1.1404(3)
C2B C 0.9124(7) 0.3305(1) 1.3458(3)
C5B C 0.7159(6) 0.4876(1) 1.2735(3)
H7B H 1.0303 0.5474 1.3056
H8B H 0.9271 0.5284 1.1212
C3B C 0.7847(6) 0.3871(1) 1.3686(3)
H1B H 1.1181 0.3352 1.3498
H2B H 0.8901 0.3063 1.4333
C4B C 0.9069(6) 0.4361(1) 1.2963(3)
H5B H 0.6652 0.4961 1.3758
H6B H 0.5398 0.4798 1.1903
O3B O 0.5976(5) 0.3919(1) 1.4455(2)
H3B H 0.9383 0.4253 1.1910
H4B H 1.0923 0.4456 1.3692
loop_
_geom_bond_atom_site_label_1
_geom_bond_atom_site_label_2
_geom_bond_site_symmetry_1
_geom_bond_site_symmetry_2
O1 C1 1_555 1_555
C1 O2 1_555 1_555
C2 C1 1_555 1_555
C3 C2 1_555 1_555
O3 C3 1_555 1_555
C4 C3 1_555 1_555
C5 C4 1_555 1_555
C6 C5 1_555 1_555
C7 C6 1_555 1_555
C8 C7 1_555 1_555
C9 O1 1_555 1_555
H1 C2 1_555 1_555
H2 C2 1_555 1_555
H3 C4 1_555 1_555
H4 C4 1_555 1_555
H5 C5 1_555 1_555
H6 C5 1_555 1_555
H7 C6 1_555 1_555
H8 C6 1_555 1_555
H9 C7 1_555 1_555
H10 C7 1_555 1_555
H11 C8 1_555 1_555
H12 C8 1_555 1_555
H13 C9 1_555 1_555
H14 C9 1_555 1_555
C9B C8 1_555 1_555
C8B C9 1_555 1_555
O1B C9B 1_555 1_555
H13B C9B 1_555 1_555
H14B C9B 1_555 1_555
C7B C8B 1_555 1_555
H11B C8B 1_555 1_555
H12B C8B 1_555 1_555
C1B O1B 1_555 1_555
C6B C7B 1_555 1_555
H9B C7B 1_555 1_555
H10B C7B 1_555 1_555
O2B C1B 1_555 1_555
C2B C1B 1_555 1_555
C5B C6B 1_555 1_555
H7B C6B 1_555 1_555
H8B C6B 1_555 1_555
C3B C2B 1_555 1_555
H1B C2B 1_555 1_555
H2B C2B 1_555 1_555
C4B C5B 1_555 1_555
H5B C5B 1_555 1_555
H6B C5B 1_555 1_555
O3B C3B 1_555 1_555
H3B C4B 1_555 1_555
H4B C4B 1_555 1_555
C3B C4B 1_555 1_555

#END
