
#######################################################################
#
#                 Cambridge Crystallographic Data Centre
#                                CCDC 
#
#######################################################################
#
# If this CIF has been generated from an entry in the Cambridge 
# Structural Database, then it will include bibliographic, chemical, 
# crystal, experimental, refinement or atomic coordinate data resulting 
# from the CCDC's data processing and validation procedures.
#
#######################################################################

data_DEMHOS10
_chemical_name_common            3-Oxo-octane-8-diolide
_chemical_formula_moiety         'C16 H24 O6'
_chemical_name_systematic        1,10-Dioxacyclo-octadeca-2,4,11,13-tetraone
_symmetry_cell_setting           monoclinic
_symmetry_space_group_name_H-M   'P 21/n'
_symmetry_Int_Tables_number      14
_space_group_name_Hall           '-P 2yn'
loop_
_symmetry_equiv_pos_site_id
_symmetry_equiv_pos_as_xyz
1 x,y,z
2 1/2-x,1/2+y,1/2-z
3 -x,-y,-z
4 1/2+x,1/2-y,1/2+z
_cell_length_a                   10.486(4)
_cell_length_b                   5.000(1)
_cell_length_c                   16.630(4)
_cell_angle_alpha                90
_cell_angle_beta                 102.12(3)
_cell_angle_gamma                90
_cell_volume                     852.476
_exptl_crystal_colour            colorless
_chemical_melting_point          115-116deg.C
_cell_formula_units_Z            2
loop_
_atom_site_label
_atom_site_type_symbol
_atom_site_fract_x
_atom_site_fract_y
_atom_site_fract_z
O1 O -0.1458(1) 0.2767(3) 0.1427(1)
C1 C -0.0511(2) 0.2478(4) 0.2094(1)
O2 O -0.0518(2) 0.3485(4) 0.2740(1)
C2 C 0.0552(2) 0.0762(4) 0.1896(2)
C3 C 0.1481(2) 0.2326(4) 0.1508(1)
O3 O 0.1435(2) 0.4714(3) 0.1498(1)
C4 C 0.2482(2) 0.0809(5) 0.1184(2)
C5 C 0.3254(2) 0.2417(5) 0.0682(1)
C6 C 0.2482(2) 0.3219(4) -0.0163(1)
C7 C 0.3262(2) 0.4814(5) -0.0656(1)
C8 C -0.2534(2) 0.4494(6) 0.1510(1)
H1 H 0.1028 -0.0030 0.2396
H2 H 0.0166 -0.0621 0.1523
H3 H 0.3085 0.0059 0.1644
H4 H 0.2049 -0.0608 0.0843
H5 H 0.3558 0.4015 0.0982
H6 H 0.3988 0.1366 0.0610
H7 H 0.1749 0.4275 -0.0093
H8 H 0.2178 0.1623 -0.0464
H9 H 0.3528 0.6450 -0.0367
H10 H 0.4019 0.3793 -0.0701
H11 H -0.2208 0.6092 0.1802
H12 H -0.3102 0.3580 0.1803
C8B C 0.2534(2) 0.5506(6) -0.1510(1)
C7B C -0.3262(2) 0.5186(5) 0.0656(1)
O1B O 0.1458(1) 0.7233(3) -0.1427(1)
H11B H 0.2208 0.3908 -0.1802
H12B H 0.3102 0.6420 -0.1803
C6B C -0.2482(2) 0.6781(4) 0.0163(1)
H9B H -0.3528 0.3550 0.0367
H10B H -0.4019 0.6207 0.0701
C1B C 0.0511(2) 0.7522(4) -0.2094(1)
C5B C -0.3254(2) 0.7583(5) -0.0682(1)
H7B H -0.1749 0.5725 0.0093
H8B H -0.2178 0.8377 0.0464
O2B O 0.0518(2) 0.6515(4) -0.2740(1)
C2B C -0.0552(2) 0.9238(4) -0.1896(2)
C4B C -0.2482(2) 0.9191(5) -0.1184(2)
H5B H -0.3558 0.5985 -0.0982
H6B H -0.3988 0.8634 -0.0610
C3B C -0.1481(2) 0.7674(4) -0.1508(1)
H1B H -0.1028 1.0030 -0.2396
H2B H -0.0166 1.0621 -0.1523
H3B H -0.3085 0.9941 -0.1644
H4B H -0.2049 1.0608 -0.0843
O3B O -0.1435(2) 0.5286(3) -0.1498(1)
loop_
_geom_bond_atom_site_label_1
_geom_bond_atom_site_label_2
_geom_bond_site_symmetry_1
_geom_bond_site_symmetry_2
O1 C1 1_555 1_555
C1 O2 1_555 1_555
C2 C1 1_555 1_555
C3 C2 1_555 1_555
O3 C3 1_555 1_555
C4 C3 1_555 1_555
C5 C4 1_555 1_555
C6 C5 1_555 1_555
C7 C6 1_555 1_555
C8 O1 1_555 1_555
H1 C2 1_555 1_555
H2 C2 1_555 1_555
H3 C4 1_555 1_555
H4 C4 1_555 1_555
H5 C5 1_555 1_555
H6 C5 1_555 1_555
H7 C6 1_555 1_555
H8 C6 1_555 1_555
H9 C7 1_555 1_555
H10 C7 1_555 1_555
H11 C8 1_555 1_555
H12 C8 1_555 1_555
C8B C7 1_555 1_555
C7B C8 1_555 1_555
O1B C8B 1_555 1_555
H11B C8B 1_555 1_555
H12B C8B 1_555 1_555
C6B C7B 1_555 1_555
H9B C7B 1_555 1_555
H10B C7B 1_555 1_555
C1B O1B 1_555 1_555
C5B C6B 1_555 1_555
H7B C6B 1_555 1_555
H8B C6B 1_555 1_555
O2B C1B 1_555 1_555
C2B C1B 1_555 1_555
C4B C5B 1_555 1_555
H5B C5B 1_555 1_555
H6B C5B 1_555 1_555
C3B C2B 1_555 1_555
H1B C2B 1_555 1_555
H2B C2B 1_555 1_555
H3B C4B 1_555 1_555
H4B C4B 1_555 1_555
O3B C3B 1_555 1_555
C4B C3B 1_555 1_555

#END
