
#######################################################################
#
#                 Cambridge Crystallographic Data Centre
#                                CCDC 
#
#######################################################################
#
# If this CIF has been generated from an entry in the Cambridge 
# Structural Database, then it will include bibliographic, chemical, 
# crystal, experimental, refinement or atomic coordinate data resulting 
# from the CCDC's data processing and validation procedures.
#
#######################################################################

data_DEMKOW
_chemical_formula_moiety         'C13 H9 Cl1 N4 O3'
_chemical_name_systematic        
'5-Chloro-2-nitrobenzaldehyde isonicotinoylhydrazone'
_chemical_properties_biological  'potential antimycobacterial agent'
_symmetry_cell_setting           monoclinic
_symmetry_space_group_name_H-M   'P 21/c'
_symmetry_Int_Tables_number      14
_space_group_name_Hall           '-P 2ybc'
loop_
_symmetry_equiv_pos_site_id
_symmetry_equiv_pos_as_xyz
1 x,y,z
2 -x,1/2+y,1/2-z
3 -x,-y,-z
4 x,1/2-y,1/2+z
_cell_length_a                   8.0597(2)
_cell_length_b                   10.4797(4)
_cell_length_c                   15.4798(6)
_cell_angle_alpha                90
_cell_angle_beta                 97.383(2)
_cell_angle_gamma                90
_cell_volume                     1296.63
_exptl_crystal_colour            colorless
_exptl_crystal_description       lath
_cell_formula_units_Z            4
loop_
_atom_site_label
_atom_site_type_symbol
_atom_site_fract_x
_atom_site_fract_y
_atom_site_fract_z
C1 C 0.0301(3) 0.7986(2) 0.63712(13)
C2 C 0.0839(3) 0.7718(2) 0.72369(13)
C3 C 0.0234(3) 0.8436(2) 0.78804(14)
N1 N -0.0852(2) 0.93930(19) 0.77059(12)
C4 C -0.1344(3) 0.9650(2) 0.68648(15)
C5 C -0.0799(3) 0.8991(2) 0.61819(14)
C6 C 0.0889(3) 0.7284(2) 0.56203(13)
O1 O 0.0865(2) 0.77907(16) 0.49088(10)
N2 N 0.1468(2) 0.60745(16) 0.57975(11)
N3 N 0.2145(2) 0.54538(17) 0.51433(11)
C7 C 0.2790(2) 0.4353(2) 0.53226(13)
C8 C 0.3495(2) 0.3683(2) 0.46136(13)
C9 C 0.4603(3) 0.2650(2) 0.47262(13)
N4 N 0.5337(2) 0.22436(19) 0.56006(12)
O2 O 0.55542(19) 0.30530(16) 0.61789(10)
O3 O 0.5726(2) 0.11140(16) 0.57015(11)
C10 C 0.5128(3) 0.1994(2) 0.40315(14)
C11 C 0.4612(3) 0.2393(2) 0.31871(14)
C12 C 0.3551(2) 0.3436(2) 0.30634(13)
Cl1 Cl 0.28646(7) 0.39720(6) 0.20175(3)
C13 C 0.2974(3) 0.4059(2) 0.37533(13)
H1 H 0.1616 0.7048 0.7389
H2 H 0.0609 0.8239 0.8472
H3 H -0.2116 1.0328 0.6729
H4 H -0.1171 0.9223 0.5596
H5 H 0.1352 0.5678 0.6287
H6 H 0.2814 0.3985 0.5885
H7 H 0.5839 0.1272 0.4135
H8 H 0.4976 0.1964 0.2705
H9 H 0.2214 0.4750 0.3643
loop_
_geom_bond_atom_site_label_1
_geom_bond_atom_site_label_2
_geom_bond_site_symmetry_1
_geom_bond_site_symmetry_2
C1 C2 1_555 1_555
C2 C3 1_555 1_555
C3 N1 1_555 1_555
N1 C4 1_555 1_555
C4 C5 1_555 1_555
C5 C1 1_555 1_555
C6 C1 1_555 1_555
O1 C6 1_555 1_555
N2 C6 1_555 1_555
N3 N2 1_555 1_555
C7 N3 1_555 1_555
C8 C7 1_555 1_555
C9 C8 1_555 1_555
N4 C9 1_555 1_555
O2 N4 1_555 1_555
O3 N4 1_555 1_555
C10 C9 1_555 1_555
C11 C10 1_555 1_555
C12 C11 1_555 1_555
Cl1 C12 1_555 1_555
C13 C8 1_555 1_555
H1 C2 1_555 1_555
H2 C3 1_555 1_555
H3 C4 1_555 1_555
H4 C5 1_555 1_555
H5 N2 1_555 1_555
H6 C7 1_555 1_555
H7 C10 1_555 1_555
H8 C11 1_555 1_555
H9 C13 1_555 1_555
C12 C13 1_555 1_555

#END
