
#######################################################################
#
#                 Cambridge Crystallographic Data Centre
#                                CCDC 
#
#######################################################################
#
# If this CIF has been generated from an entry in the Cambridge 
# Structural Database, then it will include bibliographic, chemical, 
# crystal, experimental, refinement or atomic coordinate data resulting 
# from the CCDC's data processing and validation procedures.
#
#######################################################################

data_DEMWEA
_chemical_formula_moiety         'C19 H30 O2'
_chemical_name_systematic        
(1S,2S,5S)-2-((S)-4-(2,6-dimethylphenyl)-2-hydroxybutan-2-yl)-5-methylcyclohexan-1-ol
_symmetry_cell_setting           orthorhombic
_symmetry_space_group_name_H-M   'P 21 21 21'
_symmetry_Int_Tables_number      19
_space_group_name_Hall           'P 2ac 2ab'
loop_
_symmetry_equiv_pos_site_id
_symmetry_equiv_pos_as_xyz
1 x,y,z
2 1/2-x,-y,1/2+z
3 -x,1/2+y,1/2-z
4 1/2+x,1/2-y,-z
_cell_length_a                   12.1554(6)
_cell_length_b                   13.6696(5)
_cell_length_c                   32.4820(15)
_cell_angle_alpha                90
_cell_angle_beta                 90
_cell_angle_gamma                90
_cell_volume                     5397.19
_exptl_crystal_colour            colorless
_exptl_crystal_description       Needles
_cell_formula_units_Z            12
_exptl_crystal_recrystallization_method Hexanes/Acetone
loop_
_atom_site_label
_atom_site_type_symbol
_atom_site_fract_x
_atom_site_fract_y
_atom_site_fract_z
O1 O 0.3415(3) 0.8031(2) 0.93839(9)
H1 H 0.2976 0.7900 0.9200
O2 O 0.1811(3) 0.7178(3) 0.89957(9)
H2 H 0.1232 0.7428 0.8921
C1 C 0.3225(5) 0.7386(4) 0.97346(12)
C2 C 0.2698(4) 0.6423(4) 0.95781(13)
H3 H 0.3215 0.6148 0.9378
C3 C 0.1609(4) 0.6568(4) 0.93476(13)
H4 H 0.1094 0.6907 0.9531
C4 C 0.0935(5) 0.4908(4) 0.95820(15)
H5 H 0.0474 0.5240 0.9786
C5 C 0.1352(5) 1.0071(4) 1.02465(16)
C6 C 0.2482(5) 0.7920(3) 1.00402(14)
H6 H 0.2340 0.7488 1.0271
H7 H 0.1783 0.8052 0.9907
C7 C 0.4363(4) 0.7196(4) 0.99115(15)
H8 H 0.4760 0.7802 0.9930
H9 H 0.4754 0.6753 0.9735
H10 H 0.4294 0.6914 1.0181
C8 C 0.2088(5) 0.9442(4) 1.04477(14)
C9 C 0.2045(5) 0.4715(4) 0.97748(15)
H11 H 0.2519 0.4398 0.9575
H12 H 0.1957 0.4275 1.0007
C10 C 0.2953(4) 0.8902(4) 1.02087(14)
H13 H 0.3579 0.8770 1.0385
H14 H 0.3203 0.9304 0.9981
C11 C 0.2590(5) 0.5663(4) 0.99219(14)
H15 H 0.2158 0.5939 1.0145
H16 H 0.3315 0.5514 1.0029
C12 C 0.1098(5) 0.5600(4) 0.92187(14)
H17 H 0.1568 0.5289 0.9016
H18 H 0.0391 0.5725 0.9090
C13 C 0.0359(6) 0.3963(4) 0.94561(17)
H19 H 0.0292 0.3542 0.9691
H20 H 0.0781 0.3641 0.9247
H21 H -0.0360 0.4113 0.9351
C14 C 0.2740(6) 0.8628(5) 1.11061(16)
H22 H 0.3465 0.8906 1.1112
H23 H 0.2764 0.8001 1.0974
H24 H 0.2475 0.8552 1.1383
C15 C 0.1466(5) 1.0268(4) 0.97903(14)
H25 H 0.1504 0.9658 0.9644
H26 H 0.2124 1.0638 0.9741
H27 H 0.0840 1.0634 0.9696
C16 C 0.1980(5) 0.9296(4) 1.08713(14)
C17 C 0.0398(6) 1.0380(4) 1.08832(19)
H28 H -0.0161 1.0692 1.1028
C18 C 0.1131(6) 0.9768(4) 1.10861(16)
H29 H 0.1059 0.9669 1.1368
C19 C 0.0505(5) 1.0522(4) 1.04665(18)
H30 H 0.0007 1.0922 1.0329
O3 O 0.5215(3) 0.8854(3) 0.90871(10)
H31 H 0.4757 0.8500 0.9197
O4 O 0.6322(3) 0.8453(3) 0.84206(10)
H32 H 0.6137 0.8407 0.8663
C20 C 0.5345(5) 0.9998(4) 0.85167(13)
H33 H 0.6048 1.0239 0.8624
C21 C 0.4756(5) 1.0873(4) 0.83197(14)
H34 H 0.4043 1.0667 0.8217
H35 H 0.5184 1.1108 0.8088
C22 C 0.2207(5) 0.6176(4) 0.77926(15)
H36 H 0.1891 0.5701 0.7960
C23 C 0.4792(5) 0.7762(4) 0.77660(15)
H37 H 0.5170 0.7991 0.7521
H38 H 0.5256 0.7283 0.7901
C24 C 0.3133(5) 0.7614(4) 0.72912(13)
C25 C 0.4663(5) 0.9671(4) 0.88884(14)
H39 H 0.3937 0.9455 0.8793
C26 C 0.2124(5) 0.7215(4) 0.72019(15)
H40 H 0.1744 0.7431 0.6971
C27 C 0.4600(5) 1.1711(4) 0.86324(15)
H41 H 0.5315 1.1949 0.8719
H42 H 0.4214 1.2247 0.8501
C28 C 0.3229(5) 0.6552(4) 0.78935(15)
C29 C 0.5614(5) 0.9156(4) 0.82128(15)
C30 C 0.4515(5) 1.0496(4) 0.91965(14)
H43 H 0.4081 1.0262 0.9427
H44 H 0.5230 1.0689 0.9301
C31 C 0.3953(5) 1.1380(4) 0.90083(15)
H45 H 0.3218 1.1182 0.8917
C32 C 0.1654(5) 0.6491(4) 0.74497(15)
H46 H 0.0973 0.6226 0.7383
C33 C 0.3825(5) 1.2213(4) 0.93199(16)
H47 H 0.4536 1.2400 0.9421
H48 H 0.3375 1.1997 0.9545
H49 H 0.3483 1.2764 0.9188
C34 C 0.3600(5) 0.8416(4) 0.70177(15)
H50 H 0.3105 0.8536 0.6793
H51 H 0.4302 0.8215 0.6912
H52 H 0.3688 0.9005 0.7176
C35 C 0.6300(5) 0.9540(4) 0.78527(15)
H53 H 0.6603 0.8998 0.7702
H54 H 0.6887 0.9941 0.7956
H55 H 0.5841 0.9921 0.7674
C36 C 0.3704(5) 0.7295(4) 0.76465(14)
C37 C 0.4573(5) 0.8629(4) 0.80587(15)
H56 H 0.4111 0.9100 0.7917
H57 H 0.4166 0.8391 0.8295
C38 C 0.3835(5) 0.6157(4) 0.82646(15)
H58 H 0.3971 0.6680 0.8455
H59 H 0.4522 0.5879 0.8178
H60 H 0.3396 0.5663 0.8396
O5 O 1.0069(3) 0.8268(3) 0.87393(10)
H61 H 0.9450 0.8230 0.8839
O6 O 0.8120(3) 0.8944(2) 0.89590(11)
H62 H 0.7556 0.8782 0.8838
C39 C 0.9393(5) 0.8231(4) 0.74276(13)
C40 C 0.8431(5) 0.9930(4) 0.88347(14)
H63 H 0.8096 1.0063 0.8566
C41 C 0.8198(5) 1.1707(4) 0.89922(14)
H64 H 0.7820 1.1784 0.8728
C42 C 0.9648(5) 0.8812(4) 0.70814(14)
C43 C 0.9918(5) 1.1050(4) 0.86418(13)
H65 H 0.9642 1.1128 0.8364
H66 H 1.0710 1.1138 0.8634
C44 C 1.0182(5) 0.9193(4) 0.85226(13)
C45 C 0.7976(5) 1.0668(4) 0.91427(12)
H67 H 0.8322 1.0570 0.9409
H68 H 0.7190 1.0570 0.9175
C46 C 0.8496(5) 0.7596(4) 0.74092(14)
C47 C 0.8136(6) 0.6986(4) 0.77753(16)
H69 H 0.7628 0.6492 0.7685
H70 H 0.7785 0.7400 0.7975
H71 H 0.8767 0.6680 0.7898
C48 C 0.9595(5) 0.9104(4) 0.81067(13)
H72 H 0.9618 0.9735 0.7970
H73 H 0.8828 0.8947 0.8156
C49 C 0.9663(4) 1.0012(4) 0.87894(13)
H74 H 0.9977 0.9948 0.9066
C50 C 1.0077(5) 0.8333(4) 0.78150(13)
H75 H 1.0822 0.8518 0.7741
H76 H 1.0109 0.7707 0.7955
C51 C 0.9415(5) 1.1848(4) 0.89148(14)
H77 H 0.9798 1.1855 0.9177
H78 H 0.9529 1.2479 0.8785
C52 C 0.7725(5) 1.2475(4) 0.92870(16)
H79 H 0.7885 1.3117 0.9184
H80 H 0.8051 1.2396 0.9554
H81 H 0.6943 1.2391 0.9307
C53 C 1.0586(5) 0.9529(4) 0.70869(18)
H82 H 1.0587 0.9898 0.6836
H83 H 1.1269 0.9180 0.7113
H84 H 1.0502 0.9965 0.7316
C54 C 1.1407(5) 0.9340(4) 0.84704(15)
H85 H 1.1732 0.8750 0.8366
H86 H 1.1730 0.9497 0.8732
H87 H 1.1537 0.9866 0.8281
C55 C 0.7860(5) 0.7530(4) 0.70506(15)
H88 H 0.7258 0.7110 0.7042
C56 C 0.8126(6) 0.8086(5) 0.67102(16)
H89 H 0.7719 0.8029 0.6469
C57 C 0.8988(6) 0.8721(4) 0.67306(14)
H90 H 0.9144 0.9108 0.6503
loop_
_geom_bond_atom_site_label_1
_geom_bond_atom_site_label_2
_geom_bond_site_symmetry_1
_geom_bond_site_symmetry_2
O1 H1 1_555 1_555
O2 H2 1_555 1_555
C1 O1 1_555 1_555
C2 C1 1_555 1_555
H3 C2 1_555 1_555
C3 O2 1_555 1_555
H4 C3 1_555 1_555
C4 H5 1_555 1_555
C5 C8 1_555 1_555
C6 C1 1_555 1_555
H6 C6 1_555 1_555
H7 C6 1_555 1_555
C7 C1 1_555 1_555
H8 C7 1_555 1_555
H9 C7 1_555 1_555
H10 C7 1_555 1_555
C8 C10 1_555 1_555
C9 C4 1_555 1_555
H11 C9 1_555 1_555
H12 C9 1_555 1_555
C10 C6 1_555 1_555
H13 C10 1_555 1_555
H14 C10 1_555 1_555
C11 C2 1_555 1_555
H15 C11 1_555 1_555
H16 C11 1_555 1_555
C12 C3 1_555 1_555
H17 C12 1_555 1_555
H18 C12 1_555 1_555
C13 C4 1_555 1_555
H19 C13 1_555 1_555
H20 C13 1_555 1_555
H21 C13 1_555 1_555
C14 H22 1_555 1_555
H23 C14 1_555 1_555
H24 C14 1_555 1_555
C15 C5 1_555 1_555
H25 C15 1_555 1_555
H26 C15 1_555 1_555
H27 C15 1_555 1_555
C16 C8 1_555 1_555
C17 H28 1_555 1_555
C18 C16 1_555 1_555
H29 C18 1_555 1_555
C19 C5 1_555 1_555
H30 C19 1_555 1_555
O3 H31 1_555 1_555
O4 H32 1_555 1_555
C20 H33 1_555 1_555
C21 C20 1_555 1_555
H34 C21 1_555 1_555
H35 C21 1_555 1_555
C22 H36 1_555 1_555
C23 H37 1_555 1_555
H38 C23 1_555 1_555
C24 C26 1_555 1_555
C25 O3 1_555 1_555
H39 C25 1_555 1_555
C26 H40 1_555 1_555
C27 C21 1_555 1_555
H41 C27 1_555 1_555
H42 C27 1_555 1_555
C28 C22 1_555 1_555
C29 O4 1_555 1_555
C30 C25 1_555 1_555
H43 C30 1_555 1_555
H44 C30 1_555 1_555
C31 C27 1_555 1_555
H45 C31 1_555 1_555
C32 C22 1_555 1_555
H46 C32 1_555 1_555
C33 C31 1_555 1_555
H47 C33 1_555 1_555
H48 C33 1_555 1_555
H49 C33 1_555 1_555
C34 C24 1_555 1_555
H50 C34 1_555 1_555
H51 C34 1_555 1_555
H52 C34 1_555 1_555
C35 C29 1_555 1_555
H53 C35 1_555 1_555
H54 C35 1_555 1_555
H55 C35 1_555 1_555
C36 C23 1_555 1_555
C37 C23 1_555 1_555
H56 C37 1_555 1_555
H57 C37 1_555 1_555
C38 C28 1_555 1_555
H58 C38 1_555 1_555
H59 C38 1_555 1_555
H60 C38 1_555 1_555
O5 H61 1_555 1_555
O6 H62 1_555 1_555
C39 C42 1_555 1_555
C40 O6 1_555 1_555
H63 C40 1_555 1_555
C41 H64 1_555 1_555
C42 C53 1_555 1_555
C43 H65 1_555 1_555
H66 C43 1_555 1_555
C44 O5 1_555 1_555
C45 C40 1_555 1_555
H67 C45 1_555 1_555
H68 C45 1_555 1_555
C46 C39 1_555 1_555
C47 C46 1_555 1_555
H69 C47 1_555 1_555
H70 C47 1_555 1_555
H71 C47 1_555 1_555
C48 C44 1_555 1_555
H72 C48 1_555 1_555
H73 C48 1_555 1_555
C49 C40 1_555 1_555
H74 C49 1_555 1_555
C50 C39 1_555 1_555
H75 C50 1_555 1_555
H76 C50 1_555 1_555
C51 C41 1_555 1_555
H77 C51 1_555 1_555
H78 C51 1_555 1_555
C52 C41 1_555 1_555
H79 C52 1_555 1_555
H80 C52 1_555 1_555
H81 C52 1_555 1_555
C53 H82 1_555 1_555
H83 C53 1_555 1_555
H84 C53 1_555 1_555
C54 C44 1_555 1_555
H85 C54 1_555 1_555
H86 C54 1_555 1_555
H87 C54 1_555 1_555
C55 C46 1_555 1_555
H88 C55 1_555 1_555
C56 C55 1_555 1_555
H89 C56 1_555 1_555
C57 C42 1_555 1_555
H90 C57 1_555 1_555
C2 C3 1_555 1_555
C4 C12 1_555 1_555
C9 C11 1_555 1_555
C14 C16 1_555 1_555
C17 C18 1_555 1_555
C17 C19 1_555 1_555
C20 C25 1_555 1_555
C20 C29 1_555 1_555
C24 C36 1_555 1_555
C26 C32 1_555 1_555
C28 C36 1_555 1_555
C29 C37 1_555 1_555
C30 C31 1_555 1_555
C41 C45 1_555 1_555
C43 C49 1_555 1_555
C43 C51 1_555 1_555
C44 C49 1_555 1_555
C48 C50 1_555 1_555
C56 C57 1_555 1_555

#END
