
#######################################################################
#
#                 Cambridge Crystallographic Data Centre
#                                CCDC 
#
#######################################################################
#
# If this CIF has been generated from an entry in the Cambridge 
# Structural Database, then it will include bibliographic, chemical, 
# crystal, experimental, refinement or atomic coordinate data resulting 
# from the CCDC's data processing and validation procedures.
#
#######################################################################

data_DENCAD
_chemical_formula_moiety         'C13 H10 F3 N1 O3'
_chemical_name_systematic        
'methyl 4-[1-hydroxy-4-(trifluoromethyl)-1H-pyrrol-2-yl]benzoate'
_symmetry_cell_setting           orthorhombic
_symmetry_space_group_name_H-M   'P b c a'
_symmetry_Int_Tables_number      61
_space_group_name_Hall           '-P 2ac 2ab'
loop_
_symmetry_equiv_pos_site_id
_symmetry_equiv_pos_as_xyz
1 x,y,z
2 1/2-x,-y,1/2+z
3 1/2+x,1/2-y,-z
4 -x,1/2+y,1/2-z
5 -x,-y,-z
6 1/2+x,y,1/2-z
7 1/2-x,1/2+y,z
8 x,1/2-y,1/2+z
_cell_length_a                   11.243(2)
_cell_length_b                   30.552(7)
_cell_length_c                   7.3019(16)
_cell_angle_alpha                90
_cell_angle_beta                 90
_cell_angle_gamma                90
_cell_volume                     2508.17
_exptl_crystal_colour            colorless
_exptl_crystal_description       block
_cell_formula_units_Z            8
_chemical_properties_physical    Air-sensitive,Heat-sensitive
_exptl_crystal_recrystallization_method dichloromethane/Hexane
loop_
_atom_site_label
_atom_site_type_symbol
_atom_site_fract_x
_atom_site_fract_y
_atom_site_fract_z
O1 O 0.4863(2) 0.34034(9) 0.8222(4)
O2 O 0.3030(2) 0.34758(8) 0.9378(4)
O3 O 0.5298(2) 0.11827(9) 0.9944(4)
H1 H 0.5350 0.1314 1.0920
N1 N 0.4117(3) 0.10823(10) 0.9602(4)
F1 F 0.0935(4) 0.03330(13) 0.8028(7)
F2 F 0.2096(3) -0.00363(10) 0.9547(7)
F3 F 0.0900(4) 0.03589(12) 1.0841(7)
C1 C 0.3675(4) 0.06722(13) 0.9714(6)
H2 H 0.4103 0.0417 0.9932
C2 C 0.2476(4) 0.07058(13) 0.9445(6)
C3 C 0.2202(4) 0.11462(12) 0.9172(5)
H3 H 0.1446 0.1258 0.8955
C4 C 0.3230(3) 0.13876(11) 0.9276(5)
C5 C 0.3430(3) 0.18574(11) 0.9098(5)
C6 C 0.2509(3) 0.21435(11) 0.9583(5)
H4 H 0.1788 0.2030 0.9989
C7 C 0.2656(3) 0.25888(12) 0.9469(5)
H5 H 0.2037 0.2774 0.9809
C8 C 0.3721(3) 0.27648(12) 0.8849(5)
C9 C 0.4625(3) 0.24832(13) 0.8313(5)
H6 H 0.5335 0.2597 0.7866
C10 C 0.4481(3) 0.20354(12) 0.8435(5)
H7 H 0.5095 0.1851 0.8070
C11 C 0.3936(4) 0.32382(13) 0.8765(5)
C12 C 0.3175(4) 0.39461(12) 0.9423(6)
H8 H 0.2464 0.4079 0.9895
H9 H 0.3323 0.4052 0.8207
H10 H 0.3835 0.4020 1.0199
C13 C 0.1633(5) 0.03434(16) 0.9450(10)
loop_
_geom_bond_atom_site_label_1
_geom_bond_atom_site_label_2
_geom_bond_site_symmetry_1
_geom_bond_site_symmetry_2
O1 C11 1_555 1_555
O2 C11 1_555 1_555
O3 H1 1_555 1_555
N1 O3 1_555 1_555
F1 C13 1_555 1_555
F2 C13 1_555 1_555
F3 C13 1_555 1_555
C1 N1 1_555 1_555
H2 C1 1_555 1_555
C2 C1 1_555 1_555
C3 C2 1_555 1_555
H3 C3 1_555 1_555
C4 N1 1_555 1_555
C5 C4 1_555 1_555
C6 C5 1_555 1_555
H4 C6 1_555 1_555
C7 C6 1_555 1_555
H5 C7 1_555 1_555
C8 C7 1_555 1_555
C9 C8 1_555 1_555
H6 C9 1_555 1_555
C10 C5 1_555 1_555
H7 C10 1_555 1_555
C11 C8 1_555 1_555
C12 O2 1_555 1_555
H8 C12 1_555 1_555
H9 C12 1_555 1_555
H10 C12 1_555 1_555
C13 C2 1_555 1_555
C3 C4 1_555 1_555
C9 C10 1_555 1_555

#END
