
#######################################################################
#
#                 Cambridge Crystallographic Data Centre
#                                CCDC 
#
#######################################################################
#
# If this CIF has been generated from an entry in the Cambridge 
# Structural Database, then it will include bibliographic, chemical, 
# crystal, experimental, refinement or atomic coordinate data resulting 
# from the CCDC's data processing and validation procedures.
#
#######################################################################

data_DENCEH
_chemical_name_common            
4-((4-(trifluoromethyl)isoxazol-5-yl)methyl)benzonitrile
_chemical_formula_moiety         'C12 H7 F3 N2 O1'
_chemical_name_systematic        
4-{[4-(trifluoromethyl)-1,2-oxazol-5-yl]methyl}benzonitrile
_symmetry_cell_setting           monoclinic
_symmetry_space_group_name_H-M   'P 2/c'
_symmetry_Int_Tables_number      13
_space_group_name_Hall           '-P 2yc'
loop_
_symmetry_equiv_pos_site_id
_symmetry_equiv_pos_as_xyz
1 x,y,z
2 -x,y,1/2-z
3 -x,-y,-z
4 x,-y,1/2+z
_cell_length_a                   14.0956(5)
_cell_length_b                   11.3444(4)
_cell_length_c                   19.9859(5)
_cell_angle_alpha                90
_cell_angle_beta                 134.705(2)
_cell_angle_gamma                90
_cell_volume                     2271.42
_exptl_crystal_colour            yellow
_exptl_crystal_description       block
_cell_formula_units_Z            8
_exptl_crystal_recrystallization_method Dichloromethane/Hexane
loop_
_atom_site_label
_atom_site_type_symbol
_atom_site_fract_x
_atom_site_fract_y
_atom_site_fract_z
O1 O 0.36421(11) -0.28940(9) -0.22017(7)
F1 F 0.2039(5) 0.0404(4) -0.3891(4)
F2 F 0.2694(8) -0.0666(9) -0.4359(6)
F3 F 0.0931(4) -0.1051(4) -0.4718(3)
N1 N 0.4708(2) -0.83089(17) -0.38613(17)
N2 N 0.44407(14) -0.19166(13) -0.16295(10)
C1 C 0.4229(2) -0.75067(17) -0.38457(16)
C2 C 0.36389(17) -0.64933(15) -0.38205(12)
C3 C 0.25856(19) -0.66386(15) -0.38997(14)
H1 H 0.2251 -0.7404 -0.3972
C4 C 0.20287(17) -0.56660(15) -0.38727(12)
H2 H 0.1317 -0.5768 -0.3918
C5 C 0.24897(15) -0.45456(13) -0.37816(10)
C6 C 0.35408(15) -0.44108(14) -0.37058(11)
H3 H 0.3865 -0.3643 -0.3644
C7 C 0.41200(16) -0.53759(15) -0.37192(11)
H4 H 0.4846 -0.5275 -0.3659
C8 C 0.18148(15) -0.34840(14) -0.38119(12)
H5 H 0.1207 -0.3134 -0.4450
H6 H 0.1263 -0.3747 -0.3703
C9 C 0.27531(14) -0.25577(13) -0.31106(10)
C10 C 0.29385(15) -0.14057(13) -0.31554(11)
C11 C 0.40019(16) -0.10546(15) -0.22084(12)
H7 H 0.4353 -0.0277 -0.2020
C12 C 0.2209(2) -0.06673(16) -0.40022(14)
O2 O -0.15060(11) -0.69624(9) -0.41865(8)
F7 F -0.3685(7) -0.4030(9) -0.4374(4)
F8 F -0.3069(7) -0.5148(4) -0.3310(5)
F9 F -0.1814(5) -0.3834(5) -0.3031(3)
N3 N 0.02246(17) -1.22381(14) -0.13168(13)
N4 N -0.07010(14) -0.60181(13) -0.40109(10)
C13 C -0.03773(18) -1.14516(15) -0.18091(14)
C14 C -0.11236(16) -1.04583(14) -0.24266(12)
C15 C -0.21577(17) -1.06227(14) -0.33921(13)
H8 H -0.2398 -1.1396 -0.3649
C16 C -0.28349(16) -0.96599(14) -0.39778(12)
H9 H -0.3538 -0.9774 -0.4639
C17 C -0.25007(15) -0.85285(13) -0.36117(11)
C18 C -0.14747(17) -0.83794(14) -0.26434(11)
H10 H -0.1247 -0.7608 -0.2385
C19 C -0.07826(17) -0.93312(15) -0.20526(12)
H11 H -0.0075 -0.9216 -0.1392
C20 C -0.32288(16) -0.74684(14) -0.42501(12)
H12 H -0.3864 -0.7733 -0.4914
H13 H -0.3751 -0.7095 -0.4146
C21 C -0.23072(15) -0.65780(13) -0.40865(10)
C22 C -0.20606(15) -0.54280(13) -0.38556(11)
C23 C -0.10562(16) -0.51268(15) -0.38239(11)
H14 H -0.0685 -0.4360 -0.3682
C24 C -0.26730(17) -0.46327(15) -0.36613(12)
F4? F 0.2637(9) 0.0445(5) -0.3716(5)
F5? F 0.2532(9) -0.0884(9) -0.4462(6)
F6? F 0.0966(6) -0.0722(7) -0.4583(5)
F10? F -0.3895(7) -0.4375(9) -0.4414(6)
F11? F -0.2706(8) -0.5136(6) -0.3084(5)
F12? F -0.2031(7) -0.3654(6) -0.3274(5)
loop_
_geom_bond_atom_site_label_1
_geom_bond_atom_site_label_2
_geom_bond_site_symmetry_1
_geom_bond_site_symmetry_2
O1 N2 1_555 1_555
F1 C12 1_555 1_555
F2 C12 1_555 1_555
F3 C12 1_555 1_555
N1 C1 1_555 1_555
N2 C11 1_555 1_555
C1 C2 1_555 1_555
C2 C3 1_555 1_555
C3 H1 1_555 1_555
C4 C3 1_555 1_555
H2 C4 1_555 1_555
C5 C4 1_555 1_555
C6 C5 1_555 1_555
H3 C6 1_555 1_555
C7 C2 1_555 1_555
H4 C7 1_555 1_555
C8 C5 1_555 1_555
H5 C8 1_555 1_555
H6 C8 1_555 1_555
C9 O1 1_555 1_555
C10 C9 1_555 1_555
C11 C10 1_555 1_555
H7 C11 1_555 1_555
C12 C10 1_555 1_555
O2 N4 1_555 1_555
F7 C24 1_555 1_555
F8 C24 1_555 1_555
F9 C24 1_555 1_555
N3 C13 1_555 1_555
N4 C23 1_555 1_555
C13 C14 1_555 1_555
C14 C15 1_555 1_555
C15 H8 1_555 1_555
C16 C15 1_555 1_555
H9 C16 1_555 1_555
C17 C16 1_555 1_555
C18 C17 1_555 1_555
H10 C18 1_555 1_555
C19 C14 1_555 1_555
H11 C19 1_555 1_555
C20 C17 1_555 1_555
H12 C20 1_555 1_555
H13 C20 1_555 1_555
C21 O2 1_555 1_555
C22 C21 1_555 1_555
C23 C22 1_555 1_555
H14 C23 1_555 1_555
C24 C22 1_555 1_555
C6 C7 1_555 1_555
C8 C9 1_555 1_555
C18 C19 1_555 1_555
C20 C21 1_555 1_555

#END
