
#######################################################################
#
#                 Cambridge Crystallographic Data Centre
#                                CCDC 
#
#######################################################################
#
# If this CIF has been generated from an entry in the Cambridge 
# Structural Database, then it will include bibliographic, chemical, 
# crystal, experimental, refinement or atomic coordinate data resulting 
# from the CCDC's data processing and validation procedures.
#
#######################################################################

data_DENHIO
_chemical_formula_moiety         'C12 H21 O2 P1'
_chemical_name_systematic        
rac-(4a\a,5a\b,9a\b,9b\b)-5-Oxo-dodecahydro-dibenzophosphol-5-ol
_symmetry_cell_setting           monoclinic
_symmetry_space_group_name_H-M   'C 2/c'
_symmetry_Int_Tables_number      15
_space_group_name_Hall           '-C 2yn'
loop_
_symmetry_equiv_pos_site_id
_symmetry_equiv_pos_as_xyz
1 x,y,z
2 1/2+x,1/2+y,z
3 -x,y,1/2-z
4 1/2-x,1/2+y,1/2-z
5 -x,-y,-z
6 1/2-x,1/2-y,-z
7 x,-y,1/2+z
8 1/2+x,1/2-y,1/2+z
_cell_length_a                   16.441(3)
_cell_length_b                   11.820(2)
_cell_length_c                   13.525(3)
_cell_angle_alpha                90
_cell_angle_beta                 111.71(3)
_cell_angle_gamma                90
_cell_volume                     2441.91
_exptl_crystal_colour            colorless
_exptl_crystal_description       prism
_cell_formula_units_Z            8
_exptl_crystal_recrystallization_method methanol/water
loop_
_atom_site_label
_atom_site_type_symbol
_atom_site_fract_x
_atom_site_fract_y
_atom_site_fract_z
C1 C 0.64404(10) 0.05153(14) 0.52189(13)
C2 C 0.69455(11) 0.14659(15) 0.59731(14)
C3 C 0.63048(11) 0.24436(14) 0.58681(14)
C4 C 0.58749(10) 0.26582(15) 0.46618(14)
C5 C 0.50623(12) 0.3422(2) 0.4306(2)
H1 H 0.52500(12) 0.4220(2) 0.4459(2)
H2 H 0.47518(12) 0.3346(2) 0.3528(2)
C6 C 0.44354(11) 0.3133(2) 0.4859(2)
H3 H 0.39652(11) 0.3709(2) 0.4676(2)
H4 H 0.41605(11) 0.2390(2) 0.4603(2)
C7 C 0.49034(12) 0.3092(2) 0.6056(2)
H5 H 0.44784(12) 0.2905(2) 0.6394(2)
H6 H 0.51568(12) 0.3844(2) 0.6319(2)
C8 C 0.56298(12) 0.2207(2) 0.63692(14)
H7 H 0.53695(12) 0.1451(2) 0.61412(14)
H8 H 0.59253(12) 0.2197(2) 0.71535(14)
C9 C 0.70613(12) -0.0400(2) 0.5120(2)
H9 H 0.74591(12) -0.0079(2) 0.4793(2)
H10 H 0.67227(12) -0.1022(2) 0.4661(2)
C10 C 0.75921(13) -0.0851(2) 0.6232(2)
H11 H 0.71933(13) -0.1246(2) 0.6515(2)
H12 H 0.80227(13) -0.1411(2) 0.6180(2)
C11 C 0.80723(12) 0.0074(2) 0.7001(2)
H13 H 0.85231(12) 0.0408(2) 0.6766(2)
H14 H 0.83739(12) -0.0258(2) 0.7716(2)
C12 C 0.74559(12) 0.1001(2) 0.7073(2)
H15 H 0.70459(12) 0.0692(2) 0.7387(2)
H16 H 0.77967(12) 0.1617(2) 0.7539(2)
O1 O 0.48210(7) 0.08334(11) 0.36279(9)
O2 O 0.61834(7) 0.12918(12) 0.32203(10)
H17 H 0.5817(5) 0.1090(19) 0.2627(4)
P1 P 0.57527(3) 0.12654(4) 0.40584(3)
H18 H 0.6062(10) 0.0176(14) 0.5496(13)
H19 H 0.7380(12) 0.1721(15) 0.5703(14)
H20 H 0.6636(11) 0.3137(15) 0.6206(14)
H21 H 0.6296(12) 0.2994(15) 0.4461(14)
loop_
_geom_bond_atom_site_label_1
_geom_bond_atom_site_label_2
_geom_bond_site_symmetry_1
_geom_bond_site_symmetry_2
C1 C2 1_555 1_555
C2 C3 1_555 1_555
C3 C4 1_555 1_555
C4 C5 1_555 1_555
C5 H1 1_555 1_555
H2 C5 1_555 1_555
C6 C5 1_555 1_555
H3 C6 1_555 1_555
H4 C6 1_555 1_555
C7 C6 1_555 1_555
H5 C7 1_555 1_555
H6 C7 1_555 1_555
C8 C3 1_555 1_555
H7 C8 1_555 1_555
H8 C8 1_555 1_555
C9 C1 1_555 1_555
H9 C9 1_555 1_555
H10 C9 1_555 1_555
C10 C9 1_555 1_555
H11 C10 1_555 1_555
H12 C10 1_555 1_555
C11 C10 1_555 1_555
H13 C11 1_555 1_555
H14 C11 1_555 1_555
C12 C2 1_555 1_555
H15 C12 1_555 1_555
H16 C12 1_555 1_555
O1 P1 1_555 1_555
O2 H17 1_555 1_555
P1 C1 1_555 1_555
H18 C1 1_555 1_555
H19 C2 1_555 1_555
H20 C3 1_555 1_555
H21 C4 1_555 1_555
C4 P1 1_555 1_555
C7 C8 1_555 1_555
C11 C12 1_555 1_555
O2 P1 1_555 1_555

#END
