
#######################################################################
#
#                 Cambridge Crystallographic Data Centre
#                                CCDC 
#
#######################################################################
#
# If this CIF has been generated from an entry in the Cambridge 
# Structural Database, then it will include bibliographic, chemical, 
# crystal, experimental, refinement or atomic coordinate data resulting 
# from the CCDC's data processing and validation procedures.
#
#######################################################################

data_DENHOW
_chemical_formula_moiety         'H14 B12 N1 1-,C5 H9 N2 1+,H2 O1'
_chemical_name_systematic        
'1,3-dimethyl-1H-imidazol-3-ium 1-ammonio-closo-dodecaborate monohydrate'
_symmetry_cell_setting           monoclinic
_symmetry_space_group_name_H-M   'P 21/c'
_symmetry_Int_Tables_number      14
_space_group_name_Hall           '-P 2ybc'
loop_
_symmetry_equiv_pos_site_id
_symmetry_equiv_pos_as_xyz
1 x,y,z
2 -x,1/2+y,1/2-z
3 -x,-y,-z
4 x,1/2-y,1/2+z
_cell_length_a                   8.0945(16)
_cell_length_b                   7.3937(15)
_cell_length_c                   27.724(6)
_cell_angle_alpha                90
_cell_angle_beta                 93.02(3)
_cell_angle_gamma                90
_cell_volume                     1656.93
_exptl_crystal_colour            colorless
_exptl_crystal_description       block
_cell_formula_units_Z            4
loop_
_atom_site_label
_atom_site_type_symbol
_atom_site_fract_x
_atom_site_fract_y
_atom_site_fract_z
N1 N 0.1558(7) 1.0121(6) 0.2996(2)
H1 H 0.0726 1.0137 0.2796
H2 H 0.1754 1.0976 0.3196
H3 H 0.2316 1.0069 0.2796
B1 B 0.3147(8) 0.6883(8) 0.3381(2)
H4 H 0.4404 0.7235 0.3260
B2 B -0.0416(9) 0.6989(9) 0.3194(3)
H5 H -0.1491 0.7417 0.2950
B3 B 0.1399(8) 0.8300(8) 0.3278(2)
B4 B 0.2377(8) 0.4607(8) 0.3371(2)
H6 H 0.3134 0.3453 0.3243
B5 B 0.2258(9) 0.8020(10) 0.3872(2)
H7 H 0.2931 0.9140 0.4070
B6 B 0.1028(9) 0.4364(10) 0.3859(2)
H8 H 0.0890 0.3046 0.4052
B7 B 0.1479(8) 0.6239(8) 0.2964(2)
H9 H 0.1653 0.6167 0.2566
B8 B 0.0091(9) 0.8096(10) 0.3766(3)
H10 H -0.0654 0.9251 0.3900
B9 B -0.0681(9) 0.5831(9) 0.3745(3)
H11 H -0.1949 0.5498 0.3863
B10 B 0.0177(8) 0.4690(8) 0.3259(2)
H12 H -0.0512 0.3588 0.3057
B11 B 0.2881(10) 0.5717(10) 0.3941(2)
H13 H 0.3963 0.5304 0.4184
B12 B 0.0999(10) 0.6433(10) 0.4175(3)
H14 H 0.0849 0.6477 0.4575
N2 N 0.6669(7) 0.0755(7) 0.4110(2)
N3 N 0.6935(6) -0.1194(7) 0.46878(17)
C1 C 0.6372(7) -0.0928(8) 0.4236(2)
H15 H 0.5838 -0.1813 0.4034
C2 C 0.7460(8) 0.1613(9) 0.4486(3)
H16 H 0.7827 0.2833 0.4492
C3 C 0.7626(8) 0.0432(10) 0.4843(3)
H17 H 0.8133 0.0659 0.5154
C4 C 0.6882(9) -0.2872(10) 0.4955(3)
H18 H 0.5996 -0.3640 0.4813
H19 H 0.6670 -0.2614 0.5292
H20 H 0.7944 -0.3499 0.4939
C5 C 0.6320(11) 0.1531(12) 0.3627(3)
H21 H 0.7326 0.2089 0.3513
H22 H 0.5451 0.2450 0.3642
H23 H 0.5949 0.0572 0.3402
O1 O 0.4249(15) 0.9726(19) 0.2368(5)
H24 H 0.4396 1.0864 0.2360
H25 H 0.4793 0.9063 0.2564
O2? O 0.4717(18) 1.069(2) 0.2626(6)
H26? H 0.5042 0.9610 0.2632
H27? H 0.4445 1.0890 0.2335
loop_
_geom_bond_atom_site_label_1
_geom_bond_atom_site_label_2
_geom_bond_site_symmetry_1
_geom_bond_site_symmetry_2
N1 H1 1_555 1_555
H2 N1 1_555 1_555
H3 N1 1_555 1_555
B1 H4 1_555 1_555
B2 H5 1_555 1_555
B3 N1 1_555 1_555
B4 B1 1_555 1_555
H6 B4 1_555 1_555
B5 B1 1_555 1_555
H7 B5 1_555 1_555
B6 B4 1_555 1_555
H8 B6 1_555 1_555
B7 B1 1_555 1_555
H9 B7 1_555 1_555
B8 B2 1_555 1_555
H10 B8 1_555 1_555
B9 B2 1_555 1_555
H11 B9 1_555 1_555
B10 B2 1_555 1_555
H12 B10 1_555 1_555
B11 B1 1_555 1_555
H13 B11 1_555 1_555
B12 B5 1_555 1_555
H14 B12 1_555 1_555
N2 C1 1_555 1_555
N3 C1 1_555 1_555
C1 H15 1_555 1_555
C2 N2 1_555 1_555
H16 C2 1_555 1_555
C3 N3 1_555 1_555
H17 C3 1_555 1_555
C4 N3 1_555 1_555
H18 C4 1_555 1_555
H19 C4 1_555 1_555
H20 C4 1_555 1_555
C5 N2 1_555 1_555
H21 C5 1_555 1_555
H22 C5 1_555 1_555
H23 C5 1_555 1_555
O1 H24 1_555 1_555
H25 O1 1_555 1_555
B1 B3 1_555 1_555
B2 B3 1_555 1_555
B2 B7 1_555 1_555
B3 B5 1_555 1_555
B3 B7 1_555 1_555
B3 B8 1_555 1_555
B4 B7 1_555 1_555
B4 B10 1_555 1_555
B4 B11 1_555 1_555
B5 B8 1_555 1_555
B5 B11 1_555 1_555
B6 B9 1_555 1_555
B6 B10 1_555 1_555
B6 B11 1_555 1_555
B6 B12 1_555 1_555
B7 B10 1_555 1_555
B8 B9 1_555 1_555
B8 B12 1_555 1_555
B9 B10 1_555 1_555
B9 B12 1_555 1_555
B11 B12 1_555 1_555
C2 C3 1_555 1_555

#END
