
#######################################################################
#
#                 Cambridge Crystallographic Data Centre
#                                CCDC 
#
#######################################################################
#
# If this CIF has been generated from an entry in the Cambridge 
# Structural Database, then it will include bibliographic, chemical, 
# crystal, experimental, refinement or atomic coordinate data resulting 
# from the CCDC's data processing and validation procedures.
#
#######################################################################

data_DENHIN
_chemical_formula_moiety         'C29 H32 O2 S1'
_chemical_name_systematic        
10-((-)-1-Menthyloxycarbonyl)-(P)-(+)-(2)(1,3)benzeno(0)(3,4)-thiopheno(0)(1,3)benzenophane
_symmetry_cell_setting           monoclinic
_symmetry_space_group_name_H-M   'P 21'
_symmetry_Int_Tables_number      4
_space_group_name_Hall           'P 2yb'
loop_
_symmetry_equiv_pos_site_id
_symmetry_equiv_pos_as_xyz
1 x,y,z
2 -x,1/2+y,-z
_cell_length_a                   7.117(1)
_cell_length_b                   12.097(2)
_cell_length_c                   14.157(2)
_cell_angle_alpha                90
_cell_angle_beta                 91.41(2)
_cell_angle_gamma                90
_cell_volume                     1218.47
_exptl_crystal_colour            colorless
_cell_formula_units_Z            2
loop_
_atom_site_label
_atom_site_type_symbol
_atom_site_fract_x
_atom_site_fract_y
_atom_site_fract_z
C1 C 0.58807(55) -0.04692(30) -0.01174(28)
C2 C 0.39360(54) 0.01627(33) -0.01448(28)
C3 C 0.36724(45) 0.07721(28) 0.07692(25)
C4 C 0.27953(47) 0.02864(30) 0.15336(28)
C5 C 0.29369(47) 0.07495(31) 0.24211(28)
C6 C 0.40781(43) 0.16662(29) 0.25845(24)
C7 C 0.49804(39) 0.21671(25) 0.18362(22)
C8 C 0.46152(41) 0.17773(26) 0.09296(23)
C9 C 0.66350(38) 0.29043(26) 0.20317(20)
C10 C 0.67145(39) 0.37904(26) 0.26246(21)
S1 S 0.89824(10) 0.42760 0.28008(6)
C11 C 0.98235(44) 0.33146(30) 0.20505(24)
C12 C 0.84822(41) 0.26412(28) 0.16702(22)
C13 C 0.87682(41) 0.18778(30) 0.08725(24)
C14 C 0.95962(47) 0.22989(36) 0.00578(28)
C15 C 0.94222(55) 0.17088(39) -0.07787(29)
C16 C 0.83096(53) 0.07728(38) -0.08411(27)
C17 C 0.74927(52) 0.03450(31) -0.00360(27)
C18 C 0.79053(44) 0.08439(28) 0.08328(24)
C19 C 0.51404(40) 0.44337(27) 0.29990(20)
O1 O 0.57118(30) 0.52606(19) 0.35593(16)
O2 O 0.35106(27) 0.42634(25) 0.27818(17)
C20 C 0.43112(48) 0.61130(27) 0.37576(23)
C21 C 0.31553(55) 0.57810(34) 0.45966(26)
C22 C 0.16818(59) 0.66783(37) 0.47795(28)
C23 C 0.26415(36) 0.77984(38) 0.49216(29)
C24 C 0.38697(59) 0.80945(33) 0.40896(30)
C25 C 0.53533(52) 0.71913(30) 0.39126(26)
C26 C 0.66973(59) 0.74790(35) 0.31011(33)
C27 C 0.78307(76) 0.85284(42) 0.33399(47)
C28 C 0.57277(71) 0.75837(50) 0.21384(33)
C29 C 0.04938(77) 0.63784(53) 0.56361(36)
H1 H 0.6018(5) -0.0944(3) -0.0759(3)
H2 H 0.5939(5) -0.1019(3) 0.0484(3)
H3 H 0.2810(5) -0.0427(3) -0.0247(3)
H4 H 0.3913(5) 0.0746(3) -0.0722(3)
H5 H 0.1993(5) -0.0463(3) 0.1429(3)
H6 H 0.2157(5) 0.0399(3) 0.2993(3)
H7 H 0.4264(4) 0.1989(3) 0.3292(2)
H8 H 0.5066(4) 0.2257(3) 0.0333(2)
H9 H 1.1294(4) 0.3244(3) 0.1890(2)
H10 H 1.0357(5) 0.3071(4) 0.0082(3)
H11 H 1.0167(5) 0.1984(4) -0.1319(3)
H12 H 0.8074(5) 0.0373(4) -0.1561(3)
H13 H 0.7554(4) 0.0426(3) 0.1479(2)
H14 H 0.3322(5) 0.6212(3) 0.3173(2)
H15 H 0.2457(5) 0.5005(3) 0.4448(3)
H16 H 0.4066(5) 0.5691(3) 0.5213(3)
H17 H 0.0745(6) 0.6732(4) 0.4170(3)
H18 H 0.3510(6) 0.7768(4) 0.5557(3)
H19 H 0.1577(6) 0.8427(4) 0.4994(3)
H20 H 0.2987(6) 0.8185(3) 0.3463(3)
H21 H 0.4580(6) 0.8866(3) 0.4240(3)
H22 H 0.6288(5) 0.7122(3) 0.4522(3)
H23 H 0.7640(6) 0.6783(3) 0.3047(3)
H24 H 0.8508(8) 0.8437(4) 0.4026(5)
H25 H 0.6897(8) 0.9232(4) 0.3347(5)
H26 H 0.8883(8) 0.8654(4) 0.2814(5)
H27 H 0.4941(7) 0.6839(5) 0.1985(3)
H28 H 0.6769(7) 0.7704(5) 0.1606(3)
H29 H 0.4783(7) 0.8282(5) 0.2140(3)
H30 H -0.0168(8) 0.5585(5) 0.5518(4)
H31 H -0.0573(8) 0.7001(5) 0.5729(4)
H32 H 0.1389(8) 0.6338(5) 0.6262(4)
loop_
_geom_bond_atom_site_label_1
_geom_bond_atom_site_label_2
_geom_bond_site_symmetry_1
_geom_bond_site_symmetry_2
C1 C2 1_555 1_555
C2 C3 1_555 1_555
C3 C4 1_555 1_555
C4 C5 1_555 1_555
C5 C6 1_555 1_555
C6 C7 1_555 1_555
C7 C8 1_555 1_555
C8 C3 1_555 1_555
C9 C7 1_555 1_555
C10 C9 1_555 1_555
S1 C10 1_555 1_555
C11 S1 1_555 1_555
C12 C9 1_555 1_555
C13 C12 1_555 1_555
C14 C13 1_555 1_555
C15 C14 1_555 1_555
C16 C15 1_555 1_555
C17 C1 1_555 1_555
C18 C13 1_555 1_555
C19 C10 1_555 1_555
O1 C19 1_555 1_555
O2 C19 1_555 1_555
C20 O1 1_555 1_555
C21 C20 1_555 1_555
C22 C21 1_555 1_555
C23 C22 1_555 1_555
C24 C23 1_555 1_555
C25 C20 1_555 1_555
C26 C25 1_555 1_555
C27 C26 1_555 1_555
C28 C26 1_555 1_555
C29 C22 1_555 1_555
H1 C1 1_555 1_555
H2 C1 1_555 1_555
H3 C2 1_555 1_555
H4 C2 1_555 1_555
H5 C4 1_555 1_555
H6 C5 1_555 1_555
H7 C6 1_555 1_555
H8 C8 1_555 1_555
H9 C11 1_555 1_555
H10 C14 1_555 1_555
H11 C15 1_555 1_555
H12 C16 1_555 1_555
H13 C18 1_555 1_555
H14 C20 1_555 1_555
H15 C21 1_555 1_555
H16 C21 1_555 1_555
H17 C22 1_555 1_555
H18 C23 1_555 1_555
H19 C23 1_555 1_555
H20 C24 1_555 1_555
H21 C24 1_555 1_555
H22 C25 1_555 1_555
H23 C26 1_555 1_555
H24 C27 1_555 1_555
H25 C27 1_555 1_555
H26 C27 1_555 1_555
H27 C28 1_555 1_555
H28 C28 1_555 1_555
H29 C28 1_555 1_555
H30 C29 1_555 1_555
H31 C29 1_555 1_555
H32 C29 1_555 1_555
C11 C12 1_555 1_555
C16 C17 1_555 1_555
C17 C18 1_555 1_555
C24 C25 1_555 1_555

#END
