
#######################################################################
#
#                 Cambridge Crystallographic Data Centre
#                                CCDC 
#
#######################################################################
#
# If this CIF has been generated from an entry in the Cambridge 
# Structural Database, then it will include bibliographic, chemical, 
# crystal, experimental, refinement or atomic coordinate data resulting 
# from the CCDC's data processing and validation procedures.
#
#######################################################################

data_DENHUC
_chemical_formula_moiety         'C24 H32 N4 O2'
_chemical_name_systematic        
2,2'-(piperazine-1,4-diyl)bis[N-(1-phenylethyl)acetamide]
_symmetry_cell_setting           orthorhombic
_symmetry_space_group_name_H-M   'P 21 21 21'
_symmetry_Int_Tables_number      19
_space_group_name_Hall           'P 2ac 2ab'
loop_
_symmetry_equiv_pos_site_id
_symmetry_equiv_pos_as_xyz
1 x,y,z
2 1/2-x,-y,1/2+z
3 1/2+x,1/2-y,-z
4 -x,1/2+y,1/2-z
_cell_length_a                   8.8300(2)
_cell_length_b                   14.3780(9)
_cell_length_c                   17.6690(10)
_cell_angle_alpha                90
_cell_angle_beta                 90
_cell_angle_gamma                90
_cell_volume                     2243.22
_exptl_crystal_colour            colorless
_exptl_crystal_description       needle
_cell_formula_units_Z            4
loop_
_atom_site_label
_atom_site_type_symbol
_atom_site_fract_x
_atom_site_fract_y
_atom_site_fract_z
O1 O 0.1847(3) 0.14591(19) 0.62267(13)
O2 O 1.0725(3) 0.54844(18) 0.57668(11)
N1 N 0.2823(3) 0.23851(15) 0.71364(12)
H1 H 0.3367 0.2871 0.7219
N2 N 0.4724(2) 0.31855(15) 0.61045(11)
N3 N 0.7784(2) 0.37615(15) 0.58617(11)
N4 N 0.9348(3) 0.48362(16) 0.48245(12)
H2 H 0.8826 0.4358 0.4693
C1 C 0.4906(3) 0.1600(2) 0.82066(18)
H3 H 0.5138 0.1484 0.7702
C2 C 0.6024(4) 0.1519(2) 0.8742(2)
H4 H 0.6998 0.1351 0.8596
C3 C 0.5717(5) 0.1682(2) 0.9481(2)
H5 H 0.6473 0.1616 0.9844
C4 C 0.4286(5) 0.1945(2) 0.96904(19)
H6 H 0.4080 0.2071 1.0196
C5 C 0.3138(4) 0.2024(2) 0.91563(17)
H7 H 0.2168 0.2192 0.9307
C6 C 0.3437(3) 0.18523(19) 0.83989(15)
C7 C 0.2219(3) 0.1897(2) 0.77931(15)
H8 H 0.2003 0.1257 0.7636
C8 C 0.0725(4) 0.2331(3) 0.8043(2)
H9 H 0.0343 0.2003 0.8476
H10 H 0.0887 0.2972 0.8173
H11 H 0.0005 0.2293 0.7637
C9 C 0.2603(3) 0.2141(2) 0.64206(16)
C10 C 0.3303(3) 0.2779(2) 0.58424(15)
H12 H 0.3489 0.2432 0.5381
H13 H 0.2595 0.3274 0.5725
C11 C 0.5099(3) 0.40298(19) 0.56837(16)
H14 H 0.4292 0.4482 0.5742
H15 H 0.5194 0.3885 0.5150
C12 C 0.6561(3) 0.44348(19) 0.59694(16)
H16 H 0.6791 0.5003 0.5696
H17 H 0.6466 0.4586 0.6502
C13 C 0.7433(3) 0.2917(2) 0.62891(16)
H18 H 0.7373 0.3063 0.6824
H19 H 0.8235 0.2464 0.6218
C14 C 0.5951(3) 0.25142(19) 0.60264(16)
H20 H 0.6039 0.2329 0.5500
H21 H 0.5719 0.1964 0.6322
C15 C 0.9236(3) 0.4156(2) 0.60828(16)
H22 H 0.9975 0.3659 0.6116
H23 H 0.9136 0.4429 0.6582
C16 C 0.9825(3) 0.4894(2) 0.55406(16)
C17 C 0.9670(3) 0.5548(2) 0.42510(16)
H24 H 0.9936 0.6119 0.4523
C18 C 0.8233(4) 0.5750(3) 0.3812(2)
H25 H 0.8434 0.6216 0.3435
H26 H 0.7887 0.5191 0.3570
H27 H 0.7466 0.5972 0.4152
C19 C 1.1032(3) 0.52912(18) 0.37635(15)
C20 C 1.1032(3) 0.5410(2) 0.29884(15)
H28 H 1.0173 0.5640 0.2748
C21 C 1.2303(4) 0.5189(2) 0.25657(17)
H29 H 1.2291 0.5281 0.2045
C22 C 1.3572(4) 0.4839(2) 0.29004(19)
H30 H 1.4411 0.4677 0.2610
C23 C 1.3593(4) 0.4729(2) 0.36773(19)
H31 H 1.4457 0.4502 0.3916
C24 C 1.2336(3) 0.4955(2) 0.40969(16)
H32 H 1.2364 0.4879 0.4619
loop_
_geom_bond_atom_site_label_1
_geom_bond_atom_site_label_2
_geom_bond_site_symmetry_1
_geom_bond_site_symmetry_2
O1 C9 1_555 1_555
O2 C16 1_555 1_555
N1 H1 1_555 1_555
N2 C10 1_555 1_555
N3 C12 1_555 1_555
N4 H2 1_555 1_555
C1 H3 1_555 1_555
C2 C1 1_555 1_555
H4 C2 1_555 1_555
C3 C2 1_555 1_555
H5 C3 1_555 1_555
C4 C3 1_555 1_555
H6 C4 1_555 1_555
C5 C4 1_555 1_555
H7 C5 1_555 1_555
C6 C1 1_555 1_555
C7 N1 1_555 1_555
H8 C7 1_555 1_555
C8 C7 1_555 1_555
H9 C8 1_555 1_555
H10 C8 1_555 1_555
H11 C8 1_555 1_555
C9 N1 1_555 1_555
C10 C9 1_555 1_555
H12 C10 1_555 1_555
H13 C10 1_555 1_555
C11 N2 1_555 1_555
H14 C11 1_555 1_555
H15 C11 1_555 1_555
C12 C11 1_555 1_555
H16 C12 1_555 1_555
H17 C12 1_555 1_555
C13 N3 1_555 1_555
H18 C13 1_555 1_555
H19 C13 1_555 1_555
C14 N2 1_555 1_555
H20 C14 1_555 1_555
H21 C14 1_555 1_555
C15 N3 1_555 1_555
H22 C15 1_555 1_555
H23 C15 1_555 1_555
C16 N4 1_555 1_555
C17 N4 1_555 1_555
H24 C17 1_555 1_555
C18 C17 1_555 1_555
H25 C18 1_555 1_555
H26 C18 1_555 1_555
H27 C18 1_555 1_555
C19 C17 1_555 1_555
C20 C19 1_555 1_555
H28 C20 1_555 1_555
C21 C20 1_555 1_555
H29 C21 1_555 1_555
C22 C21 1_555 1_555
H30 C22 1_555 1_555
C23 C22 1_555 1_555
H31 C23 1_555 1_555
C24 C19 1_555 1_555
H32 C24 1_555 1_555
C5 C6 1_555 1_555
C6 C7 1_555 1_555
C13 C14 1_555 1_555
C15 C16 1_555 1_555
C23 C24 1_555 1_555

#END
