
#######################################################################
#
#                 Cambridge Crystallographic Data Centre
#                                CCDC 
#
#######################################################################
#
# If this CIF has been generated from an entry in the Cambridge 
# Structural Database, then it will include bibliographic, chemical, 
# crystal, experimental, refinement or atomic coordinate data resulting 
# from the CCDC's data processing and validation procedures.
#
#######################################################################

data_DENMIV
_chemical_formula_moiety         'C120 H156 N12'
_chemical_name_systematic        
'2,8,10,16,18,24,26,32,34,40,42,48,50,56,58,64,68,69,73,77,78,82,83,84-tetracosaethyl-5,13,21,29,37,45,53,61,66,71,75,80-dodecaazatridecacyclo[39.23.3.3^9,33^.3^17,57^.3^25,49^.1^3,63^.1^7,11^.1^15,19^.1^23,27^.1^31,35^.1^39,43^.1^47,51^.1^55,59^]tetraoctaconta-1,3(68),4,7(84),8,10,13,15(83),16,18,20,23(82),24,26,29,31(78),32,34,36,39(77),40,42,45,47(73),48,50,52,55(69),56,58,61,63,65,71,74,79-hexatriacontaene unknown solvate'
_symmetry_cell_setting           rhombohedral
_symmetry_space_group_name_H-M   'R 3'
_symmetry_Int_Tables_number      146
_space_group_name_Hall           'R 3'
loop_
_symmetry_equiv_pos_site_id
_symmetry_equiv_pos_as_xyz
1 x,y,z
2 -y,x-y,z
3 -x+y,-x,z
4 2/3+x,1/3+y,1/3+z
5 2/3-y,1/3+x-y,1/3+z
6 2/3-x+y,1/3-x,1/3+z
7 1/3+x,2/3+y,2/3+z
8 1/3-y,2/3+x-y,2/3+z
9 1/3-x+y,2/3-x,2/3+z
_cell_length_a                   25.004(3)
_cell_length_b                   25.004(3)
_cell_length_c                   20.623(5)
_cell_angle_alpha                90
_cell_angle_beta                 90
_cell_angle_gamma                120
_cell_volume                     11166.1
_exptl_crystal_colour            colorless
_exptl_crystal_description       plate
_cell_formula_units_Z            3
_exptl_crystal_recrystallization_method chloroform
loop_
_atom_site_label
_atom_site_type_symbol
_atom_site_fract_x
_atom_site_fract_y
_atom_site_fract_z
N1 N 0.5544(8) 0.1710(8) 0.5894(8)
N2 N 0.5022(9) 0.2829(12) 0.0876(11)
N3 N 0.3871(7) 0.1181(8) 0.3486(9)
N4 N 0.4501(10) 0.3970(7) 0.3477(9)
C1 C 0.6246(9) 0.2688(8) 0.6572(9)
C2 C 0.6029(7) 0.3105(8) 0.6569(9)
C3 C 0.5739(11) 0.1984(8) 0.6636(10)
H1 H 0.537459 0.193946 0.687310
H2 H 0.590646 0.175683 0.687569
C4 C 0.5290(7) 0.2909(9) 0.6530(9)
H3 H 0.524276 0.322157 0.628096
H4 H 0.504722 0.250424 0.631267
C5 C 0.5061(11) 0.2874(13) 0.7240(11)
H5 H 0.462430 0.275851 0.723583
H6 H 0.510972 0.256280 0.748044
H7 H 0.530441 0.327702 0.744887
C6 C 0.6052(11) 0.3117(12) 0.1263(12)
C7 C 0.6476(12) 0.3747(12) 0.1270(12)
C8 C 0.5367(10) 0.2903(15) 0.1343(14)
H8 H 0.519656 0.282294 0.176777
C9 C 0.6227(17) 0.4178(15) 0.1510(19)
H9 H 0.579342 0.391343 0.165179
H10 H 0.646897 0.440712 0.189525
C10 C 0.624(4) 0.460(3) 0.107(3)
H11 H 0.607808 0.484234 0.126894
H12 H 0.667149 0.487676 0.093307
H13 H 0.599368 0.438142 0.068879
C11 C 0.5598(6) 0.1766(7) 0.4707(4)
C12 C 0.5907(5) 0.1505(6) 0.4400(6)
C13 C 0.5736(6) 0.1266(6) 0.3777(6)
C14 C 0.5256(6) 0.1288(6) 0.3462(5)
C15 C 0.4947(5) 0.1549(7) 0.3770(6)
C16 C 0.5118(6) 0.1788(7) 0.4393(6)
C17 C 0.5789(9) 0.2032(9) 0.5393(8)
H14 H 0.610142 0.245127 0.544224
C18 C 0.6460(8) 0.1500(10) 0.4755(11)
H15 H 0.674497 0.150528 0.441781
H16 H 0.668688 0.189058 0.500082
C19 C 0.6336(11) 0.1022(9) 0.5175(10)
H17 H 0.672374 0.108132 0.535845
H18 H 0.606883 0.101617 0.552625
H19 H 0.612722 0.062888 0.494023
C20 C 0.6143(11) 0.1081(12) 0.3405(13)
H20 H 0.646631 0.136468 0.313050
C21 C 0.5082(12) 0.1061(13) 0.2744(9)
H21 H 0.494478 0.132819 0.253332
H22 H 0.546624 0.114102 0.252205
C22 C 0.4641(14) 0.0458(14) 0.2617(15)
H23 H 0.458893 0.039445 0.214666
H24 H 0.477206 0.018025 0.280069
H25 H 0.424739 0.036857 0.281202
C23 C 0.4436(8) 0.1591(10) 0.3414(10)
H26 H 0.454019 0.192983 0.313281
C24 C 0.4730(10) 0.2023(12) 0.4774(11)
H27 H 0.501103 0.236489 0.506331
H28 H 0.455239 0.219026 0.445974
C25 C 0.4257(11) 0.1572(14) 0.5142(14)
H29 H 0.403654 0.175053 0.536522
H30 H 0.396966 0.123553 0.485892
H31 H 0.442890 0.141039 0.546328
C26 C 0.3677(7) 0.1937(4) 0.2672(6)
C27 C 0.3880(7) 0.2002(5) 0.2034(6)
C28 C 0.4102(6) 0.2564(6) 0.1718(4)
C29 C 0.4120(6) 0.3062(5) 0.2039(7)
C30 C 0.3916(6) 0.2997(5) 0.2676(7)
C31 C 0.3695(6) 0.2435(6) 0.2993(4)
C32 C 0.3411(8) 0.1289(7) 0.3009(10)
H32 H 0.326404 0.097140 0.266427
H33 H 0.304491 0.121424 0.326549
C33 C 0.3924(10) 0.1452(10) 0.1645(13)
H34 H 0.418288 0.162002 0.125175
H35 H 0.410921 0.126656 0.192580
C34 C 0.3257(11) 0.0961(13) 0.1455(18)
H36 H 0.326266 0.062284 0.122079
H37 H 0.300573 0.079811 0.184829
H38 H 0.307906 0.114996 0.117732
C35 C 0.4306(8) 0.2640(10) 0.0980(9)
H39 H 0.423780 0.296060 0.077926
H40 H 0.403990 0.224623 0.075145
C36 C 0.4368(12) 0.3740(9) 0.1671(12)
H41 H 0.456681 0.408047 0.198971
H42 H 0.467467 0.380163 0.133296
C37 C 0.3795(12) 0.3734(11) 0.1359(12)
H43 H 0.392775 0.412782 0.113865
H44 H 0.360303 0.339586 0.104386
H45 H 0.349559 0.367361 0.169803
C38 C 0.3887(10) 0.3528(9) 0.3048(11)
H46 H 0.352351 0.334201 0.333964
H47 H 0.382408 0.378756 0.272928
C39 C 0.3482(9) 0.2296(12) 0.3767(9)
H48 H 0.357345 0.198194 0.394242
H49 H 0.371484 0.267911 0.402395
C40 C 0.2780(7) 0.2060(9) 0.3815(10)
H50 H 0.265097 0.197666 0.427003
H51 H 0.269350 0.237404 0.364376
H52 H 0.255251 0.167886 0.356246
N1A N 0.8290(8) 0.3834(11) 0.5894(8)
N2A N 0.7171(12) 0.2193(15) 0.0876(11)
N3A N 0.8819(8) 0.2690(11) 0.3486(9)
N4A N 0.6030(7) 0.0531(12) 0.3477(9)
C1A C 0.7312(8) 0.3558(12) 0.6572(9)
C2A C 0.6895(8) 0.2924(11) 0.6569(9)
C3A C 0.8016(8) 0.3755(14) 0.6636(10)
H1A H 0.806054 0.343513 0.687310
H2A H 0.824317 0.414963 0.687569
C4A C 0.7091(9) 0.2381(11) 0.6530(9)
H3A H 0.677843 0.202119 0.628096
H4A H 0.749576 0.254298 0.631267
C5A C 0.7126(13) 0.2187(17) 0.7240(11)
H5A H 0.724149 0.186579 0.723583
H6A H 0.743720 0.254692 0.748044
H7A H 0.672298 0.202739 0.744887
C6A C 0.6883(12) 0.2935(16) 0.1263(12)
C7A C 0.6253(12) 0.2729(17) 0.1270(12)
C8A C 0.7097(15) 0.2464(18) 0.1343(14)
H8A H 0.717706 0.237362 0.176777
C9A C 0.5822(15) 0.2049(23) 0.1510(19)
H9A H 0.608657 0.187999 0.165179
H10A H 0.559288 0.206185 0.189525
C10A C 0.540(3) 0.164(5) 0.107(3)
H11A H 0.515766 0.123574 0.126894
H12A H 0.512324 0.179473 0.093307
H13A H 0.561858 0.161226 0.068879
C11A C 0.8234(7) 0.3832(9) 0.4707(4)
C12A C 0.8495(6) 0.4402(8) 0.4400(6)
C13A C 0.8734(6) 0.4470(8) 0.3777(6)
C14A C 0.8712(6) 0.3968(8) 0.3462(5)
C15A C 0.8451(7) 0.3398(9) 0.3770(6)
C16A C 0.8212(7) 0.3330(9) 0.4393(6)
C17A C 0.7968(9) 0.3757(13) 0.5393(8)
H14A H 0.754873 0.365015 0.544224
C18A C 0.8500(10) 0.4960(13) 0.4755(11)
H15A H 0.849472 0.523969 0.441781
H16A H 0.810942 0.479630 0.500082
C19A C 0.8978(9) 0.5314(14) 0.5175(10)
H17A H 0.891868 0.564242 0.535845
H18A H 0.898383 0.505266 0.552625
H19A H 0.937112 0.549834 0.494023
C20A C 0.8919(12) 0.5062(16) 0.3405(13)
H20A H 0.863532 0.510163 0.313050
C21A C 0.8939(13) 0.4021(18) 0.2744(9)
H21A H 0.867181 0.361659 0.253332
H22A H 0.885898 0.432522 0.252205
C22A C 0.9542(14) 0.4183(20) 0.2617(15)
H23A H 0.960555 0.419448 0.214666
H24A H 0.981975 0.459181 0.280069
H25A H 0.963143 0.387882 0.281202
C23A C 0.8409(10) 0.2845(13) 0.3414(10)
H26A H 0.807017 0.261036 0.313281
C24A C 0.7977(12) 0.2707(16) 0.4774(11)
H27A H 0.763511 0.264614 0.506331
H28A H 0.780974 0.236213 0.445974
C25A C 0.8428(14) 0.2685(18) 0.5142(14)
H29A H 0.824947 0.228601 0.536522
H30A H 0.876447 0.273413 0.485892
H31A H 0.858961 0.301851 0.546328
C26A C 0.8063(4) 0.1740(8) 0.2672(6)
C27A C 0.7998(5) 0.1878(9) 0.2034(6)
C28A C 0.7436(6) 0.1538(8) 0.1718(4)
C29A C 0.6938(5) 0.1058(8) 0.2039(7)
C30A C 0.7003(5) 0.0919(8) 0.2676(7)
C31A C 0.7565(6) 0.1260(8) 0.2993(4)
C32A C 0.8711(7) 0.2122(11) 0.3009(10)
H32A H 0.902860 0.229264 0.266427
H33A H 0.878576 0.183067 0.326549
C33A C 0.8548(10) 0.2472(14) 0.1645(13)
H34A H 0.837998 0.256286 0.125175
H35A H 0.873344 0.284265 0.192580
C34A C 0.9039(13) 0.2296(17) 0.1455(18)
H36A H 0.937716 0.263982 0.122079
H37A H 0.920189 0.220762 0.184829
H38A H 0.885004 0.192910 0.117732
C35A C 0.7360(10) 0.1666(13) 0.0980(9)
H39A H 0.703940 0.127720 0.077926
H40A H 0.775377 0.179367 0.075145
C36A C 0.6260(9) 0.0628(15) 0.1671(12)
H41A H 0.591953 0.048634 0.198971
H42A H 0.619837 0.087304 0.133296
C37A C 0.6266(11) 0.0061(16) 0.1359(12)
H43A H 0.587218 -0.020007 0.113865
H44A H 0.660414 0.020717 0.104386
H45A H 0.632639 -0.017802 0.169803
C38A C 0.6472(9) 0.0359(13) 0.3048(11)
H46A H 0.665799 0.018150 0.333964
H47A H 0.621244 0.003652 0.272928
C39A C 0.7704(12) 0.1186(15) 0.3767(9)
H48A H 0.801806 0.159151 0.394242
H49A H 0.732089 0.103573 0.402395
C40A C 0.7940(9) 0.0720(11) 0.3815(10)
H50A H 0.802334 0.067431 0.427003
H51A H 0.762596 0.031946 0.364376
H52A H 0.832114 0.087365 0.356246
N1B N 0.6166(11) 0.4456(8) 0.5894(8)
N2B N 0.7807(15) 0.4978(9) 0.0876(11)
N3B N 0.7310(11) 0.6129(7) 0.3486(9)
N4B N 0.9469(12) 0.5499(10) 0.3477(9)
C1B C 0.6442(12) 0.3754(9) 0.6572(9)
C2B C 0.7076(11) 0.3971(7) 0.6569(9)
C3B C 0.6245(14) 0.4261(11) 0.6636(10)
H1B H 0.656487 0.462541 0.687310
H2B H 0.585037 0.409354 0.687569
C4B C 0.7619(11) 0.4710(7) 0.6530(9)
H3B H 0.797881 0.475724 0.628096
H4B H 0.745702 0.495278 0.631267
C5B C 0.7813(17) 0.4939(11) 0.7240(11)
H5B H 0.813421 0.537570 0.723583
H6B H 0.745308 0.489028 0.748044
H7B H 0.797261 0.469559 0.744887
C6B C 0.7065(16) 0.3948(11) 0.1263(12)
C7B C 0.7271(17) 0.3524(12) 0.1270(12)
C8B C 0.7536(18) 0.4633(10) 0.1343(14)
H8B H 0.762638 0.480344 0.176777
C9B C 0.7951(23) 0.3773(17) 0.1510(19)
H9B H 0.812001 0.420658 0.165179
H10B H 0.793815 0.353103 0.189525
C10B C 0.836(5) 0.376(4) 0.107(3)
H11B H 0.876426 0.392192 0.126894
H12B H 0.820527 0.332851 0.093307
H13B H 0.838774 0.400632 0.068879
C11B C 0.6168(9) 0.4402(6) 0.4707(4)
C12B C 0.5598(8) 0.4093(5) 0.4400(6)
C13B C 0.5530(8) 0.4264(6) 0.3777(6)
C14B C 0.6032(8) 0.4744(6) 0.3462(5)
C15B C 0.6602(9) 0.5053(5) 0.3770(6)
C16B C 0.6670(9) 0.4882(6) 0.4393(6)
C17B C 0.6243(13) 0.4211(9) 0.5393(8)
H14B H 0.634985 0.389858 0.544224
C18B C 0.5040(13) 0.3540(8) 0.4755(11)
H15B H 0.476031 0.325503 0.441781
H16B H 0.520370 0.331312 0.500082
C19B C 0.4686(14) 0.3664(11) 0.5175(10)
H17B H 0.435758 0.327626 0.535845
H18B H 0.494734 0.393117 0.552625
H19B H 0.450166 0.387278 0.494023
C20B C 0.4938(16) 0.3857(11) 0.3405(13)
H20B H 0.489837 0.353369 0.313050
C21B C 0.5979(18) 0.4918(12) 0.2744(9)
H21B H 0.638341 0.505522 0.253332
H22B H 0.567478 0.453376 0.252205
C22B C 0.5817(20) 0.5359(14) 0.2617(15)
H23B H 0.580552 0.541107 0.214666
H24B H 0.540819 0.522794 0.280069
H25B H 0.612118 0.575261 0.281202
C23B C 0.7155(13) 0.5564(8) 0.3414(10)
H26B H 0.738964 0.545981 0.313281
C24B C 0.7293(16) 0.5270(10) 0.4774(11)
H27B H 0.735386 0.498897 0.506331
H28B H 0.763787 0.544761 0.445974
C25B C 0.7315(18) 0.5743(11) 0.5142(14)
H29B H 0.771399 0.596346 0.536522
H30B H 0.726587 0.603034 0.485892
H31B H 0.698149 0.557110 0.546328
C26B C 0.8260(8) 0.6323(7) 0.2672(6)
C27B C 0.8122(9) 0.6120(7) 0.2034(6)
C28B C 0.8462(8) 0.5898(6) 0.1718(4)
C29B C 0.8942(8) 0.5880(6) 0.2039(7)
C30B C 0.9081(8) 0.6084(6) 0.2676(7)
C31B C 0.8740(8) 0.6305(6) 0.2993(4)
C32B C 0.7878(11) 0.6589(8) 0.3009(10)
H32B H 0.770736 0.673596 0.266427
H33B H 0.816933 0.695509 0.326549
C33B C 0.7528(14) 0.6076(10) 0.1645(13)
H34B H 0.743714 0.581712 0.125175
H35B H 0.715735 0.589079 0.192580
C34B C 0.7704(17) 0.6743(11) 0.1455(18)
H36B H 0.736018 0.673734 0.122079
H37B H 0.779238 0.699427 0.184829
H38B H 0.807090 0.692094 0.117732
C35B C 0.8334(13) 0.5694(8) 0.0980(9)
H39B H 0.872280 0.576220 0.077926
H40B H 0.820633 0.596010 0.075145
C36B C 0.9372(15) 0.5632(12) 0.1671(12)
H41B H 0.951366 0.543319 0.198971
H42B H 0.912696 0.532533 0.133296
C37B C 0.9939(16) 0.6205(12) 0.1359(12)
H43B H 1.020007 0.607225 0.113865
H44B H 0.979283 0.639697 0.104386
H45B H 1.017802 0.650441 0.169803
C38B C 0.9641(13) 0.6113(10) 0.3048(11)
H46B H 0.981850 0.647649 0.333964
H47B H 0.996348 0.617592 0.272928
C39B C 0.8814(15) 0.6518(9) 0.3767(9)
H48B H 0.840849 0.642655 0.394242
H49B H 0.896427 0.628516 0.402395
C40B C 0.9280(11) 0.7220(7) 0.3815(10)
H50B H 0.932569 0.734903 0.427003
H51B H 0.968054 0.730650 0.364376
H52B H 0.912635 0.744749 0.356246
loop_
_geom_bond_atom_site_label_1
_geom_bond_atom_site_label_2
_geom_bond_site_symmetry_1
_geom_bond_site_symmetry_2
N1 C3 1_555 1_555
N2 C8 1_555 1_555
N3 C23 1_555 1_555
N4 C38 1_555 1_555
C1 C2 1_555 1_555
C2 C4 1_555 1_555
C3 C1 1_555 1_555
H1 C3 1_555 1_555
H2 C3 1_555 1_555
C4 H3 1_555 1_555
H4 C4 1_555 1_555
C5 C4 1_555 1_555
H5 C5 1_555 1_555
H6 C5 1_555 1_555
H7 C5 1_555 1_555
C6 C7 1_555 1_555
C7 C9 1_555 1_555
C8 C6 1_555 1_555
H8 C8 1_555 1_555
C9 H9 1_555 1_555
H10 C9 1_555 1_555
C10 C9 1_555 1_555
H11 C10 1_555 1_555
H12 C10 1_555 1_555
H13 C10 1_555 1_555
C11 C12 1_555 1_555
C12 C13 1_555 1_555
C13 C14 1_555 1_555
C14 C15 1_555 1_555
C15 C16 1_555 1_555
C16 C11 1_555 1_555
C17 N1 1_555 1_555
H14 C17 1_555 1_555
C18 C12 1_555 1_555
H15 C18 1_555 1_555
H16 C18 1_555 1_555
C19 C18 1_555 1_555
H17 C19 1_555 1_555
H18 C19 1_555 1_555
H19 C19 1_555 1_555
C20 C13 1_555 1_555
H20 C20 1_555 1_555
C21 C14 1_555 1_555
H21 C21 1_555 1_555
H22 C21 1_555 1_555
C22 C21 1_555 1_555
H23 C22 1_555 1_555
H24 C22 1_555 1_555
H25 C22 1_555 1_555
C23 C15 1_555 1_555
H26 C23 1_555 1_555
C24 C16 1_555 1_555
H27 C24 1_555 1_555
H28 C24 1_555 1_555
C25 C24 1_555 1_555
H29 C25 1_555 1_555
H30 C25 1_555 1_555
H31 C25 1_555 1_555
C26 C27 1_555 1_555
C27 C28 1_555 1_555
C28 C29 1_555 1_555
C29 C30 1_555 1_555
C30 C31 1_555 1_555
C31 C26 1_555 1_555
C32 N3 1_555 1_555
H32 C32 1_555 1_555
H33 C32 1_555 1_555
C33 C27 1_555 1_555
H34 C33 1_555 1_555
H35 C33 1_555 1_555
C34 C33 1_555 1_555
H36 C34 1_555 1_555
H37 C34 1_555 1_555
H38 C34 1_555 1_555
C35 N2 1_555 1_555
H39 C35 1_555 1_555
H40 C35 1_555 1_555
C36 C29 1_555 1_555
H41 C36 1_555 1_555
H42 C36 1_555 1_555
C37 C36 1_555 1_555
H43 C37 1_555 1_555
H44 C37 1_555 1_555
H45 C37 1_555 1_555
C38 C30 1_555 1_555
H46 C38 1_555 1_555
H47 C38 1_555 1_555
C39 C31 1_555 1_555
H48 C39 1_555 1_555
H49 C39 1_555 1_555
C40 C39 1_555 1_555
H50 C40 1_555 1_555
H51 C40 1_555 1_555
H52 C40 1_555 1_555
N1A C3A 1_555 1_555
N2A C8A 1_555 1_555
N3A C23A 1_555 1_555
N4A C20 1_555 1_555
C1A C2A 1_555 1_555
C2A C1 1_555 1_555
C3A C1A 1_555 1_555
H1A C3A 1_555 1_555
H2A C3A 1_555 1_555
C4A C2A 1_555 1_555
H3A C4A 1_555 1_555
H4A C4A 1_555 1_555
C5A C4A 1_555 1_555
H5A C5A 1_555 1_555
H6A C5A 1_555 1_555
H7A C5A 1_555 1_555
C6A C7A 1_555 1_555
C7A C6 1_555 1_555
C8A C6A 1_555 1_555
H8A C8A 1_555 1_555
C9A C7A 1_555 1_555
H9A C9A 1_555 1_555
H10A C9A 1_555 1_555
C10A C9A 1_555 1_555
H11A C10A 1_555 1_555
H12A C10A 1_555 1_555
H13A C10A 1_555 1_555
C11A C12A 1_555 1_555
C12A C13A 1_555 1_555
C13A C14A 1_555 1_555
C14A C15A 1_555 1_555
C15A C16A 1_555 1_555
C16A C11A 1_555 1_555
C17A N1A 1_555 1_555
H14A C17A 1_555 1_555
C18A C12A 1_555 1_555
H15A C18A 1_555 1_555
H16A C18A 1_555 1_555
C19A C18A 1_555 1_555
H17A C19A 1_555 1_555
H18A C19A 1_555 1_555
H19A C19A 1_555 1_555
C20A C13A 1_555 1_555
H20A C20A 1_555 1_555
C21A C14A 1_555 1_555
H21A C21A 1_555 1_555
H22A C21A 1_555 1_555
C22A C21A 1_555 1_555
H23A C22A 1_555 1_555
H24A C22A 1_555 1_555
H25A C22A 1_555 1_555
C23A C15A 1_555 1_555
H26A C23A 1_555 1_555
C24A C16A 1_555 1_555
H27A C24A 1_555 1_555
H28A C24A 1_555 1_555
C25A C24A 1_555 1_555
H29A C25A 1_555 1_555
H30A C25A 1_555 1_555
H31A C25A 1_555 1_555
C26A C27A 1_555 1_555
C27A C28A 1_555 1_555
C28A C29A 1_555 1_555
C29A C30A 1_555 1_555
C30A C31A 1_555 1_555
C31A C26A 1_555 1_555
C32A N3A 1_555 1_555
H32A C32A 1_555 1_555
H33A C32A 1_555 1_555
C33A C27A 1_555 1_555
H34A C33A 1_555 1_555
H35A C33A 1_555 1_555
C34A C33A 1_555 1_555
H36A C34A 1_555 1_555
H37A C34A 1_555 1_555
H38A C34A 1_555 1_555
C35A N2A 1_555 1_555
H39A C35A 1_555 1_555
H40A C35A 1_555 1_555
C36A C29A 1_555 1_555
H41A C36A 1_555 1_555
H42A C36A 1_555 1_555
C37A C36A 1_555 1_555
H43A C37A 1_555 1_555
H44A C37A 1_555 1_555
H45A C37A 1_555 1_555
C38A N4A 1_555 1_555
H46A C38A 1_555 1_555
H47A C38A 1_555 1_555
C39A C31A 1_555 1_555
H48A C39A 1_555 1_555
H49A C39A 1_555 1_555
C40A C39A 1_555 1_555
H50A C40A 1_555 1_555
H51A C40A 1_555 1_555
H52A C40A 1_555 1_555
N1B C3B 1_555 1_555
N2B C8B 1_555 1_555
N3B C23B 1_555 1_555
N4B C20A 1_555 1_555
C1B C2 1_555 1_555
C2B C1A 1_555 1_555
C3B C1B 1_555 1_555
H1B C3B 1_555 1_555
H2B C3B 1_555 1_555
C4B C2B 1_555 1_555
H3B C4B 1_555 1_555
H4B C4B 1_555 1_555
C5B C4B 1_555 1_555
H5B C5B 1_555 1_555
H6B C5B 1_555 1_555
H7B C5B 1_555 1_555
C6B C7 1_555 1_555
C7B C6A 1_555 1_555
C8B C6B 1_555 1_555
H8B C8B 1_555 1_555
C9B C7B 1_555 1_555
H9B C9B 1_555 1_555
H10B C9B 1_555 1_555
C10B C9B 1_555 1_555
H11B C10B 1_555 1_555
H12B C10B 1_555 1_555
H13B C10B 1_555 1_555
C11B C12B 1_555 1_555
C12B C13B 1_555 1_555
C13B C14B 1_555 1_555
C14B C15B 1_555 1_555
C15B C16B 1_555 1_555
C16B C11B 1_555 1_555
C17B N1B 1_555 1_555
H14B C17B 1_555 1_555
C18B C12B 1_555 1_555
H15B C18B 1_555 1_555
H16B C18B 1_555 1_555
C19B C18B 1_555 1_555
H17B C19B 1_555 1_555
H18B C19B 1_555 1_555
H19B C19B 1_555 1_555
C20B N4 1_555 1_555
H20B C20B 1_555 1_555
C21B C14B 1_555 1_555
H21B C21B 1_555 1_555
H22B C21B 1_555 1_555
C22B C21B 1_555 1_555
H23B C22B 1_555 1_555
H24B C22B 1_555 1_555
H25B C22B 1_555 1_555
C23B C15B 1_555 1_555
H26B C23B 1_555 1_555
C24B C16B 1_555 1_555
H27B C24B 1_555 1_555
H28B C24B 1_555 1_555
C25B C24B 1_555 1_555
H29B C25B 1_555 1_555
H30B C25B 1_555 1_555
H31B C25B 1_555 1_555
C26B C27B 1_555 1_555
C27B C28B 1_555 1_555
C28B C29B 1_555 1_555
C29B C30B 1_555 1_555
C30B C31B 1_555 1_555
C31B C26B 1_555 1_555
C32B N3B 1_555 1_555
H32B C32B 1_555 1_555
H33B C32B 1_555 1_555
C33B C27B 1_555 1_555
H34B C33B 1_555 1_555
H35B C33B 1_555 1_555
C34B C33B 1_555 1_555
H36B C34B 1_555 1_555
H37B C34B 1_555 1_555
H38B C34B 1_555 1_555
C35B N2B 1_555 1_555
H39B C35B 1_555 1_555
H40B C35B 1_555 1_555
C36B C29B 1_555 1_555
H41B C36B 1_555 1_555
H42B C36B 1_555 1_555
C37B C36B 1_555 1_555
H43B C37B 1_555 1_555
H44B C37B 1_555 1_555
H45B C37B 1_555 1_555
C38B N4B 1_555 1_555
H46B C38B 1_555 1_555
H47B C38B 1_555 1_555
C39B C31B 1_555 1_555
H48B C39B 1_555 1_555
H49B C39B 1_555 1_555
C40B C39B 1_555 1_555
H50B C40B 1_555 1_555
H51B C40B 1_555 1_555
H52B C40B 1_555 1_555
C11 C17 1_555 1_555
C26 C32 1_555 1_555
C28 C35 1_555 1_555
C11A C17A 1_555 1_555
C26A C32A 1_555 1_555
C28A C35A 1_555 1_555
C30A C38A 1_555 1_555
C1B C2B 1_555 1_555
C6B C7B 1_555 1_555
C11B C17B 1_555 1_555
C13B C20B 1_555 1_555
C26B C32B 1_555 1_555
C28B C35B 1_555 1_555
C30B C38B 1_555 1_555

#END
