
#######################################################################
#
#                 Cambridge Crystallographic Data Centre
#                                CCDC 
#
#######################################################################
#
# If this CIF has been generated from an entry in the Cambridge 
# Structural Database, then it will include bibliographic, chemical, 
# crystal, experimental, refinement or atomic coordinate data resulting 
# from the CCDC's data processing and validation procedures.
#
#######################################################################

data_DENPUK
_chemical_formula_moiety         'C16 H26 N2 O2'
_chemical_name_systematic        N^1^,N^4^-dicyclohexylbut-2-enediamide
_symmetry_cell_setting           monoclinic
_symmetry_space_group_name_H-M   'P 21/n'
_symmetry_Int_Tables_number      14
_space_group_name_Hall           '-P 2yn'
loop_
_symmetry_equiv_pos_site_id
_symmetry_equiv_pos_as_xyz
1 x,y,z
2 1/2-x,1/2+y,1/2-z
3 -x,-y,-z
4 1/2+x,1/2-y,1/2+z
_cell_length_a                   9.9736(15)
_cell_length_b                   23.058(3)
_cell_length_c                   14.051(2)
_cell_angle_alpha                90
_cell_angle_beta                 90.562(3)
_cell_angle_gamma                90
_cell_volume                     3231.17
_exptl_crystal_colour            colorless
_exptl_crystal_description       block
_cell_formula_units_Z            8
loop_
_atom_site_label
_atom_site_type_symbol
_atom_site_fract_x
_atom_site_fract_y
_atom_site_fract_z
O1 O 0.05861(14) 0.13503(5) 0.90416(9)
O2 O 0.15940(15) -0.00967(6) 0.69823(10)
N1 N 0.07582(17) 0.10927(7) 1.05760(11)
H1 H 0.0912 0.0819 1.0978
N2 N 0.09223(17) 0.08059(7) 0.73858(11)
H2 H 0.0642 0.1024 0.7839
C1 C 0.0789(3) 0.26130(10) 1.23057(18)
H3 H 0.0539 0.2993 1.2540
H4 H 0.1508 0.2466 1.2707
C2 C 0.1276(3) 0.26659(9) 1.12936(17)
H5 H 0.2063 0.2913 1.1281
H6 H 0.0584 0.2846 1.0904
C3 C 0.1620(2) 0.20761(9) 1.08834(15)
H7 H 0.2370 0.1912 1.1236
H8 H 0.1887 0.2120 1.0225
C4 C 0.0425(2) 0.16665(8) 1.09356(14)
H9 H -0.0301 0.1826 1.0540
C5 C 0.08349(19) 0.09750(8) 0.96484(13)
C6 C 0.1214(2) 0.03645(8) 0.94389(14)
H10 H 0.1371 0.0136 0.9974
C7 C 0.1368(2) 0.00895(8) 0.86112(14)
H11 H 0.1566 -0.0302 0.8688
C8 C 0.12948(19) 0.02668(8) 0.75948(14)
C9 C 0.0966(2) 0.10451(8) 0.64298(13)
H12 H 0.0749 0.0736 0.5976
C10 C 0.2367(2) 0.12713(10) 0.62147(16)
H13 H 0.2999 0.0952 0.6240
H14 H 0.2629 0.1551 0.6698
C11 C 0.2430(2) 0.15578(11) 0.52384(18)
H15 H 0.3315 0.1721 0.5147
H16 H 0.2277 0.1268 0.4748
C12 C 0.1383(3) 0.20337(10) 0.51464(17)
H17 H 0.1594 0.2343 0.5590
H18 H 0.1402 0.2193 0.4508
C13 C -0.0405(3) 0.22099(10) 1.23605(19)
H19 H -0.1152 0.2376 1.2008
H20 H -0.0672 0.2169 1.3019
C14 C -0.0077(3) 0.16163(9) 1.19553(16)
H21 H -0.0873 0.1375 1.1965
H22 H 0.0605 0.1432 1.2348
C15 C -0.0009(2) 0.18018(11) 0.53482(17)
H23 H -0.0254 0.1519 0.4866
H24 H -0.0651 0.2117 0.5313
C16 C -0.0076(2) 0.15198(9) 0.63278(15)
H25 H 0.0074 0.1812 0.6815
H26 H -0.0963 0.1357 0.6419
O3 O 0.16667(16) 1.02430(6) 0.18843(11)
O4 O 0.38773(17) 0.91851(7) 0.41047(10)
N3 N 0.32433(17) 0.93683(7) 0.56042(12)
H27 H 0.2741 0.9572 0.5970
N4 N 0.31886(17) 0.95902(7) 0.23957(12)
H28 H 0.3544 0.9424 0.2885
C17 C 0.4919(3) 0.81359(10) 0.75523(16)
H29 H 0.4194 0.8176 0.8002
H30 H 0.5552 0.7855 0.7807
C18 C 0.4364(3) 0.79180(10) 0.66081(16)
H31 H 0.3875 0.7560 0.6709
H32 H 0.5098 0.7836 0.6181
C19 C 0.3434(2) 0.83653(9) 0.61555(16)
H33 H 0.3128 0.8225 0.5540
H34 H 0.2655 0.8418 0.6554
C20 C 0.4142(2) 0.89414(8) 0.60317(14)
H35 H 0.4900 0.8884 0.5604
C21 C 0.3170(2) 0.94554(9) 0.46696(14)
C22 C 0.2138(2) 0.98915(9) 0.43827(15)
H36 H 0.1670 1.0052 0.4887
C23 C 0.1769(2) 1.00907(9) 0.35292(15)
H37 H 0.1082 1.0363 0.3558
C24 C 0.2217(2) 0.99736(8) 0.25370(15)
C25 C 0.3684(2) 0.94354(9) 0.14600(14)
H38 H 0.3662 0.9782 0.1056
C26 C 0.5126(2) 0.92321(10) 0.15553(16)
H39 H 0.5178 0.8929 0.2033
H40 H 0.5680 0.9553 0.1771
C27 C 0.5674(2) 0.90008(11) 0.06186(18)
H41 H 0.5761 0.9318 0.0171
H42 H 0.6559 0.8838 0.0729
C28 C 0.4769(2) 0.85404(10) 0.01933(16)
H43 H 0.5117 0.8421 -0.0418
H44 H 0.4761 0.8204 0.0608
C29 C 0.5616(2) 0.87166(9) 0.74342(17)
H45 H 0.6400 0.8668 0.7039
H46 H 0.5914 0.8857 0.8052
C30 C 0.4682(2) 0.91602(9) 0.69803(16)
H47 H 0.3941 0.9237 0.7404
H48 H 0.5163 0.9521 0.6884
C31 C 0.2807(2) 0.89741(11) 0.10066(17)
H49 H 0.1915 0.9130 0.0902
H50 H 0.2733 0.8648 0.1439
C32 C 0.3362(3) 0.87640(12) 0.00650(18)
H51 H 0.2795 0.8457 -0.0187
H52 H 0.3359 0.9081 -0.0389
loop_
_geom_bond_atom_site_label_1
_geom_bond_atom_site_label_2
_geom_bond_site_symmetry_1
_geom_bond_site_symmetry_2
O1 C5 1_555 1_555
O2 C8 1_555 1_555
N1 H1 1_555 1_555
N2 H2 1_555 1_555
C1 H3 1_555 1_555
H4 C1 1_555 1_555
C2 C1 1_555 1_555
H5 C2 1_555 1_555
H6 C2 1_555 1_555
C3 C2 1_555 1_555
H7 C3 1_555 1_555
H8 C3 1_555 1_555
C4 N1 1_555 1_555
H9 C4 1_555 1_555
C5 N1 1_555 1_555
C6 C5 1_555 1_555
H10 C6 1_555 1_555
C7 C6 1_555 1_555
H11 C7 1_555 1_555
C8 N2 1_555 1_555
C9 N2 1_555 1_555
H12 C9 1_555 1_555
C10 C9 1_555 1_555
H13 C10 1_555 1_555
H14 C10 1_555 1_555
C11 C10 1_555 1_555
H15 C11 1_555 1_555
H16 C11 1_555 1_555
C12 C11 1_555 1_555
H17 C12 1_555 1_555
H18 C12 1_555 1_555
C13 C1 1_555 1_555
H19 C13 1_555 1_555
H20 C13 1_555 1_555
C14 C4 1_555 1_555
H21 C14 1_555 1_555
H22 C14 1_555 1_555
C15 C12 1_555 1_555
H23 C15 1_555 1_555
H24 C15 1_555 1_555
C16 C9 1_555 1_555
H25 C16 1_555 1_555
H26 C16 1_555 1_555
O3 C24 1_555 1_555
O4 C21 1_555 1_555
N3 H27 1_555 1_555
N4 H28 1_555 1_555
C17 H29 1_555 1_555
H30 C17 1_555 1_555
C18 C17 1_555 1_555
H31 C18 1_555 1_555
H32 C18 1_555 1_555
C19 C18 1_555 1_555
H33 C19 1_555 1_555
H34 C19 1_555 1_555
C20 N3 1_555 1_555
H35 C20 1_555 1_555
C21 N3 1_555 1_555
C22 C21 1_555 1_555
H36 C22 1_555 1_555
C23 C22 1_555 1_555
H37 C23 1_555 1_555
C24 N4 1_555 1_555
C25 N4 1_555 1_555
H38 C25 1_555 1_555
C26 C25 1_555 1_555
H39 C26 1_555 1_555
H40 C26 1_555 1_555
C27 C26 1_555 1_555
H41 C27 1_555 1_555
H42 C27 1_555 1_555
C28 C27 1_555 1_555
H43 C28 1_555 1_555
H44 C28 1_555 1_555
C29 C17 1_555 1_555
H45 C29 1_555 1_555
H46 C29 1_555 1_555
C30 C20 1_555 1_555
H47 C30 1_555 1_555
H48 C30 1_555 1_555
C31 C25 1_555 1_555
H49 C31 1_555 1_555
H50 C31 1_555 1_555
C32 C28 1_555 1_555
H51 C32 1_555 1_555
H52 C32 1_555 1_555
C3 C4 1_555 1_555
C7 C8 1_555 1_555
C13 C14 1_555 1_555
C15 C16 1_555 1_555
C19 C20 1_555 1_555
C23 C24 1_555 1_555
C29 C30 1_555 1_555
C31 C32 1_555 1_555

#END
