
#######################################################################
#
#                 Cambridge Crystallographic Data Centre
#                                CCDC 
#
#######################################################################
#
# If this CIF has been generated from an entry in the Cambridge 
# Structural Database, then it will include bibliographic, chemical, 
# crystal, experimental, refinement or atomic coordinate data resulting 
# from the CCDC's data processing and validation procedures.
#
#######################################################################

data_DENSOH
_chemical_formula_moiety         'C14 H16 O4'
_chemical_name_systematic        
6-methoxy-5,5a,6,8,8a,9-hexahydro-2H-furo[3',4':6,7]naphtho[2,3-d][1,3]dioxole
_symmetry_cell_setting           monoclinic
_symmetry_space_group_name_H-M   'P 21/n'
_symmetry_Int_Tables_number      14
_space_group_name_Hall           '-P 2yn'
loop_
_symmetry_equiv_pos_site_id
_symmetry_equiv_pos_as_xyz
1 x,y,z
2 1/2-x,1/2+y,1/2-z
3 -x,-y,-z
4 1/2+x,1/2-y,1/2+z
_cell_length_a                   13.2065(13)
_cell_length_b                   6.4912(5)
_cell_length_c                   14.9358(16)
_cell_angle_alpha                90
_cell_angle_beta                 110.261(11)
_cell_angle_gamma                90
_cell_volume                     1201.16
_exptl_crystal_colour            'light colorless'
_exptl_crystal_description       plate
_cell_formula_units_Z            4
loop_
_atom_site_label
_atom_site_type_symbol
_atom_site_fract_x
_atom_site_fract_y
_atom_site_fract_z
O1 O 0.68605(18) 0.4812(3) 0.02770(16)
O2 O 1.1201(2) 0.6380(4) -0.26092(19)
O3 O 1.1348(2) 0.9634(4) -0.19400(18)
O4 O 0.6207(2) 0.7516(4) -0.0780(2)
C1 C 1.0511(3) 0.8573(4) -0.1791(2)
C2 C 0.9833(2) 0.9238(4) -0.1340(2)
H1 H 0.9892 1.0557 -0.1084
C3 C 0.9045(2) 0.7855(4) -0.12776(19)
C4 C 0.8237(2) 0.8443(4) -0.0817(2)
H2 H 0.7546 0.8713 -0.1311
H3 H 0.8473 0.9702 -0.0455
C5 C 0.7042(3) 0.6830(5) 0.0045(2)
H4 H 0.7111 0.7753 0.0582
C6 C 0.7139(3) 0.3540(5) -0.0375(3)
H5 H 0.6538 0.3434 -0.0973
H6 H 0.7327 0.2167 -0.0114
C7 C 0.8105(2) 0.4554(4) -0.0534(2)
H7 H 0.8763 0.3861 -0.0128
C8 C 0.8092(2) 0.4520(4) -0.1557(2)
H8 H 0.8198 0.3119 -0.1732
H9 H 0.7393 0.4986 -0.1983
C9 C 0.8963(2) 0.5884(4) -0.16711(18)
C10 C 0.9665(2) 0.5259(4) -0.2135(2)
H10 H 0.9615 0.3951 -0.2402
C11 C 1.0428(3) 0.6632(5) -0.2185(2)
C12 C 1.1845(3) 0.8192(6) -0.2374(3)
H11 H 1.2562 0.7854 -0.1938
H12 H 1.1914 0.8784 -0.2946
C13 C 0.5162(4) 0.7481(10) -0.0688(5)
H13 H 0.4667 0.8276 -0.1193
H14 H 0.5210 0.8060 -0.0083
H15 H 0.4911 0.6085 -0.0726
C14 C 0.8095(2) 0.6754(4) -0.01513(19)
H16 H 0.8691 0.6871 0.0460
loop_
_geom_bond_atom_site_label_1
_geom_bond_atom_site_label_2
_geom_bond_site_symmetry_1
_geom_bond_site_symmetry_2
O1 C5 1_555 1_555
O2 C11 1_555 1_555
O3 C1 1_555 1_555
O4 C5 1_555 1_555
C1 C2 1_555 1_555
C2 H1 1_555 1_555
C3 C2 1_555 1_555
C4 C3 1_555 1_555
H2 C4 1_555 1_555
H3 C4 1_555 1_555
C5 H4 1_555 1_555
C6 O1 1_555 1_555
H5 C6 1_555 1_555
H6 C6 1_555 1_555
C7 C6 1_555 1_555
H7 C7 1_555 1_555
C8 C7 1_555 1_555
H8 C8 1_555 1_555
H9 C8 1_555 1_555
C9 C3 1_555 1_555
C10 C9 1_555 1_555
H10 C10 1_555 1_555
C11 C1 1_555 1_555
C12 O2 1_555 1_555
H11 C12 1_555 1_555
H12 C12 1_555 1_555
C13 O4 1_555 1_555
H13 C13 1_555 1_555
H14 C13 1_555 1_555
H15 C13 1_555 1_555
C14 C4 1_555 1_555
H16 C14 1_555 1_555
O3 C12 1_555 1_555
C5 C14 1_555 1_555
C7 C14 1_555 1_555
C8 C9 1_555 1_555
C10 C11 1_555 1_555

#END
