
#######################################################################
#
#                 Cambridge Crystallographic Data Centre
#                                CCDC 
#
#######################################################################
#
# If this CIF has been generated from an entry in the Cambridge 
# Structural Database, then it will include bibliographic, chemical, 
# crystal, experimental, refinement or atomic coordinate data resulting 
# from the CCDC's data processing and validation procedures.
#
#######################################################################

data_DENSIY
_chemical_formula_moiety         'C29 H20 F5 O2 P1'
_chemical_name_systematic        
Benzoyl-pentafluoropropane-methylene-triphenylphosphorane
_symmetry_cell_setting           monoclinic
_symmetry_space_group_name_H-M   'C 2/c'
_symmetry_Int_Tables_number      15
_space_group_name_Hall           '-C 2yn'
loop_
_symmetry_equiv_pos_site_id
_symmetry_equiv_pos_as_xyz
1 x,y,z
2 1/2+x,1/2+y,z
3 -x,y,1/2-z
4 1/2-x,1/2+y,1/2-z
5 -x,-y,-z
6 1/2-x,1/2-y,-z
7 x,-y,1/2+z
8 1/2+x,1/2-y,1/2+z
_cell_length_a                   11.271(3)
_cell_length_b                   18.253(6)
_cell_length_c                   23.938(7)
_cell_angle_alpha                90
_cell_angle_beta                 91.09(2)
_cell_angle_gamma                90
_cell_volume                     4923.86
_exptl_crystal_colour            'light yellow'
_cell_formula_units_Z            8
loop_
_atom_site_label
_atom_site_type_symbol
_atom_site_fract_x
_atom_site_fract_y
_atom_site_fract_z
P1 P 0.2290(1) 0.4825(1) 0.1239(1)
C1 C 0.1008(4) 0.4243(3) 0.1332(2)
C2 C 0.0150(4) 0.4421(3) 0.1715(2)
C3 C -0.0817(5) 0.3968(3) 0.1776(2)
C4 C -0.0934(5) 0.3334(3) 0.1462(2)
C5 C -0.0089(5) 0.3163(3) 0.1081(2)
C6 C 0.0885(5) 0.3618(3) 0.1009(2)
C7 C 0.3598(4) 0.4401(2) 0.1538(2)
C8 C 0.4563(4) 0.4842(3) 0.1669(2)
C9 C 0.5616(4) 0.4521(3) 0.1853(2)
C10 C 0.5698(5) 0.3768(3) 0.1893(2)
C11 C 0.4746(5) 0.3333(3) 0.1760(2)
C12 C 0.3679(5) 0.3645(3) 0.1587(2)
C13 C 0.2492(4) 0.4846(3) 0.0494(2)
C14 C 0.3503(5) 0.4564(3) 0.0258(2)
C15 C 0.3626(5) 0.4571(4) -0.0321(2)
C16 C 0.2732(6) 0.4865(4) -0.0650(2)
C17 C 0.1725(5) 0.5148(4) -0.0418(2)
C18 C 0.1594(5) 0.5138(3) 0.0154(2)
C19 C 0.1230(5) 0.6774(3) 0.0875(2)
C20 C 0.0090(5) 0.6544(3) 0.0943(2)
C21 C -0.0857(6) 0.6923(4) 0.0705(2)
C22 C -0.0623(6) 0.7550(4) 0.0399(3)
C23 C 0.0529(6) 0.7794(3) 0.0333(3)
C24 C 0.1442(6) 0.7406(3) 0.0569(2)
C25 C 0.2082(4) 0.5717(3) 0.1484(2)
C26 C 0.2268(5) 0.6341(3) 0.1084(2)
C27 C 0.2035(4) 0.5754(3) 0.2062(2)
C28 C 0.2003(6) 0.6496(3) 0.2362(2)
C29 C 0.3068(8) 0.6689(4) 0.2685(4)
O1 O 0.3246(4) 0.6457(2) 0.0903(2)
O2 O 0.2044(3) 0.5223(2) 0.2386(1)
F1 F 0.1189(4) 0.6474(3) 0.2802(2)
F2 F 0.1689(4) 0.7048(2) 0.2044(2)
F3 F 0.3045(5) 0.7346(2) 0.2894(2)
F4 F 0.3916(5) 0.6733(3) 0.2239(3)
F5 F 0.3484(6) 0.6258(3) 0.3027(3)
loop_
_geom_bond_atom_site_label_1
_geom_bond_atom_site_label_2
_geom_bond_site_symmetry_1
_geom_bond_site_symmetry_2
P1 C1 1_555 1_555
C1 C2 1_555 1_555
C2 C3 1_555 1_555
C3 C4 1_555 1_555
C4 C5 1_555 1_555
C5 C6 1_555 1_555
C6 C1 1_555 1_555
C7 P1 1_555 1_555
C8 C7 1_555 1_555
C9 C8 1_555 1_555
C10 C9 1_555 1_555
C11 C10 1_555 1_555
C12 C7 1_555 1_555
C13 P1 1_555 1_555
C14 C13 1_555 1_555
C15 C14 1_555 1_555
C16 C15 1_555 1_555
C17 C16 1_555 1_555
C18 C13 1_555 1_555
C19 C20 1_555 1_555
C20 C21 1_555 1_555
C21 C22 1_555 1_555
C22 C23 1_555 1_555
C23 C24 1_555 1_555
C24 C19 1_555 1_555
C25 P1 1_555 1_555
C26 C19 1_555 1_555
C27 C25 1_555 1_555
C28 C27 1_555 1_555
C29 C28 1_555 1_555
O1 C26 1_555 1_555
O2 C27 1_555 1_555
F1 C28 1_555 1_555
F2 C28 1_555 1_555
F3 C29 1_555 1_555
F4 C29 1_555 1_555
F5 C29 1_555 1_555
C11 C12 1_555 1_555
C17 C18 1_555 1_555
C25 C26 1_555 1_555

#END
