
#######################################################################
#
#                 Cambridge Crystallographic Data Centre
#                                CCDC 
#
#######################################################################
#
# If this CIF has been generated from an entry in the Cambridge 
# Structural Database, then it will include bibliographic, chemical, 
# crystal, experimental, refinement or atomic coordinate data resulting 
# from the CCDC's data processing and validation procedures.
#
#######################################################################

data_DENTIC
_chemical_formula_moiety         'C29 H23 Br1 N2 O2'
_chemical_name_systematic        
5-benzyl-1-(4-bromophenyl)-3-phenyl-7,8,9,9a-tetrahydro[2]benzopyrano[3,4-c]pyrazol-6(3H)-one
_symmetry_cell_setting           monoclinic
_symmetry_space_group_name_H-M   'C 2'
_symmetry_Int_Tables_number      5
_space_group_name_Hall           'C 2y'
loop_
_symmetry_equiv_pos_site_id
_symmetry_equiv_pos_as_xyz
1 x,y,z
2 -x,y,-z
3 1/2+x,1/2+y,z
4 1/2-x,1/2+y,-z
_cell_length_a                   15.6759(3)
_cell_length_b                   10.3960(2)
_cell_length_c                   14.9375(2)
_cell_angle_alpha                90
_cell_angle_beta                 102.5630(10)
_cell_angle_gamma                90
_cell_volume                     2376.03
_exptl_crystal_description       block
_cell_formula_units_Z            4
loop_
_atom_site_label
_atom_site_type_symbol
_atom_site_fract_x
_atom_site_fract_y
_atom_site_fract_z
Br1 Br 0.522842(18) 0.88305(5) 0.705101(19)
N1 N 0.13405(14) 0.7421(2) 0.25363(14)
N2 N 0.18186(14) 0.8070(2) 0.32812(14)
O1 O 0.13016(11) 0.53458(16) 0.18744(11)
O2 O 0.2389(2) 0.1545(2) 0.2452(2)
C1 C 0.24017(17) 0.7232(3) 0.37119(16)
C2 C 0.23184(16) 0.6015(2) 0.32718(16)
C3 C 0.16485(15) 0.6198(2) 0.25437(15)
C4 C 0.16668(15) 0.4111(2) 0.19941(15)
C5 C 0.23389(14) 0.3822(3) 0.26853(14)
C6 C 0.2748(2) 0.2508(3) 0.2769(2)
C7 C 0.3655(4) 0.2433(5) 0.3273(6)
H1 H 0.3666 0.1806 0.3756
H2 H 0.3979 0.2057 0.2854
C8 C 0.4158(2) 0.3497(4) 0.3691(3)
H3 H 0.4718 0.3477 0.3514
H4 H 0.4271 0.3383 0.4351
C9 C 0.37622(19) 0.4809(3) 0.3467(2)
H5 H 0.3863 0.5094 0.2880
H6 H 0.4037 0.5420 0.3931
C10 C 0.27811(16) 0.4757(2) 0.34271(16)
H7 H 0.2702 0.4422 0.4017
C11 C 0.06404(18) 0.8048(3) 0.19265(19)
C12 C 0.0621(2) 0.9379(3) 0.1893(2)
H8 H 0.1074 0.9859 0.2244
C13 C -0.0076(2) 0.9978(3) 0.1335(3)
H9 H -0.0097 1.0872 0.1316
C14 C -0.0740(2) 0.9290(4) 0.0806(3)
H10 H -0.1213 0.9709 0.0437
C15 C -0.0701(3) 0.7981(4) 0.0828(3)
H11 H -0.1140 0.7506 0.0452
C16 C -0.0028(2) 0.7356(3) 0.1392(3)
H12 H -0.0022 0.6462 0.1415
C17 C 0.30465(16) 0.7633(3) 0.45359(16)
C18 C 0.3376(2) 0.6764(3) 0.52335(19)
H13 H 0.3161 0.5928 0.5198
C19 C 0.4020(2) 0.7132(3) 0.59818(19)
H14 H 0.4244 0.6543 0.6442
C20 C 0.43232(17) 0.8369(3) 0.60361(18)
C21 C 0.39946(19) 0.9256(3) 0.5373(2)
H15 H 0.4199 1.0098 0.5427
C22 C 0.33567(15) 0.8888(3) 0.46225(16)
H16 H 0.3133 0.9489 0.4171
C23 C 0.11789(19) 0.3269(3) 0.12355(18)
H17 H 0.0562 0.3484 0.1120
H18 H 0.1242 0.2379 0.1434
C24 C 0.14947(15) 0.3402(2) 0.03411(15)
C25 C 0.1869(2) 0.2358(3) 0.00110(19)
H19 H 0.1929 0.1586 0.0333
C26 C 0.2158(2) 0.2455(4) -0.0806(2)
H20 H 0.2404 0.1744 -0.1029
C27 C 0.20815(18) 0.3587(4) -0.12787(19)
H21 H 0.2288 0.3653 -0.1815
C28 C 0.1703(2) 0.4616(3) -0.0964(2)
H22 H 0.1644 0.5385 -0.1290
C29 C 0.1398(2) 0.4528(3) -0.01483(19)
H23 H 0.1130 0.5233 0.0059
loop_
_geom_bond_atom_site_label_1
_geom_bond_atom_site_label_2
_geom_bond_site_symmetry_1
_geom_bond_site_symmetry_2
Br1 C20 1_555 1_555
N1 N2 1_555 1_555
N2 C1 1_555 1_555
O1 C3 1_555 1_555
O2 C6 1_555 1_555
C1 C2 1_555 1_555
C2 C3 1_555 1_555
C3 N1 1_555 1_555
C4 O1 1_555 1_555
C5 C4 1_555 1_555
C6 C5 1_555 1_555
C7 C6 1_555 1_555
H1 C7 1_555 1_555
H2 C7 1_555 1_555
C8 C7 1_555 1_555
H3 C8 1_555 1_555
H4 C8 1_555 1_555
C9 C8 1_555 1_555
H5 C9 1_555 1_555
H6 C9 1_555 1_555
C10 C2 1_555 1_555
H7 C10 1_555 1_555
C11 N1 1_555 1_555
C12 C11 1_555 1_555
H8 C12 1_555 1_555
C13 C12 1_555 1_555
H9 C13 1_555 1_555
C14 C13 1_555 1_555
H10 C14 1_555 1_555
C15 C14 1_555 1_555
H11 C15 1_555 1_555
C16 C11 1_555 1_555
H12 C16 1_555 1_555
C17 C1 1_555 1_555
C18 C17 1_555 1_555
H13 C18 1_555 1_555
C19 C18 1_555 1_555
H14 C19 1_555 1_555
C20 C19 1_555 1_555
C21 C20 1_555 1_555
H15 C21 1_555 1_555
C22 C17 1_555 1_555
H16 C22 1_555 1_555
C23 C4 1_555 1_555
H17 C23 1_555 1_555
H18 C23 1_555 1_555
C24 C23 1_555 1_555
C25 C24 1_555 1_555
H19 C25 1_555 1_555
C26 C25 1_555 1_555
H20 C26 1_555 1_555
C27 C26 1_555 1_555
H21 C27 1_555 1_555
C28 C27 1_555 1_555
H22 C28 1_555 1_555
C29 C24 1_555 1_555
H23 C29 1_555 1_555
C5 C10 1_555 1_555
C9 C10 1_555 1_555
C15 C16 1_555 1_555
C21 C22 1_555 1_555
C28 C29 1_555 1_555

#END
