
#######################################################################
#
#                 Cambridge Crystallographic Data Centre
#                                CCDC 
#
#######################################################################
#
# If this CIF has been generated from an entry in the Cambridge 
# Structural Database, then it will include bibliographic, chemical, 
# crystal, experimental, refinement or atomic coordinate data resulting 
# from the CCDC's data processing and validation procedures.
#
#######################################################################

data_DENXUP02
_chemical_name_common            
'1,7-Dioxo-3,20-epoxykaur-16-ene-6,15-diyl diacetate'
_chemical_formula_moiety         'C24 H30 O7'
_chemical_name_systematic        
3,20-Epoxy-6b,15b-diacetoxy-ent-kaurene-1,7-dione
_symmetry_cell_setting           monoclinic
_symmetry_space_group_name_H-M   'P 21'
_symmetry_Int_Tables_number      4
_space_group_name_Hall           'P 2yb'
loop_
_symmetry_equiv_pos_site_id
_symmetry_equiv_pos_as_xyz
1 x,y,z
2 -x,1/2+y,-z
_cell_length_a                   6.7733(5)
_cell_length_b                   14.6620(12)
_cell_length_c                   11.4365(9)
_cell_angle_alpha                90
_cell_angle_beta                 95.770(3)
_cell_angle_gamma                90
_cell_volume                     1130.01
_exptl_crystal_colour            colorless
_exptl_crystal_description       block
_cell_formula_units_Z            2
loop_
_atom_site_label
_atom_site_type_symbol
_atom_site_fract_x
_atom_site_fract_y
_atom_site_fract_z
C1 C 0.3389(4) 0.26022(18) 0.3854(2)
C2 C 0.3773(4) 0.2469(3) 0.5166(2)
H1 H 0.3424 0.3019 0.5571
H2 H 0.2968 0.1971 0.5413
C3 C 0.5942(4) 0.2256(2) 0.5467(2)
H3 H 0.6198 0.2177 0.6319
C4 C 0.6618(4) 0.1402(2) 0.4862(2)
C5 C 0.6025(3) 0.15331(17) 0.34897(18)
H4 H 0.4903 0.1126 0.3268
C6 C 0.7662(3) 0.12863(17) 0.27148(19)
H5 H 0.8838 0.1662 0.2934
C7 C 0.6982(3) 0.14178(17) 0.1423(2)
C8 C 0.6301(3) 0.23730(16) 0.10823(18)
C9 C 0.4751(3) 0.27103(16) 0.19050(18)
H6 H 0.3562 0.2342 0.1688
C10 C 0.5282(3) 0.25302(16) 0.32292(19)
C11 C 0.4121(4) 0.37024(18) 0.1592(2)
H7 H 0.3069 0.3685 0.0950
H8 H 0.3574 0.3970 0.2264
C12 C 0.5765(5) 0.43244(18) 0.1238(2)
H9 H 0.6586 0.4518 0.1938
H10 H 0.5177 0.4865 0.0858
C13 C 0.7071(4) 0.38450(18) 0.0400(2)
H11 H 0.8043 0.4262 0.0111
C14 C 0.8069(4) 0.30298(17) 0.1044(2)
H12 H 0.8637 0.3194 0.1828
H13 H 0.9094 0.2770 0.0612
C15 C 0.5460(3) 0.24222(18) -0.0222(2)
H14 H 0.6228 0.2013 -0.0680
C16 C 0.5793(4) 0.33946(19) -0.0596(2)
C17 C 0.5142(5) 0.3761(2) -0.1609(2)
H15 H 0.5463 0.4361 -0.1772
H16 H 0.4359 0.3420 -0.2163
C18 C 0.5589(7) 0.0560(3) 0.5285(3)
H17 H 0.6033 0.0030 0.4894
H18 H 0.4179 0.0623 0.5111
H19 H 0.5905 0.0494 0.6118
C19 C 0.8875(5) 0.1324(3) 0.5197(3)
H20 H 0.9523 0.1855 0.4927
H21 H 0.9369 0.0790 0.4838
H22 H 0.9139 0.1278 0.6036
C20 C 0.6777(4) 0.31987(19) 0.3884(2)
H23 H 0.8052 0.3138 0.3575
H24 H 0.6316 0.3819 0.3740
C21 C 0.9923(4) 0.0055(2) 0.2618(3)
C22 C 1.0130(5) -0.0954(3) 0.2764(4)
H25 H 0.8956 -0.1197 0.3054
H26 H 1.1261 -0.1087 0.3313
H27 H 1.0307 -0.1228 0.2019
C23 C 0.2721(4) 0.16947(18) -0.1350(2)
C24 C 0.0650(4) 0.1361(2) -0.1272(2)
H28 H 0.0225 0.1533 -0.0527
H29 H 0.0618 0.0709 -0.1346
H30 H -0.0222 0.1627 -0.1894
O1 O 0.1764(3) 0.27465(14) 0.33686(16)
O2 O 0.7019(3) 0.30353(16) 0.51231(16)
O3 O 0.8141(2) 0.03354(11) 0.29168(15)
O4 O 1.1123(3) 0.05644(17) 0.2277(2)
O5 O 0.7050(3) 0.08097(13) 0.07288(15)
O6 O 0.3397(2) 0.21353(11) -0.03533(13)
O7 O 0.3657(3) 0.15879(15) -0.21654(15)
loop_
_geom_bond_atom_site_label_1
_geom_bond_atom_site_label_2
_geom_bond_site_symmetry_1
_geom_bond_site_symmetry_2
C1 C2 1_555 1_555
C2 H1 1_555 1_555
H2 C2 1_555 1_555
C3 C2 1_555 1_555
H3 C3 1_555 1_555
C4 C3 1_555 1_555
C5 C4 1_555 1_555
H4 C5 1_555 1_555
C6 C5 1_555 1_555
H5 C6 1_555 1_555
C7 C6 1_555 1_555
C8 C7 1_555 1_555
C9 C8 1_555 1_555
H6 C9 1_555 1_555
C10 C1 1_555 1_555
C11 C9 1_555 1_555
H7 C11 1_555 1_555
H8 C11 1_555 1_555
C12 C11 1_555 1_555
H9 C12 1_555 1_555
H10 C12 1_555 1_555
C13 C12 1_555 1_555
H11 C13 1_555 1_555
C14 C8 1_555 1_555
H12 C14 1_555 1_555
H13 C14 1_555 1_555
C15 C8 1_555 1_555
H14 C15 1_555 1_555
C16 C13 1_555 1_555
C17 C16 1_555 1_555
H15 C17 1_555 1_555
H16 C17 1_555 1_555
C18 C4 1_555 1_555
H17 C18 1_555 1_555
H18 C18 1_555 1_555
H19 C18 1_555 1_555
C19 C4 1_555 1_555
H20 C19 1_555 1_555
H21 C19 1_555 1_555
H22 C19 1_555 1_555
C20 C10 1_555 1_555
H23 C20 1_555 1_555
H24 C20 1_555 1_555
C21 C22 1_555 1_555
C22 H25 1_555 1_555
H26 C22 1_555 1_555
H27 C22 1_555 1_555
C23 C24 1_555 1_555
C24 H28 1_555 1_555
H29 C24 1_555 1_555
H30 C24 1_555 1_555
O1 C1 1_555 1_555
O2 C3 1_555 1_555
O3 C6 1_555 1_555
O4 C21 1_555 1_555
O5 C7 1_555 1_555
O6 C15 1_555 1_555
O7 C23 1_555 1_555
C5 C10 1_555 1_555
C9 C10 1_555 1_555
C13 C14 1_555 1_555
C15 C16 1_555 1_555
C20 O2 1_555 1_555
C21 O3 1_555 1_555
C23 O6 1_555 1_555

#END
