
#######################################################################
#
#                 Cambridge Crystallographic Data Centre
#                                CCDC 
#
#######################################################################
#
# If this CIF has been generated from an entry in the Cambridge 
# Structural Database, then it will include bibliographic, chemical, 
# crystal, experimental, refinement or atomic coordinate data resulting 
# from the CCDC's data processing and validation procedures.
#
#######################################################################

data_DEPBUW
_chemical_formula_moiety         'C18 H15 F1 N6 O1 S1'
_chemical_name_systematic        
5-Amino-6-(4-fluorophenylamino)-3-(methylthio)-1-phenyl-1H-pyrazolo(3,4-d)pyrimidin-4(5H)-one
_symmetry_cell_setting           monoclinic
_symmetry_space_group_name_H-M   'P 21/n'
_symmetry_Int_Tables_number      14
_space_group_name_Hall           '-P 2yn'
loop_
_symmetry_equiv_pos_site_id
_symmetry_equiv_pos_as_xyz
1 x,y,z
2 1/2-x,1/2+y,1/2-z
3 -x,-y,-z
4 1/2+x,1/2-y,1/2+z
_cell_length_a                   13.983(10)
_cell_length_b                   7.337(5)
_cell_length_c                   16.702(12)
_cell_angle_alpha                90
_cell_angle_beta                 98.277(12)
_cell_angle_gamma                90
_cell_volume                     1695.66
_exptl_crystal_colour            colorless
_chemical_melting_point          '278.4-280.8 deg.C'
_cell_formula_units_Z            4
loop_
_atom_site_label
_atom_site_type_symbol
_atom_site_fract_x
_atom_site_fract_y
_atom_site_fract_z
S1 S 0.47604(3) 0.99370(8) 0.63533(3)
F1 F 0.54365(11) 0.5250(2) 1.30749(7)
O1 O 0.29653(9) 0.8384(2) 0.73223(7)
N1 N 0.60664(10) 0.9692(2) 0.76945(9)
N2 N 0.60966(9) 0.9161(2) 0.84958(8)
N3 N 0.49943(9) 0.80091(19) 0.93556(8)
N4 N 0.34150(9) 0.7617(2) 0.86413(8)
N5 N 0.37509(10) 0.6849(2) 0.99806(8)
H1 H 0.3144 0.6596 0.9905
N6 N 0.24844(11) 0.6942(3) 0.87108(10)
H2 H 0.2387(18) 0.605(4) 0.8326(16)
H3 H 0.2064(18) 0.784(3) 0.8571(14)
C1 C 0.51682(12) 0.9454(2) 0.73625(10)
C2 C 0.45936(11) 0.8771(2) 0.79246(10)
C3 C 0.52140(11) 0.8601(2) 0.86417(10)
C4 C 0.40970(12) 0.7515(2) 0.93322(10)
C5 C 0.36133(12) 0.8287(2) 0.78955(10)
C6 C 0.58076(17) 1.0995(4) 0.60638(13)
H4 H 0.5989 1.2019 0.6410
H5 H 0.5668 1.1403 0.5513
H6 H 0.6329 1.0133 0.6112
C7 C 0.69685(11) 0.9403(2) 0.90315(10)
C8 C 0.76585(12) 1.0579(3) 0.88139(11)
H7 H 0.7556 1.1179 0.8318
C9 C 0.85007(13) 1.0856(3) 0.93394(12)
H8 H 0.8970 1.1638 0.9194
C10 C 0.86535(13) 0.9990(3) 1.00734(12)
H9 H 0.9219 1.0201 1.0428
C11 C 0.79721(13) 0.8812(3) 1.02845(12)
H10 H 0.8076 0.8225 1.0783
C12 C 0.71315(13) 0.8491(3) 0.97603(11)
H11 H 0.6678 0.7665 0.9898
C13 C 0.42266(12) 0.6503(2) 1.07642(10)
C14 C 0.51688(13) 0.6964(3) 1.10380(11)
H12 H 0.5534 0.7566 1.0697
C15 C 0.55758(14) 0.6534(3) 1.18198(11)
H13 H 0.6217 0.6826 1.2005
C16 C 0.50285(15) 0.5686(3) 1.23104(11)
C17 C 0.40910(16) 0.5239(3) 1.20689(12)
H14 H 0.3729 0.4670 1.2422
C18 C 0.36877(13) 0.5648(3) 1.12880(11)
H15 H 0.3046 0.5347 1.1111
loop_
_geom_bond_atom_site_label_1
_geom_bond_atom_site_label_2
_geom_bond_site_symmetry_1
_geom_bond_site_symmetry_2
S1 C1 1_555 1_555
F1 C16 1_555 1_555
O1 C5 1_555 1_555
N1 N2 1_555 1_555
N2 C3 1_555 1_555
N3 C3 1_555 1_555
N4 N6 1_555 1_555
N5 H1 1_555 1_555
N6 H2 1_555 1_555
H3 N6 1_555 1_555
C1 N1 1_555 1_555
C2 C1 1_555 1_555
C3 C2 1_555 1_555
C4 N3 1_555 1_555
C5 N4 1_555 1_555
C6 S1 1_555 1_555
H4 C6 1_555 1_555
H5 C6 1_555 1_555
H6 C6 1_555 1_555
C7 N2 1_555 1_555
C8 C7 1_555 1_555
H7 C8 1_555 1_555
C9 C8 1_555 1_555
H8 C9 1_555 1_555
C10 C9 1_555 1_555
H9 C10 1_555 1_555
C11 C10 1_555 1_555
H10 C11 1_555 1_555
C12 C7 1_555 1_555
H11 C12 1_555 1_555
C13 N5 1_555 1_555
C14 C13 1_555 1_555
H12 C14 1_555 1_555
C15 C14 1_555 1_555
H13 C15 1_555 1_555
C16 C15 1_555 1_555
C17 C16 1_555 1_555
H14 C17 1_555 1_555
C18 C13 1_555 1_555
H15 C18 1_555 1_555
N4 C4 1_555 1_555
N5 C4 1_555 1_555
C2 C5 1_555 1_555
C11 C12 1_555 1_555
C17 C18 1_555 1_555

#END
