
#######################################################################
#
#                 Cambridge Crystallographic Data Centre
#                                CCDC 
#
#######################################################################
#
# If this CIF has been generated from an entry in the Cambridge 
# Structural Database, then it will include bibliographic, chemical, 
# crystal, experimental, refinement or atomic coordinate data resulting 
# from the CCDC's data processing and validation procedures.
#
#######################################################################

data_DEPDOU
_chemical_formula_moiety         'C56 H38 N4'
_chemical_name_systematic        
2-{4-[2-(anthracen-9-yl)-4,5-diphenyl-1H-imidazol-1-yl]phenyl}-3-[4-(diphenylamino)phenyl]prop-2-enenitrile
_symmetry_cell_setting           triclinic
_symmetry_space_group_name_H-M   'P -1'
_symmetry_Int_Tables_number      2
_space_group_name_Hall           '-P 1'
loop_
_symmetry_equiv_pos_site_id
_symmetry_equiv_pos_as_xyz
1 x,y,z
2 -x,-y,-z
_cell_length_a                   13.463(2)
_cell_length_b                   13.599(2)
_cell_length_c                   14.644(2)
_cell_angle_alpha                73.288(2)
_cell_angle_beta                 68.720(2)
_cell_angle_gamma                60.714(2)
_cell_volume                     2158.9
_exptl_crystal_colour            yellow
_cell_formula_units_Z            2
loop_
_atom_site_label
_atom_site_type_symbol
_atom_site_fract_x
_atom_site_fract_y
_atom_site_fract_z
N1 N 1.1621(4) 0.2481(4) 0.6100(3)
N2 N 1.2198(5) 0.2248(4) 0.4521(3)
N3 N 1.0899(7) 0.1633(6) 1.1327(5)
N4 N 0.5170(5) 0.2072(6) 0.9101(5)
C1 C 1.1861(5) 0.1781(5) 0.5437(4)
C2 C 1.1163(5) 0.2295(5) 0.7148(4)
C3 C 1.1666(6) 0.0765(5) 0.5758(4)
C4 C 1.2566(6) -0.0302(5) 0.5960(4)
C5 C 1.2163(5) 0.3266(5) 0.4584(4)
C6 C 1.0511(6) 0.0879(5) 0.5897(4)
C7 C 1.0013(5) 0.3010(5) 0.7573(4)
H1 H 0.9553 0.3602 0.7182
C8 C 1.1844(6) 0.1424(6) 0.7724(5)
H2 H 1.2620 0.0952 0.7430
C9 C 1.1583(5) 0.4321(5) 0.6085(4)
C10 C 1.1802(5) 0.3419(5) 0.5552(4)
C11 C 1.0208(5) 0.1948(5) 0.9168(4)
C12 C 1.2519(5) 0.3954(5) 0.3673(4)
C13 C 1.1392(6) 0.1241(6) 0.8736(4)
H3 H 1.1862 0.0659 0.9126
C14 C 1.0303(6) -0.0117(6) 0.6244(4)
C15 C 1.2321(6) -0.1292(6) 0.6297(5)
C16 C 0.9547(6) 0.2835(5) 0.8595(5)
H4 H 0.8781 0.3327 0.8888
C17 C 0.9685(6) 0.1721(5) 1.0260(4)
C18 C 1.1191(7) -0.1144(6) 0.6434(5)
H5 H 1.1029 -0.1776 0.6668
C19 C 1.2664(6) 0.4904(6) 0.3666(5)
H6 H 1.2532 0.5116 0.4264
C20 C 0.8108(6) 0.1396(6) 0.9331(5)
H7 H 0.8893 0.1114 0.8962
C21 C 0.8673(6) 0.1675(6) 1.0691(5)
H8 H 0.8452 0.1613 1.1377
C22 C 0.7818(6) 0.1707(6) 1.0257(5)
C23 C 0.9561(7) 0.1929(6) 0.5707(5)
H9 H 0.9676 0.2588 0.5514
C24 C 1.4587(7) -0.1507(7) 0.6064(7)
H10 H 1.5335 -0.1579 0.5988
C25 C 1.3731(6) -0.0468(6) 0.5836(5)
H11 H 1.3914 0.0151 0.5593
C26 C 0.9133(7) 0.0010(7) 0.6374(5)
H12 H 0.8970 -0.0622 0.6628
C27 C 1.0369(6) 0.1645(6) 1.0870(5)
C28 C 1.2722(7) 0.3644(7) 0.2765(5)
H13 H 1.2641 0.3010 0.2743
C29 C 0.8515(7) 0.2003(7) 0.5797(6)
H14 H 0.7927 0.2707 0.5634
C30 C 0.7255(6) 0.1498(6) 0.8950(5)
H15 H 0.7471 0.1293 0.8329
C31 C 0.6081(7) 0.1904(6) 0.9490(5)
C32 C 0.8259(8) 0.1033(8) 0.6135(6)
H16 H 0.7519 0.1099 0.6190
C33 C 1.3199(6) 0.5234(7) 0.1878(5)
H17 H 1.3427 0.5651 0.1285
C34 C 0.6632(7) 0.2072(7) 1.0794(5)
H18 H 0.6408 0.2259 1.1424
C35 C 1.0613(7) 0.5363(6) 0.6066(6)
H19 H 1.0136 0.5550 0.5658
C36 C 1.3249(7) -0.2366(7) 0.6528(6)
H20 H 1.3099 -0.3006 0.6762
C37 C 0.4066(7) 0.3032(6) 0.9299(5)
C38 C 0.5794(7) 0.2161(7) 1.0423(6)
H21 H 0.5015 0.2399 1.0806
C39 C 1.3002(7) 0.5545(6) 0.2786(5)
H22 H 1.3096 0.6174 0.2799
C40 C 1.4358(10) -0.2475(8) 0.6411(7)
H23 H 1.4951 -0.3182 0.6560
C41 C 1.3052(7) 0.4316(7) 0.1882(5)
H24 H 1.3174 0.4119 0.1280
C42 C 0.5386(7) 0.1342(7) 0.8446(6)
C43 C 0.3974(8) 0.4106(7) 0.9119(6)
H25 H 0.4656 0.4222 0.8853
C44 C 1.0365(8) 0.6118(7) 0.6658(7)
H26 H 0.9692 0.6806 0.6668
C45 C 1.2293(8) 0.4082(7) 0.6670(6)
H27 H 1.2935 0.3372 0.6687
C46 C 0.2902(9) 0.5016(7) 0.9321(6)
H28 H 0.2872 0.5740 0.9193
C47 C 1.1079(10) 0.5889(8) 0.7235(6)
H29 H 1.0899 0.6415 0.7628
C48 C 0.1859(11) 0.4899(10) 0.9708(8)
H30 H 0.1125 0.5521 0.9830
C49 C 0.4944(8) 0.1765(8) 0.7649(6)
H31 H 0.4472 0.2539 0.7521
C50 C 0.3006(8) 0.2920(7) 0.9686(7)
H32 H 0.3039 0.2198 0.9791
C51 C 1.2105(10) 0.4827(8) 0.7221(7)
H33 H 1.2627 0.4655 0.7581
C52 C 0.6136(9) 0.0165(8) 0.8616(7)
H34 H 0.6447 -0.0136 0.9160
C53 C 0.5212(9) 0.1012(9) 0.7020(7)
H35 H 0.4883 0.1305 0.6486
C54 C 0.5873(9) -0.0041(11) 0.7135(9)
H36 H 0.6016 -0.0495 0.6691
C55 C 0.6396(10) -0.0534(9) 0.7930(9)
H37 H 0.6902 -0.1306 0.8003
C56 C 0.1984(8) 0.3770(10) 0.9906(8)
H38 H 0.1316 0.3635 1.0202
loop_
_geom_bond_atom_site_label_1
_geom_bond_atom_site_label_2
_geom_bond_site_symmetry_1
_geom_bond_site_symmetry_2
N1 C1 1_555 1_555
N2 C1 1_555 1_555
N3 C27 1_555 1_555
N4 C31 1_555 1_555
C1 C3 1_555 1_555
C2 N1 1_555 1_555
C3 C4 1_555 1_555
C4 C15 1_555 1_555
C5 N2 1_555 1_555
C6 C3 1_555 1_555
C7 C2 1_555 1_555
H1 C7 1_555 1_555
C8 C2 1_555 1_555
H2 C8 1_555 1_555
C9 C10 1_555 1_555
C10 N1 1_555 1_555
C11 C13 1_555 1_555
C12 C5 1_555 1_555
C13 C8 1_555 1_555
H3 C13 1_555 1_555
C14 C6 1_555 1_555
C15 C18 1_555 1_555
C16 C7 1_555 1_555
H4 C16 1_555 1_555
C17 C11 1_555 1_555
C18 C14 1_555 1_555
H5 C18 1_555 1_555
C19 C12 1_555 1_555
H6 C19 1_555 1_555
C20 H7 1_555 1_555
C21 C17 1_555 1_555
H8 C21 1_555 1_555
C22 C20 1_555 1_555
C23 C6 1_555 1_555
H9 C23 1_555 1_555
C24 H10 1_555 1_555
C25 C4 1_555 1_555
H11 C25 1_555 1_555
C26 C14 1_555 1_555
H12 C26 1_555 1_555
C27 C17 1_555 1_555
C28 C12 1_555 1_555
H13 C28 1_555 1_555
C29 C23 1_555 1_555
H14 C29 1_555 1_555
C30 C20 1_555 1_555
H15 C30 1_555 1_555
C31 C30 1_555 1_555
C32 C26 1_555 1_555
H16 C32 1_555 1_555
C33 H17 1_555 1_555
C34 C22 1_555 1_555
H18 C34 1_555 1_555
C35 C9 1_555 1_555
H19 C35 1_555 1_555
C36 C15 1_555 1_555
H20 C36 1_555 1_555
C37 N4 1_555 1_555
C38 C31 1_555 1_555
H21 C38 1_555 1_555
C39 C19 1_555 1_555
H22 C39 1_555 1_555
C40 C24 1_555 1_555
H23 C40 1_555 1_555
C41 C28 1_555 1_555
H24 C41 1_555 1_555
C42 N4 1_555 1_555
C43 C37 1_555 1_555
H25 C43 1_555 1_555
C44 C35 1_555 1_555
H26 C44 1_555 1_555
C45 C9 1_555 1_555
H27 C45 1_555 1_555
C46 C43 1_555 1_555
H28 C46 1_555 1_555
C47 C44 1_555 1_555
H29 C47 1_555 1_555
C48 C46 1_555 1_555
H30 C48 1_555 1_555
C49 C42 1_555 1_555
H31 C49 1_555 1_555
C50 C37 1_555 1_555
H32 C50 1_555 1_555
C51 C45 1_555 1_555
H33 C51 1_555 1_555
C52 C42 1_555 1_555
H34 C52 1_555 1_555
C53 C49 1_555 1_555
H35 C53 1_555 1_555
C54 C53 1_555 1_555
H36 C54 1_555 1_555
C55 C52 1_555 1_555
H37 C55 1_555 1_555
C56 C48 1_555 1_555
H38 C56 1_555 1_555
C5 C10 1_555 1_555
C11 C16 1_555 1_555
C21 C22 1_555 1_555
C24 C25 1_555 1_555
C29 C32 1_555 1_555
C33 C39 1_555 1_555
C33 C41 1_555 1_555
C34 C38 1_555 1_555
C36 C40 1_555 1_555
C47 C51 1_555 1_555
C50 C56 1_555 1_555
C54 C55 1_555 1_555

#END
