
#######################################################################
#
#                 Cambridge Crystallographic Data Centre
#                                CCDC 
#
#######################################################################
#
# If this CIF has been generated from an entry in the Cambridge 
# Structural Database, then it will include bibliographic, chemical, 
# crystal, experimental, refinement or atomic coordinate data resulting 
# from the CCDC's data processing and validation procedures.
#
#######################################################################

data_DEPGIR
_chemical_formula_moiety         'C19 H14 Br1 N1 O2'
_chemical_name_systematic        
cis-4-(4-bromophenyl)-5-(quinolin-4-yl)oxolan-2-one
_symmetry_cell_setting           orthorhombic
_symmetry_space_group_name_H-M   'P 21 21 21'
_symmetry_Int_Tables_number      19
_space_group_name_Hall           'P 2ac 2ab'
loop_
_symmetry_equiv_pos_site_id
_symmetry_equiv_pos_as_xyz
1 x,y,z
2 1/2+x,1/2-y,-z
3 -x,1/2+y,1/2-z
4 1/2-x,-y,1/2+z
_cell_length_a                   13.4117(10)
_cell_length_b                   16.6875(12)
_cell_length_c                   21.0576(15)
_cell_angle_alpha                90
_cell_angle_beta                 90
_cell_angle_gamma                90
_cell_volume                     4712.85
_exptl_crystal_colour            colorless
_exptl_crystal_description       block
_cell_formula_units_Z            12
loop_
_atom_site_label
_atom_site_type_symbol
_atom_site_fract_x
_atom_site_fract_y
_atom_site_fract_z
Br1 Br -0.23329(3) -0.78537(2) -0.51878(2)
O1 O 0.1754(2) -0.5760(2) -0.24395(14)
O2 O 0.0772(2) -0.51047(17) -0.31037(13)
N1 N -0.2289(3) -0.4260(2) -0.42982(17)
C1 C -0.1509(3) -0.4132(2) -0.4695(2)
C2 C -0.1703(3) -0.3742(3) -0.5276(2)
H1 H -0.2363 -0.3577 -0.5374
C3 C -0.0952(4) -0.3599(3) -0.5700(2)
H2 H -0.1090 -0.3327 -0.6086
C4 C 0.0015(3) -0.3851(3) -0.5566(2)
H3 H 0.0529 -0.3768 -0.5869
C5 C 0.0233(3) -0.4216(2) -0.50050(18)
H4 H 0.0900 -0.4372 -0.4918
C6 C -0.0521(3) -0.4366(2) -0.45483(19)
C7 C -0.0348(3) -0.4741(2) -0.39534(19)
C8 C -0.1142(3) -0.4858(2) -0.3561(2)
H5 H -0.1049 -0.5104 -0.3158
C9 C -0.2094(3) -0.4615(2) -0.3752(2)
H6 H -0.2634 -0.4712 -0.3471
C10 C 0.0688(3) -0.4993(2) -0.37875(18)
H7 H 0.1153 -0.4553 -0.3915
C11 C 0.1072(3) -0.5794(2) -0.40886(18)
H8 H 0.1526 -0.5652 -0.4448
C12 C 0.1712(3) -0.6136(2) -0.35525(18)
H9 H 0.1575 -0.6715 -0.3496
H10 H 0.2429 -0.6066 -0.3649
C13 C 0.1436(3) -0.5681(3) -0.2965(2)
C14 C 0.0263(3) -0.6327(2) -0.43466(17)
C15 C -0.0307(3) -0.6820(2) -0.39617(18)
H11 H -0.0168 -0.6843 -0.3520
C16 C -0.1076(3) -0.7280(2) -0.42059(19)
H12 H -0.1461 -0.7616 -0.3937
C17 C -0.1272(2) -0.7240(2) -0.48536(19)
C18 C -0.0713(3) -0.6763(2) -0.52510(19)
H13 H -0.0856 -0.6738 -0.5692
C19 C 0.0061(3) -0.6319(2) -0.49941(16)
H14 H 0.0464 -0.6001 -0.5267
Br2 Br -0.20202(3) -0.79592(3) -0.11253(2)
O3 O 0.1975(2) -0.52807(16) 0.07286(12)
O4 O 0.08673(18) -0.46811(15) 0.01022(12)
N2 N -0.2289(3) -0.3922(2) -0.10294(17)
C20 C -0.1527(3) -0.3763(3) -0.14387(19)
C21 C -0.1772(4) -0.3382(3) -0.2022(2)
H15 H -0.2446 -0.3249 -0.2111
C22 C -0.1055(4) -0.3208(3) -0.2449(2)
H16 H -0.1228 -0.2947 -0.2834
C23 C -0.0058(3) -0.3407(3) -0.2332(2)
H17 H 0.0439 -0.3288 -0.2639
C24 C 0.0198(3) -0.3770(2) -0.17766(19)
H18 H 0.0876 -0.3901 -0.1698
C25 C -0.0531(3) -0.3956(2) -0.13147(18)
C26 C -0.0304(3) -0.4334(2) -0.07226(18)
C27 C -0.1070(3) -0.4490(2) -0.0319(2)
H19 H -0.0946 -0.4742 0.0078
C28 C -0.2046(3) -0.4276(2) -0.0493(2)
H20 H -0.2568 -0.4396 -0.0203
C29 C 0.0751(3) -0.4546(2) -0.05803(16)
H21 H 0.1183 -0.4083 -0.0705
C30 C 0.1184(3) -0.5315(2) -0.08848(18)
H22 H 0.1457 -0.5187 -0.1315
C31 C 0.2047(3) -0.5473(2) -0.04218(17)
H23 H 0.2196 -0.6053 -0.0393
H24 H 0.2658 -0.5185 -0.0555
C32 C 0.1664(3) -0.5157(2) 0.02001(19)
C33 C 0.0435(3) -0.5985(2) -0.09360(18)
C34 C -0.0178(3) -0.6025(2) -0.14705(18)
H25 H -0.0088 -0.5643 -0.1800
C35 C -0.0905(3) -0.6596(2) -0.15349(19)
H26 H -0.1320 -0.6608 -0.1901
C36 C -0.1022(3) -0.7152(2) -0.10577(19)
C37 C -0.0428(3) -0.7142(3) -0.05215(19)
H27 H -0.0514 -0.7531 -0.0197
C38 C 0.0293(3) -0.6556(2) -0.04663(19)
H28 H 0.0702 -0.6544 -0.0098
Br3 Br -0.72392(4) -0.71365(3) -0.14102(3)
O5 O -0.2859(2) -0.88201(17) -0.37812(13)
O6 O -0.3913(2) -0.96769(18) -0.33247(12)
N3 N -0.7129(2) -1.0867(2) -0.25720(16)
C39 C -0.6428(3) -1.1077(3) -0.21317(18)
C40 C -0.6732(3) -1.1604(3) -0.16424(19)
H29 H -0.7395 -1.1803 -0.1639
C41 C -0.6087(3) -1.1827(3) -0.1179(2)
H30 H -0.6302 -1.2184 -0.0855
C42 C -0.5115(3) -1.1537(2) -0.1174(2)
H31 H -0.4672 -1.1691 -0.0844
C43 C -0.4794(3) -1.1034(2) -0.16413(19)
H32 H -0.4126 -1.0846 -0.1634
C44 C -0.5439(3) -1.0786(2) -0.21369(17)
C45 C -0.5155(3) -1.0269(2) -0.26441(18)
C46 C -0.5872(3) -1.0061(2) -0.30729(19)
H33 H -0.5713 -0.9705 -0.3410
C47 C -0.6839(3) -1.0369(3) -0.3020(2)
H34 H -0.7318 -1.0208 -0.3327
C48 C -0.4097(3) -0.9988(2) -0.26905(18)
H35 H -0.3652 -1.0461 -0.2624
C49 C -0.3751(3) -0.9314(2) -0.22347(19)
H36 H -0.3451 -0.9561 -0.1846
C50 C -0.2926(3) -0.8925(3) -0.26294(18)
H37 H -0.2904 -0.8340 -0.2555
H38 H -0.2268 -0.9158 -0.2522
C51 C -0.3197(3) -0.9105(3) -0.3308(2)
C52 C -0.4578(3) -0.8750(2) -0.20388(18)
C53 C -0.5028(3) -0.8847(3) -0.14503(18)
H39 H -0.4794 -0.9254 -0.1172
C54 C -0.5809(3) -0.8365(3) -0.1260(2)
H40 H -0.6111 -0.8438 -0.0856
C55 C -0.6140(3) -0.7785(3) -0.1659(2)
C56 C -0.5720(3) -0.7660(3) -0.2246(2)
H41 H -0.5962 -0.7251 -0.2519
C57 C -0.4932(3) -0.8148(3) -0.2429(2)
H42 H -0.4629 -0.8065 -0.2832
loop_
_geom_bond_atom_site_label_1
_geom_bond_atom_site_label_2
_geom_bond_site_symmetry_1
_geom_bond_site_symmetry_2
Br1 C17 1_555 1_555
O1 C13 1_555 1_555
O2 C10 1_555 1_555
N1 C1 1_555 1_555
C1 C2 1_555 1_555
C2 H1 1_555 1_555
C3 C2 1_555 1_555
H2 C3 1_555 1_555
C4 C3 1_555 1_555
H3 C4 1_555 1_555
C5 C4 1_555 1_555
H4 C5 1_555 1_555
C6 C1 1_555 1_555
C7 C6 1_555 1_555
C8 C7 1_555 1_555
H5 C8 1_555 1_555
C9 N1 1_555 1_555
H6 C9 1_555 1_555
C10 C7 1_555 1_555
H7 C10 1_555 1_555
C11 C10 1_555 1_555
H8 C11 1_555 1_555
C12 C11 1_555 1_555
H9 C12 1_555 1_555
H10 C12 1_555 1_555
C13 O2 1_555 1_555
C14 C11 1_555 1_555
C15 C14 1_555 1_555
H11 C15 1_555 1_555
C16 C15 1_555 1_555
H12 C16 1_555 1_555
C17 C16 1_555 1_555
C18 C17 1_555 1_555
H13 C18 1_555 1_555
C19 C14 1_555 1_555
H14 C19 1_555 1_555
Br2 C36 1_555 1_555
O3 C32 1_555 1_555
O4 C29 1_555 1_555
N2 C20 1_555 1_555
C20 C21 1_555 1_555
C21 H15 1_555 1_555
C22 C21 1_555 1_555
H16 C22 1_555 1_555
C23 C22 1_555 1_555
H17 C23 1_555 1_555
C24 C23 1_555 1_555
H18 C24 1_555 1_555
C25 C20 1_555 1_555
C26 C25 1_555 1_555
C27 C26 1_555 1_555
H19 C27 1_555 1_555
C28 N2 1_555 1_555
H20 C28 1_555 1_555
C29 C26 1_555 1_555
H21 C29 1_555 1_555
C30 C29 1_555 1_555
H22 C30 1_555 1_555
C31 C30 1_555 1_555
H23 C31 1_555 1_555
H24 C31 1_555 1_555
C32 O4 1_555 1_555
C33 C30 1_555 1_555
C34 C33 1_555 1_555
H25 C34 1_555 1_555
C35 C34 1_555 1_555
H26 C35 1_555 1_555
C36 C35 1_555 1_555
C37 C36 1_555 1_555
H27 C37 1_555 1_555
C38 C33 1_555 1_555
H28 C38 1_555 1_555
Br3 C55 1_555 1_555
O5 C51 1_555 1_555
O6 C48 1_555 1_555
N3 C39 1_555 1_555
C39 C40 1_555 1_555
C40 H29 1_555 1_555
C41 C40 1_555 1_555
H30 C41 1_555 1_555
C42 C41 1_555 1_555
H31 C42 1_555 1_555
C43 C42 1_555 1_555
H32 C43 1_555 1_555
C44 C39 1_555 1_555
C45 C44 1_555 1_555
C46 C45 1_555 1_555
H33 C46 1_555 1_555
C47 N3 1_555 1_555
H34 C47 1_555 1_555
C48 C45 1_555 1_555
H35 C48 1_555 1_555
C49 C48 1_555 1_555
H36 C49 1_555 1_555
C50 C49 1_555 1_555
H37 C50 1_555 1_555
H38 C50 1_555 1_555
C51 O6 1_555 1_555
C52 C49 1_555 1_555
C53 C52 1_555 1_555
H39 C53 1_555 1_555
C54 C53 1_555 1_555
H40 C54 1_555 1_555
C55 C54 1_555 1_555
C56 C55 1_555 1_555
H41 C56 1_555 1_555
C57 C52 1_555 1_555
H42 C57 1_555 1_555
C5 C6 1_555 1_555
C8 C9 1_555 1_555
C12 C13 1_555 1_555
C18 C19 1_555 1_555
C24 C25 1_555 1_555
C27 C28 1_555 1_555
C31 C32 1_555 1_555
C37 C38 1_555 1_555
C43 C44 1_555 1_555
C46 C47 1_555 1_555
C50 C51 1_555 1_555
C56 C57 1_555 1_555

#END
