
#######################################################################
#
#                 Cambridge Crystallographic Data Centre
#                                CCDC 
#
#######################################################################
#
# If this CIF has been generated from an entry in the Cambridge 
# Structural Database, then it will include bibliographic, chemical, 
# crystal, experimental, refinement or atomic coordinate data resulting 
# from the CCDC's data processing and validation procedures.
#
#######################################################################

data_DEPJUG
_chemical_formula_moiety         'C19 H15 N1 O2 S1'
_chemical_name_systematic        
'methyl 2-phenyl-4H-pyrrolo[2,1-c][1,4]benzothiazine-3-carboxylate'
_symmetry_cell_setting           triclinic
_symmetry_space_group_name_H-M   'P -1'
_symmetry_Int_Tables_number      2
_space_group_name_Hall           '-P 1'
loop_
_symmetry_equiv_pos_site_id
_symmetry_equiv_pos_as_xyz
1 x,y,z
2 -x,-y,-z
_cell_length_a                   8.2418(15)
_cell_length_b                   8.2580(16)
_cell_length_c                   11.351(2)
_cell_angle_alpha                94.706(6)
_cell_angle_beta                 91.245(6)
_cell_angle_gamma                93.483(6)
_cell_volume                     768.254
_exptl_crystal_colour            colorless
_exptl_crystal_description       block
_cell_formula_units_Z            2
loop_
_atom_site_label
_atom_site_type_symbol
_atom_site_fract_x
_atom_site_fract_y
_atom_site_fract_z
C1 C 0.7124(2) 0.40264(18) 1.17834(12)
C2 C 0.5567(2) 0.4547(2) 1.16445(14)
H1 H 0.5012 0.4337 1.0921
C3 C 0.4838(2) 0.5378(2) 1.25762(15)
H2 H 0.3792 0.5719 1.2478
C4 C 0.5653(2) 0.5702(2) 1.36514(16)
H3 H 0.5161 0.6267 1.4275
C5 C 0.7197(2) 0.5187(2) 1.38003(15)
H4 H 0.7741 0.5410 1.4527
C6 C 0.7955(2) 0.4339(2) 1.28793(13)
C7 C 1.0685(2) 0.3821(2) 1.16737(13)
H5 H 1.0891 0.4969 1.1570
H6 H 1.1711 0.3307 1.1611
C8 C 0.95354(19) 0.30741(18) 1.07246(13)
C9 C 0.98245(19) 0.22538(18) 0.96529(13)
C10 C 1.1450(2) 0.18709(19) 0.92704(13)
C11 C 1.2936(2) 0.0373(3) 0.78607(18)
H7 H 1.3497 0.1332 0.7608
H8 H 1.2762 -0.0425 0.7199
H9 H 1.3580 -0.0062 0.8461
C12 C 0.7120(2) 0.24172(19) 0.98112(12)
H10 H 0.6003 0.2319 0.9663
C13 C 0.82662(19) 0.18295(18) 0.90672(13)
C14 C 0.79015(19) 0.10054(19) 0.78713(13)
C15 C 0.6851(2) -0.0371(2) 0.77216(14)
H11 H 0.6412 -0.0814 0.8380
C16 C 0.6446(2) -0.1099(2) 0.65999(16)
H12 H 0.5735 -0.2022 0.6511
C17 C 0.7091(3) -0.0461(2) 0.56232(16)
H13 H 0.6811 -0.0946 0.4872
C18 C 0.8156(3) 0.0903(3) 0.57527(15)
H14 H 0.8600 0.1330 0.5090
C19 C 0.8559(2) 0.1630(2) 0.68675(15)
H15 H 0.9278 0.2547 0.6951
N1 N 0.78900(16) 0.31837(16) 1.08232(10)
O1 O 1.27147(15) 0.24436(17) 0.97394(11)
O2 O 1.13972(15) 0.07845(16) 0.83320(11)
S1 S 0.98814(6) 0.35959(6) 1.31232(4)
loop_
_geom_bond_atom_site_label_1
_geom_bond_atom_site_label_2
_geom_bond_site_symmetry_1
_geom_bond_site_symmetry_2
C1 C2 1_555 1_555
C2 H1 1_555 1_555
C3 C2 1_555 1_555
H2 C3 1_555 1_555
C4 C3 1_555 1_555
H3 C4 1_555 1_555
C5 C4 1_555 1_555
H4 C5 1_555 1_555
C6 C1 1_555 1_555
C7 H5 1_555 1_555
H6 C7 1_555 1_555
C8 C7 1_555 1_555
C9 C8 1_555 1_555
C10 C9 1_555 1_555
C11 H7 1_555 1_555
H8 C11 1_555 1_555
H9 C11 1_555 1_555
C12 H10 1_555 1_555
C13 C9 1_555 1_555
C14 C13 1_555 1_555
C15 C14 1_555 1_555
H11 C15 1_555 1_555
C16 C15 1_555 1_555
H12 C16 1_555 1_555
C17 C16 1_555 1_555
H13 C17 1_555 1_555
C18 C17 1_555 1_555
H14 C18 1_555 1_555
C19 C14 1_555 1_555
H15 C19 1_555 1_555
N1 C1 1_555 1_555
O1 C10 1_555 1_555
O2 C10 1_555 1_555
S1 C6 1_555 1_555
C5 C6 1_555 1_555
C7 S1 1_555 1_555
C8 N1 1_555 1_555
C11 O2 1_555 1_555
C12 C13 1_555 1_555
C12 N1 1_555 1_555
C18 C19 1_555 1_555

#END
