
#######################################################################
#
#                 Cambridge Crystallographic Data Centre
#                                CCDC 
#
#######################################################################
#
# If this CIF has been generated from an entry in the Cambridge 
# Structural Database, then it will include bibliographic, chemical, 
# crystal, experimental, refinement or atomic coordinate data resulting 
# from the CCDC's data processing and validation procedures.
#
#######################################################################

data_DEPKOB
_chemical_formula_moiety         'C26 H17 Br1 Cl1 N1 O3 S1'
_chemical_name_systematic        
"methyl 6-(4-bromophenyl)-2-chloro-6,13-dihydro[1]benzopyrano[4',3':4,5]pyrrolo[2,1-c][1,4]benzothiazine-14-carboxylate"
_symmetry_cell_setting           triclinic
_symmetry_space_group_name_H-M   'P -1'
_symmetry_Int_Tables_number      2
_space_group_name_Hall           '-P 1'
loop_
_symmetry_equiv_pos_site_id
_symmetry_equiv_pos_as_xyz
1 x,y,z
2 -x,-y,-z
_cell_length_a                   9.5282(7)
_cell_length_b                   10.3385(8)
_cell_length_c                   12.3376(9)
_cell_angle_alpha                107.603(2)
_cell_angle_beta                 95.540(2)
_cell_angle_gamma                103.470(2)
_cell_volume                     1108.14
_exptl_crystal_colour            colorless
_exptl_crystal_description       block
_cell_formula_units_Z            2
loop_
_atom_site_label
_atom_site_type_symbol
_atom_site_fract_x
_atom_site_fract_y
_atom_site_fract_z
Br1 Br 0.16676(18) -0.15890(14) 0.55496(19)
C1 C 0.51805(19) 0.41137(18) 0.28266(14)
C2 C 0.5615(2) 0.3781(2) 0.37914(16)
H1 H 0.5126 0.2933 0.3869
C3 C 0.6777(3) 0.4712(2) 0.46370(18)
H2 H 0.7088 0.4474 0.5271
C4 C 0.7477(3) 0.5993(2) 0.4543(2)
H3 H 0.8276 0.6604 0.5102
C5 C 0.6995(2) 0.6367(2) 0.36261(19)
H4 H 0.7439 0.7250 0.3588
C6 C 0.5849(2) 0.54341(18) 0.27536(16)
C7 C 0.3389(2) 0.50007(18) 0.13198(17)
H5 H 0.2966 0.5398 0.1984
H6 H 0.2875 0.5110 0.0650
C8 C 0.32249(18) 0.34775(17) 0.11264(15)
C9 C 0.23959(18) 0.22676(17) 0.02628(15)
C10 C 0.1377(2) 0.22117(19) -0.07348(16)
C11 C -0.0209(2) 0.3336(2) -0.1429(2)
H7 H 0.0172 0.3176 -0.2136
H8 H -0.0434 0.4228 -0.1226
H9 H -0.1085 0.2596 -0.1532
C12 C 0.33812(18) -0.11270(17) 0.01919(14)
C13 C 0.3232(2) -0.25366(18) -0.04073(16)
H10 H 0.3914 -0.2972 -0.0200
C14 C 0.2075(2) -0.32937(19) -0.13090(17)
H11 H 0.1976 -0.4235 -0.1724
C15 C 0.1067(2) -0.26206(19) -0.15819(16)
C16 C 0.1195(2) -0.12160(18) -0.09986(15)
H12 H 0.0491 -0.0797 -0.1197
C17 C 0.23913(19) -0.04296(17) -0.01078(14)
C18 C 0.27662(18) 0.10995(17) 0.05058(14)
C19 C 0.37869(18) 0.16455(16) 0.14982(14)
C20 C 0.45171(19) 0.07490(17) 0.19747(14)
H13 H 0.5515 0.1315 0.2366
C21 C 0.37498(19) 0.01742(17) 0.28294(14)
C22 C 0.4302(2) -0.0769(2) 0.32238(17)
H14 H 0.5111 -0.1030 0.2960
C23 C 0.3658(3) -0.1320(2) 0.40045(19)
H15 H 0.4021 -0.1959 0.4258
C24 C 0.2476(2) -0.0913(2) 0.44008(17)
C25 C 0.1895(2) -0.0002(2) 0.40126(19)
H16 H 0.1084 0.0253 0.4277
C26 C 0.2539(2) 0.0531(2) 0.32187(17)
H17 H 0.2146 0.1140 0.2945
Cl1 Cl -0.04006(6) -0.35709(6) -0.27291(5)
N1 N 0.40776(15) 0.31102(14) 0.18922(12)
O1 O 0.1039(2) 0.12850(17) -0.16497(14)
O2 O 0.08667(15) 0.33499(14) -0.05224(12)
O3 O 0.46200(13) -0.04260(12) 0.10209(10)
S1 S 0.53202(5) 0.59212(5) 0.15660(4)
Br2? Br 0.1325(11) -0.1845(10) 0.5179(11)
loop_
_geom_bond_atom_site_label_1
_geom_bond_atom_site_label_2
_geom_bond_site_symmetry_1
_geom_bond_site_symmetry_2
Br1 C24 1_555 1_555
C1 C2 1_555 1_555
C2 H1 1_555 1_555
C3 C2 1_555 1_555
H2 C3 1_555 1_555
C4 C3 1_555 1_555
H3 C4 1_555 1_555
C5 C4 1_555 1_555
H4 C5 1_555 1_555
C6 C1 1_555 1_555
C7 H5 1_555 1_555
H6 C7 1_555 1_555
C8 C7 1_555 1_555
C9 C8 1_555 1_555
C10 C9 1_555 1_555
C11 H7 1_555 1_555
H8 C11 1_555 1_555
H9 C11 1_555 1_555
C12 C13 1_555 1_555
C13 H10 1_555 1_555
C14 C13 1_555 1_555
H11 C14 1_555 1_555
C15 C14 1_555 1_555
C16 C15 1_555 1_555
H12 C16 1_555 1_555
C17 C12 1_555 1_555
C18 C9 1_555 1_555
C19 C18 1_555 1_555
C20 C19 1_555 1_555
H13 C20 1_555 1_555
C21 C20 1_555 1_555
C22 C21 1_555 1_555
H14 C22 1_555 1_555
C23 C22 1_555 1_555
H15 C23 1_555 1_555
C24 C23 1_555 1_555
C25 C24 1_555 1_555
H16 C25 1_555 1_555
C26 C21 1_555 1_555
H17 C26 1_555 1_555
Cl1 C15 1_555 1_555
N1 C1 1_555 1_555
O1 C10 1_555 1_555
O2 C10 1_555 1_555
O3 C12 1_555 1_555
S1 C6 1_555 1_555
C5 C6 1_555 1_555
C7 S1 1_555 1_555
C8 N1 1_555 1_555
C11 O2 1_555 1_555
C16 C17 1_555 1_555
C17 C18 1_555 1_555
C19 N1 1_555 1_555
C20 O3 1_555 1_555
C25 C26 1_555 1_555

#END
