
#######################################################################
#
#                 Cambridge Crystallographic Data Centre
#                                CCDC 
#
#######################################################################
#
# If this CIF has been generated from an entry in the Cambridge 
# Structural Database, then it will include bibliographic, chemical, 
# crystal, experimental, refinement or atomic coordinate data resulting 
# from the CCDC's data processing and validation procedures.
#
#######################################################################

data_DEPPAS
_chemical_formula_moiety         'C17 H21 N1 O5'
_chemical_name_systematic        
6-hydroxy-2a,4-dimethyl-4,5,6,7,8,9,9a,10-octahydro-1H-7,12b-epoxycyclodeca[cd]indole-2,3,11(2aH)-trione
_symmetry_cell_setting           orthorhombic
_symmetry_space_group_name_H-M   'P 21 21 21'
_symmetry_Int_Tables_number      19
_space_group_name_Hall           'P 2ac 2ab'
loop_
_symmetry_equiv_pos_site_id
_symmetry_equiv_pos_as_xyz
1 x,y,z
2 1/2-x,-y,1/2+z
3 -x,1/2+y,1/2-z
4 1/2+x,1/2-y,-z
_cell_length_a                   8.1397(3)
_cell_length_b                   8.3779(3)
_cell_length_c                   22.5356(8)
_cell_angle_alpha                90
_cell_angle_beta                 90
_cell_angle_gamma                90
_cell_volume                     1536.78
_exptl_crystal_description       block
_cell_formula_units_Z            4
loop_
_atom_site_label
_atom_site_type_symbol
_atom_site_fract_x
_atom_site_fract_y
_atom_site_fract_z
O1 O 0.4992(3) 0.2683(3) 0.57746(9)
O2 O 0.4505(3) -0.0507(3) 0.57652(11)
H1 H 0.5492 -0.0549 0.5693
O3 O 0.7064(4) 0.3234(3) 0.72829(11)
O4 O 0.2935(4) 0.6300(4) 0.44866(11)
O5 O 0.9861(3) 0.3456(4) 0.59678(13)
N1 N 0.7942(4) 0.4364(4) 0.52997(13)
H2 H 0.8562 0.4387 0.4991
C1 C 0.7119(4) 0.2898(4) 0.67605(15)
C2 C 0.6312(4) 0.4764(4) 0.52884(15)
C3 C 0.8486(4) 0.3925(5) 0.58480(16)
C4 C 0.5490(5) 0.5463(4) 0.48410(15)
H3 H 0.6036 0.5741 0.4493
C5 C 0.3710(4) 0.2046(4) 0.61567(15)
H4 H 0.2706 0.1967 0.5919
C6 C 0.2965(5) 0.5439(5) 0.54881(15)
H5 H 0.2399 0.4423 0.5459
H6 H 0.2141 0.6252 0.5561
C7 C 0.5555(4) 0.4279(4) 0.58782(13)
C8 C 0.7279(4) 0.1165(4) 0.65660(15)
H7 H 0.7440 0.1131 0.6135
C9 C 0.3756(5) 0.5781(4) 0.49031(15)
C10 C 0.4248(4) 0.0349(4) 0.63088(15)
H8 H 0.3318 -0.0161 0.6510
C11 C 0.7108(4) 0.4237(4) 0.62953(14)
C12 C 0.5720(5) 0.0212(4) 0.67250(16)
H9 H 0.6020 -0.0907 0.6751
H10 H 0.5369 0.0542 0.7118
C13 C 0.3202(5) 0.4853(5) 0.65824(15)
H11 H 0.2056 0.5152 0.6544
H12 H 0.3648 0.5420 0.6921
C14 C 0.4120(5) 0.5375(4) 0.60266(15)
H13 H 0.4554 0.6451 0.6095
C15 C 0.3307(4) 0.3053(5) 0.67011(16)
H14 H 0.4142 0.2866 0.7000
H15 H 0.2265 0.2697 0.6862
C16 C 0.8788(5) 0.0432(6) 0.68713(19)
H16 H 0.9749 0.1039 0.6771
H17 H 0.8925 -0.0651 0.6740
H18 H 0.8633 0.0448 0.7294
C17 C 0.7469(5) 0.5845(5) 0.65868(18)
H19 H 0.6618 0.6091 0.6867
H20 H 0.7510 0.6661 0.6288
H21 H 0.8507 0.5794 0.6788
loop_
_geom_bond_atom_site_label_1
_geom_bond_atom_site_label_2
_geom_bond_site_symmetry_1
_geom_bond_site_symmetry_2
O1 C5 1_555 1_555
O2 H1 1_555 1_555
O3 C1 1_555 1_555
O4 C9 1_555 1_555
O5 C3 1_555 1_555
N1 H2 1_555 1_555
C1 C8 1_555 1_555
C2 N1 1_555 1_555
C3 N1 1_555 1_555
C4 C2 1_555 1_555
H3 C4 1_555 1_555
C5 H4 1_555 1_555
C6 H5 1_555 1_555
H6 C6 1_555 1_555
C7 O1 1_555 1_555
C8 H7 1_555 1_555
C9 C4 1_555 1_555
C10 O2 1_555 1_555
H8 C10 1_555 1_555
C11 C1 1_555 1_555
C12 C8 1_555 1_555
H9 C12 1_555 1_555
H10 C12 1_555 1_555
C13 H11 1_555 1_555
H12 C13 1_555 1_555
C14 C6 1_555 1_555
H13 C14 1_555 1_555
C15 C5 1_555 1_555
H14 C15 1_555 1_555
H15 C15 1_555 1_555
C16 C8 1_555 1_555
H16 C16 1_555 1_555
H17 C16 1_555 1_555
H18 C16 1_555 1_555
C17 C11 1_555 1_555
H19 C17 1_555 1_555
H20 C17 1_555 1_555
H21 C17 1_555 1_555
C2 C7 1_555 1_555
C3 C11 1_555 1_555
C5 C10 1_555 1_555
C6 C9 1_555 1_555
C7 C11 1_555 1_555
C7 C14 1_555 1_555
C10 C12 1_555 1_555
C13 C14 1_555 1_555
C13 C15 1_555 1_555

#END
