
#######################################################################
#
#                 Cambridge Crystallographic Data Centre
#                                CCDC 
#
#######################################################################
#
# If this CIF has been generated from an entry in the Cambridge 
# Structural Database, then it will include bibliographic, chemical, 
# crystal, experimental, refinement or atomic coordinate data resulting 
# from the CCDC's data processing and validation procedures.
#
#######################################################################

data_DEPPEW
_chemical_formula_moiety         'C17 H21 N1 O5'
_chemical_name_systematic        
10,15-dihydroxy-4,6-dimethyl-3,4-dihydro-2H-2,12-propano-1,8-benzoxazecine-5,7(6H,8H)-dione
_symmetry_cell_setting           monoclinic
_symmetry_space_group_name_H-M   'P 21'
_symmetry_Int_Tables_number      4
_space_group_name_Hall           'P 2yb'
loop_
_symmetry_equiv_pos_site_id
_symmetry_equiv_pos_as_xyz
1 x,y,z
2 -x,1/2+y,-z
_cell_length_a                   11.3457(9)
_cell_length_b                   10.6182(8)
_cell_length_c                   15.4645(12)
_cell_angle_alpha                90
_cell_angle_beta                 110.912(3)
_cell_angle_gamma                90
_cell_volume                     1740.3
_exptl_crystal_description       block
_cell_formula_units_Z            4
loop_
_atom_site_label
_atom_site_type_symbol
_atom_site_fract_x
_atom_site_fract_y
_atom_site_fract_z
N1 N 0.5056(11) 0.3455(10) 0.7694(7)
H1 H 0.5111 0.3282 0.8250
O1 O 0.5563(8) 0.1691(8) 0.6614(5)
O2 O 0.9056(9) 0.5483(10) 0.8119(6)
H2 H 0.8853 0.5883 0.8498
O3 O 0.3755(9) 0.4199(9) 0.6304(7)
O4 O 0.3321(10) 0.0776(12) 0.7470(7)
O5 O 0.4570(8) 0.0898(8) 0.4166(5)
H3 H 0.4852 0.0417 0.3873
C1 C 0.6140(15) 0.3549(14) 0.7470(9)
C2 C 0.6378(15) 0.2762(13) 0.6883(9)
C3 C 0.7407(15) 0.2830(13) 0.6631(8)
C4 C 0.8297(14) 0.3826(13) 0.7039(9)
H4 H 0.8987 0.3948 0.6857
C5 C 0.8119(14) 0.4582(12) 0.7688(9)
C6 C 0.7048(14) 0.4522(13) 0.7938(9)
H5 H 0.6926 0.5064 0.8371
C7 C 0.3900(14) 0.3644(14) 0.7013(10)
C8 C 0.2833(15) 0.2943(15) 0.7180(10)
H6 H 0.2981 0.2958 0.7844
C9 C 0.2960(13) 0.1601(16) 0.6897(10)
C10 C 0.2585(13) 0.1317(15) 0.5884(9)
H7 H 0.2333 0.2102 0.5534
C11 C 0.3677(13) 0.0716(14) 0.5652(8)
H8 H 0.4036 0.0048 0.6097
H9 H 0.3318 0.0323 0.5048
C12 C 0.4756(12) 0.1571(13) 0.5641(8)
H10 H 0.4419 0.2399 0.5396
C13 C 0.5479(13) 0.1047(14) 0.5090(8)
H11 H 0.5799 0.0214 0.5335
C14 C 0.6559(12) 0.1825(12) 0.5048(8)
H12 H 0.6259 0.2670 0.4846
H13 H 0.6865 0.1466 0.4591
C15 C 0.7641(12) 0.1902(13) 0.5969(8)
H14 H 0.7784 0.1075 0.6253
H15 H 0.8401 0.2146 0.5861
C16 C 0.1558(14) 0.3578(17) 0.6658(12)
H16 H 0.1493 0.3752 0.6033
H17 H 0.1500 0.4351 0.6962
H18 H 0.0885 0.3026 0.6652
C17 C 0.1453(14) 0.0395(16) 0.5583(11)
H19 H 0.1738 -0.0433 0.5813
H20 H 0.1086 0.0373 0.4920
H21 H 0.0832 0.0674 0.5831
N2 N 0.3767(11) 0.4658(10) 0.1706(7)
H22 H 0.4452 0.5009 0.2061
O6 O 0.1663(8) 0.6084(8) 0.1255(6)
O7 O 0.2267(9) 0.2105(9) 0.3682(6)
H23 H 0.2965 0.1793 0.3781
O8 O 0.2853(10) 0.3694(10) 0.0317(7)
O9 O 0.3860(10) 0.7561(9) 0.0529(7)
O10 O -0.1476(8) 0.6743(8) -0.0495(6)
H24 H -0.1962 0.7327 -0.0526
C18 C 0.2800(15) 0.4301(13) 0.2080(9)
C19 C 0.1742(16) 0.5042(14) 0.1791(9)
C20 C 0.0832(16) 0.4763(14) 0.2181(9)
C21 C 0.1051(15) 0.3752(14) 0.2807(9)
H25 H 0.0431 0.3554 0.3048
C22 C 0.2082(17) 0.3079(13) 0.3066(9)
C23 C 0.3032(15) 0.3293(13) 0.2679(9)
H26 H 0.3750 0.2794 0.2818
C24 C 0.3603(14) 0.4450(14) 0.0840(10)
C25 C 0.4196(15) 0.5371(14) 0.0372(10)
H27 H 0.5010 0.5613 0.0836
C26 C 0.3408(14) 0.6558(14) 0.0128(9)
C27 C 0.2142(15) 0.6528(15) -0.0583(9)
H28 H 0.1950 0.5642 -0.0752
C28 C 0.1136(14) 0.6994(13) -0.0216(9)
H29 H 0.1464 0.7748 0.0143
H30 H 0.0412 0.7249 -0.0746
C29 C 0.0662(13) 0.6155(13) 0.0364(8)
H31 H 0.0517 0.5312 0.0087
C30 C -0.0582(14) 0.6643(14) 0.0436(8)
H32 H -0.0442 0.7476 0.0727
C31 C -0.1124(12) 0.5760(14) 0.0976(8)
H33 H -0.1946 0.6071 0.0937
H34 H -0.1245 0.4935 0.0689
C32 C -0.0307(13) 0.5630(14) 0.1974(8)
H35 H -0.0824 0.5322 0.2311
H36 H -0.0007 0.6461 0.2214
C33 C 0.4473(16) 0.4896(17) -0.0462(11)
H37 H 0.4418 0.3994 -0.0486
H38 H 0.5307 0.5151 -0.0412
H39 H 0.3869 0.5243 -0.1017
C34 C 0.2150(15) 0.7193(17) -0.1443(9)
H40 H 0.2207 0.8086 -0.1337
H41 H 0.1386 0.7003 -0.1950
H42 H 0.2862 0.6914 -0.1589
loop_
_geom_bond_atom_site_label_1
_geom_bond_atom_site_label_2
_geom_bond_site_symmetry_1
_geom_bond_site_symmetry_2
N1 H1 1_555 1_555
O1 C2 1_555 1_555
O2 H2 1_555 1_555
O3 C7 1_555 1_555
O4 C9 1_555 1_555
O5 H3 1_555 1_555
C1 N1 1_555 1_555
C2 C1 1_555 1_555
C3 C2 1_555 1_555
C4 C3 1_555 1_555
H4 C4 1_555 1_555
C5 O2 1_555 1_555
C6 C1 1_555 1_555
H5 C6 1_555 1_555
C7 N1 1_555 1_555
C8 C7 1_555 1_555
H6 C8 1_555 1_555
C9 C8 1_555 1_555
C10 C9 1_555 1_555
H7 C10 1_555 1_555
C11 C10 1_555 1_555
H8 C11 1_555 1_555
H9 C11 1_555 1_555
C12 O1 1_555 1_555
H10 C12 1_555 1_555
C13 O5 1_555 1_555
H11 C13 1_555 1_555
C14 C13 1_555 1_555
H12 C14 1_555 1_555
H13 C14 1_555 1_555
C15 C3 1_555 1_555
H14 C15 1_555 1_555
H15 C15 1_555 1_555
C16 C8 1_555 1_555
H16 C16 1_555 1_555
H17 C16 1_555 1_555
H18 C16 1_555 1_555
C17 C10 1_555 1_555
H19 C17 1_555 1_555
H20 C17 1_555 1_555
H21 C17 1_555 1_555
N2 H22 1_555 1_555
O6 C19 1_555 1_555
O7 H23 1_555 1_555
O8 C24 1_555 1_555
O9 C26 1_555 1_555
O10 H24 1_555 1_555
C18 N2 1_555 1_555
C19 C18 1_555 1_555
C20 C19 1_555 1_555
C21 C20 1_555 1_555
H25 C21 1_555 1_555
C22 O7 1_555 1_555
C23 C18 1_555 1_555
H26 C23 1_555 1_555
C24 N2 1_555 1_555
C25 C24 1_555 1_555
H27 C25 1_555 1_555
C26 C25 1_555 1_555
C27 C26 1_555 1_555
H28 C27 1_555 1_555
C28 C27 1_555 1_555
H29 C28 1_555 1_555
H30 C28 1_555 1_555
C29 O6 1_555 1_555
H31 C29 1_555 1_555
C30 O10 1_555 1_555
H32 C30 1_555 1_555
C31 C30 1_555 1_555
H33 C31 1_555 1_555
H34 C31 1_555 1_555
C32 C20 1_555 1_555
H35 C32 1_555 1_555
H36 C32 1_555 1_555
C33 C25 1_555 1_555
H37 C33 1_555 1_555
H38 C33 1_555 1_555
H39 C33 1_555 1_555
C34 C27 1_555 1_555
H40 C34 1_555 1_555
H41 C34 1_555 1_555
H42 C34 1_555 1_555
C4 C5 1_555 1_555
C5 C6 1_555 1_555
C11 C12 1_555 1_555
C12 C13 1_555 1_555
C14 C15 1_555 1_555
C21 C22 1_555 1_555
C22 C23 1_555 1_555
C28 C29 1_555 1_555
C29 C30 1_555 1_555
C31 C32 1_555 1_555

#END
