
#######################################################################
#
#                 Cambridge Crystallographic Data Centre
#                                CCDC 
#
#######################################################################
#
# If this CIF has been generated from an entry in the Cambridge 
# Structural Database, then it will include bibliographic, chemical, 
# crystal, experimental, refinement or atomic coordinate data resulting 
# from the CCDC's data processing and validation procedures.
#
#######################################################################

data_DEPRUO
_chemical_formula_moiety         'C14 H13 Br1 N2 O1 S1'
_chemical_name_systematic        
N'-[(2-bromophenyl)methylidene]-N-methyl-2-(thiophen-2-yl)acetohydrazide
_symmetry_cell_setting           monoclinic
_symmetry_space_group_name_H-M   'P 21/c'
_symmetry_Int_Tables_number      14
_space_group_name_Hall           '-P 2ybc'
loop_
_symmetry_equiv_pos_site_id
_symmetry_equiv_pos_as_xyz
1 x,y,z
2 -x,1/2+y,1/2-z
3 -x,-y,-z
4 x,1/2-y,1/2+z
_cell_length_a                   9.4479(7)
_cell_length_b                   20.2175(14)
_cell_length_c                   7.2552(5)
_cell_angle_alpha                90
_cell_angle_beta                 96.9343(13)
_cell_angle_gamma                90
_cell_volume                     1375.7
_exptl_crystal_colour            'light brown'
_exptl_crystal_description       rod
_cell_formula_units_Z            4
loop_
_atom_site_label
_atom_site_type_symbol
_atom_site_fract_x
_atom_site_fract_y
_atom_site_fract_z
C1 C 0.09809(17) 0.30257(8) 0.1963(2)
C2 C 0.22907(18) 0.32858(8) 0.2763(2)
H1 H 0.3031 0.2991 0.3235
C3 C 0.25292(18) 0.39601(9) 0.2878(2)
H2 H 0.3425 0.4124 0.3426
C4 C 0.14614(19) 0.43993(8) 0.2194(2)
H3 H 0.1633 0.4862 0.2257
C5 C 0.01471(18) 0.41630(8) 0.1420(2)
H4 H -0.0594 0.4461 0.0973
C6 C -0.00727(17) 0.34818(9) 0.1306(2)
C7 C 0.07642(17) 0.23064(8) 0.1846(2)
H5 H -0.0121 0.2128 0.1309
C8 C 0.02550(18) 0.09658(9) 0.1503(3)
H6 H 0.0048 0.1134 0.0232
H7 H -0.0523 0.1087 0.2217
H8 H 0.0345 0.0483 0.1475
C9 C 0.26952(19) 0.08518(9) 0.3080(2)
C10 C 0.41014(18) 0.11767(9) 0.3834(3)
H9 H 0.3923 0.1624 0.4309
H10 H 0.4585 0.0911 0.4870
C11 C 0.50282(17) 0.12232(8) 0.2296(3)
C12 C 0.57818(11) 0.06159(5) 0.14775(16)
H11 H 0.5796 0.0166 0.1856
C13 C 0.6464(2) 0.09279(12) -0.0038(3)
H12 H 0.6988 0.0675 -0.0828
C14 C 0.6306(2) 0.15886(11) -0.0243(3)
H13 H 0.6708 0.1834 -0.1168
N1 N 0.17897(15) 0.19243(7) 0.2481(2)
N2 N 0.15849(15) 0.12529(7) 0.2374(2)
O1 O 0.25756(14) 0.02499(6) 0.3042(2)
S1 S 0.53516(6) 0.19288(3) 0.12608(9)
Br1 Br -0.18904(2) 0.31960(2) 0.01542(3)
S2? S 0.57818(11) 0.06159(5) 0.14775(16)
C15? C 0.53516(6) 0.19288(3) 0.12608(9)
H14? H 0.5082 0.2373 0.1464
loop_
_geom_bond_atom_site_label_1
_geom_bond_atom_site_label_2
_geom_bond_site_symmetry_1
_geom_bond_site_symmetry_2
C1 C2 1_555 1_555
C2 H1 1_555 1_555
C3 C2 1_555 1_555
H2 C3 1_555 1_555
C4 C3 1_555 1_555
H3 C4 1_555 1_555
C5 C4 1_555 1_555
H4 C5 1_555 1_555
C6 C1 1_555 1_555
C7 C1 1_555 1_555
H5 C7 1_555 1_555
C8 H6 1_555 1_555
H7 C8 1_555 1_555
H8 C8 1_555 1_555
C9 C10 1_555 1_555
C10 H9 1_555 1_555
H10 C10 1_555 1_555
C11 C10 1_555 1_555
C12 C11 1_555 1_555
H11 C12 1_555 1_555
C13 C12 1_555 1_555
H12 C13 1_555 1_555
C14 C13 1_555 1_555
H13 C14 1_555 1_555
N1 C7 1_555 1_555
N2 C8 1_555 1_555
O1 C9 1_555 1_555
S1 C11 1_555 1_555
Br1 C6 1_555 1_555
C5 C6 1_555 1_555
C9 N2 1_555 1_555
C14 S1 1_555 1_555
N1 N2 1_555 1_555

#END
