
#######################################################################
#
#                 Cambridge Crystallographic Data Centre
#                                CCDC 
#
#######################################################################
#
# If this CIF has been generated from an entry in the Cambridge 
# Structural Database, then it will include bibliographic, chemical, 
# crystal, experimental, refinement or atomic coordinate data resulting 
# from the CCDC's data processing and validation procedures.
#
#######################################################################

data_DEPRIC
_chemical_name_common            N,N-bis(p-toluenesulfonyl)benzamide
_chemical_formula_moiety         'C21 H19 N1 O5 S2'
_chemical_name_systematic        N,N-bis[(4-methylphenyl)sulfonyl]benzamide
_symmetry_cell_setting           triclinic
_symmetry_space_group_name_H-M   'P -1'
_symmetry_Int_Tables_number      2
_space_group_name_Hall           '-P 1'
loop_
_symmetry_equiv_pos_site_id
_symmetry_equiv_pos_as_xyz
1 x,y,z
2 -x,-y,-z
_cell_length_a                   8.8427(8)
_cell_length_b                   8.8573(7)
_cell_length_c                   14.3548(11)
_cell_angle_alpha                79.470(2)
_cell_angle_beta                 87.669(3)
_cell_angle_gamma                65.791(2)
_cell_volume                     1007.42
_exptl_crystal_colour            colorless
_exptl_crystal_description       block
_cell_formula_units_Z            2
loop_
_atom_site_label
_atom_site_type_symbol
_atom_site_fract_x
_atom_site_fract_y
_atom_site_fract_z
S1 S 0.25111(9) 0.11396(8) 0.32933(5)
S2 S 0.55953(9) -0.04607(9) 0.22574(6)
O1 O 0.5851(3) -0.1491(3) 0.1557(2)
O2 O 0.6336(3) -0.1162(3) 0.3181(2)
O3 O 0.3537(3) 0.1727(3) 0.37151(17)
O4 O 0.0916(3) 0.2279(3) 0.28921(17)
O5 O 0.2211(4) 0.1322(3) 0.08976(18)
N1 N 0.3537(3) 0.0293(3) 0.23752(17)
C1 C 0.2515(4) 0.0259(4) 0.1583(2)
C2 C 0.1999(3) -0.1155(3) 0.17354(19)
C3 C 0.0568(4) -0.0926(4) 0.1260(2)
H1 H -0.0050 0.0102 0.0876
C4 C 0.0057(4) -0.2223(4) 0.1357(3)
H2 H -0.0911 -0.2067 0.1044
C5 C 0.0984(5) -0.3745(4) 0.1915(3)
H3 H 0.0638 -0.4617 0.1979
C6 C 0.2431(5) -0.3996(4) 0.2387(2)
H4 H 0.3056 -0.5036 0.2758
C7 C 0.2941(4) -0.2705(4) 0.2304(2)
H5 H 0.3903 -0.2864 0.2623
C8 C 0.2303(4) -0.0533(3) 0.4064(2)
C9 C 0.0881(4) -0.0814(4) 0.3980(2)
H6 H 0.0018 -0.0074 0.3555
C10 C 0.0774(5) -0.2217(5) 0.4541(3)
H7 H -0.0175 -0.2411 0.4492
C11 C 0.2044(6) -0.3326(4) 0.5168(3)
C12 C 0.1970(7) -0.4911(5) 0.5732(3)
H8 H 0.2319 -0.5769 0.5349
H9 H 0.0852 -0.4678 0.5918
H10 H 0.2690 -0.5293 0.6287
C13 C 0.3436(5) -0.3003(4) 0.5253(2)
H11 H 0.4288 -0.3737 0.5685
C14 C 0.3585(4) -0.1607(4) 0.4707(2)
H12 H 0.4521 -0.1399 0.4772
C15 C 0.6093(3) 0.1235(3) 0.1777(2)
C16 C 0.6680(4) 0.1957(4) 0.2366(2)
H13 H 0.6710 0.1623 0.3020
C17 C 0.7222(4) 0.3178(4) 0.1975(3)
H14 H 0.7622 0.3665 0.2370
C18 C 0.7180(4) 0.3696(3) 0.0997(2)
C19 C 0.7849(5) 0.4974(4) 0.0575(3)
H15 H 0.9039 0.4463 0.0634
H16 H 0.7429 0.5905 0.0906
H17 H 0.7507 0.5367 -0.0083
C20 C 0.6539(4) 0.2990(4) 0.0419(2)
H18 H 0.6470 0.3354 -0.0234
C21 C 0.5999(4) 0.1748(4) 0.0800(2)
H19 H 0.5582 0.1270 0.0408
loop_
_geom_bond_atom_site_label_1
_geom_bond_atom_site_label_2
_geom_bond_site_symmetry_1
_geom_bond_site_symmetry_2
S1 O3 1_555 1_555
S2 O1 1_555 1_555
O2 S2 1_555 1_555
O4 S1 1_555 1_555
O5 C1 1_555 1_555
N1 S1 1_555 1_555
C1 N1 1_555 1_555
C2 C1 1_555 1_555
C3 C2 1_555 1_555
H1 C3 1_555 1_555
C4 C3 1_555 1_555
H2 C4 1_555 1_555
C5 C4 1_555 1_555
H3 C5 1_555 1_555
C6 C5 1_555 1_555
H4 C6 1_555 1_555
C7 C2 1_555 1_555
H5 C7 1_555 1_555
C8 S1 1_555 1_555
C9 C8 1_555 1_555
H6 C9 1_555 1_555
C10 C9 1_555 1_555
H7 C10 1_555 1_555
C11 C10 1_555 1_555
C12 C11 1_555 1_555
H8 C12 1_555 1_555
H9 C12 1_555 1_555
H10 C12 1_555 1_555
C13 C11 1_555 1_555
H11 C13 1_555 1_555
C14 C8 1_555 1_555
H12 C14 1_555 1_555
C15 S2 1_555 1_555
C16 C15 1_555 1_555
H13 C16 1_555 1_555
C17 C16 1_555 1_555
H14 C17 1_555 1_555
C18 C17 1_555 1_555
C19 C18 1_555 1_555
H15 C19 1_555 1_555
H16 C19 1_555 1_555
H17 C19 1_555 1_555
C20 C18 1_555 1_555
H18 C20 1_555 1_555
C21 C15 1_555 1_555
H19 C21 1_555 1_555
S2 N1 1_555 1_555
C6 C7 1_555 1_555
C13 C14 1_555 1_555
C20 C21 1_555 1_555

#END
