
#######################################################################
#
#                 Cambridge Crystallographic Data Centre
#                                CCDC 
#
#######################################################################
#
# If this CIF has been generated from an entry in the Cambridge 
# Structural Database, then it will include bibliographic, chemical, 
# crystal, experimental, refinement or atomic coordinate data resulting 
# from the CCDC's data processing and validation procedures.
#
#######################################################################

data_DEQFEN
_chemical_formula_moiety         'C21 H20 N2 O1'
_chemical_name_systematic        
1-[(4-methoxyphenyl)methyl]-3,5-dimethyl-5H-pyrido[4,3-b]indole
_symmetry_cell_setting           triclinic
_symmetry_space_group_name_H-M   'P -1'
_symmetry_Int_Tables_number      2
_space_group_name_Hall           '-P 1'
loop_
_symmetry_equiv_pos_site_id
_symmetry_equiv_pos_as_xyz
1 x,y,z
2 -x,-y,-z
_cell_length_a                   7.5703(5)
_cell_length_b                   11.2253(8)
_cell_length_c                   11.2607(8)
_cell_angle_alpha                113.159(2)
_cell_angle_beta                 96.838(3)
_cell_angle_gamma                101.414(2)
_cell_volume                     841.577
_exptl_crystal_description       BLOCK
_cell_formula_units_Z            2
loop_
_atom_site_label
_atom_site_type_symbol
_atom_site_fract_x
_atom_site_fract_y
_atom_site_fract_z
O1 O -0.2150(2) 0.35779(19) 0.57966(18)
N1 N 0.3321(2) 0.0885(2) -0.06179(17)
N2 N 0.1750(2) -0.08637(18) 0.18218(18)
C1 C 0.4405(3) 0.2157(2) 0.0298(2)
C2 C 0.5300(3) 0.3209(3) 0.0055(3)
H1 H 0.5237 0.3133 -0.0803
C3 C 0.6290(4) 0.4380(3) 0.1139(4)
H2 H 0.6899 0.5108 0.1007
C4 C 0.6395(4) 0.4493(3) 0.2414(3)
H3 H 0.7085 0.5292 0.3122
C5 C 0.5497(3) 0.3447(2) 0.2655(3)
H4 H 0.5569 0.3537 0.3518
C6 C 0.4473(3) 0.2245(2) 0.1583(2)
C7 C 0.3362(3) 0.0961(2) 0.1431(2)
C8 C 0.2684(3) 0.0172(2) 0.0057(2)
C9 C 0.2857(4) 0.0434(3) -0.2038(2)
H5 H 0.1733 0.0639 -0.2278
H6 H 0.2694 -0.0520 -0.2470
H7 H 0.3836 0.0883 -0.2307
C10 C 0.1557(3) -0.1125(2) -0.0415(2)
H8 H 0.1114 -0.1657 -0.1318
C11 C 0.1119(3) -0.1594(2) 0.0496(2)
C12 C -0.0096(3) -0.2988(2) 0.0072(3)
H9 H -0.0635 -0.3372 -0.0857
H10 H -0.1059 -0.2945 0.0559
H11 H 0.0628 -0.3537 0.0244
C13 C 0.2848(3) 0.0398(2) 0.2280(2)
C14 C 0.3421(3) 0.1158(2) 0.3764(2)
H12 H 0.4579 0.1836 0.3996
H13 H 0.3624 0.0542 0.4141
C15 C 0.1984(3) 0.1835(2) 0.43592(19)
C16 C 0.1312(3) 0.2693(2) 0.3918(2)
H14 H 0.1801 0.2895 0.3278
C17 C -0.0061(3) 0.3248(2) 0.4409(2)
H15 H -0.0500 0.3809 0.4094
C18 C -0.0788(3) 0.2971(2) 0.5372(2)
C19 C -0.0129(3) 0.2142(2) 0.5840(2)
H16 H -0.0595 0.1961 0.6497
C20 C 0.1241(3) 0.1581(2) 0.5319(2)
H17 H 0.1670 0.1014 0.5631
C21 C -0.2830(5) 0.3417(3) 0.6859(3)
H18 H -0.3337 0.2477 0.6615
H19 H -0.3775 0.3877 0.7054
H20 H -0.1839 0.3786 0.7626
loop_
_geom_bond_atom_site_label_1
_geom_bond_atom_site_label_2
_geom_bond_site_symmetry_1
_geom_bond_site_symmetry_2
O1 C18 1_555 1_555
N1 C1 1_555 1_555
N2 C11 1_555 1_555
C1 C2 1_555 1_555
C2 H1 1_555 1_555
C3 C2 1_555 1_555
H2 C3 1_555 1_555
C4 C3 1_555 1_555
H3 C4 1_555 1_555
C5 C4 1_555 1_555
H4 C5 1_555 1_555
C6 C1 1_555 1_555
C7 C6 1_555 1_555
C8 N1 1_555 1_555
C9 N1 1_555 1_555
H5 C9 1_555 1_555
H6 C9 1_555 1_555
H7 C9 1_555 1_555
C10 C8 1_555 1_555
H8 C10 1_555 1_555
C11 C10 1_555 1_555
C12 C11 1_555 1_555
H9 C12 1_555 1_555
H10 C12 1_555 1_555
H11 C12 1_555 1_555
C13 N2 1_555 1_555
C14 C13 1_555 1_555
H12 C14 1_555 1_555
H13 C14 1_555 1_555
C15 C14 1_555 1_555
C16 C15 1_555 1_555
H14 C16 1_555 1_555
C17 C16 1_555 1_555
H15 C17 1_555 1_555
C18 C17 1_555 1_555
C19 C18 1_555 1_555
H16 C19 1_555 1_555
C20 C15 1_555 1_555
H17 C20 1_555 1_555
C21 O1 1_555 1_555
H18 C21 1_555 1_555
H19 C21 1_555 1_555
H20 C21 1_555 1_555
C5 C6 1_555 1_555
C7 C8 1_555 1_555
C7 C13 1_555 1_555
C19 C20 1_555 1_555

#END
