
#######################################################################
#
#                 Cambridge Crystallographic Data Centre
#                                CCDC 
#
#######################################################################
#
# If this CIF has been generated from an entry in the Cambridge 
# Structural Database, then it will include bibliographic, chemical, 
# crystal, experimental, refinement or atomic coordinate data resulting 
# from the CCDC's data processing and validation procedures.
#
#######################################################################

data_DEQNOF
_chemical_formula_moiety         'C23 H19 Cl1 N2 O4'
_chemical_name_systematic        
7-(4-chlorophenyl)-6-(furan-2-yl)-6a-nitro-6,6a,7,8,10,10a-hexahydrophenanthridin-9(5H)-one
_symmetry_cell_setting           orthorhombic
_symmetry_space_group_name_H-M   'P 21 21 21'
_symmetry_Int_Tables_number      19
_space_group_name_Hall           'P 2ac 2ab'
loop_
_symmetry_equiv_pos_site_id
_symmetry_equiv_pos_as_xyz
1 x,y,z
2 1/2-x,-y,1/2+z
3 1/2+x,1/2-y,-z
4 -x,1/2+y,1/2-z
_cell_length_a                   8.2626(8)
_cell_length_b                   10.7180(10)
_cell_length_c                   22.2226(18)
_cell_angle_alpha                90
_cell_angle_beta                 90
_cell_angle_gamma                90
_cell_volume                     1968
_cell_formula_units_Z            4
loop_
_atom_site_label
_atom_site_type_symbol
_atom_site_fract_x
_atom_site_fract_y
_atom_site_fract_z
Cl1 Cl -0.46271(13) -0.50591(10) -0.05779(5)
C1 C 0.0461(4) -1.1335(3) -0.17311(12)
H1 H 0.014608 -1.177809 -0.209863
O1 O -0.1802(3) -0.8670(2) -0.22836(11)
C2 C -0.1178(4) -0.8199(3) -0.10202(13)
N1 N -0.0827(3) -0.9514(3) -0.22571(11)
C3 C -0.0076(3) -0.9292(3) -0.11650(14)
H2 H -0.001543 -0.978276 -0.079353
C4 C -0.3152(4) -1.1530(3) -0.19759(15)
N2 N -0.2330(3) -1.1282(2) -0.09337(11)
H3 H -0.300010 -1.108774 -0.065279
O2 O 0.0041(4) -0.9799(4) -0.26720(12)
C5 C -0.0689(3) -1.0222(3) -0.16596(11)
C6 C -0.1151(4) -1.2181(3) -0.08357(12)
C7 C -0.3280(4) -0.6258(3) -0.07421(15)
C8 C 0.0229(4) -1.2237(3) -0.12037(12)
C9 C -0.1011(4) -0.7033(3) -0.12797(15)
H4 H -0.017987 -0.690230 -0.155457
C10 C -0.1313(5) -1.3012(3) -0.03579(14)
H5 H -0.219013 -1.293938 -0.009811
C11 C 0.1338(4) -1.3189(3) -0.10972(15)
H6 H 0.224612 -1.325345 -0.134236
C12 C 0.2778(3) -0.9981(4) -0.13642(14)
C13 C -0.2419(4) -1.0676(3) -0.15139(12)
H7 H -0.311828 -0.994175 -0.147494
O3 O 0.4064(3) -1.0032(3) -0.11022(11)
C14 C 0.2243(4) -1.0942(3) -0.18042(14)
H8 H 0.292257 -1.167463 -0.176049
H9 H 0.239894 -1.062036 -0.220799
C15 C 0.1128(5) -1.4037(3) -0.06412(16)
H10 H 0.187466 -1.467574 -0.058510
O4 O -0.3616(4) -1.1032(3) -0.25085(13)
C16 C 0.1671(4) -0.8879(4) -0.12962(17)
H11 H 0.169069 -0.838816 -0.166296
H12 H 0.205397 -0.835501 -0.096996
C17 C -0.0194(5) -1.3935(3) -0.02667(15)
H13 H -0.032702 -1.449575 0.004901
C18 C -0.2039(5) -0.6057(3) -0.11439(16)
H14 H -0.189592 -0.527831 -0.132064
C19 C -0.3601(5) -1.2717(3) -0.19365(19)
H15 H -0.343126 -1.324842 -0.161182
C20 C -0.2411(4) -0.8355(3) -0.06017(14)
H16 H -0.252928 -0.912119 -0.041068
C21 C -0.3465(4) -0.7396(3) -0.04626(15)
H17 H -0.428895 -0.751753 -0.018370
C22 C -0.4384(6) -1.2016(7) -0.2805(2)
H18 H -0.483752 -1.195729 -0.318663
C23 C -0.4385(5) -1.3016(5) -0.2482(3)
H19 H -0.481774 -1.378632 -0.258856
loop_
_geom_bond_atom_site_label_1
_geom_bond_atom_site_label_2
_geom_bond_site_symmetry_1
_geom_bond_site_symmetry_2
Cl1 C7 1_555 1_555
C1 H1 1_555 1_555
O1 N1 1_555 1_555
C2 C3 1_555 1_555
N1 O2 1_555 1_555
C3 H2 1_555 1_555
C4 C13 1_555 1_555
N2 H3 1_555 1_555
C5 C1 1_555 1_555
C6 N2 1_555 1_555
C7 C18 1_555 1_555
C8 C1 1_555 1_555
C9 C2 1_555 1_555
H4 C9 1_555 1_555
C10 C6 1_555 1_555
H5 C10 1_555 1_555
C11 C8 1_555 1_555
H6 C11 1_555 1_555
C12 O3 1_555 1_555
C13 N2 1_555 1_555
H7 C13 1_555 1_555
C14 C1 1_555 1_555
H8 C14 1_555 1_555
H9 C14 1_555 1_555
C15 C11 1_555 1_555
H10 C15 1_555 1_555
O4 C4 1_555 1_555
C16 C3 1_555 1_555
H11 C16 1_555 1_555
H12 C16 1_555 1_555
C17 C10 1_555 1_555
H13 C17 1_555 1_555
C18 C9 1_555 1_555
H14 C18 1_555 1_555
C19 C4 1_555 1_555
H15 C19 1_555 1_555
C20 C2 1_555 1_555
H16 C20 1_555 1_555
C21 C7 1_555 1_555
H17 C21 1_555 1_555
C22 O4 1_555 1_555
H18 C22 1_555 1_555
C23 C19 1_555 1_555
H19 C23 1_555 1_555
N1 C5 1_555 1_555
C3 C5 1_555 1_555
C5 C13 1_555 1_555
C6 C8 1_555 1_555
C12 C14 1_555 1_555
C12 C16 1_555 1_555
C15 C17 1_555 1_555
C20 C21 1_555 1_555
C22 C23 1_555 1_555

#END
