
#######################################################################
#
#                 Cambridge Crystallographic Data Centre
#                                CCDC 
#
#######################################################################
#
# If this CIF has been generated from an entry in the Cambridge 
# Structural Database, then it will include bibliographic, chemical, 
# crystal, experimental, refinement or atomic coordinate data resulting 
# from the CCDC's data processing and validation procedures.
#
#######################################################################

data_DEQQOI
_chemical_formula_moiety         
'2(C32 H22 N10 O6),2(C16 H36 N1 1+),C10 H6 O6 S2 2-,C4 H10 O1,4(C2 H6 O1 S1)'
_chemical_name_systematic        
"bis(tetra-n-butylammonium) bis(1,1'-[2,7,17,22-tetraoxa-4,5,12,19,20,27,35,36,41,42-decaazaheptacyclo[26.2.2.2^3,6^.2^8,11^.2^13,16^.2^18,21^.2^23,26^]dotetraconta-1(30),3,5,8,10,13,15,18,20,23,25,28,31,33,35,37,39,41-octadecaene-12,27-diyl]bis(ethan-1-one)) naphthalene-1,5-disulfonate diethyl ether dimethyl sulfoxide solvate"
_symmetry_cell_setting           triclinic
_symmetry_space_group_name_H-M   'P -1'
_symmetry_Int_Tables_number      2
_space_group_name_Hall           '-P 1'
loop_
_symmetry_equiv_pos_site_id
_symmetry_equiv_pos_as_xyz
1 x,y,z
2 -x,-y,-z
_cell_length_a                   11.713(3)
_cell_length_b                   12.688(4)
_cell_length_c                   21.381(6)
_cell_angle_alpha                100.163(4)
_cell_angle_beta                 92.151(5)
_cell_angle_gamma                96.439(5)
_cell_volume                     3102.6
_exptl_crystal_colour            red
_exptl_crystal_description       block
_cell_formula_units_Z            1
loop_
_atom_site_label
_atom_site_type_symbol
_atom_site_fract_x
_atom_site_fract_y
_atom_site_fract_z
O1 O 0.5784(3) 1.1218(2) 0.95311(14)
O2 O 0.8806(2) 0.7578(2) 0.89916(14)
O3 O 0.8627(2) 0.3419(2) 0.84025(15)
O4 O 0.5564(2) -0.0698(2) 0.69284(14)
O5 O 0.0798(2) 0.2935(2) 0.70446(15)
O6 O 0.0878(2) 0.7035(2) 0.78580(13)
N1 N 0.4862(3) 0.9668(2) 0.89427(14)
N2 N 0.9578(3) 0.6064(3) 0.90621(16)
N3 N 0.9534(3) 0.4998(3) 0.89037(17)
N4 N 0.7944(3) 0.4955(3) 0.81725(14)
N5 N 0.7996(3) 0.6018(2) 0.83252(14)
N6 N 0.4763(3) 0.0872(2) 0.70940(15)
N7 N 0.1648(3) 0.4433(2) 0.77489(14)
N8 N 0.1674(2) 0.5487(2) 0.79538(14)
N9 N -0.0053(2) 0.5476(2) 0.73332(16)
N10 N -0.0089(3) 0.4430(2) 0.71329(16)
C1 C 0.5872(3) 0.9130(3) 0.89437(16)
C2 C 0.6878(3) 0.9542(3) 0.8710(2)
H1 H 0.690888 1.019539 0.854843
C3 C 0.7845(3) 0.9000(3) 0.8710(2)
H2 H 0.854035 0.927668 0.855079
C4 C 0.7778(3) 0.8053(3) 0.89466(18)
C5 C 0.6774(3) 0.7619(3) 0.91735(18)
H3 H 0.673935 0.695992 0.932922
C6 C 0.5826(3) 0.8168(3) 0.91670(17)
H4 H 0.512679 0.788186 0.931885
C7 C 0.4901(4) 1.0728(3) 0.92351(18)
C8 C 0.3855(4) 1.1279(3) 0.9174(2)
H5 H 0.333460 1.113348 0.950555
H6 H 0.346273 1.100679 0.875426
H7 H 0.407867 1.205783 0.922281
C9 C 0.8752(3) 0.6506(3) 0.87927(18)
C10 C 0.8674(3) 0.4500(3) 0.85063(19)
C11 C 0.7640(3) 0.2790(3) 0.8076(2)
C12 C 0.6572(4) 0.2903(3) 0.8299(2)
H8 H 0.647665 0.341925 0.866752
C13 C 0.5634(3) 0.2246(3) 0.79750(18)
H9 H 0.488542 0.231649 0.812094
C14 C 0.5772(3) 0.1487(3) 0.74398(17)
C15 C 0.6862(3) 0.1376(3) 0.7234(2)
H10 H 0.696825 0.084816 0.687371
C16 C 0.7801(3) 0.2041(3) 0.7556(2)
H11 H 0.855321 0.197416 0.741427
C17 C 0.4754(3) -0.0210(3) 0.68282(18)
C18 C 0.3717(4) -0.0745(3) 0.6411(2)
H12 H 0.390452 -0.141055 0.614825
H13 H 0.348549 -0.025653 0.613451
H14 H 0.308327 -0.091646 0.667653
C19 C 0.3742(3) 0.1406(3) 0.70825(16)
C20 C 0.3709(3) 0.2251(3) 0.67512(18)
H15 H 0.435537 0.246305 0.652677
C21 C 0.2744(3) 0.2786(3) 0.67450(19)
H16 H 0.271396 0.336116 0.651644
C22 C 0.1822(3) 0.2460(3) 0.70814(19)
C23 C 0.1837(3) 0.1631(3) 0.74143(19)
H17 H 0.119260 0.142506 0.764127
C24 C 0.2803(3) 0.1102(3) 0.74148(18)
H18 H 0.282554 0.052604 0.764354
C25 C 0.0824(3) 0.3978(3) 0.73109(18)
C26 C 0.0881(3) 0.5962(3) 0.76976(17)
C27 C 0.1906(3) 0.7662(3) 0.81309(18)
C28 C 0.2843(3) 0.7782(3) 0.77700(17)
H19 H 0.283170 0.740576 0.734389
C29 C 0.3803(3) 0.8466(3) 0.80441(17)
H20 H 0.445673 0.856646 0.780185
C30 C 0.3823(3) 0.9006(3) 0.86680(17)
C31 C 0.2873(3) 0.8859(3) 0.90271(18)
H21 H 0.289198 0.921420 0.945805
C32 C 0.1896(3) 0.8192(3) 0.87550(19)
H22 H 0.123363 0.809925 0.899195
N11 N 0.3206(2) 0.3752(3) 0.35923(13)
C33 C 0.2614(3) 0.4762(3) 0.36238(19)
H23 H 0.247937 0.488791 0.318447
H24 H 0.185226 0.462952 0.379958
C34 C 0.3257(3) 0.5780(3) 0.4017(2)
H25 H 0.402912 0.591906 0.385488
H26 H 0.335726 0.568727 0.446556
C35 C 0.2592(5) 0.6729(4) 0.3984(3)
H27 H 0.250581 0.682380 0.353541
H28 H 0.181243 0.657421 0.413419
C36 C 0.3185(5) 0.7765(4) 0.4383(3)
H29 H 0.393122 0.795319 0.421345
H30 H 0.330157 0.766496 0.482385
H31 H 0.270478 0.834608 0.436927
C37 C 0.4391(3) 0.3906(4) 0.33334(19)
H32 H 0.488870 0.445043 0.364547
H33 H 0.472735 0.321766 0.329679
C38 C 0.4415(5) 0.4261(7) 0.2691(2)
H34 H 0.404621 0.364404 0.237139
H35 H 0.391355 0.484218 0.270708
C39 C 0.5419(5) 0.4616(5) 0.2464(3)
H36 H 0.592245 0.403729 0.245220
H37 H 0.578389 0.523684 0.278237
C40 C 0.5446(4) 0.4949(5) 0.1846(2)
H38 H 0.593859 0.453098 0.158114
H39 H 0.573609 0.569958 0.190194
H40 H 0.468239 0.483478 0.164824
C41 C 0.2478(3) 0.2830(3) 0.31399(18)
H41 H 0.236536 0.305813 0.272475
H42 H 0.292106 0.220288 0.306860
C42 C 0.1316(3) 0.2464(3) 0.3356(2)
H43 H 0.084894 0.307407 0.341777
H44 H 0.140935 0.222173 0.376850
C43 C 0.0703(4) 0.1543(3) 0.2862(3)
H45 H 0.067929 0.177045 0.244296
H46 H 0.114775 0.091792 0.282737
C44 C -0.0500(5) 0.1200(5) 0.3023(4)
H47 H -0.087239 0.064007 0.267839
H48 H -0.093621 0.182264 0.307662
H49 H -0.047885 0.091432 0.341982
C45 C 0.3312(4) 0.3503(3) 0.42577(17)
H50 H 0.384209 0.408814 0.452334
H51 H 0.254817 0.351263 0.444005
C46 C 0.3740(4) 0.2439(4) 0.4307(2)
H52 H 0.331571 0.186155 0.398136
H53 H 0.456664 0.247866 0.422031
C47 C 0.3579(6) 0.2167(4) 0.4953(2)
H54 H 0.277089 0.222476 0.506168
H55 H 0.408117 0.269613 0.527129
C48 C 0.3857(7) 0.1041(4) 0.4989(3)
H56 H 0.331264 0.051007 0.470502
H57 H 0.379713 0.091754 0.542734
H58 H 0.464197 0.096722 0.485938
S1 S 0.24719(7) 0.56381(7) 0.60027(4)
O7 O 0.3057(2) 0.6715(2) 0.62238(13)
O8 O 0.1998(2) 0.5156(2) 0.65164(12)
O9 O 0.3147(2) 0.4943(2) 0.56071(13)
C49 C 0.1248(3) 0.5805(3) 0.55150(15)
C50 C 0.1057(3) 0.6825(3) 0.54666(18)
H59 H 0.156445 0.742060 0.568992
C51 C 0.0475(3) 0.4906(3) 0.51917(15)
C52 C 0.0620(3) 0.3824(3) 0.52359(18)
H60 H 0.123944 0.368507 0.549680
C53 C -0.0112(3) 0.2991(3) 0.4912(2)
H61 H 0.001127 0.227246 0.494027
S1A S -0.24719(7) 0.43619(7) 0.39973(4)
O7A O -0.3057(2) 0.3285(2) 0.37762(13)
O8A O -0.1998(2) 0.4844(2) 0.34836(12)
O9A O -0.3147(2) 0.5057(2) 0.43929(13)
C49A C -0.1248(3) 0.4195(3) 0.44850(15)
C50A C -0.1057(3) 0.3175(3) 0.45334(18)
H59A H -0.156445 0.257940 0.431008
C51A C -0.0475(3) 0.5094(3) 0.48083(15)
C52A C -0.0620(3) 0.6176(3) 0.47641(18)
H60A H -0.123944 0.631493 0.450320
C53A C 0.0112(3) 0.7009(3) 0.5088(2)
H61A H -0.001127 0.772754 0.505973
O10 O 0.9814(5) 0.9237(4) 0.1463(3)
C54 C 1.0784(5) 0.8128(6) 0.0493(3)
H62 H 1.043916 0.766630 0.009948
H63 H 1.130055 0.872589 0.038708
H64 H 1.122200 0.770375 0.073461
C55 C 0.9725(15) 0.9539(11) 0.0350(6)
H65 H 0.914856 1.001519 0.044658
H66 H 1.046956 0.995329 0.038288
H67 H 0.957156 0.913789 -0.007562
S3 S 0.9704(8) 0.8638(7) 0.0948(4)
S4 S 0.68281(15) 0.49943(14) 0.01683(8)
O11 O 0.7092(3) 0.5125(3) -0.04837(15)
C57 C 0.7708(10) 0.3993(9) 0.0328(6)
H74 H 0.752615 0.333970 0.000275
H75 H 0.755727 0.381985 0.074825
H76 H 0.852124 0.427042 0.031924
C58 C 0.5527(11) 0.4069(12) 0.0085(8)
H77 H 0.488139 0.442133 -0.004942
H78 H 0.537846 0.384973 0.049489
H79 H 0.561292 0.343099 -0.023432
O12 O 0.000000 1.000000 0.500000
C61 C 0.0567(8) 0.9234(7) 0.3948(4)
H86 H 0.043470 0.939181 0.352063
H87 H 0.065623 0.846827 0.391706
H88 H 0.126771 0.967347 0.415320
C62 C -0.0355(10) 0.9472(9) 0.4304(5)
H89 H -0.087536 0.879871 0.429924
H90 H -0.078925 0.996465 0.410480
C61A C -0.0567(8) 1.0766(7) 0.6052(4)
H86A H -0.043470 1.060819 0.647937
H87A H -0.065623 1.153173 0.608294
H88A H -0.126771 1.032653 0.584680
C62A C 0.0355(10) 1.0528(9) 0.5696(5)
H89A H 0.087536 1.120129 0.570076
H90A H 0.078925 1.003535 0.589520
S2? S 0.9447(3) 0.8654(3) 0.0757(2)
H68? H 1.066095 0.774192 0.005166
H69? H 1.139845 0.872826 0.051861
H70? H 1.100522 0.763278 0.076687
C56? C 0.8842(10) 0.7333(7) 0.0843(6)
H71? H 0.937518 0.702837 0.110585
H72? H 0.870931 0.686960 0.042214
H73? H 0.810931 0.737603 0.104710
C59? C 0.7006(19) 0.3776(14) 0.0389(10)
H80? H 0.626936 0.402246 0.051305
H81? H 0.741730 0.361249 0.076135
H82? H 0.686522 0.312574 0.005965
C60? C 0.7801(9) 0.5960(7) 0.0696(4)
H83? H 0.819653 0.660310 0.056719
H84? H 0.817843 0.584353 0.109089
H85? H 0.699561 0.606364 0.076664
S5? S 0.7858(4) 0.4815(4) 0.00848(19)
loop_
_geom_bond_atom_site_label_1
_geom_bond_atom_site_label_2
_geom_bond_site_symmetry_1
_geom_bond_site_symmetry_2
O1 C7 1_555 1_555
O2 C4 1_555 1_555
O3 C10 1_555 1_555
O4 C17 1_555 1_555
O5 C22 1_555 1_555
O6 C26 1_555 1_555
N1 C1 1_555 1_555
N2 N3 1_555 1_555
N3 C10 1_555 1_555
N4 N5 1_555 1_555
N5 C9 1_555 1_555
N6 C14 1_555 1_555
N7 N8 1_555 1_555
N8 C26 1_555 1_555
N9 N10 1_555 1_555
N10 C25 1_555 1_555
C1 C2 1_555 1_555
C2 H1 1_555 1_555
C3 C2 1_555 1_555
H2 C3 1_555 1_555
C4 C3 1_555 1_555
C5 C4 1_555 1_555
H3 C5 1_555 1_555
C6 C1 1_555 1_555
H4 C6 1_555 1_555
C7 N1 1_555 1_555
C8 C7 1_555 1_555
H5 C8 1_555 1_555
H6 C8 1_555 1_555
H7 C8 1_555 1_555
C9 O2 1_555 1_555
C10 N4 1_555 1_555
C11 O3 1_555 1_555
C12 C11 1_555 1_555
H8 C12 1_555 1_555
C13 C12 1_555 1_555
H9 C13 1_555 1_555
C14 C13 1_555 1_555
C15 C14 1_555 1_555
H10 C15 1_555 1_555
C16 C11 1_555 1_555
H11 C16 1_555 1_555
C17 N6 1_555 1_555
C18 C17 1_555 1_555
H12 C18 1_555 1_555
H13 C18 1_555 1_555
H14 C18 1_555 1_555
C19 N6 1_555 1_555
C20 C19 1_555 1_555
H15 C20 1_555 1_555
C21 C20 1_555 1_555
H16 C21 1_555 1_555
C22 C21 1_555 1_555
C23 C22 1_555 1_555
H17 C23 1_555 1_555
C24 C19 1_555 1_555
H18 C24 1_555 1_555
C25 O5 1_555 1_555
C26 N9 1_555 1_555
C27 O6 1_555 1_555
C28 C27 1_555 1_555
H19 C28 1_555 1_555
C29 C28 1_555 1_555
H20 C29 1_555 1_555
C30 N1 1_555 1_555
C31 C30 1_555 1_555
H21 C31 1_555 1_555
C32 C27 1_555 1_555
H22 C32 1_555 1_555
N11 C33 1_555 1_555
C33 H23 1_555 1_555
H24 C33 1_555 1_555
C34 C33 1_555 1_555
H25 C34 1_555 1_555
H26 C34 1_555 1_555
C35 C34 1_555 1_555
H27 C35 1_555 1_555
H28 C35 1_555 1_555
C36 C35 1_555 1_555
H29 C36 1_555 1_555
H30 C36 1_555 1_555
H31 C36 1_555 1_555
C37 N11 1_555 1_555
H32 C37 1_555 1_555
H33 C37 1_555 1_555
C38 C37 1_555 1_555
H34 C38 1_555 1_555
H35 C38 1_555 1_555
C39 C38 1_555 1_555
H36 C39 1_555 1_555
H37 C39 1_555 1_555
C40 C39 1_555 1_555
H38 C40 1_555 1_555
H39 C40 1_555 1_555
H40 C40 1_555 1_555
C41 N11 1_555 1_555
H41 C41 1_555 1_555
H42 C41 1_555 1_555
C42 C41 1_555 1_555
H43 C42 1_555 1_555
H44 C42 1_555 1_555
C43 C42 1_555 1_555
H45 C43 1_555 1_555
H46 C43 1_555 1_555
C44 C43 1_555 1_555
H47 C44 1_555 1_555
H48 C44 1_555 1_555
H49 C44 1_555 1_555
C45 N11 1_555 1_555
H50 C45 1_555 1_555
H51 C45 1_555 1_555
C46 C45 1_555 1_555
H52 C46 1_555 1_555
H53 C46 1_555 1_555
C47 C46 1_555 1_555
H54 C47 1_555 1_555
H55 C47 1_555 1_555
C48 C47 1_555 1_555
H56 C48 1_555 1_555
H57 C48 1_555 1_555
H58 C48 1_555 1_555
S1 O7 1_555 1_555
O8 S1 1_555 1_555
O9 S1 1_555 1_555
C49 S1 1_555 1_555
C50 C49 1_555 1_555
H59 C50 1_555 1_555
C51 C49 1_555 1_555
C52 C51 1_555 1_555
H60 C52 1_555 1_555
C53 C52 1_555 1_555
H61 C53 1_555 1_555
O10 S3 1_555 1_555
C54 H62 1_555 1_555
H63 C54 1_555 1_555
H64 C54 1_555 1_555
C55 H65 1_555 1_555
H66 C55 1_555 1_555
H67 C55 1_555 1_555
S3 C54 1_555 1_555
S4 O11 1_555 1_555
C57 S4 1_555 1_555
H74 C57 1_555 1_555
H75 C57 1_555 1_555
H76 C57 1_555 1_555
C58 S4 1_555 1_555
H77 C58 1_555 1_555
H78 C58 1_555 1_555
H79 C58 1_555 1_555
O12 C62 1_555 1_555
C61 H86 1_555 1_555
H87 C61 1_555 1_555
H88 C61 1_555 1_555
C62 C61 1_555 1_555
H89 C62 1_555 1_555
H90 C62 1_555 1_555
S1A O7A 1_555 1_555
O8A S1A 1_555 1_555
O9A S1A 1_555 1_555
C49A S1A 1_555 1_555
C50A C53 1_555 1_555
H59A C50A 1_555 1_555
C51A C51 1_555 1_555
C52A C51A 1_555 1_555
H60A C52A 1_555 1_555
C53A C50 1_555 1_555
H61A C53A 1_555 1_555
C61A H86A 1_555 1_555
H87A C61A 1_555 1_555
H88A C61A 1_555 1_555
C62A O12 1_555 1_555
H89A C62A 1_555 1_555
H90A C62A 1_555 1_555
N2 C9 1_555 1_555
N7 C25 1_555 1_555
C5 C6 1_555 1_555
C15 C16 1_555 1_555
C23 C24 1_555 1_555
C29 C30 1_555 1_555
C31 C32 1_555 1_555
C55 S3 1_555 1_555
C49A C50A 1_555 1_555
C49A C51A 1_555 1_555
C52A C53A 1_555 1_555
C61A C62A 1_555 1_555

#END
