
#######################################################################
#
#                 Cambridge Crystallographic Data Centre
#                                CCDC 
#
#######################################################################
#
# If this CIF has been generated from an entry in the Cambridge 
# Structural Database, then it will include bibliographic, chemical, 
# crystal, experimental, refinement or atomic coordinate data resulting 
# from the CCDC's data processing and validation procedures.
#
#######################################################################

data_DEQRUP
_chemical_formula_moiety         'C32 H22 N10 O6,C16 H36 N1 1+,Cl1 O4 1-'
_chemical_name_systematic        
"tetra-n-butylammonium 1,1'-[2,7,17,22-tetraoxa-4,5,12,19,20,27,35,36,41,42-decaazaheptacyclo[26.2.2.2^3,6^.2^8,11^.2^13,16^.2^18,21^.2^23,26^]dotetraconta-1(30),3,5,8,10,13,15,18,20,23,25,28,31,33,35,37,39,41-octadecaene-12,27-diyl]bis(ethan-1-one) perchlorate"
_symmetry_cell_setting           monoclinic
_symmetry_space_group_name_H-M   'P 21/n'
_symmetry_Int_Tables_number      14
_space_group_name_Hall           '-P 2yn'
loop_
_symmetry_equiv_pos_site_id
_symmetry_equiv_pos_as_xyz
1 x,y,z
2 1/2-x,1/2+y,1/2-z
3 -x,-y,-z
4 1/2+x,1/2-y,1/2+z
_cell_length_a                   11.457(2)
_cell_length_b                   25.191(4)
_cell_length_c                   17.260(3)
_cell_angle_alpha                90
_cell_angle_beta                 93.295(2)
_cell_angle_gamma                90
_cell_volume                     4973.23
_exptl_crystal_colour            red
_exptl_crystal_description       block
_cell_formula_units_Z            4
loop_
_atom_site_label
_atom_site_type_symbol
_atom_site_fract_x
_atom_site_fract_y
_atom_site_fract_z
O1 O 0.87949(14) 0.32293(7) 0.67383(11)
O2 O 0.86316(15) 0.12780(7) 0.57863(12)
O3 O 0.57681(19) -0.01990(8) 0.34180(13)
O4 O 0.07303(15) 0.16569(8) 0.43028(12)
O5 O 0.08396(14) 0.35735(7) 0.53931(11)
O6 O 0.42898(15) 0.54377(7) 0.59545(11)
N1 N 0.96521(16) 0.24380(8) 0.66372(12)
N2 N 0.96076(16) 0.19403(8) 0.63947(12)
N3 N 0.77792(17) 0.21087(8) 0.57178(12)
N4 N 0.78197(17) 0.26082(8) 0.59628(12)
N5 N 0.48152(18) 0.04774(8) 0.39732(12)
N6 N -0.01935(18) 0.24228(9) 0.45254(13)
N7 N -0.01630(17) 0.29125(9) 0.48038(13)
N8 N 0.17231(17) 0.27497(9) 0.53961(12)
N9 N 0.16942(17) 0.22573(9) 0.51205(12)
N10 N 0.50433(16) 0.46221(8) 0.61827(12)
C1 C 0.87221(19) 0.27377(9) 0.64427(13)
C2 C 0.8640(2) 0.17945(10) 0.59805(14)
C3 C 0.7651(2) 0.10804(10) 0.53411(15)
C4 C 0.7845(2) 0.09033(10) 0.46087(16)
H1 H 0.860293 0.092519 0.441549
C5 C 0.6921(2) 0.06913(10) 0.41514(15)
H2 H 0.704640 0.056735 0.364303
C6 C 0.5818(2) 0.06610(9) 0.44378(14)
C7 C 0.5649(2) 0.08375(10) 0.51883(14)
H3 H 0.489677 0.081175 0.539048
C8 C 0.6571(2) 0.10506(10) 0.56416(15)
H4 H 0.645660 0.117379 0.615185
C9 C 0.4874(3) 0.00563(11) 0.34670(15)
C10 C 0.3777(3) -0.00594(13) 0.29672(17)
H5 H 0.392648 -0.035166 0.261145
H6 H 0.354766 0.025798 0.266738
H7 H 0.314653 -0.015943 0.329851
C11 C 0.3750(2) 0.07754(10) 0.40498(13)
C12 C 0.2803(2) 0.05547(10) 0.43923(14)
H8 H 0.283796 0.019819 0.457155
C13 C 0.1798(2) 0.08549(10) 0.44747(14)
H9 H 0.113134 0.070319 0.469219
C14 C 0.1789(2) 0.13740(10) 0.42356(15)
C15 C 0.2722(2) 0.16040(11) 0.39018(16)
H10 H 0.269196 0.196458 0.374049
C16 C 0.3711(2) 0.12984(10) 0.38051(15)
H11 H 0.436343 0.144893 0.356985
C17 C 0.0782(2) 0.21348(10) 0.46478(15)
C18 C 0.08372(19) 0.30609(10) 0.51734(14)
C19 C 0.19157(19) 0.38224(10) 0.55833(15)
C20 C 0.1963(2) 0.41492(10) 0.62191(17)
H12 H 0.130394 0.418646 0.652450
C21 C 0.2991(2) 0.44255(10) 0.64103(16)
H13 H 0.303718 0.465458 0.684822
C22 C 0.3947(2) 0.43662(9) 0.59611(15)
C23 C 0.3875(2) 0.40383(10) 0.53241(15)
H14 H 0.453241 0.399796 0.501830
C24 C 0.2851(2) 0.37658(11) 0.51234(15)
H15 H 0.279495 0.354438 0.467726
C25 C 0.5119(2) 0.51649(9) 0.61966(14)
C26 C 0.6232(2) 0.54038(11) 0.65402(18)
H16 H 0.683183 0.539058 0.615827
H17 H 0.649843 0.520292 0.700338
H18 H 0.609161 0.577383 0.668337
C27 C 0.60267(19) 0.42734(9) 0.63269(14)
C28 C 0.6993(2) 0.42997(10) 0.58772(15)
H19 H 0.702036 0.455520 0.547387
C29 C 0.7913(2) 0.39518(10) 0.60203(15)
H20 H 0.859473 0.397682 0.573389
C30 C 0.78293(19) 0.35699(9) 0.65814(14)
C31 C 0.6869(2) 0.35265(10) 0.70124(15)
H21 H 0.682178 0.325397 0.738976
C32 C 0.5967(2) 0.38876(10) 0.68880(15)
H22 H 0.530271 0.386897 0.719172
N11 N 0.26458(15) 0.66218(7) 0.69994(10)
C33 C 0.21324(18) 0.62477(8) 0.63763(12)
H23 H 0.188602 0.646220 0.591483
H24 H 0.276141 0.600671 0.622268
C34 C 0.1104(2) 0.59117(9) 0.65899(13)
H25 H 0.045509 0.614198 0.674191
H26 H 0.133521 0.567758 0.703318
C35 C 0.0713(2) 0.55787(9) 0.58829(13)
H27 H 0.054900 0.581730 0.543401
H28 H 0.135863 0.533897 0.575434
C36 C -0.0370(3) 0.52489(12) 0.60104(17)
H29 H -0.060452 0.505788 0.553190
H30 H -0.100674 0.548278 0.615222
H31 H -0.019598 0.499327 0.642925
C37 C 0.2863(2) 0.63365(9) 0.77704(12)
H32 H 0.210076 0.621725 0.795068
H33 H 0.319551 0.659401 0.815603
C38 C 0.3674(2) 0.58593(10) 0.77571(14)
H34 H 0.336073 0.559687 0.737216
H35 H 0.445616 0.597268 0.760489
C39 C 0.3775(2) 0.56087(10) 0.85587(15)
H36 H 0.402153 0.588282 0.894515
H37 H 0.299724 0.547603 0.869047
C40 C 0.4643(3) 0.51539(12) 0.8609(2)
H38 H 0.437881 0.487230 0.824805
H39 H 0.469886 0.501353 0.913902
H40 H 0.541169 0.528192 0.847116
C41 C 0.37987(19) 0.68344(9) 0.67326(14)
H41 H 0.412889 0.707980 0.713616
H42 H 0.434773 0.653248 0.670369
C42 C 0.3760(2) 0.71227(11) 0.59601(16)
H43 H 0.325967 0.744191 0.598657
H44 H 0.341627 0.688770 0.554761
C43 C 0.4984(2) 0.72851(12) 0.57650(17)
H45 H 0.549422 0.696782 0.579447
H46 H 0.529337 0.754110 0.616065
C44 C 0.5047(3) 0.75351(15) 0.4966(2)
H47 H 0.476934 0.728007 0.456803
H48 H 0.585816 0.763278 0.488173
H49 H 0.455499 0.785336 0.493323
C45 C 0.1775(2) 0.70678(9) 0.71082(13)
H50 H 0.100120 0.690852 0.718724
H51 H 0.170183 0.727864 0.662378
C46 C 0.2085(2) 0.74446(10) 0.77850(15)
H52 H 0.191708 0.726946 0.827983
H53 H 0.293128 0.752709 0.779988
C47 C 0.1386(2) 0.79567(10) 0.76997(16)
H54 H 0.055759 0.786795 0.756450
H55 H 0.142090 0.814365 0.820502
C48 C 0.1819(3) 0.83247(11) 0.70903(19)
H56 H 0.175108 0.814912 0.658304
H57 H 0.263966 0.841455 0.721933
H58 H 0.134831 0.864971 0.707230
Cl1 Cl 0.18950(6) 0.31430(2) 0.28724(3)
O7 O 0.1595(6) 0.3023(3) 0.3617(3)
O8 O 0.0996(3) 0.3223(2) 0.23044(18)
O9 O 0.2585(7) 0.2694(2) 0.2659(3)
O10 O 0.2497(15) 0.3574(3) 0.2850(6)
O11? O 0.2994(5) 0.3226(4) 0.2637(4)
O12? O 0.1618(11) 0.2671(3) 0.3093(10)
O13? O 0.1636(7) 0.3487(6) 0.3470(7)
loop_
_geom_bond_atom_site_label_1
_geom_bond_atom_site_label_2
_geom_bond_site_symmetry_1
_geom_bond_site_symmetry_2
O1 C1 1_555 1_555
O2 C2 1_555 1_555
O3 C9 1_555 1_555
O4 C14 1_555 1_555
O5 C18 1_555 1_555
O6 C25 1_555 1_555
N1 N2 1_555 1_555
N2 C2 1_555 1_555
N3 N4 1_555 1_555
N4 C1 1_555 1_555
N5 C6 1_555 1_555
N6 N7 1_555 1_555
N7 C18 1_555 1_555
N8 N9 1_555 1_555
N9 C17 1_555 1_555
N10 C22 1_555 1_555
C1 N1 1_555 1_555
C2 N3 1_555 1_555
C3 O2 1_555 1_555
C4 C3 1_555 1_555
H1 C4 1_555 1_555
C5 C4 1_555 1_555
H2 C5 1_555 1_555
C6 C5 1_555 1_555
C7 C6 1_555 1_555
H3 C7 1_555 1_555
C8 C3 1_555 1_555
H4 C8 1_555 1_555
C9 N5 1_555 1_555
C10 C9 1_555 1_555
H5 C10 1_555 1_555
H6 C10 1_555 1_555
H7 C10 1_555 1_555
C11 N5 1_555 1_555
C12 C11 1_555 1_555
H8 C12 1_555 1_555
C13 C12 1_555 1_555
H9 C13 1_555 1_555
C14 C13 1_555 1_555
C15 C14 1_555 1_555
H10 C15 1_555 1_555
C16 C11 1_555 1_555
H11 C16 1_555 1_555
C17 O4 1_555 1_555
C18 N8 1_555 1_555
C19 O5 1_555 1_555
C20 C19 1_555 1_555
H12 C20 1_555 1_555
C21 C20 1_555 1_555
H13 C21 1_555 1_555
C22 C21 1_555 1_555
C23 C22 1_555 1_555
H14 C23 1_555 1_555
C24 C19 1_555 1_555
H15 C24 1_555 1_555
C25 N10 1_555 1_555
C26 C25 1_555 1_555
H16 C26 1_555 1_555
H17 C26 1_555 1_555
H18 C26 1_555 1_555
C27 N10 1_555 1_555
C28 C27 1_555 1_555
H19 C28 1_555 1_555
C29 C28 1_555 1_555
H20 C29 1_555 1_555
C30 O1 1_555 1_555
C31 C30 1_555 1_555
H21 C31 1_555 1_555
C32 C27 1_555 1_555
H22 C32 1_555 1_555
N11 C33 1_555 1_555
C33 H23 1_555 1_555
H24 C33 1_555 1_555
C34 C33 1_555 1_555
H25 C34 1_555 1_555
H26 C34 1_555 1_555
C35 C34 1_555 1_555
H27 C35 1_555 1_555
H28 C35 1_555 1_555
C36 C35 1_555 1_555
H29 C36 1_555 1_555
H30 C36 1_555 1_555
H31 C36 1_555 1_555
C37 N11 1_555 1_555
H32 C37 1_555 1_555
H33 C37 1_555 1_555
C38 C37 1_555 1_555
H34 C38 1_555 1_555
H35 C38 1_555 1_555
C39 C38 1_555 1_555
H36 C39 1_555 1_555
H37 C39 1_555 1_555
C40 C39 1_555 1_555
H38 C40 1_555 1_555
H39 C40 1_555 1_555
H40 C40 1_555 1_555
C41 N11 1_555 1_555
H41 C41 1_555 1_555
H42 C41 1_555 1_555
C42 C41 1_555 1_555
H43 C42 1_555 1_555
H44 C42 1_555 1_555
C43 C42 1_555 1_555
H45 C43 1_555 1_555
H46 C43 1_555 1_555
C44 C43 1_555 1_555
H47 C44 1_555 1_555
H48 C44 1_555 1_555
H49 C44 1_555 1_555
C45 N11 1_555 1_555
H50 C45 1_555 1_555
H51 C45 1_555 1_555
C46 C45 1_555 1_555
H52 C46 1_555 1_555
H53 C46 1_555 1_555
C47 C46 1_555 1_555
H54 C47 1_555 1_555
H55 C47 1_555 1_555
C48 C47 1_555 1_555
H56 C48 1_555 1_555
H57 C48 1_555 1_555
H58 C48 1_555 1_555
Cl1 O7 1_555 1_555
O8 Cl1 1_555 1_555
O9 Cl1 1_555 1_555
O10 Cl1 1_555 1_555
N6 C17 1_555 1_555
C7 C8 1_555 1_555
C15 C16 1_555 1_555
C23 C24 1_555 1_555
C29 C30 1_555 1_555
C31 C32 1_555 1_555

#END
