
#######################################################################
#
#                 Cambridge Crystallographic Data Centre
#                                CCDC 
#
#######################################################################
#
# If this CIF has been generated from an entry in the Cambridge 
# Structural Database, then it will include bibliographic, chemical, 
# crystal, experimental, refinement or atomic coordinate data resulting 
# from the CCDC's data processing and validation procedures.
#
#######################################################################

data_DEQSUN
_chemical_formula_moiety         'C23 H28 O7'
_chemical_name_systematic        
"4,4 '-Epoxyspiro((3,4-dimethoxymethyl-7,8-dimethoxybenzocycloheptene)-1,3'-(1'-methoxy-6'-oxocyclohexa-1'4'-diene))"
_symmetry_cell_setting           orthorhombic
_symmetry_space_group_name_H-M   'P 21 21 21'
_symmetry_Int_Tables_number      19
_space_group_name_Hall           'P 2ac 2ab'
loop_
_symmetry_equiv_pos_site_id
_symmetry_equiv_pos_as_xyz
1 x,y,z
2 1/2-x,-y,1/2+z
3 -x,1/2+y,1/2-z
4 1/2+x,1/2-y,-z
_cell_length_a                   8.4905(2)
_cell_length_b                   13.0087(3)
_cell_length_c                   18.9887(4)
_cell_angle_alpha                90
_cell_angle_beta                 90
_cell_angle_gamma                90
_cell_volume                     2097.31
_exptl_crystal_colour            colorless
_chemical_melting_point          160deg.C
_cell_formula_units_Z            4
_exptl_crystal_recrystallization_method benzene
loop_
_atom_site_label
_atom_site_type_symbol
_atom_site_fract_x
_atom_site_fract_y
_atom_site_fract_z
O1 O 0.68409(13) 0.79372(8) 0.91659(6)
O2 O 0.99188(14) 1.11757(9) 0.79003(6)
O3 O 0.54426(14) 1.23983(9) 1.04949(6)
O4 O 0.38084(15) 1.11470(9) 1.12570(6)
C1 C 0.53087(19) 1.14191(12) 1.02366(9)
C2 C 0.9130(2) 0.87923(14) 0.88625(8)
O5 O 0.54791(15) 0.78387(10) 0.70160(6)
C3 C 0.9019(2) 1.04815(13) 0.82525(8)
C4 C 0.51746(19) 0.77953(12) 0.89904(8)
C5 C 0.43645(19) 1.07558(13) 1.06353(8)
O6 O 0.34347(16) 0.63773(9) 0.88707(7)
C6 C 0.46866(19) 0.94316(12) 0.97476(8)
C7 C 0.7558(2) 0.87851(12) 0.89025(8)
C8 C 0.4058(2) 0.97848(13) 1.03841(9)
C9 C 0.9988(2) 0.96359(14) 0.85479(8)
C10 C 0.65226(19) 0.96784(12) 0.86929(8)
C11 C 0.57116(19) 1.00622(12) 0.93739(8)
C12 C 0.4138(2) 0.83832(13) 0.95112(9)
C13 C 0.7457(2) 1.05069(13) 0.83350(9)
C14 C 0.5243(2) 0.92914(13) 0.81596(9)
C15 C 0.4969(2) 0.66451(13) 0.90938(10)
C16 C 0.6344(3) 1.31156(15) 1.00925(11)
C17 C 0.4894(2) 0.81393(13) 0.82288(9)
C18 C 0.2910(3) 1.04778(17) 1.16926(11)
C19 C 0.9090(3) 1.20114(15) 0.75799(11)
C20 C 0.5859(2) 0.75127(15) 0.77063(9)
C21 C 0.6010(2) 1.10608(12) 0.96259(8)
C22 C 0.3140(3) 0.53074(16) 0.89483(14)
O7 O 1.14305(15) 0.96423(11) 0.85033(7)
C23 C 0.6637(3) 0.75065(19) 0.65275(10)
H1 H 0.703(2) 0.7619(13) 0.7784(9)
H2 H 0.831(2) 1.1757(14) 0.7223(10)
H3 H 0.669(2) 1.1485(14) 0.9382(9)
H4 H 0.679(2) 1.1035(15) 0.8131(9)
H5 H 0.341(2) 0.9321(13) 1.0652(8)
H6 H 0.848(3) 1.2382(16) 0.7922(11)
H7 H 0.375(2) 0.8012(12) 0.8126(8)
H8 H 0.427(2) 0.9689(14) 0.8248(9)
H9 H 0.993(3) 1.2440(17) 0.7378(11)
H10 H 0.565(2) 0.9431(13) 0.7679(10)
H11 H 0.638(2) 1.3734(17) 1.0384(10)
H12 H 0.268(3) 1.0844(16) 1.2123(12)
H13 H 0.582(2) 0.6251(14) 0.8801(9)
H14 H 0.357(3) 0.9814(18) 1.1773(11)
H15 H 0.510(2) 0.6488(13) 0.9619(9)
H16 H 0.562(2) 0.6782(16) 0.7777(10)
H17 H 0.399(2) 0.7966(13) 0.9937(9)
H18 H 0.400(3) 0.4885(18) 0.8653(12)
H19 H 0.318(3) 0.5103(18) 0.9438(13)
H20 H 0.740(3) 1.2862(15) 1.0017(10)
H21 H 0.198(4) 0.518(2) 0.8786(13)
H22 H 0.192(3) 1.0250(18) 1.1472(12)
H23 H 0.590(2) 1.3235(14) 0.9615(10)
H24 H 0.971(2) 0.8229(14) 0.9009(9)
H25 H 0.771(3) 0.7852(17) 0.6655(12)
H26 H 0.631(3) 0.7772(18) 0.6065(13)
H27 H 0.308(2) 0.8422(13) 0.9309(9)
H28 H 0.680(3) 0.675(2) 0.6533(13)
loop_
_geom_bond_atom_site_label_1
_geom_bond_atom_site_label_2
_geom_bond_site_symmetry_1
_geom_bond_site_symmetry_2
O1 C4 1_555 1_555
O2 C3 1_555 1_555
O3 C1 1_555 1_555
O4 C5 1_555 1_555
C1 C5 1_555 1_555
C2 C7 1_555 1_555
O5 C20 1_555 1_555
C3 C9 1_555 1_555
C4 C12 1_555 1_555
C5 C8 1_555 1_555
O6 C15 1_555 1_555
C6 C8 1_555 1_555
C7 O1 1_555 1_555
C8 H5 1_555 1_555
C9 C2 1_555 1_555
C10 C7 1_555 1_555
C11 C6 1_555 1_555
C12 C6 1_555 1_555
C13 C3 1_555 1_555
C14 C10 1_555 1_555
C15 C4 1_555 1_555
C16 O3 1_555 1_555
C17 C4 1_555 1_555
C18 O4 1_555 1_555
C19 O2 1_555 1_555
C20 C17 1_555 1_555
C21 C1 1_555 1_555
C22 O6 1_555 1_555
O7 C9 1_555 1_555
C23 O5 1_555 1_555
H1 C20 1_555 1_555
H2 C19 1_555 1_555
H3 C21 1_555 1_555
H4 C13 1_555 1_555
H6 C19 1_555 1_555
H7 C17 1_555 1_555
H8 C14 1_555 1_555
H9 C19 1_555 1_555
H10 C14 1_555 1_555
H11 C16 1_555 1_555
H12 C18 1_555 1_555
H13 C15 1_555 1_555
H14 C18 1_555 1_555
H15 C15 1_555 1_555
H16 C20 1_555 1_555
H17 C12 1_555 1_555
H18 C22 1_555 1_555
H19 C22 1_555 1_555
H20 C16 1_555 1_555
H21 C22 1_555 1_555
H22 C18 1_555 1_555
H23 C16 1_555 1_555
H24 C2 1_555 1_555
H25 C23 1_555 1_555
H26 C23 1_555 1_555
H27 C12 1_555 1_555
H28 C23 1_555 1_555
C10 C11 1_555 1_555
C10 C13 1_555 1_555
C11 C21 1_555 1_555
C14 C17 1_555 1_555

#END
