
#######################################################################
#
#                 Cambridge Crystallographic Data Centre
#                                CCDC 
#
#######################################################################
#
# If this CIF has been generated from an entry in the Cambridge 
# Structural Database, then it will include bibliographic, chemical, 
# crystal, experimental, refinement or atomic coordinate data resulting 
# from the CCDC's data processing and validation procedures.
#
#######################################################################

data_DEQSOK
_chemical_formula_moiety         'C31 H21 N9 O3 S2'
_chemical_name_systematic        
1-[7,17-dioxa-2,22-dithia-4,5,12,19,20,35,36,41,42-nonaazaheptacyclo[26.2.2.2^3,6^.2^8,11^.2^13,16^.2^18,21^.2^23,26^]dotetraconta-1(30),3,5,8,10,13,15,18,20,23,25,28,31,33,35,37,39,41-octadecaen-12-yl]ethan-1-one
_symmetry_cell_setting           triclinic
_symmetry_space_group_name_H-M   'P -1'
_symmetry_Int_Tables_number      2
_space_group_name_Hall           '-P 1'
loop_
_symmetry_equiv_pos_site_id
_symmetry_equiv_pos_as_xyz
1 x,y,z
2 -x,-y,-z
_cell_length_a                   10.4612(5)
_cell_length_b                   11.1373(4)
_cell_length_c                   13.8290(5)
_cell_angle_alpha                96.925(3)
_cell_angle_beta                 112.160(4)
_cell_angle_gamma                98.871(3)
_cell_volume                     1445.95
_exptl_crystal_colour            red
_exptl_crystal_description       rod
_cell_formula_units_Z            2
loop_
_atom_site_label
_atom_site_type_symbol
_atom_site_fract_x
_atom_site_fract_y
_atom_site_fract_z
S1 S -0.16871(6) 0.34357(5) 0.15147(4)
S2 S 0.44448(6) 1.04464(5) 0.80600(5)
O1 O 0.68877(18) 0.66851(14) 0.99134(11)
O2 O 0.80519(15) 0.10115(13) 0.68465(12)
O3 O 0.36177(16) 0.21753(16) 0.29404(11)
N1 N 0.6262(2) 0.95875(17) 0.95463(15)
N2 N 0.6860(2) 0.87064(17) 0.99717(14)
N3 N 0.5010(2) 0.71798(16) 0.86167(15)
N4 N 0.44185(19) 0.80615(16) 0.81689(15)
N5 N 0.71473(17) 0.26297(15) 0.72313(13)
N6 N 0.14079(19) 0.18908(16) 0.17100(13)
N7 N 0.01652(19) 0.21935(16) 0.13917(13)
N8 N 0.09340(17) 0.36605(15) 0.30172(13)
N9 N 0.21877(18) 0.33399(15) 0.33467(13)
C1 C -0.1546(2) 0.47337(19) 0.24687(16)
C2 C -0.1468(2) 0.5889(2) 0.21988(17)
H1 H -0.1444 0.5982 0.1531
C3 C -0.1425(2) 0.6912(2) 0.28937(17)
H2 H -0.1376 0.7700 0.2696
C4 C -0.1452(2) 0.68059(19) 0.38766(16)
C5 C -0.1528(2) 0.56377(19) 0.41402(16)
H3 H -0.1538 0.5547 0.4812
C6 C -0.1588(2) 0.4602(2) 0.34424(17)
H4 H -0.1658 0.3809 0.3630
C7 C -0.1383(2) 0.7930(2) 0.46443(17)
H5 H -0.2019 0.7684 0.4999
H6 H -0.1748 0.8560 0.4232
C8 C 0.0081(2) 0.85189(18) 0.54955(15)
C9 C 0.0236(2) 0.91611(18) 0.64774(16)
H7 H -0.0583 0.9219 0.6609
C10 C 0.1558(2) 0.97170(18) 0.72656(16)
H8 H 0.1645 1.0134 0.7936
C11 C 0.2755(2) 0.96589(18) 0.70675(17)
C12 C 0.2618(2) 0.90527(18) 0.60881(17)
H9 H 0.3436 0.9029 0.5947
C13 C 0.1291(2) 0.84799(19) 0.53105(17)
H10 H 0.1209 0.8056 0.4644
C14 C 0.5094(2) 0.92246(18) 0.86332(16)
C15 C 0.6211(2) 0.75440(19) 0.94570(16)
C16 C 0.6888(2) 0.56293(18) 0.92333(15)
C17 C 0.5677(2) 0.4739(2) 0.86217(18)
H11 H 0.4794 0.4810 0.8642
C18 C 0.5784(2) 0.37405(19) 0.79764(19)
H12 H 0.4960 0.3124 0.7542
C19 C 0.7072(2) 0.36275(17) 0.79555(15)
C20 C 0.8276(2) 0.45215(18) 0.85980(15)
H13 H 0.9166 0.4449 0.8593
C21 C 0.8178(2) 0.55155(18) 0.92448(16)
H14 H 0.9004 0.6120 0.9697
C22 C 0.7952(2) 0.17572(18) 0.75240(17)
C23 C 0.8656(2) 0.1719(2) 0.86858(17)
H15 H 0.8538 0.0857 0.8779
H16 H 0.8223 0.2180 0.9083
H17 H 0.9666 0.2097 0.8953
C24 C 0.6258(2) 0.25302(18) 0.61196(15)
C25 C 0.5112(2) 0.15396(18) 0.56283(16)
H18 H 0.4940 0.0929 0.6014
C26 C 0.4218(2) 0.14389(19) 0.45733(17)
H19 H 0.3431 0.0760 0.4225
C27 C 0.4492(2) 0.2344(2) 0.40397(16)
C28 C 0.5613(2) 0.3338(2) 0.45127(18)
H20 H 0.5773 0.3953 0.4127
C29 C 0.6513(2) 0.34268(19) 0.55692(17)
H21 H 0.7302 0.4104 0.5912
C30 C 0.2360(2) 0.24932(19) 0.26798(15)
C31 C -0.0022(2) 0.30850(18) 0.20532(15)
loop_
_geom_bond_atom_site_label_1
_geom_bond_atom_site_label_2
_geom_bond_site_symmetry_1
_geom_bond_site_symmetry_2
S1 C1 1_555 1_555
S2 C11 1_555 1_555
O1 C15 1_555 1_555
O2 C22 1_555 1_555
O3 C27 1_555 1_555
N1 N2 1_555 1_555
N2 C15 1_555 1_555
N3 N4 1_555 1_555
N4 C14 1_555 1_555
N5 C19 1_555 1_555
N6 N7 1_555 1_555
N7 C31 1_555 1_555
N8 N9 1_555 1_555
N9 C30 1_555 1_555
C1 C2 1_555 1_555
C2 H1 1_555 1_555
C3 C2 1_555 1_555
H2 C3 1_555 1_555
C4 C3 1_555 1_555
C5 C4 1_555 1_555
H3 C5 1_555 1_555
C6 C1 1_555 1_555
H4 C6 1_555 1_555
C7 C4 1_555 1_555
H5 C7 1_555 1_555
H6 C7 1_555 1_555
C8 C7 1_555 1_555
C9 C8 1_555 1_555
H7 C9 1_555 1_555
C10 C9 1_555 1_555
H8 C10 1_555 1_555
C11 C10 1_555 1_555
C12 C11 1_555 1_555
H9 C12 1_555 1_555
C13 C8 1_555 1_555
H10 C13 1_555 1_555
C14 S2 1_555 1_555
C15 N3 1_555 1_555
C16 O1 1_555 1_555
C17 C16 1_555 1_555
H11 C17 1_555 1_555
C18 C17 1_555 1_555
H12 C18 1_555 1_555
C19 C18 1_555 1_555
C20 C19 1_555 1_555
H13 C20 1_555 1_555
C21 C16 1_555 1_555
H14 C21 1_555 1_555
C22 N5 1_555 1_555
C23 C22 1_555 1_555
H15 C23 1_555 1_555
H16 C23 1_555 1_555
H17 C23 1_555 1_555
C24 N5 1_555 1_555
C25 C24 1_555 1_555
H18 C25 1_555 1_555
C26 C25 1_555 1_555
H19 C26 1_555 1_555
C27 C26 1_555 1_555
C28 C27 1_555 1_555
H20 C28 1_555 1_555
C29 C24 1_555 1_555
H21 C29 1_555 1_555
C30 O3 1_555 1_555
C31 S1 1_555 1_555
N1 C14 1_555 1_555
N6 C30 1_555 1_555
N8 C31 1_555 1_555
C5 C6 1_555 1_555
C12 C13 1_555 1_555
C20 C21 1_555 1_555
C28 C29 1_555 1_555

#END
