
#######################################################################
#
#                 Cambridge Crystallographic Data Centre
#                                CCDC 
#
#######################################################################
#
# If this CIF has been generated from an entry in the Cambridge 
# Structural Database, then it will include bibliographic, chemical, 
# crystal, experimental, refinement or atomic coordinate data resulting 
# from the CCDC's data processing and validation procedures.
#
#######################################################################

data_DEQSUQ
_chemical_formula_moiety         'C30 H19 N9 O3 S3,0.5(C4 H10 O1)'
_chemical_name_systematic        
'1-[2,22-dioxa-7,12,17-trithia-4,5,19,20,27,35,36,41,42-nonaazaheptacyclo[26.2.2.2^3,6^.2^8,11^.2^13,16^.2^18,21^.2^23,26^]dotetraconta-1(30),3,5,8,10,13,15,18,20,23,25,28,31,33,35,37,39,41-octadecaen-27-yl]ethan-1-one diethyl ether solvate'
_symmetry_cell_setting           triclinic
_symmetry_space_group_name_H-M   'P -1'
_symmetry_Int_Tables_number      2
_space_group_name_Hall           '-P 1'
loop_
_symmetry_equiv_pos_site_id
_symmetry_equiv_pos_as_xyz
1 x,y,z
2 -x,-y,-z
_cell_length_a                   10.8041(3)
_cell_length_b                   10.8766(3)
_cell_length_c                   13.6547(3)
_cell_angle_alpha                99.390(2)
_cell_angle_beta                 98.697(2)
_cell_angle_gamma                97.182(2)
_cell_volume                     1546.34
_exptl_crystal_colour            red
_exptl_crystal_description       block
_cell_formula_units_Z            2
loop_
_atom_site_label
_atom_site_type_symbol
_atom_site_fract_x
_atom_site_fract_y
_atom_site_fract_z
S1 S 0.68658(4) 0.94463(4) 0.25713(3)
S2 S 0.34000(4) 0.77844(4) 0.56096(3)
S3 S 0.62978(4) 0.47185(4) 0.85088(3)
O1 O 0.82384(11) 0.50172(11) 0.06151(8)
O2 O 1.04869(11) 0.30962(12) 0.70003(9)
O3 O 1.15264(13) 0.01257(13) 0.30869(10)
N1 N 0.76794(14) 0.80884(13) 0.11006(11)
N2 N 0.80284(14) 0.70516(14) 0.06541(11)
N3 N 0.69338(13) 0.58675(13) 0.16562(11)
N4 N 0.66059(13) 0.69238(12) 0.21322(11)
N5 N 0.77506(13) 0.44973(13) 0.70646(10)
N6 N 0.87443(13) 0.40922(13) 0.67135(10)
N7 N 0.91759(13) 0.30888(13) 0.81322(10)
N8 N 0.81852(13) 0.34753(13) 0.84728(10)
N9 N 1.05033(13) 0.17705(13) 0.28697(10)
C1 C 0.59244(15) 0.89358(14) 0.34338(12)
C2 C 0.46206(16) 0.88913(15) 0.32221(13)
H1 H 0.4238 0.9106 0.2612
C3 C 0.38763(15) 0.85334(15) 0.39000(13)
H2 H 0.2984 0.8508 0.3756
C4 C 0.44341(15) 0.82112(14) 0.47906(12)
C5 C 0.57467(15) 0.82769(15) 0.50093(12)
H3 H 0.6132 0.8071 0.5622
C6 C 0.64894(15) 0.86425(15) 0.43326(13)
H4 H 0.7384 0.8693 0.4483
C7 C 0.43071(14) 0.69443(15) 0.63888(13)
C8 C 0.49212(17) 0.75299(16) 0.73468(14)
H5 H 0.4896 0.8398 0.7576
C9 C 0.55744(16) 0.68489(16) 0.79737(13)
H6 H 0.6008 0.7252 0.8627
C10 C 0.55881(14) 0.55789(15) 0.76391(12)
C11 C 0.49620(15) 0.49837(15) 0.66872(13)
H7 H 0.4966 0.4109 0.6467
C12 C 0.43285(15) 0.56696(15) 0.60551(13)
H8 H 0.3911 0.5269 0.5396
C13 C 0.75265(14) 0.41928(14) 0.79386(12)
C14 C 0.94180(14) 0.34430(15) 0.72769(12)
C15 C 1.04814(14) 0.27955(16) 0.59485(12)
C16 C 1.12063(16) 0.35932(16) 0.54989(13)
H9 H 1.1674 0.4367 0.5877
C17 C 1.12395(16) 0.32421(16) 0.44788(13)
H10 H 1.1740 0.3773 0.4153
C18 C 1.05410(14) 0.21167(15) 0.39396(12)
C19 C 0.98135(15) 0.13329(15) 0.44115(12)
H11 H 0.9334 0.0564 0.4036
C20 C 0.97858(15) 0.16694(15) 0.54278(12)
H12 H 0.9298 0.1135 0.5760
C21 C 0.98778(14) 0.25420(14) 0.22565(12)
C22 C 1.04026(14) 0.29677(14) 0.14848(12)
H13 H 1.1170 0.2713 0.1328
C23 C 0.98071(15) 0.37663(14) 0.09412(12)
H14 H 1.0149 0.4036 0.0397
C24 C 0.87158(14) 0.41663(14) 0.11950(11)
C25 C 0.81568(16) 0.37309(17) 0.19451(13)
H15 H 0.7385 0.3982 0.2095
C26 C 0.87529(16) 0.29175(17) 0.24725(13)
H16 H 0.8383 0.2612 0.2992
C27 C 0.77311(14) 0.60063(15) 0.10297(11)
C28 C 0.70765(14) 0.79975(15) 0.18909(12)
C29 C 1.09241(17) 0.06711(16) 0.25063(13)
C30 C 1.0601(3) 0.01491(19) 0.13920(15)
H17 H 1.1240 0.0536 0.1051
H18 H 0.9766 0.0338 0.1123
H19 H 1.0585 -0.0766 0.1277
O4? O 0.5260(4) 0.9595(4) 0.9827(3)
C31? C 0.7052(5) 1.0899(6) 0.9676(5)
H20? H 0.6952 1.0472 0.8973
H21? H 0.7573 1.0456 1.0111
H22? H 0.7467 1.1771 0.9747
C32? C 0.5788(9) 1.0895(8) 0.9976(11)
H23? H 0.5870 1.1301 1.0691
H24? H 0.5251 1.1349 0.9551
C33? C 0.4069(9) 0.9549(9) 1.0179(10)
H25? H 0.3420 0.9829 0.9707
H26? H 0.4160 1.0077 1.0857
C34? C 0.3740(8) 0.8176(7) 1.0209(5)
H27? H 0.3872 0.7668 0.9583
H28? H 0.2850 0.7994 1.0281
H29? H 0.4282 0.7970 1.0784
loop_
_geom_bond_atom_site_label_1
_geom_bond_atom_site_label_2
_geom_bond_site_symmetry_1
_geom_bond_site_symmetry_2
S1 C1 1_555 1_555
S2 C4 1_555 1_555
S3 C10 1_555 1_555
O1 C24 1_555 1_555
O2 C14 1_555 1_555
O3 C29 1_555 1_555
N1 N2 1_555 1_555
N2 C27 1_555 1_555
N3 N4 1_555 1_555
N4 C28 1_555 1_555
N5 N6 1_555 1_555
N6 C14 1_555 1_555
N7 N8 1_555 1_555
N8 C13 1_555 1_555
N9 C18 1_555 1_555
C1 C2 1_555 1_555
C2 H1 1_555 1_555
C3 C2 1_555 1_555
H2 C3 1_555 1_555
C4 C3 1_555 1_555
C5 C4 1_555 1_555
H3 C5 1_555 1_555
C6 C1 1_555 1_555
H4 C6 1_555 1_555
C7 S2 1_555 1_555
C8 C7 1_555 1_555
H5 C8 1_555 1_555
C9 C8 1_555 1_555
H6 C9 1_555 1_555
C10 C9 1_555 1_555
C11 C10 1_555 1_555
H7 C11 1_555 1_555
C12 C7 1_555 1_555
H8 C12 1_555 1_555
C13 S3 1_555 1_555
C14 N7 1_555 1_555
C15 O2 1_555 1_555
C16 C15 1_555 1_555
H9 C16 1_555 1_555
C17 C16 1_555 1_555
H10 C17 1_555 1_555
C18 C17 1_555 1_555
C19 C18 1_555 1_555
H11 C19 1_555 1_555
C20 C15 1_555 1_555
H12 C20 1_555 1_555
C21 N9 1_555 1_555
C22 C21 1_555 1_555
H13 C22 1_555 1_555
C23 C22 1_555 1_555
H14 C23 1_555 1_555
C24 C23 1_555 1_555
C25 C24 1_555 1_555
H15 C25 1_555 1_555
C26 C21 1_555 1_555
H16 C26 1_555 1_555
C27 O1 1_555 1_555
C28 S1 1_555 1_555
C29 N9 1_555 1_555
C30 C29 1_555 1_555
H17 C30 1_555 1_555
H18 C30 1_555 1_555
H19 C30 1_555 1_555
N1 C28 1_555 1_555
N3 C27 1_555 1_555
N5 C13 1_555 1_555
C5 C6 1_555 1_555
C11 C12 1_555 1_555
C19 C20 1_555 1_555
C25 C26 1_555 1_555

#END
