
#######################################################################
#
#                 Cambridge Crystallographic Data Centre
#                                CCDC 
#
#######################################################################
#
# If this CIF has been generated from an entry in the Cambridge 
# Structural Database, then it will include bibliographic, chemical, 
# crystal, experimental, refinement or atomic coordinate data resulting 
# from the CCDC's data processing and validation procedures.
#
#######################################################################

data_DEQTIF
_chemical_formula_moiety         'C32 H22 N10 O6,2(C3 H7 N1 O1)'
_chemical_name_systematic        
"1,1'-[2,7,17,22-tetraoxa-4,5,12,19,20,27,35,36,41,42-decaazaheptacyclo[26.2.2.2^3,6^.2^8,11^.2^13,16^.2^18,21^.2^23,26^]dotetraconta-1(30),3,5,8,10,13,15,18,20,23,25,28,31,33,35,37,39,41-octadecaene-12,27-diyl]bis(ethan-1-one) N,N-dimethylformamide solvate"
_symmetry_cell_setting           monoclinic
_symmetry_space_group_name_H-M   'P 21/c'
_symmetry_Int_Tables_number      14
_space_group_name_Hall           '-P 2ybc'
loop_
_symmetry_equiv_pos_site_id
_symmetry_equiv_pos_as_xyz
1 x,y,z
2 -x,1/2+y,1/2-z
3 -x,-y,-z
4 x,1/2-y,1/2+z
_cell_length_a                   12.2074(7)
_cell_length_b                   15.7470(8)
_cell_length_c                   10.7007(6)
_cell_angle_alpha                90
_cell_angle_beta                 110.957(7)
_cell_angle_gamma                90
_cell_volume                     1920.92
_exptl_crystal_colour            red
_exptl_crystal_description       block
_cell_formula_units_Z            2
loop_
_atom_site_label
_atom_site_type_symbol
_atom_site_fract_x
_atom_site_fract_y
_atom_site_fract_z
O1 O 0.21415(13) 0.53177(10) 0.48350(14)
O2 O 0.64516(13) 0.63656(10) 0.63516(14)
O3 O -0.04453(15) 0.23884(10) 0.88011(16)
N1 N 0.35915(16) 0.59357(13) 0.43490(18)
N2 N 0.46902(16) 0.62093(12) 0.47387(18)
N3 N 0.50992(16) 0.55408(12) 0.68446(19)
N4 N 0.39926(16) 0.52717(12) 0.64658(19)
N5 N 0.05498(15) 0.34522(11) 0.82911(17)
C1 C 0.32880(19) 0.55204(14) 0.5267(2)
C2 C 0.53623(18) 0.60369(14) 0.6002(2)
C3 C 0.71660(19) 0.63804(14) 0.7722(2)
C4 C 0.82838(19) 0.60668(14) 0.8061(2)
H1 H 0.853435 0.581563 0.740182
C5 C 0.90414(19) 0.61220(14) 0.9379(2)
H2 H 0.981736 0.590684 0.962889
C6 C 0.86705(18) 0.64889(13) 1.0330(2)
C7 C 0.75373(18) 0.68023(14) 0.9965(2)
H3 H 0.728337 0.705043 1.062434
C8 C 0.67731(19) 0.67571(14) 0.8651(2)
H4 H 0.600001 0.697877 0.839427
C9 C 0.17472(18) 0.48485(14) 0.5720(2)
C10 C 0.12384(19) 0.52737(14) 0.6487(2)
H5 H 0.117509 0.587526 0.645564
C11 C 0.08177(19) 0.48000(14) 0.7314(2)
H6 H 0.046321 0.508001 0.785894
C12 C 0.09095(17) 0.39270(13) 0.7351(2)
C13 C 0.1409(2) 0.35175(15) 0.6545(2)
H7 H 0.146146 0.291542 0.655706
C14 C 0.1831(2) 0.39841(15) 0.5718(2)
H8 H 0.217453 0.370754 0.515903
C15 C -0.03073(19) 0.28402(14) 0.7945(2)
C16 C -0.1073(2) 0.27682(15) 0.6500(2)
H9 H -0.067454 0.242581 0.602640
H10 H -0.123074 0.333615 0.610091
H11 H -0.181523 0.249545 0.642664
O1B O 0.78585(13) 0.46823(10) 1.51650(14)
O2B O 0.35484(13) 0.36344(10) 1.36484(14)
O3B O 1.04453(15) 0.76116(10) 1.11989(16)
N1B N 0.64085(16) 0.40643(13) 1.56510(18)
N2B N 0.53098(16) 0.37907(12) 1.52613(18)
N3B N 0.49008(16) 0.44592(12) 1.31554(19)
N4B N 0.60074(16) 0.47283(12) 1.35342(19)
N5B N 0.94502(15) 0.65478(11) 1.17089(17)
C1B C 0.67120(19) 0.44796(14) 1.4733(2)
C2B C 0.46377(18) 0.39631(14) 1.3998(2)
C3B C 0.28340(19) 0.36196(14) 1.2278(2)
C4B C 0.17162(19) 0.39332(14) 1.1939(2)
H1B H 0.146565 0.418437 1.259818
C5B C 0.09586(19) 0.38780(14) 1.0621(2)
H2B H 0.018264 0.409316 1.037111
C6B C 0.13295(18) 0.35111(13) 0.9670(2)
C7B C 0.24627(18) 0.31977(14) 1.0035(2)
H3B H 0.271663 0.294957 0.937566
C8B C 0.32269(19) 0.32429(14) 1.1349(2)
H4B H 0.399999 0.302123 1.160573
C9B C 0.82528(18) 0.51515(14) 1.4280(2)
C10B C 0.87616(19) 0.47263(14) 1.3513(2)
H5B H 0.882491 0.412474 1.354436
C11B C 0.91823(19) 0.52000(14) 1.2686(2)
H6B H 0.953679 0.491999 1.214106
C12B C 0.90905(17) 0.60730(13) 1.2649(2)
C13B C 0.8591(2) 0.64825(15) 1.3455(2)
H7B H 0.853854 0.708458 1.344294
C14B C 0.8169(2) 0.60159(15) 1.4282(2)
H8B H 0.782547 0.629246 1.484097
C15B C 1.03073(19) 0.71598(14) 1.2055(2)
C16B C 1.1073(2) 0.72318(15) 1.3500(2)
H9B H 1.067454 0.757419 1.397360
H10B H 1.123074 0.666385 1.389909
H11B H 1.181523 0.750455 1.357336
O4 O 0.40227(19) 0.72161(13) 0.6827(2)
N6 N 0.3670(2) 0.85333(16) 0.5907(3)
C17 C 0.2910(3) 0.9259(2) 0.5602(4)
H12 H 0.336075 0.976567 0.601409
H13 H 0.227979 0.917125 0.595426
H14 H 0.257066 0.933544 0.462995
C18 C 0.4726(4) 0.8558(3) 0.5605(6)
H15 H 0.452380 0.861193 0.463601
H16 H 0.517221 0.803382 0.591829
H17 H 0.520268 0.904633 0.605534
C19 C 0.3448(2) 0.7862(2) 0.6524(3)
H18 H 0.276536 0.788968 0.675301
loop_
_geom_bond_atom_site_label_1
_geom_bond_atom_site_label_2
_geom_bond_site_symmetry_1
_geom_bond_site_symmetry_2
O1 C1 1_555 1_555
O2 C2 1_555 1_555
O3 C15 1_555 1_555
N1 N2 1_555 1_555
N2 C2 1_555 1_555
N3 N4 1_555 1_555
N4 C1 1_555 1_555
N5 C12 1_555 1_555
C1 N1 1_555 1_555
C2 N3 1_555 1_555
C3 O2 1_555 1_555
C4 C3 1_555 1_555
H1 C4 1_555 1_555
C5 C4 1_555 1_555
H2 C5 1_555 1_555
C6 C5 1_555 1_555
C7 C6 1_555 1_555
H3 C7 1_555 1_555
C8 C3 1_555 1_555
H4 C8 1_555 1_555
C9 O1 1_555 1_555
C10 C9 1_555 1_555
H5 C10 1_555 1_555
C11 C10 1_555 1_555
H6 C11 1_555 1_555
C12 C11 1_555 1_555
C13 C12 1_555 1_555
H7 C13 1_555 1_555
C14 C9 1_555 1_555
H8 C14 1_555 1_555
C15 N5 1_555 1_555
C16 C15 1_555 1_555
H9 C16 1_555 1_555
H10 C16 1_555 1_555
H11 C16 1_555 1_555
O4 C19 1_555 1_555
N6 C17 1_555 1_555
C17 H12 1_555 1_555
H13 C17 1_555 1_555
H14 C17 1_555 1_555
C18 N6 1_555 1_555
H15 C18 1_555 1_555
H16 C18 1_555 1_555
H17 C18 1_555 1_555
C19 N6 1_555 1_555
H18 C19 1_555 1_555
O1B C1B 1_555 1_555
O2B C2B 1_555 1_555
O3B C15B 1_555 1_555
N1B N2B 1_555 1_555
N2B C2B 1_555 1_555
N3B N4B 1_555 1_555
N4B C1B 1_555 1_555
N5B C6 1_555 1_555
C1B N1B 1_555 1_555
C2B N3B 1_555 1_555
C3B O2B 1_555 1_555
C4B C3B 1_555 1_555
H1B C4B 1_555 1_555
C5B C4B 1_555 1_555
H2B C5B 1_555 1_555
C6B N5 1_555 1_555
C7B C6B 1_555 1_555
H3B C7B 1_555 1_555
C8B C3B 1_555 1_555
H4B C8B 1_555 1_555
C9B O1B 1_555 1_555
C10B C9B 1_555 1_555
H5B C10B 1_555 1_555
C11B C10B 1_555 1_555
H6B C11B 1_555 1_555
C12B N5B 1_555 1_555
C13B C12B 1_555 1_555
H7B C13B 1_555 1_555
C14B C9B 1_555 1_555
H8B C14B 1_555 1_555
C15B N5B 1_555 1_555
C16B C15B 1_555 1_555
H9B C16B 1_555 1_555
H10B C16B 1_555 1_555
H11B C16B 1_555 1_555
C7 C8 1_555 1_555
C13 C14 1_555 1_555
C5B C6B 1_555 1_555
C7B C8B 1_555 1_555
C11B C12B 1_555 1_555
C13B C14B 1_555 1_555

#END
