
#######################################################################
#
#                 Cambridge Crystallographic Data Centre
#                                CCDC 
#
#######################################################################
#
# If this CIF has been generated from an entry in the Cambridge 
# Structural Database, then it will include bibliographic, chemical, 
# crystal, experimental, refinement or atomic coordinate data resulting 
# from the CCDC's data processing and validation procedures.
#
#######################################################################

data_DEQTEY
_chemical_formula_moiety         'C22 H24 O7,C1 H4 O1'
_chemical_name_systematic        
'14-Hydroxy-4,5-dimethoxy-1-(3,4-dimethoxyphenyl)-9,12-dioxatetracyclo(6.3.3.0^2,7^.0^11,15^)tetradeca-2,4,6-triene methanol solvate'
_symmetry_cell_setting           triclinic
_symmetry_space_group_name_H-M   'P -1'
_symmetry_Int_Tables_number      2
_space_group_name_Hall           '-P 1'
loop_
_symmetry_equiv_pos_site_id
_symmetry_equiv_pos_as_xyz
1 x,y,z
2 -x,-y,-z
_cell_length_a                   9.522(2)
_cell_length_b                   9.586(2)
_cell_length_c                   12.235(4)
_cell_angle_alpha                99.716(6)
_cell_angle_beta                 105.177(10)
_cell_angle_gamma                89.713(10)
_cell_volume                     1061.47
_exptl_crystal_colour            orange-yellow
_exptl_crystal_description       prism
_chemical_melting_point          122deg.C
_cell_formula_units_Z            2
loop_
_atom_site_label
_atom_site_type_symbol
_atom_site_fract_x
_atom_site_fract_y
_atom_site_fract_z
O1 O -0.0470(3) 0.8019(3) 1.5247(2)
O2 O 0.1184(3) 0.6810(3) 1.6815(2)
O3 O 0.0614(2) 0.6208(2) 1.1541(2)
O4 O 0.3268(2) 0.8040(3) 1.0687(3)
H1 H 0.2715(23) 0.8694(14) 1.0725(34)
O5 O 0.4996(3) 0.5932(3) 1.1587(2)
O6 O 0.2702(2) 0.0454(3) 0.9791(2)
O7 O 0.1451(3) 0.0472(3) 1.1386(2)
C1 C -0.1428(4) 0.8659(4) 1.4388(4)
H2 H -0.2099(18) 0.9220(22) 1.4721(6)
H3 H -0.1959(20) 0.7936(4) 1.3781(11)
H4 H -0.0874(5) 0.9254(21) 1.4083(16)
C2 C 0.2090(4) 0.6184(4) 1.7701(3)
H5 H 0.1938(19) 0.6608(17) 1.8428(4)
H6 H 0.3091(4) 0.6333(22) 1.7714(13)
H7 H 0.1856(18) 0.5185(6) 1.7562(11)
C3 C 0.0496(4) 0.7111(4) 1.4891(3)
C4 C 0.1360(4) 0.6443(4) 1.5739(3)
C5 C 0.2320(4) 0.5460(4) 1.5437(3)
H8 H 0.2870(4) 0.4968(4) 1.5984(3)
C6 C 0.2465(4) 0.5204(4) 1.4326(3)
H9 H 0.3138(4) 0.4561(4) 1.4143(3)
C7 C 0.1639(4) 0.5878(4) 1.3488(3)
C8 C 0.0643(3) 0.6833(4) 1.3794(3)
H10 H 0.0064(3) 0.7293(4) 1.3238(3)
C9 C 0.1905(3) 0.5757(4) 1.2319(3)
C10 C 0.1072(4) 0.6613(4) 1.0612(3)
H11 H 0.0611(4) 0.7473(4) 1.0410(3)
H12 H 0.0811(4) 0.5870(4) 0.9941(3)
C11 C 0.2722(4) 0.6859(4) 1.1024(3)
C12 C 0.3626(4) 0.5623(4) 1.0742(3)
H13 H 0.3742(4) 0.5553(4) 0.9962(3)
C13 C 0.4640(4) 0.6498(4) 1.2648(3)
H14 H 0.5262(4) 0.7325(4) 1.3048(3)
H15 H 0.4768(4) 0.5794(4) 1.3146(3)
C14 C 0.3056(3) 0.6894(4) 1.2312(3)
H16 H 0.2900(3) 0.7825(4) 1.2726(3)
C15 C 0.2968(3) 0.4270(4) 1.0897(3)
C16 C 0.3142(3) 0.2998(4) 1.0220(3)
H17 H 0.3621(3) 0.2985(4) 0.9647(3)
C17 C 0.2600(4) 0.1759(4) 1.0404(3)
C18 C 0.1905(3) 0.1788(4) 1.1277(3)
C19 C 0.1710(3) 0.3041(4) 1.1921(3)
H18 H 0.1209(3) 0.3051(4) 1.2480(3)
C20 C 0.2255(3) 0.4309(4) 1.1749(3)
C21 C 0.3381(4) 0.0364(4) 0.8873(3)
H19 H 0.3405(22) -0.0611(5) 0.8531(13)
H20 H 0.4358(9) 0.0762(22) 0.9166(5)
H21 H 0.2838(15) 0.0879(21) 0.8304(10)
C22 C 0.0615(4) 0.0442(4) 1.2186(4)
H22 H 0.1201(9) 0.0809(23) 1.2947(4)
H23 H 0.0294(22) -0.0516(5) 1.2152(15)
H24 H -0.0216(14) 0.1014(21) 1.2000(13)
O8? O -0.5000 1.0000 1.5000
C23? C -0.4860(19) 1.1090(25) 1.3251(10)
H25? H -0.4590(83) 1.2012(31) 1.3146(17)
H26? H -0.5820(29) 1.0813(84) 1.2768(11)
H27? H -0.4180(65) 1.0418(64) 1.3050(21)
C24? C -0.4930(15) 1.1700(17) 1.3823(19)
H28? H -0.5220(76) 1.1847(35) 1.3040(22)
H29? H -0.3889(16) 1.1800(30) 1.4103(63)
H30? H -0.5365(67) 1.2388(17) 1.4287(58)
C25? C -0.4848(12) 1.1134(8) 1.4507(9)
H31? H -0.3933(12) 1.1613(8) 1.4958(9)
H32? H -0.5608(12) 1.1764(8) 1.4642(9)
C26? C -0.5434(15) 1.0214(14) 1.3887(6)
H33? H -0.6486(15) 1.0110(14) 1.3609(6)
H34? H -0.5017(15) 0.9515(14) 1.3404(6)
loop_
_geom_bond_atom_site_label_1
_geom_bond_atom_site_label_2
_geom_bond_site_symmetry_1
_geom_bond_site_symmetry_2
O1 C1 1_555 1_555
O2 C2 1_555 1_555
O3 C9 1_555 1_555
O4 H1 1_555 1_555
O5 C12 1_555 1_555
O6 C17 1_555 1_555
O7 C18 1_555 1_555
C1 H2 1_555 1_555
H3 C1 1_555 1_555
H4 C1 1_555 1_555
C2 H5 1_555 1_555
H6 C2 1_555 1_555
H7 C2 1_555 1_555
C3 O1 1_555 1_555
C4 O2 1_555 1_555
C5 C4 1_555 1_555
H8 C5 1_555 1_555
C6 C5 1_555 1_555
H9 C6 1_555 1_555
C7 C6 1_555 1_555
C8 C3 1_555 1_555
H10 C8 1_555 1_555
C9 C7 1_555 1_555
C10 O3 1_555 1_555
H11 C10 1_555 1_555
H12 C10 1_555 1_555
C11 O4 1_555 1_555
C12 C11 1_555 1_555
H13 C12 1_555 1_555
C13 O5 1_555 1_555
H14 C13 1_555 1_555
H15 C13 1_555 1_555
C14 C9 1_555 1_555
H16 C14 1_555 1_555
C15 C12 1_555 1_555
C16 C15 1_555 1_555
H17 C16 1_555 1_555
C17 C16 1_555 1_555
C18 C17 1_555 1_555
C19 C18 1_555 1_555
H18 C19 1_555 1_555
C20 C9 1_555 1_555
C21 O6 1_555 1_555
H19 C21 1_555 1_555
H20 C21 1_555 1_555
H21 C21 1_555 1_555
C22 O7 1_555 1_555
H22 C22 1_555 1_555
H23 C22 1_555 1_555
H24 C22 1_555 1_555
C3 C4 1_555 1_555
C7 C8 1_555 1_555
C10 C11 1_555 1_555
C11 C14 1_555 1_555
C13 C14 1_555 1_555
C15 C20 1_555 1_555
C19 C20 1_555 1_555

#END
