
#######################################################################
#
#                 Cambridge Crystallographic Data Centre
#                                CCDC 
#
#######################################################################
#
# If this CIF has been generated from an entry in the Cambridge 
# Structural Database, then it will include bibliographic, chemical, 
# crystal, experimental, refinement or atomic coordinate data resulting 
# from the CCDC's data processing and validation procedures.
#
#######################################################################

data_DEQVUT
_chemical_formula_moiety         'C26 H22 Br2 O4'
_chemical_name_systematic        
'8-(4-bromophenyl)-2-[2-(4-bromophenyl)ethenyl]bicyclo[3.2.1]octa-3,6-diene-3,6-diyl diacetate'
_symmetry_cell_setting           monoclinic
_symmetry_space_group_name_H-M   'P 21/n'
_symmetry_Int_Tables_number      14
_space_group_name_Hall           '-P 2yn'
loop_
_symmetry_equiv_pos_site_id
_symmetry_equiv_pos_as_xyz
1 x,y,z
2 1/2-x,1/2+y,1/2-z
3 -x,-y,-z
4 1/2+x,1/2-y,1/2+z
_cell_length_a                   13.8138(14)
_cell_length_b                   10.2034(10)
_cell_length_c                   17.2024(18)
_cell_angle_alpha                90
_cell_angle_beta                 91.600(2)
_cell_angle_gamma                90
_cell_volume                     2423.69
_exptl_crystal_colour            colorless
_exptl_crystal_description       prismatic
_cell_formula_units_Z            4
loop_
_atom_site_label
_atom_site_type_symbol
_atom_site_fract_x
_atom_site_fract_y
_atom_site_fract_z
Br1 Br -0.21435(4) -0.18928(7) 0.47382(4)
Br2 Br 0.84621(3) 0.39118(4) 0.44264(3)
O1 O 0.55514(17) -0.2008(2) 0.30570(13)
O2 O 0.5359(2) -0.2616(3) 0.42996(16)
O3 O 0.26314(17) -0.0494(2) 0.15665(13)
O4 O 0.2094(2) 0.1532(3) 0.12922(15)
C1 C 0.5039(2) -0.0845(3) 0.31160(18)
C2 C 0.4423(2) -0.0410(3) 0.36243(18)
H1 H 0.4260 -0.0820 0.4085
C3 C 0.4025(2) 0.0885(3) 0.33211(18)
H2 H 0.3899 0.1493 0.3747
C4 C 0.4860(2) 0.1374(3) 0.28212(18)
H3 H 0.4608 0.1994 0.2430
C5 C 0.5108(2) 0.0058(3) 0.24239(17)
H4 H 0.5746 0.0053 0.2190
C6 C 0.4292(2) -0.0297(3) 0.18595(18)
H5 H 0.4419 -0.0714 0.1393
C7 C 0.3400(2) -0.0002(3) 0.20418(18)
C8 C 0.3113(2) 0.0704(3) 0.27806(19)
H6 H 0.2877 0.1577 0.2632
C9 C 0.2302(2) -0.0003(3) 0.31641(19)
H7 H 0.2414 -0.0854 0.3339
C10 C 0.1440(2) 0.0516(4) 0.3268(2)
H8 H 0.1352 0.1369 0.3088
C11 C 0.0606(2) -0.0087(4) 0.3630(2)
C12 C 0.0621(3) -0.1344(4) 0.3941(2)
H9 H 0.1188 -0.1834 0.3928
C13 C -0.0189(3) -0.1879(5) 0.4268(2)
H10 H -0.0167 -0.2722 0.4473
C14 C -0.1022(3) -0.1164(5) 0.4289(2)
C15 C -0.1070(3) 0.0072(5) 0.3992(3)
H11 H -0.1639 0.0555 0.4010
C16 C -0.0257(3) 0.0592(4) 0.3665(3)
H12 H -0.0291 0.1433 0.3458
C17 C 0.2004(3) 0.0375(4) 0.12406(19)
C18 C 0.1215(3) -0.0337(4) 0.0809(3)
H13 H 0.0807 0.0283 0.0536
H14 H 0.0837 -0.0824 0.1169
H15 H 0.1492 -0.0928 0.0442
C19 C 0.5658(2) -0.2836(3) 0.3678(2)
C20 C 0.6206(3) -0.4025(4) 0.3438(3)
H16 H 0.6304 -0.4592 0.3878
H17 H 0.6823 -0.3766 0.3245
H18 H 0.5845 -0.4480 0.3037
C21 C 0.5730(2) 0.1964(3) 0.32427(18)
C22 C 0.6468(3) 0.2493(3) 0.2804(2)
H19 H 0.6408 0.2473 0.2264
C23 C 0.7284(3) 0.3043(4) 0.3147(2)
H20 H 0.7768 0.3390 0.2843
C24 C 0.7373(2) 0.3073(3) 0.3945(2)
C25 C 0.6668(2) 0.2554(3) 0.4399(2)
H21 H 0.6737 0.2573 0.4938
C26 C 0.5851(2) 0.2001(3) 0.40461(19)
H22 H 0.5373 0.1649 0.4354
loop_
_geom_bond_atom_site_label_1
_geom_bond_atom_site_label_2
_geom_bond_site_symmetry_1
_geom_bond_site_symmetry_2
Br1 C14 1_555 1_555
Br2 C24 1_555 1_555
O1 C1 1_555 1_555
O2 C19 1_555 1_555
O3 C7 1_555 1_555
O4 C17 1_555 1_555
C1 C2 1_555 1_555
C2 H1 1_555 1_555
C3 C2 1_555 1_555
H2 C3 1_555 1_555
C4 C3 1_555 1_555
H3 C4 1_555 1_555
C5 C1 1_555 1_555
H4 C5 1_555 1_555
C6 C5 1_555 1_555
H5 C6 1_555 1_555
C7 C6 1_555 1_555
C8 C3 1_555 1_555
H6 C8 1_555 1_555
C9 C8 1_555 1_555
H7 C9 1_555 1_555
C10 C9 1_555 1_555
H8 C10 1_555 1_555
C11 C10 1_555 1_555
C12 C11 1_555 1_555
H9 C12 1_555 1_555
C13 C12 1_555 1_555
H10 C13 1_555 1_555
C14 C13 1_555 1_555
C15 C14 1_555 1_555
H11 C15 1_555 1_555
C16 C11 1_555 1_555
H12 C16 1_555 1_555
C17 O3 1_555 1_555
C18 C17 1_555 1_555
H13 C18 1_555 1_555
H14 C18 1_555 1_555
H15 C18 1_555 1_555
C19 O1 1_555 1_555
C20 C19 1_555 1_555
H16 C20 1_555 1_555
H17 C20 1_555 1_555
H18 C20 1_555 1_555
C21 C4 1_555 1_555
C22 C21 1_555 1_555
H19 C22 1_555 1_555
C23 C22 1_555 1_555
H20 C23 1_555 1_555
C24 C23 1_555 1_555
C25 C24 1_555 1_555
H21 C25 1_555 1_555
C26 C21 1_555 1_555
H22 C26 1_555 1_555
C4 C5 1_555 1_555
C7 C8 1_555 1_555
C15 C16 1_555 1_555
C25 C26 1_555 1_555

#END
