
#######################################################################
#
#                 Cambridge Crystallographic Data Centre
#                                CCDC 
#
#######################################################################
#
# If this CIF has been generated from an entry in the Cambridge 
# Structural Database, then it will include bibliographic, chemical, 
# crystal, experimental, refinement or atomic coordinate data resulting 
# from the CCDC's data processing and validation procedures.
#
#######################################################################

data_DEQWAA
_chemical_formula_moiety         'C33 H34 O9 S1'
_chemical_name_systematic        
'7-oxo-8-(3,4,5-trimethoxyphenyl)-4-[2-(3,4,5-trimethoxyphenyl)ethenyl]bicyclo[3.2.1]oct-2-en-3-yl thiophene-2-carboxylate unknown solvate'
_symmetry_cell_setting           triclinic
_symmetry_space_group_name_H-M   'P -1'
_symmetry_Int_Tables_number      2
_space_group_name_Hall           '-P 1'
loop_
_symmetry_equiv_pos_site_id
_symmetry_equiv_pos_as_xyz
1 x,y,z
2 -x,-y,-z
_cell_length_a                   6.6837(18)
_cell_length_b                   16.250(5)
_cell_length_c                   16.626(4)
_cell_angle_alpha                97.272(5)
_cell_angle_beta                 95.356(6)
_cell_angle_gamma                100.408(5)
_cell_volume                     1749.21
_exptl_crystal_colour            colorless
_exptl_crystal_description       prismatic
_cell_formula_units_Z            2
loop_
_atom_site_label
_atom_site_type_symbol
_atom_site_fract_x
_atom_site_fract_y
_atom_site_fract_z
S1 S 0.0634(5) 0.6495(3) 0.1811(3)
C1 C -0.334(3) 0.6365(12) 0.1701(13)
H1 H -0.4656 0.6485 0.1656
O1 O 0.6282(3) 1.05183(18) 0.10150(17)
O2 O 0.3580(4) 0.8895(2) 0.60197(15)
O3 O 0.6787(4) 0.8143(2) 0.59977(16)
O4 O 0.8169(4) 0.7640(2) 0.45923(17)
O5 O 0.5120(4) 1.33803(15) 0.04449(17)
O6 O 0.2746(4) 1.43098(13) 0.12450(16)
O7 O -0.0270(4) 1.35787(15) 0.20066(17)
O8 O -0.2688(4) 0.81884(16) 0.1568(2)
O9 O 0.0605(3) 0.81586(12) 0.13998(14)
C2 C 0.4241(5) 1.0652(2) 0.2128(2)
H2 H 0.4887 1.1225 0.2366
H3 H 0.4769 1.0262 0.2448
C3 C 0.4643(4) 1.04772(19) 0.1249(2)
C4 C 0.2563(4) 1.02429(18) 0.0729(2)
H4 H 0.2603 1.0386 0.0175
C5 C 0.1263(4) 1.07419(17) 0.12441(18)
H5 H -0.0195 1.0505 0.1081
C6 C 0.1924(4) 1.05303(18) 0.21036(19)
H6 H 0.1549 1.0926 0.2532
C7 C 0.0916(5) 0.96127(19) 0.21645(19)
H7 H -0.0550 0.9600 0.2186
C8 C 0.1116(4) 0.90462(18) 0.1396(2)
C9 C 0.1841(4) 0.93104(18) 0.07502(19)
H8 H 0.1913 0.8920 0.0299
C10 C 0.1741(5) 0.9342(2) 0.2945(2)
H9 H 0.1217 0.9535 0.3417
C11 C 0.3120(5) 0.8864(2) 0.3034(2)
H10 H 0.3573 0.8634 0.2559
C12 C 0.4019(5) 0.8656(2) 0.3812(2)
C13 C 0.3321(5) 0.8899(2) 0.4551(2)
H11 H 0.2249 0.9193 0.4559
C14 C 0.4203(5) 0.8709(2) 0.5276(2)
C15 C 0.5842(5) 0.8293(2) 0.5264(2)
C16 C 0.6550(5) 0.8047(2) 0.4537(2)
C17 C 0.5638(5) 0.8224(2) 0.3809(2)
H12 H 0.6110 0.8052 0.3318
C18 C 0.1889(6) 0.9316(4) 0.6062(3)
H13 H 0.2175 0.9829 0.5827
H14 H 0.1673 0.9450 0.6623
H15 H 0.0681 0.8954 0.5766
C19 C 0.6119(10) 0.7330(4) 0.6199(3)
H16 H 0.4649 0.7199 0.6133
H17 H 0.6627 0.7316 0.6755
H18 H 0.6626 0.6922 0.5844
C20 C 0.8864(7) 0.7321(3) 0.3861(3)
H19 H 0.7771 0.6919 0.3533
H20 H 0.9993 0.7050 0.3988
H21 H 0.9302 0.7779 0.3565
C21 C 0.1681(4) 1.16897(18) 0.12122(19)
C22 C 0.3201(5) 1.20716(19) 0.0802(2)
H22 H 0.3977 1.1743 0.0514
C23 C 0.3593(5) 1.2951(2) 0.0813(2)
C24 C 0.2387(5) 1.34338(19) 0.1222(2)
C25 C 0.0840(5) 1.3047(2) 0.1630(2)
C26 C 0.0497(5) 1.21790(19) 0.1627(2)
H23 H -0.0533 1.1923 0.1905
C27 C 0.6431(6) 1.2910(3) 0.0045(3)
H24 H 0.7078 1.2615 0.0428
H25 H 0.7460 1.3287 -0.0167
H26 H 0.5642 1.2509 -0.0395
C28 C 0.2184(8) 1.4582(3) 0.0491(3)
H27 H 0.2937 1.4357 0.0080
H28 H 0.2492 1.5189 0.0554
H29 H 0.0742 1.4385 0.0329
C29 C -0.1850(7) 1.3224(3) 0.2443(3)
H30 H -0.2821 1.2797 0.2081
H31 H -0.2528 1.3659 0.2663
H32 H -0.1272 1.2974 0.2880
C30 C -0.1298(5) 0.7816(2) 0.1547(2)
C31 C -0.1410(5) 0.69299(19) 0.1665(2)
C32 C -0.2699(8) 0.5507(3) 0.1834(3)
C33 C -0.0692(8) 0.5590(3) 0.1891(3)
H33 H -0.369(7) 0.503(3) 0.188(3)
H34 H 0.014(7) 0.515(3) 0.197(3)
S2? S -0.3714(10) 0.6269(5) 0.1654(6)
C34? C 0.016(5) 0.653(3) 0.177(3)
H35? H 0.1529 0.6769 0.1766
loop_
_geom_bond_atom_site_label_1
_geom_bond_atom_site_label_2
_geom_bond_site_symmetry_1
_geom_bond_site_symmetry_2
S1 C31 1_555 1_555
C1 H1 1_555 1_555
O1 C3 1_555 1_555
O2 C14 1_555 1_555
O3 C15 1_555 1_555
O4 C16 1_555 1_555
O5 C23 1_555 1_555
O6 C24 1_555 1_555
O7 C25 1_555 1_555
O8 C30 1_555 1_555
O9 C8 1_555 1_555
C2 H2 1_555 1_555
H3 C2 1_555 1_555
C3 C2 1_555 1_555
C4 C3 1_555 1_555
H4 C4 1_555 1_555
C5 C4 1_555 1_555
H5 C5 1_555 1_555
C6 C2 1_555 1_555
H6 C6 1_555 1_555
C7 C6 1_555 1_555
H7 C7 1_555 1_555
C8 C7 1_555 1_555
C9 C4 1_555 1_555
H8 C9 1_555 1_555
C10 C7 1_555 1_555
H9 C10 1_555 1_555
C11 C10 1_555 1_555
H10 C11 1_555 1_555
C12 C11 1_555 1_555
C13 C12 1_555 1_555
H11 C13 1_555 1_555
C14 C13 1_555 1_555
C15 C14 1_555 1_555
C16 C15 1_555 1_555
C17 C12 1_555 1_555
H12 C17 1_555 1_555
C18 O2 1_555 1_555
H13 C18 1_555 1_555
H14 C18 1_555 1_555
H15 C18 1_555 1_555
C19 O3 1_555 1_555
H16 C19 1_555 1_555
H17 C19 1_555 1_555
H18 C19 1_555 1_555
C20 O4 1_555 1_555
H19 C20 1_555 1_555
H20 C20 1_555 1_555
H21 C20 1_555 1_555
C21 C5 1_555 1_555
C22 C21 1_555 1_555
H22 C22 1_555 1_555
C23 C22 1_555 1_555
C24 C23 1_555 1_555
C25 C24 1_555 1_555
C26 C21 1_555 1_555
H23 C26 1_555 1_555
C27 O5 1_555 1_555
H24 C27 1_555 1_555
H25 C27 1_555 1_555
H26 C27 1_555 1_555
C28 O6 1_555 1_555
H27 C28 1_555 1_555
H28 C28 1_555 1_555
H29 C28 1_555 1_555
C29 O7 1_555 1_555
H30 C29 1_555 1_555
H31 C29 1_555 1_555
H32 C29 1_555 1_555
C30 O9 1_555 1_555
C31 C1 1_555 1_555
C32 C1 1_555 1_555
C33 S1 1_555 1_555
H33 C32 1_555 1_555
H34 C33 1_555 1_555
C5 C6 1_555 1_555
C8 C9 1_555 1_555
C16 C17 1_555 1_555
C25 C26 1_555 1_555
C30 C31 1_555 1_555
C32 C33 1_555 1_555

#END
