
#######################################################################
#
#                 Cambridge Crystallographic Data Centre
#                                CCDC 
#
#######################################################################
#
# If this CIF has been generated from an entry in the Cambridge 
# Structural Database, then it will include bibliographic, chemical, 
# crystal, experimental, refinement or atomic coordinate data resulting 
# from the CCDC's data processing and validation procedures.
#
#######################################################################

data_DERKET
_chemical_formula_moiety         'C20 H47 N4 Na1 O4,2(C4 H10 O2)'
_chemical_name_systematic        
'(2-methylpropane-2-peroxol)-(2-methylpropane-2-peroxolato)-(1,4,7,10-tetramethyl-1,4,7,10-tetraazacyclododecane)-sodium 2-methylpropane-2-peroxol solvate'
_symmetry_cell_setting           monoclinic
_symmetry_space_group_name_H-M   'C c'
_symmetry_Int_Tables_number      9
_space_group_name_Hall           'C -2yc'
loop_
_symmetry_equiv_pos_site_id
_symmetry_equiv_pos_as_xyz
1 x,y,z
2 x,-y,1/2+z
3 1/2+x,1/2+y,z
4 1/2+x,1/2-y,1/2+z
_cell_length_a                   10.1841(7)
_cell_length_b                   30.192(2)
_cell_length_c                   12.7762(9)
_cell_angle_alpha                90
_cell_angle_beta                 108.8145(16)
_cell_angle_gamma                90
_cell_volume                     3718.5
_exptl_crystal_colour            colorless
_exptl_crystal_description       block
_cell_formula_units_Z            4
_chemical_properties_physical    Air-sensitive,Moisture-sensitive
_exptl_crystal_recrystallization_method Toluene/n-pentane
loop_
_atom_site_label
_atom_site_type_symbol
_atom_site_fract_x
_atom_site_fract_y
_atom_site_fract_z
Na1 Na 0.21969(17) 0.87421(5) 0.03943(13)
O1 O -0.0281(3) 0.89391(10) -0.0634(3)
O2 O 0.0431(3) 0.93120(9) 0.0058(3)
O3 O -0.0212(5) 0.84898(11) 0.0942(3)
H1 H -0.034(7) 0.868(2) 0.015(6)
O4 O 0.0118(4) 0.80425(10) 0.0648(3)
N1 N 0.2716(4) 0.82270(13) -0.0974(3)
N2 N 0.3247(4) 0.92108(13) -0.0831(3)
N3 N 0.4352(4) 0.91207(13) 0.1655(3)
N4 N 0.3881(4) 0.81300(12) 0.1519(3)
C1 C 0.3533(17) 0.8424(6) -0.1531(13)
H2 H 0.344680 0.825273 -0.221088
H3 H 0.451649 0.841351 -0.105624
C2 C 0.3119(11) 0.8904(4) -0.1841(8)
H4 H 0.214745 0.891017 -0.234049
H5 H 0.371184 0.902359 -0.225407
C3 C 0.4618(10) 0.9291(4) -0.0223(8)
H6 H 0.500446 0.951486 -0.060803
H7 H 0.515978 0.901459 -0.016727
C4 C 0.4753(14) 0.9454(4) 0.0920(11)
H8 H 0.416484 0.972063 0.085193
H9 H 0.572678 0.954511 0.128934
C5 C 0.5470(9) 0.8794(3) 0.2033(9)
H10 H 0.623201 0.892260 0.265070
H11 H 0.584016 0.872948 0.142194
C6 C 0.5001(14) 0.8369(5) 0.2412(10)
H12 H 0.465054 0.843447 0.303378
H13 H 0.581050 0.816976 0.269339
C7 C 0.4498(15) 0.7922(5) 0.0741(10)
H14 H 0.497860 0.764559 0.107160
H15 H 0.519608 0.812463 0.061473
C8 C 0.3397(14) 0.7815(4) -0.0363(9)
H16 H 0.383255 0.764817 -0.083118
H17 H 0.267820 0.762391 -0.022962
C9 C 0.1412(6) 0.8041(2) -0.1665(5)
H18 H 0.158875 0.783053 -0.218909
H19 H 0.080888 0.827896 -0.207372
H20 H 0.095819 0.788682 -0.120014
C10 C 0.2377(6) 0.95672(19) -0.1409(5)
H21 H 0.285743 0.973342 -0.183529
H22 H 0.217055 0.976499 -0.087397
H23 H 0.150942 0.944604 -0.191113
C11 C 0.4004(6) 0.9396(2) 0.2454(5)
H24 H 0.346897 0.965329 0.207805
H25 H 0.485845 0.949775 0.301383
H26 H 0.345068 0.922505 0.281137
C12 C 0.3299(7) 0.7836(2) 0.2158(6)
H27 H 0.318711 0.799779 0.278829
H28 H 0.392493 0.758431 0.242633
H29 H 0.239352 0.772782 0.168794
C13 C -0.0546(5) 0.96413(15) 0.0157(4)
C14 C -0.1626(6) 0.9436(2) 0.0578(5)
H30 H -0.220536 0.923346 0.001843
H31 H -0.220794 0.966922 0.073088
H32 H -0.116820 0.927103 0.125907
C15 C -0.1207(7) 0.98632(18) -0.0954(5)
H33 H -0.048832 1.001128 -0.118428
H34 H -0.188800 1.008214 -0.089171
H35 H -0.167130 0.963947 -0.150529
C16 C 0.0363(6) 0.99595(18) 0.0997(5)
H36 H 0.077815 0.980508 0.170158
H37 H -0.019909 1.020785 0.110487
H38 H 0.110019 1.007141 0.072898
C17 C -0.1062(5) 0.77569(16) 0.0553(4)
C18 C -0.2283(6) 0.7891(2) -0.0429(5)
H39 H -0.261132 0.818365 -0.029708
H40 H -0.303142 0.767390 -0.053708
H41 H -0.199780 0.790070 -0.109203
C19 C -0.1413(7) 0.7765(2) 0.1632(5)
H42 H -0.057170 0.770711 0.225682
H43 H -0.210775 0.753756 0.160660
H44 H -0.178330 0.805719 0.172425
C20 C -0.0494(6) 0.73076(16) 0.0363(5)
H45 H -0.015007 0.732703 -0.026928
H46 H -0.123379 0.708556 0.021024
H47 H 0.026696 0.722153 0.102444
O5 O -0.0649(4) 0.88996(17) -0.2776(3)
H48 H -0.042(11) 0.892(3) -0.187(13)
O6 O -0.1721(4) 0.92076(14) -0.3313(3)
C21 C -0.3024(5) 0.89697(19) -0.3730(4)
C22 C -0.3014(7) 0.8621(3) -0.4570(5)
H49 H -0.277620 0.875768 -0.518133
H50 H -0.393374 0.848431 -0.485532
H51 H -0.232446 0.839373 -0.422074
C23 C -0.3414(5) 0.87743(19) -0.2790(4)
H52 H -0.274107 0.854509 -0.242416
H53 H -0.434171 0.864273 -0.307468
H54 H -0.341471 0.900753 -0.225622
C24 C -0.3958(8) 0.9353(3) -0.4256(8)
H55 H -0.403586 0.955502 -0.367829
H56 H -0.488006 0.924101 -0.467801
H57 H -0.356385 0.951241 -0.475361
O7 O 0.1665(5) 0.87000(15) 0.2845(4)
H58 H 0.100(6) 0.8676(16) 0.221(4)
O8 O 0.1391(4) 0.83999(12) 0.3652(3)
C25 C 0.0906(5) 0.86606(16) 0.4402(4)
C26 C -0.0406(6) 0.89029(18) 0.3784(4)
H59 H -0.020893 0.911970 0.328301
H60 H -0.076404 0.905623 0.431122
H61 H -0.109896 0.869064 0.335408
C27 C 0.2052(7) 0.8970(2) 0.5043(5)
H62 H 0.289758 0.879937 0.539492
H63 H 0.176869 0.912343 0.561166
H64 H 0.223092 0.918836 0.453725
C28 C 0.0638(6) 0.83109(18) 0.5153(4)
H65 H -0.000614 0.808930 0.470781
H66 H 0.023095 0.844939 0.567035
H67 H 0.151381 0.816715 0.556748
C29? C 0.309(3) 0.8539(8) -0.182(2)
H68? H 0.357161 0.836124 -0.222954
H69? H 0.221142 0.864693 -0.235451
C30? C 0.3976(17) 0.8934(4) -0.1329(11)
H70? H 0.485194 0.883554 -0.077295
H71? H 0.420863 0.909746 -0.191784
C31? C 0.4356(15) 0.9525(6) 0.0031(13)
H72? H 0.501250 0.964169 -0.032902
H73? H 0.386113 0.978054 0.021358
C32? C 0.518(2) 0.9293(6) 0.1096(17)
H74? H 0.572608 0.905066 0.092097
H75? H 0.583221 0.950642 0.158158
C33? C 0.5071(15) 0.8778(5) 0.2532(13)
H76? H 0.601186 0.888320 0.296078
H77? H 0.453701 0.873646 0.304897
C34? C 0.517(3) 0.8344(8) 0.1975(17)
H78? H 0.557581 0.839920 0.137891
H79? H 0.580787 0.814434 0.252169
C35? C 0.388(2) 0.7790(7) 0.0661(17)
H80? H 0.467046 0.758509 0.097957
H81? H 0.301844 0.761400 0.048865
C36? C 0.399(2) 0.7975(7) -0.0398(14)
H82? H 0.480882 0.817262 -0.023631
H83? H 0.411192 0.773119 -0.087597
H84? H 0.313939 0.955590 0.208878
H85? H 0.475298 0.960985 0.276900
H86? H 0.388573 0.921033 0.304548
H87? H 0.286254 0.801231 0.259867
H88? H 0.404008 0.765415 0.264992
H89? H 0.260294 0.764345 0.165397
loop_
_geom_bond_atom_site_label_1
_geom_bond_atom_site_label_2
_geom_bond_site_symmetry_1
_geom_bond_site_symmetry_2
Na1 O1 1_555 1_555
O1 O2 1_555 1_555
O2 Na1 1_555 1_555
O3 Na1 1_555 1_555
H1 O3 1_555 1_555
O4 O3 1_555 1_555
N1 Na1 1_555 1_555
N2 Na1 1_555 1_555
N3 Na1 1_555 1_555
N4 Na1 1_555 1_555
C1 N1 1_555 1_555
H2 C1 1_555 1_555
H3 C1 1_555 1_555
C2 N2 1_555 1_555
H4 C2 1_555 1_555
H5 C2 1_555 1_555
C3 N2 1_555 1_555
H6 C3 1_555 1_555
H7 C3 1_555 1_555
C4 N3 1_555 1_555
H8 C4 1_555 1_555
H9 C4 1_555 1_555
C5 N3 1_555 1_555
H10 C5 1_555 1_555
H11 C5 1_555 1_555
C6 N4 1_555 1_555
H12 C6 1_555 1_555
H13 C6 1_555 1_555
C7 N4 1_555 1_555
H14 C7 1_555 1_555
H15 C7 1_555 1_555
C8 N1 1_555 1_555
H16 C8 1_555 1_555
H17 C8 1_555 1_555
C9 N1 1_555 1_555
H18 C9 1_555 1_555
H19 C9 1_555 1_555
H20 C9 1_555 1_555
C10 N2 1_555 1_555
H21 C10 1_555 1_555
H22 C10 1_555 1_555
H23 C10 1_555 1_555
C11 N3 1_555 1_555
H24 C11 1_555 1_555
H25 C11 1_555 1_555
H26 C11 1_555 1_555
C12 N4 1_555 1_555
H27 C12 1_555 1_555
H28 C12 1_555 1_555
H29 C12 1_555 1_555
C13 O2 1_555 1_555
C14 C13 1_555 1_555
H30 C14 1_555 1_555
H31 C14 1_555 1_555
H32 C14 1_555 1_555
C15 C13 1_555 1_555
H33 C15 1_555 1_555
H34 C15 1_555 1_555
H35 C15 1_555 1_555
C16 C13 1_555 1_555
H36 C16 1_555 1_555
H37 C16 1_555 1_555
H38 C16 1_555 1_555
C17 O4 1_555 1_555
C18 C17 1_555 1_555
H39 C18 1_555 1_555
H40 C18 1_555 1_555
H41 C18 1_555 1_555
C19 C17 1_555 1_555
H42 C19 1_555 1_555
H43 C19 1_555 1_555
H44 C19 1_555 1_555
C20 C17 1_555 1_555
H45 C20 1_555 1_555
H46 C20 1_555 1_555
H47 C20 1_555 1_555
O5 H48 1_555 1_555
O6 O5 1_555 1_555
C21 O6 1_555 1_555
C22 C21 1_555 1_555
H49 C22 1_555 1_555
H50 C22 1_555 1_555
H51 C22 1_555 1_555
C23 C21 1_555 1_555
H52 C23 1_555 1_555
H53 C23 1_555 1_555
H54 C23 1_555 1_555
C24 C21 1_555 1_555
H55 C24 1_555 1_555
H56 C24 1_555 1_555
H57 C24 1_555 1_555
O7 H58 1_555 1_555
O8 O7 1_555 1_555
C25 O8 1_555 1_555
C26 C25 1_555 1_555
H59 C26 1_555 1_555
H60 C26 1_555 1_555
H61 C26 1_555 1_555
C27 C25 1_555 1_555
H62 C27 1_555 1_555
H63 C27 1_555 1_555
H64 C27 1_555 1_555
C28 C25 1_555 1_555
H65 C28 1_555 1_555
H66 C28 1_555 1_555
H67 C28 1_555 1_555
C1 C2 1_555 1_555
C3 C4 1_555 1_555
C5 C6 1_555 1_555
C7 C8 1_555 1_555

#END
