
#######################################################################
#
#                 Cambridge Crystallographic Data Centre
#                                CCDC 
#
#######################################################################
#
# If this CIF has been generated from an entry in the Cambridge 
# Structural Database, then it will include bibliographic, chemical, 
# crystal, experimental, refinement or atomic coordinate data resulting 
# from the CCDC's data processing and validation procedures.
#
#######################################################################

data_DERTIG
_chemical_formula_moiety         'C14 H12 B2 Br5 F4 N5'
_chemical_name_systematic        
1,2,3,8,9-pentabromo-10-(butylamino)-5,5,12,12-tetrafluoro-5H,12H-pyrrolo[1,2-d]pyrrolo[1',2':4,5][1,2,4,3]triazaborate[2,1-a][1,2,4,3]triazaborate-6,13-diium
_symmetry_cell_setting           monoclinic
_symmetry_space_group_name_H-M   'P 21/c'
_symmetry_Int_Tables_number      14
_space_group_name_Hall           '-P 2ybc'
loop_
_symmetry_equiv_pos_site_id
_symmetry_equiv_pos_as_xyz
1 x,y,z
2 -x,1/2+y,1/2-z
3 -x,-y,-z
4 x,1/2-y,1/2+z
_cell_length_a                   16.8592(13)
_cell_length_b                   9.1588(7)
_cell_length_c                   14.7664(12)
_cell_angle_alpha                90
_cell_angle_beta                 107.041(1)
_cell_angle_gamma                90
_cell_volume                     2179.97
_exptl_crystal_colour            'metallic reddish red'
_exptl_crystal_description       cube
_cell_formula_units_Z            4
loop_
_atom_site_label
_atom_site_type_symbol
_atom_site_fract_x
_atom_site_fract_y
_atom_site_fract_z
Br1 Br 0.10946(4) 0.55046(8) 0.51940(6)
Br2 Br 0.05750(4) 0.16972(8) 0.51856(6)
Br3 Br 0.25316(4) -0.02729(6) 0.56691(5)
Br4 Br 0.59944(4) 0.89505(6) 0.61047(6)
Br5 Br 0.79149(4) 0.71024(7) 0.68804(5)
F1 F 0.3103(2) 0.6158(4) 0.6704(3)
F2 F 0.2942(2) 0.6538(4) 0.5159(3)
F3 F 0.5529(2) 0.2069(4) 0.6352(5)
F4 F 0.5476(2) 0.3314(7) 0.7640(3)
N1 N 0.4394(2) 0.3684(4) 0.6202(3)
N2 N 0.2654(3) 0.4146(5) 0.5655(3)
N3 N 0.4092(3) 0.5098(4) 0.5998(3)
N4 N 0.5855(3) 0.4572(4) 0.6458(3)
N5 N 0.7178(3) 0.3552(5) 0.6977(4)
H1 H 0.6941(3) 0.2767(5) 0.7088(4)
C1 C 0.1826(3) 0.3954(6) 0.5441(4)
C2 C 0.1636(3) 0.2488(6) 0.5425(4)
C3 C 0.2379(3) 0.1727(6) 0.5640(4)
C4 C 0.3008(3) 0.2775(5) 0.5796(4)
C5 C 0.3872(3) 0.2614(6) 0.6090(4)
H2 H 0.4085(3) 0.1675(6) 0.6215(4)
C6 C 0.4650(3) 0.6147(5) 0.5999(4)
H3 H 0.4449(3) 0.7087(5) 0.5838(4)
C7 C 0.5489(3) 0.5947(5) 0.6218(4)
C8 C 0.6140(3) 0.6951(6) 0.6301(4)
C9 C 0.6875(3) 0.6218(6) 0.6580(4)
C10 C 0.6687(3) 0.4704(6) 0.6690(4)
C11 C 0.8064(3) 0.3472(7) 0.7125(5)
H4 H 0.8210(3) 0.4026(7) 0.6637(5)
H5 H 0.8354(3) 0.3896(7) 0.7735(5)
C12 C 0.8323(4) 0.1913(7) 0.7095(5)
H6 H 0.8145(4) 0.1355(7) 0.7559(5)
H7 H 0.8049(4) 0.1510(7) 0.6474(5)
C13 C 0.9269(4) 0.1754(8) 0.7300(7)
H8 H 0.9436(4) 0.2272(8) 0.6813(7)
H9 H 0.9538(4) 0.2223(8) 0.7900(7)
C14 C 0.9564(5) 0.0261(9) 0.7338(7)
H10 H 0.935(3) -0.030(2) 0.776(4)
H11 H 0.938(4) -0.016(3) 0.6716(12)
H12 H 1.0159(6) 0.0253(11) 0.756(5)
B1 B 0.3166(4) 0.5552(6) 0.5876(5)
B2 B 0.5353(4) 0.3342(8) 0.6679(6)
loop_
_geom_bond_atom_site_label_1
_geom_bond_atom_site_label_2
_geom_bond_site_symmetry_1
_geom_bond_site_symmetry_2
Br1 C1 1_555 1_555
Br2 C2 1_555 1_555
Br3 C3 1_555 1_555
Br4 C8 1_555 1_555
Br5 C9 1_555 1_555
F1 B1 1_555 1_555
F2 B1 1_555 1_555
F3 B2 1_555 1_555
F4 B2 1_555 1_555
N1 N3 1_555 1_555
N2 C1 1_555 1_555
N3 C6 1_555 1_555
N4 C7 1_555 1_555
N5 H1 1_555 1_555
C1 C2 1_555 1_555
C2 C3 1_555 1_555
C3 C4 1_555 1_555
C4 N2 1_555 1_555
C5 N1 1_555 1_555
H2 C5 1_555 1_555
C6 H3 1_555 1_555
C7 C6 1_555 1_555
C8 C7 1_555 1_555
C9 C8 1_555 1_555
C10 N4 1_555 1_555
C11 N5 1_555 1_555
H4 C11 1_555 1_555
H5 C11 1_555 1_555
C12 C11 1_555 1_555
H6 C12 1_555 1_555
H7 C12 1_555 1_555
C13 C12 1_555 1_555
H8 C13 1_555 1_555
H9 C13 1_555 1_555
C14 C13 1_555 1_555
H10 C14 1_555 1_555
H11 C14 1_555 1_555
H12 C14 1_555 1_555
B1 N2 1_555 1_555
B2 N1 1_555 1_555
N3 B1 1_555 1_555
N4 B2 1_555 1_555
N5 C10 1_555 1_555
C4 C5 1_555 1_555
C9 C10 1_555 1_555

#END
