
#######################################################################
#
#                 Cambridge Crystallographic Data Centre
#                                CCDC 
#
#######################################################################
#
# If this CIF has been generated from an entry in the Cambridge 
# Structural Database, then it will include bibliographic, chemical, 
# crystal, experimental, refinement or atomic coordinate data resulting 
# from the CCDC's data processing and validation procedures.
#
#######################################################################

data_DERTUS
_chemical_formula_moiety         'C24 H27 B2 Br2 F4 N6'
_chemical_name_systematic        
2,9-dibromo-3-[(4-t-butylphenyl)imino]-N,N-diethyl-5,5,12,12-tetrafluoro-3H,5H,12H-11\l^5^,5\l^5^,12\l^5^-pyrrolo[1,2-d]pyrrolo[1',2':4,5][1,2,4,3]triazaborinino[2,1-a][1,2,4,3]triazaborinin-10-amine
_symmetry_cell_setting           monoclinic
_symmetry_space_group_name_H-M   'P 21/n'
_symmetry_Int_Tables_number      14
_space_group_name_Hall           '-P 2yn'
loop_
_symmetry_equiv_pos_site_id
_symmetry_equiv_pos_as_xyz
1 x,y,z
2 1/2-x,1/2+y,1/2-z
3 -x,-y,-z
4 1/2+x,1/2-y,1/2+z
_cell_length_a                   17.745(3)
_cell_length_b                   8.6108(16)
_cell_length_c                   19.469(4)
_cell_angle_alpha                90
_cell_angle_beta                 110.002(2)
_cell_angle_gamma                90
_cell_volume                     2795.4
_exptl_crystal_colour            'metallic yellowish yellow'
_exptl_crystal_description       cube
_cell_formula_units_Z            4
loop_
_atom_site_label
_atom_site_type_symbol
_atom_site_fract_x
_atom_site_fract_y
_atom_site_fract_z
B1 B 0.3727(3) 0.4306(6) 0.3149(3)
B2 B 0.3404(3) 0.0193(6) 0.4004(3)
Br1 Br 0.67098(3) 0.66307(6) 0.45993(3)
Br2 Br 0.04265(4) 0.01561(8) 0.43133(4)
C1 C 0.5043(3) 0.5804(5) 0.3801(2)
C2 C 0.5800(3) 0.5364(5) 0.4289(2)
C3 C 0.5738(3) 0.3907(6) 0.4537(2)
H1 H 0.6148(3) 0.3332(6) 0.4866(2)
C4 C 0.4945(3) 0.3445(5) 0.4204(2)
C5 C 0.4561(3) 0.2092(5) 0.4253(2)
H2 H 0.4868(3) 0.1314(5) 0.4550(2)
C6 C 0.2555(3) 0.2941(5) 0.3355(2)
H3 H 0.2242(3) 0.3704(5) 0.3051(2)
C7 C 0.2167(3) 0.1858(5) 0.3640(2)
C8 C 0.1385(3) 0.1852(6) 0.3651(3)
H4 H 0.0978(3) 0.2550(6) 0.3417(3)
C9 C 0.1339(3) 0.0622(6) 0.4071(3)
C10 C 0.2068(3) -0.0159(5) 0.4305(2)
C11 C 0.2806(5) -0.0999(9) 0.5578(4)
H5 H 0.3238(5) -0.0294(9) 0.5592(4)
H6 H 0.3048(5) -0.1928(9) 0.5844(4)
C12 C 0.2327(6) -0.0284(10) 0.5948(4)
H7 H 0.209(3) 0.065(4) 0.5695(19)
H8 H 0.191(2) -0.099(3) 0.596(3)
H9 H 0.2658(9) -0.003(6) 0.6439(11)
C13 C 0.1852(5) -0.2769(9) 0.4715(4)
H10 H 0.1357(5) -0.2463(9) 0.4784(4)
H11 H 0.2126(5) -0.3512(9) 0.5092(4)
C14 C 0.1672(6) -0.3495(9) 0.3960(5)
H12 H 0.126(3) -0.291(5) 0.3606(8)
H13 H 0.2148(12) -0.348(7) 0.3830(16)
H14 H 0.150(4) -0.455(3) 0.3968(11)
C15 C 0.5193(3) 0.8004(5) 0.3041(2)
C16 C 0.5018(3) 0.9552(6) 0.2896(3)
H15 H 0.4671(3) 1.0056(6) 0.3088(3)
C17 C 0.5363(3) 1.0355(6) 0.2462(3)
H16 H 0.5232(3) 1.1396(6) 0.2362(3)
C18 C 0.5887(3) 0.9685(6) 0.2176(3)
C19 C 0.6048(3) 0.8131(6) 0.2331(3)
H17 H 0.6401(3) 0.7630(6) 0.2144(3)
C20 C 0.5709(3) 0.7294(6) 0.2752(3)
H18 H 0.5830(3) 0.6246(6) 0.2842(3)
C21 C 0.6249(4) 1.0579(9) 0.1687(4)
C22 C 0.5698(5) 1.0418(13) 0.0914(4)
H19 H 0.588(3) 1.108(7) 0.0605(7)
H20 H 0.570(3) 0.936(2) 0.0759(14)
H21 H 0.5164(11) 1.071(8) 0.0881(9)
C23 C 0.6338(6) 1.2289(10) 0.1890(5)
H22 H 0.664(4) 1.280(2) 0.163(3)
H23 H 0.5817(6) 1.276(2) 0.176(4)
H24 H 0.662(4) 1.2393(10) 0.2406(9)
C24 C 0.7088(5) 1.0027(10) 0.1769(5)
H25 H 0.7064(6) 0.898(3) 0.160(3)
H26 H 0.7310(15) 1.069(5) 0.149(3)
H27 H 0.7421(11) 1.007(7) 0.2275(7)
F1 F 0.3846(2) 0.3758(4) 0.25422(16)
F2 F 0.32290(17) 0.5557(4) 0.30044(18)
F3 F 0.33139(17) -0.0704(3) 0.33856(17)
F4 F 0.38992(16) -0.0508(3) 0.46128(17)
N1 N 0.4788(2) 0.7193(4) 0.3442(2)
N2 N 0.4526(2) 0.4636(4) 0.3748(2)
N3 N 0.3328(2) 0.2975(4) 0.34783(18)
N4 N 0.3789(2) 0.1796(4) 0.39140(19)
N5 N 0.2574(2) 0.0613(4) 0.40422(19)
N6 N 0.2343(3) -0.1456(5) 0.4758(3)
loop_
_geom_bond_atom_site_label_1
_geom_bond_atom_site_label_2
_geom_bond_site_symmetry_1
_geom_bond_site_symmetry_2
B1 F1 1_555 1_555
B2 F3 1_555 1_555
Br1 C2 1_555 1_555
Br2 C9 1_555 1_555
C1 C2 1_555 1_555
C2 C3 1_555 1_555
C3 H1 1_555 1_555
C4 C3 1_555 1_555
C5 C4 1_555 1_555
H2 C5 1_555 1_555
C6 H3 1_555 1_555
C7 C6 1_555 1_555
C8 C7 1_555 1_555
H4 C8 1_555 1_555
C9 C8 1_555 1_555
C10 C9 1_555 1_555
C11 H5 1_555 1_555
H6 C11 1_555 1_555
C12 C11 1_555 1_555
H7 C12 1_555 1_555
H8 C12 1_555 1_555
H9 C12 1_555 1_555
C13 H10 1_555 1_555
H11 C13 1_555 1_555
C14 C13 1_555 1_555
H12 C14 1_555 1_555
H13 C14 1_555 1_555
H14 C14 1_555 1_555
C15 C16 1_555 1_555
C16 H15 1_555 1_555
C17 C16 1_555 1_555
H16 C17 1_555 1_555
C18 C17 1_555 1_555
C19 C18 1_555 1_555
H17 C19 1_555 1_555
C20 C15 1_555 1_555
H18 C20 1_555 1_555
C21 C18 1_555 1_555
C22 C21 1_555 1_555
H19 C22 1_555 1_555
H20 C22 1_555 1_555
H21 C22 1_555 1_555
C23 C21 1_555 1_555
H22 C23 1_555 1_555
H23 C23 1_555 1_555
H24 C23 1_555 1_555
C24 C21 1_555 1_555
H25 C24 1_555 1_555
H26 C24 1_555 1_555
H27 C24 1_555 1_555
F2 B1 1_555 1_555
F4 B2 1_555 1_555
N1 C1 1_555 1_555
N2 B1 1_555 1_555
N3 B1 1_555 1_555
N4 B2 1_555 1_555
N5 B2 1_555 1_555
N6 C10 1_555 1_555
C1 N2 1_555 1_555
C4 N2 1_555 1_555
C5 N4 1_555 1_555
C6 N3 1_555 1_555
C7 N5 1_555 1_555
C10 N5 1_555 1_555
C11 N6 1_555 1_555
C13 N6 1_555 1_555
C15 N1 1_555 1_555
C19 C20 1_555 1_555
N3 N4 1_555 1_555

#END
