
#######################################################################
#
#                 Cambridge Crystallographic Data Centre
#                                CCDC 
#
#######################################################################
#
# If this CIF has been generated from an entry in the Cambridge 
# Structural Database, then it will include bibliographic, chemical, 
# crystal, experimental, refinement or atomic coordinate data resulting 
# from the CCDC's data processing and validation procedures.
#
#######################################################################

data_DERVAA
_chemical_formula_moiety         'C19 H20 O3'
_chemical_name_systematic        
'4-methyl-2-(3-oxo-1-phenylbutyl)phenyl acetate'
_symmetry_cell_setting           triclinic
_symmetry_space_group_name_H-M   'P -1'
_symmetry_Int_Tables_number      2
_space_group_name_Hall           '-P 1'
loop_
_symmetry_equiv_pos_site_id
_symmetry_equiv_pos_as_xyz
1 x,y,z
2 -x,-y,-z
_cell_length_a                   8.4945(9)
_cell_length_b                   9.9581(11)
_cell_length_c                   11.2004(12)
_cell_angle_alpha                66.3860(10)
_cell_angle_beta                 72.1640(10)
_cell_angle_gamma                79.6130(10)
_cell_volume                     824.571
_exptl_crystal_colour            colorless
_exptl_crystal_description       block
_cell_formula_units_Z            2
loop_
_atom_site_label
_atom_site_type_symbol
_atom_site_fract_x
_atom_site_fract_y
_atom_site_fract_z
C1 C 1.3512(3) 0.9265(3) 0.6558(2)
H1 H 1.4694 0.9144 0.6415
H2 H 1.3144 1.0265 0.6458
H3 H 1.3214 0.9028 0.5908
C2 C 1.2711(3) 0.8269(2) 0.79462(19)
C3 C 1.03396(18) 0.80450(14) 0.97637(14)
C4 C 1.0623(2) 0.80503(17) 1.09104(17)
H4 H 1.1440 0.8606 1.0842
C5 C 0.9689(2) 0.72278(18) 1.21533(16)
H5 H 0.9874 0.7235 1.2927
C6 C 0.8481(2) 0.63915(17) 1.22742(14)
C7 C 0.81940(18) 0.64290(16) 1.10995(13)
H6 H 0.7370 0.5878 1.1173
C8 C 0.91004(16) 0.72639(13) 0.98206(12)
C9 C 0.7519(2) 0.5429(3) 1.36405(16)
H7 H 0.8274 0.4762 1.4128
H8 H 0.6788 0.4881 1.3530
H9 H 0.6881 0.6030 1.4134
C10 C 0.87529(16) 0.73950(13) 0.85201(12)
H10 H 0.9826 0.7355 0.7875
C11 C 0.78804(17) 0.88964(13) 0.79241(12)
C12 C 0.8674(2) 0.99343(16) 0.67262(15)
H11 H 0.9736 0.9702 0.6271
C13 C 0.7922(3) 1.13052(18) 0.6194(2)
H12 H 0.8480 1.1989 0.5389
C14 C 0.6368(3) 1.16635(19) 0.6840(2)
H13 H 0.5862 1.2590 0.6477
C15 C 0.5546(3) 1.0647(2) 0.8036(2)
H14 H 0.4481 1.0888 0.8480
C16 C 0.6304(2) 0.92654(18) 0.85785(15)
H15 H 0.5746 0.8585 0.9387
C17 C 0.77895(18) 0.61446(14) 0.86972(13)
H16 H 0.8282 0.5221 0.9217
H17 H 0.6660 0.6259 0.9212
C18 C 0.77516(19) 0.60694(16) 0.73918(15)
C19 C 0.6559(2) 0.5053(2) 0.7513(2)
H18 H 0.5480 0.5554 0.7526
H19 H 0.6503 0.4209 0.8334
H20 H 0.6930 0.4743 0.6757
O1 O 1.3217(2) 0.70641(19) 0.85363(18)
O2 O 1.12784(15) 0.89097(11) 0.84930(11)
O3 O 0.86293(19) 0.67588(16) 0.63220(12)
loop_
_geom_bond_atom_site_label_1
_geom_bond_atom_site_label_2
_geom_bond_site_symmetry_1
_geom_bond_site_symmetry_2
C1 H1 1_555 1_555
H2 C1 1_555 1_555
H3 C1 1_555 1_555
C2 C1 1_555 1_555
C3 C4 1_555 1_555
C4 H4 1_555 1_555
C5 C4 1_555 1_555
H5 C5 1_555 1_555
C6 C5 1_555 1_555
C7 C6 1_555 1_555
H6 C7 1_555 1_555
C8 C3 1_555 1_555
C9 C6 1_555 1_555
H7 C9 1_555 1_555
H8 C9 1_555 1_555
H9 C9 1_555 1_555
C10 C8 1_555 1_555
H10 C10 1_555 1_555
C11 C10 1_555 1_555
C12 C11 1_555 1_555
H11 C12 1_555 1_555
C13 C12 1_555 1_555
H12 C13 1_555 1_555
C14 C13 1_555 1_555
H13 C14 1_555 1_555
C15 C14 1_555 1_555
H14 C15 1_555 1_555
C16 C11 1_555 1_555
H15 C16 1_555 1_555
C17 C10 1_555 1_555
H16 C17 1_555 1_555
H17 C17 1_555 1_555
C18 C17 1_555 1_555
C19 C18 1_555 1_555
H18 C19 1_555 1_555
H19 C19 1_555 1_555
H20 C19 1_555 1_555
O1 C2 1_555 1_555
O2 C2 1_555 1_555
O3 C18 1_555 1_555
C3 O2 1_555 1_555
C7 C8 1_555 1_555
C15 C16 1_555 1_555

#END
