
#######################################################################
#
#                 Cambridge Crystallographic Data Centre
#                                CCDC 
#
#######################################################################
#
# If this CIF has been generated from an entry in the Cambridge 
# Structural Database, then it will include bibliographic, chemical, 
# crystal, experimental, refinement or atomic coordinate data resulting 
# from the CCDC's data processing and validation procedures.
#
#######################################################################

data_DERWUV
_chemical_formula_moiety         'C21 H39 Li1 N4 O2,C9 H12 O2'
_chemical_name_systematic        
'(2-phenylpropane-2-peroxolato)-(1,4,7,10-tetramethyl-1,4,7,10-tetraazacyclododecane)-lithium 2-phenylpropane-2-peroxol solvate'
_symmetry_cell_setting           monoclinic
_symmetry_space_group_name_H-M   'C c'
_symmetry_Int_Tables_number      9
_space_group_name_Hall           'C -2yc'
loop_
_symmetry_equiv_pos_site_id
_symmetry_equiv_pos_as_xyz
1 x,y,z
2 x,-y,1/2+z
3 1/2+x,1/2+y,z
4 1/2+x,1/2-y,1/2+z
_cell_length_a                   38.342(13)
_cell_length_b                   10.533(4)
_cell_length_c                   15.443(7)
_cell_angle_alpha                90
_cell_angle_beta                 101.572(6)
_cell_angle_gamma                90
_cell_volume                     6109.98
_exptl_crystal_colour            colorless
_exptl_crystal_description       rod
_cell_formula_units_Z            8
_chemical_properties_physical    
Air-sensitive,Moisture-sensitive,Oxygen-sensitive
_exptl_crystal_recrystallization_method tetrahydrofuran/n-pentane
loop_
_atom_site_label
_atom_site_type_symbol
_atom_site_fract_x
_atom_site_fract_y
_atom_site_fract_z
O1 O 0.57422(16) 0.6015(5) 0.4795(4)
O2 O 0.55901(16) 0.6812(5) 0.5413(4)
Li1 Li 0.5688(4) 0.4613(12) 0.5528(8)
N1 N 0.6121(2) 0.4533(6) 0.6685(4)
N2 N 0.5350(2) 0.4504(7) 0.6653(5)
N3 N 0.5274(2) 0.3165(6) 0.4972(4)
N4 N 0.6029(2) 0.3121(6) 0.5035(4)
C1 C 0.5965(3) 0.3903(8) 0.7381(5)
H1 H 0.6137 0.3944 0.7952
H2 H 0.5920 0.2998 0.7226
C2 C 0.5618(3) 0.4532(8) 0.7480(6)
H3 H 0.5522 0.4089 0.7948
H4 H 0.5665 0.5424 0.7668
C3 C 0.5177(3) 0.3271(8) 0.6500(6)
H5 H 0.4992 0.3201 0.6862
H6 H 0.5356 0.2595 0.6691
C4 C 0.5007(3) 0.3071(8) 0.5534(6)
H7 H 0.4893 0.2223 0.5459
H8 H 0.4819 0.3717 0.5349
C5 C 0.5464(3) 0.1977(8) 0.4969(6)
H9 H 0.5305 0.1344 0.4617
H10 H 0.5531 0.1653 0.5582
C6 C 0.5799(3) 0.2122(8) 0.4587(6)
H11 H 0.5931 0.1309 0.4647
H12 H 0.5730 0.2325 0.3949
C7 C 0.6265(3) 0.2662(8) 0.5841(6)
H13 H 0.6469 0.2202 0.5681
H14 H 0.6134 0.2060 0.6151
C8 C 0.6402(3) 0.3744(8) 0.6449(6)
H15 H 0.6551 0.3397 0.6996
H16 H 0.6557 0.4286 0.6160
C9 C 0.6256(3) 0.5781(8) 0.6973(6)
H17 H 0.6356 0.6182 0.6504
H18 H 0.6443 0.5699 0.7506
H19 H 0.6062 0.6305 0.7103
C10 C 0.5087(3) 0.5493(9) 0.6681(6)
H20 H 0.4972 0.5343 0.7184
H21 H 0.4907 0.5477 0.6132
H22 H 0.5205 0.6323 0.6746
C11 C 0.5101(3) 0.3537(9) 0.4087(6)
H23 H 0.4940 0.2859 0.3818
H24 H 0.5282 0.3684 0.3730
H25 H 0.4965 0.4318 0.4114
C12 C 0.6242(3) 0.3668(8) 0.4439(6)
H26 H 0.6384 0.2998 0.4236
H27 H 0.6401 0.4320 0.4753
H28 H 0.6084 0.4051 0.3928
C13 C 0.5372(2) 0.7773(7) 0.4928(5)
C14 C 0.5583(3) 0.8576(7) 0.4378(6)
H29 H 0.5671 0.8029 0.3955
H30 H 0.5786 0.8977 0.4771
H31 H 0.5428 0.9234 0.4057
C15 C 0.5050(3) 0.7187(8) 0.4308(6)
H32 H 0.4908 0.6705 0.4656
H33 H 0.5132 0.6618 0.3889
H34 H 0.4904 0.7863 0.3983
C16 C 0.5269(3) 0.8578(7) 0.5648(6)
C17 C 0.5529(3) 0.8987(7) 0.6368(5)
H35 H 0.5770 0.8755 0.6390
C18 C 0.5449(3) 0.9705(8) 0.7039(6)
H36 H 0.5634 0.9967 0.7513
C19 C 0.5098(3) 1.0053(8) 0.7027(6)
H37 H 0.5039 1.0534 0.7499
C20 C 0.4840(3) 0.9696(8) 0.6333(6)
H38 H 0.4602 0.9962 0.6310
C21 C 0.4917(3) 0.8961(7) 0.5665(6)
H39 H 0.4728 0.8700 0.5200
O3 O 0.6367(2) 0.6849(6) 0.5098(4)
H40 H 0.608(3) 0.660(9) 0.506(6)
O4 O 0.63741(16) 0.7624(5) 0.4312(4)
C22 C 0.6740(3) 0.7901(7) 0.4296(5)
C23 C 0.6917(3) 0.8572(8) 0.5140(6)
H41 H 0.6956 0.7965 0.5631
H42 H 0.6764 0.9261 0.5267
H43 H 0.7147 0.8922 0.5067
C24 C 0.6938(3) 0.6703(8) 0.4157(6)
H44 H 0.6814 0.6274 0.3620
H45 H 0.6948 0.6139 0.4666
H46 H 0.7181 0.6918 0.4096
C25 C 0.6700(2) 0.8844(7) 0.3528(5)
C26 C 0.6447(2) 0.9827(7) 0.3466(5)
H47 H 0.6298 0.9882 0.3889
C27 C 0.6414(2) 1.0698(8) 0.2803(6)
H48 H 0.6242 1.1354 0.2773
C28 C 0.6621(3) 1.0654(8) 0.2178(6)
H49 H 0.6595 1.1273 0.1723
C29 C 0.6868(3) 0.9700(8) 0.2223(6)
H50 H 0.7012 0.9650 0.1790
C30 C 0.6909(3) 0.8806(8) 0.2897(6)
H51 H 0.7083 0.8158 0.2924
O5 O 0.34581(15) 0.5902(5) 0.6136(4)
O6 O 0.36097(15) 0.6684(5) 0.6913(3)
Li2 Li 0.3520(4) 0.4538(13) 0.6942(9)
N5 N 0.3846(2) 0.4398(6) 0.8428(5)
N6 N 0.3076(2) 0.4523(6) 0.7671(4)
N7 N 0.3163(2) 0.3055(6) 0.6130(4)
N8 N 0.3928(2) 0.2984(7) 0.6849(5)
C31 C 0.3577(3) 0.4474(8) 0.8967(6)
H52 H 0.3541 0.5376 0.9106
H53 H 0.3665 0.4025 0.9532
C32 C 0.3224(3) 0.3905(8) 0.8521(6)
H54 H 0.3256 0.2988 0.8420
H55 H 0.3052 0.3990 0.8919
C33 C 0.2791(3) 0.3774(8) 0.7136(6)
H56 H 0.2651 0.4326 0.6674
H57 H 0.2629 0.3468 0.7516
C34 C 0.2928(3) 0.2659(8) 0.6703(5)
H58 H 0.3057 0.2082 0.7164
H59 H 0.2724 0.2185 0.6353
C35 C 0.3393(3) 0.2005(8) 0.5943(6)
H60 H 0.3472 0.2180 0.5383
H61 H 0.3254 0.1207 0.5868
C36 C 0.3715(3) 0.1838(8) 0.6676(6)
H62 H 0.3635 0.1584 0.7223
H63 H 0.3864 0.1143 0.6517
C37 C 0.4187(3) 0.2880(8) 0.7693(6)
H64 H 0.4381 0.3505 0.7703
H65 H 0.4294 0.2021 0.7745
C38 C 0.4010(3) 0.3118(7) 0.8468(6)
H66 H 0.3824 0.2467 0.8472
H67 H 0.4189 0.3036 0.9024
C39 C 0.4120(3) 0.5334(9) 0.8714(6)
H68 H 0.4216 0.5231 0.9347
H69 H 0.4018 0.6186 0.8602
H70 H 0.4311 0.5220 0.8385
C40 C 0.2949(3) 0.5804(8) 0.7823(6)
H71 H 0.2759 0.5745 0.8161
H72 H 0.2857 0.6215 0.7254
H73 H 0.3146 0.6306 0.8157
C41 C 0.2972(2) 0.3601(8) 0.5307(6)
H74 H 0.2830 0.4326 0.5437
H75 H 0.2813 0.2959 0.4978
H76 H 0.3142 0.3886 0.4952
C42 C 0.4117(3) 0.3230(9) 0.6136(6)
H77 H 0.3944 0.3419 0.5591
H78 H 0.4256 0.2479 0.6044
H79 H 0.4277 0.3956 0.6292
C43 C 0.3853(2) 0.7587(7) 0.6681(5)
C44 C 0.4168(3) 0.6908(8) 0.6412(6)
H80 H 0.4079 0.6281 0.5951
H81 H 0.4309 0.6477 0.6928
H82 H 0.4317 0.7530 0.6185
C45 C 0.3666(3) 0.8421(8) 0.5911(5)
H83 H 0.3465 0.8861 0.6081
H84 H 0.3579 0.7887 0.5393
H85 H 0.3835 0.9046 0.5767
C46 C 0.3955(2) 0.8382(7) 0.7516(5)
C47 C 0.4303(3) 0.8674(8) 0.7901(6)
H86 H 0.4491 0.8377 0.7636
C48 C 0.4382(3) 0.9391(8) 0.8664(6)
H87 H 0.4622 0.9604 0.8911
C49 C 0.4108(3) 0.9802(8) 0.9073(6)
H88 H 0.4162 1.0269 0.9610
C50 C 0.3762(3) 0.9528(8) 0.8694(6)
H89 H 0.3574 0.9820 0.8962
C51 C 0.3686(3) 0.8832(8) 0.7928(6)
H90 H 0.3444 0.8651 0.7672
O7 O 0.2840(2) 0.6836(6) 0.5829(4)
H91 H 0.311(3) 0.675(9) 0.608(6)
O8 O 0.28385(16) 0.7621(5) 0.5048(4)
C52 C 0.2474(2) 0.7907(7) 0.4667(5)
C53 C 0.2269(3) 0.6691(8) 0.4332(6)
H92 H 0.2263 0.6123 0.4831
H93 H 0.2387 0.6264 0.3906
H94 H 0.2024 0.6912 0.4044
C54 C 0.2296(3) 0.8568(8) 0.5337(6)
H95 H 0.2448 0.9263 0.5616
H96 H 0.2259 0.7958 0.5790
H97 H 0.2065 0.8910 0.5038
C55 C 0.2512(2) 0.8847(7) 0.3944(6)
C56 C 0.2764(2) 0.9815(7) 0.4115(5)
H98 H 0.2912 0.9873 0.4686
C57 C 0.2805(2) 1.0684(8) 0.3485(6)
H99 H 0.2983 1.1320 0.3619
C58 C 0.2589(3) 1.0646(8) 0.2659(6)
H100 H 0.2615 1.1262 0.2227
C59 C 0.2336(3) 0.9712(8) 0.2465(5)
H101 H 0.2187 0.9682 0.1894
C60 C 0.2296(2) 0.8808(8) 0.3093(6)
H102 H 0.2122 0.8160 0.2948
loop_
_geom_bond_atom_site_label_1
_geom_bond_atom_site_label_2
_geom_bond_site_symmetry_1
_geom_bond_site_symmetry_2
O1 O2 1_555 1_555
O2 Li1 1_555 1_555
Li1 O1 1_555 1_555
N1 Li1 1_555 1_555
N2 Li1 1_555 1_555
N3 Li1 1_555 1_555
N4 Li1 1_555 1_555
C1 N1 1_555 1_555
H1 C1 1_555 1_555
H2 C1 1_555 1_555
C2 N2 1_555 1_555
H3 C2 1_555 1_555
H4 C2 1_555 1_555
C3 N2 1_555 1_555
H5 C3 1_555 1_555
H6 C3 1_555 1_555
C4 N3 1_555 1_555
H7 C4 1_555 1_555
H8 C4 1_555 1_555
C5 N3 1_555 1_555
H9 C5 1_555 1_555
H10 C5 1_555 1_555
C6 N4 1_555 1_555
H11 C6 1_555 1_555
H12 C6 1_555 1_555
C7 N4 1_555 1_555
H13 C7 1_555 1_555
H14 C7 1_555 1_555
C8 N1 1_555 1_555
H15 C8 1_555 1_555
H16 C8 1_555 1_555
C9 N1 1_555 1_555
H17 C9 1_555 1_555
H18 C9 1_555 1_555
H19 C9 1_555 1_555
C10 N2 1_555 1_555
H20 C10 1_555 1_555
H21 C10 1_555 1_555
H22 C10 1_555 1_555
C11 N3 1_555 1_555
H23 C11 1_555 1_555
H24 C11 1_555 1_555
H25 C11 1_555 1_555
C12 N4 1_555 1_555
H26 C12 1_555 1_555
H27 C12 1_555 1_555
H28 C12 1_555 1_555
C13 O2 1_555 1_555
C14 C13 1_555 1_555
H29 C14 1_555 1_555
H30 C14 1_555 1_555
H31 C14 1_555 1_555
C15 C13 1_555 1_555
H32 C15 1_555 1_555
H33 C15 1_555 1_555
H34 C15 1_555 1_555
C16 C13 1_555 1_555
C17 C16 1_555 1_555
H35 C17 1_555 1_555
C18 C17 1_555 1_555
H36 C18 1_555 1_555
C19 C18 1_555 1_555
H37 C19 1_555 1_555
C20 C19 1_555 1_555
H38 C20 1_555 1_555
C21 C16 1_555 1_555
H39 C21 1_555 1_555
O3 H40 1_555 1_555
O4 O3 1_555 1_555
C22 O4 1_555 1_555
C23 C22 1_555 1_555
H41 C23 1_555 1_555
H42 C23 1_555 1_555
H43 C23 1_555 1_555
C24 C22 1_555 1_555
H44 C24 1_555 1_555
H45 C24 1_555 1_555
H46 C24 1_555 1_555
C25 C22 1_555 1_555
C26 C25 1_555 1_555
H47 C26 1_555 1_555
C27 C26 1_555 1_555
H48 C27 1_555 1_555
C28 C27 1_555 1_555
H49 C28 1_555 1_555
C29 C28 1_555 1_555
H50 C29 1_555 1_555
C30 C25 1_555 1_555
H51 C30 1_555 1_555
O5 O6 1_555 1_555
O6 Li2 1_555 1_555
Li2 O5 1_555 1_555
N5 Li2 1_555 1_555
N6 Li2 1_555 1_555
N7 Li2 1_555 1_555
N8 Li2 1_555 1_555
C31 N5 1_555 1_555
H52 C31 1_555 1_555
H53 C31 1_555 1_555
C32 N6 1_555 1_555
H54 C32 1_555 1_555
H55 C32 1_555 1_555
C33 N6 1_555 1_555
H56 C33 1_555 1_555
H57 C33 1_555 1_555
C34 N7 1_555 1_555
H58 C34 1_555 1_555
H59 C34 1_555 1_555
C35 N7 1_555 1_555
H60 C35 1_555 1_555
H61 C35 1_555 1_555
C36 N8 1_555 1_555
H62 C36 1_555 1_555
H63 C36 1_555 1_555
C37 N8 1_555 1_555
H64 C37 1_555 1_555
H65 C37 1_555 1_555
C38 N5 1_555 1_555
H66 C38 1_555 1_555
H67 C38 1_555 1_555
C39 N5 1_555 1_555
H68 C39 1_555 1_555
H69 C39 1_555 1_555
H70 C39 1_555 1_555
C40 N6 1_555 1_555
H71 C40 1_555 1_555
H72 C40 1_555 1_555
H73 C40 1_555 1_555
C41 N7 1_555 1_555
H74 C41 1_555 1_555
H75 C41 1_555 1_555
H76 C41 1_555 1_555
C42 N8 1_555 1_555
H77 C42 1_555 1_555
H78 C42 1_555 1_555
H79 C42 1_555 1_555
C43 O6 1_555 1_555
C44 C43 1_555 1_555
H80 C44 1_555 1_555
H81 C44 1_555 1_555
H82 C44 1_555 1_555
C45 C43 1_555 1_555
H83 C45 1_555 1_555
H84 C45 1_555 1_555
H85 C45 1_555 1_555
C46 C43 1_555 1_555
C47 C46 1_555 1_555
H86 C47 1_555 1_555
C48 C47 1_555 1_555
H87 C48 1_555 1_555
C49 C48 1_555 1_555
H88 C49 1_555 1_555
C50 C49 1_555 1_555
H89 C50 1_555 1_555
C51 C46 1_555 1_555
H90 C51 1_555 1_555
O7 H91 1_555 1_555
O8 O7 1_555 1_555
C52 O8 1_555 1_555
C53 C52 1_555 1_555
H92 C53 1_555 1_555
H93 C53 1_555 1_555
H94 C53 1_555 1_555
C54 C52 1_555 1_555
H95 C54 1_555 1_555
H96 C54 1_555 1_555
H97 C54 1_555 1_555
C55 C52 1_555 1_555
C56 C55 1_555 1_555
H98 C56 1_555 1_555
C57 C56 1_555 1_555
H99 C57 1_555 1_555
C58 C57 1_555 1_555
H100 C58 1_555 1_555
C59 C58 1_555 1_555
H101 C59 1_555 1_555
C60 C55 1_555 1_555
H102 C60 1_555 1_555
C1 C2 1_555 1_555
C3 C4 1_555 1_555
C5 C6 1_555 1_555
C7 C8 1_555 1_555
C20 C21 1_555 1_555
C29 C30 1_555 1_555
C31 C32 1_555 1_555
C33 C34 1_555 1_555
C35 C36 1_555 1_555
C37 C38 1_555 1_555
C50 C51 1_555 1_555
C59 C60 1_555 1_555

#END
