
#######################################################################
#
#                 Cambridge Crystallographic Data Centre
#                                CCDC 
#
#######################################################################
#
# If this CIF has been generated from an entry in the Cambridge 
# Structural Database, then it will include bibliographic, chemical, 
# crystal, experimental, refinement or atomic coordinate data resulting 
# from the CCDC's data processing and validation procedures.
#
#######################################################################

data_DESJAN
_chemical_formula_moiety         '2(C1 H6 N3 1+),C10 H12 O6 S2 2-,C9 H12'
_chemical_name_systematic        
'bis(Guanidinium) 2,4,5,6-tetramethylbenzene-1,3-disulfonate 1,2,3-trimethylbenzene clathrate'
_symmetry_cell_setting           monoclinic
_symmetry_space_group_name_H-M   'C 2'
_symmetry_Int_Tables_number      5
_space_group_name_Hall           'C 2y'
loop_
_symmetry_equiv_pos_site_id
_symmetry_equiv_pos_as_xyz
1 x,y,z
2 -x,y,-z
3 1/2+x,1/2+y,z
4 1/2-x,1/2+y,-z
_cell_length_a                   20.061(3)
_cell_length_b                   9.2554(12)
_cell_length_c                   7.5552(10)
_cell_angle_alpha                90
_cell_angle_beta                 108.723(2)
_cell_angle_gamma                90
_cell_volume                     1328.56
_exptl_crystal_colour            colorless
_exptl_crystal_description       prism
_cell_formula_units_Z            2
loop_
_atom_site_label
_atom_site_type_symbol
_atom_site_fract_x
_atom_site_fract_y
_atom_site_fract_z
C2 C -0.0073(4) -0.1133(6) 0.4886(9)
C3 C -0.0315(2) 0.0280(6) 0.4558(7)
C4 C 0.0143(3) 0.1426(6) 0.5250(10)
C5 C -0.0843(3) 0.1158(8) 0.3731(9)
H7 H -0.1155 0.1941 0.3258
C6 C -0.1085(3) -0.0256(9) 0.3402(8)
H8 H -0.1563 -0.0439 0.2705
C7 C 0.0627(4) -0.1401(7) 0.5906(10)
H9 H 0.0793 -0.2367 0.6130
C8 C -0.0562(6) -0.2366(12) 0.4146(15)
H10 H -0.0307 -0.3279 0.4510
H11 H 0.0749 -0.2305 0.7220
H12 H 0.0952 -0.2324 0.5337
C9 C -0.1068(4) 0.0596(11) 0.3461(11)
H13 H -0.1141 0.1644 0.3369
H14 H -0.1377 0.0166 0.4094
H15 H -0.1178 0.0185 0.2205
C10 C -0.0118(7) 0.2940(9) 0.4896(17)
H16 H 0.0268 0.3610 0.5478
H17 H -0.0498 0.3089 0.5431
H18 H -0.0297 0.3116 0.3546
C2A C 0.0073(4) -0.1133(6) 0.5114(9)
C3A C 0.0315(2) 0.0280(6) 0.5442(7)
C4A C -0.0143(3) 0.1426(6) 0.4750(10)
C5A C 0.0843(3) 0.1158(8) 0.6269(9)
H7A H 0.1155 0.1941 0.6742
C6A C 0.1085(3) -0.0256(9) 0.6598(8)
H8A H 0.1563 -0.0439 0.7295
C7A C -0.0627(4) -0.1401(7) 0.4094(10)
H9A H -0.0793 -0.2367 0.3870
C8A C 0.0562(6) -0.2366(12) 0.5854(15)
H10A H 0.0307 -0.3279 0.5490
H11A H -0.0749 -0.2305 0.2780
H12A H -0.0952 -0.2324 0.4663
C9A C 0.1068(4) 0.0596(11) 0.6539(11)
H13A H 0.1141 0.1644 0.6631
H14A H 0.1377 0.0166 0.5906
H15A H 0.1178 0.0185 0.7795
C10A C 0.0118(7) 0.2940(9) 0.5104(17)
H16A H -0.0268 0.3610 0.4522
H17A H 0.0498 0.3089 0.4569
H18A H 0.0297 0.3116 0.6454
S1 S 0.14301(3) 0.48306(7) 0.14986(8)
O1 O 0.20310(10) 0.3853(3) 0.2029(3)
O2 O 0.14065(10) 0.5709(2) 0.3083(3)
O3 O 0.14327(10) 0.5717(2) -0.0093(3)
C11 C 0.06270(13) 0.3807(3) 0.0738(3)
C12 C 0.0000 0.4595(4) 0.0000
C13 C 0.0000 -0.0109(6) 0.0000
H19 H 0.0451 -0.0462 0.0839
H20 H -0.0069 -0.0462 -0.1269
H21 H -0.0382 -0.0462 0.0430
C14 C 0.06287(14) 0.2284(3) 0.0847(4)
C15 C 0.0000 0.1541(4) 0.0000
C16 C 0.1262(2) 0.1389(4) 0.1921(7)
H22 H 0.1103 0.0491 0.2345
H23 H 0.1551 0.1938 0.3006
H24 H 0.1542 0.1160 0.1108
C17 C 0.0000 0.6222(4) 0.0000
S1A S -0.14301(3) 0.48306(7) -0.14986(8)
O1A O -0.20310(10) 0.3853(3) -0.2029(3)
O2A O -0.14065(10) 0.5709(2) -0.3083(3)
O3A O -0.14327(10) 0.5717(2) 0.0093(3)
C11A C -0.06270(13) 0.3807(3) -0.0738(3)
H19A H -0.0451 -0.0462 -0.0839
H20A H 0.0069 -0.0462 0.1269
H21A H 0.0382 -0.0462 -0.0430
C14A C -0.06287(14) 0.2284(3) -0.0847(4)
C16A C -0.1262(2) 0.1389(4) -0.1921(7)
H22A H -0.1103 0.0491 -0.2345
H23A H -0.1551 0.1938 -0.3006
H24A H -0.1542 0.1160 -0.1108
N1 N 0.30779(11) 0.9756(3) 0.3086(3)
H1 H 0.3231 1.0105 0.4229
H2 H 0.3254 1.0075 0.2233
C1 C 0.25823(14) 0.8751(3) 0.2650(4)
N2 N 0.23423(13) 0.8261(3) 0.0908(3)
H3 H 0.2004 0.7611 0.0599
H4 H 0.2521 0.8585 0.0063
N3 N 0.23158(12) 0.8269(3) 0.3921(3)
H5 H 0.2467 0.8615 0.5066
H6 H 0.1986 0.7600 0.3625
H25? H -0.0405 0.6575 -0.1021
H26? H 0.0435 0.6575 -0.0174
H27? H -0.0030 0.6575 0.1195
loop_
_geom_bond_atom_site_label_1
_geom_bond_atom_site_label_2
_geom_bond_site_symmetry_1
_geom_bond_site_symmetry_2
N1 H1 1_555 1_555
H2 N1 1_555 1_555
C1 N1 1_555 1_555
N2 C1 1_555 1_555
H3 N2 1_555 1_555
H4 N2 1_555 1_555
N3 C1 1_555 1_555
H5 N3 1_555 1_555
H6 N3 1_555 1_555
C2 C3 1_555 1_555
C3 C4 1_555 1_555
C4 C10 1_555 1_555
C5 C3 1_555 1_555
H7 C5 1_555 1_555
C6 C3 1_555 1_555
H8 C6 1_555 1_555
C7 C2 1_555 1_555
H9 C7 1_555 1_555
C8 C2 1_555 1_555
H10 C8 1_555 1_555
H11 C7 1_555 1_555
H12 C7 1_555 1_555
C9 C3 1_555 1_555
H13 C5 1_555 1_555
H14 C6 1_555 1_555
H15 C6 1_555 1_555
C10 H16 1_555 1_555
H16 C10A 1_555 1_555
H17 C10 1_555 1_555
H18 C10 1_555 1_555
S1 O1 1_555 1_555
O2 S1 1_555 1_555
O3 S1 1_555 1_555
C11 S1 1_555 1_555
C12 C11 1_555 1_555
C13 H19 1_555 1_555
H20 C13 1_555 1_555
H21 C13 1_555 1_555
C14 C11 1_555 1_555
C15 C13 1_555 1_555
C16 C14 1_555 1_555
H22 C16 1_555 1_555
H23 C16 1_555 1_555
H24 C16 1_555 1_555
C17 C12 1_555 1_555
C2A C2 1_555 1_555
C3A C2 1_555 1_555
C4A C3 1_555 1_555
C5A C4 1_555 1_555
H7A C5A 1_555 1_555
C6A C7 1_555 1_555
H8A C6A 1_555 1_555
C7A C2 1_555 1_555
H9A C8 1_555 1_555
C8A C2 1_555 1_555
H10A C8A 1_555 1_555
H11A C8 1_555 1_555
H12A C8 1_555 1_555
C9A C3A 1_555 1_555
H13A C5A 1_555 1_555
H14A C6A 1_555 1_555
H15A C6A 1_555 1_555
C10A C4 1_555 1_555
H16A C10 1_555 1_555
H17A C10A 1_555 1_555
H18A C10 1_555 1_555
S1A O1A 1_555 1_555
O2A S1A 1_555 1_555
O3A S1A 1_555 1_555
C11A C12 1_555 1_555
H19A C13 1_555 1_555
H20A C13 1_555 1_555
H21A C13 1_555 1_555
C14A C15 1_555 1_555
C16A C14A 1_555 1_555
H22A C16A 1_555 1_555
H23A C16A 1_555 1_555
H24A C16A 1_555 1_555
C3 C2A 1_555 1_555
C3 C3A 1_555 1_555
C3 C7A 1_555 1_555
C4 C3A 1_555 1_555
C4 C4A 1_555 1_555
C5 C6 1_555 1_555
C5 C9 1_555 1_555
C5 C4A 1_555 1_555
H7 C9 1_555 1_555
H7 H13 1_555 1_555
C6 C9 1_555 1_555
C6 C7A 1_555 1_555
C7 C2A 1_555 1_555
C7 C3A 1_555 1_555
C7 C8A 1_555 1_555
H9 H11 1_555 1_555
H9 H12 1_555 1_555
H9 C8A 1_555 1_555
C8 C2A 1_555 1_555
C8 C7A 1_555 1_555
H11 C8A 1_555 1_555
H12 C8A 1_555 1_555
C9 H13 1_555 1_555
C9 H14 1_555 1_555
C9 H15 1_555 1_555
C10 C4A 1_555 1_555
C10 C10A 1_555 1_555
H16 H18A 1_555 1_555
H18 C10A 1_555 1_555
H18 H16A 1_555 1_555
C14 C15 1_555 1_555
C2A C3A 1_555 1_555
C2A C7A 1_555 1_555
C2A C8A 1_555 1_555
C3A C4A 1_555 1_555
C3A C5A 1_555 1_555
C3A C6A 1_555 1_555
C4A C10A 1_555 1_555
C5A C6A 1_555 1_555
C5A C9A 1_555 1_555
H7A C9A 1_555 1_555
H7A H13A 1_555 1_555
C6A C9A 1_555 1_555
C7A H9A 1_555 1_555
C7A H11A 1_555 1_555
C7A H12A 1_555 1_555
H9A H11A 1_555 1_555
H9A H12A 1_555 1_555
C9A H13A 1_555 1_555
C9A H14A 1_555 1_555
C9A H15A 1_555 1_555
C10A H16A 1_555 1_555
C10A H18A 1_555 1_555
S1A C11A 1_555 1_555
C11A C14A 1_555 1_555

#END
