
#######################################################################
#
#                 Cambridge Crystallographic Data Centre
#                                CCDC 
#
#######################################################################
#
# If this CIF has been generated from an entry in the Cambridge 
# Structural Database, then it will include bibliographic, chemical, 
# crystal, experimental, refinement or atomic coordinate data resulting 
# from the CCDC's data processing and validation procedures.
#
#######################################################################

data_DESNUL
_chemical_formula_moiety         'C24 H44 O2'
_chemical_name_systematic        2-(1'-hydroxycyclododecyl)cyclododecanone
_symmetry_cell_setting           triclinic
_symmetry_space_group_name_H-M   'P 1'
_symmetry_Int_Tables_number      1
_space_group_name_Hall           'P 1'
loop_
_symmetry_equiv_pos_site_id
_symmetry_equiv_pos_as_xyz
1 x,y,z
_cell_length_a                   5.4982(11)
_cell_length_b                   7.7104(15)
_cell_length_c                   13.452(3)
_cell_angle_alpha                82.25(3)
_cell_angle_beta                 82.83(3)
_cell_angle_gamma                78.55(3)
_cell_volume                     550.991
_exptl_crystal_colour            colorless
_exptl_crystal_description       block
_chemical_melting_point          '170-172 deg.C'
_cell_formula_units_Z            1
_exptl_crystal_recrystallization_method methanol
loop_
_atom_site_label
_atom_site_type_symbol
_atom_site_fract_x
_atom_site_fract_y
_atom_site_fract_z
C1 C 0.7773(10) 0.7711(8) 0.5725(4)
H1 H 0.6691 0.7170 0.5381
C2 C 0.9974(10) 0.6287(8) 0.5979(4)
H2 H 1.1022 0.6762 0.6363
H3 H 1.0952 0.5955 0.5359
C3 C 0.9183(11) 0.4598(8) 0.6600(5)
H4 H 0.8508 0.3943 0.6166
H5 H 0.7896 0.4946 0.7135
C4 C 1.1502(14) 0.3387(8) 0.7062(5)
H6 H 1.1112 0.2213 0.7280
H7 H 1.2882 0.3259 0.6537
C5 C 1.2326(11) 0.4044(9) 0.7927(4)
H8 H 1.2384 0.5300 0.7763
H9 H 1.4002 0.3418 0.8036
C6 C 1.0619(13) 0.3790(8) 0.8898(5)
H10 H 0.8933 0.3883 0.8725
H11 H 1.1134 0.2595 0.9225
C7 C 1.0582(16) 0.5074(10) 0.9630(5)
H12 H 1.2238 0.4924 0.9845
H13 H 0.9456 0.4803 1.0220
C8 C 0.9743(14) 0.7073(9) 0.9191(5)
H14 H 1.0068 0.7845 0.9653
H15 H 1.0724 0.7308 0.8554
C9 C 0.6997(14) 0.7506(9) 0.9030(5)
H16 H 0.6010 0.7485 0.9680
H17 H 0.6610 0.6598 0.8673
C10 C 0.6257(13) 0.9389(9) 0.8409(5)
H18 H 0.4460 0.9671 0.8398
H19 H 0.6745 1.0288 0.8742
C11 C 0.7515(11) 0.9438(9) 0.7316(5)
H20 H 0.9255 0.8869 0.7316
H21 H 0.7444 1.0665 0.7022
C12 C 0.6168(10) 0.8460(8) 0.6680(4)
C13 C 0.8637(11) 0.9263(8) 0.4964(4)
C14 C 0.6399(11) 1.0760(8) 0.4660(5)
H22 H 0.5438 1.0272 0.4246
H23 H 0.5333 1.1031 0.5272
C15 C 0.6948(13) 1.2483(9) 0.4108(5)
H24 H 0.8191 1.2216 0.3545
H25 H 0.7678 1.3072 0.4558
C16 C 0.4749(10) 1.3763(8) 0.3712(5)
H26 H 0.5200 1.4926 0.3522
H27 H 0.3382 1.3880 0.4243
C17 C 0.3874(12) 1.3155(8) 0.2794(5)
H28 H 0.3670 1.1925 0.2958
H29 H 0.2252 1.3863 0.2671
C18 C 0.5598(14) 1.3297(9) 0.1840(5)
H30 H 0.7295 1.3126 0.2015
H31 H 0.5193 1.4491 0.1496
C19 C 0.5472(15) 1.1930(10) 0.1101(5)
H32 H 0.3746 1.2021 0.0980
H33 H 0.6391 1.2251 0.0461
C20 C 0.6503(13) 1.0012(10) 0.1470(6)
H34 H 0.6320 0.9277 0.0963
H35 H 0.5469 0.9670 0.2075
C21 C 0.9243(12) 0.9559(9) 0.1710(5)
H36 H 1.0312 0.9629 0.1081
H37 H 0.9534 1.0455 0.2100
C22 C 0.9980(11) 0.7793(9) 0.2269(4)
H38 H 1.1786 0.7485 0.2211
H39 H 0.9371 0.6920 0.1958
C23 C 0.8998(10) 0.7671(8) 0.3397(5)
H40 H 0.7213 0.8111 0.3447
H41 H 0.9253 0.6423 0.3663
C24 C 1.0060(11) 0.8602(9) 0.4037(5)
H42 H 1.0571 0.9622 0.3621
H43 H 1.1572 0.7822 0.4240
O1 O 1.0292(12) 1.0353(10) 0.5395(6)
H44 H 1.0822 1.1044 0.4940
O2 O 0.4138(13) 0.8488(12) 0.6809(7)
O3? O 0.5911(16) 0.6763(11) 0.5329(6)
O4? O 1.2258(14) 0.8578(12) 0.3921(5)
loop_
_geom_bond_atom_site_label_1
_geom_bond_atom_site_label_2
_geom_bond_site_symmetry_1
_geom_bond_site_symmetry_2
C1 H1 1_555 1_555
C2 C1 1_555 1_555
H2 C2 1_555 1_555
H3 C2 1_555 1_555
C3 C2 1_555 1_555
H4 C3 1_555 1_555
H5 C3 1_555 1_555
C4 C3 1_555 1_555
H6 C4 1_555 1_555
H7 C4 1_555 1_555
C5 C4 1_555 1_555
H8 C5 1_555 1_555
H9 C5 1_555 1_555
C6 C5 1_555 1_555
H10 C6 1_555 1_555
H11 C6 1_555 1_555
C7 C6 1_555 1_555
H12 C7 1_555 1_555
H13 C7 1_555 1_555
C8 C7 1_555 1_555
H14 C8 1_555 1_555
H15 C8 1_555 1_555
C9 C8 1_555 1_555
H16 C9 1_555 1_555
H17 C9 1_555 1_555
C10 C9 1_555 1_555
H18 C10 1_555 1_555
H19 C10 1_555 1_555
C11 C10 1_555 1_555
H20 C11 1_555 1_555
H21 C11 1_555 1_555
C12 C1 1_555 1_555
C13 C1 1_555 1_555
C14 C13 1_555 1_555
H22 C14 1_555 1_555
H23 C14 1_555 1_555
C15 C14 1_555 1_555
H24 C15 1_555 1_555
H25 C15 1_555 1_555
C16 C15 1_555 1_555
H26 C16 1_555 1_555
H27 C16 1_555 1_555
C17 C16 1_555 1_555
H28 C17 1_555 1_555
H29 C17 1_555 1_555
C18 C17 1_555 1_555
H30 C18 1_555 1_555
H31 C18 1_555 1_555
C19 C18 1_555 1_555
H32 C19 1_555 1_555
H33 C19 1_555 1_555
C20 C19 1_555 1_555
H34 C20 1_555 1_555
H35 C20 1_555 1_555
C21 C20 1_555 1_555
H36 C21 1_555 1_555
H37 C21 1_555 1_555
C22 C21 1_555 1_555
H38 C22 1_555 1_555
H39 C22 1_555 1_555
C23 C22 1_555 1_555
H40 C23 1_555 1_555
H41 C23 1_555 1_555
C24 C13 1_555 1_555
H42 C24 1_555 1_555
H43 C24 1_555 1_555
O1 C13 1_555 1_555
H44 O1 1_555 1_555
O2 C12 1_555 1_555
C11 C12 1_555 1_555
C23 C24 1_555 1_555

#END
