
#######################################################################
#
#                 Cambridge Crystallographic Data Centre
#                                CCDC 
#
#######################################################################
#
# If this CIF has been generated from an entry in the Cambridge 
# Structural Database, then it will include bibliographic, chemical, 
# crystal, experimental, refinement or atomic coordinate data resulting 
# from the CCDC's data processing and validation procedures.
#
#######################################################################

data_DESQOK
_chemical_formula_moiety         'C15 H17 N1 O3'
_chemical_name_systematic        
'5-(dimethylamino)-5-oxo-1-phenylpenta-1,3-dien-3-yl acetate'
_symmetry_cell_setting           monoclinic
_symmetry_space_group_name_H-M   'P 21/c'
_symmetry_Int_Tables_number      14
_space_group_name_Hall           '-P 2ybc'
loop_
_symmetry_equiv_pos_site_id
_symmetry_equiv_pos_as_xyz
1 x,y,z
2 -x,1/2+y,1/2-z
3 -x,-y,-z
4 x,1/2-y,1/2+z
_cell_length_a                   16.549(2)
_cell_length_b                   10.7751(17)
_cell_length_c                   7.4684(13)
_cell_angle_alpha                90
_cell_angle_beta                 95.506(6)
_cell_angle_gamma                90
_cell_volume                     1325.6
_exptl_crystal_colour            colorless
_exptl_crystal_description       needle
_cell_formula_units_Z            4
loop_
_atom_site_label
_atom_site_type_symbol
_atom_site_fract_x
_atom_site_fract_y
_atom_site_fract_z
C1 C 0.52023(14) 0.0953(2) 0.3019(3)
C2 C 0.49713(15) 0.1837(2) 0.4220(3)
H1 H 0.5363 0.2402 0.4759
C3 C 0.41783(15) 0.1904(2) 0.4639(3)
H2 H 0.4026 0.2518 0.5456
C4 C 0.36058(15) 0.1084(2) 0.3875(3)
H3 H 0.306 0.113 0.4165
C5 C 0.38283(15) 0.0201(2) 0.2696(4)
H4 H 0.3436 -0.0367 0.2166
C6 C 0.46172(15) 0.0137(2) 0.2280(3)
H5 H 0.4765 -0.0481 0.1465
C7 C 0.60307(14) 0.0851(2) 0.2499(3)
H6 H 0.6134 0.0177 0.1734
C8 C 0.66534(14) 0.1595(2) 0.2975(3)
H7 H 0.6567 0.2262 0.3766
C9 C 0.74488(14) 0.1463(2) 0.2382(3)
C10 C 0.80642(14) 0.2231(2) 0.2784(3)
H8 H 0.7977 0.2926 0.3525
C11 C 0.88798(15) 0.2075(2) 0.2153(3)
C12 C 1.01161(16) 0.3000(3) 0.1342(4)
H9 H 1.0347 0.2195 0.1726
H10 H 1.0459 0.3667 0.189
H11 H 1.0091 0.3065 0.0029
C13 C 0.89938(19) 0.4358(3) 0.2035(5)
H12 H 0.8434 0.4325 0.2355
H13 H 0.9006 0.4778 0.0874
H14 H 0.9331 0.4816 0.2962
C14 C 0.78232(14) -0.0598(2) 0.1861(4)
C15 C 0.80090(18) -0.1451(3) 0.0404(4)
H15 H 0.8486 -0.1148 -0.0145
H16 H 0.7543 -0.1489 -0.051
H17 H 0.8121 -0.2282 0.0902
N1 N 0.93045(12) 0.3110(2) 0.1907(3)
O1 O 0.75313(10) 0.05016(15) 0.1151(2)
O2 O 0.78990(11) -0.07981(17) 0.3425(3)
O3 O 0.91567(11) 0.10415(17) 0.1886(3)
loop_
_geom_bond_atom_site_label_1
_geom_bond_atom_site_label_2
_geom_bond_site_symmetry_1
_geom_bond_site_symmetry_2
C1 C2 1_555 1_555
C2 H1 1_555 1_555
C3 C2 1_555 1_555
H2 C3 1_555 1_555
C4 C3 1_555 1_555
H3 C4 1_555 1_555
C5 C4 1_555 1_555
H4 C5 1_555 1_555
C6 C1 1_555 1_555
H5 C6 1_555 1_555
C7 C1 1_555 1_555
H6 C7 1_555 1_555
C8 C7 1_555 1_555
H7 C8 1_555 1_555
C9 C8 1_555 1_555
C10 C9 1_555 1_555
H8 C10 1_555 1_555
C11 C10 1_555 1_555
C12 H9 1_555 1_555
H10 C12 1_555 1_555
H11 C12 1_555 1_555
C13 H12 1_555 1_555
H13 C13 1_555 1_555
H14 C13 1_555 1_555
C14 C15 1_555 1_555
C15 H15 1_555 1_555
H16 C15 1_555 1_555
H17 C15 1_555 1_555
N1 C11 1_555 1_555
O1 C9 1_555 1_555
O2 C14 1_555 1_555
O3 C11 1_555 1_555
C5 C6 1_555 1_555
C12 N1 1_555 1_555
C13 N1 1_555 1_555
C14 O1 1_555 1_555

#END
