
#######################################################################
#
#                 Cambridge Crystallographic Data Centre
#                                CCDC 
#
#######################################################################
#
# If this CIF has been generated from an entry in the Cambridge 
# Structural Database, then it will include bibliographic, chemical, 
# crystal, experimental, refinement or atomic coordinate data resulting 
# from the CCDC's data processing and validation procedures.
#
#######################################################################

data_DESRUR
_chemical_formula_moiety         'C20 H18 Cl3 N3 O3 S1'
_chemical_name_systematic        
3-(2-azidopropan-2-yl)-4-phenyl-5-[(2,4,5-trichlorophenyl)sulfonyl]-3,6-dihydro-2H-pyran
_symmetry_cell_setting           monoclinic
_symmetry_space_group_name_H-M   'P 21/c'
_symmetry_Int_Tables_number      14
_space_group_name_Hall           '-P 2ybc'
loop_
_symmetry_equiv_pos_site_id
_symmetry_equiv_pos_as_xyz
1 x,y,z
2 -x,1/2+y,1/2-z
3 -x,-y,-z
4 x,1/2-y,1/2+z
_cell_length_a                   18.539(2)
_cell_length_b                   6.4198(7)
_cell_length_c                   19.297(2)
_cell_angle_alpha                90
_cell_angle_beta                 111.966(13)
_cell_angle_gamma                90
_cell_volume                     2129.94
_exptl_crystal_colour            colorless
_exptl_crystal_description       block
_cell_formula_units_Z            4
_exptl_crystal_recrystallization_method 
'Re-crystallisation from solvent: petroleum ether, dichloromethane'
loop_
_atom_site_label
_atom_site_type_symbol
_atom_site_fract_x
_atom_site_fract_y
_atom_site_fract_z
O1 O 0.97845(8) 0.0950(2) 0.61830(9)
C1 C 0.92911(12) -0.0821(3) 0.60774(13)
H1 H 0.952389 -0.180746 0.649642
H2 H 0.924576 -0.153970 0.560896
C2 C 0.84829(12) -0.0179(3) 0.60377(11)
H3 H 0.813795 -0.142202 0.585731
C3 C 0.81670(12) 0.1510(3) 0.54441(11)
C4 C 0.86662(12) 0.2531(3) 0.52167(11)
C5 C 0.95397(12) 0.2202(4) 0.55332(13)
H4 H 0.969712 0.153025 0.514979
H5 H 0.980262 0.357137 0.565478
C6 C 0.84501(14) 0.0450(4) 0.68083(12)
N1 N 0.76211(12) 0.0824(3) 0.67137(11)
N2 N 0.71876(13) -0.0699(3) 0.65139(12)
N3 N 0.67342(17) -0.1983(4) 0.63263(16)
C7 C 0.88406(18) 0.2539(6) 0.70927(17)
H6 H 0.858400 0.363098 0.672890
H7 H 0.939072 0.246207 0.716002
H8 H 0.879779 0.286735 0.757187
C8 C 0.8777(2) -0.1252(6) 0.73874(16)
H9 H 0.869222 -0.088338 0.784376
H10 H 0.933640 -0.139981 0.750180
H11 H 0.851507 -0.257180 0.719073
C9 C 0.73090(12) 0.1833(3) 0.51169(11)
C10 C 0.68349(13) 0.0231(3) 0.47030(12)
H12 H 0.706127 -0.105065 0.464368
C11 C 0.60323(14) 0.0495(4) 0.43758(15)
H13 H 0.571357 -0.058951 0.408354
C12 C 0.56994(14) 0.2351(4) 0.44785(15)
H14 H 0.515158 0.253181 0.425892
C13 C 0.61636(14) 0.3933(4) 0.48994(13)
H15 H 0.593364 0.519668 0.497073
C14 C 0.69634(13) 0.3684(3) 0.52178(12)
H16 H 0.727893 0.477805 0.550667
S1 S 0.83794(3) 0.44106(8) 0.44940(3)
O2 O 0.81017(10) 0.6237(2) 0.47452(9)
O3 O 0.90209(10) 0.4625(3) 0.42530(10)
C15 C 0.75839(12) 0.3423(3) 0.37197(11)
C16 C 0.76182(13) 0.1564(3) 0.33571(12)
C17 C 0.70094(13) 0.1019(3) 0.27035(12)
H17 H 0.702561 -0.026091 0.246237
C18 C 0.63775(13) 0.2338(4) 0.24019(12)
C19 C 0.63366(13) 0.4187(3) 0.27654(13)
C20 C 0.69392(13) 0.4708(3) 0.34251(12)
H18 H 0.691097 0.595626 0.367820
Cl1 Cl 0.84071(3) -0.00760(8) 0.36872(3)
Cl2 Cl 0.56653(3) 0.16944(10) 0.15570(3)
Cl3 Cl 0.55659(4) 0.58731(10) 0.24031(3)
loop_
_geom_bond_atom_site_label_1
_geom_bond_atom_site_label_2
_geom_bond_site_symmetry_1
_geom_bond_site_symmetry_2
O1 C1 1_555 1_555
C1 H1 1_555 1_555
H2 C1 1_555 1_555
C2 C1 1_555 1_555
H3 C2 1_555 1_555
C3 C2 1_555 1_555
C4 C3 1_555 1_555
C5 O1 1_555 1_555
H4 C5 1_555 1_555
H5 C5 1_555 1_555
C6 C2 1_555 1_555
N1 C6 1_555 1_555
N2 N1 1_555 1_555
N3 N2 1_555 1_555
C7 C6 1_555 1_555
H6 C7 1_555 1_555
H7 C7 1_555 1_555
H8 C7 1_555 1_555
C8 C6 1_555 1_555
H9 C8 1_555 1_555
H10 C8 1_555 1_555
H11 C8 1_555 1_555
C9 C3 1_555 1_555
C10 C9 1_555 1_555
H12 C10 1_555 1_555
C11 C10 1_555 1_555
H13 C11 1_555 1_555
C12 C11 1_555 1_555
H14 C12 1_555 1_555
C13 C12 1_555 1_555
H15 C13 1_555 1_555
C14 C9 1_555 1_555
H16 C14 1_555 1_555
S1 C4 1_555 1_555
O2 S1 1_555 1_555
O3 S1 1_555 1_555
C15 S1 1_555 1_555
C16 C15 1_555 1_555
C17 C16 1_555 1_555
H17 C17 1_555 1_555
C18 C17 1_555 1_555
C19 C18 1_555 1_555
C20 C15 1_555 1_555
H18 C20 1_555 1_555
Cl1 C16 1_555 1_555
Cl2 C18 1_555 1_555
Cl3 C19 1_555 1_555
C4 C5 1_555 1_555
C13 C14 1_555 1_555
C19 C20 1_555 1_555

#END
