
#######################################################################
#
#                 Cambridge Crystallographic Data Centre
#                                CCDC 
#
#######################################################################
#
# If this CIF has been generated from an entry in the Cambridge 
# Structural Database, then it will include bibliographic, chemical, 
# crystal, experimental, refinement or atomic coordinate data resulting 
# from the CCDC's data processing and validation procedures.
#
#######################################################################

data_DESSAY
_chemical_formula_moiety         'C18 H23 N3 O3 S1'
_chemical_name_systematic        
3-(1-azidocyclohexyl)-4-{[(4-methylphenyl)sulfonyl]methylidene}tetrahydrofuran
_symmetry_cell_setting           triclinic
_symmetry_space_group_name_H-M   'P -1'
_symmetry_Int_Tables_number      2
_space_group_name_Hall           '-P 1'
loop_
_symmetry_equiv_pos_site_id
_symmetry_equiv_pos_as_xyz
1 x,y,z
2 -x,-y,-z
_cell_length_a                   6.7039(3)
_cell_length_b                   10.3609(3)
_cell_length_c                   12.9752(4)
_cell_angle_alpha                84.541(3)
_cell_angle_beta                 87.152(3)
_cell_angle_gamma                77.232(3)
_cell_volume                     874.584
_exptl_crystal_colour            colorless
_exptl_crystal_description       block
_cell_formula_units_Z            2
_exptl_crystal_recrystallization_method 
'Re-crystallisation from solvent: petroleum ether, dichloromethane'
loop_
_atom_site_label
_atom_site_type_symbol
_atom_site_fract_x
_atom_site_fract_y
_atom_site_fract_z
O1 O 0.2266(5) 0.5179(3) 0.5206(2)
C1 C 0.2978(9) 0.5181(4) 0.4151(4)
H1 H 0.189469 0.503508 0.371269
H2 H 0.418787 0.444473 0.408156
C2 C 0.3542(4) 0.6480(2) 0.3787(2)
H3 H 0.504392 0.631046 0.390549
C3 C 0.2571(3) 0.73210(19) 0.46631(18)
C4 C 0.1340(8) 0.6533(4) 0.5366(4)
H4 H 0.142795 0.670670 0.609824
H5 H -0.011558 0.675243 0.517527
C5 C 0.3316(3) 0.7162(2) 0.26770(18)
C6 C 0.4436(3) 0.8304(2) 0.24965(16)
H6 H 0.385270 0.898633 0.297806
H7 H 0.589677 0.796404 0.265646
C7 C 0.4281(3) 0.8951(2) 0.13847(16)
H8 H 0.496517 0.971104 0.131914
H9 H 0.498903 0.829939 0.090357
C8 C 0.2048(4) 0.9434(3) 0.1094(2)
H10 H 0.138675 1.016302 0.152035
H11 H 0.197892 0.979005 0.035785
C9 C 0.0896(4) 0.8317(3) 0.1260(2)
H12 H -0.056877 0.868000 0.112103
H13 H 0.143479 0.764844 0.076149
C10 C 0.1093(4) 0.7645(2) 0.2353(2)
H14 H 0.042674 0.687748 0.240234
H15 H 0.035851 0.827813 0.284165
N1 N 0.4258(3) 0.6092(2) 0.19617(18)
N2 N 0.6095(3) 0.56208(19) 0.20971(17)
N3 N 0.7783(3) 0.5120(2) 0.21613(19)
C11 C 0.3285(3) 0.8291(2) 0.49709(15)
H16 H 0.441965 0.852207 0.458863
S1 S 0.23342(7) 0.92017(5) 0.60261(4)
O2 O 0.2750(3) 1.05092(15) 0.57939(12)
O3 O 0.0271(2) 0.90894(14) 0.63036(11)
C12 C 0.3933(3) 0.83807(19) 0.70429(15)
C13 C 0.6040(3) 0.8190(2) 0.68971(15)
H17 H 0.661649 0.853268 0.627450
C14 C 0.7291(3) 0.7491(2) 0.76764(16)
H18 H 0.873422 0.734544 0.757801
C15 C 0.6470(3) 0.69995(19) 0.86002(15)
C16 C 0.4352(3) 0.7234(2) 0.87361(15)
H19 H 0.377092 0.692365 0.936874
C17 C 0.3073(3) 0.7918(2) 0.79583(15)
H20 H 0.162826 0.806491 0.805374
C18 C 0.7847(4) 0.6220(2) 0.94309(18)
H21 H 0.900016 0.562139 0.911020
H22 H 0.707312 0.569839 0.989886
H23 H 0.836432 0.683327 0.982382
O4? O 0.0066(4) 0.6089(3) 0.4173(2)
C19? C 0.2037(8) 0.5419(4) 0.3815(4)
H24? H 0.195510 0.513421 0.311473
H25? H 0.257099 0.462418 0.428915
H26? H 0.499124 0.602233 0.392933
C20? C 0.0428(7) 0.6934(4) 0.4919(3)
H27? H 0.043002 0.646883 0.562240
H28? H -0.067544 0.774669 0.490265
loop_
_geom_bond_atom_site_label_1
_geom_bond_atom_site_label_2
_geom_bond_site_symmetry_1
_geom_bond_site_symmetry_2
O1 C1 1_555 1_555
C1 H1 1_555 1_555
H2 C1 1_555 1_555
C2 C1 1_555 1_555
H3 C2 1_555 1_555
C3 C2 1_555 1_555
C4 O1 1_555 1_555
H4 C4 1_555 1_555
H5 C4 1_555 1_555
C5 C2 1_555 1_555
C6 C5 1_555 1_555
H6 C6 1_555 1_555
H7 C6 1_555 1_555
C7 C6 1_555 1_555
H8 C7 1_555 1_555
H9 C7 1_555 1_555
C8 C7 1_555 1_555
H10 C8 1_555 1_555
H11 C8 1_555 1_555
C9 C8 1_555 1_555
H12 C9 1_555 1_555
H13 C9 1_555 1_555
C10 C5 1_555 1_555
H14 C10 1_555 1_555
H15 C10 1_555 1_555
N1 C5 1_555 1_555
N2 N1 1_555 1_555
N3 N2 1_555 1_555
C11 C3 1_555 1_555
H16 C11 1_555 1_555
S1 C11 1_555 1_555
O2 S1 1_555 1_555
O3 S1 1_555 1_555
C12 S1 1_555 1_555
C13 C12 1_555 1_555
H17 C13 1_555 1_555
C14 C13 1_555 1_555
H18 C14 1_555 1_555
C15 C14 1_555 1_555
C16 C15 1_555 1_555
H19 C16 1_555 1_555
C17 C12 1_555 1_555
H20 C17 1_555 1_555
C18 C15 1_555 1_555
H21 C18 1_555 1_555
H22 C18 1_555 1_555
H23 C18 1_555 1_555
C3 C4 1_555 1_555
C9 C10 1_555 1_555
C16 C17 1_555 1_555

#END
