
#######################################################################
#
#                 Cambridge Crystallographic Data Centre
#                                CCDC 
#
#######################################################################
#
# If this CIF has been generated from an entry in the Cambridge 
# Structural Database, then it will include bibliographic, chemical, 
# crystal, experimental, refinement or atomic coordinate data resulting 
# from the CCDC's data processing and validation procedures.
#
#######################################################################

data_DESWEG
_chemical_formula_moiety         'C23 H22 O4 S1'
_chemical_name_systematic        
8a-methyl-3-((4-methylphenyl)sulfonyl)-4-phenyl-4a,8a-dihydro-2H-chromen-6(5H)-one
_symmetry_cell_setting           triclinic
_symmetry_space_group_name_H-M   'P -1'
_symmetry_Int_Tables_number      2
_space_group_name_Hall           '-P 1'
loop_
_symmetry_equiv_pos_site_id
_symmetry_equiv_pos_as_xyz
1 x,y,z
2 -x,-y,-z
_cell_length_a                   8.6197(8)
_cell_length_b                   8.7092(7)
_cell_length_c                   14.0075(11)
_cell_angle_alpha                79.216(6)
_cell_angle_beta                 73.320(7)
_cell_angle_gamma                84.283(7)
_cell_volume                     988.338
_cell_formula_units_Z            2
_exptl_crystal_recrystallization_method 
'Re-crystallisation from solvent: petrol, dichloromethane'
loop_
_atom_site_label
_atom_site_type_symbol
_atom_site_fract_x
_atom_site_fract_y
_atom_site_fract_z
S1 S 0.27213(4) 0.36859(4) 0.79310(2)
O1 O 0.28541(12) 0.24375(12) 0.87421(7)
O2 O 0.39342(11) 0.48441(12) 0.75981(7)
C1 C 0.27840(15) 0.29051(15) 0.68328(9)
C2 C 0.42574(16) 0.33559(15) 0.59644(10)
H1 H 0.4164 0.4491 0.5709
H2 H 0.5237 0.3154 0.6212
O3 O 0.44449(10) 0.25171(11) 0.51570(7)
C3 C 0.29634(15) 0.24420(15) 0.48798(10)
C4 C 0.34828(16) 0.16039(16) 0.39782(10)
H3 H 0.4105 0.2157 0.3357
C5 C 0.31296(17) 0.01441(17) 0.39934(11)
H4 H 0.3420 -0.0263 0.3379
C6 C 0.22988(16) -0.08572(15) 0.49391(11)
C7 C 0.21629(16) -0.02417(15) 0.58950(10)
H5 H 0.3203 -0.0459 0.6074
H6 H 0.1310 -0.0790 0.6453
C8 C 0.17440(15) 0.15297(15) 0.57725(10)
H7 H 0.0657 0.1710 0.5637
C9 C 0.16053(15) 0.20855(14) 0.67571(10)
C10 C 0.08000(16) 0.46512(15) 0.82627(10)
C11 C -0.03367(17) 0.41076(16) 0.91594(10)
H8 H -0.0082 0.3223 0.9609
C12 C -0.18513(17) 0.48783(17) 0.93888(11)
H9 H -0.2632 0.4520 1.0005
C13 C -0.22499(17) 0.61648(17) 0.87341(11)
C14 C -0.10752(18) 0.66971(17) 0.78435(12)
H10 H -0.1325 0.7588 0.7396
C15 C 0.04471(17) 0.59507(16) 0.75998(11)
H11 H 0.1237 0.6319 0.6991
C16 C -0.39271(19) 0.6940(2) 0.89718(13)
H12 H -0.3876 0.8041 0.8648
H13 H -0.4360 0.6878 0.9705
H14 H -0.4636 0.6407 0.8717
C17 C 0.22636(17) 0.40710(16) 0.45492(10)
H15 H 0.1942 0.4641 0.5122
H16 H 0.1314 0.3973 0.4317
H17 H 0.3086 0.4644 0.3997
O4 O 0.17907(12) -0.21205(11) 0.49428(8)
C18 C 0.01018(16) 0.16469(15) 0.75756(10)
C19 C 0.01370(18) 0.05175(16) 0.84162(10)
H18 H 0.1140 0.0018 0.8485
C20 C -0.1295(2) 0.01196(18) 0.91560(11)
H19 H -0.1272 -0.0663 0.9725
C21 C -0.27530(19) 0.0864(2) 0.90642(12)
H20 H -0.3725 0.0610 0.9580
C22 C -0.28008(17) 0.1976(2) 0.82248(12)
H21 H -0.3804 0.2482 0.8164
C23 C -0.13807(16) 0.23503(17) 0.74732(11)
H22 H -0.1418 0.3088 0.6887
loop_
_geom_bond_atom_site_label_1
_geom_bond_atom_site_label_2
_geom_bond_site_symmetry_1
_geom_bond_site_symmetry_2
S1 O1 1_555 1_555
O2 S1 1_555 1_555
C1 S1 1_555 1_555
C2 C1 1_555 1_555
H1 C2 1_555 1_555
H2 C2 1_555 1_555
O3 C2 1_555 1_555
C3 O3 1_555 1_555
C4 C3 1_555 1_555
H3 C4 1_555 1_555
C5 C4 1_555 1_555
H4 C5 1_555 1_555
C6 C5 1_555 1_555
C7 C6 1_555 1_555
H5 C7 1_555 1_555
H6 C7 1_555 1_555
C8 C3 1_555 1_555
H7 C8 1_555 1_555
C9 C1 1_555 1_555
C10 S1 1_555 1_555
C11 C10 1_555 1_555
H8 C11 1_555 1_555
C12 C11 1_555 1_555
H9 C12 1_555 1_555
C13 C12 1_555 1_555
C14 C13 1_555 1_555
H10 C14 1_555 1_555
C15 C10 1_555 1_555
H11 C15 1_555 1_555
C16 C13 1_555 1_555
H12 C16 1_555 1_555
H13 C16 1_555 1_555
H14 C16 1_555 1_555
C17 C3 1_555 1_555
H15 C17 1_555 1_555
H16 C17 1_555 1_555
H17 C17 1_555 1_555
O4 C6 1_555 1_555
C18 C9 1_555 1_555
C19 C18 1_555 1_555
H18 C19 1_555 1_555
C20 C19 1_555 1_555
H19 C20 1_555 1_555
C21 C20 1_555 1_555
H20 C21 1_555 1_555
C22 C21 1_555 1_555
H21 C22 1_555 1_555
C23 C18 1_555 1_555
H22 C23 1_555 1_555
C7 C8 1_555 1_555
C8 C9 1_555 1_555
C14 C15 1_555 1_555
C22 C23 1_555 1_555

#END
