
#######################################################################
#
#                 Cambridge Crystallographic Data Centre
#                                CCDC 
#
#######################################################################
#
# If this CIF has been generated from an entry in the Cambridge 
# Structural Database, then it will include bibliographic, chemical, 
# crystal, experimental, refinement or atomic coordinate data resulting 
# from the CCDC's data processing and validation procedures.
#
#######################################################################

data_DESXAD
_chemical_formula_moiety         'C22 H20 O4 S1'
_chemical_name_systematic        
3-(((4-methylphenyl)sulfonyl)methylene)-7a-phenyl-2,3,3a,7a-tetrahydro-1-benzofuran-5(4H)-one
_symmetry_cell_setting           monoclinic
_symmetry_space_group_name_H-M   'P 21/n'
_symmetry_Int_Tables_number      14
_space_group_name_Hall           '-P 2yn'
loop_
_symmetry_equiv_pos_site_id
_symmetry_equiv_pos_as_xyz
1 x,y,z
2 1/2-x,1/2+y,1/2-z
3 -x,-y,-z
4 1/2+x,1/2-y,1/2+z
_cell_length_a                   11.3319(3)
_cell_length_b                   6.65471(19)
_cell_length_c                   25.1063(5)
_cell_angle_alpha                90
_cell_angle_beta                 94.1642(19)
_cell_angle_gamma                90
_cell_volume                     1888.28
_exptl_crystal_colour            colorless
_exptl_crystal_description       plate
_cell_formula_units_Z            4
_exptl_crystal_recrystallization_method petrol/dichloromethane
loop_
_atom_site_label
_atom_site_type_symbol
_atom_site_fract_x
_atom_site_fract_y
_atom_site_fract_z
O1 O 0.88607(9) 1.05554(16) 0.42849(4)
C1 C 0.98094(13) 0.9161(2) 0.42293(7)
H1 H 1.0426 0.9317 0.4527
H2 H 1.0174 0.9382 0.3888
C2 C 0.92565(12) 0.7096(2) 0.42410(5)
C3 C 0.79457(12) 0.7416(2) 0.42877(5)
H3 H 0.7776 0.7374 0.4673
C4 C 0.71453(12) 0.5926(2) 0.39763(5)
H4 H 0.7324 0.4550 0.4108
H5 H 0.6310 0.6225 0.4037
C5 C 0.73104(13) 0.6021(2) 0.33850(6)
C6 C 0.75743(14) 0.8005(2) 0.31658(6)
H6 H 0.7624 0.8138 0.2791
C7 C 0.77472(14) 0.9630(2) 0.34754(6)
H7 H 0.7852 1.0888 0.3306
C8 C 0.77851(13) 0.9584(2) 0.40786(5)
C9 C 0.97589(13) 0.5309(2) 0.41920(5)
H8 H 0.9281 0.4148 0.4223
S1 S 1.12478(3) 0.49654(6) 0.40731(2)
O2 O 1.17911(10) 0.68950(19) 0.40019(5)
O3 O 1.17900(11) 0.3610(2) 0.44627(4)
C10 C 1.11517(12) 0.3691(2) 0.34542(5)
C11 C 1.06196(15) 0.4649(3) 0.30067(6)
H9 H 1.0301 0.5963 0.3032
C12 C 1.05644(17) 0.3641(4) 0.25219(7)
H10 H 1.0200 0.4278 0.2214
C13 C 1.10305(15) 0.1723(4) 0.24770(7)
C14 C 1.15639(15) 0.0811(3) 0.29294(8)
H11 H 1.1894 -0.0494 0.2903
C15 C 1.16216(13) 0.1782(3) 0.34209(6)
H12 H 1.1980 0.1142 0.3730
C16 C 1.0952(2) 0.0635(6) 0.19469(10)
H13 H 1.1552 -0.0428 0.1954
H14 H 1.1091 0.1588 0.1661
H15 H 1.0164 0.0039 0.1882
O4 O 0.71994(12) 0.45430(19) 0.31007(5)
C17 C 0.67513(12) 1.0670(2) 0.42976(5)
C18 C 0.57057(13) 1.1015(2) 0.39834(6)
H16 H 0.5639 1.0579 0.3622
C19 C 0.47615(14) 1.1990(2) 0.41938(7)
H17 H 0.4052 1.2215 0.3976
C20 C 0.48489(13) 1.2636(2) 0.47188(7)
H18 H 0.4201 1.3298 0.4863
C21 C 0.58870(14) 1.2311(2) 0.50343(6)
H19 H 0.5953 1.2766 0.5394
C22 C 0.68297(13) 1.1323(2) 0.48264(5)
H20 H 0.7534 1.1090 0.5046
loop_
_geom_bond_atom_site_label_1
_geom_bond_atom_site_label_2
_geom_bond_site_symmetry_1
_geom_bond_site_symmetry_2
O1 C1 1_555 1_555
C1 H1 1_555 1_555
H2 C1 1_555 1_555
C2 C1 1_555 1_555
C3 C2 1_555 1_555
H3 C3 1_555 1_555
C4 C3 1_555 1_555
H4 C4 1_555 1_555
H5 C4 1_555 1_555
C5 C4 1_555 1_555
C6 C5 1_555 1_555
H6 C6 1_555 1_555
C7 C6 1_555 1_555
H7 C7 1_555 1_555
C8 O1 1_555 1_555
C9 C2 1_555 1_555
H8 C9 1_555 1_555
S1 C9 1_555 1_555
O2 S1 1_555 1_555
O3 S1 1_555 1_555
C10 S1 1_555 1_555
C11 C10 1_555 1_555
H9 C11 1_555 1_555
C12 C11 1_555 1_555
H10 C12 1_555 1_555
C13 C12 1_555 1_555
C14 C13 1_555 1_555
H11 C14 1_555 1_555
C15 C10 1_555 1_555
H12 C15 1_555 1_555
C16 C13 1_555 1_555
H13 C16 1_555 1_555
H14 C16 1_555 1_555
H15 C16 1_555 1_555
O4 C5 1_555 1_555
C17 C8 1_555 1_555
C18 C17 1_555 1_555
H16 C18 1_555 1_555
C19 C18 1_555 1_555
H17 C19 1_555 1_555
C20 C19 1_555 1_555
H18 C20 1_555 1_555
C21 C20 1_555 1_555
H19 C21 1_555 1_555
C22 C17 1_555 1_555
H20 C22 1_555 1_555
C3 C8 1_555 1_555
C7 C8 1_555 1_555
C14 C15 1_555 1_555
C21 C22 1_555 1_555

#END
