
#######################################################################
#
#                 Cambridge Crystallographic Data Centre
#                                CCDC 
#
#######################################################################
#
# If this CIF has been generated from an entry in the Cambridge 
# Structural Database, then it will include bibliographic, chemical, 
# crystal, experimental, refinement or atomic coordinate data resulting 
# from the CCDC's data processing and validation procedures.
#
#######################################################################

data_DETDAI
_chemical_formula_moiety         'C24 H17 Cl1 N2 O2'
_chemical_name_systematic        
(E)-N-((2-(3-Chlorophenyl)-2-phenylcyclobut-1-ylidene)amino)phthalimide
_symmetry_cell_setting           monoclinic
_symmetry_space_group_name_H-M   'P c'
_symmetry_Int_Tables_number      7
_space_group_name_Hall           'P -2yc'
loop_
_symmetry_equiv_pos_site_id
_symmetry_equiv_pos_as_xyz
1 x,y,z
2 x,-y,1/2+z
_cell_length_a                   8.7336(17)
_cell_length_b                   7.8955(16)
_cell_length_c                   14.484(3)
_cell_angle_alpha                90
_cell_angle_beta                 95.04(3)
_cell_angle_gamma                90
_cell_volume                     994.899
_exptl_crystal_colour            colorless
_exptl_crystal_description       block
_chemical_melting_point          '459 K'
_cell_formula_units_Z            2
_exptl_crystal_recrystallization_method 'ethanol/ethyl acetate'
loop_
_atom_site_label
_atom_site_type_symbol
_atom_site_fract_x
_atom_site_fract_y
_atom_site_fract_z
Cl1 Cl 0.88828(13) 0.13721(18) 0.75148(9)
O1 O 0.2015(4) 0.6910(3) 0.85755(19)
O2 O 0.3448(4) 0.2237(4) 0.7016(2)
N1 N 0.2781(4) 0.4322(4) 0.8024(2)
N2 N 0.3847(3) 0.3943(4) 0.8789(2)
C1 C 0.2765(5) 0.3511(5) 0.7159(3)
C2 C 0.1785(4) 0.4602(5) 0.6511(3)
C3 C 0.1355(5) 0.4381(6) 0.5586(3)
H1 H 0.1687 0.3453 0.5262
C4 C 0.0393(5) 0.5613(6) 0.5149(3)
H2 H 0.0056 0.5496 0.4526
C5 C -0.0055(5) 0.6985(6) 0.5632(3)
H3 H -0.0692 0.7787 0.5325
C6 C 0.0402(5) 0.7226(6) 0.6559(3)
H4 H 0.0089 0.8166 0.6881
C7 C 0.1350(5) 0.5998(4) 0.6987(3)
C8 C 0.2043(4) 0.5900(5) 0.7959(3)
C9 C 0.3729(4) 0.2430(5) 0.9084(3)
C10 C 0.2648(5) 0.0984(5) 0.8936(3)
H5 H 0.2846 0.0269 0.8415
H6 H 0.1573 0.1304 0.8911
C11 C 0.3294(5) 0.0281(6) 0.9880(3)
H7 H 0.3592 -0.0902 0.9864
H8 H 0.2640 0.0490 1.0376
C12 C 0.4680(4) 0.1548(4) 0.9869(3)
C13 C 0.6099(4) 0.0705(5) 0.9522(3)
C14 C 0.6755(5) -0.0670(5) 1.0002(3)
H9 H 0.6325 -0.1084 1.0521
C15 C 0.8062(6) -0.1428(6) 0.9701(4)
H10 H 0.8485 -0.2366 1.0017
C16 C 0.8739(5) -0.0816(6) 0.8947(3)
H11 H 0.9621 -0.1314 0.8753
C17 C 0.8072(5) 0.0551(5) 0.8490(3)
C18 C 0.6775(5) 0.1314(5) 0.8764(3)
H12 H 0.6351 0.2241 0.8437
C19 C 0.5151(4) 0.2518(5) 1.0753(3)
C20 C 0.5841(5) 0.4089(5) 1.0716(3)
H13 H 0.5938 0.4604 1.0147
C21 C 0.6395(6) 0.4907(6) 1.1540(3)
H14 H 0.6865 0.5960 1.1513
C22 C 0.6250(6) 0.4169(7) 1.2379(3)
H15 H 0.6629 0.4712 1.2921
C23 C 0.5547(6) 0.2634(7) 1.2422(3)
H16 H 0.5427 0.2145 1.2995
C24 C 0.5012(5) 0.1799(6) 1.1619(3)
H17 H 0.4552 0.0742 1.1658
loop_
_geom_bond_atom_site_label_1
_geom_bond_atom_site_label_2
_geom_bond_site_symmetry_1
_geom_bond_site_symmetry_2
Cl1 C17 1_555 1_555
O1 C8 1_555 1_555
O2 C1 1_555 1_555
N1 N2 1_555 1_555
N2 C9 1_555 1_555
C1 N1 1_555 1_555
C2 C1 1_555 1_555
C3 C2 1_555 1_555
H1 C3 1_555 1_555
C4 C3 1_555 1_555
H2 C4 1_555 1_555
C5 C4 1_555 1_555
H3 C5 1_555 1_555
C6 C5 1_555 1_555
H4 C6 1_555 1_555
C7 C2 1_555 1_555
C8 N1 1_555 1_555
C9 C10 1_555 1_555
C10 H5 1_555 1_555
H6 C10 1_555 1_555
C11 C10 1_555 1_555
H7 C11 1_555 1_555
H8 C11 1_555 1_555
C12 C9 1_555 1_555
C13 C12 1_555 1_555
C14 C13 1_555 1_555
H9 C14 1_555 1_555
C15 C14 1_555 1_555
H10 C15 1_555 1_555
C16 C15 1_555 1_555
H11 C16 1_555 1_555
C17 C16 1_555 1_555
C18 C13 1_555 1_555
H12 C18 1_555 1_555
C19 C12 1_555 1_555
C20 C19 1_555 1_555
H13 C20 1_555 1_555
C21 C20 1_555 1_555
H14 C21 1_555 1_555
C22 C21 1_555 1_555
H15 C22 1_555 1_555
C23 C22 1_555 1_555
H16 C23 1_555 1_555
C24 C19 1_555 1_555
H17 C24 1_555 1_555
C6 C7 1_555 1_555
C7 C8 1_555 1_555
C11 C12 1_555 1_555
C17 C18 1_555 1_555
C23 C24 1_555 1_555

#END
