
#######################################################################
#
#                 Cambridge Crystallographic Data Centre
#                                CCDC 
#
#######################################################################
#
# If this CIF has been generated from an entry in the Cambridge 
# Structural Database, then it will include bibliographic, chemical, 
# crystal, experimental, refinement or atomic coordinate data resulting 
# from the CCDC's data processing and validation procedures.
#
#######################################################################

data_DETGAN
_chemical_formula_moiety         'C7 H10 N2,C1 H4 N2 O1'
_chemical_name_systematic        'urea N,N-dimethylpyridin-4-amine'
_symmetry_cell_setting           monoclinic
_symmetry_space_group_name_H-M   'C 2/c'
_symmetry_Int_Tables_number      15
_space_group_name_Hall           '-C 2yn'
loop_
_symmetry_equiv_pos_site_id
_symmetry_equiv_pos_as_xyz
1 x,y,z
2 -x,y,1/2-z
3 1/2+x,1/2+y,z
4 1/2-x,1/2+y,1/2-z
5 -x,-y,-z
6 x,-y,1/2+z
7 1/2-x,1/2-y,-z
8 1/2+x,1/2-y,1/2+z
_cell_length_a                   10.9794(18)
_cell_length_b                   14.3050(11)
_cell_length_c                   7.3329(11)
_cell_angle_alpha                90
_cell_angle_beta                 120.12(2)
_cell_angle_gamma                90
_cell_volume                     996.2
_cell_formula_units_Z            4
loop_
_atom_site_label
_atom_site_type_symbol
_atom_site_fract_x
_atom_site_fract_y
_atom_site_fract_z
O1 O 0.5000 0.48121(13) 0.2500
N1 N 0.5039(2) 0.61732(12) 0.0985(3)
H1 H 0.5065 0.5888 -0.0027
H2 H 0.5038 0.6774 0.1020
C1 C 0.5000 0.5684(2) 0.2500
N1A N 0.4961(2) 0.61732(12) 0.4015(3)
H1A H 0.4935 0.5888 0.5027
H2A H 0.4962 0.6774 0.3980
C2 C 0.0000 0.48621(19) 0.7500
N2 N 0.0000 0.68314(19) 0.7500
N3 N 0.0000 0.39157(17) 0.7500
C3 C 0.1242(3) 0.53784(16) 0.8386(4)
H3 H 0.2110 0.5078 0.9009
C4 C 0.1171(3) 0.63266(17) 0.8331(4)
H4 H 0.2019 0.6651 0.8929
C5 C -0.1299(3) 0.33945(17) 0.6536(5)
H5 H -0.1812 0.3532 0.7246
H6 H -0.1095 0.2738 0.6643
H7 H -0.1855 0.3566 0.5078
C3A C -0.1242(3) 0.53784(16) 0.6614(4)
H3A H -0.2110 0.5078 0.5991
C4A C -0.1171(3) 0.63266(17) 0.6669(4)
H4A H -0.2019 0.6651 0.6071
C5A C 0.1299(3) 0.33945(17) 0.8464(5)
H5A H 0.1812 0.3532 0.7754
H6A H 0.1095 0.2738 0.8357
H7A H 0.1855 0.3566 0.9922
loop_
_geom_bond_atom_site_label_1
_geom_bond_atom_site_label_2
_geom_bond_site_symmetry_1
_geom_bond_site_symmetry_2
O1 C1 1_555 1_555
N1 H1 1_555 1_555
H2 N1 1_555 1_555
C1 N1 1_555 1_555
C2 N3 1_555 1_555
N2 C4 1_555 1_555
N3 C5 1_555 1_555
C3 C2 1_555 1_555
H3 C3 1_555 1_555
C4 C3 1_555 1_555
H4 C4 1_555 1_555
C5 H5 1_555 1_555
H6 C5 1_555 1_555
H7 C5 1_555 1_555
N1A C1 1_555 1_555
H1A N1A 1_555 1_555
H2A N1A 1_555 1_555
C3A C2 1_555 1_555
H3A C3A 1_555 1_555
C4A N2 1_555 1_555
H4A C4A 1_555 1_555
C5A N3 1_555 1_555
H5A C5A 1_555 1_555
H6A C5A 1_555 1_555
H7A C5A 1_555 1_555
C3A C4A 1_555 1_555

#END
