
#######################################################################
#
#                 Cambridge Crystallographic Data Centre
#                                CCDC 
#
#######################################################################
#
# If this CIF has been generated from an entry in the Cambridge 
# Structural Database, then it will include bibliographic, chemical, 
# crystal, experimental, refinement or atomic coordinate data resulting 
# from the CCDC's data processing and validation procedures.
#
#######################################################################

data_DETGIS
_chemical_formula_moiety         'C15 H12 N2 O3'
_chemical_name_systematic        3-(p-Benzoyloxyphenyl)sydnone
_symmetry_cell_setting           monoclinic
_symmetry_space_group_name_H-M   'P 21/c'
_symmetry_Int_Tables_number      14
_space_group_name_Hall           '-P 2ybc'
loop_
_symmetry_equiv_pos_site_id
_symmetry_equiv_pos_as_xyz
1 x,y,z
2 -x,1/2+y,1/2-z
3 -x,-y,-z
4 x,1/2-y,1/2+z
_cell_length_a                   6.582(3)
_cell_length_b                   9.190(1)
_cell_length_c                   20.848(2)
_cell_angle_alpha                90
_cell_angle_beta                 96.77(3)
_cell_angle_gamma                90
_cell_volume                     1252.27
_cell_formula_units_Z            4
loop_
_atom_site_label
_atom_site_type_symbol
_atom_site_fract_x
_atom_site_fract_y
_atom_site_fract_z
C1 C 0.3445(3) 0.3401(2) 0.1437(1)
C2 C 0.3395(3) 0.2303(2) 0.0978(1)
C3 C 0.1659(3) 0.2076(2) 0.0553(1)
C4 C -0.0016(2) 0.2958(2) 0.0594(1)
C5 C -0.0014(3) 0.4049(2) 0.1043(1)
C6 C 0.1749(3) 0.4284(2) 0.1468(1)
C7 C -0.3097(3) 0.3759(2) -0.0123(1)
C8 C -0.4674(3) 0.3038(2) -0.0510(1)
C9 C 0.5340(3) 0.4702(2) 0.2302(1)
C10 C 0.7383(3) 0.4656(2) 0.2705(1)
C11 C 0.8776(3) 0.5768(2) 0.2669(1)
C12 C 1.0629(3) 0.5753(2) 0.3063(1)
C13 C 1.1094(3) 0.4624(2) 0.3483(1)
C14 C 0.9716(3) 0.3512(2) 0.3526(1)
C15 C 0.7856(3) 0.3539(2) 0.3142(1)
N1 N -0.1861(2) 0.2732(2) 0.0156(1)
N2 N -0.2415(2) 0.1388(2) 0.0012(1)
O1 O -0.4183(2) 0.1553(1) -0.0410(1)
O2 O -0.6172(2) 0.3386(2) -0.0866(1)
O3 O 0.5229(2) 0.3526(1) 0.1843(1)
H1 H 0.1593 0.1202 0.0206
H2 H 0.4566 0.1598 0.1009
H3 H 0.1728 0.5038 0.1842
H4 H -0.1276 0.4787 0.1092
H5 H -0.2859 0.4906 -0.0062
H6 H 0.5133 0.5737 0.2037
H7 H 0.4121 0.4625 0.2601
H8 H 0.8395 0.6650 0.2338
H9 H 1.1730 0.6602 0.3045
H10 H 1.2518 0.4574 0.3785
H11 H 0.6797 0.2687 0.3178
H12 H 1.0074 0.2587 0.3874
loop_
_geom_bond_atom_site_label_1
_geom_bond_atom_site_label_2
_geom_bond_site_symmetry_1
_geom_bond_site_symmetry_2
C1 C2 1_555 1_555
C2 C3 1_555 1_555
C3 C4 1_555 1_555
C4 C5 1_555 1_555
C5 C6 1_555 1_555
C6 C1 1_555 1_555
C7 C8 1_555 1_555
C8 O1 1_555 1_555
C9 C10 1_555 1_555
C10 C11 1_555 1_555
C11 C12 1_555 1_555
C12 C13 1_555 1_555
C13 C14 1_555 1_555
C14 C15 1_555 1_555
C15 C10 1_555 1_555
N1 C4 1_555 1_555
N2 N1 1_555 1_555
O1 N2 1_555 1_555
O2 C8 1_555 1_555
O3 C1 1_555 1_555
H1 C3 1_555 1_555
H2 C2 1_555 1_555
H3 C6 1_555 1_555
H4 C5 1_555 1_555
H5 C7 1_555 1_555
H6 C9 1_555 1_555
H7 C9 1_555 1_555
H8 C11 1_555 1_555
H9 C12 1_555 1_555
H10 C13 1_555 1_555
H11 C15 1_555 1_555
H12 C14 1_555 1_555
C7 N1 1_555 1_555
C9 O3 1_555 1_555

#END
