
#######################################################################
#
#                 Cambridge Crystallographic Data Centre
#                                CCDC 
#
#######################################################################
#
# If this CIF has been generated from an entry in the Cambridge 
# Structural Database, then it will include bibliographic, chemical, 
# crystal, experimental, refinement or atomic coordinate data resulting 
# from the CCDC's data processing and validation procedures.
#
#######################################################################

data_DETGOZ01
_chemical_formula_moiety         'C29 H26 N4 O5 S1'
_chemical_name_systematic        
6-(4-(Ethoxycarbonylmethoxy)phenoxy)-5-(3-methylphenyl)-3-methylthio-1-phenylpyrazolo(3,4-d)pyrimidin-4-one
_chemical_properties_biological  
'herbicidal activity against rape and barnyard grass'
_symmetry_cell_setting           tetragonal
_symmetry_space_group_name_H-M   'P 43'
_symmetry_Int_Tables_number      78
_space_group_name_Hall           'P 4cw'
loop_
_symmetry_equiv_pos_site_id
_symmetry_equiv_pos_as_xyz
1 x,y,z
2 -x,-y,1/2+z
3 -y,x,3/4+z
4 y,-x,1/4+z
_cell_length_a                   14.1908(16)
_cell_length_b                   14.1908(16)
_cell_length_c                   13.760(3)
_cell_angle_alpha                90
_cell_angle_beta                 90
_cell_angle_gamma                90
_cell_volume                     2770.97
_exptl_crystal_colour            colorless
_exptl_crystal_description       needle
_chemical_melting_point          202-204deg.C
_cell_formula_units_Z            4
_exptl_crystal_recrystallization_method dichloromethane
loop_
_atom_site_label
_atom_site_type_symbol
_atom_site_fract_x
_atom_site_fract_y
_atom_site_fract_z
C1 C 0.9677(3) 1.1713(3) 0.0836(3)
H1 H 1.0300 1.1557 0.0971
C2 C 0.9406(4) 1.2644(3) 0.0769(4)
H2 H 0.9855 1.3114 0.0854
C3 C 0.8499(4) 1.2892(3) 0.0583(3)
H3 H 0.8330 1.3522 0.0525
C4 C 0.7837(4) 1.2191(3) 0.0481(4)
H4 H 0.7212 1.2354 0.0367
C5 C 0.8079(3) 1.1261(3) 0.0546(3)
H5 H 0.7622 1.0794 0.0486
C6 C 0.9016(3) 1.1021(2) 0.0702(2)
C7 C 1.2192(3) 0.9335(3) 0.0908(4)
H6 H 1.2166 0.9642 0.0287
H7 H 1.2822 0.9119 0.1028
H8 H 1.2010 0.9771 0.1407
C8 C 1.0320(2) 0.8937(3) 0.0842(2)
C9 C 0.9422(2) 0.8514(2) 0.0839(2)
C10 C 0.8801(2) 0.9252(3) 0.0796(2)
C11 C 0.9080(2) 0.7567(2) 0.0920(2)
C12 C 0.7533(2) 0.8345(3) 0.0859(3)
C13 C 0.7617(3) 0.6637(2) 0.1014(3)
C14 C 0.7500(4) 0.6058(3) 0.0216(4)
H9 H 0.7717 0.6248 -0.0391
C15 C 0.7056(4) 0.5186(4) 0.0326(5)
H10 H 0.6968 0.4801 -0.0213
C16 C 0.6755(4) 0.4900(3) 0.1205(5)
H11 H 0.6485 0.4307 0.1276
C17 C 0.6844(3) 0.5482(4) 0.2002(4)
C18 C 0.7284(3) 0.6358(3) 0.1902(4)
H12 H 0.7351 0.6751 0.2439
C19 C 0.6463(5) 0.5213(6) 0.2951(6)
H13 H 0.6573 0.4554 0.3061
H14 H 0.5798 0.5335 0.2965
H15 H 0.6768 0.5573 0.3451
C20 C 0.5993(2) 0.8945(2) 0.0894(3)
C21 C 0.5896(3) 0.9478(3) 0.1723(3)
H16 H 0.6246 0.9341 0.2277
C22 C 0.5269(3) 1.0221(3) 0.1716(3)
H17 H 0.5207 1.0598 0.2265
C23 C 0.4744(2) 1.0404(3) 0.0917(4)
C24 C 0.4830(3) 0.9860(3) 0.0102(3)
H18 H 0.4468 0.9990 -0.0445
C25 C 0.5453(3) 0.9123(3) 0.0097(3)
H19 H 0.5508 0.8745 -0.0452
C26 C 0.3738(4) 1.1526(4) 0.0168(5)
H20 H 0.3245 1.1972 0.0331
H21 H 0.3470 1.1030 -0.0231
C27 C 0.4594(7) 1.2050(5) -0.0402(9)
C28 C 0.5123(9) 1.2651(8) -0.1871(10)
H22 H 0.5336 1.3225 -0.1557
H23 H 0.4838 1.2827 -0.2486
C29 C 0.6006(8) 1.2008(10) -0.2082(12)
H24 H 0.6323 1.1868 -0.1483
H25 H 0.6431 1.2333 -0.2510
H26 H 0.5803 1.1432 -0.2382
N1 N 1.0263(2) 0.9859(2) 0.0781(2)
N2 N 0.93008(19) 1.0056(2) 0.0750(2)
N3 N 0.8065(2) 0.75376(19) 0.0916(2)
N4 N 0.78324(19) 0.91952(19) 0.0786(2)
O1 O 0.95223(17) 0.68506(17) 0.1006(2)
O2 O 0.66065(17) 0.81582(17) 0.0875(2)
O3 O 0.4133(2) 1.1153(2) 0.1002(3)
O4 O 0.5252(6) 1.2392(5) 0.0052(6)
O5 O 0.4369(6) 1.2187(5) -0.1229(7)
S1 S 1.14038(7) 0.83517(8) 0.09120(8)
loop_
_geom_bond_atom_site_label_1
_geom_bond_atom_site_label_2
_geom_bond_site_symmetry_1
_geom_bond_site_symmetry_2
C1 H1 1_555 1_555
C2 C1 1_555 1_555
H2 C2 1_555 1_555
C3 C2 1_555 1_555
H3 C3 1_555 1_555
C4 C3 1_555 1_555
H4 C4 1_555 1_555
C5 C4 1_555 1_555
H5 C5 1_555 1_555
C6 C1 1_555 1_555
C7 H6 1_555 1_555
H7 C7 1_555 1_555
H8 C7 1_555 1_555
C8 C9 1_555 1_555
C9 C10 1_555 1_555
C10 N2 1_555 1_555
C11 C9 1_555 1_555
C12 N3 1_555 1_555
C13 C14 1_555 1_555
C14 H9 1_555 1_555
C15 C14 1_555 1_555
H10 C15 1_555 1_555
C16 C15 1_555 1_555
H11 C16 1_555 1_555
C17 C16 1_555 1_555
C18 C13 1_555 1_555
H12 C18 1_555 1_555
C19 C17 1_555 1_555
H13 C19 1_555 1_555
H14 C19 1_555 1_555
H15 C19 1_555 1_555
C20 C21 1_555 1_555
C21 H16 1_555 1_555
C22 C21 1_555 1_555
H17 C22 1_555 1_555
C23 C22 1_555 1_555
C24 C23 1_555 1_555
H18 C24 1_555 1_555
C25 C20 1_555 1_555
H19 C25 1_555 1_555
C26 H20 1_555 1_555
H21 C26 1_555 1_555
C27 C26 1_555 1_555
C28 H22 1_555 1_555
H23 C28 1_555 1_555
C29 C28 1_555 1_555
H24 C29 1_555 1_555
H25 C29 1_555 1_555
H26 C29 1_555 1_555
N1 C8 1_555 1_555
N2 C6 1_555 1_555
N3 C11 1_555 1_555
N4 C10 1_555 1_555
O1 C11 1_555 1_555
O2 C12 1_555 1_555
O3 C23 1_555 1_555
O4 C27 1_555 1_555
O5 C27 1_555 1_555
S1 C7 1_555 1_555
C5 C6 1_555 1_555
C8 S1 1_555 1_555
C12 N4 1_555 1_555
C13 N3 1_555 1_555
C17 C18 1_555 1_555
C20 O2 1_555 1_555
C24 C25 1_555 1_555
C26 O3 1_555 1_555
C28 O5 1_555 1_555
N1 N2 1_555 1_555

#END
