
#######################################################################
#
#                 Cambridge Crystallographic Data Centre
#                                CCDC 
#
#######################################################################
#
# If this CIF has been generated from an entry in the Cambridge 
# Structural Database, then it will include bibliographic, chemical, 
# crystal, experimental, refinement or atomic coordinate data resulting 
# from the CCDC's data processing and validation procedures.
#
#######################################################################

data_DETHAM
_chemical_formula_moiety         'C34 H34 N4 O6'
_chemical_name_systematic        
N,N'-1,2-Ethanediylbis(2-((N-benzylcarbamoyl)methoxy)benzamide)
_symmetry_cell_setting           monoclinic
_symmetry_space_group_name_H-M   'P 21/c'
_symmetry_Int_Tables_number      14
_space_group_name_Hall           '-P 2ybc'
loop_
_symmetry_equiv_pos_site_id
_symmetry_equiv_pos_as_xyz
1 x,y,z
2 -x,1/2+y,1/2-z
3 -x,-y,-z
4 x,1/2-y,1/2+z
_cell_length_a                   12.7401(3)
_cell_length_b                   13.6100(4)
_cell_length_c                   8.8838(2)
_cell_angle_alpha                90
_cell_angle_beta                 105.4570(10)
_cell_angle_gamma                90
_cell_volume                     1484.67
_exptl_crystal_colour            colorless
_exptl_crystal_description       block
_chemical_melting_point          '484-486 K'
_cell_formula_units_Z            2
_exptl_crystal_recrystallization_method DMF
loop_
_atom_site_label
_atom_site_type_symbol
_atom_site_fract_x
_atom_site_fract_y
_atom_site_fract_z
N1 N 0.17595(11) 0.25771(11) 0.91492(16)
H1 H 0.1870 0.2874 0.8350
N2 N 0.49183(10) 0.03475(10) 1.29381(14)
H2 H 0.4476 0.0788 1.2439
O1 O 0.25705(9) 0.17763(9) 1.13967(12)
O2 O 0.44671(8) 0.17085(9) 1.07389(12)
O3 O 0.64868(10) -0.04712(9) 1.32030(14)
C1 C -0.00411(13) 0.17964(13) 0.8242(2)
C2 C 0.02140(18) 0.08153(17) 0.8445(3)
H3 H 0.0806 0.0622 0.9253
C3 C -0.0388(2) 0.0116(2) 0.7479(4)
H4 H -0.0208 -0.0545 0.7649
C4 C -0.1257(2) 0.0384(2) 0.6259(3)
H5 H -0.1644 -0.0088 0.5575
C5 C -0.15405(16) 0.1345(2) 0.6067(3)
H6 H -0.2140 0.1532 0.5265
C6 C -0.09416(14) 0.20525(16) 0.7060(2)
H7 H -0.1151 0.2708 0.6926
C7 C 0.06510(13) 0.25416(14) 0.9312(2)
H8 H 0.0320 0.3185 0.9084
H9 H 0.0674 0.2381 1.0384
C8 C 0.26126(12) 0.21738(11) 1.01725(17)
C9 C 0.36552(12) 0.22538(12) 0.96690(18)
H10 H 0.3546 0.1993 0.8622
H11 H 0.3874 0.2936 0.9668
C10 C 0.54140(11) 0.14867(11) 1.03464(17)
C11 C 0.57218(13) 0.19701(12) 0.91583(18)
H12 H 0.5281 0.2462 0.8594
C12 C 0.66791(14) 0.17220(13) 0.8813(2)
H13 H 0.6879 0.2046 0.8010
C13 C 0.73428(14) 0.09991(14) 0.9643(2)
H14 H 0.7987 0.0831 0.9403
C14 C 0.70393(13) 0.05271(13) 1.0837(2)
H15 H 0.7494 0.0045 1.1405
C15 C 0.60748(12) 0.07487(11) 1.12169(16)
C16 C 0.58391(12) 0.01605(11) 1.25268(17)
C17 C 0.46568(13) -0.01805(12) 1.42096(17)
H16 H 0.4785 -0.0877 1.4107
H17 H 0.3891 -0.0091 1.4150
N1B N 0.82405(11) -0.25771(11) 2.08508(16)
H1B H 0.8130 -0.2874 2.1650
N2B N 0.50817(10) -0.03475(10) 1.70619(14)
H2B H 0.5524 -0.0788 1.7561
O1B O 0.74295(9) -0.17763(9) 1.86033(12)
O2B O 0.55329(8) -0.17085(9) 1.92611(12)
O3B O 0.35132(10) 0.04712(9) 1.67970(14)
C1B C 1.00411(13) -0.17964(13) 2.1758(2)
C2B C 0.97860(18) -0.08153(17) 2.1555(3)
H3B H 0.9194 -0.0622 2.0747
C3B C 1.0388(2) -0.0116(2) 2.2521(4)
H4B H 1.0208 0.0545 2.2351
C4B C 1.1257(2) -0.0384(2) 2.3741(3)
H5B H 1.1644 0.0088 2.4425
C5B C 1.15405(16) -0.1345(2) 2.3933(3)
H6B H 1.2140 -0.1532 2.4735
C6B C 1.09416(14) -0.20525(16) 2.2940(2)
H7B H 1.1151 -0.2708 2.3074
C7B C 0.93490(13) -0.25416(14) 2.0688(2)
H8B H 0.9680 -0.3185 2.0916
H9B H 0.9326 -0.2381 1.9616
C8B C 0.73874(12) -0.21738(11) 1.98275(17)
C9B C 0.63448(12) -0.22538(12) 2.03310(18)
H10B H 0.6454 -0.1993 2.1378
H11B H 0.6126 -0.2936 2.0332
C10B C 0.45860(11) -0.14867(11) 1.96536(17)
C11B C 0.42782(13) -0.19701(12) 2.08417(18)
H12B H 0.4719 -0.2462 2.1406
C12B C 0.33209(14) -0.17220(13) 2.1187(2)
H13B H 0.3121 -0.2046 2.1990
C13B C 0.26572(14) -0.09991(14) 2.0357(2)
H14B H 0.2013 -0.0831 2.0597
C14B C 0.29607(13) -0.05271(13) 1.9163(2)
H15B H 0.2506 -0.0045 1.8595
C15B C 0.39252(12) -0.07487(11) 1.87831(16)
C16B C 0.41609(12) -0.01605(11) 1.74732(17)
C17B C 0.53432(13) 0.01805(12) 1.57904(17)
H16B H 0.5215 0.0877 1.5893
H17B H 0.6109 0.0091 1.5850
loop_
_geom_bond_atom_site_label_1
_geom_bond_atom_site_label_2
_geom_bond_site_symmetry_1
_geom_bond_site_symmetry_2
N1 H1 1_555 1_555
N2 H2 1_555 1_555
O1 C8 1_555 1_555
O2 C9 1_555 1_555
O3 C16 1_555 1_555
C1 C2 1_555 1_555
C2 H3 1_555 1_555
C3 C2 1_555 1_555
H4 C3 1_555 1_555
C4 C3 1_555 1_555
H5 C4 1_555 1_555
C5 C4 1_555 1_555
H6 C5 1_555 1_555
C6 C1 1_555 1_555
H7 C6 1_555 1_555
C7 N1 1_555 1_555
H8 C7 1_555 1_555
H9 C7 1_555 1_555
C8 N1 1_555 1_555
C9 C8 1_555 1_555
H10 C9 1_555 1_555
H11 C9 1_555 1_555
C10 O2 1_555 1_555
C11 C10 1_555 1_555
H12 C11 1_555 1_555
C12 C11 1_555 1_555
H13 C12 1_555 1_555
C13 C12 1_555 1_555
H14 C13 1_555 1_555
C14 C13 1_555 1_555
H15 C14 1_555 1_555
C15 C10 1_555 1_555
C16 N2 1_555 1_555
C17 N2 1_555 1_555
H16 C17 1_555 1_555
H17 C17 1_555 1_555
N1B H1B 1_555 1_555
N2B H2B 1_555 1_555
O1B C8B 1_555 1_555
O2B C9B 1_555 1_555
O3B C16B 1_555 1_555
C1B C2B 1_555 1_555
C2B H3B 1_555 1_555
C3B C2B 1_555 1_555
H4B C3B 1_555 1_555
C4B C3B 1_555 1_555
H5B C4B 1_555 1_555
C5B C4B 1_555 1_555
H6B C5B 1_555 1_555
C6B C1B 1_555 1_555
H7B C6B 1_555 1_555
C7B N1B 1_555 1_555
H8B C7B 1_555 1_555
H9B C7B 1_555 1_555
C8B N1B 1_555 1_555
C9B C8B 1_555 1_555
H10B C9B 1_555 1_555
H11B C9B 1_555 1_555
C10B O2B 1_555 1_555
C11B C10B 1_555 1_555
H12B C11B 1_555 1_555
C12B C11B 1_555 1_555
H13B C12B 1_555 1_555
C13B C12B 1_555 1_555
H14B C13B 1_555 1_555
C14B C13B 1_555 1_555
H15B C14B 1_555 1_555
C15B C10B 1_555 1_555
C16B N2B 1_555 1_555
C17B C17 1_555 1_555
H16B C17B 1_555 1_555
H17B C17B 1_555 1_555
C1 C7 1_555 1_555
C5 C6 1_555 1_555
C14 C15 1_555 1_555
C15 C16 1_555 1_555
N2B C17B 1_555 1_555
C1B C7B 1_555 1_555
C5B C6B 1_555 1_555
C14B C15B 1_555 1_555
C15B C16B 1_555 1_555

#END
