
#######################################################################
#
#                 Cambridge Crystallographic Data Centre
#                                CCDC 
#
#######################################################################
#
# If this CIF has been generated from an entry in the Cambridge 
# Structural Database, then it will include bibliographic, chemical, 
# crystal, experimental, refinement or atomic coordinate data resulting 
# from the CCDC's data processing and validation procedures.
#
#######################################################################

data_DETHUG
_chemical_formula_moiety         'C21 H28 O3'
_chemical_name_systematic        17\a-Hydroxypregna-1,4-diene-3,20-dione
_symmetry_cell_setting           orthorhombic
_symmetry_space_group_name_H-M   'P 21 21 21'
_symmetry_Int_Tables_number      19
_space_group_name_Hall           'P 2ac 2ab'
loop_
_symmetry_equiv_pos_site_id
_symmetry_equiv_pos_as_xyz
1 x,y,z
2 1/2-x,-y,1/2+z
3 -x,1/2+y,1/2-z
4 1/2+x,1/2-y,-z
_cell_length_a                   7.781(3)
_cell_length_b                   9.979(4)
_cell_length_c                   22.410(9)
_cell_angle_alpha                90
_cell_angle_beta                 90
_cell_angle_gamma                90
_cell_volume                     1740.06
_exptl_crystal_colour            colorless
_exptl_crystal_description       prismatic
_cell_formula_units_Z            4
_exptl_crystal_recrystallization_method ethanol
loop_
_atom_site_label
_atom_site_type_symbol
_atom_site_fract_x
_atom_site_fract_y
_atom_site_fract_z
O1 O 0.1283(4) 0.5159(2) -0.01165(9)
O2 O 0.3176(3) 0.61073(16) 0.38081(7)
H1 H 0.317(4) 0.574(2) 0.4125(8)
O3 O 0.3562(3) 0.9019(2) 0.46407(8)
C1 C 0.3627(4) 0.7216(3) 0.08780(9)
H2 H 0.4768 0.7410 0.0966
C2 C 0.3320(4) 0.6335(3) 0.04468(10)
H3 H 0.4238 0.5953 0.0243
C3 C 0.1583(4) 0.5959(2) 0.02890(10)
C4 C 0.0209(4) 0.6571(2) 0.06229(10)
H4 H -0.0919 0.6331 0.0536
C5 C 0.0496(3) 0.7475(2) 0.10545(9)
C6 C -0.0953(3) 0.8061(3) 0.14075(10)
H5 H -0.2034 0.7693 0.1268
H6 H -0.0983 0.9024 0.1350
C7 C -0.0731(3) 0.7749(3) 0.20692(10)
H7 H -0.0896 0.6796 0.2133
H8 H -0.1605 0.8221 0.2295
C8 C 0.1042(3) 0.8153(2) 0.22999(9)
H9 H 0.1131 0.9132 0.2292
C9 C 0.2484(3) 0.7562(2) 0.19146(8)
H10 H 0.2381 0.6586 0.1946
C10 C 0.2274(3) 0.7915(2) 0.12307(9)
C11 C 0.4261(3) 0.7923(3) 0.21664(9)
H11 H 0.4433 0.8883 0.2132
H12 H 0.5140 0.7483 0.1930
C12 C 0.4468(3) 0.7507(3) 0.28258(9)
H13 H 0.4442 0.6537 0.2855
H14 H 0.5573 0.7812 0.2972
C13 C 0.3042(3) 0.8096(2) 0.32116(8)
C14 C 0.1305(3) 0.7674(2) 0.29373(8)
H15 H 0.1316 0.6693 0.2921
C15 C -0.0009(3) 0.8053(3) 0.34140(10)
H16 H -0.1039 0.7512 0.3378
H17 H -0.0321 0.8992 0.3383
C16 C 0.0914(3) 0.7770(3) 0.40039(10)
H18 H 0.0413 0.6995 0.4199
H19 H 0.0814 0.8533 0.4269
C17 C 0.2824(3) 0.7502(2) 0.38534(9)
C18 C 0.2479(4) 0.9442(2) 0.11150(12)
H20 H 0.3645 0.9704 0.1194
H21 H 0.1719 0.9930 0.1373
H22 H 0.2202 0.9636 0.0707
C19 C 0.3245(4) 0.9617(2) 0.32602(10)
H23 H 0.4363 0.9824 0.3416
H24 H 0.2380 0.9968 0.3523
H25 H 0.3119 1.0013 0.2872
C20 C 0.4049(3) 0.8145(2) 0.43100(9)
C21 C 0.5849(4) 0.7642(3) 0.43283(12)
H26 H 0.6575 0.8304 0.4510
H27 H 0.6240 0.7469 0.3929
H28 H 0.5894 0.6829 0.4557
loop_
_geom_bond_atom_site_label_1
_geom_bond_atom_site_label_2
_geom_bond_site_symmetry_1
_geom_bond_site_symmetry_2
O1 C3 1_555 1_555
O2 H1 1_555 1_555
O3 C20 1_555 1_555
C1 H2 1_555 1_555
C2 C1 1_555 1_555
H3 C2 1_555 1_555
C3 C2 1_555 1_555
C4 C3 1_555 1_555
H4 C4 1_555 1_555
C5 C4 1_555 1_555
C6 C5 1_555 1_555
H5 C6 1_555 1_555
H6 C6 1_555 1_555
C7 C6 1_555 1_555
H7 C7 1_555 1_555
H8 C7 1_555 1_555
C8 C7 1_555 1_555
H9 C8 1_555 1_555
C9 C8 1_555 1_555
H10 C9 1_555 1_555
C10 C1 1_555 1_555
C11 C9 1_555 1_555
H11 C11 1_555 1_555
H12 C11 1_555 1_555
C12 C11 1_555 1_555
H13 C12 1_555 1_555
H14 C12 1_555 1_555
C13 C12 1_555 1_555
C14 C8 1_555 1_555
H15 C14 1_555 1_555
C15 C14 1_555 1_555
H16 C15 1_555 1_555
H17 C15 1_555 1_555
C16 C15 1_555 1_555
H18 C16 1_555 1_555
H19 C16 1_555 1_555
C17 O2 1_555 1_555
C18 C10 1_555 1_555
H20 C18 1_555 1_555
H21 C18 1_555 1_555
H22 C18 1_555 1_555
C19 C13 1_555 1_555
H23 C19 1_555 1_555
H24 C19 1_555 1_555
H25 C19 1_555 1_555
C20 C17 1_555 1_555
C21 C20 1_555 1_555
H26 C21 1_555 1_555
H27 C21 1_555 1_555
H28 C21 1_555 1_555
C5 C10 1_555 1_555
C9 C10 1_555 1_555
C13 C14 1_555 1_555
C13 C17 1_555 1_555
C16 C17 1_555 1_555

#END
