
#######################################################################
#
#                 Cambridge Crystallographic Data Centre
#                                CCDC 
#
#######################################################################
#
# If this CIF has been generated from an entry in the Cambridge 
# Structural Database, then it will include bibliographic, chemical, 
# crystal, experimental, refinement or atomic coordinate data resulting 
# from the CCDC's data processing and validation procedures.
#
#######################################################################

data_DETJOC
_chemical_compound_source        'fruits of Schisandra sphenanthera'
_chemical_name_common            'Schisantherin A sesquihydrate'
_chemical_formula_moiety         'C30 H32 O9,1.5(H2 O1)'
_chemical_name_systematic        
'5,6-Dihydroxy-1,2,3,13-tetramethoxy-6,7-dimethyl-5,6,7,8-tetrahydrobenzo(3,4)cycloocta(1,2-f)(1,3)benzodioxol-5-yl benzoate sesquihydrate'
_chemical_properties_biological  'antihepatotoxic activity'
_symmetry_cell_setting           orthorhombic
_symmetry_space_group_name_H-M   'P 21 21 2'
_symmetry_Int_Tables_number      18
_space_group_name_Hall           'P 2 2ab'
loop_
_symmetry_equiv_pos_site_id
_symmetry_equiv_pos_as_xyz
1 x,y,z
2 -x,-y,z
3 1/2-x,1/2+y,-z
4 1/2+x,1/2-y,-z
_cell_length_a                   12.818(3)
_cell_length_b                   27.883(7)
_cell_length_c                   7.921(2)
_cell_angle_alpha                90
_cell_angle_beta                 90
_cell_angle_gamma                90
_cell_volume                     2831
_exptl_crystal_colour            colorless
_exptl_crystal_description       block
_chemical_melting_point          '396-397 K'
_cell_formula_units_Z            4
_exptl_crystal_recrystallization_method ethanol
loop_
_atom_site_label
_atom_site_type_symbol
_atom_site_fract_x
_atom_site_fract_y
_atom_site_fract_z
O1 O 0.7769(2) 0.29767(10) 0.8216(5)
O2 O 0.9909(2) 0.30733(12) 0.9952(5)
O3 O 1.0743(2) 0.38085(13) 1.0143(5)
O4 O 0.6717(2) 0.48386(9) 0.3849(4)
H1 H 0.6414 0.4916 0.4748
O5 O 0.84712(18) 0.38219(9) 0.4463(4)
O6 O 0.7891(2) 0.31418(11) 0.3247(5)
O7 O 0.3755(2) 0.37195(12) 0.5131(4)
O8 O 0.4060(2) 0.35828(12) 0.8470(4)
O9 O 0.6062(2) 0.36216(10) 0.9820(4)
C1 C 0.8321(3) 0.33897(15) 0.8501(6)
C2 C 0.9283(3) 0.34284(15) 0.9231(6)
C3 C 1.0857(4) 0.3303(2) 1.0375(8)
H5 H 1.1414 0.3183 0.9663
H6 H 1.1034 0.3235 1.1541
C4 C 0.9787(3) 0.38658(16) 0.9349(6)
C5 C 0.9365(3) 0.42813(16) 0.8748(6)
H7 H 0.9728 0.4570 0.8816
C6 C 0.8369(3) 0.42593(13) 0.8027(5)
C7 C 0.7849(3) 0.38197(14) 0.7909(5)
C8 C 0.8256(4) 0.25278(17) 0.8548(10)
H8 H 0.8928 0.2519 0.8014
H9 H 0.7829 0.2274 0.8109
H10 H 0.8338 0.2488 0.9744
C9 C 0.7915(3) 0.47124(14) 0.7297(6)
H11 H 0.8079 0.4978 0.8043
H12 H 0.7162 0.4681 0.7253
C10 C 0.8323(3) 0.48294(13) 0.5515(6)
H13 H 0.9035 0.4703 0.5450
C11 C 0.8406(4) 0.53749(15) 0.5310(7)
H14 H 0.8651 0.5449 0.4194
H15 H 0.8886 0.5500 0.6128
H16 H 0.7732 0.5517 0.5478
C12 C 0.7711(3) 0.46040(14) 0.4038(6)
C13 C 0.8305(4) 0.46841(18) 0.2369(6)
H17 H 0.7924 0.4540 0.1457
H18 H 0.8984 0.4540 0.2445
H19 H 0.8377 0.5022 0.2166
C14 C 0.7469(3) 0.40555(14) 0.4157(6)
H20 H 0.7240 0.3954 0.3032
C15 C 0.8571(3) 0.33609(15) 0.3969(6)
C16 C 0.9604(3) 0.31625(14) 0.4457(6)
C17 C 1.0358(3) 0.34465(15) 0.5226(6)
H21 H 1.0217 0.3767 0.5453
C18 C 1.1319(3) 0.32542(17) 0.5655(7)
H22 H 1.1823 0.3446 0.6162
C19 C 1.1527(4) 0.27801(18) 0.5331(8)
H23 H 1.2172 0.2652 0.5621
C20 C 1.0783(4) 0.24925(17) 0.4578(8)
H24 H 1.0930 0.2171 0.4371
C21 C 0.9817(3) 0.26801(15) 0.4125(6)
H25 H 0.9319 0.2487 0.3609
C22 C 0.6627(3) 0.38998(12) 0.5383(6)
C23 C 0.5612(3) 0.38681(13) 0.4713(6)
H26 H 0.5515 0.3924 0.3566
C24 C 0.4765(3) 0.37589(14) 0.5685(6)
C25 C 0.4908(3) 0.36765(15) 0.7438(6)
C26 C 0.5912(3) 0.36870(13) 0.8099(6)
C27 C 0.6785(3) 0.37950(13) 0.7087(6)
C28 C 0.3568(4) 0.3820(2) 0.3383(7)
H27 H 0.3810 0.4137 0.3123
H28 H 0.2833 0.3799 0.3156
H29 H 0.3934 0.3591 0.2700
C29 C 0.3450(4) 0.4002(2) 0.8864(7)
H30 H 0.3849 0.4212 0.9574
H31 H 0.2825 0.3907 0.9442
H32 H 0.3270 0.4165 0.7839
C30 C 0.5791(4) 0.31585(15) 1.0492(6)
H33 H 0.5052 0.3145 1.0687
H34 H 0.6154 0.3108 1.1537
H35 H 0.5985 0.2914 0.9700
O10 O 0.5789(4) 0.46870(18) 0.0698(7)
H2 H 0.6099 0.4740 0.1700
H3 H 0.5878 0.4401 0.0400
O11 O 0.5000 0.5000 0.6165(8)
H4 H 0.4751 0.5241 0.6855
H4A H 0.5249 0.4759 0.6855
loop_
_geom_bond_atom_site_label_1
_geom_bond_atom_site_label_2
_geom_bond_site_symmetry_1
_geom_bond_site_symmetry_2
O1 C1 1_555 1_555
O2 C2 1_555 1_555
O3 C3 1_555 1_555
O4 H1 1_555 1_555
O5 C14 1_555 1_555
O6 C15 1_555 1_555
O7 C24 1_555 1_555
O8 C25 1_555 1_555
O9 C26 1_555 1_555
O10 H2 1_555 1_555
H3 O10 1_555 1_555
O11 H4 1_555 1_555
C1 C2 1_555 1_555
C2 C4 1_555 1_555
C3 O2 1_555 1_555
H5 C3 1_555 1_555
H6 C3 1_555 1_555
C4 O3 1_555 1_555
C5 C4 1_555 1_555
H7 C5 1_555 1_555
C6 C5 1_555 1_555
C7 C1 1_555 1_555
C8 O1 1_555 1_555
H8 C8 1_555 1_555
H9 C8 1_555 1_555
H10 C8 1_555 1_555
C9 C6 1_555 1_555
H11 C9 1_555 1_555
H12 C9 1_555 1_555
C10 C9 1_555 1_555
H13 C10 1_555 1_555
C11 C10 1_555 1_555
H14 C11 1_555 1_555
H15 C11 1_555 1_555
H16 C11 1_555 1_555
C12 O4 1_555 1_555
C13 C12 1_555 1_555
H17 C13 1_555 1_555
H18 C13 1_555 1_555
H19 C13 1_555 1_555
C14 C12 1_555 1_555
H20 C14 1_555 1_555
C15 O5 1_555 1_555
C16 C15 1_555 1_555
C17 C16 1_555 1_555
H21 C17 1_555 1_555
C18 C17 1_555 1_555
H22 C18 1_555 1_555
C19 C18 1_555 1_555
H23 C19 1_555 1_555
C20 C19 1_555 1_555
H24 C20 1_555 1_555
C21 C16 1_555 1_555
H25 C21 1_555 1_555
C22 C14 1_555 1_555
C23 C22 1_555 1_555
H26 C23 1_555 1_555
C24 C23 1_555 1_555
C25 C24 1_555 1_555
C26 C25 1_555 1_555
C27 C7 1_555 1_555
C28 O7 1_555 1_555
H27 C28 1_555 1_555
H28 C28 1_555 1_555
H29 C28 1_555 1_555
C29 O8 1_555 1_555
H30 C29 1_555 1_555
H31 C29 1_555 1_555
H32 C29 1_555 1_555
C30 O9 1_555 1_555
H33 C30 1_555 1_555
H34 C30 1_555 1_555
H35 C30 1_555 1_555
H4A O11 1_555 1_555
C6 C7 1_555 1_555
C10 C12 1_555 1_555
C20 C21 1_555 1_555
C22 C27 1_555 1_555
C26 C27 1_555 1_555

#END
