
#######################################################################
#
#                 Cambridge Crystallographic Data Centre
#                                CCDC 
#
#######################################################################
#
# If this CIF has been generated from an entry in the Cambridge 
# Structural Database, then it will include bibliographic, chemical, 
# crystal, experimental, refinement or atomic coordinate data resulting 
# from the CCDC's data processing and validation procedures.
#
#######################################################################

data_DETKIX
_chemical_formula_moiety         'C13 H8 Cl2 N2'
_chemical_name_systematic        2-(2,4-Dichlorophenyl)-1H-benzimidazole
_symmetry_cell_setting           orthorhombic
_symmetry_space_group_name_H-M   'P b c a'
_symmetry_Int_Tables_number      61
_space_group_name_Hall           '-P 2ac 2ab'
loop_
_symmetry_equiv_pos_site_id
_symmetry_equiv_pos_as_xyz
1 x,y,z
2 1/2-x,-y,1/2+z
3 1/2+x,1/2-y,-z
4 -x,1/2+y,1/2-z
5 -x,-y,-z
6 1/2+x,y,1/2-z
7 1/2-x,1/2+y,z
8 x,1/2-y,1/2+z
_cell_length_a                   8.5630(17)
_cell_length_b                   9.910(2)
_cell_length_c                   28.694(6)
_cell_angle_alpha                90
_cell_angle_beta                 90
_cell_angle_gamma                90
_cell_volume                     2434.95
_exptl_crystal_colour            yellow
_exptl_crystal_description       block
_chemical_melting_point          '501-504 K'
_cell_formula_units_Z            8
_exptl_crystal_recrystallization_method ethanol
loop_
_atom_site_label
_atom_site_type_symbol
_atom_site_fract_x
_atom_site_fract_y
_atom_site_fract_z
Cl1 Cl 0.21343(11) 0.07444(12) 0.05040(3)
Cl2 Cl -0.39874(13) 0.18750(17) 0.04715(5)
N1 N 0.3227(3) 0.1713(2) 0.14976(9)
H1 H 0.3131 0.0871 0.1430
N2 N 0.2710(3) 0.3937(2) 0.15192(9)
C1 C 0.5670(4) 0.1752(3) 0.19938(11)
H2 H 0.5886 0.0833 0.1986
C2 C 0.6596(4) 0.2634(3) 0.22402(12)
H3 H 0.7449 0.2302 0.2405
C3 C 0.6279(4) 0.4038(3) 0.22489(12)
H4 H 0.6932 0.4608 0.2418
C4 C 0.5033(4) 0.4571(3) 0.20141(11)
H5 H 0.4835 0.5494 0.2020
C5 C 0.4061(3) 0.3692(3) 0.17650(11)
C6 C 0.4401(3) 0.2289(3) 0.17576(10)
C7 C 0.2248(3) 0.2727(3) 0.13667(10)
C8 C 0.0770(4) 0.2514(3) 0.11164(11)
C9 C -0.0532(4) 0.3232(3) 0.12684(14)
H6 H -0.0417 0.3841 0.1513
C10 C -0.1982(4) 0.3072(4) 0.10696(16)
H7 H -0.2835 0.3564 0.1176
C11 C -0.2139(4) 0.2165(5) 0.07099(14)
C12 C -0.0891(4) 0.1436(4) 0.05448(13)
H8 H -0.1023 0.0825 0.0302
C13 C 0.0560(4) 0.1620(3) 0.07434(12)
loop_
_geom_bond_atom_site_label_1
_geom_bond_atom_site_label_2
_geom_bond_site_symmetry_1
_geom_bond_site_symmetry_2
Cl1 C13 1_555 1_555
Cl2 C11 1_555 1_555
N1 H1 1_555 1_555
N2 C5 1_555 1_555
C1 H2 1_555 1_555
C2 C1 1_555 1_555
H3 C2 1_555 1_555
C3 C2 1_555 1_555
H4 C3 1_555 1_555
C4 C3 1_555 1_555
H5 C4 1_555 1_555
C5 C4 1_555 1_555
C6 N1 1_555 1_555
C7 N1 1_555 1_555
C8 C7 1_555 1_555
C9 C8 1_555 1_555
H6 C9 1_555 1_555
C10 C9 1_555 1_555
H7 C10 1_555 1_555
C11 C10 1_555 1_555
C12 C11 1_555 1_555
H8 C12 1_555 1_555
C13 C8 1_555 1_555
N2 C7 1_555 1_555
C1 C6 1_555 1_555
C5 C6 1_555 1_555
C12 C13 1_555 1_555

#END
