
#######################################################################
#
#                 Cambridge Crystallographic Data Centre
#                                CCDC 
#
#######################################################################
#
# If this CIF has been generated from an entry in the Cambridge 
# Structural Database, then it will include bibliographic, chemical, 
# crystal, experimental, refinement or atomic coordinate data resulting 
# from the CCDC's data processing and validation procedures.
#
#######################################################################

data_DETTOO
_chemical_compound_source        'leaves and stems of Premna szemaoensis'
_chemical_name_common            'szemaoenoid J'
_chemical_formula_moiety         'C20 H26 O5'
_chemical_name_systematic        
3,7,11-trihydroxy-4,4,9,11b-tetramethyl-1,3,4,4a,5,8,9,11b-octahydrophenanthro[3,2-b]furan-6(2H)-one
_chemical_properties_biological  'radical scavenging activity'
_symmetry_cell_setting           monoclinic
_symmetry_space_group_name_H-M   'P 21'
_symmetry_Int_Tables_number      4
_space_group_name_Hall           'P 2yb'
loop_
_symmetry_equiv_pos_site_id
_symmetry_equiv_pos_as_xyz
1 x,y,z
2 -x,1/2+y,-z
_cell_length_a                   11.5843(7)
_cell_length_b                   9.5501(6)
_cell_length_c                   15.2093(10)
_cell_angle_alpha                90
_cell_angle_beta                 92.859(4)
_cell_angle_gamma                90
_cell_volume                     1680.53
_exptl_crystal_colour            brown
_exptl_crystal_description       sheet
_cell_formula_units_Z            4
loop_
_atom_site_label
_atom_site_type_symbol
_atom_site_fract_x
_atom_site_fract_y
_atom_site_fract_z
O1 O 0.94422(19) 0.4099(3) 0.66023(17)
H1 H 0.9679 0.3432 0.6299
O2 O 0.23208(19) 0.3441(3) 0.39646(16)
O3 O 0.4574(2) 0.2560(3) 0.44112(16)
H2 H 0.4484 0.2852 0.3891
O4 O 0.1920(2) 0.5685(3) 0.66262(16)
H3 H 0.2273 0.5828 0.7114
O5 O 0.3612(2) 0.5670(3) 0.77441(16)
C1 C 0.8246(3) 0.4400(4) 0.6341(2)
H4 H 0.8205 0.5374 0.6101
C2 C 0.7484(3) 0.4325(4) 0.7141(2)
C3 C 0.6192(3) 0.4451(4) 0.6799(2)
H5 H 0.6129 0.5408 0.6534
C4 C 0.5755(3) 0.3449(4) 0.6050(2)
C5 C 0.4494(3) 0.3869(3) 0.5761(2)
C6 C 0.4003(3) 0.3425(4) 0.4960(2)
C7 C 0.2870(3) 0.3829(4) 0.4733(2)
C8 C 0.1163(3) 0.4083(4) 0.3923(2)
H6 H 0.1131 0.4832 0.3463
C9 C 0.0293(3) 0.2968(4) 0.3672(3)
H7 H 0.0473 0.2564 0.3103
H8 H -0.0483 0.3380 0.3628
H9 H 0.0320 0.2232 0.4122
C10 C 0.7853(3) 0.3409(5) 0.5620(2)
H10 H 0.7936 0.2436 0.5838
H11 H 0.8359 0.3519 0.5119
C11 C 0.6597(3) 0.3654(4) 0.5297(2)
H12 H 0.6392 0.2992 0.4813
H13 H 0.6515 0.4617 0.5061
C12 C 0.1001(3) 0.4749(4) 0.4829(2)
H14 H 0.0772 0.5745 0.4773
H15 H 0.0415 0.4239 0.5157
C13 C 0.2183(3) 0.4601(4) 0.5267(2)
C14 C 0.2624(3) 0.5004(4) 0.6085(2)
C15 C 0.3786(3) 0.4633(4) 0.6345(2)
C16 C 0.4202(3) 0.4986(4) 0.7228(2)
C17 C 0.5365(3) 0.4472(4) 0.7547(2)
H16 H 0.5293 0.3516 0.7790
H17 H 0.5678 0.5090 0.8024
C18 C 0.7772(3) 0.5610(4) 0.7722(3)
H18 H 0.7421 0.5500 0.8291
H19 H 0.7465 0.6456 0.7429
H20 H 0.8612 0.5694 0.7815
C19 C 0.7744(3) 0.3017(4) 0.7700(3)
H21 H 0.8474 0.3149 0.8045
H22 H 0.7809 0.2202 0.7314
H23 H 0.7118 0.2864 0.8099
C20 C 0.5701(3) 0.1886(4) 0.6301(2)
H24 H 0.5383 0.1346 0.5798
H25 H 0.5205 0.1770 0.6800
H26 H 0.6481 0.1548 0.6466
O6 O 0.76903(18) 0.1491(3) 1.06247(15)
O7 O 0.0643(2) 0.2707(3) 0.81432(17)
H27 H 0.0463 0.2979 0.7629
O8 O 0.7628(2) -0.0702(3) 0.79200(17)
H28 H 0.7183 -0.1144 0.7566
O9 O 0.5678(2) -0.1508(3) 0.72608(17)
O10 O 0.52810(18) 0.1501(3) 1.06925(15)
H29 H 0.5738 0.1395 1.1134
C21 C 0.9736(3) 0.1334(4) 1.1020(2)
H30 H 0.9623 0.1988 1.1505
H31 H 1.0517 0.1448 1.0811
H32 H 0.9637 0.0372 1.1227
C22 C 0.8863(3) 0.1631(4) 1.0279(2)
H33 H 0.8969 0.2617 1.0075
C23 C 0.7002(3) 0.1001(3) 0.9941(2)
C24 C 0.5792(3) 0.1028(4) 0.9955(2)
C25 C 0.5174(3) 0.0596(4) 0.9198(2)
C26 C 0.3835(3) 0.0788(4) 0.9116(2)
C27 C 0.3449(3) 0.0652(4) 0.8118(2)
H34 H 0.3903 0.1386 0.7817
C28 C 0.2160(3) 0.0976(4) 0.7838(2)
C29 C 0.1860(3) 0.2413(4) 0.8220(2)
H35 H 0.2271 0.3147 0.7886
C30 C 0.7601(3) 0.0483(4) 0.9265(2)
C31 C 0.8881(3) 0.0655(4) 0.9485(2)
H36 H 0.9281 0.1089 0.8993
H37 H 0.9253 -0.0251 0.9640
C32 C 0.7008(3) -0.0115(4) 0.8551(2)
C33 C 0.5782(3) -0.0057(3) 0.8513(2)
C34 C 0.3494(3) 0.2278(4) 0.9395(2)
H38 H 0.3669 0.2393 1.0034
H39 H 0.3961 0.2969 0.9082
C35 C 0.2209(3) 0.2574(4) 0.9190(2)
H40 H 0.1744 0.1924 0.9535
H41 H 0.2033 0.3540 0.9378
C36 C 0.2040(3) 0.1097(4) 0.6830(2)
H42 H 0.1275 0.1473 0.6656
H43 H 0.2129 0.0169 0.6567
H44 H 0.2639 0.1725 0.6625
C37 C 0.3869(3) -0.0726(4) 0.7751(2)
H45 H 0.3550 -0.1512 0.8087
H46 H 0.3586 -0.0821 0.7129
C38 C 0.5168(3) -0.0799(4) 0.7808(2)
C39 C 0.1316(3) -0.0159(4) 0.8126(2)
H47 H 0.1291 -0.0157 0.8769
H48 H 0.1577 -0.1077 0.7927
H49 H 0.0542 0.0035 0.7864
C40 C 0.3325(3) -0.0297(4) 0.9725(2)
H50 H 0.3717 -0.0236 1.0309
H51 H 0.3431 -0.1236 0.9483
H52 H 0.2498 -0.0113 0.9773
loop_
_geom_bond_atom_site_label_1
_geom_bond_atom_site_label_2
_geom_bond_site_symmetry_1
_geom_bond_site_symmetry_2
O1 H1 1_555 1_555
O2 C7 1_555 1_555
O3 H2 1_555 1_555
O4 H3 1_555 1_555
O5 C16 1_555 1_555
C1 O1 1_555 1_555
H4 C1 1_555 1_555
C2 C1 1_555 1_555
C3 C2 1_555 1_555
H5 C3 1_555 1_555
C4 C3 1_555 1_555
C5 C4 1_555 1_555
C6 O3 1_555 1_555
C7 C6 1_555 1_555
C8 O2 1_555 1_555
H6 C8 1_555 1_555
C9 C8 1_555 1_555
H7 C9 1_555 1_555
H8 C9 1_555 1_555
H9 C9 1_555 1_555
C10 C1 1_555 1_555
H10 C10 1_555 1_555
H11 C10 1_555 1_555
C11 C4 1_555 1_555
H12 C11 1_555 1_555
H13 C11 1_555 1_555
C12 C8 1_555 1_555
H14 C12 1_555 1_555
H15 C12 1_555 1_555
C13 C7 1_555 1_555
C14 O4 1_555 1_555
C15 C5 1_555 1_555
C16 C15 1_555 1_555
C17 C3 1_555 1_555
H16 C17 1_555 1_555
H17 C17 1_555 1_555
C18 C2 1_555 1_555
H18 C18 1_555 1_555
H19 C18 1_555 1_555
H20 C18 1_555 1_555
C19 C2 1_555 1_555
H21 C19 1_555 1_555
H22 C19 1_555 1_555
H23 C19 1_555 1_555
C20 C4 1_555 1_555
H24 C20 1_555 1_555
H25 C20 1_555 1_555
H26 C20 1_555 1_555
O6 C22 1_555 1_555
O7 H27 1_555 1_555
O8 H28 1_555 1_555
O9 C38 1_555 1_555
O10 H29 1_555 1_555
C21 H30 1_555 1_555
H31 C21 1_555 1_555
H32 C21 1_555 1_555
C22 C21 1_555 1_555
H33 C22 1_555 1_555
C23 O6 1_555 1_555
C24 O10 1_555 1_555
C25 C24 1_555 1_555
C26 C25 1_555 1_555
C27 C26 1_555 1_555
H34 C27 1_555 1_555
C28 C27 1_555 1_555
C29 O7 1_555 1_555
H35 C29 1_555 1_555
C30 C23 1_555 1_555
C31 C22 1_555 1_555
H36 C31 1_555 1_555
H37 C31 1_555 1_555
C32 O8 1_555 1_555
C33 C25 1_555 1_555
C34 C26 1_555 1_555
H38 C34 1_555 1_555
H39 C34 1_555 1_555
C35 C29 1_555 1_555
H40 C35 1_555 1_555
H41 C35 1_555 1_555
C36 C28 1_555 1_555
H42 C36 1_555 1_555
H43 C36 1_555 1_555
H44 C36 1_555 1_555
C37 C27 1_555 1_555
H45 C37 1_555 1_555
H46 C37 1_555 1_555
C38 C33 1_555 1_555
C39 C28 1_555 1_555
H47 C39 1_555 1_555
H48 C39 1_555 1_555
H49 C39 1_555 1_555
C40 C26 1_555 1_555
H50 C40 1_555 1_555
H51 C40 1_555 1_555
H52 C40 1_555 1_555
C5 C6 1_555 1_555
C10 C11 1_555 1_555
C12 C13 1_555 1_555
C13 C14 1_555 1_555
C14 C15 1_555 1_555
C16 C17 1_555 1_555
C23 C24 1_555 1_555
C28 C29 1_555 1_555
C30 C31 1_555 1_555
C30 C32 1_555 1_555
C32 C33 1_555 1_555
C34 C35 1_555 1_555
C37 C38 1_555 1_555

#END
