
#######################################################################
#
#                 Cambridge Crystallographic Data Centre
#                                CCDC 
#
#######################################################################
#
# If this CIF has been generated from an entry in the Cambridge 
# Structural Database, then it will include bibliographic, chemical, 
# crystal, experimental, refinement or atomic coordinate data resulting 
# from the CCDC's data processing and validation procedures.
#
#######################################################################

data_DETTEE
_chemical_formula_moiety         'C34 H27 Cl1 O4'
_chemical_name_systematic        
2-[2-(4-chlorophenyl)-2-(2-hydroxy-3-methoxynaphthalen-1-yl)ethyl]-1,3-diphenylpropane-1,3-dione
_symmetry_cell_setting           orthorhombic
_symmetry_space_group_name_H-M   'P 21 21 21'
_symmetry_Int_Tables_number      19
_space_group_name_Hall           'P 2ac 2ab'
loop_
_symmetry_equiv_pos_site_id
_symmetry_equiv_pos_as_xyz
1 x,y,z
2 1/2-x,-y,1/2+z
3 -x,1/2+y,1/2-z
4 1/2+x,1/2-y,-z
_cell_length_a                   10.8907(6)
_cell_length_b                   13.0963(8)
_cell_length_c                   19.4170(10)
_cell_angle_alpha                90
_cell_angle_beta                 90
_cell_angle_gamma                90
_cell_volume                     2769.41
_exptl_crystal_colour            colorless
_exptl_crystal_description       plate
_cell_formula_units_Z            4
loop_
_atom_site_label
_atom_site_type_symbol
_atom_site_fract_x
_atom_site_fract_y
_atom_site_fract_z
Cl1 Cl 1.10315(10) 0.33518(9) 0.32672(7)
O1 O 0.5674(2) 0.49709(18) 0.36027(11)
H1 H 0.5138 0.4535 0.3563
O2 O 0.6939(2) 0.89908(19) 0.36927(14)
O3 O 0.3961(2) 0.4309(2) 0.44361(12)
O4 O 0.5362(2) 0.85385(19) 0.22011(11)
C1 C 0.6287(2) 0.6264(2) 0.43616(13)
C2 C 0.5228(3) 0.6422(2) 0.54744(14)
C3 C 0.4626(3) 0.5111(2) 0.46793(15)
C4 C 0.5545(3) 0.5451(2) 0.42148(13)
C5 C 0.6145(3) 0.6775(2) 0.50099(13)
C6 C 0.5201(3) 1.0537(3) 0.38788(17)
H2 H 0.6028 1.0715 0.3896
C7 C 0.6598(3) 0.7037(2) 0.31671(14)
H3 H 0.7212 0.7402 0.2901
H4 H 0.6321 0.6466 0.2890
C8 C 0.4877(3) 0.9542(2) 0.37378(14)
C9 C 0.7219(3) 0.6611(2) 0.38240(13)
H5 H 0.7678 0.7178 0.4030
C10 C 0.5509(3) 0.7751(2) 0.32889(14)
H6 H 0.4922 0.7418 0.3599
C11 C 0.8152(3) 0.5776(2) 0.36642(14)
C12 C 0.3804(3) 0.7315(2) 0.23921(15)
C13 C 0.6877(3) 0.7610(3) 0.52190(16)
H7 H 0.7477 0.7859 0.4922
C14 C 0.4904(3) 0.7921(2) 0.25901(15)
C15 C 0.4473(3) 0.5592(3) 0.52965(15)
H8 H 0.3867 0.5371 0.5600
C16 C 0.5874(3) 0.8783(2) 0.35890(14)
C17 C 0.4326(4) 1.1270(3) 0.3995(2)
H9 H 0.4558 1.1940 0.4085
C18 C 0.8444(3) 0.5455(3) 0.30053(16)
H10 H 0.8034 0.5741 0.2632
C19 C 0.3014(3) 0.7693(3) 0.18926(18)
H11 H 0.3166 0.8326 0.1693
C20 C 0.8779(3) 0.5318(3) 0.42045(17)
H12 H 0.8603 0.5512 0.4654
C21 C 0.3635(3) 0.9285(3) 0.37161(17)
H13 H 0.3398 0.8619 0.3618
C22 C 0.6721(4) 0.8061(3) 0.58525(19)
H14 H 0.7216 0.8608 0.5980
C23 C 0.2006(3) 0.7132(3) 0.1692(2)
H15 H 0.1462 0.7399 0.1370
C24 C 0.5101(3) 0.6914(3) 0.61201(16)
H16 H 0.4503 0.6686 0.6426
C25 C 0.3569(3) 0.6358(3) 0.26752(16)
H17 H 0.4087 0.6098 0.3014
C26 C 0.1801(4) 0.6180(3) 0.1968(2)
H18 H 0.1133 0.5795 0.1821
C27 C 0.2762(4) 1.0022(3) 0.3841(2)
H19 H 0.1934 0.9848 0.3834
C28 C 0.5827(4) 0.7705(3) 0.63038(17)
H20 H 0.5728 0.8012 0.6732
C29 C 0.2580(4) 0.5797(3) 0.24581(19)
H21 H 0.2437 0.5154 0.2644
C30 C 0.9326(4) 0.4722(3) 0.28882(19)
H22 H 0.9511 0.4522 0.2441
C31 C 0.9658(4) 0.4578(4) 0.4087(2)
H23 H 1.0067 0.4274 0.4454
C32 C 0.3102(4) 1.1008(3) 0.3976(2)
H24 H 0.2505 1.1502 0.4056
C33 C 0.2988(5) 0.3952(5) 0.4851(3)
H25 H 0.2522 0.3453 0.4600
H26 H 0.2465 0.4513 0.4974
H27 H 0.3315 0.3646 0.5261
C34 C 0.9921(3) 0.4296(3) 0.3425(2)
loop_
_geom_bond_atom_site_label_1
_geom_bond_atom_site_label_2
_geom_bond_site_symmetry_1
_geom_bond_site_symmetry_2
Cl1 C34 1_555 1_555
O1 H1 1_555 1_555
O2 C16 1_555 1_555
O3 C3 1_555 1_555
O4 C14 1_555 1_555
C1 C4 1_555 1_555
C2 C5 1_555 1_555
C3 C4 1_555 1_555
C4 O1 1_555 1_555
C5 C1 1_555 1_555
C6 H2 1_555 1_555
C7 H3 1_555 1_555
H4 C7 1_555 1_555
C8 C6 1_555 1_555
C9 C1 1_555 1_555
H5 C9 1_555 1_555
C10 C7 1_555 1_555
H6 C10 1_555 1_555
C11 C9 1_555 1_555
C12 C14 1_555 1_555
C13 C5 1_555 1_555
H7 C13 1_555 1_555
C14 C10 1_555 1_555
C15 C2 1_555 1_555
H8 C15 1_555 1_555
C16 C8 1_555 1_555
C17 C6 1_555 1_555
H9 C17 1_555 1_555
C18 C11 1_555 1_555
H10 C18 1_555 1_555
C19 C12 1_555 1_555
H11 C19 1_555 1_555
C20 C11 1_555 1_555
H12 C20 1_555 1_555
C21 C8 1_555 1_555
H13 C21 1_555 1_555
C22 C13 1_555 1_555
H14 C22 1_555 1_555
C23 C19 1_555 1_555
H15 C23 1_555 1_555
C24 C2 1_555 1_555
H16 C24 1_555 1_555
C25 C12 1_555 1_555
H17 C25 1_555 1_555
C26 C23 1_555 1_555
H18 C26 1_555 1_555
C27 C21 1_555 1_555
H19 C27 1_555 1_555
C28 C22 1_555 1_555
H20 C28 1_555 1_555
C29 C25 1_555 1_555
H21 C29 1_555 1_555
C30 C18 1_555 1_555
H22 C30 1_555 1_555
C31 C20 1_555 1_555
H23 C31 1_555 1_555
C32 C17 1_555 1_555
H24 C32 1_555 1_555
C33 O3 1_555 1_555
H25 C33 1_555 1_555
H26 C33 1_555 1_555
H27 C33 1_555 1_555
C34 C30 1_555 1_555
C3 C15 1_555 1_555
C7 C9 1_555 1_555
C10 C16 1_555 1_555
C24 C28 1_555 1_555
C26 C29 1_555 1_555
C27 C32 1_555 1_555
C31 C34 1_555 1_555

#END
