
#######################################################################
#
#                 Cambridge Crystallographic Data Centre
#                                CCDC 
#
#######################################################################
#
# If this CIF has been generated from an entry in the Cambridge 
# Structural Database, then it will include bibliographic, chemical, 
# crystal, experimental, refinement or atomic coordinate data resulting 
# from the CCDC's data processing and validation procedures.
#
#######################################################################

data_DETTII
_chemical_compound_source        'leaves and stems of Premna szemaoensis'
_chemical_name_common            'szemaoenoid A monohydrate'
_chemical_formula_moiety         'C26 H36 O10,H2 O1'
_chemical_name_systematic        
'2,5-dihydroxy-7-(2-hydroxypropyl)-2,4a-dimethyl-1-methylidene-6-{[3,4,5-trihydroxy-6-(hydroxymethyl)oxan-2-yl]oxy}-2,3,4,4a,10,10a-hexahydrophenanthren-9(1H)-one monohydrate'
_symmetry_cell_setting           monoclinic
_symmetry_space_group_name_H-M   'P 21'
_symmetry_Int_Tables_number      4
_space_group_name_Hall           'P 2yb'
loop_
_symmetry_equiv_pos_site_id
_symmetry_equiv_pos_as_xyz
1 x,y,z
2 -x,1/2+y,-z
_cell_length_a                   5.70480(10)
_cell_length_b                   23.8602(5)
_cell_length_c                   9.3419(2)
_cell_angle_alpha                90
_cell_angle_beta                 90.6040(10)
_cell_angle_gamma                90
_cell_volume                     1271.53
_exptl_crystal_colour            brown
_exptl_crystal_description       block
_cell_formula_units_Z            2
loop_
_atom_site_label
_atom_site_type_symbol
_atom_site_fract_x
_atom_site_fract_y
_atom_site_fract_z
O1 O 0.7631(2) 0.02096(6) 0.10850(14)
O2 O 1.4867(2) -0.12405(7) 0.22046(15)
H1 H 1.4927 -0.1533 0.1706
O3 O 1.1978(3) -0.08292(7) 0.45110(14)
H2 H 1.3303 -0.0851 0.4908
O4 O 0.9339(3) 0.01576(7) 0.38639(14)
H3 H 0.9507 0.0031 0.4698
O5 O 0.5412(2) 0.07513(6) 0.31442(14)
H4 H 0.6000 0.0429 0.3099
O6 O 0.5525(3) 0.27061(7) -0.08562(16)
O7 O 0.4376(3) 0.31042(7) 0.51810(16)
H5 H 0.4569 0.3233 0.6010
O8 O 0.9395(3) -0.00272(7) -0.32068(15)
H6 H 1.0413 -0.0191 -0.2704
O9 O 1.0463(2) -0.03676(7) 0.03314(14)
O10 O 1.3001(3) -0.06244(8) -0.19865(16)
H7 H 1.4008 -0.0727 -0.2582
C1 C 0.0595(4) 0.29138(11) 0.6259(2)
H8 H 0.1279 0.2888 0.7224
H9 H -0.0799 0.2675 0.6196
H10 H 0.0154 0.3303 0.6060
C2 C 0.2386(4) 0.27205(10) 0.5168(2)
C3 C 0.1521(4) 0.27473(9) 0.3612(2)
C4 C 0.3254(3) 0.25025(9) 0.2570(2)
H11 H 0.4790 0.2691 0.2767
C5 C 0.3612(4) 0.18717(9) 0.2903(2)
C6 C 0.5148(3) 0.15908(9) 0.1763(2)
C7 C 0.5936(3) 0.10419(9) 0.1939(2)
C8 C 0.7232(3) 0.07776(9) 0.0872(2)
C9 C 0.9923(3) 0.00196(9) 0.1413(2)
H12 H 1.1062 0.0338 0.1421
C10 C 0.9871(4) -0.02685(9) 0.2859(2)
H13 H 0.8588 -0.0554 0.2856
C11 C 1.2192(4) -0.05572(10) 0.3168(2)
H14 H 1.3467 -0.0270 0.3228
C12 C 1.2693(3) -0.09611(9) 0.1941(2)
H15 H 1.1409 -0.1246 0.1884
C13 C 0.5740(4) 0.18637(10) 0.0481(2)
C14 C 0.4737(4) 0.24198(9) 0.0117(2)
C15 C 0.2670(4) 0.26050(10) 0.0982(2)
H16 H 0.1258 0.2389 0.0698
H17 H 0.2354 0.3008 0.0815
C16 C 0.1267(4) 0.15520(10) 0.2900(2)
H18 H 0.0587 0.1555 0.1932
H19 H 0.0185 0.1733 0.3563
H20 H 0.1538 0.1164 0.3202
C17 C 0.4794(4) 0.18607(10) 0.4406(2)
H21 H 0.5120 0.1467 0.4681
H22 H 0.6309 0.2062 0.4367
C18 C 0.3245(4) 0.21321(10) 0.5537(2)
H23 H 0.1864 0.1889 0.5690
H24 H 0.4136 0.2149 0.6451
C19 C -0.0522(4) 0.29627(10) 0.3229(2)
H25 H -0.0978 0.2970 0.2249
H26 H -0.1538 0.3110 0.3935
C20 C 0.7146(3) 0.15997(10) -0.0543(2)
H27 H 0.7585 0.1802 -0.1374
C21 C 0.7910(3) 0.10517(9) -0.0375(2)
C22 C 0.9327(4) 0.07502(10) -0.1513(2)
H28 H 1.0715 0.0574 -0.1056
H29 H 0.9892 0.1028 -0.2218
C23 C 0.7895(4) 0.02988(10) -0.2298(2)
H30 H 0.7141 0.0047 -0.1582
C24 C 0.6022(4) 0.05548(11) -0.3257(2)
H31 H 0.6763 0.0791 -0.3982
H32 H 0.4965 0.0784 -0.2679
H33 H 0.5127 0.0256 -0.3729
C25 C 1.2721(4) -0.06237(10) 0.0549(2)
H34 H 1.3950 -0.0326 0.0618
C26 C 1.3130(4) -0.09743(10) -0.0763(2)
H35 H 1.4692 -0.1154 -0.0702
H36 H 1.1929 -0.1273 -0.0833
O11 O 0.3786(3) 0.41262(7) 0.39390(16)
H37 H 0.3553 0.3791 0.4183
H38 H 0.2453 0.4326 0.3861
loop_
_geom_bond_atom_site_label_1
_geom_bond_atom_site_label_2
_geom_bond_site_symmetry_1
_geom_bond_site_symmetry_2
O1 C8 1_555 1_555
O2 H1 1_555 1_555
O3 H2 1_555 1_555
O4 H3 1_555 1_555
O5 H4 1_555 1_555
O6 C14 1_555 1_555
O7 H5 1_555 1_555
O8 H6 1_555 1_555
O9 C9 1_555 1_555
O10 H7 1_555 1_555
C1 H8 1_555 1_555
H9 C1 1_555 1_555
H10 C1 1_555 1_555
C2 O7 1_555 1_555
C3 C2 1_555 1_555
C4 C3 1_555 1_555
H11 C4 1_555 1_555
C5 C4 1_555 1_555
C6 C5 1_555 1_555
C7 O5 1_555 1_555
C8 C7 1_555 1_555
C9 O1 1_555 1_555
H12 C9 1_555 1_555
C10 O4 1_555 1_555
H13 C10 1_555 1_555
C11 O3 1_555 1_555
H14 C11 1_555 1_555
C12 O2 1_555 1_555
H15 C12 1_555 1_555
C13 C6 1_555 1_555
C14 C13 1_555 1_555
C15 C4 1_555 1_555
H16 C15 1_555 1_555
H17 C15 1_555 1_555
C16 C5 1_555 1_555
H18 C16 1_555 1_555
H19 C16 1_555 1_555
H20 C16 1_555 1_555
C17 C5 1_555 1_555
H21 C17 1_555 1_555
H22 C17 1_555 1_555
C18 C2 1_555 1_555
H23 C18 1_555 1_555
H24 C18 1_555 1_555
C19 C3 1_555 1_555
H25 C19 1_555 1_555
H26 C19 1_555 1_555
C20 C13 1_555 1_555
H27 C20 1_555 1_555
C21 C8 1_555 1_555
C22 C21 1_555 1_555
H28 C22 1_555 1_555
H29 C22 1_555 1_555
C23 O8 1_555 1_555
H30 C23 1_555 1_555
C24 C23 1_555 1_555
H31 C24 1_555 1_555
H32 C24 1_555 1_555
H33 C24 1_555 1_555
C25 O9 1_555 1_555
H34 C25 1_555 1_555
C26 O10 1_555 1_555
H35 C26 1_555 1_555
H36 C26 1_555 1_555
O11 H37 1_555 1_555
H38 O11 1_555 1_555
C1 C2 1_555 1_555
C6 C7 1_555 1_555
C9 C10 1_555 1_555
C10 C11 1_555 1_555
C11 C12 1_555 1_555
C12 C25 1_555 1_555
C14 C15 1_555 1_555
C17 C18 1_555 1_555
C20 C21 1_555 1_555
C22 C23 1_555 1_555
C25 C26 1_555 1_555

#END
