
#######################################################################
#
#                 Cambridge Crystallographic Data Centre
#                                CCDC 
#
#######################################################################
#
# If this CIF has been generated from an entry in the Cambridge 
# Structural Database, then it will include bibliographic, chemical, 
# crystal, experimental, refinement or atomic coordinate data resulting 
# from the CCDC's data processing and validation procedures.
#
#######################################################################

data_DETVAA
_chemical_formula_moiety         'C43 H49 N7 O10 Si1,C1 H4 O1'
_chemical_name_systematic        
"2',3'-O-Isopropylidene-5'-O-(t-butyldiphenylsilyl)adenosin-8-yl-(8-7'-C)-1-(6,7-dideoxy-2,3-O-isopropylidene-\b-D-allo-hept-6-ynofuranosyl)uracil methanol solvate"
_symmetry_cell_setting           orthorhombic
_symmetry_space_group_name_H-M   'P 21 21 21'
_symmetry_Int_Tables_number      19
_space_group_name_Hall           'P 2ac 2ab'
loop_
_symmetry_equiv_pos_site_id
_symmetry_equiv_pos_as_xyz
1 x,y,z
2 1/2-x,-y,1/2+z
3 -x,1/2+y,1/2-z
4 1/2+x,1/2-y,-z
_cell_length_a                   17.2059(2)
_cell_length_b                   17.4366(2)
_cell_length_c                   32.1057(4)
_cell_angle_alpha                90
_cell_angle_beta                 90
_cell_angle_gamma                90
_cell_volume                     9632.11
_exptl_crystal_colour            colorless
_chemical_melting_point          '163-165 deg.C'
_cell_formula_units_Z            8
loop_
_atom_site_label
_atom_site_type_symbol
_atom_site_fract_x
_atom_site_fract_y
_atom_site_fract_z
N1 N 0.23516(19) -0.54320(18) 0.20550(11)
C1 C 0.3071(3) -0.5230(2) 0.22072(14)
H1 H 0.3177 -0.4709 0.2255
C2 C 0.3615(3) -0.5733(2) 0.22890(14)
H2 H 0.4092 -0.5569 0.2401
C3 C 0.3488(2) -0.6533(2) 0.22087(13)
N2 N 0.2749(2) -0.67016(18) 0.20753(11)
H3 H 0.2641 -0.7185 0.2042
C4 C 0.2161(3) -0.6192(2) 0.19886(13)
O1 O 0.15301(18) -0.64034(16) 0.18581(11)
O2 O 0.39811(17) -0.70411(16) 0.22440(10)
C5 C 0.1811(3) -0.4821(2) 0.19222(14)
H4 H 0.1369 -0.5054 0.1771
O3 O 0.22316(17) -0.43348(15) 0.16475(9)
C6 C 0.2109(2) -0.3535(2) 0.17421(15)
H5 H 0.1857 -0.3284 0.1501
C7 C 0.1572(2) -0.3497(2) 0.21101(15)
H6 H 0.1761 -0.3135 0.2325
C8 C 0.1500(3) -0.4317(2) 0.22789(15)
H7 H 0.1793 -0.4391 0.2541
O4 O 0.06901(19) -0.44460(18) 0.23310(13)
C9 C 0.0295(3) -0.3740(3) 0.22619(17)
O5 O 0.07982(18) -0.33334(19) 0.19865(12)
C10 C 0.0198(3) -0.3329(3) 0.2665(2)
H8 H 0.0705 -0.3230 0.2786
H9 H -0.0106 -0.3642 0.2854
H10 H -0.0068 -0.2846 0.2617
C11 C -0.0467(4) -0.3908(5) 0.2053(2)
H11 H -0.0373 -0.4171 0.1791
H12 H -0.0739 -0.3430 0.1999
H13 H -0.0781 -0.4230 0.2232
C12 C 0.2899(3) -0.3161(2) 0.18187(15)
H14 H 0.3272 -0.3333 0.1604
O6 O 0.31641(17) -0.33898(16) 0.22192(11)
H15 H 0.3617 -0.3239 0.2254
C13 C 0.2820(2) -0.2313(3) 0.18024(14)
C14 C 0.2775(2) -0.1632(2) 0.18179(13)
C15 C 0.2659(2) -0.0832(2) 0.18415(13)
N3 N 0.32032(18) -0.03160(18) 0.19278(10)
C16 C 0.2797(2) 0.0371(2) 0.19323(13)
C17 C 0.2014(2) 0.0258(2) 0.18532(13)
N4 N 0.19263(18) -0.05169(18) 0.17965(11)
N5 N 0.1462(2) 0.08027(19) 0.18343(12)
C18 C 0.1758(2) 0.1491(2) 0.19154(15)
H16 H 0.1401 0.1899 0.1912
N6 N 0.24964(19) 0.16837(19) 0.20012(12)
C19 C 0.3041(2) 0.1131(2) 0.20072(13)
N7 N 0.3781(2) 0.1323(2) 0.20750(13)
H17 H 0.3906 0.1801 0.2115
H18 H 0.4138 0.0970 0.2079
C20 C 0.1249(2) -0.0940(2) 0.16417(13)
H19 H 0.1322 -0.1490 0.1708
C21 C 0.0479(2) -0.0682(3) 0.18243(15)
H20 H 0.0542 -0.0366 0.2078
C22 C 0.0063(2) -0.0258(3) 0.14765(16)
H21 H 0.0047 0.0300 0.1534
C23 C 0.0527(3) -0.0420(3) 0.10838(15)
H22 H 0.0206 -0.0731 0.0892
O7 O 0.11952(19) -0.08625(19) 0.12093(10)
O8 O 0.00183(18) -0.1341(2) 0.18923(16)
C24 C -0.0724(3) -0.1245(3) 0.17199(16)
O9 O -0.06978(19) -0.0570(3) 0.14748(14)
C25 C -0.1286(4) -0.1131(5) 0.2060(2)
H23 H -0.1089 -0.0746 0.2251
H24 H -0.1361 -0.1610 0.2208
H25 H -0.1778 -0.0961 0.1946
C26 C -0.0977(9) -0.1856(6) 0.1419(4)
H26 H -0.0591 -0.1910 0.1201
H27 H -0.1472 -0.1713 0.1296
H28 H -0.1034 -0.2339 0.1566
C27 C 0.0783(3) 0.0297(3) 0.08621(17)
H29 H 0.0328 0.0611 0.0794
H30 H 0.1122 0.0598 0.1045
O10 O 0.1189(2) 0.0105(2) 0.04911(11)
Si1 Si 0.16676(9) 0.07381(9) 0.02104(5)
C28 C 0.2278(3) 0.1352(4) 0.05625(18)
C29 C 0.2083(5) 0.2096(4) 0.0677(2)
H31 H 0.1623 0.2310 0.0570
C30 C 0.2534(6) 0.2537(5) 0.0942(2)
H32 H 0.2379 0.3039 0.1010
C31 C 0.3198(5) 0.2246(6) 0.1104(2)
H33 H 0.3514 0.2550 0.1277
C32 C 0.3400(5) 0.1530(7) 0.1018(3)
H34 H 0.3857 0.1328 0.1135
C33 C 0.2951(5) 0.1071(5) 0.0756(2)
H35 H 0.3102 0.0560 0.0709
C34 C 0.0972(3) 0.1385(3) -0.00658(17)
C35 C 0.0196(4) 0.1214(4) -0.0075(2)
H36 H 0.0014 0.0763 0.0052
C36 C -0.0338(5) 0.1718(6) -0.0276(3)
H37 H -0.0874 0.1613 -0.0281
C37 C -0.0040(6) 0.2365(5) -0.0463(3)
H38 H -0.0383 0.2701 -0.0600
C38 C 0.0704(6) 0.2530(4) -0.0457(2)
H39 H 0.0885 0.2978 -0.0588
C39 C 0.1210(4) 0.2059(4) -0.02641(18)
H40 H 0.1740 0.2189 -0.0263
C40 C 0.2252(4) 0.0159(4) -0.01728(19)
C41 C 0.2753(6) 0.0660(6) -0.0441(3)
H41 H 0.3044 0.0343 -0.0634
H42 H 0.3111 0.0945 -0.0266
H43 H 0.2428 0.1015 -0.0595
C42 C 0.2740(6) -0.0464(5) 0.0032(2)
H44 H 0.3025 -0.0743 -0.0180
H45 H 0.2402 -0.0816 0.0181
H46 H 0.3103 -0.0232 0.0226
C43 C 0.1667(6) -0.0271(6) -0.0451(3)
H47 H 0.1947 -0.0577 -0.0654
H48 H 0.1340 0.0097 -0.0595
H49 H 0.1347 -0.0603 -0.0280
N8 N 0.6131(2) 0.55743(18) 0.18464(11)
C44 C 0.5468(3) 0.5389(2) 0.20624(14)
H50 H 0.5377 0.4870 0.2125
C45 C 0.4951(3) 0.5898(2) 0.21875(15)
H51 H 0.4508 0.5743 0.2338
C46 C 0.5078(3) 0.6697(2) 0.20895(14)
N9 N 0.5755(2) 0.68559(18) 0.18872(12)
H52 H 0.5857 0.7337 0.1841
C47 C 0.6293(3) 0.6331(2) 0.17482(15)
O11 O 0.6879(2) 0.65231(17) 0.15539(13)
O12 O 0.46164(17) 0.72170(16) 0.21779(10)
C48 C 0.6611(3) 0.4954(2) 0.16787(14)
H53 H 0.7031 0.5175 0.1505
O13 O 0.6122(2) 0.44946(16) 0.14258(9)
C49 C 0.6263(3) 0.3698(2) 0.14876(14)
H54 H 0.6425 0.3461 0.1221
C50 C 0.6916(3) 0.3637(2) 0.17996(14)
H55 H 0.6832 0.3218 0.2002
C51 C 0.6969(3) 0.4419(2) 0.20083(14)
H56 H 0.6675 0.4434 0.2273
O14 O 0.77671(19) 0.45424(18) 0.20715(11)
C52 C 0.8191(3) 0.3939(3) 0.18628(15)
O15 O 0.76425(19) 0.35800(18) 0.15947(10)
C53 C 0.8488(4) 0.3380(4) 0.2183(2)
H57 H 0.8055 0.3184 0.2344
H58 H 0.8851 0.3638 0.2367
H59 H 0.8749 0.2958 0.2044
C54 C 0.8823(4) 0.4266(4) 0.1596(2)
H60 H 0.8600 0.4620 0.1396
H61 H 0.9084 0.3854 0.1449
H62 H 0.9195 0.4535 0.1770
C55 C 0.5520(3) 0.3320(2) 0.16413(15)
H63 H 0.5078 0.3489 0.1466
O16 O 0.54005(19) 0.35670(17) 0.20563(11)
H64 H 0.4974 0.3407 0.2141
C56 C 0.5587(3) 0.2480(2) 0.16209(14)
C57 C 0.5657(2) 0.1803(3) 0.16218(14)
C58 C 0.5787(2) 0.0992(2) 0.16239(13)
N10 N 0.53056(19) 0.04753(18) 0.17672(11)
C59 C 0.5689(2) -0.0218(2) 0.17054(12)
C60 C 0.6409(2) -0.0099(2) 0.15252(13)
N11 N 0.64788(19) 0.06848(18) 0.14715(10)
N12 N 0.6928(2) -0.06381(19) 0.14261(12)
C61 C 0.6674(2) -0.1330(2) 0.15311(14)
H65 H 0.7017 -0.1737 0.1475
N13 N 0.59976(19) -0.15306(18) 0.17060(11)
C62 C 0.5474(2) -0.0973(2) 0.17917(12)
N14 N 0.47997(19) -0.11650(19) 0.19661(12)
H66 H 0.4701 -0.1643 0.2023
H67 H 0.4458 -0.0813 0.2023
C63 C 0.7067(2) 0.1122(2) 0.12440(13)
H68 H 0.7012 0.1669 0.1320
C64 C 0.7905(2) 0.0878(2) 0.13336(13)
H69 H 0.7927 0.0485 0.1556
C65 C 0.8212(2) 0.0563(2) 0.09199(14)
H70 H 0.8358 0.0016 0.0949
C66 C 0.7562(3) 0.0653(3) 0.06041(14)
H71 H 0.7752 0.0984 0.0375
O17 O 0.69375(17) 0.10521(18) 0.08139(9)
O18 O 0.83886(16) 0.15146(17) 0.14286(9)
C67 C 0.8811(3) 0.1727(3) 0.10548(14)
O19 O 0.88815(17) 0.10207(17) 0.08314(10)
C68 C 0.8383(3) 0.2325(3) 0.08127(17)
H72 H 0.7874 0.2132 0.0737
H73 H 0.8673 0.2450 0.0563
H74 H 0.8325 0.2783 0.0982
C69 C 0.9610(3) 0.1998(3) 0.11854(19)
H75 H 0.9871 0.1594 0.1339
H76 H 0.9559 0.2448 0.1361
H77 H 0.9911 0.2127 0.0940
C70 C 0.7269(3) -0.0095(3) 0.04151(17)
H78 H 0.7707 -0.0406 0.0317
H79 H 0.6981 -0.0391 0.0624
O20 O 0.6772(2) 0.0098(2) 0.00748(11)
Si2 Si 0.60944(9) -0.04306(9) -0.01332(4)
C71 C 0.5377(4) -0.0687(5) 0.0278(2)
C72 C 0.5057(10) -0.1361(7) 0.0325(4)
H80 H 0.5222 -0.1751 0.0143
C73 C 0.4496(12) -0.1557(9) 0.0617(6)
H81 H 0.4306 -0.2061 0.0635
C74 C 0.4249(9) -0.1034(9) 0.0859(5)
H82 H 0.3822 -0.1143 0.1032
C75 C 0.4557(5) -0.0365(8) 0.0877(2)
H83 H 0.4411 -0.0011 0.1084
C76 C 0.5133(4) -0.0178(6) 0.0570(2)
H84 H 0.5349 0.0317 0.0571
C77 C 0.6550(4) -0.1308(3) -0.03724(16)
C78 C 0.7340(4) -0.1336(4) -0.04554(19)
H85 H 0.7646 -0.0904 -0.0393
C79 C 0.7696(5) -0.1974(6) -0.0625(2)
H86 H 0.8235 -0.1973 -0.0676
C80 C 0.7258(10) -0.2612(6) -0.0721(2)
H87 H 0.7486 -0.3052 -0.0837
C81 C 0.6522(9) -0.2583(5) -0.0645(3)
H88 H 0.6223 -0.3023 -0.0700
C82 C 0.6146(6) -0.1946(5) -0.0487(3)
H89 H 0.5602 -0.1953 -0.0459
C83 C 0.5664(5) 0.0200(4) -0.0549(2)
C84 C 0.5089(9) -0.0288(7) -0.0804(4)
H90 H 0.4854 0.0028 -0.1019
H91 H 0.4687 -0.0486 -0.0622
H92 H 0.5365 -0.0711 -0.0933
C85 C 0.5304(7) 0.0896(5) -0.0385(3)
H93 H 0.5092 0.1194 -0.0614
H94 H 0.5692 0.1197 -0.0239
H95 H 0.4890 0.0758 -0.0194
C86 C 0.6350(8) 0.0451(6) -0.0837(3)
H96 H 0.6154 0.0780 -0.1057
H97 H 0.6590 0.0000 -0.0959
H98 H 0.6732 0.0728 -0.0674
O21 O 0.4465(9) 0.6151(10) 0.1175(5)
C87 C 0.4150(12) 0.5175(12) 0.1099(6)
O22 O 0.6477(12) 0.7259(12) 0.0708(6)
C88 C 0.7219(15) 0.7557(13) 0.0522(7)
loop_
_geom_bond_atom_site_label_1
_geom_bond_atom_site_label_2
_geom_bond_site_symmetry_1
_geom_bond_site_symmetry_2
N1 C1 1_555 1_555
C1 H1 1_555 1_555
C2 C1 1_555 1_555
H2 C2 1_555 1_555
C3 C2 1_555 1_555
N2 C3 1_555 1_555
H3 N2 1_555 1_555
C4 N1 1_555 1_555
O1 C4 1_555 1_555
O2 C3 1_555 1_555
C5 N1 1_555 1_555
H4 C5 1_555 1_555
O3 C5 1_555 1_555
C6 O3 1_555 1_555
H5 C6 1_555 1_555
C7 C6 1_555 1_555
H6 C7 1_555 1_555
C8 C5 1_555 1_555
H7 C8 1_555 1_555
O4 C8 1_555 1_555
C9 O4 1_555 1_555
O5 C7 1_555 1_555
C10 C9 1_555 1_555
H8 C10 1_555 1_555
H9 C10 1_555 1_555
H10 C10 1_555 1_555
C11 C9 1_555 1_555
H11 C11 1_555 1_555
H12 C11 1_555 1_555
H13 C11 1_555 1_555
C12 C6 1_555 1_555
H14 C12 1_555 1_555
O6 C12 1_555 1_555
H15 O6 1_555 1_555
C13 C12 1_555 1_555
C14 C13 1_555 1_555
C15 C14 1_555 1_555
N3 C15 1_555 1_555
C16 N3 1_555 1_555
C17 C16 1_555 1_555
N4 C15 1_555 1_555
N5 C17 1_555 1_555
C18 N5 1_555 1_555
H16 C18 1_555 1_555
N6 C18 1_555 1_555
C19 C16 1_555 1_555
N7 C19 1_555 1_555
H17 N7 1_555 1_555
H18 N7 1_555 1_555
C20 N4 1_555 1_555
H19 C20 1_555 1_555
C21 C20 1_555 1_555
H20 C21 1_555 1_555
C22 C21 1_555 1_555
H21 C22 1_555 1_555
C23 C22 1_555 1_555
H22 C23 1_555 1_555
O7 C20 1_555 1_555
O8 C21 1_555 1_555
C24 O8 1_555 1_555
O9 C22 1_555 1_555
C25 C24 1_555 1_555
H23 C25 1_555 1_555
H24 C25 1_555 1_555
H25 C25 1_555 1_555
C26 C24 1_555 1_555
H26 C26 1_555 1_555
H27 C26 1_555 1_555
H28 C26 1_555 1_555
C27 C23 1_555 1_555
H29 C27 1_555 1_555
H30 C27 1_555 1_555
O10 C27 1_555 1_555
Si1 O10 1_555 1_555
C28 Si1 1_555 1_555
C29 C28 1_555 1_555
H31 C29 1_555 1_555
C30 C29 1_555 1_555
H32 C30 1_555 1_555
C31 C30 1_555 1_555
H33 C31 1_555 1_555
C32 C31 1_555 1_555
H34 C32 1_555 1_555
C33 C28 1_555 1_555
H35 C33 1_555 1_555
C34 Si1 1_555 1_555
C35 C34 1_555 1_555
H36 C35 1_555 1_555
C36 C35 1_555 1_555
H37 C36 1_555 1_555
C37 C36 1_555 1_555
H38 C37 1_555 1_555
C38 C37 1_555 1_555
H39 C38 1_555 1_555
C39 C34 1_555 1_555
H40 C39 1_555 1_555
C40 Si1 1_555 1_555
C41 C40 1_555 1_555
H41 C41 1_555 1_555
H42 C41 1_555 1_555
H43 C41 1_555 1_555
C42 C40 1_555 1_555
H44 C42 1_555 1_555
H45 C42 1_555 1_555
H46 C42 1_555 1_555
C43 C40 1_555 1_555
H47 C43 1_555 1_555
H48 C43 1_555 1_555
H49 C43 1_555 1_555
N8 C44 1_555 1_555
C44 H50 1_555 1_555
C45 C44 1_555 1_555
H51 C45 1_555 1_555
C46 C45 1_555 1_555
N9 C46 1_555 1_555
H52 N9 1_555 1_555
C47 N8 1_555 1_555
O11 C47 1_555 1_555
O12 C46 1_555 1_555
C48 N8 1_555 1_555
H53 C48 1_555 1_555
O13 C48 1_555 1_555
C49 O13 1_555 1_555
H54 C49 1_555 1_555
C50 C49 1_555 1_555
H55 C50 1_555 1_555
C51 C48 1_555 1_555
H56 C51 1_555 1_555
O14 C51 1_555 1_555
C52 O14 1_555 1_555
O15 C50 1_555 1_555
C53 C52 1_555 1_555
H57 C53 1_555 1_555
H58 C53 1_555 1_555
H59 C53 1_555 1_555
C54 C52 1_555 1_555
H60 C54 1_555 1_555
H61 C54 1_555 1_555
H62 C54 1_555 1_555
C55 C49 1_555 1_555
H63 C55 1_555 1_555
O16 C55 1_555 1_555
H64 O16 1_555 1_555
C56 C55 1_555 1_555
C57 C56 1_555 1_555
C58 C57 1_555 1_555
N10 C58 1_555 1_555
C59 N10 1_555 1_555
C60 C59 1_555 1_555
N11 C58 1_555 1_555
N12 C60 1_555 1_555
C61 N12 1_555 1_555
H65 C61 1_555 1_555
N13 C61 1_555 1_555
C62 C59 1_555 1_555
N14 C62 1_555 1_555
H66 N14 1_555 1_555
H67 N14 1_555 1_555
C63 N11 1_555 1_555
H68 C63 1_555 1_555
C64 C63 1_555 1_555
H69 C64 1_555 1_555
C65 C64 1_555 1_555
H70 C65 1_555 1_555
C66 C65 1_555 1_555
H71 C66 1_555 1_555
O17 C63 1_555 1_555
O18 C64 1_555 1_555
C67 O18 1_555 1_555
O19 C65 1_555 1_555
C68 C67 1_555 1_555
H72 C68 1_555 1_555
H73 C68 1_555 1_555
H74 C68 1_555 1_555
C69 C67 1_555 1_555
H75 C69 1_555 1_555
H76 C69 1_555 1_555
H77 C69 1_555 1_555
C70 C66 1_555 1_555
H78 C70 1_555 1_555
H79 C70 1_555 1_555
O20 C70 1_555 1_555
Si2 O20 1_555 1_555
C71 Si2 1_555 1_555
C72 C71 1_555 1_555
H80 C72 1_555 1_555
C73 C72 1_555 1_555
H81 C73 1_555 1_555
C74 C73 1_555 1_555
H82 C74 1_555 1_555
C75 C74 1_555 1_555
H83 C75 1_555 1_555
C76 C71 1_555 1_555
H84 C76 1_555 1_555
C77 Si2 1_555 1_555
C78 C77 1_555 1_555
H85 C78 1_555 1_555
C79 C78 1_555 1_555
H86 C79 1_555 1_555
C80 C79 1_555 1_555
H87 C80 1_555 1_555
C81 C80 1_555 1_555
H88 C81 1_555 1_555
C82 C77 1_555 1_555
H89 C82 1_555 1_555
C83 Si2 1_555 1_555
C84 C83 1_555 1_555
H90 C84 1_555 1_555
H91 C84 1_555 1_555
H92 C84 1_555 1_555
C85 C83 1_555 1_555
H93 C85 1_555 1_555
H94 C85 1_555 1_555
H95 C85 1_555 1_555
C86 C83 1_555 1_555
H96 C86 1_555 1_555
H97 C86 1_555 1_555
H98 C86 1_555 1_555
O21 C87 1_555 1_555
O22 C88 1_555 1_555
N2 C4 1_555 1_555
C7 C8 1_555 1_555
C9 O5 1_555 1_555
C17 N4 1_555 1_555
N6 C19 1_555 1_555
C23 O7 1_555 1_555
C24 O9 1_555 1_555
C32 C33 1_555 1_555
C38 C39 1_555 1_555
N9 C47 1_555 1_555
C50 C51 1_555 1_555
C52 O15 1_555 1_555
C60 N11 1_555 1_555
N13 C62 1_555 1_555
C66 O17 1_555 1_555
C67 O19 1_555 1_555
C75 C76 1_555 1_555
C81 C82 1_555 1_555

#END
