
#######################################################################
#
#                 Cambridge Crystallographic Data Centre
#                                CCDC 
#
#######################################################################
#
# If this CIF has been generated from an entry in the Cambridge 
# Structural Database, then it will include bibliographic, chemical, 
# crystal, experimental, refinement or atomic coordinate data resulting 
# from the CCDC's data processing and validation procedures.
#
#######################################################################

data_DETWEE
_chemical_formula_moiety         'C12 H22 B1 Cl1 O1'
_chemical_name_systematic        
(S)-(O-B)-Chloro((1S,2R,3S,5S)-2-(2(R)-methoxy)-6,6-dimethyl-3-norpinyl)borane
_symmetry_cell_setting           monoclinic
_symmetry_space_group_name_H-M   'P 21'
_symmetry_Int_Tables_number      4
_space_group_name_Hall           'P 2yb'
loop_
_symmetry_equiv_pos_site_id
_symmetry_equiv_pos_as_xyz
1 x,y,z
2 -x,1/2+y,-z
_cell_length_a                   7.468(3)
_cell_length_b                   10.887(3)
_cell_length_c                   7.898(3)
_cell_angle_alpha                90
_cell_angle_beta                 95.29(3)
_cell_angle_gamma                90
_cell_volume                     639.405
_exptl_crystal_colour            white
_chemical_melting_point          84-86.5deg.C
_cell_formula_units_Z            2
loop_
_atom_site_label
_atom_site_type_symbol
_atom_site_fract_x
_atom_site_fract_y
_atom_site_fract_z
Cl1 Cl 0.2092(1) 0.2500 0.1071(1)
O1 O 0.3397(3) 0.4905(3) 0.0964(4)
B1 B 0.2841(7) 0.3921(5) 0.2319(7)
C1 C 0.7719(5) 0.2775(4) 0.3703(5)
C2 C 0.6181(5) 0.3366(4) 0.2527(5)
C3 C 0.4595(5) 0.3745(4) 0.3549(5)
C4 C 0.4474(5) 0.2967(4) 0.5151(5)
C5 C 0.6271(4) 0.2373(5) 0.5789(5)
C6 C 0.7909(5) 0.3238(5) 0.5558(5)
C7 C 0.6878(5) 0.1583(4) 0.4366(6)
C8 C 0.9629(6) 0.2679(6) 0.6504(6)
C9 C 0.7870(6) 0.4583(5) 0.6004(7)
C10 C 0.6629(6) 0.4442(5) 0.1443(6)
C11 C 0.5047(7) 0.4712(5) 0.0126(7)
C12 C 0.1944(7) 0.5376(6) -0.0212(8)
H1 H 0.160(6) 0.422(5) 0.280(6)
H2 H 0.8879 0.2845 0.2987
H3 H 0.5840 0.2634 0.1633
H4 H 0.4831 0.4641 0.4115
H5 H 0.4046 0.3551 0.6144
H6 H 0.3491 0.2251 0.4871
H7 H 0.6044 0.2024 0.7032
H8 H 0.7834 0.0873 0.4769
H9 H 0.5804 0.1193 0.3525
H10 H 0.9829 0.1712 0.6281
H11 H 0.9622 0.2841 0.7852
H12 H 1.0707 0.3197 0.6023
H13 H 0.6678 0.5059 0.5476
H14 H 0.9032 0.4950 0.5461
H15 H 0.8024 0.4707 0.7366
H16 H 0.6900 0.5239 0.2239
H17 H 0.7804 0.4225 0.0798
H18 H 0.4857 0.3946 -0.0740
H19 H 0.5337 0.5530 -0.0575
H20 H 0.0726 0.5379 0.0427
H21 H 0.1746 0.4824 -0.1350
H22 H 0.2273 0.6306 -0.0548
loop_
_geom_bond_atom_site_label_1
_geom_bond_atom_site_label_2
_geom_bond_site_symmetry_1
_geom_bond_site_symmetry_2
Cl1 B1 1_555 1_555
O1 B1 1_555 1_555
B1 C3 1_555 1_555
C1 C2 1_555 1_555
C2 C3 1_555 1_555
C3 C4 1_555 1_555
C4 C5 1_555 1_555
C5 C6 1_555 1_555
C6 C1 1_555 1_555
C7 C1 1_555 1_555
C8 C6 1_555 1_555
C9 C6 1_555 1_555
C10 C2 1_555 1_555
C11 O1 1_555 1_555
C12 O1 1_555 1_555
H1 B1 1_555 1_555
H2 C1 1_555 1_555
H3 C2 1_555 1_555
H4 C3 1_555 1_555
H5 C4 1_555 1_555
H6 C4 1_555 1_555
H7 C5 1_555 1_555
H8 C7 1_555 1_555
H9 C7 1_555 1_555
H10 C8 1_555 1_555
H11 C8 1_555 1_555
H12 C8 1_555 1_555
H13 C9 1_555 1_555
H14 C9 1_555 1_555
H15 C9 1_555 1_555
H16 C10 1_555 1_555
H17 C10 1_555 1_555
H18 C11 1_555 1_555
H19 C11 1_555 1_555
H20 C12 1_555 1_555
H21 C12 1_555 1_555
H22 C12 1_555 1_555
C5 C7 1_555 1_555
C10 C11 1_555 1_555

#END
