
#######################################################################
#
#                 Cambridge Crystallographic Data Centre
#                                CCDC 
#
#######################################################################
#
# If this CIF has been generated from an entry in the Cambridge 
# Structural Database, then it will include bibliographic, chemical, 
# crystal, experimental, refinement or atomic coordinate data resulting 
# from the CCDC's data processing and validation procedures.
#
#######################################################################

data_DETZUA
_chemical_formula_moiety         'C29 H35 B1 F2 N2 O5'
_chemical_name_systematic        
"diethyl 1,2,8,9-tetraethyl-5,5-difluoro-10-(3-hydroxyphenyl)-5H-4\l^5^,5\l^5^-dipyrrolo[1,2-c:2',1'-f][1,3,2]diazaborinine-3,7-dicarboxylate"
_symmetry_cell_setting           orthorhombic
_symmetry_space_group_name_H-M   'P c a 21'
_symmetry_Int_Tables_number      29
_space_group_name_Hall           'P 2c -2ac'
loop_
_symmetry_equiv_pos_site_id
_symmetry_equiv_pos_as_xyz
1 x,y,z
2 -x,-y,1/2+z
3 1/2+x,-y,z
4 1/2-x,y,1/2+z
_cell_length_a                   17.1426(9)
_cell_length_b                   11.2844(6)
_cell_length_c                   14.6062(7)
_cell_angle_alpha                90
_cell_angle_beta                 90
_cell_angle_gamma                90
_cell_volume                     2825.48
_exptl_crystal_colour            'dull dark red'
_exptl_crystal_description       plate
_cell_formula_units_Z            4
loop_
_atom_site_label
_atom_site_type_symbol
_atom_site_fract_x
_atom_site_fract_y
_atom_site_fract_z
F1 F 0.6490(2) 0.2881(3) 0.5765(3)
F2 F 0.5807(2) 0.3047(3) 0.4467(3)
O1 O 0.4912(5) 0.2619(5) 0.7166(4)
O2 O 0.4572(3) 0.2369(4) 0.5766(4)
N1 N 0.5631(2) 0.4526(3) 0.5637(3)
N2 N 0.6824(3) 0.4431(4) 0.4692(3)
C1 C 0.5025(3) 0.4222(5) 0.6182(4)
C2 C 0.4643(3) 0.5245(5) 0.6504(4)
C3 C 0.5027(4) 0.6213(5) 0.6124(4)
C4 C 0.5655(3) 0.5757(4) 0.5588(4)
C5 C 0.6228(4) 0.6306(4) 0.5061(5)
C6 C 0.6815(3) 0.5669(4) 0.4611(4)
C7 C 0.7459(3) 0.6005(5) 0.4055(4)
C8 C 0.7839(4) 0.4975(5) 0.3788(4)
C9 C 0.7433(4) 0.4036(5) 0.4190(4)
C10 C 0.6195(3) 0.7617(4) 0.4918(4)
C11 C 0.6574(4) 0.8403(5) 0.5478(4)
H1 H 0.6860 0.8134 0.5977
C12 C 0.6524(4) 0.9633(5) 0.5283(5)
C13 C 0.6105(5) 0.9999(6) 0.4547(5)
H2 H 0.6077 1.0804 0.4414
C14 C 0.5730(5) 0.9220(7) 0.4007(5)
H3 H 0.5441 0.9494 0.3512
C15 C 0.5770(4) 0.8030(5) 0.4178(4)
H4 H 0.5512 0.7498 0.3797
C16 C 0.4842(4) 0.3004(6) 0.6431(5)
C17 C 0.4424(7) 0.1115(7) 0.5948(8)
H5 H 0.4632 0.0687 0.6435
C18 C 0.3944(8) 0.0673(9) 0.5309(15)
H6 H 0.4102 0.0949 0.4716
H7 H 0.3420 0.0930 0.5431
H8 H 0.3965 -0.0177 0.5324
C19 C 0.3912(4) 0.5261(6) 0.7061(5)
H9 H 0.3909 0.5966 0.7441
H10 H 0.3909 0.4577 0.7464
C20 C 0.3177(4) 0.5246(9) 0.6475(6)
H11 H 0.3169 0.4539 0.6109
H12 H 0.3172 0.5928 0.6083
H13 H 0.2726 0.5260 0.6865
C21 C 0.4799(4) 0.7485(5) 0.6323(5)
H14 H 0.4979 0.7988 0.5827
H15 H 0.4235 0.7544 0.6350
C22 C 0.5142(6) 0.7922(6) 0.7216(6)
H16 H 0.5701 0.7917 0.7176
H17 H 0.4978 0.7412 0.7706
H18 H 0.4964 0.8714 0.7333
C23 C 0.7712(4) 0.7226(5) 0.3759(5)
H19 H 0.7523 0.7801 0.4200
H20 H 0.8278 0.7261 0.3761
C24 C 0.7421(6) 0.7562(7) 0.2823(6)
H21 H 0.7543 0.6941 0.2397
H22 H 0.7668 0.8284 0.2631
H23 H 0.6866 0.7676 0.2845
C25 C 0.8578(4) 0.4879(6) 0.3226(5)
H24 H 0.8545 0.4186 0.2835
H25 H 0.8624 0.5571 0.2836
C26 C 0.9283(4) 0.4786(9) 0.3814(7)
H26 H 0.9731 0.4629 0.3439
H27 H 0.9215 0.4151 0.4245
H28 H 0.9358 0.5517 0.4138
C27 C 0.7625(5) 0.2761(6) 0.4102(6)
B1 B 0.6187(5) 0.3658(5) 0.5162(6)
O3 O 0.6951(7) 1.0308(6) 0.5892(6)
H29 H 0.6909 1.1011 0.5759
O4 O 0.7760(5) 0.2113(6) 0.4745(5)
O5 O 0.7613(8) 0.2416(14) 0.3269(9)
C28 C 0.7850(13) 0.1192(18) 0.3074(18)
H30 H 0.7655 0.0685 0.3559
H31 H 0.7604 0.0943 0.2508
C29 C 0.8586(9) 0.1034(12) 0.3002(14)
H32 H 0.8811 0.1680 0.2667
H33 H 0.8684 0.0305 0.2684
H34 H 0.8814 0.0998 0.3601
H35? H 0.6776 1.0182 0.5655
O6? O 0.5277(15) 0.9515(16) 0.3232(15)
H36? H 0.5557 0.9823 0.2843
O7? O 0.8265(16) 0.240(2) 0.442(2)
O8? O 0.730(3) 0.231(4) 0.346(3)
C30? C 0.754(4) 0.122(5) 0.303(4)
H37? H 0.8089 0.1255 0.2897
H38? H 0.7455 0.0570 0.3460
C31? C 0.717(2) 0.098(3) 0.229(3)
H39? H 0.6652 0.0707 0.2437
H40? H 0.7441 0.0382 0.1956
H41? H 0.7131 0.1688 0.1926
loop_
_geom_bond_atom_site_label_1
_geom_bond_atom_site_label_2
_geom_bond_site_symmetry_1
_geom_bond_site_symmetry_2
F1 B1 1_555 1_555
F2 B1 1_555 1_555
O1 C16 1_555 1_555
O2 C16 1_555 1_555
N1 C1 1_555 1_555
N2 C6 1_555 1_555
C1 C2 1_555 1_555
C2 C3 1_555 1_555
C3 C4 1_555 1_555
C4 N1 1_555 1_555
C5 C4 1_555 1_555
C6 C5 1_555 1_555
C7 C6 1_555 1_555
C8 C7 1_555 1_555
C9 N2 1_555 1_555
C10 C5 1_555 1_555
C11 C10 1_555 1_555
H1 C11 1_555 1_555
C12 C11 1_555 1_555
C13 C12 1_555 1_555
H2 C13 1_555 1_555
C14 C13 1_555 1_555
H3 C14 1_555 1_555
C15 C10 1_555 1_555
H4 C15 1_555 1_555
C16 C1 1_555 1_555
C17 O2 1_555 1_555
H5 C17 1_555 1_555
C18 C17 1_555 1_555
H6 C18 1_555 1_555
H7 C18 1_555 1_555
H8 C18 1_555 1_555
C19 C2 1_555 1_555
H9 C19 1_555 1_555
H10 C19 1_555 1_555
C20 C19 1_555 1_555
H11 C20 1_555 1_555
H12 C20 1_555 1_555
H13 C20 1_555 1_555
C21 C3 1_555 1_555
H14 C21 1_555 1_555
H15 C21 1_555 1_555
C22 C21 1_555 1_555
H16 C22 1_555 1_555
H17 C22 1_555 1_555
H18 C22 1_555 1_555
C23 C7 1_555 1_555
H19 C23 1_555 1_555
H20 C23 1_555 1_555
C24 C23 1_555 1_555
H21 C24 1_555 1_555
H22 C24 1_555 1_555
H23 C24 1_555 1_555
C25 C8 1_555 1_555
H24 C25 1_555 1_555
H25 C25 1_555 1_555
C26 C25 1_555 1_555
H26 C26 1_555 1_555
H27 C26 1_555 1_555
H28 C26 1_555 1_555
C27 C9 1_555 1_555
B1 N1 1_555 1_555
O3 C12 1_555 1_555
H29 O3 1_555 1_555
O4 C27 1_555 1_555
O5 C27 1_555 1_555
C28 O5 1_555 1_555
H30 C28 1_555 1_555
H31 C28 1_555 1_555
C29 C28 1_555 1_555
H32 C29 1_555 1_555
H33 C29 1_555 1_555
H34 C29 1_555 1_555
N2 B1 1_555 1_555
C8 C9 1_555 1_555
C14 C15 1_555 1_555

#END
