
#######################################################################
#
#                 Cambridge Crystallographic Data Centre
#                                CCDC 
#
#######################################################################
#
# If this CIF has been generated from an entry in the Cambridge 
# Structural Database, then it will include bibliographic, chemical, 
# crystal, experimental, refinement or atomic coordinate data resulting 
# from the CCDC's data processing and validation procedures.
#
#######################################################################

data_DEVBAK
_chemical_formula_moiety         'C9 H13 N1 O2'
_chemical_name_systematic        
(5S,8aS)-5-(hydroxymethyl)-1,5,8,8a-tetrahydroindolizin-3(2H)-one
_symmetry_cell_setting           orthorhombic
_symmetry_space_group_name_H-M   'P 21 21 21'
_symmetry_Int_Tables_number      19
_space_group_name_Hall           'P 2ac 2ab'
loop_
_symmetry_equiv_pos_site_id
_symmetry_equiv_pos_as_xyz
1 x,y,z
2 1/2-x,-y,1/2+z
3 -x,1/2+y,1/2-z
4 1/2+x,1/2-y,-z
_cell_length_a                   5.2759(5)
_cell_length_b                   7.8750(8)
_cell_length_c                   20.940(2)
_cell_angle_alpha                90
_cell_angle_beta                 90
_cell_angle_gamma                90
_cell_volume                     870.009
_exptl_crystal_colour            colorless
_exptl_crystal_description       prism
_cell_formula_units_Z            4
_exptl_crystal_recrystallization_method 'ethyl acetate/hexane'
loop_
_atom_site_label
_atom_site_type_symbol
_atom_site_fract_x
_atom_site_fract_y
_atom_site_fract_z
C1 C 0.9206(4) 0.8064(2) 0.13810(8)
H1 H 0.7750 0.8224 0.1105
H2 H 0.8631 0.8133 0.1820
O1 O 1.0998(4) 0.93555(15) 0.12643(6)
H3 H 1.140(5) 0.970(3) 0.1624(12)
N1 N 0.8584(3) 0.49854(17) 0.14445(5)
C2 C 1.0364(3) 0.63164(18) 0.12593(7)
H4 H 1.1916 0.6201 0.1512
O2 O 0.8518(3) 0.55942(16) 0.25100(5)
C3 C 1.1008(4) 0.6161(2) 0.05653(8)
H5 H 1.2383 0.6780 0.0414
C4 C 0.9765(4) 0.5210(2) 0.01566(8)
H6 H 1.0214 0.5257 -0.0272
C5 C 0.7673(4) 0.4063(2) 0.03507(9)
H7 H 0.7640 0.3076 0.0073
H8 H 0.6064 0.4649 0.0309
C6 C 0.8044(3) 0.35065(19) 0.10331(8)
H9 H 0.9490 0.2727 0.1052
C7 C 0.5820(4) 0.2698(2) 0.13765(9)
H10 H 0.4226 0.3179 0.1233
H11 H 0.5788 0.1480 0.1309
C8 C 0.6308(5) 0.3121(3) 0.20705(10)
H12 H 0.4728 0.3322 0.2295
H13 H 0.7212 0.2205 0.2281
C9 C 0.7893(4) 0.4704(2) 0.20508(8)
loop_
_geom_bond_atom_site_label_1
_geom_bond_atom_site_label_2
_geom_bond_site_symmetry_1
_geom_bond_site_symmetry_2
C1 H1 1_555 1_555
H2 C1 1_555 1_555
O1 C1 1_555 1_555
H3 O1 1_555 1_555
N1 C2 1_555 1_555
C2 C1 1_555 1_555
H4 C2 1_555 1_555
O2 C9 1_555 1_555
C3 C2 1_555 1_555
H5 C3 1_555 1_555
C4 C3 1_555 1_555
H6 C4 1_555 1_555
C5 C4 1_555 1_555
H7 C5 1_555 1_555
H8 C5 1_555 1_555
C6 N1 1_555 1_555
H9 C6 1_555 1_555
C7 C6 1_555 1_555
H10 C7 1_555 1_555
H11 C7 1_555 1_555
C8 C7 1_555 1_555
H12 C8 1_555 1_555
H13 C8 1_555 1_555
C9 N1 1_555 1_555
C5 C6 1_555 1_555
C8 C9 1_555 1_555

#END
