
#######################################################################
#
#                 Cambridge Crystallographic Data Centre
#                                CCDC 
#
#######################################################################
#
# If this CIF has been generated from an entry in the Cambridge 
# Structural Database, then it will include bibliographic, chemical, 
# crystal, experimental, refinement or atomic coordinate data resulting 
# from the CCDC's data processing and validation procedures.
#
#######################################################################

data_DEVGIV
_chemical_formula_moiety         'C34 H22 F4'
_chemical_name_systematic        
cis,cis-2,5-bis(3',5'-Difluorophenyl)-1,4-distyrylbenzene
_symmetry_cell_setting           triclinic
_symmetry_space_group_name_H-M   'P -1'
_symmetry_Int_Tables_number      2
_space_group_name_Hall           '-P 1'
loop_
_symmetry_equiv_pos_site_id
_symmetry_equiv_pos_as_xyz
1 x,y,z
2 -x,-y,-z
_cell_length_a                   8.0544(16)
_cell_length_b                   8.7247(17)
_cell_length_c                   10.764(2)
_cell_angle_alpha                67.07(3)
_cell_angle_beta                 88.05(3)
_cell_angle_gamma                66.99(3)
_cell_volume                     634.942
_exptl_crystal_colour            colorless
_exptl_crystal_description       block
_cell_formula_units_Z            1
_chemical_properties_physical    light-sensitive
_exptl_crystal_recrystallization_method chloroform/methanol
loop_
_atom_site_label
_atom_site_type_symbol
_atom_site_fract_x
_atom_site_fract_y
_atom_site_fract_z
F1 F 1.18133(18) -0.20625(19) 0.77877(13)
C1 C 0.9426(3) 0.0789(3) 0.6593(2)
C2 C 0.5906(3) 0.4603(3) 0.3990(2)
C3 C 0.8801(2) 0.2533(3) 0.5543(2)
C4 C 0.6842(2) 0.3812(3) 0.5292(2)
C5 C 0.5934(2) 0.4205(3) 0.63335(19)
F2 F 1.29556(19) 0.2335(2) 0.41130(19)
C6 C 1.1226(3) -0.0363(3) 0.6765(2)
C7 C 0.6296(3) 0.2976(3) 0.8910(2)
C8 C 1.0006(3) 0.3048(3) 0.4699(2)
C9 C 0.6895(3) 0.3508(3) 0.7714(2)
C10 C 1.2454(3) 0.0101(4) 0.5972(3)
C11 C 0.4600(3) 0.2734(3) 0.9216(2)
C12 C 1.1792(3) 0.1822(4) 0.4944(3)
C13 C 0.3805(3) 0.2091(3) 0.8515(2)
C14 C 0.3776(3) 0.3104(4) 1.0284(2)
C15 C 0.2215(4) 0.1881(4) 0.8850(3)
C16 C 0.2176(4) 0.2889(4) 1.0607(3)
C17 C 0.1401(4) 0.2300(4) 0.9879(3)
H1 H 0.811(3) 0.355(3) 0.773(2)
H2 H 0.655(3) 0.427(3) 0.330(2)
H3 H 0.958(3) 0.427(4) 0.393(3)
H4 H 1.370(4) -0.071(4) 0.610(3)
H5 H 0.864(3) 0.045(3) 0.715(2)
H6 H 0.435(3) 0.181(3) 0.778(2)
H7 H 0.706(3) 0.267(3) 0.973(2)
H8 H 0.435(3) 0.351(3) 1.081(2)
H9 H 0.169(4) 0.316(4) 1.136(3)
H10 H 0.166(4) 0.143(4) 0.834(3)
H11 H 0.028(4) 0.215(4) 1.014(3)
F1A F -0.18133(18) 1.20625(19) 0.22123(13)
C1A C 0.0574(3) 0.9211(3) 0.3407(2)
C2A C 0.4094(3) 0.5397(3) 0.6010(2)
C3A C 0.1199(2) 0.7467(3) 0.4457(2)
C4A C 0.3158(2) 0.6188(3) 0.4708(2)
C5A C 0.4066(2) 0.5795(3) 0.36665(19)
F2A F -0.29556(19) 0.7665(2) 0.58870(19)
C6A C -0.1226(3) 1.0363(3) 0.3235(2)
C7A C 0.3704(3) 0.7024(3) 0.1090(2)
C8A C -0.0006(3) 0.6952(3) 0.5301(2)
C9A C 0.3105(3) 0.6492(3) 0.2286(2)
C10A C -0.2454(3) 0.9899(4) 0.4028(3)
C11A C 0.5400(3) 0.7266(3) 0.0784(2)
C12A C -0.1792(3) 0.8178(4) 0.5056(3)
C13A C 0.6195(3) 0.7909(3) 0.1485(2)
C14A C 0.6224(3) 0.6896(4) -0.0284(2)
C15A C 0.7785(4) 0.8119(4) 0.1150(3)
C16A C 0.7824(4) 0.7111(4) -0.0607(3)
C17A C 0.8599(4) 0.7700(4) 0.0121(3)
H1A H 0.189(3) 0.645(3) 0.227(2)
H2A H 0.345(3) 0.573(3) 0.670(2)
H3A H 0.042(3) 0.573(4) 0.607(3)
H4A H -0.370(4) 1.071(4) 0.390(3)
H5A H 0.136(3) 0.955(3) 0.285(2)
H6A H 0.565(3) 0.819(3) 0.222(2)
H7A H 0.294(3) 0.733(3) 0.027(2)
H8A H 0.565(3) 0.649(3) -0.081(2)
H9A H 0.831(4) 0.684(4) -0.136(3)
H10A H 0.834(4) 0.857(4) 0.166(3)
H11A H 0.972(4) 0.785(4) -0.014(3)
loop_
_geom_bond_atom_site_label_1
_geom_bond_atom_site_label_2
_geom_bond_site_symmetry_1
_geom_bond_site_symmetry_2
F1 C6 1_555 1_555
C1 C3 1_555 1_555
C2 C4 1_555 1_555
C3 C4 1_555 1_555
C4 C5 1_555 1_555
C5 C9 1_555 1_555
F2 C12 1_555 1_555
C6 C1 1_555 1_555
C7 C9 1_555 1_555
C8 C3 1_555 1_555
C9 H1 1_555 1_555
C10 C6 1_555 1_555
C11 C7 1_555 1_555
C12 C8 1_555 1_555
C13 C11 1_555 1_555
C14 C11 1_555 1_555
C15 C13 1_555 1_555
C16 C14 1_555 1_555
C17 C15 1_555 1_555
H2 C2 1_555 1_555
H3 C8 1_555 1_555
H4 C10 1_555 1_555
H5 C1 1_555 1_555
H6 C13 1_555 1_555
H7 C7 1_555 1_555
H8 C14 1_555 1_555
H9 C16 1_555 1_555
H10 C15 1_555 1_555
H11 C17 1_555 1_555
F1A C6A 1_555 1_555
C1A C3A 1_555 1_555
C2A C5 1_555 1_555
C3A C4A 1_555 1_555
C4A C2A 1_555 1_555
C5A C2 1_555 1_555
F2A C12A 1_555 1_555
C6A C1A 1_555 1_555
C7A C9A 1_555 1_555
C8A C3A 1_555 1_555
C9A C5A 1_555 1_555
C10A C6A 1_555 1_555
C11A C7A 1_555 1_555
C12A C8A 1_555 1_555
C13A C11A 1_555 1_555
C14A C11A 1_555 1_555
C15A C13A 1_555 1_555
C16A C14A 1_555 1_555
C17A C15A 1_555 1_555
H1A C9A 1_555 1_555
H2A C2A 1_555 1_555
H3A C8A 1_555 1_555
H4A C10A 1_555 1_555
H5A C1A 1_555 1_555
H6A C13A 1_555 1_555
H7A C7A 1_555 1_555
H8A C14A 1_555 1_555
H9A C16A 1_555 1_555
H10A C15A 1_555 1_555
H11A C17A 1_555 1_555
C10 C12 1_555 1_555
C16 C17 1_555 1_555
C4A C5A 1_555 1_555
C10A C12A 1_555 1_555
C16A C17A 1_555 1_555

#END
