
#######################################################################
#
#                 Cambridge Crystallographic Data Centre
#                                CCDC 
#
#######################################################################
#
# If this CIF has been generated from an entry in the Cambridge 
# Structural Database, then it will include bibliographic, chemical, 
# crystal, experimental, refinement or atomic coordinate data resulting 
# from the CCDC's data processing and validation procedures.
#
#######################################################################

data_DEVHIY
_chemical_name_common            
4-(5-bromopentyl)-1-butyl-1,4-dihydrobiphenyl-4-carbonitrile
_chemical_formula_moiety         'C22 H28 Br1 N1'
_chemical_name_systematic        
Z-1-(5-bromopentyl)-4-butyl-4-phenylcyclohexa-2,5-dienecarbonitrile
_symmetry_cell_setting           orthorhombic
_symmetry_space_group_name_H-M   'P n m a'
_symmetry_Int_Tables_number      62
_space_group_name_Hall           '-P 2ac 2n'
loop_
_symmetry_equiv_pos_site_id
_symmetry_equiv_pos_as_xyz
1 x,y,z
2 1/2-x,-y,1/2+z
3 -x,1/2+y,-z
4 1/2+x,1/2-y,1/2-z
5 -x,-y,-z
6 1/2+x,y,1/2-z
7 x,1/2-y,z
8 1/2-x,1/2+y,1/2+z
_cell_length_a                   18.6978(16)
_cell_length_b                   7.4208(6)
_cell_length_c                   15.1760(13)
_cell_angle_alpha                90
_cell_angle_beta                 90
_cell_angle_gamma                90
_cell_volume                     2105.71
_exptl_crystal_colour            colorless
_exptl_crystal_description       plate
_cell_formula_units_Z            4
loop_
_atom_site_label
_atom_site_type_symbol
_atom_site_fract_x
_atom_site_fract_y
_atom_site_fract_z
Br1 Br 0.41343(5) 0.2500 0.44596(6)
C1 C 0.3989(3) 0.2500 0.9728(4)
N1 N 0.4911(4) 0.2500 1.1017(6)
C2 C 0.3543(2) 0.0835(5) 0.9797(2)
H1 H 0.3771 -0.0273 0.9745
C3 C 0.2844(2) 0.0842(5) 0.9929(2)
H2 H 0.2615 -0.0269 0.9952
C4 C 0.2389(3) 0.2500 1.0044(4)
C5 C 0.4508(4) 0.2500 1.0480(6)
C6 C 0.4442(3) 0.2500 0.8878(5)
H3 H 0.4748 0.3555 0.8880
C7 C 0.4006(3) 0.2500 0.8039(4)
H4 H 0.3701 0.3557 0.8030
C8 C 0.4472(3) 0.2500 0.7228(5)
H5 H 0.4778 0.3554 0.7248
C9 C 0.4078(3) 0.2500 0.6358(5)
H6 H 0.3774 0.3557 0.6324
C10 C 0.4583(4) 0.2500 0.5602(5)
H7 H 0.4887 0.1445 0.5647
C11 C 0.2065(4) 0.2500 1.1003(4)
C12 C 0.1338(4) 0.2500 1.1171(5)
H8 H 0.1021 0.2500 1.0698
C13 C 0.1067(6) 0.2500 1.2011(7)
H9 H 0.0576 0.2500 1.2105
C14 C 0.1514(7) 0.2500 1.2683(8)
H10 H 0.1326 0.2500 1.3251
C15 C 0.2267(7) 0.2500 1.2581(5)
H11 H 0.2569 0.2500 1.3067
C16 C 0.2549(5) 0.2500 1.1694(5)
H12 H 0.3040 0.2500 1.1591
C17 C 0.1786(3) 0.2500 0.9349(4)
H13 H 0.1489 0.1445 0.9441
C18 C 0.2047(3) 0.2500 0.8401(4)
H14 H 0.2344 0.1445 0.8308
C19 C 0.1453(4) 0.2500 0.7728(5)
H15 H 0.1157 0.1446 0.7826
C20 C 0.1687(5) 0.2500 0.6809(5)
H16 H 0.1276 0.2500 0.6430
H17 H 0.1969 0.1444 0.6697
H3F H 0.4748 0.1445 0.8880
H4F H 0.3701 0.1443 0.8030
H7F H 0.4887 0.3555 0.5647
H13F H 0.1489 0.3555 0.9441
H17F H 0.1969 0.3556 0.6697
C2F C 0.3543(2) 0.4165(5) 0.9797(2)
H1F H 0.3771 0.5273 0.9745
C3F C 0.2844(2) 0.4158(5) 0.9929(2)
H2F H 0.2615 0.5269 0.9952
H5F H 0.4778 0.1446 0.7248
H6F H 0.3774 0.1443 0.6324
H14F H 0.2344 0.3555 0.8308
H15F H 0.1157 0.3554 0.7826
H18? H 0.4748 0.3555 0.8880
H19? H 0.3701 0.3557 0.8030
H20? H 0.4778 0.3554 0.7248
H21? H 0.3774 0.3557 0.6324
H22? H 0.4887 0.1445 0.5647
H23? H 0.1489 0.1445 0.9441
H24? H 0.2344 0.1445 0.8308
H25? H 0.1157 0.1446 0.7826
H26? H 0.1969 0.1444 0.6697
loop_
_geom_bond_atom_site_label_1
_geom_bond_atom_site_label_2
_geom_bond_site_symmetry_1
_geom_bond_site_symmetry_2
Br1 C10 1_555 1_555
C1 C2 1_555 1_555
N1 C5 1_555 1_555
C2 H1 1_555 1_555
C3 C2 1_555 1_555
H2 C3 1_555 1_555
C4 C3 1_555 1_555
C5 C1 1_555 1_555
C6 C1 1_555 1_555
H3 C6 1_555 1_555
C7 C6 1_555 1_555
H4 C7 1_555 1_555
C8 C7 1_555 1_555
H5 C8 1_555 1_555
C9 C8 1_555 1_555
H6 C9 1_555 1_555
C10 C9 1_555 1_555
H7 C10 1_555 1_555
C11 C4 1_555 1_555
C12 C11 1_555 1_555
H8 C12 1_555 1_555
C13 C12 1_555 1_555
H9 C13 1_555 1_555
C14 C13 1_555 1_555
H10 C14 1_555 1_555
C15 C14 1_555 1_555
H11 C15 1_555 1_555
C16 C11 1_555 1_555
H12 C16 1_555 1_555
C17 C4 1_555 1_555
H13 C17 1_555 1_555
C18 C17 1_555 1_555
H14 C18 1_555 1_555
C19 C18 1_555 1_555
H15 C19 1_555 1_555
C20 C19 1_555 1_555
H16 C20 1_555 1_555
H17 C20 1_555 1_555
H3F C6 1_555 1_555
H4F C7 1_555 1_555
H7F C10 1_555 1_555
H13F C17 1_555 1_555
H17F C20 1_555 1_555
C2F C1 1_555 1_555
H1F C2F 1_555 1_555
C3F C4 1_555 1_555
H2F C3F 1_555 1_555
H5F C8 1_555 1_555
H6F C9 1_555 1_555
H14F C18 1_555 1_555
H15F C19 1_555 1_555
C15 C16 1_555 1_555
C2F C3F 1_555 1_555

#END
