
#######################################################################
#
#                 Cambridge Crystallographic Data Centre
#                                CCDC 
#
#######################################################################
#
# If this CIF has been generated from an entry in the Cambridge 
# Structural Database, then it will include bibliographic, chemical, 
# crystal, experimental, refinement or atomic coordinate data resulting 
# from the CCDC's data processing and validation procedures.
#
#######################################################################

data_DEVHEU
_chemical_name_common            
1-butyl-4-(5-cyanopentyl)-1,4-dihydrobiphenyl-4-carbonitrile
_chemical_formula_moiety         'C23 H28 N2'
_chemical_name_systematic        
4-Butyl-1-(5-cyanopentyl)-4-phenylcyclohexa-2,5-dienecarbonitrile
_symmetry_cell_setting           orthorhombic
_symmetry_space_group_name_H-M   'P 21 21 21'
_symmetry_Int_Tables_number      19
_space_group_name_Hall           'P 2ac 2ab'
loop_
_symmetry_equiv_pos_site_id
_symmetry_equiv_pos_as_xyz
1 x,y,z
2 1/2-x,-y,1/2+z
3 -x,1/2+y,1/2-z
4 1/2+x,1/2-y,-z
_cell_length_a                   8.3298(7)
_cell_length_b                   9.4558(6)
_cell_length_c                   26.372(2)
_cell_angle_alpha                90
_cell_angle_beta                 90
_cell_angle_gamma                90
_cell_volume                     2077.19
_exptl_crystal_colour            colorless
_exptl_crystal_description       prism
_cell_formula_units_Z            4
loop_
_atom_site_label
_atom_site_type_symbol
_atom_site_fract_x
_atom_site_fract_y
_atom_site_fract_z
N1 N 0.4022(7) 0.6195(6) 0.21543(19)
C1 C 0.5507(4) 0.4206(3) 0.16479(11)
N2 N 0.4686(7) -0.3169(4) -0.00317(16)
C2 C 0.5825(4) 0.4843(3) 0.11306(11)
H1 H 0.4954 0.5002 0.0917
C3 C 0.7252(4) 0.5180(3) 0.09673(11)
H2 H 0.7315 0.5613 0.0651
C4 C 0.8810(4) 0.4933(3) 0.12449(11)
C5 C 0.8470(5) 0.4148(4) 0.17290(12)
H3 H 0.9354 0.3845 0.1915
C6 C 0.7062(5) 0.3851(4) 0.19121(12)
H4 H 0.7010 0.3395 0.2224
C7 C 0.4668(6) 0.5316(5) 0.19446(16)
C8 C 0.4378(4) 0.2891(4) 0.16128(13)
H5 H 0.4196 0.2524 0.1951
H6 H 0.3349 0.3187 0.1477
C9 C 0.5040(4) 0.1731(4) 0.12862(14)
H7 H 0.5121 0.2074 0.0940
H8 H 0.6116 0.1506 0.1401
C10 C 0.4057(5) 0.0405(4) 0.12879(19)
H9 H 0.2922 0.0620 0.1257
H10 H 0.4230 -0.0128 0.1597
C11 C 0.4673(8) -0.0452(7) 0.0809(3)
H11 H 0.4643 0.0147 0.0510
H12 H 0.5774 -0.0753 0.0862
C12 C 0.3593(8) -0.1746(8) 0.0729(3)
H13 H 0.3620 -0.2331 0.1031
H14 H 0.2495 -0.1434 0.0679
C13 C 0.4098(14) -0.2586(10) 0.0294(4)
C14 C 0.9895(4) 0.4032(3) 0.08957(11)
C15 C 0.9634(4) 0.2612(4) 0.08520(16)
H15 H 0.8842 0.2186 0.1048
C16 C 1.0532(5) 0.1790(5) 0.0518(2)
H16 H 1.0340 0.0824 0.0493
C17 C 1.1702(5) 0.2408(6) 0.02267(15)
H17 H 1.2303 0.1868 0.0001
C18 C 1.1968(6) 0.3805(6) 0.02717(15)
H18 H 1.2767 0.4225 0.0077
C19 C 1.1085(5) 0.4627(4) 0.05989(14)
H19 H 1.1290 0.5592 0.0621
C20 C 0.9617(5) 0.6372(4) 0.13680(15)
H20 H 1.0663 0.6193 0.1516
H21 H 0.9783 0.6884 0.1054
C21 C 0.8665(6) 0.7298(4) 0.17265(18)
H22 H 0.8601 0.6855 0.2057
H23 H 0.7582 0.7423 0.1599
C22 C 0.9557(15) 0.8835(9) 0.1774(4)
H24 H 1.0640 0.8697 0.1900
H25 H 0.9632 0.9261 0.1440
C23 C 0.8727(12) 0.9762(8) 0.2102(3)
H26 H 0.9355 1.0601 0.2154
H27 H 0.8547 0.9303 0.2421
H28 H 0.7714 1.0013 0.1953
H29? H 0.3772 0.0245 0.1640
H30? H 0.3065 0.0647 0.1116
C24? C 0.4522(15) -0.1002(14) 0.1087(5)
H31? H 0.3967 -0.1755 0.1265
H32? H 0.5671 -0.1151 0.1114
C25? C 0.4011(17) -0.0926(16) 0.0547(5)
H33? H 0.2848 -0.0873 0.0534
H34? H 0.4430 -0.0062 0.0400
C26? C 0.455(3) -0.2148(14) 0.0232(6)
H35? H 0.7821 0.7730 0.1526
H36? H 0.8138 0.6665 0.1963
C27? C 0.936(3) 0.8416(19) 0.2026(8)
H37? H 1.0313 0.8083 0.2201
H38? H 0.8597 0.8756 0.2275
C28? C 0.977(5) 0.954(3) 0.1668(14)
H39? H 1.0811 0.9918 0.1751
H40? H 0.8985 1.0280 0.1687
H41? H 0.9795 0.9163 0.1330
loop_
_geom_bond_atom_site_label_1
_geom_bond_atom_site_label_2
_geom_bond_site_symmetry_1
_geom_bond_site_symmetry_2
N1 C7 1_555 1_555
C1 C2 1_555 1_555
N2 C13 1_555 1_555
C2 H1 1_555 1_555
C3 C2 1_555 1_555
H2 C3 1_555 1_555
C4 C3 1_555 1_555
C5 C4 1_555 1_555
H3 C5 1_555 1_555
C6 C1 1_555 1_555
H4 C6 1_555 1_555
C7 C1 1_555 1_555
C8 C1 1_555 1_555
H5 C8 1_555 1_555
H6 C8 1_555 1_555
C9 C8 1_555 1_555
H7 C9 1_555 1_555
H8 C9 1_555 1_555
C10 C9 1_555 1_555
H9 C10 1_555 1_555
H10 C10 1_555 1_555
C11 C10 1_555 1_555
H11 C11 1_555 1_555
H12 C11 1_555 1_555
C12 C11 1_555 1_555
H13 C12 1_555 1_555
H14 C12 1_555 1_555
C13 C12 1_555 1_555
C14 C4 1_555 1_555
C15 C14 1_555 1_555
H15 C15 1_555 1_555
C16 C15 1_555 1_555
H16 C16 1_555 1_555
C17 C16 1_555 1_555
H17 C17 1_555 1_555
C18 C17 1_555 1_555
H18 C18 1_555 1_555
C19 C14 1_555 1_555
H19 C19 1_555 1_555
C20 C4 1_555 1_555
H20 C20 1_555 1_555
H21 C20 1_555 1_555
C21 C20 1_555 1_555
H22 C21 1_555 1_555
H23 C21 1_555 1_555
C22 C21 1_555 1_555
H24 C22 1_555 1_555
H25 C22 1_555 1_555
C23 C22 1_555 1_555
H26 C23 1_555 1_555
H27 C23 1_555 1_555
H28 C23 1_555 1_555
C5 C6 1_555 1_555
C18 C19 1_555 1_555

#END
