
#######################################################################
#
#                 Cambridge Crystallographic Data Centre
#                                CCDC 
#
#######################################################################
#
# If this CIF has been generated from an entry in the Cambridge 
# Structural Database, then it will include bibliographic, chemical, 
# crystal, experimental, refinement or atomic coordinate data resulting 
# from the CCDC's data processing and validation procedures.
#
#######################################################################

data_DEVJIA
_chemical_formula_moiety         'C23 H23 N1 O6 S1'
_chemical_name_systematic        
'dimethyl 4-ethenyl-2-[(4-methylphenyl)sulfonyl]-1,4-dihydro-1,4-methanoisoquinoline-3,3(2H)-dicarboxylate'
_symmetry_cell_setting           monoclinic
_symmetry_space_group_name_H-M   'P 21/c'
_symmetry_Int_Tables_number      14
_space_group_name_Hall           '-P 2ybc'
loop_
_symmetry_equiv_pos_site_id
_symmetry_equiv_pos_as_xyz
1 x,y,z
2 -x,1/2+y,1/2-z
3 -x,-y,-z
4 x,1/2-y,1/2+z
_cell_length_a                   17.659(8)
_cell_length_b                   7.360(3)
_cell_length_c                   16.660(9)
_cell_angle_alpha                90
_cell_angle_beta                 103.887(15)
_cell_angle_gamma                90
_cell_volume                     2102.01
_exptl_crystal_colour            colorless
_exptl_crystal_description       Prism
_cell_formula_units_Z            4
loop_
_atom_site_label
_atom_site_type_symbol
_atom_site_fract_x
_atom_site_fract_y
_atom_site_fract_z
S1 S 0.15275(2) 0.20674(5) 0.20852(2)
O1 O 0.10605(6) 0.11237(17) 0.13831(7)
O2 O 0.18953(6) 0.37448(15) 0.19441(7)
O3 O 0.28216(7) 0.03778(16) 0.12219(7)
O4 O 0.37579(7) 0.24103(18) 0.17534(8)
O5 O 0.30676(6) 0.34870(16) 0.36152(7)
O6 O 0.42035(6) 0.23070(15) 0.34931(7)
N1 N 0.22192(7) 0.07729(17) 0.26046(8)
C1 C 0.09409(9) 0.2319(2) 0.28010(10)
C2 C 0.12328(9) 0.3207(2) 0.35501(10)
H1 H 0.1726 0.3792 0.3656
C3 C 0.07943(9) 0.3228(2) 0.41410(11)
H2 H 0.0993 0.3829 0.4653
C4 C 0.00678(10) 0.2381(2) 0.39923(11)
C5 C -0.02168(9) 0.1528(2) 0.32318(11)
H3 H -0.0716 0.0966 0.3120
C6 C 0.02121(9) 0.1480(2) 0.26337(11)
H4 H 0.0012 0.0887 0.2120
C7 C -0.04064(11) 0.2367(3) 0.46353(12)
H5 H -0.0834 0.3246 0.4482
H6 H -0.0072 0.2697 0.5174
H7 H -0.0622 0.1149 0.4667
C8 C 0.20514(9) -0.1082(2) 0.29000(10)
H8 H 0.1495 -0.1490 0.2734
C9 C 0.24209(9) -0.1050(2) 0.38220(10)
C10 C 0.21216(11) -0.0886(2) 0.45118(12)
H9 H 0.1575 -0.0883 0.4464
C11 C 0.26491(13) -0.0725(3) 0.52842(12)
H10 H 0.2457 -0.0624 0.5769
C12 C 0.34460(12) -0.0711(2) 0.53515(11)
H11 H 0.3793 -0.0604 0.5882
C13 C 0.37488(10) -0.0852(2) 0.46536(11)
H12 H 0.4295 -0.0828 0.4700
C14 C 0.32256(9) -0.1027(2) 0.38901(10)
C15 C 0.33464(9) -0.1056(2) 0.30102(9)
C16 C 0.26350(9) -0.2223(2) 0.25786(10)
H13 H 0.2539 -0.2203 0.1968
H14 H 0.2668 -0.3491 0.2782
C17 C 0.41376(9) -0.1595(2) 0.29116(10)
H15 H 0.4564 -0.0807 0.3127
C18 C 0.42754(11) -0.3103(3) 0.25420(11)
H16 H 0.3860 -0.3916 0.2320
H17 H 0.4790 -0.3374 0.2498
C19 C 0.30566(8) 0.0958(2) 0.26624(9)
C20 C 0.32592(9) 0.1361(2) 0.18323(10)
C21 C 0.29641(11) 0.0649(3) 0.04084(10)
H18 H 0.2855 0.1916 0.0239
H19 H 0.2623 -0.0154 0.0010
H20 H 0.3510 0.0368 0.0426
C22 C 0.34240(9) 0.2420(2) 0.33042(10)
C23 C 0.46028(10) 0.3576(2) 0.41186(11)
H21 H 0.4399 0.4803 0.3977
H22 H 0.5163 0.3556 0.4144
H23 H 0.4516 0.3227 0.4657
loop_
_geom_bond_atom_site_label_1
_geom_bond_atom_site_label_2
_geom_bond_site_symmetry_1
_geom_bond_site_symmetry_2
S1 O1 1_555 1_555
O2 S1 1_555 1_555
O3 C20 1_555 1_555
O4 C20 1_555 1_555
O5 C22 1_555 1_555
O6 C22 1_555 1_555
N1 S1 1_555 1_555
C1 S1 1_555 1_555
C2 C1 1_555 1_555
H1 C2 1_555 1_555
C3 C2 1_555 1_555
H2 C3 1_555 1_555
C4 C3 1_555 1_555
C5 C4 1_555 1_555
H3 C5 1_555 1_555
C6 C1 1_555 1_555
H4 C6 1_555 1_555
C7 C4 1_555 1_555
H5 C7 1_555 1_555
H6 C7 1_555 1_555
H7 C7 1_555 1_555
C8 N1 1_555 1_555
H8 C8 1_555 1_555
C9 C8 1_555 1_555
C10 C9 1_555 1_555
H9 C10 1_555 1_555
C11 C10 1_555 1_555
H10 C11 1_555 1_555
C12 C11 1_555 1_555
H11 C12 1_555 1_555
C13 C12 1_555 1_555
H12 C13 1_555 1_555
C14 C9 1_555 1_555
C15 C14 1_555 1_555
C16 C8 1_555 1_555
H13 C16 1_555 1_555
H14 C16 1_555 1_555
C17 C15 1_555 1_555
H15 C17 1_555 1_555
C18 C17 1_555 1_555
H16 C18 1_555 1_555
H17 C18 1_555 1_555
C19 N1 1_555 1_555
C20 C19 1_555 1_555
C21 O3 1_555 1_555
H18 C21 1_555 1_555
H19 C21 1_555 1_555
H20 C21 1_555 1_555
C22 C19 1_555 1_555
C23 O6 1_555 1_555
H21 C23 1_555 1_555
H22 C23 1_555 1_555
H23 C23 1_555 1_555
C5 C6 1_555 1_555
C13 C14 1_555 1_555
C15 C16 1_555 1_555
C15 C19 1_555 1_555

#END
