
#######################################################################
#
#                 Cambridge Crystallographic Data Centre
#                                CCDC 
#
#######################################################################
#
# If this CIF has been generated from an entry in the Cambridge 
# Structural Database, then it will include bibliographic, chemical, 
# crystal, experimental, refinement or atomic coordinate data resulting 
# from the CCDC's data processing and validation procedures.
#
#######################################################################

data_DEVJEW
_chemical_formula_moiety         'C21 H27 N1 O6 S1'
_chemical_name_systematic        
'dimethyl 1-ethenyl-7-[(4-methylphenyl)sulfonyl]-7-azabicyclo[4.2.1]nonane-8,8-dicarboxylate'
_symmetry_cell_setting           triclinic
_symmetry_space_group_name_H-M   'P -1'
_symmetry_Int_Tables_number      2
_space_group_name_Hall           '-P 1'
loop_
_symmetry_equiv_pos_site_id
_symmetry_equiv_pos_as_xyz
1 x,y,z
2 -x,-y,-z
_cell_length_a                   7.5272(13)
_cell_length_b                   9.7453(15)
_cell_length_c                   14.349(3)
_cell_angle_alpha                91.372(4)
_cell_angle_beta                 103.130(3)
_cell_angle_gamma                95.709(4)
_cell_volume                     1018.79
_exptl_crystal_colour            colorless
_exptl_crystal_description       Prism
_cell_formula_units_Z            2
loop_
_atom_site_label
_atom_site_type_symbol
_atom_site_fract_x
_atom_site_fract_y
_atom_site_fract_z
S1 S 0.19939(4) 0.68468(3) 0.864682(19)
O1 O 0.04991(12) 0.76707(9) 0.83540(6)
O2 O 0.32893(12) 0.72090(9) 0.95404(6)
O3 O 0.09044(12) 0.83942(9) 0.55424(6)
O4 O -0.02375(12) 0.66562(9) 0.63013(6)
O5 O 0.16534(13) 1.01450(9) 0.71674(6)
O6 O 0.40769(11) 0.96049(9) 0.82723(6)
N1 N 0.30282(13) 0.68305(10) 0.77490(7)
C1 C 0.67673(19) 0.98408(15) 0.63716(10)
H1 H 0.7754 0.9413 0.6744
H2 H 0.6999 1.0708 0.6109
C2 C 0.50683(17) 0.92272(13) 0.62176(9)
H3 H 0.4120 0.9688 0.5841
C3 C 0.45191(15) 0.78513(12) 0.65938(8)
C4 C 0.41735(17) 0.67670(12) 0.57410(9)
H4 H 0.3263 0.7099 0.5206
H5 H 0.5333 0.6758 0.5527
C5 C 0.35024(17) 0.52720(13) 0.58946(9)
H6 H 0.2356 0.5265 0.6124
H7 H 0.3204 0.4745 0.5270
C6 C 0.48806(18) 0.45352(13) 0.66087(10)
H8 H 0.4593 0.3527 0.6472
H9 H 0.6123 0.4797 0.6505
C7 C 0.49090(18) 0.48532(13) 0.76620(9)
H10 H 0.6010 0.4504 0.8061
H11 H 0.3821 0.4329 0.7812
C8 C 0.49190(15) 0.63788(12) 0.79598(8)
H12 H 0.5454 0.6511 0.8665
C9 C 0.59617(16) 0.74211(13) 0.74458(9)
H13 H 0.6938 0.6995 0.7220
H14 H 0.6529 0.8231 0.7879
C10 C 0.27683(15) 0.78955(11) 0.70354(8)
C11 C 0.09545(15) 0.75577(11) 0.62706(8)
C12 C -0.06893(18) 0.81236(13) 0.47525(9)
H15 H -0.0725 0.7191 0.4474
H16 H -0.0617 0.8798 0.4263
H17 H -0.1804 0.8199 0.4986
C13 C 0.27313(16) 0.93521(12) 0.74846(8)
C14 C 0.4113(2) 1.09229(14) 0.87716(11)
H18 H 0.4342 1.1673 0.8357
H19 H 0.5092 1.1001 0.9358
H20 H 0.2930 1.0986 0.8938
C15 C 0.11541(15) 0.51040(11) 0.87042(8)
C16 C -0.01082(17) 0.44396(13) 0.79254(9)
H21 H -0.0485 0.4905 0.7351
C17 C -0.08091(18) 0.30864(13) 0.79993(9)
H22 H -0.1665 0.2625 0.7467
C18 C -0.02835(16) 0.23867(12) 0.88390(9)
C19 C 0.09966(18) 0.30751(13) 0.96041(9)
H23 H 0.1380 0.2610 1.0178
C20 C 0.17232(17) 0.44287(13) 0.95439(9)
H24 H 0.2598 0.4886 1.0070
C21 C -0.10723(18) 0.09252(13) 0.89111(10)
H25 H -0.0224 0.0289 0.8774
H26 H -0.2253 0.0738 0.8447
H27 H -0.1254 0.0796 0.9560
loop_
_geom_bond_atom_site_label_1
_geom_bond_atom_site_label_2
_geom_bond_site_symmetry_1
_geom_bond_site_symmetry_2
S1 O1 1_555 1_555
O2 S1 1_555 1_555
O3 C11 1_555 1_555
O4 C11 1_555 1_555
O5 C13 1_555 1_555
O6 C13 1_555 1_555
N1 S1 1_555 1_555
C1 H1 1_555 1_555
H2 C1 1_555 1_555
C2 C1 1_555 1_555
H3 C2 1_555 1_555
C3 C2 1_555 1_555
C4 C3 1_555 1_555
H4 C4 1_555 1_555
H5 C4 1_555 1_555
C5 C4 1_555 1_555
H6 C5 1_555 1_555
H7 C5 1_555 1_555
C6 C5 1_555 1_555
H8 C6 1_555 1_555
H9 C6 1_555 1_555
C7 C6 1_555 1_555
H10 C7 1_555 1_555
H11 C7 1_555 1_555
C8 N1 1_555 1_555
H12 C8 1_555 1_555
C9 C3 1_555 1_555
H13 C9 1_555 1_555
H14 C9 1_555 1_555
C10 N1 1_555 1_555
C11 C10 1_555 1_555
C12 O3 1_555 1_555
H15 C12 1_555 1_555
H16 C12 1_555 1_555
H17 C12 1_555 1_555
C13 C10 1_555 1_555
C14 O6 1_555 1_555
H18 C14 1_555 1_555
H19 C14 1_555 1_555
H20 C14 1_555 1_555
C15 S1 1_555 1_555
C16 C15 1_555 1_555
H21 C16 1_555 1_555
C17 C16 1_555 1_555
H22 C17 1_555 1_555
C18 C17 1_555 1_555
C19 C18 1_555 1_555
H23 C19 1_555 1_555
C20 C15 1_555 1_555
H24 C20 1_555 1_555
C21 C18 1_555 1_555
H25 C21 1_555 1_555
H26 C21 1_555 1_555
H27 C21 1_555 1_555
C3 C10 1_555 1_555
C7 C8 1_555 1_555
C8 C9 1_555 1_555
C19 C20 1_555 1_555

#END
