
#######################################################################
#
#                 Cambridge Crystallographic Data Centre
#                                CCDC 
#
#######################################################################
#
# If this CIF has been generated from an entry in the Cambridge 
# Structural Database, then it will include bibliographic, chemical, 
# crystal, experimental, refinement or atomic coordinate data resulting 
# from the CCDC's data processing and validation procedures.
#
#######################################################################

data_DEVNAU
_chemical_name_common            
'tetra-aqua-bis(norfloxacin)-barium(ii) 1,4-benzenedicarboxylate monohydrate'
_chemical_formula_moiety         'C32 H42 Ba1 F2 N6 O10 2+,C8 H4 O4 2-,H2 O1'
_chemical_name_systematic        
"tetra-aqua-(1-ethyl-6-fluoro-4-oxo-7-piperazin-1-yl-1,4-dihydroquinoline-3-carboxylato-O,O')-barium(ii) 1,4-benzenedicarboxylate monohydrate"
_symmetry_cell_setting           triclinic
_symmetry_space_group_name_H-M   'P -1'
_symmetry_Int_Tables_number      2
_space_group_name_Hall           '-P 1'
loop_
_symmetry_equiv_pos_site_id
_symmetry_equiv_pos_as_xyz
1 x,y,z
2 -x,-y,-z
_cell_length_a                   12.3050(12)
_cell_length_b                   12.4716(12)
_cell_length_c                   16.591(2)
_cell_angle_alpha                101.920(2)
_cell_angle_beta                 104.630(2)
_cell_angle_gamma                111.7030(10)
_cell_volume                     2157.76
_exptl_crystal_colour            colorless
_exptl_crystal_description       block
_cell_formula_units_Z            2
loop_
_atom_site_label
_atom_site_type_symbol
_atom_site_fract_x
_atom_site_fract_y
_atom_site_fract_z
Ba1 Ba 0.16713(3) 0.31701(3) 0.243671(19)
F1 F 0.6189(3) 0.7450(3) 0.1141(3)
F2 F -0.2665(3) -0.1639(4) 0.3462(3)
O1 O 0.1814(4) 0.1343(4) 0.1353(3)
O2 O -0.0881(4) 0.1565(5) 0.1400(3)
H1 H -0.1349 0.1062 0.0910
H2 H -0.1300 0.1580 0.1712
O3 O 0.2163(4) 0.0100(4) 0.0422(3)
O4 O 0.0235(4) 0.4029(5) 0.3227(3)
H3 H -0.0442 0.3422 0.3055
H4 H 0.0117 0.4560 0.3053
O5 O 0.3049(4) 0.3816(4) 0.1424(3)
O6 O 0.3340(5) 0.5609(4) 0.3417(3)
H5 H 0.3845 0.6056 0.3915
H6 H 0.3253 0.6041 0.3118
O7 O 0.0798(5) 0.4559(4) 0.1498(3)
H7 H 0.0402 0.4795 0.1760
H8 H 0.1487 0.5134 0.1633
O8 O 0.3571(4) 0.3111(4) 0.3625(3)
O9 O 0.4923(4) 0.3090(4) 0.4779(3)
O10 O 0.1044(4) 0.1768(4) 0.3439(3)
N1 N 0.5631(4) 0.2789(4) 0.0835(3)
N2 N 0.8069(4) 0.6903(4) 0.0846(3)
N3 N 1.0514(4) 0.8574(4) 0.1010(3)
H9 H 1.1321 0.8924 0.1230
N4 N 0.2428(4) -0.0183(4) 0.4743(3)
N5 N -0.1841(4) -0.3163(4) 0.4156(3)
N6 N -0.3466(4) -0.5520(4) 0.4126(3)
H10 H -0.3796 -0.6303 0.3989
C1 C 0.2440(5) 0.1139(5) 0.0915(4)
C2 C 0.3599(5) 0.2207(5) 0.0967(3)
C3 C 0.3771(4) 0.3451(5) 0.1198(3)
C4 C 0.4907(5) 0.4315(5) 0.1119(3)
C5 C 0.5080(5) 0.5522(5) 0.1216(3)
H11 H 0.4499 0.5767 0.1346
C6 C 0.6102(5) 0.6328(5) 0.1118(4)
C7 C 0.7053(5) 0.6030(5) 0.0963(3)
C8 C 0.6902(5) 0.4859(5) 0.0888(4)
H12 H 0.7520 0.4641 0.0801
C9 C 0.5812(5) 0.3978(5) 0.0943(3)
C10 C 0.4530(5) 0.1951(5) 0.0814(4)
H13 H 0.4400 0.1142 0.0685
C11 C 0.8829(5) 0.8048(5) 0.1598(4)
H14 H 0.9311 0.7895 0.2083
H15 H 0.8281 0.8339 0.1797
C12 C 0.9707(6) 0.9013(5) 0.1347(4)
H16 H 0.9225 0.9218 0.0897
H17 H 1.0223 0.9748 0.1860
C13 C 0.9738(5) 0.7440(5) 0.0235(4)
H18 H 1.0277 0.7149 0.0022
H19 H 0.9254 0.7612 -0.0237
C14 C 0.8851(5) 0.6455(5) 0.0489(4)
H20 H 0.8322 0.5727 -0.0027
H21 H 0.9335 0.6237 0.0928
C15 C 0.6604(6) 0.2388(6) 0.0721(5)
H22 H 0.7428 0.3043 0.1096
H23 H 0.6493 0.1687 0.0917
C16 C 0.6560(9) 0.2059(9) -0.0188(6)
H24 H 0.5702 0.1620 -0.0585
H25 H 0.6980 0.1553 -0.0261
H26 H 0.6970 0.2790 -0.0315
C17 C 0.3836(5) 0.2682(5) 0.4211(4)
C18 C 0.2820(5) 0.1565(5) 0.4249(4)
C19 C 0.1500(5) 0.1206(5) 0.3841(3)
C20 C 0.0679(5) 0.0085(5) 0.3952(3)
C21 C -0.0635(5) -0.0291(5) 0.3642(3)
H27 H -0.0960 0.0174 0.3387
C22 C -0.1418(5) -0.1345(5) 0.3721(4)
C23 C -0.0994(5) -0.2113(5) 0.4084(3)
C24 C 0.0303(5) -0.1713(5) 0.4407(3)
H28 H 0.0624 -0.2187 0.4654
C25 C 0.1136(5) -0.0606(5) 0.4367(3)
C26 C 0.3196(5) 0.0873(5) 0.4679(4)
H29 H 0.4055 0.1151 0.4952
C27 C -0.2915(6) -0.4041(6) 0.3348(4)
H30 H -0.2651 -0.4541 0.2990
H31 H -0.3221 -0.3602 0.3005
C28 C -0.3948(6) -0.4848(6) 0.3590(4)
H32 H -0.4235 -0.4352 0.3929
H33 H -0.4652 -0.5429 0.3057
C29 C -0.2343(5) -0.4653(6) 0.4926(4)
H34 H -0.2018 -0.5112 0.5236
H35 H -0.2584 -0.4172 0.5319
C30 C -0.1323(5) -0.3800(5) 0.4684(4)
H36 H -0.0629 -0.3205 0.5217
H37 H -0.1011 -0.4267 0.4346
C31 C 0.2991(6) -0.0836(6) 0.5222(4)
H38 H 0.2497 -0.1164 0.5563
H39 H 0.3830 -0.0259 0.5634
C32 C 0.3062(8) -0.1868(7) 0.4613(6)
H40 H 0.2232 -0.2457 0.4216
H41 H 0.3442 -0.2256 0.4955
H42 H 0.3558 -0.1549 0.4278
O11 O -0.0009(5) 0.6049(5) 0.2656(4)
H43 H 0.0457 0.6709 0.2643
H44 H -0.0740 0.5932 0.2459
O12 O -0.1936(5) 0.1931(5) 0.2702(4)
O13 O -0.2799(5) 0.3140(5) 0.3023(4)
O14 O -0.7158(5) -0.3193(5) 0.2232(4)
O15 O -0.8276(4) -0.2131(5) 0.2297(3)
C33 C -0.2813(6) 0.2115(6) 0.2816(4)
C34 C -0.4010(6) 0.0991(6) 0.2662(4)
C35 C -0.4005(6) -0.0146(6) 0.2484(4)
H45 H -0.3303 -0.0223 0.2424
C36 C -0.5067(6) -0.1173(6) 0.2393(5)
H46 H -0.5059 -0.1932 0.2294
C37 C -0.6137(5) -0.1070(5) 0.2451(4)
C38 C -0.6124(6) 0.0066(6) 0.2611(4)
H47 H -0.6839 0.0141 0.2637
C39 C -0.5057(6) 0.1099(6) 0.2733(4)
H48 H -0.5052 0.1863 0.2863
C40 C -0.7279(6) -0.2225(6) 0.2318(4)
loop_
_geom_bond_atom_site_label_1
_geom_bond_atom_site_label_2
_geom_bond_site_symmetry_1
_geom_bond_site_symmetry_2
Ba1 O1 1_555 1_555
F1 C6 1_555 1_555
F2 C22 1_555 1_555
O1 C1 1_555 1_555
O2 Ba1 1_555 1_555
H1 O2 1_555 1_555
H2 O2 1_555 1_555
O3 C1 1_555 1_555
O4 Ba1 1_555 1_555
H3 O4 1_555 1_555
H4 O4 1_555 1_555
O5 Ba1 1_555 1_555
O6 Ba1 1_555 1_555
H5 O6 1_555 1_555
H6 O6 1_555 1_555
O7 Ba1 1_555 1_555
H7 O7 1_555 1_555
H8 O7 1_555 1_555
O8 Ba1 1_555 1_555
O9 C17 1_555 1_555
O10 Ba1 1_555 1_555
N1 C9 1_555 1_555
N2 C7 1_555 1_555
N3 H9 1_555 1_555
N4 C25 1_555 1_555
N5 C23 1_555 1_555
N6 H10 1_555 1_555
C1 C2 1_555 1_555
C2 C3 1_555 1_555
C3 O5 1_555 1_555
C4 C3 1_555 1_555
C5 C4 1_555 1_555
H11 C5 1_555 1_555
C6 C5 1_555 1_555
C7 C6 1_555 1_555
C8 C7 1_555 1_555
H12 C8 1_555 1_555
C9 C4 1_555 1_555
C10 N1 1_555 1_555
H13 C10 1_555 1_555
C11 N2 1_555 1_555
H14 C11 1_555 1_555
H15 C11 1_555 1_555
C12 N3 1_555 1_555
H16 C12 1_555 1_555
H17 C12 1_555 1_555
C13 N3 1_555 1_555
H18 C13 1_555 1_555
H19 C13 1_555 1_555
C14 N2 1_555 1_555
H20 C14 1_555 1_555
H21 C14 1_555 1_555
C15 N1 1_555 1_555
H22 C15 1_555 1_555
H23 C15 1_555 1_555
C16 C15 1_555 1_555
H24 C16 1_555 1_555
H25 C16 1_555 1_555
H26 C16 1_555 1_555
C17 O8 1_555 1_555
C18 C17 1_555 1_555
C19 O10 1_555 1_555
C20 C19 1_555 1_555
C21 C20 1_555 1_555
H27 C21 1_555 1_555
C22 C21 1_555 1_555
C23 C22 1_555 1_555
C24 C23 1_555 1_555
H28 C24 1_555 1_555
C25 C20 1_555 1_555
C26 N4 1_555 1_555
H29 C26 1_555 1_555
C27 N5 1_555 1_555
H30 C27 1_555 1_555
H31 C27 1_555 1_555
C28 N6 1_555 1_555
H32 C28 1_555 1_555
H33 C28 1_555 1_555
C29 N6 1_555 1_555
H34 C29 1_555 1_555
H35 C29 1_555 1_555
C30 N5 1_555 1_555
H36 C30 1_555 1_555
H37 C30 1_555 1_555
C31 N4 1_555 1_555
H38 C31 1_555 1_555
H39 C31 1_555 1_555
C32 C31 1_555 1_555
H40 C32 1_555 1_555
H41 C32 1_555 1_555
H42 C32 1_555 1_555
O11 H43 1_555 1_555
H44 O11 1_555 1_555
O12 C33 1_555 1_555
O13 C33 1_555 1_555
O14 C40 1_555 1_555
O15 C40 1_555 1_555
C33 C34 1_555 1_555
C34 C35 1_555 1_555
C35 H45 1_555 1_555
C36 C35 1_555 1_555
H46 C36 1_555 1_555
C37 C36 1_555 1_555
C38 C37 1_555 1_555
H47 C38 1_555 1_555
C39 C34 1_555 1_555
H48 C39 1_555 1_555
C40 C37 1_555 1_555
C2 C10 1_555 1_555
C8 C9 1_555 1_555
C11 C12 1_555 1_555
C13 C14 1_555 1_555
C18 C19 1_555 1_555
C18 C26 1_555 1_555
C24 C25 1_555 1_555
C27 C28 1_555 1_555
C29 C30 1_555 1_555
C38 C39 1_555 1_555

#END
