
#######################################################################
#
#                 Cambridge Crystallographic Data Centre
#                                CCDC 
#
#######################################################################
#
# If this CIF has been generated from an entry in the Cambridge 
# Structural Database, then it will include bibliographic, chemical, 
# crystal, experimental, refinement or atomic coordinate data resulting 
# from the CCDC's data processing and validation procedures.
#
#######################################################################

data_DEVQAZ
_chemical_formula_moiety         'C20 H13 N3 O2,C1 H1 Cl3'
_chemical_name_systematic        
'9-methoxy-1-phenyl-6H-2,3,10c-triazaaceanthrylen-6-one chloroform solvate'
_symmetry_cell_setting           monoclinic
_symmetry_space_group_name_H-M   'P 21/n'
_symmetry_Int_Tables_number      14
_space_group_name_Hall           '-P 2yn'
loop_
_symmetry_equiv_pos_site_id
_symmetry_equiv_pos_as_xyz
1 x,y,z
2 1/2-x,1/2+y,1/2-z
3 -x,-y,-z
4 1/2+x,1/2-y,1/2+z
_cell_length_a                   15.9296(8)
_cell_length_b                   7.2499(4)
_cell_length_c                   18.0896(7)
_cell_angle_alpha                90
_cell_angle_beta                 112.121(5)
_cell_angle_gamma                90
_cell_volume                     1935.35
_exptl_crystal_colour            red
_exptl_crystal_description       prism
_cell_formula_units_Z            4
loop_
_atom_site_label
_atom_site_type_symbol
_atom_site_fract_x
_atom_site_fract_y
_atom_site_fract_z
C1 C 0.2481(2) 0.4347(4) 0.84735(17)
H1 H 0.3072 0.3935 0.8736
C2 C 0.1891(2) 0.4396(5) 0.88724(18)
H2 H 0.2086 0.4013 0.9401
C3 C 0.1010(2) 0.5016(5) 0.8486(2)
H3 H 0.0612 0.5040 0.8752
C4 C 0.0725(2) 0.5602(5) 0.7699(2)
H4 H 0.0134 0.6021 0.7440
C5 C 0.1313(2) 0.5566(4) 0.72980(17)
H5 H 0.1121 0.5978 0.6773
C6 C 0.21928(19) 0.4913(4) 0.76800(15)
C7 C 0.28661(19) 0.4937(4) 0.73001(16)
C8 C 0.27757(18) 0.4588(4) 0.65024(15)
C9 C 0.41926(19) 0.5429(4) 0.72849(17)
C10 C 0.5353(2) 0.5810(6) 0.6867(2)
H6 H 0.5956 0.6109 0.6979
C11 C 0.4817(2) 0.5366(5) 0.6083(2)
H7 H 0.5060 0.5380 0.5689
C12 C 0.3923(2) 0.4904(4) 0.58976(17)
C13 C 0.3265(2) 0.4352(4) 0.51167(18)
C14 C 0.2364(2) 0.3825(4) 0.50826(16)
C15 C 0.21143(19) 0.3926(4) 0.57607(15)
C16 C 0.12458(19) 0.3322(4) 0.56833(16)
H8 H 0.1079 0.3346 0.6123
C17 C 0.06419(19) 0.2695(4) 0.49597(16)
C18 C 0.0895(2) 0.2570(5) 0.42939(17)
H9 H 0.0490 0.2111 0.3811
C19 C 0.1736(2) 0.3127(5) 0.43642(17)
H10 H 0.1900 0.3044 0.3923
C20 C -0.0512(2) 0.2196(5) 0.54731(19)
H11 H -0.1123 0.1751 0.5301
H12 H -0.0486 0.3442 0.5660
H13 H -0.0124 0.1431 0.5898
N1 N 0.37317(16) 0.5426(4) 0.77666(14)
N2 N 0.36250(15) 0.4951(3) 0.65128(13)
N3 N 0.50672(17) 0.5841(4) 0.74713(16)
O1 O 0.34832(17) 0.4321(4) 0.45295(13)
O2 O -0.02159(14) 0.2144(3) 0.48208(12)
C21 C 0.3223(3) 0.8112(7) 0.3616(2)
H14 H 0.3400 0.6810 0.3701
Cl1 Cl 0.21556(7) 0.8298(2) 0.36495(7)
Cl2 Cl 0.32228(11) 0.8728(3) 0.26926(8)
Cl3 Cl 0.40116(13) 0.9345(4) 0.43647(10)
loop_
_geom_bond_atom_site_label_1
_geom_bond_atom_site_label_2
_geom_bond_site_symmetry_1
_geom_bond_site_symmetry_2
C1 H1 1_555 1_555
C2 C1 1_555 1_555
H2 C2 1_555 1_555
C3 C2 1_555 1_555
H3 C3 1_555 1_555
C4 C3 1_555 1_555
H4 C4 1_555 1_555
C5 C4 1_555 1_555
H5 C5 1_555 1_555
C6 C1 1_555 1_555
C7 C6 1_555 1_555
C8 C7 1_555 1_555
C9 N1 1_555 1_555
C10 H6 1_555 1_555
C11 C10 1_555 1_555
H7 C11 1_555 1_555
C12 C11 1_555 1_555
C13 C12 1_555 1_555
C14 C13 1_555 1_555
C15 C8 1_555 1_555
C16 C15 1_555 1_555
H8 C16 1_555 1_555
C17 C16 1_555 1_555
C18 C17 1_555 1_555
H9 C18 1_555 1_555
C19 C14 1_555 1_555
H10 C19 1_555 1_555
C20 H11 1_555 1_555
H12 C20 1_555 1_555
H13 C20 1_555 1_555
N1 C7 1_555 1_555
N2 C8 1_555 1_555
N3 C9 1_555 1_555
O1 C13 1_555 1_555
O2 C17 1_555 1_555
C21 H14 1_555 1_555
Cl1 C21 1_555 1_555
Cl2 C21 1_555 1_555
Cl3 C21 1_555 1_555
C5 C6 1_555 1_555
C9 N2 1_555 1_555
C10 N3 1_555 1_555
C12 N2 1_555 1_555
C14 C15 1_555 1_555
C18 C19 1_555 1_555
C20 O2 1_555 1_555

#END
