
#######################################################################
#
#                 Cambridge Crystallographic Data Centre
#                                CCDC 
#
#######################################################################
#
# If this CIF has been generated from an entry in the Cambridge 
# Structural Database, then it will include bibliographic, chemical, 
# crystal, experimental, refinement or atomic coordinate data resulting 
# from the CCDC's data processing and validation procedures.
#
#######################################################################

data_DEVSON
_chemical_formula_moiety         'C15 H13 Cl1 N2 O5 S1'
_chemical_name_systematic        
N-(6-Chloropyrid-3-yl)carbonyl-2-(ethoxycarbonyl)benzenesulfonamide
_chemical_properties_biological  
'herbicidal activity towards mono- and dicotyledons'
_symmetry_cell_setting           triclinic
_symmetry_space_group_name_H-M   'P -1'
_symmetry_Int_Tables_number      2
_space_group_name_Hall           '-P 1'
loop_
_symmetry_equiv_pos_site_id
_symmetry_equiv_pos_as_xyz
1 x,y,z
2 -x,-y,-z
_cell_length_a                   9.43(2)
_cell_length_b                   9.63(2)
_cell_length_c                   9.83(2)
_cell_angle_alpha                81.72(3)
_cell_angle_beta                 73.51(3)
_cell_angle_gamma                81.63(3)
_cell_volume                     841.862
_cell_formula_units_Z            2
loop_
_atom_site_label
_atom_site_type_symbol
_atom_site_fract_x
_atom_site_fract_y
_atom_site_fract_z
Cl1 Cl 1.13696(19) -0.3618(3) -0.0120(2)
N1 N 0.5406(4) 0.0651(3) 0.2845(3)
H1 H 0.5681 -0.0032 0.3415
N2 N 0.9545(5) -0.1870(5) 0.1529(4)
O1 O 0.5580(4) 0.1419(4) 0.0538(3)
O2 O 0.2884(4) 0.1988(4) 0.2992(4)
O3 O 0.3872(5) 0.1601(3) 0.5016(3)
O4 O 0.7521(6) 0.3494(8) 0.5027(7)
S1 S 0.41122(14) 0.19175(11) 0.35391(10)
C1 C 0.6064(5) 0.0645(4) 0.1391(4)
C2 C 0.7411(5) -0.0417(4) 0.1018(4)
C3 C 0.8337(6) -0.0900(6) 0.1855(5)
H2 H 0.8127 -0.0536 0.2726
C4 C 0.9835(5) -0.2351(6) 0.0301(6)
C5 C 0.9023(6) -0.1919(7) -0.0659(5)
H3 H 0.9293 -0.2278 -0.1537
C6 C 0.7782(6) -0.0933(6) -0.0302(4)
H4 H 0.7208 -0.0622 -0.0938
C7 C 0.6922(7) 0.2849(9) 0.4308(7)
C8 C 0.6044(6) 0.3881(5) 0.3497(5)
C9 C 0.4895(5) 0.3514(4) 0.3000(4)
C10 C 0.4219(7) 0.4467(5) 0.2121(5)
C11 C 0.6471(8) 0.5244(9) 0.3113(9)
O5 O 0.7460(12) 0.1731(10) 0.3955(11)
C12 C 0.4962(18) 0.5882(14) 0.1806(12)
C13 C 0.6045(19) 0.6107(19) 0.2487(18)
C14 C 0.8763(18) 0.2920(18) 0.5476(15)
C15 C 0.982(2) 0.408(2) 0.5347(19)
O6? O 0.6745(11) 0.1524(9) 0.4587(9)
C16? C 0.4386(15) 0.5747(12) 0.1638(11)
C17? C 0.5521(16) 0.6234(12) 0.2078(12)
C18? C 0.8200(18) 0.2110(17) 0.6178(16)
C19? C 0.965(3) 0.169(3) 0.521(3)
loop_
_geom_bond_atom_site_label_1
_geom_bond_atom_site_label_2
_geom_bond_site_symmetry_1
_geom_bond_site_symmetry_2
Cl1 C4 1_555 1_555
N1 H1 1_555 1_555
N2 C3 1_555 1_555
O1 C1 1_555 1_555
O2 S1 1_555 1_555
O3 S1 1_555 1_555
O4 C7 1_555 1_555
S1 N1 1_555 1_555
C1 N1 1_555 1_555
C2 C1 1_555 1_555
C3 C2 1_555 1_555
H2 C3 1_555 1_555
C4 N2 1_555 1_555
C5 C4 1_555 1_555
H3 C5 1_555 1_555
C6 C2 1_555 1_555
H4 C6 1_555 1_555
C7 C8 1_555 1_555
C8 C9 1_555 1_555
C9 S1 1_555 1_555
C10 C9 1_555 1_555
C11 C8 1_555 1_555
O5 C7 1_555 1_555
C12 C10 1_555 1_555
C13 C11 1_555 1_555
C14 O4 1_555 1_555
C15 C14 1_555 1_555
C5 C6 1_555 1_555
C12 C13 1_555 1_555

#END
