
#######################################################################
#
#                 Cambridge Crystallographic Data Centre
#                                CCDC 
#
#######################################################################
#
# If this CIF has been generated from an entry in the Cambridge 
# Structural Database, then it will include bibliographic, chemical, 
# crystal, experimental, refinement or atomic coordinate data resulting 
# from the CCDC's data processing and validation procedures.
#
#######################################################################

data_DEVTUW
_chemical_formula_moiety         'C4 H2 N10 O4 2-,H12 Mg1 O6 2+'
_chemical_name_systematic        
"hexaaqua-magnesium 5,5'-bis(nitroimino)-1,1',5,5'-tetrahydro-3,3'-bi-1,2,4-triazol-4-ide"
_symmetry_cell_setting           triclinic
_symmetry_space_group_name_H-M   'P -1'
_symmetry_Int_Tables_number      2
_space_group_name_Hall           '-P 1'
loop_
_symmetry_equiv_pos_site_id
_symmetry_equiv_pos_as_xyz
1 x,y,z
2 -x,-y,-z
_cell_length_a                   5.8731(19)
_cell_length_b                   6.746(2)
_cell_length_c                   10.717(4)
_cell_angle_alpha                72.202(5)
_cell_angle_beta                 87.260(7)
_cell_angle_gamma                68.808(5)
_cell_volume                     376.004
_exptl_crystal_colour            yellow
_exptl_crystal_description       block
_cell_formula_units_Z            1
_exptl_crystal_recrystallization_method 
'Re-crystallisation from solvent: Methanol'
loop_
_atom_site_label
_atom_site_type_symbol
_atom_site_fract_x
_atom_site_fract_y
_atom_site_fract_z
C1 C -0.1790(5) 0.6070(5) 0.6327(2)
C2 C -0.4189(5) 0.5488(5) 0.5195(2)
H1 H -0.170(6) 0.853(6) 0.480(3)
N1 N -0.3039(4) 0.4725(4) 0.6420(2)
N2 N -0.2174(5) 0.7523(4) 0.5109(2)
N3 N -0.3719(4) 0.7173(4) 0.4360(2)
N4 N -0.0379(4) 0.5791(4) 0.7412(2)
N5 N 0.0696(4) 0.7217(4) 0.7287(2)
O1 O 0.1914(4) 0.7010(4) 0.83124(19)
O2 O 0.0592(5) 0.8738(4) 0.6256(2)
C1A C -0.8210(5) 0.3930(5) 0.3673(2)
C2A C -0.5811(5) 0.4512(5) 0.4805(2)
H1A H -0.830(6) 0.147(6) 0.520(3)
N1A N -0.6961(4) 0.5275(4) 0.3580(2)
N2A N -0.7826(5) 0.2477(4) 0.4891(2)
N3A N -0.6281(4) 0.2827(4) 0.5640(2)
N4A N -0.9621(4) 0.4209(4) 0.2588(2)
N5A N -1.0696(4) 0.2783(4) 0.2713(2)
O1A O -1.1914(4) 0.2990(4) 0.16876(19)
O2A O -1.0592(5) 0.1262(4) 0.3744(2)
Mg1 Mg 0.5000 0.0000 1.0000
O3 O 0.4818(4) -0.0462(4) 0.81816(19)
H2 H 0.388(6) -0.111(6) 0.814(4)
H3 H 0.465(7) 0.056(5) 0.746(2)
O4 O 0.5759(4) 0.2861(4) 0.9059(2)
H4 H 0.625(7) 0.321(6) 0.830(2)
H5 H 0.458(5) 0.411(4) 0.895(4)
O5 O 0.1325(4) 0.1956(4) 0.9720(2)
H6 H 0.073(7) 0.308(5) 0.908(3)
H7 H 0.031(6) 0.205(7) 1.028(3)
O3A O 0.5182(4) 0.0462(4) 1.18184(19)
H2A H 0.612(6) 0.111(6) 1.186(4)
H3A H 0.535(7) -0.056(5) 1.254(2)
O4A O 0.4241(4) -0.2861(4) 1.0941(2)
H4A H 0.375(7) -0.321(6) 1.170(2)
H5A H 0.542(5) -0.411(4) 1.105(4)
O5A O 0.8675(4) -0.1956(4) 1.0280(2)
H6A H 0.927(7) -0.308(5) 1.092(3)
H7A H 0.969(6) -0.205(7) 0.972(3)
loop_
_geom_bond_atom_site_label_1
_geom_bond_atom_site_label_2
_geom_bond_site_symmetry_1
_geom_bond_site_symmetry_2
C1 N1 1_555 1_555
C2 N1 1_555 1_555
H1 N2 1_555 1_555
N2 C1 1_555 1_555
N3 C2 1_555 1_555
N4 C1 1_555 1_555
N5 N4 1_555 1_555
O1 N5 1_555 1_555
O2 N5 1_555 1_555
Mg1 O3 1_555 1_555
O3 H2 1_555 1_555
H3 O3 1_555 1_555
O4 Mg1 1_555 1_555
H4 O4 1_555 1_555
H5 O4 1_555 1_555
O5 Mg1 1_555 1_555
H6 O5 1_555 1_555
H7 O5 1_555 1_555
C1A N1A 1_555 1_555
C2A C2 1_555 1_555
H1A N2A 1_555 1_555
N1A C2A 1_555 1_555
N2A C1A 1_555 1_555
N3A C2A 1_555 1_555
N4A C1A 1_555 1_555
N5A N4A 1_555 1_555
O1A N5A 1_555 1_555
O2A N5A 1_555 1_555
O3A Mg1 1_555 1_555
H2A O3A 1_555 1_555
H3A O3A 1_555 1_555
O4A Mg1 1_555 1_555
H4A O4A 1_555 1_555
H5A O4A 1_555 1_555
O5A Mg1 1_555 1_555
H6A O5A 1_555 1_555
H7A O5A 1_555 1_555
N2 N3 1_555 1_555
N2A N3A 1_555 1_555

#END
