
#######################################################################
#
#                 Cambridge Crystallographic Data Centre
#                                CCDC 
#
#######################################################################
#
# If this CIF has been generated from an entry in the Cambridge 
# Structural Database, then it will include bibliographic, chemical, 
# crystal, experimental, refinement or atomic coordinate data resulting 
# from the CCDC's data processing and validation procedures.
#
#######################################################################

data_DEVZAG
_chemical_formula_moiety         'H5 B7 O14 2-,C4 H14 N2 2+,2(H2 O1)'
_chemical_name_systematic        
'Butane-1,4-diammonium 3,5,10,13,15-pentahydroxy-1,3,5,8,10,13,15-heptabory-2,4,6,7,9,11,12,14,16-nonaoxy-[06.5^1,1^5^8,8^]tricycle dihydrate'
_symmetry_cell_setting           triclinic
_symmetry_space_group_name_H-M   'P -1'
_symmetry_Int_Tables_number      2
_space_group_name_Hall           '-P 1'
loop_
_symmetry_equiv_pos_site_id
_symmetry_equiv_pos_as_xyz
1 x,y,z
2 -x,-y,-z
_cell_length_a                   8.238(4)
_cell_length_b                   8.348(5)
_cell_length_c                   14.574(8)
_cell_angle_alpha                101.050(3)
_cell_angle_beta                 92.313(7)
_cell_angle_gamma                112.694(5)
_cell_volume                     900.266
_exptl_crystal_colour            white
_exptl_crystal_description       prism
_cell_formula_units_Z            2
loop_
_atom_site_label
_atom_site_type_symbol
_atom_site_fract_x
_atom_site_fract_y
_atom_site_fract_z
B1 B 1.4929(3) 1.0595(3) 0.12062(17)
B2 B 1.2591(3) 1.0956(3) 0.03969(17)
B3 B 1.1851(3) 0.8765(3) 0.14505(16)
B4 B 0.9752(3) 0.5641(3) 0.13712(17)
B5 B 1.0332(3) 0.7843(3) 0.28705(16)
B6 B 1.1151(4) 0.7468(4) 0.44581(17)
B7 B 0.8596(3) 0.8117(4) 0.42032(18)
O1 O 1.6705(2) 1.1133(2) 0.14739(11)
H1 H 1.7264 1.2006 0.1265
O2 O 1.43780(19) 1.1445(2) 0.06103(10)
O3 O 1.2094(2) 1.1781(2) -0.02137(11)
H2 H 1.1025 1.1262 -0.0385
O4 O 1.1393(2) 0.9765(2) 0.08052(11)
O5 O 1.37763(19) 0.9266(2) 0.15541(10)
O6 O 1.0955(2) 0.6850(2) 0.09768(10)
O7 O 0.8847(2) 0.3926(2) 0.08616(12)
H3 H 0.8274 0.3307 0.1206
O8 O 0.9396(2) 0.6040(2) 0.22694(10)
O9 O 1.1241(2) 0.9136(2) 0.23433(10)
O10 O 1.1581(2) 0.7738(2) 0.36023(10)
O11 O 1.2204(2) 0.7070(3) 0.50406(12)
H4 H 1.3064 0.7042 0.4784
O12 O 0.9627(2) 0.7596(2) 0.47701(11)
O13 O 0.7219(2) 0.8326(3) 0.46186(12)
H5 H 0.6652 0.8623 0.4259
O14 O 0.8959(2) 0.8347(2) 0.33396(10)
C1 C 0.4725(2) 0.5690(3) 0.14118(13)
H6 H 0.5291 0.4909 0.1151
H7 H 0.3960 0.5737 0.0903
C2 C 0.3601(2) 0.4918(3) 0.21545(13)
H8 H 0.3266 0.5820 0.2516
H9 H 0.2521 0.3925 0.1840
C3 C 0.4551(3) 0.4281(3) 0.28264(17)
H10 H 0.4665 0.3221 0.2483
H11 H 0.5739 0.5192 0.3033
C4 C 0.3661(4) 0.3863(4) 0.36820(17)
H12 H 0.4383 0.3508 0.4075
H13 H 0.3591 0.4932 0.4044
N1 N 0.6102(3) 0.7498(3) 0.18039(14)
H14 H 0.6696 0.7918 0.1346
H15 H 0.6848 0.7449 0.2246
H16 H 0.5591 0.8213 0.2056
N2 N 0.1841(3) 0.2417(3) 0.34459(14)
H17 H 0.1372 0.2227 0.3975
H18 H 0.1898 0.1422 0.3128
H19 H 0.1165 0.2741 0.3094
O15 O 0.1207(3) 0.6711(3) 0.68219(12)
O16 O 0.5250(3) 0.9613(3) 0.36891(15)
loop_
_geom_bond_atom_site_label_1
_geom_bond_atom_site_label_2
_geom_bond_site_symmetry_1
_geom_bond_site_symmetry_2
B1 O1 1_555 1_555
B2 O2 1_555 1_555
B3 O4 1_555 1_555
B4 O6 1_555 1_555
B5 O8 1_555 1_555
B6 O10 1_555 1_555
B7 O12 1_555 1_555
O1 H1 1_555 1_555
O2 B1 1_555 1_555
O3 B2 1_555 1_555
H2 O3 1_555 1_555
O4 B2 1_555 1_555
O5 B1 1_555 1_555
O6 B3 1_555 1_555
O7 B4 1_555 1_555
H3 O7 1_555 1_555
O8 B4 1_555 1_555
O9 B3 1_555 1_555
O10 B5 1_555 1_555
O11 B6 1_555 1_555
H4 O11 1_555 1_555
O12 B6 1_555 1_555
O13 B7 1_555 1_555
H5 O13 1_555 1_555
O14 B5 1_555 1_555
C1 H6 1_555 1_555
H7 C1 1_555 1_555
C2 C1 1_555 1_555
H8 C2 1_555 1_555
H9 C2 1_555 1_555
C3 C2 1_555 1_555
H10 C3 1_555 1_555
H11 C3 1_555 1_555
C4 C3 1_555 1_555
H12 C4 1_555 1_555
H13 C4 1_555 1_555
N1 C1 1_555 1_555
H14 N1 1_555 1_555
H15 N1 1_555 1_555
H16 N1 1_555 1_555
N2 C4 1_555 1_555
H17 N2 1_555 1_555
H18 N2 1_555 1_555
H19 N2 1_555 1_555
B3 O5 1_555 1_555
B5 O9 1_555 1_555
B7 O14 1_555 1_555

#END
