
#######################################################################
#
#                 Cambridge Crystallographic Data Centre
#                                CCDC 
#
#######################################################################
#
# If this CIF has been generated from an entry in the Cambridge 
# Structural Database, then it will include bibliographic, chemical, 
# crystal, experimental, refinement or atomic coordinate data resulting 
# from the CCDC's data processing and validation procedures.
#
#######################################################################

data_DEWBOW
_chemical_formula_moiety         'C12 H13 N3 O4'
_chemical_name_systematic        
8-Hydroxy-13-nitro-3,9-diazatricyclo(8.4.0.0^3,7^)tetradeca-1(10),11,13-trien-2-one
_symmetry_cell_setting           orthorhombic
_symmetry_space_group_name_H-M   'P 21 21 21'
_symmetry_Int_Tables_number      19
_space_group_name_Hall           'P 2ac 2ab'
loop_
_symmetry_equiv_pos_site_id
_symmetry_equiv_pos_as_xyz
1 x,y,z
2 1/2+x,1/2-y,-z
3 -x,1/2+y,1/2-z
4 1/2-x,-y,1/2+z
_cell_length_a                   6.5326(14)
_cell_length_b                   7.1736(19)
_cell_length_c                   24.7776(69)
_cell_angle_alpha                90
_cell_angle_beta                 90
_cell_angle_gamma                90
_cell_volume                     1161.13
_exptl_crystal_colour            yellow
_chemical_melting_point          215deg.C.(dec)
_cell_formula_units_Z            4
loop_
_atom_site_label
_atom_site_type_symbol
_atom_site_fract_x
_atom_site_fract_y
_atom_site_fract_z
C1 C 0.15906(83) 0.92045(68) 0.95573(19)
C2 C 0.16455(82) 0.79874(74) 0.90655(20)
C3 C 0.16217(95) 0.90304(75) 1.05373(21)
C4 C 0.17635(81) 0.81910(75) 1.00399(20)
H1 H 0.19884(81) 0.68700(75) 1.00220(20)
C5 C 0.12658(89) 1.11521(71) 0.95957(19)
C6 C 0.1319(10) 1.09529(79) 1.05775(23)
H2 H 0.1237(10) 1.15472(79) 1.09239(23)
C7 C 0.11489(90) 1.19518(83) 1.01217(21)
H3 H 0.09382(89) 1.32723(83) 1.01512(21)
C8 C 0.2010(11) 0.75567(73) 0.80931(20)
H4 H 0.3140(11) 0.67021(73) 0.80833(20)
H5 H 0.0748(11) 0.68749(73) 0.80700(20)
C9 C 0.27621(94) 1.06093(72) 0.84778(21)
H6 H 0.38877(94) 1.10140(72) 0.86976(21)
C10 C 0.11073(95) 1.20201(84) 0.86098(22)
H7 H 0.14846(95) 1.31627(84) 0.84343(22)
C11 C 0.2172(16) 0.89491(98) 0.76515(24)
H8 H 0.0833(16) 0.93574(98) 0.75437(24)
H9 H 0.2868(16) 0.84212(98) 0.73465(24)
C12 C 0.3353(13) 1.0528(10) 0.78736(23)
H10 H 0.4795(13) 1.0311(10) 0.78335(23)
H11 H 0.2989(13) 1.1669(10) 0.76953(23)
N1 N 0.20714(68) 0.87044(53) 0.85844(16)
N2 N 0.18091(75) 0.78859(86) 1.10180(19)
N3 N 0.10075(80) 1.23461(53) 0.91847(18)
H12 H 0.09658(80) 1.35063(52) 0.93115(18)
O1 O 0.17507(76) 0.86573(76) 1.14597(16)
O2 O 0.12989(67) 0.62908(43) 0.91119(15)
O3 O 0.20427(74) 0.61883(72) 1.09649(17)
O4 O -0.08396(73) 1.15318(62) 0.83977(16)
H13 H -0.09069(73) 1.03562(62) 0.83589(16)
loop_
_geom_bond_atom_site_label_1
_geom_bond_atom_site_label_2
_geom_bond_site_symmetry_1
_geom_bond_site_symmetry_2
C1 C2 1_555 1_555
C2 N1 1_555 1_555
C3 C4 1_555 1_555
C4 C1 1_555 1_555
H1 C4 1_555 1_555
C5 C1 1_555 1_555
C6 C3 1_555 1_555
H2 C6 1_555 1_555
C7 C5 1_555 1_555
H3 C7 1_555 1_555
C8 H4 1_555 1_555
H5 C8 1_555 1_555
C9 H6 1_555 1_555
C10 C9 1_555 1_555
H7 C10 1_555 1_555
C11 C8 1_555 1_555
H8 C11 1_555 1_555
H9 C11 1_555 1_555
C12 C9 1_555 1_555
H10 C12 1_555 1_555
H11 C12 1_555 1_555
N1 C8 1_555 1_555
N2 C3 1_555 1_555
N3 C5 1_555 1_555
H12 N3 1_555 1_555
O1 N2 1_555 1_555
O2 C2 1_555 1_555
O3 N2 1_555 1_555
O4 C10 1_555 1_555
H13 O4 1_555 1_555
C6 C7 1_555 1_555
C9 N1 1_555 1_555
C10 N3 1_555 1_555
C11 C12 1_555 1_555

#END
