
#######################################################################
#
#                 Cambridge Crystallographic Data Centre
#                                CCDC 
#
#######################################################################
#
# If this CIF has been generated from an entry in the Cambridge 
# Structural Database, then it will include bibliographic, chemical, 
# crystal, experimental, refinement or atomic coordinate data resulting 
# from the CCDC's data processing and validation procedures.
#
#######################################################################

data_DEWDUE
_chemical_name_common            'Norsesquiterpenoid lactone'
_chemical_formula_moiety         'C14 H20 O3'
_chemical_name_systematic        
4,8-Dimethyl-2-oxatricyclo(7.4.0.0^1,5^)trideca-3,12-dione
_symmetry_cell_setting           orthorhombic
_symmetry_space_group_name_H-M   'P 21 21 21'
_symmetry_Int_Tables_number      19
_space_group_name_Hall           'P 2ac 2ab'
loop_
_symmetry_equiv_pos_site_id
_symmetry_equiv_pos_as_xyz
1 x,y,z
2 1/2+x,1/2-y,-z
3 -x,1/2+y,1/2-z
4 1/2-x,-y,1/2+z
_cell_length_a                   7.526(3)
_cell_length_b                   24.642(10)
_cell_length_c                   6.887(2)
_cell_angle_alpha                90
_cell_angle_beta                 90
_cell_angle_gamma                90
_cell_volume                     1277.23
_cell_formula_units_Z            4
loop_
_atom_site_label
_atom_site_type_symbol
_atom_site_fract_x
_atom_site_fract_y
_atom_site_fract_z
O1 O 0.5115(13) 0.3106(3) 0.1631(14)
O2 O 0.7019(9) 0.4340(3) -0.0639(10)
O3 O 0.6865(11) 0.5233(3) -0.0952(11)
C1 C 0.8452(13) 0.3935(4) -0.0496(15)
C2 C 0.7875(14) 0.3556(4) 0.1124(16)
C3 C 0.6341(15) 0.3177(4) 0.0525(18)
C4 C 0.6455(17) 0.2926(4) -0.1429(18)
C5 C 0.6920(14) 0.3352(4) -0.2936(16)
C6 C 0.8592(13) 0.3659(4) -0.2499(13)
C7 C 1.0371(14) 0.3316(4) -0.2603(16)
C8 C 1.1895(15) 0.3697(4) -0.2252(19)
C9 C 1.1834(14) 0.3974(4) -0.0257(19)
C10 C 1.0066(14) 0.4261(4) 0.0104(17)
C11 C 0.9780(14) 0.4784(4) -0.1017(17)
C12 C 0.7785(17) 0.4832(4) -0.0866(14)
C13 C 1.0542(17) 0.3024(5) -0.4547(20)
C14 C 1.0718(18) 0.5294(5) -0.0192(23)
H1 H 0.745(12) 0.380(4) 0.235(14)
H2 H 0.900(11) 0.331(3) 0.155(13)
H3 H 0.532(17) 0.270(4) -0.175(17)
H4 H 0.744(14) 0.261(4) -0.152(16)
H5 H 0.716(16) 0.321(4) -0.451(18)
H6 H 0.604(15) 0.360(5) -0.332(17)
H7 H 0.870(13) 0.395(4) -0.365(15)
H8 H 1.037(14) 0.300(4) -0.151(15)
H9 H 1.184(17) 0.402(5) -0.327(19)
H10 H 1.289(13) 0.425(4) -0.005(14)
H11 H 0.996(13) 0.433(3) 0.178(13)
H12 H 1.198(15) 0.372(4) 0.104(17)
H13 H 1.009(15) 0.477(4) -0.236(15)
H14 H 1.177(18) 0.284(5) -0.469(20)
H15 H 1.056(14) 0.335(4) -0.570(16)
H16 H 0.956(17) 0.279(4) -0.462(20)
H17 H 0.995(16) 0.563(4) -0.056(17)
H18 H 1.203(11) 0.533(3) -0.081(13)
H19 H 1.083(11) 0.526(3) 0.137(13)
loop_
_geom_bond_atom_site_label_1
_geom_bond_atom_site_label_2
_geom_bond_site_symmetry_1
_geom_bond_site_symmetry_2
O1 C3 1_555 1_555
O2 C1 1_555 1_555
O3 C12 1_555 1_555
C1 C2 1_555 1_555
C2 C3 1_555 1_555
C3 C4 1_555 1_555
C4 C5 1_555 1_555
C5 C6 1_555 1_555
C6 C1 1_555 1_555
C7 C6 1_555 1_555
C8 C7 1_555 1_555
C9 C8 1_555 1_555
C10 C1 1_555 1_555
C11 C10 1_555 1_555
C12 O2 1_555 1_555
C13 C7 1_555 1_555
C14 C11 1_555 1_555
H1 C2 1_555 1_555
H2 C2 1_555 1_555
H3 C4 1_555 1_555
H4 C4 1_555 1_555
H5 C5 1_555 1_555
H6 C5 1_555 1_555
H7 C6 1_555 1_555
H8 C7 1_555 1_555
H9 C8 1_555 1_555
H10 C9 1_555 1_555
H11 C10 1_555 1_555
H12 C9 1_555 1_555
H13 C11 1_555 1_555
H14 C13 1_555 1_555
H15 C13 1_555 1_555
H16 C13 1_555 1_555
H17 C14 1_555 1_555
H18 C14 1_555 1_555
H19 C14 1_555 1_555
C9 C10 1_555 1_555
C11 C12 1_555 1_555

#END
