
#######################################################################
#
#                 Cambridge Crystallographic Data Centre
#                                CCDC 
#
#######################################################################
#
# If this CIF has been generated from an entry in the Cambridge 
# Structural Database, then it will include bibliographic, chemical, 
# crystal, experimental, refinement or atomic coordinate data resulting 
# from the CCDC's data processing and validation procedures.
#
#######################################################################

data_DEWFEQ
_chemical_formula_moiety         'C48 H76 N12 O12,11(H2 O1)'
_chemical_name_systematic        
'Cyclo-tetrakis(L-valyl-L-prolyl-glycyl) undecahydrate'
_symmetry_cell_setting           monoclinic
_symmetry_space_group_name_H-M   'C 2'
_symmetry_Int_Tables_number      5
_space_group_name_Hall           'C 2y'
loop_
_symmetry_equiv_pos_site_id
_symmetry_equiv_pos_as_xyz
1 x,y,z
2 1/2+x,1/2+y,z
3 -x,y,-z
4 1/2-x,1/2+y,-z
_cell_length_a                   29.639(3)
_cell_length_b                   7.099(1)
_cell_length_c                   20.325(2)
_cell_angle_alpha                90
_cell_angle_beta                 130.4(4)
_cell_angle_gamma                90
_cell_volume                     3256.74
_cell_formula_units_Z            2
loop_
_atom_site_label
_atom_site_type_symbol
_atom_site_fract_x
_atom_site_fract_y
_atom_site_fract_z
O1 O 0.4696(1) 0.373(1) 0.2193(2)
O2 O 0.4834(2) 0.535(1) 0.0966(2)
O3 O 0.6782(1) 0.507(1) 0.3277(2)
O4 O 0.6138(2) 0.335(1) 0.4561(2)
O5 O 0.6702(2) 0.555(1) 0.6389(2)
O6 O 0.2899(2) 0.336(1) 0.1794(2)
N1 N 0.3847(2) 0.380 0.2398(2)
N2 N 0.3955(2) 0.309(1) 0.0791(3)
N3 N 0.5413(2) 0.275(1) 0.1542(3)
N4 N 0.5935(2) 0.484(1) 0.3062(3)
N5 N 0.6996(2) 0.487(1) 0.5326(3)
N6 N 0.6730(2) 0.243(1) 0.6546(3)
C1 C 0.3729(2) 0.464(1) 0.1647(3)
C2 C 0.3804(3) 0.680(1) 0.1747(4)
C3 C 0.3730(3) 0.773(2) 0.0998(5)
C4 C 0.3397(3) 0.763(2) 0.1859(5)
C5 C 0.4157(2) 0.380(1) 0.1554(3)
C6 C 0.4354(2) 0.234(1) 0.0693(3)
C7 C 0.3965(3) 0.222(1) -0.0299(3)
C8 C 0.3365(3) 0.176(1) -0.0587(4)
C9 C 0.3323(2) 0.294(1) -0.0011(4)
C10 C 0.4885(2) 0.362(1) 0.1081(3)
C11 C 0.5960(2) 0.371(1) 0.1946(3)
C12 C 0.6256(2) 0.459(1) 0.2827(3)
C13 C 0.6172(2) 0.595(1) 0.3832(3)
C14 C 0.5692(3) 0.715(1) 0.3694(3)
C15 C 0.5952(3) 0.830(1) 0.4511(4)
C16 C 0.5404(3) 0.853(2) 0.2928(4)
C17 C 0.6444(2) 0.457(1) 0.4606(3)
C18 C 0.7233(2) 0.372(1) 0.6100(3)
C19 C 0.7864(2) 0.450(1) 0.6765(4)
C20 C 0.8028(2) 0.520(1) 0.6248(4)
C21 C 0.7436(2) 0.612(1) 0.5447(4)
C22 C 0.6864(2) 0.394(1) 0.6350(3)
C23 C 0.6322(2) 0.239(1) 0.6714(3)
C24 C 0.3432(2) 0.330(1) 0.2409(3)
H1 H 0.425 0.359 0.291
H2 H 0.332 0.443 0.114
H3 H 0.420 0.701 0.223
H4 H 0.374 0.912 0.102
H5 H 0.329 0.755 0.042
H6 H 0.396 0.731 0.087
H7 H 0.346 0.904 0.194
H8 H 0.350 0.722 0.239
H9 H 0.300 0.746 0.140
H10 H 0.454 0.114 0.097
H11 H 0.394 0.343 -0.055
H12 H 0.409 0.132 -0.049
H13 H 0.305 0.193 -0.119
H14 H 0.336 0.041 -0.047
H15 H 0.315 0.421 -0.030
H16 H 0.306 0.245 0.006
H17 H 0.541 0.143 0.160
H18 H 0.623 0.284 0.199
H19 H 0.589 0.471 0.155
H20 H 0.648 0.684 0.399
H21 H 0.538 0.632 0.357
H22 H 0.566 0.904 0.447
H23 H 0.626 0.914 0.467
H24 H 0.613 0.748 0.502
H25 H 0.510 0.928 0.284
H26 H 0.525 0.790 0.242
H27 H 0.571 0.941 0.306
H28 H 0.724 0.239 0.604
H29 H 0.787 0.553 0.709
H30 H 0.814 0.358 0.719
H31 H 0.834 0.609 0.654
H32 H 0.813 0.418 0.605
H33 H 0.740 0.741 0.557
H34 H 0.741 0.620 0.495
H35 H 0.692 0.127 0.659
H36 H 0.595 0.302 0.623
H37 H 0.621 0.110 0.670
C24B C 0.6568(2) 0.330(1) 0.7591(3)
C23B C 0.3678(2) 0.239(1) 0.3286(3)
O6B O 0.7101(2) 0.336(1) 0.8206(2)
N1B N 0.6153(2) 0.380 0.7602(2)
N6B N 0.3270(2) 0.243(1) 0.3454(3)
H36B H 0.405 0.302 0.377
H37B H 0.379 0.110 0.330
C1B C 0.6271(2) 0.464(1) 0.8353(3)
H1B H 0.575 0.359 0.709
C22B C 0.3136(2) 0.394(1) 0.3650(3)
H35B H 0.308 0.127 0.341
C2B C 0.6196(3) 0.680(1) 0.8253(4)
C5B C 0.5843(2) 0.380(1) 0.8446(3)
H2B H 0.668 0.443 0.886
O5B O 0.3298(2) 0.555(1) 0.3611(2)
C18B C 0.2767(2) 0.372(1) 0.3900(3)
C3B C 0.6270(3) 0.773(2) 0.9002(5)
C4B C 0.6603(3) 0.763(2) 0.8141(5)
H3B H 0.580 0.701 0.777
O1B O 0.5304(1) 0.373(1) 0.7807(2)
N2B N 0.6045(2) 0.309(1) 0.9209(3)
N5B N 0.3004(2) 0.487(1) 0.4674(3)
C19B C 0.2136(2) 0.450(1) 0.3235(4)
H28B H 0.276 0.239 0.396
H4B H 0.626 0.912 0.898
H5B H 0.671 0.755 0.958
H6B H 0.604 0.731 0.913
H7B H 0.654 0.904 0.806
H8B H 0.650 0.722 0.761
H9B H 0.700 0.746 0.860
C6B C 0.5646(2) 0.234(1) 0.9307(3)
C9B C 0.6677(2) 0.294(1) 1.0011(4)
C17B C 0.3556(2) 0.457(1) 0.5394(3)
C21B C 0.2564(2) 0.612(1) 0.4553(4)
C20B C 0.1972(2) 0.520(1) 0.3752(4)
H29B H 0.213 0.553 0.291
H30B H 0.186 0.358 0.281
C7B C 0.6035(3) 0.222(1) 1.0299(3)
C10B C 0.5115(2) 0.362(1) 0.8919(3)
H10B H 0.546 0.114 0.903
C8B C 0.6635(3) 0.176(1) 1.0587(4)
H15B H 0.685 0.421 1.030
H16B H 0.694 0.245 0.994
O4B O 0.3862(2) 0.335(1) 0.5439(2)
C13B C 0.3828(2) 0.595(1) 0.6168(3)
H33B H 0.260 0.741 0.443
H34B H 0.259 0.620 0.505
H31B H 0.166 0.609 0.346
H32B H 0.187 0.418 0.395
H11B H 0.606 0.343 1.055
H12B H 0.591 0.132 1.049
O2B O 0.5166(2) 0.535(1) 0.9034(2)
N3B N 0.4587(2) 0.275(1) 0.8458(3)
H13B H 0.695 0.193 1.119
H14B H 0.664 0.041 1.047
N4B N 0.4065(2) 0.484(1) 0.6938(3)
C14B C 0.4308(3) 0.715(1) 0.6306(3)
H20B H 0.352 0.684 0.601
C11B C 0.4040(2) 0.371(1) 0.8054(3)
H17B H 0.459 0.143 0.840
C12B C 0.3744(2) 0.459(1) 0.7173(3)
C15B C 0.4048(3) 0.830(1) 0.5489(4)
C16B C 0.4596(3) 0.853(2) 0.7072(4)
H21B H 0.462 0.632 0.643
H18B H 0.377 0.284 0.801
H19B H 0.411 0.471 0.845
O3B O 0.3218(1) 0.507(1) 0.6723(2)
H22B H 0.434 0.904 0.553
H23B H 0.374 0.914 0.533
H24B H 0.387 0.748 0.498
H25B H 0.490 0.928 0.716
H26B H 0.475 0.790 0.758
H27B H 0.429 0.941 0.694
O7 O 0.5534(2) -0.123(1) 0.1427(3)
O8 O 0.4089(2) 0.755(1) -0.0564(3)
O9 O 0.7960(2) 0.117(1) 0.8456(3)
O10 O 0.5055(2) 0.315(1) 0.4144(3)
O11 O 0.7376(2) -0.103(1) 0.6895(2)
O12 O 0.5000 0.019(1) 0.5000
loop_
_geom_bond_atom_site_label_1
_geom_bond_atom_site_label_2
_geom_bond_site_symmetry_1
_geom_bond_site_symmetry_2
O1 C5 1_555 1_555
O2 C10 1_555 1_555
O3 C12 1_555 1_555
O4 C17 1_555 1_555
O5 C22 1_555 1_555
O6 C24 1_555 1_555
N1 C1 1_555 1_555
N2 C5 1_555 1_555
N3 C10 1_555 1_555
N4 C12 1_555 1_555
N5 C17 1_555 1_555
N6 C22 1_555 1_555
C1 C2 1_555 1_555
C2 C3 1_555 1_555
C3 H4 1_555 1_555
C4 C2 1_555 1_555
C5 C1 1_555 1_555
C6 N2 1_555 1_555
C7 C6 1_555 1_555
C8 C7 1_555 1_555
C9 N2 1_555 1_555
C10 C6 1_555 1_555
C11 N3 1_555 1_555
C12 C11 1_555 1_555
C13 N4 1_555 1_555
C14 C13 1_555 1_555
C15 C14 1_555 1_555
C16 C14 1_555 1_555
C17 C13 1_555 1_555
C18 N5 1_555 1_555
C19 C18 1_555 1_555
C20 C19 1_555 1_555
C21 N5 1_555 1_555
C22 C18 1_555 1_555
C23 N6 1_555 1_555
C24 N1 1_555 1_555
H1 N1 1_555 1_555
H2 C1 1_555 1_555
H3 C2 1_555 1_555
H5 C3 1_555 1_555
H6 C3 1_555 1_555
H7 C4 1_555 1_555
H8 C4 1_555 1_555
H9 C4 1_555 1_555
H10 C6 1_555 1_555
H11 C7 1_555 1_555
H12 C7 1_555 1_555
H13 C8 1_555 1_555
H14 C8 1_555 1_555
H15 C9 1_555 1_555
H16 C9 1_555 1_555
H17 N3 1_555 1_555
H18 C11 1_555 1_555
H19 C11 1_555 1_555
H20 C13 1_555 1_555
H21 C14 1_555 1_555
H22 C15 1_555 1_555
H23 C15 1_555 1_555
H24 C15 1_555 1_555
H25 C16 1_555 1_555
H26 C16 1_555 1_555
H27 C16 1_555 1_555
H28 C18 1_555 1_555
H29 C19 1_555 1_555
H30 C19 1_555 1_555
H31 C20 1_555 1_555
H32 C20 1_555 1_555
H33 C21 1_555 1_555
H34 C21 1_555 1_555
H35 N6 1_555 1_555
H36 C23 1_555 1_555
H37 C23 1_555 1_555
C24B C23 1_555 1_555
C23B C24 1_555 1_555
O6B C24B 1_555 1_555
N1B C24B 1_555 1_555
N6B C23B 1_555 1_555
H36B C23B 1_555 1_555
H37B C23B 1_555 1_555
C1B N1B 1_555 1_555
H1B N1B 1_555 1_555
C22B N6B 1_555 1_555
H35B N6B 1_555 1_555
C2B C1B 1_555 1_555
C5B C1B 1_555 1_555
H2B C1B 1_555 1_555
O5B C22B 1_555 1_555
C18B C22B 1_555 1_555
C3B C2B 1_555 1_555
C4B C2B 1_555 1_555
H3B C2B 1_555 1_555
O1B C5B 1_555 1_555
N2B C5B 1_555 1_555
N5B C18B 1_555 1_555
C19B C18B 1_555 1_555
H28B C18B 1_555 1_555
H4B C3B 1_555 1_555
H5B C3B 1_555 1_555
H6B C3B 1_555 1_555
H7B C4B 1_555 1_555
H8B C4B 1_555 1_555
H9B C4B 1_555 1_555
C6B N2B 1_555 1_555
C9B N2B 1_555 1_555
C17B N5B 1_555 1_555
C21B N5B 1_555 1_555
C20B C19B 1_555 1_555
H29B C19B 1_555 1_555
H30B C19B 1_555 1_555
C7B C6B 1_555 1_555
C10B C6B 1_555 1_555
H10B C6B 1_555 1_555
C8B C9B 1_555 1_555
H15B C9B 1_555 1_555
H16B C9B 1_555 1_555
O4B C17B 1_555 1_555
C13B C17B 1_555 1_555
H33B C21B 1_555 1_555
H34B C21B 1_555 1_555
H31B C20B 1_555 1_555
H32B C20B 1_555 1_555
H11B C7B 1_555 1_555
H12B C7B 1_555 1_555
O2B C10B 1_555 1_555
N3B C10B 1_555 1_555
H13B C8B 1_555 1_555
H14B C8B 1_555 1_555
N4B C13B 1_555 1_555
C14B C13B 1_555 1_555
H20B C13B 1_555 1_555
C11B N3B 1_555 1_555
H17B N3B 1_555 1_555
C12B N4B 1_555 1_555
C15B C14B 1_555 1_555
C16B C14B 1_555 1_555
H21B C14B 1_555 1_555
H18B C11B 1_555 1_555
H19B C11B 1_555 1_555
O3B C12B 1_555 1_555
H22B C15B 1_555 1_555
H23B C15B 1_555 1_555
H24B C15B 1_555 1_555
H25B C16B 1_555 1_555
H26B C16B 1_555 1_555
H27B C16B 1_555 1_555
C8 C9 1_555 1_555
C20 C21 1_555 1_555
C21B C20B 1_555 1_555
C7B C8B 1_555 1_555
C11B C12B 1_555 1_555

#END
