
#######################################################################
#
#                 Cambridge Crystallographic Data Centre
#                                CCDC 
#
#######################################################################
#
# If this CIF has been generated from an entry in the Cambridge 
# Structural Database, then it will include bibliographic, chemical, 
# crystal, experimental, refinement or atomic coordinate data resulting 
# from the CCDC's data processing and validation procedures.
#
#######################################################################

data_DEWFET
_chemical_compound_source        
'roots of Xylopia vielana, a member of genus Xylopia from Annonaceae family'
_chemical_name_common            'xylopialoid A sesquihydrate'
_chemical_formula_moiety         'C17 H11 N1 O3,1.5(H2 O1)'
_chemical_name_systematic        
'2H,5H-[1,3]benzodioxolo[6,5,4-de]benzo[g]quinolin-8-ol sesquihydrate'
_symmetry_cell_setting           monoclinic
_symmetry_space_group_name_H-M   'P 21/c'
_symmetry_Int_Tables_number      14
_space_group_name_Hall           '-P 2ybc'
loop_
_symmetry_equiv_pos_site_id
_symmetry_equiv_pos_as_xyz
1 x,y,z
2 -x,1/2+y,1/2-z
3 -x,-y,-z
4 x,1/2-y,1/2+z
_cell_length_a                   7.1239(5)
_cell_length_b                   28.1719(18)
_cell_length_c                   14.5984(9)
_cell_angle_alpha                90
_cell_angle_beta                 116.054(3)
_cell_angle_gamma                90
_cell_volume                     2632.08
_exptl_crystal_colour            colorless
_exptl_crystal_description       block
_cell_formula_units_Z            8
loop_
_atom_site_label
_atom_site_type_symbol
_atom_site_fract_x
_atom_site_fract_y
_atom_site_fract_z
C1 C 0.9259(4) 0.59134(8) 0.05510(19)
C2 C 0.9501(4) 0.56272(8) 0.1448(2)
C3 C 0.8971(4) 0.56685(9) -0.0335(2)
H1 H 0.8918 0.5339 -0.0345
C4 C 0.8764(4) 0.59117(9) -0.1191(2)
H2 H 0.8567 0.5748 -0.1780
C5 C 0.8854(4) 0.64036(9) -0.1167(2)
H3 H 0.8723 0.6569 -0.1743
C6 C 0.9132(4) 0.66492(9) -0.0306(2)
H4 H 0.9184 0.6979 -0.0308
C7 C 0.9340(4) 0.64137(8) 0.05766(19)
C8 C 0.9657(4) 0.66602(8) 0.15200(19)
C9 C 0.9735(4) 0.71437(9) 0.1644(2)
C10 C 0.9591(5) 0.79401(9) 0.1406(2)
H5 H 1.0631 0.8140 0.1338
H6 H 0.8248 0.8099 0.1085
C11 C 1.0115(4) 0.73696(8) 0.2571(2)
C12 C 1.0421(4) 0.71306(9) 0.3427(2)
H7 H 1.0677 0.7287 0.4031
C13 C 1.0329(4) 0.66200(9) 0.3354(2)
C14 C 0.9957(4) 0.63945(8) 0.24167(18)
C15 C 0.9889(4) 0.58877(9) 0.24001(19)
C16 C 1.0498(5) 0.58498(10) 0.4070(2)
H8 H 1.0691 0.5667 0.4636
C17 C 1.0603(4) 0.63319(10) 0.4181(2)
H9 H 1.1959 0.6407 0.4730
H10 H 0.9563 0.6425 0.4406
N1 N 1.0138(3) 0.56240(7) 0.32075(17)
O1 O 0.9491(3) 0.74849(6) 0.09343(15)
O2 O 1.0147(3) 0.78507(6) 0.24596(15)
O3 O 0.9396(3) 0.51929(6) 0.14068(15)
C18 C 0.5233(5) 0.96303(11) 0.8609(2)
H11 H 0.5356 0.9858 0.9094
C19 C 0.4911(4) 0.97853(10) 0.7647(2)
H12 H 0.6068 0.9992 0.7737
H13 H 0.3660 0.9980 0.7379
C20 C 0.4702(4) 0.94536(9) 0.6899(2)
C21 C 0.4349(4) 0.95912(9) 0.5900(2)
H14 H 0.4266 0.9909 0.5712
C22 C 0.4138(4) 0.92366(9) 0.5232(2)
C23 C 0.3732(5) 0.88118(9) 0.3865(2)
H15 H 0.4842 0.8775 0.3655
H16 H 0.2408 0.8750 0.3281
C24 C 0.4289(4) 0.87501(8) 0.55020(19)
C25 C 0.4631(4) 0.85944(8) 0.64503(18)
C26 C 0.4837(4) 0.89622(8) 0.71714(19)
C27 C 0.5176(4) 0.88513(9) 0.8175(2)
C28 C 0.5333(4) 0.83424(10) 0.8503(2)
C29 C 0.5072(4) 0.79759(9) 0.7736(2)
C30 C 0.4760(4) 0.80909(8) 0.6747(2)
C31 C 0.4556(4) 0.77201(8) 0.6063(2)
H17 H 0.4366 0.7791 0.5405
C32 C 0.4635(4) 0.72503(9) 0.6362(2)
H18 H 0.4493 0.7008 0.5903
C33 C 0.4922(4) 0.71390(10) 0.7333(2)
H19 H 0.4960 0.6823 0.7524
C34 C 0.5150(4) 0.74929(10) 0.8017(2)
H20 H 0.5359 0.7415 0.8674
N2 N 0.5375(4) 0.91721(9) 0.88765(19)
O4 O 0.3756(3) 0.92803(6) 0.42375(15)
O5 O 0.4029(3) 0.84866(6) 0.46719(13)
O6 O 0.5649(4) 0.82401(8) 0.93757(15)
H21 H 0.242(7) 0.9235(15) 0.165(3)
H22 H 0.412(7) 0.9037(13) 0.152(3)
O7 O 0.3122(4) 0.89469(8) 0.16479(17)
H23 H 0.771(10) 0.925(2) 0.133(4)
H24 H 0.599(9) 0.9066(19) 0.043(4)
O8 O 0.6380(5) 0.90876(12) 0.1056(2)
H25 H -0.002(7) 0.9881(7) 0.175(4)
H26 H 0.117(17) 0.971(3) 0.269(8)
O9 O 0.0365(4) 0.96121(7) 0.19363(19)
loop_
_geom_bond_atom_site_label_1
_geom_bond_atom_site_label_2
_geom_bond_site_symmetry_1
_geom_bond_site_symmetry_2
C1 C2 1_555 1_555
C2 C15 1_555 1_555
C3 C1 1_555 1_555
H1 C3 1_555 1_555
C4 C3 1_555 1_555
H2 C4 1_555 1_555
C5 C4 1_555 1_555
H3 C5 1_555 1_555
C6 C5 1_555 1_555
H4 C6 1_555 1_555
C7 C1 1_555 1_555
C8 C7 1_555 1_555
C9 C8 1_555 1_555
C10 H5 1_555 1_555
H6 C10 1_555 1_555
C11 C9 1_555 1_555
C12 C11 1_555 1_555
H7 C12 1_555 1_555
C13 C12 1_555 1_555
C14 C8 1_555 1_555
C15 C14 1_555 1_555
C16 H8 1_555 1_555
C17 C13 1_555 1_555
H9 C17 1_555 1_555
H10 C17 1_555 1_555
N1 C15 1_555 1_555
O1 C9 1_555 1_555
O2 C10 1_555 1_555
O3 C2 1_555 1_555
C18 H11 1_555 1_555
C19 C18 1_555 1_555
H12 C19 1_555 1_555
H13 C19 1_555 1_555
C20 C19 1_555 1_555
C21 C20 1_555 1_555
H14 C21 1_555 1_555
C22 C21 1_555 1_555
C23 H15 1_555 1_555
H16 C23 1_555 1_555
C24 C22 1_555 1_555
C25 C24 1_555 1_555
C26 C20 1_555 1_555
C27 C26 1_555 1_555
C28 C27 1_555 1_555
C29 C28 1_555 1_555
C30 C25 1_555 1_555
C31 C30 1_555 1_555
H17 C31 1_555 1_555
C32 C31 1_555 1_555
H18 C32 1_555 1_555
C33 C32 1_555 1_555
H19 C33 1_555 1_555
C34 C29 1_555 1_555
H20 C34 1_555 1_555
N2 C18 1_555 1_555
O4 C22 1_555 1_555
O5 C23 1_555 1_555
O6 C28 1_555 1_555
H21 O7 1_555 1_555
H22 O7 1_555 1_555
H23 O8 1_555 1_555
H24 O8 1_555 1_555
H25 O9 1_555 1_555
H26 O9 1_555 1_555
C6 C7 1_555 1_555
C10 O1 1_555 1_555
C11 O2 1_555 1_555
C13 C14 1_555 1_555
C16 C17 1_555 1_555
C16 N1 1_555 1_555
C23 O4 1_555 1_555
C24 O5 1_555 1_555
C25 C26 1_555 1_555
C27 N2 1_555 1_555
C29 C30 1_555 1_555
C33 C34 1_555 1_555

#END
