
#######################################################################
#
#                 Cambridge Crystallographic Data Centre
#                                CCDC 
#
#######################################################################
#
# If this CIF has been generated from an entry in the Cambridge 
# Structural Database, then it will include bibliographic, chemical, 
# crystal, experimental, refinement or atomic coordinate data resulting 
# from the CCDC's data processing and validation procedures.
#
#######################################################################

data_DEWSII
_chemical_formula_moiety         'C26 H25 N1 O3 Si1'
_chemical_name_systematic        
threo-1-(phenylethynyl)-3,4-diphenyl-silatrane
_symmetry_cell_setting           triclinic
_symmetry_space_group_name_H-M   'P -1'
_symmetry_Int_Tables_number      2
_space_group_name_Hall           '-P 1'
loop_
_symmetry_equiv_pos_site_id
_symmetry_equiv_pos_as_xyz
1 x,y,z
2 -x,-y,-z
_cell_length_a                   10.169(7)
_cell_length_b                   11.051(6)
_cell_length_c                   11.148(3)
_cell_angle_alpha                98.11(3)
_cell_angle_beta                 94.74(4)
_cell_angle_gamma                114.29(5)
_cell_volume                     1116.64
_exptl_crystal_colour            colorless
_exptl_crystal_description       block
_chemical_melting_point          'above 250 deg.C'
_cell_formula_units_Z            2
loop_
_atom_site_label
_atom_site_type_symbol
_atom_site_fract_x
_atom_site_fract_y
_atom_site_fract_z
Si1 Si 0.7640(2) 0.52688(19) 0.42044(17)
N1 N 0.8982(5) 0.7338(5) 0.5008(5)
O1 O 0.7938(4) 0.5008(4) 0.5617(4)
O2 O 0.8914(4) 0.5459(4) 0.3330(4)
O3 O 0.6403(5) 0.5820(5) 0.3846(4)
C1 C 0.6490(7) 0.3459(7) 0.3523(6)
C2 C 0.5741(7) 0.2303(8) 0.3078(6)
C3 C 0.4861(7) 0.0868(6) 0.2586(6)
C4 C 0.4685(10) -0.0070(9) 0.3308(8)
C5 C 0.3859(10) -0.1435(10) 0.2870(11)
C6 C 0.3173(9) -0.1851(10) 0.1652(10)
C7 C 0.3338(10) -0.0930(9) 0.0930(9)
C8 C 0.4145(8) 0.0427(8) 0.1369(6)
C9 C 0.8885(7) 0.6073(6) 0.6626(6)
C10 C 0.8882(7) 0.7384(6) 0.6337(5)
C11 C 0.8324(7) 0.5788(6) 0.7794(5)
C12 C 0.6860(8) 0.5316(7) 0.7864(8)
C13 C 0.6385(10) 0.5035(9) 0.8955(9)
C14 C 0.7312(11) 0.5259(8) 0.9993(8)
C15 C 0.8754(11) 0.5732(8) 0.9927(8)
C16 C 0.9279(8) 0.5996(7) 0.8845(7)
C17 C 1.0095(9) 0.6737(8) 0.3389(7)
C18 C 1.0427(7) 0.7573(7) 0.4662(6)
C19 C 0.9927(6) 0.8673(6) 0.7198(5)
C20 C 0.9381(9) 0.9518(7) 0.7789(6)
C21 C 1.0239(10) 1.0691(8) 0.8597(7)
C22 C 1.1693(10) 1.1048(8) 0.8825(7)
C23 C 1.2285(8) 1.0256(7) 0.8267(6)
H1 H 1.3288 1.0526 0.8419
C24 C 1.1399(7) 0.9051(7) 0.7477(6)
C25 C 0.6660(9) 0.7168(9) 0.4200(8)
C26 C 0.8281(9) 0.8073(8) 0.4432(8)
H2 H 0.515(8) 0.008(7) 0.416(6)
H3 H 0.380(6) -0.214(6) 0.326(5)
H4 H 0.246(8) -0.291(8) 0.133(6)
H5 H 0.295(8) -0.114(8) 0.005(8)
H6 H 0.418(6) 0.112(6) 0.081(6)
H7 H 1.017(6) 0.606(5) 0.680(5)
H8 H 0.784(5) 0.727(4) 0.635(4)
H9 H 0.620(7) 0.510(7) 0.715(6)
H10 H 0.543(6) 0.480(5) 0.899(4)
H11 H 0.695(7) 0.493(6) 1.079(6)
H12 H 0.926(7) 0.587(6) 1.065(6)
H13 H 1.042(7) 0.640(6) 0.876(5)
H14 H 1.007(6) 0.729(6) 0.273(5)
H15 H 1.101(6) 0.660(5) 0.326(4)
H16 H 1.081(5) 0.707(5) 0.528(5)
H17 H 1.131(5) 0.850(5) 0.460(4)
H18 H 0.831(6) 0.918(6) 0.751(5)
H19 H 0.979(6) 1.126(5) 0.907(5)
H20 H 1.219(5) 1.176(5) 0.938(4)
H21 H 1.183(4) 0.836(4) 0.714(4)
H22 H 0.612(6) 0.728(5) 0.490(5)
H23 H 0.623(5) 0.739(5) 0.373(5)
H24 H 0.856(6) 0.811(5) 0.352(6)
H25 H 0.863(8) 0.892(8) 0.481(6)
loop_
_geom_bond_atom_site_label_1
_geom_bond_atom_site_label_2
_geom_bond_site_symmetry_1
_geom_bond_site_symmetry_2
Si1 N1 1_555 1_555
N1 C10 1_555 1_555
O1 Si1 1_555 1_555
O2 Si1 1_555 1_555
O3 Si1 1_555 1_555
C1 Si1 1_555 1_555
C2 C1 1_555 1_555
C3 C2 1_555 1_555
C4 C3 1_555 1_555
C5 C4 1_555 1_555
C6 C5 1_555 1_555
C7 C6 1_555 1_555
C8 C3 1_555 1_555
C9 O1 1_555 1_555
C10 C9 1_555 1_555
C11 C9 1_555 1_555
C12 C11 1_555 1_555
C13 C12 1_555 1_555
C14 C13 1_555 1_555
C15 C14 1_555 1_555
C16 C11 1_555 1_555
C17 O2 1_555 1_555
C18 N1 1_555 1_555
C19 C10 1_555 1_555
C20 C19 1_555 1_555
C21 C20 1_555 1_555
C22 C21 1_555 1_555
C23 C22 1_555 1_555
H1 C23 1_555 1_555
C24 C19 1_555 1_555
C25 O3 1_555 1_555
C26 N1 1_555 1_555
H2 C4 1_555 1_555
H3 C5 1_555 1_555
H4 C6 1_555 1_555
H5 C7 1_555 1_555
H6 C8 1_555 1_555
H7 C9 1_555 1_555
H8 C10 1_555 1_555
H9 C12 1_555 1_555
H10 C13 1_555 1_555
H11 C14 1_555 1_555
H12 C15 1_555 1_555
H13 C16 1_555 1_555
H14 C17 1_555 1_555
H15 C17 1_555 1_555
H16 C18 1_555 1_555
H17 C18 1_555 1_555
H18 C20 1_555 1_555
H19 C21 1_555 1_555
H20 C22 1_555 1_555
H21 C24 1_555 1_555
H22 C25 1_555 1_555
H23 C25 1_555 1_555
H24 C26 1_555 1_555
H25 C26 1_555 1_555
C7 C8 1_555 1_555
C15 C16 1_555 1_555
C17 C18 1_555 1_555
C23 C24 1_555 1_555
C25 C26 1_555 1_555

#END
