
#######################################################################
#
#                 Cambridge Crystallographic Data Centre
#                                CCDC 
#
#######################################################################
#
# If this CIF has been generated from an entry in the Cambridge 
# Structural Database, then it will include bibliographic, chemical, 
# crystal, experimental, refinement or atomic coordinate data resulting 
# from the CCDC's data processing and validation procedures.
#
#######################################################################

data_DEWSAA
_chemical_formula_moiety         'C19 H22 Cl1 N1 O3 Si1'
_chemical_name_systematic        threo-1-(chloromethyl)-3,4-diphenylsilatrane
_symmetry_cell_setting           monoclinic
_symmetry_space_group_name_H-M   'C 2/c'
_symmetry_Int_Tables_number      15
_space_group_name_Hall           '-C 2yn'
loop_
_symmetry_equiv_pos_site_id
_symmetry_equiv_pos_as_xyz
1 x,y,z
2 1/2+x,1/2+y,z
3 -x,y,1/2-z
4 1/2-x,1/2+y,1/2-z
5 -x,-y,-z
6 1/2-x,1/2-y,-z
7 x,-y,1/2+z
8 1/2+x,1/2-y,1/2+z
_cell_length_a                   13.1203(3)
_cell_length_b                   12.6304(3)
_cell_length_c                   21.6576(4)
_cell_angle_alpha                90
_cell_angle_beta                 92.650(1)
_cell_angle_gamma                90
_cell_volume                     3585.14
_exptl_crystal_colour            colorless
_exptl_crystal_description       block
_chemical_melting_point          'above 255 deg.C'
_cell_formula_units_Z            8
loop_
_atom_site_label
_atom_site_type_symbol
_atom_site_fract_x
_atom_site_fract_y
_atom_site_fract_z
Si1 Si 0.16286(3) 0.40568(3) 0.435144(16)
Cl1 Cl 0.24517(3) 0.62354(3) 0.485945(18)
N1 N 0.05459(8) 0.28140(9) 0.42352(5)
C1 C 0.26843(12) 0.50805(11) 0.43982(7)
O1 O 0.23221(7) 0.32938(7) 0.39046(4)
C2 C 0.20202(10) 0.22793(10) 0.36809(6)
C3 C 0.08493(10) 0.22074(10) 0.36815(6)
O2 O 0.15767(8) 0.37942(7) 0.51027(4)
C4 C 0.08224(11) 0.30846(12) 0.53200(6)
C5 C 0.06348(11) 0.22410(11) 0.48289(6)
O3 O 0.07138(8) 0.48080(8) 0.40250(5)
C6 C -0.02309(12) 0.43831(13) 0.37984(8)
C7 C -0.04440(11) 0.33571(13) 0.41333(7)
C8 C 0.24116(10) 0.21329(10) 0.30392(6)
C9 C 0.28930(12) 0.12042(11) 0.28742(7)
C10 C 0.32796(15) 0.10979(13) 0.22885(9)
C11 C 0.31880(14) 0.19117(14) 0.18668(8)
C12 C 0.27020(12) 0.28401(13) 0.20245(7)
C13 C 0.23127(11) 0.29442(11) 0.26074(7)
C14 C 0.04364(10) 0.10924(10) 0.36163(6)
C15 C -0.04012(10) 0.09025(12) 0.32093(6)
C16 C -0.07656(12) -0.01202(12) 0.31086(7)
C17 C -0.03125(12) -0.09639(12) 0.34159(7)
C18 C 0.05086(12) -0.07901(12) 0.38311(7)
C19 C 0.08873(11) 0.02295(11) 0.39275(6)
H1 H 0.2346(11) 0.1738(11) 0.3957(7)
H2 H 0.0578(11) 0.2609(11) 0.3338(7)
H3 H 0.1250(13) 0.1801(13) 0.4824(7)
H4 H 0.0197(13) 0.3471(13) 0.5395(7)
H5 H 0.3326(14) 0.4793(14) 0.4577(8)
H6 H -0.0697(14) 0.1484(13) 0.2981(8)
H7 H 0.0037(13) 0.1818(13) 0.4886(7)
H8 H 0.2814(14) 0.5361(14) 0.3996(8)
H9 H 0.1090(12) 0.2773(12) 0.5705(7)
H10 H 0.1447(14) 0.0334(13) 0.4210(8)
H11 H -0.0954(13) 0.2915(13) 0.3919(8)
H12 H -0.1333(15) -0.0227(13) 0.2823(8)
H13 H -0.0696(13) 0.3499(13) 0.4533(8)
H14 H -0.0752(16) 0.4880(15) 0.3881(9)
H15 H 0.2009(14) 0.3586(14) 0.2723(8)
H16 H 0.2625(15) 0.3411(15) 0.1734(9)
H17 H 0.2962(14) 0.0657(15) 0.3150(8)
H18 H 0.0837(14) -0.1339(14) 0.4058(8)
H19 H -0.0558(15) -0.1674(15) 0.3342(8)
H20 H -0.0199(14) 0.4248(15) 0.3331(9)
H21 H 0.3468(17) 0.1832(17) 0.1478(10)
H22 H 0.3614(17) 0.0480(17) 0.2196(10)
loop_
_geom_bond_atom_site_label_1
_geom_bond_atom_site_label_2
_geom_bond_site_symmetry_1
_geom_bond_site_symmetry_2
Si1 N1 1_555 1_555
Cl1 C1 1_555 1_555
N1 C3 1_555 1_555
C1 Si1 1_555 1_555
O1 Si1 1_555 1_555
C2 O1 1_555 1_555
C3 C2 1_555 1_555
O2 Si1 1_555 1_555
C4 O2 1_555 1_555
C5 N1 1_555 1_555
O3 Si1 1_555 1_555
C6 O3 1_555 1_555
C7 N1 1_555 1_555
C8 C2 1_555 1_555
C9 C8 1_555 1_555
C10 C9 1_555 1_555
C11 C10 1_555 1_555
C12 C11 1_555 1_555
C13 C8 1_555 1_555
C14 C3 1_555 1_555
C15 C14 1_555 1_555
C16 C15 1_555 1_555
C17 C16 1_555 1_555
C18 C17 1_555 1_555
C19 C14 1_555 1_555
H1 C2 1_555 1_555
H2 C3 1_555 1_555
H3 C5 1_555 1_555
H4 C4 1_555 1_555
H5 C1 1_555 1_555
H6 C15 1_555 1_555
H7 C5 1_555 1_555
H8 C1 1_555 1_555
H9 C4 1_555 1_555
H10 C19 1_555 1_555
H11 C7 1_555 1_555
H12 C16 1_555 1_555
H13 C7 1_555 1_555
H14 C6 1_555 1_555
H15 C13 1_555 1_555
H16 C12 1_555 1_555
H17 C9 1_555 1_555
H18 C18 1_555 1_555
H19 C17 1_555 1_555
H20 C6 1_555 1_555
H21 C11 1_555 1_555
H22 C10 1_555 1_555
C4 C5 1_555 1_555
C6 C7 1_555 1_555
C12 C13 1_555 1_555
C18 C19 1_555 1_555

#END
