
#######################################################################
#
#                 Cambridge Crystallographic Data Centre
#                                CCDC 
#
#######################################################################
#
# If this CIF has been generated from an entry in the Cambridge 
# Structural Database, then it will include bibliographic, chemical, 
# crystal, experimental, refinement or atomic coordinate data resulting 
# from the CCDC's data processing and validation procedures.
#
#######################################################################

data_DEWSEG
_chemical_formula_moiety         'C26 H44 O3 Si1'
_chemical_name_systematic        
7-{[t-butyl(dimethyl)silyl]oxy}-2-hydroxy-3a,5a-dimethyl-8-methylidene-1-(propan-2-yl)-4,5,5a,6,7,8,9,10,10a,10b-decahydrocyclohepta[e]inden-3(3aH)-one
_symmetry_cell_setting           triclinic
_symmetry_space_group_name_H-M   'P -1'
_symmetry_Int_Tables_number      2
_space_group_name_Hall           '-P 1'
loop_
_symmetry_equiv_pos_site_id
_symmetry_equiv_pos_as_xyz
1 x,y,z
2 -x,-y,-z
_cell_length_a                   6.608(4)
_cell_length_b                   13.929(10)
_cell_length_c                   14.145(9)
_cell_angle_alpha                82.877(18)
_cell_angle_beta                 80.176(12)
_cell_angle_gamma                86.322(18)
_cell_volume                     1271.72
_exptl_crystal_colour            colorless
_exptl_crystal_description       block
_cell_formula_units_Z            2
loop_
_atom_site_label
_atom_site_type_symbol
_atom_site_fract_x
_atom_site_fract_y
_atom_site_fract_z
Si1 Si 0.74983(5) 0.85109(2) 0.29687(2)
O1 O 0.80239(14) 0.64419(7) 1.00076(6)
H1 H 0.871(3) 0.5980(12) 1.0245(12)
O2 O 0.90066(13) 0.80920(7) 0.37519(6)
O3 O 1.01046(15) 0.49388(7) 0.88453(7)
C1 C 0.75201(18) 0.61983(9) 0.91843(8)
C2 C 0.60603(18) 0.66509(9) 0.87168(8)
C3 C 0.60427(18) 0.62360(8) 0.77813(8)
H2 H 0.4600 0.6080 0.7752
C4 C 0.68615(17) 0.69195(8) 0.68571(8)
H3 H 0.5830 0.7475 0.6826
C5 C 0.68450(18) 0.64034(9) 0.59384(8)
C6 C 0.84043(18) 0.68088(9) 0.50599(8)
H4 H 0.9801 0.6601 0.5190
H5 H 0.8187 0.6498 0.4495
C7 C 0.83668(18) 0.79104(9) 0.47712(8)
H6 H 0.6928 0.8179 0.4939
C8 C 0.9284(2) 0.86826(9) 0.17805(9)
C9 C 0.8055(3) 0.89842(12) 0.09572(10)
H7 H 0.9004 0.9089 0.0344
H8 H 0.7248 0.9585 0.1077
H9 H 0.7130 0.8472 0.0924
C10 C 1.0483(2) 0.77262(11) 0.16006(10)
H10 H 0.9524 0.7233 0.1554
H11 H 1.1231 0.7514 0.2137
H12 H 1.1462 0.7820 0.0996
C11 C 1.0820(2) 0.94579(11) 0.17917(11)
H13 H 1.1803 0.9502 0.1187
H14 H 1.1560 0.9283 0.2337
H15 H 1.0080 1.0085 0.1858
C12 C 0.97587(19) 0.84117(9) 0.52753(9)
C13 C 0.9185(2) 0.83756(9) 0.63528(9)
H16 H 0.7886 0.8764 0.6498
H17 H 1.0262 0.8691 0.6597
C14 C 0.89082(18) 0.73624(9) 0.69137(9)
H18 H 0.8990 0.7402 0.7600
H19 H 1.0056 0.6925 0.6657
C15 C 0.46730(19) 0.65252(10) 0.56771(9)
H20 H 0.4609 0.6160 0.5135
H21 H 0.4350 0.7212 0.5494
H22 H 0.3674 0.6281 0.6236
C16 C 0.7369(2) 0.53013(9) 0.61303(9)
H23 H 0.6071 0.4955 0.6298
H24 H 0.8135 0.5076 0.5527
C17 C 0.8637(2) 0.50291(9) 0.69340(9)
H25 H 0.9911 0.5394 0.6797
H26 H 0.9025 0.4329 0.6978
C18 C 0.73444(19) 0.52735(9) 0.78885(9)
C19 C 0.85698(19) 0.54186(9) 0.86627(9)
C20 C 0.46750(19) 0.74711(9) 0.90856(9)
H27 H 0.4387 0.7335 0.9806
C21 C 0.2604(2) 0.75485(12) 0.87336(11)
H28 H 0.2822 0.7698 0.8029
H29 H 0.1738 0.8065 0.9029
H30 H 0.1925 0.6932 0.8917
C22 C 0.5757(2) 0.84304(10) 0.88461(10)
H31 H 0.7101 0.8353 0.9058
H32 H 0.4918 0.8932 0.9180
H33 H 0.5946 0.8621 0.8147
C23 C 0.5898(2) 0.44513(10) 0.83332(10)
H34 H 0.6715 0.3870 0.8526
H35 H 0.5080 0.4309 0.7855
H36 H 0.4979 0.4652 0.8901
C24 C 0.5542(2) 0.76148(10) 0.29515(11)
H37 H 0.6229 0.6983 0.2846
H38 H 0.4758 0.7831 0.2429
H39 H 0.4606 0.7558 0.3571
C25 C 0.6193(2) 0.96795(10) 0.32861(10)
H40 H 0.5497 0.9598 0.3959
H41 H 0.5181 0.9880 0.2860
H42 H 0.7215 1.0176 0.3206
C26 C 1.1386(2) 0.88699(10) 0.47971(10)
H43 H 1.2222 0.9186 0.5136
H44 H 1.1717 0.8883 0.4115
loop_
_geom_bond_atom_site_label_1
_geom_bond_atom_site_label_2
_geom_bond_site_symmetry_1
_geom_bond_site_symmetry_2
Si1 O2 1_555 1_555
O1 H1 1_555 1_555
O2 C7 1_555 1_555
O3 C19 1_555 1_555
C1 O1 1_555 1_555
C2 C1 1_555 1_555
C3 C2 1_555 1_555
H2 C3 1_555 1_555
C4 C3 1_555 1_555
H3 C4 1_555 1_555
C5 C4 1_555 1_555
C6 C5 1_555 1_555
H4 C6 1_555 1_555
H5 C6 1_555 1_555
C7 C6 1_555 1_555
H6 C7 1_555 1_555
C8 Si1 1_555 1_555
C9 C8 1_555 1_555
H7 C9 1_555 1_555
H8 C9 1_555 1_555
H9 C9 1_555 1_555
C10 C8 1_555 1_555
H10 C10 1_555 1_555
H11 C10 1_555 1_555
H12 C10 1_555 1_555
C11 C8 1_555 1_555
H13 C11 1_555 1_555
H14 C11 1_555 1_555
H15 C11 1_555 1_555
C12 C7 1_555 1_555
C13 C12 1_555 1_555
H16 C13 1_555 1_555
H17 C13 1_555 1_555
C14 C4 1_555 1_555
H18 C14 1_555 1_555
H19 C14 1_555 1_555
C15 C5 1_555 1_555
H20 C15 1_555 1_555
H21 C15 1_555 1_555
H22 C15 1_555 1_555
C16 C5 1_555 1_555
H23 C16 1_555 1_555
H24 C16 1_555 1_555
C17 C16 1_555 1_555
H25 C17 1_555 1_555
H26 C17 1_555 1_555
C18 C3 1_555 1_555
C19 C1 1_555 1_555
C20 C2 1_555 1_555
H27 C20 1_555 1_555
C21 C20 1_555 1_555
H28 C21 1_555 1_555
H29 C21 1_555 1_555
H30 C21 1_555 1_555
C22 C20 1_555 1_555
H31 C22 1_555 1_555
H32 C22 1_555 1_555
H33 C22 1_555 1_555
C23 C18 1_555 1_555
H34 C23 1_555 1_555
H35 C23 1_555 1_555
H36 C23 1_555 1_555
C24 Si1 1_555 1_555
H37 C24 1_555 1_555
H38 C24 1_555 1_555
H39 C24 1_555 1_555
C25 Si1 1_555 1_555
H40 C25 1_555 1_555
H41 C25 1_555 1_555
H42 C25 1_555 1_555
C26 C12 1_555 1_555
H43 C26 1_555 1_555
H44 C26 1_555 1_555
C13 C14 1_555 1_555
C17 C18 1_555 1_555
C18 C19 1_555 1_555

#END
