
#######################################################################
#
#                 Cambridge Crystallographic Data Centre
#                                CCDC 
#
#######################################################################
#
# If this CIF has been generated from an entry in the Cambridge 
# Structural Database, then it will include bibliographic, chemical, 
# crystal, experimental, refinement or atomic coordinate data resulting 
# from the CCDC's data processing and validation procedures.
#
#######################################################################

data_DEWSEE
_chemical_formula_moiety         'C18 H20 B1 N1 O3'
_chemical_name_systematic        threo-3,4-diphenylboratrane
_symmetry_cell_setting           monoclinic
_symmetry_space_group_name_H-M   'P 21/n'
_symmetry_Int_Tables_number      14
_space_group_name_Hall           '-P 2yn'
loop_
_symmetry_equiv_pos_site_id
_symmetry_equiv_pos_as_xyz
1 x,y,z
2 1/2-x,1/2+y,1/2-z
3 -x,-y,-z
4 1/2+x,1/2-y,1/2+z
_cell_length_a                   14.657(3)
_cell_length_b                   14.784(5)
_cell_length_c                   14.694(4)
_cell_angle_alpha                90
_cell_angle_beta                 101.86(2)
_cell_angle_gamma                90
_cell_volume                     3116.06
_exptl_crystal_colour            colorless
_exptl_crystal_description       block
_chemical_melting_point          '255-257 deg.C'
_cell_formula_units_Z            8
loop_
_atom_site_label
_atom_site_type_symbol
_atom_site_fract_x
_atom_site_fract_y
_atom_site_fract_z
B1 B 0.02066(19) 0.2451(2) 0.6896(2)
N1 N 0.13791(12) 0.25092(12) 0.71160(12)
O1 O 0.00314(10) 0.14939(10) 0.67467(11)
C1 C 0.08150(16) 0.10217(16) 0.72718(18)
C2 C 0.16489(15) 0.15313(16) 0.70440(17)
O2 O -0.00129(11) 0.27769(12) 0.77461(12)
C3 C 0.0696(2) 0.3392(2) 0.8138(2)
C4 C 0.1601(2) 0.2935(2) 0.80499(19)
O3 O -0.00643(11) 0.30147(12) 0.60999(12)
C5 C 0.0675(2) 0.3034(2) 0.5613(2)
C6 C 0.15640(19) 0.3099(2) 0.63487(19)
C7 C 0.08077(15) 0.00391(16) 0.70308(18)
C8 C 0.07225(18) -0.02317(19) 0.6115(2)
C9 C 0.07389(19) -0.11391(19) 0.5885(2)
C10 C 0.08329(19) -0.1784(2) 0.6578(3)
C11 C 0.09235(19) -0.1526(2) 0.7479(2)
C12 C 0.09198(17) -0.06196(19) 0.7713(2)
C13 C 0.26078(15) 0.12531(15) 0.75361(16)
C14 C 0.28203(17) 0.09795(17) 0.84644(18)
C15 C 0.37120(18) 0.07145(17) 0.8877(2)
C16 C 0.44065(19) 0.07047(18) 0.8374(2)
C17 C 0.42031(18) 0.09464(19) 0.7451(2)
C18 C 0.33127(17) 0.12150(17) 0.70392(18)
H1 H 0.4652(16) 0.0893(16) 0.7064(17)
H2 H 0.1618(12) 0.1434(12) 0.6381(13)
H3 H 0.0825(13) 0.1073(13) 0.7935(14)
H4 H 0.3828(14) 0.0531(15) 0.9514(16)
H5 H 0.3189(13) 0.1382(14) 0.6399(15)
H6 H 0.0681(15) -0.1316(16) 0.5245(17)
H7 H 0.5004(16) 0.0457(16) 0.8691(15)
H8 H 0.2127(16) 0.2937(15) 0.6148(15)
H9 H 0.1795(15) 0.2458(16) 0.8512(16)
H10 H 0.2346(15) 0.0982(15) 0.8815(15)
H11 H 0.1636(16) 0.3738(17) 0.6610(16)
H12 H 0.0971(14) -0.0445(15) 0.8372(15)
H13 H 0.0708(17) 0.2484(18) 0.5223(17)
H14 H 0.0683(17) 0.0217(18) 0.5650(18)
H15 H 0.0667(17) 0.3477(18) 0.8776(19)
H16 H 0.2079(14) 0.3362(15) 0.8091(13)
H17 H 0.0607(17) 0.3961(19) 0.7790(18)
H18 H 0.0569(17) 0.3546(18) 0.5188(18)
H19 H 0.0991(15) -0.1963(17) 0.7971(16)
H20 H 0.0840(16) -0.2366(17) 0.6416(16)
B2 B 0.2803(2) 0.4202(2) 0.4412(2)
N2 N 0.27553(12) 0.40820(13) 0.32617(13)
O4 O 0.27968(12) 0.32798(12) 0.47206(11)
C19 C 0.23456(18) 0.27238(18) 0.39762(17)
C20 C 0.27069(17) 0.30689(17) 0.31211(16)
O5 O 0.19751(12) 0.47081(13) 0.44274(13)
C21 C 0.1801(2) 0.5262(2) 0.3608(2)
C22 C 0.19104(19) 0.4612(2) 0.2837(2)
O6 O 0.36604(13) 0.46674(13) 0.47227(12)
C23 C 0.4257(2) 0.4436(3) 0.4101(2)
C24 C 0.36460(18) 0.4499(2) 0.31392(19)
C25 C 0.25822(18) 0.17492(18) 0.41957(16)
C26 C 0.1897(2) 0.1086(2) 0.4117(2)
C27 C 0.2129(3) 0.0203(2) 0.4338(2)
C28 C 0.3027(4) -0.0045(3) 0.4651(2)
C29 C 0.3722(3) 0.0601(3) 0.4735(2)
C30 C 0.3499(2) 0.1488(3) 0.4510(2)
C31 C 0.22123(15) 0.27553(16) 0.21729(16)
C32 C 0.12874(18) 0.24720(19) 0.19751(19)
C33 C 0.0875(2) 0.2168(2) 0.1093(2)
C34 C 0.1373(2) 0.2150(2) 0.0402(2)
C35 C 0.2285(2) 0.2432(2) 0.05825(19)
C36 C 0.26963(18) 0.27286(17) 0.14544(17)
H21 H 0.4778(15) 0.4831(15) 0.4187(15)
H22 H 0.3375(13) 0.2869(12) 0.3213(12)
H23 H 0.1624(13) 0.2830(12) 0.3864(12)
H24 H 0.3890(14) 0.4202(15) 0.2636(16)
H25 H 0.2352(17) 0.5784(18) 0.3724(17)
H26 H 0.2032(15) 0.4922(16) 0.2200(17)
H27 H 0.1077(15) 0.1940(16) -0.0243(16)
H28 H 0.2647(16) 0.2392(17) 0.0157(17)
H29 H 0.3458(16) 0.5142(18) 0.2977(17)
H30 H 0.0923(15) 0.2498(16) 0.2504(16)
H31 H 0.1396(15) 0.4179(16) 0.2739(15)
H32 H 0.398(2) 0.193(2) 0.458(2)
H33 H 0.4524(19) 0.371(2) 0.424(2)
H34 H 0.0214(19) 0.1990(19) 0.0943(18)
H35 H 0.3343(15) 0.2936(16) 0.1578(15)
H36 H 0.319(3) -0.071(3) 0.481(3)
H37 H 0.1161(18) 0.5540(18) 0.3517(17)
H38 H 0.121(2) 0.1290(19) 0.3882(19)
H39 H 0.441(2) 0.047(2) 0.500(2)
H40 H 0.160(2) -0.029(2) 0.425(2)
loop_
_geom_bond_atom_site_label_1
_geom_bond_atom_site_label_2
_geom_bond_site_symmetry_1
_geom_bond_site_symmetry_2
B1 N1 1_555 1_555
N1 C2 1_555 1_555
O1 B1 1_555 1_555
C1 O1 1_555 1_555
C2 C1 1_555 1_555
O2 B1 1_555 1_555
C3 O2 1_555 1_555
C4 N1 1_555 1_555
O3 B1 1_555 1_555
C5 O3 1_555 1_555
C6 N1 1_555 1_555
C7 C1 1_555 1_555
C8 C7 1_555 1_555
C9 C8 1_555 1_555
C10 C9 1_555 1_555
C11 C10 1_555 1_555
C12 C7 1_555 1_555
C13 C2 1_555 1_555
C14 C13 1_555 1_555
C15 C14 1_555 1_555
C16 C15 1_555 1_555
C17 C16 1_555 1_555
C18 C13 1_555 1_555
H1 C17 1_555 1_555
H2 C2 1_555 1_555
H3 C1 1_555 1_555
H4 C15 1_555 1_555
H5 C18 1_555 1_555
H6 C9 1_555 1_555
H7 C16 1_555 1_555
H8 C6 1_555 1_555
H9 C4 1_555 1_555
H10 C14 1_555 1_555
H11 C6 1_555 1_555
H12 C12 1_555 1_555
H13 C5 1_555 1_555
H14 C8 1_555 1_555
H15 C3 1_555 1_555
H16 C4 1_555 1_555
H17 C3 1_555 1_555
H18 C5 1_555 1_555
H19 C11 1_555 1_555
H20 C10 1_555 1_555
B2 N2 1_555 1_555
N2 C20 1_555 1_555
O4 B2 1_555 1_555
C19 O4 1_555 1_555
C20 C19 1_555 1_555
O5 B2 1_555 1_555
C21 O5 1_555 1_555
C22 N2 1_555 1_555
O6 B2 1_555 1_555
C23 O6 1_555 1_555
C24 N2 1_555 1_555
C25 C19 1_555 1_555
C26 C25 1_555 1_555
C27 C26 1_555 1_555
C28 C27 1_555 1_555
C29 C28 1_555 1_555
C30 C25 1_555 1_555
C31 C20 1_555 1_555
C32 C31 1_555 1_555
C33 C32 1_555 1_555
C34 C33 1_555 1_555
C35 C34 1_555 1_555
C36 C31 1_555 1_555
H21 C23 1_555 1_555
H22 C20 1_555 1_555
H23 C19 1_555 1_555
H24 C24 1_555 1_555
H25 C21 1_555 1_555
H26 C22 1_555 1_555
H27 C34 1_555 1_555
H28 C35 1_555 1_555
H29 C24 1_555 1_555
H30 C32 1_555 1_555
H31 C22 1_555 1_555
H32 C30 1_555 1_555
H33 C23 1_555 1_555
H34 C33 1_555 1_555
H35 C36 1_555 1_555
H36 C28 1_555 1_555
H37 C21 1_555 1_555
H38 C26 1_555 1_555
H39 C29 1_555 1_555
H40 C27 1_555 1_555
C3 C4 1_555 1_555
C5 C6 1_555 1_555
C11 C12 1_555 1_555
C17 C18 1_555 1_555
C21 C22 1_555 1_555
C23 C24 1_555 1_555
C29 C30 1_555 1_555
C35 C36 1_555 1_555

#END
