
#######################################################################
#
#                 Cambridge Crystallographic Data Centre
#                                CCDC 
#
#######################################################################
#
# If this CIF has been generated from an entry in the Cambridge 
# Structural Database, then it will include bibliographic, chemical, 
# crystal, experimental, refinement or atomic coordinate data resulting 
# from the CCDC's data processing and validation procedures.
#
#######################################################################

data_DEWVIN
_chemical_formula_moiety         'C15 H16 O3'
_chemical_name_systematic        
2,2-dimethyl-2H,7'H-spiro[1-benzofuran-3,6'-[4]oxabicyclo[3.2.0]heptan]-7'-one
_symmetry_cell_setting           monoclinic
_symmetry_space_group_name_H-M   'P 21/c'
_symmetry_Int_Tables_number      14
_space_group_name_Hall           '-P 2ybc'
loop_
_symmetry_equiv_pos_site_id
_symmetry_equiv_pos_as_xyz
1 x,y,z
2 -x,1/2+y,1/2-z
3 -x,-y,-z
4 x,1/2-y,1/2+z
_cell_length_a                   13.9529(8)
_cell_length_b                   9.5087(4)
_cell_length_c                   10.0634(6)
_cell_angle_alpha                90
_cell_angle_beta                 100.872(6)
_cell_angle_gamma                90
_cell_volume                     1311.19
_exptl_crystal_colour            colorless
_exptl_crystal_description       block
_cell_formula_units_Z            4
loop_
_atom_site_label
_atom_site_type_symbol
_atom_site_fract_x
_atom_site_fract_y
_atom_site_fract_z
O1 O 0.32257(13) 0.05830(17) 0.75661(18)
O2 O 0.14706(13) -0.02992(17) 0.35275(16)
C1 C 0.26149(15) -0.0860(2) 0.5530(2)
O3 O 0.41396(13) -0.13469(19) 0.45913(18)
C2 C 0.19642(15) -0.2089(2) 0.5028(2)
C3 C 0.36764(17) -0.1269(2) 0.5475(2)
C4 C 0.29539(16) -0.0783(2) 0.7088(2)
H1 H 0.254110 -0.129559 0.761088
C5 C 0.13373(16) -0.1671(2) 0.3862(2)
C6 C 0.39247(17) -0.1516(3) 0.6991(2)
H2 H 0.395315 -0.251025 0.725382
C7 C 0.19297(19) -0.3451(2) 0.5489(3)
H3 H 0.234852 -0.375181 0.626782
C8 C 0.4718(2) -0.0613(3) 0.7816(3)
H4 H 0.491217 -0.097063 0.872976
H5 H 0.528765 -0.055889 0.739387
C9 C 0.0629(2) -0.3911(3) 0.3601(3)
H6 H 0.017545 -0.453454 0.312767
C10 C 0.20778(19) 0.0372(2) 0.4717(2)
C11 C 0.06651(18) -0.2568(3) 0.3134(3)
H7 H 0.024897 -0.227030 0.235180
C12 C 0.1243(2) -0.4367(3) 0.4745(3)
H8 H 0.120362 -0.529204 0.503122
C13 C 0.2718(2) 0.1422(3) 0.4179(3)
H9 H 0.310431 0.094573 0.362365
H10 H 0.313969 0.187108 0.492129
H11 H 0.231700 0.211669 0.364876
C14 C 0.1364(2) 0.1071(3) 0.5495(3)
H12 H 0.095277 0.171355 0.491001
H13 H 0.172196 0.157396 0.625677
H14 H 0.096787 0.036316 0.580741
C15 C 0.4223(7) 0.0793(10) 0.7806(9)
H15 H 0.442922 0.125867 0.867061
H16 H 0.439896 0.138534 0.710477
H17? H 0.515353 -0.116846 0.847959
H18? H 0.509631 -0.012800 0.724040
C16? C 0.4130(7) 0.0405(9) 0.8485(7)
H19? H 0.402009 0.002935 0.933998
H20? H 0.446806 0.129676 0.865250
loop_
_geom_bond_atom_site_label_1
_geom_bond_atom_site_label_2
_geom_bond_site_symmetry_1
_geom_bond_site_symmetry_2
O1 C4 1_555 1_555
O2 C5 1_555 1_555
C1 C2 1_555 1_555
O3 C3 1_555 1_555
C2 C5 1_555 1_555
C3 C1 1_555 1_555
C4 C1 1_555 1_555
H1 C4 1_555 1_555
C5 C11 1_555 1_555
C6 C3 1_555 1_555
H2 C6 1_555 1_555
C7 C2 1_555 1_555
H3 C7 1_555 1_555
C8 C6 1_555 1_555
H4 C8 1_555 1_555
H5 C8 1_555 1_555
C9 H6 1_555 1_555
C10 O2 1_555 1_555
C11 C9 1_555 1_555
H7 C11 1_555 1_555
C12 C7 1_555 1_555
H8 C12 1_555 1_555
C13 C10 1_555 1_555
H9 C13 1_555 1_555
H10 C13 1_555 1_555
H11 C13 1_555 1_555
C14 C10 1_555 1_555
H12 C14 1_555 1_555
H13 C14 1_555 1_555
H14 C14 1_555 1_555
C15 O1 1_555 1_555
H15 C15 1_555 1_555
H16 C15 1_555 1_555
C1 C10 1_555 1_555
C4 C6 1_555 1_555
C8 C15 1_555 1_555
C9 C12 1_555 1_555

#END
