
#######################################################################
#
#                 Cambridge Crystallographic Data Centre
#                                CCDC 
#
#######################################################################
#
# If this CIF has been generated from an entry in the Cambridge 
# Structural Database, then it will include bibliographic, chemical, 
# crystal, experimental, refinement or atomic coordinate data resulting 
# from the CCDC's data processing and validation procedures.
#
#######################################################################

data_DEWXOU
_chemical_formula_moiety         'C18 H28 O7,C18 H30 N1 O2 1+,F6 P1 1-'
_chemical_name_systematic        
'5-(Butyryloxy)-N-(3,5-dimethylbenzyl)pentan-1-aminium hexafluorophosphate 2,3,5,6,8,9,11,12,14,15,17,18-dodecahydro-1,4,7,10,13,16,19-benzoheptaoxacyclohenicosine'
_symmetry_cell_setting           monoclinic
_symmetry_space_group_name_H-M   'P 21/n'
_symmetry_Int_Tables_number      14
_space_group_name_Hall           '-P 2yn'
loop_
_symmetry_equiv_pos_site_id
_symmetry_equiv_pos_as_xyz
1 x,y,z
2 1/2-x,1/2+y,1/2-z
3 -x,-y,-z
4 1/2+x,1/2-y,1/2+z
_cell_length_a                   12.9587(8)
_cell_length_b                   15.3868(9)
_cell_length_c                   19.5493(12)
_cell_angle_alpha                90
_cell_angle_beta                 92.997(6)
_cell_angle_gamma                90
_cell_volume                     3892.66
_exptl_crystal_colour            colorless
_exptl_crystal_description       block
_cell_formula_units_Z            4
loop_
_atom_site_label
_atom_site_type_symbol
_atom_site_fract_x
_atom_site_fract_y
_atom_site_fract_z
P1 P 1.23160(5) 0.91295(4) 0.08112(3)
F1 F 1.20638(12) 0.89247(10) 0.00201(7)
F2 F 1.34968(12) 0.92586(14) 0.06561(8)
F3 F 1.25675(14) 0.93313(13) 0.15972(8)
F4 F 1.11473(11) 0.89859(10) 0.09712(9)
F5 F 1.25204(13) 0.81201(10) 0.09412(8)
F6 F 1.20922(16) 1.01285(10) 0.06662(10)
O1 O 0.86695(11) 1.06445(9) 0.47070(7)
O2 O 0.80273(11) 0.88271(9) 0.44306(7)
O3 O 0.79650(11) 0.77756(9) 0.31605(7)
O4 O 0.81426(11) 0.83819(9) 0.17938(7)
O5 O 0.93695(11) 0.98587(9) 0.15527(7)
O6 O 1.00344(11) 1.13345(9) 0.24427(7)
O7 O 0.96550(11) 1.16596(9) 0.38844(7)
C1 C 0.91345(16) 1.20687(13) 0.43876(11)
C2 C 0.91261(18) 1.29598(14) 0.44895(12)
H1 H 0.9518 1.3327 0.4211
C3 C 0.8546(2) 1.33177(15) 0.49977(13)
H2 H 0.8548 1.3929 0.5067
C4 C 0.7976(2) 1.27967(16) 0.53986(12)
H3 H 0.7570 1.3047 0.5738
C5 C 0.79883(18) 1.18954(15) 0.53087(11)
H4 H 0.7590 1.1534 0.5588
C6 C 0.85777(16) 1.15277(13) 0.48163(11)
C7 C 0.81395(18) 1.00825(13) 0.51563(11)
H5 H 0.7384 1.0131 0.5059
H6 H 0.8295 1.0258 0.5638
C8 C 0.84743(17) 0.91651(14) 0.50558(10)
H7 H 0.9237 0.9141 0.5048
H8 H 0.8261 0.8804 0.5443
C9 C 0.81939(19) 0.79092(13) 0.43848(11)
H9 H 0.8008 0.7624 0.4815
H10 H 0.8932 0.7791 0.4316
C10 C 0.75420(19) 0.75521(14) 0.37954(11)
H11 H 0.7502 0.6912 0.3836
H12 H 0.6832 0.7788 0.3808
C11 C 0.73010(17) 0.75080(14) 0.25887(11)
H13 H 0.6709 0.7912 0.2530
H14 H 0.7029 0.6918 0.2672
C12 C 0.79029(18) 0.75066(14) 0.19573(11)
H15 H 0.8547 0.7167 0.2037
H16 H 0.7490 0.7237 0.1573
C13 C 0.87493(18) 0.84522(15) 0.12104(11)
H17 H 0.8423 0.8116 0.0825
H18 H 0.9447 0.8210 0.1318
C14 C 0.88331(18) 0.93834(15) 0.10123(11)
H19 H 0.9212 0.9432 0.0587
H20 H 0.8134 0.9631 0.0923
C15 C 0.97447(18) 1.06778(14) 0.13297(11)
H21 H 0.9161 1.1090 0.1264
H22 H 1.0065 1.0606 0.0885
C16 C 1.05243(18) 1.10385(15) 0.18456(12)
H23 H 1.1038 1.0584 0.1977
H24 H 1.0895 1.1528 0.1640
C17 C 1.07687(17) 1.16828(15) 0.29397(12)
H25 H 1.1272 1.2049 0.2708
H26 H 1.1152 1.1201 0.3173
C18 C 1.02439(17) 1.22145(14) 0.34577(11)
H27 H 1.0767 1.2537 0.3745
H28 H 0.9779 1.2643 0.3222
O8 O 1.05281(13) 0.65253(11) 0.19267(9)
O9 O 1.16673(18) 0.59203(17) 0.12548(13)
N1 N 0.88585(13) 0.94544(10) 0.29271(8)
H29 H 0.8573 0.8911 0.2969
H30 H 0.8993 0.9533 0.2474
C19 C 0.62622(16) 0.95437(13) 0.30646(11)
H31 H 0.6373 0.9349 0.3524
C20 C 0.53121(17) 0.93883(13) 0.27177(11)
C21 C 0.51606(17) 0.96882(13) 0.20519(11)
H32 H 0.4514 0.9587 0.1813
C22 C 0.59259(17) 1.01324(13) 0.17223(11)
C23 C 0.68702(16) 1.02649(13) 0.20777(11)
H33 H 0.7406 1.0558 0.1857
C24 C 0.70508(16) 0.99791(12) 0.27490(10)
C25 C 0.44662(19) 0.89013(17) 0.30570(13)
H34 H 0.4707 0.8315 0.3178
H35 H 0.3856 0.8863 0.2741
H36 H 0.4287 0.9210 0.3473
C26 C 0.57294(19) 1.04744(17) 0.10041(12)
H37 H 0.5207 1.0113 0.0760
H38 H 0.6373 1.0457 0.0762
H39 H 0.5481 1.1075 0.1023
C27 C 0.80838(16) 1.01197(13) 0.31240(11)
H40 H 0.8343 1.0707 0.3018
H41 H 0.7999 1.0088 0.3624
C28 C 0.98577(16) 0.94831(13) 0.33444(10)
H42 H 0.9760 0.9218 0.3798
H43 H 1.0064 1.0097 0.3419
C29 C 1.07177(16) 0.90038(14) 0.29992(11)
H44 H 1.0791 0.9258 0.2539
H45 H 1.1375 0.9104 0.3269
C30 C 1.05549(16) 0.80317(14) 0.29210(11)
H46 H 0.9941 0.7927 0.2609
H47 H 1.0413 0.7781 0.3373
C31 C 1.14836(18) 0.75695(15) 0.26407(13)
H48 H 1.1670 0.7862 0.2213
H49 H 1.2079 0.7625 0.2977
C32 C 1.1294(2) 0.66161(16) 0.24922(14)
H50 H 1.1948 0.6334 0.2373
H51 H 1.1046 0.6326 0.2905
C33 C 1.0805(2) 0.61638(17) 0.13398(15)
C34 C 0.9913(3) 0.60783(18) 0.08257(14)
H52 H 0.9366 0.6485 0.0959
H53 H 0.9632 0.5483 0.0863
C35 C 1.0109(3) 0.6244(2) 0.00731(16)
H54 H 1.0758 0.5950 -0.0040
H55 H 0.9539 0.5985 -0.0216
C36 C 1.0189(3) 0.7174(2) -0.00920(18)
H56 H 1.0159 0.7249 -0.0590
H57 H 1.0846 0.7403 0.0103
H58 H 0.9615 0.7489 0.0101
H59? H 0.9258 0.6345 0.0960
H60? H 0.9808 0.5491 0.0628
H61? H 0.9506 0.6933 -0.0220
H62? H 1.0619 0.7160 -0.0489
H63? H 1.0114 0.7776 0.0061
C37? C 1.0644(11) 0.6693(9) 0.0425(7)
H64? H 1.0990 0.7096 0.0758
H65? H 1.1188 0.6331 0.0231
loop_
_geom_bond_atom_site_label_1
_geom_bond_atom_site_label_2
_geom_bond_site_symmetry_1
_geom_bond_site_symmetry_2
P1 F1 1_555 1_555
F2 P1 1_555 1_555
F3 P1 1_555 1_555
F4 P1 1_555 1_555
F5 P1 1_555 1_555
F6 P1 1_555 1_555
O1 C6 1_555 1_555
O2 C8 1_555 1_555
O3 C10 1_555 1_555
O4 C12 1_555 1_555
O5 C14 1_555 1_555
O6 C16 1_555 1_555
O7 C1 1_555 1_555
C1 C2 1_555 1_555
C2 H1 1_555 1_555
C3 C2 1_555 1_555
H2 C3 1_555 1_555
C4 C3 1_555 1_555
H3 C4 1_555 1_555
C5 C4 1_555 1_555
H4 C5 1_555 1_555
C6 C1 1_555 1_555
C7 O1 1_555 1_555
H5 C7 1_555 1_555
H6 C7 1_555 1_555
C8 C7 1_555 1_555
H7 C8 1_555 1_555
H8 C8 1_555 1_555
C9 O2 1_555 1_555
H9 C9 1_555 1_555
H10 C9 1_555 1_555
C10 C9 1_555 1_555
H11 C10 1_555 1_555
H12 C10 1_555 1_555
C11 O3 1_555 1_555
H13 C11 1_555 1_555
H14 C11 1_555 1_555
C12 C11 1_555 1_555
H15 C12 1_555 1_555
H16 C12 1_555 1_555
C13 O4 1_555 1_555
H17 C13 1_555 1_555
H18 C13 1_555 1_555
C14 C13 1_555 1_555
H19 C14 1_555 1_555
H20 C14 1_555 1_555
C15 O5 1_555 1_555
H21 C15 1_555 1_555
H22 C15 1_555 1_555
C16 C15 1_555 1_555
H23 C16 1_555 1_555
H24 C16 1_555 1_555
C17 O6 1_555 1_555
H25 C17 1_555 1_555
H26 C17 1_555 1_555
C18 O7 1_555 1_555
H27 C18 1_555 1_555
H28 C18 1_555 1_555
O8 C32 1_555 1_555
O9 C33 1_555 1_555
N1 H29 1_555 1_555
H30 N1 1_555 1_555
C19 H31 1_555 1_555
C20 C19 1_555 1_555
C21 C20 1_555 1_555
H32 C21 1_555 1_555
C22 C21 1_555 1_555
C23 C22 1_555 1_555
H33 C23 1_555 1_555
C24 C19 1_555 1_555
C25 C20 1_555 1_555
H34 C25 1_555 1_555
H35 C25 1_555 1_555
H36 C25 1_555 1_555
C26 C22 1_555 1_555
H37 C26 1_555 1_555
H38 C26 1_555 1_555
H39 C26 1_555 1_555
C27 N1 1_555 1_555
H40 C27 1_555 1_555
H41 C27 1_555 1_555
C28 N1 1_555 1_555
H42 C28 1_555 1_555
H43 C28 1_555 1_555
C29 C28 1_555 1_555
H44 C29 1_555 1_555
H45 C29 1_555 1_555
C30 C29 1_555 1_555
H46 C30 1_555 1_555
H47 C30 1_555 1_555
C31 C30 1_555 1_555
H48 C31 1_555 1_555
H49 C31 1_555 1_555
C32 C31 1_555 1_555
H50 C32 1_555 1_555
H51 C32 1_555 1_555
C33 O8 1_555 1_555
C34 C33 1_555 1_555
H52 C34 1_555 1_555
H53 C34 1_555 1_555
C35 C34 1_555 1_555
H54 C35 1_555 1_555
H55 C35 1_555 1_555
C36 C35 1_555 1_555
H56 C36 1_555 1_555
H57 C36 1_555 1_555
H58 C36 1_555 1_555
C5 C6 1_555 1_555
C17 C18 1_555 1_555
C23 C24 1_555 1_555
C24 C27 1_555 1_555

#END
