
#######################################################################
#
#                 Cambridge Crystallographic Data Centre
#                                CCDC 
#
#######################################################################
#
# If this CIF has been generated from an entry in the Cambridge 
# Structural Database, then it will include bibliographic, chemical, 
# crystal, experimental, refinement or atomic coordinate data resulting 
# from the CCDC's data processing and validation procedures.
#
#######################################################################

data_DEWXIP
_chemical_formula_moiety         'C9 H6 O6'
_chemical_name_systematic        'benzene-1,3,5-triyl triformate'
_symmetry_cell_setting           orthorhombic
_symmetry_space_group_name_H-M   'P n a 21'
_symmetry_Int_Tables_number      33
_space_group_name_Hall           'P 2c -2n'
loop_
_symmetry_equiv_pos_site_id
_symmetry_equiv_pos_as_xyz
1 x,y,z
2 -x,-y,1/2+z
3 1/2-x,1/2+y,1/2+z
4 1/2+x,1/2-y,z
_cell_length_a                   18.1951(11)
_cell_length_b                   3.6415(2)
_cell_length_c                   13.0319(8)
_cell_angle_alpha                90
_cell_angle_beta                 90
_cell_angle_gamma                90
_cell_volume                     863.461
_exptl_crystal_colour            colorless
_exptl_crystal_description       'part of a needle'
_cell_formula_units_Z            4
loop_
_atom_site_label
_atom_site_type_symbol
_atom_site_fract_x
_atom_site_fract_y
_atom_site_fract_z
C1 C 0.20473(10) 0.4850(5) 0.58060(16)
C2 C 0.23355(11) 0.4955(6) 0.67928(17)
H1 H 0.2052 0.4260 0.7373
C3 C 0.30573(10) 0.6123(6) 0.68895(16)
C4 C 0.34933(11) 0.7126(6) 0.60661(16)
H2 H 0.3981 0.7989 0.6160
C5 C 0.31860(10) 0.6813(5) 0.51023(15)
C6 C 0.24645(11) 0.5701(6) 0.49506(15)
H3 H 0.2263 0.5529 0.4280
C7 C 0.07654(12) 0.4787(6) 0.62135(17)
H4 H 0.0292 0.3805 0.6072
C8 C 0.39713(11) 0.4951(7) 0.81518(17)
H5 H 0.4152 0.5419 0.8823
C9 C 0.42738(11) 0.6770(6) 0.40764(16)
H6 H 0.4515 0.7589 0.3472
O1 O 0.13302(8) 0.3640(4) 0.56052(12)
O2 O 0.33173(7) 0.6497(5) 0.79008(10)
O3 O 0.35673(8) 0.7847(5) 0.42117(11)
O4 O 0.08110(8) 0.6905(5) 0.69046(14)
O5 O 0.43391(8) 0.3070(5) 0.76140(12)
O6 O 0.46191(9) 0.4883(5) 0.46490(13)
loop_
_geom_bond_atom_site_label_1
_geom_bond_atom_site_label_2
_geom_bond_site_symmetry_1
_geom_bond_site_symmetry_2
C1 C2 1_555 1_555
C2 H1 1_555 1_555
C3 C2 1_555 1_555
C4 C3 1_555 1_555
H2 C4 1_555 1_555
C5 C4 1_555 1_555
C6 C1 1_555 1_555
H3 C6 1_555 1_555
C7 H4 1_555 1_555
C8 H5 1_555 1_555
C9 H6 1_555 1_555
O1 C1 1_555 1_555
O2 C3 1_555 1_555
O3 C5 1_555 1_555
O4 C7 1_555 1_555
O5 C8 1_555 1_555
O6 C9 1_555 1_555
C5 C6 1_555 1_555
C7 O1 1_555 1_555
C8 O2 1_555 1_555
C9 O3 1_555 1_555

#END
