
#######################################################################
#
#                 Cambridge Crystallographic Data Centre
#                                CCDC 
#
#######################################################################
#
# If this CIF has been generated from an entry in the Cambridge 
# Structural Database, then it will include bibliographic, chemical, 
# crystal, experimental, refinement or atomic coordinate data resulting 
# from the CCDC's data processing and validation procedures.
#
#######################################################################

data_DEWXEL
_chemical_formula_moiety         'C21 H17 Br1 F3 N3 O3'
_chemical_name_systematic        
(S)-3-((4S,5R)-1-(4-bromophenyl)-4-methyl-3-(trifluoromethyl)-4,5-dihydro-1H-pyrazole-5-carbonyl)-4-phenyl-1,3-oxazolidin-2-one
_symmetry_cell_setting           orthorhombic
_symmetry_space_group_name_H-M   'P 21 21 21'
_symmetry_Int_Tables_number      19
_space_group_name_Hall           'P 2ac 2ab'
loop_
_symmetry_equiv_pos_site_id
_symmetry_equiv_pos_as_xyz
1 x,y,z
2 1/2-x,-y,1/2+z
3 -x,1/2+y,1/2-z
4 1/2+x,1/2-y,-z
_cell_length_a                   10.3211(4)
_cell_length_b                   19.6960(7)
_cell_length_c                   21.4630(9)
_cell_angle_alpha                90
_cell_angle_beta                 90
_cell_angle_gamma                90
_cell_volume                     4363.09
_exptl_crystal_colour            colorless
_exptl_crystal_description       plate
_cell_formula_units_Z            8
_exptl_crystal_recrystallization_method water
loop_
_atom_site_label
_atom_site_type_symbol
_atom_site_fract_x
_atom_site_fract_y
_atom_site_fract_z
C1 C 0.8459(6) 0.4291(2) 0.7036(3)
C2 C 0.9502(5) 0.41438(18) 0.6650(3)
H1 H 1.0316 0.4062 0.6821
C3 C 0.9331(6) 0.41183(17) 0.6008(3)
H2 H 1.0029 0.4020 0.5750
C4 C 0.8115(8) 0.4240(2) 0.5753(3)
H3 H 0.8001 0.4223 0.5323
C5 C 0.7072(6) 0.4388(3) 0.6139(4)
H4 H 0.6259 0.4470 0.5968
C6 C 0.7244(5) 0.4413(2) 0.6781(4)
H5 H 0.6545 0.4512 0.7039
Br1 Br 1.24627(13) 0.12126(7) 0.95220(8)
C7 C 1.0865(11) 0.1514(5) 0.9199(5)
C8 C 1.0148(10) 0.1112(5) 0.8817(5)
H6 H 1.0461 0.0688 0.8700
C9 C 0.8950(10) 0.1330(5) 0.8600(4)
H7 H 0.8479 0.1060 0.8327
C10 C 0.8464(10) 0.1942(5) 0.8787(4)
C11 C 0.9206(13) 0.2345(6) 0.9176(6)
H8 H 0.8881 0.2759 0.9314
C12 C 1.0435(12) 0.2136(6) 0.9363(6)
H9 H 1.0956 0.2424 0.9598
C13 C 0.5497(10) 0.2110(5) 0.8064(5)
C14 C 0.5405(9) 0.2814(5) 0.8341(5)
H10 H 0.5204 0.3154 0.8023
C15 C 0.6799(10) 0.2883(5) 0.8574(5)
H11 H 0.6822 0.3093 0.8987
C16 C 0.4416(12) 0.2838(6) 0.8885(5)
H12 H 0.4459 0.2421 0.9117
H13 H 0.3558 0.2895 0.8721
H14 H 0.4620 0.3212 0.9155
C17 C 0.4569(11) 0.1808(6) 0.7711(6)
C18 C 0.7704(10) 0.3258(5) 0.8120(5)
C19 C 0.6882(12) 0.4390(6) 0.8437(7)
C20 C 0.8418(14) 0.5063(6) 0.7987(8)
H15 H 0.9132 0.5193 0.8256
H16 H 0.8353 0.5391 0.7651
C21 C 0.8627(11) 0.4345(5) 0.7727(6)
H17 H 0.9505 0.4197 0.7834
F1 F 0.4459(10) 0.2098(7) 0.7123(5)
F2 F 0.4708(11) 0.1190(5) 0.7512(8)
F3 F 0.3330(8) 0.1893(6) 0.7842(5)
N1 N 0.7221(9) 0.2161(4) 0.8605(4)
N2 N 0.6496(9) 0.1762(4) 0.8234(4)
N3 N 0.7701(8) 0.3963(4) 0.8108(4)
O1 O 0.8461(7) 0.2963(3) 0.7779(3)
O2 O 0.5944(9) 0.4238(4) 0.8733(4)
O3 O 0.7236(8) 0.5035(4) 0.8331(5)
C22 C 0.9470(6) 0.19107(16) 0.6310(2)
C23 C 1.0599(7) 0.1761(2) 0.6635(3)
H18 H 1.0560 0.1657 0.7057
C24 C 1.1786(6) 0.1767(3) 0.6329(4)
H19 H 1.2541 0.1666 0.6547
C25 C 1.1844(7) 0.1922(3) 0.5698(4)
H20 H 1.2638 0.1926 0.5493
C26 C 1.0715(8) 0.2072(2) 0.5373(3)
H21 H 1.0754 0.2176 0.4950
C27 C 0.9528(7) 0.2066(2) 0.5679(2)
H22 H 0.8773 0.2167 0.5461
Br2 Br 0.65160(17) -0.13154(7) 0.92288(5)
C28 C 0.6897(8) 0.0131(4) 0.6250(4)
H23 H 0.5963 0.0213 0.6284
C29 C 0.6734(10) -0.1058(5) 0.8384(4)
C30 C 0.6259(9) -0.0462(5) 0.8183(4)
H24 H 0.5825 -0.0174 0.8456
C31 C 0.6426(10) -0.0279(5) 0.7552(4)
H25 H 0.6088 0.0129 0.7406
C32 C 0.7092(7) -0.0702(4) 0.7149(4)
C33 C 0.7582(10) -0.1325(4) 0.7362(4)
H26 H 0.8014 -0.1620 0.7095
C34 C 0.7397(11) -0.1488(4) 0.7992(5)
H27 H 0.7729 -0.1893 0.8147
C35 C 0.8359(11) -0.0503(5) 0.5683(5)
C36 C 0.7325(9) 0.0037(4) 0.5569(4)
H28 H 0.7712 0.0454 0.5405
C37 C 0.9309(14) -0.0718(7) 0.5244(7)
C38 C 0.6262(14) -0.0217(6) 0.5144(5)
H29 H 0.6534 -0.0174 0.4718
H30 H 0.5492 0.0047 0.5209
H31 H 0.6086 -0.0685 0.5234
C39 C 0.7689(9) 0.0701(4) 0.6559(4)
N4 N 0.7361(8) 0.1358(3) 0.6417(3)
C40 C 0.6346(15) 0.1583(5) 0.6035(5)
C41 C 0.7242(16) 0.2519(5) 0.6498(7)
H32 H 0.6797 0.2658 0.6875
H33 H 0.7709 0.2907 0.6332
C42 C 0.8186(12) 0.1931(4) 0.6638(4)
H34 H 0.8319 0.1894 0.7089
F4 F 0.973(4) -0.0262(15) 0.4818(15)
F5 F 1.0427(18) -0.0905(16) 0.5563(10)
F6 F 0.905(3) -0.1289(13) 0.4907(13)
N5 N 0.7270(6) -0.0519(3) 0.6527(3)
N6 N 0.8259(8) -0.0809(4) 0.6200(4)
O4 O 0.8593(7) 0.0585(3) 0.6897(3)
O5 O 0.5598(8) 0.1263(4) 0.5747(4)
O6 O 0.6344(11) 0.2273(4) 0.6053(4)
F7? F 1.011(3) -0.0168(13) 0.5168(19)
F8? F 1.018(3) -0.1227(15) 0.5360(16)
F9? F 0.885(3) -0.073(3) 0.4638(9)
loop_
_geom_bond_atom_site_label_1
_geom_bond_atom_site_label_2
_geom_bond_site_symmetry_1
_geom_bond_site_symmetry_2
C1 C2 1_555 1_555
C2 H1 1_555 1_555
C3 C2 1_555 1_555
H2 C3 1_555 1_555
C4 C3 1_555 1_555
H3 C4 1_555 1_555
C5 C4 1_555 1_555
H4 C5 1_555 1_555
C6 C1 1_555 1_555
H5 C6 1_555 1_555
Br1 C7 1_555 1_555
C7 C8 1_555 1_555
C8 H6 1_555 1_555
C9 C8 1_555 1_555
H7 C9 1_555 1_555
C10 C9 1_555 1_555
C11 C10 1_555 1_555
H8 C11 1_555 1_555
C12 C7 1_555 1_555
H9 C12 1_555 1_555
C13 C14 1_555 1_555
C14 H10 1_555 1_555
C15 C14 1_555 1_555
H11 C15 1_555 1_555
C16 C14 1_555 1_555
H12 C16 1_555 1_555
H13 C16 1_555 1_555
H14 C16 1_555 1_555
C17 C13 1_555 1_555
C18 C15 1_555 1_555
C19 N3 1_555 1_555
C20 H15 1_555 1_555
H16 C20 1_555 1_555
C21 C1 1_555 1_555
H17 C21 1_555 1_555
F1 C17 1_555 1_555
F2 C17 1_555 1_555
F3 C17 1_555 1_555
N1 C10 1_555 1_555
N2 C13 1_555 1_555
N3 C18 1_555 1_555
O1 C18 1_555 1_555
O2 C19 1_555 1_555
O3 C19 1_555 1_555
C22 C23 1_555 1_555
C23 H18 1_555 1_555
C24 C23 1_555 1_555
H19 C24 1_555 1_555
C25 C24 1_555 1_555
H20 C25 1_555 1_555
C26 C25 1_555 1_555
H21 C26 1_555 1_555
C27 C22 1_555 1_555
H22 C27 1_555 1_555
Br2 C29 1_555 1_555
C28 H23 1_555 1_555
C29 C30 1_555 1_555
C30 H24 1_555 1_555
C31 C30 1_555 1_555
H25 C31 1_555 1_555
C32 C31 1_555 1_555
C33 C32 1_555 1_555
H26 C33 1_555 1_555
C34 C29 1_555 1_555
H27 C34 1_555 1_555
C35 C36 1_555 1_555
C36 C28 1_555 1_555
H28 C36 1_555 1_555
C37 C35 1_555 1_555
C38 C36 1_555 1_555
H29 C38 1_555 1_555
H30 C38 1_555 1_555
H31 C38 1_555 1_555
C39 C28 1_555 1_555
N4 C39 1_555 1_555
C40 N4 1_555 1_555
C41 H32 1_555 1_555
H33 C41 1_555 1_555
C42 C22 1_555 1_555
H34 C42 1_555 1_555
F4 C37 1_555 1_555
F5 C37 1_555 1_555
F6 C37 1_555 1_555
N5 C28 1_555 1_555
N6 C35 1_555 1_555
O4 C39 1_555 1_555
O5 C40 1_555 1_555
O6 C40 1_555 1_555
C5 C6 1_555 1_555
C11 C12 1_555 1_555
C15 N1 1_555 1_555
C20 C21 1_555 1_555
C20 O3 1_555 1_555
C21 N3 1_555 1_555
N1 N2 1_555 1_555
C26 C27 1_555 1_555
C32 N5 1_555 1_555
C33 C34 1_555 1_555
N4 C42 1_555 1_555
C41 C42 1_555 1_555
C41 O6 1_555 1_555
N5 N6 1_555 1_555

#END
