
#######################################################################
#
#                 Cambridge Crystallographic Data Centre
#                                CCDC 
#
#######################################################################
#
# If this CIF has been generated from an entry in the Cambridge 
# Structural Database, then it will include bibliographic, chemical, 
# crystal, experimental, refinement or atomic coordinate data resulting 
# from the CCDC's data processing and validation procedures.
#
#######################################################################

data_DEWYIQ
_chemical_formula_moiety         'C8 H13 N3 O3'
_chemical_name_systematic        
(t-butoxycarbonyl)(3-methyl-1,2,3-oxadiazol-3-ium-5-yl)amide
_symmetry_cell_setting           monoclinic
_symmetry_space_group_name_H-M   'P 21/c'
_symmetry_Int_Tables_number      14
_space_group_name_Hall           '-P 2ybc'
loop_
_symmetry_equiv_pos_site_id
_symmetry_equiv_pos_as_xyz
1 x,y,z
2 -x,1/2+y,1/2-z
3 -x,-y,-z
4 x,1/2-y,1/2+z
_cell_length_a                   9.3261(6)
_cell_length_b                   9.2083(6)
_cell_length_c                   11.9526(8)
_cell_angle_alpha                90
_cell_angle_beta                 93.6544(15)
_cell_angle_gamma                90
_cell_volume                     1024.37
_exptl_crystal_colour            colorless
_exptl_crystal_description       prism
_cell_formula_units_Z            4
loop_
_atom_site_label
_atom_site_type_symbol
_atom_site_fract_x
_atom_site_fract_y
_atom_site_fract_z
O1 O 0.30632(8) 0.12391(9) 0.50055(6)
N1 N 0.25677(10) 0.05383(10) 0.40340(7)
N2 N 0.36073(9) 0.07030(9) 0.33688(7)
C1 C 0.47505(11) 0.14557(11) 0.38005(8)
H1 H 0.5596 0.1703 0.3440
C2 C 0.44209(10) 0.17939(10) 0.48972(8)
N3 N 0.50317(9) 0.23997(10) 0.58008(7)
C3 C 0.34656(12) 0.00114(12) 0.22583(8)
H2 H 0.2526 -0.0464 0.2157
H3 H 0.4227 -0.0713 0.2202
H4 H 0.3549 0.0751 0.1676
C4 C 0.63413(11) 0.30357(11) 0.56526(8)
O2 O 0.68976(8) 0.32597(9) 0.47718(6)
O3 O 0.69490(8) 0.34025(8) 0.66749(6)
C5 C 0.83980(11) 0.40534(11) 0.67818(9)
C6 C 0.83618(15) 0.55550(13) 0.62483(11)
H5 H 0.8175 0.5461 0.5435
H6 H 0.9289 0.6037 0.6409
H7 H 0.7598 0.6133 0.6557
C7 C 0.94865(12) 0.30421(14) 0.62879(11)
H8 H 0.9463 0.2095 0.6660
H9 H 1.0451 0.3461 0.6402
H10 H 0.9245 0.2920 0.5483
C8 C 0.86849(13) 0.41586(14) 0.80445(9)
H11 H 0.8706 0.3181 0.8370
H12 H 0.7921 0.4727 0.8363
H13 H 0.9612 0.4636 0.8216
loop_
_geom_bond_atom_site_label_1
_geom_bond_atom_site_label_2
_geom_bond_site_symmetry_1
_geom_bond_site_symmetry_2
O1 N1 1_555 1_555
N1 N2 1_555 1_555
N2 C1 1_555 1_555
C1 H1 1_555 1_555
C2 O1 1_555 1_555
N3 C2 1_555 1_555
C3 N2 1_555 1_555
H2 C3 1_555 1_555
H3 C3 1_555 1_555
H4 C3 1_555 1_555
C4 N3 1_555 1_555
O2 C4 1_555 1_555
O3 C4 1_555 1_555
C5 O3 1_555 1_555
C6 C5 1_555 1_555
H5 C6 1_555 1_555
H6 C6 1_555 1_555
H7 C6 1_555 1_555
C7 C5 1_555 1_555
H8 C7 1_555 1_555
H9 C7 1_555 1_555
H10 C7 1_555 1_555
C8 C5 1_555 1_555
H11 C8 1_555 1_555
H12 C8 1_555 1_555
H13 C8 1_555 1_555
C1 C2 1_555 1_555

#END
