
#######################################################################
#
#                 Cambridge Crystallographic Data Centre
#                                CCDC 
#
#######################################################################
#
# If this CIF has been generated from an entry in the Cambridge 
# Structural Database, then it will include bibliographic, chemical, 
# crystal, experimental, refinement or atomic coordinate data resulting 
# from the CCDC's data processing and validation procedures.
#
#######################################################################

data_DEWZEN
_chemical_formula_moiety         'C19 H30 Si1'
_chemical_name_systematic        
'[(3,5-di-t-butylphenyl)ethynyl](trimethyl)silane'
_symmetry_cell_setting           orthorhombic
_symmetry_space_group_name_H-M   'P n m a'
_symmetry_Int_Tables_number      62
_space_group_name_Hall           '-P 2ac 2n'
loop_
_symmetry_equiv_pos_site_id
_symmetry_equiv_pos_as_xyz
1 x,y,z
2 1/2-x,-y,1/2+z
3 -x,1/2+y,-z
4 1/2+x,1/2-y,1/2-z
5 -x,-y,-z
6 1/2+x,y,1/2-z
7 x,1/2-y,z
8 1/2-x,1/2+y,1/2+z
_cell_length_a                   11.3309(4)
_cell_length_b                   15.6315(3)
_cell_length_c                   10.7894(7)
_cell_angle_alpha                90
_cell_angle_beta                 90
_cell_angle_gamma                90
_cell_volume                     1911.01
_exptl_crystal_colour            colorless
_exptl_crystal_description       plates
_cell_formula_units_Z            4
loop_
_atom_site_label
_atom_site_type_symbol
_atom_site_fract_x
_atom_site_fract_y
_atom_site_fract_z
C1 C 0.3388(6) 0.7500 0.6964(5)
H1 H 0.2705 0.7500 0.7474
C2 C 0.3880(4) 0.6713(3) 0.6598(4)
C3 C 0.3242(5) 0.5883(3) 0.6971(5)
C4 C 0.3289(6) 0.5775(3) 0.8382(5)
H2 H 0.2882 0.5246 0.8616
H3 H 0.4113 0.5746 0.8652
H4 H 0.2900 0.6263 0.8779
C5 C 0.1956(5) 0.5921(4) 0.6500(7)
H5 H 0.1954 0.5990 0.5597
H6 H 0.1547 0.5390 0.6720
H7 H 0.1551 0.6407 0.6884
C6 C 0.3835(5) 0.5102(3) 0.6353(6)
H8 H 0.3808 0.5167 0.5450
H9 H 0.4659 0.5064 0.6625
H10 H 0.3415 0.4580 0.6592
C7 C 0.4902(4) 0.6728(2) 0.5903(4)
H11 H 0.5255 0.6204 0.5655
C8 C 0.5426(5) 0.7500 0.5559(5)
C9 C 0.6463(5) 0.7500 0.4783(5)
C10 C 0.7328(5) 0.7500 0.4127(5)
Si1 Si 0.86291(19) 0.7500 0.3120(2)
C11 C 0.9184(12) 0.6468(6) 0.2700(12)
H12 H 0.9876 0.6535 0.2164
H13 H 0.9408 0.6154 0.3451
H14 H 0.8571 0.6149 0.2256
C12 C 0.8186(13) 0.8140(9) 0.1721(10)
H15 H 0.7888 0.8700 0.1985
H16 H 0.8872 0.8220 0.1181
H17 H 0.7567 0.7835 0.1267
C13 C 0.9769(10) 0.8182(10) 0.3884(12)
H18 H 0.9423 0.8739 0.4095
H19 H 1.0047 0.7901 0.4641
H20 H 1.0434 0.8267 0.3317
C2F C 0.3880(4) 0.8287(3) 0.6598(4)
C3F C 0.3242(5) 0.9117(3) 0.6971(5)
C4F C 0.3289(6) 0.9225(3) 0.8382(5)
H2F H 0.2882 0.9754 0.8616
H3F H 0.4113 0.9254 0.8652
H4F H 0.2900 0.8737 0.8779
C5F C 0.1956(5) 0.9079(4) 0.6500(7)
H5F H 0.1954 0.9010 0.5597
H6F H 0.1547 0.9610 0.6720
H7F H 0.1551 0.8593 0.6884
C6F C 0.3835(5) 0.9898(3) 0.6353(6)
H8F H 0.3808 0.9833 0.5450
H9F H 0.4659 0.9936 0.6625
H10F H 0.3415 1.0420 0.6592
C7F C 0.4902(4) 0.8272(2) 0.5903(4)
H11F H 0.5255 0.8796 0.5655
C11F C 0.9184(12) 0.8532(6) 0.2700(12)
H12F H 0.9876 0.8465 0.2164
H13F H 0.9408 0.8846 0.3451
H14F H 0.8571 0.8851 0.2256
C12F C 0.8186(13) 0.6860(9) 0.1721(10)
H15F H 0.7888 0.6300 0.1985
H16F H 0.8872 0.6780 0.1181
H17F H 0.7567 0.7165 0.1267
C13F C 0.9769(10) 0.6818(10) 0.3884(12)
H18F H 0.9423 0.6261 0.4095
H19F H 1.0047 0.7099 0.4641
H20F H 1.0434 0.6733 0.3317
C14? C 0.878(5) 0.854(2) 0.234(6)
H21? H 0.9481 0.8529 0.1801
H22? H 0.8079 0.8648 0.1831
H23? H 0.8868 0.8992 0.2956
C15? C 0.9953(17) 0.729(6) 0.407(3)
H24? H 1.0654 0.7287 0.3538
H25? H 1.0033 0.7735 0.4702
H26? H 0.9874 0.6730 0.4476
C16? C 0.848(4) 0.665(4) 0.195(5)
H27? H 0.9180 0.6646 0.1411
H28? H 0.8418 0.6091 0.2366
H29? H 0.7775 0.6747 0.1449
loop_
_geom_bond_atom_site_label_1
_geom_bond_atom_site_label_2
_geom_bond_site_symmetry_1
_geom_bond_site_symmetry_2
C1 H1 1_555 1_555
C2 C1 1_555 1_555
C3 C2 1_555 1_555
C4 C3 1_555 1_555
H2 C4 1_555 1_555
H3 C4 1_555 1_555
H4 C4 1_555 1_555
C5 C3 1_555 1_555
H5 C5 1_555 1_555
H6 C5 1_555 1_555
H7 C5 1_555 1_555
C6 C3 1_555 1_555
H8 C6 1_555 1_555
H9 C6 1_555 1_555
H10 C6 1_555 1_555
C7 C2 1_555 1_555
H11 C7 1_555 1_555
C8 C7 1_555 1_555
C9 C8 1_555 1_555
C10 C9 1_555 1_555
Si1 C10 1_555 1_555
C11 Si1 1_555 1_555
H12 C11 1_555 1_555
H13 C11 1_555 1_555
H14 C11 1_555 1_555
C12 Si1 1_555 1_555
H15 C12 1_555 1_555
H16 C12 1_555 1_555
H17 C12 1_555 1_555
C13 Si1 1_555 1_555
H18 C13 1_555 1_555
H19 C13 1_555 1_555
H20 C13 1_555 1_555
C2F C1 1_555 1_555
C3F C2F 1_555 1_555
C4F C3F 1_555 1_555
H2F C4F 1_555 1_555
H3F C4F 1_555 1_555
H4F C4F 1_555 1_555
C5F C3F 1_555 1_555
H5F C5F 1_555 1_555
H6F C5F 1_555 1_555
H7F C5F 1_555 1_555
C6F C3F 1_555 1_555
H8F C6F 1_555 1_555
H9F C6F 1_555 1_555
H10F C6F 1_555 1_555
C7F C8 1_555 1_555
H11F C7F 1_555 1_555
C11F Si1 1_555 1_555
H12F C11F 1_555 1_555
H13F C11F 1_555 1_555
H14F C11F 1_555 1_555
C12F Si1 1_555 1_555
H15F C12F 1_555 1_555
H16F C12F 1_555 1_555
H17F C12F 1_555 1_555
C13F Si1 1_555 1_555
H18F C13F 1_555 1_555
H19F C13F 1_555 1_555
H20F C13F 1_555 1_555
C2F C7F 1_555 1_555

#END
