
#######################################################################
#
#                 Cambridge Crystallographic Data Centre
#                                CCDC 
#
#######################################################################
#
# If this CIF has been generated from an entry in the Cambridge 
# Structural Database, then it will include bibliographic, chemical, 
# crystal, experimental, refinement or atomic coordinate data resulting 
# from the CCDC's data processing and validation procedures.
#
#######################################################################

data_DEWZUD
_chemical_formula_moiety         'C52 H62 N4 O2,3(C1 H2 Cl2)'
_chemical_name_systematic        
"N,N'-bis{4-[1-(4-amino-3,5-dimethylphenyl)cyclohexyl]-2,6-dimethylphenyl}benzene-1,3-dicarboxamide dichloromethane solvate"
_symmetry_cell_setting           orthorhombic
_symmetry_space_group_name_H-M   'P b c a'
_symmetry_Int_Tables_number      61
_space_group_name_Hall           '-P 2ac 2ab'
loop_
_symmetry_equiv_pos_site_id
_symmetry_equiv_pos_as_xyz
1 x,y,z
2 1/2-x,-y,1/2+z
3 -x,1/2+y,1/2-z
4 1/2+x,1/2-y,-z
5 -x,-y,-z
6 1/2+x,y,1/2-z
7 x,1/2-y,1/2+z
8 1/2-x,1/2+y,z
_cell_length_a                   13.0077(2)
_cell_length_b                   24.5643(4)
_cell_length_c                   34.2255(5)
_cell_angle_alpha                90
_cell_angle_beta                 90
_cell_angle_gamma                90
_cell_volume                     10935.9
_exptl_crystal_colour            colorless
_exptl_crystal_description       blocks
_cell_formula_units_Z            8
loop_
_atom_site_label
_atom_site_type_symbol
_atom_site_fract_x
_atom_site_fract_y
_atom_site_fract_z
C1 C -0.1575(4) 0.2058(2) 0.24800(13)
H1 H -0.2107 0.2014 0.2667
C2 C -0.1716(4) 0.2438(2) 0.21806(14)
C3 C -0.0921(4) 0.2505(2) 0.19037(13)
N1 N -0.1091(4) 0.28318(18) 0.15729(12)
H2 H -0.048(2) 0.299(2) 0.1526(16)
H3 H -0.158(3) 0.3029(19) 0.1690(16)
C4 C -0.0007(4) 0.2211(2) 0.19444(13)
C5 C 0.0090(4) 0.1839(2) 0.22493(13)
H4 H 0.0716 0.1644 0.2276
C6 C -0.0701(4) 0.1743(2) 0.25167(13)
C7 C -0.0552(3) 0.1309(2) 0.28369(13)
C8 C -0.0180(4) 0.0766(2) 0.26518(14)
H5 H 0.0455 0.0834 0.2500
H6 H -0.0010 0.0505 0.2863
C9 C -0.0977(4) 0.0513(2) 0.23862(16)
H7 H -0.0692 0.0178 0.2268
H8 H -0.1142 0.0770 0.2172
C10 C -0.1950(4) 0.0374(2) 0.26072(17)
H9 H -0.1801 0.0095 0.2808
H10 H -0.2469 0.0225 0.2425
C11 C -0.2374(4) 0.0890(2) 0.28041(15)
H11 H -0.2615 0.1147 0.2601
H12 H -0.2970 0.0792 0.2969
C12 C -0.1555(4) 0.1171(2) 0.30568(14)
H13 H -0.1388 0.0931 0.3280
H14 H -0.1849 0.1512 0.3164
C13 C 0.0232(3) 0.15292(19) 0.31332(12)
C14 C 0.0046(3) 0.20195(19) 0.33289(12)
H15 H -0.0573 0.2210 0.3275
C15 C 0.0724(4) 0.22387(19) 0.35975(12)
C16 C 0.1634(4) 0.1949(2) 0.36734(13)
C17 C 0.1851(4) 0.1454(2) 0.34866(13)
C18 C 0.1147(4) 0.1259(2) 0.32147(12)
H16 H 0.1295 0.0929 0.3080
N2 N 0.2382(3) 0.21606(17) 0.39413(10)
H17 H 0.298(2) 0.226(2) 0.3849(13)
C19 C 0.2366(3) 0.20399(19) 0.43252(12)
O1 O 0.1662(2) 0.17751(13) 0.44764(8)
C20 C 0.3271(3) 0.22359(19) 0.45596(12)
C21 C 0.3524(3) 0.19535(19) 0.49025(13)
H18 H 0.3126 0.1649 0.4983
C22 C 0.4353(4) 0.2119(2) 0.51221(14)
H19 H 0.4520 0.1929 0.5356
C23 C 0.4944(4) 0.2557(2) 0.50073(14)
H20 H 0.5520 0.2664 0.5160
C24 C 0.4697(4) 0.28427(19) 0.46666(13)
C25 C 0.3859(3) 0.26780(19) 0.44496(13)
H21 H 0.3682 0.2873 0.4219
C26 C 0.5292(4) 0.3315(2) 0.45057(15)
O2 O 0.5038(3) 0.35237(17) 0.41955(11)
N3 N 0.6121(3) 0.34905(17) 0.47177(12)
H22 H 0.629(4) 0.342(2) 0.4960(7)
C27 C 0.6837(4) 0.3886(2) 0.45730(14)
C28 C 0.7428(4) 0.3760(2) 0.42446(14)
C29 C 0.8178(4) 0.4130(2) 0.41274(13)
H23 H 0.8578 0.4049 0.3903
C30 C 0.8364(4) 0.46142(19) 0.43268(13)
C31 C 0.7773(4) 0.4717(2) 0.46607(14)
H24 H 0.7901 0.5037 0.4808
C32 C 0.6993(4) 0.4358(2) 0.47838(15)
C33 C 0.9186(3) 0.50099(18) 0.41793(12)
C34 C 0.9471(4) 0.5427(2) 0.45099(13)
H25 H 0.8834 0.5597 0.4610
H26 H 0.9800 0.5229 0.4729
C35 C 1.0197(4) 0.5870(2) 0.43659(14)
H27 H 1.0380 0.6115 0.4585
H28 H 1.0837 0.5704 0.4265
C36 C 0.9678(4) 0.6194(2) 0.40449(15)
H29 H 0.9062 0.6378 0.4152
H30 H 1.0155 0.6479 0.3950
C37 C 0.9363(4) 0.5837(2) 0.37080(14)
H31 H 0.9988 0.5707 0.3571
H32 H 0.8957 0.6055 0.3520
C38 C 0.8722(4) 0.5341(2) 0.38383(13)
H33 H 0.8633 0.5095 0.3611
H34 H 0.8031 0.5469 0.3917
C39 C 1.0158(4) 0.46906(19) 0.40722(13)
C40 C 1.0567(4) 0.4659(2) 0.37011(14)
H35 H 1.0213 0.4829 0.3491
C41 C 1.1484(4) 0.4385(2) 0.36232(15)
C42 C 1.2011(4) 0.4131(2) 0.39231(15)
N4 N 1.2945(4) 0.3857(2) 0.38415(15)
H36 H 1.329(4) 0.407(2) 0.3680(13)
H37 H 1.324(4) 0.375(3) 0.4061(11)
C43 C 1.1593(4) 0.4121(2) 0.42942(15)
C44 C 1.0676(4) 0.4395(2) 0.43620(14)
H38 H 1.0387 0.4381 0.4617
C45 C -0.2671(4) 0.2778(2) 0.21638(15)
H39 H -0.2491 0.3162 0.2200
H40 H -0.3143 0.2664 0.2371
H41 H -0.3003 0.2729 0.1909
C46 C 0.0889(4) 0.2313(2) 0.16685(14)
H42 H 0.1442 0.2054 0.1724
H43 H 0.1144 0.2685 0.1705
H44 H 0.0659 0.2267 0.1398
C47 C 0.0505(4) 0.2764(2) 0.38031(14)
H45 H 0.0481 0.2701 0.4086
H46 H -0.0159 0.2908 0.3715
H47 H 0.1048 0.3028 0.3743
C48 C 0.2817(4) 0.1147(2) 0.35720(15)
H48 H 0.3409 0.1352 0.3473
H49 H 0.2789 0.0790 0.3444
H50 H 0.2887 0.1097 0.3855
C49 C 0.7288(5) 0.3231(2) 0.40293(16)
H51 H 0.6653 0.3246 0.3875
H52 H 0.7246 0.2931 0.4217
H53 H 0.7874 0.3172 0.3854
C50 C 0.6381(5) 0.4499(2) 0.51522(18)
H54 H 0.5644 0.4474 0.5096
H55 H 0.6548 0.4871 0.5234
H56 H 0.6560 0.4244 0.5362
C51 C 1.1909(6) 0.4369(3) 0.32031(18)
H57 H 1.2543 0.4583 0.3189
H58 H 1.1398 0.4521 0.3023
H59 H 1.2056 0.3991 0.3130
C52 C 1.2091(5) 0.3800(3) 0.46170(17)
H60 H 1.1680 0.3834 0.4856
H61 H 1.2784 0.3941 0.4665
H62 H 1.2132 0.3416 0.4541
C53 C -0.0781(5) 0.1387(3) 0.41910(19)
H63 H -0.0572 0.1228 0.3937
H64 H -0.0168 0.1558 0.4311
Cl1 Cl -0.17340(15) 0.18857(8) 0.41134(6)
Cl2 Cl -0.12493(14) 0.08712(9) 0.44981(6)
C54 C 1.5722(10) 0.4753(5) 0.3802(3)
H65 H 1.6304 0.5013 0.3800
H66 H 1.5764 0.4538 0.4046
Cl3 Cl 1.4521(3) 0.51303(10) 0.37962(8)
Cl4 Cl 1.5827(4) 0.43191(14) 0.34037(8)
C55 C -0.0325(7) 0.3355(4) 0.2807(2)
H67 H -0.0323 0.2971 0.2719
H68 H 0.0242 0.3400 0.2996
Cl5 Cl -0.0086(3) 0.37737(15) 0.24027(9)
Cl6 Cl -0.1457(2) 0.34832(16) 0.30376(8)
loop_
_geom_bond_atom_site_label_1
_geom_bond_atom_site_label_2
_geom_bond_site_symmetry_1
_geom_bond_site_symmetry_2
C1 H1 1_555 1_555
C2 C1 1_555 1_555
C3 C2 1_555 1_555
N1 C3 1_555 1_555
H2 N1 1_555 1_555
H3 N1 1_555 1_555
C4 C3 1_555 1_555
C5 C4 1_555 1_555
H4 C5 1_555 1_555
C6 C1 1_555 1_555
C7 C6 1_555 1_555
C8 C7 1_555 1_555
H5 C8 1_555 1_555
H6 C8 1_555 1_555
C9 C8 1_555 1_555
H7 C9 1_555 1_555
H8 C9 1_555 1_555
C10 C9 1_555 1_555
H9 C10 1_555 1_555
H10 C10 1_555 1_555
C11 C10 1_555 1_555
H11 C11 1_555 1_555
H12 C11 1_555 1_555
C12 C7 1_555 1_555
H13 C12 1_555 1_555
H14 C12 1_555 1_555
C13 C7 1_555 1_555
C14 C13 1_555 1_555
H15 C14 1_555 1_555
C15 C14 1_555 1_555
C16 C15 1_555 1_555
C17 C16 1_555 1_555
C18 C13 1_555 1_555
H16 C18 1_555 1_555
N2 C16 1_555 1_555
H17 N2 1_555 1_555
C19 N2 1_555 1_555
O1 C19 1_555 1_555
C20 C19 1_555 1_555
C21 C20 1_555 1_555
H18 C21 1_555 1_555
C22 C21 1_555 1_555
H19 C22 1_555 1_555
C23 C22 1_555 1_555
H20 C23 1_555 1_555
C24 C23 1_555 1_555
C25 C20 1_555 1_555
H21 C25 1_555 1_555
C26 C24 1_555 1_555
O2 C26 1_555 1_555
N3 C26 1_555 1_555
H22 N3 1_555 1_555
C27 N3 1_555 1_555
C28 C27 1_555 1_555
C29 C28 1_555 1_555
H23 C29 1_555 1_555
C30 C29 1_555 1_555
C31 C30 1_555 1_555
H24 C31 1_555 1_555
C32 C27 1_555 1_555
C33 C30 1_555 1_555
C34 C33 1_555 1_555
H25 C34 1_555 1_555
H26 C34 1_555 1_555
C35 C34 1_555 1_555
H27 C35 1_555 1_555
H28 C35 1_555 1_555
C36 C35 1_555 1_555
H29 C36 1_555 1_555
H30 C36 1_555 1_555
C37 C36 1_555 1_555
H31 C37 1_555 1_555
H32 C37 1_555 1_555
C38 C33 1_555 1_555
H33 C38 1_555 1_555
H34 C38 1_555 1_555
C39 C33 1_555 1_555
C40 C39 1_555 1_555
H35 C40 1_555 1_555
C41 C40 1_555 1_555
C42 C41 1_555 1_555
N4 C42 1_555 1_555
H36 N4 1_555 1_555
H37 N4 1_555 1_555
C43 C42 1_555 1_555
C44 C39 1_555 1_555
H38 C44 1_555 1_555
C45 C2 1_555 1_555
H39 C45 1_555 1_555
H40 C45 1_555 1_555
H41 C45 1_555 1_555
C46 C4 1_555 1_555
H42 C46 1_555 1_555
H43 C46 1_555 1_555
H44 C46 1_555 1_555
C47 C15 1_555 1_555
H45 C47 1_555 1_555
H46 C47 1_555 1_555
H47 C47 1_555 1_555
C48 C17 1_555 1_555
H48 C48 1_555 1_555
H49 C48 1_555 1_555
H50 C48 1_555 1_555
C49 C28 1_555 1_555
H51 C49 1_555 1_555
H52 C49 1_555 1_555
H53 C49 1_555 1_555
C50 C32 1_555 1_555
H54 C50 1_555 1_555
H55 C50 1_555 1_555
H56 C50 1_555 1_555
C51 C41 1_555 1_555
H57 C51 1_555 1_555
H58 C51 1_555 1_555
H59 C51 1_555 1_555
C52 C43 1_555 1_555
H60 C52 1_555 1_555
H61 C52 1_555 1_555
H62 C52 1_555 1_555
C53 H63 1_555 1_555
H64 C53 1_555 1_555
Cl1 C53 1_555 1_555
Cl2 C53 1_555 1_555
C54 H65 1_555 1_555
H66 C54 1_555 1_555
Cl3 C54 1_555 1_555
Cl4 C54 1_555 1_555
C55 H67 1_555 1_555
H68 C55 1_555 1_555
Cl5 C55 1_555 1_555
Cl6 C55 1_555 1_555
C5 C6 1_555 1_555
C11 C12 1_555 1_555
C17 C18 1_555 1_555
C24 C25 1_555 1_555
C31 C32 1_555 1_555
C37 C38 1_555 1_555
C43 C44 1_555 1_555

#END
