
#######################################################################
#
#                 Cambridge Crystallographic Data Centre
#                                CCDC 
#
#######################################################################
#
# If this CIF has been generated from an entry in the Cambridge 
# Structural Database, then it will include bibliographic, chemical, 
# crystal, experimental, refinement or atomic coordinate data resulting 
# from the CCDC's data processing and validation procedures.
#
#######################################################################

data_DEXHUL
_chemical_formula_moiety         'C19 H21 N1 O5,C3 H6 O1'
_chemical_name_systematic        
'Methyl N-(1-(4-methoxy-6-oxocyclohexa-2,4-dien-1-ylidene)ethyl)tyrosinate acetone solvate'
_symmetry_cell_setting           monoclinic
_symmetry_space_group_name_H-M   'P 21/c'
_symmetry_Int_Tables_number      14
_space_group_name_Hall           '-P 2ybc'
loop_
_symmetry_equiv_pos_site_id
_symmetry_equiv_pos_as_xyz
1 x,y,z
2 -x,1/2+y,1/2-z
3 -x,-y,-z
4 x,1/2-y,1/2+z
_cell_length_a                   11.91291(15)
_cell_length_b                   9.49947(12)
_cell_length_c                   19.8727(3)
_cell_angle_alpha                90
_cell_angle_beta                 106.1104(15)
_cell_angle_gamma                90
_cell_volume                     2160.6
_cell_formula_units_Z            4
loop_
_atom_site_label
_atom_site_type_symbol
_atom_site_fract_x
_atom_site_fract_y
_atom_site_fract_z
O1 O 0.28584(11) 0.47110(14) 0.40868(7)
O2 O 0.59998(16) 0.5031(2) 0.30419(12)
O3 O 0.13734(12) 0.45779(13) 0.54751(8)
O4 O 0.10700(14) 0.61831(16) 0.62365(8)
O5 O 0.24879(16) 1.22664(15) 0.34951(8)
H1 H 0.2495 1.3023 0.3695
N1 N 0.28196(12) 0.64400(15) 0.50559(8)
C1 C 0.38140(14) 0.53181(18) 0.40429(9)
C2 C 0.43788(16) 0.4832(2) 0.35495(11)
H2 H 0.4063 0.4079 0.3260
C3 C 0.53884(17) 0.5455(3) 0.34917(13)
C4 C 0.58722(17) 0.6600(3) 0.39204(15)
H3 H 0.6553 0.7023 0.3877
C5 C 0.53486(16) 0.7085(2) 0.43942(13)
H4 H 0.5682 0.7845 0.4674
C6 C 0.43073(13) 0.64845(18) 0.44853(9)
C7 C 0.37743(13) 0.70440(17) 0.49843(9)
C8 C 0.42675(16) 0.8308(2) 0.54216(12)
H5 H 0.5087 0.8168 0.5637
H6 H 0.3874 0.8433 0.5778
H7 H 0.4157 0.9129 0.5129
C9 C 0.20530(14) 0.69639(17) 0.54495(9)
H8 H 0.2498 0.7536 0.5844
C10 C 0.14916(15) 0.57348(18) 0.57173(9)
C11 C 0.0365(3) 0.5205(3) 0.64970(15)
H9 H 0.0161 0.5615 0.6889
H10 H 0.0798 0.4353 0.6643
H11 H -0.0334 0.4995 0.6133
C12 C 0.5518(3) 0.3928(4) 0.25581(18)
H12 H 0.5406 0.3103 0.2811
H13 H 0.6044 0.3714 0.2283
H14 H 0.4780 0.4225 0.2255
C13 C 0.10444(15) 0.78455(19) 0.49780(11)
H15 H 0.0537 0.7223 0.4640
H16 H 0.0588 0.8240 0.5267
C14 C 0.14309(13) 0.90274(17) 0.45883(9)
C15 C 0.16898(15) 0.87969(18) 0.39581(10)
H17 H 0.1622 0.7892 0.3772
C16 C 0.20449(17) 0.9879(2) 0.36012(10)
H18 H 0.2218 0.9696 0.3181
C17 C 0.21449(15) 1.12385(19) 0.38665(9)
C18 C 0.18907(14) 1.14911(17) 0.44969(9)
H19 H 0.1952 1.2397 0.4681
C19 C 0.15469(15) 1.03937(18) 0.48487(9)
H20 H 0.1388 1.0573 0.5273
H21 H 0.2629(18) 0.572(2) 0.4780(11)
O6 O 0.27265(18) 0.5530(2) 0.16530(11)
C20 C 0.2008(2) 0.5146(3) 0.19344(11)
C21 C 0.1522(3) 0.6126(4) 0.23668(16)
H22 H 0.0704 0.6267 0.2148
H23 H 0.1922 0.7013 0.2407
H24 H 0.1626 0.5731 0.2825
C22 C 0.1577(3) 0.3675(3) 0.18621(16)
H25 H 0.1802 0.3223 0.1487
H26 H 0.0741 0.3672 0.1761
H27 H 0.1910 0.3175 0.2291
loop_
_geom_bond_atom_site_label_1
_geom_bond_atom_site_label_2
_geom_bond_site_symmetry_1
_geom_bond_site_symmetry_2
O1 C1 1_555 1_555
O2 C3 1_555 1_555
O3 C10 1_555 1_555
O4 C10 1_555 1_555
O5 H1 1_555 1_555
N1 C7 1_555 1_555
C1 C2 1_555 1_555
C2 H2 1_555 1_555
C3 C2 1_555 1_555
C4 C3 1_555 1_555
H3 C4 1_555 1_555
C5 C4 1_555 1_555
H4 C5 1_555 1_555
C6 C1 1_555 1_555
C7 C6 1_555 1_555
C8 C7 1_555 1_555
H5 C8 1_555 1_555
H6 C8 1_555 1_555
H7 C8 1_555 1_555
C9 N1 1_555 1_555
H8 C9 1_555 1_555
C10 C9 1_555 1_555
C11 O4 1_555 1_555
H9 C11 1_555 1_555
H10 C11 1_555 1_555
H11 C11 1_555 1_555
C12 O2 1_555 1_555
H12 C12 1_555 1_555
H13 C12 1_555 1_555
H14 C12 1_555 1_555
C13 C9 1_555 1_555
H15 C13 1_555 1_555
H16 C13 1_555 1_555
C14 C13 1_555 1_555
C15 C14 1_555 1_555
H17 C15 1_555 1_555
C16 C15 1_555 1_555
H18 C16 1_555 1_555
C17 O5 1_555 1_555
C18 C17 1_555 1_555
H19 C18 1_555 1_555
C19 C14 1_555 1_555
H20 C19 1_555 1_555
H21 N1 1_555 1_555
O6 C20 1_555 1_555
C20 C21 1_555 1_555
C21 H22 1_555 1_555
H23 C21 1_555 1_555
H24 C21 1_555 1_555
C22 C20 1_555 1_555
H25 C22 1_555 1_555
H26 C22 1_555 1_555
H27 C22 1_555 1_555
C5 C6 1_555 1_555
C16 C17 1_555 1_555
C18 C19 1_555 1_555

#END
