
#######################################################################
#
#                 Cambridge Crystallographic Data Centre
#                                CCDC 
#
#######################################################################
#
# If this CIF has been generated from an entry in the Cambridge 
# Structural Database, then it will include bibliographic, chemical, 
# crystal, experimental, refinement or atomic coordinate data resulting 
# from the CCDC's data processing and validation procedures.
#
#######################################################################

data_DEXMAX
_chemical_formula_moiety         'C47 H41 N1 O4 S1,C1 H2 Cl2'
_chemical_name_systematic        
"3-(2-{2-[4-hydroxy-4'-(triphenylethenyl)[1,1'-biphenyl]-3-yl]ethenyl}-3,3-dimethyl-3H-indol-1-ium-1-yl)propane-1-sulfonate dichloromethane solvate"
_symmetry_cell_setting           monoclinic
_symmetry_space_group_name_H-M   'P 21/c'
_symmetry_Int_Tables_number      14
_space_group_name_Hall           '-P 2ybc'
loop_
_symmetry_equiv_pos_site_id
_symmetry_equiv_pos_as_xyz
1 x,y,z
2 -x,1/2+y,1/2-z
3 -x,-y,-z
4 x,1/2-y,1/2+z
_cell_length_a                   11.143(2)
_cell_length_b                   22.245(4)
_cell_length_c                   19.704(6)
_cell_angle_alpha                90
_cell_angle_beta                 121.22(2)
_cell_angle_gamma                90
_cell_volume                     4176.84
_exptl_crystal_colour            red
_exptl_crystal_description       block
_cell_formula_units_Z            4
loop_
_atom_site_label
_atom_site_type_symbol
_atom_site_fract_x
_atom_site_fract_y
_atom_site_fract_z
C1 C 0.1130(14) 0.0984(9) 0.3069(9)
Cl1 Cl 0.2069(4) 0.1311(2) 0.3984(2)
Cl2 Cl 0.2087(3) 0.03339(15) 0.3084(2)
C3 C 0.8890(3) 0.26740(15) 0.19119(19)
H1 H 0.8585 0.2413 0.1485
C4 C 0.9290(4) 0.24502(19) 0.2645(2)
H2 H 0.9247 0.2038 0.2712
C5 C 0.9753(4) 0.2827(2) 0.3285(2)
H3 H 1.0022 0.2671 0.3782
C6 C 0.9819(3) 0.3431(2) 0.31901(19)
H4 H 1.0141 0.3687 0.3624
C7 C 0.9409(3) 0.36650(15) 0.24534(17)
H5 H 0.9451 0.4078 0.2393
C8 C 0.8934(3) 0.32885(12) 0.17998(15)
C9 C 0.8544(3) 0.35401(12) 0.10071(15)
C10 C 0.9655(3) 0.39215(12) 0.10154(15)
C11 C 1.0918(3) 0.36732(14) 0.11970(19)
H6 H 1.1069 0.3263 0.1300
C12 C 1.1968(3) 0.40289(19) 0.1227(2)
H7 H 1.2803 0.3852 0.1333
C13 C 1.1795(4) 0.46236(19) 0.1107(2)
H8 H 1.2512 0.4858 0.1138
C14 C 1.0567(4) 0.48820(16) 0.0941(2)
H9 H 1.0449 0.5295 0.0862
C15 C 0.9490(3) 0.45351(14) 0.0888(2)
H10 H 0.8649 0.4716 0.0767
C16 C 0.7309(3) 0.34218(12) 0.03426(15)
C17 C 0.6984(3) 0.36135(12) -0.04645(16)
C18 C 0.7857(3) 0.34630(15) -0.07488(18)
H11 H 0.8677 0.3247 -0.0431
C19 C 0.7503(4) 0.36362(17) -0.1509(2)
H12 H 0.8091 0.3534 -0.1695
C20 C 0.6313(4) 0.39524(16) -0.1984(2)
H13 H 0.6089 0.4067 -0.2490
C21 C 0.5451(4) 0.41006(17) -0.1714(2)
H14 H 0.4637 0.4319 -0.2037
C22 C 0.5778(3) 0.39280(16) -0.09577(19)
H15 H 0.5171 0.4027 -0.0784
C23 C 0.6187(2) 0.30708(12) 0.03706(14)
C24 C 0.5574(3) 0.32704(13) 0.07876(16)
H16 H 0.5814 0.3646 0.1029
C25 C 0.4612(3) 0.29201(13) 0.08499(16)
H17 H 0.4201 0.3068 0.1123
C26 C 0.4247(2) 0.23512(12) 0.05126(15)
C27 C 0.4845(3) 0.21603(12) 0.00797(16)
H18 H 0.4606 0.1785 -0.0163
C28 C 0.5780(3) 0.25134(12) 0.00037(16)
H19 H 0.6147 0.2377 -0.0298
C29 C 0.3303(2) 0.19450(12) 0.06270(14)
C30 C 0.2097(3) 0.21537(13) 0.06023(16)
H20 H 0.1863 0.2559 0.0503
C31 C 0.1245(3) 0.17734(13) 0.07224(17)
H21 H 0.0450 0.1925 0.0703
C32 C 0.1563(3) 0.11698(13) 0.08712(17)
C33 C 0.2775(2) 0.09419(12) 0.09061(16)
C34 C 0.3621(2) 0.13453(12) 0.07805(15)
H22 H 0.4423 0.1199 0.0803
C35 C 0.3130(3) 0.03197(13) 0.11030(16)
H23 H 0.2502 0.0090 0.1171
C36 C 0.4266(3) 0.00334(13) 0.11989(19)
H24 H 0.4886 0.0250 0.1110
C37 C 0.4591(3) -0.05814(13) 0.14275(18)
C38 C 0.3776(3) -0.10334(13) 0.16092(15)
C39 C 0.4707(3) -0.15794(12) 0.18353(15)
C40 C 0.4591(3) -0.21440(14) 0.20772(18)
H25 H 0.3812 -0.2248 0.2108
C41 C 0.5651(4) -0.25550(15) 0.2273(2)
H26 H 0.5597 -0.2934 0.2455
C42 C 0.6788(4) -0.24143(14) 0.2205(2)
H27 H 0.7474 -0.2703 0.2326
C43 C 0.6922(3) -0.18522(14) 0.1959(2)
H28 H 0.7688 -0.1753 0.1913
C44 C 0.5867(3) -0.14428(13) 0.17846(19)
C45 C 0.2320(3) -0.11666(15) 0.08800(18)
H29 H 0.2411 -0.1247 0.0430
H30 H 0.1719 -0.0825 0.0769
H31 H 0.1921 -0.1510 0.0986
C46 C 0.3649(3) -0.08282(15) 0.23167(18)
H32 H 0.3255 -0.1147 0.2468
H33 H 0.3051 -0.0482 0.2166
H34 H 0.4562 -0.0728 0.2756
N1 N 0.5753(3) -0.08368(11) 0.1545(2)
C47 C 0.7120(5) -0.0484(3) 0.1782(3)
H35 H 0.7117 -0.0094 0.2001
H36 H 0.7941 -0.0706 0.2170
C48 C 0.7099(6) -0.0417(3) 0.1007(3)
H37 H 0.7304 -0.0803 0.0861
H38 H 0.6167 -0.0297 0.0591
C49 C 0.8146(5) 0.0038(2) 0.1067(3)
H39 H 0.8243 0.0000 0.0607
H40 H 0.9052 -0.0048 0.1535
S1 S 0.76429(7) 0.08335(3) 0.11278(5)
O1 O 0.86788(19) 0.11967(9) 0.10772(13)
O2 O 0.7441(3) 0.10011(18) 0.17506(18)
O3 O 0.6349(2) 0.07891(12) 0.03978(17)
O4 O 0.0773(2) 0.07753(10) 0.09918(16)
H41 H 0.0163 0.0957 0.1023
C2? C 0.0755(18) 0.1032(13) 0.3390(9)
Cl3? Cl 0.1476(5) 0.1298(3) 0.4331(3)
Cl4? Cl 0.1904(5) 0.1067(3) 0.3067(4)
C50? C 0.6582(6) -0.0565(2) 0.1165(4)
H42? H 0.6977 -0.0878 0.0995
H43? H 0.5999 -0.0301 0.0722
C51? C 0.7704(6) -0.0221(3) 0.1860(4)
H44? H 0.8331 -0.0500 0.2269
H45? H 0.7275 0.0032 0.2078
C52? C 0.8535(6) 0.0179(3) 0.1605(5)
H46? H 0.8716 -0.0050 0.1248
H47? H 0.9432 0.0283 0.2069
loop_
_geom_bond_atom_site_label_1
_geom_bond_atom_site_label_2
_geom_bond_site_symmetry_1
_geom_bond_site_symmetry_2
C1 Cl1 1_555 1_555
Cl2 C1 1_555 1_555
C3 H1 1_555 1_555
C4 C3 1_555 1_555
H2 C4 1_555 1_555
C5 C4 1_555 1_555
H3 C5 1_555 1_555
C6 C5 1_555 1_555
H4 C6 1_555 1_555
C7 C6 1_555 1_555
H5 C7 1_555 1_555
C8 C3 1_555 1_555
C9 C8 1_555 1_555
C10 C9 1_555 1_555
C11 C10 1_555 1_555
H6 C11 1_555 1_555
C12 C11 1_555 1_555
H7 C12 1_555 1_555
C13 C12 1_555 1_555
H8 C13 1_555 1_555
C14 C13 1_555 1_555
H9 C14 1_555 1_555
C15 C10 1_555 1_555
H10 C15 1_555 1_555
C16 C9 1_555 1_555
C17 C16 1_555 1_555
C18 C17 1_555 1_555
H11 C18 1_555 1_555
C19 C18 1_555 1_555
H12 C19 1_555 1_555
C20 C19 1_555 1_555
H13 C20 1_555 1_555
C21 C20 1_555 1_555
H14 C21 1_555 1_555
C22 C17 1_555 1_555
H15 C22 1_555 1_555
C23 C16 1_555 1_555
C24 C23 1_555 1_555
H16 C24 1_555 1_555
C25 C24 1_555 1_555
H17 C25 1_555 1_555
C26 C25 1_555 1_555
C27 C26 1_555 1_555
H18 C27 1_555 1_555
C28 C23 1_555 1_555
H19 C28 1_555 1_555
C29 C26 1_555 1_555
C30 C29 1_555 1_555
H20 C30 1_555 1_555
C31 C30 1_555 1_555
H21 C31 1_555 1_555
C32 C31 1_555 1_555
C33 C32 1_555 1_555
C34 C29 1_555 1_555
H22 C34 1_555 1_555
C35 C33 1_555 1_555
H23 C35 1_555 1_555
C36 C35 1_555 1_555
H24 C36 1_555 1_555
C37 C36 1_555 1_555
C38 C37 1_555 1_555
C39 C38 1_555 1_555
C40 C39 1_555 1_555
H25 C40 1_555 1_555
C41 C40 1_555 1_555
H26 C41 1_555 1_555
C42 C41 1_555 1_555
H27 C42 1_555 1_555
C43 C42 1_555 1_555
H28 C43 1_555 1_555
C44 C39 1_555 1_555
C45 C38 1_555 1_555
H29 C45 1_555 1_555
H30 C45 1_555 1_555
H31 C45 1_555 1_555
C46 C38 1_555 1_555
H32 C46 1_555 1_555
H33 C46 1_555 1_555
H34 C46 1_555 1_555
N1 C37 1_555 1_555
C47 N1 1_555 1_555
H35 C47 1_555 1_555
H36 C47 1_555 1_555
C48 C47 1_555 1_555
H37 C48 1_555 1_555
H38 C48 1_555 1_555
C49 C48 1_555 1_555
H39 C49 1_555 1_555
H40 C49 1_555 1_555
S1 C49 1_555 1_555
O1 S1 1_555 1_555
O2 S1 1_555 1_555
O3 S1 1_555 1_555
O4 C32 1_555 1_555
H41 O4 1_555 1_555
C7 C8 1_555 1_555
C14 C15 1_555 1_555
C21 C22 1_555 1_555
C27 C28 1_555 1_555
C33 C34 1_555 1_555
C43 C44 1_555 1_555
C44 N1 1_555 1_555

#END
