
#######################################################################
#
#                 Cambridge Crystallographic Data Centre
#                                CCDC 
#
#######################################################################
#
# If this CIF has been generated from an entry in the Cambridge 
# Structural Database, then it will include bibliographic, chemical, 
# crystal, experimental, refinement or atomic coordinate data resulting 
# from the CCDC's data processing and validation procedures.
#
#######################################################################

data_DEXQUU
_chemical_formula_moiety         
'2(C16 H36 N1 1+),C38 H30 N10 O8,2(C2 H3 O2 1-)'
_chemical_name_systematic        
"bis(Tetra-n-butylammonium) 3,3'-naphthalene-1,5-diylbis(1-(2-(((4-nitrophenyl)carbamoyl)amino)phenyl)urea) diacetate"
_symmetry_cell_setting           monoclinic
_symmetry_space_group_name_H-M   'P 21/n'
_symmetry_Int_Tables_number      14
_space_group_name_Hall           '-P 2yn'
loop_
_symmetry_equiv_pos_site_id
_symmetry_equiv_pos_as_xyz
1 x,y,z
2 1/2-x,1/2+y,1/2-z
3 -x,-y,-z
4 1/2+x,1/2-y,1/2+z
_cell_length_a                   12.430(5)
_cell_length_b                   14.615(6)
_cell_length_c                   21.187(9)
_cell_angle_alpha                90
_cell_angle_beta                 97.784(6)
_cell_angle_gamma                90
_cell_volume                     3813.46
_exptl_crystal_colour            yellow
_exptl_crystal_description       Block
_cell_formula_units_Z            2
loop_
_atom_site_label
_atom_site_type_symbol
_atom_site_fract_x
_atom_site_fract_y
_atom_site_fract_z
O1 O 0.7784(5) 0.4910(4) -0.0552(3)
O2 O 0.7451(4) 0.4113(4) -0.1410(3)
O3 O 0.5867(3) 0.1885(2) 0.14642(16)
O4 O 0.2104(2) 0.0067(2) 0.19981(15)
N1 N 0.7486(4) 0.4218(5) -0.0834(3)
N2 N 0.6193(3) 0.1215(3) 0.05351(17)
H1 H 0.6146 0.0696 0.0323
N3 N 0.5817(3) 0.0345(2) 0.13721(17)
H2 H 0.5887 -0.0127 0.1123
N4 N 0.3689(3) 0.0230(3) 0.15656(17)
H3 H 0.3936 0.0339 0.1203
N5 N 0.2075(3) 0.0275(3) 0.09300(17)
H4 H 0.2496 0.0321 0.0629
C1 C 0.7132(4) 0.3440(4) -0.0479(3)
C2 C 0.7230(5) 0.3499(4) 0.0175(3)
H5 H 0.7515 0.4039 0.0385
C3 C 0.6913(4) 0.2775(4) 0.0525(3)
H6 H 0.6980 0.2815 0.0976
C4 C 0.6498(3) 0.1986(3) 0.0217(2)
C5 C 0.6407(4) 0.1944(4) -0.0450(2)
H7 H 0.6122 0.1410 -0.0667
C6 C 0.6726(4) 0.2665(4) -0.0790(3)
H8 H 0.6667 0.2630 -0.1242
C7 C 0.5959(4) 0.1189(3) 0.1154(2)
C8 C 0.5556(3) 0.0193(3) 0.2000(2)
C9 C 0.6373(4) 0.0101(3) 0.2501(2)
H9 H 0.7108 0.0156 0.2430
C10 C 0.6135(4) -0.0070(4) 0.3106(2)
H10 H 0.6702 -0.0141 0.3451
C11 C 0.5070(4) -0.0137(3) 0.3206(2)
H11 H 0.4905 -0.0254 0.3623
C12 C 0.4237(4) -0.0039(3) 0.2714(2)
H12 H 0.3504 -0.0083 0.2792
C13 C 0.4475(3) 0.0126(3) 0.2097(2)
C14 C 0.2576(4) 0.0182(3) 0.1535(2)
C15 C 0.0949(3) 0.0305(3) 0.0734(2)
C16 C 0.0244(3) 0.0648(3) 0.1115(2)
H13 H 0.0511 0.0864 0.1530
C17 C -0.0867(3) 0.0681(3) 0.0899(2)
H14 H -0.1352 0.0916 0.1169
C18 C -0.1262(3) 0.0378(3) 0.0303(2)
H15 H -0.2020 0.0412 0.0162
C19 C 0.0569(3) -0.0016(3) 0.0106(2)
O1B O -0.7784(5) -0.4910(4) 0.0552(3)
O2B O -0.7451(4) -0.4113(4) 0.1410(3)
O3B O -0.5867(3) -0.1885(2) -0.14642(16)
O4B O -0.2104(2) -0.0067(2) -0.19981(15)
N1B N -0.7486(4) -0.4218(5) 0.0834(3)
N2B N -0.6193(3) -0.1215(3) -0.05351(17)
H1B H -0.6146 -0.0696 -0.0323
N3B N -0.5817(3) -0.0345(2) -0.13721(17)
H2B H -0.5887 0.0127 -0.1123
N4B N -0.3689(3) -0.0230(3) -0.15656(17)
H3B H -0.3936 -0.0339 -0.1203
N5B N -0.2075(3) -0.0275(3) -0.09300(17)
H4B H -0.2496 -0.0321 -0.0629
C1B C -0.7132(4) -0.3440(4) 0.0479(3)
C2B C -0.7230(5) -0.3499(4) -0.0175(3)
H5B H -0.7515 -0.4039 -0.0385
C3B C -0.6913(4) -0.2775(4) -0.0525(3)
H6B H -0.6980 -0.2815 -0.0976
C4B C -0.6498(3) -0.1986(3) -0.0217(2)
C5B C -0.6407(4) -0.1944(4) 0.0450(2)
H7B H -0.6122 -0.1410 0.0667
C6B C -0.6726(4) -0.2665(4) 0.0790(3)
H8B H -0.6667 -0.2630 0.1242
C7B C -0.5959(4) -0.1189(3) -0.1154(2)
C8B C -0.5556(3) -0.0193(3) -0.2000(2)
C9B C -0.6373(4) -0.0101(3) -0.2501(2)
H9B H -0.7108 -0.0156 -0.2430
C10B C -0.6135(4) 0.0070(4) -0.3106(2)
H10B H -0.6702 0.0141 -0.3451
C11B C -0.5070(4) 0.0137(3) -0.3206(2)
H11B H -0.4905 0.0254 -0.3623
C12B C -0.4237(4) 0.0039(3) -0.2714(2)
H12B H -0.3504 0.0083 -0.2792
C13B C -0.4475(3) -0.0126(3) -0.2097(2)
C14B C -0.2576(4) -0.0182(3) -0.1535(2)
C15B C -0.0949(3) -0.0305(3) -0.0734(2)
C16B C -0.0244(3) -0.0648(3) -0.1115(2)
H13B H -0.0511 -0.0864 -0.1530
C17B C 0.0867(3) -0.0681(3) -0.0899(2)
H14B H 0.1352 -0.0916 -0.1169
C18B C 0.1262(3) -0.0378(3) -0.0303(2)
H15B H 0.2020 -0.0412 -0.0162
C19B C -0.0569(3) 0.0016(3) -0.0106(2)
O5 O 0.3903(3) 0.1189(2) 0.93076(17)
O6 O 0.3755(2) 0.0435(2) 1.01983(14)
C20 C 0.3743(4) 0.1165(4) 0.9875(2)
C21 C 0.3538(4) 0.2066(4) 1.0195(3)
H16 H 0.3648 0.2573 0.9908
H17 H 0.4043 0.2127 1.0590
H18 H 0.2790 0.2079 1.0293
N6 N 0.9734(3) 0.8012(3) 0.19788(19)
C22 C 0.9718(4) 0.8959(3) 0.2269(2)
H19 H 1.0368 0.9294 0.2171
H20 H 0.9073 0.9287 0.2055
C23 C 0.9697(5) 0.9004(3) 0.2975(3)
H21 H 1.0326 0.8664 0.3197
H22 H 0.9027 0.8709 0.3080
C24 C 0.9738(5) 0.9978(4) 0.3207(3)
H23 H 0.9120 1.0318 0.2972
H24 H 1.0415 1.0265 0.3105
C25 C 0.9694(6) 1.0073(5) 0.3913(3)
H25 H 0.9017 0.9805 0.4017
H26 H 0.9723 1.0722 0.4029
H27 H 1.0314 0.9753 0.4150
C26 C 0.8736(4) 0.7480(3) 0.2094(3)
H28 H 0.8761 0.6872 0.1891
H29 H 0.8763 0.7381 0.2558
C27 C 0.7668(5) 0.7925(5) 0.1849(3)
H30 H 0.7643 0.8066 0.1390
H31 H 0.7594 0.8506 0.2079
C28 C 0.6715(7) 0.7269(5) 0.1949(4)
C29 C 0.6509(10) 0.7286(9) 0.2591(5)
C30 C 0.9801(4) 0.8137(3) 0.1279(2)
H32 H 1.0487 0.8460 0.1234
H33 H 0.9196 0.8539 0.1097
C31 C 0.9756(5) 0.7267(3) 0.0886(2)
H34 H 1.0310 0.6832 0.1086
H35 H 0.9034 0.6978 0.0878
C32 C 0.9958(5) 0.7470(4) 0.0214(2)
H36 H 1.0699 0.7723 0.0223
H37 H 0.9435 0.7940 0.0028
C33 C 0.9844(5) 0.6621(4) -0.0205(3)
H38 H 1.0336 0.6143 -0.0012
H39 H 1.0028 0.6773 -0.0628
H40 H 0.9093 0.6399 -0.0245
C34 C 1.0707(4) 0.7474(3) 0.2300(3)
H41 H 1.0636 0.7405 0.2757
H42 H 1.0689 0.6853 0.2111
C35 C 1.1794(5) 0.7901(4) 0.2244(3)
H43 H 1.1779 0.8551 0.2373
H44 H 1.1919 0.7882 0.1793
C36 C 1.2741(7) 0.7423(5) 0.2652(4)
H45 H 1.2651 0.6753 0.2605
H46 H 1.3428 0.7594 0.2495
C37 C 1.2812(8) 0.7649(5) 0.3291(4)
H47 H 1.2688 0.8307 0.3334
H48 H 1.3536 0.7491 0.3507
H49 H 1.2262 0.7308 0.3485
C38? C 0.5827(12) 0.7542(11) 0.2105(13)
loop_
_geom_bond_atom_site_label_1
_geom_bond_atom_site_label_2
_geom_bond_site_symmetry_1
_geom_bond_site_symmetry_2
O1 N1 1_555 1_555
O2 N1 1_555 1_555
O3 C7 1_555 1_555
O4 C14 1_555 1_555
N1 C1 1_555 1_555
N2 H1 1_555 1_555
N3 H2 1_555 1_555
N4 H3 1_555 1_555
N5 H4 1_555 1_555
C1 C2 1_555 1_555
C2 H5 1_555 1_555
C3 C2 1_555 1_555
H6 C3 1_555 1_555
C4 N2 1_555 1_555
C5 C4 1_555 1_555
H7 C5 1_555 1_555
C6 C1 1_555 1_555
H8 C6 1_555 1_555
C7 N2 1_555 1_555
C8 N3 1_555 1_555
C9 C8 1_555 1_555
H9 C9 1_555 1_555
C10 C9 1_555 1_555
H10 C10 1_555 1_555
C11 C10 1_555 1_555
H11 C11 1_555 1_555
C12 C11 1_555 1_555
H12 C12 1_555 1_555
C13 N4 1_555 1_555
C14 N4 1_555 1_555
C15 N5 1_555 1_555
C16 C15 1_555 1_555
H13 C16 1_555 1_555
C17 C16 1_555 1_555
H14 C17 1_555 1_555
C18 C17 1_555 1_555
H15 C18 1_555 1_555
C19 C15 1_555 1_555
O5 C20 1_555 1_555
O6 C20 1_555 1_555
C20 C21 1_555 1_555
C21 H16 1_555 1_555
H17 C21 1_555 1_555
H18 C21 1_555 1_555
N6 C22 1_555 1_555
C22 H19 1_555 1_555
H20 C22 1_555 1_555
C23 C22 1_555 1_555
H21 C23 1_555 1_555
H22 C23 1_555 1_555
C24 C23 1_555 1_555
H23 C24 1_555 1_555
H24 C24 1_555 1_555
C25 C24 1_555 1_555
H25 C25 1_555 1_555
H26 C25 1_555 1_555
H27 C25 1_555 1_555
C26 N6 1_555 1_555
H28 C26 1_555 1_555
H29 C26 1_555 1_555
C27 C26 1_555 1_555
H30 C27 1_555 1_555
H31 C27 1_555 1_555
C28 C27 1_555 1_555
C29 C28 1_555 1_555
C30 N6 1_555 1_555
H32 C30 1_555 1_555
H33 C30 1_555 1_555
C31 C30 1_555 1_555
H34 C31 1_555 1_555
H35 C31 1_555 1_555
C32 C31 1_555 1_555
H36 C32 1_555 1_555
H37 C32 1_555 1_555
C33 C32 1_555 1_555
H38 C33 1_555 1_555
H39 C33 1_555 1_555
H40 C33 1_555 1_555
C34 N6 1_555 1_555
H41 C34 1_555 1_555
H42 C34 1_555 1_555
C35 C34 1_555 1_555
H43 C35 1_555 1_555
H44 C35 1_555 1_555
C36 C35 1_555 1_555
H45 C36 1_555 1_555
H46 C36 1_555 1_555
C37 C36 1_555 1_555
H47 C37 1_555 1_555
H48 C37 1_555 1_555
H49 C37 1_555 1_555
O1B N1B 1_555 1_555
O2B N1B 1_555 1_555
O3B C7B 1_555 1_555
O4B C14B 1_555 1_555
N1B C1B 1_555 1_555
N2B H1B 1_555 1_555
N3B H2B 1_555 1_555
N4B H3B 1_555 1_555
N5B H4B 1_555 1_555
C1B C2B 1_555 1_555
C2B H5B 1_555 1_555
C3B C2B 1_555 1_555
H6B C3B 1_555 1_555
C4B N2B 1_555 1_555
C5B C4B 1_555 1_555
H7B C5B 1_555 1_555
C6B C1B 1_555 1_555
H8B C6B 1_555 1_555
C7B N2B 1_555 1_555
C8B N3B 1_555 1_555
C9B C8B 1_555 1_555
H9B C9B 1_555 1_555
C10B C9B 1_555 1_555
H10B C10B 1_555 1_555
C11B C10B 1_555 1_555
H11B C11B 1_555 1_555
C12B C11B 1_555 1_555
H12B C12B 1_555 1_555
C13B N4B 1_555 1_555
C14B N4B 1_555 1_555
C15B N5B 1_555 1_555
C16B C15B 1_555 1_555
H13B C16B 1_555 1_555
C17B C16B 1_555 1_555
H14B C17B 1_555 1_555
C18B C19 1_555 1_555
H15B C18B 1_555 1_555
C19B C18 1_555 1_555
N3 C7 1_555 1_555
N5 C14 1_555 1_555
C3 C4 1_555 1_555
C5 C6 1_555 1_555
C8 C13 1_555 1_555
C12 C13 1_555 1_555
C19 C19B 1_555 1_555
N3B C7B 1_555 1_555
N5B C14B 1_555 1_555
C3B C4B 1_555 1_555
C5B C6B 1_555 1_555
C8B C13B 1_555 1_555
C12B C13B 1_555 1_555
C15B C19B 1_555 1_555
C17B C18B 1_555 1_555

#END
