
#######################################################################
#
#                 Cambridge Crystallographic Data Centre
#                                CCDC 
#
#######################################################################
#
# If this CIF has been generated from an entry in the Cambridge 
# Structural Database, then it will include bibliographic, chemical, 
# crystal, experimental, refinement or atomic coordinate data resulting 
# from the CCDC's data processing and validation procedures.
#
#######################################################################

data_DEXQEE
_chemical_formula_moiety         '2(C16 H36 N1 1+),C38 H30 N10 O8,2(Cl1 1-)'
_chemical_name_systematic        
"bis(Tetra-n-butylammonium) 3,3'-naphthalene-1,5-diylbis(1-(2-(((4-nitrophenyl)carbamoyl)amino)phenyl)urea) dichloride"
_symmetry_cell_setting           monoclinic
_symmetry_space_group_name_H-M   'C 2/c'
_symmetry_Int_Tables_number      15
_space_group_name_Hall           '-C 2yn'
loop_
_symmetry_equiv_pos_site_id
_symmetry_equiv_pos_as_xyz
1 x,y,z
2 -x,y,1/2-z
3 1/2+x,1/2+y,z
4 1/2-x,1/2+y,1/2-z
5 -x,-y,-z
6 x,-y,1/2+z
7 1/2-x,1/2-y,-z
8 1/2+x,1/2-y,1/2+z
_cell_length_a                   41.951(7)
_cell_length_b                   8.8842(15)
_cell_length_c                   19.048(3)
_cell_angle_alpha                90
_cell_angle_beta                 99.546(2)
_cell_angle_gamma                90
_cell_volume                     7000.91
_exptl_crystal_colour            yellow
_exptl_crystal_description       block
_cell_formula_units_Z            4
loop_
_atom_site_label
_atom_site_type_symbol
_atom_site_fract_x
_atom_site_fract_y
_atom_site_fract_z
O1 O -0.03244(4) 0.8357(2) -0.20897(8)
O2 O -0.04388(4) 0.9603(2) -0.11922(9)
O3 O 0.05569(3) 0.58107(17) 0.14914(7)
O4 O 0.20280(3) 0.22410(18) 0.20815(7)
N1 N -0.02901(4) 0.8609(2) -0.14487(10)
N2 N 0.06048(4) 0.50675(18) 0.03580(8)
H1 H 0.0714 0.4478 0.0129
N3 N 0.09084(4) 0.39240(18) 0.13119(8)
H2 H 0.0951 0.3272 0.1007
N4 N 0.15780(3) 0.35321(18) 0.15478(8)
H3 H 0.1488 0.3940 0.1155
N5 N 0.19508(3) 0.27350(19) 0.08826(8)
H4 H 0.1811 0.3061 0.0534
C1 C -0.00614(4) 0.7694(2) -0.09664(10)
C2 C -0.00332(4) 0.7901(2) -0.02400(11)
H5 H -0.0160 0.8613 -0.0059
C3 C 0.01857(4) 0.7039(2) 0.02178(10)
H6 H 0.0206 0.7176 0.0707
C4 C 0.03747(4) 0.5970(2) -0.00563(10)
C5 C 0.03391(4) 0.5777(2) -0.07966(10)
H7 H 0.0463 0.5058 -0.0982
C6 C 0.01233(5) 0.6637(3) -0.12510(10)
H8 H 0.0102 0.6511 -0.1741
C7 C 0.06790(4) 0.5006(2) 0.10901(9)
C8 C 0.10775(4) 0.3834(2) 0.20192(9)
C9 C 0.09148(5) 0.3919(2) 0.25985(10)
H9 H 0.0690 0.3976 0.2522
C10 C 0.10842(5) 0.3919(2) 0.32884(10)
H10 H 0.0974 0.3974 0.3673
C11 C 0.14192(5) 0.3836(2) 0.34038(10)
H11 H 0.1534 0.3878 0.3865
C12 C 0.15830(5) 0.3692(2) 0.28359(10)
H12 H 0.1807 0.3608 0.2920
C13 C 0.14169(4) 0.36721(19) 0.21387(9)
C14 C 0.18671(4) 0.2795(2) 0.15481(9)
C15 C 0.22456(4) 0.2187(2) 0.07171(9)
C16 C 0.24236(4) 0.1097(2) 0.11189(10)
H13 H 0.2354 0.0718 0.1523
C17 C 0.27104(4) 0.0554(2) 0.09218(10)
H14 H 0.2827 -0.0187 0.1198
C18 C 0.23525(4) 0.2787(2) 0.00940(9)
C19 C 0.21783(4) 0.3912(2) -0.03340(9)
H15 H 0.1987 0.4290 -0.0215
O1F O 0.53244(4) -0.3357(2) 0.20897(8)
O2F O 0.54388(4) -0.4603(2) 0.11922(9)
O3F O 0.44431(3) -0.08107(17) -0.14914(7)
O4F O 0.29720(3) 0.27590(18) -0.20815(7)
N1F N 0.52901(4) -0.3609(2) 0.14487(10)
N2F N 0.43952(4) -0.00675(18) -0.03580(8)
H1F H 0.4286 0.0522 -0.0129
N3F N 0.40916(4) 0.10760(18) -0.13119(8)
H2F H 0.4049 0.1728 -0.1007
N4F N 0.34220(3) 0.14679(18) -0.15478(8)
H3F H 0.3512 0.1060 -0.1155
N5F N 0.30492(3) 0.22650(19) -0.08826(8)
H4F H 0.3189 0.1939 -0.0534
C1F C 0.50614(4) -0.2694(2) 0.09664(10)
C2F C 0.50332(4) -0.2901(2) 0.02400(11)
H5F H 0.5160 -0.3613 0.0059
C3F C 0.48143(4) -0.2039(2) -0.02178(10)
H6F H 0.4794 -0.2176 -0.0707
C4F C 0.46253(4) -0.0970(2) 0.00563(10)
C5F C 0.46609(4) -0.0777(2) 0.07966(10)
H7F H 0.4537 -0.0058 0.0982
C6F C 0.48767(5) -0.1637(3) 0.12510(10)
H8F H 0.4898 -0.1511 0.1741
C7F C 0.43210(4) -0.0006(2) -0.10901(9)
C8F C 0.39225(4) 0.1166(2) -0.20192(9)
C9F C 0.40852(5) 0.1081(2) -0.25985(10)
H9F H 0.4310 0.1024 -0.2522
C10F C 0.39158(5) 0.1081(2) -0.32884(10)
H10F H 0.4026 0.1026 -0.3673
C11F C 0.35808(5) 0.1164(2) -0.34038(10)
H11F H 0.3466 0.1122 -0.3865
C12F C 0.34170(5) 0.1308(2) -0.28359(10)
H12F H 0.3193 0.1392 -0.2920
C13F C 0.35831(4) 0.13279(19) -0.21387(9)
C14F C 0.31329(4) 0.2205(2) -0.15481(9)
C15F C 0.27544(4) 0.2813(2) -0.07171(9)
C16F C 0.25764(4) 0.3903(2) -0.11189(10)
H13F H 0.2646 0.4282 -0.1523
C17F C 0.22896(4) 0.4446(2) -0.09218(10)
H14F H 0.2173 0.5187 -0.1198
C18F C 0.26475(4) 0.2213(2) -0.00940(9)
C19F C 0.28217(4) 0.1088(2) 0.03340(9)
H15F H 0.3013 0.0710 0.0215
N6 N 0.14186(4) 0.87261(16) 0.26087(8)
C20 C 0.15535(4) 0.9868(2) 0.31699(10)
H16 H 0.1387 1.0604 0.3208
H17 H 0.1731 1.0393 0.3009
C21 C 0.16745(5) 0.9230(2) 0.39091(10)
H18 H 0.1840 0.8482 0.3881
H19 H 0.1498 0.8741 0.4089
C22 C 0.18128(5) 1.0485(3) 0.44187(11)
H20 H 0.1653 1.1276 0.4403
H21 H 0.1852 1.0087 0.4899
C23 C 0.21229(5) 1.1162(3) 0.42561(13)
H22 H 0.2282 1.0385 0.4263
H23 H 0.2200 1.1907 0.4608
H24 H 0.2083 1.1623 0.3794
C24 C 0.16737(4) 0.7566(2) 0.25065(11)
H25 H 0.1586 0.6926 0.2108
H26 H 0.1713 0.6935 0.2928
C25 C 0.19974(5) 0.8185(2) 0.23716(12)
H27 H 0.2129 0.8458 0.2821
H28 H 0.1961 0.9084 0.2080
C26 C 0.21751(5) 0.7008(3) 0.19937(12)
H29 H 0.2403 0.7267 0.2058
H30 H 0.2157 0.6035 0.2214
C27 C 0.20459(6) 0.6886(3) 0.12055(13)
H31 H 0.1823 0.6592 0.1138
H32 H 0.2168 0.6145 0.0996
H33 H 0.2065 0.7843 0.0982
C28 C 0.13119(4) 0.9621(2) 0.19266(9)
H34 H 0.1160 1.0383 0.2024
H35 H 0.1499 1.0141 0.1809
C29 C 0.11568(5) 0.8736(2) 0.12750(10)
H36 H 0.0944 0.8394 0.1337
H37 H 0.1287 0.7860 0.1212
C30 C 0.11309(6) 0.9756(3) 0.06240(11)
H38 H 0.1004 1.0638 0.0698
H39 H 0.1345 1.0093 0.0569
C31 C 0.09743(7) 0.8961(4) -0.00547(13)
H40 H 0.1096 0.8072 -0.0123
H41 H 0.0972 0.9624 -0.0454
H42 H 0.0757 0.8684 -0.0015
C32 C 0.11348(4) 0.7861(2) 0.28175(10)
H43 H 0.1057 0.7153 0.2440
H44 H 0.1213 0.7281 0.3243
C33 C 0.08518(5) 0.8810(2) 0.29580(11)
H45 H 0.0925 0.9537 0.3330
H46 H 0.0762 0.9357 0.2530
C34 C 0.05936(5) 0.7815(3) 0.31847(13)
H47 H 0.0690 0.7207 0.3587
H48 H 0.0511 0.7138 0.2797
C35 C 0.03140(6) 0.8709(3) 0.33895(14)
H49 H 0.0389 0.9278 0.3813
H50 H 0.0147 0.8030 0.3475
H51 H 0.0230 0.9382 0.3009
Cl1 Cl 0.126399(11) 0.62354(7) 0.48984(2)
loop_
_geom_bond_atom_site_label_1
_geom_bond_atom_site_label_2
_geom_bond_site_symmetry_1
_geom_bond_site_symmetry_2
O1 N1 1_555 1_555
O2 N1 1_555 1_555
O3 C7 1_555 1_555
O4 C14 1_555 1_555
N1 C1 1_555 1_555
N2 H1 1_555 1_555
N3 H2 1_555 1_555
N4 H3 1_555 1_555
N5 H4 1_555 1_555
C1 C2 1_555 1_555
C2 H5 1_555 1_555
C3 C2 1_555 1_555
H6 C3 1_555 1_555
C4 N2 1_555 1_555
C5 C4 1_555 1_555
H7 C5 1_555 1_555
C6 C1 1_555 1_555
H8 C6 1_555 1_555
C7 N2 1_555 1_555
C8 N3 1_555 1_555
C9 C8 1_555 1_555
H9 C9 1_555 1_555
C10 C9 1_555 1_555
H10 C10 1_555 1_555
C11 C10 1_555 1_555
H11 C11 1_555 1_555
C12 C11 1_555 1_555
H12 C12 1_555 1_555
C13 N4 1_555 1_555
C14 N4 1_555 1_555
C15 N5 1_555 1_555
C16 C15 1_555 1_555
H13 C16 1_555 1_555
C17 C16 1_555 1_555
H14 C17 1_555 1_555
C18 C15 1_555 1_555
C19 C18 1_555 1_555
H15 C19 1_555 1_555
N6 C20 1_555 1_555
C20 H16 1_555 1_555
H17 C20 1_555 1_555
C21 C20 1_555 1_555
H18 C21 1_555 1_555
H19 C21 1_555 1_555
C22 C21 1_555 1_555
H20 C22 1_555 1_555
H21 C22 1_555 1_555
C23 C22 1_555 1_555
H22 C23 1_555 1_555
H23 C23 1_555 1_555
H24 C23 1_555 1_555
C24 N6 1_555 1_555
H25 C24 1_555 1_555
H26 C24 1_555 1_555
C25 C24 1_555 1_555
H27 C25 1_555 1_555
H28 C25 1_555 1_555
C26 C25 1_555 1_555
H29 C26 1_555 1_555
H30 C26 1_555 1_555
C27 C26 1_555 1_555
H31 C27 1_555 1_555
H32 C27 1_555 1_555
H33 C27 1_555 1_555
C28 N6 1_555 1_555
H34 C28 1_555 1_555
H35 C28 1_555 1_555
C29 C28 1_555 1_555
H36 C29 1_555 1_555
H37 C29 1_555 1_555
C30 C29 1_555 1_555
H38 C30 1_555 1_555
H39 C30 1_555 1_555
C31 C30 1_555 1_555
H40 C31 1_555 1_555
H41 C31 1_555 1_555
H42 C31 1_555 1_555
C32 N6 1_555 1_555
H43 C32 1_555 1_555
H44 C32 1_555 1_555
C33 C32 1_555 1_555
H45 C33 1_555 1_555
H46 C33 1_555 1_555
C34 C33 1_555 1_555
H47 C34 1_555 1_555
H48 C34 1_555 1_555
C35 C34 1_555 1_555
H49 C35 1_555 1_555
H50 C35 1_555 1_555
H51 C35 1_555 1_555
O1F N1F 1_555 1_555
O2F N1F 1_555 1_555
O3F C7F 1_555 1_555
O4F C14F 1_555 1_555
N1F C1F 1_555 1_555
N2F H1F 1_555 1_555
N3F H2F 1_555 1_555
N4F H3F 1_555 1_555
N5F H4F 1_555 1_555
C1F C2F 1_555 1_555
C2F H5F 1_555 1_555
C3F C2F 1_555 1_555
H6F C3F 1_555 1_555
C4F N2F 1_555 1_555
C5F C4F 1_555 1_555
H7F C5F 1_555 1_555
C6F C1F 1_555 1_555
H8F C6F 1_555 1_555
C7F N2F 1_555 1_555
C8F N3F 1_555 1_555
C9F C8F 1_555 1_555
H9F C9F 1_555 1_555
C10F C9F 1_555 1_555
H10F C10F 1_555 1_555
C11F C10F 1_555 1_555
H11F C11F 1_555 1_555
C12F C11F 1_555 1_555
H12F C12F 1_555 1_555
C13F N4F 1_555 1_555
C14F N4F 1_555 1_555
C15F N5F 1_555 1_555
C16F C15F 1_555 1_555
H13F C16F 1_555 1_555
C17F C19 1_555 1_555
H14F C17F 1_555 1_555
C18F C18 1_555 1_555
C19F C17 1_555 1_555
H15F C19F 1_555 1_555
N3 C7 1_555 1_555
N5 C14 1_555 1_555
C3 C4 1_555 1_555
C5 C6 1_555 1_555
C8 C13 1_555 1_555
C12 C13 1_555 1_555
N3F C7F 1_555 1_555
N5F C14F 1_555 1_555
C3F C4F 1_555 1_555
C5F C6F 1_555 1_555
C8F C13F 1_555 1_555
C12F C13F 1_555 1_555
C15F C18F 1_555 1_555
C16F C17F 1_555 1_555
C18F C19F 1_555 1_555

#END
