
#######################################################################
#
#                 Cambridge Crystallographic Data Centre
#                                CCDC 
#
#######################################################################
#
# If this CIF has been generated from an entry in the Cambridge 
# Structural Database, then it will include bibliographic, chemical, 
# crystal, experimental, refinement or atomic coordinate data resulting 
# from the CCDC's data processing and validation procedures.
#
#######################################################################

data_DEXROP
_chemical_formula_moiety         'C38 H30 N10 O8,4(C2 H6 O1 S1)'
_chemical_name_systematic        
"3,3'-Naphthalene-1,5-diylbis(1-(2-(((4-nitrophenyl)carbamoyl)amino)phenyl)urea) dimethyl sulfoxide solvate"
_symmetry_cell_setting           triclinic
_symmetry_space_group_name_H-M   'P -1'
_symmetry_Int_Tables_number      2
_space_group_name_Hall           '-P 1'
loop_
_symmetry_equiv_pos_site_id
_symmetry_equiv_pos_as_xyz
1 x,y,z
2 -x,-y,-z
_cell_length_a                   9.189(3)
_cell_length_b                   16.271(6)
_cell_length_c                   19.010(7)
_cell_angle_alpha                114.021(5)
_cell_angle_beta                 98.024(5)
_cell_angle_gamma                94.551(6)
_cell_volume                     2541.4
_exptl_crystal_colour            yellow
_exptl_crystal_description       plate
_cell_formula_units_Z            2
loop_
_atom_site_label
_atom_site_type_symbol
_atom_site_fract_x
_atom_site_fract_y
_atom_site_fract_z
S1 S 0.05344(16) 0.85595(10) 0.13627(8)
O1 O 0.2193(4) 0.8665(3) 0.1376(2)
C1 C -0.0289(7) 0.7994(5) 0.0350(3)
H1 H -0.0101 0.8396 0.0094
H2 H -0.1363 0.7835 0.0295
H3 H 0.0145 0.7438 0.0104
C2 C 0.0169(7) 0.7669(4) 0.1645(4)
H4 H 0.0554 0.7131 0.1306
H5 H -0.0906 0.7520 0.1595
H6 H 0.0656 0.7860 0.2191
S2 S 0.53528(16) 0.36415(9) 0.12729(8)
O2 O 0.3692(4) 0.3645(3) 0.1168(2)
C3 C 0.5721(7) 0.3217(5) 0.0298(3)
H7 H 0.5039 0.2653 -0.0036
H8 H 0.6749 0.3095 0.0305
H9 H 0.5576 0.3671 0.0089
C4 C 0.5628(7) 0.2666(4) 0.1451(4)
H10 H 0.5361 0.2753 0.1955
H11 H 0.6674 0.2582 0.1464
H12 H 0.5000 0.2127 0.1031
S3 S 0.1191(2) 0.59912(12) 0.34730(10)
O3 O -0.0348(5) 0.5465(3) 0.3228(3)
C5 C 0.1386(7) 0.6494(4) 0.2825(3)
H13 H 0.1385 0.6019 0.2301
H14 H 0.2325 0.6913 0.3011
H15 H 0.0556 0.6830 0.2799
C6 C 0.1153(7) 0.7010(4) 0.4313(3)
H16 H 0.0318 0.7304 0.4199
H17 H 0.2087 0.7424 0.4446
H18 H 0.1035 0.6865 0.4755
S4 S 0.5837(2) 0.10669(13) 0.34761(11)
O4 O 0.6950(5) 0.0433(3) 0.3201(3)
C7 C 0.4083(8) 0.0363(6) 0.3217(4)
H19 H 0.3877 -0.0029 0.2653
H20 H 0.3301 0.0746 0.3349
H21 H 0.4106 -0.0016 0.3508
C8 C 0.5529(9) 0.1500(5) 0.2753(5)
H22 H 0.6433 0.1887 0.2788
H23 H 0.4709 0.1858 0.2843
H24 H 0.5274 0.0992 0.2230
O5 O 1.5006(5) 1.2702(3) 0.5701(3)
O6 O 1.5632(5) 1.1580(3) 0.5957(3)
O7 O 0.9696(5) 0.8343(3) 0.3564(2)
O8 O 0.7136(4) 0.8433(3) 0.1376(2)
N1 N 1.4754(6) 1.1925(4) 0.5647(3)
N2 N 0.9377(5) 0.9799(3) 0.3727(2)
H25 H 0.8770 1.0108 0.3569
N3 N 0.7496(5) 0.8617(3) 0.3028(2)
H26 H 0.7034 0.9050 0.2981
N4 N 0.5011(5) 0.8244(3) 0.1846(2)
H27 H 0.4190 0.8467 0.1964
N5 N 0.5115(5) 0.9111(3) 0.1153(2)
H28 H 0.4190 0.9152 0.1218
C9 C 1.3334(6) 1.1366(4) 0.5173(3)
C10 C 1.3086(6) 1.0465(4) 0.5027(3)
H29 H 1.3807 1.0218 0.5259
C11 C 1.1798(6) 0.9914(4) 0.4545(3)
H30 H 1.1652 0.9284 0.4430
C12 C 1.0704(6) 1.0286(4) 0.4226(3)
C13 C 1.0977(7) 1.1220(4) 0.4400(3)
H31 H 1.0255 1.1478 0.4179
C14 C 1.2269(7) 1.1767(4) 0.4883(3)
H32 H 1.2425 1.2400 0.5013
C15 C 0.8919(6) 0.8876(4) 0.3456(3)
C16 C 0.6698(6) 0.7724(4) 0.2657(3)
C17 C 0.7043(7) 0.7023(4) 0.2861(3)
H33 H 0.7914 0.7121 0.3236
C18 C 0.6142(7) 0.6184(4) 0.2528(3)
H34 H 0.6393 0.5717 0.2680
C19 C 0.4886(7) 0.6028(4) 0.1978(3)
H35 H 0.4256 0.5457 0.1760
C20 C 0.4533(6) 0.6704(4) 0.1740(3)
H36 H 0.3677 0.6590 0.1351
C21 C 0.5441(6) 0.7545(4) 0.2073(3)
C22 C 0.5868(6) 0.8577(3) 0.1443(3)
C23 C 0.5712(6) 0.9595(4) 0.0762(3)
C24 C 0.7179(6) 0.9941(4) 0.0936(3)
H37 H 0.7835 0.9830 0.1310
C25 C 0.4709(6) 0.9735(3) 0.0189(3)
C26 C 0.3174(6) 0.9372(4) -0.0025(3)
H38 H 0.2778 0.9013 0.0211
C27 C 0.2265(6) 0.9539(4) -0.0571(3)
H39 H 0.1237 0.9299 -0.0704
O5A O -0.5006(5) 0.7298(3) -0.5701(3)
O6A O -0.5632(5) 0.8420(3) -0.5957(3)
O7A O 0.0304(5) 1.1657(3) -0.3564(2)
O8A O 0.2864(4) 1.1567(3) -0.1376(2)
N1A N -0.4754(6) 0.8075(4) -0.5647(3)
N2A N 0.0623(5) 1.0201(3) -0.3727(2)
H25A H 0.1230 0.9892 -0.3569
N3A N 0.2504(5) 1.1383(3) -0.3028(2)
H26A H 0.2966 1.0950 -0.2981
N4A N 0.4989(5) 1.1756(3) -0.1846(2)
H27A H 0.5810 1.1533 -0.1964
N5A N 0.4885(5) 1.0889(3) -0.1153(2)
H28A H 0.5810 1.0848 -0.1218
C9A C -0.3334(6) 0.8634(4) -0.5173(3)
C10A C -0.3086(6) 0.9535(4) -0.5027(3)
H29A H -0.3807 0.9782 -0.5259
C11A C -0.1798(6) 1.0086(4) -0.4545(3)
H30A H -0.1652 1.0716 -0.4430
C12A C -0.0704(6) 0.9714(4) -0.4226(3)
C13A C -0.0977(7) 0.8780(4) -0.4400(3)
H31A H -0.0255 0.8522 -0.4179
C14A C -0.2269(7) 0.8233(4) -0.4883(3)
H32A H -0.2425 0.7600 -0.5013
C15A C 0.1081(6) 1.1124(4) -0.3456(3)
C16A C 0.3302(6) 1.2276(4) -0.2657(3)
C17A C 0.2957(7) 1.2977(4) -0.2861(3)
H33A H 0.2086 1.2879 -0.3236
C18A C 0.3858(7) 1.3816(4) -0.2528(3)
H34A H 0.3607 1.4283 -0.2680
C19A C 0.5114(7) 1.3972(4) -0.1978(3)
H35A H 0.5744 1.4543 -0.1760
C20A C 0.5467(6) 1.3296(4) -0.1740(3)
H36A H 0.6323 1.3410 -0.1351
C21A C 0.4559(6) 1.2455(4) -0.2073(3)
C22A C 0.4132(6) 1.1423(3) -0.1443(3)
C23A C 0.4288(6) 1.0405(4) -0.0762(3)
C24A C 0.2821(6) 1.0059(4) -0.0936(3)
H37A H 0.2165 1.0170 -0.1310
C25A C 0.5291(6) 1.0265(3) -0.0189(3)
C26A C 0.6826(6) 1.0628(4) 0.0025(3)
H38A H 0.7222 1.0987 -0.0211
C27A C 0.7735(6) 1.0461(4) 0.0571(3)
H39A H 0.8763 1.0701 0.0704
O9 O 0.5288(6) 0.5371(4) 0.6799(3)
O10 O 0.5972(5) 0.6711(3) 0.6872(3)
O11 O 0.8746(5) 0.2960(3) 0.3897(2)
O12 O 0.8896(4) 0.3467(3) 0.1458(2)
N6 N 0.5897(6) 0.5882(4) 0.6560(3)
N7 N 0.8424(5) 0.4333(3) 0.3871(3)
H40 H 0.8553 0.4673 0.3617
N8 N 0.9424(5) 0.3283(3) 0.2911(3)
H41 H 0.9366 0.3676 0.2703
N9 N 1.1298(5) 0.3324(3) 0.1848(3)
H42 H 1.2219 0.3609 0.1992
N10 N 1.0834(5) 0.4262(3) 0.1239(2)
H43 H 1.1808 0.4375 0.1309
C28 C 0.6546(7) 0.5475(4) 0.5861(3)
C29 C 0.6287(7) 0.4535(4) 0.5427(3)
H44 H 0.5694 0.4161 0.5586
C30 C 0.6896(6) 0.4152(4) 0.4766(3)
H45 H 0.6703 0.3511 0.4465
C31 C 0.7790(6) 0.4688(4) 0.4532(3)
C32 C 0.8018(7) 0.5640(4) 0.4964(4)
H46 H 0.8593 0.6018 0.4801
C33 C 0.7396(7) 0.6027(4) 0.5633(4)
H47 H 0.7557 0.6669 0.5930
C34 C 0.8869(6) 0.3486(4) 0.3582(3)
C35 C 1.0080(6) 0.2509(4) 0.2516(3)
C36 C 0.9897(7) 0.1711(4) 0.2631(3)
H48 H 0.9251 0.1665 0.2967
C37 C 1.0621(7) 0.1001(4) 0.2273(3)
H49 H 1.0512 0.0483 0.2385
C38 C 1.1515(6) 0.1021(4) 0.1750(3)
H50 H 1.2009 0.0520 0.1498
C39 C 1.1677(6) 0.1789(4) 0.1600(3)
H51 H 1.2272 0.1806 0.1234
C40 C 1.0977(6) 0.2530(4) 0.1979(3)
C41 C 1.0217(7) 0.3665(3) 0.1503(3)
C42 C 0.9959(6) 0.4704(3) 0.0858(3)
C43 C 0.8721(6) 0.5037(4) 0.1108(3)
H52 H 0.8430 0.4983 0.1550
C44 C 1.0439(6) 0.4776(3) 0.0194(3)
C45 C 1.1726(6) 0.4455(4) -0.0080(3)
H53 H 1.2323 0.4177 0.0182
C46 C 1.2132(6) 0.4538(4) -0.0716(3)
H54 H 1.2994 0.4307 -0.0895
O9A O 1.4712(6) 0.4629(4) -0.6799(3)
O10A O 1.4028(5) 0.3289(3) -0.6872(3)
O11A O 1.1254(5) 0.7040(3) -0.3897(2)
O12A O 1.1104(4) 0.6533(3) -0.1458(2)
N6A N 1.4103(6) 0.4118(4) -0.6560(3)
N7A N 1.1576(5) 0.5667(3) -0.3871(3)
H40A H 1.1447 0.5327 -0.3617
N8A N 1.0576(5) 0.6717(3) -0.2911(3)
H41A H 1.0634 0.6324 -0.2703
N9A N 0.8702(5) 0.6676(3) -0.1848(3)
H42A H 0.7781 0.6391 -0.1992
N10A N 0.9166(5) 0.5738(3) -0.1239(2)
H43A H 0.8192 0.5625 -0.1309
C28A C 1.3454(7) 0.4525(4) -0.5861(3)
C29A C 1.3713(7) 0.5465(4) -0.5427(3)
H44A H 1.4306 0.5839 -0.5586
C30A C 1.3104(6) 0.5848(4) -0.4766(3)
H45A H 1.3297 0.6489 -0.4465
C31A C 1.2210(6) 0.5312(4) -0.4532(3)
C32A C 1.1982(7) 0.4360(4) -0.4964(4)
H46A H 1.1407 0.3982 -0.4801
C33A C 1.2604(7) 0.3973(4) -0.5633(4)
H47A H 1.2443 0.3331 -0.5930
C34A C 1.1131(6) 0.6514(4) -0.3582(3)
C35A C 0.9920(6) 0.7491(4) -0.2516(3)
C36A C 1.0103(7) 0.8289(4) -0.2631(3)
H48A H 1.0749 0.8335 -0.2967
C37A C 0.9379(7) 0.8999(4) -0.2273(3)
H49A H 0.9488 0.9517 -0.2385
C38A C 0.8485(6) 0.8979(4) -0.1750(3)
H50A H 0.7991 0.9480 -0.1498
C39A C 0.8323(6) 0.8211(4) -0.1600(3)
H51A H 0.7728 0.8194 -0.1234
C40A C 0.9023(6) 0.7470(4) -0.1979(3)
C41A C 0.9783(7) 0.6335(3) -0.1503(3)
C42A C 1.0041(6) 0.5296(3) -0.0858(3)
C43A C 1.1279(6) 0.4963(4) -0.1108(3)
H52A H 1.1570 0.5017 -0.1550
C44A C 0.9561(6) 0.5224(3) -0.0194(3)
C45A C 0.8274(6) 0.5545(4) 0.0080(3)
H53A H 0.7677 0.5823 -0.0182
C46A C 0.7868(6) 0.5462(4) 0.0716(3)
H54A H 0.7006 0.5693 0.0895
loop_
_geom_bond_atom_site_label_1
_geom_bond_atom_site_label_2
_geom_bond_site_symmetry_1
_geom_bond_site_symmetry_2
S1 O1 1_555 1_555
C1 S1 1_555 1_555
H1 C1 1_555 1_555
H2 C1 1_555 1_555
H3 C1 1_555 1_555
C2 S1 1_555 1_555
H4 C2 1_555 1_555
H5 C2 1_555 1_555
H6 C2 1_555 1_555
S2 O2 1_555 1_555
C3 S2 1_555 1_555
H7 C3 1_555 1_555
H8 C3 1_555 1_555
H9 C3 1_555 1_555
C4 S2 1_555 1_555
H10 C4 1_555 1_555
H11 C4 1_555 1_555
H12 C4 1_555 1_555
S3 O3 1_555 1_555
C5 S3 1_555 1_555
H13 C5 1_555 1_555
H14 C5 1_555 1_555
H15 C5 1_555 1_555
C6 S3 1_555 1_555
H16 C6 1_555 1_555
H17 C6 1_555 1_555
H18 C6 1_555 1_555
S4 O4 1_555 1_555
C7 S4 1_555 1_555
H19 C7 1_555 1_555
H20 C7 1_555 1_555
H21 C7 1_555 1_555
C8 S4 1_555 1_555
H22 C8 1_555 1_555
H23 C8 1_555 1_555
H24 C8 1_555 1_555
O5 N1 1_555 1_555
O6 N1 1_555 1_555
O7 C15 1_555 1_555
O8 C22 1_555 1_555
N1 C9 1_555 1_555
N2 H25 1_555 1_555
N3 H26 1_555 1_555
N4 H27 1_555 1_555
N5 H28 1_555 1_555
C9 C10 1_555 1_555
C10 H29 1_555 1_555
C11 C10 1_555 1_555
H30 C11 1_555 1_555
C12 N2 1_555 1_555
C13 C12 1_555 1_555
H31 C13 1_555 1_555
C14 C9 1_555 1_555
H32 C14 1_555 1_555
C15 N2 1_555 1_555
C16 N3 1_555 1_555
C17 C16 1_555 1_555
H33 C17 1_555 1_555
C18 C17 1_555 1_555
H34 C18 1_555 1_555
C19 C18 1_555 1_555
H35 C19 1_555 1_555
C20 C19 1_555 1_555
H36 C20 1_555 1_555
C21 N4 1_555 1_555
C22 N4 1_555 1_555
C23 N5 1_555 1_555
C24 C23 1_555 1_555
H37 C24 1_555 1_555
C25 C23 1_555 1_555
C26 C25 1_555 1_555
H38 C26 1_555 1_555
C27 C26 1_555 1_555
H39 C27 1_555 1_555
O9 N6 1_555 1_555
O10 N6 1_555 1_555
O11 C34 1_555 1_555
O12 C41 1_555 1_555
N6 C28 1_555 1_555
N7 H40 1_555 1_555
N8 H41 1_555 1_555
N9 H42 1_555 1_555
N10 H43 1_555 1_555
C28 C29 1_555 1_555
C29 H44 1_555 1_555
C30 C29 1_555 1_555
H45 C30 1_555 1_555
C31 N7 1_555 1_555
C32 C31 1_555 1_555
H46 C32 1_555 1_555
C33 C28 1_555 1_555
H47 C33 1_555 1_555
C34 N7 1_555 1_555
C35 N8 1_555 1_555
C36 C35 1_555 1_555
H48 C36 1_555 1_555
C37 C36 1_555 1_555
H49 C37 1_555 1_555
C38 C37 1_555 1_555
H50 C38 1_555 1_555
C39 C38 1_555 1_555
H51 C39 1_555 1_555
C40 N9 1_555 1_555
C41 N9 1_555 1_555
C42 N10 1_555 1_555
C43 C42 1_555 1_555
H52 C43 1_555 1_555
C44 C42 1_555 1_555
C45 C44 1_555 1_555
H53 C45 1_555 1_555
C46 C45 1_555 1_555
H54 C46 1_555 1_555
O5A N1A 1_555 1_555
O6A N1A 1_555 1_555
O7A C15A 1_555 1_555
O8A C22A 1_555 1_555
N1A C9A 1_555 1_555
N2A H25A 1_555 1_555
N3A H26A 1_555 1_555
N4A H27A 1_555 1_555
N5A H28A 1_555 1_555
C9A C10A 1_555 1_555
C10A H29A 1_555 1_555
C11A C10A 1_555 1_555
H30A C11A 1_555 1_555
C12A N2A 1_555 1_555
C13A C12A 1_555 1_555
H31A C13A 1_555 1_555
C14A C9A 1_555 1_555
H32A C14A 1_555 1_555
C15A N2A 1_555 1_555
C16A N3A 1_555 1_555
C17A C16A 1_555 1_555
H33A C17A 1_555 1_555
C18A C17A 1_555 1_555
H34A C18A 1_555 1_555
C19A C18A 1_555 1_555
H35A C19A 1_555 1_555
C20A C19A 1_555 1_555
H36A C20A 1_555 1_555
C21A N4A 1_555 1_555
C22A N4A 1_555 1_555
C23A N5A 1_555 1_555
C24A C27 1_555 1_555
H37A C24A 1_555 1_555
C25A C25 1_555 1_555
C26A C25A 1_555 1_555
H38A C26A 1_555 1_555
C27A C24 1_555 1_555
H39A C27A 1_555 1_555
O9A N6A 1_555 1_555
O10A N6A 1_555 1_555
O11A C34A 1_555 1_555
O12A C41A 1_555 1_555
N6A C28A 1_555 1_555
N7A H40A 1_555 1_555
N8A H41A 1_555 1_555
N9A H42A 1_555 1_555
N10A H43A 1_555 1_555
C28A C29A 1_555 1_555
C29A H44A 1_555 1_555
C30A C29A 1_555 1_555
H45A C30A 1_555 1_555
C31A N7A 1_555 1_555
C32A C31A 1_555 1_555
H46A C32A 1_555 1_555
C33A C28A 1_555 1_555
H47A C33A 1_555 1_555
C34A N7A 1_555 1_555
C35A N8A 1_555 1_555
C36A C35A 1_555 1_555
H48A C36A 1_555 1_555
C37A C36A 1_555 1_555
H49A C37A 1_555 1_555
C38A C37A 1_555 1_555
H50A C38A 1_555 1_555
C39A C38A 1_555 1_555
H51A C39A 1_555 1_555
C40A N9A 1_555 1_555
C41A N9A 1_555 1_555
C42A N10A 1_555 1_555
C43A C46 1_555 1_555
H52A C43A 1_555 1_555
C44A C44 1_555 1_555
C45A C44A 1_555 1_555
H53A C45A 1_555 1_555
C46A C43 1_555 1_555
H54A C46A 1_555 1_555
N3 C15 1_555 1_555
N5 C22 1_555 1_555
C11 C12 1_555 1_555
C13 C14 1_555 1_555
C16 C21 1_555 1_555
C20 C21 1_555 1_555
N8 C34 1_555 1_555
N10 C41 1_555 1_555
C30 C31 1_555 1_555
C32 C33 1_555 1_555
C35 C40 1_555 1_555
C39 C40 1_555 1_555
N3A C15A 1_555 1_555
N5A C22A 1_555 1_555
C11A C12A 1_555 1_555
C13A C14A 1_555 1_555
C16A C21A 1_555 1_555
C20A C21A 1_555 1_555
C23A C24A 1_555 1_555
C23A C25A 1_555 1_555
C26A C27A 1_555 1_555
N8A C34A 1_555 1_555
N10A C41A 1_555 1_555
C30A C31A 1_555 1_555
C32A C33A 1_555 1_555
C35A C40A 1_555 1_555
C39A C40A 1_555 1_555
C42A C43A 1_555 1_555
C42A C44A 1_555 1_555
C45A C46A 1_555 1_555

#END
