
#######################################################################
#
#                 Cambridge Crystallographic Data Centre
#                                CCDC 
#
#######################################################################
#
# If this CIF has been generated from an entry in the Cambridge 
# Structural Database, then it will include bibliographic, chemical, 
# crystal, experimental, refinement or atomic coordinate data resulting 
# from the CCDC's data processing and validation procedures.
#
#######################################################################

data_DEXSOO
_chemical_formula_moiety         
'C92 H36 K1 O14 1+,F6 P1 1-,C1 H2 Cl2,0.5(C6 H6)'
_chemical_name_systematic        
'(+-)-out,out-61,62-Diethyl 61,62-((6,7,9,10,17,18,20,21-octahydrodibenzo(b,k)-1,4,7,10,13,16-hexaoxacyclo-octadecin-2,13-diyl)dimethylene) 1,2:55,60-bis(methano)C60fullerene-61,61,62,62-tetracarboxylate-potassium hexafluorophosphate benzene dichloromethane solvate'
_symmetry_cell_setting           monoclinic
_symmetry_space_group_name_H-M   'C 2/c'
_symmetry_Int_Tables_number      15
_space_group_name_Hall           '-C 2yn'
loop_
_symmetry_equiv_pos_site_id
_symmetry_equiv_pos_as_xyz
1 x,y,z
2 1/2+x,1/2+y,z
3 x,-y,1/2+z
4 1/2+x,1/2-y,1/2+z
5 -x,-y,-z
6 1/2-x,1/2-y,-z
7 -x,y,1/2-z
8 1/2-x,1/2+y,1/2-z
_cell_length_a                   53.556(7)
_cell_length_b                   10.091(2)
_cell_length_c                   27.297(4)
_cell_angle_alpha                90
_cell_angle_beta                 114.39(1)
_cell_angle_gamma                90
_cell_volume                     13435.7
_exptl_crystal_colour            black
_cell_formula_units_Z            8
loop_
_atom_site_label
_atom_site_type_symbol
_atom_site_fract_x
_atom_site_fract_y
_atom_site_fract_z
K1 K 0.72787(3) 0.38031(16) -0.37980(7)
C1 C 0.61285(14) 0.7485(7) -0.5975(3)
C2 C 0.61235(14) 0.8611(7) -0.5560(3)
C3 C 0.58509(15) 0.8792(7) -0.5538(3)
C4 C 0.56181(15) 0.8165(9) -0.5863(4)
C5 C 0.56223(16) 0.7151(10) -0.6242(3)
C6 C 0.58615(19) 0.6795(9) -0.6278(3)
C7 C 0.5916(2) 0.5442(10) -0.6311(4)
C8 C 0.6199(2) 0.5203(8) -0.5997(4)
C9 C 0.63324(17) 0.6428(8) -0.5747(4)
C10 C 0.65206(16) 0.6443(8) -0.5242(4)
C11 C 0.65246(14) 0.7439(9) -0.4845(3)
C12 C 0.63229(16) 0.8429(7) -0.4994(3)
C13 C 0.61942(18) 0.8762(8) -0.4652(3)
C14 C 0.59076(17) 0.8985(7) -0.4970(4)
C15 C 0.57135(19) 0.8630(8) -0.4777(4)
C16 C 0.54651(18) 0.8006(9) -0.5129(5)
C17 C 0.54167(16) 0.7779(9) -0.5655(4)
C18 C 0.52994(16) 0.6528(11) -0.5914(4)
C19 C 0.54245(18) 0.6162(10) -0.6261(4)
C20 C 0.5475(2) 0.4857(12) -0.6323(4)
C21 C 0.5721(3) 0.4477(10) -0.6348(4)
C22 C 0.5802(2) 0.3262(11) -0.6072(5)
C23 C 0.6070(2) 0.3009(8) -0.5786(5)
C24 C 0.6275(2) 0.4025(11) -0.5758(5)
C25 C 0.6483(2) 0.4006(8) -0.5226(5)
C26 C 0.66072(16) 0.5174(10) -0.4951(5)
C27 C 0.66640(15) 0.5412(10) -0.4405(5)
C28 C 0.66115(16) 0.6788(11) -0.4332(4)
C29 C 0.6504(2) 0.7155(10) -0.3989(4)
C30 C 0.6290(2) 0.8148(10) -0.4124(4)
C31 C 0.6084(2) 0.7772(10) -0.3935(4)
C32 C 0.5807(2) 0.8030(9) -0.4246(4)
C33 C 0.5603(2) 0.7013(10) -0.4284(4)
C34 C 0.53936(17) 0.7007(9) -0.4825(4)
C35 C 0.52800(15) 0.5804(9) -0.5070(4)
C36 C 0.52315(14) 0.5551(9) -0.5616(4)
C37 C 0.52887(16) 0.4179(9) -0.5670(4)
C38 C 0.5404(2) 0.3814(10) -0.6010(4)
C39 C 0.5607(2) 0.2869(10) -0.5875(5)
C40 C 0.56937(19) 0.2283(8) -0.5369(5)
C41 C 0.5969(2) 0.2039(8) -0.5073(5)
C42 C 0.6169(2) 0.2402(9) -0.5262(5)
C43 C 0.6415(2) 0.2972(10) -0.4917(6)
C44 C 0.64726(16) 0.3205(9) -0.4398(5)
C45 C 0.65909(17) 0.4374(12) -0.4119(4)
C46 C 0.6478(2) 0.4773(11) -0.3774(4)
C47 C 0.64291(18) 0.6050(13) -0.3665(4)
C48 C 0.6179(2) 0.6543(12) -0.3647(4)
C49 C 0.5975(2) 0.5551(12) -0.3684(3)
C50 C 0.5688(2) 0.5826(10) -0.4008(4)
C51 C 0.55546(17) 0.4591(9) -0.4260(4)
C52 C 0.53686(14) 0.4572(8) -0.4771(4)
C53 C 0.53739(15) 0.3553(9) -0.5149(4)
C54 C 0.55726(17) 0.2586(8) -0.5004(4)
C55 C 0.57724(15) 0.2410(8) -0.4446(4)
C56 C 0.60356(15) 0.2205(8) -0.4521(5)
C57 C 0.6262(2) 0.2767(10) -0.4202(4)
C58 C 0.62785(14) 0.3756(11) -0.3788(4)
C59 C 0.6037(2) 0.4175(11) -0.3731(4)
C60 C 0.57650(16) 0.3509(9) -0.4026(4)
C61 C 0.62017(15) 0.8936(7) -0.6026(3)
C62 C 0.65026(16) 0.9192(8) -0.5876(4)
O1 O 0.65817(10) 0.8570(5) -0.6220(2)
O2 O 0.66481(11) 0.9832(6) -0.5496(2)
C63 C 0.68759(15) 0.8518(8) -0.6085(3)
H1 H 0.6962 0.9277 -0.5869
H2 H 0.6909 0.8538 -0.6404
C64 C 0.69943(14) 0.7274(7) -0.5765(3)
C65 C 0.71305(14) 0.7294(7) -0.5210(3)
H3 H 0.7168 0.8126 -0.5022
C66 C 0.72142(13) 0.6125(7) -0.4916(3)
C67 C 0.71504(14) 0.4919(7) -0.5186(3)
C68 C 0.70200(16) 0.4898(8) -0.5737(3)
H4 H 0.6984 0.4065 -0.5924
C69 C 0.69403(16) 0.6080(9) -0.6025(3)
H5 H 0.6846 0.6064 -0.6410
O3 O 0.72245(9) 0.3798(4) -0.48698(18)
C70 C 0.71252(16) 0.2553(7) -0.5144(3)
H6 H 0.7196 0.2417 -0.5412
H7 H 0.6929 0.2561 -0.5319
C71 C 0.72158(18) 0.1475(8) -0.4735(4)
H8 H 0.7175 0.0610 -0.4914
H9 H 0.7414 0.1533 -0.4522
O4 O 0.70766(11) 0.1608(5) -0.4394(2)
C72 C 0.7119(2) 0.0486(8) -0.4059(4)
H10 H 0.7313 0.0416 -0.3815
H11 H 0.7066 -0.0318 -0.4279
C73 C 0.69530(19) 0.0601(8) -0.3741(4)
H12 H 0.6973 -0.0179 -0.3527
H13 H 0.6763 0.0702 -0.3978
O5 O 0.70483(11) 0.1740(5) -0.3392(2)
C74 C 0.69040(16) 0.2032(9) -0.3092(3)
C75 C 0.69681(15) 0.3254(9) -0.2820(3)
O6 O 0.71670(10) 0.3998(5) -0.28873(19)
C76 C 0.72151(15) 0.5308(8) -0.2656(3)
H14 H 0.7271 0.5253 -0.2274
H15 H 0.7048 0.5812 -0.2807
C77 C 0.74289(14) 0.5984(8) -0.2779(3)
H16 H 0.7480 0.6825 -0.2583
H17 H 0.7593 0.5427 -0.2666
O7 O 0.73236(9) 0.6223(5) -0.33422(18)
C78 C 0.74998(14) 0.7012(7) -0.3487(3)
H18 H 0.7675 0.6551 -0.3395
H19 H 0.7537 0.7851 -0.3289
C79 C 0.73668(15) 0.7276(7) -0.4079(3)
H20 H 0.7473 0.7898 -0.4178
H21 H 0.7188 0.7645 -0.4172
O8 O 0.73451(9) 0.6056(4) -0.43623(18)
C80 C 0.68282(17) 0.3639(11) -0.2519(3)
H22 H 0.6875 0.4463 -0.2326
C81 C 0.66234(18) 0.2827(13) -0.2497(4)
H23 H 0.6526 0.3108 -0.2288
C82 C 0.65557(19) 0.1642(13) -0.2764(5)
C83 C 0.67044(18) 0.1257(10) -0.3052(4)
H24 H 0.6662 0.0418 -0.3234
C84 C 0.6308(4) 0.1137(19) -0.2664(7)
O9 O 0.6028(3) 0.1763(14) -0.3109(6)
C86 C 0.5933(5) 0.1293(16) -0.3538(7)
O11 O 0.6093(3) 0.0449(15) -0.3674(6)
C87 C 0.57140(16) 0.2076(9) -0.3958(4)
C88 C 0.5432(2) 0.1641(10) -0.4056(5)
O13 O 0.52403(13) 0.2217(7) -0.4196(4)
O14 O 0.54749(17) 0.0639(12) -0.3683(5)
C89 C 0.5217(5) 0.018(2) -0.3643(9)
C90 C 0.5232(7) -0.116(4) -0.3601(15)
C93 C 0.60070(19) 0.9743(10) -0.6494(4)
O16 O 0.61303(11) 1.0612(6) -0.6649(2)
O17 O 0.57661(15) 0.9585(10) -0.6676(4)
C94 C 0.59613(19) 1.1438(10) -0.7103(4)
H25 H 0.5818 1.1840 -0.7031
H26 H 0.5880 1.0913 -0.7424
C95 C 0.6131(2) 1.2456(10) -0.7187(5)
H27 H 0.6026 1.3027 -0.7482
H28 H 0.6211 1.2969 -0.6863
H29 H 0.6273 1.2038 -0.7259
P1 P 0.80005(4) 0.3089(2) -0.31427(9)
F1 F 0.8150(3) 0.2892(15) -0.3525(5)
F2 F 0.7816(3) 0.3255(16) -0.2853(6)
F3 F 0.8226(3) 0.4064(15) -0.2860(6)
F4 F 0.7785(3) 0.2022(17) -0.3472(7)
F5 F 0.8182(3) 0.208(2) -0.2764(9)
F6 F 0.7813(3) 0.4225(19) -0.3498(13)
C96 C 0.5563(6) 0.324(3) -0.2765(10)
Cl1 Cl 0.5833(3) 0.3799(13) -0.2640(5)
Cl3 Cl 0.5293(4) 0.329(2) -0.2723(8)
C98 C 0.5099(7) 1.187(5) -0.742(2)
C99 C 0.5188(6) 1.088(6) -0.7138(12)
C100 C 0.5089(6) 0.942(4) -0.7317(10)
C98F C 0.4901(7) 1.187(5) -0.758(2)
C99F C 0.4812(6) 1.088(6) -0.7862(12)
C100F C 0.4911(6) 0.942(4) -0.7683(10)
C85? C 0.6329(3) 0.0609(15) -0.2862(6)
O10? O 0.6110(3) 0.1064(16) -0.3363(6)
O12? O 0.5755(4) 0.053(2) -0.3296(8)
O15? O 0.5350(3) 0.0378(14) -0.4361(8)
C91? C 0.5079(4) -0.026(2) -0.4431(9)
C92? C 0.5104(4) -0.0663(18) -0.4002(8)
F7? F 0.8241(4) 0.361(3) -0.3222(14)
F8? F 0.7734(3) 0.242(2) -0.3165(11)
F9? F 0.7843(4) 0.3253(18) -0.3736(4)
F10? F 0.8111(6) 0.3051(17) -0.2526(5)
F11? F 0.7910(5) 0.4499(15) -0.3142(7)
F12? F 0.8113(4) 0.1692(15) -0.3101(8)
Cl2? Cl 0.5441(5) 0.456(3) -0.2952(8)
C97? C 0.5271(6) 0.463(3) -0.2749(11)
Cl4? Cl 0.5360(3) 0.5886(16) -0.2917(6)
loop_
_geom_bond_atom_site_label_1
_geom_bond_atom_site_label_2
_geom_bond_site_symmetry_1
_geom_bond_site_symmetry_2
K1 O3 1_555 1_555
P1 F1 1_555 1_555
C1 C2 1_555 1_555
C2 C3 1_555 1_555
C3 C4 1_555 1_555
C4 C5 1_555 1_555
C5 C6 1_555 1_555
C6 C1 1_555 1_555
C7 C6 1_555 1_555
C8 C7 1_555 1_555
C9 C1 1_555 1_555
C10 C9 1_555 1_555
C11 C10 1_555 1_555
C12 C2 1_555 1_555
C13 C12 1_555 1_555
C14 C3 1_555 1_555
C15 C14 1_555 1_555
C16 C15 1_555 1_555
C17 C4 1_555 1_555
C18 C17 1_555 1_555
C19 C5 1_555 1_555
C20 C19 1_555 1_555
C21 C7 1_555 1_555
C22 C21 1_555 1_555
C23 C22 1_555 1_555
C24 C8 1_555 1_555
C25 C24 1_555 1_555
C26 C10 1_555 1_555
C27 C26 1_555 1_555
C28 C11 1_555 1_555
C29 C28 1_555 1_555
C30 C13 1_555 1_555
C31 C30 1_555 1_555
C32 C15 1_555 1_555
C33 C32 1_555 1_555
C34 C16 1_555 1_555
C35 C34 1_555 1_555
C36 C18 1_555 1_555
C37 C36 1_555 1_555
C38 C20 1_555 1_555
C39 C22 1_555 1_555
C40 C39 1_555 1_555
C41 C40 1_555 1_555
C42 C23 1_555 1_555
C43 C25 1_555 1_555
C44 C43 1_555 1_555
C45 C27 1_555 1_555
C46 C45 1_555 1_555
C47 C29 1_555 1_555
C48 C31 1_555 1_555
C49 C48 1_555 1_555
C50 C33 1_555 1_555
C51 C50 1_555 1_555
C52 C35 1_555 1_555
C53 C37 1_555 1_555
C54 C40 1_555 1_555
C55 C54 1_555 1_555
C56 C41 1_555 1_555
C57 C44 1_555 1_555
C58 C46 1_555 1_555
C59 C49 1_555 1_555
C60 C51 1_555 1_555
C61 C1 1_555 1_555
C62 C61 1_555 1_555
O1 C62 1_555 1_555
O2 C62 1_555 1_555
C63 O1 1_555 1_555
H1 C63 1_555 1_555
H2 C63 1_555 1_555
C64 C63 1_555 1_555
C65 C64 1_555 1_555
H3 C65 1_555 1_555
C66 C65 1_555 1_555
C67 C66 1_555 1_555
C68 C67 1_555 1_555
H4 C68 1_555 1_555
C69 C64 1_555 1_555
H5 C69 1_555 1_555
O3 C67 1_555 1_555
C70 O3 1_555 1_555
H6 C70 1_555 1_555
H7 C70 1_555 1_555
C71 C70 1_555 1_555
H8 C71 1_555 1_555
H9 C71 1_555 1_555
O4 K1 1_555 1_555
C72 O4 1_555 1_555
H10 C72 1_555 1_555
H11 C72 1_555 1_555
C73 C72 1_555 1_555
H12 C73 1_555 1_555
H13 C73 1_555 1_555
O5 K1 1_555 1_555
C74 O5 1_555 1_555
C75 C74 1_555 1_555
O6 K1 1_555 1_555
C76 O6 1_555 1_555
H14 C76 1_555 1_555
H15 C76 1_555 1_555
C77 C76 1_555 1_555
H16 C77 1_555 1_555
H17 C77 1_555 1_555
O7 K1 1_555 1_555
C78 O7 1_555 1_555
H18 C78 1_555 1_555
H19 C78 1_555 1_555
C79 C78 1_555 1_555
H20 C79 1_555 1_555
H21 C79 1_555 1_555
O8 K1 1_555 1_555
C80 C75 1_555 1_555
H22 C80 1_555 1_555
C81 C80 1_555 1_555
H23 C81 1_555 1_555
C82 C81 1_555 1_555
C83 C74 1_555 1_555
H24 C83 1_555 1_555
C84 C82 1_555 1_555
O9 C84 1_555 1_555
C86 O9 1_555 1_555
O11 C86 1_555 1_555
C87 C55 1_555 1_555
C88 C87 1_555 1_555
O13 C88 1_555 1_555
O14 C88 1_555 1_555
C89 O14 1_555 1_555
C90 C89 1_555 1_555
C93 C61 1_555 1_555
O16 C93 1_555 1_555
O17 C93 1_555 1_555
C94 O16 1_555 1_555
H25 C94 1_555 1_555
H26 C94 1_555 1_555
C95 C94 1_555 1_555
H27 C95 1_555 1_555
H28 C95 1_555 1_555
H29 C95 1_555 1_555
F2 P1 1_555 1_555
F3 P1 1_555 1_555
F4 P1 1_555 1_555
F5 P1 1_555 1_555
F6 P1 1_555 1_555
C96 Cl1 1_555 1_555
Cl3 C96 1_555 1_555
C98 C99 1_555 1_555
C99 C100 1_555 1_555
C100 C100F 1_555 1_555
C98F C98 1_555 1_555
C99F C98F 1_555 1_555
C100F C99F 1_555 1_555
C2 C61 1_555 1_555
C8 C9 1_555 1_555
C11 C12 1_555 1_555
C13 C14 1_555 1_555
C16 C17 1_555 1_555
C18 C19 1_555 1_555
C20 C21 1_555 1_555
C23 C24 1_555 1_555
C25 C26 1_555 1_555
C27 C28 1_555 1_555
C29 C30 1_555 1_555
C31 C32 1_555 1_555
C33 C34 1_555 1_555
C35 C36 1_555 1_555
C37 C38 1_555 1_555
C38 C39 1_555 1_555
C41 C42 1_555 1_555
C42 C43 1_555 1_555
C44 C45 1_555 1_555
C46 C47 1_555 1_555
C47 C48 1_555 1_555
C49 C50 1_555 1_555
C51 C52 1_555 1_555
C52 C53 1_555 1_555
C53 C54 1_555 1_555
C55 C56 1_555 1_555
C55 C60 1_555 1_555
C56 C57 1_555 1_555
C57 C58 1_555 1_555
C58 C59 1_555 1_555
C59 C60 1_555 1_555
C60 C87 1_555 1_555
C66 O8 1_555 1_555
C68 C69 1_555 1_555
C71 O4 1_555 1_555
C73 O5 1_555 1_555
C75 O6 1_555 1_555
C77 O7 1_555 1_555
C79 O8 1_555 1_555
C82 C83 1_555 1_555
C86 C87 1_555 1_555

#END
