
#######################################################################
#
#                 Cambridge Crystallographic Data Centre
#                                CCDC 
#
#######################################################################
#
# If this CIF has been generated from an entry in the Cambridge 
# Structural Database, then it will include bibliographic, chemical, 
# crystal, experimental, refinement or atomic coordinate data resulting 
# from the CCDC's data processing and validation procedures.
#
#######################################################################

data_DEXWEK
_chemical_formula_moiety         'C19 H16 Cl1 N3 O2,C19 H16 Cl1 N3 O2'
_chemical_name_systematic        
"(E)-N'-(7-Chloroquinolin-4-yl)-3-(2-methoxyphenyl)acrylohydrazide (E)-N'-(7-chloroquinolin-4(1H)-ylidene)-3-(2-methoxyphenyl)acrylohydrazide"
_symmetry_cell_setting           orthorhombic
_symmetry_space_group_name_H-M   'P b c a'
_symmetry_Int_Tables_number      61
_space_group_name_Hall           '-P 2ac 2ab'
loop_
_symmetry_equiv_pos_site_id
_symmetry_equiv_pos_as_xyz
1 x,y,z
2 1/2-x,-y,1/2+z
3 1/2+x,1/2-y,-z
4 -x,1/2+y,1/2-z
5 -x,-y,-z
6 1/2+x,y,1/2-z
7 1/2-x,1/2+y,z
8 x,1/2-y,1/2+z
_cell_length_a                   13.233(4)
_cell_length_b                   15.234(5)
_cell_length_c                   33.6109(10)
_cell_angle_alpha                90
_cell_angle_beta                 90
_cell_angle_gamma                90
_cell_volume                     6775.67
_exptl_crystal_colour            yellow
_exptl_crystal_description       Platelet
_cell_formula_units_Z            8
loop_
_atom_site_label
_atom_site_type_symbol
_atom_site_fract_x
_atom_site_fract_y
_atom_site_fract_z
Cl1 Cl 0.33870(5) 0.18260(5) 0.614801(19)
O1 O 0.16000(13) 0.25431(12) 0.85078(5)
N1 N 0.12055(15) 0.38590(15) 0.82274(6)
N2 N 0.13930(15) 0.35574(14) 0.78419(6)
O2 O 0.15275(16) 0.21661(13) 0.98889(6)
C1 C 0.18238(18) 0.27404(16) 0.70729(7)
H1 H 0.1133 0.2799 0.7145
C2 C 0.23668(18) 0.34365(16) 0.77205(7)
C3 C 0.25815(17) 0.30370(16) 0.73415(7)
C4 C 0.13807(19) 0.32981(18) 0.92680(8)
H2 H 0.1576 0.2702 0.9236
N3 N 0.44082(15) 0.32010(14) 0.74653(7)
C5 C 0.11831(19) 0.37436(17) 0.89354(7)
H3 H 0.0943 0.4330 0.8950
C6 C 0.41623(19) 0.35731(17) 0.78090(8)
H4 H 0.4702 0.3765 0.7974
C7 C 0.20633(19) 0.23756(16) 0.67155(7)
H5 H 0.1546 0.2184 0.6540
C8 C 0.36155(18) 0.29395(16) 0.72307(7)
C9 C 0.13396(17) 0.33193(17) 0.85443(8)
C10 C 0.31830(18) 0.37079(16) 0.79508(8)
H6 H 0.3075 0.3981 0.8201
C11 C 0.3092(2) 0.22854(17) 0.66088(8)
C12 C 0.13304(19) 0.36256(18) 0.96778(8)
C13 C 0.1405(2) 0.30281(19) 0.99949(8)
C14 C 0.38556(19) 0.25520(17) 0.68567(8)
H7 H 0.4541 0.2479 0.6779
C15 C 0.1205(2) 0.4806(2) 1.01618(9)
H8 H 0.1143 0.5414 1.0219
C16 C 0.1237(2) 0.4515(2) 0.97704(8)
H9 H 0.1194 0.4931 0.9561
C17 C 0.1359(2) 0.3316(2) 1.03883(9)
H10 H 0.1393 0.2906 1.0601
C18 C 0.1732(3) 0.1558(2) 1.02019(9)
H11 H 0.2313 0.1763 1.0357
H12 H 0.1884 0.0981 1.0088
H13 H 0.1139 0.1513 1.0376
C19 C 0.1265(2) 0.4203(2) 1.04677(9)
H14 H 0.1242 0.4400 1.0736
H15 H 0.083(3) 0.332(2) 0.7708(11)
H16 H 0.103(3) 0.443(3) 0.8254(11)
Cl2 Cl 0.22092(6) 0.42369(5) 0.606221(19)
O3 O 0.04632(13) 0.55411(12) 0.85055(5)
N4 N 0.16563(15) 0.59223(14) 0.78928(6)
N5 N 0.42071(16) 0.56710(15) 0.71851(7)
O4 O 0.11060(16) 0.93690(13) 0.88906(6)
C20 C 0.24138(19) 0.54406(16) 0.72917(7)
C21 C 0.3228(2) 0.49607(17) 0.66727(8)
H17 H 0.3818 0.4885 0.6516
N6 N 0.17377(16) 0.63719(15) 0.82580(6)
C22 C 0.34762(18) 0.62086(17) 0.77860(8)
H18 H 0.3569 0.6506 0.8032
C23 C 0.24909(19) 0.58731(16) 0.76837(7)
C24 C 0.14928(19) 0.51318(16) 0.71383(8)
H19 H 0.0903 0.5166 0.7299
C25 C 0.0984(2) 0.9134(2) 0.99820(9)
H20 H 0.0958 0.9484 1.0215
C26 C 0.32813(18) 0.53510(16) 0.70515(7)
C27 C 0.14216(19) 0.47810(17) 0.67620(8)
H21 H 0.0787 0.4602 0.6658
C28 C 0.10575(18) 0.61772(17) 0.85408(7)
C29 C 0.1010(2) 0.67106(18) 0.89069(8)
H22 H 0.0839 0.6416 0.9147
C30 C 0.10928(19) 0.81025(19) 0.92955(8)
C31 C 0.1012(2) 0.9534(2) 0.96125(9)
H23 H 0.0993 1.0156 0.9593
C32 C 0.11861(19) 0.75691(18) 0.89296(8)
H24 H 0.1387 0.7862 0.8693
C33 C 0.42712(19) 0.61049(16) 0.75363(7)
H25 H 0.4904 0.6348 0.7611
C34 C 0.1070(2) 0.90210(19) 0.92671(9)
C35 C 0.0994(2) 0.8230(2) 1.00149(9)
H26 H 0.0963 0.7958 1.0269
C36 C 0.2307(2) 0.46942(17) 0.65363(8)
C37 C 0.1050(2) 0.7719(2) 0.96706(9)
H27 H 0.1058 0.7098 0.9693
C38 C 0.1130(3) 1.0308(2) 0.88531(11)
H28 H 0.0514 1.0558 0.8969
H29 H 0.1171 1.0468 0.8571
H30 H 0.1721 1.0539 0.8994
H31 H 0.472(3) 0.565(2) 0.7036(11)
H32 H 0.215(3) 0.680(3) 0.8274(11)
loop_
_geom_bond_atom_site_label_1
_geom_bond_atom_site_label_2
_geom_bond_site_symmetry_1
_geom_bond_site_symmetry_2
Cl1 C11 1_555 1_555
O1 C9 1_555 1_555
N1 N2 1_555 1_555
N2 C2 1_555 1_555
O2 C13 1_555 1_555
C1 H1 1_555 1_555
C2 C3 1_555 1_555
C3 C1 1_555 1_555
C4 H2 1_555 1_555
N3 C6 1_555 1_555
C5 C4 1_555 1_555
H3 C5 1_555 1_555
C6 H4 1_555 1_555
C7 C1 1_555 1_555
H5 C7 1_555 1_555
C8 C3 1_555 1_555
C9 N1 1_555 1_555
C10 C2 1_555 1_555
H6 C10 1_555 1_555
C11 C7 1_555 1_555
C12 C4 1_555 1_555
C13 C12 1_555 1_555
C14 C8 1_555 1_555
H7 C14 1_555 1_555
C15 H8 1_555 1_555
C16 C12 1_555 1_555
H9 C16 1_555 1_555
C17 C13 1_555 1_555
H10 C17 1_555 1_555
C18 O2 1_555 1_555
H11 C18 1_555 1_555
H12 C18 1_555 1_555
H13 C18 1_555 1_555
C19 C15 1_555 1_555
H14 C19 1_555 1_555
H15 N2 1_555 1_555
H16 N1 1_555 1_555
Cl2 C36 1_555 1_555
O3 C28 1_555 1_555
N4 N6 1_555 1_555
N5 C26 1_555 1_555
O4 C34 1_555 1_555
C20 C23 1_555 1_555
C21 H17 1_555 1_555
N6 C28 1_555 1_555
C22 H18 1_555 1_555
C23 N4 1_555 1_555
C24 C20 1_555 1_555
H19 C24 1_555 1_555
C25 H20 1_555 1_555
C26 C20 1_555 1_555
C27 C24 1_555 1_555
H21 C27 1_555 1_555
C28 C29 1_555 1_555
C29 H22 1_555 1_555
C30 C32 1_555 1_555
C31 C25 1_555 1_555
H23 C31 1_555 1_555
C32 C29 1_555 1_555
H24 C32 1_555 1_555
C33 N5 1_555 1_555
H25 C33 1_555 1_555
C34 C30 1_555 1_555
C35 C25 1_555 1_555
H26 C35 1_555 1_555
C36 C21 1_555 1_555
C37 C30 1_555 1_555
H27 C37 1_555 1_555
C38 O4 1_555 1_555
H28 C38 1_555 1_555
H29 C38 1_555 1_555
H30 C38 1_555 1_555
H31 N5 1_555 1_555
H32 N6 1_555 1_555
N3 C8 1_555 1_555
C5 C9 1_555 1_555
C6 C10 1_555 1_555
C11 C14 1_555 1_555
C15 C16 1_555 1_555
C17 C19 1_555 1_555
C21 C26 1_555 1_555
C22 C23 1_555 1_555
C22 C33 1_555 1_555
C27 C36 1_555 1_555
C31 C34 1_555 1_555
C35 C37 1_555 1_555

#END
