
#######################################################################
#
#                 Cambridge Crystallographic Data Centre
#                                CCDC 
#
#######################################################################
#
# If this CIF has been generated from an entry in the Cambridge 
# Structural Database, then it will include bibliographic, chemical, 
# crystal, experimental, refinement or atomic coordinate data resulting 
# from the CCDC's data processing and validation procedures.
#
#######################################################################

data_DEXWAG
_chemical_formula_moiety         'C19 H16 Cl1 N3 O2'
_chemical_name_systematic        
(E)-N'-(7-Chloroquinolin-4-yl)-3-(4-methoxyphenyl)acrylohydrazide
_symmetry_cell_setting           monoclinic
_symmetry_space_group_name_H-M   'P 21/c'
_symmetry_Int_Tables_number      14
_space_group_name_Hall           '-P 2ybc'
loop_
_symmetry_equiv_pos_site_id
_symmetry_equiv_pos_as_xyz
1 x,y,z
2 -x,1/2+y,1/2-z
3 -x,-y,-z
4 x,1/2-y,1/2+z
_cell_length_a                   7.262(3)
_cell_length_b                   17.162(6)
_cell_length_c                   13.289(5)
_cell_angle_alpha                90
_cell_angle_beta                 91.158(7)
_cell_angle_gamma                90
_cell_volume                     1655.88
_exptl_crystal_colour            colorless
_exptl_crystal_description       'Cut Block'
_cell_formula_units_Z            4
loop_
_atom_site_label
_atom_site_type_symbol
_atom_site_fract_x
_atom_site_fract_y
_atom_site_fract_z
Cl1 Cl -0.54279(5) 0.31797(2) 0.07657(3)
O1 O 0.23624(13) 0.47502(5) 0.51751(6)
N1 N 0.08662(15) 0.37202(6) 0.58518(7)
C1 C -0.00890(17) 0.33249(7) 0.42215(8)
O2 O 1.12182(14) 0.42771(6) 0.93881(7)
C2 C -0.14111(17) 0.33006(7) 0.34079(8)
C3 C 0.22765(17) 0.42330(7) 0.58220(8)
N2 N 0.06856(16) 0.24831(7) 0.24327(8)
N3 N -0.05151(15) 0.37122(6) 0.51053(7)
C4 C 0.68355(17) 0.44178(7) 0.73284(9)
C5 C 0.36875(18) 0.41066(7) 0.66192(9)
H1 H 0.3448 0.3753 0.7151
C6 C -0.3863(2) 0.32136(7) 0.17727(10)
C7 C 0.53002(17) 0.44836(7) 0.66043(9)
H2 H 0.5467 0.4834 0.6061
C8 C -0.09380(18) 0.28772(7) 0.25282(9)
C9 C 0.98056(18) 0.49148(7) 0.79286(9)
H3 H 1.0787 0.5277 0.7870
C10 C 0.83160(18) 0.49328(7) 0.72552(9)
H4 H 0.8305 0.5307 0.6729
C11 C -0.22097(19) 0.28442(8) 0.17064(9)
H5 H -0.1911 0.2566 0.1113
C12 C 0.83799(19) 0.38296(7) 0.87712(10)
H6 H 0.8411 0.3447 0.9288
C13 C 0.98348(18) 0.43584(7) 0.86891(9)
C14 C -0.31607(18) 0.36660(7) 0.34442(9)
H7 H -0.3498 0.3941 0.4033
C15 C -0.43716(19) 0.36276(8) 0.26409(10)
H8 H -0.5538 0.3877 0.2669
C16 C 0.15341(18) 0.29213(8) 0.41095(9)
H9 H 0.2439 0.2917 0.4636
C17 C 0.1836(2) 0.25181(8) 0.32120(10)
H10 H 0.2969 0.2246 0.3160
C18 C 1.2683(2) 0.48309(9) 0.93615(11)
H11 H 1.3369 0.4763 0.8740
H12 H 1.3512 0.4751 0.9943
H13 H 1.2173 0.5359 0.9383
C19 C 0.69027(18) 0.38614(7) 0.81058(9)
H14 H 0.5916 0.3503 0.8173
H15 H -0.112(2) 0.4172(10) 0.5052(12)
H16 H 0.081(2) 0.3339(10) 0.6317(12)
loop_
_geom_bond_atom_site_label_1
_geom_bond_atom_site_label_2
_geom_bond_site_symmetry_1
_geom_bond_site_symmetry_2
Cl1 C6 1_555 1_555
O1 C3 1_555 1_555
N1 C3 1_555 1_555
C1 C2 1_555 1_555
O2 C13 1_555 1_555
C2 C8 1_555 1_555
C3 C5 1_555 1_555
N2 C8 1_555 1_555
N3 N1 1_555 1_555
C4 C7 1_555 1_555
C5 H1 1_555 1_555
C6 C11 1_555 1_555
C7 C5 1_555 1_555
H2 C7 1_555 1_555
C8 C11 1_555 1_555
C9 H3 1_555 1_555
C10 C4 1_555 1_555
H4 C10 1_555 1_555
C11 H5 1_555 1_555
C12 H6 1_555 1_555
C13 C9 1_555 1_555
C14 C2 1_555 1_555
H7 C14 1_555 1_555
C15 C6 1_555 1_555
H8 C15 1_555 1_555
C16 C1 1_555 1_555
H9 C16 1_555 1_555
C17 N2 1_555 1_555
H10 C17 1_555 1_555
C18 O2 1_555 1_555
H11 C18 1_555 1_555
H12 C18 1_555 1_555
H13 C18 1_555 1_555
C19 C4 1_555 1_555
H14 C19 1_555 1_555
H15 N3 1_555 1_555
H16 N1 1_555 1_555
C1 N3 1_555 1_555
C9 C10 1_555 1_555
C12 C13 1_555 1_555
C12 C19 1_555 1_555
C14 C15 1_555 1_555
C16 C17 1_555 1_555

#END
