
#######################################################################
#
#                 Cambridge Crystallographic Data Centre
#                                CCDC 
#
#######################################################################
#
# If this CIF has been generated from an entry in the Cambridge 
# Structural Database, then it will include bibliographic, chemical, 
# crystal, experimental, refinement or atomic coordinate data resulting 
# from the CCDC's data processing and validation procedures.
#
#######################################################################

data_DEXXAG
_chemical_formula_moiety         'C8 H8 Br2'
_chemical_name_systematic        1,4-bis(Bromomethyl)benzene
_symmetry_cell_setting           monoclinic
_symmetry_space_group_name_H-M   'P 21/c'
_symmetry_Int_Tables_number      14
_space_group_name_Hall           '-P 2ybc'
loop_
_symmetry_equiv_pos_site_id
_symmetry_equiv_pos_as_xyz
1 x,y,z
2 -x,1/2+y,1/2-z
3 -x,-y,-z
4 x,1/2-y,1/2+z
_cell_length_a                   8.7424(7)
_cell_length_b                   4.6275(4)
_cell_length_c                   10.8189(9)
_cell_angle_alpha                90
_cell_angle_beta                 98.8850(10)
_cell_angle_gamma                90
_cell_volume                     432.431
_exptl_crystal_colour            colorless
_exptl_crystal_description       plate
_cell_formula_units_Z            2
_exptl_crystal_recrystallization_method methanol
loop_
_atom_site_label
_atom_site_type_symbol
_atom_site_fract_x
_atom_site_fract_y
_atom_site_fract_z
Br1 Br 0.12045(5) 0.07974(12) 0.16966(4)
C1 C 0.3699(5) 0.1456(10) 0.0280(4)
C2 C 0.5155(6) 0.1886(11) 0.1000(5)
H1 H 0.5257 0.3154 0.1675
C3 C 0.3568(6) -0.0451(11) -0.0720(5)
H2 H 0.2607 -0.0760 -0.1205
C4 C 0.2306(7) 0.3049(12) 0.0570(6)
H3 H 0.1613 0.3442 -0.0202
H4 H 0.2627 0.4885 0.0959
Br1B Br 0.87955(5) -0.07974(12) -0.16966(4)
C1B C 0.6301(5) -0.1456(10) -0.0280(4)
C2B C 0.4845(6) -0.1886(11) -0.1000(5)
H1B H 0.4743 -0.3154 -0.1675
C3B C 0.6432(6) 0.0451(11) 0.0720(5)
H2B H 0.7393 0.0760 0.1205
C4B C 0.7694(7) -0.3049(12) -0.0570(6)
H3B H 0.8387 -0.3442 0.0202
H4B H 0.7373 -0.4885 -0.0959
loop_
_geom_bond_atom_site_label_1
_geom_bond_atom_site_label_2
_geom_bond_site_symmetry_1
_geom_bond_site_symmetry_2
Br1 C4 1_555 1_555
C1 C2 1_555 1_555
C2 H1 1_555 1_555
C3 C1 1_555 1_555
H2 C3 1_555 1_555
C4 C1 1_555 1_555
H3 C4 1_555 1_555
H4 C4 1_555 1_555
Br1B C4B 1_555 1_555
C1B C2B 1_555 1_555
C2B C3 1_555 1_555
H1B C2B 1_555 1_555
C3B C2 1_555 1_555
H2B C3B 1_555 1_555
C4B C1B 1_555 1_555
H3B C4B 1_555 1_555
H4B C4B 1_555 1_555
C1B C3B 1_555 1_555

#END
