
#######################################################################
#
#                 Cambridge Crystallographic Data Centre
#                                CCDC 
#
#######################################################################
#
# If this CIF has been generated from an entry in the Cambridge 
# Structural Database, then it will include bibliographic, chemical, 
# crystal, experimental, refinement or atomic coordinate data resulting 
# from the CCDC's data processing and validation procedures.
#
#######################################################################

data_DEYBAN
_chemical_formula_moiety         'C18 H22 N1 1+,C1 F3 O3 S1 1-'
_chemical_name_systematic        
'1,3,5,5,10-pentamethyl-5,6-dihydrophenanthridin-5-ium trifluoromethanesulfonate'
_symmetry_cell_setting           orthorhombic
_symmetry_space_group_name_H-M   'P 21 21 21'
_symmetry_Int_Tables_number      19
_space_group_name_Hall           'P 2ac 2ab'
loop_
_symmetry_equiv_pos_site_id
_symmetry_equiv_pos_as_xyz
1 x,y,z
2 1/2-x,-y,1/2+z
3 -x,1/2+y,1/2-z
4 1/2+x,1/2-y,-z
_cell_length_a                   9.13630(10)
_cell_length_b                   13.54900(10)
_cell_length_c                   15.3864(2)
_cell_angle_alpha                90
_cell_angle_beta                 90
_cell_angle_gamma                90
_cell_volume                     1904.65
_exptl_crystal_colour            colorless
_exptl_crystal_description       block
_cell_formula_units_Z            4
loop_
_atom_site_label
_atom_site_type_symbol
_atom_site_fract_x
_atom_site_fract_y
_atom_site_fract_z
S1 S 0.77729(10) 0.75232(6) 0.66856(5)
O1 O 0.6539(4) 0.8135(3) 0.6740(3)
F1 F 0.6852(5) 0.6848(4) 0.5208(2)
O2 O 0.7622(7) 0.6575(2) 0.7050(2)
O3 O 0.9100(4) 0.8041(4) 0.6891(3)
F2 F 0.8179(7) 0.8066(3) 0.5087(2)
F3 F 0.9100(7) 0.6679(5) 0.5394(3)
C1 C 0.7971(6) 0.7293(4) 0.5543(3)
N1 N 0.7034(3) 0.37936(15) 0.71780(15)
C2 C 0.6005(3) 0.31532(19) 0.55446(18)
C3 C 0.5055(3) 0.4807(2) 0.5320(2)
H1 H 0.4731 0.5406 0.5544
C4 C 0.6391(3) 0.23993(19) 0.62057(17)
C5 C 0.5626(3) 0.4230(2) 0.6825(2)
H2 H 0.4794 0.3924 0.7109
H3 H 0.5597 0.4932 0.6946
C6 C 0.5534(3) 0.4064(2) 0.58693(19)
C7 C 0.6139(3) 0.1378(2) 0.6115(2)
C8 C 0.7004(3) 0.27050(17) 0.69984(17)
C9 C 0.7448(3) 0.1049(2) 0.7461(2)
C10 C 0.7559(3) 0.2060(2) 0.76079(19)
H4 H 0.8002 0.2297 0.8111
C11 C 0.5066(4) 0.4645(3) 0.4427(2)
H5 H 0.4674 0.5115 0.4053
C12 C 0.6706(3) 0.0732(2) 0.6736(2)
H6 H 0.6577 0.0058 0.6655
C13 C 0.6197(3) 0.3044(2) 0.46451(19)
C14 C 0.7079(4) 0.2231(3) 0.4224(2)
H7 H 0.7561 0.1850 0.4666
H8 H 0.7798 0.2515 0.3844
H9 H 0.6439 0.1811 0.3896
C15 C 0.5654(4) 0.3793(3) 0.4099(2)
H10 H 0.5695 0.3707 0.3500
C16 C 0.8363(3) 0.4244(2) 0.6771(3)
H11 H 0.8334 0.4142 0.6153
H12 H 0.9226 0.3940 0.7005
H13 H 0.8382 0.4939 0.6892
C17 C 0.5190(4) 0.0948(3) 0.5411(2)
H14 H 0.4801 0.1471 0.5058
H15 H 0.4399 0.0586 0.5670
H16 H 0.5763 0.0513 0.5055
C18 C 0.7069(5) 0.4017(3) 0.8136(2)
H17 H 0.6986 0.4716 0.8223
H18 H 0.7976 0.3787 0.8378
H19 H 0.6268 0.3689 0.8418
C19 C 0.8111(4) 0.0337(3) 0.8100(3)
H20 H 0.9081 0.0552 0.8249
H21 H 0.8157 -0.0308 0.7844
H22 H 0.7519 0.0314 0.8615
loop_
_geom_bond_atom_site_label_1
_geom_bond_atom_site_label_2
_geom_bond_site_symmetry_1
_geom_bond_site_symmetry_2
S1 O1 1_555 1_555
F1 C1 1_555 1_555
O2 S1 1_555 1_555
O3 S1 1_555 1_555
F2 C1 1_555 1_555
F3 C1 1_555 1_555
C1 S1 1_555 1_555
N1 C5 1_555 1_555
C2 C4 1_555 1_555
C3 H1 1_555 1_555
C4 C7 1_555 1_555
C5 H2 1_555 1_555
H3 C5 1_555 1_555
C6 C2 1_555 1_555
C7 C12 1_555 1_555
C8 N1 1_555 1_555
C9 C10 1_555 1_555
C10 C8 1_555 1_555
H4 C10 1_555 1_555
C11 C3 1_555 1_555
H5 C11 1_555 1_555
C12 C9 1_555 1_555
H6 C12 1_555 1_555
C13 C2 1_555 1_555
C14 C13 1_555 1_555
H7 C14 1_555 1_555
H8 C14 1_555 1_555
H9 C14 1_555 1_555
C15 C11 1_555 1_555
H10 C15 1_555 1_555
C16 N1 1_555 1_555
H11 C16 1_555 1_555
H12 C16 1_555 1_555
H13 C16 1_555 1_555
C17 C7 1_555 1_555
H14 C17 1_555 1_555
H15 C17 1_555 1_555
H16 C17 1_555 1_555
C18 N1 1_555 1_555
H17 C18 1_555 1_555
H18 C18 1_555 1_555
H19 C18 1_555 1_555
C19 C9 1_555 1_555
H20 C19 1_555 1_555
H21 C19 1_555 1_555
H22 C19 1_555 1_555
C3 C6 1_555 1_555
C4 C8 1_555 1_555
C5 C6 1_555 1_555
C13 C15 1_555 1_555

#END
