
#######################################################################
#
#                 Cambridge Crystallographic Data Centre
#                                CCDC 
#
#######################################################################
#
# If this CIF has been generated from an entry in the Cambridge 
# Structural Database, then it will include bibliographic, chemical, 
# crystal, experimental, refinement or atomic coordinate data resulting 
# from the CCDC's data processing and validation procedures.
#
#######################################################################

data_DEYBER
_chemical_formula_moiety         'C16 H18 N1 1+,C1 F3 O3 S1 1-'
_chemical_name_systematic        
'5,5,10-trimethyl-5,6-dihydrophenanthridin-5-ium trifluoromethanesulfonate'
_symmetry_cell_setting           orthorhombic
_symmetry_space_group_name_H-M   'P 21 21 21'
_symmetry_Int_Tables_number      19
_space_group_name_Hall           'P 2ac 2ab'
loop_
_symmetry_equiv_pos_site_id
_symmetry_equiv_pos_as_xyz
1 x,y,z
2 1/2-x,-y,1/2+z
3 -x,1/2+y,1/2-z
4 1/2+x,1/2-y,-z
_cell_length_a                   8.0524(6)
_cell_length_b                   10.2790(6)
_cell_length_c                   21.1646(13)
_cell_angle_alpha                90
_cell_angle_beta                 90
_cell_angle_gamma                90
_cell_volume                     1751.81
_exptl_crystal_colour            colorless
_exptl_crystal_description       block
_cell_formula_units_Z            4
loop_
_atom_site_label
_atom_site_type_symbol
_atom_site_fract_x
_atom_site_fract_y
_atom_site_fract_z
S1 S 0.71226(9) 0.25705(7) 0.23558(3)
F1 F 0.6046(3) 0.05346(19) 0.29732(10)
F2 F 0.7003(3) 0.2062(2) 0.35634(8)
F3 F 0.8680(3) 0.0834(2) 0.30462(11)
O1 O 0.8438(3) 0.3477(2) 0.24878(10)
O2 O 0.7392(3) 0.1746(2) 0.18131(10)
O3 O 0.5469(3) 0.3090(2) 0.23995(10)
C1 C 0.7227(5) 0.1434(3) 0.30171(15)
N1 N 0.7900(3) 0.6133(2) 0.36513(10)
C2 C 0.9235(4) 0.4548(3) 0.43775(14)
C3 C 0.8168(4) 0.6601(3) 0.47956(13)
C4 C 0.6302(4) 0.5369(3) 0.36211(14)
H1 H 0.636504 0.474696 0.328339
H2 H 0.539150 0.595134 0.354664
H3 H 0.613393 0.492092 0.401399
C5 C 0.9387(4) 0.5258(3) 0.37633(13)
H4 H 0.947353 0.463374 0.342105
H5 H 1.039206 0.577825 0.376592
C6 C 0.8535(4) 0.5196(3) 0.48954(13)
C7 C 0.8218(4) 0.7522(3) 0.52824(13)
H6 H 0.847325 0.725195 0.569045
C8 C 0.7896(4) 0.8826(3) 0.51708(14)
H7 H 0.796395 0.942120 0.550052
C9 C 0.8265(4) 0.4509(3) 0.54584(14)
C10 C 0.7827(4) 0.7077(3) 0.41862(12)
C11 C 0.9765(4) 0.3268(3) 0.44254(14)
H8 H 1.023376 0.285232 0.407828
C12 C 0.7473(4) 0.8373(3) 0.40733(14)
H9 H 0.723621 0.865612 0.366586
C13 C 0.9593(4) 0.2618(3) 0.49894(15)
H10 H 0.999503 0.177420 0.503249
C14 C 0.8817(4) 0.3226(3) 0.54929(14)
H11 H 0.865831 0.276440 0.586586
C15 C 0.8156(4) 0.6768(3) 0.30159(14)
H12 H 0.832592 0.610989 0.270085
H13 H 0.911096 0.732610 0.303332
H14 H 0.719279 0.727345 0.290927
C16 C 0.7473(4) 0.9245(3) 0.45722(15)
H15 H 0.719010 1.011054 0.450413
C17 C 0.7357(5) 0.5046(3) 0.60274(14)
H16 H 0.813369 0.547105 0.630238
H17 H 0.682555 0.434664 0.625022
H18 H 0.653380 0.566001 0.589043
loop_
_geom_bond_atom_site_label_1
_geom_bond_atom_site_label_2
_geom_bond_site_symmetry_1
_geom_bond_site_symmetry_2
S1 O1 1_555 1_555
F1 C1 1_555 1_555
F2 C1 1_555 1_555
F3 C1 1_555 1_555
O2 S1 1_555 1_555
O3 S1 1_555 1_555
C1 S1 1_555 1_555
N1 C4 1_555 1_555
C2 C5 1_555 1_555
C3 C6 1_555 1_555
C4 H1 1_555 1_555
H2 C4 1_555 1_555
H3 C4 1_555 1_555
C5 N1 1_555 1_555
H4 C5 1_555 1_555
H5 C5 1_555 1_555
C6 C2 1_555 1_555
C7 C3 1_555 1_555
H6 C7 1_555 1_555
C8 C7 1_555 1_555
H7 C8 1_555 1_555
C9 C6 1_555 1_555
C10 N1 1_555 1_555
C11 C2 1_555 1_555
H8 C11 1_555 1_555
C12 C10 1_555 1_555
H9 C12 1_555 1_555
C13 C11 1_555 1_555
H10 C13 1_555 1_555
C14 C9 1_555 1_555
H11 C14 1_555 1_555
C15 N1 1_555 1_555
H12 C15 1_555 1_555
H13 C15 1_555 1_555
H14 C15 1_555 1_555
C16 C8 1_555 1_555
H15 C16 1_555 1_555
C17 C9 1_555 1_555
H16 C17 1_555 1_555
H17 C17 1_555 1_555
H18 C17 1_555 1_555
C3 C10 1_555 1_555
C12 C16 1_555 1_555
C13 C14 1_555 1_555

#END
