
#######################################################################
#
#                 Cambridge Crystallographic Data Centre
#                                CCDC 
#
#######################################################################
#
# If this CIF has been generated from an entry in the Cambridge 
# Structural Database, then it will include bibliographic, chemical, 
# crystal, experimental, refinement or atomic coordinate data resulting 
# from the CCDC's data processing and validation procedures.
#
#######################################################################

data_DEYLAW
_chemical_formula_moiety         'C21 H24 N2 O3 S2'
_chemical_name_systematic        
'Butyl (5-(1,3-dithiolan-2-ylidene)-4-oxo-3-phenyl-3a,4,5,6-tetrahydro-3H-pyrrolo[1,2-b]pyrazol-6-yl)acetate'
_symmetry_cell_setting           monoclinic
_symmetry_space_group_name_H-M   'P 21/n'
_symmetry_Int_Tables_number      14
_space_group_name_Hall           '-P 2yn'
loop_
_symmetry_equiv_pos_site_id
_symmetry_equiv_pos_as_xyz
1 x,y,z
2 1/2-x,1/2+y,1/2-z
3 -x,-y,-z
4 1/2+x,1/2-y,1/2+z
_cell_length_a                   8.1268(7)
_cell_length_b                   14.5375(12)
_cell_length_c                   18.1918(15)
_cell_angle_alpha                90
_cell_angle_beta                 99.6660(10)
_cell_angle_gamma                90
_cell_volume                     2118.73
_exptl_crystal_colour            yellow
_exptl_crystal_description       block
_cell_formula_units_Z            4
loop_
_atom_site_label
_atom_site_type_symbol
_atom_site_fract_x
_atom_site_fract_y
_atom_site_fract_z
S1 S 0.12866(13) 0.25906(7) 0.02626(6)
S2 S 0.09679(15) 0.26274(7) 0.18460(6)
O1 O 0.2120(3) 0.44383(18) -0.01442(13)
O2 O -0.0948(3) 0.64762(19) 0.22304(15)
N1 N 0.4277(4) 0.5590(2) 0.18188(17)
N2 N 0.2510(3) 0.56374(19) 0.15778(15)
C1 C 0.1693(4) 0.4152(2) 0.11103(18)
C2 C 0.2041(4) 0.4703(2) 0.04888(19)
C3 C 0.1359(4) 0.3240(2) 0.10680(19)
O3 O 0.0640(4) 0.5654(2) 0.31091(15)
C4 C -0.0078(5) 0.5729(3) 0.2482(2)
C5 C 0.2275(4) 0.5695(2) 0.07486(18)
C6 C 0.1674(5) 0.4785(2) 0.1768(2)
C7 C 0.3756(4) 0.7186(3) 0.04882(19)
C8 C 0.3868(4) 0.6154(3) 0.0592(2)
C9 C -0.0098(5) 0.5024(3) 0.1885(2)
C10 C 0.4225(5) 0.7607(3) -0.0127(2)
C11 C 0.3100(6) 0.8682(3) 0.0922(3)
C12 C 0.5003(5) 0.5885(3) 0.1294(2)
C13 C 0.3577(6) 0.9087(3) 0.0315(3)
C14 C 0.3181(5) 0.7741(3) 0.1013(2)
C15 C 0.4135(6) 0.8553(3) -0.0212(3)
C16 C -0.0989(9) 0.7221(4) 0.2763(3)
C17 C 0.0318(9) 0.1577(4) 0.1367(3)
C18 C 0.1038(11) 0.1493(4) 0.0694(4)
C19 C -0.1205(13) 0.8410(5) 0.1753(4)
H1 H -0.1511 0.7940 0.1377
H2 H 0.0003 0.8451 0.1825
C20 C -0.1534(12) 0.8043(4) 0.2377(4)
H3 H -0.2742 0.8001 0.2298
H4 H -0.1247 0.8523 0.2747
C21 C -0.1786(9) 0.9263(4) 0.1388(4)
H5 H -0.2845 0.9163 0.1075
H6 H -0.0993 0.9473 0.1090
H7 H -0.1907 0.9718 0.1758
H8 H 0.131(4) 0.604(2) 0.0579(17)
H9 H -0.072(4) 0.526(2) 0.143(2)
H10 H -0.059(4) 0.448(2) 0.2066(18)
H11 H 0.233(4) 0.454(2) 0.2202(18)
H12 H 0.617(5) 0.595(3) 0.136(2)
H13 H 0.458(5) 0.725(3) -0.048(2)
H14 H 0.419(5) 0.588(3) 0.017(2)
H15 H 0.355(5) 0.976(3) 0.028(2)
H16 H 0.289(6) 0.744(3) 0.147(3)
H17 H 0.072(7) 0.115(4) 0.168(3)
H18 H 0.279(6) 0.904(3) 0.129(3)
H19 H 0.043(6) 0.117(4) 0.037(3)
H20 H -0.171(6) 0.701(3) 0.308(3)
H21 H 0.448(6) 0.878(3) -0.064(3)
H22 H 0.020(10) 0.729(5) 0.300(4)
H23 H 0.211(12) 0.130(7) 0.084(6)
H24 H -0.106(9) 0.173(4) 0.115(4)
loop_
_geom_bond_atom_site_label_1
_geom_bond_atom_site_label_2
_geom_bond_site_symmetry_1
_geom_bond_site_symmetry_2
S1 C3 1_555 1_555
S2 C3 1_555 1_555
O1 C2 1_555 1_555
O2 C4 1_555 1_555
N1 N2 1_555 1_555
N2 C5 1_555 1_555
C1 C2 1_555 1_555
C2 C5 1_555 1_555
C3 C1 1_555 1_555
O3 C4 1_555 1_555
C4 C9 1_555 1_555
C5 C8 1_555 1_555
C6 N2 1_555 1_555
C7 C8 1_555 1_555
C8 C12 1_555 1_555
C9 C6 1_555 1_555
C10 C7 1_555 1_555
C11 C13 1_555 1_555
C12 N1 1_555 1_555
C13 C15 1_555 1_555
C14 C7 1_555 1_555
C15 C10 1_555 1_555
C16 O2 1_555 1_555
C17 S2 1_555 1_555
C18 S1 1_555 1_555
C19 H1 1_555 1_555
H2 C19 1_555 1_555
C20 C16 1_555 1_555
H3 C20 1_555 1_555
H4 C20 1_555 1_555
C21 C19 1_555 1_555
H5 C21 1_555 1_555
H6 C21 1_555 1_555
H7 C21 1_555 1_555
H8 C5 1_555 1_555
H9 C9 1_555 1_555
H10 C9 1_555 1_555
H11 C6 1_555 1_555
H12 C12 1_555 1_555
H13 C10 1_555 1_555
H14 C8 1_555 1_555
H15 C13 1_555 1_555
H16 C14 1_555 1_555
H17 C17 1_555 1_555
H18 C11 1_555 1_555
H19 C18 1_555 1_555
H20 C16 1_555 1_555
H21 C15 1_555 1_555
H22 C16 1_555 1_555
H23 C18 1_555 1_555
H24 C17 1_555 1_555
C1 C6 1_555 1_555
C11 C14 1_555 1_555
C17 C18 1_555 1_555
C19 C20 1_555 1_555

#END
