
#######################################################################
#
#                 Cambridge Crystallographic Data Centre
#                                CCDC 
#
#######################################################################
#
# If this CIF has been generated from an entry in the Cambridge 
# Structural Database, then it will include bibliographic, chemical, 
# crystal, experimental, refinement or atomic coordinate data resulting 
# from the CCDC's data processing and validation procedures.
#
#######################################################################

data_DEYPOO
_chemical_formula_moiety         'C50 H52 N2'
_chemical_name_systematic        
N,N'-Butane-2,3-diylidenebis(4-methyl-2,6-bis(1-phenylethyl)aniline)
_symmetry_cell_setting           triclinic
_symmetry_space_group_name_H-M   'P -1'
_symmetry_Int_Tables_number      2
_space_group_name_Hall           '-P 1'
loop_
_symmetry_equiv_pos_site_id
_symmetry_equiv_pos_as_xyz
1 x,y,z
2 -x,-y,-z
_cell_length_a                   8.332(4)
_cell_length_b                   12.392(6)
_cell_length_c                   20.605(11)
_cell_angle_alpha                74.175(5)
_cell_angle_beta                 79.020(5)
_cell_angle_gamma                89.300(5)
_cell_volume                     2007.59
_exptl_crystal_colour            yellow
_exptl_crystal_description       block
_cell_formula_units_Z            2
loop_
_atom_site_label
_atom_site_type_symbol
_atom_site_fract_x
_atom_site_fract_y
_atom_site_fract_z
C1 C 0.1310(4) 0.7396(3) 0.47098(17)
C2 C 0.1168(4) 0.8176(3) 0.40897(16)
C3 C 0.1504(4) 0.9308(3) 0.40089(17)
H1 H 0.1392 0.9831 0.3602
C4 C 0.2006(4) 0.9677(3) 0.45235(18)
C5 C 0.2126(4) 0.8888(3) 0.51227(18)
H2 H 0.2450 0.9128 0.5470
C6 C 0.1788(4) 0.7745(3) 0.52403(16)
C7 C 0.2028(4) 0.6918(3) 0.59131(18)
H3 H 0.1615 0.6181 0.5913
C8 C 0.3845(5) 0.6811(4) 0.5941(2)
H4 H 0.4337 0.7541 0.5868
H5 H 0.4375 0.6483 0.5588
H6 H 0.3963 0.6341 0.6382
C9 C 0.1025(5) 0.7202(3) 0.65376(17)
C10 C 0.1584(5) 0.7962(3) 0.6836(2)
H7 H 0.2629 0.8294 0.6662
C11 C 0.0610(7) 0.8237(4) 0.7391(2)
H8 H 0.1006 0.8758 0.7579
C12 C -0.0906(7) 0.7755(4) 0.7661(2)
H9 H -0.1556 0.7949 0.8029
C13 C -0.1473(5) 0.6979(4) 0.7388(2)
H10 H -0.2506 0.6634 0.7576
C14 C -0.0509(5) 0.6706(3) 0.6831(2)
H11 H -0.0909 0.6175 0.6652
C15 C 0.2392(5) 1.0916(3) 0.4415(2)
H12 H 0.1466 1.1244 0.4632
H13 H 0.2633 1.1288 0.3931
H14 H 0.3322 1.0998 0.4612
C16 C 0.0664(4) 0.7777(3) 0.35139(15)
H15 H 0.1251 0.7092 0.3497
C17 C 0.1157(5) 0.8607(3) 0.27986(17)
H16 H 0.0959 0.8259 0.2456
H17 H 0.2298 0.8818 0.2716
H18 H 0.0522 0.9263 0.2776
C18 C -0.1140(4) 0.7460(3) 0.36463(16)
C19 C -0.1667(5) 0.6570(3) 0.3447(2)
H19 H -0.0900 0.6152 0.3241
C20 C -0.3309(6) 0.6290(4) 0.3549(3)
H20 H -0.3639 0.5687 0.3411
C21 C -0.4454(6) 0.6895(5) 0.3851(3)
H21 H -0.5561 0.6698 0.3922
C22 C -0.3973(5) 0.7782(4) 0.4046(2)
H22 H -0.4749 0.8197 0.4249
C23 C -0.2315(5) 0.8070(3) 0.39399(17)
H23 H -0.1995 0.8684 0.4070
C24 C -0.0056(4) 0.5604(2) 0.50112(16)
C25 C -0.1673(4) 0.5934(3) 0.53517(17)
H24 H -0.1594 0.6705 0.5355
H25 H -0.1959 0.5466 0.5816
H26 H -0.2501 0.5842 0.5102
N1 N 0.1206(3) 0.6226(2) 0.47433(13)
C1A C -0.1310(4) 0.2604(3) 0.52902(17)
C2A C -0.1168(4) 0.1824(3) 0.59103(16)
C3A C -0.1504(4) 0.0692(3) 0.59911(17)
H1A H -0.1392 0.0169 0.6398
C4A C -0.2006(4) 0.0323(3) 0.54765(18)
C5A C -0.2126(4) 0.1112(3) 0.48773(18)
H2A H -0.2450 0.0872 0.4530
C6A C -0.1788(4) 0.2255(3) 0.47597(16)
C7A C -0.2028(4) 0.3082(3) 0.40869(18)
H3A H -0.1615 0.3819 0.4087
C8A C -0.3845(5) 0.3189(4) 0.4059(2)
H4A H -0.4337 0.2459 0.4132
H5A H -0.4375 0.3517 0.4412
H6A H -0.3963 0.3659 0.3618
C9A C -0.1025(5) 0.2798(3) 0.34624(17)
C10A C -0.1584(5) 0.2038(3) 0.3164(2)
H7A H -0.2629 0.1706 0.3338
C11A C -0.0610(7) 0.1763(4) 0.2609(2)
H8A H -0.1006 0.1242 0.2421
C12A C 0.0906(7) 0.2245(4) 0.2339(2)
H9A H 0.1556 0.2051 0.1971
C13A C 0.1473(5) 0.3021(4) 0.2612(2)
H10A H 0.2506 0.3366 0.2424
C14A C 0.0509(5) 0.3294(3) 0.3169(2)
H11A H 0.0909 0.3825 0.3348
C15A C -0.2392(5) -0.0916(3) 0.5585(2)
H12A H -0.1466 -0.1244 0.5368
H13A H -0.2633 -0.1288 0.6069
H14A H -0.3322 -0.0998 0.5388
C16A C -0.0664(4) 0.2223(3) 0.64861(15)
H15A H -0.1251 0.2908 0.6503
C17A C -0.1157(5) 0.1393(3) 0.72014(17)
H16A H -0.0959 0.1741 0.7544
H17A H -0.2298 0.1182 0.7284
H18A H -0.0522 0.0737 0.7224
C18A C 0.1140(4) 0.2540(3) 0.63537(16)
C19A C 0.1667(5) 0.3430(3) 0.6553(2)
H19A H 0.0900 0.3848 0.6759
C20A C 0.3309(6) 0.3710(4) 0.6451(3)
H20A H 0.3639 0.4313 0.6589
C21A C 0.4454(6) 0.3105(5) 0.6149(3)
H21A H 0.5561 0.3302 0.6078
C22A C 0.3973(5) 0.2218(4) 0.5954(2)
H22A H 0.4749 0.1803 0.5751
C23A C 0.2315(5) 0.1930(3) 0.60601(17)
H23A H 0.1995 0.1316 0.5930
C24A C 0.0056(4) 0.4396(2) 0.49888(16)
C25A C 0.1673(4) 0.4066(3) 0.46483(17)
H24A H 0.1594 0.3295 0.4645
H25A H 0.1959 0.4534 0.4184
H26A H 0.2501 0.4158 0.4898
N1A N -0.1206(3) 0.3774(2) 0.52567(13)
C26 C 0.3582(4) 0.6971(3) 0.04769(17)
C27 C 0.3012(4) 0.7846(3) 0.00002(17)
C28 C 0.2832(4) 0.8880(3) 0.01453(18)
H27 H 0.2459 0.9470 -0.0170
C29 C 0.3181(4) 0.9072(3) 0.07341(19)
C30 C 0.3690(4) 0.8177(3) 0.12011(18)
H28 H 0.3913 0.8287 0.1604
C31 C 0.3885(4) 0.7115(3) 0.10982(16)
C32 C 0.4363(4) 0.6129(3) 0.16379(17)
H29 H 0.3923 0.5451 0.1565
C33 C 0.3608(4) 0.6123(3) 0.23761(18)
H30 H 0.4055 0.6751 0.2482
H31 H 0.3851 0.5439 0.2688
H32 H 0.2443 0.6177 0.2422
C34 C 0.6200(4) 0.6006(3) 0.15659(17)
C35 C 0.7298(5) 0.6899(4) 0.1407(2)
H33 H 0.6921 0.7624 0.1314
C36 C 0.8960(5) 0.6745(5) 0.1381(2)
H34 H 0.9681 0.7363 0.1274
C37 C 0.9535(6) 0.5690(6) 0.1513(2)
H35 H 1.0648 0.5585 0.1494
C38 C 0.8474(7) 0.4791(5) 0.1672(3)
H36 H 0.8865 0.4070 0.1764
C39 C 0.6809(6) 0.4939(4) 0.1697(2)
H37 H 0.6097 0.4317 0.1803
C40 C 0.2983(5) 1.0213(3) 0.0869(2)
H38 H 0.3899 1.0388 0.1048
H39 H 0.1992 1.0201 0.1198
H40 H 0.2932 1.0772 0.0448
C41 C 0.2479(4) 0.7656(3) -0.06303(18)
H41 H 0.2991 0.6968 -0.0696
C42 C 0.0656(5) 0.7405(5) -0.0487(2)
H42 H 0.0088 0.8025 -0.0369
H43 H 0.0378 0.6739 -0.0112
H44 H 0.0342 0.7293 -0.0889
C43 C 0.3074(5) 0.8558(3) -0.12914(19)
C44 C 0.2363(6) 0.9584(4) -0.1478(3)
H45 H 0.1447 0.9745 -0.1188
C45 C 0.3031(9) 1.0413(5) -0.2119(3)
H46 H 0.2581 1.1112 -0.2247
C46 C 0.4335(10) 1.0119(6) -0.2519(4)
H47 H 0.4770 1.0640 -0.2934
C47 C 0.5056(7) 0.9137(6) -0.2370(3)
H48 H 0.5954 0.8980 -0.2670
C48 C 0.4418(5) 0.8365(4) -0.1754(2)
H49 H 0.4913 0.7681 -0.1642
C49 C 0.5008(4) 0.5586(2) 0.00368(16)
C50 C 0.6535(4) 0.6309(3) -0.02837(19)
H50 H 0.6343 0.7057 -0.0246
H51 H 0.6838 0.6327 -0.0760
H52 H 0.7403 0.6006 -0.0051
N2 N 0.3710(3) 0.5872(2) 0.03741(13)
C26A C 0.6418(4) 0.3029(3) -0.04769(17)
C27A C 0.6988(4) 0.2154(3) -0.00002(17)
C28A C 0.7168(4) 0.1120(3) -0.01453(18)
H27A H 0.7541 0.0530 0.0170
C29A C 0.6819(4) 0.0928(3) -0.07341(19)
C30A C 0.6310(4) 0.1823(3) -0.12011(18)
H28A H 0.6087 0.1713 -0.1604
C31A C 0.6115(4) 0.2885(3) -0.10982(16)
C32A C 0.5637(4) 0.3871(3) -0.16379(17)
H29A H 0.6077 0.4549 -0.1565
C33A C 0.6392(4) 0.3877(3) -0.23761(18)
H30A H 0.5945 0.3249 -0.2482
H31A H 0.6149 0.4561 -0.2688
H32A H 0.7557 0.3823 -0.2422
C34A C 0.3800(4) 0.3994(3) -0.15659(17)
C35A C 0.2702(5) 0.3101(4) -0.1407(2)
H33A H 0.3079 0.2376 -0.1314
C36A C 0.1040(5) 0.3255(5) -0.1381(2)
H34A H 0.0319 0.2637 -0.1274
C37A C 0.0465(6) 0.4310(6) -0.1513(2)
H35A H -0.0648 0.4415 -0.1494
C38A C 0.1526(7) 0.5209(5) -0.1672(3)
H36A H 0.1135 0.5930 -0.1764
C39A C 0.3191(6) 0.5061(4) -0.1697(2)
H37A H 0.3903 0.5683 -0.1803
C40A C 0.7017(5) -0.0213(3) -0.0869(2)
H38A H 0.6101 -0.0388 -0.1048
H39A H 0.8008 -0.0201 -0.1198
H40A H 0.7068 -0.0772 -0.0448
C41A C 0.7521(4) 0.2344(3) 0.06303(18)
H41A H 0.7009 0.3032 0.0696
C42A C 0.9344(5) 0.2595(5) 0.0487(2)
H42A H 0.9912 0.1975 0.0369
H43A H 0.9622 0.3261 0.0112
H44A H 0.9658 0.2707 0.0889
C43A C 0.6926(5) 0.1442(3) 0.12914(19)
C44A C 0.7637(6) 0.0416(4) 0.1478(3)
H45A H 0.8553 0.0255 0.1188
C45A C 0.6969(9) -0.0413(5) 0.2119(3)
H46A H 0.7419 -0.1112 0.2247
C46A C 0.5665(10) -0.0119(6) 0.2519(4)
H47A H 0.5230 -0.0640 0.2934
C47A C 0.4944(7) 0.0863(6) 0.2370(3)
H48A H 0.4046 0.1020 0.2670
C48A C 0.5582(5) 0.1635(4) 0.1754(2)
H49A H 0.5087 0.2319 0.1642
C49A C 0.4992(4) 0.4414(2) -0.00368(16)
C50A C 0.3465(4) 0.3691(3) 0.02837(19)
H50A H 0.3657 0.2943 0.0246
H51A H 0.3162 0.3673 0.0760
H52A H 0.2597 0.3994 0.0051
N2A N 0.6290(3) 0.4128(2) -0.03741(13)
loop_
_geom_bond_atom_site_label_1
_geom_bond_atom_site_label_2
_geom_bond_site_symmetry_1
_geom_bond_site_symmetry_2
C1 C2 1_555 1_555
C2 C3 1_555 1_555
C3 H1 1_555 1_555
C4 C3 1_555 1_555
C5 C4 1_555 1_555
H2 C5 1_555 1_555
C6 C1 1_555 1_555
C7 C6 1_555 1_555
H3 C7 1_555 1_555
C8 C7 1_555 1_555
H4 C8 1_555 1_555
H5 C8 1_555 1_555
H6 C8 1_555 1_555
C9 C7 1_555 1_555
C10 C9 1_555 1_555
H7 C10 1_555 1_555
C11 C10 1_555 1_555
H8 C11 1_555 1_555
C12 C11 1_555 1_555
H9 C12 1_555 1_555
C13 C12 1_555 1_555
H10 C13 1_555 1_555
C14 C9 1_555 1_555
H11 C14 1_555 1_555
C15 C4 1_555 1_555
H12 C15 1_555 1_555
H13 C15 1_555 1_555
H14 C15 1_555 1_555
C16 C2 1_555 1_555
H15 C16 1_555 1_555
C17 C16 1_555 1_555
H16 C17 1_555 1_555
H17 C17 1_555 1_555
H18 C17 1_555 1_555
C18 C16 1_555 1_555
C19 C18 1_555 1_555
H19 C19 1_555 1_555
C20 C19 1_555 1_555
H20 C20 1_555 1_555
C21 C20 1_555 1_555
H21 C21 1_555 1_555
C22 C21 1_555 1_555
H22 C22 1_555 1_555
C23 C18 1_555 1_555
H23 C23 1_555 1_555
C24 C25 1_555 1_555
C25 H24 1_555 1_555
H25 C25 1_555 1_555
H26 C25 1_555 1_555
N1 C1 1_555 1_555
C26 C27 1_555 1_555
C27 C28 1_555 1_555
C28 H27 1_555 1_555
C29 C28 1_555 1_555
C30 C29 1_555 1_555
H28 C30 1_555 1_555
C31 C26 1_555 1_555
C32 C31 1_555 1_555
H29 C32 1_555 1_555
C33 C32 1_555 1_555
H30 C33 1_555 1_555
H31 C33 1_555 1_555
H32 C33 1_555 1_555
C34 C32 1_555 1_555
C35 C34 1_555 1_555
H33 C35 1_555 1_555
C36 C35 1_555 1_555
H34 C36 1_555 1_555
C37 C36 1_555 1_555
H35 C37 1_555 1_555
C38 C37 1_555 1_555
H36 C38 1_555 1_555
C39 C34 1_555 1_555
H37 C39 1_555 1_555
C40 C29 1_555 1_555
H38 C40 1_555 1_555
H39 C40 1_555 1_555
H40 C40 1_555 1_555
C41 C27 1_555 1_555
H41 C41 1_555 1_555
C42 C41 1_555 1_555
H42 C42 1_555 1_555
H43 C42 1_555 1_555
H44 C42 1_555 1_555
C43 C41 1_555 1_555
C44 C43 1_555 1_555
H45 C44 1_555 1_555
C45 C44 1_555 1_555
H46 C45 1_555 1_555
C46 C45 1_555 1_555
H47 C46 1_555 1_555
C47 C46 1_555 1_555
H48 C47 1_555 1_555
C48 C43 1_555 1_555
H49 C48 1_555 1_555
C49 C50 1_555 1_555
C50 H50 1_555 1_555
H51 C50 1_555 1_555
H52 C50 1_555 1_555
N2 C26 1_555 1_555
C1A C2A 1_555 1_555
C2A C3A 1_555 1_555
C3A H1A 1_555 1_555
C4A C3A 1_555 1_555
C5A C4A 1_555 1_555
H2A C5A 1_555 1_555
C6A C1A 1_555 1_555
C7A C6A 1_555 1_555
H3A C7A 1_555 1_555
C8A C7A 1_555 1_555
H4A C8A 1_555 1_555
H5A C8A 1_555 1_555
H6A C8A 1_555 1_555
C9A C7A 1_555 1_555
C10A C9A 1_555 1_555
H7A C10A 1_555 1_555
C11A C10A 1_555 1_555
H8A C11A 1_555 1_555
C12A C11A 1_555 1_555
H9A C12A 1_555 1_555
C13A C12A 1_555 1_555
H10A C13A 1_555 1_555
C14A C9A 1_555 1_555
H11A C14A 1_555 1_555
C15A C4A 1_555 1_555
H12A C15A 1_555 1_555
H13A C15A 1_555 1_555
H14A C15A 1_555 1_555
C16A C2A 1_555 1_555
H15A C16A 1_555 1_555
C17A C16A 1_555 1_555
H16A C17A 1_555 1_555
H17A C17A 1_555 1_555
H18A C17A 1_555 1_555
C18A C16A 1_555 1_555
C19A C18A 1_555 1_555
H19A C19A 1_555 1_555
C20A C19A 1_555 1_555
H20A C20A 1_555 1_555
C21A C20A 1_555 1_555
H21A C21A 1_555 1_555
C22A C21A 1_555 1_555
H22A C22A 1_555 1_555
C23A C18A 1_555 1_555
H23A C23A 1_555 1_555
C24A C24 1_555 1_555
C25A C24A 1_555 1_555
H24A C25A 1_555 1_555
H25A C25A 1_555 1_555
H26A C25A 1_555 1_555
N1A C1A 1_555 1_555
C26A C27A 1_555 1_555
C27A C28A 1_555 1_555
C28A H27A 1_555 1_555
C29A C28A 1_555 1_555
C30A C29A 1_555 1_555
H28A C30A 1_555 1_555
C31A C26A 1_555 1_555
C32A C31A 1_555 1_555
H29A C32A 1_555 1_555
C33A C32A 1_555 1_555
H30A C33A 1_555 1_555
H31A C33A 1_555 1_555
H32A C33A 1_555 1_555
C34A C32A 1_555 1_555
C35A C34A 1_555 1_555
H33A C35A 1_555 1_555
C36A C35A 1_555 1_555
H34A C36A 1_555 1_555
C37A C36A 1_555 1_555
H35A C37A 1_555 1_555
C38A C37A 1_555 1_555
H36A C38A 1_555 1_555
C39A C34A 1_555 1_555
H37A C39A 1_555 1_555
C40A C29A 1_555 1_555
H38A C40A 1_555 1_555
H39A C40A 1_555 1_555
H40A C40A 1_555 1_555
C41A C27A 1_555 1_555
H41A C41A 1_555 1_555
C42A C41A 1_555 1_555
H42A C42A 1_555 1_555
H43A C42A 1_555 1_555
H44A C42A 1_555 1_555
C43A C41A 1_555 1_555
C44A C43A 1_555 1_555
H45A C44A 1_555 1_555
C45A C44A 1_555 1_555
H46A C45A 1_555 1_555
C46A C45A 1_555 1_555
H47A C46A 1_555 1_555
C47A C46A 1_555 1_555
H48A C47A 1_555 1_555
C48A C43A 1_555 1_555
H49A C48A 1_555 1_555
C49A C49 1_555 1_555
C50A C49A 1_555 1_555
H50A C50A 1_555 1_555
H51A C50A 1_555 1_555
H52A C50A 1_555 1_555
N2A C26A 1_555 1_555
C5 C6 1_555 1_555
C13 C14 1_555 1_555
C22 C23 1_555 1_555
C24 N1 1_555 1_555
C30 C31 1_555 1_555
C38 C39 1_555 1_555
C47 C48 1_555 1_555
C49 N2 1_555 1_555
C5A C6A 1_555 1_555
C13A C14A 1_555 1_555
C22A C23A 1_555 1_555
C24A N1A 1_555 1_555
C30A C31A 1_555 1_555
C38A C39A 1_555 1_555
C47A C48A 1_555 1_555
C49A N2A 1_555 1_555

#END
