
#######################################################################
#
#                 Cambridge Crystallographic Data Centre
#                                CCDC 
#
#######################################################################
#
# If this CIF has been generated from an entry in the Cambridge 
# Structural Database, then it will include bibliographic, chemical, 
# crystal, experimental, refinement or atomic coordinate data resulting 
# from the CCDC's data processing and validation procedures.
#
#######################################################################

data_DEYPUU
_chemical_compound_source        'aerial parts of Isodon tenuifolius'
_chemical_name_common            'Tenuifolin M'
_chemical_formula_moiety         'C25 H36 O9'
_chemical_name_systematic        
'3,7-Dihydroxy-17-methoxy-6,15-dioxokaurane-1,11-diyl diacetate'
_chemical_properties_biological  'cytotoxic activity'
_symmetry_cell_setting           orthorhombic
_symmetry_space_group_name_H-M   'P 21 21 21'
_symmetry_Int_Tables_number      19
_space_group_name_Hall           'P 2ac 2ab'
loop_
_symmetry_equiv_pos_site_id
_symmetry_equiv_pos_as_xyz
1 x,y,z
2 1/2+x,1/2-y,-z
3 -x,1/2+y,1/2-z
4 1/2-x,-y,1/2+z
_cell_length_a                   8.9493(2)
_cell_length_b                   15.1680(4)
_cell_length_c                   17.9800(4)
_cell_angle_alpha                90
_cell_angle_beta                 90
_cell_angle_gamma                90
_cell_volume                     2440.66
_exptl_crystal_colour            colorless
_exptl_crystal_description       block
_cell_formula_units_Z            4
loop_
_atom_site_label
_atom_site_type_symbol
_atom_site_fract_x
_atom_site_fract_y
_atom_site_fract_z
O1 O 0.88361(13) 0.26359(8) 0.80264(6)
O2 O 0.13354(14) 0.00189(8) 0.89811(6)
O3 O 0.78789(14) 0.32514(8) 0.57827(7)
H1 H 0.8071 0.3790 0.5831
O4 O 0.76043(14) -0.00302(8) 0.58279(7)
O5 O 0.45139(13) 0.11690(9) 0.59587(6)
H2 H 0.3783 0.1333 0.6217
O6 O 0.27925(13) 0.12409(8) 0.72214(6)
O7 O 0.75723(18) 0.39130(9) 0.81268(7)
O8 O 0.48008(13) 0.19737(8) 0.84951(6)
O9 O 0.59145(15) 0.26500(9) 0.94558(7)
C1 C 0.9237(2) 0.34827(12) 0.91025(9)
H3 H 1.0094 0.3878 0.9041
H4 H 0.9586 0.2904 0.9271
H5 H 0.8551 0.3730 0.9473
C2 C 0.8440(2) 0.33853(11) 0.83732(9)
C3 C 0.83105(18) 0.25171(10) 0.72604(8)
H6 H 0.7429 0.2910 0.7178
C4 C 0.78169(17) 0.15484(10) 0.71320(8)
C5 C 0.62144(18) 0.14176(10) 0.74764(8)
H7 H 0.5628 0.1940 0.7304
C6 C 0.53000(18) 0.05983(10) 0.72004(8)
C7 C 0.37045(18) 0.07512(11) 0.74974(8)
C8 C 0.34729(19) 0.01988(11) 0.81907(9)
H8 H 0.2932 -0.0343 0.8023
C9 C 0.2474(2) 0.06241(11) 0.87739(9)
H9 H 0.3075 0.0786 0.9216
H10 H 0.2019 0.1168 0.8570
C10 C 0.0359(2) 0.03905(13) 0.95207(9)
H11 H 0.0932 0.0554 0.9964
H12 H -0.0407 -0.0043 0.9656
H13 H -0.0122 0.0916 0.9314
C11 C 0.91908(18) 0.27458(11) 0.59413(9)
H14 H 1.0040 0.2970 0.5634
C12 C 0.88768(18) 0.17779(11) 0.57374(8)
C13 C 0.75925(18) 0.14809(10) 0.62579(8)
H15 H 0.6760 0.1901 0.6148
C14 C 0.69385(19) 0.05845(11) 0.60981(8)
C15 C 0.53141(19) 0.05029(11) 0.63445(8)
H16 H 0.4918 -0.0090 0.6202
C16 C 0.50783(19) -0.01054(11) 0.83839(9)
H17 H 0.5063 -0.0665 0.8677
C17 C 0.57379(19) -0.02573(11) 0.76057(9)
H18 H 0.5289 -0.0780 0.7364
H19 H 0.6836 -0.0330 0.7626
C18 C 0.60441(19) 0.05936(11) 0.87664(9)
H20 H 0.7062 0.0352 0.8836
H21 H 0.5624 0.0714 0.9265
C19 C 0.61614(18) 0.14665(11) 0.83398(8)
H22 H 0.7049 0.1803 0.8523
C20 C 0.95867(19) 0.28304(11) 0.67643(9)
H23 H 1.0491 0.2476 0.6870
H24 H 0.9816 0.3454 0.6879
C21 C 0.89856(18) 0.09003(11) 0.74379(8)
H25 H 0.9990 0.1138 0.7354
H26 H 0.8888 0.0333 0.7182
H27 H 0.8825 0.0817 0.7972
C22 C 0.48261(19) 0.25288(11) 0.90769(8)
C23 C 0.3337(2) 0.29507(12) 0.91855(10)
H28 H 0.2763 0.2615 0.9553
H29 H 0.2795 0.2958 0.8712
H30 H 0.3474 0.3556 0.9363
C24 C 0.83002(19) 0.17489(12) 0.49272(9)
H31 H 0.9026 0.2037 0.4599
H32 H 0.7340 0.2057 0.4896
H33 H 0.8169 0.1134 0.4773
C25 C 1.03261(18) 0.12367(11) 0.57643(9)
H34 H 1.1041 0.1475 0.5403
H35 H 1.0107 0.0621 0.5642
H36 H 1.0756 0.1270 0.6265
loop_
_geom_bond_atom_site_label_1
_geom_bond_atom_site_label_2
_geom_bond_site_symmetry_1
_geom_bond_site_symmetry_2
O1 C2 1_555 1_555
O2 C9 1_555 1_555
O3 H1 1_555 1_555
O4 C14 1_555 1_555
O5 H2 1_555 1_555
O6 C7 1_555 1_555
O7 C2 1_555 1_555
O8 C19 1_555 1_555
O9 C22 1_555 1_555
C1 H3 1_555 1_555
H4 C1 1_555 1_555
H5 C1 1_555 1_555
C2 C1 1_555 1_555
C3 O1 1_555 1_555
H6 C3 1_555 1_555
C4 C3 1_555 1_555
C5 C4 1_555 1_555
H7 C5 1_555 1_555
C6 C5 1_555 1_555
C7 C6 1_555 1_555
C8 C7 1_555 1_555
H8 C8 1_555 1_555
C9 C8 1_555 1_555
H9 C9 1_555 1_555
H10 C9 1_555 1_555
C10 O2 1_555 1_555
H11 C10 1_555 1_555
H12 C10 1_555 1_555
H13 C10 1_555 1_555
C11 O3 1_555 1_555
H14 C11 1_555 1_555
C12 C11 1_555 1_555
C13 C4 1_555 1_555
H15 C13 1_555 1_555
C14 C13 1_555 1_555
C15 O5 1_555 1_555
H16 C15 1_555 1_555
C16 C8 1_555 1_555
H17 C16 1_555 1_555
C17 C6 1_555 1_555
H18 C17 1_555 1_555
H19 C17 1_555 1_555
C18 C16 1_555 1_555
H20 C18 1_555 1_555
H21 C18 1_555 1_555
C19 C5 1_555 1_555
H22 C19 1_555 1_555
C20 C3 1_555 1_555
H23 C20 1_555 1_555
H24 C20 1_555 1_555
C21 C4 1_555 1_555
H25 C21 1_555 1_555
H26 C21 1_555 1_555
H27 C21 1_555 1_555
C22 O8 1_555 1_555
C23 C22 1_555 1_555
H28 C23 1_555 1_555
H29 C23 1_555 1_555
H30 C23 1_555 1_555
C24 C12 1_555 1_555
H31 C24 1_555 1_555
H32 C24 1_555 1_555
H33 C24 1_555 1_555
C25 C12 1_555 1_555
H34 C25 1_555 1_555
H35 C25 1_555 1_555
H36 C25 1_555 1_555
C6 C15 1_555 1_555
C11 C20 1_555 1_555
C12 C13 1_555 1_555
C14 C15 1_555 1_555
C16 C17 1_555 1_555
C18 C19 1_555 1_555

#END
