
#######################################################################
#
#                 Cambridge Crystallographic Data Centre
#                                CCDC 
#
#######################################################################
#
# If this CIF has been generated from an entry in the Cambridge 
# Structural Database, then it will include bibliographic, chemical, 
# crystal, experimental, refinement or atomic coordinate data resulting 
# from the CCDC's data processing and validation procedures.
#
#######################################################################

data_DEYREF
_chemical_formula_moiety         'C7 H8 N4 O2,C7 H6 O4,H2 O1'
_chemical_name_systematic        
'Theophylline 2,4-dihydroxybenzoic acid monohydrate'
_symmetry_cell_setting           monoclinic
_symmetry_space_group_name_H-M   'P 21/n'
_symmetry_Int_Tables_number      14
_space_group_name_Hall           '-P 2yn'
loop_
_symmetry_equiv_pos_site_id
_symmetry_equiv_pos_as_xyz
1 x,y,z
2 1/2-x,1/2+y,1/2-z
3 -x,-y,-z
4 1/2+x,1/2-y,1/2+z
_cell_length_a                   10.1984(12)
_cell_length_b                   13.4881(16)
_cell_length_c                   11.4941(13)
_cell_angle_alpha                90
_cell_angle_beta                 97.116(2)
_cell_angle_gamma                90
_cell_volume                     1568.92
_exptl_crystal_colour            colorless
_exptl_crystal_description       plate
_cell_formula_units_Z            4
loop_
_atom_site_label
_atom_site_type_symbol
_atom_site_fract_x
_atom_site_fract_y
_atom_site_fract_z
N1 N -0.22428(18) 0.16776(13) -0.51118(14)
N2 N -0.13020(19) 0.36817(13) -0.30263(15)
H1 H -0.107(2) 0.3504(17) -0.2278(10)
N3 N -0.1829(2) 0.46247(14) -0.46031(17)
N4 N -0.24459(17) 0.32737(14) -0.59729(15)
O5 O -0.14847(16) 0.14300(11) -0.31775(12)
O6 O -0.30014(19) 0.18905(13) -0.70384(14)
C8 C -0.1998(2) 0.36555(15) -0.48881(18)
C9 C -0.16852(19) 0.30580(14) -0.39442(17)
C10 C -0.1769(2) 0.20170(15) -0.39926(17)
C11 C -0.2584(2) 0.22668(18) -0.61000(18)
C12 C -0.1408(3) 0.45921(17) -0.3462(2)
H10 H -0.1206 0.5157 -0.3011
C13 C -0.2371(3) 0.06027(18) -0.5279(2)
H11 H -0.3080 0.0465 -0.5888
H12 H -0.2557 0.0299 -0.4562
H13 H -0.1561 0.0340 -0.5496
C14 C -0.2778(3) 0.3918(2) -0.6993(2)
H14 H -0.2016 0.3997 -0.7398
H15 H -0.3052 0.4555 -0.6738
H16 H -0.3483 0.3625 -0.7511
O1 O -0.07291(17) 0.30364(11) -0.07171(13)
O2 O -0.07482(17) 0.13964(11) -0.09058(13)
H2 H -0.104(3) 0.152(2) -0.1592(12)
O3 O -0.00987(19) 0.38207(11) 0.13305(13)
H3 H -0.032(3) 0.377(2) 0.0610(10)
O4 O 0.10158(18) 0.16448(12) 0.45115(14)
H4 H 0.114(3) 0.2194(13) 0.484(3)
C1 C -0.01384(19) 0.20570(14) 0.09671(17)
C2 C 0.0068(2) 0.28755(14) 0.17173(18)
C3 C 0.0456(2) 0.27380(15) 0.29037(18)
H7 H 0.0588 0.3285 0.3397
C4 C 0.0648(2) 0.17968(16) 0.33583(18)
C5 C 0.0452(2) 0.09740(16) 0.2625(2)
H8 H 0.0584 0.0337 0.2927
C6 C 0.0065(2) 0.11140(15) 0.14537(19)
H9 H -0.0068 0.0563 0.0967
C7 C -0.05644(19) 0.22053(15) -0.02770(18)
O7 O 0.15210(19) 0.33864(13) 0.55842(13)
H5 H 0.164(3) 0.3315(19) 0.6299(10)
H6 H 0.165(3) 0.3965(10) 0.541(2)
loop_
_geom_bond_atom_site_label_1
_geom_bond_atom_site_label_2
_geom_bond_site_symmetry_1
_geom_bond_site_symmetry_2
N1 C10 1_555 1_555
N2 H1 1_555 1_555
N3 C8 1_555 1_555
N4 C8 1_555 1_555
O1 C7 1_555 1_555
O2 H2 1_555 1_555
O3 H3 1_555 1_555
O4 H4 1_555 1_555
O5 C10 1_555 1_555
O6 C11 1_555 1_555
O7 H5 1_555 1_555
H6 O7 1_555 1_555
C1 C2 1_555 1_555
C2 O3 1_555 1_555
C3 C2 1_555 1_555
H7 C3 1_555 1_555
C4 O4 1_555 1_555
C5 C4 1_555 1_555
H8 C5 1_555 1_555
C6 C1 1_555 1_555
H9 C6 1_555 1_555
C7 O2 1_555 1_555
C8 C9 1_555 1_555
C9 N2 1_555 1_555
C10 C9 1_555 1_555
C11 N1 1_555 1_555
C12 N2 1_555 1_555
H10 C12 1_555 1_555
C13 N1 1_555 1_555
H11 C13 1_555 1_555
H12 C13 1_555 1_555
H13 C13 1_555 1_555
C14 N4 1_555 1_555
H14 C14 1_555 1_555
H15 C14 1_555 1_555
H16 C14 1_555 1_555
N3 C12 1_555 1_555
N4 C11 1_555 1_555
C1 C7 1_555 1_555
C3 C4 1_555 1_555
C5 C6 1_555 1_555

#END
