
#######################################################################
#
#                 Cambridge Crystallographic Data Centre
#                                CCDC 
#
#######################################################################
#
# If this CIF has been generated from an entry in the Cambridge 
# Structural Database, then it will include bibliographic, chemical, 
# crystal, experimental, refinement or atomic coordinate data resulting 
# from the CCDC's data processing and validation procedures.
#
#######################################################################

data_DEYXAI
_chemical_formula_moiety         'C10 H9 N2 1+,H4 B5 O10 1-,H3 B1 O3,H2 O1'
_chemical_name_systematic        
'4-(4-Pyridyl)pyridinium tetrahydrogen pentaborate boric acid solvate monohydrate'
_symmetry_cell_setting           triclinic
_symmetry_space_group_name_H-M   'P -1'
_symmetry_Int_Tables_number      2
_space_group_name_Hall           '-P 1'
loop_
_symmetry_equiv_pos_site_id
_symmetry_equiv_pos_as_xyz
1 x,y,z
2 -x,-y,-z
_cell_length_a                   9.196(3)
_cell_length_b                   9.822(3)
_cell_length_c                   12.113(3)
_cell_angle_alpha                66.243(3)
_cell_angle_beta                 76.998(3)
_cell_angle_gamma                75.067(3)
_cell_volume                     958.43
_cell_formula_units_Z            2
loop_
_atom_site_label
_atom_site_type_symbol
_atom_site_fract_x
_atom_site_fract_y
_atom_site_fract_z
O1 O -0.5958(2) 0.8705(2) 0.20633(18)
H1 H -0.6710 0.9040 0.1711
B1 B -0.5103(3) 0.9800(4) 0.1691(3)
O2 O -0.5656(2) 1.1254(2) 0.09460(18)
B2 B -0.4855(3) 1.2376(4) 0.0717(3)
O3 O -0.5485(2) 1.3819(2) 0.00460(18)
H2 H -0.5065 1.4421 0.0110
B3 B -0.2835(3) 1.0554(4) 0.1901(3)
O4 O -0.3532(2) 1.2078(2) 0.11349(18)
B4 B -0.1365(4) 1.0212(4) 0.3498(3)
O5 O -0.3756(2) 0.9430(2) 0.20951(17)
B5 B -0.0011(3) 0.9827(4) 0.1717(3)
O6 O -0.1310(2) 1.0146(2) 0.12457(16)
O7 O -0.2701(2) 1.0563(2) 0.30732(17)
O8 O -0.1340(2) 1.0274(3) 0.46014(18)
H3 H -0.0458 1.0085 0.4729
O9 O 0.0009(2) 0.9901(2) 0.28209(17)
O10 O 0.1381(2) 0.9470(2) 0.10882(17)
H4 H 0.1281 0.9632 0.0388
N1 N -0.2001(3) 0.5576(3) 0.0955(2)
H5 H -0.2823 0.5829 0.0636
C1 C -0.1616(4) 0.4199(4) 0.1740(4)
H6 H -0.2246 0.3503 0.1947
N2 N 0.4581(3) 0.3481(4) 0.3718(3)
C2 C -0.0318(4) 0.3762(4) 0.2257(3)
H7 H -0.0084 0.2784 0.2818
C3 C 0.0652(3) 0.4759(3) 0.1954(2)
C4 C 0.0214(4) 0.6190(4) 0.1133(3)
H8 H 0.0827 0.6908 0.0894
C5 C -0.1119(4) 0.6564(4) 0.0665(3)
H9 H -0.1409 0.7545 0.0125
C6 C 0.4124(4) 0.4914(4) 0.3024(3)
H10 H 0.4669 0.5637 0.2936
C7 C 0.2876(4) 0.5362(4) 0.2431(3)
H11 H 0.2585 0.6376 0.1955
C8 C 0.2050(3) 0.4311(3) 0.2538(2)
C9 C 0.2576(4) 0.2817(4) 0.3227(3)
H12 H 0.2084 0.2063 0.3298
C10 C 0.3820(4) 0.2448(4) 0.3804(4)
H13 H 0.4148 0.1439 0.4273
O11 O 0.6661(2) 0.2406(3) 0.5291(2)
H14 H 0.719(6) 0.153(4) 0.507(5)
H15 H 0.631(5) 0.215(5) 0.613(2)
B6 B 0.8156(4) 0.5906(4) 0.4049(3)
O12 O 0.9074(3) 0.6897(3) 0.3833(2)
H16 H 0.9771 0.6472 0.4244
O13 O 0.8540(3) 0.4432(3) 0.4802(2)
O14 O 0.6875(2) 0.6368(2) 0.35227(19)
H17 H 0.6771 0.7279 0.3121
H18 H 0.786(4) 0.389(4) 0.495(3)
loop_
_geom_bond_atom_site_label_1
_geom_bond_atom_site_label_2
_geom_bond_site_symmetry_1
_geom_bond_site_symmetry_2
O1 H1 1_555 1_555
B1 O1 1_555 1_555
O2 B1 1_555 1_555
B2 O2 1_555 1_555
O3 B2 1_555 1_555
H2 O3 1_555 1_555
B3 O4 1_555 1_555
O4 B2 1_555 1_555
B4 O7 1_555 1_555
O5 B1 1_555 1_555
B5 O6 1_555 1_555
O6 B3 1_555 1_555
O7 B3 1_555 1_555
O8 B4 1_555 1_555
H3 O8 1_555 1_555
O9 B4 1_555 1_555
O10 B5 1_555 1_555
H4 O10 1_555 1_555
N1 H5 1_555 1_555
C1 N1 1_555 1_555
H6 C1 1_555 1_555
N2 C6 1_555 1_555
C2 C1 1_555 1_555
H7 C2 1_555 1_555
C3 C2 1_555 1_555
C4 C3 1_555 1_555
H8 C4 1_555 1_555
C5 N1 1_555 1_555
H9 C5 1_555 1_555
C6 H10 1_555 1_555
C7 C6 1_555 1_555
H11 C7 1_555 1_555
C8 C3 1_555 1_555
C9 C8 1_555 1_555
H12 C9 1_555 1_555
C10 N2 1_555 1_555
H13 C10 1_555 1_555
O11 H14 1_555 1_555
H15 O11 1_555 1_555
B6 O12 1_555 1_555
O12 H16 1_555 1_555
O13 B6 1_555 1_555
O14 B6 1_555 1_555
H17 O14 1_555 1_555
H18 O13 1_555 1_555
B3 O5 1_555 1_555
B5 O9 1_555 1_555
C4 C5 1_555 1_555
C7 C8 1_555 1_555
C9 C10 1_555 1_555

#END
