
#######################################################################
#
#                 Cambridge Crystallographic Data Centre
#                                CCDC 
#
#######################################################################
#
# If this CIF has been generated from an entry in the Cambridge 
# Structural Database, then it will include bibliographic, chemical, 
# crystal, experimental, refinement or atomic coordinate data resulting 
# from the CCDC's data processing and validation procedures.
#
#######################################################################

data_DEZBOB
_chemical_formula_moiety         'C1 H5 N6 1+,N1 O3 1-'
_chemical_name_systematic        '1H-Tetrazol-5-ylhydrazinium nitrate'
_symmetry_cell_setting           monoclinic
_symmetry_space_group_name_H-M   'P 21/c'
_symmetry_Int_Tables_number      14
_space_group_name_Hall           '-P 2ybc'
loop_
_symmetry_equiv_pos_site_id
_symmetry_equiv_pos_as_xyz
1 x,y,z
2 -x,1/2+y,1/2-z
3 -x,-y,-z
4 x,1/2-y,1/2+z
_cell_length_a                   11.907(5)
_cell_length_b                   5.0089(19)
_cell_length_c                   9.905(4)
_cell_angle_alpha                90
_cell_angle_beta                 90.211(6)
_cell_angle_gamma                90
_cell_volume                     590.74
_exptl_crystal_colour            colorless
_exptl_crystal_description       Prism
_cell_formula_units_Z            4
loop_
_atom_site_label
_atom_site_type_symbol
_atom_site_fract_x
_atom_site_fract_y
_atom_site_fract_z
O1 O 0.08680(8) 1.38426(19) 0.89946(9)
O2 O 0.06905(8) 0.97253(18) 0.83765(9)
O3 O 0.17115(8) 1.2398(2) 0.71989(9)
N1 N 0.10827(8) 1.2033(2) 0.82051(9)
N2 N 0.32041(8) 0.3852(2) 0.47220(9)
N3 N 0.39966(9) 0.3047(2) 0.38144(10)
N4 N 0.44867(9) 0.5057(2) 0.32587(10)
N5 N 0.40113(9) 0.7267(2) 0.37923(10)
N6 N 0.26531(9) 0.8167(2) 0.55154(10)
N7 N 0.15716(9) 0.7191(2) 0.59078(10)
C1 C 0.32389(9) 0.6484(2) 0.46892(11)
H1 H 0.4249(16) 0.901(4) 0.3514(19)
H2 H 0.2633(15) 0.985(3) 0.5303(16)
H3 H 0.1609(15) 0.558(4) 0.6290(18)
H4 H 0.1064(14) 0.700(3) 0.5156(17)
H5 H 0.1254(15) 0.850(4) 0.6541(18)
loop_
_geom_bond_atom_site_label_1
_geom_bond_atom_site_label_2
_geom_bond_site_symmetry_1
_geom_bond_site_symmetry_2
O1 N1 1_555 1_555
O2 N1 1_555 1_555
O3 N1 1_555 1_555
N2 N3 1_555 1_555
N3 N4 1_555 1_555
N4 N5 1_555 1_555
N5 C1 1_555 1_555
N6 N7 1_555 1_555
N7 H3 1_555 1_555
C1 N2 1_555 1_555
H1 N5 1_555 1_555
H2 N6 1_555 1_555
H4 N7 1_555 1_555
H5 N7 1_555 1_555
N6 C1 1_555 1_555

#END
