
#######################################################################
#
#                 Cambridge Crystallographic Data Centre
#                                CCDC 
#
#######################################################################
#
# If this CIF has been generated from an entry in the Cambridge 
# Structural Database, then it will include bibliographic, chemical, 
# crystal, experimental, refinement or atomic coordinate data resulting 
# from the CCDC's data processing and validation procedures.
#
#######################################################################

data_DEZBUH
_chemical_formula_moiety         'C1 H5 N6 1+,Cl1 1-'
_chemical_name_systematic        '1H-Tetrazol-5-ylhydrazinium chloride'
_symmetry_cell_setting           monoclinic
_symmetry_space_group_name_H-M   'P 21/n'
_symmetry_Int_Tables_number      14
_space_group_name_Hall           '-P 2yn'
loop_
_symmetry_equiv_pos_site_id
_symmetry_equiv_pos_as_xyz
1 x,y,z
2 1/2-x,1/2+y,1/2-z
3 -x,-y,-z
4 1/2+x,1/2-y,1/2+z
_cell_length_a                   4.838(2)
_cell_length_b                   23.956(10)
_cell_length_c                   4.936(2)
_cell_angle_alpha                90
_cell_angle_beta                 107.152(6)
_cell_angle_gamma                90
_cell_volume                     546.635
_exptl_crystal_colour            colorless
_exptl_crystal_description       Platelet
_cell_formula_units_Z            4
loop_
_atom_site_label
_atom_site_type_symbol
_atom_site_fract_x
_atom_site_fract_y
_atom_site_fract_z
Cl1 Cl -0.07624(7) 0.698023(14) 0.16520(7)
N1 N 0.7174(3) 0.55107(5) 0.9090(3)
N2 N 0.8417(3) 0.52756(5) 0.7244(3)
N3 N 0.7379(3) 0.55340(5) 0.4879(3)
N4 N 0.5447(3) 0.59376(5) 0.5071(3)
N5 N 0.3554(3) 0.62059(5) 0.8872(3)
N6 N 0.2993(3) 0.67611(5) 0.7804(3)
C1 C 0.5368(3) 0.59108(5) 0.7721(3)
H1 H 0.446(5) 0.6971(8) 0.817(5)
H2 H 0.404(4) 0.6203(7) 1.074(4)
H3 H 0.205(5) 0.6780(9) 0.592(5)
H4 H 0.770(5) 0.5433(8) 1.080(5)
H5 H 0.185(5) 0.6911(8) 0.867(5)
loop_
_geom_bond_atom_site_label_1
_geom_bond_atom_site_label_2
_geom_bond_site_symmetry_1
_geom_bond_site_symmetry_2
N1 N2 1_555 1_555
N2 N3 1_555 1_555
N3 N4 1_555 1_555
N4 C1 1_555 1_555
N5 N6 1_555 1_555
N6 H1 1_555 1_555
C1 N1 1_555 1_555
H2 N5 1_555 1_555
H3 N6 1_555 1_555
H4 N1 1_555 1_555
H5 N6 1_555 1_555
N5 C1 1_555 1_555

#END
