
#######################################################################
#
#                 Cambridge Crystallographic Data Centre
#                                CCDC 
#
#######################################################################
#
# If this CIF has been generated from an entry in the Cambridge 
# Structural Database, then it will include bibliographic, chemical, 
# crystal, experimental, refinement or atomic coordinate data resulting 
# from the CCDC's data processing and validation procedures.
#
#######################################################################

data_DEZCOC
_chemical_formula_moiety         'C14 H9 O4 1-,C5 H7 N2 1+'
_chemical_name_systematic        
"2-Aminopyridinium 2'-carboxybiphenyl-4-carboxylate"
_symmetry_cell_setting           trigonal
_symmetry_space_group_name_H-M   'P 32'
_symmetry_Int_Tables_number      145
_space_group_name_Hall           'P 32'
loop_
_symmetry_equiv_pos_site_id
_symmetry_equiv_pos_as_xyz
1 x,y,z
2 -y,x-y,2/3+z
3 -x+y,-x,1/3+z
_cell_length_a                   9.2886(16)
_cell_length_b                   9.2886(16)
_cell_length_c                   16.746(6)
_cell_angle_alpha                90
_cell_angle_beta                 90
_cell_angle_gamma                120
_cell_volume                     1251.24
_exptl_crystal_colour            colorless
_exptl_crystal_description       block
_cell_formula_units_Z            3
loop_
_atom_site_label
_atom_site_type_symbol
_atom_site_fract_x
_atom_site_fract_y
_atom_site_fract_z
C1 C 1.4868(3) 1.3594(3) 0.21426(15)
C2 C 1.5611(4) 1.1893(4) 0.1402(2)
H1 H 1.5263 1.0931 0.1103
C3 C 1.7261(4) 1.2919(4) 0.1537(2)
H2 H 1.8046 1.2656 0.1352
C4 C 1.7733(3) 1.4379(4) 0.1964(2)
H3 H 1.8858 1.5134 0.2036
C5 C 1.6586(3) 1.4723(3) 0.22765(18)
H4 H 1.6922 1.5684 0.2574
N1 N 1.4471(3) 1.2246(3) 0.16939(14)
H5 H 1.341(3) 1.156(4) 0.161(2)
N2 N 1.3670(3) 1.3812(3) 0.24364(17)
H6 H 1.401(4) 1.472(3) 0.2716(17)
H7 H 1.258(3) 1.307(4) 0.234(2)
C6 C 0.8425(3) 0.9031(3) 0.12577(15)
C7 C 0.8217(3) 0.8178(3) 0.05490(15)
H8 H 0.9144 0.8349 0.0259
C8 C 0.6638(3) 0.7071(3) 0.02690(14)
H9 H 0.6514 0.6512 -0.0210
C9 C 0.5233(3) 0.6786(3) 0.06984(14)
C10 C 0.5446(3) 0.7645(3) 0.14058(14)
H10 H 0.4520 0.7467 0.1698
C11 C 0.7023(3) 0.8766(3) 0.16823(14)
H11 H 0.7146 0.9346 0.2154
C12 C 1.0141(3) 1.0244(3) 0.15612(15)
C13 C 0.3556(3) 0.5494(3) 0.04078(13)
C14 C 0.2182(3) 0.5731(3) 0.03741(15)
C15 C 0.0633(3) 0.4420(4) 0.01353(18)
H12 H -0.0282 0.4576 0.0123
C16 C 0.0443(4) 0.2912(4) -0.00801(19)
H13 H -0.0592 0.2054 -0.0239
C17 C 0.1793(4) 0.2666(3) -0.00613(17)
H14 H 0.1674 0.1650 -0.0215
C18 C 0.3321(3) 0.3942(3) 0.01873(16)
H15 H 0.4219 0.3761 0.0208
C19 C 0.2321(3) 0.7383(3) 0.05354(15)
O1 O 1.1331(2) 1.0024(2) 0.13191(12)
O2 O 1.0329(2) 1.1361(3) 0.20123(13)
O3 O 0.3401(2) 0.8671(2) 0.02521(14)
O4 O 0.1142(3) 0.7266(3) 0.10012(17)
H16 H 0.139(6) 0.818(4) 0.112(3)
loop_
_geom_bond_atom_site_label_1
_geom_bond_atom_site_label_2
_geom_bond_site_symmetry_1
_geom_bond_site_symmetry_2
C1 C5 1_555 1_555
C2 H1 1_555 1_555
C3 C2 1_555 1_555
H2 C3 1_555 1_555
C4 C3 1_555 1_555
H3 C4 1_555 1_555
C5 C4 1_555 1_555
H4 C5 1_555 1_555
N1 C1 1_555 1_555
H5 N1 1_555 1_555
N2 C1 1_555 1_555
H6 N2 1_555 1_555
H7 N2 1_555 1_555
C6 C7 1_555 1_555
C7 H8 1_555 1_555
C8 C7 1_555 1_555
H9 C8 1_555 1_555
C9 C8 1_555 1_555
C10 C9 1_555 1_555
H10 C10 1_555 1_555
C11 C6 1_555 1_555
H11 C11 1_555 1_555
C12 C6 1_555 1_555
C13 C9 1_555 1_555
C14 C13 1_555 1_555
C15 C14 1_555 1_555
H12 C15 1_555 1_555
C16 C15 1_555 1_555
H13 C16 1_555 1_555
C17 C16 1_555 1_555
H14 C17 1_555 1_555
C18 C13 1_555 1_555
H15 C18 1_555 1_555
C19 C14 1_555 1_555
O1 C12 1_555 1_555
O2 C12 1_555 1_555
O3 C19 1_555 1_555
O4 C19 1_555 1_555
H16 O4 1_555 1_555
C2 N1 1_555 1_555
C10 C11 1_555 1_555
C17 C18 1_555 1_555

#END
