
#######################################################################
#
#                 Cambridge Crystallographic Data Centre
#                                CCDC 
#
#######################################################################
#
# If this CIF has been generated from an entry in the Cambridge 
# Structural Database, then it will include bibliographic, chemical, 
# crystal, experimental, refinement or atomic coordinate data resulting 
# from the CCDC's data processing and validation procedures.
#
#######################################################################

data_DEZKAV
_chemical_formula_moiety         'C26 H21 N1'
_chemical_name_systematic        
2-Phenyl-4-p-tolyl-5,6-dihydrobenz(h)quinoline
_symmetry_cell_setting           triclinic
_symmetry_space_group_name_H-M   'P -1'
_symmetry_Int_Tables_number      2
_space_group_name_Hall           '-P 1'
loop_
_symmetry_equiv_pos_site_id
_symmetry_equiv_pos_as_xyz
1 x,y,z
2 -x,-y,-z
_cell_length_a                   10.7313(14)
_cell_length_b                   10.8332(14)
_cell_length_c                   17.189(2)
_cell_angle_alpha                91.122(2)
_cell_angle_beta                 101.774(2)
_cell_angle_gamma                99.739(2)
_cell_volume                     1925.03
_chemical_melting_point          153.8-155.4deg.C
_cell_formula_units_Z            4
loop_
_atom_site_label
_atom_site_type_symbol
_atom_site_fract_x
_atom_site_fract_y
_atom_site_fract_z
C1 C 0.6392(2) 0.8212(3) 0.43823(16)
C2 C 0.6656(2) 0.9519(3) 0.43764(15)
C3 C 0.5816(2) 1.0116(2) 0.38397(15)
C4 C 0.4507(2) 0.8234(3) 0.33387(15)
C5 C 0.5281(2) 0.7572(3) 0.38638(16)
H1 H 0.5060 0.6705 0.3870
C6 C 0.7234(3) 0.7497(3) 0.49261(16)
C7 C 0.6780(3) 0.6783(3) 0.54958(18)
H2 H 0.5930 0.6755 0.5548
C8 C 0.7561(3) 0.6107(3) 0.59910(19)
H3 H 0.7228 0.5644 0.6376
C9 C 0.8812(3) 0.6101(3) 0.59316(17)
C10 C 0.9260(3) 0.6798(3) 0.53596(19)
H4 H 1.0103 0.6805 0.5299
C11 C 0.8490(3) 0.7494(3) 0.48673(19)
H5 H 0.8830 0.7969 0.4490
C12 C 0.9665(3) 0.5334(3) 0.6463(2)
H6 H 0.9149 0.4564 0.6565
H7 H 1.0054 0.5803 0.6958
H8 H 1.0329 0.5151 0.6203
C13 C 0.7808(3) 1.0320(3) 0.49204(19)
H9 H 0.8519 1.0499 0.4646
H10 H 0.8090 0.9871 0.5389
C14 C 0.7433(3) 1.1550(3) 0.51696(19)
H11 H 0.6808 1.1370 0.5506
H12 H 0.8193 1.2091 0.5479
C15 C 0.6868(3) 1.2219(3) 0.44701(18)
C16 C 0.7096(3) 1.3516(3) 0.4444(2)
H13 H 0.7627 1.4000 0.4877
C17 C 0.6550(4) 1.4096(4) 0.3791(3)
C18 C 0.5764(3) 1.3400(3) 0.3153(2)
H14 H 0.5390 1.3794 0.2711
C19 C 0.5523(3) 1.2109(3) 0.31642(18)
H15 H 0.4989 1.1639 0.2726
C20 C 0.6066(3) 1.1499(3) 0.38194(17)
C21 C 0.3332(2) 0.7590(3) 0.27715(15)
C22 C 0.2312(3) 0.8206(3) 0.25165(17)
H16 H 0.2357 0.9027 0.2704
C23 C 0.1218(3) 0.7605(4) 0.1981(2)
H17 H 0.0532 0.8025 0.1813
C24 C 0.1144(3) 0.6399(4) 0.1700(2)
H18 H 0.0409 0.6002 0.1341
C25 C 0.2141(3) 0.5783(3) 0.19457(18)
H19 H 0.2085 0.4964 0.1751
C26 C 0.3245(3) 0.6359(3) 0.24846(17)
H20 H 0.3921 0.5927 0.2653
N1 N 0.47657(19) 0.9491(2) 0.33272(12)
H42 H 0.679(3) 1.505(3) 0.3769(18)
C27 C 0.2920(2) 0.6251(2) -0.01703(15)
C28 C 0.4037(2) 0.6837(2) 0.03522(14)
C29 C 0.4694(2) 0.6094(2) 0.08941(14)
C30 C 0.3251(2) 0.4292(2) 0.04090(15)
C31 C 0.2528(2) 0.4971(2) -0.01260(15)
H21 H 0.1770 0.4563 -0.0460
C32 C 0.2138(2) 0.6931(2) -0.07822(15)
C33 C 0.0897(3) 0.7054(3) -0.07435(17)
H22 H 0.0548 0.6725 -0.0323
C34 C 0.0158(3) 0.7658(3) -0.13167(19)
H23 H -0.0673 0.7739 -0.1270
C35 C 0.0629(3) 0.8141(2) -0.19557(17)
C36 C 0.1860(3) 0.7997(3) -0.20029(17)
H24 H 0.2192 0.8294 -0.2437
C37 C 0.2619(3) 0.7420(2) -0.14193(17)
H25 H 0.3460 0.7361 -0.1458
C38 C -0.0185(3) 0.8798(3) -0.2583(2)
H26 H -0.1057 0.8343 -0.2706
H27 H 0.0165 0.8833 -0.3055
H28 H -0.0180 0.9634 -0.2386
C39 C 0.4567(2) 0.8229(2) 0.03793(15)
H29 H 0.3877 0.8669 0.0146
H30 H 0.5229 0.8372 0.0066
C40 C 0.5137(3) 0.8749(2) 0.12252(16)
H31 H 0.5568 0.9609 0.1217
H32 H 0.4446 0.8748 0.1512
C41 C 0.6090(2) 0.7987(2) 0.16529(16)
C42 C 0.7181(3) 0.8529(3) 0.22106(17)
H33 H 0.7332 0.9389 0.2331
C43 C 0.8045(3) 0.7815(3) 0.25905(18)
H34 H 0.8773 0.8195 0.2963
C44 C 0.7831(3) 0.6534(3) 0.24179(17)
H35 H 0.8414 0.6051 0.2673
C45 C 0.6752(2) 0.5978(3) 0.18687(16)
H36 H 0.6610 0.5117 0.1755
C46 C 0.5867(2) 0.6686(2) 0.14796(14)
C47 C 0.2850(2) 0.2908(2) 0.04487(16)
C48 C 0.2054(3) 0.2172(2) -0.01932(17)
H37 H 0.1759 0.2543 -0.0663
C49 C 0.1694(3) 0.0891(3) -0.0141(2)
H38 H 0.1160 0.0411 -0.0575
C50 C 0.2121(3) 0.0324(3) 0.0546(2)
H39 H 0.1872 -0.0536 0.0579
C51 C 0.2918(3) 0.1035(3) 0.11836(19)
H40 H 0.3215 0.0655 0.1649
C52 C 0.3280(2) 0.2314(2) 0.11363(17)
H41 H 0.3820 0.2785 0.1572
N2 N 0.43249(18) 0.48461(18) 0.09186(12)
loop_
_geom_bond_atom_site_label_1
_geom_bond_atom_site_label_2
_geom_bond_site_symmetry_1
_geom_bond_site_symmetry_2
C1 C2 1_555 1_555
C2 C3 1_555 1_555
C3 C20 1_555 1_555
C4 C5 1_555 1_555
C5 C1 1_555 1_555
H1 C5 1_555 1_555
C6 C1 1_555 1_555
C7 C6 1_555 1_555
H2 C7 1_555 1_555
C8 C7 1_555 1_555
H3 C8 1_555 1_555
C9 C8 1_555 1_555
C10 C9 1_555 1_555
H4 C10 1_555 1_555
C11 C6 1_555 1_555
H5 C11 1_555 1_555
C12 C9 1_555 1_555
H6 C12 1_555 1_555
H7 C12 1_555 1_555
H8 C12 1_555 1_555
C13 C2 1_555 1_555
H9 C13 1_555 1_555
H10 C13 1_555 1_555
C14 C13 1_555 1_555
H11 C14 1_555 1_555
H12 C14 1_555 1_555
C15 C14 1_555 1_555
C16 C15 1_555 1_555
H13 C16 1_555 1_555
C17 C16 1_555 1_555
C18 C17 1_555 1_555
H14 C18 1_555 1_555
C19 C18 1_555 1_555
H15 C19 1_555 1_555
C20 C15 1_555 1_555
C21 C4 1_555 1_555
C22 C21 1_555 1_555
H16 C22 1_555 1_555
C23 C22 1_555 1_555
H17 C23 1_555 1_555
C24 C23 1_555 1_555
H18 C24 1_555 1_555
C25 C24 1_555 1_555
H19 C25 1_555 1_555
C26 C21 1_555 1_555
H20 C26 1_555 1_555
C27 C28 1_555 1_555
C28 C29 1_555 1_555
C29 C46 1_555 1_555
C30 C31 1_555 1_555
C31 C27 1_555 1_555
H21 C31 1_555 1_555
C32 C27 1_555 1_555
C33 C32 1_555 1_555
H22 C33 1_555 1_555
C34 C33 1_555 1_555
H23 C34 1_555 1_555
C35 C34 1_555 1_555
C36 C35 1_555 1_555
H24 C36 1_555 1_555
C37 C32 1_555 1_555
H25 C37 1_555 1_555
C38 C35 1_555 1_555
H26 C38 1_555 1_555
H27 C38 1_555 1_555
H28 C38 1_555 1_555
C39 C28 1_555 1_555
H29 C39 1_555 1_555
H30 C39 1_555 1_555
C40 C39 1_555 1_555
H31 C40 1_555 1_555
H32 C40 1_555 1_555
C41 C40 1_555 1_555
C42 C41 1_555 1_555
H33 C42 1_555 1_555
C43 C42 1_555 1_555
H34 C43 1_555 1_555
C44 C43 1_555 1_555
H35 C44 1_555 1_555
C45 C44 1_555 1_555
H36 C45 1_555 1_555
C46 C41 1_555 1_555
C47 C30 1_555 1_555
C48 C47 1_555 1_555
H37 C48 1_555 1_555
C49 C48 1_555 1_555
H38 C49 1_555 1_555
C50 C49 1_555 1_555
H39 C50 1_555 1_555
C51 C50 1_555 1_555
H40 C51 1_555 1_555
C52 C47 1_555 1_555
H41 C52 1_555 1_555
N1 C3 1_555 1_555
N2 C29 1_555 1_555
H42 C17 1_555 1_555
C4 N1 1_555 1_555
C10 C11 1_555 1_555
C19 C20 1_555 1_555
C25 C26 1_555 1_555
C30 N2 1_555 1_555
C36 C37 1_555 1_555
C45 C46 1_555 1_555
C51 C52 1_555 1_555

#END
