
#######################################################################
#
#                 Cambridge Crystallographic Data Centre
#                                CCDC 
#
#######################################################################
#
# If this CIF has been generated from an entry in the Cambridge 
# Structural Database, then it will include bibliographic, chemical, 
# crystal, experimental, refinement or atomic coordinate data resulting 
# from the CCDC's data processing and validation procedures.
#
#######################################################################

data_DEZLAV
_chemical_formula_moiety         'C16 H16 N2 O2 S1'
_chemical_name_systematic        
trans-2-(p-Nitrophenyl)-4-methyl-2,3,4,5-tetrahydro-1,5-benzothiazepine
_symmetry_cell_setting           monoclinic
_symmetry_space_group_name_H-M   'C 2/n'
_symmetry_Int_Tables_number      15
_space_group_name_Hall           '-C 2ybc'
loop_
_symmetry_equiv_pos_site_id
_symmetry_equiv_pos_as_xyz
1 x,y,z
2 1/2+x,1/2+y,z
3 1/2-x,y,1/2-z
4 -x,1/2+y,1/2-z
5 -x,-y,-z
6 1/2-x,1/2-y,-z
7 1/2+x,-y,1/2+z
8 x,1/2-y,1/2+z
_cell_length_a                   22.366(3)
_cell_length_b                   12.488(2)
_cell_length_c                   12.483(2)
_cell_angle_alpha                90
_cell_angle_beta                 121.01(1)
_cell_angle_gamma                90
_cell_volume                     2988.27
_exptl_crystal_colour            orange-yellow
_chemical_melting_point          118.5deg.C
_cell_formula_units_Z            8
loop_
_atom_site_label
_atom_site_type_symbol
_atom_site_fract_x
_atom_site_fract_y
_atom_site_fract_z
S1 S 0.1938(1) 0.1662(1) 0.3374(1)
N1 N 0.1096(2) -0.0501(3) 0.2035(4)
N2 N 0.0519(2) 0.6253(3) 0.1447(3)
O1 O 0.0838(2) 0.6812(3) 0.1134(4)
O2 O 0.0118(2) 0.6599(3) 0.1727(4)
C1 C 0.1952(2) 0.0381(3) 0.4002(4)
C2 C 0.2405(2) 0.0286(3) 0.5273(4)
C3 C 0.2479(2) -0.0655(4) 0.5893(4)
C4 C 0.2070(2) -0.1513(4) 0.5265(4)
C5 C 0.1616(2) -0.1438(3) 0.3998(4)
C6 C 0.1556(2) -0.0513(3) 0.3340(4)
C7 C 0.0908(2) 0.2930(3) 0.1779(3)
C8 C 0.0457(2) 0.3370(3) 0.2093(4)
C9 C 0.0312(2) 0.4455(3) 0.1957(4)
C10 C 0.0638(2) 0.5087(3) 0.1520(3)
C11 C 0.1076(2) 0.4681(3) 0.1164(4)
C12 C 0.1208(2) 0.3589(3) 0.1299(4)
C13 C 0.1075(2) 0.1744(3) 0.1981(4)
C14 C 0.1015(2) 0.1139(3) 0.0891(4)
C15 C 0.1307(3) 0.0015(3) 0.1214(4)
C16 C 0.1065(4) -0.0648(5) 0.0055(6)
H1 H 0.0954(20) -0.1050(30) 0.1829(35)
H2 H 0.2673(18) 0.0827(28) 0.5687(31)
H3 H 0.2763(16) -0.0679(26) 0.6775(28)
H4 H 0.2095(16) -0.2194(26) 0.5673(27)
H5 H 0.1327(13) -0.2031(21) 0.3489(24)
H6 H 0.0226(17) 0.2917(27) 0.2395(31)
H7 H 0.0017(19) 0.4713(30) 0.2138(33)
H8 H 0.1295(17) 0.5133(26) 0.0862(30)
H9 H 0.1508(15) 0.3315(23) 0.1021(26)
H10 H 0.0779(17) 0.1446(24) 0.2202(29)
H11 H 0.0526(18) 0.1146(26) 0.0246(29)
H12 H 0.1222(18) 0.1524(27) 0.0587(32)
H13 H 0.1843(20) -0.0005(28) 0.1729(32)
H14 H 0.1180(22) -0.0341(34) -0.0469(40)
H15 H 0.1271(25) -0.1317(40) 0.0280(43)
H16 H 0.0526(27) -0.0724(41) -0.0435(45)
loop_
_geom_bond_atom_site_label_1
_geom_bond_atom_site_label_2
_geom_bond_site_symmetry_1
_geom_bond_site_symmetry_2
S1 C1 1_555 1_555
N1 C6 1_555 1_555
N2 O1 1_555 1_555
O2 N2 1_555 1_555
C1 C2 1_555 1_555
C2 C3 1_555 1_555
C3 C4 1_555 1_555
C4 C5 1_555 1_555
C5 C6 1_555 1_555
C6 C1 1_555 1_555
C7 C8 1_555 1_555
C8 C9 1_555 1_555
C9 C10 1_555 1_555
C10 N2 1_555 1_555
C11 C10 1_555 1_555
C12 C7 1_555 1_555
C13 S1 1_555 1_555
C14 C13 1_555 1_555
C15 N1 1_555 1_555
C16 C15 1_555 1_555
H1 N1 1_555 1_555
H2 C2 1_555 1_555
H3 C3 1_555 1_555
H4 C4 1_555 1_555
H5 C5 1_555 1_555
H6 C8 1_555 1_555
H7 C9 1_555 1_555
H8 C11 1_555 1_555
H9 C12 1_555 1_555
H10 C13 1_555 1_555
H11 C14 1_555 1_555
H12 C14 1_555 1_555
H13 C15 1_555 1_555
H14 C16 1_555 1_555
H15 C16 1_555 1_555
H16 C16 1_555 1_555
C7 C13 1_555 1_555
C11 C12 1_555 1_555
C14 C15 1_555 1_555

#END
