
#######################################################################
#
#                 Cambridge Crystallographic Data Centre
#                                CCDC 
#
#######################################################################
#
# If this CIF has been generated from an entry in the Cambridge 
# Structural Database, then it will include bibliographic, chemical, 
# crystal, experimental, refinement or atomic coordinate data resulting 
# from the CCDC's data processing and validation procedures.
#
#######################################################################

data_DEZLEA
_chemical_formula_moiety         'C18 H24 O7'
_chemical_name_systematic        
'syn-Diethyl 2-hydroxy-3-(4-methoxyphenyl)-2-(2-oxopropyl)succinate'
_symmetry_cell_setting           orthorhombic
_symmetry_space_group_name_H-M   'P 21 21 21'
_symmetry_Int_Tables_number      19
_space_group_name_Hall           'P 2ac 2ab'
loop_
_symmetry_equiv_pos_site_id
_symmetry_equiv_pos_as_xyz
1 x,y,z
2 1/2+x,1/2-y,-z
3 -x,1/2+y,1/2-z
4 1/2-x,-y,1/2+z
_cell_length_a                   5.5529(6)
_cell_length_b                   14.4502(16)
_cell_length_c                   22.426(3)
_cell_angle_alpha                90
_cell_angle_beta                 90
_cell_angle_gamma                90
_cell_volume                     1799.47
_exptl_crystal_colour            colorless
_exptl_crystal_description       block
_chemical_melting_point          80-82deg.C
_cell_formula_units_Z            4
loop_
_atom_site_label
_atom_site_type_symbol
_atom_site_fract_x
_atom_site_fract_y
_atom_site_fract_z
O1 O -0.1468(3) 0.56184(12) 0.33146(7)
O2 O 0.1149(3) 0.52645(10) 0.25885(6)
O3 O 0.0010(3) 0.35564(10) 0.37467(6)
H1 H -0.0699 0.3343 0.3446
O4 O 0.1278(3) 0.31774(10) 0.26415(6)
O5 O 0.5143(3) 0.36131(9) 0.27935(6)
O6 O 0.3730(4) 0.19912(10) 0.36397(8)
O7 O 0.2166(3) 0.66768(9) 0.58463(6)
C1 C 0.2428(4) 0.49528(13) 0.35646(8)
H2 H 0.4002 0.5132 0.3381
C2 C 0.0451(4) 0.53199(13) 0.31572(9)
C3 C -0.0561(4) 0.55952(14) 0.21416(9)
H3 H -0.0802 0.6271 0.2181
H4 H -0.2136 0.5283 0.2190
C4 C 0.0513(6) 0.53670(18) 0.15468(10)
H5 H 0.2076 0.5676 0.1507
H6 H -0.0568 0.5580 0.1230
H7 H 0.0733 0.4696 0.1514
C5 C 0.2349(4) 0.38675(14) 0.35808(8)
C6 C 0.2849(4) 0.34974(13) 0.29499(9)
C7 C 0.5744(4) 0.33268(14) 0.21853(8)
H8 H 0.7260 0.3631 0.2060
H9 H 0.4452 0.3529 0.1910
C8 C 0.6034(4) 0.22930(15) 0.21444(10)
H10 H 0.7230 0.2087 0.2437
H11 H 0.6575 0.2126 0.1743
H12 H 0.4486 0.1993 0.2227
C9 C 0.4173(4) 0.35152(13) 0.40342(8)
H13 H 0.5727 0.3833 0.3964
H14 H 0.3614 0.3687 0.4439
C10 C 0.4594(4) 0.24827(14) 0.40177(9)
C11 C 0.6251(5) 0.21028(16) 0.44906(10)
H15 H 0.5996 0.1434 0.4529
H16 H 0.5907 0.2405 0.4872
H17 H 0.7927 0.2222 0.4377
C12 C 0.2332(4) 0.54010(13) 0.41775(8)
C13 C 0.0434(4) 0.52636(14) 0.45803(9)
H18 H -0.0874 0.4874 0.4473
C14 C 0.0451(4) 0.56895(14) 0.51318(9)
H19 H -0.0834 0.5582 0.5403
C15 C 0.2338(4) 0.62765(13) 0.52950(8)
C16 C 0.4220(4) 0.64288(14) 0.48975(9)
H20 H 0.5504 0.6833 0.5000
C17 C 0.4205(4) 0.59820(13) 0.43468(9)
H21 H 0.5510 0.6077 0.4080
C18 C 0.4137(4) 0.72480(15) 0.60301(10)
H22 H 0.5631 0.6887 0.6019
H23 H 0.3854 0.7469 0.6437
H24 H 0.4276 0.7779 0.5760
loop_
_geom_bond_atom_site_label_1
_geom_bond_atom_site_label_2
_geom_bond_site_symmetry_1
_geom_bond_site_symmetry_2
O1 C2 1_555 1_555
O2 C2 1_555 1_555
O3 H1 1_555 1_555
O4 C6 1_555 1_555
O5 C6 1_555 1_555
O6 C10 1_555 1_555
O7 C15 1_555 1_555
C1 H2 1_555 1_555
C2 C1 1_555 1_555
C3 O2 1_555 1_555
H3 C3 1_555 1_555
H4 C3 1_555 1_555
C4 C3 1_555 1_555
H5 C4 1_555 1_555
H6 C4 1_555 1_555
H7 C4 1_555 1_555
C5 O3 1_555 1_555
C6 C5 1_555 1_555
C7 O5 1_555 1_555
H8 C7 1_555 1_555
H9 C7 1_555 1_555
C8 C7 1_555 1_555
H10 C8 1_555 1_555
H11 C8 1_555 1_555
H12 C8 1_555 1_555
C9 C5 1_555 1_555
H13 C9 1_555 1_555
H14 C9 1_555 1_555
C10 C9 1_555 1_555
C11 C10 1_555 1_555
H15 C11 1_555 1_555
H16 C11 1_555 1_555
H17 C11 1_555 1_555
C12 C1 1_555 1_555
C13 C12 1_555 1_555
H18 C13 1_555 1_555
C14 C13 1_555 1_555
H19 C14 1_555 1_555
C15 C14 1_555 1_555
C16 C15 1_555 1_555
H20 C16 1_555 1_555
C17 C12 1_555 1_555
H21 C17 1_555 1_555
C18 O7 1_555 1_555
H22 C18 1_555 1_555
H23 C18 1_555 1_555
H24 C18 1_555 1_555
C1 C5 1_555 1_555
C16 C17 1_555 1_555

#END
