
#######################################################################
#
#                 Cambridge Crystallographic Data Centre
#                                CCDC 
#
#######################################################################
#
# If this CIF has been generated from an entry in the Cambridge 
# Structural Database, then it will include bibliographic, chemical, 
# crystal, experimental, refinement or atomic coordinate data resulting 
# from the CCDC's data processing and validation procedures.
#
#######################################################################

data_DEZPOQ
_chemical_formula_moiety         'C14 H16 N2 O2 S1'
_chemical_name_systematic        
4-methyl-N'-(4-methylphenyl)benzene-1-sulfonohydrazide
_symmetry_cell_setting           monoclinic
_symmetry_space_group_name_H-M   'P 21'
_symmetry_Int_Tables_number      4
_space_group_name_Hall           'P 2yb'
loop_
_symmetry_equiv_pos_site_id
_symmetry_equiv_pos_as_xyz
1 x,y,z
2 -x,1/2+y,-z
_cell_length_a                   9.955(3)
_cell_length_b                   5.5629(19)
_cell_length_c                   12.732(4)
_cell_angle_alpha                90
_cell_angle_beta                 92.902(9)
_cell_angle_gamma                90
_cell_volume                     704.177
_exptl_crystal_colour            colorless
_exptl_crystal_description       Block
_cell_formula_units_Z            2
loop_
_atom_site_label
_atom_site_type_symbol
_atom_site_fract_x
_atom_site_fract_y
_atom_site_fract_z
C1 C 0.8566(13) 0.624(3) 0.4241(8)
H1 H 0.8666 0.7958 0.4222
H2 H 0.8216 0.5681 0.3569
H3 H 0.9426 0.5513 0.4403
C2 C 0.7584(6) 0.5556(10) 0.5097(4)
C3 C 0.6832(7) 0.3453(9) 0.5022(4)
H4 H 0.6945 0.2393 0.4468
C4 C 0.5910(6) 0.2932(9) 0.5774(4)
H5 H 0.5407 0.1525 0.5724
C5 C 0.5742(5) 0.4515(11) 0.6602(4)
C6 C 0.6494(5) 0.6618(10) 0.6677(3)
H6 H 0.6382 0.7677 0.7231
C7 C 0.7416(5) 0.7138(9) 0.5925(4)
H7 H 0.7919 0.8545 0.5975
C8 C 0.2266(5) 0.5191(10) 0.8581(4)
C9 C 0.1229(6) 0.5974(10) 0.7893(4)
H8 H 0.1344 0.7339 0.7484
C10 C 0.0021(5) 0.4719(13) 0.7814(5)
H9 H -0.0673 0.5243 0.7353
C11 C -0.0150(5) 0.2680(12) 0.8424(5)
C12 C 0.0887(6) 0.1896(10) 0.9112(4)
H10 H 0.0772 0.0532 0.9521
C13 C 0.2095(5) 0.3152(11) 0.9191(4)
H11 H 0.2788 0.2628 0.9651
C14 C -0.1475(12) 0.133(3) 0.8355(10)
H12 H -0.2031 0.1876 0.8902
H13 H -0.1308 -0.0359 0.8437
H14 H -0.1925 0.1624 0.7682
N1 N 0.4786(7) 0.3981(17) 0.7359(5)
H15 H 0.4111 0.3062 0.7203
N2 N 0.4967(8) 0.4969(15) 0.8353(5)
H16 H 0.5657 0.4644 0.8761
O1 O 0.4095(8) 0.7264(18) 0.9797(5)
O2 O 0.3732(7) 0.8726(13) 0.7969(6)
S1 S 0.3791(2) 0.6782(5) 0.86984(14)
loop_
_geom_bond_atom_site_label_1
_geom_bond_atom_site_label_2
_geom_bond_site_symmetry_1
_geom_bond_site_symmetry_2
C1 H1 1_555 1_555
H2 C1 1_555 1_555
H3 C1 1_555 1_555
C2 C1 1_555 1_555
C3 C2 1_555 1_555
H4 C3 1_555 1_555
C4 C3 1_555 1_555
H5 C4 1_555 1_555
C5 C4 1_555 1_555
C6 C5 1_555 1_555
H6 C6 1_555 1_555
C7 C2 1_555 1_555
H7 C7 1_555 1_555
C8 C9 1_555 1_555
C9 H8 1_555 1_555
C10 C9 1_555 1_555
H9 C10 1_555 1_555
C11 C10 1_555 1_555
C12 C11 1_555 1_555
H10 C12 1_555 1_555
C13 C8 1_555 1_555
H11 C13 1_555 1_555
C14 C11 1_555 1_555
H12 C14 1_555 1_555
H13 C14 1_555 1_555
H14 C14 1_555 1_555
N1 C5 1_555 1_555
H15 N1 1_555 1_555
N2 N1 1_555 1_555
H16 N2 1_555 1_555
O1 S1 1_555 1_555
O2 S1 1_555 1_555
S1 C8 1_555 1_555
C6 C7 1_555 1_555
C12 C13 1_555 1_555
N2 S1 1_555 1_555

#END
