
#######################################################################
#
#                 Cambridge Crystallographic Data Centre
#                                CCDC 
#
#######################################################################
#
# If this CIF has been generated from an entry in the Cambridge 
# Structural Database, then it will include bibliographic, chemical, 
# crystal, experimental, refinement or atomic coordinate data resulting 
# from the CCDC's data processing and validation procedures.
#
#######################################################################

data_DEZQOQ
_chemical_formula_moiety         'C16 H14 N2 O1'
_chemical_name_systematic        1-(4-Methylphenyl)-3-phenyl-1H-pyrazol-5-ol
_symmetry_cell_setting           orthorhombic
_symmetry_space_group_name_H-M   'P n a 21'
_symmetry_Int_Tables_number      33
_space_group_name_Hall           'P 2c -2n'
loop_
_symmetry_equiv_pos_site_id
_symmetry_equiv_pos_as_xyz
1 x,y,z
2 -x,-y,1/2+z
3 1/2+x,1/2-y,z
4 1/2-x,1/2+y,1/2+z
_cell_length_a                   11.0859(4)
_cell_length_b                   18.2787(8)
_cell_length_c                   6.2086(2)
_cell_angle_alpha                90
_cell_angle_beta                 90
_cell_angle_gamma                90
_cell_volume                     1258.08
_exptl_crystal_colour            colorless
_cell_formula_units_Z            4
loop_
_atom_site_label
_atom_site_type_symbol
_atom_site_fract_x
_atom_site_fract_y
_atom_site_fract_z
C1 C 0.93412(18) 0.30090(11) 0.2927(4)
N1 N 0.92761(15) 0.22622(10) 0.0245(3)
N2 N 1.00521(15) 0.26610(10) 0.1519(3)
C2 C 0.98413(17) 0.34944(11) 0.4584(4)
C3 C 0.91806(19) 0.36164(12) 0.6480(4)
H1 H 0.8428 0.3376 0.6675
O1 O 0.72356(12) 0.20096(9) -0.0146(3)
H2 H 0.6563 0.2151 0.0315
C4 C 0.92005(19) 0.16550(12) -0.3284(4)
H3 H 0.8485 0.1914 -0.3642
C5 C 0.97455(19) 0.17552(12) -0.1292(4)
C6 C 1.1338(2) 0.02738(14) -0.5857(4)
H4 H 1.2086 0.0493 -0.6399
H5 H 1.0784 0.0188 -0.7061
H6 H 1.1522 -0.0192 -0.5149
C7 C 1.07609(18) 0.07830(12) -0.4269(4)
C8 C 1.09557(18) 0.38529(12) 0.4362(4)
H7 H 1.1421 0.3781 0.3095
C9 C 1.07857(18) 0.13647(12) -0.0759(4)
H8 H 1.1156 0.1430 0.0607
C10 C 1.12681(19) 0.08860(12) -0.2229(4)
H9 H 1.1969 0.0616 -0.1848
C11 C 0.9605(2) 0.40793(12) 0.8066(4)
H10 H 0.9142 0.4159 0.9331
C12 C 1.1382(2) 0.43089(13) 0.5967(4)
H11 H 1.2143 0.4541 0.5799
C13 C 0.81110(18) 0.23640(12) 0.0884(4)
C14 C 1.0715(2) 0.44304(12) 0.7813(4)
H12 H 1.1009 0.4750 0.8899
C15 C 0.97131(19) 0.11721(12) -0.4744(4)
H13 H 0.9339 0.1105 -0.6106
C16 C 0.81217(19) 0.28359(12) 0.2596(4)
H14 H 0.738(2) 0.2975(13) 0.327(4)
loop_
_geom_bond_atom_site_label_1
_geom_bond_atom_site_label_2
_geom_bond_site_symmetry_1
_geom_bond_site_symmetry_2
C1 N2 1_555 1_555
N1 N2 1_555 1_555
C2 C1 1_555 1_555
C3 C2 1_555 1_555
H1 C3 1_555 1_555
O1 H2 1_555 1_555
C4 H3 1_555 1_555
C5 N1 1_555 1_555
C6 H4 1_555 1_555
H5 C6 1_555 1_555
H6 C6 1_555 1_555
C7 C6 1_555 1_555
C8 C2 1_555 1_555
H7 C8 1_555 1_555
C9 C5 1_555 1_555
H8 C9 1_555 1_555
C10 C7 1_555 1_555
H9 C10 1_555 1_555
C11 C3 1_555 1_555
H10 C11 1_555 1_555
C12 C8 1_555 1_555
H11 C12 1_555 1_555
C13 N1 1_555 1_555
C14 C11 1_555 1_555
H12 C14 1_555 1_555
C15 C4 1_555 1_555
H13 C15 1_555 1_555
C16 C1 1_555 1_555
H14 C16 1_555 1_555
O1 C13 1_555 1_555
C4 C5 1_555 1_555
C7 C15 1_555 1_555
C9 C10 1_555 1_555
C12 C14 1_555 1_555
C13 C16 1_555 1_555

#END
