
#######################################################################
#
#                 Cambridge Crystallographic Data Centre
#                                CCDC 
#
#######################################################################
#
# If this CIF has been generated from an entry in the Cambridge 
# Structural Database, then it will include bibliographic, chemical, 
# crystal, experimental, refinement or atomic coordinate data resulting 
# from the CCDC's data processing and validation procedures.
#
#######################################################################

data_DEZQUW
_chemical_formula_moiety         'C16 H14 N2 O1'
_chemical_name_systematic        
2-(4-Methylphenyl)-5-phenyl-2,4-dihydro-3H-pyrazol-3-one
_symmetry_cell_setting           triclinic
_symmetry_space_group_name_H-M   'P -1'
_symmetry_Int_Tables_number      2
_space_group_name_Hall           '-P 1'
loop_
_symmetry_equiv_pos_site_id
_symmetry_equiv_pos_as_xyz
1 x,y,z
2 -x,-y,-z
_cell_length_a                   11.3791(2)
_cell_length_b                   14.6025(3)
_cell_length_c                   24.6370(5)
_cell_angle_alpha                79.2860(10)
_cell_angle_beta                 82.4180(10)
_cell_angle_gamma                69.1860(10)
_cell_volume                     3750.21
_exptl_crystal_colour            yellow
_exptl_crystal_description       block
_cell_formula_units_Z            12
loop_
_atom_site_label
_atom_site_type_symbol
_atom_site_fract_x
_atom_site_fract_y
_atom_site_fract_z
O1 O 0.55445(13) 0.18752(11) 0.25024(6)
N1 N 0.55706(14) 0.34222(11) 0.12361(6)
N2 N 0.60058(14) 0.25241(11) 0.15956(6)
C1 C 0.35236(18) 0.62641(15) 0.04200(8)
H1 H 0.3704 0.6462 0.0038
C2 C 0.42154(18) 0.53395(15) 0.06781(8)
H2 H 0.4872 0.4906 0.0471
C3 C 0.39617(17) 0.50329(14) 0.12404(8)
C4 C 0.53567(17) 0.25528(15) 0.21102(8)
C5 C 0.87664(18) 0.11802(15) 0.07295(8)
H3 H 0.9252 0.1326 0.0402
C6 C 0.30047(17) 0.56878(15) 0.15383(8)
H4 H 0.2828 0.5493 0.1921
C7 C 0.44079(19) 0.35812(15) 0.20836(8)
C8 C 0.77506(17) 0.19408(15) 0.09172(8)
H5 H 0.7545 0.2595 0.0720
C9 C 0.25628(18) 0.69059(15) 0.07194(9)
H6 H 0.2080 0.7539 0.0540
C10 C 0.46561(17) 0.40298(14) 0.15033(8)
C11 C 0.23070(18) 0.66221(15) 0.12805(9)
H7 H 0.1659 0.7064 0.1487
C12 C 0.73317(18) 0.07692(15) 0.16775(8)
H8 H 0.6838 0.0620 0.2001
C13 C 0.70319(17) 0.17375(14) 0.13979(8)
C14 C 0.83582(19) 0.00242(15) 0.14782(8)
H9 H 0.8560 -0.0632 0.1672
C15 C 0.90994(18) 0.02105(15) 0.10031(8)
C16 C 1.02149(18) -0.06118(16) 0.07994(9)
H10 H 0.9918 -0.1082 0.0670
H11 H 1.0764 -0.0956 0.1102
H12 H 1.0687 -0.0331 0.0493
H13 H 0.357(2) 0.3555(17) 0.2156(10)
H14 H 0.455(2) 0.3905(18) 0.2359(10)
O2 O 0.07165(12) 0.67593(10) 0.25165(6)
N3 N -0.01726(14) 0.64367(11) 0.34046(6)
N4 N -0.11577(14) 0.69467(12) 0.37652(7)
C17 C -0.44103(18) 0.89583(15) 0.44949(8)
H15 H -0.4795 0.8772 0.4844
C18 C 0.05937(18) 0.51064(15) 0.41655(8)
H16 H 0.0088 0.5527 0.4421
C19 C -0.00631(17) 0.70108(14) 0.29003(8)
C20 C 0.13484(18) 0.41486(15) 0.43540(8)
H17 H 0.1358 0.3924 0.4741
C21 C -0.10892(18) 0.79928(15) 0.29354(8)
C22 C -0.33623(18) 0.82763(15) 0.42683(8)
H18 H -0.3036 0.7621 0.4460
C23 C 0.20533(18) 0.38587(15) 0.34287(8)
H19 H 0.2545 0.3432 0.3173
C24 C 0.13144(17) 0.48183(14) 0.32271(8)
H20 H 0.1308 0.5043 0.2840
C25 C 0.20945(17) 0.35053(14) 0.39923(8)
C26 C 0.05827(17) 0.54476(14) 0.35982(8)
C27 C -0.27800(17) 0.85507(14) 0.37561(8)
C28 C -0.49039(18) 0.99164(15) 0.42142(8)
H21 H -0.5634 1.0379 0.4368
C29 C -0.32741(18) 0.95209(14) 0.34830(8)
H22 H -0.2881 0.9718 0.3139
C30 C -0.16930(17) 0.78279(14) 0.35049(8)
C31 C -0.43323(18) 1.01970(15) 0.37105(8)
H23 H -0.4666 1.0853 0.3521
C32 C 0.29099(19) 0.24646(15) 0.41997(9)
H24 H 0.3057 0.2049 0.3911
H25 H 0.2485 0.2198 0.4530
H26 H 0.3718 0.2470 0.4293
H27 H -0.074(2) 0.8506(18) 0.2891(10)
H28 H -0.167(2) 0.8142(17) 0.2642(10)
O3 O 0.13419(13) 0.37732(11) 0.20998(6)
N5 N 0.09255(14) 0.51122(12) 0.07659(7)
N6 N 0.14861(14) 0.42677(12) 0.11466(6)
C33 C -0.06832(17) 0.67207(15) 0.07575(8)
C34 C 0.29499(18) 0.25630(15) 0.12747(8)
H29 H 0.2577 0.2449 0.1638
C35 C 0.10048(18) 0.43761(15) 0.16827(8)
C36 C -0.15603(19) 0.74201(15) 0.10574(9)
H30 H -0.1649 0.7277 0.1450
C37 C 0.00930(17) 0.57608(15) 0.10383(8)
C38 C 0.30335(18) 0.36263(15) 0.04091(8)
H31 H 0.2726 0.4250 0.0181
C39 C 0.40238(18) 0.28612(15) 0.02113(8)
H32 H 0.4377 0.2967 -0.0156
C40 C 0.24903(17) 0.34740(14) 0.09459(8)
C41 C 0.39630(19) 0.18164(15) 0.10685(9)
H33 H 0.4289 0.1199 0.1300
C42 C -0.13117(19) 0.78485(16) -0.00837(9)
H34 H -0.1226 0.7995 -0.0476
C43 C -0.23043(19) 0.83231(16) 0.07880(9)
H35 H -0.2900 0.8793 0.0996
C44 C 0.45158(18) 0.19438(15) 0.05339(8)
C45 C -0.05741(19) 0.69506(16) 0.01835(9)
H36 H 0.0017 0.6482 -0.0027
C46 C 0.00144(19) 0.53964(16) 0.16471(8)
C47 C -0.21816(19) 0.85403(16) 0.02195(9)
H37 H -0.2689 0.9160 0.0035
C48 C 0.5590(2) 0.11158(16) 0.03133(9)
H38 H 0.5253 0.0692 0.0162
H39 H 0.6123 0.0721 0.0614
H40 H 0.6092 0.1395 0.0021
H41 H -0.081(2) 0.5322(17) 0.1773(10)
H42 H 0.020(2) 0.5792(18) 0.1873(10)
O4 O 0.95890(13) 0.00458(11) 0.29183(6)
N7 N 1.00975(14) 0.17337(12) 0.17884(7)
N8 N 1.04043(14) 0.07965(12) 0.21126(7)
C49 C 0.82101(18) 0.46009(15) 0.09528(8)
H43 H 0.8464 0.4809 0.0581
C50 C 0.88449(17) 0.36632(14) 0.12161(8)
H44 H 0.9541 0.3232 0.1025
C51 C 1.32677(18) -0.05142(15) 0.12815(8)
H45 H 1.3771 -0.0358 0.0963
C52 C 0.74602(17) 0.39890(15) 0.20395(8)
H46 H 0.7201 0.3782 0.2410
C53 C 0.84743(17) 0.33410(14) 0.17618(8)
C54 C 1.22143(18) 0.02355(15) 0.14634(8)
H47 H 1.2006 0.0892 0.1269
C55 C 0.71955(18) 0.52418(15) 0.12324(9)
H48 H 0.6757 0.5886 0.1051
C56 C 0.95707(18) 0.07634(15) 0.25702(8)
C57 C 0.90955(17) 0.23192(14) 0.20210(8)
C58 C 0.68271(18) 0.49384(15) 0.17742(9)
H49 H 0.6142 0.5378 0.1966
C59 C 1.36017(18) -0.14870(15) 0.15541(8)
C60 C 0.86375(19) 0.18069(15) 0.25444(8)
C61 C 1.14673(17) 0.00220(14) 0.19299(8)
C62 C 1.28307(19) -0.16808(16) 0.20135(9)
H50 H 1.3028 -0.2340 0.2204
C63 C 1.47465(19) -0.22963(15) 0.13641(9)
H51 H 1.5162 -0.2025 0.1032
H52 H 1.4491 -0.2824 0.1278
H53 H 1.5333 -0.2566 0.1658
C64 C 1.17815(19) -0.09468(15) 0.22049(9)
H54 H 1.1279 -0.1105 0.2523
H55 H 0.864(2) 0.2102(17) 0.2887(10)
H56 H 0.774(2) 0.1820(17) 0.2530(9)
O5 O 0.65066(13) 0.85876(10) 0.21220(6)
N9 N 0.42441(14) 0.86442(12) 0.32366(7)
N10 N 0.53236(14) 0.81623(12) 0.29083(6)
C65 C 0.58421(17) 0.67559(15) 0.36504(8)
H57 H 0.5212 0.7140 0.3890
C66 C 0.65577(18) 0.57890(14) 0.38436(8)
H58 H 0.6406 0.5517 0.4217
C67 C 0.10422(18) 1.07008(15) 0.39709(9)
H59 H 0.0649 1.0519 0.4319
C68 C 0.74911(17) 0.52063(14) 0.35064(8)
C69 C 0.21098(18) 1.00218(15) 0.37573(8)
H60 H 0.2450 0.9376 0.3959
C70 C 0.76753(18) 0.56282(15) 0.29611(8)
H61 H 0.8304 0.5243 0.2722
C71 C 0.60477(17) 0.71646(14) 0.31042(8)
C72 C 0.26936(17) 1.02814(14) 0.32443(8)
C73 C 0.56027(18) 0.87979(15) 0.24624(8)
C74 C 0.05383(19) 1.16497(15) 0.36800(9)
H62 H -0.0203 1.2112 0.3826
C75 C 0.11219(19) 1.19184(15) 0.31760(9)
H63 H 0.0787 1.2568 0.2979
C76 C 0.21893(18) 1.12424(15) 0.29606(8)
H64 H 0.2586 1.1432 0.2616
C77 C 0.82770(19) 0.41579(15) 0.37116(9)
H65 H 0.8421 0.3750 0.3419
H66 H 0.7834 0.3895 0.4037
H67 H 0.9088 0.4145 0.3813
C78 C 0.38135(17) 0.95582(15) 0.30071(8)
C79 C 0.69690(18) 0.65936(15) 0.27562(8)
H68 H 0.7113 0.6862 0.2382
C80 C 0.45719(19) 0.97770(15) 0.24911(9)
H69 H 0.410(2) 0.9955(17) 0.2171(10)
H70 H 0.487(2) 1.0305(18) 0.2510(10)
O6 O 0.48597(13) 0.50148(11) 0.28600(6)
N11 N 0.34846(14) 0.54265(12) 0.41877(7)
N12 N 0.43268(15) 0.48540(12) 0.38086(7)
C81 C 0.51439(17) 0.38945(14) 0.40149(8)
C82 C 0.65162(18) 0.22551(15) 0.38809(9)
H71 H 0.6904 0.1774 0.3641
C83 C 0.03184(19) 0.74483(15) 0.49578(8)
H72 H 0.0023 0.7289 0.5330
C84 C 0.57111(18) 0.31837(15) 0.36673(9)
H73 H 0.5549 0.3332 0.3287
C85 C 0.11945(18) 0.79233(15) 0.38773(8)
H74 H 0.1499 0.8091 0.3508
C86 C 0.13533(18) 0.67709(15) 0.47208(8)
H75 H 0.1760 0.6145 0.4930
C87 C 0.18039(17) 0.70003(14) 0.41762(8)
C88 C 0.53785(18) 0.36663(15) 0.45739(8)
H76 H 0.4993 0.4148 0.4814
C89 C 0.42433(17) 0.53377(15) 0.32712(8)
C90 C 0.28463(17) 0.62626(15) 0.39120(8)
C91 C 0.32378(19) 0.63344(16) 0.33030(8)
C92 C 0.67682(18) 0.20124(15) 0.44361(9)
C93 C 0.01476(18) 0.86009(15) 0.41129(9)
H77 H -0.0264 0.9226 0.3904
C94 C 0.61786(18) 0.27309(15) 0.47784(9)
H78 H 0.6327 0.2577 0.5161
C95 C -0.02938(19) 0.83652(15) 0.46512(9)
H79 H -0.1013 0.8826 0.4812
C96 C 0.76314(19) 0.09983(16) 0.46627(10)
H80 H 0.7136 0.0634 0.4904
H81 H 0.8257 0.1066 0.4876
H82 H 0.8063 0.0635 0.4356
H83 H 0.358(2) 0.6843(18) 0.3183(10)
H84 H 0.251(2) 0.6433(17) 0.3083(10)
loop_
_geom_bond_atom_site_label_1
_geom_bond_atom_site_label_2
_geom_bond_site_symmetry_1
_geom_bond_site_symmetry_2
O1 C4 1_555 1_555
N1 N2 1_555 1_555
N2 C4 1_555 1_555
C1 H1 1_555 1_555
C2 C1 1_555 1_555
H2 C2 1_555 1_555
C3 C2 1_555 1_555
C4 C7 1_555 1_555
C5 H3 1_555 1_555
C6 C3 1_555 1_555
H4 C6 1_555 1_555
C7 C10 1_555 1_555
C8 C5 1_555 1_555
H5 C8 1_555 1_555
C9 C1 1_555 1_555
H6 C9 1_555 1_555
C10 N1 1_555 1_555
C11 C6 1_555 1_555
H7 C11 1_555 1_555
C12 H8 1_555 1_555
C13 N2 1_555 1_555
C14 C12 1_555 1_555
H9 C14 1_555 1_555
C15 C5 1_555 1_555
C16 C15 1_555 1_555
H10 C16 1_555 1_555
H11 C16 1_555 1_555
H12 C16 1_555 1_555
H13 C7 1_555 1_555
H14 C7 1_555 1_555
O2 C19 1_555 1_555
N3 N4 1_555 1_555
N4 C30 1_555 1_555
C17 H15 1_555 1_555
C18 H16 1_555 1_555
C19 N3 1_555 1_555
C20 C18 1_555 1_555
H17 C20 1_555 1_555
C21 C19 1_555 1_555
C22 C17 1_555 1_555
H18 C22 1_555 1_555
C23 H19 1_555 1_555
C24 C23 1_555 1_555
H20 C24 1_555 1_555
C25 C20 1_555 1_555
C26 N3 1_555 1_555
C27 C22 1_555 1_555
C28 C17 1_555 1_555
H21 C28 1_555 1_555
C29 C27 1_555 1_555
H22 C29 1_555 1_555
C30 C21 1_555 1_555
C31 C28 1_555 1_555
H23 C31 1_555 1_555
C32 C25 1_555 1_555
H24 C32 1_555 1_555
H25 C32 1_555 1_555
H26 C32 1_555 1_555
H27 C21 1_555 1_555
H28 C21 1_555 1_555
O3 C35 1_555 1_555
N5 N6 1_555 1_555
N6 C35 1_555 1_555
C33 C36 1_555 1_555
C34 H29 1_555 1_555
C35 C46 1_555 1_555
C36 H30 1_555 1_555
C37 N5 1_555 1_555
C38 H31 1_555 1_555
C39 C38 1_555 1_555
H32 C39 1_555 1_555
C40 N6 1_555 1_555
C41 C34 1_555 1_555
H33 C41 1_555 1_555
C42 H34 1_555 1_555
C43 C36 1_555 1_555
H35 C43 1_555 1_555
C44 C39 1_555 1_555
C45 C33 1_555 1_555
H36 C45 1_555 1_555
C46 C37 1_555 1_555
C47 C42 1_555 1_555
H37 C47 1_555 1_555
C48 C44 1_555 1_555
H38 C48 1_555 1_555
H39 C48 1_555 1_555
H40 C48 1_555 1_555
H41 C46 1_555 1_555
H42 C46 1_555 1_555
O4 C56 1_555 1_555
N7 N8 1_555 1_555
N8 C56 1_555 1_555
C49 H43 1_555 1_555
C50 C49 1_555 1_555
H44 C50 1_555 1_555
C51 H45 1_555 1_555
C52 H46 1_555 1_555
C53 C50 1_555 1_555
C54 C51 1_555 1_555
H47 C54 1_555 1_555
C55 C49 1_555 1_555
H48 C55 1_555 1_555
C56 C60 1_555 1_555
C57 N7 1_555 1_555
C58 C52 1_555 1_555
H49 C58 1_555 1_555
C59 C51 1_555 1_555
C60 C57 1_555 1_555
C61 N8 1_555 1_555
C62 C59 1_555 1_555
H50 C62 1_555 1_555
C63 C59 1_555 1_555
H51 C63 1_555 1_555
H52 C63 1_555 1_555
H53 C63 1_555 1_555
C64 C61 1_555 1_555
H54 C64 1_555 1_555
H55 C60 1_555 1_555
H56 C60 1_555 1_555
O5 C73 1_555 1_555
N9 N10 1_555 1_555
N10 C71 1_555 1_555
C65 H57 1_555 1_555
C66 C65 1_555 1_555
H58 C66 1_555 1_555
C67 H59 1_555 1_555
C68 C66 1_555 1_555
C69 C67 1_555 1_555
H60 C69 1_555 1_555
C70 C68 1_555 1_555
H61 C70 1_555 1_555
C71 C65 1_555 1_555
C72 C69 1_555 1_555
C73 N10 1_555 1_555
C74 C67 1_555 1_555
H62 C74 1_555 1_555
C75 C74 1_555 1_555
H63 C75 1_555 1_555
C76 C72 1_555 1_555
H64 C76 1_555 1_555
C77 C68 1_555 1_555
H65 C77 1_555 1_555
H66 C77 1_555 1_555
H67 C77 1_555 1_555
C78 N9 1_555 1_555
C79 C70 1_555 1_555
H68 C79 1_555 1_555
C80 C73 1_555 1_555
H69 C80 1_555 1_555
H70 C80 1_555 1_555
O6 C89 1_555 1_555
N11 N12 1_555 1_555
N12 C81 1_555 1_555
C81 C84 1_555 1_555
C82 H71 1_555 1_555
C83 H72 1_555 1_555
C84 C82 1_555 1_555
H73 C84 1_555 1_555
C85 H74 1_555 1_555
C86 C83 1_555 1_555
H75 C86 1_555 1_555
C87 C85 1_555 1_555
C88 C81 1_555 1_555
H76 C88 1_555 1_555
C89 N12 1_555 1_555
C90 N11 1_555 1_555
C91 C89 1_555 1_555
C92 C82 1_555 1_555
C93 C85 1_555 1_555
H77 C93 1_555 1_555
C94 C88 1_555 1_555
H78 C94 1_555 1_555
C95 C83 1_555 1_555
H79 C95 1_555 1_555
C96 C92 1_555 1_555
H80 C96 1_555 1_555
H81 C96 1_555 1_555
H82 C96 1_555 1_555
H83 C91 1_555 1_555
H84 C91 1_555 1_555
C3 C10 1_555 1_555
C8 C13 1_555 1_555
C9 C11 1_555 1_555
C12 C13 1_555 1_555
C14 C15 1_555 1_555
C18 C26 1_555 1_555
C23 C25 1_555 1_555
C24 C26 1_555 1_555
C27 C30 1_555 1_555
C29 C31 1_555 1_555
C33 C37 1_555 1_555
C34 C40 1_555 1_555
C38 C40 1_555 1_555
C41 C44 1_555 1_555
C42 C45 1_555 1_555
C43 C47 1_555 1_555
C52 C53 1_555 1_555
C53 C57 1_555 1_555
C54 C61 1_555 1_555
C55 C58 1_555 1_555
C62 C64 1_555 1_555
C71 C79 1_555 1_555
C72 C78 1_555 1_555
C75 C76 1_555 1_555
C78 C80 1_555 1_555
C86 C87 1_555 1_555
C87 C90 1_555 1_555
C90 C91 1_555 1_555
C92 C94 1_555 1_555
C93 C95 1_555 1_555

#END
