
#######################################################################
#
#                 Cambridge Crystallographic Data Centre
#                                CCDC 
#
#######################################################################
#
# If this CIF has been generated from an entry in the Cambridge 
# Structural Database, then it will include bibliographic, chemical, 
# crystal, experimental, refinement or atomic coordinate data resulting 
# from the CCDC's data processing and validation procedures.
#
#######################################################################

data_DEZRAD
_chemical_name_common            
3-Phenyl-1-(3-nitrophenyl)-4,5-dihydro-1H-pyrazol-5-one
_chemical_formula_moiety         'C15 H11 N3 O3'
_chemical_name_systematic        
2-(3-Nitrophenyl)-5-phenyl-2,4-dihydro-3H-pyrazol-3-one
_symmetry_cell_setting           monoclinic
_symmetry_space_group_name_H-M   'P n'
_symmetry_Int_Tables_number      7
_space_group_name_Hall           'P -2yac'
loop_
_symmetry_equiv_pos_site_id
_symmetry_equiv_pos_as_xyz
1 x,y,z
2 1/2+x,-y,1/2+z
_cell_length_a                   4.9858(2)
_cell_length_b                   5.3804(4)
_cell_length_c                   23.2857(17)
_cell_angle_alpha                90
_cell_angle_beta                 94.000(4)
_cell_angle_gamma                90
_cell_volume                     623.131
_exptl_crystal_colour            yellow
_exptl_crystal_description       rod
_cell_formula_units_Z            2
loop_
_atom_site_label
_atom_site_type_symbol
_atom_site_fract_x
_atom_site_fract_y
_atom_site_fract_z
O1 O 0.9593(4) 0.4317(4) 0.49027(8)
C1 C 0.7515(5) 0.3747(5) 0.57555(11)
C2 C 0.5901(5) 0.5781(5) 0.56368(12)
H1 H 0.6056 0.6743 0.5299
O2 O 0.8553(4) -0.1585(4) 0.71177(9)
C3 C 0.5529(5) 0.2942(5) 0.66400(11)
N1 N 0.3406(4) 0.2316(4) 0.75232(9)
C4 C 0.1559(4) 0.0995(5) 0.83987(11)
C5 C 0.3376(4) 0.0706(5) 0.79320(12)
N2 N 0.9450(4) 0.3034(5) 0.53348(10)
C6 C 0.7427(5) 0.2289(5) 0.62464(11)
H2 H 0.8598 0.0910 0.6313
C7 C -0.1989(5) 0.1469(5) 0.92698(11)
H3 H -0.3205 0.1624 0.9564
C8 C 0.3817(5) 0.4959(5) 0.65260(12)
H4 H 0.2503 0.5360 0.6787
O3 O 1.0860(4) 0.1172(4) 0.54354(9)
C9 C 0.4015(5) 0.6380(6) 0.60353(13)
H5 H 0.2866 0.7773 0.5968
N3 N 0.5326(4) 0.1541(4) 0.71483(10)
C10 C 0.1544(5) -0.0759(5) 0.88393(12)
H6 H 0.2761 -0.2119 0.8845
C11 C -0.0246(5) -0.0531(5) 0.92716(12)
H7 H -0.0267 -0.1749 0.9567
C12 C -0.1965(5) 0.3259(5) 0.88368(12)
H8 H -0.3152 0.4639 0.8840
C13 C -0.0214(5) 0.3030(5) 0.84022(11)
H9 H -0.0212 0.4247 0.8107
C14 C 0.5330(5) -0.1379(5) 0.78714(12)
H10 H 0.4395 -0.2993 0.7815
H11 H 0.6637 -0.1490 0.8210
C15 C 0.6683(5) -0.0595(5) 0.73361(12)
loop_
_geom_bond_atom_site_label_1
_geom_bond_atom_site_label_2
_geom_bond_site_symmetry_1
_geom_bond_site_symmetry_2
O1 N2 1_555 1_555
C1 C2 1_555 1_555
C2 H1 1_555 1_555
O2 C15 1_555 1_555
C3 C6 1_555 1_555
N1 C5 1_555 1_555
C4 C5 1_555 1_555
C5 C14 1_555 1_555
N2 C1 1_555 1_555
C6 C1 1_555 1_555
H2 C6 1_555 1_555
C7 H3 1_555 1_555
C8 C3 1_555 1_555
H4 C8 1_555 1_555
O3 N2 1_555 1_555
C9 C2 1_555 1_555
H5 C9 1_555 1_555
N3 C3 1_555 1_555
C10 C4 1_555 1_555
H6 C10 1_555 1_555
C11 C7 1_555 1_555
H7 C11 1_555 1_555
C12 C7 1_555 1_555
H8 C12 1_555 1_555
C13 C4 1_555 1_555
H9 C13 1_555 1_555
C14 H10 1_555 1_555
H11 C14 1_555 1_555
C15 N3 1_555 1_555
N1 N3 1_555 1_555
C8 C9 1_555 1_555
C10 C11 1_555 1_555
C12 C13 1_555 1_555
C14 C15 1_555 1_555

#END
