
#######################################################################
#
#                 Cambridge Crystallographic Data Centre
#                                CCDC 
#
#######################################################################
#
# If this CIF has been generated from an entry in the Cambridge 
# Structural Database, then it will include bibliographic, chemical, 
# crystal, experimental, refinement or atomic coordinate data resulting 
# from the CCDC's data processing and validation procedures.
#
#######################################################################

data_DEZSIK
_chemical_compound_source        'Ipomoea hardwickii Hemsl'
_chemical_name_common            
'(S)-1,2,3,5,8,9-Hexahydro-6-p-hydroxyphenyl-7-methyl-indolizine hydrobromide monohydrate'
_chemical_formula_moiety         'C15 H20 N1 O1 1+,Br1 1-,H2 O1'
_chemical_name_systematic        '(+)-Ipalbidine hydrobromide monohydrate'
_symmetry_cell_setting           orthorhombic
_symmetry_space_group_name_H-M   'P 21 21 21'
_symmetry_Int_Tables_number      19
_space_group_name_Hall           'P 2ac 2ab'
loop_
_symmetry_equiv_pos_site_id
_symmetry_equiv_pos_as_xyz
1 x,y,z
2 1/2+x,1/2-y,-z
3 -x,1/2+y,1/2-z
4 1/2-x,-y,1/2+z
_cell_length_a                   10.078(2)
_cell_length_b                   17.303(3)
_cell_length_c                   9.022(1)
_cell_angle_alpha                90
_cell_angle_beta                 90
_cell_angle_gamma                90
_cell_volume                     1573.25
_exptl_crystal_colour            'pale yellow'
_cell_formula_units_Z            4
loop_
_atom_site_label
_atom_site_type_symbol
_atom_site_fract_x
_atom_site_fract_y
_atom_site_fract_z
Br1 Br 0.9681(1) 0.2863(1) 0.4459(1)
C1 C 1.2428(10) 0.1728(6) 0.1813(13)
C2 C 1.1876(10) 0.2380(6) 0.0870(12)
C3 C 1.0380(10) 0.2236(4) 0.0703(10)
C4 C 1.1324(9) 0.1125(6) 0.1853(11)
C5 C 0.8878(8) 0.1170(5) 0.1679(10)
C6 C 0.8854(9) 0.0470(4) 0.2640(10)
C7 C 0.9928(8) 0.0197(4) 0.3319(9)
C8 C 1.1257(9) 0.0592(5) 0.3169(12)
C9 C 0.7522(9) 0.0104(5) 0.2720(8)
H1 H 1.0120(90) 0.1850(50) 0.291(10)
H2 H 0.346(13) -0.0620(70) 0.156(14)
C10 C 0.7259(9) -0.0626(4) 0.2144(10)
C11 C 0.5998(9) -0.0952(5) 0.2219(9)
C12 C 0.4977(9) -0.0533(5) 0.2902(10)
C13 C 0.5215(9) 0.0186(5) 0.3494(9)
C14 C 0.6472(8) 0.0515(5) 0.3408(10)
C15 C 0.9916(10) -0.0501(5) 0.4296(11)
N1 N 1.0088(6) 0.1622(3) 0.1857(7)
O1 O 0.3714(6) -0.0834(4) 0.3016(8)
O2 O 0.6730(7) 0.2753(4) 0.3055(8)
H3 H 0.746(14) 0.2930(90) 0.328(17)
H4 H 0.623(11) 0.3300(60) 0.261(13)
loop_
_geom_bond_atom_site_label_1
_geom_bond_atom_site_label_2
_geom_bond_site_symmetry_1
_geom_bond_site_symmetry_2
C1 C2 1_555 1_555
C2 C3 1_555 1_555
C3 N1 1_555 1_555
C4 C1 1_555 1_555
C5 C6 1_555 1_555
C6 C7 1_555 1_555
C7 C8 1_555 1_555
C8 C4 1_555 1_555
C9 C6 1_555 1_555
H1 N1 1_555 1_555
H2 O1 1_555 1_555
C10 C9 1_555 1_555
C11 C10 1_555 1_555
C12 C11 1_555 1_555
C13 C12 1_555 1_555
C14 C9 1_555 1_555
C15 C7 1_555 1_555
N1 C4 1_555 1_555
O1 C12 1_555 1_555
O2 H3 1_555 1_555
H4 O2 1_555 1_555
C5 N1 1_555 1_555
C13 C14 1_555 1_555

#END
