
#######################################################################
#
#                 Cambridge Crystallographic Data Centre
#                                CCDC 
#
#######################################################################
#
# If this CIF has been generated from an entry in the Cambridge 
# Structural Database, then it will include bibliographic, chemical, 
# crystal, experimental, refinement or atomic coordinate data resulting 
# from the CCDC's data processing and validation procedures.
#
#######################################################################

data_DEZSOQ
_chemical_formula_moiety         'C17 H19 N2 O2 P1 S1'
_chemical_name_systematic        
2-Diethylamino-3-phenyl-2,3-dihydro-4H-1,3,2-benzoxazaphosphorin-4-thione-2-oxide
_symmetry_cell_setting           monoclinic
_symmetry_space_group_name_H-M   'P 21/n'
_symmetry_Int_Tables_number      14
_space_group_name_Hall           '-P 2yn'
loop_
_symmetry_equiv_pos_site_id
_symmetry_equiv_pos_as_xyz
1 x,y,z
2 1/2-x,1/2+y,1/2-z
3 -x,-y,-z
4 1/2+x,1/2-y,1/2+z
_cell_length_a                   18.897(3)
_cell_length_b                   10.199(13)
_cell_length_c                   8.948(3)
_cell_angle_alpha                90
_cell_angle_beta                 94.30(3)
_cell_angle_gamma                90
_cell_volume                     1719.7
_exptl_crystal_colour            'pale yellow'
_cell_formula_units_Z            4
loop_
_atom_site_label
_atom_site_type_symbol
_atom_site_fract_x
_atom_site_fract_y
_atom_site_fract_z
P1 P 0.2836(1) 0.0845(8) 0.2782(3)
S1 S 0.1169(1) 0.2149(3) -0.0340(3)
O1 O 0.2482(3) 0.1670(7) 0.4045(6)
O2 O 0.2778(3) -0.0575(7) 0.2932(7)
N1 N 0.2349(3) 0.1441(7) 0.1238(7)
N2 N 0.3626(4) 0.1415(8) 0.2781(8)
C1 C 0.1746(4) 0.1649(1) 0.4051(9)
C2 C 0.1456(5) 0.1583(12) 0.5422(10)
C3 C 0.0732(5) 0.1580(12) 0.5472(10)
C4 C 0.0297(5) 0.1623(13) 0.4144(11)
C5 C 0.0595(5) 0.1675(12) 0.2779(10)
C6 C 0.1331(4) 0.1711(10) 0.2683(9)
C7 C 0.1647(4) 0.1756(10) 0.1221(9)
C8 C 0.2698(4) 0.1380(10) -0.0164(9)
C9 C 0.2928(5) 0.2547(10) -0.0778(9)
C10 C 0.3300(5) 0.2448(12) -0.2075(10)
C11 C 0.3428(5) 0.1217(12) -0.2689(10)
C12 C 0.3188(5) 0.0073(11) -0.2066(11)
C13 C 0.2812(5) 0.0123(11) -0.0767(10)
C14 C 0.4253(6) 0.0482(13) 0.2980(16)
C15 C 0.4589(6) 0.0346(17) 0.1614(19)
C16 C 0.3775(4) 0.2835(10) 0.2697(10)
C17 C 0.4103(6) 0.3416(12) 0.4151(12)
H1 H 0.173(9) 0.123(17) 0.623(18)
H2 H 0.043(7) 0.112(13) 0.647(14)
H3 H -0.026(6) 0.143(12) 0.409(12)
H4 H 0.024(7) 0.168(13) 0.189(14)
H5 H 0.282(5) 0.353(10) -0.032(10)
H6 H 0.348(7) 0.335(13) -0.244(14)
H7 H 0.381(8) 0.095(16) -0.337(17)
H8 H 0.326(6) -0.092(13) -0.253(13)
H9 H 0.257(6) -0.062(11) -0.041(12)
H10 H 0.411(10) -0.057(20) 0.347(21)
H11 H 0.480(5) 0.050(10) 0.358(10)
H12 H 0.333(4) 0.350(8) 0.252(9)
H13 H 0.410(4) 0.287(8) 0.197(8)
H14 H 0.506(9) -0.019(19) 0.257(19)
H15 H 0.480(10) 0.116(19) 0.129(20)
H16 H 0.419(9) -0.044(18) 0.098(18)
H17 H 0.435(6) 0.449(11) 0.405(12)
H18 H 0.451(6) 0.283(11) 0.432(12)
H19 H 0.376(5) 0.351(9) 0.482(9)
loop_
_geom_bond_atom_site_label_1
_geom_bond_atom_site_label_2
_geom_bond_site_symmetry_1
_geom_bond_site_symmetry_2
P1 O1 1_555 1_555
S1 C7 1_555 1_555
O1 C1 1_555 1_555
O2 P1 1_555 1_555
N1 P1 1_555 1_555
N2 P1 1_555 1_555
C1 C2 1_555 1_555
C2 C3 1_555 1_555
C3 C4 1_555 1_555
C4 C5 1_555 1_555
C5 C6 1_555 1_555
C6 C1 1_555 1_555
C7 N1 1_555 1_555
C8 N1 1_555 1_555
C9 C8 1_555 1_555
C10 C9 1_555 1_555
C11 C10 1_555 1_555
C12 C11 1_555 1_555
C13 C8 1_555 1_555
C14 N2 1_555 1_555
C15 C14 1_555 1_555
C16 N2 1_555 1_555
C17 C16 1_555 1_555
H1 C2 1_555 1_555
H2 C3 1_555 1_555
H3 C4 1_555 1_555
H4 C5 1_555 1_555
H5 C9 1_555 1_555
H6 C10 1_555 1_555
H7 C11 1_555 1_555
H8 C12 1_555 1_555
H9 C13 1_555 1_555
H10 C14 1_555 1_555
H11 C14 1_555 1_555
H12 C16 1_555 1_555
H13 C16 1_555 1_555
H14 C15 1_555 1_555
H15 C15 1_555 1_555
H16 C15 1_555 1_555
H17 C17 1_555 1_555
H18 C17 1_555 1_555
H19 C17 1_555 1_555
C6 C7 1_555 1_555
C12 C13 1_555 1_555

#END
