
#######################################################################
#
#                 Cambridge Crystallographic Data Centre
#                                CCDC 
#
#######################################################################
#
# If this CIF has been generated from an entry in the Cambridge 
# Structural Database, then it will include bibliographic, chemical, 
# crystal, experimental, refinement or atomic coordinate data resulting 
# from the CCDC's data processing and validation procedures.
#
#######################################################################

data_DEZVEK
_chemical_formula_moiety         'C18 H17 N1 O2'
_chemical_name_systematic        rac-\e-Clausenamide
_chemical_properties_biological  'liver-protecting and antiamnesia activities'
_symmetry_cell_setting           monoclinic
_symmetry_space_group_name_H-M   'P 21/c'
_symmetry_Int_Tables_number      14
_space_group_name_Hall           '-P 2ybc'
loop_
_symmetry_equiv_pos_site_id
_symmetry_equiv_pos_as_xyz
1 x,y,z
2 -x,1/2+y,1/2-z
3 -x,-y,-z
4 x,1/2-y,1/2+z
_cell_length_a                   12.063(2)
_cell_length_b                   11.771(2)
_cell_length_c                   11.209(2)
_cell_angle_alpha                90.00
_cell_angle_beta                 106.55(3)
_cell_angle_gamma                90.00
_cell_volume                     1525.67
_exptl_crystal_colour            colorless
_exptl_crystal_description       'thin plate'
_cell_formula_units_Z            4
loop_
_atom_site_label
_atom_site_type_symbol
_atom_site_fract_x
_atom_site_fract_y
_atom_site_fract_z
N1 N 0.59703(13) 0.28590(14) 0.14589(16)
O1 O 0.52187(12) 0.15725(13) -0.00433(13)
O2 O 0.50356(11) 0.01049(14) 0.17946(15)
H1 H 0.5071 -0.0346 0.1249
C1 C 0.80992(14) 0.09751(15) 0.19284(16)
C2 C 0.88308(16) 0.05205(17) 0.12885(18)
H2 H 0.8673 -0.0199 0.0938
C3 C 0.97759(17) 0.1100(2) 0.1159(2)
H3 H 1.0252 0.0770 0.0733
C4 C 1.00202(17) 0.2167(2) 0.1658(2)
H4 H 1.0648 0.2573 0.1557
C5 C 0.93279(17) 0.26218(19) 0.2306(2)
H5 H 0.9504 0.3338 0.2660
C6 C 0.83656(15) 0.20519(16) 0.24555(17)
C7 C 0.76942(18) 0.26915(18) 0.31515(19)
H6 H 0.8043 0.2814 0.3995
C8 C 0.66506(19) 0.30992(19) 0.2682(2)
H7 H 0.6344 0.3568 0.3176
C9 C 0.57117(14) 0.17887(17) 0.10580(17)
C10 C 0.59816(14) 0.08553(17) 0.20267(18)
H8 H 0.6085 0.1202 0.2846
C11 C 0.71069(14) 0.02261(15) 0.20381(17)
H9 H 0.6911 -0.0256 0.1295
C12 C 0.74300(15) -0.05807(16) 0.31371(18)
C13 C 0.69458(16) -0.16651(18) 0.3035(2)
H10 H 0.6466 -0.1909 0.2273
C14 C 0.71720(19) -0.2381(2) 0.4053(3)
H11 H 0.6838 -0.3099 0.3975
C15 C 0.7885(2) -0.2037(2) 0.5177(3)
H12 H 0.8030 -0.2518 0.5863
C16 C 0.8384(2) -0.0984(2) 0.5288(2)
H13 H 0.8874 -0.0753 0.6050
C17 C 0.8163(2) -0.0256(2) 0.4272(2)
H14 H 0.8512 0.0455 0.4358
C18 C 0.5585(2) 0.3817(2) 0.0622(3)
H15 H 0.5138 0.3543 -0.0178
H16 H 0.6245 0.4227 0.0533
H17 H 0.5116 0.4312 0.0958
loop_
_geom_bond_atom_site_label_1
_geom_bond_atom_site_label_2
_geom_bond_site_symmetry_1
_geom_bond_site_symmetry_2
N1 C8 1_555 1_555
O1 C9 1_555 1_555
O2 H1 1_555 1_555
C1 C2 1_555 1_555
C2 H2 1_555 1_555
C3 C2 1_555 1_555
H3 C3 1_555 1_555
C4 C3 1_555 1_555
H4 C4 1_555 1_555
C5 C4 1_555 1_555
H5 C5 1_555 1_555
C6 C1 1_555 1_555
C7 C6 1_555 1_555
H6 C7 1_555 1_555
C8 C7 1_555 1_555
H7 C8 1_555 1_555
C9 N1 1_555 1_555
C10 O2 1_555 1_555
H8 C10 1_555 1_555
C11 C1 1_555 1_555
H9 C11 1_555 1_555
C12 C11 1_555 1_555
C13 C12 1_555 1_555
H10 C13 1_555 1_555
C14 C13 1_555 1_555
H11 C14 1_555 1_555
C15 C14 1_555 1_555
H12 C15 1_555 1_555
C16 C15 1_555 1_555
H13 C16 1_555 1_555
C17 C12 1_555 1_555
H14 C17 1_555 1_555
C18 N1 1_555 1_555
H15 C18 1_555 1_555
H16 C18 1_555 1_555
H17 C18 1_555 1_555
C5 C6 1_555 1_555
C9 C10 1_555 1_555
C10 C11 1_555 1_555
C16 C17 1_555 1_555

#END
