
#######################################################################
#
#                 Cambridge Crystallographic Data Centre
#                                CCDC 
#
#######################################################################
#
# If this CIF has been generated from an entry in the Cambridge 
# Structural Database, then it will include bibliographic, chemical, 
# crystal, experimental, refinement or atomic coordinate data resulting 
# from the CCDC's data processing and validation procedures.
#
#######################################################################

data_DEZWUD
_chemical_name_common            
1-(methylsulfonyl)-3,4-diphenyl-1,3,3a,4,9,9a-hexahydro-2H-benzo[f]indol-2-one
_chemical_formula_moiety         'C25 H23 N1 O3 S1'
_chemical_name_systematic        
(3R,3aS,4R,9aS)-1-(methylsulfonyl)-3,4-diphenyl-3a,4,9,9a-tetrahydro-1H-benzo[f]indol-2(3H)-one
_symmetry_cell_setting           monoclinic
_symmetry_space_group_name_H-M   'P 21/c'
_symmetry_Int_Tables_number      14
_space_group_name_Hall           '-P 2ybc'
loop_
_symmetry_equiv_pos_site_id
_symmetry_equiv_pos_as_xyz
1 x,y,z
2 -x,1/2+y,1/2-z
3 -x,-y,-z
4 x,1/2-y,1/2+z
_cell_length_a                   18.5095(15)
_cell_length_b                   10.9007(8)
_cell_length_c                   10.3745(8)
_cell_angle_alpha                90
_cell_angle_beta                 103.857(8)
_cell_angle_gamma                90
_cell_volume                     2032.31
_exptl_crystal_colour            colorless
_exptl_crystal_description       block
_cell_formula_units_Z            4
_exptl_crystal_recrystallization_method 'hexane/ethyl acetate'
loop_
_atom_site_label
_atom_site_type_symbol
_atom_site_fract_x
_atom_site_fract_y
_atom_site_fract_z
S1 S 0.16385(5) 0.05210(8) 0.39914(9)
O1 O 0.21847(14) -0.0137(2) 0.4953(3)
O2 O 0.15143(16) 0.0213(3) 0.2626(3)
O3 O 0.11354(14) 0.2820(2) 0.2289(2)
C1 C 0.0798(2) 0.0508(4) 0.4465(4)
H1 H 0.0622 -0.0321 0.4463
H2 H 0.0439 0.0991 0.3853
H3 H 0.0870 0.0845 0.5342
N1 N 0.19086(15) 0.1979(3) 0.4176(3)
C2 C 0.23308(18) 0.3812(3) 0.5345(3)
H4 H 0.1927 0.3943 0.5793
C3 C 0.38064(19) 0.5173(3) 0.4502(3)
H5 H 0.3997 0.4380 0.4573
C4 C 0.32614(19) 0.2115(3) 0.5259(3)
H6 H 0.3326 0.1234 0.5227
H7 H 0.3357 0.2470 0.4458
C5 C 0.30150(18) 0.4596(3) 0.6117(3)
H8 H 0.2836 0.5085 0.6771
C6 C 0.37928(18) 0.2640(3) 0.6464(3)
C7 C 0.41315(19) 0.4281(3) 0.8035(3)
H9 H 0.4044 0.5060 0.8331
C8 C 0.32985(18) 0.5509(3) 0.5233(3)
C9 C 0.4866(2) 0.2444(3) 0.8315(4)
H10 H 0.5265 0.1985 0.8790
C10 C 0.43972(19) 0.1967(3) 0.7178(3)
H11 H 0.4487 0.1187 0.6889
C11 C 0.1656(2) 0.6090(3) 0.2618(4)
H12 H 0.2047 0.5966 0.2212
C12 C 0.36554(18) 0.3818(3) 0.6900(3)
C13 C 0.15294(18) 0.5242(3) 0.3534(3)
C14 C 0.3265(2) 0.7555(3) 0.4311(4)
H13 H 0.3084 0.8355 0.4253
C15 C 0.20177(19) 0.4119(3) 0.3869(3)
H14 H 0.2441 0.4224 0.3464
C16 C 0.24762(18) 0.2414(3) 0.5353(3)
H15 H 0.2382 0.2050 0.6160
C17 C 0.30448(19) 0.6725(3) 0.5138(4)
H16 H 0.2720 0.6975 0.5647
C18 C 0.0933(2) 0.5441(4) 0.4120(4)
H17 H 0.0835 0.4883 0.4734
C19 C 0.3758(2) 0.7198(3) 0.3561(4)
H18 H 0.3904 0.7751 0.2990
C20 C 0.47333(19) 0.3613(3) 0.8737(4)
H19 H 0.5048 0.3946 0.9491
C21 C 0.4031(2) 0.6005(3) 0.3671(4)
H20 H 0.4367 0.5765 0.3181
C22 C 0.1210(2) 0.7118(4) 0.2295(4)
H21 H 0.1306 0.7685 0.1688
C23 C 0.16173(19) 0.2938(3) 0.3312(3)
C24 C 0.0490(2) 0.6465(4) 0.3786(4)
H22 H 0.0095 0.6593 0.4181
C25 C 0.0623(2) 0.7298(4) 0.2877(4)
H23 H 0.0318 0.7982 0.2655
loop_
_geom_bond_atom_site_label_1
_geom_bond_atom_site_label_2
_geom_bond_site_symmetry_1
_geom_bond_site_symmetry_2
S1 O1 1_555 1_555
O2 S1 1_555 1_555
O3 C23 1_555 1_555
C1 S1 1_555 1_555
H1 C1 1_555 1_555
H2 C1 1_555 1_555
H3 C1 1_555 1_555
N1 S1 1_555 1_555
C2 H4 1_555 1_555
C3 H5 1_555 1_555
C4 H6 1_555 1_555
H7 C4 1_555 1_555
C5 C2 1_555 1_555
H8 C5 1_555 1_555
C6 C4 1_555 1_555
C7 H9 1_555 1_555
C8 C3 1_555 1_555
C9 H10 1_555 1_555
C10 C6 1_555 1_555
H11 C10 1_555 1_555
C11 H12 1_555 1_555
C12 C5 1_555 1_555
C13 C11 1_555 1_555
C14 H13 1_555 1_555
C15 C2 1_555 1_555
H14 C15 1_555 1_555
C16 N1 1_555 1_555
H15 C16 1_555 1_555
C17 C8 1_555 1_555
H16 C17 1_555 1_555
C18 C13 1_555 1_555
H17 C18 1_555 1_555
C19 C14 1_555 1_555
H18 C19 1_555 1_555
C20 C7 1_555 1_555
H19 C20 1_555 1_555
C21 C3 1_555 1_555
H20 C21 1_555 1_555
C22 C11 1_555 1_555
H21 C22 1_555 1_555
C23 N1 1_555 1_555
C24 C18 1_555 1_555
H22 C24 1_555 1_555
C25 C22 1_555 1_555
H23 C25 1_555 1_555
C2 C16 1_555 1_555
C4 C16 1_555 1_555
C5 C8 1_555 1_555
C6 C12 1_555 1_555
C7 C12 1_555 1_555
C9 C10 1_555 1_555
C9 C20 1_555 1_555
C13 C15 1_555 1_555
C14 C17 1_555 1_555
C15 C23 1_555 1_555
C19 C21 1_555 1_555
C24 C25 1_555 1_555

#END
