
#######################################################################
#
#                 Cambridge Crystallographic Data Centre
#                                CCDC 
#
#######################################################################
#
# If this CIF has been generated from an entry in the Cambridge 
# Structural Database, then it will include bibliographic, chemical, 
# crystal, experimental, refinement or atomic coordinate data resulting 
# from the CCDC's data processing and validation procedures.
#
#######################################################################

data_DEZYIT
_chemical_formula_moiety         'C35 H33 N3 O2 S2'
_chemical_name_systematic        
2'-(1,3-benzothiazol-2-yl)-2-butyl-6'-(diethylamino)-3'-hydroxyspiro[isoindole-1,9'-xanthene]-3(2H)-thione
_symmetry_cell_setting           triclinic
_symmetry_space_group_name_H-M   'P -1'
_symmetry_Int_Tables_number      2
_space_group_name_Hall           '-P 1'
loop_
_symmetry_equiv_pos_site_id
_symmetry_equiv_pos_as_xyz
1 x,y,z
2 -x,-y,-z
_cell_length_a                   13.72(3)
_cell_length_b                   16.30(3)
_cell_length_c                   16.52(3)
_cell_angle_alpha                111.53(5)
_cell_angle_beta                 98.39(4)
_cell_angle_gamma                107.61(4)
_cell_volume                     3135.08
_exptl_crystal_colour            colorless
_exptl_crystal_description       Block
_cell_formula_units_Z            4
loop_
_atom_site_label
_atom_site_type_symbol
_atom_site_fract_x
_atom_site_fract_y
_atom_site_fract_z
C1 C 0.7697(10) 0.6071(9) 1.0054(8)
H1 H 0.7465 0.6317 1.0558
C2 C 0.8126(11) 0.5408(10) 0.9950(9)
H2 H 0.8195 0.5189 1.0393
C3 C 0.8466(11) 0.5049(10) 0.9190(10)
H3 H 0.8737 0.4577 0.9128
C4 C 0.8415(9) 0.5363(8) 0.8532(8)
H4 H 0.8655 0.5128 0.8030
C5 C 0.7991(8) 0.6046(7) 0.8650(7)
C6 C 0.7620(8) 0.6372(8) 0.9351(8)
C7 C 0.7204(8) 0.7104(8) 0.9310(7)
C8 C 0.7905(8) 0.6589(8) 0.8058(7)
C9 C 0.9003(8) 0.7217(8) 0.8116(7)
C10 C 0.9373(9) 0.7205(7) 0.7384(7)
C11 C 1.0369(9) 0.7766(8) 0.7416(8)
H5 H 1.0564 0.7694 0.6886
C12 C 1.1082(9) 0.8446(8) 0.8266(8)
C13 C 1.0735(9) 0.8487(8) 0.9024(8)
H6 H 1.1205 0.8916 0.9598
C14 C 0.9719(8) 0.7918(8) 0.8965(7)
H7 H 0.9509 0.8000 0.9490
C15 C 1.2880(11) 0.9665(10) 0.9237(10)
H8 H 1.2516 0.9962 0.9645
H9 H 1.3422 1.0169 0.9183
C16 C 1.3417(13) 0.9180(13) 0.9653(12)
H10 H 1.3577 0.8719 0.9191
H11 H 1.2952 0.8862 0.9920
H12 H 1.4068 0.9648 1.0114
C17 C 1.2440(10) 0.8969(10) 0.7545(10)
H13 H 1.2161 0.8305 0.7100
H14 H 1.3214 0.9202 0.7711
C18 C 1.2080(13) 0.9539(12) 0.7119(11)
H15 H 1.1532 0.9703 0.7356
H16 H 1.1804 0.9166 0.6471
H17 H 1.2676 1.0114 0.7256
C19 C 0.7306(8) 0.5899(7) 0.7047(7)
C20 C 0.7751(8) 0.5911(7) 0.6367(7)
C21 C 0.7190(10) 0.5250(8) 0.5468(8)
H18 H 0.7509 0.5258 0.5010
C22 C 0.6199(9) 0.4605(8) 0.5253(7)
C23 C 0.5676(9) 0.4601(7) 0.5910(7)
C24 C 0.6253(8) 0.5253(7) 0.6828(7)
H19 H 0.5934 0.5252 0.7288
C25 C 0.4562(8) 0.3948(7) 0.5687(7)
C26 C 0.3030(8) 0.2754(8) 0.4784(8)
C27 C 0.2697(11) 0.3069(9) 0.5511(9)
C28 C 0.1622(11) 0.2697(11) 0.5547(10)
H20 H 0.1390 0.2979 0.6039
C29 C 0.0949(12) 0.1855(12) 0.4755(11)
H21 H 0.0266 0.1518 0.4751
C30 C 0.1262(10) 0.1534(10) 0.4020(9)
H22 H 0.0769 0.1013 0.3499
C31 C 0.2307(10) 0.1951(8) 0.3998(7)
H23 H 0.2516 0.1703 0.3480
C32 C 0.7065(9) 0.7809(8) 0.8224(8)
H24 H 0.7430 0.7867 0.7775
H25 H 0.7335 0.8434 0.8737
C33 C 0.5861(11) 0.7506(9) 0.7808(10)
H26 H 0.5602 0.6923 0.7246
H27 H 0.5478 0.7375 0.8225
C34 C 0.5640(12) 0.8296(11) 0.7613(12)
H28 H 0.5944 0.8376 0.7139
H29 H 0.5964 0.8899 0.8157
C35 C 0.4406(18) 0.8000(18) 0.7304(17)
H30 H 0.4102 0.7442 0.6730
H31 H 0.4253 0.8514 0.7242
H32 H 0.4103 0.7860 0.7750
N1 N 1.2102(8) 0.9021(7) 0.8337(7)
N2 N 0.7319(7) 0.7160(6) 0.8523(6)
N3 N 0.4073(8) 0.3223(6) 0.4845(6)
O1 O 0.8753(6) 0.6515(6) 0.6481(5)
O2 O 0.5725(6) 0.3978(6) 0.4367(5)
H33 H 0.5126 0.3618 0.4308
S1 S 0.6710(3) 0.7729(3) 1.0049(2)
S2 S 0.3748(3) 0.4086(2) 0.6379(2)
C36 C 0.1394(17) 0.5925(13) -0.2659(14)
H34 H 0.1145 0.6401 -0.2329
H35 H 0.0851 0.5463 -0.3216
H36 H 0.2028 0.6224 -0.2792
C37 C 0.1634(11) 0.5451(11) -0.2113(10)
H37 H 0.1793 0.4917 -0.2481
H38 H 0.1004 0.5194 -0.1942
C38 C 0.3639(11) 0.6150(10) -0.1352(10)
H39 H 0.4146 0.6803 -0.0982
H40 H 0.3636 0.5989 -0.1979
C39 C 0.3998(12) 0.5481(11) -0.1048(11)
H41 H 0.3928 0.5591 -0.0451
H42 H 0.4731 0.5601 -0.1036
H43 H 0.3560 0.4829 -0.1467
C40 C 0.2405(9) 0.6623(7) -0.0469(8)
C41 C 0.1381(9) 0.6555(8) -0.0386(8)
H44 H 0.0787 0.6105 -0.0875
C42 C 0.1223(9) 0.7135(9) 0.0398(8)
H45 H 0.0533 0.7090 0.0406
C43 C 0.2087(8) 0.7793(8) 0.1186(8)
C44 C 0.3093(8) 0.7802(8) 0.1086(7)
C45 C 0.3269(9) 0.7265(8) 0.0304(8)
H46 H 0.3961 0.7328 0.0287
C46 C 0.1932(8) 0.8395(7) 0.2038(7)
C47 C 0.3010(8) 0.9067(8) 0.2759(8)
C48 C 0.3950(8) 0.9089(8) 0.2590(7)
C49 C 0.4932(8) 0.9746(8) 0.3215(8)
H47 H 0.5561 0.9748 0.3066
C50 C 0.4973(8) 1.0366(8) 0.4017(8)
C51 C 0.4008(8) 1.0381(8) 0.4241(7)
C52 C 0.3025(9) 0.9742(8) 0.3616(8)
H48 H 0.2392 0.9751 0.3750
C53 C 0.4053(8) 1.1033(8) 0.5155(8)
C54 C 0.4793(9) 1.2232(9) 0.6519(9)
C55 C 0.5583(10) 1.3089(9) 0.7288(8)
H49 H 0.6257 1.3377 0.7242
C56 C 0.5337(11) 1.3468(11) 0.8070(9)
H50 H 0.5868 1.3979 0.8574
C57 C 0.4292(13) 1.3107(10) 0.8141(9)
H51 H 0.4122 1.3401 0.8669
C58 C 0.3525(12) 1.2302(11) 0.7403(10)
H52 H 0.2848 1.2035 0.7454
C59 C 0.3741(10) 1.1898(8) 0.6611(8)
C60 C 0.1210(8) 0.8942(7) 0.1854(7)
C61 C 0.1474(9) 0.9650(8) 0.1569(8)
H53 H 0.2153 0.9918 0.1522
C62 C 0.0670(10) 0.9934(8) 0.1361(8)
H54 H 0.0810 1.0424 0.1179
C63 C -0.0344(10) 0.9517(10) 0.1410(9)
H55 H -0.0882 0.9703 0.1228
C64 C -0.0562(9) 0.8843(9) 0.1720(8)
H56 H -0.1234 0.8584 0.1784
C65 C 0.0230(8) 0.8554(8) 0.1937(7)
C66 C 0.0216(8) 0.7802(8) 0.2267(7)
C67 C 0.1495(10) 0.7153(8) 0.2689(8)
H57 H 0.2140 0.7115 0.2532
H58 H 0.0934 0.6518 0.2368
C68 C 0.1695(12) 0.7468(10) 0.3712(9)
H59 H 0.1093 0.7595 0.3890
H60 H 0.2328 0.8054 0.4039
C69 C 0.1850(15) 0.6666(12) 0.3966(11)
H61 H 0.1277 0.6048 0.3581
H62 H 0.2529 0.6618 0.3914
C70 C 0.1823(17) 0.7010(15) 0.4943(11)
H63 H 0.2541 0.7332 0.5341
H64 H 0.1449 0.6473 0.5046
H65 H 0.1463 0.7444 0.5063
N4 N 0.2550(8) 0.6083(8) -0.1270(7)
N5 N 0.1190(6) 0.7793(6) 0.2390(6)
N6 N 0.4964(7) 1.1772(7) 0.5709(7)
O3 O 0.5961(6) 1.1023(6) 0.4580(6)
H66 H 0.5900 1.1374 0.5057
O4 O 0.4051(6) 0.8470(7) 0.1779(6)
S3 S -0.0828(3) 0.7140(3) 0.2451(2)
S4 S 0.2983(2) 1.0906(2) 0.5608(2)
loop_
_geom_bond_atom_site_label_1
_geom_bond_atom_site_label_2
_geom_bond_site_symmetry_1
_geom_bond_site_symmetry_2
C1 H1 1_555 1_555
C2 C1 1_555 1_555
H2 C2 1_555 1_555
C3 C2 1_555 1_555
H3 C3 1_555 1_555
C4 C3 1_555 1_555
H4 C4 1_555 1_555
C5 C4 1_555 1_555
C6 C1 1_555 1_555
C7 C6 1_555 1_555
C8 C5 1_555 1_555
C9 C8 1_555 1_555
C10 C9 1_555 1_555
C11 C10 1_555 1_555
H5 C11 1_555 1_555
C12 C11 1_555 1_555
C13 C12 1_555 1_555
H6 C13 1_555 1_555
C14 C9 1_555 1_555
H7 C14 1_555 1_555
C15 H8 1_555 1_555
H9 C15 1_555 1_555
C16 C15 1_555 1_555
H10 C16 1_555 1_555
H11 C16 1_555 1_555
H12 C16 1_555 1_555
C17 H13 1_555 1_555
H14 C17 1_555 1_555
C18 C17 1_555 1_555
H15 C18 1_555 1_555
H16 C18 1_555 1_555
H17 C18 1_555 1_555
C19 C8 1_555 1_555
C20 C19 1_555 1_555
C21 C20 1_555 1_555
H18 C21 1_555 1_555
C22 C21 1_555 1_555
C23 C22 1_555 1_555
C24 C19 1_555 1_555
H19 C24 1_555 1_555
C25 C23 1_555 1_555
C26 C27 1_555 1_555
C27 C28 1_555 1_555
C28 H20 1_555 1_555
C29 C28 1_555 1_555
H21 C29 1_555 1_555
C30 C29 1_555 1_555
H22 C30 1_555 1_555
C31 C26 1_555 1_555
H23 C31 1_555 1_555
C32 H24 1_555 1_555
H25 C32 1_555 1_555
C33 C32 1_555 1_555
H26 C33 1_555 1_555
H27 C33 1_555 1_555
C34 C33 1_555 1_555
H28 C34 1_555 1_555
H29 C34 1_555 1_555
C35 C34 1_555 1_555
H30 C35 1_555 1_555
H31 C35 1_555 1_555
H32 C35 1_555 1_555
N1 C12 1_555 1_555
N2 C7 1_555 1_555
N3 C25 1_555 1_555
O1 C10 1_555 1_555
O2 C22 1_555 1_555
H33 O2 1_555 1_555
S1 C7 1_555 1_555
S2 C25 1_555 1_555
C36 H34 1_555 1_555
H35 C36 1_555 1_555
H36 C36 1_555 1_555
C37 C36 1_555 1_555
H37 C37 1_555 1_555
H38 C37 1_555 1_555
C38 H39 1_555 1_555
H40 C38 1_555 1_555
C39 C38 1_555 1_555
H41 C39 1_555 1_555
H42 C39 1_555 1_555
H43 C39 1_555 1_555
C40 C41 1_555 1_555
C41 H44 1_555 1_555
C42 C41 1_555 1_555
H45 C42 1_555 1_555
C43 C42 1_555 1_555
C44 C43 1_555 1_555
C45 C40 1_555 1_555
H46 C45 1_555 1_555
C46 C43 1_555 1_555
C47 C46 1_555 1_555
C48 C47 1_555 1_555
C49 C48 1_555 1_555
H47 C49 1_555 1_555
C50 C49 1_555 1_555
C51 C50 1_555 1_555
C52 C47 1_555 1_555
H48 C52 1_555 1_555
C53 C51 1_555 1_555
C54 C55 1_555 1_555
C55 H49 1_555 1_555
C56 C55 1_555 1_555
H50 C56 1_555 1_555
C57 C56 1_555 1_555
H51 C57 1_555 1_555
C58 C57 1_555 1_555
H52 C58 1_555 1_555
C59 C54 1_555 1_555
C60 C46 1_555 1_555
C61 C60 1_555 1_555
H53 C61 1_555 1_555
C62 C61 1_555 1_555
H54 C62 1_555 1_555
C63 C62 1_555 1_555
H55 C63 1_555 1_555
C64 C63 1_555 1_555
H56 C64 1_555 1_555
C65 C60 1_555 1_555
C66 C65 1_555 1_555
C67 H57 1_555 1_555
H58 C67 1_555 1_555
C68 C67 1_555 1_555
H59 C68 1_555 1_555
H60 C68 1_555 1_555
C69 C68 1_555 1_555
H61 C69 1_555 1_555
H62 C69 1_555 1_555
C70 C69 1_555 1_555
H63 C70 1_555 1_555
H64 C70 1_555 1_555
H65 C70 1_555 1_555
N4 C37 1_555 1_555
N5 C46 1_555 1_555
N6 C53 1_555 1_555
O3 C50 1_555 1_555
H66 O3 1_555 1_555
O4 C44 1_555 1_555
S3 C66 1_555 1_555
S4 C53 1_555 1_555
C5 C6 1_555 1_555
C8 N2 1_555 1_555
C13 C14 1_555 1_555
C15 N1 1_555 1_555
C17 N1 1_555 1_555
C20 O1 1_555 1_555
C23 C24 1_555 1_555
C26 N3 1_555 1_555
C27 S2 1_555 1_555
C30 C31 1_555 1_555
C32 N2 1_555 1_555
C38 N4 1_555 1_555
C40 N4 1_555 1_555
C44 C45 1_555 1_555
C48 O4 1_555 1_555
C51 C52 1_555 1_555
C54 N6 1_555 1_555
C58 C59 1_555 1_555
C59 S4 1_555 1_555
C64 C65 1_555 1_555
C66 N5 1_555 1_555
C67 N5 1_555 1_555

#END
