
#######################################################################
#
#                 Cambridge Crystallographic Data Centre
#                                CCDC 
#
#######################################################################
#
# If this CIF has been generated from an entry in the Cambridge 
# Structural Database, then it will include bibliographic, chemical, 
# crystal, experimental, refinement or atomic coordinate data resulting 
# from the CCDC's data processing and validation procedures.
#
#######################################################################

data_DEZZIU
_chemical_formula_moiety         'C60 H48 N4 O4'
_chemical_name_systematic        
N,N'-[(2,3-diphenylquinoxaline-5,8-diyl)bis(4,1-phenylene)]bis[4-methoxy-N-(4-methoxyphenyl)aniline]
_symmetry_cell_setting           triclinic
_symmetry_space_group_name_H-M   'P -1'
_symmetry_Int_Tables_number      2
_space_group_name_Hall           '-P 1'
loop_
_symmetry_equiv_pos_site_id
_symmetry_equiv_pos_as_xyz
1 x,y,z
2 -x,-y,-z
_cell_length_a                   12.0014(12)
_cell_length_b                   13.0411(12)
_cell_length_c                   17.0476(15)
_cell_angle_alpha                88.379(4)
_cell_angle_beta                 81.381(4)
_cell_angle_gamma                74.642(4)
_cell_volume                     2543.63
_exptl_crystal_description       block
_cell_formula_units_Z            2
loop_
_atom_site_label
_atom_site_type_symbol
_atom_site_fract_x
_atom_site_fract_y
_atom_site_fract_z
O1 O 0.3640(3) 0.9716(3) 0.9137(2)
O2 O -0.3329(6) 0.8987(4) 0.7231(4)
O3 O 1.1751(3) 0.5552(3) -0.19149(19)
N1 N 0.1897(4) 0.7759(3) 0.3207(2)
N2 N 0.2789(4) 0.7584(3) 0.1618(2)
N3 N 0.1344(6) 0.8997(4) 0.6697(3)
N4 N 0.6904(4) 0.6334(3) -0.1251(3)
C1 C 0.3010(5) 0.7830(4) 0.2968(3)
C2 C 0.3676(5) 0.8045(4) 0.3524(3)
C3 C 0.4827(5) 0.7973(5) 0.3269(4)
H1 H 0.5290 0.8129 0.3632
C4 C 0.5344(5) 0.7679(5) 0.2495(4)
H2 H 0.6162 0.7586 0.2357
C5 C 0.4712(4) 0.7516(4) 0.1919(3)
C6 C 0.3498(4) 0.7628(4) 0.2159(3)
C7 C 0.1258(4) 0.7603(3) 0.2681(3)
C8 C 0.1687(4) 0.7599(3) 0.1858(3)
C9 C 0.0107(4) 0.7419(4) 0.3029(3)
C10 C -0.0540(5) 0.8051(4) 0.3674(3)
H3 H -0.0265 0.8603 0.3862
C11 C -0.1563(5) 0.7878(4) 0.4035(3)
H4 H -0.2003 0.8311 0.4472
C12 C -0.1967(5) 0.7063(5) 0.3761(3)
H5 H -0.2682 0.6943 0.4013
C13 C -0.1333(5) 0.6434(4) 0.3127(3)
H6 H -0.1611 0.5880 0.2944
C14 C -0.0287(5) 0.6606(4) 0.2755(3)
H7 H 0.0154 0.6172 0.2318
C15 C 0.0975(4) 0.7643(3) 0.1198(3)
C16 C 0.1524(4) 0.7153(4) 0.0476(3)
H8 H 0.2330 0.6786 0.0414
C17 C 0.0914(4) 0.7194(4) -0.0149(3)
H9 H 0.1301 0.6853 -0.0637
C18 C -0.0247(5) 0.7721(4) -0.0073(3)
H10 H -0.0664 0.7744 -0.0507
C19 C -0.0805(4) 0.8216(4) 0.0631(3)
H11 H -0.1610 0.8584 0.0680
C20 C -0.0208(4) 0.8187(4) 0.1275(3)
H12 H -0.0600 0.8533 0.1761
C21 C 0.3115(5) 0.8330(5) 0.4365(3)
C22 C 0.2057(4) 0.9095(3) 0.4517(3)
H13 H 0.1707 0.9454 0.4087
C23 C 0.1508(4) 0.9341(3) 0.5280(3)
H14 H 0.0796 0.9885 0.5368
C24 C 0.1962(5) 0.8818(4) 0.5918(3)
C25 C 0.3066(6) 0.8082(6) 0.5749(4)
H15 H 0.3434 0.7725 0.6173
C26 C 0.3612(6) 0.7875(6) 0.4990(4)
H16 H 0.4368 0.7395 0.4898
C27 C 0.5260(5) 0.7224(4) 0.1092(3)
C28 C 0.6111(5) 0.7678(5) 0.0720(4)
H17 H 0.6326 0.8202 0.0996
C29 C 0.6663(5) 0.7389(5) -0.0050(4)
H18 H 0.7251 0.7709 -0.0293
C30 C 0.6344(5) 0.6617(4) -0.0466(3)
C31 C 0.5487(4) 0.6173(4) -0.0095(3)
H19 H 0.5250 0.5663 -0.0372
C32 C 0.4968(4) 0.6457(4) 0.0673(3)
H20 H 0.4397 0.6121 0.0922
C33 C 0.1909(7) 0.9140(5) 0.7329(3)
C34 C 0.1734(8) 0.8690(4) 0.8057(3)
H21 H 0.1211 0.8250 0.8132
C35 C 0.2269(8) 0.8838(5) 0.8681(4)
H22 H 0.2118 0.8517 0.9179
C36 C 0.3024(6) 0.9461(5) 0.8568(3)
C37 C 0.3267(5) 0.9938(5) 0.7833(3)
H23 H 0.3811 1.0358 0.7756
C38 C 0.2682(6) 0.9772(6) 0.7231(3)
H24 H 0.2813 1.0100 0.6734
C39 C 0.3450(6) 0.9272(5) 0.9916(3)
H25 H 0.3682 0.8494 0.9875
H26 H 0.2621 0.9516 1.0137
H27 H 0.3919 0.9505 1.0263
C40 C 0.0140(7) 0.9006(4) 0.6826(3)
C41 C -0.0315(7) 0.8410(4) 0.6342(3)
H28 H 0.0193 0.7988 0.5922
C42 C -0.1467(7) 0.8426(4) 0.6462(3)
H29 H -0.1780 0.8047 0.6122
C43 C -0.2151(8) 0.9009(5) 0.7092(5)
C44 C -0.1764(11) 0.9585(5) 0.7565(4)
H30 H -0.2288 0.9989 0.7988
C45 C -0.0611(9) 0.9602(5) 0.7448(3)
H31 H -0.0333 1.0014 0.7786
C46 C -0.3702(10) 0.9201(9) 0.8109(6)
H32 H -0.3945 0.9970 0.8209
H33 H -0.3046 0.8875 0.8393
H34 H -0.4358 0.8896 0.8295
C47 C 0.8153(5) 0.6093(4) -0.1407(3)
C48 C 0.8847(4) 0.5404(4) -0.0937(3)
H35 H 0.8487 0.5071 -0.0505
C49 C 1.0045(4) 0.5186(4) -0.1076(2)
H36 H 1.0506 0.4711 -0.0745
C50 C 1.0576(4) 0.5672(4) -0.1711(3)
C51 C 0.9895(5) 0.6344(4) -0.2191(3)
H37 H 1.0254 0.6652 -0.2638
C52 C 0.8714(5) 0.6571(4) -0.2034(3)
H38 H 0.8257 0.7066 -0.2356
C53 C 1.2489(5) 0.4747(5) -0.1510(3)
H39 H 1.3294 0.4607 -0.1783
H40 H 1.2228 0.4095 -0.1504
H41 H 1.2453 0.4983 -0.0964
C54 C 0.6294(5) 0.6070(4) -0.1833(3)
C55 C 0.6800(6) 0.5261(4) -0.2370(4)
H42 H 0.7576 0.4847 -0.2350
C56 C 0.6187(7) 0.5041(5) -0.2942(4)
H43 H 0.6545 0.4488 -0.3322
C57 C 0.5071(7) 0.5621(6) -0.2956(5)
C58 C 0.4541(7) 0.6410(7) -0.2436(5)
H44 H 0.3753 0.6799 -0.2447
C59 C 0.5161(5) 0.6639(5) -0.1892(4)
H45 H 0.4799 0.7218 -0.1535
O4 O 0.4231(10) 0.5544(8) -0.3406(6)
C60 C 0.4637(18) 0.4725(13) -0.3985(10)
H46 H 0.4060 0.4790 -0.4347
H47 H 0.4753 0.4033 -0.3725
H48 H 0.5380 0.4784 -0.4286
C61? C -0.396(3) 0.875(3) 0.6662(17)
H49? H -0.4447 0.9407 0.6477
H50? H -0.4450 0.8296 0.6899
H51? H -0.3408 0.8370 0.6212
O5? O 0.4865(12) 0.5176(15) -0.3776(9)
C62? C 0.3623(14) 0.5417(19) -0.3692(19)
H52? H 0.3392 0.5198 -0.4175
H53? H 0.3291 0.6184 -0.3606
H54? H 0.3333 0.5034 -0.3237
loop_
_geom_bond_atom_site_label_1
_geom_bond_atom_site_label_2
_geom_bond_site_symmetry_1
_geom_bond_site_symmetry_2
O1 C36 1_555 1_555
O2 C43 1_555 1_555
O3 C50 1_555 1_555
N1 C1 1_555 1_555
N2 C6 1_555 1_555
N3 C24 1_555 1_555
N4 C30 1_555 1_555
C1 C2 1_555 1_555
C2 C3 1_555 1_555
C3 H1 1_555 1_555
C4 C3 1_555 1_555
H2 C4 1_555 1_555
C5 C4 1_555 1_555
C6 C1 1_555 1_555
C7 N1 1_555 1_555
C8 N2 1_555 1_555
C9 C7 1_555 1_555
C10 C9 1_555 1_555
H3 C10 1_555 1_555
C11 C10 1_555 1_555
H4 C11 1_555 1_555
C12 C11 1_555 1_555
H5 C12 1_555 1_555
C13 C12 1_555 1_555
H6 C13 1_555 1_555
C14 C9 1_555 1_555
H7 C14 1_555 1_555
C15 C8 1_555 1_555
C16 C15 1_555 1_555
H8 C16 1_555 1_555
C17 C16 1_555 1_555
H9 C17 1_555 1_555
C18 C17 1_555 1_555
H10 C18 1_555 1_555
C19 C18 1_555 1_555
H11 C19 1_555 1_555
C20 C15 1_555 1_555
H12 C20 1_555 1_555
C21 C2 1_555 1_555
C22 C21 1_555 1_555
H13 C22 1_555 1_555
C23 C22 1_555 1_555
H14 C23 1_555 1_555
C24 C23 1_555 1_555
C25 C24 1_555 1_555
H15 C25 1_555 1_555
C26 C21 1_555 1_555
H16 C26 1_555 1_555
C27 C5 1_555 1_555
C28 C27 1_555 1_555
H17 C28 1_555 1_555
C29 C28 1_555 1_555
H18 C29 1_555 1_555
C30 C29 1_555 1_555
C31 C30 1_555 1_555
H19 C31 1_555 1_555
C32 C27 1_555 1_555
H20 C32 1_555 1_555
C33 N3 1_555 1_555
C34 C33 1_555 1_555
H21 C34 1_555 1_555
C35 C34 1_555 1_555
H22 C35 1_555 1_555
C36 C35 1_555 1_555
C37 C36 1_555 1_555
H23 C37 1_555 1_555
C38 C33 1_555 1_555
H24 C38 1_555 1_555
C39 O1 1_555 1_555
H25 C39 1_555 1_555
H26 C39 1_555 1_555
H27 C39 1_555 1_555
C40 N3 1_555 1_555
C41 C40 1_555 1_555
H28 C41 1_555 1_555
C42 C41 1_555 1_555
H29 C42 1_555 1_555
C43 C42 1_555 1_555
C44 C43 1_555 1_555
H30 C44 1_555 1_555
C45 C40 1_555 1_555
H31 C45 1_555 1_555
C46 O2 1_555 1_555
H32 C46 1_555 1_555
H33 C46 1_555 1_555
H34 C46 1_555 1_555
C47 N4 1_555 1_555
C48 C47 1_555 1_555
H35 C48 1_555 1_555
C49 C48 1_555 1_555
H36 C49 1_555 1_555
C50 C49 1_555 1_555
C51 C50 1_555 1_555
H37 C51 1_555 1_555
C52 C47 1_555 1_555
H38 C52 1_555 1_555
C53 O3 1_555 1_555
H39 C53 1_555 1_555
H40 C53 1_555 1_555
H41 C53 1_555 1_555
C54 N4 1_555 1_555
C55 C54 1_555 1_555
H42 C55 1_555 1_555
C56 C55 1_555 1_555
H43 C56 1_555 1_555
C57 C56 1_555 1_555
C58 C57 1_555 1_555
H44 C58 1_555 1_555
C59 C54 1_555 1_555
H45 C59 1_555 1_555
O4 C57 1_555 1_555
C60 O4 1_555 1_555
H46 C60 1_555 1_555
H47 C60 1_555 1_555
H48 C60 1_555 1_555
C5 C6 1_555 1_555
C7 C8 1_555 1_555
C13 C14 1_555 1_555
C19 C20 1_555 1_555
C25 C26 1_555 1_555
C31 C32 1_555 1_555
C37 C38 1_555 1_555
C44 C45 1_555 1_555
C51 C52 1_555 1_555
C58 C59 1_555 1_555

#END
