
#######################################################################
#
#                 Cambridge Crystallographic Data Centre
#                                CCDC 
#
#######################################################################
#
# If this CIF has been generated from an entry in the Cambridge 
# Structural Database, then it will include bibliographic, chemical, 
# crystal, experimental, refinement or atomic coordinate data resulting 
# from the CCDC's data processing and validation procedures.
#
#######################################################################

data_DHMIKN
_chemical_compound_source        'aerial part of Mikania micrantha'
_chemical_name_common            
1,10:2,3-diepoxy-6,8-dihydroxygermacr-4-ene-12,14-di-gamma-lactone
_chemical_formula_moiety         'C15 H16 O6'
_chemical_name_systematic        Dihydromikanolide
_chemical_properties_biological  'antiviral activity'
_symmetry_cell_setting           monoclinic
_symmetry_space_group_name_H-M   'P 21'
_symmetry_Int_Tables_number      4
_space_group_name_Hall           'P 2yb'
loop_
_symmetry_equiv_pos_site_id
_symmetry_equiv_pos_as_xyz
1 x,y,z
2 -x,1/2+y,-z
_cell_length_a                   9.2254(11)
_cell_length_b                   7.128(2)
_cell_length_c                   10.4260(10)
_cell_angle_alpha                90
_cell_angle_beta                 99.645(9)
_cell_angle_gamma                90
_cell_volume                     675.909
_exptl_crystal_colour            colorless
_exptl_crystal_description       plate
_cell_formula_units_Z            2
_exptl_crystal_recrystallization_method chloroform/methanol
loop_
_atom_site_label
_atom_site_type_symbol
_atom_site_fract_x
_atom_site_fract_y
_atom_site_fract_z
O1 O 0.4259(2) 0.0595(4) 0.50987(16)
O2 O 0.1148(3) -0.2788(3) 0.41536(19)
O3 O -0.1055(2) 0.2388(4) 0.23861(19)
O4 O 0.03640(18) 0.1858(3) 0.08800(15)
O5 O 0.5955(2) 0.0967(3) -0.10836(18)
O6 O 0.54607(17) 0.0805(3) 0.09254(15)
C1 C 0.3259(3) -0.0605(4) 0.4273(2)
H1 H 0.3718 -0.1619 0.3850
C2 C 0.1849(3) -0.1108(5) 0.4717(3)
H2 H 0.1801 -0.0878 0.5636
C3 C 0.0453(3) -0.1026(5) 0.3805(3)
H3 H -0.0434 -0.0733 0.4168
C4 C 0.0505(3) -0.0367(4) 0.2478(2)
C5 C 0.1309(3) -0.1009(4) 0.1638(2)
H4 H 0.1780 -0.2167 0.1690
C6 C 0.1347(3) 0.0402(4) 0.0599(2)
H5 H 0.0951 -0.0162 -0.0244
C7 C 0.2887(2) 0.1227(4) 0.05382(19)
H6 H 0.2826 0.2598 0.0567
C8 C 0.4184(2) 0.0575(4) 0.1579(2)
H7 H 0.4061 -0.0762 0.1753
C9 C 0.4597(3) 0.1598(5) 0.2868(2)
H8 H 0.5573 0.1194 0.3267
H9 H 0.4652 0.2930 0.2690
C10 C 0.3567(3) 0.1321(4) 0.3844(2)
C11 C 0.3418(3) 0.0653(4) -0.0729(2)
H10 H 0.3191 -0.0681 -0.0876
C12 C 0.5053(3) 0.0833(4) -0.0376(2)
C13 C 0.2748(3) 0.1703(5) -0.1947(2)
H11 H 0.3142 0.1222 -0.2677
H12 H 0.2977 0.3014 -0.1841
H13 H 0.1700 0.1539 -0.2095
C14 C 0.2557(3) 0.2918(5) 0.3963(3)
H14 H 0.1952 0.2621 0.4600
H15 H 0.1944 0.3138 0.3137
H16 H 0.3123 0.4024 0.4227
C15 C -0.0174(3) 0.1406(5) 0.1983(2)
loop_
_geom_bond_atom_site_label_1
_geom_bond_atom_site_label_2
_geom_bond_site_symmetry_1
_geom_bond_site_symmetry_2
O1 C1 1_555 1_555
O2 C2 1_555 1_555
O3 C15 1_555 1_555
O4 C6 1_555 1_555
O5 C12 1_555 1_555
O6 C8 1_555 1_555
C1 H1 1_555 1_555
C2 C1 1_555 1_555
H2 C2 1_555 1_555
C3 O2 1_555 1_555
H3 C3 1_555 1_555
C4 C3 1_555 1_555
C5 C4 1_555 1_555
H4 C5 1_555 1_555
C6 C5 1_555 1_555
H5 C6 1_555 1_555
C7 C6 1_555 1_555
H6 C7 1_555 1_555
C8 C7 1_555 1_555
H7 C8 1_555 1_555
C9 C8 1_555 1_555
H8 C9 1_555 1_555
H9 C9 1_555 1_555
C10 O1 1_555 1_555
C11 C7 1_555 1_555
H10 C11 1_555 1_555
C12 O6 1_555 1_555
C13 C11 1_555 1_555
H11 C13 1_555 1_555
H12 C13 1_555 1_555
H13 C13 1_555 1_555
C14 C10 1_555 1_555
H14 C14 1_555 1_555
H15 C14 1_555 1_555
H16 C14 1_555 1_555
C15 O4 1_555 1_555
C1 C10 1_555 1_555
C2 C3 1_555 1_555
C4 C15 1_555 1_555
C9 C10 1_555 1_555
C11 C12 1_555 1_555

#END
