
#######################################################################
#
#                 Cambridge Crystallographic Data Centre
#                                CCDC 
#
#######################################################################
#
# If this CIF has been generated from an entry in the Cambridge 
# Structural Database, then it will include bibliographic, chemical, 
# crystal, experimental, refinement or atomic coordinate data resulting 
# from the CCDC's data processing and validation procedures.
#
#######################################################################

data_DIBDUP
_chemical_formula_moiety         'C19 H22 N4 O2 S1'
_chemical_name_systematic        
2-((9-(2-(2-Methoxyethoxy)ethyl)-9H-carbazol-3-yl)methylene)hydrazinecarbothioamide
_symmetry_cell_setting           monoclinic
_symmetry_space_group_name_H-M   'P 21/c'
_symmetry_Int_Tables_number      14
_space_group_name_Hall           '-P 2ybc'
loop_
_symmetry_equiv_pos_site_id
_symmetry_equiv_pos_as_xyz
1 x,y,z
2 -x,1/2+y,1/2-z
3 -x,-y,-z
4 x,1/2-y,1/2+z
_cell_length_a                   14.769(5)
_cell_length_b                   8.279(5)
_cell_length_c                   17.166(5)
_cell_angle_alpha                90
_cell_angle_beta                 114.391(5)
_cell_angle_gamma                90
_cell_volume                     1911.6
_cell_formula_units_Z            4
loop_
_atom_site_label
_atom_site_type_symbol
_atom_site_fract_x
_atom_site_fract_y
_atom_site_fract_z
S1 S 1.48717(4) 1.30473(7) 0.40081(4)
O1 O 0.75371(10) 0.68218(16) 0.32757(9)
N1 N 0.79710(10) 1.03432(18) 0.37663(10)
N2 N 1.31015(11) 1.20003(19) 0.37737(10)
H1 H 1.3168 1.1315 0.3425
C1 C 1.06340(12) 1.0851(2) 0.35292(11)
C2 C 0.95118(12) 1.1460(2) 0.41781(10)
O2 O 0.66001(11) 0.41676(18) 0.20802(9)
C3 C 0.88047(12) 1.0392(2) 0.35959(11)
C4 C 0.90649(13) 1.2078(2) 0.47293(11)
C5 C 1.38291(14) 1.3054(2) 0.41830(12)
C6 C 0.81205(13) 1.1347(2) 0.44579(11)
C7 C 1.04169(13) 1.1693(2) 0.41378(11)
H2 H 1.0879 1.2405 0.4513
C8 C 1.15760(13) 1.1009(2) 0.34640(11)
H3 H 1.1700 1.0351 0.3080
C9 C 0.99160(13) 0.9784(2) 0.29651(11)
H4 H 1.0066 0.9218 0.2565
C10 C 0.93744(15) 1.3158(2) 0.54052(12)
H5 H 0.9994 1.3652 0.5590
N3 N 1.36748(13) 1.4062(2) 0.47124(13)
H6 H 1.3129 1.4017 0.4778
H7 H 1.4120 1.4764 0.4991
N4 N 1.22413(11) 1.20104(17) 0.39106(10)
C11 C 0.74983(14) 1.1671(3) 0.48608(13)
H8 H 0.6880 1.1176 0.4685
C12 C 0.90050(13) 0.9549(2) 0.29853(11)
H9 H 0.8539 0.8851 0.2604
C13 C 0.78260(17) 1.2750(3) 0.55297(15)
H10 H 0.7420 1.2990 0.5808
C14 C 0.70361(13) 0.9546(2) 0.32414(14)
H11 H 0.6968 0.9524 0.2655
H12 H 0.6494 1.0191 0.3254
C15 C 0.69280(17) 0.7860(3) 0.35025(16)
H13 H 0.7122 0.7817 0.4115
H14 H 0.6240 0.7520 0.3218
C16 C 0.87506(17) 1.3489(3) 0.57990(13)
H15 H 0.8951 1.4217 0.6252
C17 C 0.65538(19) 0.4334(3) 0.28838(15)
H16 H 0.6502 0.3278 0.3106
H17 H 0.5971 0.4958 0.2820
C18 C 0.74693(19) 0.5167(3) 0.34879(15)
H18 H 0.7488 0.5117 0.4059
H19 H 0.8046 0.4590 0.3498
C19 C 0.5763(2) 0.3376(4) 0.1457(2)
H20 H 0.5735 0.2285 0.1635
H21 H 0.5818 0.3371 0.0919
H22 H 0.5168 0.3938 0.1395
loop_
_geom_bond_atom_site_label_1
_geom_bond_atom_site_label_2
_geom_bond_site_symmetry_1
_geom_bond_site_symmetry_2
S1 C5 1_555 1_555
O1 C15 1_555 1_555
N1 C3 1_555 1_555
N2 H1 1_555 1_555
C1 C7 1_555 1_555
C2 C3 1_555 1_555
O2 C17 1_555 1_555
C3 C12 1_555 1_555
C4 C2 1_555 1_555
C5 N2 1_555 1_555
C6 N1 1_555 1_555
C7 C2 1_555 1_555
H2 C7 1_555 1_555
C8 C1 1_555 1_555
H3 C8 1_555 1_555
C9 C1 1_555 1_555
H4 C9 1_555 1_555
C10 C4 1_555 1_555
H5 C10 1_555 1_555
N3 C5 1_555 1_555
H6 N3 1_555 1_555
H7 N3 1_555 1_555
N4 N2 1_555 1_555
C11 C6 1_555 1_555
H8 C11 1_555 1_555
C12 C9 1_555 1_555
H9 C12 1_555 1_555
C13 C11 1_555 1_555
H10 C13 1_555 1_555
C14 N1 1_555 1_555
H11 C14 1_555 1_555
H12 C14 1_555 1_555
C15 C14 1_555 1_555
H13 C15 1_555 1_555
H14 C15 1_555 1_555
C16 C10 1_555 1_555
H15 C16 1_555 1_555
C17 H16 1_555 1_555
H17 C17 1_555 1_555
C18 O1 1_555 1_555
H18 C18 1_555 1_555
H19 C18 1_555 1_555
C19 O2 1_555 1_555
H20 C19 1_555 1_555
H21 C19 1_555 1_555
H22 C19 1_555 1_555
C4 C6 1_555 1_555
C8 N4 1_555 1_555
C13 C16 1_555 1_555
C17 C18 1_555 1_555

#END
