
#######################################################################
#
#                 Cambridge Crystallographic Data Centre
#                                CCDC 
#
#######################################################################
#
# If this CIF has been generated from an entry in the Cambridge 
# Structural Database, then it will include bibliographic, chemical, 
# crystal, experimental, refinement or atomic coordinate data resulting 
# from the CCDC's data processing and validation procedures.
#
#######################################################################

data_DIBGIG
_chemical_formula_moiety         'C20 H20 Cl1 F3 N2 O3'
_chemical_name_systematic        
'Methyl 2-(4-chlorophenyl)-1-(4-methoxyphenyl)-4-methyl-5-(trifluoromethyl)imidazolidine-4-carboxylate'
_symmetry_cell_setting           orthorhombic
_symmetry_space_group_name_H-M   'P 21 21 21'
_symmetry_Int_Tables_number      19
_space_group_name_Hall           'P 2ac 2ab'
loop_
_symmetry_equiv_pos_site_id
_symmetry_equiv_pos_as_xyz
1 x,y,z
2 1/2+x,1/2-y,-z
3 -x,1/2+y,1/2-z
4 1/2-x,-y,1/2+z
_cell_length_a                   10.1424(12)
_cell_length_b                   10.9573(13)
_cell_length_c                   19.058(2)
_cell_angle_alpha                90
_cell_angle_beta                 90
_cell_angle_gamma                90
_cell_volume                     2117.98
_cell_formula_units_Z            4
loop_
_atom_site_label
_atom_site_type_symbol
_atom_site_fract_x
_atom_site_fract_y
_atom_site_fract_z
C1 C 0.2805(5) -0.2968(2) 0.49153(13)
H1 H 0.1952 -0.3268 0.4781
H2 H 0.2904 -0.3031 0.5415
H3 H 0.3476 -0.3444 0.4689
C2 C 0.2973(2) -0.15001(17) 0.40040(9)
C3 C 0.26772(18) -0.23324(16) 0.34843(9)
H4 H 0.2445 -0.3126 0.3605
C4 C 0.27225(16) -0.19960(15) 0.27827(9)
H5 H 0.2515 -0.2568 0.2440
C5 C 0.30732(15) -0.08184(14) 0.25835(8)
C6 C 0.33768(17) 0.00128(15) 0.31160(9)
H6 H 0.3608 0.0809 0.3000
C7 C 0.3338(2) -0.03318(17) 0.38124(9)
H7 H 0.3560 0.0231 0.4158
C8 C 0.38182(15) 0.06807(13) 0.16776(8)
H8 H 0.4622 0.0737 0.1961
C9 C 0.42582(17) -0.07920(15) 0.08251(8)
C10 C 0.31671(17) -0.13264(14) 0.13076(8)
H9 H 0.3459 -0.2115 0.1494
C11 C 0.30242(15) 0.18432(14) 0.17723(8)
C12 C 0.36684(17) 0.29491(15) 0.17536(10)
H10 H 0.4582 0.2966 0.1712
C13 C 0.29754(19) 0.40384(16) 0.17964(11)
H11 H 0.3415 0.4783 0.1780
C14 C 0.16305(19) 0.39948(15) 0.18627(10)
C15 C 0.09633(18) 0.29102(18) 0.18996(12)
H12 H 0.0052 0.2898 0.1955
C16 C 0.16717(17) 0.18277(16) 0.18535(11)
H13 H 0.1230 0.1085 0.1877
C17 C 0.4219(2) -0.10818(19) 0.00395(9)
H14 H 0.3420 -0.0763 -0.0160
H15 H 0.4247 -0.1950 -0.0027
H16 H 0.4964 -0.0714 -0.0188
C18 C 0.55748(19) -0.13189(16) 0.10969(9)
C19 C 0.7863(2) -0.1062(3) 0.11866(16)
H17 H 0.8449 -0.0400 0.1295
H18 H 0.8202 -0.1511 0.0794
H19 H 0.7793 -0.1593 0.1585
C20 C 0.1830(2) -0.1476(2) 0.09645(10)
Cl1 Cl 0.07382(7) 0.53528(5) 0.19159(4)
F1 F 0.14028(12) -0.04826(14) 0.06301(7)
F2 F 0.18342(15) -0.23881(15) 0.04961(8)
F3 F 0.09011(12) -0.17574(13) 0.14353(7)
N1 N 0.30981(13) -0.04475(11) 0.18740(7)
N2 N 0.41856(14) 0.05183(12) 0.09437(7)
H20 H 0.3575 0.0856 0.0661
O1 O 0.2927(2) -0.17474(14) 0.47125(7)
O2 O 0.56801(19) -0.23240(16) 0.13174(13)
O3 O 0.65730(14) -0.05801(14) 0.10141(9)
loop_
_geom_bond_atom_site_label_1
_geom_bond_atom_site_label_2
_geom_bond_site_symmetry_1
_geom_bond_site_symmetry_2
C1 H1 1_555 1_555
H2 C1 1_555 1_555
H3 C1 1_555 1_555
C2 C3 1_555 1_555
C3 H4 1_555 1_555
C4 C3 1_555 1_555
H5 C4 1_555 1_555
C5 C4 1_555 1_555
C6 C5 1_555 1_555
H6 C6 1_555 1_555
C7 C2 1_555 1_555
H7 C7 1_555 1_555
C8 H8 1_555 1_555
C9 C10 1_555 1_555
C10 H9 1_555 1_555
C11 C8 1_555 1_555
C12 C11 1_555 1_555
H10 C12 1_555 1_555
C13 C12 1_555 1_555
H11 C13 1_555 1_555
C14 C13 1_555 1_555
C15 C14 1_555 1_555
H12 C15 1_555 1_555
C16 C11 1_555 1_555
H13 C16 1_555 1_555
C17 C9 1_555 1_555
H14 C17 1_555 1_555
H15 C17 1_555 1_555
H16 C17 1_555 1_555
C18 C9 1_555 1_555
C19 H17 1_555 1_555
H18 C19 1_555 1_555
H19 C19 1_555 1_555
C20 C10 1_555 1_555
Cl1 C14 1_555 1_555
F1 C20 1_555 1_555
F2 C20 1_555 1_555
F3 C20 1_555 1_555
N1 C5 1_555 1_555
N2 C8 1_555 1_555
H20 N2 1_555 1_555
O1 C1 1_555 1_555
O2 C18 1_555 1_555
O3 C18 1_555 1_555
C2 O1 1_555 1_555
C6 C7 1_555 1_555
C8 N1 1_555 1_555
C9 N2 1_555 1_555
C10 N1 1_555 1_555
C15 C16 1_555 1_555
C19 O3 1_555 1_555

#END
