
#######################################################################
#
#                 Cambridge Crystallographic Data Centre
#                                CCDC 
#
#######################################################################
#
# If this CIF has been generated from an entry in the Cambridge 
# Structural Database, then it will include bibliographic, chemical, 
# crystal, experimental, refinement or atomic coordinate data resulting 
# from the CCDC's data processing and validation procedures.
#
#######################################################################

data_DIBTIT
_chemical_formula_moiety         'C32 H22 N2 O1 S4'
_chemical_name_systematic        
2,2'-((2,5-Diphenylfuran-3,4-diyl)bis(methylenesulfanediyl))bis(1,3-benzothiazole)
_symmetry_cell_setting           monoclinic
_symmetry_space_group_name_H-M   'P 21/c'
_symmetry_Int_Tables_number      14
_space_group_name_Hall           '-P 2ybc'
loop_
_symmetry_equiv_pos_site_id
_symmetry_equiv_pos_as_xyz
1 x,y,z
2 -x,1/2+y,1/2-z
3 -x,-y,-z
4 x,1/2-y,1/2+z
_cell_length_a                   11.3848(19)
_cell_length_b                   5.3120(9)
_cell_length_c                   46.117(8)
_cell_angle_alpha                90
_cell_angle_beta                 96.154(3)
_cell_angle_gamma                90
_cell_volume                     2772.9
_exptl_crystal_colour            colorless
_exptl_crystal_description       block
_cell_formula_units_Z            4
loop_
_atom_site_label
_atom_site_type_symbol
_atom_site_fract_x
_atom_site_fract_y
_atom_site_fract_z
C1 C 0.0437(3) 0.4759(7) 0.83552(8)
C2 C 0.1553(3) 0.5412(7) 0.84697(8)
C3 C 0.1752(3) 0.4154(7) 0.87480(8)
C4 C 0.0752(3) 0.2845(8) 0.87844(8)
C5 C -0.0315(3) 0.5244(7) 0.80835(8)
C6 C -0.1235(3) 0.3592(8) 0.79954(8)
H1 H -0.1374 0.2219 0.8112
C7 C -0.1943(4) 0.3974(9) 0.77361(9)
H2 H -0.2550 0.2848 0.7679
C8 C -0.1755(4) 0.6005(9) 0.75637(9)
H3 H -0.2231 0.6249 0.7389
C9 C -0.0864(4) 0.7680(9) 0.76485(9)
H4 H -0.0745 0.9063 0.7531
C10 C -0.0142(4) 0.7327(8) 0.79069(9)
H5 H 0.0458 0.8473 0.7963
C11 C 0.0385(3) 0.1184(8) 0.90085(9)
C12 C -0.0399(4) -0.0802(9) 0.89384(11)
H6 H -0.0703 -0.1066 0.8745
C13 C -0.0725(5) -0.2380(10) 0.91551(13)
H7 H -0.1242 -0.3707 0.9107
C14 C -0.0290(5) -0.2001(10) 0.94406(12)
H8 H -0.0520 -0.3061 0.9585
C15 C 0.0494(4) -0.0037(10) 0.95163(10)
H9 H 0.0802 0.0199 0.9709
C16 C 0.0806(4) 0.1547(9) 0.93016(9)
H10 H 0.1309 0.2892 0.9352
C17 C 0.2428(4) 0.7090(8) 0.83445(9)
H11 H 0.3113 0.7268 0.8487
H12 H 0.2077 0.8745 0.8314
C18 C 0.3969(4) 0.3760(10) 0.81275(9)
C19 C 0.5042(4) 0.1121(10) 0.84199(11)
C20 C 0.5444(5) -0.0108(12) 0.86762(12)
H13 H 0.5156 0.0338 0.8850
C21 C 0.6269(5) -0.1989(13) 0.86720(15)
H14 H 0.6527 -0.2847 0.8843
C22 C 0.6719(5) -0.2613(13) 0.84141(18)
H15 H 0.7281 -0.3885 0.8415
C23 C 0.6351(5) -0.1381(12) 0.81544(15)
H16 H 0.6664 -0.1797 0.7982
C24 C 0.5498(4) 0.0498(10) 0.81594(11)
C25 C 0.2879(3) 0.4159(8) 0.89473(8)
H17 H 0.3545 0.4216 0.8833
H18 H 0.2936 0.2621 0.9061
C26 C 0.4318(3) 0.6288(7) 0.93846(8)
C27 C 0.6028(3) 0.4559(8) 0.95366(8)
C28 C 0.6958(4) 0.2885(10) 0.95500(11)
H19 H 0.6973 0.1621 0.9411
C29 C 0.7861(4) 0.3104(10) 0.97701(11)
H20 H 0.8492 0.1987 0.9778
C30 C 0.7852(4) 0.4947(10) 0.99802(10)
H21 H 0.8468 0.5040 1.0129
C31 C 0.6945(4) 0.6638(10) 0.99709(11)
H22 H 0.6939 0.7894 1.0111
C32 C 0.6031(4) 0.6441(8) 0.97474(9)
N1 N 0.4174(3) 0.2981(8) 0.83929(8)
N2 N 0.5028(3) 0.4511(7) 0.93323(7)
O1 O -0.0054(2) 0.3166(5) 0.85440(5)
S1 S 0.29272(10) 0.6022(3) 0.80020(2)
S2 S 0.48109(12) 0.2319(3) 0.78770(3)
S3 S 0.29345(9) 0.6861(2) 0.91908(2)
S4 S 0.47479(11) 0.8219(3) 0.96828(3)
loop_
_geom_bond_atom_site_label_1
_geom_bond_atom_site_label_2
_geom_bond_site_symmetry_1
_geom_bond_site_symmetry_2
C1 C2 1_555 1_555
C2 C3 1_555 1_555
C3 C4 1_555 1_555
C4 C11 1_555 1_555
C5 C1 1_555 1_555
C6 C5 1_555 1_555
H1 C6 1_555 1_555
C7 C6 1_555 1_555
H2 C7 1_555 1_555
C8 C7 1_555 1_555
H3 C8 1_555 1_555
C9 C8 1_555 1_555
H4 C9 1_555 1_555
C10 C5 1_555 1_555
H5 C10 1_555 1_555
C11 C12 1_555 1_555
C12 H6 1_555 1_555
C13 C12 1_555 1_555
H7 C13 1_555 1_555
C14 C13 1_555 1_555
H8 C14 1_555 1_555
C15 C14 1_555 1_555
H9 C15 1_555 1_555
C16 C11 1_555 1_555
H10 C16 1_555 1_555
C17 C2 1_555 1_555
H11 C17 1_555 1_555
H12 C17 1_555 1_555
C18 N1 1_555 1_555
C19 C20 1_555 1_555
C20 H13 1_555 1_555
C21 C20 1_555 1_555
H14 C21 1_555 1_555
C22 C21 1_555 1_555
H15 C22 1_555 1_555
C23 C22 1_555 1_555
H16 C23 1_555 1_555
C24 C19 1_555 1_555
C25 C3 1_555 1_555
H17 C25 1_555 1_555
H18 C25 1_555 1_555
C26 N2 1_555 1_555
C27 C28 1_555 1_555
C28 H19 1_555 1_555
C29 C28 1_555 1_555
H20 C29 1_555 1_555
C30 C29 1_555 1_555
H21 C30 1_555 1_555
C31 C30 1_555 1_555
H22 C31 1_555 1_555
C32 C27 1_555 1_555
N1 C19 1_555 1_555
N2 C27 1_555 1_555
O1 C1 1_555 1_555
S1 C17 1_555 1_555
S2 C18 1_555 1_555
S3 C25 1_555 1_555
S4 C26 1_555 1_555
C4 O1 1_555 1_555
C9 C10 1_555 1_555
C15 C16 1_555 1_555
C18 S1 1_555 1_555
C23 C24 1_555 1_555
C24 S2 1_555 1_555
C26 S3 1_555 1_555
C31 C32 1_555 1_555
C32 S4 1_555 1_555

#END
