
#######################################################################
#
#                 Cambridge Crystallographic Data Centre
#                                CCDC 
#
#######################################################################
#
# If this CIF has been generated from an entry in the Cambridge 
# Structural Database, then it will include bibliographic, chemical, 
# crystal, experimental, refinement or atomic coordinate data resulting 
# from the CCDC's data processing and validation procedures.
#
#######################################################################

data_DIBVEQ
_chemical_formula_moiety         'C14 H4 O6,2(C7 H7 N1 O2),C4 H8 O2'
_chemical_name_systematic        
'1,4,5,8-Naphthalenetetracarboxylic dianhydride bis(3-aminobenzoic acid) dioxane solvate'
_symmetry_cell_setting           triclinic
_symmetry_space_group_name_H-M   'P -1'
_symmetry_Int_Tables_number      2
_space_group_name_Hall           '-P 1'
loop_
_symmetry_equiv_pos_site_id
_symmetry_equiv_pos_as_xyz
1 x,y,z
2 -x,-y,-z
_cell_length_a                   7.006(2)
_cell_length_b                   9.990(3)
_cell_length_c                   10.190(4)
_cell_angle_alpha                83.081(7)
_cell_angle_beta                 81.603(7)
_cell_angle_gamma                76.866(8)
_cell_volume                     684.27
_exptl_crystal_description       plate
_cell_formula_units_Z            1
loop_
_atom_site_label
_atom_site_type_symbol
_atom_site_fract_x
_atom_site_fract_y
_atom_site_fract_z
N1 N 0.2798(4) -0.0324(3) 0.8309(3)
H1 H 0.3520 -0.0992 0.7848
H2 H 0.2365 -0.0504 0.9153
O1 O 0.3943(4) 0.1956(2) 0.3592(2)
O2 O 0.3192(4) 0.4199(2) 0.3910(2)
H3 H 0.3664 0.4275 0.3104
C1 C 0.2528(5) 0.2635(3) 0.5747(3)
C2 C 0.1321(5) 0.3693(3) 0.6451(4)
H4 H 0.0992 0.4603 0.6032
C3 C 0.0605(5) 0.3394(4) 0.7779(3)
H5 H -0.0244 0.4104 0.8259
C4 C 0.1109(5) 0.2087(3) 0.8404(4)
H6 H 0.0622 0.1905 0.9313
C5 C 0.2341(5) 0.1020(4) 0.7704(3)
C6 C 0.3024(5) 0.1309(3) 0.6370(3)
H7 H 0.3836 0.0593 0.5881
C7 C 0.3297(5) 0.2874(3) 0.4321(3)
O3 O 1.1591(3) 0.0927(2) 0.1659(2)
O4 O 0.9791(4) 0.3044(2) 0.1780(2)
O5 O 1.3354(4) -0.1165(2) 0.1401(2)
C8 C 0.8231(5) 0.2456(3) 0.4512(3)
H8 H 0.7729 0.3358 0.4123
C9 C 0.9537(5) 0.1524(4) 0.3751(3)
C10 C 1.0313(5) 0.0187(3) 0.4324(3)
C11 C 1.1659(5) -0.0797(3) 0.3574(3)
C12 C 0.7632(5) 0.2095(4) 0.5848(3)
H9 H 0.6727 0.2752 0.6361
C13 C 1.0239(5) 0.1934(4) 0.2363(3)
C14 C 1.2292(5) -0.0422(4) 0.2162(4)
O3A O 0.8409(3) -0.0927(2) 0.8341(2)
O4A O 1.0209(4) -0.3044(2) 0.8220(2)
O5A O 0.6646(4) 0.1165(2) 0.8599(2)
C8A C 1.1769(5) -0.2456(3) 0.5488(3)
H8A H 1.2271 -0.3358 0.5877
C9A C 1.0463(5) -0.1524(4) 0.6249(3)
C10A C 0.9687(5) -0.0187(3) 0.5676(3)
C11A C 0.8341(5) 0.0797(3) 0.6426(3)
C12A C 1.2368(5) -0.2095(4) 0.4152(3)
H9A H 1.3273 -0.2752 0.3639
C13A C 0.9761(5) -0.1934(4) 0.7637(3)
C14A C 0.7708(5) 0.0422(4) 0.7838(4)
O6 O 0.4432(4) 0.4649(2) 0.1352(2)
C15 C 0.4733(6) 0.3657(4) 0.0385(4)
H10 H 0.3853 0.3000 0.0671
H11 H 0.6116 0.3127 0.0318
C16 C 0.5705(6) 0.5607(4) 0.0948(4)
H12 H 0.7102 0.5106 0.0889
H13 H 0.5489 0.6286 0.1616
O6A O 0.5568(4) 0.5351(2) -0.1352(2)
C15A C 0.5267(6) 0.6343(4) -0.0385(4)
H10A H 0.6147 0.7000 -0.0671
H11A H 0.3884 0.6873 -0.0318
C16A C 0.4295(6) 0.4393(4) -0.0948(4)
H12A H 0.2898 0.4894 -0.0889
H13A H 0.4511 0.3714 -0.1616
loop_
_geom_bond_atom_site_label_1
_geom_bond_atom_site_label_2
_geom_bond_site_symmetry_1
_geom_bond_site_symmetry_2
N1 H1 1_555 1_555
H2 N1 1_555 1_555
O1 C7 1_555 1_555
O2 H3 1_555 1_555
C1 C2 1_555 1_555
C2 H4 1_555 1_555
C3 C2 1_555 1_555
H5 C3 1_555 1_555
C4 C3 1_555 1_555
H6 C4 1_555 1_555
C5 N1 1_555 1_555
C6 C1 1_555 1_555
H7 C6 1_555 1_555
C7 O2 1_555 1_555
O3 C13 1_555 1_555
O4 C13 1_555 1_555
O5 C14 1_555 1_555
C8 H8 1_555 1_555
C9 C8 1_555 1_555
C10 C9 1_555 1_555
C11 C10 1_555 1_555
C12 C8 1_555 1_555
H9 C12 1_555 1_555
C13 C9 1_555 1_555
C14 O3 1_555 1_555
O6 C15 1_555 1_555
C15 H10 1_555 1_555
H11 C15 1_555 1_555
C16 O6 1_555 1_555
H12 C16 1_555 1_555
H13 C16 1_555 1_555
O3A C13A 1_555 1_555
O4A C13A 1_555 1_555
O5A C14A 1_555 1_555
C8A H8A 1_555 1_555
C9A C8A 1_555 1_555
C10A C10 1_555 1_555
C11A C12 1_555 1_555
C12A C11 1_555 1_555
H9A C12A 1_555 1_555
C13A C9A 1_555 1_555
C14A O3A 1_555 1_555
O6A C15A 1_555 1_555
C15A C16 1_555 1_555
H10A C15A 1_555 1_555
H11A C15A 1_555 1_555
C16A C15 1_555 1_555
H12A C16A 1_555 1_555
H13A C16A 1_555 1_555
C1 C7 1_555 1_555
C4 C5 1_555 1_555
C5 C6 1_555 1_555
C11 C14 1_555 1_555
C8A C12A 1_555 1_555
C9A C10A 1_555 1_555
C10A C11A 1_555 1_555
C11A C14A 1_555 1_555
O6A C16A 1_555 1_555

#END
