
#######################################################################
#
#                 Cambridge Crystallographic Data Centre
#                                CCDC 
#
#######################################################################
#
# If this CIF has been generated from an entry in the Cambridge 
# Structural Database, then it will include bibliographic, chemical, 
# crystal, experimental, refinement or atomic coordinate data resulting 
# from the CCDC's data processing and validation procedures.
#
#######################################################################

data_DIBVAM
_chemical_formula_moiety         'C28 H16 N4 O8,0.67(C3 H7 N1 O1)'
_chemical_name_systematic        
'tris(2,7-bis(2-Methyl-4-nitrophenyl)benzo(lmn)(3,8)phenanthroline-1,3,6,8(2H,7H)-tetrone) bis(dimethylformamide)'
_symmetry_cell_setting           triclinic
_symmetry_space_group_name_H-M   'P -1'
_symmetry_Int_Tables_number      2
_space_group_name_Hall           '-P 1'
loop_
_symmetry_equiv_pos_site_id
_symmetry_equiv_pos_as_xyz
1 x,y,z
2 -x,-y,-z
_cell_length_a                   11.405(2)
_cell_length_b                   12.457(2)
_cell_length_c                   15.885(3)
_cell_angle_alpha                90.911(3)
_cell_angle_beta                 100.914(3)
_cell_angle_gamma                115.482(2)
_cell_volume                     1988.32
_exptl_crystal_colour            colorless
_exptl_crystal_description       block
_cell_formula_units_Z            3
loop_
_atom_site_label
_atom_site_type_symbol
_atom_site_fract_x
_atom_site_fract_y
_atom_site_fract_z
O1 O -0.0733(8) 0.8056(6) 0.2133(4)
O2 O 0.1625(8) 0.7547(7) 0.0290(5)
O3 O 0.0398(12) 0.3149(9) 0.2690(6)
O4 O 0.1844(9) 0.4488(7) 0.3735(6)
N1 N 0.0460(9) 0.7828(7) 0.1215(5)
N2 N 0.1047(11) 0.4166(9) 0.3032(7)
C1 C 0.1067(11) 0.8070(9) 0.0499(7)
C2 C 0.0835(11) 0.9018(9) -0.0013(6)
C3 C 0.1386(12) 0.9318(8) -0.0709(6)
H1 H 0.1915 0.8960 -0.0861
C4 C 0.0111(12) 0.9574(8) 0.0249(6)
C5 C -0.0477(11) 0.9262(8) 0.0972(6)
C6 C 0.1164(12) 1.0176(9) -0.1211(7)
H2 H 0.1502 1.0356 -0.1721
C7 C -0.0265(11) 0.8356(8) 0.1503(7)
C8 C 0.0627(12) 0.6884(9) 0.1698(7)
C9 C 0.1601(12) 0.7225(9) 0.2411(7)
C10 C 0.1785(14) 0.6321(11) 0.2866(7)
H3 H 0.2484 0.6508 0.3360
C11 C 0.0898(13) 0.5159(10) 0.2555(7)
C12 C -0.0112(14) 0.4816(10) 0.1846(7)
H4 H -0.0686 0.3996 0.1657
C13 C -0.0263(13) 0.5715(9) 0.1413(7)
H5 H -0.0971 0.5529 0.0925
C14 C 0.2549(11) 0.8507(9) 0.2739(7)
H6 H 0.2921 0.8926 0.2266
H7 H 0.3272 0.8533 0.3198
H8 H 0.2073 0.8898 0.2968
O1A O 0.0733(8) 1.1944(6) -0.2133(4)
O2A O -0.1625(8) 1.2453(7) -0.0290(5)
O3A O -0.0398(12) 1.6851(9) -0.2690(6)
O4A O -0.1844(9) 1.5512(7) -0.3735(6)
N1A N -0.0460(9) 1.2172(7) -0.1215(5)
N2A N -0.1047(11) 1.5834(9) -0.3032(7)
C1A C -0.1067(11) 1.1930(9) -0.0499(7)
C2A C -0.0835(11) 1.0982(9) 0.0013(6)
C3A C -0.1386(12) 1.0682(8) 0.0709(6)
H1A H -0.1915 1.1040 0.0861
C4A C -0.0111(12) 1.0426(8) -0.0249(6)
C5A C 0.0477(11) 1.0738(8) -0.0972(6)
C6A C -0.1164(12) 0.9824(9) 0.1211(7)
H2A H -0.1502 0.9644 0.1721
C7A C 0.0265(11) 1.1644(8) -0.1503(7)
C8A C -0.0627(12) 1.3116(9) -0.1698(7)
C9A C -0.1601(12) 1.2775(9) -0.2411(7)
C10A C -0.1785(14) 1.3679(11) -0.2866(7)
H3A H -0.2484 1.3492 -0.3360
C11A C -0.0898(13) 1.4841(10) -0.2555(7)
C12A C 0.0112(14) 1.5184(10) -0.1846(7)
H4A H 0.0686 1.6004 -0.1657
C13A C 0.0263(13) 1.4285(9) -0.1413(7)
H5A H 0.0971 1.4471 -0.0925
C14A C -0.2549(11) 1.1493(9) -0.2739(7)
H6A H -0.2921 1.1074 -0.2266
H7A H -0.3272 1.1467 -0.3198
H8A H -0.2073 1.1102 -0.2968
O5 O 0.6716(7) 0.3670(5) 1.0800(4)
O6 O 0.5121(8) 0.2156(5) 0.7983(4)
O7 O 0.8211(11) 0.8107(7) 0.8274(5)
O8 O 0.6374(10) 0.7980(7) 0.8586(6)
N3 N 0.5850(8) 0.2906(6) 0.9396(5)
N4 N 0.7233(13) 0.7612(9) 0.8539(5)
C15 C 0.6171(11) 0.2799(8) 1.0280(6)
C16 C 0.5744(10) 0.1555(7) 1.0519(6)
C17 C 0.5958(11) 0.1378(8) 1.1377(6)
H9 H 0.6331 0.2043 1.1808
C18 C 0.5629(10) 0.0222(8) 1.1620(6)
H10 H 0.5815 0.0108 1.2211
C19 C 0.5176(9) 0.0581(7) 0.9886(6)
C20 C 0.5038(12) -0.0745(9) 1.0998(6)
C21 C 0.5287(10) 0.1939(8) 0.8730(6)
C22 C 0.6158(14) 0.4088(10) 0.9161(6)
C23 C 0.7464(14) 0.4821(10) 0.9115(6)
H11 H 0.8120 0.4535 0.9234
C24 C 0.7800(12) 0.5961(9) 0.8898(6)
H12 H 0.8690 0.6481 0.8874
C25 C 0.6813(15) 0.6331(10) 0.8716(6)
C26 C 0.5533(13) 0.5625(9) 0.8750(6)
H13 H 0.4893 0.5932 0.8641
C27 C 0.5147(12) 0.4442(8) 0.8947(6)
C28 C 0.3749(12) 0.3633(9) 0.8962(6)
H14 H 0.3324 0.3104 0.8420
H15 H 0.3270 0.4108 0.9030
H16 H 0.3729 0.3152 0.9446
O5A O 0.3284(7) -0.3670(5) 0.9200(4)
O6A O 0.4879(8) -0.2156(5) 1.2017(4)
O7A O 0.1789(11) -0.8107(7) 1.1726(5)
O8A O 0.3626(10) -0.7980(7) 1.1414(6)
N3A N 0.4150(8) -0.2906(6) 1.0604(5)
N4A N 0.2767(13) -0.7612(9) 1.1461(5)
C15A C 0.3829(11) -0.2799(8) 0.9720(6)
C16A C 0.4256(10) -0.1555(7) 0.9481(6)
C17A C 0.4042(11) -0.1378(8) 0.8623(6)
H9A H 0.3669 -0.2043 0.8192
C18A C 0.4371(10) -0.0222(8) 0.8380(6)
H10A H 0.4185 -0.0108 0.7789
C19A C 0.4824(9) -0.0581(7) 1.0114(6)
C20A C 0.4962(12) 0.0745(9) 0.9002(6)
C21A C 0.4713(10) -0.1939(8) 1.1270(6)
C22A C 0.3842(14) -0.4088(10) 1.0839(6)
C23A C 0.2536(14) -0.4821(10) 1.0885(6)
H11A H 0.1880 -0.4535 1.0766
C24A C 0.2200(12) -0.5961(9) 1.1102(6)
H12A H 0.1310 -0.6481 1.1126
C25A C 0.3187(15) -0.6331(10) 1.1284(6)
C26A C 0.4467(13) -0.5625(9) 1.1250(6)
H13A H 0.5107 -0.5932 1.1359
C27A C 0.4853(12) -0.4442(8) 1.1053(6)
C28A C 0.6251(12) -0.3633(9) 1.1038(6)
H14A H 0.6676 -0.3104 1.1580
H15A H 0.6730 -0.4108 1.0970
H16A H 0.6271 -0.3152 1.0554
O9 O 0.7369(8) 0.2085(6) 0.3181(4)
O10 O 0.9527(8) 0.1641(6) 0.5738(4)
O11 O 0.6548(9) -0.3558(6) 0.3143(5)
O12 O 0.4851(10) -0.3624(7) 0.3643(5)
N5 N 0.8608(8) 0.1912(7) 0.4421(5)
N6 N 0.5896(12) -0.3138(8) 0.3456(6)
C29 C 0.8179(10) 0.2578(8) 0.3838(6)
C30 C 0.8800(9) 0.3863(7) 0.4105(6)
C31 C 0.8438(12) 0.4589(9) 0.3562(6)
H17 H 0.7761 0.4243 0.3052
C32 C 0.9676(10) 0.4385(7) 0.4884(6)
C33 C 1.0104(11) 0.3672(8) 0.5473(6)
C34 C 0.9086(9) 0.5844(8) 0.3775(6)
H18 H 0.8933 0.6345 0.3367
C35 C 0.9408(10) 0.2354(8) 0.5236(6)
C36 C 0.7943(14) 0.0607(11) 0.4169(6)
C37 C 0.8677(11) 0.0063(10) 0.3882(6)
C38 C 0.7911(13) -0.1216(9) 0.3625(6)
H19 H 0.8288 -0.1648 0.3367
C39 C 0.6677(13) -0.1779(10) 0.3753(6)
C40 C 0.5957(11) -0.1258(10) 0.4067(6)
H20 H 0.5058 -0.1702 0.4110
C41 C 0.6704(15) 0.0025(10) 0.4322(6)
H21 H 0.6327 0.0447 0.4592
C42 C 1.0043(15) 0.0719(10) 0.3787(7)
H22 H 1.0112 0.1370 0.3432
H23 H 1.0308 0.0175 0.3509
H24 H 1.0632 0.1052 0.4357
O9A O 1.2631(8) 0.7915(6) 0.6819(4)
O10A O 1.0473(8) 0.8359(6) 0.4262(4)
O11A O 1.3452(9) 1.3558(6) 0.6857(5)
O12A O 1.5149(10) 1.3624(7) 0.6357(5)
N5A N 1.1392(8) 0.8088(7) 0.5579(5)
N6A N 1.4104(12) 1.3138(8) 0.6544(6)
C29A C 1.1821(10) 0.7422(8) 0.6162(6)
C30A C 1.1200(9) 0.6137(7) 0.5895(6)
C31A C 1.1562(12) 0.5411(9) 0.6438(6)
H17A H 1.2239 0.5757 0.6948
C32A C 1.0324(10) 0.5615(7) 0.5116(6)
C33A C 0.9896(11) 0.6328(8) 0.4527(6)
C34A C 1.0914(9) 0.4156(8) 0.6225(6)
H18A H 1.1067 0.3655 0.6633
C35A C 1.0592(10) 0.7646(8) 0.4764(6)
C36A C 1.2057(14) 0.9393(11) 0.5831(6)
C37A C 1.1323(11) 0.9937(10) 0.6118(6)
C38A C 1.2089(13) 1.1216(9) 0.6375(6)
H19A H 1.1712 1.1648 0.6633
C39A C 1.3323(13) 1.1779(10) 0.6247(6)
C40A C 1.4043(11) 1.1258(10) 0.5933(6)
H20A H 1.4942 1.1702 0.5890
C41A C 1.3296(15) 0.9975(10) 0.5678(6)
H21A H 1.3673 0.9553 0.5408
C42A C 0.9957(15) 0.9281(10) 0.6213(7)
H22A H 0.9888 0.8630 0.6568
H23A H 0.9692 0.9825 0.6491
H24A H 0.9368 0.8948 0.5643
O13 O 0.6503(10) 0.2461(7) 0.5017(5)
N7 N 0.4927(12) 0.2813(8) 0.4112(6)
C43 C 0.6009(14) 0.3144(11) 0.4745(8)
H25 H 0.6429 0.3948 0.5004
C44 C 0.4390(19) 0.3669(12) 0.3855(9)
H26 H 0.4919 0.4427 0.4226
H27 H 0.3463 0.3344 0.3915
H28 H 0.4430 0.3807 0.3253
C45 C 0.4181(15) 0.1594(10) 0.3681(7)
H29 H 0.4737 0.1169 0.3788
H30 H 0.3929 0.1618 0.3059
H31 H 0.3378 0.1176 0.3908
loop_
_geom_bond_atom_site_label_1
_geom_bond_atom_site_label_2
_geom_bond_site_symmetry_1
_geom_bond_site_symmetry_2
O1 C7 1_555 1_555
O2 C1 1_555 1_555
O3 N2 1_555 1_555
O4 N2 1_555 1_555
N1 C1 1_555 1_555
N2 C11 1_555 1_555
C1 C2 1_555 1_555
C2 C3 1_555 1_555
C3 H1 1_555 1_555
C4 C2 1_555 1_555
C5 C4 1_555 1_555
C6 C3 1_555 1_555
H2 C6 1_555 1_555
C7 N1 1_555 1_555
C8 N1 1_555 1_555
C9 C8 1_555 1_555
C10 C9 1_555 1_555
H3 C10 1_555 1_555
C11 C10 1_555 1_555
C12 C11 1_555 1_555
H4 C12 1_555 1_555
C13 C8 1_555 1_555
H5 C13 1_555 1_555
C14 C9 1_555 1_555
H6 C14 1_555 1_555
H7 C14 1_555 1_555
H8 C14 1_555 1_555
O5 C15 1_555 1_555
O6 C21 1_555 1_555
O7 N4 1_555 1_555
O8 N4 1_555 1_555
N3 C15 1_555 1_555
N4 C25 1_555 1_555
C15 C16 1_555 1_555
C16 C17 1_555 1_555
C17 H9 1_555 1_555
C18 C17 1_555 1_555
H10 C18 1_555 1_555
C19 C16 1_555 1_555
C20 C18 1_555 1_555
C21 N3 1_555 1_555
C22 N3 1_555 1_555
C23 C22 1_555 1_555
H11 C23 1_555 1_555
C24 C23 1_555 1_555
H12 C24 1_555 1_555
C25 C24 1_555 1_555
C26 C25 1_555 1_555
H13 C26 1_555 1_555
C27 C22 1_555 1_555
C28 C27 1_555 1_555
H14 C28 1_555 1_555
H15 C28 1_555 1_555
H16 C28 1_555 1_555
O9 C29 1_555 1_555
O10 C35 1_555 1_555
O11 N6 1_555 1_555
O12 N6 1_555 1_555
N5 C29 1_555 1_555
N6 C39 1_555 1_555
C29 C30 1_555 1_555
C30 C31 1_555 1_555
C31 H17 1_555 1_555
C32 C30 1_555 1_555
C33 C32 1_555 1_555
C34 C31 1_555 1_555
H18 C34 1_555 1_555
C35 N5 1_555 1_555
C36 N5 1_555 1_555
C37 C36 1_555 1_555
C38 C37 1_555 1_555
H19 C38 1_555 1_555
C39 C38 1_555 1_555
C40 C39 1_555 1_555
H20 C40 1_555 1_555
C41 C36 1_555 1_555
H21 C41 1_555 1_555
C42 C37 1_555 1_555
H22 C42 1_555 1_555
H23 C42 1_555 1_555
H24 C42 1_555 1_555
O13 C43 1_555 1_555
N7 C43 1_555 1_555
C43 H25 1_555 1_555
C44 N7 1_555 1_555
H26 C44 1_555 1_555
H27 C44 1_555 1_555
H28 C44 1_555 1_555
C45 N7 1_555 1_555
H29 C45 1_555 1_555
H30 C45 1_555 1_555
H31 C45 1_555 1_555
O1A C7A 1_555 1_555
O2A C1A 1_555 1_555
O3A N2A 1_555 1_555
O4A N2A 1_555 1_555
N1A C1A 1_555 1_555
N2A C11A 1_555 1_555
C1A C2A 1_555 1_555
C2A C3A 1_555 1_555
C3A H1A 1_555 1_555
C4A C4 1_555 1_555
C5A C6 1_555 1_555
C6A C5 1_555 1_555
H2A C6A 1_555 1_555
C7A N1A 1_555 1_555
C8A N1A 1_555 1_555
C9A C8A 1_555 1_555
C10A C9A 1_555 1_555
H3A C10A 1_555 1_555
C11A C10A 1_555 1_555
C12A C11A 1_555 1_555
H4A C12A 1_555 1_555
C13A C8A 1_555 1_555
H5A C13A 1_555 1_555
C14A C9A 1_555 1_555
H6A C14A 1_555 1_555
H7A C14A 1_555 1_555
H8A C14A 1_555 1_555
O5A C15A 1_555 1_555
O6A C21A 1_555 1_555
O7A N4A 1_555 1_555
O8A N4A 1_555 1_555
N3A C15A 1_555 1_555
N4A C25A 1_555 1_555
C15A C16A 1_555 1_555
C16A C17A 1_555 1_555
C17A H9A 1_555 1_555
C18A C17A 1_555 1_555
H10A C18A 1_555 1_555
C19A C19 1_555 1_555
C20A C19 1_555 1_555
C21A C20 1_555 1_555
C22A N3A 1_555 1_555
C23A C22A 1_555 1_555
H11A C23A 1_555 1_555
C24A C23A 1_555 1_555
H12A C24A 1_555 1_555
C25A C24A 1_555 1_555
C26A C25A 1_555 1_555
H13A C26A 1_555 1_555
C27A C22A 1_555 1_555
C28A C27A 1_555 1_555
H14A C28A 1_555 1_555
H15A C28A 1_555 1_555
H16A C28A 1_555 1_555
O9A C29A 1_555 1_555
O10A C35A 1_555 1_555
O11A N6A 1_555 1_555
O12A N6A 1_555 1_555
N5A C29A 1_555 1_555
N6A C39A 1_555 1_555
C29A C30A 1_555 1_555
C30A C31A 1_555 1_555
C31A H17A 1_555 1_555
C32A C32 1_555 1_555
C33A C34 1_555 1_555
C34A C33 1_555 1_555
H18A C34A 1_555 1_555
C35A N5A 1_555 1_555
C36A N5A 1_555 1_555
C37A C36A 1_555 1_555
C38A C37A 1_555 1_555
H19A C38A 1_555 1_555
C39A C38A 1_555 1_555
C40A C39A 1_555 1_555
H20A C40A 1_555 1_555
C41A C36A 1_555 1_555
H21A C41A 1_555 1_555
C42A C37A 1_555 1_555
H22A C42A 1_555 1_555
H23A C42A 1_555 1_555
H24A C42A 1_555 1_555
C5 C7 1_555 1_555
C12 C13 1_555 1_555
C20 C19A 1_555 1_555
C21 C20A 1_555 1_555
C26 C27 1_555 1_555
C33 C35 1_555 1_555
C40 C41 1_555 1_555
C2A C4A 1_555 1_555
C3A C6A 1_555 1_555
C4A C5A 1_555 1_555
C5A C7A 1_555 1_555
C12A C13A 1_555 1_555
N3A C21A 1_555 1_555
C16A C19A 1_555 1_555
C18A C20A 1_555 1_555
C26A C27A 1_555 1_555
C30A C32A 1_555 1_555
C31A C34A 1_555 1_555
C32A C33A 1_555 1_555
C33A C35A 1_555 1_555
C40A C41A 1_555 1_555

#END
