
#######################################################################
#
#                 Cambridge Crystallographic Data Centre
#                                CCDC 
#
#######################################################################
#
# If this CIF has been generated from an entry in the Cambridge 
# Structural Database, then it will include bibliographic, chemical, 
# crystal, experimental, refinement or atomic coordinate data resulting 
# from the CCDC's data processing and validation procedures.
#
#######################################################################

data_DIBVOA
_chemical_formula_moiety         'C28 H16 N4 O8,0.67(C2 H6 O1 S1)'
_chemical_name_systematic        
'2,7-bis(2-Methyl-4-nitrophenyl)benzo(lmn)(3,8)phenanthroline-1,3,6,8(2H,7H)-tetrone dimethylsulfoxide solvate'
_symmetry_cell_setting           triclinic
_symmetry_space_group_name_H-M   'P -1'
_symmetry_Int_Tables_number      2
_space_group_name_Hall           '-P 1'
loop_
_symmetry_equiv_pos_site_id
_symmetry_equiv_pos_as_xyz
1 x,y,z
2 -x,-y,-z
_cell_length_a                   11.309(3)
_cell_length_b                   12.204(4)
_cell_length_c                   16.403(5)
_cell_angle_alpha                89.651(6)
_cell_angle_beta                 77.343(5)
_cell_angle_gamma                64.623(6)
_cell_volume                     1985.78
_exptl_crystal_colour            colorless
_exptl_crystal_description       plate
_cell_formula_units_Z            3
loop_
_atom_site_label
_atom_site_type_symbol
_atom_site_fract_x
_atom_site_fract_y
_atom_site_fract_z
O1 O 0.4903(6) 0.2220(5) 0.8019(4)
O2 O 0.3217(6) 0.3751(6) 1.0769(4)
O3 O 0.1850(7) 0.8275(6) 0.8270(4)
O4 O 0.3795(9) 0.8028(6) 0.8330(6)
N1 N 0.4165(6) 0.2967(7) 0.9409(5)
N2 N 0.2951(10) 0.7680(8) 0.8409(5)
C1 C 0.4740(8) 0.1996(9) 0.8751(6)
C2 C 0.5074(8) 0.0767(9) 0.9018(5)
C3 C 0.4812(8) 0.0590(7) 0.9875(6)
C4 C 0.4211(8) 0.1577(8) 1.0512(6)
C5 C 0.3962(8) 0.1411(8) 1.1335(6)
H1 H 0.3534 0.2095 1.1745
C6 C 0.5667(8) -0.0227(8) 0.8410(6)
H2 H 0.5819 -0.0108 0.7830
C7 C 0.3802(9) 0.2853(9) 1.0264(6)
C8 C 0.3870(10) 0.4162(9) 0.9154(5)
C9 C 0.2547(9) 0.4944(9) 0.9138(5)
H3 H 0.1856 0.4685 0.9301
C10 C 0.2240(9) 0.6097(9) 0.8885(5)
H4 H 0.1348 0.6634 0.8857
C11 C 0.3266(10) 0.6443(9) 0.8676(5)
C12 C 0.4575(10) 0.5680(8) 0.8665(5)
H5 H 0.5262 0.5937 0.8476
C13 C 0.4899(9) 0.4519(8) 0.8935(5)
C14 C 0.6328(8) 0.3681(7) 0.8942(6)
H6 H 0.6340 0.3231 0.9439
H7 H 0.6833 0.4160 0.8956
H8 H 0.6745 0.3105 0.8434
O1A O 0.5097(6) -0.2220(5) 1.1981(4)
O2A O 0.6783(6) -0.3751(6) 0.9231(4)
O3A O 0.8150(7) -0.8275(6) 1.1730(4)
O4A O 0.6205(9) -0.8028(6) 1.1670(6)
N1A N 0.5835(6) -0.2967(7) 1.0591(5)
N2A N 0.7049(10) -0.7680(8) 1.1591(5)
C1A C 0.5260(8) -0.1996(9) 1.1249(6)
C2A C 0.4926(8) -0.0767(9) 1.0982(5)
C3A C 0.5188(8) -0.0590(7) 1.0125(6)
C4A C 0.5789(8) -0.1577(8) 0.9488(6)
C5A C 0.6038(8) -0.1411(8) 0.8665(6)
H1A H 0.6466 -0.2095 0.8255
C6A C 0.4333(8) 0.0227(8) 1.1590(6)
H2A H 0.4181 0.0108 1.2170
C7A C 0.6198(9) -0.2853(9) 0.9736(6)
C8A C 0.6130(10) -0.4162(9) 1.0846(5)
C9A C 0.7453(9) -0.4944(9) 1.0862(5)
H3A H 0.8144 -0.4685 1.0699
C10A C 0.7760(9) -0.6097(9) 1.1115(5)
H4A H 0.8652 -0.6634 1.1143
C11A C 0.6734(10) -0.6443(9) 1.1324(5)
C12A C 0.5425(10) -0.5680(8) 1.1335(5)
H5A H 0.4738 -0.5937 1.1524
C13A C 0.5101(9) -0.4519(8) 1.1065(5)
C14A C 0.3672(8) -0.3681(7) 1.1058(6)
H6A H 0.3660 -0.3231 1.0561
H7A H 0.3167 -0.4160 1.1044
H8A H 0.3255 -0.3105 1.1566
O5 O 0.9241(6) 0.8499(6) 0.4260(4)
O6 O 0.7560(7) 0.7844(6) 0.6893(4)
O7 O 0.4874(7) 1.3788(6) 0.6569(4)
O8 O 0.6669(7) 1.3621(6) 0.6911(4)
N3 N 0.8505(7) 0.8152(7) 0.5596(5)
N4 N 0.6033(9) 1.3196(8) 0.6639(5)
C15 C 0.8256(9) 0.7414(9) 0.6197(6)
C16 C 0.8885(8) 0.6077(9) 0.5924(5)
C17 C 0.9692(8) 0.5639(7) 0.5105(6)
C18 C 0.9867(8) 0.6428(8) 0.4531(6)
C19 C 1.0704(9) 0.5948(8) 0.3751(6)
H9 H 1.0868 0.6479 0.3364
C20 C 0.8680(9) 0.5302(9) 0.6486(6)
H10 H 0.8121 0.5617 0.7034
C21 C 0.9190(8) 0.7787(8) 0.4761(6)
C22 C 0.7877(10) 0.9448(9) 0.5849(6)
C23 C 0.6565(9) 1.0159(10) 0.5786(6)
H11 H 0.6082 0.9803 0.5569
C24 C 0.5969(10) 1.1402(10) 0.6045(6)
H12 H 0.5073 1.1912 0.6008
C25 C 0.6709(9) 1.1872(9) 0.6355(6)
C26 C 0.7983(9) 1.1188(9) 0.6403(5)
H13 H 0.8462 1.1550 0.6617
C27 C 0.8608(8) 0.9934(9) 0.6137(6)
C28 C 1.0040(11) 0.9206(10) 0.6163(7)
H14 H 1.0116 0.8528 0.6504
H15 H 1.0359 0.9726 0.6411
H16 H 1.0591 0.8885 0.5591
O5A O 1.0759(6) 0.1501(6) 0.5740(4)
O6A O 1.2440(7) 0.2156(6) 0.3107(4)
O7A O 1.5126(7) -0.3788(6) 0.3431(4)
O8A O 1.3331(7) -0.3621(6) 0.3089(4)
N3A N 1.1495(7) 0.1848(7) 0.4404(5)
N4A N 1.3967(9) -0.3196(8) 0.3361(5)
C15A C 1.1744(9) 0.2586(9) 0.3803(6)
C16A C 1.1115(8) 0.3923(9) 0.4076(5)
C17A C 1.0308(8) 0.4361(7) 0.4895(6)
C18A C 1.0133(8) 0.3572(8) 0.5469(6)
C19A C 0.9296(9) 0.4052(8) 0.6249(6)
H9A H 0.9132 0.3521 0.6636
C20A C 1.1320(9) 0.4698(9) 0.3514(6)
H10A H 1.1879 0.4383 0.2966
C21A C 1.0810(8) 0.2213(8) 0.5239(6)
C22A C 1.2123(10) 0.0552(9) 0.4151(6)
C23A C 1.3435(9) -0.0159(10) 0.4214(6)
H11A H 1.3918 0.0197 0.4431
C24A C 1.4031(10) -0.1402(10) 0.3955(6)
H12A H 1.4927 -0.1912 0.3992
C25A C 1.3291(9) -0.1872(9) 0.3645(6)
C26A C 1.2017(9) -0.1188(9) 0.3597(5)
H13A H 1.1538 -0.1550 0.3383
C27A C 1.1392(8) 0.0066(9) 0.3863(6)
C28A C 0.9960(11) 0.0794(10) 0.3837(7)
H14A H 0.9884 0.1472 0.3496
H15A H 0.9641 0.0274 0.3589
H16A H 0.9409 0.1115 0.4409
O9 O 1.0597(6) 0.8088(5) 0.2137(4)
O10 O 0.8334(7) 0.7493(6) 0.0331(4)
O11 O 0.800(2) 0.430(3) 0.370(2)
O12 O 0.9301(16) 0.3222(17) 0.2700(8)
N5 N 0.9468(7) 0.7805(7) 0.1234(5)
N6 N 0.849(3) 0.432(3) 0.328(3)
C29 C 0.8964(10) 0.8021(10) 0.0497(7)
C30 C 0.9160(9) 0.8984(8) 0.0014(6)
C31 C 0.8642(8) 0.9287(8) -0.0674(6)
H17 H 0.8141 0.8896 -0.0822
C32 C 0.9912(8) 0.9547(8) 0.0247(5)
C33 C 1.0439(8) 0.9264(8) 0.0971(5)
C34 C 0.8835(8) 1.0173(9) -0.1172(6)
H18 H 0.8459 1.0375 -0.1648
C35 C 1.0195(9) 0.8388(9) 0.1504(6)
C36 C 0.9245(11) 0.6891(11) 0.1719(7)
C37 C 1.0143(11) 0.5659(11) 0.1425(7)
H19 H 1.0856 0.5451 0.0936
C38 C 0.9936(15) 0.4768(12) 0.1883(10)
H20 H 1.0501 0.3927 0.1714
C39 C 0.8910(15) 0.5132(16) 0.2573(10)
C40 C 0.8064(11) 0.6296(14) 0.2884(8)
H21 H 0.7373 0.6485 0.3383
C41 C 0.8256(11) 0.7221(11) 0.2431(8)
C42 C 0.7355(11) 0.8533(12) 0.2750(7)
H22 H 0.7806 0.8840 0.3070
H23 H 0.6509 0.8601 0.3114
H24 H 0.7162 0.9013 0.2274
O9A O 0.9403(6) 1.1912(5) -0.2137(4)
O10A O 1.1666(7) 1.2507(6) -0.0331(4)
O11A O 1.200(2) 1.570(3) -0.370(2)
O12A O 1.0699(16) 1.6778(17) -0.2700(8)
N5A N 1.0532(7) 1.2195(7) -0.1234(5)
N6A N 1.151(3) 1.568(3) -0.328(3)
C29A C 1.1036(10) 1.1979(10) -0.0497(7)
C30A C 1.0840(9) 1.1016(8) -0.0014(6)
C31A C 1.1358(8) 1.0713(8) 0.0674(6)
H17A H 1.1859 1.1104 0.0822
C32A C 1.0088(8) 1.0453(8) -0.0247(5)
C33A C 0.9561(8) 1.0736(8) -0.0971(5)
C34A C 1.1165(8) 0.9827(9) 0.1172(6)
H18A H 1.1541 0.9625 0.1648
C35A C 0.9805(9) 1.1612(9) -0.1504(6)
C36A C 1.0755(11) 1.3109(11) -0.1719(7)
C37A C 0.9857(11) 1.4341(11) -0.1425(7)
H19A H 0.9144 1.4549 -0.0936
C38A C 1.0064(15) 1.5232(12) -0.1883(10)
H20A H 0.9499 1.6073 -0.1714
C39A C 1.1090(15) 1.4868(16) -0.2573(10)
C40A C 1.1936(11) 1.3704(14) -0.2884(8)
H21A H 1.2627 1.3515 -0.3383
C41A C 1.1744(11) 1.2779(11) -0.2431(8)
C42A C 1.2645(11) 1.1467(12) -0.2750(7)
H22A H 1.2194 1.1160 -0.3070
H23A H 1.3491 1.1399 -0.3114
H24A H 1.2838 1.0987 -0.2274
S1 S 0.4719(7) 0.2866(7) 0.4137(6)
O13 O 0.3912(8) 0.2342(9) 0.4704(6)
C43 C 0.4098(14) 0.4099(14) 0.4432(11)
H25 H 0.3130 0.4360 0.4654
H26 H 0.4237 0.4577 0.3970
H27 H 0.4490 0.4225 0.4879
C44 C 0.6235(13) 0.204(2) 0.3826(11)
H28 H 0.6561 0.2219 0.3261
H29 H 0.6394 0.1185 0.3811
H30 H 0.6719 0.2189 0.4207
loop_
_geom_bond_atom_site_label_1
_geom_bond_atom_site_label_2
_geom_bond_site_symmetry_1
_geom_bond_site_symmetry_2
O1 C1 1_555 1_555
O2 C7 1_555 1_555
O3 N2 1_555 1_555
O4 N2 1_555 1_555
N1 C1 1_555 1_555
N2 C11 1_555 1_555
C1 C2 1_555 1_555
C2 C3 1_555 1_555
C3 C4 1_555 1_555
C4 C5 1_555 1_555
C5 H1 1_555 1_555
C6 C2 1_555 1_555
H2 C6 1_555 1_555
C7 N1 1_555 1_555
C8 N1 1_555 1_555
C9 C8 1_555 1_555
H3 C9 1_555 1_555
C10 C9 1_555 1_555
H4 C10 1_555 1_555
C11 C10 1_555 1_555
C12 C11 1_555 1_555
H5 C12 1_555 1_555
C13 C8 1_555 1_555
C14 C13 1_555 1_555
H6 C14 1_555 1_555
H7 C14 1_555 1_555
H8 C14 1_555 1_555
O5 C21 1_555 1_555
O6 C15 1_555 1_555
O7 N4 1_555 1_555
O8 N4 1_555 1_555
N3 C15 1_555 1_555
N4 C25 1_555 1_555
C15 C16 1_555 1_555
C16 C17 1_555 1_555
C17 C18 1_555 1_555
C18 C19 1_555 1_555
C19 H9 1_555 1_555
C20 C16 1_555 1_555
H10 C20 1_555 1_555
C21 N3 1_555 1_555
C22 N3 1_555 1_555
C23 C22 1_555 1_555
H11 C23 1_555 1_555
C24 C23 1_555 1_555
H12 C24 1_555 1_555
C25 C24 1_555 1_555
C26 C25 1_555 1_555
H13 C26 1_555 1_555
C27 C22 1_555 1_555
C28 C27 1_555 1_555
H14 C28 1_555 1_555
H15 C28 1_555 1_555
H16 C28 1_555 1_555
O9 C35 1_555 1_555
O10 C29 1_555 1_555
O11 N6 1_555 1_555
O12 N6 1_555 1_555
N5 C29 1_555 1_555
N6 C39 1_555 1_555
C29 C30 1_555 1_555
C30 C31 1_555 1_555
C31 H17 1_555 1_555
C32 C30 1_555 1_555
C33 C32 1_555 1_555
C34 C31 1_555 1_555
H18 C34 1_555 1_555
C35 N5 1_555 1_555
C36 N5 1_555 1_555
C37 C36 1_555 1_555
H19 C37 1_555 1_555
C38 C37 1_555 1_555
H20 C38 1_555 1_555
C39 C38 1_555 1_555
C40 C39 1_555 1_555
H21 C40 1_555 1_555
C41 C36 1_555 1_555
C42 C41 1_555 1_555
H22 C42 1_555 1_555
H23 C42 1_555 1_555
H24 C42 1_555 1_555
S1 O13 1_555 1_555
C43 S1 1_555 1_555
H25 C43 1_555 1_555
H26 C43 1_555 1_555
H27 C43 1_555 1_555
C44 S1 1_555 1_555
H28 C44 1_555 1_555
H29 C44 1_555 1_555
H30 C44 1_555 1_555
O1A C1A 1_555 1_555
O2A C7A 1_555 1_555
O3A N2A 1_555 1_555
O4A N2A 1_555 1_555
N1A C1A 1_555 1_555
N2A C11A 1_555 1_555
C1A C2A 1_555 1_555
C2A C3A 1_555 1_555
C3A C3 1_555 1_555
C4A C3A 1_555 1_555
C5A C6 1_555 1_555
H1A C5A 1_555 1_555
C6A C5 1_555 1_555
H2A C6A 1_555 1_555
C7A N1A 1_555 1_555
C8A N1A 1_555 1_555
C9A C8A 1_555 1_555
H3A C9A 1_555 1_555
C10A C9A 1_555 1_555
H4A C10A 1_555 1_555
C11A C10A 1_555 1_555
C12A C11A 1_555 1_555
H5A C12A 1_555 1_555
C13A C8A 1_555 1_555
C14A C13A 1_555 1_555
H6A C14A 1_555 1_555
H7A C14A 1_555 1_555
H8A C14A 1_555 1_555
O5A C21A 1_555 1_555
O6A C15A 1_555 1_555
O7A N4A 1_555 1_555
O8A N4A 1_555 1_555
N3A C15A 1_555 1_555
N4A C25A 1_555 1_555
C15A C16A 1_555 1_555
C16A C17A 1_555 1_555
C17A C17 1_555 1_555
C18A C17A 1_555 1_555
C19A C20 1_555 1_555
H9A C19A 1_555 1_555
C20A C19 1_555 1_555
H10A C20A 1_555 1_555
C21A N3A 1_555 1_555
C22A N3A 1_555 1_555
C23A C22A 1_555 1_555
H11A C23A 1_555 1_555
C24A C23A 1_555 1_555
H12A C24A 1_555 1_555
C25A C24A 1_555 1_555
C26A C25A 1_555 1_555
H13A C26A 1_555 1_555
C27A C22A 1_555 1_555
C28A C27A 1_555 1_555
H14A C28A 1_555 1_555
H15A C28A 1_555 1_555
H16A C28A 1_555 1_555
O9A C35A 1_555 1_555
O10A C29A 1_555 1_555
O11A N6A 1_555 1_555
O12A N6A 1_555 1_555
N5A C29A 1_555 1_555
N6A C39A 1_555 1_555
C29A C30A 1_555 1_555
C30A C31A 1_555 1_555
C31A H17A 1_555 1_555
C32A C32 1_555 1_555
C33A C34 1_555 1_555
C34A C33 1_555 1_555
H18A C34A 1_555 1_555
C35A N5A 1_555 1_555
C36A N5A 1_555 1_555
C37A C36A 1_555 1_555
H19A C37A 1_555 1_555
C38A C37A 1_555 1_555
H20A C38A 1_555 1_555
C39A C38A 1_555 1_555
C40A C39A 1_555 1_555
H21A C40A 1_555 1_555
C41A C36A 1_555 1_555
C42A C41A 1_555 1_555
H22A C42A 1_555 1_555
H23A C42A 1_555 1_555
H24A C42A 1_555 1_555
C4 C7 1_555 1_555
C12 C13 1_555 1_555
C18 C21 1_555 1_555
C26 C27 1_555 1_555
C33 C35 1_555 1_555
C40 C41 1_555 1_555
C2A C6A 1_555 1_555
C4A C5A 1_555 1_555
C4A C7A 1_555 1_555
C12A C13A 1_555 1_555
C16A C20A 1_555 1_555
C18A C19A 1_555 1_555
C18A C21A 1_555 1_555
C26A C27A 1_555 1_555
C30A C32A 1_555 1_555
C31A C34A 1_555 1_555
C32A C33A 1_555 1_555
C33A C35A 1_555 1_555
C40A C41A 1_555 1_555

#END
