
#######################################################################
#
#                 Cambridge Crystallographic Data Centre
#                                CCDC 
#
#######################################################################
#
# If this CIF has been generated from an entry in the Cambridge 
# Structural Database, then it will include bibliographic, chemical, 
# crystal, experimental, refinement or atomic coordinate data resulting 
# from the CCDC's data processing and validation procedures.
#
#######################################################################

data_DIBXUI
_chemical_formula_moiety         'C12 H14 N2 O2 S6 1+,Br1 1-'
_chemical_name_systematic        
'2,3-bis(Methylaminocarbonyl)-6,7-bis(methylthio)fulvalenium radical bromide'
_symmetry_cell_setting           monoclinic
_symmetry_space_group_name_H-M   'P 21/n'
_symmetry_Int_Tables_number      14
_space_group_name_Hall           '-P 2yn'
loop_
_symmetry_equiv_pos_site_id
_symmetry_equiv_pos_as_xyz
1 x,y,z
2 1/2-x,1/2+y,1/2-z
3 -x,-y,-z
4 1/2+x,1/2-y,1/2+z
_cell_length_a                   7.1863(9)
_cell_length_b                   25.310(3)
_cell_length_c                   10.2043(12)
_cell_angle_alpha                90
_cell_angle_beta                 107.645(3)
_cell_angle_gamma                90
_cell_volume                     1768.69
_exptl_crystal_colour            black
_exptl_crystal_description       strip
_cell_formula_units_Z            4
loop_
_atom_site_label
_atom_site_type_symbol
_atom_site_fract_x
_atom_site_fract_y
_atom_site_fract_z
Br1 Br 0.76205(4) 0.169338(12) 0.72101(3)
S1 S 0.75377(10) 0.57171(3) 0.50028(7)
S2 S 0.55393(10) 0.50191(3) 0.27231(7)
S3 S 0.89181(10) 0.46882(3) 0.69641(7)
S4 S 0.70283(10) 0.40038(3) 0.46432(7)
S5 S 1.03391(10) 0.37537(3) 0.88777(7)
S6 S 0.82029(11) 0.30102(3) 0.63695(7)
O1 O 0.6153(3) 0.68555(7) 0.2272(2)
O2 O 0.3287(3) 0.53654(8) 0.0387(2)
N1 N 0.7057(3) 0.68668(9) 0.4579(2)
H1 H 0.7323 0.6685 0.5349
N2 N 0.4192(3) 0.62139(9) 0.0248(2)
H2 H 0.4924 0.6478 0.0675
C1 C 0.6385(4) 0.60245(11) 0.3421(3)
C2 C 0.5474(4) 0.56958(11) 0.2369(3)
C3 C 0.6968(4) 0.50782(11) 0.4413(3)
C4 C 0.7597(4) 0.46389(11) 0.5244(3)
C5 C 0.9109(4) 0.40159(11) 0.7280(3)
C6 C 0.8222(4) 0.36916(11) 0.6173(3)
C7 C 0.6512(4) 0.66194(11) 0.3373(3)
C8 C 0.7211(5) 0.74426(11) 0.4616(3)
H3 H 0.8155 0.7554 0.4151
H4 H 0.7650 0.7562 0.5574
H5 H 0.5932 0.7597 0.4147
C9 C 0.4213(4) 0.57652(11) 0.0893(3)
C10 C 0.2968(5) 0.62787(12) -0.1167(3)
H6 H 0.2764 0.5934 -0.1627
H7 H 0.3611 0.6518 -0.1649
H8 H 0.1705 0.6427 -0.1177
C11 C 1.1240(4) 0.43456(11) 0.9833(3)
H9 H 1.1960 0.4556 0.9341
H10 H 1.2110 0.4251 1.0745
H11 H 1.0139 0.4552 0.9935
C12 C 0.7505(5) 0.27830(12) 0.4608(3)
H12 H 0.6214 0.2924 0.4110
H13 H 0.7458 0.2396 0.4591
H14 H 0.8463 0.2906 0.4168
loop_
_geom_bond_atom_site_label_1
_geom_bond_atom_site_label_2
_geom_bond_site_symmetry_1
_geom_bond_site_symmetry_2
S1 C1 1_555 1_555
S2 C2 1_555 1_555
S3 C4 1_555 1_555
S4 C4 1_555 1_555
S5 C5 1_555 1_555
S6 C6 1_555 1_555
O1 C7 1_555 1_555
O2 C9 1_555 1_555
N1 H1 1_555 1_555
N2 H2 1_555 1_555
C1 C2 1_555 1_555
C2 C9 1_555 1_555
C3 S1 1_555 1_555
C4 C3 1_555 1_555
C5 S3 1_555 1_555
C6 S4 1_555 1_555
C7 N1 1_555 1_555
C8 N1 1_555 1_555
H3 C8 1_555 1_555
H4 C8 1_555 1_555
H5 C8 1_555 1_555
C9 N2 1_555 1_555
C10 N2 1_555 1_555
H6 C10 1_555 1_555
H7 C10 1_555 1_555
H8 C10 1_555 1_555
C11 S5 1_555 1_555
H9 C11 1_555 1_555
H10 C11 1_555 1_555
H11 C11 1_555 1_555
C12 S6 1_555 1_555
H12 C12 1_555 1_555
H13 C12 1_555 1_555
H14 C12 1_555 1_555
S2 C3 1_555 1_555
C1 C7 1_555 1_555
C5 C6 1_555 1_555

#END
