
#######################################################################
#
#                 Cambridge Crystallographic Data Centre
#                                CCDC 
#
#######################################################################
#
# If this CIF has been generated from an entry in the Cambridge 
# Structural Database, then it will include bibliographic, chemical, 
# crystal, experimental, refinement or atomic coordinate data resulting 
# from the CCDC's data processing and validation procedures.
#
#######################################################################

data_DIBYEV
_chemical_formula_moiety         'C35 H27 N1 O1'
_chemical_name_systematic        
1',3',3'-trimethyl-5'-(pyren-1-yl)-1',3'-dihydrospiro[1-benzopyran-2,2'-indole]
_symmetry_cell_setting           triclinic
_symmetry_space_group_name_H-M   'P -1'
_symmetry_Int_Tables_number      2
_space_group_name_Hall           '-P 1'
loop_
_symmetry_equiv_pos_site_id
_symmetry_equiv_pos_as_xyz
1 x,y,z
2 -x,-y,-z
_cell_length_a                   10.5500(12)
_cell_length_b                   11.5139(13)
_cell_length_c                   12.1433(14)
_cell_angle_alpha                80.040(5)
_cell_angle_beta                 67.550(4)
_cell_angle_gamma                66.397(4)
_cell_volume                     1248.88
_exptl_crystal_colour            colorless
_exptl_crystal_description       block
_cell_formula_units_Z            2
loop_
_atom_site_label
_atom_site_type_symbol
_atom_site_fract_x
_atom_site_fract_y
_atom_site_fract_z
O1 O 0.0997(3) 0.4200(3) 0.7002(3)
N1 N 0.3189(4) 0.4286(4) 0.5598(3)
C1 C -0.0494(4) 0.4787(4) 0.7535(3)
C2 C -0.1298(4) 0.4009(4) 0.8056(4)
H1 H -0.081699 0.311283 0.805784
C3 C -0.2827(5) 0.4567(5) 0.8576(4)
H2 H -0.339423 0.404609 0.891966
C4 C -0.3524(5) 0.5867(5) 0.8598(5)
H3 H -0.456078 0.623982 0.898362
C5 C -0.2713(5) 0.6619(5) 0.8062(4)
H4 H -0.320335 0.751387 0.806159
C6 C -0.1184(4) 0.6101(4) 0.7516(4)
C7 C -0.0279(5) 0.6838(4) 0.6862(4)
H5 H -0.073352 0.772574 0.675082
C8 C 0.1180(5) 0.6287(4) 0.6416(4)
H6 H 0.173642 0.678222 0.593389
C9 C 0.1986(4) 0.4910(4) 0.6643(3)
C10 C 0.2732(4) 0.4666(4) 0.7600(3)
C11 C 0.4039(4) 0.3456(4) 0.7147(3)
C12 C 0.4996(4) 0.2628(4) 0.7694(3)
H7 H 0.480573 0.272353 0.850964
C13 C 0.6253(4) 0.1643(4) 0.7048(3)
C14 C 0.6482(4) 0.1524(4) 0.5855(3)
H8 H 0.733413 0.086615 0.540554
C15 C 0.5497(4) 0.2342(4) 0.5303(3)
H9 H 0.565887 0.223538 0.449541
C16 C 0.4282(4) 0.3309(4) 0.5959(3)
C17 C 0.1710(5) 0.4594(5) 0.8866(4)
H10 H 0.084501 0.538440 0.904594
H11 H 0.223034 0.446915 0.942004
H12 H 0.139286 0.388090 0.895089
C18 C 0.3358(6) 0.5704(5) 0.7469(5)
H13 H 0.399860 0.574958 0.664121
H14 H 0.392980 0.549814 0.799720
H15 H 0.254473 0.652278 0.768366
C19 C 0.2884(5) 0.4177(6) 0.4555(4)
H16 H 0.236481 0.358861 0.473751
H17 H 0.381413 0.385740 0.388867
H18 H 0.226736 0.501204 0.433639
C20 C 0.7282(4) 0.0759(4) 0.7658(3)
C21 C 0.6736(5) 0.0056(4) 0.8658(4)
H19 H 0.574286 0.011931 0.889651
C22 C 0.7596(5) -0.0723(4) 0.9307(4)
H20 H 0.719331 -0.119891 0.997184
C23 C 0.9054(5) -0.0821(4) 0.8997(4)
C24 C 0.9975(5) -0.1576(4) 0.9683(4)
H21 H 0.960073 -0.206263 1.035092
C25 C 1.1342(5) -0.1605(4) 0.9398(4)
H22 H 1.190893 -0.210146 0.987890
C26 C 1.1975(4) -0.0914(4) 0.8396(4)
C27 C 1.3404(5) -0.0922(5) 0.8094(5)
H23 H 1.399637 -0.142342 0.855431
C28 C 1.3954(5) -0.0209(5) 0.7135(5)
H24 H 1.492092 -0.022453 0.694474
C29 C 1.3130(5) 0.0520(5) 0.6451(4)
H25 H 1.353339 0.100199 0.579396
C30 C 1.1697(4) 0.0565(4) 0.6709(4)
C31 C 1.0789(5) 0.1336(4) 0.6035(4)
H26 H 1.117181 0.182548 0.537405
C32 C 0.9401(5) 0.1387(4) 0.6315(4)
H27 H 0.883461 0.190750 0.584154
C33 C 0.8755(4) 0.0674(3) 0.7309(3)
C34 C 0.9641(4) -0.0117(3) 0.7989(3)
C35 C 1.1108(4) -0.0166(3) 0.7690(3)
loop_
_geom_bond_atom_site_label_1
_geom_bond_atom_site_label_2
_geom_bond_site_symmetry_1
_geom_bond_site_symmetry_2
O1 C1 1_555 1_555
N1 C9 1_555 1_555
C1 C2 1_555 1_555
C2 H1 1_555 1_555
C3 C2 1_555 1_555
H2 C3 1_555 1_555
C4 C3 1_555 1_555
H3 C4 1_555 1_555
C5 C4 1_555 1_555
H4 C5 1_555 1_555
C6 C1 1_555 1_555
C7 C6 1_555 1_555
H5 C7 1_555 1_555
C8 C7 1_555 1_555
H6 C8 1_555 1_555
C9 O1 1_555 1_555
C10 C9 1_555 1_555
C11 C10 1_555 1_555
C12 C11 1_555 1_555
H7 C12 1_555 1_555
C13 C12 1_555 1_555
C14 C13 1_555 1_555
H8 C14 1_555 1_555
C15 C14 1_555 1_555
H9 C15 1_555 1_555
C16 N1 1_555 1_555
C17 C10 1_555 1_555
H10 C17 1_555 1_555
H11 C17 1_555 1_555
H12 C17 1_555 1_555
C18 C10 1_555 1_555
H13 C18 1_555 1_555
H14 C18 1_555 1_555
H15 C18 1_555 1_555
C19 N1 1_555 1_555
H16 C19 1_555 1_555
H17 C19 1_555 1_555
H18 C19 1_555 1_555
C20 C13 1_555 1_555
C21 C20 1_555 1_555
H19 C21 1_555 1_555
C22 C21 1_555 1_555
H20 C22 1_555 1_555
C23 C22 1_555 1_555
C24 C23 1_555 1_555
H21 C24 1_555 1_555
C25 C24 1_555 1_555
H22 C25 1_555 1_555
C26 C25 1_555 1_555
C27 C26 1_555 1_555
H23 C27 1_555 1_555
C28 C27 1_555 1_555
H24 C28 1_555 1_555
C29 C28 1_555 1_555
H25 C29 1_555 1_555
C30 C29 1_555 1_555
C31 C30 1_555 1_555
H26 C31 1_555 1_555
C32 C31 1_555 1_555
H27 C32 1_555 1_555
C33 C20 1_555 1_555
C34 C23 1_555 1_555
C35 C26 1_555 1_555
C5 C6 1_555 1_555
C8 C9 1_555 1_555
C11 C16 1_555 1_555
C15 C16 1_555 1_555
C30 C35 1_555 1_555
C32 C33 1_555 1_555
C33 C34 1_555 1_555
C34 C35 1_555 1_555

#END
