
#######################################################################
#
#                 Cambridge Crystallographic Data Centre
#                                CCDC 
#
#######################################################################
#
# If this CIF has been generated from an entry in the Cambridge 
# Structural Database, then it will include bibliographic, chemical, 
# crystal, experimental, refinement or atomic coordinate data resulting 
# from the CCDC's data processing and validation procedures.
#
#######################################################################

data_DIBYUK
_chemical_formula_moiety         'C8 H20 N28 O8 Sr2,6(H2 O1)'
_chemical_name_systematic        
'bis(\m~2~-Aqua)-bis(\m~2~-3,6-bis(tetrazol-1-ato-5-ylamino)-1,2,4,5-tetrazine)-hexa-aqua-di-strontium hexahydrate'
_symmetry_cell_setting           triclinic
_symmetry_space_group_name_H-M   'P -1'
_symmetry_Int_Tables_number      2
_space_group_name_Hall           '-P 1'
loop_
_symmetry_equiv_pos_site_id
_symmetry_equiv_pos_as_xyz
1 x,y,z
2 -x,-y,-z
_cell_length_a                   8.6524(16)
_cell_length_b                   10.112(2)
_cell_length_c                   11.004(3)
_cell_angle_alpha                110.419(4)
_cell_angle_beta                 95.110(4)
_cell_angle_gamma                111.777(3)
_cell_volume                     811.05
_exptl_crystal_colour            red
_exptl_crystal_description       bulk
_cell_formula_units_Z            1
loop_
_atom_site_label
_atom_site_type_symbol
_atom_site_fract_x
_atom_site_fract_y
_atom_site_fract_z
O1 O 0.9635(10) 1.0593(7) 0.4145(5)
H1 H 0.9601 1.1462 0.4352
H2 H 1.0542 1.0509 0.4015
Sr1 Sr 0.15918(7) 0.48448(7) 0.37797(5)
N1 N 0.5733(6) 0.4557(7) 0.1660(5)
N2 N 0.7462(6) 0.5391(7) 0.2005(5)
N3 N 0.8089(6) 0.5037(7) 0.0943(5)
N4 N 0.6781(6) 0.3946(7) -0.0129(5)
N5 N 0.3761(6) 0.2618(6) -0.0494(5)
H3 H 0.3734 0.2090 -0.1307
N6 N 0.2135(6) 0.3029(6) 0.1060(5)
N7 N 0.0572(6) 0.2641(6) 0.1284(5)
N8 N -0.0676(6) 0.0828(6) -0.0997(5)
N9 N 0.0838(6) 0.1196(6) -0.1225(5)
N10 N -0.2401(6) 0.1109(6) 0.0448(5)
H4 H -0.3217 0.0386 -0.0238
N11 N -0.1852(6) 0.2778(6) 0.2815(5)
N12 N -0.2956(6) 0.2905(7) 0.3615(5)
N13 N -0.4539(6) 0.1974(7) 0.2918(5)
N14 N -0.4543(6) 0.1144(7) 0.1656(5)
C1 C 0.5381(7) 0.3708(7) 0.0351(6)
C2 C 0.2224(7) 0.2301(7) -0.0173(6)
C3 C -0.0778(7) 0.1578(7) 0.0271(6)
C4 C -0.2869(7) 0.1689(7) 0.1632(6)
O2 O 0.0391(5) 0.3726(5) 0.5515(4)
H5 H -0.0646 0.3430 0.5154
H6 H 0.0650 0.3586 0.6199
O3 O 0.2893(6) 0.2930(6) 0.3910(5)
H7 H 0.2545 0.2810 0.4569
H8 H 0.3467 0.2465 0.3547
O4 O 0.1584(6) 0.6286(6) 0.2217(5)
H9 H 0.0612 0.5808 0.1673
H10 H 0.2300 0.6066 0.1822
O5 O 0.4718(5) 0.6157(6) 0.3703(4)
H11 H 0.5402 0.6947 0.4350
H12 H 0.5037 0.5795 0.3037
Sr1A Sr -0.15918(7) 0.51552(7) 0.62203(5)
N1A N -0.5733(6) 0.5443(7) 0.8340(5)
N2A N -0.7462(6) 0.4609(7) 0.7995(5)
N3A N -0.8089(6) 0.4963(7) 0.9057(5)
N4A N -0.6781(6) 0.6054(7) 1.0129(5)
N5A N -0.3761(6) 0.7382(6) 1.0494(5)
H3A H -0.3734 0.7910 1.1307
N6A N -0.2135(6) 0.6971(6) 0.8940(5)
N7A N -0.0572(6) 0.7359(6) 0.8716(5)
N8A N 0.0676(6) 0.9172(6) 1.0997(5)
N9A N -0.0838(6) 0.8804(6) 1.1225(5)
N10A N 0.2401(6) 0.8891(6) 0.9552(5)
H4A H 0.3217 0.9614 1.0238
N11A N 0.1852(6) 0.7222(6) 0.7185(5)
N12A N 0.2956(6) 0.7095(7) 0.6385(5)
N13A N 0.4539(6) 0.8026(7) 0.7082(5)
N14A N 0.4543(6) 0.8856(7) 0.8344(5)
C1A C -0.5381(7) 0.6292(7) 0.9649(6)
C2A C -0.2224(7) 0.7699(7) 1.0173(6)
C3A C 0.0778(7) 0.8422(7) 0.9729(6)
C4A C 0.2869(7) 0.8311(7) 0.8368(6)
O2A O -0.0391(5) 0.6274(5) 0.4485(4)
H5A H 0.0646 0.6570 0.4846
H6A H -0.0650 0.6414 0.3801
O3A O -0.2893(6) 0.7070(6) 0.6090(5)
H7A H -0.2545 0.7190 0.5431
H8A H -0.3467 0.7535 0.6453
O4A O -0.1584(6) 0.3714(6) 0.7783(5)
H9A H -0.0612 0.4192 0.8327
H10A H -0.2300 0.3934 0.8178
O5A O -0.4718(5) 0.3843(6) 0.6297(4)
H11A H -0.5402 0.3053 0.5650
H12A H -0.5037 0.4205 0.6963
O6 O 0.5892(7) 0.8871(7) 0.3243(5)
H13 H 0.5475 0.8043 0.3358
H14 H 0.6898 0.9287 0.3225
O7 O 0.2947(13) 0.9463(10) 0.3770(9)
H15 H 0.1925 0.9285 0.3797
H16 H 0.3608 1.0311 0.3760
loop_
_geom_bond_atom_site_label_1
_geom_bond_atom_site_label_2
_geom_bond_site_symmetry_1
_geom_bond_site_symmetry_2
O1 H1 1_555 1_555
H2 O1 1_555 1_555
Sr1 N7 1_555 1_555
N1 N2 1_555 1_555
N2 N3 1_555 1_555
N3 N4 1_555 1_555
N4 C1 1_555 1_555
N5 H3 1_555 1_555
N6 N7 1_555 1_555
N7 C3 1_555 1_555
N8 N9 1_555 1_555
N9 C2 1_555 1_555
N10 H4 1_555 1_555
N11 Sr1 1_555 1_555
N12 N11 1_555 1_555
N13 N12 1_555 1_555
N14 N13 1_555 1_555
C1 N1 1_555 1_555
C2 N5 1_555 1_555
C3 N8 1_555 1_555
C4 N10 1_555 1_555
O2 Sr1 1_555 1_555
H5 O2 1_555 1_555
H6 O2 1_555 1_555
O3 Sr1 1_555 1_555
H7 O3 1_555 1_555
H8 O3 1_555 1_555
O4 Sr1 1_555 1_555
H9 O4 1_555 1_555
H10 O4 1_555 1_555
O5 Sr1 1_555 1_555
H11 O5 1_555 1_555
H12 O5 1_555 1_555
O6 H13 1_555 1_555
H14 O6 1_555 1_555
O7 H15 1_555 1_555
H16 O7 1_555 1_555
Sr1A N12 1_555 1_555
N1A N2A 1_555 1_555
N2A N3A 1_555 1_555
N3A N4A 1_555 1_555
N4A C1A 1_555 1_555
N5A H3A 1_555 1_555
N6A N7A 1_555 1_555
N7A Sr1A 1_555 1_555
N8A N9A 1_555 1_555
N9A C2A 1_555 1_555
N10A H4A 1_555 1_555
N11A Sr1A 1_555 1_555
N12A Sr1 1_555 1_555
N13A N12A 1_555 1_555
N14A N13A 1_555 1_555
C1A N1A 1_555 1_555
C2A N5A 1_555 1_555
C3A N7A 1_555 1_555
C4A N10A 1_555 1_555
O2A Sr1 1_555 1_555
H5A O2A 1_555 1_555
H6A O2A 1_555 1_555
O3A Sr1A 1_555 1_555
H7A O3A 1_555 1_555
H8A O3A 1_555 1_555
O4A Sr1A 1_555 1_555
H9A O4A 1_555 1_555
H10A O4A 1_555 1_555
O5A Sr1A 1_555 1_555
H11A O5A 1_555 1_555
H12A O5A 1_555 1_555
N5 C1 1_555 1_555
N6 C2 1_555 1_555
N10 C3 1_555 1_555
N11 C4 1_555 1_555
N14 C4 1_555 1_555
O2 Sr1A 1_555 1_555
Sr1A O2A 1_555 1_555
N5A C1A 1_555 1_555
N6A C2A 1_555 1_555
N8A C3A 1_555 1_555
N10A C3A 1_555 1_555
N11A N12A 1_555 1_555
N11A C4A 1_555 1_555
N14A C4A 1_555 1_555

#END
