
#######################################################################
#
#                 Cambridge Crystallographic Data Centre
#                                CCDC 
#
#######################################################################
#
# If this CIF has been generated from an entry in the Cambridge 
# Structural Database, then it will include bibliographic, chemical, 
# crystal, experimental, refinement or atomic coordinate data resulting 
# from the CCDC's data processing and validation procedures.
#
#######################################################################

data_DICHEF
_chemical_formula_moiety         'C21 H15 N1 O2 S2'
_chemical_name_systematic        
10-[(4-methylphenyl)sulfonyl]-10H-[1]benzothieno[3,2-b]indole
_symmetry_cell_setting           monoclinic
_symmetry_space_group_name_H-M   'P 21/c'
_symmetry_Int_Tables_number      14
_space_group_name_Hall           '-P 2ybc'
loop_
_symmetry_equiv_pos_site_id
_symmetry_equiv_pos_as_xyz
1 x,y,z
2 -x,1/2+y,1/2-z
3 -x,-y,-z
4 x,1/2-y,1/2+z
_cell_length_a                   11.143(2)
_cell_length_b                   13.949(3)
_cell_length_c                   11.319(2)
_cell_angle_alpha                90
_cell_angle_beta                 101.97(3)
_cell_angle_gamma                90
_cell_volume                     1721.1
_exptl_crystal_colour            white
_exptl_crystal_description       rhombohedral
_cell_formula_units_Z            4
loop_
_atom_site_label
_atom_site_type_symbol
_atom_site_fract_x
_atom_site_fract_y
_atom_site_fract_z
N1 N 0.8195(2) -0.01728(15) 0.9171(2)
S1 S 0.72060(8) 0.05167(5) 0.82306(7)
S2 S 1.05826(8) -0.21663(5) 0.91813(8)
O1 O 0.7916(2) 0.11676(12) 0.76897(19)
O2 O 0.6362(2) 0.08767(13) 0.89075(19)
C1 C 0.9170(3) -0.06800(18) 0.8813(3)
C2 C 0.4624(3) -0.2223(2) 0.4415(3)
H1 H 0.4993 -0.2184 0.3722
H2 H 0.3768 -0.2070 0.4184
H3 H 0.4717 -0.2862 0.4738
C3 C 0.9964(3) -0.05485(19) 0.7982(2)
C4 C 0.6435(3) -0.02665(18) 0.7110(2)
C5 C 0.9397(3) -0.14931(18) 0.9488(3)
C6 C 0.4891(3) -0.1437(2) 0.6451(3)
H4 H 0.4246 -0.1809 0.6601
C7 C 1.0778(3) -0.13417(19) 0.8075(3)
C8 C 0.7806(3) -0.07598(19) 1.0091(3)
C9 C 1.0934(3) 0.0067(2) 0.6434(3)
H5 H 1.1009 0.0547 0.5883
C10 C 1.0099(3) 0.0172(2) 0.7143(3)
H6 H 0.9614 0.0720 0.7076
C11 C 0.8568(3) -0.15612(19) 1.0292(3)
C12 C 0.8424(3) -0.2216(2) 1.1181(3)
H7 H 0.8931 -0.2751 1.1334
C13 C 0.6910(3) -0.0600(2) 1.0731(3)
H8 H 0.6408 -0.0062 1.0587
C14 C 1.1614(3) -0.1435(2) 0.7338(3)
H9 H 1.2125 -0.1968 0.7405
C15 C 0.5243(3) -0.1526(2) 0.5358(3)
C16 C 0.6202(3) -0.0965(2) 0.5160(3)
H10 H 0.6446 -0.1009 0.4425
C17 C 0.7531(3) -0.2064(2) 1.1825(3)
H11 H 0.7429 -0.2498 1.2420
C18 C 1.1683(3) -0.0741(2) 0.6512(3)
H12 H 1.2230 -0.0805 0.5998
C19 C 0.6809(3) -0.0340(2) 0.6031(3)
H13 H 0.7461 0.0027 0.5888
C20 C 0.5472(3) -0.08098(19) 0.7326(3)
H14 H 0.5216 -0.0755 0.8055
C21 C 0.6774(3) -0.1264(3) 1.1596(3)
H15 H 0.6164 -0.1175 1.2035
loop_
_geom_bond_atom_site_label_1
_geom_bond_atom_site_label_2
_geom_bond_site_symmetry_1
_geom_bond_site_symmetry_2
N1 S1 1_555 1_555
S1 O1 1_555 1_555
S2 C5 1_555 1_555
O2 S1 1_555 1_555
C1 N1 1_555 1_555
C2 H1 1_555 1_555
H2 C2 1_555 1_555
H3 C2 1_555 1_555
C3 C1 1_555 1_555
C4 S1 1_555 1_555
C5 C1 1_555 1_555
C6 H4 1_555 1_555
C7 S2 1_555 1_555
C8 N1 1_555 1_555
C9 H5 1_555 1_555
C10 C3 1_555 1_555
H6 C10 1_555 1_555
C11 C5 1_555 1_555
C12 C11 1_555 1_555
H7 C12 1_555 1_555
C13 C8 1_555 1_555
H8 C13 1_555 1_555
C14 C7 1_555 1_555
H9 C14 1_555 1_555
C15 C2 1_555 1_555
C16 C15 1_555 1_555
H10 C16 1_555 1_555
C17 C12 1_555 1_555
H11 C17 1_555 1_555
C18 C9 1_555 1_555
H12 C18 1_555 1_555
C19 C4 1_555 1_555
H13 C19 1_555 1_555
C20 C4 1_555 1_555
H14 C20 1_555 1_555
C21 C13 1_555 1_555
H15 C21 1_555 1_555
C3 C7 1_555 1_555
C6 C15 1_555 1_555
C6 C20 1_555 1_555
C8 C11 1_555 1_555
C9 C10 1_555 1_555
C14 C18 1_555 1_555
C16 C19 1_555 1_555
C17 C21 1_555 1_555

#END
