
#######################################################################
#
#                 Cambridge Crystallographic Data Centre
#                                CCDC 
#
#######################################################################
#
# If this CIF has been generated from an entry in the Cambridge 
# Structural Database, then it will include bibliographic, chemical, 
# crystal, experimental, refinement or atomic coordinate data resulting 
# from the CCDC's data processing and validation procedures.
#
#######################################################################

data_DICJEE
_chemical_formula_moiety         'C6 H8 N1 1+,Br1 1-'
_chemical_name_systematic        '3-Methylpyridinium bromide'
_symmetry_cell_setting           orthorhombic
_symmetry_space_group_name_H-M   'P n m a'
_symmetry_Int_Tables_number      62
_space_group_name_Hall           '-P 2ac 2n'
loop_
_symmetry_equiv_pos_site_id
_symmetry_equiv_pos_as_xyz
1 x,y,z
2 1/2-x,-y,1/2+z
3 -x,1/2+y,-z
4 1/2+x,1/2-y,1/2-z
5 -x,-y,-z
6 1/2+x,y,1/2-z
7 x,1/2-y,z
8 1/2-x,1/2+y,1/2+z
_cell_length_a                   12.973(2)
_cell_length_b                   6.491(1)
_cell_length_c                   8.327(1)
_cell_angle_alpha                90
_cell_angle_beta                 90
_cell_angle_gamma                90
_cell_volume                     701.198
_exptl_crystal_colour            colorless
_exptl_crystal_description       needle
_cell_formula_units_Z            4
_chemical_properties_physical    'air- and moisture-sensitive'
_exptl_crystal_recrystallization_method chloroform
loop_
_atom_site_label
_atom_site_type_symbol
_atom_site_fract_x
_atom_site_fract_y
_atom_site_fract_z
N1 N 0.58123(14) 0.2500 0.5333(2)
H1 H 0.631(3) 0.2500 0.467(4)
C1 C 0.60867(16) 0.2500 0.6897(3)
H2 H 0.6797 0.2500 0.7177
C2 C 0.53480(17) 0.2500 0.8100(3)
C3 C 0.5673(2) 0.2500 0.9839(3)
H3 H 0.5059 0.2500 1.0525
H4 H 0.6085 0.1267 1.0061
C4 C 0.43113(16) 0.2500 0.7622(3)
H5 H 0.3783 0.2500 0.8412
C5 C 0.40469(16) 0.2500 0.5991(3)
H6 H 0.3344 0.2500 0.5673
C6 C 0.48199(16) 0.2500 0.4851(3)
H7 H 0.4654 0.2500 0.3740
H4F H 0.6085 0.3733 1.0061
Br1 Br 0.780113(16) 0.2500 0.31374(3)
loop_
_geom_bond_atom_site_label_1
_geom_bond_atom_site_label_2
_geom_bond_site_symmetry_1
_geom_bond_site_symmetry_2
N1 H1 1_555 1_555
C1 N1 1_555 1_555
H2 C1 1_555 1_555
C2 C1 1_555 1_555
C3 C2 1_555 1_555
H3 C3 1_555 1_555
H4 C3 1_555 1_555
C4 C2 1_555 1_555
H5 C4 1_555 1_555
C5 C4 1_555 1_555
H6 C5 1_555 1_555
C6 N1 1_555 1_555
H7 C6 1_555 1_555
H4F C3 1_555 1_555
C5 C6 1_555 1_555

#END
