
#######################################################################
#
#                 Cambridge Crystallographic Data Centre
#                                CCDC 
#
#######################################################################
#
# If this CIF has been generated from an entry in the Cambridge 
# Structural Database, then it will include bibliographic, chemical, 
# crystal, experimental, refinement or atomic coordinate data resulting 
# from the CCDC's data processing and validation procedures.
#
#######################################################################

data_DICPIP
_chemical_formula_moiety         'C18 H16 N5 1+,C2 H3 O2 1-,3(H2 O1)'
_chemical_name_systematic        
'rac-trans-(4R,5R)-2,4,5-tris(2-Pyridyl)-4,5-dihydro-1H,3H-imidazolium acetate trihydrate'
_symmetry_cell_setting           monoclinic
_symmetry_space_group_name_H-M   'P 21/n'
_symmetry_Int_Tables_number      14
_space_group_name_Hall           '-P 2yn'
loop_
_symmetry_equiv_pos_site_id
_symmetry_equiv_pos_as_xyz
1 x,y,z
2 1/2-x,1/2+y,1/2-z
3 -x,-y,-z
4 1/2+x,1/2-y,1/2+z
_cell_length_a                   15.1297(5)
_cell_length_b                   9.2230(1)
_cell_length_c                   15.1308(4)
_cell_angle_alpha                90
_cell_angle_beta                 93.9585(10)
_cell_angle_gamma                90
_cell_volume                     2106.33
_exptl_crystal_colour            colorless
_exptl_crystal_description       plate
_cell_formula_units_Z            4
loop_
_atom_site_label
_atom_site_type_symbol
_atom_site_fract_x
_atom_site_fract_y
_atom_site_fract_z
N1 N 0.30243(7) 0.88742(12) 0.19484(7)
H1 H 0.3207(12) 0.936(2) 0.1482(12)
C1 C 0.22615(9) 0.82039(14) 0.19881(8)
N2 N 0.21629(8) 0.76130(13) 0.27705(7)
H2 H 0.1668(13) 0.7195(19) 0.2922(12)
C2 C 0.29069(9) 0.79795(14) 0.34044(8)
H3 H 0.3177 0.7074 0.3668
C3 C 0.35682(9) 0.87261(14) 0.27935(8)
H4 H 0.3736 0.9707 0.3032
N3 N 0.09453(8) 0.70929(13) 0.13865(8)
C4 C 0.15690(9) 0.80901(14) 0.12555(8)
C5 C 0.15716(9) 0.89549(15) 0.05083(9)
H5 H 0.2028 0.9647 0.0443
C6 C 0.08875(10) 0.87807(16) -0.01433(9)
H6 H 0.0864 0.9356 -0.0665
C7 C 0.02444(10) 0.77606(16) -0.00204(9)
H7 H -0.0230 0.7619 -0.0456
C8 C 0.03005(10) 0.69441(16) 0.07491(9)
H8 H -0.0145 0.6239 0.0826
N4 N 0.30410(9) 0.87796(13) 0.49341(8)
C9 C 0.26284(9) 0.89759(14) 0.41339(8)
C10 C 0.20163(10) 1.00683(17) 0.39575(10)
H9 H 0.1729 1.0170 0.3382
C11 C 0.18265(11) 1.10130(17) 0.46297(11)
H10 H 0.1405 1.1767 0.4523
C12 C 0.22570(12) 1.08445(17) 0.54528(11)
H11 H 0.2147 1.1485 0.5925
C13 C 0.28516(12) 0.97208(18) 0.55736(10)
H12 H 0.3147 0.9602 0.6144
N5 N 0.43032(8) 0.64031(13) 0.26450(8)
C14 C 0.43947(9) 0.78455(14) 0.26644(8)
C15 C 0.51939(10) 0.85366(17) 0.25574(9)
H13 H 0.5237 0.9564 0.2583
C16 C 0.59321(11) 0.76900(19) 0.24111(10)
H14 H 0.6490 0.8129 0.2335
C17 C 0.58392(11) 0.62066(18) 0.23792(10)
H15 H 0.6330 0.5603 0.2273
C18 C 0.50227(11) 0.56126(17) 0.25033(10)
H16 H 0.4966 0.4587 0.2488
O1 O 0.35869(7) 1.03022(12) 0.05227(6)
O2 O 0.43305(6) 1.16386(12) 0.15336(6)
C19 C 0.41485(9) 1.12654(15) 0.07432(9)
C20 C 0.46147(13) 1.2024(2) 0.00287(11)
H17 H 0.4233 1.2793 -0.0232
H18 H 0.4746 1.1324 -0.0432
H19 H 0.5169 1.2448 0.0284
O3 O 0.30383(8) 0.94650(14) -0.11835(8)
H20 H 0.2595(15) 1.015(3) -0.1270(14)
H21 H 0.3284(16) 0.968(3) -0.0620(18)
O4 O 0.16521(8) 1.14077(12) -0.12604(8)
H22 H 0.1475(15) 1.192(2) -0.1742(15)
H23 H 0.1755(15) 1.206(3) -0.0824(16)
O5 O 0.39763(9) 0.78445(14) -0.22794(8)
H24 H 0.4530(17) 0.793(2) -0.2049(16)
H25 H 0.3658(16) 0.837(3) -0.1948(16)
loop_
_geom_bond_atom_site_label_1
_geom_bond_atom_site_label_2
_geom_bond_site_symmetry_1
_geom_bond_site_symmetry_2
N1 H1 1_555 1_555
C1 N1 1_555 1_555
N2 C1 1_555 1_555
H2 N2 1_555 1_555
C2 N2 1_555 1_555
H3 C2 1_555 1_555
C3 N1 1_555 1_555
H4 C3 1_555 1_555
N3 C4 1_555 1_555
C4 C1 1_555 1_555
C5 C4 1_555 1_555
H5 C5 1_555 1_555
C6 C5 1_555 1_555
H6 C6 1_555 1_555
C7 C6 1_555 1_555
H7 C7 1_555 1_555
C8 N3 1_555 1_555
H8 C8 1_555 1_555
N4 C9 1_555 1_555
C9 C2 1_555 1_555
C10 C9 1_555 1_555
H9 C10 1_555 1_555
C11 C10 1_555 1_555
H10 C11 1_555 1_555
C12 C11 1_555 1_555
H11 C12 1_555 1_555
C13 N4 1_555 1_555
H12 C13 1_555 1_555
N5 C14 1_555 1_555
C14 C3 1_555 1_555
C15 C14 1_555 1_555
H13 C15 1_555 1_555
C16 C15 1_555 1_555
H14 C16 1_555 1_555
C17 C16 1_555 1_555
H15 C17 1_555 1_555
C18 N5 1_555 1_555
H16 C18 1_555 1_555
O1 C19 1_555 1_555
O2 C19 1_555 1_555
C19 C20 1_555 1_555
C20 H17 1_555 1_555
H18 C20 1_555 1_555
H19 C20 1_555 1_555
O3 H20 1_555 1_555
H21 O3 1_555 1_555
O4 H22 1_555 1_555
H23 O4 1_555 1_555
O5 H24 1_555 1_555
H25 O5 1_555 1_555
C2 C3 1_555 1_555
C7 C8 1_555 1_555
C12 C13 1_555 1_555
C17 C18 1_555 1_555

#END
