
#######################################################################
#
#                 Cambridge Crystallographic Data Centre
#                                CCDC 
#
#######################################################################
#
# If this CIF has been generated from an entry in the Cambridge 
# Structural Database, then it will include bibliographic, chemical, 
# crystal, experimental, refinement or atomic coordinate data resulting 
# from the CCDC's data processing and validation procedures.
#
#######################################################################

data_DICPUB01
_chemical_formula_moiety         'C15 H12 N2 S3'
_chemical_name_systematic        
rac-trans-(4R,5R)-2,4,5-tris(2-Thienyl)-4,5-dihydro-1H-imidazole
_symmetry_cell_setting           orthorhombic
_symmetry_space_group_name_H-M   'P b c a'
_symmetry_Int_Tables_number      61
_space_group_name_Hall           '-P 2ac 2ab'
loop_
_symmetry_equiv_pos_site_id
_symmetry_equiv_pos_as_xyz
1 x,y,z
2 1/2-x,-y,1/2+z
3 -x,1/2+y,1/2-z
4 1/2+x,1/2-y,-z
5 -x,-y,-z
6 1/2+x,y,1/2-z
7 x,1/2-y,1/2+z
8 1/2-x,1/2+y,z
_cell_length_a                   9.8305(5)
_cell_length_b                   9.9464(5)
_cell_length_c                   31.9543(16)
_cell_angle_alpha                90
_cell_angle_beta                 90
_cell_angle_gamma                90
_cell_volume                     3124.43
_exptl_crystal_colour            'pale yellow'
_exptl_crystal_description       block
_cell_formula_units_Z            8
loop_
_atom_site_label
_atom_site_type_symbol
_atom_site_fract_x
_atom_site_fract_y
_atom_site_fract_z
N1 N 0.2416(4) 0.7641(3) 0.36706(11)
H1 H 0.2096 0.6850 0.3576
C1 C 0.2237(4) 0.8782(4) 0.34441(13)
N2 N 0.3023(3) 0.9775(3) 0.35320(12)
C2 C 0.3876(4) 0.9336(4) 0.38880(14)
H2 H 0.3512 0.9758 0.4141
C3 C 0.3623(5) 0.7780(4) 0.39245(14)
H3 H 0.4379 0.7288 0.3796
C4 C 0.1158(4) 0.8868(4) 0.31287(13)
C5 C 0.0147(6) 0.7930(5) 0.30456(18)
H4 H 0.0065 0.7100 0.3177
C6 C -0.0751(6) 0.8423(7) 0.2728(2)
H5 H -0.1492 0.7941 0.2627
C7 C -0.0418(6) 0.9631(8) 0.25954(18)
H6 H -0.0894 1.0082 0.2387
S1 S 0.09581(15) 1.02843(16) 0.28400(5)
C8 C 0.5335(5) 0.9745(4) 0.38495(14)
C9 C 0.6040(6) 1.0589(7) 0.41143(18)
H7 H 0.5678 1.0986 0.4353
C10 C 0.7389(8) 1.0768(10) 0.3972(3)
H8 H 0.8021 1.1287 0.4116
C11 C 0.7677(6) 1.0157(7) 0.3626(2)
H9 H 0.8523 1.0187 0.3497
S2 S 0.63229(16) 0.92948(19) 0.34386(6)
C12 C 0.3399(5) 0.7291(4) 0.43591(15)
C13 C 0.3986(14) 0.6025(13) 0.4492(4)
H10 H 0.4506 0.5419 0.4339
C14 C 0.3546(18) 0.5938(19) 0.4936(4)
H11 H 0.3881 0.5285 0.5117
C15 C 0.268(4) 0.682(3) 0.5054(5)
H12 H 0.2319 0.6870 0.5323
S3 S 0.2287(9) 0.7857(7) 0.46627(17)
C16? C 0.1992(12) 0.7207(18) 0.4581(5)
H13? H 0.1164 0.7412 0.4456
C17? C 0.215(3) 0.678(4) 0.4996(8)
H14? H 0.1422 0.6547 0.5168
C18? C 0.340(3) 0.675(6) 0.5116(7)
H15? H 0.3694 0.6706 0.5392
S4? S 0.4400(10) 0.6781(15) 0.4700(3)
loop_
_geom_bond_atom_site_label_1
_geom_bond_atom_site_label_2
_geom_bond_site_symmetry_1
_geom_bond_site_symmetry_2
N1 H1 1_555 1_555
C1 N1 1_555 1_555
N2 C1 1_555 1_555
C2 N2 1_555 1_555
H2 C2 1_555 1_555
C3 N1 1_555 1_555
H3 C3 1_555 1_555
C4 C1 1_555 1_555
C5 C4 1_555 1_555
H4 C5 1_555 1_555
C6 C5 1_555 1_555
H5 C6 1_555 1_555
C7 C6 1_555 1_555
H6 C7 1_555 1_555
S1 C4 1_555 1_555
C8 C2 1_555 1_555
C9 C8 1_555 1_555
H7 C9 1_555 1_555
C10 C9 1_555 1_555
H8 C10 1_555 1_555
C11 C10 1_555 1_555
H9 C11 1_555 1_555
S2 C8 1_555 1_555
C12 C3 1_555 1_555
C13 C12 1_555 1_555
H10 C13 1_555 1_555
C14 C13 1_555 1_555
H11 C14 1_555 1_555
C15 C14 1_555 1_555
H12 C15 1_555 1_555
S3 C12 1_555 1_555
C2 C3 1_555 1_555
C7 S1 1_555 1_555
C11 S2 1_555 1_555
C15 S3 1_555 1_555

#END
