
#######################################################################
#
#                 Cambridge Crystallographic Data Centre
#                                CCDC 
#
#######################################################################
#
# If this CIF has been generated from an entry in the Cambridge 
# Structural Database, then it will include bibliographic, chemical, 
# crystal, experimental, refinement or atomic coordinate data resulting 
# from the CCDC's data processing and validation procedures.
#
#######################################################################

data_DICPUB
_chemical_formula_moiety         'C15 H12 N2 S3'
_chemical_name_systematic        
rac-trans-(4R,5R)-2,4,5-tris(2-Thienyl)-4,5-dihydro-1H-imidazole
_symmetry_cell_setting           orthorhombic
_symmetry_space_group_name_H-M   'P b c a'
_symmetry_Int_Tables_number      61
_space_group_name_Hall           '-P 2ac 2ab'
loop_
_symmetry_equiv_pos_site_id
_symmetry_equiv_pos_as_xyz
1 x,y,z
2 1/2-x,-y,1/2+z
3 -x,1/2+y,1/2-z
4 1/2+x,1/2-y,-z
5 -x,-y,-z
6 1/2+x,y,1/2-z
7 x,1/2-y,1/2+z
8 1/2-x,1/2+y,z
_cell_length_a                   9.6867(2)
_cell_length_b                   29.4008(6)
_cell_length_c                   31.5991(7)
_cell_angle_alpha                90
_cell_angle_beta                 90
_cell_angle_gamma                90
_cell_volume                     8999.32
_exptl_crystal_colour            yellow
_exptl_crystal_description       shard
_chemical_melting_point          '403-406 K'
_cell_formula_units_Z            24
loop_
_atom_site_label
_atom_site_type_symbol
_atom_site_fract_x
_atom_site_fract_y
_atom_site_fract_z
N1 N 0.7257(3) 0.25395(8) 0.13772(7)
H1 H 0.757(3) 0.2274(6) 0.1486(9)
C1 C 0.7425(3) 0.29263(10) 0.16071(8)
N2 N 0.6590(3) 0.32600(8) 0.15223(7)
C2 C 0.5733(3) 0.31055(9) 0.11637(9)
H2 H 0.6125 0.3245 0.0901
C3 C 0.5978(3) 0.25788(10) 0.11336(9)
H3 H 0.5214 0.2411 0.1279
C4 C 0.8550(3) 0.29602(10) 0.19110(8)
C5 C 0.9544(3) 0.26377(11) 0.20118(9)
H4 H 0.9573 0.2338 0.1899
C6 C 1.0516(4) 0.28166(12) 0.23072(10)
H5 H 1.1278 0.2648 0.2413
C7 C 1.0244(3) 0.32508(12) 0.24226(9)
H6 H 1.0786 0.3417 0.2620
S1 S 0.88241(9) 0.34660(3) 0.21750(2)
C8 C 0.4253(3) 0.32377(9) 0.11844(9)
C9 C 0.3447(3) 0.33828(11) 0.08579(9)
H7 H 0.3788 0.3431 0.0580
C10 C 0.2062(4) 0.34552(11) 0.09722(10)
H8 H 0.1370 0.3557 0.0781
C11 C 0.1824(4) 0.33625(11) 0.13865(10)
H9 H 0.0949 0.3391 0.1519
S2 S 0.32848(9) 0.31884(3) 0.16396(2)
C12 C 0.6138(3) 0.24134(10) 0.06892(9)
C13 C 0.5250(4) 0.21500(11) 0.04514(11)
H10 H 0.4425 0.2020 0.0559
C14 C 0.5704(4) 0.20962(13) 0.00325(12)
H11 H 0.5214 0.1925 -0.0173
C15 C 0.6889(5) 0.23099(12) -0.00478(10)
H12 H 0.7340 0.2307 -0.0315
S3 S 0.75015(11) 0.25894(3) 0.03880(3)
N3 N 0.7157(3) 0.08781(8) 0.12931(8)
H13 H 0.702(4) 0.0585(5) 0.1372(10)
C16 C 0.6957(3) 0.12456(10) 0.15519(9)
N4 N 0.7764(3) 0.15900(8) 0.14949(7)
C17 C 0.8665(3) 0.14686(9) 0.11291(9)
H14 H 0.8268 0.1617 0.0872
C18 C 0.8485(3) 0.09463(9) 0.10775(9)
H15 H 0.9228 0.0787 0.1240
C19 C 0.5818(3) 0.12457(10) 0.18570(9)
C20 C 0.4743(3) 0.09382(10) 0.18879(10)
H16 H 0.4634 0.0680 0.1710
C21 C 0.3821(4) 0.10582(12) 0.22192(10)
H17 H 0.3018 0.0888 0.2289
C22 C 0.4213(4) 0.14446(13) 0.24262(10)
H18 H 0.3724 0.1571 0.2659
S4 S 0.56788(9) 0.16754(3) 0.22207(3)
C23 C 1.0108(3) 0.16383(10) 0.11793(9)
C24 C 1.0666(3) 0.20126(11) 0.09955(10)
H19 H 1.0198 0.2192 0.0791
C25 C 1.2018(4) 0.21076(12) 0.11412(10)
H20 H 1.2555 0.2357 0.1044
C26 C 1.2461(3) 0.18068(11) 0.14334(10)
H21 H 1.3344 0.1817 0.1564
S5 S 1.12317(9) 0.14054(3) 0.15378(3)
C27 C 0.8452(3) 0.07659(10) 0.06345(9)
C28 C 0.8796(3) 0.03394(10) 0.05066(9)
H22 H 0.9214 0.0119 0.0686
C29 C 0.8461(3) 0.02592(11) 0.00735(10)
H23 H 0.8610 -0.0024 -0.0065
C30 C 0.7917(4) 0.06230(12) -0.01180(10)
H24 H 0.7657 0.0631 -0.0408
S6 S 0.77492(12) 0.10717(3) 0.02240(3)
N5 N 0.7280(3) 0.41924(9) 0.12938(8)
H25 H 0.696(3) 0.3929(7) 0.1400(10)
C31 C 0.7179(3) 0.45860(10) 0.15223(9)
N6 N 0.7994(3) 0.49103(8) 0.14179(8)
C32 C 0.8827(3) 0.47482(10) 0.10543(9)
H26 H 0.8467 0.4903 0.0795
C33 C 0.8474(3) 0.42296(10) 0.10145(9)
H27 H 0.9253 0.4042 0.1127
C34 C 0.6131(3) 0.46317(10) 0.18483(9)
C35 C 0.5091(4) 0.43389(11) 0.19611(10)
H28 H 0.4963 0.4047 0.1838
C36 C 0.4231(4) 0.45191(12) 0.22810(11)
H29 H 0.3464 0.4361 0.2397
C37 C 0.4614(4) 0.49405(13) 0.24038(10)
H30 H 0.4155 0.5111 0.2617
S7 S 0.60218(9) 0.51318(3) 0.21314(3)
C38 C 1.0318(3) 0.48677(10) 0.10943(9)
C39 C 1.1058(4) 0.51497(12) 0.08380(10)
H31 H 1.0688 0.5285 0.0590
C40 C 1.2422(4) 0.52210(13) 0.09764(11)
H32 H 1.3069 0.5408 0.0832
C41 C 1.2712(4) 0.49945(12) 0.13378(11)
H33 H 1.3583 0.5001 0.1476
S8 S 1.13170(9) 0.46939(3) 0.15155(3)
C42 C 0.8131(4) 0.40848(10) 0.05720(10)
C43 C 0.9032(15) 0.4029(9) 0.0253(5)
H34 H 1.0000 0.4065 0.0289
C44 C 0.8426(11) 0.3912(6) -0.0145(3)
H35 H 0.8940 0.3846 -0.0394
C45 C 0.7046(11) 0.3907(4) -0.0125(2)
H36 H 0.6446 0.3848 -0.0356
S9 S 0.6520(2) 0.40235(10) 0.03891(8)
C46? C 0.6800(18) 0.4058(12) 0.0441(7)
H37? H 0.6029 0.4138 0.0612
C47? C 0.6698(18) 0.3895(9) 0.0017(4)
H38? H 0.5849 0.3826 -0.0119
C48? C 0.7942(18) 0.3851(15) -0.0168(7)
H39? H 0.8100 0.3771 -0.0455
S10? S 0.9196(11) 0.3964(6) 0.0201(4)
loop_
_geom_bond_atom_site_label_1
_geom_bond_atom_site_label_2
_geom_bond_site_symmetry_1
_geom_bond_site_symmetry_2
N1 H1 1_555 1_555
C1 N1 1_555 1_555
N2 C1 1_555 1_555
C2 N2 1_555 1_555
H2 C2 1_555 1_555
C3 N1 1_555 1_555
H3 C3 1_555 1_555
C4 C1 1_555 1_555
C5 C4 1_555 1_555
H4 C5 1_555 1_555
C6 C5 1_555 1_555
H5 C6 1_555 1_555
C7 C6 1_555 1_555
H6 C7 1_555 1_555
S1 C4 1_555 1_555
C8 C2 1_555 1_555
C9 C8 1_555 1_555
H7 C9 1_555 1_555
C10 C9 1_555 1_555
H8 C10 1_555 1_555
C11 C10 1_555 1_555
H9 C11 1_555 1_555
S2 C8 1_555 1_555
C12 C3 1_555 1_555
C13 C12 1_555 1_555
H10 C13 1_555 1_555
C14 C13 1_555 1_555
H11 C14 1_555 1_555
C15 C14 1_555 1_555
H12 C15 1_555 1_555
S3 C12 1_555 1_555
N3 H13 1_555 1_555
C16 N3 1_555 1_555
N4 C16 1_555 1_555
C17 N4 1_555 1_555
H14 C17 1_555 1_555
C18 N3 1_555 1_555
H15 C18 1_555 1_555
C19 C16 1_555 1_555
C20 C19 1_555 1_555
H16 C20 1_555 1_555
C21 C20 1_555 1_555
H17 C21 1_555 1_555
C22 C21 1_555 1_555
H18 C22 1_555 1_555
S4 C19 1_555 1_555
C23 C17 1_555 1_555
C24 C23 1_555 1_555
H19 C24 1_555 1_555
C25 C24 1_555 1_555
H20 C25 1_555 1_555
C26 C25 1_555 1_555
H21 C26 1_555 1_555
S5 C23 1_555 1_555
C27 C18 1_555 1_555
C28 C27 1_555 1_555
H22 C28 1_555 1_555
C29 C28 1_555 1_555
H23 C29 1_555 1_555
C30 C29 1_555 1_555
H24 C30 1_555 1_555
S6 C27 1_555 1_555
N5 H25 1_555 1_555
C31 N5 1_555 1_555
N6 C31 1_555 1_555
C32 N6 1_555 1_555
H26 C32 1_555 1_555
C33 N5 1_555 1_555
H27 C33 1_555 1_555
C34 C31 1_555 1_555
C35 C34 1_555 1_555
H28 C35 1_555 1_555
C36 C35 1_555 1_555
H29 C36 1_555 1_555
C37 C36 1_555 1_555
H30 C37 1_555 1_555
S7 C34 1_555 1_555
C38 C32 1_555 1_555
C39 C38 1_555 1_555
H31 C39 1_555 1_555
C40 C39 1_555 1_555
H32 C40 1_555 1_555
C41 C40 1_555 1_555
H33 C41 1_555 1_555
S8 C38 1_555 1_555
C42 C33 1_555 1_555
C43 C42 1_555 1_555
H34 C43 1_555 1_555
C44 C43 1_555 1_555
H35 C44 1_555 1_555
C45 C44 1_555 1_555
H36 C45 1_555 1_555
S9 C42 1_555 1_555
C2 C3 1_555 1_555
C7 S1 1_555 1_555
C11 S2 1_555 1_555
C15 S3 1_555 1_555
C17 C18 1_555 1_555
C22 S4 1_555 1_555
C26 S5 1_555 1_555
C30 S6 1_555 1_555
C32 C33 1_555 1_555
C37 S7 1_555 1_555
C41 S8 1_555 1_555
C45 S9 1_555 1_555

#END
