
#######################################################################
#
#                 Cambridge Crystallographic Data Centre
#                                CCDC 
#
#######################################################################
#
# If this CIF has been generated from an entry in the Cambridge 
# Structural Database, then it will include bibliographic, chemical, 
# crystal, experimental, refinement or atomic coordinate data resulting 
# from the CCDC's data processing and validation procedures.
#
#######################################################################

data_DICQOW
_chemical_formula_moiety         'C18 H18 O8'
_chemical_name_systematic        
1,4-bis(1-Hydroxy-5-methoxy-3,5-dioxopentyl)benzene
_symmetry_cell_setting           monoclinic
_symmetry_space_group_name_H-M   'P 21/c'
_symmetry_Int_Tables_number      14
_space_group_name_Hall           '-P 2ybc'
loop_
_symmetry_equiv_pos_site_id
_symmetry_equiv_pos_as_xyz
1 x,y,z
2 -x,1/2+y,1/2-z
3 -x,-y,-z
4 x,1/2-y,1/2+z
_cell_length_a                   9.801(2)
_cell_length_b                   8.2176(16)
_cell_length_c                   11.755(2)
_cell_angle_alpha                90
_cell_angle_beta                 112.62(3)
_cell_angle_gamma                90
_cell_volume                     873.928
_exptl_crystal_colour            yellow
_exptl_crystal_description       prism
_chemical_melting_point          '120-121 deg.C'
_cell_formula_units_Z            2
loop_
_atom_site_label
_atom_site_type_symbol
_atom_site_fract_x
_atom_site_fract_y
_atom_site_fract_z
H1 H 0.8246(15) 0.6326(19) 0.9226(14)
H2 H 0.638(3) 0.414(3) 0.682(2)
O1 O 1.15518(11) 0.55491(14) 0.70763(9)
O2 O 0.99278(12) 0.74549(15) 0.60856(10)
O3 O 0.79282(11) 0.48935(14) 0.66703(9)
O4 O 0.58124(11) 0.40988(15) 0.73070(9)
C1 C 1.04587(14) 0.65652(17) 0.69467(12)
C2 C 0.99681(15) 0.6461(2) 0.80050(12)
H3 H 0.9922 0.7550 0.8307
H4 H 1.0694 0.5850 0.8669
C3 C 0.84770(14) 0.56571(16) 0.76542(12)
C4 C 0.77718(15) 0.57722(17) 0.85134(12)
C5 C 0.64817(14) 0.49878(16) 0.83114(11)
C6 C 0.57207(13) 0.50032(16) 0.91826(11)
C7 C 0.60080(16) 0.62098(19) 1.00691(13)
H5 H 0.6682 0.7029 1.0117
C8 C 0.47030(15) 0.37994(19) 0.91186(13)
H6 H 0.4497 0.2990 0.8523
C9 C 1.21298(19) 0.5572(2) 0.61145(16)
H7 H 1.2925 0.4803 0.6307
H8 H 1.2489 0.6642 0.6055
H9 H 1.1359 0.5285 0.5343
H1B H 0.1754(15) 0.3674(19) 1.0774(14)
H2B H 0.362(3) 0.586(3) 1.318(2)
O1B O -0.15518(11) 0.44509(14) 1.29237(9)
O2B O 0.00722(12) 0.25451(15) 1.39144(10)
O3B O 0.20718(11) 0.51065(14) 1.33297(9)
O4B O 0.41876(11) 0.59012(15) 1.26930(9)
C1B C -0.04587(14) 0.34348(17) 1.30533(12)
C2B C 0.00319(15) 0.3539(2) 1.19950(12)
H3B H 0.0078 0.2450 1.1693
H4B H -0.0694 0.4150 1.1331
C3B C 0.15230(14) 0.43429(16) 1.23458(12)
C4B C 0.22282(15) 0.42278(17) 1.14866(12)
C5B C 0.35183(14) 0.50122(16) 1.16886(11)
C6B C 0.42793(13) 0.49968(16) 1.08174(11)
C7B C 0.39920(16) 0.37902(19) 0.99309(13)
H5B H 0.3318 0.2971 0.9883
C8B C 0.52970(15) 0.62006(19) 1.08814(13)
H6B H 0.5503 0.7010 1.1477
C9B C -0.21298(19) 0.4428(2) 1.38855(16)
H7B H -0.2925 0.5197 1.3693
H8B H -0.2489 0.3358 1.3945
H9B H -0.1359 0.4715 1.4657
loop_
_geom_bond_atom_site_label_1
_geom_bond_atom_site_label_2
_geom_bond_site_symmetry_1
_geom_bond_site_symmetry_2
H1 C4 1_555 1_555
H2 O4 1_555 1_555
O1 C1 1_555 1_555
O2 C1 1_555 1_555
O3 C3 1_555 1_555
O4 C5 1_555 1_555
C1 C2 1_555 1_555
C2 H3 1_555 1_555
H4 C2 1_555 1_555
C3 C2 1_555 1_555
C4 C3 1_555 1_555
C5 C4 1_555 1_555
C6 C5 1_555 1_555
C7 C6 1_555 1_555
H5 C7 1_555 1_555
C8 C6 1_555 1_555
H6 C8 1_555 1_555
C9 O1 1_555 1_555
H7 C9 1_555 1_555
H8 C9 1_555 1_555
H9 C9 1_555 1_555
H1B C4B 1_555 1_555
H2B O4B 1_555 1_555
O1B C1B 1_555 1_555
O2B C1B 1_555 1_555
O3B C3B 1_555 1_555
O4B C5B 1_555 1_555
C1B C2B 1_555 1_555
C2B H3B 1_555 1_555
H4B C2B 1_555 1_555
C3B C2B 1_555 1_555
C4B C3B 1_555 1_555
C5B C4B 1_555 1_555
C6B C5B 1_555 1_555
C7B C8 1_555 1_555
H5B C7B 1_555 1_555
C8B C7 1_555 1_555
H6B C8B 1_555 1_555
C9B O1B 1_555 1_555
H7B C9B 1_555 1_555
H8B C9B 1_555 1_555
H9B C9B 1_555 1_555
C6B C7B 1_555 1_555
C6B C8B 1_555 1_555

#END
