
#######################################################################
#
#                 Cambridge Crystallographic Data Centre
#                                CCDC 
#
#######################################################################
#
# If this CIF has been generated from an entry in the Cambridge 
# Structural Database, then it will include bibliographic, chemical, 
# crystal, experimental, refinement or atomic coordinate data resulting 
# from the CCDC's data processing and validation procedures.
#
#######################################################################

data_DICSUE
_chemical_formula_moiety         'C90 H65 B5 N10 O10,2(C1 H1 Cl3),0.5(C5 H12)'
_chemical_name_systematic        
"Cyclo-(pentakis((pyridine-3,4-diolato-O,O',N)(3-(phenyliminomethyl)phenyl)boron)) chloroform pentane solvate"
_symmetry_cell_setting           triclinic
_symmetry_space_group_name_H-M   'P -1'
_symmetry_Int_Tables_number      2
_space_group_name_Hall           '-P 1'
loop_
_symmetry_equiv_pos_site_id
_symmetry_equiv_pos_as_xyz
1 x,y,z
2 -x,-y,-z
_cell_length_a                   15.9647(19)
_cell_length_b                   16.2747(18)
_cell_length_c                   19.192(2)
_cell_angle_alpha                112.104(8)
_cell_angle_beta                 101.901(9)
_cell_angle_gamma                94.520(9)
_cell_volume                     4452.9
_exptl_crystal_colour            colorless
_exptl_crystal_description       irregular
_cell_formula_units_Z            2
loop_
_atom_site_label
_atom_site_type_symbol
_atom_site_fract_x
_atom_site_fract_y
_atom_site_fract_z
Cl1 Cl 0.2841(3) 0.8848(2) 0.9912(2)
Cl2 Cl 0.1825(3) 0.7562(3) 1.0278(2)
Cl3 Cl 0.2717(4) 0.9293(3) 1.1466(3)
C91 C 0.2749(10) 0.8424(8) 1.0600(7)
H66 H 0.3279 0.8158 1.0707
C92 C -0.0894(18) 0.865(2) 0.5466(16)
H67 H -0.1499 0.8548 0.5490
H68 H -0.0512 0.8564 0.5895
H69 H -0.0828 0.8219 0.4970
C93 C -0.0688(8) 0.9457(9) 0.5524(7)
H70 H -0.0377 0.9842 0.6070
H71 H -0.1228 0.9690 0.5398
C94 C -0.0097(13) 0.9542(9) 0.4976(9)
H72 H 0.0456 0.9337 0.5118
H73 H -0.0394 0.9137 0.4431
C92A C 0.0894(18) 1.135(2) 0.4534(16)
H67A H 0.1499 1.1452 0.4510
H68A H 0.0512 1.1436 0.4105
H69A H 0.0828 1.1781 0.5030
C93A C 0.0688(8) 1.0543(9) 0.4476(7)
H70A H 0.0377 1.0158 0.3930
H71A H 0.1228 1.0310 0.4602
C94A C 0.0097(13) 1.0458(9) 0.5024(9)
H72A H -0.0456 1.0663 0.4882
H73A H 0.0394 1.0863 0.5569
O1 O -0.1644(4) 0.1089(4) 0.2213(3)
O2 O -0.1888(3) 0.0628(3) 0.3204(3)
O3 O 0.0169(3) 0.4312(3) 0.5410(3)
O4 O -0.0235(3) 0.3118(3) 0.5780(3)
O5 O 0.3559(3) 0.2893(3) 0.6412(3)
O6 O 0.2487(3) 0.1966(3) 0.6629(3)
O7 O 0.3555(3) -0.1125(3) 0.4194(3)
O8 O 0.2393(3) -0.1281(3) 0.4769(3)
O9 O 0.0029(4) -0.2491(4) 0.1533(3)
O10 O -0.0432(3) -0.2133(3) 0.2698(3)
N1 N -0.0917(4) 0.2968(4) 0.4447(4)
N2 N 0.2120(4) 0.3358(4) 0.6460(4)
N3 N 0.3400(4) 0.0194(4) 0.5339(4)
N4 N 0.1121(4) -0.2188(4) 0.2760(4)
N5 N -0.1400(4) -0.0459(4) 0.2110(4)
N6 N -0.5557(5) -0.2266(5) 0.1412(4)
N7 N -0.2386(5) 0.7009(4) 0.6515(4)
N8 N 0.3481(6) 0.3378(5) 1.0241(5)
N9 N 0.5014(4) -0.3603(4) 0.4613(4)
N10 N -0.2001(5) -0.6302(5) 0.1775(4)
C1 C -0.1378(5) 0.1764(5) 0.2898(5)
C2 C -0.1504(5) 0.1499(5) 0.3506(5)
C3 C -0.1288(4) 0.2096(5) 0.4253(5)
H1 H -0.1393 0.1912 0.4647
C4 C -0.0813(5) 0.3236(5) 0.3882(5)
H2 H -0.0584 0.3850 0.4024
C5 C -0.1034(5) 0.2637(5) 0.3079(5)
H3 H -0.0945 0.2835 0.2689
C6 C 0.0872(5) 0.4075(5) 0.5757(4)
C7 C 0.0625(5) 0.3357(5) 0.5967(4)
C8 C 0.1255(5) 0.3023(5) 0.6318(5)
H4 H 0.1096 0.2551 0.6468
C9 C 0.2346(5) 0.4042(5) 0.6284(5)
H5 H 0.2945 0.4288 0.6415
C10 C 0.1725(4) 0.4426(5) 0.5903(4)
H6 H 0.1899 0.4900 0.5760
C11 C 0.3568(5) 0.2048(5) 0.6026(5)
C12 C 0.2942(5) 0.1479(5) 0.6155(4)
C13 C 0.2879(5) 0.0567(5) 0.5825(4)
H7 H 0.2480 0.0192 0.5928
C14 C 0.3995(5) 0.0719(5) 0.5221(5)
H8 H 0.4356 0.0444 0.4895
C15 C 0.4105(5) 0.1683(5) 0.5568(5)
H9 H 0.4533 0.2049 0.5484
C16 C 0.2820(6) -0.1469(5) 0.3667(5)
C17 C 0.2107(5) -0.1560(5) 0.3998(5)
C18 C 0.1289(6) -0.1936(5) 0.3538(5)
H10 H 0.0832 -0.2023 0.3765
C19 C 0.1787(5) -0.2133(5) 0.2428(5)
H11 H 0.1663 -0.2350 0.1877
C20 C 0.2655(6) -0.1766(5) 0.2865(6)
H12 H 0.3107 -0.1725 0.2620
C21 C -0.0423(6) -0.1832(6) 0.1642(5)
C22 C -0.0694(5) -0.1591(5) 0.2341(5)
C23 C -0.1182(5) -0.0938(5) 0.2552(5)
H13 H -0.1375 -0.0811 0.3012
C24 C -0.1167(6) -0.0673(6) 0.1445(5)
H14 H -0.1343 -0.0353 0.1131
C25 C -0.0664(6) -0.1366(6) 0.1182(6)
H15 H -0.0502 -0.1500 0.0707
C26 C -0.2985(6) -0.0152(5) 0.1847(5)
C27 C -0.3447(5) -0.0893(5) 0.1906(5)
H16 H -0.3150 -0.1160 0.2225
C28 C -0.4303(6) -0.1241(5) 0.1524(5)
C29 C -0.4730(7) -0.0849(6) 0.1046(5)
H17 H -0.5320 -0.1084 0.0766
C30 C -0.4301(7) -0.0128(6) 0.0982(6)
H18 H -0.4597 0.0149 0.0671
C31 C -0.3435(7) 0.0194(6) 0.1370(5)
H19 H -0.3141 0.0678 0.1301
C32 C -0.4744(6) -0.1965(5) 0.1653(5)
H20 H -0.4397 -0.2236 0.1942
C33 C -0.5902(6) -0.2921(6) 0.1667(5)
C34 C -0.5633(5) -0.2836(6) 0.2436(5)
H21 H -0.5180 -0.2360 0.2795
C35 C -0.6001(6) -0.3415(6) 0.2676(5)
H22 H -0.5807 -0.3340 0.3202
C36 C -0.6666(7) -0.4124(6) 0.2167(6)
H23 H -0.6932 -0.4527 0.2341
C37 C -0.6924(8) -0.4227(7) 0.1412(7)
H24 H -0.7358 -0.4720 0.1048
C38 C -0.6548(7) -0.3604(7) 0.1170(6)
H25 H -0.6752 -0.3664 0.0649
C39 C -0.1374(4) 0.4151(5) 0.5635(4)
C40 C -0.2104(5) 0.3710(5) 0.5742(5)
H26 H -0.2174 0.3078 0.5601
C41 C -0.2726(5) 0.4183(5) 0.6051(4)
H27 H -0.3216 0.3871 0.6111
C42 C -0.2631(5) 0.5100(5) 0.6267(5)
H28 H -0.3042 0.5426 0.6494
C43 C -0.1925(5) 0.5547(5) 0.6150(5)
C44 C -0.1320(5) 0.5076(5) 0.5839(4)
H29 H -0.0846 0.5392 0.5761
C45 C -0.1799(5) 0.6532(5) 0.6324(5)
H30 H -0.1272 0.6813 0.6292
C46 C -0.2122(6) 0.7956(6) 0.6718(6)
C47 C -0.2721(7) 0.8406(6) 0.6450(7)
H31 H -0.3279 0.8079 0.6134
C48 C -0.2538(9) 0.9307(7) 0.6626(8)
H32 H -0.2958 0.9608 0.6440
C49 C -0.1680(8) 0.9786(6) 0.7105(9)
H33 H -0.1510 1.0404 0.7215
C50 C -0.1134(9) 0.9343(8) 0.7388(10)
H34 H -0.0582 0.9662 0.7721
C51 C -0.1342(8) 0.8435(7) 0.7216(9)
H35 H -0.0944 0.8146 0.7443
C52 C 0.3190(5) 0.3508(5) 0.7763(5)
C53 C 0.3848(5) 0.4277(5) 0.8065(5)
H36 H 0.4039 0.4501 0.7723
C54 C 0.4205(6) 0.4691(6) 0.8841(6)
H37 H 0.4650 0.5204 0.9037
C55 C 0.3938(6) 0.4387(7) 0.9356(6)
H38 H 0.4185 0.4697 0.9900
C56 C 0.3294(5) 0.3609(6) 0.9063(5)
C57 C 0.2929(5) 0.3219(5) 0.8286(5)
H39 H 0.2468 0.2721 0.8091
C58 C 0.3046(6) 0.3187(7) 0.9562(6)
H40 H 0.2532 0.2748 0.9361
C59 C 0.3241(7) 0.2828(6) 1.0640(6)
C60 C 0.3301(7) 0.3263(7) 1.1444(6)
H41 H 0.3445 0.3900 1.1697
C61 C 0.3149(9) 0.2754(8) 1.1865(7)
H42 H 0.3175 0.3043 1.2403
C62 C 0.2962(9) 0.1832(9) 1.1493(7)
H43 H 0.2878 0.1482 1.1781
C63 C 0.2895(8) 0.1419(7) 1.0727(7)
H44 H 0.2741 0.0782 1.0483
C64 C 0.3040(7) 0.1878(7) 1.0283(6)
H45 H 0.3007 0.1565 0.9746
C65 C 0.3969(5) -0.1204(5) 0.5575(5)
C66 C 0.4226(6) -0.0740(6) 0.6392(6)
H46 H 0.4080 -0.0162 0.6626
C67 C 0.4681(7) -0.1108(7) 0.6852(6)
H47 H 0.4808 -0.0807 0.7403
C68 C 0.4965(6) -0.1941(6) 0.6509(5)
H48 H 0.5305 -0.2185 0.6826
C69 C 0.4737(5) -0.2398(5) 0.5697(5)
C70 C 0.4234(5) -0.2025(5) 0.5255(5)
H49 H 0.4063 -0.2347 0.4706
C71 C 0.5053(5) -0.3250(5) 0.5334(5)
H50 H 0.5294 -0.3543 0.5653
C72 C 0.5375(5) -0.4382(5) 0.4297(5)
C73 C 0.6072(5) -0.4616(5) 0.4714(5)
H51 H 0.6337 -0.4236 0.5244
C74 C 0.6381(5) -0.5411(5) 0.4351(5)
H52 H 0.6833 -0.5580 0.4650
C75 C 0.6054(5) -0.5943(5) 0.3590(5)
H53 H 0.6288 -0.6466 0.3351
C76 C 0.5363(6) -0.5715(6) 0.3154(5)
H54 H 0.5123 -0.6087 0.2618
C77 C 0.5029(5) -0.4934(5) 0.3515(5)
H55 H 0.4561 -0.4781 0.3219
C78 C 0.0065(6) -0.3713(6) 0.2168(5)
C79 C 0.0719(7) -0.4163(6) 0.2284(5)
H56 H 0.1296 -0.3855 0.2413
C80 C 0.0611(7) -0.5055(6) 0.2229(6)
H57 H 0.1096 -0.5342 0.2308
C81 C -0.0199(6) -0.5477(6) 0.2061(5)
H58 H -0.0285 -0.6079 0.2023
C82 C -0.0923(6) -0.5082(5) 0.1939(5)
C83 C -0.0773(7) -0.4170(6) 0.1993(5)
H59 H -0.1254 -0.3880 0.1907
C84 C -0.1819(6) -0.5526(6) 0.1772(5)
H60 H -0.2281 -0.5225 0.1659
C85 C -0.2878(5) -0.6710(6) 0.1578(6)
C86 C -0.3135(6) -0.7231(6) 0.1945(5)
H61 H -0.2723 -0.7293 0.2350
C87 C -0.3997(7) -0.7671(6) 0.1729(6)
H62 H -0.4165 -0.8005 0.2006
C88 C -0.4566(7) -0.7635(6) 0.1165(7)
H63 H -0.5146 -0.7937 0.1036
C89 C -0.4338(7) -0.7141(7) 0.0723(8)
H64 H -0.4756 -0.7125 0.0299
C90 C -0.3495(8) -0.6693(7) 0.0937(7)
H65 H -0.3326 -0.6369 0.0653
B1 B -0.2012(7) 0.0279(6) 0.2331(6)
B2 B -0.0619(6) 0.3645(6) 0.5320(6)
B3 B 0.2843(5) 0.2945(6) 0.6846(6)
B4 B 0.3329(6) -0.0878(6) 0.4967(6)
B5 B 0.0178(6) -0.2665(7) 0.2269(6)
Cl4? Cl -0.0723(6) 0.4389(4) 0.9889(4)
Cl5? Cl 0.1071(5) 0.3843(6) 1.0308(5)
C95? C 0.050(2) 0.4498(17) 0.9879(17)
H74? H 0.0495 0.4209 0.9317
Cl6? Cl 0.0653(9) 0.8454(9) 0.8759(9)
Cl7? Cl -0.0793(13) 0.7648(13) 0.9049(14)
Cl8? Cl -0.0350(16) 0.9534(13) 0.9673(16)
C96? C -0.035(2) 0.8535(17) 0.893(2)
H75? H -0.0736 0.8541 0.8450
loop_
_geom_bond_atom_site_label_1
_geom_bond_atom_site_label_2
_geom_bond_site_symmetry_1
_geom_bond_site_symmetry_2
O1 C1 1_555 1_555
O2 C2 1_555 1_555
O3 C6 1_555 1_555
O4 C7 1_555 1_555
O5 C11 1_555 1_555
O6 C12 1_555 1_555
O7 C16 1_555 1_555
O8 C17 1_555 1_555
O9 C21 1_555 1_555
O10 C22 1_555 1_555
N1 C3 1_555 1_555
N2 C8 1_555 1_555
N3 C13 1_555 1_555
N4 C18 1_555 1_555
N5 C23 1_555 1_555
N6 C32 1_555 1_555
N7 C45 1_555 1_555
N8 C58 1_555 1_555
N9 C71 1_555 1_555
N10 C84 1_555 1_555
C1 C2 1_555 1_555
C2 C3 1_555 1_555
C3 H1 1_555 1_555
C4 N1 1_555 1_555
H2 C4 1_555 1_555
C5 C1 1_555 1_555
H3 C5 1_555 1_555
C6 C7 1_555 1_555
C7 C8 1_555 1_555
C8 H4 1_555 1_555
C9 N2 1_555 1_555
H5 C9 1_555 1_555
C10 C6 1_555 1_555
H6 C10 1_555 1_555
C11 C12 1_555 1_555
C12 C13 1_555 1_555
C13 H7 1_555 1_555
C14 N3 1_555 1_555
H8 C14 1_555 1_555
C15 C11 1_555 1_555
H9 C15 1_555 1_555
C16 C17 1_555 1_555
C17 C18 1_555 1_555
C18 H10 1_555 1_555
C19 N4 1_555 1_555
H11 C19 1_555 1_555
C20 C16 1_555 1_555
H12 C20 1_555 1_555
C21 C22 1_555 1_555
C22 C23 1_555 1_555
C23 H13 1_555 1_555
C24 N5 1_555 1_555
H14 C24 1_555 1_555
C25 C21 1_555 1_555
H15 C25 1_555 1_555
C26 C27 1_555 1_555
C27 H16 1_555 1_555
C28 C27 1_555 1_555
C29 C28 1_555 1_555
H17 C29 1_555 1_555
C30 C29 1_555 1_555
H18 C30 1_555 1_555
C31 C26 1_555 1_555
H19 C31 1_555 1_555
C32 C28 1_555 1_555
H20 C32 1_555 1_555
C33 N6 1_555 1_555
C34 C33 1_555 1_555
H21 C34 1_555 1_555
C35 C34 1_555 1_555
H22 C35 1_555 1_555
C36 C35 1_555 1_555
H23 C36 1_555 1_555
C37 C36 1_555 1_555
H24 C37 1_555 1_555
C38 C33 1_555 1_555
H25 C38 1_555 1_555
C39 C40 1_555 1_555
C40 H26 1_555 1_555
C41 C40 1_555 1_555
H27 C41 1_555 1_555
C42 C41 1_555 1_555
H28 C42 1_555 1_555
C43 C42 1_555 1_555
C44 C39 1_555 1_555
H29 C44 1_555 1_555
C45 C43 1_555 1_555
H30 C45 1_555 1_555
C46 N7 1_555 1_555
C47 C46 1_555 1_555
H31 C47 1_555 1_555
C48 C47 1_555 1_555
H32 C48 1_555 1_555
C49 C48 1_555 1_555
H33 C49 1_555 1_555
C50 C49 1_555 1_555
H34 C50 1_555 1_555
C51 C46 1_555 1_555
H35 C51 1_555 1_555
C52 C53 1_555 1_555
C53 H36 1_555 1_555
C54 C53 1_555 1_555
H37 C54 1_555 1_555
C55 C54 1_555 1_555
H38 C55 1_555 1_555
C56 C55 1_555 1_555
C57 C52 1_555 1_555
H39 C57 1_555 1_555
C58 C56 1_555 1_555
H40 C58 1_555 1_555
C59 N8 1_555 1_555
C60 C59 1_555 1_555
H41 C60 1_555 1_555
C61 C60 1_555 1_555
H42 C61 1_555 1_555
C62 C61 1_555 1_555
H43 C62 1_555 1_555
C63 C62 1_555 1_555
H44 C63 1_555 1_555
C64 C59 1_555 1_555
H45 C64 1_555 1_555
C65 C66 1_555 1_555
C66 H46 1_555 1_555
C67 C66 1_555 1_555
H47 C67 1_555 1_555
C68 C67 1_555 1_555
H48 C68 1_555 1_555
C69 C68 1_555 1_555
C70 C65 1_555 1_555
H49 C70 1_555 1_555
C71 C69 1_555 1_555
H50 C71 1_555 1_555
C72 N9 1_555 1_555
C73 C72 1_555 1_555
H51 C73 1_555 1_555
C74 C73 1_555 1_555
H52 C74 1_555 1_555
C75 C74 1_555 1_555
H53 C75 1_555 1_555
C76 C75 1_555 1_555
H54 C76 1_555 1_555
C77 C72 1_555 1_555
H55 C77 1_555 1_555
C78 C79 1_555 1_555
C79 H56 1_555 1_555
C80 C79 1_555 1_555
H57 C80 1_555 1_555
C81 C80 1_555 1_555
H58 C81 1_555 1_555
C82 C81 1_555 1_555
C83 C78 1_555 1_555
H59 C83 1_555 1_555
C84 C82 1_555 1_555
H60 C84 1_555 1_555
C85 N10 1_555 1_555
C86 C85 1_555 1_555
H61 C86 1_555 1_555
C87 C86 1_555 1_555
H62 C87 1_555 1_555
C88 C87 1_555 1_555
H63 C88 1_555 1_555
C89 C88 1_555 1_555
H64 C89 1_555 1_555
C90 C85 1_555 1_555
H65 C90 1_555 1_555
B1 O1 1_555 1_555
B2 O3 1_555 1_555
B3 O5 1_555 1_555
B4 O7 1_555 1_555
B5 O9 1_555 1_555
Cl1 C91 1_555 1_555
Cl2 C91 1_555 1_555
Cl3 C91 1_555 1_555
C91 H66 1_555 1_555
C92 H67 1_555 1_555
H68 C92 1_555 1_555
H69 C92 1_555 1_555
C93 C92 1_555 1_555
H70 C93 1_555 1_555
H71 C93 1_555 1_555
C94 C93 1_555 1_555
H72 C94 1_555 1_555
H73 C94 1_555 1_555
C92A H67A 1_555 1_555
H68A C92A 1_555 1_555
H69A C92A 1_555 1_555
C93A C92A 1_555 1_555
H70A C93A 1_555 1_555
H71A C93A 1_555 1_555
C94A C94 1_555 1_555
H72A C94A 1_555 1_555
H73A C94A 1_555 1_555
O2 B1 1_555 1_555
O4 B2 1_555 1_555
O6 B3 1_555 1_555
O8 B4 1_555 1_555
O10 B5 1_555 1_555
N1 B2 1_555 1_555
N2 B3 1_555 1_555
N3 B4 1_555 1_555
N4 B5 1_555 1_555
N5 B1 1_555 1_555
C4 C5 1_555 1_555
C9 C10 1_555 1_555
C14 C15 1_555 1_555
C19 C20 1_555 1_555
C24 C25 1_555 1_555
C26 B1 1_555 1_555
C30 C31 1_555 1_555
C37 C38 1_555 1_555
C39 B2 1_555 1_555
C43 C44 1_555 1_555
C50 C51 1_555 1_555
C52 B3 1_555 1_555
C56 C57 1_555 1_555
C63 C64 1_555 1_555
C65 B4 1_555 1_555
C69 C70 1_555 1_555
C76 C77 1_555 1_555
C78 B5 1_555 1_555
C82 C83 1_555 1_555
C89 C90 1_555 1_555
C93A C94A 1_555 1_555

#END
