
#######################################################################
#
#                 Cambridge Crystallographic Data Centre
#                                CCDC 
#
#######################################################################
#
# If this CIF has been generated from an entry in the Cambridge 
# Structural Database, then it will include bibliographic, chemical, 
# crystal, experimental, refinement or atomic coordinate data resulting 
# from the CCDC's data processing and validation procedures.
#
#######################################################################

data_DICSEO
_chemical_formula_moiety         'C60 H50 B5 N5 O10'
_chemical_name_systematic        
"Cyclo-(pentakis((pyridine-3,4-diolato-O,O',N)(p-tolyl)boron)) unknown solvate"
_symmetry_cell_setting           triclinic
_symmetry_space_group_name_H-M   'P -1'
_symmetry_Int_Tables_number      2
_space_group_name_Hall           '-P 1'
loop_
_symmetry_equiv_pos_site_id
_symmetry_equiv_pos_as_xyz
1 x,y,z
2 -x,-y,-z
_cell_length_a                   14.8647(16)
_cell_length_b                   15.086(3)
_cell_length_c                   15.349(3)
_cell_angle_alpha                100.494(15)
_cell_angle_beta                 98.176(11)
_cell_angle_gamma                111.896(13)
_cell_volume                     3055.85
_exptl_crystal_colour            colorless
_exptl_crystal_description       irregular
_cell_formula_units_Z            2
loop_
_atom_site_label
_atom_site_type_symbol
_atom_site_fract_x
_atom_site_fract_y
_atom_site_fract_z
O1 O 0.4466(5) 0.8678(5) -0.1125(4)
O2 O 0.4024(4) 0.7408(4) -0.0345(4)
O3 O 0.8190(4) 0.9529(5) 0.1932(5)
O4 O 0.7023(5) 0.8047(5) 0.2126(4)
O5 O 0.9659(4) 0.6204(5) 0.0687(4)
O6 O 0.8113(4) 0.5273(4) 0.0983(4)
O7 O 0.6906(4) 0.3332(5) -0.3064(4)
O8 O 0.5799(4) 0.3053(5) -0.2067(4)
O9 O 0.3753(5) 0.4965(5) -0.4225(4)
O10 O 0.3219(5) 0.4375(5) -0.2969(4)
N1 N 0.6422(6) 0.8975(6) 0.1172(5)
N2 N 0.8802(6) 0.7122(6) 0.1472(5)
N3 N 0.7643(5) 0.3975(6) -0.1396(5)
N4 N 0.4462(6) 0.3886(6) -0.3652(6)
N5 N 0.3756(6) 0.6954(6) -0.2049(5)
C1 C 0.5193(8) 0.8872(7) -0.0398(7)
C2 C 0.4918(7) 0.8127(7) 0.0075(7)
C3 C 0.5529(7) 0.8167(7) 0.0862(7)
H1 H 0.5340 0.7660 0.1172
C4 C 0.6701(7) 0.9702(7) 0.0735(7)
H2 H 0.7329 1.0246 0.0976
C5 C 0.6078(7) 0.9678(7) -0.0077(7)
H3 H 0.6271 1.0195 -0.0377
C6 C 0.8482(7) 0.8791(7) 0.1734(7)
C7 C 0.7788(7) 0.7919(7) 0.1875(7)
C8 C 0.8001(7) 0.7122(7) 0.1771(6)
H4 H 0.7574 0.6546 0.1913
C9 C 0.9437(7) 0.7943(7) 0.1316(7)
H5 H 1.0006 0.7931 0.1110
C10 C 0.9298(7) 0.8810(7) 0.1443(6)
H6 H 0.9756 0.9389 0.1329
C11 C 0.9043(8) 0.5502(7) -0.0081(8)
C12 C 0.8141(7) 0.4943(7) 0.0118(7)
C13 C 0.7448(7) 0.4177(7) -0.0553(6)
H7 H 0.6830 0.3782 -0.0441
C14 C 0.8502(6) 0.4502(6) -0.1559(6)
H8 H 0.8624 0.4352 -0.2147
C15 C 0.9227(7) 0.5275(7) -0.0877(7)
H9 H 0.9856 0.5639 -0.0989
C16 C 0.6154(8) 0.3550(7) -0.3315(7)
C17 C 0.5495(7) 0.3383(7) -0.2751(6)
C18 C 0.4653(7) 0.3527(6) -0.2921(6)
H10 H 0.4196 0.3381 -0.2539
C19 C 0.5105(7) 0.4066(7) -0.4199(7)
H11 H 0.4956 0.4302 -0.4710
C20 C 0.5970(7) 0.3921(6) -0.4048(6)
H12 H 0.6423 0.4072 -0.4433
C21 C 0.3801(7) 0.5664(8) -0.3557(7)
C22 C 0.3487(7) 0.5330(7) -0.2806(7)
C23 C 0.3434(6) 0.5958(7) -0.2081(7)
H13 H 0.3178 0.5717 -0.1598
C24 C 0.4103(7) 0.7312(7) -0.2724(7)
H14 H 0.4332 0.8002 -0.2673
C25 C 0.4136(7) 0.6690(7) -0.3511(6)
H15 H 0.4373 0.6947 -0.3995
C26 C 0.2577(7) 0.7632(7) -0.1299(7)
C27 C 0.1986(8) 0.7535(7) -0.2138(8)
H16 H 0.2205 0.7389 -0.2677
C28 C 0.1079(8) 0.7643(9) -0.2214(10)
H17 H 0.0688 0.7567 -0.2791
C29 C 0.0767(9) 0.7870(9) -0.1400(11)
C30 C 0.1315(9) 0.7906(9) -0.0597(10)
H18 H 0.1089 0.8012 -0.0055
C31 C 0.2203(7) 0.7791(7) -0.0563(8)
H19 H 0.2568 0.7826 0.0012
C32 C -0.0201(10) 0.8026(12) -0.1446(12)
H20 H -0.0039 0.8732 -0.1231
H21 H -0.0589 0.7666 -0.1060
H22 H -0.0592 0.7780 -0.2077
C33 C 0.6925(7) 0.9645(7) 0.2949(7)
C34 C 0.6683(8) 1.0451(8) 0.3003(8)
H23 H 0.6618 1.0690 0.2477
C35 C 0.6529(10) 1.0929(9) 0.3803(8)
H24 H 0.6355 1.1474 0.3799
C36 C 0.6618(8) 1.0644(8) 0.4564(7)
C37 C 0.6856(10) 0.9834(9) 0.4564(8)
H25 H 0.6904 0.9603 0.5097
C38 C 0.7025(10) 0.9361(10) 0.3758(8)
H26 H 0.7214 0.8827 0.3770
C39 C 0.6396(8) 1.1148(8) 0.5398(7)
H27 H 0.6873 1.1842 0.5604
H28 H 0.6453 1.0817 0.5883
H29 H 0.5718 1.1113 0.5248
C40 C 0.9597(7) 0.6149(8) 0.2367(7)
C41 C 1.0293(7) 0.6977(8) 0.3062(8)
H30 H 1.0395 0.7609 0.2968
C42 C 1.0837(9) 0.6961(10) 0.3858(8)
H31 H 1.1299 0.7553 0.4288
C43 C 1.0677(8) 0.6020(11) 0.4007(8)
C44 C 1.0031(8) 0.5206(9) 0.3373(7)
H32 H 0.9947 0.4578 0.3469
C45 C 0.9476(7) 0.5241(7) 0.2576(7)
H33 H 0.9005 0.4641 0.2164
C46 C 1.1333(8) 0.5972(10) 0.4831(7)
H34 H 1.1469 0.6534 0.5342
H35 H 1.1962 0.5996 0.4688
H36 H 1.0992 0.5354 0.4996
C47 C 0.6897(7) 0.2047(7) -0.2108(6)
C48 C 0.7754(7) 0.1927(7) -0.1942(7)
H37 H 0.8366 0.2496 -0.1787
C49 C 0.7787(8) 0.1008(8) -0.1985(8)
H38 H 0.8412 0.0964 -0.1877
C50 C 0.6923(9) 0.0167(8) -0.2184(8)
C51 C 0.6032(8) 0.0269(8) -0.2346(8)
H39 H 0.5422 -0.0302 -0.2499
C52 C 0.6013(7) 0.1172(7) -0.2290(7)
H40 H 0.5387 0.1218 -0.2376
C53 C 0.6968(9) -0.0824(8) -0.2254(10)
H41 H 0.6764 -0.1073 -0.1734
H42 H 0.7651 -0.0754 -0.2251
H43 H 0.6519 -0.1291 -0.2821
C54 C 0.2552(8) 0.3058(8) -0.4537(7)
C55 C 0.2662(9) 0.2339(9) -0.5105(7)
H44 H 0.3312 0.2382 -0.5123
C56 C 0.1848(9) 0.1539(9) -0.5665(8)
H45 H 0.1947 0.1061 -0.6090
C57 C 0.0921(10) 0.1423(11) -0.5619(9)
C58 C 0.0804(10) 0.2140(12) -0.5036(10)
H46 H 0.0154 0.2081 -0.4994
C59 C 0.1605(9) 0.2937(10) -0.4514(9)
H47 H 0.1502 0.3432 -0.4114
C60 C 0.0001(10) 0.0450(11) -0.6199(9)
H48 H 0.0234 0.0034 -0.6592
H49 H -0.0464 0.0625 -0.6575
H50 H -0.0338 0.0086 -0.5788
B1 B 0.3669(9) 0.7683(10) -0.1196(9)
B2 B 0.7157(9) 0.9098(8) 0.2090(9)
B3 B 0.9028(9) 0.6141(9) 0.1399(9)
B4 B 0.6798(8) 0.3069(9) -0.2158(8)
B5 B 0.3448(10) 0.4019(9) -0.3881(9)
loop_
_geom_bond_atom_site_label_1
_geom_bond_atom_site_label_2
_geom_bond_site_symmetry_1
_geom_bond_site_symmetry_2
O1 C1 1_555 1_555
O2 C2 1_555 1_555
O3 C6 1_555 1_555
O4 C7 1_555 1_555
O5 C11 1_555 1_555
O6 C12 1_555 1_555
O7 C16 1_555 1_555
O8 C17 1_555 1_555
O9 C21 1_555 1_555
O10 C22 1_555 1_555
N1 C3 1_555 1_555
N2 C8 1_555 1_555
N3 C13 1_555 1_555
N4 C18 1_555 1_555
N5 C23 1_555 1_555
C1 C2 1_555 1_555
C2 C3 1_555 1_555
C3 H1 1_555 1_555
C4 N1 1_555 1_555
H2 C4 1_555 1_555
C5 C1 1_555 1_555
H3 C5 1_555 1_555
C6 C7 1_555 1_555
C7 C8 1_555 1_555
C8 H4 1_555 1_555
C9 N2 1_555 1_555
H5 C9 1_555 1_555
C10 C6 1_555 1_555
H6 C10 1_555 1_555
C11 C12 1_555 1_555
C12 C13 1_555 1_555
C13 H7 1_555 1_555
C14 N3 1_555 1_555
H8 C14 1_555 1_555
C15 C11 1_555 1_555
H9 C15 1_555 1_555
C16 C17 1_555 1_555
C17 C18 1_555 1_555
C18 H10 1_555 1_555
C19 N4 1_555 1_555
H11 C19 1_555 1_555
C20 C16 1_555 1_555
H12 C20 1_555 1_555
C21 C22 1_555 1_555
C22 C23 1_555 1_555
C23 H13 1_555 1_555
C24 N5 1_555 1_555
H14 C24 1_555 1_555
C25 C21 1_555 1_555
H15 C25 1_555 1_555
C26 C27 1_555 1_555
C27 H16 1_555 1_555
C28 C27 1_555 1_555
H17 C28 1_555 1_555
C29 C28 1_555 1_555
C30 C29 1_555 1_555
H18 C30 1_555 1_555
C31 C26 1_555 1_555
H19 C31 1_555 1_555
C32 C29 1_555 1_555
H20 C32 1_555 1_555
H21 C32 1_555 1_555
H22 C32 1_555 1_555
C33 C34 1_555 1_555
C34 H23 1_555 1_555
C35 C34 1_555 1_555
H24 C35 1_555 1_555
C36 C35 1_555 1_555
C37 C36 1_555 1_555
H25 C37 1_555 1_555
C38 C33 1_555 1_555
H26 C38 1_555 1_555
C39 C36 1_555 1_555
H27 C39 1_555 1_555
H28 C39 1_555 1_555
H29 C39 1_555 1_555
C40 C41 1_555 1_555
C41 H30 1_555 1_555
C42 C41 1_555 1_555
H31 C42 1_555 1_555
C43 C42 1_555 1_555
C44 C43 1_555 1_555
H32 C44 1_555 1_555
C45 C40 1_555 1_555
H33 C45 1_555 1_555
C46 C43 1_555 1_555
H34 C46 1_555 1_555
H35 C46 1_555 1_555
H36 C46 1_555 1_555
C47 C48 1_555 1_555
C48 H37 1_555 1_555
C49 C48 1_555 1_555
H38 C49 1_555 1_555
C50 C49 1_555 1_555
C51 C50 1_555 1_555
H39 C51 1_555 1_555
C52 C47 1_555 1_555
H40 C52 1_555 1_555
C53 C50 1_555 1_555
H41 C53 1_555 1_555
H42 C53 1_555 1_555
H43 C53 1_555 1_555
C54 C55 1_555 1_555
C55 H44 1_555 1_555
C56 C55 1_555 1_555
H45 C56 1_555 1_555
C57 C56 1_555 1_555
C58 C57 1_555 1_555
H46 C58 1_555 1_555
C59 C54 1_555 1_555
H47 C59 1_555 1_555
C60 C57 1_555 1_555
H48 C60 1_555 1_555
H49 C60 1_555 1_555
H50 C60 1_555 1_555
B1 O1 1_555 1_555
B2 O3 1_555 1_555
B3 O5 1_555 1_555
B4 O7 1_555 1_555
B5 O9 1_555 1_555
O2 B1 1_555 1_555
O4 B2 1_555 1_555
O6 B3 1_555 1_555
O8 B4 1_555 1_555
O10 B5 1_555 1_555
N1 B2 1_555 1_555
N2 B3 1_555 1_555
N3 B4 1_555 1_555
N4 B5 1_555 1_555
N5 B1 1_555 1_555
C4 C5 1_555 1_555
C9 C10 1_555 1_555
C14 C15 1_555 1_555
C19 C20 1_555 1_555
C24 C25 1_555 1_555
C26 B1 1_555 1_555
C30 C31 1_555 1_555
C33 B2 1_555 1_555
C37 C38 1_555 1_555
C40 B3 1_555 1_555
C44 C45 1_555 1_555
C47 B4 1_555 1_555
C51 C52 1_555 1_555
C54 B5 1_555 1_555
C58 C59 1_555 1_555

#END
