
#######################################################################
#
#                 Cambridge Crystallographic Data Centre
#                                CCDC 
#
#######################################################################
#
# If this CIF has been generated from an entry in the Cambridge 
# Structural Database, then it will include bibliographic, chemical, 
# crystal, experimental, refinement or atomic coordinate data resulting 
# from the CCDC's data processing and validation procedures.
#
#######################################################################

data_DICWAO
_chemical_formula_moiety         'C30 H40 N4,0.5(H2 O1)'
_chemical_name_systematic        
"(1R,2R)-N,N'-bis(2-(Piperidinyl)benzylidene)cyclohexane-1,2-diamine hemihydrate"
_symmetry_cell_setting           monoclinic
_symmetry_space_group_name_H-M   'C 2'
_symmetry_Int_Tables_number      5
_space_group_name_Hall           'C 2y'
loop_
_symmetry_equiv_pos_site_id
_symmetry_equiv_pos_as_xyz
1 x,y,z
2 -x,y,-z
3 1/2+x,1/2+y,z
4 1/2-x,1/2+y,-z
_cell_length_a                   27.010(9)
_cell_length_b                   9.588(3)
_cell_length_c                   11.685(4)
_cell_angle_alpha                90.00
_cell_angle_beta                 111.669(6)
_cell_angle_gamma                90.00
_cell_volume                     2812.24
_chemical_melting_point          152-153deg.C
_cell_formula_units_Z            4
_exptl_crystal_recrystallization_method water/ethanol
loop_
_atom_site_label
_atom_site_type_symbol
_atom_site_fract_x
_atom_site_fract_y
_atom_site_fract_z
N1 N 0.63759(10) -0.0886(3) -0.0575(2)
N2 N 0.60791(11) -0.3250(3) 0.0513(2)
N3 N 0.60072(12) 0.1732(3) 0.1674(3)
N4 N 0.74978(13) -0.3064(3) 0.3343(2)
C1 C 0.59628(12) -0.1843(4) -0.1273(3)
H1 H 0.5624 -0.1536 -0.1231
C2 C 0.59142(16) -0.1847(6) -0.2603(3)
H2 H 0.5815 -0.0923 -0.2950
H3 H 0.6256 -0.2078 -0.2647
C3 C 0.55076(19) -0.2877(7) -0.3339(4)
H4 H 0.5488 -0.2863 -0.4185
H5 H 0.5161 -0.2612 -0.3337
C4 C 0.5640(2) -0.4318(7) -0.2834(5)
H6 H 0.5972 -0.4617 -0.2896
H7 H 0.5362 -0.4957 -0.3310
C5 C 0.56921(19) -0.4351(5) -0.1484(4)
H8 H 0.5347 -0.4165 -0.1437
H9 H 0.5804 -0.5275 -0.1150
C6 C 0.60931(13) -0.3281(4) -0.0710(3)
H10 H 0.6451 -0.3547 -0.0658
C7 C 0.62464(13) 0.0070(4) -0.0036(3)
H11 H 0.5894 0.0111 -0.0093
C8 C 0.66182(14) 0.1154(4) 0.0695(3)
C9 C 0.64815(15) 0.1995(3) 0.1487(3)
C10 C 0.6821(2) 0.3086(4) 0.2054(4)
H12 H 0.6734 0.3673 0.2585
C11 C 0.7274(2) 0.3313(5) 0.1850(5)
H13 H 0.7492 0.4058 0.2235
C12 C 0.74170(18) 0.2471(6) 0.1092(4)
H14 H 0.7733 0.2628 0.0965
C13 C 0.70913(16) 0.1389(4) 0.0517(4)
H15 H 0.7188 0.0803 0.0001
C14 C 0.60099(16) 0.0487(4) 0.2369(4)
H16 H 0.6233 0.0639 0.3226
H17 H 0.6163 -0.0274 0.2063
C15 C 0.54645(19) 0.0090(6) 0.2285(5)
H18 H 0.5485 -0.0715 0.2803
H19 H 0.5251 -0.0163 0.1442
C16 C 0.5204(2) 0.1284(8) 0.2687(6)
H20 H 0.4836 0.1054 0.2537
H21 H 0.5385 0.1442 0.3564
C17 C 0.5227(3) 0.2557(8) 0.2007(6)
H22 H 0.5088 0.3334 0.2330
H23 H 0.5001 0.2439 0.1147
C18 C 0.5779(2) 0.2888(6) 0.2100(5)
H24 H 0.5774 0.3708 0.1609
H25 H 0.5998 0.3095 0.2950
C19 C 0.65079(13) -0.3373(4) 0.1407(3)
H26 H 0.6819 -0.3497 0.1251
C20 C 0.65461(14) -0.3333(4) 0.2681(3)
C21 C 0.70381(16) -0.3226(4) 0.3642(3)
C22 C 0.7050(2) -0.3291(5) 0.4842(4)
H27 H 0.7375 -0.3234 0.5497
C23 C 0.6596(3) -0.3435(7) 0.5077(5)
H28 H 0.6613 -0.3467 0.5886
C24 C 0.6120(2) -0.3533(6) 0.4141(5)
H29 H 0.5810 -0.3641 0.4304
C25 C 0.60949(18) -0.3472(5) 0.2959(4)
H30 H 0.5764 -0.3525 0.2320
C26 C 0.75689(19) -0.1669(4) 0.2951(4)
H31 H 0.7670 -0.1043 0.3652
H32 H 0.7235 -0.1341 0.2347
C27 C 0.7981(2) -0.1645(6) 0.2411(5)
H33 H 0.8041 -0.0689 0.2222
H34 H 0.7857 -0.2167 0.1646
C28 C 0.8504(2) -0.2266(7) 0.3271(6)
H35 H 0.8747 -0.2361 0.2838
H36 H 0.8666 -0.1647 0.3966
C29 C 0.8409(2) -0.3682(6) 0.3730(5)
H37 H 0.8305 -0.4343 0.3054
H38 H 0.8737 -0.4013 0.4356
C30 C 0.79906(18) -0.3598(6) 0.4246(4)
H39 H 0.7928 -0.4518 0.4512
H40 H 0.8107 -0.2991 0.4961
O1 O 0.5000 -0.2258(17) 0.0000
loop_
_geom_bond_atom_site_label_1
_geom_bond_atom_site_label_2
_geom_bond_site_symmetry_1
_geom_bond_site_symmetry_2
N1 C1 1_555 1_555
N2 C6 1_555 1_555
N3 C9 1_555 1_555
N4 C21 1_555 1_555
C1 H1 1_555 1_555
C2 C1 1_555 1_555
H2 C2 1_555 1_555
H3 C2 1_555 1_555
C3 C2 1_555 1_555
H4 C3 1_555 1_555
H5 C3 1_555 1_555
C4 C3 1_555 1_555
H6 C4 1_555 1_555
H7 C4 1_555 1_555
C5 C4 1_555 1_555
H8 C5 1_555 1_555
H9 C5 1_555 1_555
C6 C1 1_555 1_555
H10 C6 1_555 1_555
C7 N1 1_555 1_555
H11 C7 1_555 1_555
C8 C7 1_555 1_555
C9 C8 1_555 1_555
C10 C9 1_555 1_555
H12 C10 1_555 1_555
C11 C10 1_555 1_555
H13 C11 1_555 1_555
C12 C11 1_555 1_555
H14 C12 1_555 1_555
C13 C8 1_555 1_555
H15 C13 1_555 1_555
C14 N3 1_555 1_555
H16 C14 1_555 1_555
H17 C14 1_555 1_555
C15 C14 1_555 1_555
H18 C15 1_555 1_555
H19 C15 1_555 1_555
C16 C15 1_555 1_555
H20 C16 1_555 1_555
H21 C16 1_555 1_555
C17 C16 1_555 1_555
H22 C17 1_555 1_555
H23 C17 1_555 1_555
C18 N3 1_555 1_555
H24 C18 1_555 1_555
H25 C18 1_555 1_555
C19 N2 1_555 1_555
H26 C19 1_555 1_555
C20 C19 1_555 1_555
C21 C20 1_555 1_555
C22 C21 1_555 1_555
H27 C22 1_555 1_555
C23 C22 1_555 1_555
H28 C23 1_555 1_555
C24 C23 1_555 1_555
H29 C24 1_555 1_555
C25 C20 1_555 1_555
H30 C25 1_555 1_555
C26 N4 1_555 1_555
H31 C26 1_555 1_555
H32 C26 1_555 1_555
C27 C26 1_555 1_555
H33 C27 1_555 1_555
H34 C27 1_555 1_555
C28 C27 1_555 1_555
H35 C28 1_555 1_555
H36 C28 1_555 1_555
C29 C28 1_555 1_555
H37 C29 1_555 1_555
H38 C29 1_555 1_555
C30 N4 1_555 1_555
H39 C30 1_555 1_555
H40 C30 1_555 1_555
C5 C6 1_555 1_555
C12 C13 1_555 1_555
C17 C18 1_555 1_555
C24 C25 1_555 1_555
C29 C30 1_555 1_555

#END
