
#######################################################################
#
#                 Cambridge Crystallographic Data Centre
#                                CCDC 
#
#######################################################################
#
# If this CIF has been generated from an entry in the Cambridge 
# Structural Database, then it will include bibliographic, chemical, 
# crystal, experimental, refinement or atomic coordinate data resulting 
# from the CCDC's data processing and validation procedures.
#
#######################################################################

data_DICXIX
_chemical_formula_moiety         'C18 H16 Cl1 N1 O4'
_chemical_name_systematic        
'(2S,3S)-Ethyl 3-(4-chlorophenyl)-2-cyano-5-(furan-2-yl)-5-oxopentanoate'
_symmetry_cell_setting           monoclinic
_symmetry_space_group_name_H-M   'P 21'
_symmetry_Int_Tables_number      4
_space_group_name_Hall           'P 2yb'
loop_
_symmetry_equiv_pos_site_id
_symmetry_equiv_pos_as_xyz
1 x,y,z
2 -x,1/2+y,-z
_cell_length_a                   7.0340(14)
_cell_length_b                   10.199(2)
_cell_length_c                   11.881(2)
_cell_angle_alpha                90
_cell_angle_beta                 94.07(3)
_cell_angle_gamma                90
_cell_volume                     850.191
_chemical_melting_point          94-96deg.C
_cell_formula_units_Z            2
loop_
_atom_site_label
_atom_site_type_symbol
_atom_site_fract_x
_atom_site_fract_y
_atom_site_fract_z
Cl1 Cl 0.53780(14) 0.57031(8) 0.90464(8)
O1 O 0.0507(5) 0.9570(3) 0.3614(3)
O2 O 0.4009(4) 0.9283(3) 0.4708(2)
O3 O 0.9636(3) 1.1255(3) 0.7411(2)
O4 O 0.8174(3) 1.1565(2) 0.89963(17)
N1 N 0.3806(4) 1.2747(3) 0.8551(3)
C1 C 0.5484(5) 0.7193(3) 0.8346(3)
C2 C 0.4150(5) 0.8148(3) 0.8521(3)
H1 H 0.3245 0.8017 0.9043
C3 C 0.4171(4) 0.9305(3) 0.7911(3)
H2 H 0.3253 0.9941 0.8016
C4 C 0.5547(4) 0.9534(3) 0.7142(2)
C5 C 0.6881(4) 0.8553(3) 0.7019(3)
H3 H 0.7825 0.8683 0.6520
C6 C 0.6858(5) 0.7390(3) 0.7611(3)
H4 H 0.7769 0.6748 0.7509
C7 C 0.5639(4) 1.0798(3) 0.6486(2)
H5 H 0.6559 1.0668 0.5914
C8 C 0.3735(4) 1.1185(3) 0.5862(2)
H6 H 0.2778 1.1277 0.6406
H7 H 0.3879 1.2030 0.5503
C9 C 0.3053(5) 1.0200(3) 0.4981(2)
C10 C 0.1123(5) 1.0422(3) 0.4455(2)
C11 C -0.1714(6) 1.1114(8) 0.3789(4)
H8 H -0.2839 1.1590 0.3681
C12 C -0.1253(8) 1.0024(8) 0.3232(5)
H9 H -0.2028 0.9631 0.2661
C13 C -0.0126(5) 1.1400(5) 0.4587(3)
H10 H 0.0005 1.2104 0.5084
C14 C 0.6398(4) 1.1958(3) 0.7265(2)
H11 H 0.6669 1.2695 0.6772
C15 C 0.4969(4) 1.2402(3) 0.8012(3)
C16 C 0.8279(4) 1.1554(3) 0.7885(2)
C17 C 0.9806(5) 1.1077(4) 0.9689(3)
H12 H 0.9847 1.1487 1.0427
H13 H 1.0971 1.1301 0.9342
C18 C 0.9679(6) 0.9641(5) 0.9814(4)
H14 H 1.0767 0.9330 1.0271
H15 H 0.9651 0.9236 0.9084
H16 H 0.8537 0.9422 1.0170
loop_
_geom_bond_atom_site_label_1
_geom_bond_atom_site_label_2
_geom_bond_site_symmetry_1
_geom_bond_site_symmetry_2
Cl1 C1 1_555 1_555
O1 C10 1_555 1_555
O2 C9 1_555 1_555
O3 C16 1_555 1_555
O4 C16 1_555 1_555
N1 C15 1_555 1_555
C1 C2 1_555 1_555
C2 H1 1_555 1_555
C3 C2 1_555 1_555
H2 C3 1_555 1_555
C4 C3 1_555 1_555
C5 C4 1_555 1_555
H3 C5 1_555 1_555
C6 C1 1_555 1_555
H4 C6 1_555 1_555
C7 C4 1_555 1_555
H5 C7 1_555 1_555
C8 C7 1_555 1_555
H6 C8 1_555 1_555
H7 C8 1_555 1_555
C9 C8 1_555 1_555
C10 C9 1_555 1_555
C11 H8 1_555 1_555
C12 O1 1_555 1_555
H9 C12 1_555 1_555
C13 C10 1_555 1_555
H10 C13 1_555 1_555
C14 C7 1_555 1_555
H11 C14 1_555 1_555
C15 C14 1_555 1_555
C16 C14 1_555 1_555
C17 O4 1_555 1_555
H12 C17 1_555 1_555
H13 C17 1_555 1_555
C18 C17 1_555 1_555
H14 C18 1_555 1_555
H15 C18 1_555 1_555
H16 C18 1_555 1_555
C5 C6 1_555 1_555
C11 C12 1_555 1_555
C11 C13 1_555 1_555

#END
