
#######################################################################
#
#                 Cambridge Crystallographic Data Centre
#                                CCDC 
#
#######################################################################
#
# If this CIF has been generated from an entry in the Cambridge 
# Structural Database, then it will include bibliographic, chemical, 
# crystal, experimental, refinement or atomic coordinate data resulting 
# from the CCDC's data processing and validation procedures.
#
#######################################################################

data_DICXUJ
_chemical_formula_moiety         'C8 H4 F3 N3 O2,C21 H16 Cl1 F3 O1 P1'
_chemical_name_systematic        
'5-Nitro-2-trifluoromethyl-1H-benzimidazole 3-chloro-1,1,1-trifluoro-3-triphenylphosphinepropan-2-one'
_symmetry_cell_setting           monoclinic
_symmetry_space_group_name_H-M   'P 21/c'
_symmetry_Int_Tables_number      14
_space_group_name_Hall           '-P 2ybc'
loop_
_symmetry_equiv_pos_site_id
_symmetry_equiv_pos_as_xyz
1 x,y,z
2 -x,1/2+y,1/2-z
3 -x,-y,-z
4 x,1/2-y,1/2+z
_cell_length_a                   12.0551(16)
_cell_length_b                   23.883(3)
_cell_length_c                   11.0121(16)
_cell_angle_alpha                90
_cell_angle_beta                 116.6630(10)
_cell_angle_gamma                90
_cell_volume                     2833.37
_cell_formula_units_Z            4
loop_
_atom_site_label
_atom_site_type_symbol
_atom_site_fract_x
_atom_site_fract_y
_atom_site_fract_z
P1 P 0.40169(8) 0.68042(3) 0.83363(9)
Cl1 Cl 0.52463(9) 0.66039(4) 0.65362(10)
C9 C 0.4000(3) 0.63619(13) 0.9646(3)
C10 C 0.4812(3) 0.59145(13) 1.0110(3)
H4 H 0.5340 0.5840 0.9721
C11 C 0.4846(4) 0.55775(15) 1.1148(4)
H5 H 0.5391 0.5276 1.1458
C12 C 0.4059(4) 0.56942(16) 1.1718(4)
H6 H 0.4084 0.5471 1.2422
C13 C 0.3248(4) 0.61305(15) 1.1268(4)
H7 H 0.2721 0.6201 1.1660
C14 C 0.3205(3) 0.64690(14) 1.0227(3)
H8 H 0.2648 0.6766 0.9916
C15 C 0.2647(3) 0.72349(12) 0.7648(3)
C16 C 0.1667(3) 0.71125(14) 0.6407(4)
H9 H 0.1713 0.6806 0.5911
C17 C 0.0616(3) 0.74459(17) 0.5897(4)
H10 H -0.0047 0.7357 0.5066
C18 C 0.0544(4) 0.79058(17) 0.6604(4)
H11 H -0.0163 0.8129 0.6250
C19 C 0.1515(4) 0.80353(15) 0.7834(4)
H12 H 0.1468 0.8347 0.8314
C20 C 0.2560(3) 0.77033(14) 0.8359(4)
H13 H 0.3215 0.7792 0.9196
C21 C 0.5313(3) 0.72739(13) 0.9104(3)
C22 C 0.6273(3) 0.71783(14) 1.0371(4)
H14 H 0.6271 0.6861 1.0861
C23 C 0.7240(3) 0.75568(17) 1.0912(4)
H15 H 0.7891 0.7491 1.1768
C24 C 0.7256(4) 0.80277(17) 1.0207(5)
H16 H 0.7912 0.8280 1.0581
C25 C 0.6304(4) 0.81223(16) 0.8959(5)
H17 H 0.6310 0.8442 0.8480
C26 C 0.5336(3) 0.77528(15) 0.8396(4)
H18 H 0.4692 0.7822 0.7538
C27 C 0.4168(3) 0.63979(14) 0.7087(3)
C28 C 0.3426(3) 0.59315(14) 0.6594(3)
C29 C 0.3580(4) 0.55459(17) 0.5580(4)
F4 F 0.3305(2) 0.57917(10) 0.4403(2)
F5 F 0.4737(3) 0.53588(11) 0.6033(3)
F6 F 0.2864(3) 0.51002(10) 0.5304(3)
O3 O 0.2588(2) 0.58036(10) 0.6925(2)
C1 C 1.0632(3) 0.45371(14) 0.7104(4)
C2 C 1.0273(3) 0.53663(14) 0.7649(3)
C3 C 1.0211(4) 0.59344(15) 0.7912(4)
H1 H 1.0681 0.6201 0.7733
C4 C 0.9421(4) 0.60782(16) 0.8445(4)
H2 H 0.9350 0.6451 0.8642
C5 C 0.8734(3) 0.56771(17) 0.8693(4)
C6 C 0.8771(3) 0.51174(17) 0.8440(4)
H3 H 0.8288 0.4857 0.8614
C7 C 0.9572(3) 0.49636(14) 0.7909(4)
C8 C 1.1174(4) 0.40894(18) 0.6587(5)
F1 F 1.161(4) 0.3672(10) 0.737(2)
F2 F 1.0289(10) 0.3849(10) 0.549(3)
F3 F 1.200(3) 0.4274(4) 0.621(4)
N1 N 0.9811(3) 0.44346(12) 0.7547(3)
N2 N 1.0954(3) 0.50808(12) 0.7134(3)
N3 N 0.7922(3) 0.5854(2) 0.9298(4)
O1 O 0.7886(3) 0.63572(16) 0.9526(4)
O2 O 0.7315(3) 0.54984(18) 0.9548(4)
H19 H 1.151(4) 0.5239(15) 0.694(4)
F7? F 1.085(4) 0.4124(13) 0.5342(14)
F8? F 1.2377(8) 0.4096(11) 0.727(3)
F9? F 1.085(4) 0.3600(5) 0.674(5)
loop_
_geom_bond_atom_site_label_1
_geom_bond_atom_site_label_2
_geom_bond_site_symmetry_1
_geom_bond_site_symmetry_2
P1 C9 1_555 1_555
Cl1 C27 1_555 1_555
C1 C8 1_555 1_555
C2 C3 1_555 1_555
C3 H1 1_555 1_555
C4 C3 1_555 1_555
H2 C4 1_555 1_555
C5 C4 1_555 1_555
C6 C5 1_555 1_555
H3 C6 1_555 1_555
C7 C2 1_555 1_555
C8 F1 1_555 1_555
C9 C10 1_555 1_555
C10 H4 1_555 1_555
C11 C10 1_555 1_555
H5 C11 1_555 1_555
C12 C11 1_555 1_555
H6 C12 1_555 1_555
C13 C12 1_555 1_555
H7 C13 1_555 1_555
C14 C9 1_555 1_555
H8 C14 1_555 1_555
C15 P1 1_555 1_555
C16 C15 1_555 1_555
H9 C16 1_555 1_555
C17 C16 1_555 1_555
H10 C17 1_555 1_555
C18 C17 1_555 1_555
H11 C18 1_555 1_555
C19 C18 1_555 1_555
H12 C19 1_555 1_555
C20 C15 1_555 1_555
H13 C20 1_555 1_555
C21 P1 1_555 1_555
C22 C21 1_555 1_555
H14 C22 1_555 1_555
C23 C22 1_555 1_555
H15 C23 1_555 1_555
C24 C23 1_555 1_555
H16 C24 1_555 1_555
C25 C24 1_555 1_555
H17 C25 1_555 1_555
C26 C21 1_555 1_555
H18 C26 1_555 1_555
C27 P1 1_555 1_555
C28 C27 1_555 1_555
C29 C28 1_555 1_555
F2 C8 1_555 1_555
F3 C8 1_555 1_555
F4 C29 1_555 1_555
F5 C29 1_555 1_555
F6 C29 1_555 1_555
N1 C1 1_555 1_555
N2 C1 1_555 1_555
N3 C5 1_555 1_555
O1 N3 1_555 1_555
O2 N3 1_555 1_555
O3 C28 1_555 1_555
H19 N2 1_555 1_555
C2 N2 1_555 1_555
C6 C7 1_555 1_555
C7 N1 1_555 1_555
C13 C14 1_555 1_555
C19 C20 1_555 1_555
C25 C26 1_555 1_555

#END
