
#######################################################################
#
#                 Cambridge Crystallographic Data Centre
#                                CCDC 
#
#######################################################################
#
# If this CIF has been generated from an entry in the Cambridge 
# Structural Database, then it will include bibliographic, chemical, 
# crystal, experimental, refinement or atomic coordinate data resulting 
# from the CCDC's data processing and validation procedures.
#
#######################################################################

data_DICXOD
_chemical_formula_moiety         'C9 H7 F3 N2 O1'
_chemical_name_systematic        6-Methoxy-2-trifluoromethyl-1H-benzimidazole
_symmetry_cell_setting           triclinic
_symmetry_space_group_name_H-M   'P -1'
_symmetry_Int_Tables_number      2
_space_group_name_Hall           '-P 1'
loop_
_symmetry_equiv_pos_site_id
_symmetry_equiv_pos_as_xyz
1 x,y,z
2 -x,-y,-z
_cell_length_a                   7.228(3)
_cell_length_b                   9.988(4)
_cell_length_c                   13.978(5)
_cell_angle_alpha                92.631(5)
_cell_angle_beta                 99.044(5)
_cell_angle_gamma                98.165(5)
_cell_volume                     984.064
_cell_formula_units_Z            4
loop_
_atom_site_label
_atom_site_type_symbol
_atom_site_fract_x
_atom_site_fract_y
_atom_site_fract_z
C1 C 0.6841(9) 0.5435(7) 0.6087(4)
C2 C 0.5604(8) 0.4580(6) 0.6513(4)
H1 H 0.5608 0.3649 0.6496
C3 C 0.4334(7) 0.5206(5) 0.6977(4)
C4 C 0.4290(8) 0.6583(5) 0.7000(4)
C5 C 0.5574(10) 0.7420(6) 0.6560(4)
H2 H 0.5579 0.8352 0.6571
C6 C 0.6818(10) 0.6820(7) 0.6113(5)
H3 H 0.7685 0.7360 0.5814
C7 C 0.8352(12) 0.3594(8) 0.5577(6)
H4 H 0.8694 0.3328 0.6224
H5 H 0.9305 0.3423 0.5199
H6 H 0.7155 0.3082 0.5284
C8 C 0.2186(8) 0.5739(5) 0.7790(4)
C9 C 0.0741(10) 0.5588(6) 0.8443(5)
N1 N 0.2952(6) 0.4677(4) 0.7493(3)
H13 H 0.2647 0.3840 0.7601
N2 N 0.2888(7) 0.6902(4) 0.7521(3)
O1 O 0.8209(8) 0.5005(6) 0.5610(4)
F1 F 0.1527(7) 0.5667(5) 0.9363(3)
F2 F -0.0310(7) 0.6549(5) 0.8366(4)
F3 F -0.0360(7) 0.4412(4) 0.8285(4)
C10 C 0.2780(8) 0.0300(6) 1.0681(4)
C11 C 0.2523(7) -0.0530(6) 0.9848(4)
H7 H 0.2417 -0.1468 0.9856
C12 C 0.2432(7) 0.0124(5) 0.8992(4)
C13 C 0.2585(7) 0.1514(5) 0.8955(4)
C14 C 0.2874(8) 0.2339(6) 0.9821(4)
H8 H 0.2997 0.3278 0.9817
C15 C 0.2967(9) 0.1705(7) 1.0669(4)
H9 H 0.3161 0.2227 1.1255
C16 C 0.2566(10) -0.1573(8) 1.1679(5)
H10 H 0.1356 -0.1938 1.1303
H11 H 0.2569 -0.1762 1.2346
H12 H 0.3540 -0.1982 1.1437
C17 C 0.2176(8) 0.0692(5) 0.7499(4)
N3 N 0.2193(6) -0.0389(4) 0.8042(3)
H14 H 0.2078 -0.1227 0.7837
N4 N 0.2410(7) 0.1862(4) 0.7995(3)
O2 O 0.2910(7) -0.0155(5) 1.1607(3)
F4 F 0.1796(11) -0.0630(5) 0.6061(3)
F5 F 0.073(2) 0.1073(15) 0.6029(5)
F6 F 0.312(2) 0.1140(12) 0.6082(5)
C18 C 0.1905(18) 0.0505(7) 0.6432(5)
loop_
_geom_bond_atom_site_label_1
_geom_bond_atom_site_label_2
_geom_bond_site_symmetry_1
_geom_bond_site_symmetry_2
C1 C2 1_555 1_555
C2 H1 1_555 1_555
C3 C2 1_555 1_555
C4 C3 1_555 1_555
C5 C4 1_555 1_555
H2 C5 1_555 1_555
C6 C1 1_555 1_555
H3 C6 1_555 1_555
C7 H4 1_555 1_555
H5 C7 1_555 1_555
H6 C7 1_555 1_555
C8 C9 1_555 1_555
C9 F1 1_555 1_555
C10 C11 1_555 1_555
C11 H7 1_555 1_555
C12 C11 1_555 1_555
C13 C12 1_555 1_555
C14 C13 1_555 1_555
H8 C14 1_555 1_555
C15 C10 1_555 1_555
H9 C15 1_555 1_555
C16 H10 1_555 1_555
H11 C16 1_555 1_555
H12 C16 1_555 1_555
C17 N3 1_555 1_555
N1 C3 1_555 1_555
H13 N1 1_555 1_555
N2 C4 1_555 1_555
N3 C12 1_555 1_555
H14 N3 1_555 1_555
N4 C13 1_555 1_555
O1 C1 1_555 1_555
O2 C10 1_555 1_555
F2 C9 1_555 1_555
F3 C9 1_555 1_555
F4 C18 1_555 1_555
F5 C18 1_555 1_555
F6 C18 1_555 1_555
C18 C17 1_555 1_555
C5 C6 1_555 1_555
C7 O1 1_555 1_555
C8 N1 1_555 1_555
C8 N2 1_555 1_555
C14 C15 1_555 1_555
C16 O2 1_555 1_555
C17 N4 1_555 1_555

#END
