
#######################################################################
#
#                 Cambridge Crystallographic Data Centre
#                                CCDC 
#
#######################################################################
#
# If this CIF has been generated from an entry in the Cambridge 
# Structural Database, then it will include bibliographic, chemical, 
# crystal, experimental, refinement or atomic coordinate data resulting 
# from the CCDC's data processing and validation procedures.
#
#######################################################################

data_DIDFAY
_chemical_compound_source        'rhizomes of Veratrum dahuricum'
_chemical_name_common            4,9-Epoxycevane-3,4,7,14,15,16,20-heptol
_chemical_formula_moiety         'C27 H43 N1 O8'
_chemical_name_systematic        Germine
_chemical_properties_biological  'potential biological activity'
_symmetry_cell_setting           monoclinic
_symmetry_space_group_name_H-M   'P 21'
_symmetry_Int_Tables_number      4
_space_group_name_Hall           'P 2yb'
loop_
_symmetry_equiv_pos_site_id
_symmetry_equiv_pos_as_xyz
1 x,y,z
2 -x,1/2+y,-z
_cell_length_a                   10.965(4)
_cell_length_b                   12.605(4)
_cell_length_c                   11.420(4)
_cell_angle_alpha                90.00
_cell_angle_beta                 101.707(4)
_cell_angle_gamma                90.00
_cell_volume                     1545.57
_cell_formula_units_Z            2
loop_
_atom_site_label
_atom_site_type_symbol
_atom_site_fract_x
_atom_site_fract_y
_atom_site_fract_z
O1 O -0.1843(2) 0.1102(3) -0.0424(2)
H1 H -0.2048 0.1537 -0.0962
O2 O -0.1225(3) 0.3331(3) 0.0145(2)
H2 H -0.0803 0.3863 0.0346
O3 O -0.0635(2) 0.2835(2) 0.2126(2)
O4 O 0.0635(2) 0.4622(2) 0.1410(2)
H3 H 0.0325 0.4753 0.1990
O5 O 0.0157(2) 0.4568(2) 0.3655(2)
H4 H 0.0037 0.4716 0.2942
O6 O 0.1833(2) 0.5536(2) 0.5195(3)
H5 H 0.2301 0.6049 0.5332
O7 O 0.4224(2) 0.3779(2) 0.4532(2)
H6 H 0.4384 0.4182 0.4020
O8 O 0.5052(2) 0.2482(2) 0.6425(2)
H7 H 0.4976 0.2697 0.5738
N1 N 0.3096(3) 0.1603(3) 0.7489(2)
C1 C -0.1760(3) 0.1609(4) 0.0695(3)
H8 H -0.2571 0.1923 0.0722
C2 C -0.1444(3) 0.0790(4) 0.1702(3)
H9 H -0.1701 0.1059 0.2409
H10 H -0.1905 0.0142 0.1461
C3 C -0.0054(4) 0.0538(4) 0.2006(3)
H11 H 0.0125 0.0031 0.1425
H12 H 0.0129 0.0195 0.2782
C4 C 0.2168(4) 0.1058(4) 0.2384(4)
H13 H 0.2748 0.1632 0.2413
H14 H 0.2305 0.0547 0.1802
H15 H 0.2284 0.0727 0.3156
C5 C 0.0840(3) 0.1487(3) 0.2038(3)
C6 C 0.0529(3) 0.2077(4) 0.0827(3)
H16 H 0.0476 0.1579 0.0160
C7 C -0.0768(3) 0.2496(3) 0.0901(3)
C8 C 0.1440(3) 0.2970(4) 0.0730(3)
H17 H 0.1173 0.3316 -0.0038
H18 H 0.2252 0.2661 0.0742
C9 C 0.1575(3) 0.3824(3) 0.1724(3)
H19 H 0.2390 0.4164 0.1790
C10 C 0.1535(3) 0.3300(3) 0.2929(3)
H20 H 0.2342 0.2950 0.3195
C11 C 0.0540(3) 0.2423(3) 0.2813(3)
C12 C 0.0392(3) 0.2224(3) 0.4110(3)
H21 H -0.0482 0.2228 0.4155
H22 H 0.0743 0.1541 0.4388
C13 C 0.1091(3) 0.3124(3) 0.4883(3)
H23 H 0.0552 0.3418 0.5390
C14 C 0.1308(3) 0.3967(3) 0.3986(3)
C15 C 0.2325(3) 0.4790(3) 0.4460(3)
H24 H 0.2553 0.5164 0.3784
C16 C 0.3505(3) 0.4333(3) 0.5259(3)
H25 H 0.4006 0.4925 0.5654
C17 C 0.3191(3) 0.3605(3) 0.6219(3)
H26 H 0.2741 0.4038 0.6705
C18 C 0.2307(3) 0.2706(3) 0.5688(3)
H27 H 0.2736 0.2250 0.5205
C19 C 0.1989(3) 0.2053(4) 0.6693(3)
H28 H 0.1543 0.2495 0.7161
H29 H 0.1439 0.1479 0.6356
C20 C 0.3947(3) 0.2452(4) 0.8032(3)
H30 H 0.3496 0.2900 0.8503
C21 C 0.4353(3) 0.3160(3) 0.7081(3)
C22 C 0.5196(4) 0.4070(4) 0.7655(4)
H31 H 0.591242 0.376881 0.818493
H32 H 0.474609 0.450625 0.809757
H33 H 0.546245 0.446559 0.704181
C23 C 0.2665(4) 0.0961(4) 0.8389(3)
H34 H 0.2102 0.0420 0.7987
H35 H 0.2198 0.1410 0.8831
C24 C 0.3728(4) 0.0416(4) 0.9282(4)
H36 H 0.3365 0.0105 0.9919
C25 C 0.4316(7) -0.0472(5) 0.8705(6)
H37 H 0.4975 -0.0785 0.9284
H38 H 0.4648 -0.0195 0.8051
H39 H 0.3699 -0.1000 0.8412
C26 C 0.4648(4) 0.1273(4) 0.9849(3)
H40 H 0.4260 0.1719 1.0361
H41 H 0.5372 0.0940 1.0341
C27 C 0.5057(4) 0.1953(4) 0.8899(4)
H42 H 0.5530 0.1520 0.8448
H43 H 0.5599 0.2513 0.9286
loop_
_geom_bond_atom_site_label_1
_geom_bond_atom_site_label_2
_geom_bond_site_symmetry_1
_geom_bond_site_symmetry_2
O1 H1 1_555 1_555
O2 H2 1_555 1_555
O3 C7 1_555 1_555
O4 H3 1_555 1_555
O5 H4 1_555 1_555
O6 H5 1_555 1_555
O7 H6 1_555 1_555
O8 H7 1_555 1_555
N1 C19 1_555 1_555
C1 O1 1_555 1_555
H8 C1 1_555 1_555
C2 C1 1_555 1_555
H9 C2 1_555 1_555
H10 C2 1_555 1_555
C3 C2 1_555 1_555
H11 C3 1_555 1_555
H12 C3 1_555 1_555
C4 H13 1_555 1_555
H14 C4 1_555 1_555
H15 C4 1_555 1_555
C5 C3 1_555 1_555
C6 C5 1_555 1_555
H16 C6 1_555 1_555
C7 O2 1_555 1_555
C8 C6 1_555 1_555
H17 C8 1_555 1_555
H18 C8 1_555 1_555
C9 O4 1_555 1_555
H19 C9 1_555 1_555
C10 C9 1_555 1_555
H20 C10 1_555 1_555
C11 O3 1_555 1_555
C12 C11 1_555 1_555
H21 C12 1_555 1_555
H22 C12 1_555 1_555
C13 C12 1_555 1_555
H23 C13 1_555 1_555
C14 O5 1_555 1_555
C15 O6 1_555 1_555
H24 C15 1_555 1_555
C16 O7 1_555 1_555
H25 C16 1_555 1_555
C17 C16 1_555 1_555
H26 C17 1_555 1_555
C18 C13 1_555 1_555
H27 C18 1_555 1_555
C19 C18 1_555 1_555
H28 C19 1_555 1_555
H29 C19 1_555 1_555
C20 N1 1_555 1_555
H30 C20 1_555 1_555
C21 O8 1_555 1_555
C22 C21 1_555 1_555
H31 C22 1_555 1_555
H32 C22 1_555 1_555
H33 C22 1_555 1_555
C23 N1 1_555 1_555
H34 C23 1_555 1_555
H35 C23 1_555 1_555
C24 C23 1_555 1_555
H36 C24 1_555 1_555
C25 C24 1_555 1_555
H37 C25 1_555 1_555
H38 C25 1_555 1_555
H39 C25 1_555 1_555
C26 C24 1_555 1_555
H40 C26 1_555 1_555
H41 C26 1_555 1_555
C27 C20 1_555 1_555
H42 C27 1_555 1_555
H43 C27 1_555 1_555
C1 C7 1_555 1_555
C4 C5 1_555 1_555
C5 C11 1_555 1_555
C6 C7 1_555 1_555
C8 C9 1_555 1_555
C10 C11 1_555 1_555
C10 C14 1_555 1_555
C13 C14 1_555 1_555
C14 C15 1_555 1_555
C15 C16 1_555 1_555
C17 C18 1_555 1_555
C17 C21 1_555 1_555
C20 C21 1_555 1_555
C26 C27 1_555 1_555

#END
