
#######################################################################
#
#                 Cambridge Crystallographic Data Centre
#                                CCDC 
#
#######################################################################
#
# If this CIF has been generated from an entry in the Cambridge 
# Structural Database, then it will include bibliographic, chemical, 
# crystal, experimental, refinement or atomic coordinate data resulting 
# from the CCDC's data processing and validation procedures.
#
#######################################################################

data_DIDGAY
_chemical_formula_moiety         'C20 H24 O2'
_chemical_name_systematic        
trans-9,10-Dihydro-9,10-dipropylanthracene-9,10-diol
_symmetry_cell_setting           monoclinic
_symmetry_space_group_name_H-M   'P 21/c'
_symmetry_Int_Tables_number      14
_space_group_name_Hall           '-P 2ybc'
loop_
_symmetry_equiv_pos_site_id
_symmetry_equiv_pos_as_xyz
1 x,y,z
2 -x,1/2+y,1/2-z
3 -x,-y,-z
4 x,1/2-y,1/2+z
_cell_length_a                   8.774(6)
_cell_length_b                   16.414(13)
_cell_length_c                   12.396(5)
_cell_angle_alpha                90
_cell_angle_beta                 104.59(4)
_cell_angle_gamma                90
_cell_volume                     1727.66
_cell_formula_units_Z            4
loop_
_atom_site_label
_atom_site_type_symbol
_atom_site_fract_x
_atom_site_fract_y
_atom_site_fract_z
C1 C 0.0875(4) 0.1643(2) -0.0317(3)
C2 C 0.2383(5) 0.1830(2) -0.0398(3)
C3 C 0.3474(4) 0.1222(2) -0.0332(3)
C4 C 0.3054(4) 0.0426(2) -0.0209(3)
C5 C 0.1543(3) 0.0217(2) -0.0117(2)
C6 C 0.0447(3) 0.0836(2) -0.0160(2)
C7 C 0.1184(3) -0.0684(2) -0.0030(2)
C8 C 0.1337(4) -0.1133(2) -0.1090(3)
C9 C 0.0192(4) -0.0854(3) -0.2163(3)
C10 C 0.0389(6) -0.1290(4) -0.3165(4)
O1 O 0.2380(2) -0.1055(1) 0.0853(2)
H1 H 0.009 0.209 -0.037
H2 H 0.266 0.240 -0.049
H3 H 0.454 0.136 -0.040
H4 H 0.384 -0.001 -0.018
H5 H 0.111 -0.172 -0.099
H6 H 0.239 -0.107 -0.117
H7 H 0.036 -0.027 -0.228
H8 H -0.091 -0.092 -0.211
H9 H 0.021 -0.191 -0.309
H10 H 0.148 -0.126 -0.326
H11 H -0.033 -0.115 -0.389
H12 H 0.240 -0.080 0.160
C7B C -0.1184(3) 0.0684(2) 0.0030(2)
C6B C -0.0447(3) -0.0836(2) 0.0160(2)
C5B C -0.1543(3) -0.0217(2) 0.0117(2)
C8B C -0.1337(4) 0.1133(2) 0.1090(3)
O1B O -0.2380(2) 0.1055(1) -0.0853(2)
C1B C -0.0875(4) -0.1643(2) 0.0317(3)
C4B C -0.3054(4) -0.0426(2) 0.0209(3)
C9B C -0.0192(4) 0.0854(3) 0.2163(3)
H5B H -0.111 0.172 0.099
H6B H -0.239 0.107 0.117
H12B H -0.240 0.080 -0.160
C2B C -0.2383(5) -0.1830(2) 0.0398(3)
H1B H -0.009 -0.209 0.037
C3B C -0.3474(4) -0.1222(2) 0.0332(3)
H4B H -0.384 0.001 0.018
C10B C -0.0389(6) 0.1290(4) 0.3165(4)
H7B H -0.036 0.027 0.228
H8B H 0.091 0.092 0.211
H2B H -0.266 -0.240 0.049
H3B H -0.454 -0.136 0.040
H9B H -0.021 0.191 0.309
H10B H -0.148 0.126 0.326
H11B H 0.033 0.115 0.389
C11 C 0.5990(4) 0.1652(2) 0.4896(3)
C12 C 0.5820(5) 0.2040(2) 0.3879(4)
C13 C 0.5118(5) 0.1642(2) 0.2904(3)
C14 C 0.4642(4) 0.0846(2) 0.2935(3)
C15 C 0.4840(4) 0.0431(2) 0.3951(3)
C16 C 0.5482(4) 0.0843(2) 0.4946(3)
C17 C 0.4449(4) -0.0474(2) 0.3919(3)
C18 C 0.5574(4) -0.0937(2) 0.3358(3)
C19 C 0.7293(4) -0.0888(3) 0.3988(3)
C20 C 0.8396(5) -0.1360(3) 0.3459(4)
O2 O 0.2878(3) -0.0605(2) 0.3186(2)
H13 H 0.647 0.195 0.558
H14 H 0.620 0.261 0.386
H15 H 0.495 0.194 0.219
H16 H 0.417 0.056 0.222
H17 H 0.546 -0.072 0.260
H18 H 0.529 -0.152 0.330
H19 H 0.741 -0.105 0.476
H20 H 0.762 -0.029 0.400
H21 H 0.828 -0.120 0.269
H22 H 0.807 -0.196 0.345
H23 H 0.949 -0.134 0.387
C17B C 0.5551(4) 0.0474(2) 0.6081(3)
C16B C 0.4518(4) -0.0843(2) 0.5054(3)
C15B C 0.5160(4) -0.0431(2) 0.6049(3)
C18B C 0.4426(4) 0.0937(2) 0.6642(3)
O2B O 0.7122(3) 0.0605(2) 0.6814(2)
C11B C 0.4010(4) -0.1652(2) 0.5104(3)
C14B C 0.5358(4) -0.0846(2) 0.7065(3)
C19B C 0.2707(4) 0.0888(3) 0.6012(3)
H17B H 0.454 0.072 0.740
H18B H 0.471 0.152 0.670
C12B C 0.4180(5) -0.2040(2) 0.6121(4)
H13B H 0.353 -0.195 0.442
C13B C 0.4882(5) -0.1642(2) 0.7096(3)
H16B H 0.583 -0.056 0.778
C20B C 0.1604(5) 0.1360(3) 0.6541(4)
H19B H 0.259 0.105 0.524
H20B H 0.238 0.029 0.600
H14B H 0.380 -0.261 0.614
H15B H 0.505 -0.194 0.781
H21B H 0.172 0.120 0.731
H22B H 0.193 0.196 0.655
H23B H 0.051 0.134 0.613
loop_
_geom_bond_atom_site_label_1
_geom_bond_atom_site_label_2
_geom_bond_site_symmetry_1
_geom_bond_site_symmetry_2
C1 C2 1_555 1_555
C2 C3 1_555 1_555
C3 C4 1_555 1_555
C4 C5 1_555 1_555
C5 C6 1_555 1_555
C6 C1 1_555 1_555
C7 C5 1_555 1_555
C8 C7 1_555 1_555
C9 C8 1_555 1_555
C10 C9 1_555 1_555
O1 C7 1_555 1_555
C11 C12 1_555 1_555
C12 C13 1_555 1_555
C13 C14 1_555 1_555
C14 C15 1_555 1_555
C15 C16 1_555 1_555
C16 C11 1_555 1_555
C17 C15 1_555 1_555
C18 C17 1_555 1_555
C19 C18 1_555 1_555
C20 C19 1_555 1_555
O2 C17 1_555 1_555
H1 C1 1_555 1_555
H2 C2 1_555 1_555
H3 C3 1_555 1_555
H4 C4 1_555 1_555
H5 C8 1_555 1_555
H6 C8 1_555 1_555
H7 C9 1_555 1_555
H8 C9 1_555 1_555
H9 C10 1_555 1_555
H10 C10 1_555 1_555
H11 C10 1_555 1_555
H12 O1 1_555 1_555
H13 C11 1_555 1_555
H14 C12 1_555 1_555
H15 C13 1_555 1_555
H16 C14 1_555 1_555
H17 C18 1_555 1_555
H18 C18 1_555 1_555
H19 C19 1_555 1_555
H20 C19 1_555 1_555
H21 C20 1_555 1_555
H22 C20 1_555 1_555
H23 C20 1_555 1_555
C7B C6 1_555 1_555
C6B C7 1_555 1_555
C5B C7B 1_555 1_555
C8B C7B 1_555 1_555
O1B C7B 1_555 1_555
C1B C6B 1_555 1_555
C4B C5B 1_555 1_555
C9B C8B 1_555 1_555
H5B C8B 1_555 1_555
H6B C8B 1_555 1_555
H12B O1B 1_555 1_555
C2B C1B 1_555 1_555
H1B C1B 1_555 1_555
C3B C4B 1_555 1_555
H4B C4B 1_555 1_555
C10B C9B 1_555 1_555
H7B C9B 1_555 1_555
H8B C9B 1_555 1_555
H2B C2B 1_555 1_555
H3B C3B 1_555 1_555
H9B C10B 1_555 1_555
H10B C10B 1_555 1_555
H11B C10B 1_555 1_555
C17B C16 1_555 1_555
C16B C17 1_555 1_555
C15B C17B 1_555 1_555
C18B C17B 1_555 1_555
O2B C17B 1_555 1_555
C11B C16B 1_555 1_555
C14B C15B 1_555 1_555
C19B C18B 1_555 1_555
H17B C18B 1_555 1_555
H18B C18B 1_555 1_555
C12B C11B 1_555 1_555
H13B C11B 1_555 1_555
C13B C14B 1_555 1_555
H16B C14B 1_555 1_555
C20B C19B 1_555 1_555
H19B C19B 1_555 1_555
H20B C19B 1_555 1_555
H14B C12B 1_555 1_555
H15B C13B 1_555 1_555
H21B C20B 1_555 1_555
H22B C20B 1_555 1_555
H23B C20B 1_555 1_555
C6B C5B 1_555 1_555
C2B C3B 1_555 1_555
C16B C15B 1_555 1_555
C12B C13B 1_555 1_555

#END
