
#######################################################################
#
#                 Cambridge Crystallographic Data Centre
#                                CCDC 
#
#######################################################################
#
# If this CIF has been generated from an entry in the Cambridge 
# Structural Database, then it will include bibliographic, chemical, 
# crystal, experimental, refinement or atomic coordinate data resulting 
# from the CCDC's data processing and validation procedures.
#
#######################################################################

data_DIDGIH
_chemical_formula_moiety         'C47 H62 O2,C3 H6 O1'
_chemical_name_systematic        
'2,7-bis(3,5-Di-t-butyl-4-methoxyphenyl)-9,9-diethyl-9H-fluorene acetone solvate'
_symmetry_cell_setting           triclinic
_symmetry_space_group_name_H-M   'P -1'
_symmetry_Int_Tables_number      2
_space_group_name_Hall           '-P 1'
loop_
_symmetry_equiv_pos_site_id
_symmetry_equiv_pos_as_xyz
1 x,y,z
2 -x,-y,-z
_cell_length_a                   10.4286(5)
_cell_length_b                   12.0850(6)
_cell_length_c                   19.8331(11)
_cell_angle_alpha                106.496(4)
_cell_angle_beta                 92.998(3)
_cell_angle_gamma                107.101(2)
_cell_volume                     2265.43
_exptl_crystal_colour            colorless
_exptl_crystal_description       prism
_cell_formula_units_Z            2
_exptl_crystal_preparation       luminescent
loop_
_atom_site_label
_atom_site_type_symbol
_atom_site_fract_x
_atom_site_fract_y
_atom_site_fract_z
C1 C 0.5608(4) 0.2544(4) 0.94055(19)
C2 C 0.4345(6) 0.2774(9) 0.9190(3)
H1 H 0.4569 0.3432 0.8991
H2 H 0.3907 0.2987 0.9599
H3 H 0.3745 0.2052 0.8842
C3 C 0.5285(9) 0.1525(7) 0.9728(4)
H4 H 0.611 0.1397 0.9871
H5 H 0.4696 0.0792 0.9384
H6 H 0.4843 0.1737 1.0135
C4 C 0.6492(7) 0.3693(7) 0.9995(3)
H7 H 0.7315 0.3571 1.0147
H8 H 0.6006 0.385 1.0391
H9 H 0.6706 0.4376 0.9817
C5 C 0.9895(4) 0.2021(4) 0.8353(2)
O1 O 0.8464(8) 0.2763(11) 0.9575(3)
C6 C 0.9286(14) 0.4022(13) 0.9878(6)
H10 H 0.97 0.4158 1.0351
H11 H 0.8727 0.4531 0.9895
H12 H 0.9978 0.4216 0.959
C8 C 0.2227(5) 0.3427(5) 0.1605(2)
C9 C 0.1925(10) 0.4624(7) 0.1625(5)
H16 H 0.2203 0.519 0.2098
H17 H 0.097 0.4442 0.1491
H18 H 0.2416 0.4976 0.13
C10 C 0.3705(7) 0.3723(13) 0.1779(5)
H19 H 0.4 0.4238 0.2263
H20 H 0.4158 0.4139 0.1468
H21 H 0.392 0.2984 0.1719
C11 C 0.1766(7) 0.2632(7) 0.0848(3)
H22 H 0.0802 0.2433 0.0737
H23 H 0.199 0.1896 0.0782
H24 H 0.221 0.3058 0.0539
C12 C -0.2156(4) 0.1971(5) 0.2683(2)
C14 C -0.1312(10) 0.1406(9) 0.0996(4)
H28 H -0.1829 0.1462 0.0599
H29 H -0.1894 0.0867 0.1209
H30 H -0.0597 0.1094 0.0835
C15 C 0.7676(4) 0.2198(5) 0.88431(19)
C16 C 0.8442(4) 0.2074(4) 0.82915(18)
C17 C 0.6381(3) 0.2298(3) 0.87739(17)
C18 C 0.7828(3) 0.2010(3) 0.76320(17)
H31 H 0.8321 0.1941 0.7253
C19 C 0.5824(3) 0.2195(3) 0.80982(16)
H32 H 0.4948 0.2229 0.8033
C20 C 0.6516(3) 0.2044(3) 0.75146(16)
C21 C 0.5916(3) 0.1954(3) 0.67928(16)
C22 C 0.6467(3) 0.1484(3) 0.61929(16)
H33 H 0.7198 0.1209 0.6249
C23 C 0.4787(3) 0.2330(3) 0.66937(16)
H34 H 0.4393 0.2639 0.7083
C24 C 0.5963(3) 0.1415(3) 0.55219(16)
H35 H 0.6364 0.1118 0.5133
C25 C 0.4260(3) 0.2244(3) 0.60193(15)
C26 C 0.4851(3) 0.1794(3) 0.54321(15)
C27 C 0.3023(3) 0.2562(3) 0.57914(15)
C28 C 0.3034(3) 0.2267(3) 0.49893(15)
C29 C 0.4098(3) 0.1821(3) 0.47940(15)
C30 C 0.4296(3) 0.1491(3) 0.40886(16)
H36 H 0.4992 0.1178 0.3955
C31 C 0.2177(3) 0.2401(3) 0.44849(15)
H37 H 0.1462 0.2688 0.4617
C32 C 0.3438(3) 0.1636(3) 0.35859(16)
H38 H 0.3569 0.1418 0.3112
C33 C 0.2391(3) 0.2099(3) 0.37713(15)
C34 C 0.1552(3) 0.2297(3) 0.32130(15)
C35 C 0.2166(3) 0.2720(3) 0.26920(16)
H39 H 0.3101 0.2903 0.2714
C36 C 0.0172(3) 0.2084(3) 0.31891(16)
H40 H -0.0247 0.1837 0.3549
C37 C 0.1451(4) 0.2884(3) 0.21368(16)
C38 C 0.0049(4) 0.2594(3) 0.21207(16)
C39 C -0.0622(3) 0.2222(3) 0.26508(17)
C40 C 0.1472(4) 0.0384(4) 0.5657(2)
H41 H 0.0637 -0.0054 0.578
H42 H 0.2209 0.0194 0.5857
H43 H 0.1421 0.0151 0.5149
C41 C 0.1709(3) 0.1747(4) 0.59521(18)
H44 H 0.1733 0.1964 0.6464
H45 H 0.0944 0.1921 0.5758
C42 C 0.4424(4) 0.4814(4) 0.6031(2)
H46 H 0.443 0.5628 0.6265
H47 H 0.4424 0.4693 0.5531
H48 H 0.5216 0.4693 0.6225
C43 C 0.3166(4) 0.3910(3) 0.61433(18)
H49 H 0.2376 0.4062 0.596
H50 H 0.3169 0.4057 0.665
O3 O -0.0703(3) 0.2668(3) 0.15436(14)
C47 C 1.0883(10) 0.3133(11) 0.8139(7)
H57 H 1.048 0.3166 0.7702
H58 H 1.1743 0.3008 0.808
H59 H 1.1013 0.3886 0.8509
C48 C 1.0553(14) 0.206(2) 0.9053(6)
H60 H 1.1454 0.2027 0.9012
H61 H 1.0032 0.1382 0.9187
H62 H 1.0597 0.2808 0.9408
C49 C 0.9968(14) 0.0909(12) 0.7762(6)
H63 H 0.9548 0.0892 0.7315
H64 H 0.9502 0.0177 0.7866
H65 H 1.09 0.0963 0.7736
C53 C -0.2199(8) 0.2734(9) 0.3522(5)
H75 H -0.1658 0.3573 0.3627
H76 H -0.1845 0.2386 0.3837
H77 H -0.3119 0.2683 0.3585
C54 C -0.2942(14) 0.0707(10) 0.2592(7)
H78 H -0.3873 0.0645 0.2632
H79 H -0.2583 0.0445 0.2953
H80 H -0.2889 0.0199 0.2131
C55 C -0.2817(14) 0.2650(14) 0.2299(7)
H81 H -0.2234 0.3477 0.2407
H82 H -0.3675 0.2645 0.2454
H83 H -0.2955 0.2254 0.1795
C44 C 0.2100(7) 0.5607(6) 0.4689(4)
H51 H 0.2172 0.5876 0.5198
H52 H 0.2969 0.5927 0.4553
H53 H 0.1809 0.4732 0.4517
C45 C 0.0870(8) 0.5749(6) 0.3605(4)
H54 H 0.0203 0.6084 0.3475
H55 H 0.0551 0.488 0.3389
H56 H 0.1703 0.6089 0.3442
C46 C 0.1106(5) 0.6045(5) 0.4381(4)
O4 O 0.0540(5) 0.6665(5) 0.4746(3)
O2? O 0.8039(8) 0.1837(11) 0.9447(4)
C7? C 0.7715(16) 0.0611(13) 0.9413(8)
H13? H 0.806 0.056 0.9858
H14? H 0.8114 0.0197 0.9038
H15? H 0.6747 0.0236 0.9321
C13? C -0.0834(19) 0.3964(16) 0.1721(9)
H25? H -0.1353 0.4017 0.1323
H26? H 0.0053 0.4559 0.1817
H27? H -0.1284 0.4117 0.2131
C50? C 1.0442(13) 0.1874(19) 0.7705(6)
H66? H 0.984 0.1171 0.7344
H67? H 1.1311 0.1767 0.7772
H68? H 1.0544 0.2585 0.756
C51? C 1.0671(12) 0.3103(11) 0.8954(7)
H69? H 1.0187 0.3147 0.9354
H70? H 1.0788 0.3824 0.8818
H71? H 1.1544 0.3043 0.9081
C52? C 0.9947(16) 0.0935(13) 0.8629(8)
H72? H 0.9598 0.102 0.9073
H73? H 1.0869 0.0944 0.8697
H74? H 0.9407 0.0177 0.8286
C56? C -0.2655(17) 0.0966(14) 0.3046(9)
H84? H -0.2191 0.0377 0.2905
H85? H -0.3614 0.0569 0.2903
H86? H -0.2467 0.1332 0.3553
C57? C -0.2926(11) 0.1090(14) 0.1849(6)
H87? H -0.2567 0.0428 0.1693
H88? H -0.2761 0.1572 0.1533
H89? H -0.3884 0.077 0.1849
C58? C -0.276(2) 0.2927(16) 0.2856(11)
H90? H -0.3712 0.258 0.2854
H91? H -0.2615 0.3352 0.2511
H92? H -0.2343 0.3486 0.3319
loop_
_geom_bond_atom_site_label_1
_geom_bond_atom_site_label_2
_geom_bond_site_symmetry_1
_geom_bond_site_symmetry_2
C1 C2 1_555 1_555
C2 H1 1_555 1_555
H2 C2 1_555 1_555
H3 C2 1_555 1_555
C3 C1 1_555 1_555
H4 C3 1_555 1_555
H5 C3 1_555 1_555
H6 C3 1_555 1_555
C4 C1 1_555 1_555
H7 C4 1_555 1_555
H8 C4 1_555 1_555
H9 C4 1_555 1_555
C5 C16 1_555 1_555
O1 C6 1_555 1_555
C6 H10 1_555 1_555
H11 C6 1_555 1_555
H12 C6 1_555 1_555
C8 C9 1_555 1_555
C9 H16 1_555 1_555
H17 C9 1_555 1_555
H18 C9 1_555 1_555
C10 C8 1_555 1_555
H19 C10 1_555 1_555
H20 C10 1_555 1_555
H21 C10 1_555 1_555
C11 C8 1_555 1_555
H22 C11 1_555 1_555
H23 C11 1_555 1_555
H24 C11 1_555 1_555
C12 C39 1_555 1_555
C14 H28 1_555 1_555
H29 C14 1_555 1_555
H30 C14 1_555 1_555
C15 O1 1_555 1_555
C16 C15 1_555 1_555
C17 C1 1_555 1_555
C18 C16 1_555 1_555
H31 C18 1_555 1_555
C19 C17 1_555 1_555
H32 C19 1_555 1_555
C20 C18 1_555 1_555
C21 C20 1_555 1_555
C22 C21 1_555 1_555
H33 C22 1_555 1_555
C23 C21 1_555 1_555
H34 C23 1_555 1_555
C24 C22 1_555 1_555
H35 C24 1_555 1_555
C25 C23 1_555 1_555
C26 C24 1_555 1_555
C27 C25 1_555 1_555
C28 C27 1_555 1_555
C29 C26 1_555 1_555
C30 C29 1_555 1_555
H36 C30 1_555 1_555
C31 C28 1_555 1_555
H37 C31 1_555 1_555
C32 C30 1_555 1_555
H38 C32 1_555 1_555
C33 C31 1_555 1_555
C34 C33 1_555 1_555
C35 C34 1_555 1_555
H39 C35 1_555 1_555
C36 C34 1_555 1_555
H40 C36 1_555 1_555
C37 C8 1_555 1_555
C38 C37 1_555 1_555
C39 C36 1_555 1_555
C40 H41 1_555 1_555
H42 C40 1_555 1_555
H43 C40 1_555 1_555
C41 C27 1_555 1_555
H44 C41 1_555 1_555
H45 C41 1_555 1_555
C42 H46 1_555 1_555
H47 C42 1_555 1_555
H48 C42 1_555 1_555
C43 C27 1_555 1_555
H49 C43 1_555 1_555
H50 C43 1_555 1_555
C44 H51 1_555 1_555
H52 C44 1_555 1_555
H53 C44 1_555 1_555
C45 H54 1_555 1_555
H55 C45 1_555 1_555
H56 C45 1_555 1_555
C46 C44 1_555 1_555
O3 C14 1_555 1_555
O4 C46 1_555 1_555
C47 C5 1_555 1_555
H57 C47 1_555 1_555
H58 C47 1_555 1_555
H59 C47 1_555 1_555
C48 C5 1_555 1_555
H60 C48 1_555 1_555
H61 C48 1_555 1_555
H62 C48 1_555 1_555
C49 C5 1_555 1_555
H63 C49 1_555 1_555
H64 C49 1_555 1_555
H65 C49 1_555 1_555
C53 C12 1_555 1_555
H75 C53 1_555 1_555
H76 C53 1_555 1_555
H77 C53 1_555 1_555
C54 C12 1_555 1_555
H78 C54 1_555 1_555
H79 C54 1_555 1_555
H80 C54 1_555 1_555
C55 C12 1_555 1_555
H81 C55 1_555 1_555
H82 C55 1_555 1_555
H83 C55 1_555 1_555
C15 C17 1_555 1_555
C19 C20 1_555 1_555
C25 C26 1_555 1_555
C28 C29 1_555 1_555
C32 C33 1_555 1_555
C35 C37 1_555 1_555
C38 C39 1_555 1_555
C38 O3 1_555 1_555
C40 C41 1_555 1_555
C42 C43 1_555 1_555
C45 C46 1_555 1_555

#END
