
#######################################################################
#
#                 Cambridge Crystallographic Data Centre
#                                CCDC 
#
#######################################################################
#
# If this CIF has been generated from an entry in the Cambridge 
# Structural Database, then it will include bibliographic, chemical, 
# crystal, experimental, refinement or atomic coordinate data resulting 
# from the CCDC's data processing and validation procedures.
#
#######################################################################

data_DIDGON
_chemical_formula_moiety         'C57 H82 O2'
_chemical_name_systematic        
2,7-bis(3,5-Di-t-butyl-4-methoxyphenyl)-9,9-di-n-heptyl-9H-fluorene
_symmetry_cell_setting           triclinic
_symmetry_space_group_name_H-M   'P -1'
_symmetry_Int_Tables_number      2
_space_group_name_Hall           '-P 1'
loop_
_symmetry_equiv_pos_site_id
_symmetry_equiv_pos_as_xyz
1 x,y,z
2 -x,-y,-z
_cell_length_a                   11.191(5)
_cell_length_b                   13.944(5)
_cell_length_c                   17.824(5)
_cell_angle_alpha                74.142(5)
_cell_angle_beta                 86.062(5)
_cell_angle_gamma                86.605(5)
_cell_volume                     2666.84
_exptl_crystal_colour            colorless
_exptl_crystal_description       needles
_chemical_melting_point          209-210deg.C
_cell_formula_units_Z            2
_exptl_crystal_preparation       luminescent
loop_
_atom_site_label
_atom_site_type_symbol
_atom_site_fract_x
_atom_site_fract_y
_atom_site_fract_z
O1 O 0.4009(3) 0.7880(2) 0.8924(2)
O2 O 0.0821(3) -0.24797(19) 0.52961(17)
C1 C 0.2944(6) 0.8552(4) 0.8763(4)
H1 H 0.3115 0.9191 0.8827
H2 H 0.2292 0.8276 0.912
H3 H 0.2729 0.8629 0.8237
C2 C 0.3855(4) 0.6923(3) 0.8849(3)
C3 C 0.4249(3) 0.6731(3) 0.8143(2)
C4 C 0.3912(3) 0.5839(3) 0.8029(2)
H4 H 0.4127 0.5701 0.7555
C5 C 0.3268(3) 0.5148(2) 0.8595(2)
C6 C 0.3018(3) 0.5324(3) 0.9314(2)
H5 H 0.2629 0.4842 0.9705
C7 C 0.3326(4) 0.6202(3) 0.9478(2)
C8 C 0.2831(3) 0.4240(2) 0.8424(2)
C9 C 0.3499(3) 0.3771(2) 0.7923(2)
H6 H 0.4245 0.4001 0.771
C10 C 0.3045(3) 0.2962(2) 0.7747(2)
C11 C 0.1933(3) 0.2602(2) 0.8070(2)
C12 C 0.1274(4) 0.3065(3) 0.8570(2)
H7 H 0.0531 0.2834 0.8787
C13 C 0.1732(4) 0.3867(3) 0.8742(2)
H8 H 0.1291 0.4171 0.9082
C14 C 0.3601(3) 0.2364(2) 0.7193(2)
C15 C 0.2622(3) 0.1631(2) 0.7246(2)
C16 C 0.1668(3) 0.1777(2) 0.7759(2)
C17 C 0.0683(4) 0.1179(3) 0.7890(2)
H9 H 0.0057 0.1263 0.824
C18 C 0.0645(4) 0.0459(3) 0.7494(2)
H10 H -0.0021 0.0067 0.7576
C19 C 0.1579(3) 0.0305(2) 0.6974(2)
C20 C 0.1482(3) -0.0470(2) 0.6555(2)
C21 C 0.2570(3) 0.0897(2) 0.6855(2)
H11 H 0.3201 0.0803 0.6512
C22 C 0.0964(3) -0.1369(2) 0.6917(2)
H12 H 0.071 -0.1495 0.7441
C23 C 0.0805(3) -0.2093(3) 0.6532(2)
C24 C 0.1151(3) -0.1848(3) 0.5728(2)
C25 C 0.1828(3) -0.1025(3) 0.5363(2)
C26 C 0.1948(3) -0.0338(2) 0.5790(2)
H13 H 0.2358 0.0238 0.5552
C27 C -0.0233(5) -0.2127(4) 0.4865(3)
H14 H -0.0412 -0.2594 0.4584
H15 H -0.0092 -0.149 0.4502
H16 H -0.0897 -0.2062 0.522
C28 C 0.3809(4) 0.3042(3) 0.6360(2)
H17 H 0.443 0.3496 0.6367
H18 H 0.4111 0.2629 0.6025
C29 C 0.2748(5) 0.3641(3) 0.6006(3)
H19 H 0.2459 0.4086 0.6319
H20 H 0.2112 0.3199 0.6004
C30 C 0.3060(7) 0.4258(5) 0.5164(3)
H21 H 0.3725 0.4671 0.5172
H22 H 0.3328 0.3804 0.4854
C31 C 0.2068(7) 0.4903(5) 0.4781(4)
H23 H 0.1811 0.5368 0.5083
H24 H 0.1397 0.4493 0.4781
C32 C 0.2389(8) 0.5493(5) 0.3941(4)
H25 H 0.3028 0.5932 0.3943
H26 H 0.2688 0.5031 0.3645
C33 C 0.1358(8) 0.6101(5) 0.3542(5)
H27 H 0.0712 0.5659 0.356
H28 H 0.1075 0.6569 0.3836
C34 C 0.1588(10) 0.6636(7) 0.2766(5)
H29 H 0.0873 0.7002 0.2565
H30 H 0.184 0.6182 0.2461
H31 H 0.221 0.7092 0.2738
C35 C 0.4798(4) 0.1840(3) 0.7462(3)
H32 H 0.5061 0.1435 0.7112
H33 H 0.538 0.235 0.7395
C36 C 0.4843(4) 0.1191(3) 0.8277(3)
H34 H 0.425 0.0687 0.8361
H35 H 0.4636 0.1593 0.8638
C37 C 0.6080(6) 0.0675(5) 0.8455(5)
H36 H 0.628 0.0298 0.8077
H37 H 0.6658 0.1192 0.8363
C38 C 0.6246(7) 0.0031(7) 0.9200(6)
H38 H 0.5773 -0.0546 0.9249
H39 H 0.5897 0.0368 0.9576
C39 C 0.7481(11) -0.0353(11) 0.9450(9)
H40 H 0.7985 0.0218 0.9294
H41 H 0.7426 -0.0548 1.0017
C40 C 0.8133(11) -0.1132(15) 0.9227(12)
H42 H 0.8139 -0.1011 0.8664
H43 H 0.7751 -0.1757 0.9465
C41 C 0.9432(9) -0.1207(10) 0.9482(7)
H44 H 0.9888 -0.1696 0.9281
H45 H 0.9429 -0.1402 1.0042
H46 H 0.9786 -0.057 0.9283
C42 C 0.5035(4) 0.7436(3) 0.7512(3)
C43 C 0.5525(7) 0.6931(5) 0.6884(4)
H47 H 0.5966 0.6325 0.7125
H48 H 0.6046 0.7372 0.6513
H49 H 0.4871 0.6779 0.6621
C44 C 0.4353(6) 0.8399(5) 0.7100(5)
H50 H 0.3663 0.8238 0.6874
H51 H 0.4867 0.8798 0.6696
H52 H 0.4101 0.8765 0.7472
C45 C 0.6126(5) 0.7692(5) 0.7866(4)
H53 H 0.6558 0.7088 0.812
H54 H 0.5874 0.8053 0.8241
H55 H 0.6635 0.8095 0.7462
C46 C 0.3082(5) 0.6291(3) 1.0315(3)
C47 C 0.4082(8) 0.6865(6) 1.0543(4)
H56 H 0.4847 0.654 1.0478
H57 H 0.3942 0.6874 1.1079
H58 H 0.4075 0.7537 1.0214
C48 C 0.1915(8) 0.6783(9) 1.0421(4)
H59 H 0.1853 0.7413 1.0034
H60 H 0.1838 0.689 1.0932
H61 H 0.1289 0.6368 1.0368
C49 C 0.3268(8) 0.5277(5) 1.0902(3)
H62 H 0.4047 0.4996 1.0802
H63 H 0.2665 0.484 1.0851
H64 H 0.3209 0.5356 1.1422
C50 C 0.0321(4) -0.3115(3) 0.6985(3)
C51 C 0.0332(6) -0.3261(3) 0.7874(3)
H65 H -0.0171 -0.275 0.8017
H66 H 0.1137 -0.322 0.8014
H67 H 0.0037 -0.3904 0.8143
C52 C 0.1133(5) -0.3959(3) 0.6809(3)
H68 H 0.1155 -0.3905 0.626
H69 H 0.0825 -0.459 0.7096
H70 H 0.1929 -0.391 0.6961
C53 C -0.0970(5) -0.3230(4) 0.6784(4)
H71 H -0.1481 -0.2703 0.6896
H72 H -0.1251 -0.3863 0.7092
H73 H -0.0984 -0.3196 0.624
C54 C 0.2485(4) -0.0845(3) 0.4553(2)
C58 C 0.3764(8) -0.0549(11) 0.4610(7)
H83 H 0.4185 -0.0438 0.4108
H84 H 0.4172 -0.1075 0.4982
H85 H 0.3738 0.0051 0.4777
C59 C 0.1850(10) 0.0040(10) 0.3977(5)
H86 H 0.2258 0.0158 0.347
H87 H 0.1864 0.0626 0.4159
H88 H 0.1035 -0.0115 0.3943
C60 C 0.2572(14) -0.1708(9) 0.4160(9)
H89 H 0.3022 -0.1507 0.3669
H90 H 0.1781 -0.1874 0.4075
H91 H 0.2968 -0.2281 0.4493
C55? C 0.333(2) 0.0022(15) 0.4359(12)
H74? H 0.372 0.0083 0.3852
H75? H 0.392 -0.0101 0.4743
H76? H 0.2877 0.063 0.4358
C56? C 0.1648(13) -0.0739(18) 0.3896(8)
H77? H 0.2111 -0.067 0.3412
H78? H 0.1124 -0.0159 0.3859
H79? H 0.118 -0.1321 0.4002
C57? C 0.3276(19) -0.1810(12) 0.4627(11)
H80? H 0.3726 -0.1772 0.4142
H81? H 0.2776 -0.2374 0.475
H82? H 0.3819 -0.1882 0.5035
loop_
_geom_bond_atom_site_label_1
_geom_bond_atom_site_label_2
_geom_bond_site_symmetry_1
_geom_bond_site_symmetry_2
O1 C1 1_555 1_555
O2 C24 1_555 1_555
C1 H1 1_555 1_555
H2 C1 1_555 1_555
H3 C1 1_555 1_555
C2 O1 1_555 1_555
C3 C2 1_555 1_555
C4 C3 1_555 1_555
H4 C4 1_555 1_555
C5 C4 1_555 1_555
C6 C5 1_555 1_555
H5 C6 1_555 1_555
C7 C2 1_555 1_555
C8 C5 1_555 1_555
C9 C8 1_555 1_555
H6 C9 1_555 1_555
C10 C9 1_555 1_555
C11 C10 1_555 1_555
C12 C11 1_555 1_555
H7 C12 1_555 1_555
C13 C8 1_555 1_555
H8 C13 1_555 1_555
C14 C10 1_555 1_555
C15 C14 1_555 1_555
C16 C11 1_555 1_555
C17 C16 1_555 1_555
H9 C17 1_555 1_555
C18 C17 1_555 1_555
H10 C18 1_555 1_555
C19 C18 1_555 1_555
C20 C19 1_555 1_555
C21 C15 1_555 1_555
H11 C21 1_555 1_555
C22 C20 1_555 1_555
H12 C22 1_555 1_555
C23 C22 1_555 1_555
C24 C23 1_555 1_555
C25 C24 1_555 1_555
C26 C20 1_555 1_555
H13 C26 1_555 1_555
C27 O2 1_555 1_555
H14 C27 1_555 1_555
H15 C27 1_555 1_555
H16 C27 1_555 1_555
C28 C14 1_555 1_555
H17 C28 1_555 1_555
H18 C28 1_555 1_555
C29 C28 1_555 1_555
H19 C29 1_555 1_555
H20 C29 1_555 1_555
C30 C29 1_555 1_555
H21 C30 1_555 1_555
H22 C30 1_555 1_555
C31 C30 1_555 1_555
H23 C31 1_555 1_555
H24 C31 1_555 1_555
C32 C31 1_555 1_555
H25 C32 1_555 1_555
H26 C32 1_555 1_555
C33 C32 1_555 1_555
H27 C33 1_555 1_555
H28 C33 1_555 1_555
C34 C33 1_555 1_555
H29 C34 1_555 1_555
H30 C34 1_555 1_555
H31 C34 1_555 1_555
C35 C14 1_555 1_555
H32 C35 1_555 1_555
H33 C35 1_555 1_555
C36 C35 1_555 1_555
H34 C36 1_555 1_555
H35 C36 1_555 1_555
C37 C36 1_555 1_555
H36 C37 1_555 1_555
H37 C37 1_555 1_555
C38 C37 1_555 1_555
H38 C38 1_555 1_555
H39 C38 1_555 1_555
C39 C38 1_555 1_555
H40 C39 1_555 1_555
H41 C39 1_555 1_555
C40 C39 1_555 1_555
H42 C40 1_555 1_555
H43 C40 1_555 1_555
C41 C40 1_555 1_555
H44 C41 1_555 1_555
H45 C41 1_555 1_555
H46 C41 1_555 1_555
C42 C3 1_555 1_555
C43 C42 1_555 1_555
H47 C43 1_555 1_555
H48 C43 1_555 1_555
H49 C43 1_555 1_555
C44 C42 1_555 1_555
H50 C44 1_555 1_555
H51 C44 1_555 1_555
H52 C44 1_555 1_555
C45 C42 1_555 1_555
H53 C45 1_555 1_555
H54 C45 1_555 1_555
H55 C45 1_555 1_555
C46 C7 1_555 1_555
C47 C46 1_555 1_555
H56 C47 1_555 1_555
H57 C47 1_555 1_555
H58 C47 1_555 1_555
C48 C46 1_555 1_555
H59 C48 1_555 1_555
H60 C48 1_555 1_555
H61 C48 1_555 1_555
C49 C46 1_555 1_555
H62 C49 1_555 1_555
H63 C49 1_555 1_555
H64 C49 1_555 1_555
C50 C23 1_555 1_555
C51 C50 1_555 1_555
H65 C51 1_555 1_555
H66 C51 1_555 1_555
H67 C51 1_555 1_555
C52 C50 1_555 1_555
H68 C52 1_555 1_555
H69 C52 1_555 1_555
H70 C52 1_555 1_555
C53 C50 1_555 1_555
H71 C53 1_555 1_555
H72 C53 1_555 1_555
H73 C53 1_555 1_555
C54 C25 1_555 1_555
C58 C54 1_555 1_555
H83 C58 1_555 1_555
H84 C58 1_555 1_555
H85 C58 1_555 1_555
C59 C54 1_555 1_555
H86 C59 1_555 1_555
H87 C59 1_555 1_555
H88 C59 1_555 1_555
C60 C54 1_555 1_555
H89 C60 1_555 1_555
H90 C60 1_555 1_555
H91 C60 1_555 1_555
C6 C7 1_555 1_555
C12 C13 1_555 1_555
C15 C16 1_555 1_555
C19 C21 1_555 1_555
C25 C26 1_555 1_555

#END
