
#######################################################################
#
#                 Cambridge Crystallographic Data Centre
#                                CCDC 
#
#######################################################################
#
# If this CIF has been generated from an entry in the Cambridge 
# Structural Database, then it will include bibliographic, chemical, 
# crystal, experimental, refinement or atomic coordinate data resulting 
# from the CCDC's data processing and validation procedures.
#
#######################################################################

data_DIDHEF
_chemical_formula_moiety         'C13 H9 Cl2 N1 O1'
_chemical_name_systematic        4-((2,4-Dichlorobenzylidene)amino)phenol
_symmetry_cell_setting           orthorhombic
_symmetry_space_group_name_H-M   'P c c n'
_symmetry_Int_Tables_number      56
_space_group_name_Hall           '-P 2ab 2ac'
loop_
_symmetry_equiv_pos_site_id
_symmetry_equiv_pos_as_xyz
1 x,y,z
2 1/2-x,1/2-y,z
3 -x,1/2+y,1/2-z
4 1/2+x,-y,1/2-z
5 -x,-y,-z
6 1/2+x,1/2+y,-z
7 x,1/2-y,1/2+z
8 1/2-x,y,1/2+z
_cell_length_a                   13.6884(19)
_cell_length_b                   14.399(2)
_cell_length_c                   12.4291(17)
_cell_angle_alpha                90
_cell_angle_beta                 90
_cell_angle_gamma                90
_cell_volume                     2449.77
_exptl_crystal_colour            yellow
_exptl_crystal_description       block
_cell_formula_units_Z            8
loop_
_atom_site_label
_atom_site_type_symbol
_atom_site_fract_x
_atom_site_fract_y
_atom_site_fract_z
C1 C 0.8272(2) 0.1033(2) 0.1825(2)
C2 C 0.7758(3) 0.0221(2) 0.1920(2)
H1 H 0.7818 -0.0125 0.2548
C3 C 0.7155(3) -0.0098(2) 0.1116(2)
H2 H 0.6821 -0.0656 0.1206
C4 C 0.7041(2) 0.0398(2) 0.0180(2)
C5 C 0.7592(3) 0.1179(3) 0.0043(3)
H3 H 0.7560 0.1499 -0.0605
C6 C 0.8198(3) 0.1502(3) 0.0854(3)
H4 H 0.8560 0.2041 0.0745
C7 C 0.9227(2) 0.2127(2) 0.2749(2)
H5 H 0.9122 0.2527 0.2173
C8 C 0.9825(2) 0.2450(2) 0.3651(2)
C9 C 1.0064(3) 0.3395(2) 0.3769(3)
C10 C 1.0611(2) 0.3708(2) 0.4633(3)
H6 H 1.0761 0.4335 0.4700
C11 C 1.0931(2) 0.3083(2) 0.5390(3)
C12 C 1.0720(2) 0.2145(2) 0.5294(3)
H7 H 1.0946 0.1723 0.5804
C13 C 1.0172(2) 0.1848(2) 0.4434(3)
H8 H 1.0027 0.1219 0.4375
Cl1 Cl 0.96690(10) 0.42069(7) 0.28371(10)
Cl2 Cl 1.15928(8) 0.34715(8) 0.64840(9)
N1 N 0.88428(17) 0.13217(17) 0.27222(18)
O1 O 0.64143(16) 0.00704(15) -0.05757(15)
H9 H 0.6388 0.0437 -0.1080
loop_
_geom_bond_atom_site_label_1
_geom_bond_atom_site_label_2
_geom_bond_site_symmetry_1
_geom_bond_site_symmetry_2
C1 C2 1_555 1_555
C2 H1 1_555 1_555
C3 C2 1_555 1_555
H2 C3 1_555 1_555
C4 C3 1_555 1_555
C5 C4 1_555 1_555
H3 C5 1_555 1_555
C6 C1 1_555 1_555
H4 C6 1_555 1_555
C7 H5 1_555 1_555
C8 C7 1_555 1_555
C9 C8 1_555 1_555
C10 C9 1_555 1_555
H6 C10 1_555 1_555
C11 C10 1_555 1_555
C12 C11 1_555 1_555
H7 C12 1_555 1_555
C13 C8 1_555 1_555
H8 C13 1_555 1_555
Cl1 C9 1_555 1_555
Cl2 C11 1_555 1_555
N1 C1 1_555 1_555
O1 C4 1_555 1_555
H9 O1 1_555 1_555
C5 C6 1_555 1_555
C7 N1 1_555 1_555
C12 C13 1_555 1_555

#END
