
#######################################################################
#
#                 Cambridge Crystallographic Data Centre
#                                CCDC 
#
#######################################################################
#
# If this CIF has been generated from an entry in the Cambridge 
# Structural Database, then it will include bibliographic, chemical, 
# crystal, experimental, refinement or atomic coordinate data resulting 
# from the CCDC's data processing and validation procedures.
#
#######################################################################

data_DIDKAF
_chemical_formula_moiety         'C20 H14 N4,C1 H4 O1'
_chemical_name_systematic        
"4,4'-(anthracene-9,10-diyl)bis(1H-pyrazole) methanol solvate"
_symmetry_cell_setting           monoclinic
_symmetry_space_group_name_H-M   'P 2/c'
_symmetry_Int_Tables_number      13
_space_group_name_Hall           '-P 2yc'
loop_
_symmetry_equiv_pos_site_id
_symmetry_equiv_pos_as_xyz
1 x,y,z
2 -x,y,1/2-z
3 -x,-y,-z
4 x,-y,1/2+z
_cell_length_a                   9.2099(2)
_cell_length_b                   8.3367(2)
_cell_length_c                   22.5031(5)
_cell_angle_alpha                90
_cell_angle_beta                 91.638(2)
_cell_angle_gamma                90
_cell_volume                     1727.09
_exptl_crystal_colour            yellow
_exptl_crystal_description       block
_cell_formula_units_Z            4
loop_
_atom_site_label
_atom_site_type_symbol
_atom_site_fract_x
_atom_site_fract_y
_atom_site_fract_z
O1 O 0.500000 0.3243(2) 0.250000
C1 C 0.500000 0.1579(4) 0.250000
O2 O 0.000000 1.0409(2) 0.250000
C2 C 0.000000 1.2093(4) 0.250000
N1 N 0.21592(13) 0.59955(16) 0.29667(5)
N2 N 0.29955(12) 0.47611(16) 0.31543(5)
H1 H 0.368287 0.437390 0.294591
C3 C 0.06774(13) 0.51868(15) 0.44420(5)
C4 C -0.07881(13) 0.47157(15) 0.44605(5)
C5 C -0.16318(14) 0.43846(17) 0.39302(5)
H2 H -0.120730 0.450496 0.356282
C6 C -0.30395(15) 0.38983(18) 0.39512(6)
H3 H -0.356762 0.370621 0.359994
C7 C -0.37046(14) 0.36830(18) 0.45054(6)
H4 H -0.466355 0.333744 0.451643
C8 C -0.29469(14) 0.39795(17) 0.50216(6)
H5 H -0.341184 0.386212 0.538050
C9 C -0.14712(13) 0.45163(15) 0.50226(5)
C10 C 0.12069(15) 0.63229(18) 0.33891(6)
H6 H 0.050371 0.712282 0.336617
C11 C 0.14293(13) 0.52842(16) 0.38679(5)
C12 C 0.25724(14) 0.43203(18) 0.36947(6)
H7 H 0.298232 0.349299 0.392031
N1B N -0.21592(13) 0.40045(16) 0.70333(5)
N2B N -0.29955(12) 0.52389(16) 0.68457(5)
H1B H -0.368287 0.562610 0.705409
C3B C -0.06774(13) 0.48132(15) 0.55580(5)
C4B C 0.07881(13) 0.52843(15) 0.55395(5)
C5B C 0.16318(14) 0.56154(17) 0.60698(5)
H2B H 0.120730 0.549504 0.643718
C6B C 0.30395(15) 0.61017(18) 0.60488(6)
H3B H 0.356762 0.629379 0.640006
C7B C 0.37046(14) 0.63170(18) 0.54946(6)
H4B H 0.466355 0.666256 0.548357
C8B C 0.29469(14) 0.60205(17) 0.49784(6)
H5B H 0.341184 0.613788 0.461950
C9B C 0.14712(13) 0.54837(15) 0.49774(5)
C10B C -0.12069(15) 0.36771(18) 0.66109(6)
H6B H -0.050371 0.287718 0.663383
C11B C -0.14293(13) 0.47158(16) 0.61321(5)
C12B C -0.25724(14) 0.56797(18) 0.63053(6)
H7B H -0.298232 0.650701 0.607969
N3 N 0.29802(13) 0.78229(16) 0.19361(5)
H8 H 0.292937 0.719111 0.223573
N4 N 0.20973(12) 0.90819(16) 0.18332(5)
C13 C 0.43649(13) 0.94267(15) 0.05311(5)
C14 C 0.58377(13) 0.98873(15) 0.05361(5)
C15 C 0.67396(14) 0.97981(16) 0.10637(5)
H9 H 0.634891 0.941222 0.141246
C16 C 0.81578(14) 1.02655(18) 0.10668(6)
H10 H 0.872694 1.016908 0.141303
C17 C 0.87694(13) 1.08961(18) 0.05471(6)
H11 H 0.973239 1.123317 0.055535
C18 C 0.79534(13) 1.10120(16) 0.00342(5)
H12 H 0.837140 1.144701 -0.030089
C19 C 0.64762(13) 1.04839(15) 0.00021(5)
C20 C 0.39212(14) 0.77409(17) 0.14933(6)
H13 H 0.464748 0.697348 0.146062
C21 C 0.36472(13) 0.89769(16) 0.10902(5)
C22 C 0.24753(14) 0.97890(18) 0.13301(6)
H14 H 0.202621 1.068853 0.116373
N3B N 0.70198(13) 1.21771(16) -0.19361(5)
H8B H 0.707063 1.280889 -0.223573
N4B N 0.79027(12) 1.09181(16) -0.18332(5)
C13B C 0.56351(13) 1.05733(15) -0.05311(5)
C14B C 0.41623(13) 1.01127(15) -0.05361(5)
C15B C 0.32604(14) 1.02019(16) -0.10637(5)
H9B H 0.365109 1.058778 -0.141246
C16B C 0.18422(14) 0.97345(18) -0.10668(6)
H10B H 0.127306 0.983092 -0.141303
C17B C 0.12306(13) 0.91039(18) -0.05471(6)
H11B H 0.026761 0.876683 -0.055535
C18B C 0.20466(13) 0.89880(16) -0.00342(5)
H12B H 0.162860 0.855299 0.030089
C19B C 0.35238(13) 0.95161(15) -0.00021(5)
C20B C 0.60788(14) 1.22591(17) -0.14933(6)
H13B H 0.535252 1.302652 -0.146062
C21B C 0.63528(13) 1.10231(16) -0.10902(5)
C22B C 0.75247(14) 1.02110(18) -0.13301(6)
H14B H 0.797379 0.931147 -0.116373
H15? H -0.063870 1.008824 0.271630
H16? H 0.222839 0.648861 0.263312
H17? H 0.140494 0.937968 0.205665
H18? H 0.567780 0.360609 0.231330
H19? H 0.566082 0.119525 0.220993
H20? H 0.530001 0.119525 0.288654
H21? H 0.403918 0.119525 0.240354
H22? H 0.082685 1.247722 0.229208
H23? H -0.087404 1.247722 0.230562
H24? H 0.004719 1.247722 0.290230
loop_
_geom_bond_atom_site_label_1
_geom_bond_atom_site_label_2
_geom_bond_site_symmetry_1
_geom_bond_site_symmetry_2
O1 C1 1_555 1_555
O2 C2 1_555 1_555
N1 N2 1_555 1_555
N2 H1 1_555 1_555
C3 C4 1_555 1_555
C4 C5 1_555 1_555
C5 H2 1_555 1_555
C6 C5 1_555 1_555
H3 C6 1_555 1_555
C7 C6 1_555 1_555
H4 C7 1_555 1_555
C8 C7 1_555 1_555
H5 C8 1_555 1_555
C9 C4 1_555 1_555
C10 N1 1_555 1_555
H6 C10 1_555 1_555
C11 C3 1_555 1_555
C12 N2 1_555 1_555
H7 C12 1_555 1_555
N3 H8 1_555 1_555
N4 N3 1_555 1_555
C13 C14 1_555 1_555
C14 C15 1_555 1_555
C15 H9 1_555 1_555
C16 C15 1_555 1_555
H10 C16 1_555 1_555
C17 C16 1_555 1_555
H11 C17 1_555 1_555
C18 C17 1_555 1_555
H12 C18 1_555 1_555
C19 C14 1_555 1_555
C20 N3 1_555 1_555
H13 C20 1_555 1_555
C21 C13 1_555 1_555
C22 N4 1_555 1_555
H14 C22 1_555 1_555
N1B N2B 1_555 1_555
N2B H1B 1_555 1_555
C3B C9 1_555 1_555
C4B C3B 1_555 1_555
C5B C4B 1_555 1_555
H2B C5B 1_555 1_555
C6B C5B 1_555 1_555
H3B C6B 1_555 1_555
C7B C6B 1_555 1_555
H4B C7B 1_555 1_555
C8B C7B 1_555 1_555
H5B C8B 1_555 1_555
C9B C3 1_555 1_555
C10B N1B 1_555 1_555
H6B C10B 1_555 1_555
C11B C3B 1_555 1_555
C12B N2B 1_555 1_555
H7B C12B 1_555 1_555
N3B H8B 1_555 1_555
N4B N3B 1_555 1_555
C13B C19 1_555 1_555
C14B C13B 1_555 1_555
C15B C14B 1_555 1_555
H9B C15B 1_555 1_555
C16B C15B 1_555 1_555
H10B C16B 1_555 1_555
C17B C16B 1_555 1_555
H11B C17B 1_555 1_555
C18B C17B 1_555 1_555
H12B C18B 1_555 1_555
C19B C13 1_555 1_555
C20B N3B 1_555 1_555
H13B C20B 1_555 1_555
C21B C13B 1_555 1_555
C22B N4B 1_555 1_555
H14B C22B 1_555 1_555
C8 C9 1_555 1_555
C10 C11 1_555 1_555
C11 C12 1_555 1_555
C18 C19 1_555 1_555
C20 C21 1_555 1_555
C21 C22 1_555 1_555
C4B C9B 1_555 1_555
C8B C9B 1_555 1_555
C10B C11B 1_555 1_555
C11B C12B 1_555 1_555
C14B C19B 1_555 1_555
C18B C19B 1_555 1_555
C20B C21B 1_555 1_555
C21B C22B 1_555 1_555

#END
