
#######################################################################
#
#                 Cambridge Crystallographic Data Centre
#                                CCDC 
#
#######################################################################
#
# If this CIF has been generated from an entry in the Cambridge 
# Structural Database, then it will include bibliographic, chemical, 
# crystal, experimental, refinement or atomic coordinate data resulting 
# from the CCDC's data processing and validation procedures.
#
#######################################################################

data_DIDKOR
_chemical_formula_moiety         'C17 H16 N4 O1 S1'
_chemical_name_systematic        
9-Benzoyl-6-imino-8-(methylsulfanyl)-1,3,4,6-tetrahydro-2H-pyrido(1,2-a)pyrimidine-7-carbonitrile
_symmetry_cell_setting           monoclinic
_symmetry_space_group_name_H-M   'P 21/c'
_symmetry_Int_Tables_number      14
_space_group_name_Hall           '-P 2ybc'
loop_
_symmetry_equiv_pos_site_id
_symmetry_equiv_pos_as_xyz
1 x,y,z
2 -x,1/2+y,1/2-z
3 -x,-y,-z
4 x,1/2-y,1/2+z
_cell_length_a                   13.648(7)
_cell_length_b                   15.024(7)
_cell_length_c                   7.656(4)
_cell_angle_alpha                90
_cell_angle_beta                 95.087(9)
_cell_angle_gamma                90
_cell_volume                     1563.66
_exptl_crystal_colour            orange
_chemical_melting_point          200deg.C
_cell_formula_units_Z            4
loop_
_atom_site_label
_atom_site_type_symbol
_atom_site_fract_x
_atom_site_fract_y
_atom_site_fract_z
S1 S 0.84191(6) 0.44080(5) 1.05827(10)
O1 O 0.62341(14) 0.61204(12) 0.8928(3)
N1 N 0.55304(15) 0.33754(12) 0.7976(3)
N2 N 0.49378(15) 0.48205(13) 0.7708(3)
H1 H 0.5021 0.5371 0.7994
N3 N 0.60308(17) 0.19141(14) 0.8136(3)
H2 H 0.6464 0.1624 0.8393
N4 N 0.8387(2) 0.18946(17) 1.0541(4)
C1 C 0.4553(2) 0.30472(17) 0.7277(4)
H3 H 0.4138 0.2976 0.8232
H4 H 0.4624 0.2470 0.6736
C2 C 0.4078(2) 0.36785(17) 0.5958(4)
H5 H 0.3427 0.3464 0.5550
H6 H 0.4465 0.3717 0.4957
C3 C 0.39997(19) 0.45851(17) 0.6774(4)
H7 H 0.3823 0.5023 0.5869
H8 H 0.3490 0.4580 0.7581
C4 C 0.56800(19) 0.42710(16) 0.8164(3)
C5 C 0.66267(18) 0.45982(15) 0.8766(3)
C6 C 0.73510(18) 0.39785(16) 0.9396(3)
C7 C 0.71720(19) 0.30830(16) 0.9259(3)
C8 C 0.62585(19) 0.27358(16) 0.8428(4)
C9 C 0.68282(19) 0.55532(16) 0.8552(3)
C10 C 0.77043(18) 0.58386(16) 0.7653(3)
C11 C 0.8044(2) 0.67014(18) 0.7860(4)
H9 H 0.7763 0.7083 0.8631
C12 C 0.8794(2) 0.6998(2) 0.6934(5)
H10 H 0.9030 0.7575 0.7107
C13 C 0.9196(3) 0.6457(3) 0.5761(5)
H11 H 0.9705 0.6664 0.5139
C14 C 0.8848(2) 0.5601(2) 0.5500(4)
H12 H 0.9111 0.5234 0.4683
C15 C 0.81064(19) 0.52937(18) 0.6454(4)
H13 H 0.7876 0.4715 0.6288
C16 C 0.7857(2) 0.24366(18) 0.9991(4)
C17 C 0.9434(2) 0.3898(2) 0.9592(5)
H14 H 0.9387 0.3262 0.9681
H15 H 1.0044 0.4094 1.0190
H16 H 0.9411 0.4065 0.8379
loop_
_geom_bond_atom_site_label_1
_geom_bond_atom_site_label_2
_geom_bond_site_symmetry_1
_geom_bond_site_symmetry_2
S1 C6 1_555 1_555
O1 C9 1_555 1_555
N1 C1 1_555 1_555
N2 H1 1_555 1_555
N3 H2 1_555 1_555
N4 C16 1_555 1_555
C1 H3 1_555 1_555
H4 C1 1_555 1_555
C2 C1 1_555 1_555
H5 C2 1_555 1_555
H6 C2 1_555 1_555
C3 N2 1_555 1_555
H7 C3 1_555 1_555
H8 C3 1_555 1_555
C4 N1 1_555 1_555
C5 C4 1_555 1_555
C6 C5 1_555 1_555
C7 C6 1_555 1_555
C8 N1 1_555 1_555
C9 C5 1_555 1_555
C10 C9 1_555 1_555
C11 C10 1_555 1_555
H9 C11 1_555 1_555
C12 C11 1_555 1_555
H10 C12 1_555 1_555
C13 C12 1_555 1_555
H11 C13 1_555 1_555
C14 C13 1_555 1_555
H12 C14 1_555 1_555
C15 C10 1_555 1_555
H13 C15 1_555 1_555
C16 C7 1_555 1_555
C17 S1 1_555 1_555
H14 C17 1_555 1_555
H15 C17 1_555 1_555
H16 C17 1_555 1_555
N2 C4 1_555 1_555
N3 C8 1_555 1_555
C2 C3 1_555 1_555
C7 C8 1_555 1_555
C14 C15 1_555 1_555

#END
