
#######################################################################
#
#                 Cambridge Crystallographic Data Centre
#                                CCDC 
#
#######################################################################
#
# If this CIF has been generated from an entry in the Cambridge 
# Structural Database, then it will include bibliographic, chemical, 
# crystal, experimental, refinement or atomic coordinate data resulting 
# from the CCDC's data processing and validation procedures.
#
#######################################################################

data_DIDLAG
_chemical_formula_moiety         'C16 H32 Li1 O8 1+,C22 H28 P1 Si2 1-'
_chemical_name_systematic        
'bis(12-crown-4)-lithium 3,4-diphenyl-2,5-bis(trimethylsilyl)phosphol-1-ide'
_symmetry_cell_setting           monoclinic
_symmetry_space_group_name_H-M   'P 21'
_symmetry_Int_Tables_number      4
_space_group_name_Hall           'P 2yb'
loop_
_symmetry_equiv_pos_site_id
_symmetry_equiv_pos_as_xyz
1 x,y,z
2 -x,1/2+y,-z
_cell_length_a                   8.6487(3)
_cell_length_b                   19.4430(5)
_cell_length_c                   12.8357(4)
_cell_angle_alpha                90
_cell_angle_beta                 106.455(3)
_cell_angle_gamma                90
_cell_volume                     2070.01
_exptl_crystal_colour            'metallic colorless'
_exptl_crystal_description       block
_cell_formula_units_Z            2
loop_
_atom_site_label
_atom_site_type_symbol
_atom_site_fract_x
_atom_site_fract_y
_atom_site_fract_z
Li1 Li 0.4393(3) 0.49386(13) 0.75142(18)
O1 O 0.38968(12) 0.37356(6) 0.72341(9)
O2 O 0.66666(12) 0.43264(5) 0.85088(8)
O3 O 0.47966(13) 0.52132(5) 0.93035(8)
O4 O 0.20075(14) 0.46297(6) 0.80332(8)
O5 O 0.56487(13) 0.47753(5) 0.61680(8)
O6 O 0.64011(13) 0.58116(5) 0.76825(9)
O7 O 0.31393(14) 0.60444(6) 0.73562(9)
O8 O 0.24077(12) 0.49983(6) 0.58663(8)
C1 C 0.5071(2) 0.33011(8) 0.79382(13)
H1 H 0.5070 0.2850 0.7614
H2 H 0.4839 0.3247 0.8630
C2 C 0.66761(19) 0.36466(8) 0.80940(13)
H3 H 0.7509 0.3379 0.8595
H4 H 0.6927 0.3665 0.7404
C3 C 0.68931(19) 0.43517(8) 0.96568(12)
H5 H 0.8009 0.4258 1.0045
H6 H 0.6217 0.4013 0.9869
C4 C 0.64323(18) 0.50642(9) 0.99082(11)
H7 H 0.6545 0.5103 1.0680
H8 H 0.7150 0.5396 0.9725
C5 C 0.3633(2) 0.49773(11) 0.98216(12)
H9 H 0.3644 0.5268 1.0438
H10 H 0.3874 0.4509 1.0078
C6 C 0.20127(19) 0.50092(10) 0.89890(12)
H11 H 0.1200 0.4823 0.9298
H12 H 0.1740 0.5485 0.8796
C7 C 0.1801(2) 0.39054(9) 0.81186(14)
H13 H 0.0687 0.3800 0.8071
H14 H 0.2477 0.3737 0.8809
C8 C 0.22751(19) 0.35728(8) 0.71938(13)
H15 H 0.2160 0.3078 0.7231
H16 H 0.1559 0.3730 0.6509
C9 C 0.66811(19) 0.53125(8) 0.60149(13)
H17 H 0.6058 0.5674 0.5566
H18 H 0.7456 0.5137 0.5663
C10 C 0.75297(18) 0.55842(9) 0.71253(13)
H19 H 0.8206 0.5226 0.7547
H20 H 0.8220 0.5965 0.7058
C11 C 0.5770(2) 0.64770(8) 0.73791(15)
H21 H 0.5458 0.6526 0.6595
H22 H 0.6573 0.6824 0.7692
C12 C 0.4329(2) 0.65609(9) 0.77971(15)
H23 H 0.4662 0.6528 0.8583
H24 H 0.3862 0.7013 0.7601
C13 C 0.2086(2) 0.61905(9) 0.63144(14)
H25 H 0.2689 0.6361 0.5836
H26 H 0.1301 0.6536 0.6367
C14 C 0.12616(18) 0.55296(9) 0.58886(13)
H27 H 0.0599 0.5384 0.6345
H28 H 0.0560 0.5602 0.5160
C15 C 0.30090(19) 0.50397(10) 0.49412(11)
H29 H 0.3311 0.5509 0.4832
H30 H 0.2196 0.4889 0.4293
C16 C 0.4453(2) 0.45772(8) 0.51740(12)
H31 H 0.4119 0.4107 0.5238
H32 H 0.4926 0.4598 0.4574
P1 P 1.07601(4) 0.499372(17) 0.17206(3)
Si1 Si 0.96006(5) 0.651892(19) 0.16149(3)
Si2 Si 1.05050(4) 0.342126(18) 0.22251(3)
C17 C 0.96391(15) 0.56323(7) 0.21526(10)
C18 C 0.86489(15) 0.53310(7) 0.27428(10)
C19 C 0.88014(15) 0.46056(7) 0.28278(10)
C20 C 0.99253(15) 0.43282(6) 0.23219(10)
C21 C 0.7486(2) 0.68624(8) 0.10587(13)
H33 H 0.6883 0.6564 0.0494
H34 H 0.7527 0.7315 0.0769
H35 H 0.6974 0.6883 0.1631
C22 C 1.0541(3) 0.65211(10) 0.0462(2)
H36 H 1.1630 0.6358 0.0717
H37 H 1.0537 0.6981 0.0188
H38 H 0.9934 0.6226 -0.0107
C23 C 1.0796(2) 0.71624(8) 0.26218(18)
H39 H 1.0333 0.7207 0.3215
H40 H 1.0773 0.7600 0.2272
H41 H 1.1891 0.7008 0.2891
C24 C 0.8756(2) 0.28333(8) 0.16350(16)
H42 H 0.8043 0.2837 0.2088
H43 H 0.9144 0.2374 0.1596
H44 H 0.8185 0.2987 0.0919
C25 C 1.18476(18) 0.33731(8) 0.13030(12)
H45 H 1.2242 0.2912 0.1299
H46 H 1.2741 0.3682 0.1559
H47 H 1.1245 0.3501 0.0579
C26 C 1.1582(2) 0.30414(8) 0.35851(13)
H48 H 1.2513 0.3315 0.3923
H49 H 1.1914 0.2580 0.3488
H50 H 1.0870 0.3035 0.4038
C27 C 0.74954(15) 0.57427(6) 0.31584(10)
C28 C 0.58469(16) 0.55879(7) 0.28809(10)
H51 H 0.5473 0.5191 0.2486
C29 C 0.47531(17) 0.60157(7) 0.31835(11)
H52 H 0.3661 0.5908 0.2977
C30 C 0.52962(18) 0.66030(7) 0.37932(11)
H53 H 0.4571 0.6889 0.3998
C31 C 0.69250(18) 0.67606(7) 0.40953(11)
H54 H 0.7296 0.7152 0.4507
C32 C 0.80048(16) 0.63352(7) 0.37837(11)
H55 H 0.9095 0.6446 0.3996
C33 C 0.79796(15) 0.41546(6) 0.34554(11)
C34 C 0.65497(17) 0.38082(7) 0.29514(12)
H56 H 0.6039 0.3889 0.2221
C35 C 0.58743(18) 0.33430(8) 0.35269(14)
H57 H 0.4923 0.3115 0.3178
C36 C 0.6618(2) 0.32202(8) 0.46156(15)
H58 H 0.6175 0.2907 0.4998
C37 C 0.80214(19) 0.35649(8) 0.51295(13)
H59 H 0.8519 0.3487 0.5863
C38 C 0.86972(17) 0.40289(8) 0.45582(12)
H60 H 0.9641 0.4259 0.4916
loop_
_geom_bond_atom_site_label_1
_geom_bond_atom_site_label_2
_geom_bond_site_symmetry_1
_geom_bond_site_symmetry_2
Li1 O1 1_555 1_555
O1 C1 1_555 1_555
O2 Li1 1_555 1_555
O3 Li1 1_555 1_555
O4 Li1 1_555 1_555
O5 Li1 1_555 1_555
O6 Li1 1_555 1_555
O7 Li1 1_555 1_555
O8 Li1 1_555 1_555
C1 H1 1_555 1_555
H2 C1 1_555 1_555
C2 O2 1_555 1_555
H3 C2 1_555 1_555
H4 C2 1_555 1_555
C3 O2 1_555 1_555
H5 C3 1_555 1_555
H6 C3 1_555 1_555
C4 O3 1_555 1_555
H7 C4 1_555 1_555
H8 C4 1_555 1_555
C5 O3 1_555 1_555
H9 C5 1_555 1_555
H10 C5 1_555 1_555
C6 O4 1_555 1_555
H11 C6 1_555 1_555
H12 C6 1_555 1_555
C7 O4 1_555 1_555
H13 C7 1_555 1_555
H14 C7 1_555 1_555
C8 O1 1_555 1_555
H15 C8 1_555 1_555
H16 C8 1_555 1_555
C9 O5 1_555 1_555
H17 C9 1_555 1_555
H18 C9 1_555 1_555
C10 O6 1_555 1_555
H19 C10 1_555 1_555
H20 C10 1_555 1_555
C11 O6 1_555 1_555
H21 C11 1_555 1_555
H22 C11 1_555 1_555
C12 O7 1_555 1_555
H23 C12 1_555 1_555
H24 C12 1_555 1_555
C13 O7 1_555 1_555
H25 C13 1_555 1_555
H26 C13 1_555 1_555
C14 O8 1_555 1_555
H27 C14 1_555 1_555
H28 C14 1_555 1_555
C15 O8 1_555 1_555
H29 C15 1_555 1_555
H30 C15 1_555 1_555
C16 O5 1_555 1_555
H31 C16 1_555 1_555
H32 C16 1_555 1_555
P1 C17 1_555 1_555
Si1 C17 1_555 1_555
Si2 C20 1_555 1_555
C17 C18 1_555 1_555
C18 C19 1_555 1_555
C19 C20 1_555 1_555
C20 P1 1_555 1_555
C21 Si1 1_555 1_555
H33 C21 1_555 1_555
H34 C21 1_555 1_555
H35 C21 1_555 1_555
C22 Si1 1_555 1_555
H36 C22 1_555 1_555
H37 C22 1_555 1_555
H38 C22 1_555 1_555
C23 Si1 1_555 1_555
H39 C23 1_555 1_555
H40 C23 1_555 1_555
H41 C23 1_555 1_555
C24 Si2 1_555 1_555
H42 C24 1_555 1_555
H43 C24 1_555 1_555
H44 C24 1_555 1_555
C25 Si2 1_555 1_555
H45 C25 1_555 1_555
H46 C25 1_555 1_555
H47 C25 1_555 1_555
C26 Si2 1_555 1_555
H48 C26 1_555 1_555
H49 C26 1_555 1_555
H50 C26 1_555 1_555
C27 C18 1_555 1_555
C28 C27 1_555 1_555
H51 C28 1_555 1_555
C29 C28 1_555 1_555
H52 C29 1_555 1_555
C30 C29 1_555 1_555
H53 C30 1_555 1_555
C31 C30 1_555 1_555
H54 C31 1_555 1_555
C32 C27 1_555 1_555
H55 C32 1_555 1_555
C33 C19 1_555 1_555
C34 C33 1_555 1_555
H56 C34 1_555 1_555
C35 C34 1_555 1_555
H57 C35 1_555 1_555
C36 C35 1_555 1_555
H58 C36 1_555 1_555
C37 C36 1_555 1_555
H59 C37 1_555 1_555
C38 C33 1_555 1_555
H60 C38 1_555 1_555
C1 C2 1_555 1_555
C3 C4 1_555 1_555
C5 C6 1_555 1_555
C7 C8 1_555 1_555
C9 C10 1_555 1_555
C11 C12 1_555 1_555
C13 C14 1_555 1_555
C15 C16 1_555 1_555
C31 C32 1_555 1_555
C37 C38 1_555 1_555

#END
