
#######################################################################
#
#                 Cambridge Crystallographic Data Centre
#                                CCDC 
#
#######################################################################
#
# If this CIF has been generated from an entry in the Cambridge 
# Structural Database, then it will include bibliographic, chemical, 
# crystal, experimental, refinement or atomic coordinate data resulting 
# from the CCDC's data processing and validation procedures.
#
#######################################################################

data_DIDNEL
_chemical_formula_moiety         'C17 H17 Cl2 N1'
_chemical_name_systematic        
N-(2,4-Dichlorobenzylidene)-2,6-diethylaniline
_symmetry_cell_setting           triclinic
_symmetry_space_group_name_H-M   'P -1'
_symmetry_Int_Tables_number      2
_space_group_name_Hall           '-P 1'
loop_
_symmetry_equiv_pos_site_id
_symmetry_equiv_pos_as_xyz
1 x,y,z
2 -x,-y,-z
_cell_length_a                   8.0047(8)
_cell_length_b                   10.0032(11)
_cell_length_c                   10.8476(11)
_cell_angle_alpha                98.810(2)
_cell_angle_beta                 103.431(2)
_cell_angle_gamma                101.424(2)
_cell_volume                     809.831
_exptl_crystal_colour            yellow
_exptl_crystal_description       block
_cell_formula_units_Z            2
loop_
_atom_site_label
_atom_site_type_symbol
_atom_site_fract_x
_atom_site_fract_y
_atom_site_fract_z
C1 C 0.0500(4) 1.0714(3) 0.7978(3)
C2 C -0.1129(4) 1.0548(4) 0.8281(3)
C3 C -0.1320(5) 1.1620(4) 0.9179(3)
H1 H -0.2389 1.1538 0.9394
C4 C 0.0003(6) 1.2783(4) 0.9751(3)
H2 H -0.0178 1.3497 1.0324
C5 C 0.1593(6) 1.2893(4) 0.9480(4)
H3 H 0.2505 1.3680 0.9894
C6 C 0.1891(5) 1.1868(4) 0.8606(3)
C7 C -0.2635(5) 0.9266(4) 0.7657(4)
H4 H -0.2169 0.8442 0.7643
H5 H -0.3472 0.9199 0.8177
C8 C -0.3569(7) 0.9300(6) 0.6322(5)
H6 H -0.4176 1.0036 0.6342
H7 H -0.4411 0.8424 0.5930
H8 H -0.2728 0.9460 0.5825
C9 C 0.3725(6) 1.1969(5) 0.8370(5)
H9 H 0.4621 1.2553 0.9125
H10 H 0.3952 1.1047 0.8252
C10 C 0.3849(10) 1.2511(7) 0.7307(9)
H11 H 0.3357 1.1786 0.6541
H12 H 0.5070 1.2905 0.7375
H13 H 0.3206 1.3225 0.7256
C11 C 0.1261(4) 0.8684(3) 0.7219(3)
H14 H 0.1510 0.8554 0.8067
C12 C 0.1525(4) 0.7664(3) 0.6210(3)
C13 C 0.2317(4) 0.6589(3) 0.6476(3)
C14 C 0.2591(4) 0.5652(3) 0.5518(3)
H15 H 0.3134 0.4944 0.5722
C15 C 0.2054(4) 0.5782(3) 0.4269(3)
C16 C 0.1251(4) 0.6811(3) 0.3946(3)
H16 H 0.0880 0.6880 0.3084
C17 C 0.1002(4) 0.7742(3) 0.4915(3)
H17 H 0.0465 0.8449 0.4698
Cl1 Cl 0.30531(17) 0.64123(12) 0.80655(9)
Cl2 Cl 0.23884(14) 0.45928(10) 0.30629(9)
N1 N 0.0710(3) 0.9726(3) 0.6976(2)
loop_
_geom_bond_atom_site_label_1
_geom_bond_atom_site_label_2
_geom_bond_site_symmetry_1
_geom_bond_site_symmetry_2
C1 C2 1_555 1_555
C2 C3 1_555 1_555
C3 H1 1_555 1_555
C4 C3 1_555 1_555
H2 C4 1_555 1_555
C5 C4 1_555 1_555
H3 C5 1_555 1_555
C6 C1 1_555 1_555
C7 C2 1_555 1_555
H4 C7 1_555 1_555
H5 C7 1_555 1_555
C8 C7 1_555 1_555
H6 C8 1_555 1_555
H7 C8 1_555 1_555
H8 C8 1_555 1_555
C9 C6 1_555 1_555
H9 C9 1_555 1_555
H10 C9 1_555 1_555
C10 C9 1_555 1_555
H11 C10 1_555 1_555
H12 C10 1_555 1_555
H13 C10 1_555 1_555
C11 H14 1_555 1_555
C12 C11 1_555 1_555
C13 C12 1_555 1_555
C14 C13 1_555 1_555
H15 C14 1_555 1_555
C15 C14 1_555 1_555
C16 C15 1_555 1_555
H16 C16 1_555 1_555
C17 C12 1_555 1_555
H17 C17 1_555 1_555
Cl1 C13 1_555 1_555
Cl2 C15 1_555 1_555
N1 C1 1_555 1_555
C5 C6 1_555 1_555
C11 N1 1_555 1_555
C16 C17 1_555 1_555

#END
