
#######################################################################
#
#                 Cambridge Crystallographic Data Centre
#                                CCDC 
#
#######################################################################
#
# If this CIF has been generated from an entry in the Cambridge 
# Structural Database, then it will include bibliographic, chemical, 
# crystal, experimental, refinement or atomic coordinate data resulting 
# from the CCDC's data processing and validation procedures.
#
#######################################################################

data_DIDNAI
_chemical_formula_moiety         'C20 H14 O2,C12 H8 N2'
_chemical_name_systematic        "[1,1'-binaphthalene]-2,2'-diol phenazine"
_symmetry_cell_setting           monoclinic
_symmetry_space_group_name_H-M   'P 21'
_symmetry_Int_Tables_number      4
_space_group_name_Hall           'P 2yb'
loop_
_symmetry_equiv_pos_site_id
_symmetry_equiv_pos_as_xyz
1 x,y,z
2 -x,1/2+y,-z
_cell_length_a                   10.7632(3)
_cell_length_b                   9.3311(3)
_cell_length_c                   11.3836(3)
_cell_angle_alpha                90
_cell_angle_beta                 93.3680(10)
_cell_angle_gamma                90
_cell_volume                     1141.31
_exptl_crystal_colour            yellow
_exptl_crystal_description       plate
_cell_formula_units_Z            2
loop_
_atom_site_label
_atom_site_type_symbol
_atom_site_fract_x
_atom_site_fract_y
_atom_site_fract_z
O1 O 0.85846(12) 0.52525(15) 0.37158(12)
H1 H 0.809(3) 0.483(3) 0.314(3)
O2 O 0.76586(13) 0.73296(15) 0.05182(12)
H2 H 0.815(3) 0.785(3) 0.102(3)
C1 C 0.83125(16) 0.66843(19) 0.37805(16)
C2 C 0.90365(17) 0.7480(2) 0.46284(17)
H3 H 0.9639 0.7007 0.5134
C3 C 0.88724(16) 0.8919(2) 0.47225(16)
H4 H 0.9383 0.9449 0.5275
C4 C 0.79462(16) 0.9641(2) 0.40043(16)
C5 C 0.77321(17) 1.1134(2) 0.41000(17)
H5 H 0.8255 1.1689 0.4625
C6 C 0.67825(18) 1.1788(2) 0.34475(18)
H6 H 0.6654 1.2791 0.3517
C7 C 0.59989(19) 1.0970(2) 0.26740(17)
H7 H 0.5332 1.1422 0.2233
C8 C 0.61900(17) 0.9534(2) 0.25535(16)
H8 H 0.5650 0.8997 0.2030
C9 C 0.71773(16) 0.8826(2) 0.31938(16)
C10 C 0.73936(16) 0.7324(2) 0.30687(15)
C11 C 0.67771(16) 0.65213(19) 0.10150(17)
C12 C 0.60117(17) 0.5707(2) 0.02065(16)
H9 H 0.6144 0.5755 -0.0610
C13 C 0.50892(16) 0.48586(19) 0.05919(17)
H10 H 0.4583 0.4325 0.0037
C14 C 0.48714(15) 0.47567(19) 0.18050(16)
C15 C 0.39193(16) 0.3868(2) 0.22244(18)
H11 H 0.3394 0.3345 0.1679
C16 C 0.37495(17) 0.3758(2) 0.33985(18)
H12 H 0.3119 0.3148 0.3669
C17 C 0.45136(16) 0.4553(2) 0.42114(17)
H13 H 0.4394 0.4472 0.5029
C18 C 0.54257(16) 0.5440(2) 0.38373(16)
H14 H 0.5917 0.5982 0.4398
C19 C 0.56446(16) 0.55606(19) 0.26257(16)
C20 C 0.66096(16) 0.64577(18) 0.22091(16)
N1 N 1.12539(16) 1.13397(19) 0.23177(15)
N2 N 0.94847(15) 0.92497(17) 0.14929(14)
C21 C 1.14507(18) 0.9930(2) 0.24837(17)
C22 C 1.2587(2) 0.9470(3) 0.30735(19)
H15 H 1.3183 1.0160 0.3352
C23 C 1.2820(2) 0.8056(3) 0.3238(2)
H16 H 1.3581 0.7761 0.3630
C24 C 1.1935(2) 0.7005(3) 0.28295(19)
H17 H 1.2114 0.6017 0.2951
C25 C 1.0838(2) 0.7402(2) 0.22673(18)
H18 H 1.0254 0.6691 0.2004
C26 C 1.05605(17) 0.8875(2) 0.20731(16)
C27 C 0.92969(17) 1.0659(2) 0.12972(16)
C28 C 0.82035(18) 1.1124(2) 0.06367(18)
H19 H 0.7612 1.0441 0.0337
C29 C 0.8008(2) 1.2542(2) 0.04359(19)
H20 H 0.7279 1.2842 -0.0006
C30 C 0.8877(2) 1.3584(2) 0.08757(19)
H21 H 0.8715 1.4571 0.0732
C31 C 0.9936(2) 1.3188(2) 0.14993(19)
H22 H 1.0511 1.3897 0.1785
C32 C 1.01858(17) 1.1708(2) 0.17273(17)
loop_
_geom_bond_atom_site_label_1
_geom_bond_atom_site_label_2
_geom_bond_site_symmetry_1
_geom_bond_site_symmetry_2
O1 H1 1_555 1_555
O2 H2 1_555 1_555
C1 O1 1_555 1_555
C2 C1 1_555 1_555
H3 C2 1_555 1_555
C3 C2 1_555 1_555
H4 C3 1_555 1_555
C4 C3 1_555 1_555
C5 C4 1_555 1_555
H5 C5 1_555 1_555
C6 C5 1_555 1_555
H6 C6 1_555 1_555
C7 C6 1_555 1_555
H7 C7 1_555 1_555
C8 C7 1_555 1_555
H8 C8 1_555 1_555
C9 C4 1_555 1_555
C10 C1 1_555 1_555
C11 O2 1_555 1_555
C12 C11 1_555 1_555
H9 C12 1_555 1_555
C13 C12 1_555 1_555
H10 C13 1_555 1_555
C14 C13 1_555 1_555
C15 C14 1_555 1_555
H11 C15 1_555 1_555
C16 C15 1_555 1_555
H12 C16 1_555 1_555
C17 C16 1_555 1_555
H13 C17 1_555 1_555
C18 C17 1_555 1_555
H14 C18 1_555 1_555
C19 C14 1_555 1_555
C20 C10 1_555 1_555
N1 C21 1_555 1_555
N2 C26 1_555 1_555
C21 C22 1_555 1_555
C22 H15 1_555 1_555
C23 C22 1_555 1_555
H16 C23 1_555 1_555
C24 C23 1_555 1_555
H17 C24 1_555 1_555
C25 C24 1_555 1_555
H18 C25 1_555 1_555
C26 C21 1_555 1_555
C27 N2 1_555 1_555
C28 C27 1_555 1_555
H19 C28 1_555 1_555
C29 C28 1_555 1_555
H20 C29 1_555 1_555
C30 C29 1_555 1_555
H21 C30 1_555 1_555
C31 C30 1_555 1_555
H22 C31 1_555 1_555
C32 N1 1_555 1_555
C8 C9 1_555 1_555
C9 C10 1_555 1_555
C11 C20 1_555 1_555
C18 C19 1_555 1_555
C19 C20 1_555 1_555
C25 C26 1_555 1_555
C27 C32 1_555 1_555
C31 C32 1_555 1_555

#END
