
#######################################################################
#
#                 Cambridge Crystallographic Data Centre
#                                CCDC 
#
#######################################################################
#
# If this CIF has been generated from an entry in the Cambridge 
# Structural Database, then it will include bibliographic, chemical, 
# crystal, experimental, refinement or atomic coordinate data resulting 
# from the CCDC's data processing and validation procedures.
#
#######################################################################

data_DIDYUN
_chemical_formula_moiety         'C19 H19 Cl1 O2'
_chemical_name_systematic        '2-(3-chlorophenyl)-3-phenylhept-2-enoic acid'
_symmetry_cell_setting           triclinic
_symmetry_space_group_name_H-M   'P -1'
_symmetry_Int_Tables_number      2
_space_group_name_Hall           '-P 1'
loop_
_symmetry_equiv_pos_site_id
_symmetry_equiv_pos_as_xyz
1 x,y,z
2 -x,-y,-z
_cell_length_a                   5.3979(7)
_cell_length_b                   9.1045(12)
_cell_length_c                   17.490(2)
_cell_angle_alpha                83.697(4)
_cell_angle_beta                 86.172(4)
_cell_angle_gamma                89.199(5)
_cell_volume                     852.428
_exptl_crystal_colour            colorless
_exptl_crystal_description       block
_cell_formula_units_Z            2
loop_
_atom_site_label
_atom_site_type_symbol
_atom_site_fract_x
_atom_site_fract_y
_atom_site_fract_z
Cl1 Cl 0.57073(17) 0.90326(9) 0.58860(4)
O1 O 0.5836(3) 0.57996(18) 0.91380(9)
O2 O 0.3081(3) 0.39935(18) 0.94174(9)
H1 H 0.3445 0.4080 0.9870
C1 C 0.4171(4) 0.4771(2) 0.80975(12)
C2 C 0.4688(4) 0.3510(2) 0.77872(12)
C3 C 0.5606(4) 0.2173(2) 0.82574(12)
C4 C 0.7704(4) 0.2224(3) 0.86750(13)
H2 H 0.8613 0.3116 0.8648
C5 C 0.8469(5) 0.0985(3) 0.91278(15)
H3 H 0.9895 0.1032 0.9414
C6 C 0.7176(5) -0.0323(3) 0.91681(16)
H4 H 0.7700 -0.1170 0.9485
C7 C 0.5126(5) -0.0392(3) 0.87472(15)
H5 H 0.4237 -0.1291 0.8770
C8 C 0.4357(4) 0.0841(3) 0.82913(14)
H6 H 0.2954 0.0779 0.7996
C9 C 0.3325(4) 0.6179(2) 0.76695(12)
C10 C 0.4749(4) 0.6866(2) 0.70405(12)
H7 H 0.6282 0.6442 0.6874
C11 C 0.3907(5) 0.8174(3) 0.66597(13)
C12 C 0.1700(5) 0.8809(3) 0.68796(16)
H8 H 0.1141 0.9696 0.6605
C13 C 0.0312(5) 0.8145(3) 0.75012(17)
H9 H -0.1219 0.8579 0.7662
C14 C 0.1120(4) 0.6840(3) 0.79002(14)
H10 H 0.0148 0.6399 0.8336
C15 C 0.4468(4) 0.3356(3) 0.69427(12)
H11 H 0.3648 0.4251 0.6699
H12 H 0.3406 0.2498 0.6894
C16 C 0.6991(5) 0.3148(3) 0.65151(13)
H13 H 0.8129 0.3930 0.6625
H14 H 0.7704 0.2183 0.6711
C17 C 0.6827(5) 0.3204(3) 0.56537(14)
H15 H 0.6250 0.4201 0.5453
H16 H 0.5574 0.2483 0.5547
C18 C 0.9265(6) 0.2871(4) 0.52283(19)
H17 H 0.9085 0.3036 0.4672
H18 H 0.9735 0.1838 0.5371
H19 H 1.0555 0.3521 0.5367
C19 C 0.4444(4) 0.4882(2) 0.89360(12)
loop_
_geom_bond_atom_site_label_1
_geom_bond_atom_site_label_2
_geom_bond_site_symmetry_1
_geom_bond_site_symmetry_2
Cl1 C11 1_555 1_555
O1 C19 1_555 1_555
O2 H1 1_555 1_555
C1 C2 1_555 1_555
C2 C3 1_555 1_555
C3 C4 1_555 1_555
C4 H2 1_555 1_555
C5 C4 1_555 1_555
H3 C5 1_555 1_555
C6 C5 1_555 1_555
H4 C6 1_555 1_555
C7 C6 1_555 1_555
H5 C7 1_555 1_555
C8 C3 1_555 1_555
H6 C8 1_555 1_555
C9 C1 1_555 1_555
C10 C9 1_555 1_555
H7 C10 1_555 1_555
C11 C10 1_555 1_555
C12 C11 1_555 1_555
H8 C12 1_555 1_555
C13 C12 1_555 1_555
H9 C13 1_555 1_555
C14 C9 1_555 1_555
H10 C14 1_555 1_555
C15 C2 1_555 1_555
H11 C15 1_555 1_555
H12 C15 1_555 1_555
C16 C15 1_555 1_555
H13 C16 1_555 1_555
H14 C16 1_555 1_555
C17 C16 1_555 1_555
H15 C17 1_555 1_555
H16 C17 1_555 1_555
C18 C17 1_555 1_555
H17 C18 1_555 1_555
H18 C18 1_555 1_555
H19 C18 1_555 1_555
C19 O2 1_555 1_555
C1 C19 1_555 1_555
C7 C8 1_555 1_555
C13 C14 1_555 1_555

#END
