
#######################################################################
#
#                 Cambridge Crystallographic Data Centre
#                                CCDC 
#
#######################################################################
#
# If this CIF has been generated from an entry in the Cambridge 
# Structural Database, then it will include bibliographic, chemical, 
# crystal, experimental, refinement or atomic coordinate data resulting 
# from the CCDC's data processing and validation procedures.
#
#######################################################################

data_DIFDAA
_chemical_formula_moiety         'C24 H48 Li1 P2 Si4 1-,C16 H32 Li1 O4 1+'
_chemical_name_systematic        
'tetrakis(tetrahydrofuran)-lithium bis(3,4-dimethyl-2,5-bis(trimethylsilyl)-1-phosphacyclopentadienyl)-lithium'
_symmetry_cell_setting           triclinic
_symmetry_space_group_name_H-M   'P -1'
_symmetry_Int_Tables_number      2
_space_group_name_Hall           '-P 1'
loop_
_symmetry_equiv_pos_site_id
_symmetry_equiv_pos_as_xyz
1 x,y,z
2 -x,-y,-z
_cell_length_a                   11.4207(5)
_cell_length_b                   12.5992(6)
_cell_length_c                   18.2134(7)
_cell_angle_alpha                91.198(4)
_cell_angle_beta                 97.442(3)
_cell_angle_gamma                98.816(4)
_cell_volume                     2565.76
_exptl_crystal_colour            'metallic yellow'
_exptl_crystal_description       block
_cell_formula_units_Z            2
loop_
_atom_site_label
_atom_site_type_symbol
_atom_site_fract_x
_atom_site_fract_y
_atom_site_fract_z
P1 P 0.57802(8) 0.15806(8) 0.22579(6)
P2 P 0.75773(9) 0.52641(9) 0.22003(6)
Si1 Si 0.39452(9) 0.29882(11) 0.15121(7)
Si2 Si 0.70558(9) 0.06105(9) 0.36544(7)
Si3 Si 0.74429(11) 0.62683(10) 0.37580(7)
Si4 Si 0.86652(10) 0.38128(11) 0.11266(6)
C1 C 0.4899(3) 0.2598(3) 0.2326(2)
C2 C 0.4941(3) 0.2935(3) 0.3081(2)
C3 C 0.5670(3) 0.2403(3) 0.3575(2)
C4 C 0.6224(3) 0.1635(3) 0.3223(2)
C5 C 0.7884(3) 0.5223(3) 0.3173(2)
C6 C 0.8644(3) 0.4453(3) 0.3370(2)
C7 C 0.8931(3) 0.3901(3) 0.2755(2)
C8 C 0.8415(3) 0.4228(3) 0.2065(2)
C9 C 0.4239(4) 0.3781(4) 0.3322(3)
H1 H 0.4157 0.3714 0.3838
H2 H 0.3462 0.3681 0.3035
H3 H 0.4656 0.4484 0.3247
C10 C 0.5849(4) 0.2611(4) 0.4408(2)
H4 H 0.6244 0.2063 0.4644
H5 H 0.5086 0.2600 0.4578
H6 H 0.6330 0.3302 0.4530
C11 C 0.9095(4) 0.4259(4) 0.4163(2)
H7 H 0.9118 0.4898 0.4464
H8 H 0.9885 0.4075 0.4192
H9 H 0.8569 0.3679 0.4339
C12 C 0.9708(4) 0.3017(4) 0.2825(2)
H10 H 1.0205 0.3101 0.3296
H11 H 1.0203 0.3064 0.2435
H12 H 0.9207 0.2327 0.2787
C13 C 0.4000(5) 0.4467(4) 0.1430(3)
H13 H 0.3629 0.4745 0.1821
H14 H 0.3581 0.4608 0.0959
H15 H 0.4817 0.4809 0.1468
C14 C 0.2353(4) 0.2355(5) 0.1548(3)
H16 H 0.2307 0.1588 0.1565
H17 H 0.1856 0.2529 0.1115
H18 H 0.2083 0.2623 0.1984
C15 C 0.4412(4) 0.2436(5) 0.0657(3)
H19 H 0.5240 0.2708 0.0638
H20 H 0.3935 0.2651 0.0229
H21 H 0.4302 0.1666 0.0664
C16 C 0.8374(4) 0.1142(4) 0.4356(3)
H22 H 0.8934 0.1631 0.4127
H23 H 0.8752 0.0555 0.4546
H24 H 0.8112 0.1512 0.4756
C17 C 0.6029(4) -0.0375(4) 0.4125(3)
H25 H 0.5764 -0.0014 0.4528
H26 H 0.6447 -0.0939 0.4313
H27 H 0.5351 -0.0676 0.3776
C18 C 0.7616(4) -0.0133(4) 0.2914(3)
H28 H 0.6951 -0.0498 0.2579
H29 H 0.8077 -0.0650 0.3133
H30 H 0.8110 0.0364 0.2647
C19 C 0.8768(5) 0.7348(4) 0.4048(3)
H31 H 0.9385 0.7043 0.4340
H32 H 0.8528 0.7904 0.4337
H33 H 0.9066 0.7648 0.3616
C20 C 0.6863(6) 0.5790(5) 0.4631(3)
H34 H 0.6214 0.5206 0.4512
H35 H 0.6585 0.6369 0.4873
H36 H 0.7492 0.5549 0.4955
C21 C 0.6252(4) 0.6885(4) 0.3199(3)
H37 H 0.6575 0.7250 0.2795
H38 H 0.5967 0.7390 0.3507
H39 H 0.5602 0.6333 0.3008
C22 C 1.0213(4) 0.4373(4) 0.0960(3)
H40 H 1.0277 0.5137 0.0912
H41 H 1.0384 0.4048 0.0513
H42 H 1.0774 0.4223 0.1370
C23 C 0.7613(5) 0.4380(5) 0.0424(3)
H43 H 0.6804 0.4125 0.0502
H44 H 0.7730 0.4156 -0.0065
H45 H 0.7764 0.5151 0.0474
C24 C 0.8455(5) 0.2324(4) 0.0956(3)
H46 H 0.9090 0.2038 0.1244
H47 H 0.8465 0.2164 0.0439
H48 H 0.7701 0.2006 0.1096
Li1 Li 0.6863(5) 0.3443(5) 0.2740(4)
O1 O 1.0194(3) -0.1468(3) 0.1548(2)
O2 O 1.1596(3) -0.2629(2) 0.28669(18)
O3 O 1.2963(3) -0.1530(3) 0.1657(2)
O4 O 1.1922(2) -0.0148(3) 0.2805(2)
C25 C 0.9838(7) -0.0620(7) 0.1108(5)
H49 H 0.9863 0.0018 0.1421
H50 H 1.0385 -0.0446 0.0747
C26 C 0.8656(7) -0.0947(7) 0.0738(5)
H51 H 0.8134 -0.0454 0.0866
H52 H 0.8654 -0.0962 0.0205
C27 C 0.8270(7) -0.1982(7) 0.0974(5)
H53 H 0.8033 -0.2487 0.0553
H54 H 0.7592 -0.1978 0.1245
C28 C 0.9257(6) -0.2274(6) 0.1442(5)
H55 H 0.9011 -0.2471 0.1917
H56 H 0.9502 -0.2898 0.1221
C29 C 1.1123(5) -0.3730(4) 0.2677(4)
H57 H 1.1154 -0.3891 0.2157
H58 H 1.0300 -0.3892 0.2772
C30 C 1.1887(6) -0.4360(5) 0.3151(5)
H59 H 1.1400 -0.4964 0.3342
H60 H 1.2448 -0.4634 0.2869
C31 C 1.2481(9) -0.3690(7) 0.3716(5)
H61 H 1.3321 -0.3764 0.3782
H62 H 1.2161 -0.3880 0.4172
C32 C 1.2354(7) -0.2577(5) 0.3554(3)
H63 H 1.1999 -0.2253 0.3942
H64 H 1.3127 -0.2154 0.3517
C33 C 1.3746(8) -0.2283(8) 0.1717(6)
H65 H 1.3310 -0.2992 0.1563
H66 H 1.4100 -0.2304 0.2229
C34 C 1.4659(7) -0.2001(11) 0.1264(5)
H67 H 1.4666 -0.2586 0.0911
H68 H 1.5434 -0.1856 0.1567
C35 C 1.4414(9) -0.1059(7) 0.0882(5)
H69 H 1.4260 -0.1212 0.0352
H70 H 1.5089 -0.0483 0.0987
C36 C 1.3368(7) -0.0757(5) 0.1152(4)
H71 H 1.3567 -0.0050 0.1399
H72 H 1.2743 -0.0731 0.0741
C37 C 1.3038(4) 0.0394(5) 0.3159(3)
H73 H 1.3369 0.0951 0.2851
H74 H 1.3601 -0.0106 0.3255
C38 C 1.2805(7) 0.0856(7) 0.3843(5)
H75 H 1.3074 0.0430 0.4250
H76 H 1.3254 0.1577 0.3923
C39 C 1.1603(7) 0.0900(7) 0.3838(5)
H77 H 1.1446 0.1632 0.3791
H78 H 1.1328 0.0621 0.4289
C40 C 1.0998(5) 0.0204(6) 0.3171(5)
H79 H 1.0477 -0.0411 0.3324
H80 H 1.0520 0.0610 0.2839
Li2 Li 1.1653(6) -0.1451(7) 0.2215(5)
loop_
_geom_bond_atom_site_label_1
_geom_bond_atom_site_label_2
_geom_bond_site_symmetry_1
_geom_bond_site_symmetry_2
P1 C1 1_555 1_555
P2 C5 1_555 1_555
Si1 C1 1_555 1_555
Si2 C4 1_555 1_555
Si3 C5 1_555 1_555
Si4 C8 1_555 1_555
C1 C2 1_555 1_555
C2 C3 1_555 1_555
C3 C4 1_555 1_555
C4 P1 1_555 1_555
C5 C6 1_555 1_555
C6 C7 1_555 1_555
C7 C8 1_555 1_555
C8 P2 1_555 1_555
C9 C2 1_555 1_555
H1 C9 1_555 1_555
H2 C9 1_555 1_555
H3 C9 1_555 1_555
C10 C3 1_555 1_555
H4 C10 1_555 1_555
H5 C10 1_555 1_555
H6 C10 1_555 1_555
C11 C6 1_555 1_555
H7 C11 1_555 1_555
H8 C11 1_555 1_555
H9 C11 1_555 1_555
C12 C7 1_555 1_555
H10 C12 1_555 1_555
H11 C12 1_555 1_555
H12 C12 1_555 1_555
C13 Si1 1_555 1_555
H13 C13 1_555 1_555
H14 C13 1_555 1_555
H15 C13 1_555 1_555
C14 Si1 1_555 1_555
H16 C14 1_555 1_555
H17 C14 1_555 1_555
H18 C14 1_555 1_555
C15 Si1 1_555 1_555
H19 C15 1_555 1_555
H20 C15 1_555 1_555
H21 C15 1_555 1_555
C16 Si2 1_555 1_555
H22 C16 1_555 1_555
H23 C16 1_555 1_555
H24 C16 1_555 1_555
C17 Si2 1_555 1_555
H25 C17 1_555 1_555
H26 C17 1_555 1_555
H27 C17 1_555 1_555
C18 Si2 1_555 1_555
H28 C18 1_555 1_555
H29 C18 1_555 1_555
H30 C18 1_555 1_555
C19 Si3 1_555 1_555
H31 C19 1_555 1_555
H32 C19 1_555 1_555
H33 C19 1_555 1_555
C20 Si3 1_555 1_555
H34 C20 1_555 1_555
H35 C20 1_555 1_555
H36 C20 1_555 1_555
C21 Si3 1_555 1_555
H37 C21 1_555 1_555
H38 C21 1_555 1_555
H39 C21 1_555 1_555
C22 Si4 1_555 1_555
H40 C22 1_555 1_555
H41 C22 1_555 1_555
H42 C22 1_555 1_555
C23 Si4 1_555 1_555
H43 C23 1_555 1_555
H44 C23 1_555 1_555
H45 C23 1_555 1_555
C24 Si4 1_555 1_555
H46 C24 1_555 1_555
H47 C24 1_555 1_555
H48 C24 1_555 1_555
Li1 P1 1_555 1_555
O1 C25 1_555 1_555
O2 C29 1_555 1_555
O3 C33 1_555 1_555
O4 C37 1_555 1_555
C25 H49 1_555 1_555
H50 C25 1_555 1_555
C26 C25 1_555 1_555
H51 C26 1_555 1_555
H52 C26 1_555 1_555
C27 C26 1_555 1_555
H53 C27 1_555 1_555
H54 C27 1_555 1_555
C28 O1 1_555 1_555
H55 C28 1_555 1_555
H56 C28 1_555 1_555
C29 H57 1_555 1_555
H58 C29 1_555 1_555
C30 C29 1_555 1_555
H59 C30 1_555 1_555
H60 C30 1_555 1_555
C31 C30 1_555 1_555
H61 C31 1_555 1_555
H62 C31 1_555 1_555
C32 O2 1_555 1_555
H63 C32 1_555 1_555
H64 C32 1_555 1_555
C33 H65 1_555 1_555
H66 C33 1_555 1_555
C34 C33 1_555 1_555
H67 C34 1_555 1_555
H68 C34 1_555 1_555
C35 C34 1_555 1_555
H69 C35 1_555 1_555
H70 C35 1_555 1_555
C36 O3 1_555 1_555
H71 C36 1_555 1_555
H72 C36 1_555 1_555
C37 H73 1_555 1_555
H74 C37 1_555 1_555
C38 C37 1_555 1_555
H75 C38 1_555 1_555
H76 C38 1_555 1_555
C39 C38 1_555 1_555
H77 C39 1_555 1_555
H78 C39 1_555 1_555
C40 O4 1_555 1_555
H79 C40 1_555 1_555
H80 C40 1_555 1_555
Li2 O1 1_555 1_555
P2 Li1 1_555 1_555
C1 Li1 1_555 1_555
C2 Li1 1_555 1_555
C3 Li1 1_555 1_555
C4 Li1 1_555 1_555
C5 Li1 1_555 1_555
C6 Li1 1_555 1_555
C7 Li1 1_555 1_555
C8 Li1 1_555 1_555
O2 Li2 1_555 1_555
O3 Li2 1_555 1_555
O4 Li2 1_555 1_555
C27 C28 1_555 1_555
C31 C32 1_555 1_555
C35 C36 1_555 1_555
C39 C40 1_555 1_555

#END
