
#######################################################################
#
#                 Cambridge Crystallographic Data Centre
#                                CCDC 
#
#######################################################################
#
# If this CIF has been generated from an entry in the Cambridge 
# Structural Database, then it will include bibliographic, chemical, 
# crystal, experimental, refinement or atomic coordinate data resulting 
# from the CCDC's data processing and validation procedures.
#
#######################################################################

data_DIFHAD
_chemical_name_common            
'Calix[5]imidazolium hydronium pentabromide fluoride'
_chemical_formula_moiety         'C20 H25 N10 5+,H5 O2 1+,5(Br1 1-),F1 1-'
_chemical_name_systematic        
'16,23-Diaza-1,3,6,8,11,13,18,21-octaazoniahexacyclo[21.2.1.1^3,6^.1^8,11^.1^13,16^.1^18,21^]triaconta-1(26),4,6(30),8(29),9,13(28),14,18(27),19,24-decaene hydronium pentabromide fluoride'
_symmetry_cell_setting           orthorhombic
_symmetry_space_group_name_H-M   'P n m a'
_symmetry_Int_Tables_number      62
_space_group_name_Hall           '-P 2ac 2n'
loop_
_symmetry_equiv_pos_site_id
_symmetry_equiv_pos_as_xyz
1 x,y,z
2 1/2-x,-y,1/2+z
3 -x,1/2+y,-z
4 1/2+x,1/2-y,1/2-z
5 -x,-y,-z
6 1/2+x,y,1/2-z
7 x,1/2-y,z
8 1/2-x,1/2+y,1/2+z
_cell_length_a                   9.6652(9)
_cell_length_b                   20.0690(18)
_cell_length_c                   15.7744(15)
_cell_angle_alpha                90
_cell_angle_beta                 90
_cell_angle_gamma                90
_cell_volume                     3059.77
_exptl_crystal_colour            colorless
_exptl_crystal_description       needle
_cell_formula_units_Z            4
loop_
_atom_site_label
_atom_site_type_symbol
_atom_site_fract_x
_atom_site_fract_y
_atom_site_fract_z
Br1 Br 0.24791(17) 0.7500 0.06253(10)
Br2 Br 0.39751(12) 0.46592(6) 0.26090(8)
Br3 Br 0.17851(13) 0.39928(7) 0.00838(9)
C1 C -0.0643(13) 0.7500 0.2440(9)
H1 H -0.1079 0.7500 0.3008
H2 H -0.1389 0.7500 0.2010
C2 C 0.0249(10) 0.6532(5) 0.1639(6)
H3 H -0.0238 0.6627 0.1129
C3 C 0.1054(11) 0.6610(6) 0.2951(7)
H4 H 0.1216 0.6770 0.3509
C4 C 0.1602(11) 0.6055(5) 0.2584(8)
H5 H 0.2226 0.5751 0.2843
C5 C 0.1350(10) 0.5482(5) 0.1166(6)
H6 H 0.0481 0.5370 0.0867
H7 H 0.1666 0.5079 0.1473
C6 C 0.2157(12) 0.5911(6) -0.0221(8)
H8 H 0.1267 0.5978 -0.0462
C7 C 0.3830(12) 0.5640(5) 0.0667(9)
H9 H 0.4323 0.5487 0.1150
C8 C 0.4348(14) 0.5873(5) -0.0076(10)
H10 H 0.5308 0.5913 -0.0197
C9 C 0.3552(13) 0.6333(7) -0.1484(8)
H11 H 0.4239 0.6068 -0.1806
H12 H 0.2665 0.6323 -0.1798
C10 C 0.5449(14) 0.7164(5) -0.1364(7)
H13 H 0.6223 0.6873 -0.1342
C11 C 0.322(2) 0.7500 -0.1436(12)
H14 H 0.2243 0.7500 -0.1474
N1 N 0.0214(8) 0.6892(4) 0.2341(6)
N2 N 0.1089(8) 0.6012(4) 0.1769(6)
N3 N 0.2395(9) 0.5677(4) 0.0551(6)
N4 N 0.3358(11) 0.6037(5) -0.0608(8)
N5 N 0.4013(12) 0.6991(6) -0.1407(7)
C2F C 0.0249(10) 0.8468(5) 0.1639(6)
H3F H -0.0238 0.8373 0.1129
C3F C 0.1054(11) 0.8390(6) 0.2951(7)
H4F H 0.1216 0.8230 0.3509
C4F C 0.1602(11) 0.8945(5) 0.2584(8)
H5F H 0.2226 0.9249 0.2843
C5F C 0.1350(10) 0.9518(5) 0.1166(6)
H6F H 0.0481 0.9630 0.0867
H7F H 0.1666 0.9921 0.1473
C6F C 0.2157(12) 0.9089(6) -0.0221(8)
H8F H 0.1267 0.9022 -0.0462
C7F C 0.3830(12) 0.9360(5) 0.0667(9)
H9F H 0.4323 0.9513 0.1150
C8F C 0.4348(14) 0.9127(5) -0.0076(10)
H10F H 0.5308 0.9087 -0.0197
C9F C 0.3552(13) 0.8667(7) -0.1484(8)
H11F H 0.4239 0.8932 -0.1806
H12F H 0.2665 0.8677 -0.1798
C10F C 0.5449(14) 0.7836(5) -0.1364(7)
H13F H 0.6223 0.8127 -0.1342
N1F N 0.0214(8) 0.8108(4) 0.2341(6)
N2F N 0.1089(8) 0.8988(4) 0.1769(6)
N3F N 0.2395(9) 0.9323(4) 0.0551(6)
N4F N 0.3358(11) 0.8963(5) -0.0608(8)
N5F N 0.4013(12) 0.8009(6) -0.1407(7)
F1 F 0.2300(10) 0.2500 0.9377(6)
O1 O 0.476(2) 0.6871(7) 0.6592(8)
H15 H 0.4798 0.7500 0.6597
H16 H 0.4563 0.6550 0.6150
H17 H 0.5250 0.6550 0.6981
O1F O 0.476(2) 0.8129(7) 0.6592(8)
H16F H 0.4563 0.8450 0.6150
H17F H 0.5250 0.8450 0.6981
loop_
_geom_bond_atom_site_label_1
_geom_bond_atom_site_label_2
_geom_bond_site_symmetry_1
_geom_bond_site_symmetry_2
C1 H1 1_555 1_555
H2 C1 1_555 1_555
C2 H3 1_555 1_555
C3 H4 1_555 1_555
C4 C3 1_555 1_555
H5 C4 1_555 1_555
C5 H6 1_555 1_555
H7 C5 1_555 1_555
C6 H8 1_555 1_555
C7 H9 1_555 1_555
C8 C7 1_555 1_555
H10 C8 1_555 1_555
C9 H11 1_555 1_555
H12 C9 1_555 1_555
C10 H13 1_555 1_555
C11 H14 1_555 1_555
N1 C1 1_555 1_555
N2 C2 1_555 1_555
N3 C5 1_555 1_555
N4 C6 1_555 1_555
N5 C9 1_555 1_555
O1 H15 1_555 1_555
H15 O1F 1_555 1_555
H16 O1 1_555 1_555
H17 O1 1_555 1_555
C2F H3F 1_555 1_555
C3F H4F 1_555 1_555
C4F C3F 1_555 1_555
H5F C4F 1_555 1_555
C5F H6F 1_555 1_555
H7F C5F 1_555 1_555
C6F H8F 1_555 1_555
C7F H9F 1_555 1_555
C8F C7F 1_555 1_555
H10F C8F 1_555 1_555
C9F H11F 1_555 1_555
H12F C9F 1_555 1_555
C10F C10 1_555 1_555
H13F C10F 1_555 1_555
N1F C1 1_555 1_555
N2F C2F 1_555 1_555
N3F C5F 1_555 1_555
N4F C6F 1_555 1_555
N5F C11 1_555 1_555
O1F H16F 1_555 1_555
H17F O1F 1_555 1_555
C2 N1 1_555 1_555
C3 N1 1_555 1_555
C4 N2 1_555 1_555
C5 N2 1_555 1_555
C6 N3 1_555 1_555
C7 N3 1_555 1_555
C8 N4 1_555 1_555
C9 N4 1_555 1_555
C10 N5 1_555 1_555
C11 N5 1_555 1_555
C2F N1F 1_555 1_555
C3F N1F 1_555 1_555
C4F N2F 1_555 1_555
C5F N2F 1_555 1_555
C6F N3F 1_555 1_555
C7F N3F 1_555 1_555
C8F N4F 1_555 1_555
C9F N4F 1_555 1_555
C9F N5F 1_555 1_555
C10F N5F 1_555 1_555

#END
