
#######################################################################
#
#                 Cambridge Crystallographic Data Centre
#                                CCDC 
#
#######################################################################
#
# If this CIF has been generated from an entry in the Cambridge 
# Structural Database, then it will include bibliographic, chemical, 
# crystal, experimental, refinement or atomic coordinate data resulting 
# from the CCDC's data processing and validation procedures.
#
#######################################################################

data_DIFJUA
_chemical_formula_moiety         'C28 H26 Cl1 N3 O4 S1'
_chemical_name_systematic        
N-{1-[5-(2-chloropyridin-4-yl)-2-methylphenyl]-3-(2-methylphenyl)propan-2-yl}-4-nitrobenzene-1-sulfonamide
_symmetry_cell_setting           orthorhombic
_symmetry_space_group_name_H-M   'P 21 21 21'
_symmetry_Int_Tables_number      19
_space_group_name_Hall           'P 2ac 2ab'
loop_
_symmetry_equiv_pos_site_id
_symmetry_equiv_pos_as_xyz
1 x,y,z
2 1/2-x,-y,1/2+z
3 -x,1/2+y,1/2-z
4 1/2+x,1/2-y,-z
_cell_length_a                   7.5065(6)
_cell_length_b                   17.3919(13)
_cell_length_c                   20.3819(11)
_cell_angle_alpha                90
_cell_angle_beta                 90
_cell_angle_gamma                90
_cell_volume                     2660.9
_exptl_crystal_colour            colorless
_exptl_crystal_description       block
_cell_formula_units_Z            4
loop_
_atom_site_label
_atom_site_type_symbol
_atom_site_fract_x
_atom_site_fract_y
_atom_site_fract_z
S1 S 0.62104(17) 0.66597(7) 0.51353(6)
Cl1 Cl 0.1438(2) 0.89206(9) 0.89668(6)
O1 O 0.6323(5) 0.7431(2) 0.48760(16)
O2 O 0.7231(5) 0.6058(2) 0.48466(17)
N1 N 0.4163(5) 0.6432(2) 0.51045(17)
H1 H 0.355306 0.673556 0.536695
N2 N 0.1660(6) 0.9226(3) 0.7722(2)
C1 C 0.3484(6) 0.5638(2) 0.51686(19)
H2 H 0.445294 0.530929 0.535505
C2 C 0.3026(7) 0.5340(3) 0.4478(2)
H3 H 0.228212 0.572821 0.425195
H4 H 0.414384 0.528377 0.422425
C3 C 0.2046(10) 0.4575(4) 0.4472(6)
C4 C 0.0249(10) 0.4548(5) 0.4309(6)
H5 H -0.038521 0.501016 0.422538
C5 C -0.0621(10) 0.3844(7) 0.4269(5)
H6 H -0.184885 0.382489 0.415770
C6 C 0.0307(15) 0.3167(5) 0.4392(6)
H7 H -0.028730 0.268584 0.436417
C7 C 0.2104(15) 0.3194(4) 0.4555(6)
H8 H 0.273791 0.273205 0.463833
C8 C 0.2973(10) 0.3899(4) 0.4595(5)
C9 C 0.2198(6) 0.7674(3) 0.7348(2)
C10 C 0.2347(6) 0.5844(3) 0.6334(2)
C11 C 0.1900(6) 0.5619(3) 0.56362(19)
H9 H 0.096922 0.597085 0.546841
H10 H 0.139546 0.509275 0.563786
C12 C 0.2487(6) 0.6858(3) 0.7163(2)
C13 C 0.2086(6) 0.6601(3) 0.65281(19)
H11 H 0.161993 0.695774 0.621972
C14 C 0.3150(7) 0.6318(3) 0.7608(2)
H12 H 0.342136 0.646975 0.804453
C15 C 0.1725(7) 0.8661(3) 0.8143(2)
C16 C 0.3370(8) 0.4477(3) 0.6609(2)
H13 H 0.224118 0.422958 0.649319
H14 H 0.390308 0.421042 0.698473
H15 H 0.418622 0.445352 0.623467
C17 C 0.1979(7) 0.7895(3) 0.8000(2)
H16 H 0.200495 0.752254 0.834100
C18 C 0.3031(6) 0.5312(3) 0.6789(2)
C19 C 0.3412(7) 0.5569(3) 0.7418(2)
H17 H 0.387116 0.521341 0.772923
C20 C 0.2160(8) 0.8267(3) 0.6887(2)
H18 H 0.231383 0.815651 0.643368
C21 C 0.1899(9) 0.9015(3) 0.7091(3)
H19 H 0.188558 0.940683 0.676623
C22 C 0.7872(5) 0.6114(2) 0.69479(17)
H20 H 0.828638 0.566960 0.717243
C23 C 0.7441(4) 0.60704(16) 0.62857(16)
H21 H 0.756013 0.559679 0.605768
C24 C 0.6835(4) 0.67201(19) 0.59572(11)
C25 C 0.6660(5) 0.74131(16) 0.62908(15)
H22 H 0.624636 0.785712 0.606627
C26 C 0.7092(5) 0.7456(2) 0.69530(15)
H23 H 0.697261 0.792994 0.718102
C27 C 0.7698(5) 0.6807(3) 0.72815(11)
C28 C 0.4918(15) 0.3891(6) 0.4751(5)
H24 H 0.546852 0.436556 0.458950
H25 H 0.547945 0.344738 0.453819
H26 H 0.508078 0.385472 0.522676
N3 N 0.8156(9) 0.6835(6) 0.7967(3)
O3 O 0.8777(8) 0.6281(5) 0.8223(2)
O4 O 0.7776(10) 0.7446(5) 0.8257(3)
H27? H 0.199472 0.563614 0.431132
H28? H 0.404730 0.545033 0.418513
C29? C 0.258(3) 0.4484(11) 0.4422(13)
C30? C 0.387(3) 0.3939(11) 0.4567(11)
H29? H 0.505060 0.410226 0.466110
C31? C 0.350(4) 0.3203(11) 0.4579(9)
H30? H 0.441397 0.283283 0.464125
C32? C 0.173(4) 0.2977(13) 0.4498(16)
H31? H 0.145451 0.244516 0.452731
C33? C 0.038(4) 0.3483(12) 0.4379(16)
H32? H -0.080846 0.331249 0.431630
C34? C 0.083(3) 0.4280(12) 0.4353(14)
C35? C -0.056(3) 0.4804(12) 0.4180(13)
H33? H -0.103188 0.504772 0.457727
H34? H -0.152080 0.452381 0.395741
H35? H -0.008887 0.520025 0.388521
loop_
_geom_bond_atom_site_label_1
_geom_bond_atom_site_label_2
_geom_bond_site_symmetry_1
_geom_bond_site_symmetry_2
S1 O1 1_555 1_555
Cl1 C15 1_555 1_555
O2 S1 1_555 1_555
N1 S1 1_555 1_555
H1 N1 1_555 1_555
N2 C15 1_555 1_555
C1 N1 1_555 1_555
H2 C1 1_555 1_555
C2 C1 1_555 1_555
H3 C2 1_555 1_555
H4 C2 1_555 1_555
C3 C2 1_555 1_555
C4 C3 1_555 1_555
H5 C4 1_555 1_555
C5 C4 1_555 1_555
H6 C5 1_555 1_555
C6 C5 1_555 1_555
H7 C6 1_555 1_555
C7 C6 1_555 1_555
H8 C7 1_555 1_555
C8 C3 1_555 1_555
C9 C12 1_555 1_555
C10 C11 1_555 1_555
C11 C1 1_555 1_555
H9 C11 1_555 1_555
H10 C11 1_555 1_555
C12 C13 1_555 1_555
C13 C10 1_555 1_555
H11 C13 1_555 1_555
C14 C12 1_555 1_555
H12 C14 1_555 1_555
C15 C17 1_555 1_555
C16 H13 1_555 1_555
H14 C16 1_555 1_555
H15 C16 1_555 1_555
C17 C9 1_555 1_555
H16 C17 1_555 1_555
C18 C10 1_555 1_555
C19 C14 1_555 1_555
H17 C19 1_555 1_555
C20 C9 1_555 1_555
H18 C20 1_555 1_555
C21 N2 1_555 1_555
H19 C21 1_555 1_555
C22 H20 1_555 1_555
C23 C22 1_555 1_555
H21 C23 1_555 1_555
C24 S1 1_555 1_555
C25 C24 1_555 1_555
H22 C25 1_555 1_555
C26 C25 1_555 1_555
H23 C26 1_555 1_555
C27 C22 1_555 1_555
C28 C8 1_555 1_555
H24 C28 1_555 1_555
H25 C28 1_555 1_555
H26 C28 1_555 1_555
N3 C27 1_555 1_555
O3 N3 1_555 1_555
O4 N3 1_555 1_555
C7 C8 1_555 1_555
C16 C18 1_555 1_555
C18 C19 1_555 1_555
C20 C21 1_555 1_555
C23 C24 1_555 1_555
C26 C27 1_555 1_555

#END
