
#######################################################################
#
#                 Cambridge Crystallographic Data Centre
#                                CCDC 
#
#######################################################################
#
# If this CIF has been generated from an entry in the Cambridge 
# Structural Database, then it will include bibliographic, chemical, 
# crystal, experimental, refinement or atomic coordinate data resulting 
# from the CCDC's data processing and validation procedures.
#
#######################################################################

data_DIFJOU
_chemical_formula_moiety         'C34 H38 N2 O6 S2'
_chemical_name_systematic        
"t-butyl {[5-methyl-3',5'-bis(methylsulfonyl)[1,1'-biphenyl]-3-yl](3-methylphenyl)methyl}(3-methylpyridin-2-yl)carbamate"
_symmetry_cell_setting           monoclinic
_symmetry_space_group_name_H-M   'P 21'
_symmetry_Int_Tables_number      4
_space_group_name_Hall           'P 2yb'
loop_
_symmetry_equiv_pos_site_id
_symmetry_equiv_pos_as_xyz
1 x,y,z
2 -x,1/2+y,-z
_cell_length_a                   10.2520(4)
_cell_length_b                   7.9470(3)
_cell_length_c                   20.6363(9)
_cell_angle_alpha                90
_cell_angle_beta                 104.098(2)
_cell_angle_gamma                90
_cell_volume                     1630.65
_exptl_crystal_colour            colorless
_exptl_crystal_description       Needle
_cell_formula_units_Z            2
loop_
_atom_site_label
_atom_site_type_symbol
_atom_site_fract_x
_atom_site_fract_y
_atom_site_fract_z
S1 S 0.92648(15) 0.2641(2) 0.43588(8)
S2 S 0.60325(15) 0.7544(2) 0.49825(8)
O1 O -0.1480(5) 0.5113(6) 0.2360(2)
O2 O -0.1056(4) 0.7919(5) 0.2285(2)
O3 O 0.9056(5) 0.1072(5) 0.4008(2)
O4 O 0.9850(4) 0.2629(7) 0.5066(2)
O5 O 0.4608(4) 0.7783(7) 0.4849(2)
O6 O 0.6777(4) 0.7222(5) 0.5651(2)
N1 N 0.0536(5) 0.6068(7) 0.2225(3)
N2 N 0.1817(5) 0.7764(9) 0.1688(3)
C1 C 0.0867(6) 0.4331(9) 0.2032(3)
H1 H 0.066237 0.354353 0.237179
C2 C 0.2378(6) 0.4180(8) 0.2078(3)
C3 C 0.2885(7) 0.3956(9) 0.1523(3)
H2 H 0.227795 0.390033 0.109424
C4 C 0.4263(7) 0.3809(9) 0.1572(3)
C5 C 0.5116(7) 0.3918(8) 0.2201(4)
H3 H 0.605868 0.384068 0.224657
C6 C 0.4631(6) 0.4139(8) 0.2771(3)
C7 C 0.3251(6) 0.4248(8) 0.2701(4)
H4 H 0.290644 0.437062 0.308595
C8 C 0.4819(7) 0.3569(11) 0.0966(4)
H5 H 0.441964 0.256283 0.072249
H6 H 0.579796 0.343438 0.110766
H7 H 0.460243 0.455525 0.067446
C9 C -0.0013(7) 0.3803(9) 0.1359(3)
C10 C -0.0505(11) 0.4968(17) 0.0854(6)
H8 H -0.029871 0.612939 0.092326
C11 C -0.1296(12) 0.4409(16) 0.0253(6)
C12 C -0.189(4) 0.242(4) 0.018(2)
H9 H -0.248609 0.197227 -0.020840
C13 C -0.1008(8) 0.1495(10) 0.0632(4)
H10 H -0.092259 0.033991 0.053154
C14 C -0.0225(7) 0.2082(9) 0.1230(4)
H11 H 0.018362 0.129404 0.156416
C15 C -0.264(3) 0.548(5) -0.0058(16)
H12 H -0.250449 0.548182 -0.051129
H13 H -0.237868 0.657372 0.015271
H14 H -0.359528 0.527359 -0.007872
C16 C 0.5591(6) 0.4346(8) 0.3429(3)
C17 C 0.6770(6) 0.3422(8) 0.3606(3)
H15 H 0.693684 0.256619 0.331554
C18 C 0.7711(6) 0.3729(8) 0.4204(3)
C19 C 0.7511(6) 0.4971(9) 0.4640(4)
H16 H 0.816418 0.519137 0.504414
C20 C 0.6323(7) 0.5883(8) 0.4466(3)
C21 C 0.5381(7) 0.5581(8) 0.3879(3)
H17 H 0.457360 0.622036 0.377511
C22 C 1.0205(7) 0.3955(9) 0.3969(3)
H18 H 1.033134 0.504782 0.419565
H19 H 0.972770 0.411450 0.350002
H20 H 1.108411 0.344158 0.399141
C23 C 0.6736(7) 0.9295(9) 0.4674(4)
H21 H 0.667436 1.028159 0.494994
H22 H 0.624331 0.951305 0.421173
H23 H 0.768179 0.906726 0.468833
C24 C 0.1453(6) 0.7446(10) 0.2259(3)
C25 C 0.1937(7) 0.8318(9) 0.2857(4)
C26 C 0.2873(7) 0.9581(9) 0.2844(4)
H24 H 0.323960 1.022071 0.323466
C27 C 0.3266(7) 0.9902(9) 0.2260(4)
H25 H 0.390596 1.075651 0.224511
C28 C 0.2716(7) 0.8963(10) 0.1705(4)
H26 H 0.299792 0.918696 0.130761
C29 C 0.1527(7) 0.7911(11) 0.3478(3)
H27 H 0.063326 0.838292 0.345495
H28 H 0.217653 0.839299 0.386180
H29 H 0.149798 0.668628 0.352965
C30 C -0.0750(7) 0.6285(10) 0.2297(3)
C31 C -0.2437(6) 0.8466(9) 0.2314(4)
C32 C -0.3439(6) 0.7782(12) 0.1700(4)
H30 H -0.316900 0.812888 0.129642
H31 H -0.433702 0.822592 0.168730
H32 H -0.345641 0.655044 0.172286
C33 C -0.2722(7) 0.7944(10) 0.2959(3)
H33 H -0.274139 0.671259 0.298264
H34 H -0.359532 0.839607 0.298793
H35 H -0.201698 0.837899 0.333058
C34 C -0.2331(8) 1.0372(9) 0.2274(4)
H36 H -0.170283 1.079096 0.267876
H37 H -0.321855 1.087562 0.223657
H38 H -0.200205 1.067618 0.188186
C35? C -0.092(4) 0.480(5) 0.092(2)
H39? H -0.094517 0.597337 0.100360
H40? H -0.168317 0.519208 -0.008733
C36? C -0.180(4) 0.411(4) 0.035(2)
C37? C -0.1521(12) 0.2709(16) 0.0149(7)
H41? H -0.205021 0.234763 -0.027258
C38? C -0.1287(11) -0.0339(13) 0.0513(5)
H42? H -0.085276 -0.073924 0.016843
H43? H -0.225972 -0.051952 0.036513
H44? H -0.093058 -0.096110 0.092888
loop_
_geom_bond_atom_site_label_1
_geom_bond_atom_site_label_2
_geom_bond_site_symmetry_1
_geom_bond_site_symmetry_2
S1 O3 1_555 1_555
S2 O5 1_555 1_555
O1 C30 1_555 1_555
O2 C30 1_555 1_555
O4 S1 1_555 1_555
O6 S2 1_555 1_555
N1 C1 1_555 1_555
N2 C24 1_555 1_555
C1 H1 1_555 1_555
C2 C1 1_555 1_555
C3 C2 1_555 1_555
H2 C3 1_555 1_555
C4 C3 1_555 1_555
C5 C4 1_555 1_555
H3 C5 1_555 1_555
C6 C5 1_555 1_555
C7 C2 1_555 1_555
H4 C7 1_555 1_555
C8 C4 1_555 1_555
H5 C8 1_555 1_555
H6 C8 1_555 1_555
H7 C8 1_555 1_555
C9 C1 1_555 1_555
C10 C9 1_555 1_555
H8 C10 1_555 1_555
C11 C10 1_555 1_555
C12 C11 1_555 1_555
H9 C12 1_555 1_555
C13 C12 1_555 1_555
H10 C13 1_555 1_555
C14 C9 1_555 1_555
H11 C14 1_555 1_555
C15 C11 1_555 1_555
H12 C15 1_555 1_555
H13 C15 1_555 1_555
H14 C15 1_555 1_555
C16 C6 1_555 1_555
C17 C16 1_555 1_555
H15 C17 1_555 1_555
C18 S1 1_555 1_555
C19 C18 1_555 1_555
H16 C19 1_555 1_555
C20 S2 1_555 1_555
C21 C16 1_555 1_555
H17 C21 1_555 1_555
C22 S1 1_555 1_555
H18 C22 1_555 1_555
H19 C22 1_555 1_555
H20 C22 1_555 1_555
C23 S2 1_555 1_555
H21 C23 1_555 1_555
H22 C23 1_555 1_555
H23 C23 1_555 1_555
C24 N1 1_555 1_555
C25 C24 1_555 1_555
C26 C25 1_555 1_555
H24 C26 1_555 1_555
C27 C26 1_555 1_555
H25 C27 1_555 1_555
C28 N2 1_555 1_555
H26 C28 1_555 1_555
C29 C25 1_555 1_555
H27 C29 1_555 1_555
H28 C29 1_555 1_555
H29 C29 1_555 1_555
C30 N1 1_555 1_555
C31 O2 1_555 1_555
C32 C31 1_555 1_555
H30 C32 1_555 1_555
H31 C32 1_555 1_555
H32 C32 1_555 1_555
C33 C31 1_555 1_555
H33 C33 1_555 1_555
H34 C33 1_555 1_555
H35 C33 1_555 1_555
C34 C31 1_555 1_555
H36 C34 1_555 1_555
H37 C34 1_555 1_555
H38 C34 1_555 1_555
C6 C7 1_555 1_555
C13 C14 1_555 1_555
C17 C18 1_555 1_555
C19 C20 1_555 1_555
C20 C21 1_555 1_555
C27 C28 1_555 1_555

#END
