
#######################################################################
#
#                 Cambridge Crystallographic Data Centre
#                                CCDC 
#
#######################################################################
#
# If this CIF has been generated from an entry in the Cambridge 
# Structural Database, then it will include bibliographic, chemical, 
# crystal, experimental, refinement or atomic coordinate data resulting 
# from the CCDC's data processing and validation procedures.
#
#######################################################################

data_DIFKEK
_chemical_formula_moiety         'C36 H32 Mg1 N6 O4,2(C1 H4 O1)'
_chemical_name_systematic        
'bis(N-(1-(pyridin-2-yl)ethylidene)tryptophanato)-magnesium methanol solvate'
_symmetry_cell_setting           tetragonal
_symmetry_space_group_name_H-M   'P 41 21 2'
_symmetry_Int_Tables_number      92
_space_group_name_Hall           'P 4abw 2nw'
loop_
_symmetry_equiv_pos_site_id
_symmetry_equiv_pos_as_xyz
1 x,y,z
2 -x,-y,1/2+z
3 1/2-y,1/2+x,1/4+z
4 1/2+y,1/2-x,3/4+z
5 1/2-x,1/2+y,1/4-z
6 1/2+x,1/2-y,3/4-z
7 y,x,-z
8 -y,-x,1/2-z
_cell_length_a                   11.8234(11)
_cell_length_b                   11.8234(11)
_cell_length_c                   28.817(3)
_cell_angle_alpha                90
_cell_angle_beta                 90
_cell_angle_gamma                90
_cell_volume                     4028.41
_exptl_crystal_colour            yellow
_exptl_crystal_description       block
_cell_formula_units_Z            4
loop_
_atom_site_label
_atom_site_type_symbol
_atom_site_fract_x
_atom_site_fract_y
_atom_site_fract_z
Mg1 Mg 0.29181(12) 0.29181(12) 0.0000
N1 N 0.4247(3) 0.1749(3) 0.01805(10)
N2 N 0.2595(4) 0.0233(3) 0.14752(12)
H1 H 0.2107 -0.0299 0.1510
N3 N 0.2618(3) 0.1379(3) -0.04166(11)
O1 O 0.3765(3) 0.3730(3) 0.05163(9)
O2 O 0.5383(3) 0.3958(3) 0.08828(13)
C1 C 0.4710(4) 0.3384(5) 0.06461(15)
C2 C 0.5067(4) 0.2181(4) 0.05149(13)
H2 H 0.5809 0.2216 0.0364
C3 C 0.5171(4) 0.1453(5) 0.09553(15)
H3 H 0.5523 0.0741 0.0871
H4 H 0.5677 0.1835 0.1169
C4 C 0.3496(5) 0.0208(4) 0.11858(14)
H5 H 0.3685 -0.0403 0.0998
C5 C 0.4096(4) 0.1200(4) 0.12045(13)
C6 C 0.3523(4) 0.1897(4) 0.15378(14)
C7 C 0.2594(4) 0.1249(4) 0.17023(14)
C8 C 0.1852(5) 0.1651(5) 0.20420(16)
H6 H 0.1232 0.1228 0.2139
C9 C 0.2079(5) 0.2689(5) 0.22237(18)
H7 H 0.1599 0.2977 0.2450
C10 C 0.3000(5) 0.3336(5) 0.20840(17)
H8 H 0.3138 0.4030 0.2225
C11 C 0.3712(5) 0.2959(4) 0.17374(16)
H9 H 0.4311 0.3407 0.1637
C12 C 0.5422(4) 0.0135(4) -0.00746(16)
H10 H 0.6070 0.0566 0.0020
H11 H 0.5544 -0.0157 -0.0381
H12 H 0.5308 -0.0481 0.0137
C13 C 0.4400(4) 0.0880(4) -0.00745(13)
C14 C 0.3456(4) 0.0622(4) -0.04046(13)
C15 C 0.3422(5) -0.0341(4) -0.06723(15)
H13 H 0.4010 -0.0862 -0.0661
C16 C 0.2502(6) -0.0521(5) -0.09585(18)
H14 H 0.2463 -0.1165 -0.1143
C17 C 0.1659(5) 0.0251(5) -0.09669(18)
H15 H 0.1030 0.0148 -0.1157
C18 C 0.1750(4) 0.1195(4) -0.06880(16)
H16 H 0.1168 0.1725 -0.0693
N1F N 0.1749(3) 0.4247(3) -0.01805(10)
N2F N 0.0233(3) 0.2595(4) -0.14752(12)
H1F H -0.0299 0.2107 -0.1510
N3F N 0.1379(3) 0.2618(3) 0.04166(11)
O1F O 0.3730(3) 0.3765(3) -0.05163(9)
O2F O 0.3958(3) 0.5383(3) -0.08828(13)
C1F C 0.3384(5) 0.4710(4) -0.06461(15)
C2F C 0.2181(4) 0.5067(4) -0.05149(13)
H2F H 0.2216 0.5809 -0.0364
C3F C 0.1453(5) 0.5171(4) -0.09553(15)
H3F H 0.0741 0.5523 -0.0871
H4F H 0.1835 0.5677 -0.1169
C4F C 0.0208(4) 0.3496(5) -0.11858(14)
H5F H -0.0403 0.3685 -0.0998
C5F C 0.1200(4) 0.4096(4) -0.12045(13)
C6F C 0.1897(4) 0.3523(4) -0.15378(14)
C7F C 0.1249(4) 0.2594(4) -0.17023(14)
C8F C 0.1651(5) 0.1852(5) -0.20420(16)
H6F H 0.1228 0.1232 -0.2139
C9F C 0.2689(5) 0.2079(5) -0.22237(18)
H7F H 0.2977 0.1599 -0.2450
C10F C 0.3336(5) 0.3000(5) -0.20840(17)
H8F H 0.4030 0.3138 -0.2225
C11F C 0.2959(4) 0.3712(5) -0.17374(16)
H9F H 0.3407 0.4311 -0.1637
C12F C 0.0135(4) 0.5422(4) 0.00746(16)
H10F H 0.0566 0.6070 -0.0020
H11F H -0.0157 0.5544 0.0381
H12F H -0.0481 0.5308 -0.0137
C13F C 0.0880(4) 0.4400(4) 0.00745(13)
C14F C 0.0622(4) 0.3456(4) 0.04046(13)
C15F C -0.0341(4) 0.3422(5) 0.06723(15)
H13F H -0.0862 0.4010 0.0661
C16F C -0.0521(5) 0.2502(6) 0.09585(18)
H14F H -0.1165 0.2463 0.1143
C17F C 0.0251(5) 0.1659(5) 0.09669(18)
H15F H 0.0148 0.1030 0.1157
C18F C 0.1195(4) 0.1750(4) 0.06880(16)
H16F H 0.1725 0.1168 0.0693
O3 O 0.7257(10) 0.3783(15) 0.1420(7)
H17 H 0.6705 0.3847 0.1250
C19 C 0.7017(14) 0.4268(19) 0.1851(7)
H18 H 0.7217 0.3748 0.2093
H19 H 0.6225 0.4438 0.1869
H20 H 0.7446 0.4952 0.1886
O4? O 0.7353(9) 0.5106(16) 0.0693(7)
H21? H 0.6826 0.4697 0.0771
C20? C 0.6930(19) 0.6039(17) 0.0443(9)
H22? H 0.6181 0.6215 0.0550
H23? H 0.6906 0.5859 0.0119
H24? H 0.7414 0.6680 0.0491
loop_
_geom_bond_atom_site_label_1
_geom_bond_atom_site_label_2
_geom_bond_site_symmetry_1
_geom_bond_site_symmetry_2
Mg1 N1 1_555 1_555
N1 C2 1_555 1_555
N2 H1 1_555 1_555
N3 Mg1 1_555 1_555
O1 Mg1 1_555 1_555
O2 C1 1_555 1_555
C1 O1 1_555 1_555
C2 C1 1_555 1_555
H2 C2 1_555 1_555
C3 C2 1_555 1_555
H3 C3 1_555 1_555
H4 C3 1_555 1_555
C4 N2 1_555 1_555
H5 C4 1_555 1_555
C5 C3 1_555 1_555
C6 C5 1_555 1_555
C7 N2 1_555 1_555
C8 C7 1_555 1_555
H6 C8 1_555 1_555
C9 C8 1_555 1_555
H7 C9 1_555 1_555
C10 C9 1_555 1_555
H8 C10 1_555 1_555
C11 C6 1_555 1_555
H9 C11 1_555 1_555
C12 H10 1_555 1_555
H11 C12 1_555 1_555
H12 C12 1_555 1_555
C13 N1 1_555 1_555
C14 N3 1_555 1_555
C15 C14 1_555 1_555
H13 C15 1_555 1_555
C16 C15 1_555 1_555
H14 C16 1_555 1_555
C17 C16 1_555 1_555
H15 C17 1_555 1_555
C18 N3 1_555 1_555
H16 C18 1_555 1_555
O3 H17 1_555 1_555
C19 O3 1_555 1_555
H18 C19 1_555 1_555
H19 C19 1_555 1_555
H20 C19 1_555 1_555
N1F Mg1 1_555 1_555
N2F H1F 1_555 1_555
N3F Mg1 1_555 1_555
O1F Mg1 1_555 1_555
O2F C1F 1_555 1_555
C1F O1F 1_555 1_555
C2F N1F 1_555 1_555
H2F C2F 1_555 1_555
C3F C2F 1_555 1_555
H3F C3F 1_555 1_555
H4F C3F 1_555 1_555
C4F N2F 1_555 1_555
H5F C4F 1_555 1_555
C5F C3F 1_555 1_555
C6F C5F 1_555 1_555
C7F N2F 1_555 1_555
C8F C7F 1_555 1_555
H6F C8F 1_555 1_555
C9F C8F 1_555 1_555
H7F C9F 1_555 1_555
C10F C9F 1_555 1_555
H8F C10F 1_555 1_555
C11F C6F 1_555 1_555
H9F C11F 1_555 1_555
C12F H10F 1_555 1_555
H11F C12F 1_555 1_555
H12F C12F 1_555 1_555
C13F N1F 1_555 1_555
C14F N3F 1_555 1_555
C15F C14F 1_555 1_555
H13F C15F 1_555 1_555
C16F C15F 1_555 1_555
H14F C16F 1_555 1_555
C17F C16F 1_555 1_555
H15F C17F 1_555 1_555
C18F N3F 1_555 1_555
H16F C18F 1_555 1_555
C4 C5 1_555 1_555
C6 C7 1_555 1_555
C10 C11 1_555 1_555
C12 C13 1_555 1_555
C13 C14 1_555 1_555
C17 C18 1_555 1_555
C1F C2F 1_555 1_555
C4F C5F 1_555 1_555
C6F C7F 1_555 1_555
C10F C11F 1_555 1_555
C12F C13F 1_555 1_555
C13F C14F 1_555 1_555
C17F C18F 1_555 1_555

#END
