
#######################################################################
#
#                 Cambridge Crystallographic Data Centre
#                                CCDC 
#
#######################################################################
#
# If this CIF has been generated from an entry in the Cambridge 
# Structural Database, then it will include bibliographic, chemical, 
# crystal, experimental, refinement or atomic coordinate data resulting 
# from the CCDC's data processing and validation procedures.
#
#######################################################################

data_DIFLEL
_chemical_formula_moiety         'C36 H32 Mg1 N6 O4,2(C1 H4 O1)'
_chemical_name_systematic        
'bis(N-(1-(pyridin-2-yl)ethylidene)tryptophanato)-magnesium methanol solvate'
_symmetry_cell_setting           tetragonal
_symmetry_space_group_name_H-M   'P 43 21 2'
_symmetry_Int_Tables_number      96
_space_group_name_Hall           'P 4nw 2abw'
loop_
_symmetry_equiv_pos_site_id
_symmetry_equiv_pos_as_xyz
1 x,y,z
2 -x,-y,1/2+z
3 1/2-y,1/2+x,3/4+z
4 1/2+y,1/2-x,1/4+z
5 1/2-x,1/2+y,3/4-z
6 1/2+x,1/2-y,1/4-z
7 y,x,-z
8 -y,-x,1/2-z
_cell_length_a                   11.6532(14)
_cell_length_b                   11.6532(14)
_cell_length_c                   29.025(3)
_cell_angle_alpha                90
_cell_angle_beta                 90
_cell_angle_gamma                90
_cell_volume                     3941.51
_exptl_crystal_colour            yellow
_exptl_crystal_description       block
_cell_formula_units_Z            4
loop_
_atom_site_label
_atom_site_type_symbol
_atom_site_fract_x
_atom_site_fract_y
_atom_site_fract_z
Mg1 Mg 0.70656(15) 0.70656(15) 0.0000
N1 N 0.8250(4) 0.5728(3) 0.01780(13)
N2 N 0.9772(5) 0.7391(5) 0.14730(15)
H1 H 1.0304 0.7893 0.1510
N3 N 0.8602(4) 0.7375(4) -0.04103(13)
O1 O 0.6261(3) 0.6198(4) 0.05111(11)
O2 O 0.6026(5) 0.4555(4) 0.08776(16)
C1 C 0.6593(7) 0.5247(6) 0.06345(19)
C2 C 0.7832(6) 0.4904(5) 0.05114(17)
H2 H 0.7809 0.4150 0.0363
C3 C 0.8584(6) 0.4807(5) 0.09431(19)
H3 H 0.8222 0.4266 0.1152
H4 H 0.9315 0.4480 0.0852
C4 C 0.9812(6) 0.6463(7) 0.11806(19)
H5 H 1.0434 0.6269 0.0996
C5 C 0.8813(7) 0.5873(6) 0.12010(17)
C6 C 0.8110(6) 0.6439(6) 0.15338(18)
C7 C 0.8748(6) 0.7375(6) 0.16928(19)
C8 C 0.8357(6) 0.8128(6) 0.2032(2)
H6 H 0.8790 0.8755 0.2126
C9 C 0.7307(7) 0.7897(7) 0.2216(2)
H7 H 0.7026 0.8370 0.2449
C10 C 0.6661(6) 0.7003(7) 0.2073(2)
H8 H 0.5945 0.6893 0.2207
C11 C 0.7030(6) 0.6223(6) 0.17249(19)
H9 H 0.6580 0.5607 0.1631
C12 C 0.9910(5) 0.4554(5) -0.00725(18)
H10 H 1.0568 0.4706 0.0117
H11 H 1.0156 0.4388 -0.0381
H12 H 0.9500 0.3907 0.0049
C13 C 0.9148(5) 0.5574(4) -0.00761(17)
C14 C 0.9379(5) 0.6545(5) -0.04009(15)
C15 C 1.0358(5) 0.6575(6) -0.0671(2)
H13 H 1.0891 0.5982 -0.0661
C16 C 1.0519(6) 0.7511(7) -0.0954(2)
H14 H 1.1165 0.7556 -0.1141
C17 C 0.9732(7) 0.8361(7) -0.0959(2)
H15 H 0.9822 0.9003 -0.1146
C18 C 0.8795(5) 0.8244(5) -0.06771(19)
H16 H 0.8257 0.8833 -0.0678
N1F N 0.5728(3) 0.8250(4) -0.01780(13)
N2F N 0.7391(5) 0.9772(5) -0.14730(15)
H1F H 0.7893 1.0304 -0.1510
N3F N 0.7375(4) 0.8602(4) 0.04103(13)
O1F O 0.6198(4) 0.6261(3) -0.05111(11)
O2F O 0.4555(4) 0.6026(5) -0.08776(16)
C1F C 0.5247(6) 0.6593(7) -0.06345(19)
C2F C 0.4904(5) 0.7832(6) -0.05114(17)
H2F H 0.4150 0.7809 -0.0363
C3F C 0.4807(5) 0.8584(6) -0.09431(19)
H3F H 0.4266 0.8222 -0.1152
H4F H 0.4480 0.9315 -0.0852
C4F C 0.6463(7) 0.9812(6) -0.11806(19)
H5F H 0.6269 1.0434 -0.0996
C5F C 0.5873(6) 0.8813(7) -0.12010(17)
C6F C 0.6439(6) 0.8110(6) -0.15338(18)
C7F C 0.7375(6) 0.8748(6) -0.16928(19)
C8F C 0.8128(6) 0.8357(6) -0.2032(2)
H6F H 0.8755 0.8790 -0.2126
C9F C 0.7897(7) 0.7307(7) -0.2216(2)
H7F H 0.8370 0.7026 -0.2449
C10F C 0.7003(7) 0.6661(6) -0.2073(2)
H8F H 0.6893 0.5945 -0.2207
C11F C 0.6223(6) 0.7030(6) -0.17249(19)
H9F H 0.5607 0.6580 -0.1631
C12F C 0.4554(5) 0.9910(5) 0.00725(18)
H10F H 0.4706 1.0568 -0.0117
H11F H 0.4388 1.0156 0.0381
H12F H 0.3907 0.9500 -0.0049
C13F C 0.5574(4) 0.9148(5) 0.00761(17)
C14F C 0.6545(5) 0.9379(5) 0.04009(15)
C15F C 0.6575(6) 1.0358(5) 0.0671(2)
H13F H 0.5982 1.0891 0.0661
C16F C 0.7511(7) 1.0519(6) 0.0954(2)
H14F H 0.7556 1.1165 0.1141
C17F C 0.8361(7) 0.9732(7) 0.0959(2)
H15F H 0.9003 0.9822 0.1146
C18F C 0.8244(5) 0.8795(5) 0.06771(19)
H16F H 0.8833 0.8257 0.0678
O3 O 0.4624(15) 0.2647(9) 0.0655(6)
H17 H 0.5121 0.3049 0.0772
C19 C 0.394(2) 0.3319(19) 0.0368(8)
H18 H 0.3827 0.4060 0.0506
H19 H 0.3205 0.2953 0.0328
H20 H 0.4302 0.3406 0.0074
O4 O 0.6392(17) 0.2770(11) 0.1482(6)
H21 H 0.6377 0.3298 0.1296
C20 C 0.575(2) 0.3052(16) 0.1855(6)
H22 H 0.6189 0.2913 0.2130
H23 H 0.5068 0.2595 0.1860
H24 H 0.5550 0.3850 0.1840
loop_
_geom_bond_atom_site_label_1
_geom_bond_atom_site_label_2
_geom_bond_site_symmetry_1
_geom_bond_site_symmetry_2
Mg1 N1 1_555 1_555
N1 C2 1_555 1_555
N2 H1 1_555 1_555
N3 Mg1 1_555 1_555
O1 Mg1 1_555 1_555
O2 C1 1_555 1_555
C1 O1 1_555 1_555
C2 C1 1_555 1_555
H2 C2 1_555 1_555
C3 C2 1_555 1_555
H3 C3 1_555 1_555
H4 C3 1_555 1_555
C4 N2 1_555 1_555
H5 C4 1_555 1_555
C5 C3 1_555 1_555
C6 C5 1_555 1_555
C7 N2 1_555 1_555
C8 C7 1_555 1_555
H6 C8 1_555 1_555
C9 C8 1_555 1_555
H7 C9 1_555 1_555
C10 C9 1_555 1_555
H8 C10 1_555 1_555
C11 C6 1_555 1_555
H9 C11 1_555 1_555
C12 H10 1_555 1_555
H11 C12 1_555 1_555
H12 C12 1_555 1_555
C13 N1 1_555 1_555
C14 N3 1_555 1_555
C15 C14 1_555 1_555
H13 C15 1_555 1_555
C16 C15 1_555 1_555
H14 C16 1_555 1_555
C17 C16 1_555 1_555
H15 C17 1_555 1_555
C18 N3 1_555 1_555
H16 C18 1_555 1_555
O3 H17 1_555 1_555
C19 O3 1_555 1_555
H18 C19 1_555 1_555
H19 C19 1_555 1_555
H20 C19 1_555 1_555
O4 H21 1_555 1_555
C20 O4 1_555 1_555
H22 C20 1_555 1_555
H23 C20 1_555 1_555
H24 C20 1_555 1_555
N1F Mg1 1_555 1_555
N2F H1F 1_555 1_555
N3F Mg1 1_555 1_555
O1F Mg1 1_555 1_555
O2F C1F 1_555 1_555
C1F O1F 1_555 1_555
C2F N1F 1_555 1_555
H2F C2F 1_555 1_555
C3F C2F 1_555 1_555
H3F C3F 1_555 1_555
H4F C3F 1_555 1_555
C4F N2F 1_555 1_555
H5F C4F 1_555 1_555
C5F C3F 1_555 1_555
C6F C5F 1_555 1_555
C7F N2F 1_555 1_555
C8F C7F 1_555 1_555
H6F C8F 1_555 1_555
C9F C8F 1_555 1_555
H7F C9F 1_555 1_555
C10F C9F 1_555 1_555
H8F C10F 1_555 1_555
C11F C6F 1_555 1_555
H9F C11F 1_555 1_555
C12F H10F 1_555 1_555
H11F C12F 1_555 1_555
H12F C12F 1_555 1_555
C13F N1F 1_555 1_555
C14F N3F 1_555 1_555
C15F C14F 1_555 1_555
H13F C15F 1_555 1_555
C16F C15F 1_555 1_555
H14F C16F 1_555 1_555
C17F C16F 1_555 1_555
H15F C17F 1_555 1_555
C18F N3F 1_555 1_555
H16F C18F 1_555 1_555
C4 C5 1_555 1_555
C6 C7 1_555 1_555
C10 C11 1_555 1_555
C12 C13 1_555 1_555
C13 C14 1_555 1_555
C17 C18 1_555 1_555
C1F C2F 1_555 1_555
C4F C5F 1_555 1_555
C6F C7F 1_555 1_555
C10F C11F 1_555 1_555
C12F C13F 1_555 1_555
C13F C14F 1_555 1_555
C17F C18F 1_555 1_555

#END
