
#######################################################################
#
#                 Cambridge Crystallographic Data Centre
#                                CCDC 
#
#######################################################################
#
# If this CIF has been generated from an entry in the Cambridge 
# Structural Database, then it will include bibliographic, chemical, 
# crystal, experimental, refinement or atomic coordinate data resulting 
# from the CCDC's data processing and validation procedures.
#
#######################################################################

data_DIFRIW
_chemical_formula_moiety         'C9 H8 Cl1 N3 O3'
_chemical_name_systematic        
1-(4-chloro-3-nitropyridin-2-yl)pyrrolidin-2-one
_symmetry_cell_setting           monoclinic
_symmetry_space_group_name_H-M   'P 21/c'
_symmetry_Int_Tables_number      14
_space_group_name_Hall           '-P 2ybc'
loop_
_symmetry_equiv_pos_site_id
_symmetry_equiv_pos_as_xyz
1 x,y,z
2 -x,1/2+y,1/2-z
3 -x,-y,-z
4 x,1/2-y,1/2+z
_cell_length_a                   9.29550(10)
_cell_length_b                   14.1736(2)
_cell_length_c                   15.5147(2)
_cell_angle_alpha                90
_cell_angle_beta                 104.4000(10)
_cell_angle_gamma                90
_cell_volume                     1979.85
_exptl_crystal_colour            colorless
_exptl_crystal_description       plate
_cell_formula_units_Z            8
loop_
_atom_site_label
_atom_site_type_symbol
_atom_site_fract_x
_atom_site_fract_y
_atom_site_fract_z
C1 C 1.02143(13) 0.43815(9) 0.36152(8)
C2 C 0.87561(13) 0.42275(9) 0.36871(8)
C3 C 0.79494(14) 0.49844(9) 0.38971(8)
C4 C 0.85847(14) 0.58737(9) 0.40127(8)
H1 H 0.805627 0.640342 0.415024
C5 C 1.00230(14) 0.59589(9) 0.39195(8)
H2 H 1.046632 0.656706 0.399409
C6 C 1.27848(13) 0.38054(9) 0.37260(9)
H3 H 1.311516 0.402905 0.434850
H4 H 1.310599 0.426407 0.333010
C7 C 1.33885(14) 0.28231(10) 0.36246(9)
H5 H 1.357820 0.247192 0.419337
H6 H 1.432340 0.286077 0.342981
C8 C 1.21657(14) 0.23475(9) 0.29151(8)
H7 H 1.238806 0.238589 0.232428
H8 H 1.206415 0.167550 0.306364
C9 C 1.07663(13) 0.28858(9) 0.29180(8)
N1 N 1.08294(12) 0.52406(8) 0.37312(7)
N2 N 0.81040(11) 0.32831(7) 0.36565(7)
N3 N 1.11587(11) 0.36679(7) 0.34621(7)
O1 O 0.69092(10) 0.31443(7) 0.31192(7)
O2 O 0.87808(11) 0.27041(7) 0.41912(6)
O3 O 0.95023(10) 0.27023(7) 0.25034(6)
Cl1 Cl 0.62166(3) 0.48210(2) 0.40906(2)
C10 C 0.43622(13) 0.04442(8) 0.63865(8)
C11 C 0.28131(13) 0.05349(8) 0.62218(8)
C12 C 0.20239(14) -0.01429(9) 0.65690(8)
C13 C 0.27815(14) -0.08848(9) 0.70572(8)
H9 H 0.227557 -0.134837 0.731251
C14 C 0.43022(14) -0.09291(9) 0.71613(8)
H10 H 0.482229 -0.144888 0.748034
C15 C 0.67305(13) 0.07946(9) 0.59728(9)
H11 H 0.667438 0.019956 0.563182
H12 H 0.744529 0.071667 0.655889
C16 C 0.71518(14) 0.16267(10) 0.54587(9)
H13 H 0.824358 0.169883 0.558327
H14 H 0.674121 0.154928 0.480981
C17 C 0.64449(14) 0.24674(9) 0.58133(9)
H15 H 0.714794 0.275277 0.633367
H16 H 0.613240 0.295532 0.534760
C18 C 0.51166(13) 0.20541(9) 0.60759(8)
N4 N 0.50863(12) -0.02854(7) 0.68406(7)
N5 N 0.19965(11) 0.12651(7) 0.56268(7)
N6 N 0.52529(11) 0.10840(7) 0.60711(7)
O4 O 0.10931(9) 0.17424(6) 0.58879(6)
O5 O 0.22594(10) 0.13354(7) 0.48913(6)
O6 O 0.41092(9) 0.24792(6) 0.62802(6)
Cl2 Cl 0.01185(3) -0.01217(2) 0.63561(2)
loop_
_geom_bond_atom_site_label_1
_geom_bond_atom_site_label_2
_geom_bond_site_symmetry_1
_geom_bond_site_symmetry_2
C1 C2 1_555 1_555
C2 C3 1_555 1_555
C3 C4 1_555 1_555
C4 H1 1_555 1_555
C5 C4 1_555 1_555
H2 C5 1_555 1_555
C6 H3 1_555 1_555
H4 C6 1_555 1_555
C7 C6 1_555 1_555
H5 C7 1_555 1_555
H6 C7 1_555 1_555
C8 C7 1_555 1_555
H7 C8 1_555 1_555
H8 C8 1_555 1_555
C9 C8 1_555 1_555
N1 C1 1_555 1_555
N2 C2 1_555 1_555
N3 C1 1_555 1_555
O1 N2 1_555 1_555
O2 N2 1_555 1_555
O3 C9 1_555 1_555
Cl1 C3 1_555 1_555
C10 C11 1_555 1_555
C11 C12 1_555 1_555
C12 C13 1_555 1_555
C13 H9 1_555 1_555
C14 C13 1_555 1_555
H10 C14 1_555 1_555
C15 H11 1_555 1_555
H12 C15 1_555 1_555
C16 C15 1_555 1_555
H13 C16 1_555 1_555
H14 C16 1_555 1_555
C17 C16 1_555 1_555
H15 C17 1_555 1_555
H16 C17 1_555 1_555
C18 C17 1_555 1_555
N4 C10 1_555 1_555
N5 C11 1_555 1_555
N6 C10 1_555 1_555
O4 N5 1_555 1_555
O5 N5 1_555 1_555
O6 C18 1_555 1_555
Cl2 C12 1_555 1_555
C5 N1 1_555 1_555
C6 N3 1_555 1_555
C9 N3 1_555 1_555
C14 N4 1_555 1_555
C15 N6 1_555 1_555
C18 N6 1_555 1_555

#END
