
#######################################################################
#
#                 Cambridge Crystallographic Data Centre
#                                CCDC 
#
#######################################################################
#
# If this CIF has been generated from an entry in the Cambridge 
# Structural Database, then it will include bibliographic, chemical, 
# crystal, experimental, refinement or atomic coordinate data resulting 
# from the CCDC's data processing and validation procedures.
#
#######################################################################

data_DIFVUK
_chemical_formula_moiety         'C18 H31 N1 O1'
_chemical_name_systematic        
(S)-2-(1-Amino-2-methylpropyl)-4,6-di-t-butylphenol
_symmetry_cell_setting           monoclinic
_symmetry_space_group_name_H-M   'C 2'
_symmetry_Int_Tables_number      5
_space_group_name_Hall           'C 2y'
loop_
_symmetry_equiv_pos_site_id
_symmetry_equiv_pos_as_xyz
1 x,y,z
2 -x,y,-z
3 1/2+x,1/2+y,z
4 1/2-x,1/2+y,-z
_cell_length_a                   27.828(6)
_cell_length_b                   5.9272(12)
_cell_length_c                   10.734(2)
_cell_angle_alpha                90
_cell_angle_beta                 102.17(3)
_cell_angle_gamma                90
_cell_volume                     1730.7
_exptl_crystal_colour            colorless
_exptl_crystal_description       prism
_chemical_melting_point          '98-100 deg.C'
_cell_formula_units_Z            4
loop_
_atom_site_label
_atom_site_type_symbol
_atom_site_fract_x
_atom_site_fract_y
_atom_site_fract_z
O1 O 0.94452(15) 0.3401(6) 0.3006(3)
H1 H 0.936(3) 0.198(13) 0.355(6)
C1 C 0.8984(2) 0.4374(8) 0.2846(4)
C2 C 0.8679(2) 0.3825(8) 0.3668(4)
C3 C 0.8223(2) 0.4827(8) 0.3505(4)
H2 H 0.8013 0.4426 0.4060
C4 C 0.8063(2) 0.6407(8) 0.2550(4)
C5 C 0.8372(2) 0.6917(7) 0.1750(4)
H3 H 0.8265 0.7991 0.1093
C6 C 0.8841(2) 0.5934(8) 0.1848(4)
C7 C 0.8854(2) 0.2177(8) 0.4788(4)
H4 H 0.855(2) 0.166(10) 0.512(5)
C8 C 0.9200(2) 0.3322(8) 0.5900(4)
H5 H 0.947(2) 0.404(10) 0.561(4)
C9 C 0.9409(2) 0.1639(10) 0.6969(4)
H6 H 0.9137 0.0882 0.7252
H7 H 0.9611 0.2449 0.7688
H8 H 0.9611 0.0513 0.6648
C10 C 0.8954(2) 0.5245(9) 0.6455(4)
H9 H 0.8830 0.6350 0.5785
H10 H 0.9193 0.5973 0.7138
H11 H 0.8680 0.4655 0.6800
N1 N 0.90986(17) 0.0277(7) 0.4309(4)
H12 H 0.891(3) -0.066(12) 0.370(6)
H13 H 0.925(3) -0.079(15) 0.504(6)
C11 C 0.7553(2) 0.7556(9) 0.2434(4)
C12 C 0.7158(2) 0.5755(11) 0.2236(5)
H14 H 0.6837 0.6461 0.2199
H15 H 0.7226 0.4682 0.2947
H16 H 0.7156 0.4957 0.1436
C13 C 0.7556(2) 0.8846(11) 0.3690(5)
H17 H 0.7820 0.9968 0.3830
H18 H 0.7609 0.7779 0.4403
H19 H 0.7239 0.9609 0.3632
C14 C 0.7437(2) 0.9206(11) 0.1337(4)
H20 H 0.7447 0.8421 0.0539
H21 H 0.7681 1.0422 0.1472
H22 H 0.7109 0.9843 0.1289
C15 C 0.91716(18) 0.6531(7) 0.0939(3)
C16 C 0.9656(2) 0.7611(10) 0.1683(4)
H23 H 0.9872 0.7937 0.1094
H24 H 0.9821 0.6562 0.2342
H25 H 0.9580 0.9016 0.2084
C17 C 0.9284(2) 0.4447(9) 0.0221(4)
H26 H 0.8977 0.3838 -0.0288
H27 H 0.9442 0.3305 0.0831
H28 H 0.9505 0.4859 -0.0343
C18 C 0.8939(2) 0.8263(9) -0.0055(4)
H29 H 0.9173 0.8666 -0.0584
H30 H 0.8852 0.9616 0.0373
H31 H 0.8642 0.7622 -0.0595
loop_
_geom_bond_atom_site_label_1
_geom_bond_atom_site_label_2
_geom_bond_site_symmetry_1
_geom_bond_site_symmetry_2
O1 H1 1_555 1_555
C1 O1 1_555 1_555
C2 C1 1_555 1_555
C3 C2 1_555 1_555
H2 C3 1_555 1_555
C4 C3 1_555 1_555
C5 C4 1_555 1_555
H3 C5 1_555 1_555
C6 C1 1_555 1_555
C7 C2 1_555 1_555
H4 C7 1_555 1_555
C8 C7 1_555 1_555
H5 C8 1_555 1_555
C9 C8 1_555 1_555
H6 C9 1_555 1_555
H7 C9 1_555 1_555
H8 C9 1_555 1_555
C10 C8 1_555 1_555
H9 C10 1_555 1_555
H10 C10 1_555 1_555
H11 C10 1_555 1_555
N1 C7 1_555 1_555
H12 N1 1_555 1_555
H13 N1 1_555 1_555
C11 C4 1_555 1_555
C12 C11 1_555 1_555
H14 C12 1_555 1_555
H15 C12 1_555 1_555
H16 C12 1_555 1_555
C13 C11 1_555 1_555
H17 C13 1_555 1_555
H18 C13 1_555 1_555
H19 C13 1_555 1_555
C14 C11 1_555 1_555
H20 C14 1_555 1_555
H21 C14 1_555 1_555
H22 C14 1_555 1_555
C15 C6 1_555 1_555
C16 C15 1_555 1_555
H23 C16 1_555 1_555
H24 C16 1_555 1_555
H25 C16 1_555 1_555
C17 C15 1_555 1_555
H26 C17 1_555 1_555
H27 C17 1_555 1_555
H28 C17 1_555 1_555
C18 C15 1_555 1_555
H29 C18 1_555 1_555
H30 C18 1_555 1_555
H31 C18 1_555 1_555
C5 C6 1_555 1_555

#END
