
#######################################################################
#
#                 Cambridge Crystallographic Data Centre
#                                CCDC 
#
#######################################################################
#
# If this CIF has been generated from an entry in the Cambridge 
# Structural Database, then it will include bibliographic, chemical, 
# crystal, experimental, refinement or atomic coordinate data resulting 
# from the CCDC's data processing and validation procedures.
#
#######################################################################

data_DIFVOF
_chemical_formula_moiety         'C15 H18 N5 O2'
_chemical_name_systematic        
4,4,5,5-Tetramethyl-2-(2-phenyl-2H-1,2,3-triazol-4-yl)-4,5-dihydro-1H-imidazole-1-oxyl-3-oxide
_symmetry_cell_setting           orthorhombic
_symmetry_space_group_name_H-M   'P 21 21 21'
_symmetry_Int_Tables_number      19
_space_group_name_Hall           'P 2ac 2ab'
loop_
_symmetry_equiv_pos_site_id
_symmetry_equiv_pos_as_xyz
1 x,y,z
2 1/2-x,-y,1/2+z
3 -x,1/2+y,1/2-z
4 1/2+x,1/2-y,-z
_cell_length_a                   6.0411(12)
_cell_length_b                   11.947(2)
_cell_length_c                   21.342(4)
_cell_angle_alpha                90
_cell_angle_beta                 90
_cell_angle_gamma                90
_cell_volume                     1540.32
_exptl_crystal_colour            colorless
_exptl_crystal_description       prismatic
_cell_formula_units_Z            4
loop_
_atom_site_label
_atom_site_type_symbol
_atom_site_fract_x
_atom_site_fract_y
_atom_site_fract_z
O1 O -0.0229(5) 1.1143(2) 0.11465(14)
O2 O 0.3920(6) 0.8510(2) 0.22196(14)
N1 N -0.1764(6) 0.7834(3) 0.05884(17)
N2 N -0.0046(5) 0.7212(2) 0.07726(13)
N3 N 0.1403(5) 0.7721(2) 0.11483(14)
N4 N 0.1124(5) 1.0708(2) 0.15367(14)
N5 N 0.3097(5) 0.9450(2) 0.20403(14)
C1 C 0.2171(8) 0.5528(3) 0.07158(18)
H1 H 0.3291 0.5895 0.0933
C2 C 0.2429(10) 0.4415(4) 0.0528(2)
H2 H 0.3739 0.4038 0.0616
C3 C 0.0748(11) 0.3876(4) 0.0212(3)
H3 H 0.0920 0.3134 0.0090
C4 C -0.1166(10) 0.4433(4) 0.0078(2)
H4 H -0.2292 0.4064 -0.0135
C5 C -0.1464(8) 0.5556(3) 0.02581(18)
H5 H -0.2765 0.5937 0.0165
C6 C 0.0225(7) 0.6066(3) 0.05734(15)
C7 C -0.1403(8) 0.8816(3) 0.08628(19)
H6 H -0.2298 0.9446 0.0825
C8 C 0.0523(6) 0.8750(3) 0.12134(16)
C9 C 0.1597(6) 0.9606(3) 0.15884(16)
C10 C 0.2662(6) 1.1412(3) 0.19306(18)
C11 C 0.3565(6) 1.0515(3) 0.24027(17)
C12 C 0.1344(7) 1.2372(3) 0.2228(2)
H7 H 0.0858 1.2878 0.1907
H8 H 0.2269 1.2766 0.2520
H9 H 0.0081 1.2074 0.2444
C13 C 0.4386(8) 1.1890(3) 0.1492(2)
H10 H 0.3705 1.2429 0.1220
H11 H 0.5019 1.1298 0.1246
H12 H 0.5529 1.2248 0.1732
C14 C 0.2269(8) 1.0431(4) 0.3014(2)
H13 H 0.2923 0.9868 0.3276
H14 H 0.0762 1.0233 0.2925
H15 H 0.2308 1.1139 0.3226
C15 C 0.6024(7) 1.0599(3) 0.2536(2)
H16 H 0.6443 1.0026 0.2828
H17 H 0.6349 1.1320 0.2712
H18 H 0.6836 1.0505 0.2153
loop_
_geom_bond_atom_site_label_1
_geom_bond_atom_site_label_2
_geom_bond_site_symmetry_1
_geom_bond_site_symmetry_2
O1 N4 1_555 1_555
O2 N5 1_555 1_555
N1 N2 1_555 1_555
N2 N3 1_555 1_555
N3 C8 1_555 1_555
N4 C9 1_555 1_555
N5 C9 1_555 1_555
C1 H1 1_555 1_555
C2 C1 1_555 1_555
H2 C2 1_555 1_555
C3 C2 1_555 1_555
H3 C3 1_555 1_555
C4 C3 1_555 1_555
H4 C4 1_555 1_555
C5 C4 1_555 1_555
H5 C5 1_555 1_555
C6 N2 1_555 1_555
C7 N1 1_555 1_555
H6 C7 1_555 1_555
C8 C7 1_555 1_555
C9 C8 1_555 1_555
C10 N4 1_555 1_555
C11 N5 1_555 1_555
C12 C10 1_555 1_555
H7 C12 1_555 1_555
H8 C12 1_555 1_555
H9 C12 1_555 1_555
C13 C10 1_555 1_555
H10 C13 1_555 1_555
H11 C13 1_555 1_555
H12 C13 1_555 1_555
C14 C11 1_555 1_555
H13 C14 1_555 1_555
H14 C14 1_555 1_555
H15 C14 1_555 1_555
C15 C11 1_555 1_555
H16 C15 1_555 1_555
H17 C15 1_555 1_555
H18 C15 1_555 1_555
C1 C6 1_555 1_555
C5 C6 1_555 1_555
C10 C11 1_555 1_555

#END
