
#######################################################################
#
#                 Cambridge Crystallographic Data Centre
#                                CCDC 
#
#######################################################################
#
# If this CIF has been generated from an entry in the Cambridge 
# Structural Database, then it will include bibliographic, chemical, 
# crystal, experimental, refinement or atomic coordinate data resulting 
# from the CCDC's data processing and validation procedures.
#
#######################################################################

data_DIFWAR
_chemical_formula_moiety         'C28 H21 O1 P1,0.4(C4 H10 O1)'
_chemical_name_systematic        
"(S)-4-Phenyl-4,5-dihydro-3H-dinaphtho(2,1-c:1',2'-e)phosphepine oxide diethyl ether solvate"
_symmetry_cell_setting           trigonal
_symmetry_space_group_name_H-M   'P 31 2 1'
_symmetry_Int_Tables_number      152
_space_group_name_Hall           'P 31 2"'
loop_
_symmetry_equiv_pos_site_id
_symmetry_equiv_pos_as_xyz
1 x,y,z
2 -y,x-y,1/3+z
3 -x+y,-x,2/3+z
4 y,x,-z
5 x-y,-y,2/3-z
6 -x,-x+y,1/3-z
_cell_length_a                   11.1738(16)
_cell_length_b                   11.1738(16)
_cell_length_c                   32.520(7)
_cell_angle_alpha                90
_cell_angle_beta                 90
_cell_angle_gamma                120
_cell_volume                     3516.28
_exptl_crystal_colour            yellow
_exptl_crystal_description       prism
_chemical_melting_point          '167-168 deg.C'
_cell_formula_units_Z            6
loop_
_atom_site_label
_atom_site_type_symbol
_atom_site_fract_x
_atom_site_fract_y
_atom_site_fract_z
C1 C 0.3002(5) 0.0922(5) -0.01763(15)
C2 C 0.2424(5) -0.0190(5) 0.00945(16)
H1 H 0.2953 -0.0216 0.0319
C3 C 0.1068(5) -0.1270(5) 0.00380(18)
H2 H 0.0682 -0.2030 0.0223
C4 C 0.0297(6) -0.1233(6) -0.0282(2)
H3 H -0.0621 -0.1969 -0.0323
C5 C 0.0856(6) -0.0133(7) -0.0544(2)
H4 H 0.0309 -0.0111 -0.0765
C6 C 0.2206(5) 0.0961(5) -0.04993(15)
H5 H 0.2574 0.1717 -0.0686
C7 C 0.5958(5) 0.1776(4) -0.00754(13)
H6 H 0.5805 0.1149 -0.0309
H7 H 0.6903 0.2578 -0.0102
C8 C 0.5870(4) 0.1025(4) 0.03201(13)
C9 C 0.5304(5) -0.0429(5) 0.03090(15)
H8 H 0.5037 -0.0893 0.0052
C10 C 0.5134(4) -0.1179(5) 0.06563(15)
H9 H 0.4784 -0.2146 0.0639
C11 C 0.5482(5) -0.0509(5) 0.10458(15)
C12 C 0.5238(5) -0.1255(5) 0.14107(17)
H10 H 0.4853 -0.2228 0.1396
C13 C 0.5535(6) -0.0631(6) 0.17906(18)
H11 H 0.5371 -0.1164 0.2034
C14 C 0.6087(5) 0.0806(6) 0.18136(16)
H12 H 0.6275 0.1248 0.2074
C15 C 0.6355(4) 0.1569(5) 0.14628(14)
H13 H 0.6750 0.2543 0.1483
C16 C 0.6058(4) 0.0942(5) 0.10674(13)
C17 C 0.6299(4) 0.1729(4) 0.06936(13)
C18 C 0.6939(4) 0.3278(4) 0.07077(13)
C19 C 0.8304(4) 0.4142(4) 0.08539(13)
C20 C 0.9181(5) 0.3625(5) 0.09861(14)
H14 H 0.8861 0.2664 0.0962
C21 C 1.0449(5) 0.4459(5) 0.11440(15)
H15 H 1.1008 0.4084 0.1229
C22 C 1.0950(5) 0.5902(6) 0.11831(16)
H16 H 1.1821 0.6482 0.1308
C23 C 1.0194(5) 0.6446(5) 0.10438(15)
H17 H 1.0567 0.7418 0.1057
C24 C 0.8846(5) 0.5601(5) 0.08765(13)
C25 C 0.8049(5) 0.6153(5) 0.07327(16)
H18 H 0.8412 0.7123 0.0742
C26 C 0.6748(5) 0.5315(5) 0.05783(16)
H19 H 0.6231 0.5715 0.0476
C27 C 0.6170(5) 0.3875(4) 0.05692(13)
C28 C 0.4720(4) 0.2988(5) 0.04052(14)
H20 H 0.4240 0.3531 0.0404
H21 H 0.4202 0.2184 0.0589
O1 O 0.5106(3) 0.3432(3) -0.04394(9)
P1 P 0.47290(12) 0.23825(12) -0.01115(4)
O2 O 0.921(2) 1.0000 0.8333
C29 C 0.9260(16) 0.8825(15) 0.8372(4)
H22 H 0.9283 0.8584 0.8664
H23 H 1.0062 0.8880 0.8225
C30 C 0.7871(19) 0.7800(19) 0.8162(6)
H24 H 0.7757 0.6872 0.8162
H25 H 0.7873 0.8095 0.7878
H26 H 0.7106 0.7787 0.8313
C29D C 1.0435(22) 1.1175(15) 0.8295(4)
H22D H 1.0699 1.1416 0.8003
H23D H 1.1182 1.1120 0.8442
C30D C 1.0071(27) 1.2200(19) 0.8505(6)
H24D H 1.0885 1.3128 0.8505
H25D H 0.9778 1.1905 0.8789
H26D H 0.9319 1.2213 0.8354
loop_
_geom_bond_atom_site_label_1
_geom_bond_atom_site_label_2
_geom_bond_site_symmetry_1
_geom_bond_site_symmetry_2
C1 C2 1_555 1_555
C2 H1 1_555 1_555
C3 C2 1_555 1_555
H2 C3 1_555 1_555
C4 C3 1_555 1_555
H3 C4 1_555 1_555
C5 C4 1_555 1_555
H4 C5 1_555 1_555
C6 C1 1_555 1_555
H5 C6 1_555 1_555
C7 H6 1_555 1_555
H7 C7 1_555 1_555
C8 C7 1_555 1_555
C9 C8 1_555 1_555
H8 C9 1_555 1_555
C10 C9 1_555 1_555
H9 C10 1_555 1_555
C11 C10 1_555 1_555
C12 C11 1_555 1_555
H10 C12 1_555 1_555
C13 C12 1_555 1_555
H11 C13 1_555 1_555
C14 C13 1_555 1_555
H12 C14 1_555 1_555
C15 C14 1_555 1_555
H13 C15 1_555 1_555
C16 C11 1_555 1_555
C17 C8 1_555 1_555
C18 C17 1_555 1_555
C19 C18 1_555 1_555
C20 C19 1_555 1_555
H14 C20 1_555 1_555
C21 C20 1_555 1_555
H15 C21 1_555 1_555
C22 C21 1_555 1_555
H16 C22 1_555 1_555
C23 C22 1_555 1_555
H17 C23 1_555 1_555
C24 C19 1_555 1_555
C25 C24 1_555 1_555
H18 C25 1_555 1_555
C26 C25 1_555 1_555
H19 C26 1_555 1_555
C27 C18 1_555 1_555
C28 C27 1_555 1_555
H20 C28 1_555 1_555
H21 C28 1_555 1_555
O1 P1 1_555 1_555
P1 C1 1_555 1_555
O2 C29 1_555 1_555
C29 H22 1_555 1_555
H23 C29 1_555 1_555
C30 C29 1_555 1_555
H24 C30 1_555 1_555
H25 C30 1_555 1_555
H26 C30 1_555 1_555
C29D O2 1_555 1_555
H22D C29D 1_555 1_555
H23D C29D 1_555 1_555
C30D C29D 1_555 1_555
H24D C30D 1_555 1_555
H25D C30D 1_555 1_555
H26D C30D 1_555 1_555
C5 C6 1_555 1_555
C7 P1 1_555 1_555
C15 C16 1_555 1_555
C16 C17 1_555 1_555
C23 C24 1_555 1_555
C26 C27 1_555 1_555
C28 P1 1_555 1_555

#END
