
#######################################################################
#
#                 Cambridge Crystallographic Data Centre
#                                CCDC 
#
#######################################################################
#
# If this CIF has been generated from an entry in the Cambridge 
# Structural Database, then it will include bibliographic, chemical, 
# crystal, experimental, refinement or atomic coordinate data resulting 
# from the CCDC's data processing and validation procedures.
#
#######################################################################

data_DIFXUM
_chemical_formula_moiety         'C64 H106 B20 Si6,2(C1 H2 Cl2)'
_chemical_name_systematic        
'6,13-bis(4-(2-(t-butyldimethylsilyl)-1,2-dicarba-closo-dodecaboranylmethyl)phenyl)-2,3,9,10-tetrakis(trimethylsilyl)pentacene chloroform solvate'
_symmetry_cell_setting           monoclinic
_symmetry_space_group_name_H-M   'P 21/c'
_symmetry_Int_Tables_number      14
_space_group_name_Hall           '-P 2ybc'
loop_
_symmetry_equiv_pos_site_id
_symmetry_equiv_pos_as_xyz
1 x,y,z
2 -x,1/2+y,1/2-z
3 -x,-y,-z
4 x,1/2-y,1/2+z
_cell_length_a                   14.7251(17)
_cell_length_b                   23.273(2)
_cell_length_c                   13.2470(14)
_cell_angle_alpha                90
_cell_angle_beta                 108.879(2)
_cell_angle_gamma                90
_cell_volume                     4295.49
_exptl_crystal_colour            red
_exptl_crystal_description       Block
_chemical_melting_point          '320 deg.C (dec.)'
_cell_formula_units_Z            2
loop_
_atom_site_label
_atom_site_type_symbol
_atom_site_fract_x
_atom_site_fract_y
_atom_site_fract_z
Si1 Si 0.22064(13) 0.75689(8) 0.27179(16)
Si2 Si -0.03718(13) 0.74965(9) 0.08566(16)
Si3 Si 0.75007(13) 0.51283(9) 0.78096(16)
C1 C -0.0673(4) 0.5804(2) 0.3306(4)
H1 H -0.1315 0.5803 0.2881
C2 C -0.0363(4) 0.5397(2) 0.4145(4)
C3 C 0.0989(3) 0.5000(2) 0.5640(4)
C4 C 0.0641(3) 0.5404(2) 0.4800(4)
C5 C 0.1261(4) 0.5826(2) 0.4585(4)
H2 H 0.1904 0.5837 0.5006
C6 C 0.0926(4) 0.6213(2) 0.3771(4)
C7 C 0.1539(4) 0.6636(2) 0.3539(4)
H3 H 0.2182 0.6638 0.3957
C8 C 0.1241(4) 0.7040(2) 0.2741(5)
C9 C 0.0221(4) 0.7026(2) 0.2053(5)
C10 C -0.0364(4) 0.6614(2) 0.2270(4)
H4 H -0.1004 0.6608 0.1841
C11 C -0.0065(4) 0.6201(2) 0.3094(4)
C12 C 0.2072(8) 0.8229(3) 0.3479(7)
H5 H 0.2559 0.8503 0.3478
H6 H 0.2138 0.8126 0.4200
H7 H 0.1450 0.8396 0.3146
C13 C 0.3397(6) 0.7266(4) 0.3470(8)
H8 H 0.3509 0.6926 0.3117
H9 H 0.3412 0.7170 0.4181
H10 H 0.3887 0.7545 0.3503
C14 C 0.2255(6) 0.7769(4) 0.1408(6)
H11 H 0.2322 0.7429 0.1026
H12 H 0.2795 0.8017 0.1489
H13 H 0.1675 0.7966 0.1016
C15 C -0.0151(7) 0.8267(4) 0.1131(8)
H14 H 0.0525 0.8342 0.1331
H15 H -0.0381 0.8378 0.1702
H16 H -0.0481 0.8484 0.0502
C16 C -0.0041(6) 0.7263(4) -0.0304(6)
H17 H 0.0639 0.7306 -0.0151
H18 H -0.0373 0.7495 -0.0911
H19 H -0.0215 0.6868 -0.0456
C17 C -0.1711(5) 0.7397(4) 0.0452(8)
H20 H -0.2018 0.7633 -0.0158
H21 H -0.1931 0.7506 0.1032
H22 H -0.1867 0.7001 0.0275
C18 C 0.2026(4) 0.5002(2) 0.6265(4)
C19 C 0.2379(4) 0.5316(3) 0.7188(5)
H23 H 0.1950 0.5499 0.7466
C20 C 0.3349(4) 0.5368(3) 0.7715(5)
H24 H 0.3560 0.5574 0.8350
C21 C 0.4010(4) 0.5121(2) 0.7319(5)
C22 C 0.3668(4) 0.4786(3) 0.6412(5)
H25 H 0.4098 0.4594 0.6149
C23 C 0.2692(4) 0.4734(3) 0.5890(5)
H26 H 0.2478 0.4513 0.5273
C24 C 0.5070(4) 0.5233(3) 0.7836(5)
H27 H 0.5202 0.5275 0.8598
H28 H 0.5423 0.4901 0.7724
C25 C 0.6956(5) 0.4496(3) 0.6979(7)
H29 H 0.7392 0.4177 0.7169
H30 H 0.6828 0.4588 0.6239
H31 H 0.6367 0.4396 0.7099
C26 C 0.8547(5) 0.5351(4) 0.7414(6)
H32 H 0.9021 0.5051 0.7590
H33 H 0.8819 0.5696 0.7787
H34 H 0.8344 0.5420 0.6659
C27 C 0.7961(5) 0.4940(4) 0.9257(7)
C28 C 0.8526(7) 0.5455(5) 0.9944(8)
H35 H 0.8751 0.5346 1.0682
H36 H 0.8109 0.5781 0.9852
H37 H 0.9063 0.5551 0.9716
C29 C 0.8674(7) 0.4421(4) 0.9370(8)
H38 H 0.8927 0.4309 1.0105
H39 H 0.9191 0.4536 0.9121
H40 H 0.8338 0.4103 0.8952
C30 C 0.7193(6) 0.4739(4) 0.9727(7)
H41 H 0.7487 0.4652 1.0471
H42 H 0.6884 0.4401 0.9358
H43 H 0.6725 0.5037 0.9649
C32 C 0.5434(4) 0.5758(3) 0.7424(5)
C33 C 0.6600(4) 0.5768(3) 0.7420(5)
B1 B 0.5650(5) 0.5720(4) 0.6217(6)
H46 H 0.5507 0.5335 0.5709
B2 B 0.4718(6) 0.6160(3) 0.6367(7)
H47 H 0.3959 0.6067 0.5937
B3 B 0.5091(6) 0.6416(3) 0.7696(7)
H48 H 0.4585 0.6483 0.8140
B4 B 0.6270(5) 0.6165(3) 0.8352(7)
H49 H 0.6534 0.6068 0.9211
B5 B 0.6666(6) 0.6182(4) 0.6362(7)
H50 H 0.7185 0.6100 0.5940
B6 B 0.5467(7) 0.6430(4) 0.5689(9)
H51 H 0.5209 0.6509 0.4824
B7 B 0.5120(6) 0.6860(4) 0.6601(9)
H52 H 0.4630 0.7226 0.6327
B8 B 0.6066(6) 0.6885(4) 0.7829(9)
H53 H 0.6191 0.7263 0.8354
B9 B 0.7028(6) 0.6461(4) 0.7651(8)
H54 H 0.7786 0.6566 0.8063
B10 B 0.6312(7) 0.6885(4) 0.6592(10)
H55 H 0.6601 0.7268 0.6314
Si1B Si -0.22064(13) 0.24311(8) 0.72821(16)
Si2B Si 0.03718(13) 0.25035(9) 0.91434(16)
Si3B Si -0.75007(13) 0.48717(9) 0.21904(16)
C1B C 0.0673(4) 0.4196(2) 0.6694(4)
H1B H 0.1315 0.4197 0.7119
C2B C 0.0363(4) 0.4603(2) 0.5855(4)
C3B C -0.0989(3) 0.5000(2) 0.4360(4)
C4B C -0.0641(3) 0.4596(2) 0.5200(4)
C5B C -0.1261(4) 0.4174(2) 0.5415(4)
H2B H -0.1904 0.4163 0.4994
C6B C -0.0926(4) 0.3787(2) 0.6229(4)
C7B C -0.1539(4) 0.3364(2) 0.6461(4)
H3B H -0.2182 0.3362 0.6043
C8B C -0.1241(4) 0.2960(2) 0.7259(5)
C9B C -0.0221(4) 0.2974(2) 0.7947(5)
C10B C 0.0364(4) 0.3386(2) 0.7730(4)
H4B H 0.1004 0.3392 0.8159
C11B C 0.0065(4) 0.3799(2) 0.6906(4)
C12B C -0.2072(8) 0.1771(3) 0.6521(7)
H5B H -0.2559 0.1497 0.6522
H6B H -0.2138 0.1874 0.5800
H7B H -0.1450 0.1604 0.6854
C13B C -0.3397(6) 0.2734(4) 0.6530(8)
H8B H -0.3509 0.3074 0.6883
H9B H -0.3412 0.2830 0.5819
H10B H -0.3887 0.2455 0.6497
C14B C -0.2255(6) 0.2231(4) 0.8592(6)
H11B H -0.2322 0.2571 0.8974
H12B H -0.2795 0.1983 0.8511
H13B H -0.1675 0.2034 0.8984
C15B C 0.0151(7) 0.1733(4) 0.8869(8)
H14B H -0.0525 0.1658 0.8669
H15B H 0.0381 0.1622 0.8298
H16B H 0.0481 0.1516 0.9498
C16B C 0.0041(6) 0.2737(4) 1.0304(6)
H17B H -0.0639 0.2694 1.0151
H18B H 0.0373 0.2505 1.0911
H19B H 0.0215 0.3132 1.0456
C17B C 0.1711(5) 0.2603(4) 0.9548(8)
H20B H 0.2018 0.2367 1.0158
H21B H 0.1931 0.2494 0.8968
H22B H 0.1867 0.2999 0.9725
C18B C -0.2026(4) 0.4998(2) 0.3735(4)
C19B C -0.2379(4) 0.4684(3) 0.2812(5)
H23B H -0.1950 0.4501 0.2534
C20B C -0.3349(4) 0.4632(3) 0.2285(5)
H24B H -0.3560 0.4426 0.1650
C21B C -0.4010(4) 0.4879(2) 0.2681(5)
C22B C -0.3668(4) 0.5214(3) 0.3588(5)
H25B H -0.4098 0.5406 0.3851
C23B C -0.2692(4) 0.5266(3) 0.4110(5)
H26B H -0.2478 0.5487 0.4727
C24B C -0.5070(4) 0.4767(3) 0.2164(5)
H27B H -0.5202 0.4725 0.1402
H28B H -0.5423 0.5099 0.2276
C25B C -0.6956(5) 0.5504(3) 0.3021(7)
H29B H -0.7392 0.5823 0.2831
H30B H -0.6828 0.5412 0.3761
H31B H -0.6367 0.5604 0.2901
C26B C -0.8547(5) 0.4649(4) 0.2586(6)
H32B H -0.9021 0.4949 0.2410
H33B H -0.8819 0.4304 0.2213
H34B H -0.8344 0.4580 0.3341
C27B C -0.7961(5) 0.5060(4) 0.0743(7)
C28B C -0.8526(7) 0.4545(5) 0.0056(8)
H35B H -0.8751 0.4654 -0.0682
H36B H -0.8109 0.4219 0.0148
H37B H -0.9063 0.4449 0.0284
C29B C -0.8674(7) 0.5579(4) 0.0630(8)
H38B H -0.8927 0.5691 -0.0105
H39B H -0.9191 0.5464 0.0879
H40B H -0.8338 0.5897 0.1048
C30B C -0.7193(6) 0.5261(4) 0.0273(7)
H41B H -0.7487 0.5348 -0.0471
H42B H -0.6884 0.5599 0.0642
H43B H -0.6725 0.4963 0.0351
C32B C -0.5434(4) 0.4242(3) 0.2576(5)
C33B C -0.6600(4) 0.4232(3) 0.2580(5)
B1B B -0.5650(5) 0.4280(4) 0.3783(6)
H46B H -0.5507 0.4665 0.4291
B2B B -0.4718(6) 0.3840(3) 0.3633(7)
H47B H -0.3959 0.3933 0.4063
B3B B -0.5091(6) 0.3584(3) 0.2304(7)
H48B H -0.4585 0.3517 0.1860
B4B B -0.6270(5) 0.3835(3) 0.1648(7)
H49B H -0.6534 0.3932 0.0789
B5B B -0.6666(6) 0.3818(4) 0.3638(7)
H50B H -0.7185 0.3900 0.4060
B6B B -0.5467(7) 0.3570(4) 0.4311(9)
H51B H -0.5209 0.3491 0.5176
B7B B -0.5120(6) 0.3140(4) 0.3399(9)
H52B H -0.4630 0.2774 0.3673
B8B B -0.6066(6) 0.3115(4) 0.2171(9)
H53B H -0.6191 0.2737 0.1646
B9B B -0.7028(6) 0.3539(4) 0.2349(8)
H54B H -0.7786 0.3434 0.1937
B10B B -0.6312(7) 0.3115(4) 0.3408(10)
H55B H -0.6601 0.2732 0.3686
Cl1 Cl 0.3238(4) 0.3691(3) 0.8294(6)
Cl2 Cl 0.5102(5) 0.3842(4) 0.9255(6)
C31 C 0.4471(16) 0.3457(6) 0.846(2)
H44 H 0.4566 0.3062 0.8705
H45 H 0.4601 0.3485 0.7789
loop_
_geom_bond_atom_site_label_1
_geom_bond_atom_site_label_2
_geom_bond_site_symmetry_1
_geom_bond_site_symmetry_2
Si1 C8 1_555 1_555
Si2 C9 1_555 1_555
Si3 C25 1_555 1_555
C1 H1 1_555 1_555
Cl1 C31 1_555 1_555
C2 C1 1_555 1_555
Cl2 C31 1_555 1_555
C3 C4 1_555 1_555
C4 C2 1_555 1_555
C5 C4 1_555 1_555
H2 C5 1_555 1_555
C6 C5 1_555 1_555
C7 C6 1_555 1_555
H3 C7 1_555 1_555
C8 C7 1_555 1_555
C9 C8 1_555 1_555
C10 C9 1_555 1_555
H4 C10 1_555 1_555
C11 C1 1_555 1_555
C12 Si1 1_555 1_555
H5 C12 1_555 1_555
H6 C12 1_555 1_555
H7 C12 1_555 1_555
C13 Si1 1_555 1_555
H8 C13 1_555 1_555
H9 C13 1_555 1_555
H10 C13 1_555 1_555
C14 Si1 1_555 1_555
H11 C14 1_555 1_555
H12 C14 1_555 1_555
H13 C14 1_555 1_555
C15 Si2 1_555 1_555
H14 C15 1_555 1_555
H15 C15 1_555 1_555
H16 C15 1_555 1_555
C16 Si2 1_555 1_555
H17 C16 1_555 1_555
H18 C16 1_555 1_555
H19 C16 1_555 1_555
C17 Si2 1_555 1_555
H20 C17 1_555 1_555
H21 C17 1_555 1_555
H22 C17 1_555 1_555
C18 C3 1_555 1_555
C19 C18 1_555 1_555
H23 C19 1_555 1_555
C20 C19 1_555 1_555
H24 C20 1_555 1_555
C21 C20 1_555 1_555
C22 C21 1_555 1_555
H25 C22 1_555 1_555
C23 C18 1_555 1_555
H26 C23 1_555 1_555
C24 C21 1_555 1_555
H27 C24 1_555 1_555
H28 C24 1_555 1_555
C25 H29 1_555 1_555
H30 C25 1_555 1_555
H31 C25 1_555 1_555
C26 Si3 1_555 1_555
H32 C26 1_555 1_555
H33 C26 1_555 1_555
H34 C26 1_555 1_555
C27 Si3 1_555 1_555
C28 C27 1_555 1_555
H35 C28 1_555 1_555
H36 C28 1_555 1_555
H37 C28 1_555 1_555
C29 C27 1_555 1_555
H38 C29 1_555 1_555
H39 C29 1_555 1_555
H40 C29 1_555 1_555
C30 C27 1_555 1_555
H41 C30 1_555 1_555
H42 C30 1_555 1_555
H43 C30 1_555 1_555
C31 H44 1_555 1_555
H45 C31 1_555 1_555
C32 C24 1_555 1_555
C33 Si3 1_555 1_555
B1 C32 1_555 1_555
H46 B1 1_555 1_555
B2 C32 1_555 1_555
H47 B2 1_555 1_555
B3 C32 1_555 1_555
H48 B3 1_555 1_555
B4 C32 1_555 1_555
H49 B4 1_555 1_555
B5 C33 1_555 1_555
H50 B5 1_555 1_555
B6 B1 1_555 1_555
H51 B6 1_555 1_555
B7 B2 1_555 1_555
H52 B7 1_555 1_555
B8 B3 1_555 1_555
H53 B8 1_555 1_555
B9 C33 1_555 1_555
H54 B9 1_555 1_555
B10 B5 1_555 1_555
H55 B10 1_555 1_555
Si1B C8B 1_555 1_555
Si2B C9B 1_555 1_555
Si3B C25B 1_555 1_555
C1B H1B 1_555 1_555
C2B C3 1_555 1_555
C3B C2 1_555 1_555
C4B C2B 1_555 1_555
C5B C4B 1_555 1_555
H2B C5B 1_555 1_555
C6B C5B 1_555 1_555
C7B C6B 1_555 1_555
H3B C7B 1_555 1_555
C8B C7B 1_555 1_555
C9B C8B 1_555 1_555
C10B C9B 1_555 1_555
H4B C10B 1_555 1_555
C11B C1B 1_555 1_555
C12B Si1B 1_555 1_555
H5B C12B 1_555 1_555
H6B C12B 1_555 1_555
H7B C12B 1_555 1_555
C13B Si1B 1_555 1_555
H8B C13B 1_555 1_555
H9B C13B 1_555 1_555
H10B C13B 1_555 1_555
C14B Si1B 1_555 1_555
H11B C14B 1_555 1_555
H12B C14B 1_555 1_555
H13B C14B 1_555 1_555
C15B Si2B 1_555 1_555
H14B C15B 1_555 1_555
H15B C15B 1_555 1_555
H16B C15B 1_555 1_555
C16B Si2B 1_555 1_555
H17B C16B 1_555 1_555
H18B C16B 1_555 1_555
H19B C16B 1_555 1_555
C17B Si2B 1_555 1_555
H20B C17B 1_555 1_555
H21B C17B 1_555 1_555
H22B C17B 1_555 1_555
C18B C3B 1_555 1_555
C19B C18B 1_555 1_555
H23B C19B 1_555 1_555
C20B C19B 1_555 1_555
H24B C20B 1_555 1_555
C21B C20B 1_555 1_555
C22B C21B 1_555 1_555
H25B C22B 1_555 1_555
C23B C18B 1_555 1_555
H26B C23B 1_555 1_555
C24B C21B 1_555 1_555
H27B C24B 1_555 1_555
H28B C24B 1_555 1_555
C25B H29B 1_555 1_555
H30B C25B 1_555 1_555
H31B C25B 1_555 1_555
C26B Si3B 1_555 1_555
H32B C26B 1_555 1_555
H33B C26B 1_555 1_555
H34B C26B 1_555 1_555
C27B Si3B 1_555 1_555
C28B C27B 1_555 1_555
H35B C28B 1_555 1_555
H36B C28B 1_555 1_555
H37B C28B 1_555 1_555
C29B C27B 1_555 1_555
H38B C29B 1_555 1_555
H39B C29B 1_555 1_555
H40B C29B 1_555 1_555
C30B C27B 1_555 1_555
H41B C30B 1_555 1_555
H42B C30B 1_555 1_555
H43B C30B 1_555 1_555
C32B C24B 1_555 1_555
C33B Si3B 1_555 1_555
B1B C32B 1_555 1_555
H46B B1B 1_555 1_555
B2B C32B 1_555 1_555
H47B B2B 1_555 1_555
B3B C32B 1_555 1_555
H48B B3B 1_555 1_555
B4B C32B 1_555 1_555
H49B B4B 1_555 1_555
B5B C33B 1_555 1_555
H50B B5B 1_555 1_555
B6B B1B 1_555 1_555
H51B B6B 1_555 1_555
B7B B2B 1_555 1_555
H52B B7B 1_555 1_555
B8B B3B 1_555 1_555
H53B B8B 1_555 1_555
B9B C33B 1_555 1_555
H54B B9B 1_555 1_555
B10B B5B 1_555 1_555
H55B B10B 1_555 1_555
C6 C11 1_555 1_555
C10 C11 1_555 1_555
C22 C23 1_555 1_555
C32 C33 1_555 1_555
C33 B1 1_555 1_555
C33 B4 1_555 1_555
B1 B2 1_555 1_555
B1 B5 1_555 1_555
B2 B3 1_555 1_555
B2 B6 1_555 1_555
B3 B4 1_555 1_555
B3 B7 1_555 1_555
B4 B8 1_555 1_555
B4 B9 1_555 1_555
B5 B6 1_555 1_555
B5 B9 1_555 1_555
B6 B7 1_555 1_555
B6 B10 1_555 1_555
B7 B8 1_555 1_555
B7 B10 1_555 1_555
B8 B9 1_555 1_555
B8 B10 1_555 1_555
B9 B10 1_555 1_555
C1B C2B 1_555 1_555
C3B C4B 1_555 1_555
C6B C11B 1_555 1_555
C10B C11B 1_555 1_555
C22B C23B 1_555 1_555
C32B C33B 1_555 1_555
C33B B1B 1_555 1_555
C33B B4B 1_555 1_555
B1B B2B 1_555 1_555
B1B B5B 1_555 1_555
B2B B3B 1_555 1_555
B2B B6B 1_555 1_555
B3B B4B 1_555 1_555
B3B B7B 1_555 1_555
B4B B8B 1_555 1_555
B4B B9B 1_555 1_555
B5B B6B 1_555 1_555
B5B B9B 1_555 1_555
B6B B7B 1_555 1_555
B6B B10B 1_555 1_555
B7B B8B 1_555 1_555
B7B B10B 1_555 1_555
B8B B9B 1_555 1_555
B8B B10B 1_555 1_555
B9B B10B 1_555 1_555

#END
