
#######################################################################
#
#                 Cambridge Crystallographic Data Centre
#                                CCDC 
#
#######################################################################
#
# If this CIF has been generated from an entry in the Cambridge 
# Structural Database, then it will include bibliographic, chemical, 
# crystal, experimental, refinement or atomic coordinate data resulting 
# from the CCDC's data processing and validation procedures.
#
#######################################################################

data_DIFXOG
_chemical_formula_moiety         'C48 H58 O2 Si4,2(C1 H2 Cl2)'
_chemical_name_systematic        
'6,13-bis(p-anisyl)-2,3,9,10-tetrakis(trimethylsilyl)pentacene dichloromethane solvate'
_symmetry_cell_setting           triclinic
_symmetry_space_group_name_H-M   'P -1'
_symmetry_Int_Tables_number      2
_space_group_name_Hall           '-P 1'
loop_
_symmetry_equiv_pos_site_id
_symmetry_equiv_pos_as_xyz
1 x,y,z
2 -x,-y,-z
_cell_length_a                   9.4084(11)
_cell_length_b                   11.7419(14)
_cell_length_c                   13.5170(16)
_cell_angle_alpha                98.537(2)
_cell_angle_beta                 107.468(2)
_cell_angle_gamma                112.039(2)
_cell_volume                     1261.44
_exptl_crystal_colour            'grey blue'
_exptl_crystal_description       block
_chemical_melting_point          '326 deg.C (dec.)'
_cell_formula_units_Z            1
loop_
_atom_site_label
_atom_site_type_symbol
_atom_site_fract_x
_atom_site_fract_y
_atom_site_fract_z
Si1 Si 0.80901(7) 0.37544(6) 0.11620(5)
Si2 Si 0.33988(7) 0.18997(6) 0.02439(5)
O1 O -0.3476(2) -0.40701(16) -0.62479(14)
C1 C 0.6528(3) 0.2648(2) -0.02363(17)
C2 C 0.4725(3) 0.1886(2) -0.05700(17)
C3 C 0.3835(3) 0.1049(2) -0.16019(17)
H1 H 0.2705 0.0537 -0.1800
C4 C 0.4532(3) 0.0914(2) -0.23911(16)
C5 C 0.3587(3) 0.0074(2) -0.34299(16)
H2 H 0.2469 -0.0461 -0.3610
C6 C 0.4266(3) 0.0006(2) -0.42227(16)
C7 C 0.6014(3) 0.0856(2) -0.39334(16)
C8 C 0.6960(3) 0.1685(2) -0.28580(17)
H3 H 0.8085 0.2217 -0.2658
C9 C 0.6258(3) 0.1727(2) -0.20963(16)
C10 C 0.7197(3) 0.2546(2) -0.09966(17)
H4 H 0.8335 0.3040 -0.0787
C11 C 0.3284(3) -0.0838(2) -0.52850(17)
C12 C 0.1483(3) -0.1695(2) -0.55703(16)
C13 C 0.0996(3) -0.2840(2) -0.53013(18)
H5 H 0.1796 -0.3089 -0.4957
C14 C -0.0667(3) -0.3614(2) -0.55401(19)
H6 H -0.0975 -0.4379 -0.5358
C15 C -0.1873(3) -0.3252(2) -0.60491(17)
C16 C -0.1406(3) -0.2113(2) -0.63172(18)
H7 H -0.2204 -0.1858 -0.6654
C17 C 0.0261(3) -0.1355(2) -0.60801(18)
H8 H 0.0566 -0.0594 -0.6270
C18 C -0.4743(3) -0.3725(3) -0.6793(2)
H9 H -0.5811 -0.4367 -0.6885
H10 H -0.4725 -0.3669 -0.7491
H11 H -0.4542 -0.2908 -0.6368
C19 C 1.0208(3) 0.3974(3) 0.12641(19)
H12 H 1.1014 0.4532 0.1970
H13 H 1.0468 0.4349 0.0719
H14 H 1.0227 0.3154 0.1156
C20 C 0.7752(3) 0.3065(3) 0.22799(18)
H15 H 0.8575 0.3663 0.2967
H16 H 0.7845 0.2273 0.2189
H17 H 0.6663 0.2905 0.2257
C21 C 0.8178(3) 0.5391(2) 0.13686(18)
H18 H 0.8976 0.5929 0.2082
H19 H 0.7101 0.5328 0.1294
H20 H 0.8502 0.5757 0.0836
C22 C 0.3387(3) 0.0768(2) 0.1077(2)
H21 H 0.2712 0.0789 0.1483
H22 H 0.4503 0.1020 0.1568
H23 H 0.2939 -0.0088 0.0608
C23 C 0.4008(3) 0.3537(2) 0.10961(18)
H24 H 0.3298 0.3481 0.1488
H25 H 0.3899 0.4077 0.0639
H26 H 0.5143 0.3897 0.1600
C24 C 0.1206(3) 0.1320(2) -0.07259(19)
H27 H 0.0517 0.1319 -0.0327
H28 H 0.0809 0.0463 -0.1176
H29 H 0.1167 0.1880 -0.1173
Si1A Si 0.19099(7) -0.37544(6) -1.11620(5)
Si2A Si 0.66012(7) -0.18997(6) -1.02439(5)
O1A O 1.3476(2) 0.40701(16) -0.37521(14)
C1A C 0.3472(3) -0.2648(2) -0.97637(17)
C2A C 0.5275(3) -0.1886(2) -0.94300(17)
C3A C 0.6165(3) -0.1049(2) -0.83981(17)
H1A H 0.7295 -0.0537 -0.8200
C4A C 0.5468(3) -0.0914(2) -0.76089(16)
C5A C 0.6413(3) -0.0074(2) -0.65701(16)
H2A H 0.7531 0.0461 -0.6390
C6A C 0.5734(3) -0.0006(2) -0.57773(16)
C7A C 0.3986(3) -0.0856(2) -0.60666(16)
C8A C 0.3040(3) -0.1685(2) -0.71420(17)
H3A H 0.1915 -0.2217 -0.7342
C9A C 0.3742(3) -0.1727(2) -0.79037(16)
C10A C 0.2803(3) -0.2546(2) -0.90034(17)
H4A H 0.1665 -0.3040 -0.9213
C11A C 0.6716(3) 0.0838(2) -0.47150(17)
C12A C 0.8517(3) 0.1695(2) -0.44297(16)
C13A C 0.9004(3) 0.2840(2) -0.46987(18)
H5A H 0.8204 0.3089 -0.5043
C14A C 1.0667(3) 0.3614(2) -0.44599(19)
H6A H 1.0975 0.4379 -0.4642
C15A C 1.1873(3) 0.3252(2) -0.39509(17)
C16A C 1.1406(3) 0.2113(2) -0.36828(18)
H7A H 1.2204 0.1858 -0.3346
C17A C 0.9739(3) 0.1355(2) -0.39199(18)
H8A H 0.9434 0.0594 -0.3730
C18A C 1.4743(3) 0.3725(3) -0.3207(2)
H9A H 1.5811 0.4367 -0.3115
H10A H 1.4725 0.3669 -0.2509
H11A H 1.4542 0.2908 -0.3632
C19A C -0.0208(3) -0.3974(3) -1.12641(19)
H12A H -0.1014 -0.4532 -1.1970
H13A H -0.0468 -0.4349 -1.0719
H14A H -0.0227 -0.3154 -1.1156
C20A C 0.2248(3) -0.3065(3) -1.22799(18)
H15A H 0.1425 -0.3663 -1.2967
H16A H 0.2155 -0.2273 -1.2189
H17A H 0.3337 -0.2905 -1.2257
C21A C 0.1822(3) -0.5391(2) -1.13686(18)
H18A H 0.1024 -0.5929 -1.2082
H19A H 0.2899 -0.5328 -1.1294
H20A H 0.1498 -0.5757 -1.0836
C22A C 0.6613(3) -0.0768(2) -1.1077(2)
H21A H 0.7288 -0.0789 -1.1483
H22A H 0.5497 -0.1020 -1.1568
H23A H 0.7061 0.0088 -1.0608
C23A C 0.5992(3) -0.3537(2) -1.10961(18)
H24A H 0.6702 -0.3481 -1.1488
H25A H 0.6101 -0.4077 -1.0639
H26A H 0.4857 -0.3897 -1.1600
C24A C 0.8794(3) -0.1320(2) -0.92741(19)
H27A H 0.9483 -0.1319 -0.9673
H28A H 0.9191 -0.0463 -0.8824
H29A H 0.8833 -0.1880 -0.8827
C25 C -0.6996(5) -0.8130(4) -0.6189(3)
H30 H -0.6966 -0.8852 -0.6605
H31 H -0.6964 -0.8254 -0.5499
Cl1 Cl -0.8859(4) -0.8054(2) -0.6877(2)
Cl2 Cl -0.52451(13) -0.67166(11) -0.59911(9)
C26? C -0.6512(12) -0.6806(10) -0.6214(8)
H32? H -0.6324 -0.6219 -0.5559
H33? H -0.6162 -0.6317 -0.6678
Cl3? Cl -0.8577(13) -0.7825(10) -0.6840(9)
Cl4? Cl -0.5356(4) -0.7660(4) -0.5902(2)
loop_
_geom_bond_atom_site_label_1
_geom_bond_atom_site_label_2
_geom_bond_site_symmetry_1
_geom_bond_site_symmetry_2
Si1 C1 1_555 1_555
Si2 C2 1_555 1_555
O1 C15 1_555 1_555
C1 C2 1_555 1_555
C2 C3 1_555 1_555
C3 H1 1_555 1_555
C4 C3 1_555 1_555
C5 C4 1_555 1_555
H2 C5 1_555 1_555
C6 C5 1_555 1_555
C7 C6 1_555 1_555
C8 C7 1_555 1_555
H3 C8 1_555 1_555
C9 C4 1_555 1_555
C10 C1 1_555 1_555
H4 C10 1_555 1_555
C11 C6 1_555 1_555
C12 C11 1_555 1_555
C13 C12 1_555 1_555
H5 C13 1_555 1_555
C14 C13 1_555 1_555
H6 C14 1_555 1_555
C15 C14 1_555 1_555
C16 C15 1_555 1_555
H7 C16 1_555 1_555
C17 C12 1_555 1_555
H8 C17 1_555 1_555
C18 O1 1_555 1_555
H9 C18 1_555 1_555
H10 C18 1_555 1_555
H11 C18 1_555 1_555
C19 Si1 1_555 1_555
H12 C19 1_555 1_555
H13 C19 1_555 1_555
H14 C19 1_555 1_555
C20 Si1 1_555 1_555
H15 C20 1_555 1_555
H16 C20 1_555 1_555
H17 C20 1_555 1_555
C21 Si1 1_555 1_555
H18 C21 1_555 1_555
H19 C21 1_555 1_555
H20 C21 1_555 1_555
C22 Si2 1_555 1_555
H21 C22 1_555 1_555
H22 C22 1_555 1_555
H23 C22 1_555 1_555
C23 Si2 1_555 1_555
H24 C23 1_555 1_555
H25 C23 1_555 1_555
H26 C23 1_555 1_555
C24 Si2 1_555 1_555
H27 C24 1_555 1_555
H28 C24 1_555 1_555
H29 C24 1_555 1_555
C25 H30 1_555 1_555
H31 C25 1_555 1_555
Cl1 C25 1_555 1_555
Cl2 C25 1_555 1_555
Si1A C1A 1_555 1_555
Si2A C2A 1_555 1_555
O1A C15A 1_555 1_555
C1A C2A 1_555 1_555
C2A C3A 1_555 1_555
C3A H1A 1_555 1_555
C4A C3A 1_555 1_555
C5A C4A 1_555 1_555
H2A C5A 1_555 1_555
C6A C5A 1_555 1_555
C7A C11 1_555 1_555
C8A C7A 1_555 1_555
H3A C8A 1_555 1_555
C9A C4A 1_555 1_555
C10A C1A 1_555 1_555
H4A C10A 1_555 1_555
C11A C7 1_555 1_555
C12A C11A 1_555 1_555
C13A C12A 1_555 1_555
H5A C13A 1_555 1_555
C14A C13A 1_555 1_555
H6A C14A 1_555 1_555
C15A C14A 1_555 1_555
C16A C15A 1_555 1_555
H7A C16A 1_555 1_555
C17A C12A 1_555 1_555
H8A C17A 1_555 1_555
C18A O1A 1_555 1_555
H9A C18A 1_555 1_555
H10A C18A 1_555 1_555
H11A C18A 1_555 1_555
C19A Si1A 1_555 1_555
H12A C19A 1_555 1_555
H13A C19A 1_555 1_555
H14A C19A 1_555 1_555
C20A Si1A 1_555 1_555
H15A C20A 1_555 1_555
H16A C20A 1_555 1_555
H17A C20A 1_555 1_555
C21A Si1A 1_555 1_555
H18A C21A 1_555 1_555
H19A C21A 1_555 1_555
H20A C21A 1_555 1_555
C22A Si2A 1_555 1_555
H21A C22A 1_555 1_555
H22A C22A 1_555 1_555
H23A C22A 1_555 1_555
C23A Si2A 1_555 1_555
H24A C23A 1_555 1_555
H25A C23A 1_555 1_555
H26A C23A 1_555 1_555
C24A Si2A 1_555 1_555
H27A C24A 1_555 1_555
H28A C24A 1_555 1_555
H29A C24A 1_555 1_555
C8 C9 1_555 1_555
C9 C10 1_555 1_555
C16 C17 1_555 1_555
C6A C7A 1_555 1_555
C6A C11A 1_555 1_555
C8A C9A 1_555 1_555
C9A C10A 1_555 1_555
C16A C17A 1_555 1_555

#END
