
#######################################################################
#
#                 Cambridge Crystallographic Data Centre
#                                CCDC 
#
#######################################################################
#
# If this CIF has been generated from an entry in the Cambridge 
# Structural Database, then it will include bibliographic, chemical, 
# crystal, experimental, refinement or atomic coordinate data resulting 
# from the CCDC's data processing and validation procedures.
#
#######################################################################

data_DIGBIG
_chemical_name_common            
'Calix[4]imidazolium hydronium tetrachloride bromide'
_chemical_formula_moiety         
'C16 H20 N8 4+,H5 O2 1+,4.5(Cl1 1-),0.5(Br1 1-)'
_chemical_name_systematic        
'3,8,13,18-Tetraaza-1,6,11,16-tetraazoniapentacyclo[16.2.1.1^3,6^.1^8,11^.1^13,16^]tetracosa-1(21),4,6(24),9,11(23),14,16(22),19-octaene hydronium tetrachloride bromide'
_symmetry_cell_setting           tetragonal
_symmetry_space_group_name_H-M   'P 4/n'
_symmetry_Int_Tables_number      85
_space_group_name_Hall           '-P 4a'
loop_
_symmetry_equiv_pos_site_id
_symmetry_equiv_pos_as_xyz
1 x,y,z
2 1/2-x,1/2-y,z
3 1/2-y,x,z
4 y,1/2-x,z
5 -x,-y,-z
6 1/2+x,1/2+y,-z
7 1/2+y,-x,-z
8 -y,1/2+x,-z
_cell_length_a                   14.225(4)
_cell_length_b                   14.225(4)
_cell_length_c                   5.782(2)
_cell_angle_alpha                90
_cell_angle_beta                 90
_cell_angle_gamma                90
_cell_volume                     1169.99
_exptl_crystal_colour            colorless
_exptl_crystal_description       plate
_cell_formula_units_Z            2
loop_
_atom_site_label
_atom_site_type_symbol
_atom_site_fract_x
_atom_site_fract_y
_atom_site_fract_z
Cl1 Cl 0.61198(3) 0.39037(3) 0.38194(7)
N1 N 0.40199(9) 0.39448(8) 0.9430(2)
N2 N 0.26437(9) 0.45763(9) 0.9450(2)
C1 C 0.32177(11) 0.40223(10) 0.8246(3)
H1 H 0.3083 0.3737 0.6818
C2 C 0.30942(11) 0.48736(11) 1.1435(3)
H2 H 0.2848 0.5276 1.2574
C3 C 0.39567(11) 0.44760(11) 1.1427(3)
H3 H 0.4424 0.4547 1.2562
C4 C 0.47992(11) 0.33243(11) 0.8784(3)
H4 H 0.4904 0.3358 0.7111
H5 H 0.5376 0.3528 0.9565
N1B N 0.10552(8) 0.40199(9) 0.9430(2)
N2B N 0.04237(9) 0.26437(9) 0.9450(2)
C1B C 0.09777(10) 0.32177(11) 0.8246(3)
H1B H 0.1263 0.3083 0.6818
C2B C 0.01264(11) 0.30942(11) 1.1435(3)
H2B H -0.0276 0.2848 1.2574
C3B C 0.05240(11) 0.39567(11) 1.1427(3)
H3B H 0.0453 0.4424 1.2562
C4B C 0.16757(11) 0.47992(11) 0.8784(3)
H4B H 0.1642 0.4904 0.7111
H5B H 0.1472 0.5376 0.9565
N1C N 0.39448(8) 0.09801(9) 0.9430(2)
N2C N 0.45763(9) 0.23563(9) 0.9450(2)
C1C C 0.40223(10) 0.17823(11) 0.8246(3)
H1C H 0.3737 0.1917 0.6818
C2C C 0.48736(11) 0.19058(11) 1.1435(3)
H2C H 0.5276 0.2152 1.2574
C3C C 0.44760(11) 0.10433(11) 1.1427(3)
H3C H 0.4547 0.0576 1.2562
C4C C 0.33243(11) 0.02008(11) 0.8784(3)
H4C H 0.3358 0.0096 0.7111
H5C H 0.3528 -0.0376 0.9565
N1A N 0.09801(9) 0.10552(8) 0.9430(2)
N2A N 0.23563(9) 0.04237(9) 0.9450(2)
C1A C 0.17823(11) 0.09777(10) 0.8246(3)
H1A H 0.1917 0.1263 0.6818
C2A C 0.19058(11) 0.01264(11) 1.1435(3)
H2A H 0.2152 -0.0276 1.2574
C3A C 0.10433(11) 0.05240(11) 1.1427(3)
H3A H 0.0576 0.0453 1.2562
C4A C 0.02008(11) 0.16757(11) 0.8784(3)
H4A H 0.0096 0.1642 0.7111
H5A H -0.0376 0.1472 0.9565
Br1 Br 0.2500 0.2500 0.3480(8)
O1? O 0.234(2) 0.7302(6) 0.805(2)
Cl2? Cl 0.2500 0.2500 0.380(2)
O2? O 0.232(2) 0.738(3) 0.784(3)
H6? H 0.2500 0.7500 1.0000
H7? H 0.301(5) 0.716(6) 0.704(13)
loop_
_geom_bond_atom_site_label_1
_geom_bond_atom_site_label_2
_geom_bond_site_symmetry_1
_geom_bond_site_symmetry_2
N1 C1 1_555 1_555
N2 C1 1_555 1_555
C1 H1 1_555 1_555
C2 N2 1_555 1_555
H2 C2 1_555 1_555
C3 N1 1_555 1_555
H3 C3 1_555 1_555
C4 N1 1_555 1_555
H4 C4 1_555 1_555
H5 C4 1_555 1_555
N1B C1B 1_555 1_555
N2B C1B 1_555 1_555
C1B H1B 1_555 1_555
C2B N2B 1_555 1_555
H2B C2B 1_555 1_555
C3B N1B 1_555 1_555
H3B C3B 1_555 1_555
C4B N2 1_555 1_555
H4B C4B 1_555 1_555
H5B C4B 1_555 1_555
N1C C1C 1_555 1_555
N2C C4 1_555 1_555
C1C N2C 1_555 1_555
H1C C1C 1_555 1_555
C2C N2C 1_555 1_555
H2C C2C 1_555 1_555
C3C N1C 1_555 1_555
H3C C3C 1_555 1_555
C4C N1C 1_555 1_555
H4C C4C 1_555 1_555
H5C C4C 1_555 1_555
N1A C1A 1_555 1_555
N2A C4C 1_555 1_555
C1A N2A 1_555 1_555
H1A C1A 1_555 1_555
C2A N2A 1_555 1_555
H2A C2A 1_555 1_555
C3A N1A 1_555 1_555
H3A C3A 1_555 1_555
C4A N2B 1_555 1_555
H4A C4A 1_555 1_555
H5A C4A 1_555 1_555
C2 C3 1_555 1_555
N1B C4B 1_555 1_555
C2B C3B 1_555 1_555
C2C C3C 1_555 1_555
N1A C4A 1_555 1_555
C2A C3A 1_555 1_555

#END
