
#######################################################################
#
#                 Cambridge Crystallographic Data Centre
#                                CCDC 
#
#######################################################################
#
# If this CIF has been generated from an entry in the Cambridge 
# Structural Database, then it will include bibliographic, chemical, 
# crystal, experimental, refinement or atomic coordinate data resulting 
# from the CCDC's data processing and validation procedures.
#
#######################################################################

data_DIGDAB
_chemical_formula_moiety         'C23 H28 N2 O3 S1'
_chemical_name_systematic        
4-(2-(9,9-dimethyl-7-(methylsulfonyl)-2,3-dihydro[1,3]oxazolo[3,2-a]indol-9a(9H)-yl)vinyl)-N,N-dimethylaniline
_symmetry_cell_setting           monoclinic
_symmetry_space_group_name_H-M   'P 21/c'
_symmetry_Int_Tables_number      14
_space_group_name_Hall           '-P 2ybc'
loop_
_symmetry_equiv_pos_site_id
_symmetry_equiv_pos_as_xyz
1 x,y,z
2 -x,1/2+y,1/2-z
3 -x,-y,-z
4 x,1/2-y,1/2+z
_cell_length_a                   23.398(3)
_cell_length_b                   7.4277(10)
_cell_length_c                   12.2111(14)
_cell_angle_alpha                90
_cell_angle_beta                 92.075(4)
_cell_angle_gamma                90
_cell_volume                     2120.82
_exptl_crystal_colour            colorless
_exptl_crystal_description       Block
_cell_formula_units_Z            4
loop_
_atom_site_label
_atom_site_type_symbol
_atom_site_fract_x
_atom_site_fract_y
_atom_site_fract_z
C1 C 0.08641(14) 0.6183(5) 0.3537(3)
C2 C 0.06921(15) 0.4462(5) 0.3260(3)
H1 H 0.0339 0.4048 0.3478
C3 C 0.10354(15) 0.3343(5) 0.2667(3)
H2 H 0.0919 0.2181 0.2484
C4 C 0.15586(14) 0.4000(5) 0.2351(3)
C5 C 0.17390(13) 0.5716(5) 0.2640(3)
C6 C 0.13972(14) 0.6828(5) 0.3232(3)
H3 H 0.1517 0.7983 0.3425
C7 C 0.17634(18) 0.2182(6) 0.0733(3)
H4 H 0.1378 0.1729 0.0812
H5 H 0.2012 0.1188 0.0552
C8 C 0.17748(17) 0.3645(6) -0.0144(3)
H6 H 0.1968 0.3216 -0.0784
H7 H 0.1389 0.4003 -0.0366
C9 C 0.23542(15) 0.4504(5) 0.1354(3)
C10 C 0.23321(14) 0.6026(5) 0.2229(3)
C11 C 0.27703(16) 0.5690(7) 0.3179(3)
H8 H 0.2714 0.6554 0.3750
H9 H 0.3150 0.5810 0.2917
H10 H 0.2720 0.4497 0.3462
C12 C 0.24229(18) 0.7886(6) 0.1728(3)
H11 H 0.2137 0.8095 0.1158
H12 H 0.2796 0.7941 0.1427
H13 H 0.2393 0.8790 0.2285
C13 C 0.29410(15) 0.3786(5) 0.1139(3)
H14 H 0.3125 0.3133 0.1698
C14 C 0.32136(16) 0.4001(6) 0.0233(3)
H15 H 0.3013 0.4568 -0.0341
C15 C 0.38026(16) 0.3447(5) 0.0019(3)
C16 C 0.41876(17) 0.2880(6) 0.0837(3)
H16 H 0.4064 0.2791 0.1550
C17 C 0.47438(16) 0.2445(6) 0.0637(3)
H17 H 0.4984 0.2058 0.1213
C18 C 0.49551(16) 0.2570(5) -0.0408(3)
C19 C 0.45738(17) 0.3116(6) -0.1235(3)
H18 H 0.4696 0.3191 -0.1950
C20 C 0.40131(17) 0.3552(6) -0.1017(3)
H19 H 0.3770 0.3930 -0.1592
C21 C 0.57274(19) 0.2290(7) -0.1683(4)
H20 H 0.5529 0.1443 -0.2153
H21 H 0.6129 0.2028 -0.1665
H22 H 0.5665 0.3487 -0.1958
C22 C 0.59195(17) 0.1671(7) 0.0270(3)
H23 H 0.5974 0.2671 0.0760
H24 H 0.6278 0.1355 -0.0037
H25 H 0.5775 0.0660 0.0664
N1 N 0.19708(12) 0.3088(4) 0.1737(2)
N2 N 0.55170(14) 0.2159(5) -0.0597(3)
O1 O 0.04623(11) 0.9402(4) 0.3786(2)
O2 O -0.01545(10) 0.6817(4) 0.42130(19)
O3 O 0.20801(10) 0.5127(3) 0.03495(18)
S1 S 0.04028(4) 0.76265(13) 0.42309(7)
C23 C 0.06707(15) 0.7640(6) 0.5583(3)
H26 H 0.1056 0.8083 0.5605
H27 H 0.0665 0.6438 0.5872
H28 H 0.0438 0.8406 0.6016
loop_
_geom_bond_atom_site_label_1
_geom_bond_atom_site_label_2
_geom_bond_site_symmetry_1
_geom_bond_site_symmetry_2
C1 C2 1_555 1_555
C2 H1 1_555 1_555
C3 C2 1_555 1_555
H2 C3 1_555 1_555
C4 C3 1_555 1_555
C5 C4 1_555 1_555
C6 C1 1_555 1_555
H3 C6 1_555 1_555
C7 H4 1_555 1_555
H5 C7 1_555 1_555
C8 C7 1_555 1_555
H6 C8 1_555 1_555
H7 C8 1_555 1_555
C9 C10 1_555 1_555
C10 C5 1_555 1_555
C11 C10 1_555 1_555
H8 C11 1_555 1_555
H9 C11 1_555 1_555
H10 C11 1_555 1_555
C12 C10 1_555 1_555
H11 C12 1_555 1_555
H12 C12 1_555 1_555
H13 C12 1_555 1_555
C13 C9 1_555 1_555
H14 C13 1_555 1_555
C14 C13 1_555 1_555
H15 C14 1_555 1_555
C15 C14 1_555 1_555
C16 C15 1_555 1_555
H16 C16 1_555 1_555
C17 C16 1_555 1_555
H17 C17 1_555 1_555
C18 C17 1_555 1_555
C19 C18 1_555 1_555
H18 C19 1_555 1_555
C20 C15 1_555 1_555
H19 C20 1_555 1_555
C21 H20 1_555 1_555
H21 C21 1_555 1_555
H22 C21 1_555 1_555
C22 H23 1_555 1_555
H24 C22 1_555 1_555
H25 C22 1_555 1_555
N1 C4 1_555 1_555
N2 C18 1_555 1_555
O1 S1 1_555 1_555
O2 S1 1_555 1_555
O3 C8 1_555 1_555
S1 C1 1_555 1_555
C23 S1 1_555 1_555
H26 C23 1_555 1_555
H27 C23 1_555 1_555
H28 C23 1_555 1_555
C5 C6 1_555 1_555
C7 N1 1_555 1_555
C9 N1 1_555 1_555
C9 O3 1_555 1_555
C19 C20 1_555 1_555
C21 N2 1_555 1_555
C22 N2 1_555 1_555

#END
