
#######################################################################
#
#                 Cambridge Crystallographic Data Centre
#                                CCDC 
#
#######################################################################
#
# If this CIF has been generated from an entry in the Cambridge 
# Structural Database, then it will include bibliographic, chemical, 
# crystal, experimental, refinement or atomic coordinate data resulting 
# from the CCDC's data processing and validation procedures.
#
#######################################################################

data_DIGGOR
_chemical_formula_moiety         'C28 H20 O1'
_chemical_name_systematic        
9-Methoxy-11-(1-naphthyl)-11H-benzo[a]fluorene
_symmetry_cell_setting           monoclinic
_symmetry_space_group_name_H-M   'P 21/n'
_symmetry_Int_Tables_number      14
_space_group_name_Hall           '-P 2yn'
loop_
_symmetry_equiv_pos_site_id
_symmetry_equiv_pos_as_xyz
1 x,y,z
2 1/2-x,1/2+y,1/2-z
3 -x,-y,-z
4 1/2+x,1/2-y,1/2+z
_cell_length_a                   11.3616(15)
_cell_length_b                   11.6419(15)
_cell_length_c                   14.8370(19)
_cell_angle_alpha                90
_cell_angle_beta                 96.197(2)
_cell_angle_gamma                90
_cell_volume                     1951.03
_exptl_crystal_colour            colorless
_exptl_crystal_description       block
_cell_formula_units_Z            4
loop_
_atom_site_label
_atom_site_type_symbol
_atom_site_fract_x
_atom_site_fract_y
_atom_site_fract_z
C1 C -0.00707(12) 0.54212(12) 0.22119(9)
C2 C -0.09564(12) 0.45636(12) 0.22868(10)
C3 C -0.14406(12) 0.44382(13) 0.31228(10)
C4 C 0.03883(12) 0.56501(12) 0.12999(9)
H1 H 0.0480 0.4913 0.0997
C5 C 0.03067(12) 0.60661(12) 0.29558(10)
H2 H 0.0887 0.6620 0.2910
C6 C -0.16341(13) 0.62584(13) 0.03794(9)
H3 H -0.2051 0.5638 0.0579
C7 C -0.10163(13) 0.51332(13) 0.38656(10)
H4 H -0.1331 0.5052 0.4415
C8 C -0.04448(13) 0.64104(13) 0.06748(9)
C9 C 0.26713(13) 0.60001(13) 0.17594(10)
O1 O -0.33542(10) 0.70004(10) -0.05589(7)
C10 C -0.13859(13) 0.38253(13) 0.15654(10)
H5 H -0.1070 0.3878 0.1014
C11 C 0.15480(13) 0.63062(13) 0.13264(10)
C12 C -0.01558(13) 0.59161(13) 0.37857(10)
H6 H 0.0131 0.6357 0.4284
C13 C 0.01735(14) 0.73597(14) 0.03996(10)
C14 C 0.13938(14) 0.72927(13) 0.08101(10)
C15 C -0.23401(13) 0.36102(15) 0.31958(12)
H7 H -0.2667 0.3532 0.3741
C16 C 0.36343(14) 0.67714(15) 0.16708(11)
C17 C -0.21896(15) 0.70564(15) -0.02231(11)
C18 C 0.29040(14) 0.49737(14) 0.22506(10)
H8 H 0.2289 0.4465 0.2319
C19 C 0.47620(15) 0.64781(16) 0.20838(12)
H9 H 0.5389 0.6980 0.2038
C20 C 0.23493(15) 0.80454(14) 0.07299(11)
H10 H 0.2238 0.8712 0.0386
C21 C 0.34299(15) 0.77889(15) 0.11586(11)
H11 H 0.4054 0.8296 0.1115
C22 C -0.22535(14) 0.30398(14) 0.16636(12)
H12 H -0.2529 0.2572 0.1178
C23 C -0.03941(16) 0.81538(14) -0.02066(10)
H13 H 0.0014 0.8786 -0.0396
C24 C -0.27306(14) 0.29329(15) 0.24856(13)
H14 H -0.3320 0.2393 0.2546
C25 C -0.15696(16) 0.79844(15) -0.05194(11)
H15 H -0.1950 0.8498 -0.0933
C26 C 0.40287(16) 0.47164(15) 0.26293(11)
H16 H 0.4172 0.4030 0.2942
C27 C 0.49625(15) 0.54817(17) 0.25477(12)
H17 H 0.5721 0.5306 0.2812
C28 C -0.40552(14) 0.61001(16) -0.02569(12)
H18 H -0.4847 0.6158 -0.0554
H19 H -0.4072 0.6159 0.0387
H20 H -0.3721 0.5373 -0.0399
loop_
_geom_bond_atom_site_label_1
_geom_bond_atom_site_label_2
_geom_bond_site_symmetry_1
_geom_bond_site_symmetry_2
C1 C2 1_555 1_555
C2 C3 1_555 1_555
C3 C7 1_555 1_555
C4 C1 1_555 1_555
H1 C4 1_555 1_555
C5 C1 1_555 1_555
H2 C5 1_555 1_555
C6 H3 1_555 1_555
C7 H4 1_555 1_555
C8 C4 1_555 1_555
C9 C11 1_555 1_555
O1 C17 1_555 1_555
C10 C2 1_555 1_555
H5 C10 1_555 1_555
C11 C4 1_555 1_555
C12 C5 1_555 1_555
H6 C12 1_555 1_555
C13 C8 1_555 1_555
C14 C11 1_555 1_555
C15 C3 1_555 1_555
H7 C15 1_555 1_555
C16 C9 1_555 1_555
C17 C6 1_555 1_555
C18 C9 1_555 1_555
H8 C18 1_555 1_555
C19 C16 1_555 1_555
H9 C19 1_555 1_555
C20 C14 1_555 1_555
H10 C20 1_555 1_555
C21 C16 1_555 1_555
H11 C21 1_555 1_555
C22 C10 1_555 1_555
H12 C22 1_555 1_555
C23 C13 1_555 1_555
H13 C23 1_555 1_555
C24 C15 1_555 1_555
H14 C24 1_555 1_555
C25 C17 1_555 1_555
H15 C25 1_555 1_555
C26 C18 1_555 1_555
H16 C26 1_555 1_555
C27 C19 1_555 1_555
H17 C27 1_555 1_555
C28 O1 1_555 1_555
H18 C28 1_555 1_555
H19 C28 1_555 1_555
H20 C28 1_555 1_555
C6 C8 1_555 1_555
C7 C12 1_555 1_555
C13 C14 1_555 1_555
C20 C21 1_555 1_555
C22 C24 1_555 1_555
C23 C25 1_555 1_555
C26 C27 1_555 1_555

#END
