
#######################################################################
#
#                 Cambridge Crystallographic Data Centre
#                                CCDC 
#
#######################################################################
#
# If this CIF has been generated from an entry in the Cambridge 
# Structural Database, then it will include bibliographic, chemical, 
# crystal, experimental, refinement or atomic coordinate data resulting 
# from the CCDC's data processing and validation procedures.
#
#######################################################################

data_DIGGAD
_chemical_formula_moiety         'C25 H20 O2'
_chemical_name_systematic        
9-Methoxy-11-(3-methoxyphenyl)-11H-benzo[a]fluorene
_symmetry_cell_setting           monoclinic
_symmetry_space_group_name_H-M   'P 21/n'
_symmetry_Int_Tables_number      14
_space_group_name_Hall           '-P 2yn'
loop_
_symmetry_equiv_pos_site_id
_symmetry_equiv_pos_as_xyz
1 x,y,z
2 1/2-x,1/2+y,1/2-z
3 -x,-y,-z
4 1/2+x,1/2-y,1/2+z
_cell_length_a                   10.533(2)
_cell_length_b                   6.5954(13)
_cell_length_c                   26.832(5)
_cell_angle_alpha                90
_cell_angle_beta                 97.565(3)
_cell_angle_gamma                90
_cell_volume                     1847.78
_exptl_crystal_colour            colorless
_exptl_crystal_description       block
_cell_formula_units_Z            4
loop_
_atom_site_label
_atom_site_type_symbol
_atom_site_fract_x
_atom_site_fract_y
_atom_site_fract_z
C1 C 0.58106(12) 0.6501(2) 0.16728(5)
H1 H 0.6211 0.7727 0.1829
C2 C 0.47592(14) 0.5345(2) 0.24650(5)
C3 C 0.47328(13) 0.8895(2) 0.10277(5)
H2 H 0.5430 0.9758 0.1103
O1 O 0.37643(12) 1.10914(19) 0.03550(4)
C4 C 0.46648(13) 0.7109(2) 0.12959(5)
C5 C 0.68018(13) 0.5331(2) 0.14229(5)
C6 C 0.36073(13) 0.5859(2) 0.11921(5)
H3 H 0.3551 0.4669 0.1374
C7 C 0.55472(13) 0.5038(2) 0.20836(5)
C8 C 0.37592(14) 0.9394(2) 0.06461(5)
C9 C 0.70365(14) 0.3458(2) 0.16520(6)
C10 C 0.62584(14) 0.3293(2) 0.20645(5)
C11 C 0.47166(15) 0.3758(3) 0.28273(6)
C12 C 0.74437(13) 0.5952(2) 0.10316(6)
H4 H 0.7270 0.7201 0.0877
C13 C 0.40338(15) 0.7112(2) 0.25110(6)
H5 H 0.4054 0.8153 0.2278
O2 O 0.90896(11) 0.5097(2) 0.05054(5)
C14 C 0.27132(15) 0.8137(3) 0.05421(6)
H6 H 0.2062 0.8472 0.0287
C15 C 0.83572(15) 0.4652(3) 0.08759(6)
C16 C 0.26298(14) 0.6392(3) 0.08145(6)
H7 H 0.1915 0.5561 0.0746
C17 C 0.33010(16) 0.7321(3) 0.28920(6)
H8 H 0.2830 0.8501 0.2916
C18 C 0.85871(17) 0.2776(3) 0.11024(7)
H9 H 0.9192 0.1918 0.0991
C19 C 0.62070(17) 0.1738(2) 0.24217(7)
H10 H 0.6683 0.0558 0.2405
C20 C 0.39389(19) 0.4052(3) 0.32134(6)
H11 H 0.3898 0.3035 0.3451
C21 C 0.79343(16) 0.2153(3) 0.14911(7)
H12 H 0.8093 0.0891 0.1641
C22 C 0.54514(18) 0.1988(3) 0.27905(7)
H13 H 0.5417 0.0961 0.3026
C23 C 0.32553(18) 0.5768(4) 0.32466(7)
H14 H 0.2754 0.5920 0.3505
C24 C 0.4871(2) 1.2333(3) 0.04099(6)
H15 H 0.4757 1.3421 0.0171
H16 H 0.5601 1.1538 0.0352
H17 H 0.5006 1.2881 0.0744
C25 C 0.89794(19) 0.7057(3) 0.02916(8)
H18 H 0.9562 0.7186 0.0047
H19 H 0.9183 0.8053 0.0551
H20 H 0.8119 0.7264 0.0132
loop_
_geom_bond_atom_site_label_1
_geom_bond_atom_site_label_2
_geom_bond_site_symmetry_1
_geom_bond_site_symmetry_2
C1 H1 1_555 1_555
C2 C7 1_555 1_555
C3 H2 1_555 1_555
O1 C8 1_555 1_555
C4 C1 1_555 1_555
C5 C1 1_555 1_555
C6 C4 1_555 1_555
H3 C6 1_555 1_555
C7 C1 1_555 1_555
C8 C3 1_555 1_555
C9 C5 1_555 1_555
C10 C7 1_555 1_555
C11 C2 1_555 1_555
C12 C5 1_555 1_555
H4 C12 1_555 1_555
C13 C2 1_555 1_555
H5 C13 1_555 1_555
O2 C15 1_555 1_555
C14 C8 1_555 1_555
H6 C14 1_555 1_555
C15 C12 1_555 1_555
C16 C6 1_555 1_555
H7 C16 1_555 1_555
C17 C13 1_555 1_555
H8 C17 1_555 1_555
C18 C15 1_555 1_555
H9 C18 1_555 1_555
C19 C10 1_555 1_555
H10 C19 1_555 1_555
C20 C11 1_555 1_555
H11 C20 1_555 1_555
C21 C9 1_555 1_555
H12 C21 1_555 1_555
C22 C11 1_555 1_555
H13 C22 1_555 1_555
C23 C17 1_555 1_555
H14 C23 1_555 1_555
C24 O1 1_555 1_555
H15 C24 1_555 1_555
H16 C24 1_555 1_555
H17 C24 1_555 1_555
C25 O2 1_555 1_555
H18 C25 1_555 1_555
H19 C25 1_555 1_555
H20 C25 1_555 1_555
C3 C4 1_555 1_555
C9 C10 1_555 1_555
C14 C16 1_555 1_555
C18 C21 1_555 1_555
C19 C22 1_555 1_555
C20 C23 1_555 1_555

#END
