
#######################################################################
#
#                 Cambridge Crystallographic Data Centre
#                                CCDC 
#
#######################################################################
#
# If this CIF has been generated from an entry in the Cambridge 
# Structural Database, then it will include bibliographic, chemical, 
# crystal, experimental, refinement or atomic coordinate data resulting 
# from the CCDC's data processing and validation procedures.
#
#######################################################################

data_DIGHAC
_chemical_formula_moiety         'C18 H22 O5 Si1'
_chemical_name_systematic        
(1SR,4aSR,9aSR)-1,4,4a,9a-Tetrahydro-5,8-dihydroxy-2-methyl-1-trimethylsiloxy-9,10-anthraquinone
_symmetry_cell_setting           orthorhombic
_symmetry_space_group_name_H-M   'P 21 21 21'
_symmetry_Int_Tables_number      19
_space_group_name_Hall           'P 2ac 2ab'
loop_
_symmetry_equiv_pos_site_id
_symmetry_equiv_pos_as_xyz
1 x,y,z
2 1/2+x,1/2-y,-z
3 -x,1/2+y,1/2-z
4 1/2-x,-y,1/2+z
_cell_length_a                   19.104(2)
_cell_length_b                   10.211(1)
_cell_length_c                   9.317(1)
_cell_angle_alpha                90
_cell_angle_beta                 90
_cell_angle_gamma                90
_cell_volume                     1817.48
_chemical_melting_point          112deg.C
_cell_formula_units_Z            4
loop_
_atom_site_label
_atom_site_type_symbol
_atom_site_fract_x
_atom_site_fract_y
_atom_site_fract_z
Si1 Si 0.0619(1) 0.1745(2) 0.9872(1)
O1 O 0.1228(1) 0.0767(3) 1.0553(3)
O2 O 0.3290(2) 0.3202(4) 1.1153(5)
O3 O 0.0983(2) 0.3704(4) 1.4604(6)
O4 O 0.0765(2) 0.1221(4) 1.4310(3)
O5 O 0.3079(1) 0.0704(3) 1.1112(3)
C1 C 0.1113(2) -0.0361(4) 1.1450(4)
C2 C 0.1372(2) -0.1574(5) 1.0714(5)
C3 C 0.1970(3) -0.2121(5) 1.1037(5)
C4 C 0.2473(3) -0.1640(5) 1.2139(6)
C5 C 0.2280(2) -0.0317(5) 1.2753(5)
C6 C 0.2721(2) 0.3244(5) 1.1994(5)
C7 C 0.2516(4) 0.4481(5) 1.2515(7)
C8 C 0.1946(4) 0.4595(6) 1.3374(8)
C9 C 0.1551(3) 0.3510(5) 1.3755(6)
C10 C 0.1739(2) 0.2263(4) 1.3268(5)
C11 C 0.1297(2) 0.1131(5) 1.3573(4)
C12 C 0.1484(2) -0.0161(4) 1.2905(4)
C13 C 0.2590(2) 0.0839(4) 1.1987(4)
C14 C 0.2341(2) 0.2128(4) 1.2401(4)
C15 C 0.09003 -0.2147(7) 0.9578(7)
C16 C -0.0106(3) 0.1959(8) 1.1149(8)
C17 C 0.1083(4) 0.3313(7) 0.9561(9)
C18 C 0.0254(6) 0.1107(11) 0.8197(11)
H1 H 0.056(2) -0.043(4) 1.170(4)
H2 H 0.207(2) -0.297(4) 1.057(4)
H3 H 0.296(2) -0.160(4) 1.164(4)
H4 H 0.247(2) -0.245(4) 1.274(4)
H5 H 0.248(2) -0.029(4) 1.362(4)
H6 H 0.342(4) 0.253(4) 1.104(5)
H7 H 0.278(2) 0.525(4) 1.223(4)
H8 H 0.176(2) 0.529(4) 1.372(4)
H9 H 0.078(2) 0.305(4) 1.469(5)
H10 H 0.130(2) -0.092(4) 1.343(4)
H11 H 0.104(2) -0.299(4) 0.918(4)
H12 H 0.037(2) -0.205(4) 1.003(4)
H13 H 0.082(2) -0.145(4) 0.889(4)
H14 H -0.043(2) 0.098(4) 1.131(3)
H15 H 0.004(2) 0.256(4) 1.197(4)
H16 H -0.040(2) 0.219(4) 1.072(4)
H17 H 0.107(2) 0.379(4) 1.041(4)
H18 H 0.075(2) 0.393(4) 0.880(4)
H19 H 0.134(2) 0.300(4) 0.865(4)
H20 H 0.067(2) 0.084(4) 0.755(4)
H21 H -0.011(2) 0.165(4) 0.795(5)
H22 H 0.021(2) 0.049(5) 0.803(7)
loop_
_geom_bond_atom_site_label_1
_geom_bond_atom_site_label_2
_geom_bond_site_symmetry_1
_geom_bond_site_symmetry_2
Si1 O1 1_555 1_555
O1 C1 1_555 1_555
O2 C6 1_555 1_555
O3 C9 1_555 1_555
O4 C11 1_555 1_555
O5 C13 1_555 1_555
C1 C2 1_555 1_555
C2 C3 1_555 1_555
C3 C4 1_555 1_555
C4 C5 1_555 1_555
C5 C12 1_555 1_555
C6 C7 1_555 1_555
C7 C8 1_555 1_555
C8 C9 1_555 1_555
C9 C10 1_555 1_555
C10 C11 1_555 1_555
C11 C12 1_555 1_555
C12 C1 1_555 1_555
C13 C5 1_555 1_555
C14 C6 1_555 1_555
C15 C2 1_555 1_555
C16 Si1 1_555 1_555
C17 Si1 1_555 1_555
C18 Si1 1_555 1_555
H1 C1 1_555 1_555
H2 C3 1_555 1_555
H3 C4 1_555 1_555
H4 C4 1_555 1_555
H5 C5 1_555 1_555
H6 O2 1_555 1_555
H7 C7 1_555 1_555
H8 C8 1_555 1_555
H9 O3 1_555 1_555
H10 C12 1_555 1_555
H11 C15 1_555 1_555
H12 C15 1_555 1_555
H13 C15 1_555 1_555
H14 C16 1_555 1_555
H15 C16 1_555 1_555
H16 C16 1_555 1_555
H17 C17 1_555 1_555
H18 C17 1_555 1_555
H19 C17 1_555 1_555
H20 C18 1_555 1_555
H21 C18 1_555 1_555
H22 C18 1_555 1_555
C10 C14 1_555 1_555
C13 C14 1_555 1_555

#END
