
#######################################################################
#
#                 Cambridge Crystallographic Data Centre
#                                CCDC 
#
#######################################################################
#
# If this CIF has been generated from an entry in the Cambridge 
# Structural Database, then it will include bibliographic, chemical, 
# crystal, experimental, refinement or atomic coordinate data resulting 
# from the CCDC's data processing and validation procedures.
#
#######################################################################

data_DIGLOW
_chemical_formula_moiety         'C36 H34 O2'
_chemical_name_systematic        9,10-bis(2-(4-propoxyphenyl)vinyl)anthracene
_symmetry_cell_setting           triclinic
_symmetry_space_group_name_H-M   'P -1'
_symmetry_Int_Tables_number      2
_space_group_name_Hall           '-P 1'
loop_
_symmetry_equiv_pos_site_id
_symmetry_equiv_pos_as_xyz
1 x,y,z
2 -x,-y,-z
_cell_length_a                   5.4312(11)
_cell_length_b                   8.8724(18)
_cell_length_c                   15.066(3)
_cell_angle_alpha                102.61(3)
_cell_angle_beta                 98.34(3)
_cell_angle_gamma                101.81(3)
_cell_volume                     679.671
_cell_formula_units_Z            1
loop_
_atom_site_label
_atom_site_type_symbol
_atom_site_fract_x
_atom_site_fract_y
_atom_site_fract_z
C1 C 0.8348(5) 0.9668(3) 0.37292(17)
H1 H 0.8251 0.8673 0.3346
C2 C 1.0119(6) 1.0947(3) 0.36765(19)
H2 H 1.1250 1.0822 0.3274
C3 C 1.0239(6) 1.2472(3) 0.42371(19)
H3 H 1.1420 1.3355 0.4187
C4 C 0.8670(5) 1.2659(3) 0.48399(18)
H4 H 0.8794 1.3675 0.5202
C5 C 0.6809(5) 1.1346(2) 0.49442(16)
C6 C 0.6625(5) 0.9804(2) 0.43572(15)
C7 C 0.4781(5) 0.8470(2) 0.44092(16)
C8 C 0.4698(5) 0.6883(3) 0.38164(17)
H5 H 0.6027 0.6437 0.4005
C9 C 0.3089(5) 0.6033(3) 0.30873(16)
H6 H 0.1737 0.6451 0.2886
C10 C 0.3147(4) 0.4454(2) 0.25291(15)
C11 C 0.1286(5) 0.3643(3) 0.17308(16)
H7 H -0.0002 0.4115 0.1537
C12 C 0.1332(5) 0.2161(3) 0.12299(16)
H8 H 0.0096 0.1654 0.0694
C13 C 0.3174(4) 0.1420(2) 0.15084(15)
C14 C 0.5039(5) 0.2190(3) 0.22895(18)
H9 H 0.6313 0.1705 0.2481
C15 C 0.5000(5) 0.3683(3) 0.27838(18)
H10 H 0.6270 0.4194 0.3309
C16 C 0.4943(6) -0.0864(3) 0.1295(2)
H11 H 0.4830 -0.0957 0.1919
H12 H 0.6639 -0.0223 0.1317
C17 C 0.4596(6) -0.2452(3) 0.0683(2)
H13 H 0.4614 -0.2371 0.0053
H14 H 0.2946 -0.3119 0.0690
C18 C 0.6724(7) -0.3207(4) 0.1001(2)
H15 H 0.8353 -0.2556 0.0983
H16 H 0.6469 -0.4249 0.0596
H17 H 0.6695 -0.3293 0.1624
O1 O 0.3044(3) -0.00827(18) 0.09812(12)
C1A C 0.1652(5) 1.0332(3) 0.62708(17)
H1A H 0.1749 1.1327 0.6654
C2A C -0.0119(6) 0.9053(3) 0.63235(19)
H2A H -0.1250 0.9178 0.6726
C3A C -0.0239(6) 0.7528(3) 0.57629(19)
H3A H -0.1420 0.6645 0.5813
C4A C 0.1330(5) 0.7341(3) 0.51601(18)
H4A H 0.1206 0.6325 0.4798
C5A C 0.3191(5) 0.8654(2) 0.50558(16)
C6A C 0.3375(5) 1.0196(2) 0.56428(15)
C7A C 0.5219(5) 1.1530(2) 0.55908(16)
C8A C 0.5302(5) 1.3117(3) 0.61836(17)
H5A H 0.3973 1.3563 0.5995
C9A C 0.6911(5) 1.3967(3) 0.69127(16)
H6A H 0.8263 1.3549 0.7114
C10A C 0.6853(4) 1.5546(2) 0.74709(15)
C11A C 0.8714(5) 1.6357(3) 0.82692(16)
H7A H 1.0002 1.5885 0.8463
C12A C 0.8668(5) 1.7839(3) 0.87701(16)
H8A H 0.9904 1.8346 0.9306
C13A C 0.6826(4) 1.8580(2) 0.84916(15)
C14A C 0.4961(5) 1.7810(3) 0.77105(18)
H9A H 0.3687 1.8295 0.7519
C15A C 0.5000(5) 1.6317(3) 0.72162(18)
H10A H 0.3730 1.5806 0.6691
C16A C 0.5057(6) 2.0864(3) 0.8705(2)
H11A H 0.5170 2.0957 0.8081
H12A H 0.3361 2.0223 0.8683
C17A C 0.5404(6) 2.2452(3) 0.9317(2)
H13A H 0.5386 2.2371 0.9947
H14A H 0.7054 2.3119 0.9310
C18A C 0.3276(7) 2.3207(4) 0.8999(2)
H15A H 0.1647 2.2556 0.9017
H16A H 0.3531 2.4249 0.9404
H17A H 0.3305 2.3293 0.8376
O1A O 0.6956(3) 2.00827(18) 0.90188(12)
loop_
_geom_bond_atom_site_label_1
_geom_bond_atom_site_label_2
_geom_bond_site_symmetry_1
_geom_bond_site_symmetry_2
C1 H1 1_555 1_555
C2 C1 1_555 1_555
H2 C2 1_555 1_555
C3 C2 1_555 1_555
H3 C3 1_555 1_555
C4 C3 1_555 1_555
H4 C4 1_555 1_555
C5 C4 1_555 1_555
C6 C1 1_555 1_555
C7 C6 1_555 1_555
C8 C7 1_555 1_555
H5 C8 1_555 1_555
C9 C8 1_555 1_555
H6 C9 1_555 1_555
C10 C9 1_555 1_555
C11 C10 1_555 1_555
H7 C11 1_555 1_555
C12 C11 1_555 1_555
H8 C12 1_555 1_555
C13 C12 1_555 1_555
C14 C13 1_555 1_555
H9 C14 1_555 1_555
C15 C10 1_555 1_555
H10 C15 1_555 1_555
C16 H11 1_555 1_555
H12 C16 1_555 1_555
C17 C16 1_555 1_555
H13 C17 1_555 1_555
H14 C17 1_555 1_555
C18 C17 1_555 1_555
H15 C18 1_555 1_555
H16 C18 1_555 1_555
H17 C18 1_555 1_555
O1 C13 1_555 1_555
C1A H1A 1_555 1_555
C2A C1A 1_555 1_555
H2A C2A 1_555 1_555
C3A C2A 1_555 1_555
H3A C3A 1_555 1_555
C4A C3A 1_555 1_555
H4A C4A 1_555 1_555
C5A C7 1_555 1_555
C6A C1A 1_555 1_555
C7A C5 1_555 1_555
C8A C7A 1_555 1_555
H5A C8A 1_555 1_555
C9A C8A 1_555 1_555
H6A C9A 1_555 1_555
C10A C9A 1_555 1_555
C11A C10A 1_555 1_555
H7A C11A 1_555 1_555
C12A C11A 1_555 1_555
H8A C12A 1_555 1_555
C13A C12A 1_555 1_555
C14A C13A 1_555 1_555
H9A C14A 1_555 1_555
C15A C10A 1_555 1_555
H10A C15A 1_555 1_555
C16A H11A 1_555 1_555
H12A C16A 1_555 1_555
C17A C16A 1_555 1_555
H13A C17A 1_555 1_555
H14A C17A 1_555 1_555
C18A C17A 1_555 1_555
H15A C18A 1_555 1_555
H16A C18A 1_555 1_555
H17A C18A 1_555 1_555
O1A C13A 1_555 1_555
C5 C6 1_555 1_555
C14 C15 1_555 1_555
C16 O1 1_555 1_555
C4A C5A 1_555 1_555
C5A C6A 1_555 1_555
C6A C7A 1_555 1_555
C14A C15A 1_555 1_555
C16A O1A 1_555 1_555

#END
