
#######################################################################
#
#                 Cambridge Crystallographic Data Centre
#                                CCDC 
#
#######################################################################
#
# If this CIF has been generated from an entry in the Cambridge 
# Structural Database, then it will include bibliographic, chemical, 
# crystal, experimental, refinement or atomic coordinate data resulting 
# from the CCDC's data processing and validation procedures.
#
#######################################################################

data_DIGMAJ
_chemical_formula_moiety         'C36 H34 O2'
_chemical_name_systematic        9,10-bis(2-(3-propoxyphenyl)vinyl)anthracene
_symmetry_cell_setting           triclinic
_symmetry_space_group_name_H-M   'P -1'
_symmetry_Int_Tables_number      2
_space_group_name_Hall           '-P 1'
loop_
_symmetry_equiv_pos_site_id
_symmetry_equiv_pos_as_xyz
1 x,y,z
2 -x,-y,-z
_cell_length_a                   5.4269(11)
_cell_length_b                   8.9384(18)
_cell_length_c                   14.968(3)
_cell_angle_alpha                74.64(3)
_cell_angle_beta                 81.57(3)
_cell_angle_gamma                77.00(3)
_cell_volume                     679.254
_cell_formula_units_Z            1
loop_
_atom_site_label
_atom_site_type_symbol
_atom_site_fract_x
_atom_site_fract_y
_atom_site_fract_z
C1 C 0.1259(4) 0.2694(2) 0.52322(14)
H1 H 0.1426 0.3700 0.4880
C2 C -0.0786(4) 0.2528(3) 0.58555(16)
H2 H -0.2001 0.3415 0.5929
C3 C -0.1090(4) 0.1020(3) 0.63947(15)
H3 H -0.2514 0.0915 0.6818
C4 C 0.0668(4) -0.0271(2) 0.63017(14)
H4 H 0.0434 -0.1257 0.6666
C5 C 0.2875(3) -0.0170(2) 0.56615(12)
C6 C 0.3175(4) 0.1365(2) 0.50990(12)
C7 C 0.5282(4) 0.1524(2) 0.44363(12)
C8 C 0.5631(4) 0.3106(2) 0.38639(14)
H5 H 0.6445 0.3669 0.4130
C9 C 0.4947(4) 0.3785(2) 0.30514(14)
H6 H 0.4109 0.3220 0.2796
C10 C 0.5301(4) 0.5341(2) 0.24612(13)
C11 C 0.6810(4) 0.6233(2) 0.26833(14)
H7 H 0.7675 0.5841 0.3215
C12 C 0.7029(4) 0.7699(2) 0.21163(14)
H8 H 0.8028 0.8291 0.2276
C13 C 0.5793(4) 0.8302(2) 0.13176(14)
H9 H 0.5943 0.9296 0.0944
C14 C 0.4325(3) 0.7410(2) 0.10785(13)
C15 C 0.4087(4) 0.5939(2) 0.16462(13)
H10 H 0.3104 0.5343 0.1481
C16 C 0.1757(4) 0.7189(2) -0.00437(13)
H11 H 0.0438 0.6868 0.0435
H12 H 0.2865 0.6246 -0.0180
C17 C 0.0593(4) 0.8219(2) -0.09080(14)
H13 H 0.1929 0.8502 -0.1389
H14 H -0.0432 0.9186 -0.0773
C18 C -0.1058(4) 0.7363(3) -0.12585(16)
H15 H -0.0035 0.6419 -0.1407
H16 H -0.1793 0.8043 -0.1805
H17 H -0.2386 0.7087 -0.0784
O1 O 0.3179(3) 0.80899(15) 0.02701(9)
C1A C 0.8741(4) -0.2694(2) 0.47678(14)
H1A H 0.8574 -0.3700 0.5120
C2A C 1.0786(4) -0.2528(3) 0.41445(16)
H2A H 1.2001 -0.3415 0.4071
C3A C 1.1090(4) -0.1020(3) 0.36053(15)
H3A H 1.2514 -0.0915 0.3182
C4A C 0.9332(4) 0.0271(2) 0.36983(14)
H4A H 0.9566 0.1257 0.3334
C5A C 0.7125(3) 0.0170(2) 0.43385(12)
C6A C 0.6825(4) -0.1365(2) 0.49010(12)
C7A C 0.4718(4) -0.1524(2) 0.55637(12)
C8A C 0.4369(4) -0.3106(2) 0.61361(14)
H5A H 0.3555 -0.3669 0.5870
C9A C 0.5053(4) -0.3785(2) 0.69486(14)
H6A H 0.5891 -0.3220 0.7204
C10A C 0.4699(4) -0.5341(2) 0.75388(13)
C11A C 0.3190(4) -0.6233(2) 0.73167(14)
H7A H 0.2325 -0.5841 0.6785
C12A C 0.2971(4) -0.7699(2) 0.78837(14)
H8A H 0.1972 -0.8291 0.7724
C13A C 0.4207(4) -0.8302(2) 0.86824(14)
H9A H 0.4057 -0.9296 0.9056
C14A C 0.5675(3) -0.7410(2) 0.89215(13)
C15A C 0.5913(4) -0.5939(2) 0.83538(13)
H10A H 0.6896 -0.5343 0.8519
C16A C 0.8243(4) -0.7189(2) 1.00437(13)
H11A H 0.9562 -0.6868 0.9565
H12A H 0.7135 -0.6246 1.0180
C17A C 0.9407(4) -0.8219(2) 1.09080(14)
H13A H 0.8071 -0.8502 1.1389
H14A H 1.0432 -0.9186 1.0773
C18A C 1.1058(4) -0.7363(3) 1.12585(16)
H15A H 1.0035 -0.6419 1.1407
H16A H 1.1793 -0.8043 1.1805
H17A H 1.2386 -0.7087 1.0784
O1A O 0.6821(3) -0.80899(15) 0.97299(9)
loop_
_geom_bond_atom_site_label_1
_geom_bond_atom_site_label_2
_geom_bond_site_symmetry_1
_geom_bond_site_symmetry_2
C1 H1 1_555 1_555
C2 C1 1_555 1_555
H2 C2 1_555 1_555
C3 C2 1_555 1_555
H3 C3 1_555 1_555
C4 C3 1_555 1_555
H4 C4 1_555 1_555
C5 C4 1_555 1_555
C6 C1 1_555 1_555
C7 C6 1_555 1_555
C8 C7 1_555 1_555
H5 C8 1_555 1_555
C9 C8 1_555 1_555
H6 C9 1_555 1_555
C10 C9 1_555 1_555
C11 C10 1_555 1_555
H7 C11 1_555 1_555
C12 C11 1_555 1_555
H8 C12 1_555 1_555
C13 C12 1_555 1_555
H9 C13 1_555 1_555
C14 C13 1_555 1_555
C15 C10 1_555 1_555
H10 C15 1_555 1_555
C16 H11 1_555 1_555
H12 C16 1_555 1_555
C17 C16 1_555 1_555
H13 C17 1_555 1_555
H14 C17 1_555 1_555
C18 C17 1_555 1_555
H15 C18 1_555 1_555
H16 C18 1_555 1_555
H17 C18 1_555 1_555
O1 C14 1_555 1_555
C1A H1A 1_555 1_555
C2A C1A 1_555 1_555
H2A C2A 1_555 1_555
C3A C2A 1_555 1_555
H3A C3A 1_555 1_555
C4A C3A 1_555 1_555
H4A C4A 1_555 1_555
C5A C7 1_555 1_555
C6A C1A 1_555 1_555
C7A C5 1_555 1_555
C8A C7A 1_555 1_555
H5A C8A 1_555 1_555
C9A C8A 1_555 1_555
H6A C9A 1_555 1_555
C10A C9A 1_555 1_555
C11A C10A 1_555 1_555
H7A C11A 1_555 1_555
C12A C11A 1_555 1_555
H8A C12A 1_555 1_555
C13A C12A 1_555 1_555
H9A C13A 1_555 1_555
C14A C13A 1_555 1_555
C15A C10A 1_555 1_555
H10A C15A 1_555 1_555
C16A H11A 1_555 1_555
H12A C16A 1_555 1_555
C17A C16A 1_555 1_555
H13A C17A 1_555 1_555
H14A C17A 1_555 1_555
C18A C17A 1_555 1_555
H15A C18A 1_555 1_555
H16A C18A 1_555 1_555
H17A C18A 1_555 1_555
O1A C14A 1_555 1_555
C5 C6 1_555 1_555
C14 C15 1_555 1_555
C16 O1 1_555 1_555
C4A C5A 1_555 1_555
C5A C6A 1_555 1_555
C6A C7A 1_555 1_555
C14A C15A 1_555 1_555
C16A O1A 1_555 1_555

#END
