
#######################################################################
#
#                 Cambridge Crystallographic Data Centre
#                                CCDC 
#
#######################################################################
#
# If this CIF has been generated from an entry in the Cambridge 
# Structural Database, then it will include bibliographic, chemical, 
# crystal, experimental, refinement or atomic coordinate data resulting 
# from the CCDC's data processing and validation procedures.
#
#######################################################################

data_DIGNAL
_chemical_formula_moiety         'C4 H11 N4 1+,C6 H2 N3 O7 1-'
_chemical_name_systematic        
'amino(2-isopropylidenehydrazino)methaniminium 2,4,6-trinitrophenolate'
_symmetry_cell_setting           monoclinic
_symmetry_space_group_name_H-M   'P 21/c'
_symmetry_Int_Tables_number      14
_space_group_name_Hall           '-P 2ybc'
loop_
_symmetry_equiv_pos_site_id
_symmetry_equiv_pos_as_xyz
1 x,y,z
2 -x,1/2+y,1/2-z
3 -x,-y,-z
4 x,1/2-y,1/2+z
_cell_length_a                   9.9241(4)
_cell_length_b                   9.7282(4)
_cell_length_c                   30.8067(11)
_cell_angle_alpha                90
_cell_angle_beta                 96.704(2)
_cell_angle_gamma                90
_cell_volume                     2953.85
_exptl_crystal_colour            orange
_exptl_crystal_description       block
_cell_formula_units_Z            8
loop_
_atom_site_label
_atom_site_type_symbol
_atom_site_fract_x
_atom_site_fract_y
_atom_site_fract_z
O1 O 0.5792(2) 0.9080(3) 0.43019(6)
O2 O 0.3967(3) 0.7126(3) 0.41562(8)
O3 O 0.2786(3) 0.7068(3) 0.35351(7)
O4 O 0.4490(2) 0.8818(3) 0.22774(7)
O5 O 0.6022(2) 1.0402(3) 0.23376(7)
O6 O 0.8474(5) 1.1208(11) 0.3780(2)
O7 O 0.7145(10) 1.1508(11) 0.4263(3)
N1 N 0.3764(3) 0.7494(3) 0.37760(8)
N2 N 0.5289(3) 0.9573(3) 0.24974(8)
N3 N 0.7397(3) 1.1040(3) 0.39234(9)
C1 C 0.5627(3) 0.9216(3) 0.39004(9)
C2 C 0.4668(3) 0.8450(3) 0.36038(8)
C3 C 0.4555(3) 0.8568(3) 0.31560(9)
H1 H 0.3932 0.8033 0.2981
C4 C 0.5370(3) 0.9481(3) 0.29702(8)
C5 C 0.6295(3) 1.0295(3) 0.32271(9)
H2 H 0.6836 1.0919 0.3098
C6 C 0.6403(3) 1.0170(3) 0.36689(9)
N4 N 0.7240(2) 0.8836(3) 0.60377(7)
N5 N 0.6309(3) 0.8096(3) 0.57656(8)
H3 H 0.577(3) 0.755(3) 0.5854(10)
N6 N 0.6924(3) 0.9376(3) 0.51959(9)
H4 H 0.756(3) 0.977(3) 0.5379(11)
H5 H 0.688(4) 0.957(4) 0.4910(13)
N7 N 0.5271(3) 0.7747(3) 0.50734(9)
H6 H 0.473(3) 0.715(4) 0.5177(11)
H7 H 0.520(3) 0.795(4) 0.4789(12)
C7 C 0.8421(4) 0.9347(4) 0.67247(10)
H8 H 0.8699 1.0120 0.6563
H9 H 0.9195 0.8782 0.6817
H10 H 0.8029 0.9669 0.6976
C8 C 0.7395(3) 0.8525(3) 0.64416(9)
C9 C 0.6650(3) 0.7439(3) 0.66530(9)
H11 H 0.6804 0.6566 0.6522
H12 H 0.5697 0.7642 0.6615
H13 H 0.6967 0.7405 0.6959
C10 C 0.6174(3) 0.8418(3) 0.53388(9)
O10 O 0.1554(3) 0.3722(3) 0.52103(7)
O11 O 0.3490(3) 0.5519(3) 0.53786(8)
O12 O 0.4470(3) 0.5720(4) 0.60130(9)
O13 O 0.3005(3) 0.3431(3) 0.72262(7)
O14 O 0.1479(2) 0.1857(3) 0.71280(7)
O15 O -0.0999(4) 0.1268(5) 0.57247(10)
O16 O -0.0158(4) 0.1671(4) 0.51749(10)
N8 N 0.3589(3) 0.5212(3) 0.57577(8)
N9 N 0.2181(3) 0.2758(3) 0.69889(8)
N10 N -0.0112(3) 0.1741(3) 0.55556(9)
C11 C 0.1715(3) 0.3513(3) 0.56069(9)
C12 C 0.2694(3) 0.4217(3) 0.59161(9)
C13 C 0.2836(3) 0.3981(3) 0.63564(9)
H14 H 0.3474 0.4469 0.6541
C14 C 0.2030(3) 0.3017(3) 0.65245(8)
C15 C 0.1069(3) 0.2287(3) 0.62560(9)
H15 H 0.0527 0.1638 0.6374
C16 C 0.0921(3) 0.2525(3) 0.58187(9)
N11 N 0.0044(2) 0.3967(2) 0.35002(7)
N12 N 0.0976(3) 0.4706(3) 0.37725(7)
H16 H 0.150(3) 0.536(3) 0.3687(9)
N13 N 0.0362(3) 0.3427(3) 0.43430(9)
H17 H 0.048(4) 0.321(4) 0.4640(13)
H18 H -0.016(3) 0.293(3) 0.4161(10)
N14 N 0.1978(3) 0.5107(3) 0.44657(9)
H19 H 0.256(3) 0.563(3) 0.4374(10)
H20 H 0.208(4) 0.485(4) 0.4746(13)
C17 C -0.1125(3) 0.3448(3) 0.28121(10)
H21 H -0.1434 0.2699 0.2977
H22 H -0.0723 0.3094 0.2566
H23 H -0.1880 0.4027 0.2710
C18 C -0.0098(3) 0.4264(3) 0.30949(9)
C19 C 0.0673(3) 0.5336(3) 0.28852(9)
H24 H 0.0567 0.6205 0.3025
H25 H 0.0334 0.5404 0.2581
H26 H 0.1616 0.5093 0.2914
C20 C 0.1101(3) 0.4397(3) 0.42007(9)
O8? O 0.779(4) 1.205(3) 0.3769(4)
O9? O 0.769(3) 1.087(3) 0.4296(4)
loop_
_geom_bond_atom_site_label_1
_geom_bond_atom_site_label_2
_geom_bond_site_symmetry_1
_geom_bond_site_symmetry_2
O1 C1 1_555 1_555
O2 N1 1_555 1_555
O3 N1 1_555 1_555
O4 N2 1_555 1_555
O5 N2 1_555 1_555
O6 N3 1_555 1_555
O7 N3 1_555 1_555
N1 C2 1_555 1_555
N2 C4 1_555 1_555
N3 C6 1_555 1_555
C1 C2 1_555 1_555
C2 C3 1_555 1_555
C3 H1 1_555 1_555
C4 C3 1_555 1_555
C5 C4 1_555 1_555
H2 C5 1_555 1_555
C6 C1 1_555 1_555
N4 N5 1_555 1_555
N5 H3 1_555 1_555
N6 H4 1_555 1_555
H5 N6 1_555 1_555
N7 H6 1_555 1_555
H7 N7 1_555 1_555
C7 H8 1_555 1_555
H9 C7 1_555 1_555
H10 C7 1_555 1_555
C8 N4 1_555 1_555
C9 C8 1_555 1_555
H11 C9 1_555 1_555
H12 C9 1_555 1_555
H13 C9 1_555 1_555
C10 N5 1_555 1_555
O10 C11 1_555 1_555
O11 N8 1_555 1_555
O12 N8 1_555 1_555
O13 N9 1_555 1_555
O14 N9 1_555 1_555
O15 N10 1_555 1_555
O16 N10 1_555 1_555
N8 C12 1_555 1_555
N9 C14 1_555 1_555
N10 C16 1_555 1_555
C11 C12 1_555 1_555
C12 C13 1_555 1_555
C13 H14 1_555 1_555
C14 C13 1_555 1_555
C15 C14 1_555 1_555
H15 C15 1_555 1_555
C16 C11 1_555 1_555
N11 N12 1_555 1_555
N12 H16 1_555 1_555
N13 H17 1_555 1_555
H18 N13 1_555 1_555
N14 H19 1_555 1_555
H20 N14 1_555 1_555
C17 H21 1_555 1_555
H22 C17 1_555 1_555
H23 C17 1_555 1_555
C18 N11 1_555 1_555
C19 C18 1_555 1_555
H24 C19 1_555 1_555
H25 C19 1_555 1_555
H26 C19 1_555 1_555
C20 N12 1_555 1_555
C5 C6 1_555 1_555
N6 C10 1_555 1_555
N7 C10 1_555 1_555
C7 C8 1_555 1_555
C15 C16 1_555 1_555
N13 C20 1_555 1_555
N14 C20 1_555 1_555
C17 C18 1_555 1_555

#END
