
#######################################################################
#
#                 Cambridge Crystallographic Data Centre
#                                CCDC 
#
#######################################################################
#
# If this CIF has been generated from an entry in the Cambridge 
# Structural Database, then it will include bibliographic, chemical, 
# crystal, experimental, refinement or atomic coordinate data resulting 
# from the CCDC's data processing and validation procedures.
#
#######################################################################

data_DIGNIS
_chemical_formula_moiety         'C43 H8 F20 N4 O1 S1,2(C2 H3 N1)'
_chemical_name_systematic        
'2,7,12,17-tetrakis(Pentafluorophenyl)-4-oxa-21,22,23,24-tetra-azapentacyclo[16.2.1.1^3,6^.1^8,11^.1^13,16^]tetracosa-1,3(24),6,8,10,12,14,16(22),17,19-decaene-5-thione acetonitrile solvate'
_symmetry_cell_setting           orthorhombic
_symmetry_space_group_name_H-M   'P b c a'
_symmetry_Int_Tables_number      61
_space_group_name_Hall           '-P 2ac 2ab'
loop_
_symmetry_equiv_pos_site_id
_symmetry_equiv_pos_as_xyz
1 x,y,z
2 1/2-x,-y,1/2+z
3 -x,1/2+y,1/2-z
4 1/2+x,1/2-y,-z
5 -x,-y,-z
6 1/2+x,y,1/2-z
7 x,1/2-y,1/2+z
8 1/2-x,1/2+y,z
_cell_length_a                   11.9116(6)
_cell_length_b                   15.8442(9)
_cell_length_c                   22.7764(13)
_cell_angle_alpha                90
_cell_angle_beta                 90
_cell_angle_gamma                90
_cell_volume                     4298.58
_exptl_crystal_colour            'dark red'
_exptl_crystal_description       block
_cell_formula_units_Z            4
loop_
_atom_site_label
_atom_site_type_symbol
_atom_site_fract_x
_atom_site_fract_y
_atom_site_fract_z
N3 N 0.2559(8) 0.1878(6) 0.2712(3)
C22 C 0.1679(8) 0.2000(4) 0.2893(2)
C23 C 0.0590(6) 0.2154(4) 0.3133(3)
H4 H 0.0422 0.1732 0.3422
H5 H 0.0041 0.2131 0.2825
H6 H 0.0575 0.2702 0.3313
S1 S 0.0024(2) 0.32067(14) 0.62530(11)
N1 N -0.0868(2) 0.07865(17) 0.44184(11)
H1 H -0.0444 0.0481 0.4638
N2 N 0.0214(2) 0.09895(17) 0.55482(11)
F1 F 0.0069(2) 0.34361(15) 0.43595(10)
F2 F -0.0664(2) 0.50398(15) 0.44403(11)
F3 F -0.2302(2) 0.54430(14) 0.52170(12)
F4 F -0.3342(2) 0.42020(16) 0.58411(12)
F5 F -0.26636(19) 0.25896(14) 0.57332(11)
F6 F 0.33427(18) 0.11358(15) 0.65342(9)
F7 F 0.42211(19) 0.14110(16) 0.76040(10)
F8 F 0.3115(2) 0.08762(17) 0.85758(9)
F9 F 0.1153(2) 0.00210(19) 0.84687(10)
F10 F 0.02792(19) -0.02741(16) 0.73970(10)
C1 C -0.1355(3) 0.0524(2) 0.39039(14)
C2 C -0.1975(3) 0.1221(2) 0.36766(16)
H2 H -0.2386 0.1227 0.3329
C3 C -0.1859(3) 0.1877(2) 0.40596(16)
H3 H -0.2182 0.2408 0.4021
C4 C -0.1156(3) 0.1606(2) 0.45291(14)
C5 C -0.0845(3) 0.2081(2) 0.50168(14)
C6 C -0.0191(3) 0.1791(2) 0.54874(14)
C7 C 0.0132(3) 0.2301(2) 0.59881(15)
C8 C 0.0755(3) 0.0977(2) 0.60685(13)
C9 C 0.1277(3) 0.0284(2) 0.63362(14)
C10 C -0.1273(3) 0.2967(2) 0.50441(14)
C11 C -0.0796(3) 0.3605(2) 0.47174(15)
C12 C -0.1155(4) 0.4431(2) 0.47576(16)
C13 C -0.2001(3) 0.4634(2) 0.51489(17)
C14 C -0.2516(3) 0.4011(2) 0.54689(17)
C15 C -0.2159(3) 0.3187(2) 0.54116(16)
C16 C 0.1779(3) 0.0416(2) 0.69296(13)
C17 C 0.2791(3) 0.0843(2) 0.70040(14)
C18 C 0.3243(3) 0.0995(2) 0.75503(16)
C19 C 0.2684(3) 0.0722(2) 0.80443(15)
C20 C 0.1689(3) 0.0290(3) 0.79891(15)
C21 C 0.1256(3) 0.0143(2) 0.74369(15)
O1 O 0.0736(2) 0.1756(2) 0.63520(12)
S1D S -0.0024(2) -0.32067(14) 0.37470(11)
N1D N 0.0868(2) -0.07865(17) 0.55816(11)
H1D H 0.0444 -0.0481 0.5362
N2D N -0.0214(2) -0.09895(17) 0.44518(11)
F1D F -0.0069(2) -0.34361(15) 0.56405(10)
F2D F 0.0664(2) -0.50398(15) 0.55597(11)
F3D F 0.2302(2) -0.54430(14) 0.47830(12)
F4D F 0.3342(2) -0.42020(16) 0.41589(12)
F5D F 0.26636(19) -0.25896(14) 0.42668(11)
F6D F -0.33427(18) -0.11358(15) 0.34658(9)
F7D F -0.42211(19) -0.14110(16) 0.23960(10)
F8D F -0.3115(2) -0.08762(17) 0.14242(9)
F9D F -0.1153(2) -0.00210(19) 0.15313(10)
F10D F -0.02792(19) 0.02741(16) 0.26030(10)
C1D C 0.1355(3) -0.0524(2) 0.60961(14)
C2D C 0.1975(3) -0.1221(2) 0.63234(16)
H2D H 0.2386 -0.1227 0.6671
C3D C 0.1859(3) -0.1877(2) 0.59404(16)
H3D H 0.2182 -0.2408 0.5979
C4D C 0.1156(3) -0.1606(2) 0.54709(14)
C5D C 0.0845(3) -0.2081(2) 0.49832(14)
C6D C 0.0191(3) -0.1791(2) 0.45126(14)
C7D C -0.0132(3) -0.2301(2) 0.40119(15)
C8D C -0.0755(3) -0.0977(2) 0.39315(13)
C9D C -0.1277(3) -0.0284(2) 0.36638(14)
C10D C 0.1273(3) -0.2967(2) 0.49559(14)
C11D C 0.0796(3) -0.3605(2) 0.52826(15)
C12D C 0.1155(4) -0.4431(2) 0.52424(16)
C13D C 0.2001(3) -0.4634(2) 0.48511(17)
C14D C 0.2516(3) -0.4011(2) 0.45311(17)
C15D C 0.2159(3) -0.3187(2) 0.45884(16)
C16D C -0.1779(3) -0.0416(2) 0.30704(13)
C17D C -0.2791(3) -0.0843(2) 0.29960(14)
C18D C -0.3243(3) -0.0995(2) 0.24497(16)
C19D C -0.2684(3) -0.0722(2) 0.19557(15)
C20D C -0.1689(3) -0.0290(3) 0.20109(15)
C21D C -0.1256(3) -0.0143(2) 0.25631(15)
O1D O -0.0736(2) -0.1756(2) 0.36480(12)
C24? C 0.0132(3) 0.2301(2) 0.59881(15)
H7? H -0.0028 0.2867 0.6053
C25? C 0.0736(2) 0.1756(2) 0.63520(12)
H8? H 0.1061 0.1887 0.6712
loop_
_geom_bond_atom_site_label_1
_geom_bond_atom_site_label_2
_geom_bond_site_symmetry_1
_geom_bond_site_symmetry_2
S1 C7 1_555 1_555
N1 H1 1_555 1_555
N2 C6 1_555 1_555
F1 C11 1_555 1_555
F2 C12 1_555 1_555
F3 C13 1_555 1_555
F4 C14 1_555 1_555
F5 C15 1_555 1_555
F6 C17 1_555 1_555
F7 C18 1_555 1_555
F8 C19 1_555 1_555
F9 C20 1_555 1_555
F10 C21 1_555 1_555
C1 N1 1_555 1_555
C2 C1 1_555 1_555
H2 C2 1_555 1_555
C3 C2 1_555 1_555
H3 C3 1_555 1_555
C4 N1 1_555 1_555
C5 C4 1_555 1_555
C6 C5 1_555 1_555
C7 C6 1_555 1_555
C8 N2 1_555 1_555
C9 C8 1_555 1_555
C10 C5 1_555 1_555
C11 C10 1_555 1_555
C12 C11 1_555 1_555
C13 C12 1_555 1_555
C14 C13 1_555 1_555
C15 C10 1_555 1_555
C16 C9 1_555 1_555
C17 C16 1_555 1_555
C18 C17 1_555 1_555
C19 C18 1_555 1_555
C20 C19 1_555 1_555
C21 C16 1_555 1_555
O1 C7 1_555 1_555
N3 C22 1_555 1_555
C22 C23 1_555 1_555
C23 H4 1_555 1_555
H5 C23 1_555 1_555
H6 C23 1_555 1_555
S1D C7D 1_555 1_555
N1D H1D 1_555 1_555
N2D C6D 1_555 1_555
F1D C11D 1_555 1_555
F2D C12D 1_555 1_555
F3D C13D 1_555 1_555
F4D C14D 1_555 1_555
F5D C15D 1_555 1_555
F6D C17D 1_555 1_555
F7D C18D 1_555 1_555
F8D C19D 1_555 1_555
F9D C20D 1_555 1_555
F10D C21D 1_555 1_555
C1D C9 1_555 1_555
C2D C1D 1_555 1_555
H2D C2D 1_555 1_555
C3D C2D 1_555 1_555
H3D C3D 1_555 1_555
C4D N1D 1_555 1_555
C5D C4D 1_555 1_555
C6D C5D 1_555 1_555
C7D C6D 1_555 1_555
C8D N2D 1_555 1_555
C9D C1 1_555 1_555
C10D C5D 1_555 1_555
C11D C10D 1_555 1_555
C12D C11D 1_555 1_555
C13D C12D 1_555 1_555
C14D C13D 1_555 1_555
C15D C10D 1_555 1_555
C16D C9D 1_555 1_555
C17D C16D 1_555 1_555
C18D C17D 1_555 1_555
C19D C18D 1_555 1_555
C20D C19D 1_555 1_555
C21D C16D 1_555 1_555
O1D C7D 1_555 1_555
C3 C4 1_555 1_555
C8 O1 1_555 1_555
C14 C15 1_555 1_555
C20 C21 1_555 1_555
N1D C1D 1_555 1_555
C3D C4D 1_555 1_555
C8D C9D 1_555 1_555
C8D O1D 1_555 1_555
C14D C15D 1_555 1_555
C20D C21D 1_555 1_555

#END
