
#######################################################################
#
#                 Cambridge Crystallographic Data Centre
#                                CCDC 
#
#######################################################################
#
# If this CIF has been generated from an entry in the Cambridge 
# Structural Database, then it will include bibliographic, chemical, 
# crystal, experimental, refinement or atomic coordinate data resulting 
# from the CCDC's data processing and validation procedures.
#
#######################################################################

data_DIGRAP
_chemical_formula_moiety         'C36 H22 N2 O2 S3'
_chemical_name_systematic        
10-(5,5-dioxido-7-(10H-phenothiazin-10-yl)dibenzo[b,d]thiophen-3-yl)-10H-phenothiazine
_symmetry_cell_setting           monoclinic
_symmetry_space_group_name_H-M   'P 21/c'
_symmetry_Int_Tables_number      14
_space_group_name_Hall           '-P 2ybc'
loop_
_symmetry_equiv_pos_site_id
_symmetry_equiv_pos_as_xyz
1 x,y,z
2 -x,1/2+y,1/2-z
3 -x,-y,-z
4 x,1/2-y,1/2+z
_cell_length_a                   18.3663(8)
_cell_length_b                   17.8328(8)
_cell_length_c                   8.5964(4)
_cell_angle_alpha                90
_cell_angle_beta                 96.749(2)
_cell_angle_gamma                90
_cell_volume                     2796
_exptl_crystal_colour            'greenish yellow'
_exptl_crystal_description       plate
_cell_formula_units_Z            4
_exptl_crystal_recrystallization_method 
'dissolved in dichloromethane, layered with dichloromethane/Hexane'
_exptl_crystal_preparation       ', Luminescent'
loop_
_atom_site_label
_atom_site_type_symbol
_atom_site_fract_x
_atom_site_fract_y
_atom_site_fract_z
S1 S 0.55901(5) 0.39708(5) 0.59778(12)
S2 S 0.17936(6) 0.35880(6) -0.01733(13)
S3 S 0.92955(6) 0.22348(6) 0.70875(13)
O1 O 0.59674(15) 0.44635(16) 0.5011(3)
O2 O 0.53353(14) 0.42947(16) 0.7348(3)
N1 N 0.31552(17) 0.35427(19) 0.2170(4)
N2 N 0.78760(16) 0.2437(2) 0.8391(4)
C1 C 0.4896(2) 0.3463(2) 0.4838(5)
C2 C 0.4272(2) 0.3766(2) 0.4017(5)
H1 H 0.4163 0.4285 0.4078
C3 C 0.3809(2) 0.3278(2) 0.3094(5)
C4 C 0.3972(2) 0.2516(3) 0.3065(5)
H2 H 0.3648 0.2189 0.2448
C5 C 0.4597(2) 0.2224(2) 0.3919(5)
H3 H 0.4697 0.1702 0.3890
C6 C 0.5074(2) 0.2703(2) 0.4813(5)
C7 C 0.57685(19) 0.2525(3) 0.5768(5)
C8 C 0.6132(2) 0.1846(2) 0.6057(5)
H4 H 0.5913 0.1396 0.5639
C9 C 0.6808(2) 0.1823(2) 0.6950(5)
H5 H 0.7041 0.1351 0.7140
C10 C 0.7164(2) 0.2469(3) 0.7587(4)
C11 C 0.6790(2) 0.3159(2) 0.7351(5)
H6 H 0.6997 0.3609 0.7795
C12 C 0.6118(2) 0.3160(2) 0.6463(5)
C13 C 0.3225(2) 0.3984(2) 0.0816(5)
C14 C 0.2617(2) 0.4075(2) -0.0315(5)
C15 C 0.2674(2) 0.4492(2) -0.1666(5)
H7 H 0.2253 0.4563 -0.2406
C16 C 0.3335(2) 0.4803(2) -0.1939(5)
H8 H 0.3376 0.5071 -0.2881
C17 C 0.3937(2) 0.4721(2) -0.0827(5)
H9 H 0.4394 0.4933 -0.1006
C18 C 0.3877(2) 0.4329(2) 0.0555(5)
H10 H 0.4289 0.4298 0.1331
C19 C 0.2492(2) 0.3509(2) 0.2839(5)
C20 C 0.1818(2) 0.3541(2) 0.1882(5)
C21 C 0.1169(2) 0.3483(3) 0.2522(6)
H11 H 0.0717 0.3522 0.1865
C22 C 0.1166(2) 0.3368(3) 0.4120(6)
H12 H 0.0716 0.3308 0.4550
C23 C 0.1827(2) 0.3341(2) 0.5077(6)
H13 H 0.1831 0.3264 0.6172
C24 C 0.2477(2) 0.3426(2) 0.4446(5)
H14 H 0.2925 0.3429 0.5122
C25 C 0.8345(2) 0.3087(2) 0.8553(5)
C26 C 0.9022(2) 0.3057(2) 0.7977(5)
C27 C 0.9488(2) 0.3676(3) 0.8120(5)
H15 H 0.9951 0.3652 0.7732
C28 C 0.9279(3) 0.4325(3) 0.8824(5)
H16 H 0.9587 0.4755 0.8878
C29 C 0.8620(2) 0.4348(3) 0.9450(5)
H17 H 0.8480 0.4791 0.9950
C30 C 0.8163(2) 0.3731(2) 0.9354(5)
H18 H 0.7723 0.3743 0.9833
C31 C 0.8222(2) 0.1728(2) 0.8771(5)
C32 C 0.8892(2) 0.1574(2) 0.8245(5)
C33 C 0.9234(2) 0.0886(3) 0.8607(5)
H19 H 0.9695 0.0779 0.8257
C34 C 0.8903(2) 0.0358(3) 0.9476(5)
H20 H 0.9133 -0.0113 0.9708
C35 C 0.8239(2) 0.0517(3) 1.0002(5)
H21 H 0.8011 0.0155 1.0594
C36 C 0.7904(2) 0.1203(2) 0.9672(5)
H22 H 0.7453 0.1315 1.0064
loop_
_geom_bond_atom_site_label_1
_geom_bond_atom_site_label_2
_geom_bond_site_symmetry_1
_geom_bond_site_symmetry_2
S1 O1 1_555 1_555
S2 C14 1_555 1_555
S3 C26 1_555 1_555
O2 S1 1_555 1_555
N1 C3 1_555 1_555
N2 C10 1_555 1_555
C1 S1 1_555 1_555
C2 C1 1_555 1_555
H1 C2 1_555 1_555
C3 C2 1_555 1_555
C4 C3 1_555 1_555
H2 C4 1_555 1_555
C5 C4 1_555 1_555
H3 C5 1_555 1_555
C6 C1 1_555 1_555
C7 C6 1_555 1_555
C8 C7 1_555 1_555
H4 C8 1_555 1_555
C9 C8 1_555 1_555
H5 C9 1_555 1_555
C10 C9 1_555 1_555
C11 C10 1_555 1_555
H6 C11 1_555 1_555
C12 S1 1_555 1_555
C13 N1 1_555 1_555
C14 C13 1_555 1_555
C15 C14 1_555 1_555
H7 C15 1_555 1_555
C16 C15 1_555 1_555
H8 C16 1_555 1_555
C17 C16 1_555 1_555
H9 C17 1_555 1_555
C18 C13 1_555 1_555
H10 C18 1_555 1_555
C19 N1 1_555 1_555
C20 S2 1_555 1_555
C21 C20 1_555 1_555
H11 C21 1_555 1_555
C22 C21 1_555 1_555
H12 C22 1_555 1_555
C23 C22 1_555 1_555
H13 C23 1_555 1_555
C24 C19 1_555 1_555
H14 C24 1_555 1_555
C25 N2 1_555 1_555
C26 C25 1_555 1_555
C27 C26 1_555 1_555
H15 C27 1_555 1_555
C28 C27 1_555 1_555
H16 C28 1_555 1_555
C29 C28 1_555 1_555
H17 C29 1_555 1_555
C30 C25 1_555 1_555
H18 C30 1_555 1_555
C31 N2 1_555 1_555
C32 S3 1_555 1_555
C33 C32 1_555 1_555
H19 C33 1_555 1_555
C34 C33 1_555 1_555
H20 C34 1_555 1_555
C35 C34 1_555 1_555
H21 C35 1_555 1_555
C36 C31 1_555 1_555
H22 C36 1_555 1_555
C5 C6 1_555 1_555
C7 C12 1_555 1_555
C11 C12 1_555 1_555
C17 C18 1_555 1_555
C19 C20 1_555 1_555
C23 C24 1_555 1_555
C29 C30 1_555 1_555
C31 C32 1_555 1_555
C35 C36 1_555 1_555

#END
