
#######################################################################
#
#                 Cambridge Crystallographic Data Centre
#                                CCDC 
#
#######################################################################
#
# If this CIF has been generated from an entry in the Cambridge 
# Structural Database, then it will include bibliographic, chemical, 
# crystal, experimental, refinement or atomic coordinate data resulting 
# from the CCDC's data processing and validation procedures.
#
#######################################################################

data_DIGVOG
_chemical_formula_moiety         'C15 H14 N2'
_chemical_name_systematic        6-Methyl-2-phenyl-3,4-dihydroquinazoline
_symmetry_cell_setting           tetragonal
_symmetry_space_group_name_H-M   'I 41/a'
_symmetry_Int_Tables_number      88
_space_group_name_Hall           '-I 4ad'
loop_
_symmetry_equiv_pos_site_id
_symmetry_equiv_pos_as_xyz
1 x,y,z
2 -x,1/2-y,z
3 3/4-y,1/4+x,1/4+z
4 1/4+y,1/4-x,1/4+z
5 1/2+x,1/2+y,1/2+z
6 1/2-x,-y,1/2+z
7 1/4-y,3/4+x,3/4+z
8 3/4+y,3/4-x,3/4+z
9 -x,-y,-z
10 x,1/2+y,-z
11 1/4+y,3/4-x,3/4-z
12 3/4-y,3/4+x,3/4-z
13 1/2-x,1/2-y,1/2-z
14 1/2+x,y,1/2-z
15 3/4+y,1/4-x,1/4-z
16 1/4-y,1/4+x,1/4-z
_cell_length_a                   14.4293(16)
_cell_length_b                   14.4293(16)
_cell_length_c                   22.345(5)
_cell_angle_alpha                90
_cell_angle_beta                 90
_cell_angle_gamma                90
_cell_volume                     4652.33
_exptl_crystal_colour            colorless
_exptl_crystal_description       block
_chemical_melting_point          '74-75 deg.C'
_cell_formula_units_Z            16
loop_
_atom_site_label
_atom_site_type_symbol
_atom_site_fract_x
_atom_site_fract_y
_atom_site_fract_z
C1 C 1.2969(9) 0.3735(8) 0.0438(6)
H1 H 1.2716 0.3741 0.0821
C2 C 1.3922(9) 0.3728(9) 0.0349(6)
H2 H 1.4300 0.3747 0.0686
C3 C 1.4343(8) 0.3695(9) -0.0196(7)
H3 H 1.4985 0.3694 -0.0230
C4 C 1.3773(8) 0.3661(9) -0.0708(6)
H4 H 1.4030 0.3617 -0.1088
C5 C 1.2836(6) 0.3696(8) -0.0633(6)
H5 H 1.2465 0.3696 -0.0973
C6 C 1.2402(7) 0.3731(7) -0.0075(6)
C7 C 1.1379(7) 0.3732(6) 0.0006(5)
C8 C 1.0208(11) 0.3798(10) 0.0646(7)
H6 H 1.0056 0.3291 0.0913
H7 H 1.0078 0.4365 0.0864
C9 C 0.9594(9) 0.3761(6) 0.0193(5)
C10 C 0.9907(7) 0.3729(6) -0.0363(5)
C11 C 0.9305(9) 0.3695(9) -0.0844(6)
H8 H 0.9543 0.3656 -0.1230
C12 C 0.8369(7) 0.3719(8) -0.0764(6)
H9 H 0.7965 0.3720 -0.1089
C13 C 0.8031(9) 0.3742(8) -0.0165(7)
C14 C 0.8556(10) 0.3802(9) 0.0297(7)
H10 H 0.8311 0.3869 0.0680
C15 C 0.6961(8) 0.3791(10) -0.0095(6)
H11 H 0.6675 0.3738 -0.0482
H12 H 0.6792 0.4372 0.0083
H13 H 0.6754 0.3292 0.0156
N1 N 1.0885(7) 0.3710(6) -0.0468(4)
N2 N 1.1096(7) 0.3771(7) 0.0566(5)
H14 H 1.1478 0.3779 0.0861
loop_
_geom_bond_atom_site_label_1
_geom_bond_atom_site_label_2
_geom_bond_site_symmetry_1
_geom_bond_site_symmetry_2
C1 H1 1_555 1_555
C2 C1 1_555 1_555
H2 C2 1_555 1_555
C3 C2 1_555 1_555
H3 C3 1_555 1_555
C4 C3 1_555 1_555
H4 C4 1_555 1_555
C5 C4 1_555 1_555
H5 C5 1_555 1_555
C6 C1 1_555 1_555
C7 C6 1_555 1_555
C8 H6 1_555 1_555
H7 C8 1_555 1_555
C9 C8 1_555 1_555
C10 C9 1_555 1_555
C11 C10 1_555 1_555
H8 C11 1_555 1_555
C12 C11 1_555 1_555
H9 C12 1_555 1_555
C13 C12 1_555 1_555
C14 C9 1_555 1_555
H10 C14 1_555 1_555
C15 C13 1_555 1_555
H11 C15 1_555 1_555
H12 C15 1_555 1_555
H13 C15 1_555 1_555
N1 C7 1_555 1_555
N2 C7 1_555 1_555
H14 N2 1_555 1_555
C5 C6 1_555 1_555
C8 N2 1_555 1_555
C10 N1 1_555 1_555
C13 C14 1_555 1_555

#END
