
#######################################################################
#
#                 Cambridge Crystallographic Data Centre
#                                CCDC 
#
#######################################################################
#
# If this CIF has been generated from an entry in the Cambridge 
# Structural Database, then it will include bibliographic, chemical, 
# crystal, experimental, refinement or atomic coordinate data resulting 
# from the CCDC's data processing and validation procedures.
#
#######################################################################

data_DIGWEY
_chemical_formula_moiety         'C31 H31 N3 O2 S1'
_chemical_name_systematic        
N-(2,6-dimethylphenyl)-2-[(2,6-dimethylphenyl)imino]-N'-[(4-methylphenyl)sulfonyl]-2-phenylethanimidamide
_symmetry_cell_setting           triclinic
_symmetry_space_group_name_H-M   'P -1'
_symmetry_Int_Tables_number      2
_space_group_name_Hall           '-P 1'
loop_
_symmetry_equiv_pos_site_id
_symmetry_equiv_pos_as_xyz
1 x,y,z
2 -x,-y,-z
_cell_length_a                   9.1752(5)
_cell_length_b                   12.8659(6)
_cell_length_c                   23.5265(12)
_cell_angle_alpha                104.275(2)
_cell_angle_beta                 98.780(2)
_cell_angle_gamma                94.998(2)
_cell_volume                     2637.28
_cell_formula_units_Z            4
loop_
_atom_site_label
_atom_site_type_symbol
_atom_site_fract_x
_atom_site_fract_y
_atom_site_fract_z
S1 S 0.38675(5) 0.80860(4) 0.12523(2)
O1 O 0.31722(16) 0.72736(12) 0.14836(6)
O2 O 0.33540(16) 0.91343(11) 0.13923(6)
N1 N 0.37998(18) 0.75822(13) 0.05436(7)
N2 N 0.18364(18) 0.84911(13) 0.02050(7)
H1 H 0.168109 0.876370 0.056897
N3 N 0.42015(17) 0.74557(12) -0.06660(7)
C1 C 0.5798(2) 0.82518(15) 0.15165(8)
C2 C 0.6667(2) 0.74896(16) 0.12681(9)
H2 H 0.624483 0.690887 0.093036
C3 C 0.8151(2) 0.75880(17) 0.15188(9)
H3 H 0.874626 0.706940 0.134873
C4 C 0.8794(2) 0.84275(16) 0.20140(9)
C5 C 0.7909(2) 0.91904(15) 0.22463(8)
H4 H 0.833696 0.978091 0.257804
C6 C 0.6414(2) 0.91080(15) 0.20041(8)
H5 H 0.582093 0.963182 0.217025
C7 C 1.0385(2) 0.8479(2) 0.23015(11)
H6 H 1.082762 0.923661 0.246145
H7 H 1.094002 0.810947 0.200431
H8 H 1.042758 0.812372 0.262631
C8 C 0.2876(2) 0.78292(15) 0.01328(8)
C9 C 0.2995(2) 0.72231(14) -0.04934(8)
C10 C 0.1738(2) 0.63612(15) -0.08138(8)
C11 C 0.0994(2) 0.63401(17) -0.13778(9)
H9 H 0.129724 0.687134 -0.156861
C12 C -0.0189(2) 0.55460(19) -0.16625(10)
H10 H -0.070595 0.554069 -0.204543
C13 C -0.0619(2) 0.47618(17) -0.13908(11)
H11 H -0.142155 0.421133 -0.158928
C14 C 0.0115(2) 0.47783(17) -0.08325(10)
H12 H -0.018219 0.423692 -0.064713
C15 C 0.1282(2) 0.55782(16) -0.05391(9)
H13 H 0.177219 0.559287 -0.015055
C16 C 0.0954(2) 0.87849(15) -0.02788(8)
C17 C -0.0540(2) 0.83383(16) -0.04612(9)
C18 C -0.1362(2) 0.86391(19) -0.09295(10)
H14 H -0.237668 0.834230 -0.106802
C19 C -0.0724(3) 0.9362(2) -0.11945(9)
H15 H -0.129970 0.955454 -0.151479
C20 C 0.0743(3) 0.98062(18) -0.09989(9)
H16 H 0.116664 1.030501 -0.118534
C21 C 0.1612(2) 0.95351(16) -0.05327(9)
C22 C -0.1255(3) 0.75602(18) -0.01743(12)
H17 H -0.233492 0.756259 -0.024634
H18 H -0.087365 0.777741 0.025594
H19 H -0.102377 0.683123 -0.034476
C23 C 0.3193(2) 1.00510(17) -0.03044(11)
H20 H 0.341830 1.061091 -0.050643
H21 H 0.386287 0.950019 -0.038368
H22 H 0.333071 1.037892 0.012605
C24 C 0.4522(2) 0.68003(15) -0.12075(8)
C25 C 0.4415(2) 0.71952(15) -0.17152(8)
C26 C 0.4790(2) 0.65534(16) -0.22253(9)
H23 H 0.468616 0.679081 -0.257936
C27 C 0.5312(2) 0.55768(16) -0.22289(9)
H24 H 0.556747 0.515135 -0.258211
C28 C 0.5462(2) 0.52196(16) -0.17160(9)
H25 H 0.583600 0.455308 -0.171853
C29 C 0.5073(2) 0.58233(15) -0.11983(8)
C30 C 0.3940(2) 0.82895(16) -0.17045(9)
H26 H 0.385442 0.840122 -0.210486
H27 H 0.468157 0.885182 -0.142576
H28 H 0.297487 0.832794 -0.157574
C31 C 0.5264(2) 0.54371(16) -0.06398(9)
H29 H 0.577206 0.603126 -0.030124
H30 H 0.585883 0.483484 -0.068979
H31 H 0.428581 0.519409 -0.056526
S2 S 1.24032(5) 0.81689(4) 0.62624(2)
O3 O 1.32861(16) 0.92071(12) 0.64996(7)
O4 O 1.30584(16) 0.72604(11) 0.64037(6)
N4 N 1.18289(19) 0.79980(13) 0.55571(7)
N5 N 1.34101(18) 0.67060(13) 0.52145(7)
N6 N 1.02656(18) 0.68693(12) 0.43633(7)
C32 C 1.0710(2) 0.82412(15) 0.65283(8)
C33 C 0.9608(2) 0.87581(16) 0.62847(9)
H32 H 0.971641 0.902177 0.594816
C34 C 0.8350(2) 0.88845(17) 0.65383(9)
H33 H 0.759148 0.923421 0.636958
C35 C 0.8163(2) 0.85143(16) 0.70333(9)
C36 C 0.9279(2) 0.79920(16) 0.72665(9)
H34 H 0.917112 0.772758 0.760287
C37 C 1.0549(2) 0.78493(15) 0.70171(8)
H35 H 1.130007 0.748676 0.717979
C38 C 0.6801(2) 0.86926(19) 0.73083(10)
H36 H 0.685701 0.945828 0.751815
H37 H 0.674314 0.825132 0.759136
H38 H 0.591284 0.848434 0.699477
C39 C 1.2339(2) 0.73249(15) 0.51430(8)
C40 C 1.1609(2) 0.73003(14) 0.45154(8)
C41 C 1.2504(2) 0.78429(15) 0.41671(8)
C42 C 1.3271(2) 0.88760(17) 0.44297(10)
H39 H 1.322957 0.923409 0.483047
C43 C 1.4098(2) 0.93782(18) 0.41005(11)
H40 H 1.461600 1.008452 0.427729
C44 C 1.4174(2) 0.8863(2) 0.35215(11)
H41 H 1.474109 0.921371 0.330037
C45 C 1.3428(2) 0.7835(2) 0.32614(10)
H42 H 1.348609 0.747826 0.286229
C46 C 1.2593(2) 0.73248(17) 0.35822(9)
H43 H 1.207998 0.661816 0.340205
C47 C 1.3821(2) 0.59398(15) 0.47236(8)
C48 C 1.5105(2) 0.62146(19) 0.45165(10)
C49 C 1.5464(3) 0.5468(3) 0.40422(12)
H44 H 1.632116 0.563728 0.388471
C50 C 1.4595(4) 0.4483(3) 0.37952(11)
H45 H 1.485529 0.398110 0.346872
C51 C 1.3354(3) 0.4224(2) 0.40187(10)
H46 H 1.277143 0.353856 0.384750
C52 C 1.2938(2) 0.49457(16) 0.44898(9)
C53 C 1.6085(3) 0.7273(2) 0.47908(15)
H47 H 1.575853 0.781111 0.458503
H48 H 1.711664 0.717644 0.475263
H49 H 1.601944 0.752220 0.521363
C54 C 1.1604(3) 0.4663(2) 0.47450(13)
H50 H 1.190246 0.474174 0.517309
H51 H 1.117143 0.391304 0.454595
H52 H 1.086406 0.514794 0.468259
C55 C 0.9347(2) 0.69528(15) 0.38350(8)
C56 C 0.8922(2) 0.60407(15) 0.33502(9)
C57 C 0.7918(2) 0.61301(17) 0.28622(9)
H53 H 0.764486 0.552911 0.252146
C58 C 0.7314(2) 0.70769(18) 0.28649(9)
H54 H 0.661422 0.711936 0.253195
C59 C 0.7729(2) 0.79620(17) 0.33531(9)
H55 H 0.730830 0.861074 0.335258
C60 C 0.8752(2) 0.79209(15) 0.38450(8)
C61 C 0.9494(3) 0.49813(16) 0.33561(10)
H56 H 0.908261 0.468033 0.365089
H57 H 1.058203 0.510006 0.346099
H58 H 0.919019 0.447393 0.296026
C62 C 0.9162(2) 0.88840(16) 0.43808(9)
H59 H 0.908313 0.865223 0.474288
H60 H 0.848503 0.942131 0.434306
H61 H 1.018607 0.920483 0.440486
H62? H 0.988833 0.650730 0.459076
loop_
_geom_bond_atom_site_label_1
_geom_bond_atom_site_label_2
_geom_bond_site_symmetry_1
_geom_bond_site_symmetry_2
S1 O1 1_555 1_555
O2 S1 1_555 1_555
N1 S1 1_555 1_555
N2 H1 1_555 1_555
N3 C9 1_555 1_555
C1 S1 1_555 1_555
C2 C1 1_555 1_555
H2 C2 1_555 1_555
C3 C2 1_555 1_555
H3 C3 1_555 1_555
C4 C3 1_555 1_555
C5 C4 1_555 1_555
H4 C5 1_555 1_555
C6 C1 1_555 1_555
H5 C6 1_555 1_555
C7 C4 1_555 1_555
H6 C7 1_555 1_555
H7 C7 1_555 1_555
H8 C7 1_555 1_555
C8 N1 1_555 1_555
C9 C8 1_555 1_555
C10 C9 1_555 1_555
C11 C10 1_555 1_555
H9 C11 1_555 1_555
C12 C11 1_555 1_555
H10 C12 1_555 1_555
C13 C12 1_555 1_555
H11 C13 1_555 1_555
C14 C13 1_555 1_555
H12 C14 1_555 1_555
C15 C10 1_555 1_555
H13 C15 1_555 1_555
C16 N2 1_555 1_555
C17 C16 1_555 1_555
C18 C17 1_555 1_555
H14 C18 1_555 1_555
C19 C18 1_555 1_555
H15 C19 1_555 1_555
C20 C19 1_555 1_555
H16 C20 1_555 1_555
C21 C16 1_555 1_555
C22 C17 1_555 1_555
H17 C22 1_555 1_555
H18 C22 1_555 1_555
H19 C22 1_555 1_555
C23 C21 1_555 1_555
H20 C23 1_555 1_555
H21 C23 1_555 1_555
H22 C23 1_555 1_555
C24 N3 1_555 1_555
C25 C24 1_555 1_555
C26 C25 1_555 1_555
H23 C26 1_555 1_555
C27 C26 1_555 1_555
H24 C27 1_555 1_555
C28 C27 1_555 1_555
H25 C28 1_555 1_555
C29 C24 1_555 1_555
C30 C25 1_555 1_555
H26 C30 1_555 1_555
H27 C30 1_555 1_555
H28 C30 1_555 1_555
C31 C29 1_555 1_555
H29 C31 1_555 1_555
H30 C31 1_555 1_555
H31 C31 1_555 1_555
S2 O3 1_555 1_555
O4 S2 1_555 1_555
N4 S2 1_555 1_555
N5 C39 1_555 1_555
N6 C40 1_555 1_555
C32 S2 1_555 1_555
C33 C32 1_555 1_555
H32 C33 1_555 1_555
C34 C33 1_555 1_555
H33 C34 1_555 1_555
C35 C34 1_555 1_555
C36 C35 1_555 1_555
H34 C36 1_555 1_555
C37 C32 1_555 1_555
H35 C37 1_555 1_555
C38 C35 1_555 1_555
H36 C38 1_555 1_555
H37 C38 1_555 1_555
H38 C38 1_555 1_555
C39 N4 1_555 1_555
C40 C39 1_555 1_555
C41 C40 1_555 1_555
C42 C41 1_555 1_555
H39 C42 1_555 1_555
C43 C42 1_555 1_555
H40 C43 1_555 1_555
C44 C43 1_555 1_555
H41 C44 1_555 1_555
C45 C44 1_555 1_555
H42 C45 1_555 1_555
C46 C41 1_555 1_555
H43 C46 1_555 1_555
C47 N5 1_555 1_555
C48 C47 1_555 1_555
C49 C48 1_555 1_555
H44 C49 1_555 1_555
C50 C49 1_555 1_555
H45 C50 1_555 1_555
C51 C50 1_555 1_555
H46 C51 1_555 1_555
C52 C47 1_555 1_555
C53 C48 1_555 1_555
H47 C53 1_555 1_555
H48 C53 1_555 1_555
H49 C53 1_555 1_555
C54 C52 1_555 1_555
H50 C54 1_555 1_555
H51 C54 1_555 1_555
H52 C54 1_555 1_555
C55 N6 1_555 1_555
C56 C55 1_555 1_555
C57 C56 1_555 1_555
H53 C57 1_555 1_555
C58 C57 1_555 1_555
H54 C58 1_555 1_555
C59 C58 1_555 1_555
H55 C59 1_555 1_555
C60 C55 1_555 1_555
C61 C56 1_555 1_555
H56 C61 1_555 1_555
H57 C61 1_555 1_555
H58 C61 1_555 1_555
C62 C60 1_555 1_555
H59 C62 1_555 1_555
H60 C62 1_555 1_555
H61 C62 1_555 1_555
N2 C8 1_555 1_555
C5 C6 1_555 1_555
C14 C15 1_555 1_555
C20 C21 1_555 1_555
C28 C29 1_555 1_555
C36 C37 1_555 1_555
C45 C46 1_555 1_555
C51 C52 1_555 1_555
C59 C60 1_555 1_555

#END
