
#######################################################################
#
#                 Cambridge Crystallographic Data Centre
#                                CCDC 
#
#######################################################################
#
# If this CIF has been generated from an entry in the Cambridge 
# Structural Database, then it will include bibliographic, chemical, 
# crystal, experimental, refinement or atomic coordinate data resulting 
# from the CCDC's data processing and validation procedures.
#
#######################################################################

data_DIGYEY
_chemical_formula_moiety         'C36 H45 N1 O3 Si1'
_chemical_name_systematic        
11-n-butyl-1-(((t-butyl(diphenyl)silyl)oxy)methyl)-1,2,3,5,6,7-hexahydro-9H-pyran[4,3-b]pyrrolo[2,1-j]quinoline-9(4H)-one
_symmetry_cell_setting           triclinic
_symmetry_space_group_name_H-M   'P -1'
_symmetry_Int_Tables_number      2
_space_group_name_Hall           '-P 1'
loop_
_symmetry_equiv_pos_site_id
_symmetry_equiv_pos_as_xyz
1 x,y,z
2 -x,-y,-z
_cell_length_a                   8.4361(10)
_cell_length_b                   12.9522(13)
_cell_length_c                   15.2727(19)
_cell_angle_alpha                87.479(5)
_cell_angle_beta                 82.149(4)
_cell_angle_gamma                72.171(5)
_cell_volume                     1573.75
_exptl_crystal_colour            yellow
_exptl_crystal_description       Plate
_cell_formula_units_Z            2
loop_
_atom_site_label
_atom_site_type_symbol
_atom_site_fract_x
_atom_site_fract_y
_atom_site_fract_z
N1 N 0.10137(16) 0.51189(11) 0.21454(9)
C1 C 0.27809(19) 0.44201(12) 0.20922(11)
H1 H 0.3268 0.4485 0.2641
C2 C 0.3659(2) 0.48819(14) 0.12892(11)
H2 H 0.4171 0.5415 0.1477
H3 H 0.4544 0.4296 0.0953
C3 C 0.2246(2) 0.54293(13) 0.07310(11)
H4 H 0.2006 0.4891 0.0371
H5 H 0.2539 0.5988 0.0335
C4 C 0.0746(2) 0.59439(12) 0.14289(10)
C5 C 0.0791(2) 0.70484(13) 0.17590(11)
H6 H -0.0080 0.7293 0.2274
H7 H 0.1898 0.6963 0.1951
C6 C 0.0477(2) 0.79054(13) 0.10200(11)
H8 H 0.0421 0.8616 0.1258
H9 H 0.1433 0.7705 0.0541
C7 C -0.1152(2) 0.80113(13) 0.06361(12)
H10 H -0.1218 0.8497 0.0115
H11 H -0.2121 0.8349 0.1083
C8 C -0.1271(2) 0.69075(14) 0.03597(11)
H12 H -0.2396 0.6995 0.0189
H13 H -0.0418 0.6612 -0.0152
C9 C -0.0971(2) 0.61494(12) 0.11390(10)
C10 C -0.2190(2) 0.58864(12) 0.16703(11)
H14 H -0.3273 0.6049 0.1488
C11 C -0.1899(2) 0.53567(12) 0.25220(10)
C12 C -0.3265(2) 0.52070(12) 0.31177(11)
O1 O -0.47531(15) 0.54985(10) 0.30268(8)
O2 O -0.28744(14) 0.46491(9) 0.39088(7)
C13 C -0.1268(2) 0.42887(12) 0.41161(11)
C14 C 0.0036(2) 0.44130(13) 0.35557(10)
H15 H 0.1146 0.4138 0.3705
C15 C -0.0263(2) 0.49679(12) 0.27260(10)
C16 C -0.1200(2) 0.37474(14) 0.50023(11)
H16 H -0.2114 0.4194 0.5431
H17 H -0.0118 0.3698 0.5211
C17 C -0.1377(2) 0.26084(14) 0.49700(11)
H18 H -0.2348 0.2643 0.4659
H19 H -0.0358 0.2130 0.4625
C18 C -0.1623(2) 0.21135(15) 0.58853(11)
H20 H -0.0616 0.2023 0.6181
H21 H -0.2597 0.2612 0.6247
C19 C -0.1918(3) 0.10170(16) 0.58279(14)
H22 H -0.2071 0.0721 0.6424
H23 H -0.0947 0.0518 0.5479
H24 H -0.2927 0.1106 0.5544
C20 C 0.2871(2) 0.32437(13) 0.19411(11)
H25 H 0.2255 0.2977 0.2455
H26 H 0.2348 0.3194 0.1409
O3 O 0.45909(14) 0.25997(9) 0.18273(7)
Si1 Si 0.54202(5) 0.15576(3) 0.24526(3)
C21 C 0.4571(2) 0.19066(13) 0.36419(10)
C22 C 0.4688(2) 0.28636(13) 0.39948(11)
H27 H 0.5184 0.3321 0.3625
C23 C 0.4092(2) 0.31535(15) 0.48730(12)
H28 H 0.4202 0.3796 0.5099
C24 C 0.3339(2) 0.25076(16) 0.54194(11)
H29 H 0.2929 0.2708 0.6018
C25 C 0.3183(2) 0.15633(16) 0.50882(12)
H30 H 0.2659 0.1121 0.5459
C26 C 0.3797(2) 0.12690(14) 0.42110(11)
H31 H 0.3690 0.0621 0.3992
C27 C 0.48769(19) 0.03454(13) 0.21057(10)
C28 C 0.5267(2) -0.06504(13) 0.25565(11)
H32 H 0.5785 -0.0714 0.3079
C29 C 0.4916(2) -0.15437(14) 0.22595(12)
H33 H 0.5182 -0.2205 0.2582
C30 C 0.4177(2) -0.14714(14) 0.14924(13)
H34 H 0.3947 -0.2085 0.1285
C31 C 0.3775(2) -0.05008(15) 0.10300(13)
H35 H 0.3264 -0.0447 0.0506
C32 C 0.4121(2) 0.03980(14) 0.13337(11)
H36 H 0.3839 0.1059 0.1012
C33 C 0.7759(2) 0.13312(13) 0.21899(11)
C34 C 0.8730(2) 0.04222(16) 0.27674(12)
H37 H 0.9938 0.0304 0.2611
H38 H 0.8468 -0.0247 0.2670
H39 H 0.8404 0.0629 0.3391
C35 C 0.8275(2) 0.09948(15) 0.12117(11)
H40 H 0.9486 0.0865 0.1058
H41 H 0.7669 0.1576 0.0838
H42 H 0.7998 0.0330 0.1117
C36 C 0.8223(2) 0.23701(16) 0.23243(14)
H43 H 0.9421 0.2244 0.2125
H44 H 0.7981 0.2563 0.2952
H45 H 0.7561 0.2964 0.1981
loop_
_geom_bond_atom_site_label_1
_geom_bond_atom_site_label_2
_geom_bond_site_symmetry_1
_geom_bond_site_symmetry_2
N1 C1 1_555 1_555
C1 H1 1_555 1_555
C2 C1 1_555 1_555
H2 C2 1_555 1_555
H3 C2 1_555 1_555
C3 C2 1_555 1_555
H4 C3 1_555 1_555
H5 C3 1_555 1_555
C4 N1 1_555 1_555
C5 C4 1_555 1_555
H6 C5 1_555 1_555
H7 C5 1_555 1_555
C6 C5 1_555 1_555
H8 C6 1_555 1_555
H9 C6 1_555 1_555
C7 C6 1_555 1_555
H10 C7 1_555 1_555
H11 C7 1_555 1_555
C8 C7 1_555 1_555
H12 C8 1_555 1_555
H13 C8 1_555 1_555
C9 C4 1_555 1_555
C10 C9 1_555 1_555
H14 C10 1_555 1_555
C11 C10 1_555 1_555
C12 C11 1_555 1_555
O1 C12 1_555 1_555
O2 C12 1_555 1_555
C13 O2 1_555 1_555
C14 C13 1_555 1_555
H15 C14 1_555 1_555
C15 N1 1_555 1_555
C16 C13 1_555 1_555
H16 C16 1_555 1_555
H17 C16 1_555 1_555
C17 C16 1_555 1_555
H18 C17 1_555 1_555
H19 C17 1_555 1_555
C18 C17 1_555 1_555
H20 C18 1_555 1_555
H21 C18 1_555 1_555
C19 C18 1_555 1_555
H22 C19 1_555 1_555
H23 C19 1_555 1_555
H24 C19 1_555 1_555
C20 C1 1_555 1_555
H25 C20 1_555 1_555
H26 C20 1_555 1_555
O3 C20 1_555 1_555
Si1 O3 1_555 1_555
C21 Si1 1_555 1_555
C22 C21 1_555 1_555
H27 C22 1_555 1_555
C23 C22 1_555 1_555
H28 C23 1_555 1_555
C24 C23 1_555 1_555
H29 C24 1_555 1_555
C25 C24 1_555 1_555
H30 C25 1_555 1_555
C26 C21 1_555 1_555
H31 C26 1_555 1_555
C27 Si1 1_555 1_555
C28 C27 1_555 1_555
H32 C28 1_555 1_555
C29 C28 1_555 1_555
H33 C29 1_555 1_555
C30 C29 1_555 1_555
H34 C30 1_555 1_555
C31 C30 1_555 1_555
H35 C31 1_555 1_555
C32 C27 1_555 1_555
H36 C32 1_555 1_555
C33 Si1 1_555 1_555
C34 C33 1_555 1_555
H37 C34 1_555 1_555
H38 C34 1_555 1_555
H39 C34 1_555 1_555
C35 C33 1_555 1_555
H40 C35 1_555 1_555
H41 C35 1_555 1_555
H42 C35 1_555 1_555
C36 C33 1_555 1_555
H43 C36 1_555 1_555
H44 C36 1_555 1_555
H45 C36 1_555 1_555
C3 C4 1_555 1_555
C8 C9 1_555 1_555
C11 C15 1_555 1_555
C14 C15 1_555 1_555
C25 C26 1_555 1_555
C31 C32 1_555 1_555

#END
