
#######################################################################
#
#                 Cambridge Crystallographic Data Centre
#                                CCDC 
#
#######################################################################
#
# If this CIF has been generated from an entry in the Cambridge 
# Structural Database, then it will include bibliographic, chemical, 
# crystal, experimental, refinement or atomic coordinate data resulting 
# from the CCDC's data processing and validation procedures.
#
#######################################################################

data_DIGYOI
_chemical_formula_moiety         'C20 H22 Cl1 N1 O3'
_chemical_name_systematic        
5-Benzyl-9a-chloro-10-hydroxy-3-methyl-5,5a,6,7,8,9,9a,10-octahydro-1H-pyrano[4,3-b]quinolin-1-one
_symmetry_cell_setting           monoclinic
_symmetry_space_group_name_H-M   'P 21/c'
_symmetry_Int_Tables_number      14
_space_group_name_Hall           '-P 2ybc'
loop_
_symmetry_equiv_pos_site_id
_symmetry_equiv_pos_as_xyz
1 x,y,z
2 -x,1/2+y,1/2-z
3 -x,-y,-z
4 x,1/2-y,1/2+z
_cell_length_a                   13.6782(12)
_cell_length_b                   11.4078(9)
_cell_length_c                   23.234(2)
_cell_angle_alpha                90
_cell_angle_beta                 106.106(2)
_cell_angle_gamma                90
_cell_volume                     3483.09
_exptl_crystal_colour            colorless
_exptl_crystal_description       plate
_cell_formula_units_Z            8
loop_
_atom_site_label
_atom_site_type_symbol
_atom_site_fract_x
_atom_site_fract_y
_atom_site_fract_z
Cl1 Cl 0.20750(6) 0.01339(7) 0.15317(4)
O1 O 0.24370(17) 0.40928(19) 0.13278(10)
O2 O 0.32940(15) 0.36533(19) 0.06817(9)
O3 O 0.36884(14) 0.26660(17) 0.25528(9)
H1 H 0.3365 0.2770 0.2808
N1 N 0.43664(17) 0.0566(2) 0.15606(11)
C1 C 0.3020(2) 0.3376(3) 0.12039(14)
C2 C 0.3401(2) 0.2333(3) 0.15069(13)
C3 C 0.3063(2) 0.2044(3) 0.20492(13)
H2 H 0.2343 0.2310 0.1980
C4 C 0.3106(2) 0.0720(3) 0.21529(13)
C5 C 0.2866(2) 0.0316(3) 0.27311(13)
H3 H 0.2296 0.0794 0.2788
H4 H 0.2635 -0.0509 0.2680
C6 C 0.3762(2) 0.0406(3) 0.32994(14)
H5 H 0.3892 0.1241 0.3409
H6 H 0.3580 0.0006 0.3634
C7 C 0.4723(2) -0.0142(3) 0.32116(14)
H7 H 0.4629 -0.1001 0.3163
H8 H 0.5298 0.0001 0.3572
C8 C 0.4978(2) 0.0364(3) 0.26632(13)
H9 H 0.5602 -0.0014 0.2615
H10 H 0.5112 0.1215 0.2721
C9 C 0.4097(2) 0.0162(3) 0.20976(13)
H11 H 0.3980 -0.0703 0.2056
C10 C 0.4049(2) 0.1606(3) 0.13013(13)
C11 C 0.4361(2) 0.2000(3) 0.07907(13)
H12 H 0.4852 0.1562 0.0661
C12 C 0.3973(2) 0.2969(3) 0.04981(14)
C13 C 0.4170(3) 0.3443(3) -0.00572(15)
H13 H 0.4779 0.3072 -0.0118
H14 H 0.4274 0.4292 -0.0017
H15 H 0.3585 0.3277 -0.0401
C14 C 0.4970(2) -0.0282(3) 0.13187(14)
H16 H 0.5391 -0.0757 0.1653
H17 H 0.5435 0.0155 0.1138
C15 C 0.4321(2) -0.1094(3) 0.08538(14)
C16 C 0.3961(2) -0.0764(3) 0.02569(14)
H18 H 0.4127 -0.0012 0.0136
C17 C 0.3363(2) -0.1515(3) -0.01642(15)
H19 H 0.3130 -0.1281 -0.0572
C18 C 0.3104(2) -0.2606(3) 0.00079(17)
H20 H 0.2690 -0.3120 -0.0280
C19 C 0.3451(3) -0.2945(3) 0.05989(17)
H21 H 0.3271 -0.3692 0.0719
C20 C 0.4062(2) -0.2196(3) 0.10180(15)
H22 H 0.4306 -0.2441 0.1423
Cl2 Cl 0.69402(5) 0.20619(7) 0.18627(3)
O4 O 0.72535(16) -0.19246(19) 0.15698(9)
O5 O 0.80040(15) -0.13835(18) 0.08892(9)
O6 O 0.85294(15) -0.05806(17) 0.27941(9)
H23 H 0.8235 -0.0682 0.3063
N2 N 0.91920(18) 0.1602(2) 0.18433(11)
C21 C 0.7788(2) -0.1169(3) 0.14360(14)
C22 C 0.8186(2) -0.0145(3) 0.17549(13)
C23 C 0.7892(2) 0.0093(3) 0.23198(13)
H24 H 0.7171 -0.0158 0.2260
C24 C 0.7976(2) 0.1414(3) 0.24619(13)
C25 C 0.7776(2) 0.1765(3) 0.30513(13)
H25 H 0.7210 0.1280 0.3109
H26 H 0.7550 0.2592 0.3021
C26 C 0.8690(2) 0.1634(3) 0.36084(14)
H27 H 0.8531 0.2015 0.3954
H28 H 0.8815 0.0792 0.3703
C27 C 0.9646(2) 0.2183(3) 0.35123(14)
H29 H 0.9556 0.3043 0.3471
H30 H 1.0231 0.2026 0.3865
C28 C 0.9866(2) 0.1688(3) 0.29535(14)
H31 H 0.9972 0.0830 0.2997
H32 H 1.0496 0.2045 0.2901
C29 C 0.8972(2) 0.1949(3) 0.24041(13)
H33 H 0.8878 0.2819 0.2388
C30 C 0.8805(2) 0.0609(3) 0.15460(14)
C31 C 0.9010(2) 0.0324(3) 0.09870(14)
H34 H 0.9444 0.0815 0.0836
C32 C 0.8594(2) -0.0628(3) 0.06788(14)
C33 C 0.8687(3) -0.1009(3) 0.00826(15)
H35 H 0.8985 -0.1796 0.0116
H36 H 0.9126 -0.0459 -0.0054
H37 H 0.8012 -0.1021 -0.0206
C34 C 0.9907(2) 0.2376(3) 0.16507(14)
H38 H 1.0369 0.1882 0.1493
H39 H 1.0328 0.2794 0.2007
C35 C 0.9421(2) 0.3274(3) 0.11803(14)
C36 C 0.9637(3) 0.3277(3) 0.06342(17)
H40 H 1.0067 0.2689 0.0547
C37 C 0.9233(4) 0.4131(4) 0.02130(17)
H41 H 0.9383 0.4120 -0.0162
C38 C 0.8616(3) 0.4993(4) 0.03314(19)
H42 H 0.8341 0.5578 0.0041
C39 C 0.8401(3) 0.5001(3) 0.08754(17)
H43 H 0.7981 0.5599 0.0964
C40 C 0.8793(2) 0.4147(3) 0.12910(15)
H44 H 0.8630 0.4155 0.1663
loop_
_geom_bond_atom_site_label_1
_geom_bond_atom_site_label_2
_geom_bond_site_symmetry_1
_geom_bond_site_symmetry_2
Cl1 C4 1_555 1_555
O1 C1 1_555 1_555
O2 C1 1_555 1_555
O3 H1 1_555 1_555
N1 C9 1_555 1_555
C1 C2 1_555 1_555
C2 C3 1_555 1_555
C3 O3 1_555 1_555
H2 C3 1_555 1_555
C4 C3 1_555 1_555
C5 C4 1_555 1_555
H3 C5 1_555 1_555
H4 C5 1_555 1_555
C6 C5 1_555 1_555
H5 C6 1_555 1_555
H6 C6 1_555 1_555
C7 C6 1_555 1_555
H7 C7 1_555 1_555
H8 C7 1_555 1_555
C8 C7 1_555 1_555
H9 C8 1_555 1_555
H10 C8 1_555 1_555
C9 C4 1_555 1_555
H11 C9 1_555 1_555
C10 N1 1_555 1_555
C11 C10 1_555 1_555
H12 C11 1_555 1_555
C12 O2 1_555 1_555
C13 C12 1_555 1_555
H13 C13 1_555 1_555
H14 C13 1_555 1_555
H15 C13 1_555 1_555
C14 N1 1_555 1_555
H16 C14 1_555 1_555
H17 C14 1_555 1_555
C15 C14 1_555 1_555
C16 C15 1_555 1_555
H18 C16 1_555 1_555
C17 C16 1_555 1_555
H19 C17 1_555 1_555
C18 C17 1_555 1_555
H20 C18 1_555 1_555
C19 C18 1_555 1_555
H21 C19 1_555 1_555
C20 C15 1_555 1_555
H22 C20 1_555 1_555
Cl2 C24 1_555 1_555
O4 C21 1_555 1_555
O5 C21 1_555 1_555
O6 H23 1_555 1_555
N2 C29 1_555 1_555
C21 C22 1_555 1_555
C22 C23 1_555 1_555
C23 O6 1_555 1_555
H24 C23 1_555 1_555
C24 C23 1_555 1_555
C25 C24 1_555 1_555
H25 C25 1_555 1_555
H26 C25 1_555 1_555
C26 C25 1_555 1_555
H27 C26 1_555 1_555
H28 C26 1_555 1_555
C27 C26 1_555 1_555
H29 C27 1_555 1_555
H30 C27 1_555 1_555
C28 C27 1_555 1_555
H31 C28 1_555 1_555
H32 C28 1_555 1_555
C29 C24 1_555 1_555
H33 C29 1_555 1_555
C30 N2 1_555 1_555
C31 C30 1_555 1_555
H34 C31 1_555 1_555
C32 O5 1_555 1_555
C33 C32 1_555 1_555
H35 C33 1_555 1_555
H36 C33 1_555 1_555
H37 C33 1_555 1_555
C34 N2 1_555 1_555
H38 C34 1_555 1_555
H39 C34 1_555 1_555
C35 C34 1_555 1_555
C36 C35 1_555 1_555
H40 C36 1_555 1_555
C37 C36 1_555 1_555
H41 C37 1_555 1_555
C38 C37 1_555 1_555
H42 C38 1_555 1_555
C39 C38 1_555 1_555
H43 C39 1_555 1_555
C40 C35 1_555 1_555
H44 C40 1_555 1_555
C2 C10 1_555 1_555
C8 C9 1_555 1_555
C11 C12 1_555 1_555
C19 C20 1_555 1_555
C22 C30 1_555 1_555
C28 C29 1_555 1_555
C31 C32 1_555 1_555
C39 C40 1_555 1_555

#END
