
#######################################################################
#
#                 Cambridge Crystallographic Data Centre
#                                CCDC 
#
#######################################################################
#
# If this CIF has been generated from an entry in the Cambridge 
# Structural Database, then it will include bibliographic, chemical, 
# crystal, experimental, refinement or atomic coordinate data resulting 
# from the CCDC's data processing and validation procedures.
#
#######################################################################

data_DIGZUR
_chemical_formula_moiety         'C46 H38 O2'
_chemical_name_systematic        
7-t-butyl-5,9-bis(4-methoxyphenyl)-1,3-diphenylpyrene
_symmetry_cell_setting           triclinic
_symmetry_space_group_name_H-M   'P -1'
_symmetry_Int_Tables_number      2
_space_group_name_Hall           '-P 1'
loop_
_symmetry_equiv_pos_site_id
_symmetry_equiv_pos_as_xyz
1 x,y,z
2 -x,-y,-z
_cell_length_a                   11.561(2)
_cell_length_b                   20.663(4)
_cell_length_c                   28.603(5)
_cell_angle_alpha                99.883(6)
_cell_angle_beta                 90.591(6)
_cell_angle_gamma                94.939(6)
_cell_volume                     6704.24
_exptl_crystal_colour            colorless
_exptl_crystal_description       block
_cell_formula_units_Z            8
loop_
_atom_site_label
_atom_site_type_symbol
_atom_site_fract_x
_atom_site_fract_y
_atom_site_fract_z
O1 O 0.30530(11) -0.35500(6) 0.41541(4)
O2 O 0.64817(13) 0.20342(7) 0.16574(4)
C1 C 0.60637(15) -0.01313(9) 0.36884(6)
C2 C 0.67939(15) 0.01652(9) 0.40886(6)
C3 C 0.40913(15) -0.18223(9) 0.44638(6)
H1 H 0.3970 -0.1463 0.4708
C4 C 0.82290(16) 0.07478(9) 0.48639(6)
H2 H 0.8743 0.0937 0.5122
C5 C 0.87590(15) 0.17557(9) 0.45182(6)
C6 C 0.76553(16) -0.01236(8) 0.53354(6)
C7 C 0.53814(15) -0.07383(9) 0.36918(6)
C8 C 0.75816(15) 0.01486(9) 0.48846(6)
C9 C 0.50311(15) -0.22677(9) 0.37548(6)
H3 H 0.5552 -0.2212 0.3507
C10 C 0.66283(15) 0.11272(9) 0.28510(6)
C11 C 0.61976(15) -0.07799(9) 0.44748(6)
H4 H 0.6254 -0.1003 0.4737
C12 C 0.45242(16) -0.06849(9) 0.29118(6)
C13 C 0.65246(16) 0.17649(9) 0.20609(6)
C14 C 0.48579(14) -0.17258(9) 0.41028(6)
C15 C 0.81511(15) 0.10787(9) 0.44793(6)
C16 C 0.59735(15) 0.01821(9) 0.32832(6)
C17 C 0.74375(15) 0.07835(9) 0.40816(6)
C18 C 0.54982(15) -0.10684(9) 0.40962(6)
C19 C 0.66760(15) 0.07971(9) 0.32766(6)
C20 C 0.46220(15) -0.09937(9) 0.33051(6)
H5 H 0.4156 -0.1393 0.3312
C21 C 0.44603(15) -0.28899(9) 0.37605(6)
H6 H 0.4599 -0.3254 0.3523
C22 C 0.73557(15) 0.10740(9) 0.36610(6)
H7 H 0.7800 0.1480 0.3652
C23 C 0.35050(15) -0.24338(9) 0.44706(6)
H8 H 0.2977 -0.2489 0.4716
C24 C 0.68545(15) -0.01513(9) 0.44929(6)
C25 C 0.36877(14) -0.29684(8) 0.41190(6)
C26 C 0.52068(16) -0.00981(9) 0.29096(6)
H9 H 0.5149 0.0119 0.2644
C27 C 0.81213(16) 0.22826(9) 0.44723(6)
H10 H 0.7312 0.2204 0.4400
C28 C 0.66646(17) -0.02414(9) 0.55931(6)
H11 H 0.5922 -0.0185 0.5469
C29 C 0.69802(16) 0.11595(10) 0.20188(6)
H12 H 0.7266 0.0961 0.1723
C30 C 0.70198(16) 0.08417(9) 0.24087(6)
H13 H 0.7319 0.0422 0.2374
C31 C 0.87314(17) -0.02059(10) 0.55262(6)
H14 H 0.9413 -0.0126 0.5355
C32 C 0.67604(19) -0.04413(9) 0.60323(7)
H15 H 0.6081 -0.0524 0.6204
C33 C 0.61905(18) 0.17363(9) 0.28871(6)
H16 H 0.5923 0.1941 0.3184
C34 C 0.61332(19) 0.20556(10) 0.24979(6)
H17 H 0.5826 0.2473 0.2531
C35 C 0.86450(18) 0.29215(9) 0.45304(6)
H18 H 0.8194 0.3277 0.4503
C36 C 0.99410(17) 0.18828(9) 0.46240(7)
H19 H 1.0389 0.1530 0.4663
C37 C 0.36748(17) -0.09698(10) 0.24957(7)
C38 C 0.98254(19) 0.30395(10) 0.46281(7)
H20 H 1.0188 0.3476 0.4664
C39 C 0.7833(2) -0.05200(10) 0.62184(7)
H21 H 0.7893 -0.0653 0.6519
C40 C 0.88261(19) -0.04040(10) 0.59649(7)
H22 H 0.9568 -0.0460 0.6091
C41 C 0.33799(18) -0.41314(9) 0.38623(7)
H23 H 0.2884 -0.4514 0.3926
H24 H 0.4193 -0.4189 0.3932
H25 H 0.3288 -0.4092 0.3528
C42 C 1.04767(18) 0.25237(10) 0.46738(7)
H26 H 1.1289 0.2604 0.4739
C43 C 0.5775(2) 0.25683(10) 0.16683(7)
H27 H 0.6123 0.2952 0.1890
H28 H 0.4997 0.2440 0.1772
H29 H 0.5720 0.2680 0.1350
C44 C 0.41097(19) -0.07806(14) 0.20281(7)
H30 H 0.4916 -0.0886 0.1984
H31 H 0.4068 -0.0307 0.2038
H32 H 0.3623 -0.1028 0.1763
C45 C 0.2510(2) -0.06800(17) 0.25982(8)
H33 H 0.2621 -0.0199 0.2629
H34 H 0.2208 -0.0798 0.2894
H35 H 0.1956 -0.0858 0.2337
C46 C 0.3540(5) -0.17160(15) 0.24267(13)
H36 H 0.3292 -0.1855 0.2724
H37 H 0.4285 -0.1888 0.2337
H38 H 0.2955 -0.1888 0.2176
O3 O 1.04297(11) 0.86185(6) 0.39720(5)
O4 O 0.1389(2) 0.31732(15) 0.20069(9)
C47 C 0.3984(4) 0.4120(5) 0.2970(2)
C48 C 0.2254(3) 0.34438(19) 0.23224(11)
C49 C 0.3119(2) 0.44384(12) 0.28099(8)
H39 H 0.3103 0.4898 0.2922
C50 C 0.2264(2) 0.41203(13) 0.24925(8)
H40 H 0.1678 0.4362 0.2389
C51 C 0.3106(2) 0.30967(11) 0.24839(8)
H41 H 0.3106 0.2636 0.2375
C52 C 0.39565(19) 0.34249(10) 0.28044(8)
H42 H 0.4532 0.3184 0.2917
C53 C 0.1268(3) 0.24782(12) 0.18867(10)
H43 H 0.1913 0.2330 0.1689
H44 H 0.0532 0.2336 0.1711
H45 H 0.1274 0.2286 0.2177
C54 C 0.64727(14) 0.49931(8) 0.40973(6)
C55 C 0.72348(14) 0.52857(8) 0.44835(6)
C56 C 0.63663(14) 0.53048(8) 0.36913(6)
C57 C 0.85267(14) 0.68373(8) 0.40498(5)
C58 C 0.78893(14) 0.59003(8) 0.44478(6)
H46 H 0.8396 0.6104 0.4705
C59 C 0.58136(14) 0.43784(8) 0.41083(6)
C60 C 0.78139(14) 0.62015(8) 0.40627(6)
C61 C 0.50089(14) 0.41237(8) 0.37256(6)
H47 H 0.4539 0.3728 0.3740
C62 C 0.48808(14) 0.44196(8) 0.33406(6)
C63 C 0.80571(14) 0.52377(8) 0.53138(6)
C64 C 0.73271(14) 0.49643(8) 0.48782(6)
C65 C 0.55969(14) 0.50220(8) 0.33045(6)
C66 C 0.53197(14) 0.34036(8) 0.45289(6)
C67 C 0.69952(15) 0.61739(8) 0.32429(6)
H48 H 0.7467 0.6568 0.3223
C68 C 0.62761(15) 0.58854(8) 0.28548(6)
C69 C 0.59523(14) 0.40557(8) 0.45001(6)
C70 C 0.97243(15) 0.68726(8) 0.40685(6)
H49 H 1.0098 0.6489 0.4098
C71 C 0.66989(15) 0.43554(8) 0.48738(6)
H50 H 0.6785 0.4137 0.5137
C72 C 0.70502(14) 0.59062(8) 0.36617(6)
C73 C 0.79987(15) 0.74132(8) 0.40245(6)
H51 H 0.7175 0.7401 0.4018
C74 C 0.55690(14) 0.53174(8) 0.28974(6)
H52 H 0.5050 0.5123 0.2642
C75 C 0.45730(15) 0.33395(9) 0.49002(6)
H53 H 0.4462 0.3713 0.5134
C76 C 0.62447(15) 0.61872(9) 0.23957(6)
C77 C 0.54869(15) 0.28446(9) 0.41943(6)
H54 H 0.5992 0.2881 0.3939
C78 C 0.86525(16) 0.80011(9) 0.40089(6)
H55 H 0.8279 0.8391 0.3999
C79 C 1.03987(15) 0.74600(9) 0.40444(6)
H56 H 1.1222 0.7474 0.4053
C80 C 0.89955(16) 0.49172(9) 0.54355(6)
H57 H 0.9217 0.4543 0.5225
C81 C 0.98564(15) 0.80220(8) 0.40075(6)
C82 C 0.96144(17) 0.51368(10) 0.58599(7)
H58 H 1.0267 0.4919 0.5933
C83 C 0.77393(18) 0.57731(10) 0.56337(7)
H59 H 0.7106 0.6003 0.5557
C84 C 0.92905(19) 0.56661(10) 0.61740(7)
H60 H 0.9717 0.5817 0.6463
C85 C 0.49178(17) 0.22346(9) 0.42329(7)
H61 H 0.5047 0.1855 0.4007
C86 C 0.74563(17) 0.64718(11) 0.22847(7)
H62 H 0.7735 0.6828 0.2544
H63 H 0.7420 0.6646 0.1988
H64 H 0.7990 0.6124 0.2252
C87 C 1.16044(17) 0.86181(10) 0.38279(7)
H65 H 1.1655 0.8293 0.3538
H66 H 1.2088 0.8504 0.4080
H67 H 1.1879 0.9057 0.3767
C88 C 0.39886(17) 0.27317(11) 0.49311(7)
H68 H 0.3466 0.2695 0.5181
C89 C 0.54484(18) 0.67443(11) 0.24655(7)
H69 H 0.4666 0.6571 0.2537
H70 H 0.5416 0.6934 0.2175
H71 H 0.5750 0.7086 0.2730
C90 C 0.41638(17) 0.21811(10) 0.46000(7)
H72 H 0.3768 0.1766 0.4624
C91 C 0.8338(2) 0.59767(11) 0.60652(8)
H73 H 0.8090 0.6332 0.6287
C92 C 0.5806(2) 0.56718(11) 0.19665(7)
H74 H 0.6258 0.5288 0.1944
H75 H 0.5895 0.5863 0.1677
H76 H 0.4984 0.5535 0.2004
O6 O 0.19191(11) 0.86890(6) 0.08840(4)
O7 O -0.15783(12) 0.30597(7) 0.33288(4)
C100 C 0.01231(15) 0.68573(9) 0.09225(6)
C101 C -0.10939(15) 0.52481(9) 0.13201(6)
C102 C -0.00849(15) 0.73988(9) 0.12639(6)
H84 H -0.0624 0.7340 0.1505
C103 C 0.09238(16) 0.69552(9) 0.05736(6)
H85 H 0.1073 0.6595 0.0334
C104 C -0.17287(15) 0.39773(9) 0.21410(6)
C105 C -0.17344(16) 0.43126(9) 0.17178(6)
C106 C -0.16353(16) 0.33293(9) 0.29257(6)
C107 C -0.30637(18) 0.43320(9) 0.00966(6)
H86 H -0.3535 0.4134 -0.0173
C108 C -0.17568(16) 0.49406(9) 0.09029(6)
C109 C -0.35744(17) 0.33140(9) 0.04322(6)
C110 C 0.15040(16) 0.75713(9) 0.05719(6)
H87 H 0.2053 0.7629 0.0334
C111 C -0.30130(16) 0.40005(9) 0.04810(6)
C112 C -0.05055(15) 0.61926(9) 0.09217(6)
C113 C -0.23433(16) 0.40251(9) 0.13174(6)
H88 H -0.2773 0.3612 0.1316
C114 C 0.12847(14) 0.81043(9) 0.09159(6)
C115 C -0.04327(15) 0.58679(9) 0.13302(6)
C116 C 0.02671(15) 0.61300(9) 0.17335(6)
H89 H 0.0730 0.6533 0.1735
C117 C -0.23731(16) 0.43128(9) 0.08945(6)
C118 C 0.04753(15) 0.80258(9) 0.12626(6)
H90 H 0.0306 0.8391 0.1494
C119 C -0.11446(16) 0.58938(9) 0.05282(6)
H91 H -0.1174 0.6115 0.0264
C120 C -0.24460(17) 0.49470(9) 0.00914(6)
C121 C -0.17773(16) 0.52557(9) 0.04976(6)
C122 C 0.03141(16) 0.58259(10) 0.21315(7)
C123 C -0.25050(18) 0.52285(9) -0.03563(6)
C124 C -0.29229(17) 0.28040(9) 0.05120(6)
H92 H -0.2129 0.2900 0.0609
C125 C -0.10494(15) 0.49368(9) 0.17252(6)
C126 C -0.13144(18) 0.33614(10) 0.21002(6)
H93 H -0.1058 0.3156 0.1801
C127 C -0.12634(19) 0.30364(10) 0.24859(6)
H94 H -0.0974 0.2614 0.2449
C128 C -0.03422(16) 0.52259(9) 0.21169(6)
H95 H -0.0308 0.5006 0.2382
C129 C 0.15421(17) 0.92773(9) 0.11499(6)
H96 H 0.2033 0.9659 0.1082
H97 H 0.1600 0.9260 0.1490
H98 H 0.0733 0.9317 0.1062
C130 C -0.47345(18) 0.31581(10) 0.02899(7)
H99 H -0.5192 0.3497 0.0229
C131 C -0.20832(17) 0.39349(10) 0.29708(7)
H100 H -0.2366 0.4132 0.3267
C132 C -0.21198(17) 0.42560(10) 0.25835(7)
H101 H -0.2418 0.4676 0.2621
C133 C -0.34166(18) 0.21588(9) 0.04520(6)
H102 H -0.2960 0.1816 0.0506
C134 C -0.1516(2) 0.53450(10) -0.06113(7)
H103 H -0.0777 0.5276 -0.0491
C135 C -0.45678(19) 0.20138(10) 0.03148(7)
H104 H -0.4906 0.1572 0.0274
C136 C -0.5230(2) 0.25120(11) 0.02358(7)
H105 H -0.6027 0.2413 0.0144
C137 C -0.08371(19) 0.25430(10) 0.33099(7)
H106 H -0.1178 0.2153 0.3092
H107 H -0.0747 0.2434 0.3628
H108 H -0.0075 0.2685 0.3197
C138 C 0.07593(18) 0.58336(12) 0.30070(7)
H109 H -0.0073 0.5850 0.3063
H110 H 0.1204 0.6081 0.3284
H111 H 0.0947 0.5374 0.2954
C139 C -0.3578(2) 0.53208(11) -0.05435(7)
H112 H -0.4261 0.5232 -0.0375
C140 C 0.10702(19) 0.61378(11) 0.25711(8)
C141 C -0.1603(2) 0.55637(11) -0.10442(8)
H113 H -0.0922 0.5645 -0.1216
C142 C -0.2665(3) 0.56618(12) -0.12235(8)
H114 H -0.2718 0.5812 -0.1518
C143 C -0.3664(3) 0.55411(13) -0.09741(8)
H115 H -0.4402 0.5609 -0.1097
C144 C 0.0830(4) 0.68764(14) 0.27151(12)
H116 H 0.1131 0.7125 0.2473
H117 H 0.1217 0.7060 0.3022
H118 H -0.0009 0.6908 0.2741
C145 C 0.2313(2) 0.6045(3) 0.24630(10)
H119 H 0.2406 0.5573 0.2374
H120 H 0.2801 0.6230 0.2744
H121 H 0.2545 0.6270 0.2200
O8 O -0.55596(12) -0.36627(6) 0.10497(5)
O9 O 0.30659(14) 0.18657(7) 0.31584(6)
C146 C -0.15926(14) -0.00379(8) 0.09277(5)
C147 C -0.08754(14) 0.05535(8) 0.09047(6)
C148 C -0.30493(14) -0.09299(8) 0.05866(6)
H122 H -0.3565 -0.1130 0.0332
C149 C -0.36981(15) -0.18624(8) 0.09916(5)
C150 C -0.23597(14) -0.03297(8) 0.05428(6)
C151 C -0.29952(14) -0.12238(8) 0.09766(6)
C152 C -0.00162(14) 0.05330(8) 0.16901(6)
C153 C -0.07425(14) -0.03489(8) 0.21366(6)
H123 H -0.0201 -0.0167 0.2386
C154 C -0.24129(14) -0.00258(8) 0.01376(6)
C155 C -0.15338(14) -0.03341(8) 0.13434(6)
C156 C -0.00735(14) 0.08073(8) 0.12903(6)
H124 H 0.0442 0.1183 0.1267
C157 C -0.14815(14) -0.09007(8) 0.21862(6)
C158 C -0.02974(14) 0.14939(8) 0.04558(6)
C159 C -0.17414(15) 0.05662(8) 0.01324(6)
H125 H -0.1807 0.0777 -0.0136
C160 C -0.22409(14) -0.09246(8) 0.13790(6)
C161 C -0.31468(14) -0.03039(8) -0.02958(6)
C162 C -0.07686(14) -0.00529(8) 0.17315(6)
C163 C -0.22117(15) -0.11855(8) 0.18010(6)
H126 H -0.2707 -0.1569 0.1825
C164 C -0.09808(14) 0.08615(8) 0.05017(6)
C165 C 0.07993(15) 0.08460(8) 0.20889(6)
C166 C 0.04086(16) 0.15291(9) 0.00676(6)
H127 H 0.0450 0.1149 -0.0169
C167 C -0.55552(15) -0.24922(9) 0.10249(6)
H128 H -0.6378 -0.2507 0.1038
C168 C -0.14524(15) -0.11925(8) 0.26494(6)
C169 C -0.48973(15) -0.18981(8) 0.10021(6)
H129 H -0.5282 -0.1512 0.0994
C170 C -0.31562(15) -0.24397(9) 0.09892(6)
H130 H -0.2333 -0.2426 0.0979
C171 C -0.37980(16) -0.30335(9) 0.10014(6)
H131 H -0.3417 -0.3425 0.0992
C172 C -0.39865(16) 0.00588(10) -0.04525(6)
H132 H -0.4133 0.0471 -0.0270
C173 C -0.50003(16) -0.30567(9) 0.10279(6)
C174 C -0.03747(17) 0.20634(9) 0.07905(6)
H133 H -0.0868 0.2052 0.1053
C175 C -0.29588(17) -0.09080(9) -0.05679(6)
H134 H -0.2391 -0.1163 -0.0466
C176 C 0.19831(17) 0.09079(9) 0.20350(7)
H135 H 0.2298 0.0720 0.1743
C177 C 0.22876(18) 0.15200(9) 0.28249(7)
C178 C 0.10892(18) 0.14319(9) 0.29023(7)
H136 H 0.0784 0.1598 0.3202
C179 C 0.03613(17) 0.10994(9) 0.25353(7)
H137 H -0.0449 0.1041 0.2585
C180 C -0.26604(17) -0.14883(11) 0.27545(7)
H138 H -0.3210 -0.1149 0.2775
H139 H -0.2632 -0.1650 0.3057
H140 H -0.2914 -0.1855 0.2499
C181 C -0.44124(17) -0.07733(11) -0.11417(7)
H141 H -0.4835 -0.0930 -0.1431
C182 C -0.46115(17) -0.01755(11) -0.08729(7)
H142 H -0.5181 0.0078 -0.0976
C183 C -0.67312(18) -0.36779(10) 0.11974(8)
H143 H -0.7226 -0.3564 0.0949
H144 H -0.6786 -0.3359 0.1491
H145 H -0.6989 -0.4121 0.1254
C184 C 0.10517(17) 0.21135(11) 0.00240(7)
H146 H 0.1539 0.2130 -0.0240
C185 C -0.35913(18) -0.11433(10) -0.09865(7)
H147 H -0.3460 -0.1560 -0.1167
C186 C 0.02671(19) 0.26483(10) 0.07423(7)
H148 H 0.0211 0.3034 0.0972
C187 C 0.27279(17) 0.12403(10) 0.23996(8)
H149 H 0.3543 0.1274 0.2355
C188 C -0.06238(19) -0.17318(11) 0.25927(7)
H150 H -0.0896 -0.2081 0.2328
H151 H -0.0596 -0.1917 0.2886
H152 H 0.0155 -0.1546 0.2528
C189 C 0.09858(18) 0.26700(10) 0.03615(8)
H153 H 0.1434 0.3068 0.0333
C190 C -0.1046(2) -0.06628(10) 0.30770(6)
H154 H -0.0227 -0.0516 0.3044
H155 H -0.1138 -0.0847 0.3369
H156 H -0.1513 -0.0286 0.3091
C191 C 0.2562(2) 0.22701(12) 0.35556(10)
H157 H 0.2008 0.2540 0.3437
H158 H 0.3179 0.2558 0.3744
H159 H 0.2160 0.1986 0.3755
C93? C 0.4090(14) 0.4063(15) 0.2942(7)
C94? C 0.4565(8) 0.3875(4) 0.2475(3)
H77? H 0.5360 0.3982 0.2416
C95? C 0.3819(9) 0.3538(5) 0.2121(4)
H78? H 0.4097 0.3374 0.1816
C96? C 0.2632(11) 0.3441(9) 0.2221(6)
C97? C 0.2172(8) 0.3778(6) 0.2618(4)
H79? H 0.1356 0.3782 0.2650
C98? C 0.2934(8) 0.4115(5) 0.2976(3)
H80? H 0.2641 0.4383 0.3244
O5? O 0.1845(11) 0.3103(6) 0.1877(5)
C99? C 0.2358(14) 0.2686(7) 0.1502(6)
H81? H 0.1754 0.2375 0.1325
H82? H 0.2933 0.2442 0.1635
H83? H 0.2740 0.2956 0.1288
loop_
_geom_bond_atom_site_label_1
_geom_bond_atom_site_label_2
_geom_bond_site_symmetry_1
_geom_bond_site_symmetry_2
O1 C25 1_555 1_555
O2 C13 1_555 1_555
C1 C2 1_555 1_555
C2 C17 1_555 1_555
C3 H1 1_555 1_555
C4 H2 1_555 1_555
C5 C15 1_555 1_555
C6 C8 1_555 1_555
C7 C1 1_555 1_555
C8 C4 1_555 1_555
C9 H3 1_555 1_555
C10 C19 1_555 1_555
C11 H4 1_555 1_555
C12 C20 1_555 1_555
C13 C29 1_555 1_555
C14 C3 1_555 1_555
C15 C4 1_555 1_555
C16 C1 1_555 1_555
C17 C15 1_555 1_555
C18 C7 1_555 1_555
C19 C16 1_555 1_555
C20 C7 1_555 1_555
H5 C20 1_555 1_555
C21 C9 1_555 1_555
H6 C21 1_555 1_555
C22 C17 1_555 1_555
H7 C22 1_555 1_555
C23 C3 1_555 1_555
H8 C23 1_555 1_555
C24 C2 1_555 1_555
C25 C21 1_555 1_555
C26 C12 1_555 1_555
H9 C26 1_555 1_555
C27 C5 1_555 1_555
H10 C27 1_555 1_555
C28 C6 1_555 1_555
H11 C28 1_555 1_555
C29 H12 1_555 1_555
C30 C10 1_555 1_555
H13 C30 1_555 1_555
C31 C6 1_555 1_555
H14 C31 1_555 1_555
C32 C28 1_555 1_555
H15 C32 1_555 1_555
C33 C10 1_555 1_555
H16 C33 1_555 1_555
C34 C13 1_555 1_555
H17 C34 1_555 1_555
C35 C27 1_555 1_555
H18 C35 1_555 1_555
C36 C5 1_555 1_555
H19 C36 1_555 1_555
C37 C12 1_555 1_555
C38 C35 1_555 1_555
H20 C38 1_555 1_555
C39 C32 1_555 1_555
H21 C39 1_555 1_555
C40 C31 1_555 1_555
H22 C40 1_555 1_555
C41 O1 1_555 1_555
H23 C41 1_555 1_555
H24 C41 1_555 1_555
H25 C41 1_555 1_555
C42 C36 1_555 1_555
H26 C42 1_555 1_555
C43 O2 1_555 1_555
H27 C43 1_555 1_555
H28 C43 1_555 1_555
H29 C43 1_555 1_555
C44 C37 1_555 1_555
H30 C44 1_555 1_555
H31 C44 1_555 1_555
H32 C44 1_555 1_555
C45 C37 1_555 1_555
H33 C45 1_555 1_555
H34 C45 1_555 1_555
H35 C45 1_555 1_555
C46 C37 1_555 1_555
H36 C46 1_555 1_555
H37 C46 1_555 1_555
H38 C46 1_555 1_555
O3 C81 1_555 1_555
O4 C48 1_555 1_555
C47 C49 1_555 1_555
C48 C50 1_555 1_555
C49 H39 1_555 1_555
C50 C49 1_555 1_555
H40 C50 1_555 1_555
C51 C48 1_555 1_555
H41 C51 1_555 1_555
C52 C47 1_555 1_555
H42 C52 1_555 1_555
C53 O4 1_555 1_555
H43 C53 1_555 1_555
H44 C53 1_555 1_555
H45 C53 1_555 1_555
C54 C55 1_555 1_555
C55 C58 1_555 1_555
C56 C54 1_555 1_555
C57 C60 1_555 1_555
C58 H46 1_555 1_555
C59 C54 1_555 1_555
C60 C58 1_555 1_555
C61 C59 1_555 1_555
H47 C61 1_555 1_555
C62 C47 1_555 1_555
C63 C64 1_555 1_555
C64 C55 1_555 1_555
C65 C56 1_555 1_555
C66 C69 1_555 1_555
C67 H48 1_555 1_555
C68 C67 1_555 1_555
C69 C59 1_555 1_555
C70 C57 1_555 1_555
H49 C70 1_555 1_555
C71 C64 1_555 1_555
H50 C71 1_555 1_555
C72 C56 1_555 1_555
C73 C57 1_555 1_555
H51 C73 1_555 1_555
C74 C65 1_555 1_555
H52 C74 1_555 1_555
C75 C66 1_555 1_555
H53 C75 1_555 1_555
C76 C68 1_555 1_555
C77 C66 1_555 1_555
H54 C77 1_555 1_555
C78 C73 1_555 1_555
H55 C78 1_555 1_555
C79 C70 1_555 1_555
H56 C79 1_555 1_555
C80 C63 1_555 1_555
H57 C80 1_555 1_555
C81 C78 1_555 1_555
C82 C80 1_555 1_555
H58 C82 1_555 1_555
C83 C63 1_555 1_555
H59 C83 1_555 1_555
C84 C82 1_555 1_555
H60 C84 1_555 1_555
C85 C77 1_555 1_555
H61 C85 1_555 1_555
C86 C76 1_555 1_555
H62 C86 1_555 1_555
H63 C86 1_555 1_555
H64 C86 1_555 1_555
C87 O3 1_555 1_555
H65 C87 1_555 1_555
H66 C87 1_555 1_555
H67 C87 1_555 1_555
C88 C75 1_555 1_555
H68 C88 1_555 1_555
C89 C76 1_555 1_555
H69 C89 1_555 1_555
H70 C89 1_555 1_555
H71 C89 1_555 1_555
C90 C85 1_555 1_555
H72 C90 1_555 1_555
C91 C83 1_555 1_555
H73 C91 1_555 1_555
C92 C76 1_555 1_555
H74 C92 1_555 1_555
H75 C92 1_555 1_555
H76 C92 1_555 1_555
O6 C114 1_555 1_555
O7 C106 1_555 1_555
C100 C102 1_555 1_555
C101 C108 1_555 1_555
C102 H84 1_555 1_555
C103 C100 1_555 1_555
H85 C103 1_555 1_555
C104 C105 1_555 1_555
C105 C113 1_555 1_555
C106 C127 1_555 1_555
C107 H86 1_555 1_555
C108 C117 1_555 1_555
C109 C111 1_555 1_555
C110 C103 1_555 1_555
H87 C110 1_555 1_555
C111 C107 1_555 1_555
C112 C100 1_555 1_555
C113 H88 1_555 1_555
C114 C110 1_555 1_555
C115 C101 1_555 1_555
C116 C115 1_555 1_555
H89 C116 1_555 1_555
C117 C111 1_555 1_555
C118 C102 1_555 1_555
H90 C118 1_555 1_555
C119 C112 1_555 1_555
H91 C119 1_555 1_555
C120 C107 1_555 1_555
C121 C108 1_555 1_555
C122 C116 1_555 1_555
C123 C120 1_555 1_555
C124 C109 1_555 1_555
H92 C124 1_555 1_555
C125 C101 1_555 1_555
C126 C104 1_555 1_555
H93 C126 1_555 1_555
C127 C126 1_555 1_555
H94 C127 1_555 1_555
C128 C122 1_555 1_555
H95 C128 1_555 1_555
C129 O6 1_555 1_555
H96 C129 1_555 1_555
H97 C129 1_555 1_555
H98 C129 1_555 1_555
C130 C109 1_555 1_555
H99 C130 1_555 1_555
C131 C106 1_555 1_555
H100 C131 1_555 1_555
C132 C104 1_555 1_555
H101 C132 1_555 1_555
C133 C124 1_555 1_555
H102 C133 1_555 1_555
C134 C123 1_555 1_555
H103 C134 1_555 1_555
C135 C133 1_555 1_555
H104 C135 1_555 1_555
C136 C130 1_555 1_555
H105 C136 1_555 1_555
C137 O7 1_555 1_555
H106 C137 1_555 1_555
H107 C137 1_555 1_555
H108 C137 1_555 1_555
C138 H109 1_555 1_555
H110 C138 1_555 1_555
H111 C138 1_555 1_555
C139 C123 1_555 1_555
H112 C139 1_555 1_555
C140 C122 1_555 1_555
C141 C134 1_555 1_555
H113 C141 1_555 1_555
C142 C141 1_555 1_555
H114 C142 1_555 1_555
C143 C139 1_555 1_555
H115 C143 1_555 1_555
C144 C140 1_555 1_555
H116 C144 1_555 1_555
H117 C144 1_555 1_555
H118 C144 1_555 1_555
C145 C140 1_555 1_555
H119 C145 1_555 1_555
H120 C145 1_555 1_555
H121 C145 1_555 1_555
O8 C173 1_555 1_555
O9 C177 1_555 1_555
C146 C147 1_555 1_555
C147 C156 1_555 1_555
C148 H122 1_555 1_555
C149 C151 1_555 1_555
C150 C146 1_555 1_555
C151 C148 1_555 1_555
C152 C156 1_555 1_555
C153 H123 1_555 1_555
C154 C150 1_555 1_555
C155 C146 1_555 1_555
C156 H124 1_555 1_555
C157 C153 1_555 1_555
C158 C164 1_555 1_555
C159 C154 1_555 1_555
H125 C159 1_555 1_555
C160 C151 1_555 1_555
C161 C154 1_555 1_555
C162 C152 1_555 1_555
C163 C157 1_555 1_555
H126 C163 1_555 1_555
C164 C147 1_555 1_555
C165 C152 1_555 1_555
C166 C158 1_555 1_555
H127 C166 1_555 1_555
C167 H128 1_555 1_555
C168 C157 1_555 1_555
C169 C149 1_555 1_555
H129 C169 1_555 1_555
C170 C149 1_555 1_555
H130 C170 1_555 1_555
C171 C170 1_555 1_555
H131 C171 1_555 1_555
C172 C161 1_555 1_555
H132 C172 1_555 1_555
C173 C167 1_555 1_555
C174 C158 1_555 1_555
H133 C174 1_555 1_555
C175 C161 1_555 1_555
H134 C175 1_555 1_555
C176 C165 1_555 1_555
H135 C176 1_555 1_555
C177 C178 1_555 1_555
C178 H136 1_555 1_555
C179 C165 1_555 1_555
H137 C179 1_555 1_555
C180 C168 1_555 1_555
H138 C180 1_555 1_555
H139 C180 1_555 1_555
H140 C180 1_555 1_555
C181 H141 1_555 1_555
C182 C172 1_555 1_555
H142 C182 1_555 1_555
C183 O8 1_555 1_555
H143 C183 1_555 1_555
H144 C183 1_555 1_555
H145 C183 1_555 1_555
C184 C166 1_555 1_555
H146 C184 1_555 1_555
C185 C175 1_555 1_555
H147 C185 1_555 1_555
C186 C174 1_555 1_555
H148 C186 1_555 1_555
C187 C176 1_555 1_555
H149 C187 1_555 1_555
C188 C168 1_555 1_555
H150 C188 1_555 1_555
H151 C188 1_555 1_555
H152 C188 1_555 1_555
C189 C184 1_555 1_555
H153 C189 1_555 1_555
C190 C168 1_555 1_555
H154 C190 1_555 1_555
H155 C190 1_555 1_555
H156 C190 1_555 1_555
C191 O9 1_555 1_555
H157 C191 1_555 1_555
H158 C191 1_555 1_555
H159 C191 1_555 1_555
C8 C24 1_555 1_555
C9 C14 1_555 1_555
C11 C18 1_555 1_555
C11 C24 1_555 1_555
C14 C18 1_555 1_555
C16 C26 1_555 1_555
C19 C22 1_555 1_555
C23 C25 1_555 1_555
C29 C30 1_555 1_555
C33 C34 1_555 1_555
C38 C42 1_555 1_555
C39 C40 1_555 1_555
C51 C52 1_555 1_555
C60 C72 1_555 1_555
C61 C62 1_555 1_555
C62 C65 1_555 1_555
C67 C72 1_555 1_555
C68 C74 1_555 1_555
C69 C71 1_555 1_555
C79 C81 1_555 1_555
C84 C91 1_555 1_555
C88 C90 1_555 1_555
C105 C125 1_555 1_555
C112 C115 1_555 1_555
C113 C117 1_555 1_555
C114 C118 1_555 1_555
C119 C121 1_555 1_555
C120 C121 1_555 1_555
C125 C128 1_555 1_555
C131 C132 1_555 1_555
C135 C136 1_555 1_555
C138 C140 1_555 1_555
C142 C143 1_555 1_555
C148 C150 1_555 1_555
C153 C162 1_555 1_555
C155 C160 1_555 1_555
C155 C162 1_555 1_555
C159 C164 1_555 1_555
C160 C163 1_555 1_555
C167 C169 1_555 1_555
C171 C173 1_555 1_555
C177 C187 1_555 1_555
C178 C179 1_555 1_555
C181 C182 1_555 1_555
C181 C185 1_555 1_555
C186 C189 1_555 1_555

#END
