
#######################################################################
#
#                 Cambridge Crystallographic Data Centre
#                                CCDC 
#
#######################################################################
#
# If this CIF has been generated from an entry in the Cambridge 
# Structural Database, then it will include bibliographic, chemical, 
# crystal, experimental, refinement or atomic coordinate data resulting 
# from the CCDC's data processing and validation procedures.
#
#######################################################################

data_DIHCUU
_chemical_formula_moiety         'C16 H24 B1 N1 O1 Si1'
_chemical_name_systematic        
1-(t-Butyl(dimethyl)silyl)-2-phenoxy-1,2-dihydro-1,2-azaborinine
_symmetry_cell_setting           monoclinic
_symmetry_space_group_name_H-M   'P 21/c'
_symmetry_Int_Tables_number      14
_space_group_name_Hall           '-P 2ybc'
loop_
_symmetry_equiv_pos_site_id
_symmetry_equiv_pos_as_xyz
1 x,y,z
2 -x,1/2+y,1/2-z
3 -x,-y,-z
4 x,1/2-y,1/2+z
_cell_length_a                   11.2872(8)
_cell_length_b                   15.7298(12)
_cell_length_c                   9.3169(7)
_cell_angle_alpha                90
_cell_angle_beta                 90.698(3)
_cell_angle_gamma                90
_cell_volume                     1654.05
_exptl_crystal_colour            colorless
_exptl_crystal_description       block
_cell_formula_units_Z            4
loop_
_atom_site_label
_atom_site_type_symbol
_atom_site_fract_x
_atom_site_fract_y
_atom_site_fract_z
Si1 Si 0.70551(2) 0.077642(17) -0.04115(3)
O1 O 0.76033(7) -0.00694(5) 0.24734(8)
N1 N 0.63631(7) 0.09616(5) 0.12921(9)
B1 B 0.66657(10) 0.05006(7) 0.25871(12)
C1 C 0.54624(9) 0.15604(7) 0.13692(12)
C2 C 0.48316(10) 0.17084(7) 0.25779(14)
C3 C 0.50644(10) 0.12451(7) 0.38631(13)
C4 C 0.59464(10) 0.06566(7) 0.39298(12)
C5 C 0.78787(9) -0.06346(6) 0.35561(11)
C6 C 0.85117(11) -0.03725(7) 0.47580(12)
C7 C 0.88220(11) -0.09663(8) 0.58021(13)
C8 C 0.84968(11) -0.18114(8) 0.56487(13)
C9 C 0.78697(11) -0.20682(7) 0.44394(14)
C10 C 0.75593(10) -0.14808(7) 0.33846(13)
C11 C 0.59512(12) 0.10454(9) -0.18426(13)
C12 C 0.74280(11) -0.03713(7) -0.06089(13)
C13 C 0.84072(9) 0.14816(6) -0.05393(11)
C14 C 0.80242(11) 0.24217(7) -0.05661(13)
C15 C 0.92469(10) 0.13371(7) 0.07451(12)
C16 C 0.90643(11) 0.12720(8) -0.19342(13)
H1 H 0.5292(12) 0.1867(8) 0.0498(15)
H2 H 0.4194(15) 0.2114(10) 0.2521(17)
H3 H 0.4565(13) 0.1353(9) 0.4704(16)
H4 H 0.6092(13) 0.0350(9) 0.4839(15)
H5 H 0.8727(15) 0.0231(10) 0.4869(18)
H6 H 0.9269(15) -0.0778(10) 0.6619(18)
H7 H 0.8726(15) -0.2223(10) 0.6346(17)
H8 H 0.7639(15) -0.2651(11) 0.4351(18)
H9 H 0.7145(14) -0.1651(9) 0.2550(17)
H10 H 0.6319(17) 0.0914(11) -0.274(2)
H11 H 0.5226(19) 0.0713(12) -0.178(2)
H12 H 0.5716(16) 0.1647(11) -0.1875(18)
H13 H 0.7519(15) -0.0496(10) -0.1628(18)
H14 H 0.6757(16) -0.0716(10) -0.0237(18)
H15 H 0.8137(15) -0.0532(10) -0.0118(17)
H16 H 0.7588(14) 0.2580(9) 0.0305(16)
H17 H 0.8741(15) 0.2796(10) -0.0582(17)
H18 H 0.7510(14) 0.2558(10) -0.1432(18)
H19 H 0.9972(14) 0.1707(10) 0.0640(17)
H20 H 0.9491(13) 0.0739(9) 0.0827(16)
H21 H 0.8866(13) 0.1475(9) 0.1647(16)
H22 H 0.9762(15) 0.1656(10) -0.2010(17)
H23 H 0.8534(14) 0.1330(10) -0.2791(17)
H24 H 0.9353(15) 0.0685(10) -0.1920(17)
loop_
_geom_bond_atom_site_label_1
_geom_bond_atom_site_label_2
_geom_bond_site_symmetry_1
_geom_bond_site_symmetry_2
Si1 N1 1_555 1_555
O1 B1 1_555 1_555
N1 B1 1_555 1_555
B1 C4 1_555 1_555
C1 N1 1_555 1_555
C2 C1 1_555 1_555
C3 C2 1_555 1_555
C4 C3 1_555 1_555
C5 O1 1_555 1_555
C6 C5 1_555 1_555
C7 C6 1_555 1_555
C8 C7 1_555 1_555
C9 C8 1_555 1_555
C10 C5 1_555 1_555
C11 Si1 1_555 1_555
C12 Si1 1_555 1_555
C13 Si1 1_555 1_555
C14 C13 1_555 1_555
C15 C13 1_555 1_555
C16 C13 1_555 1_555
H1 C1 1_555 1_555
H2 C2 1_555 1_555
H3 C3 1_555 1_555
H4 C4 1_555 1_555
H5 C6 1_555 1_555
H6 C7 1_555 1_555
H7 C8 1_555 1_555
H8 C9 1_555 1_555
H9 C10 1_555 1_555
H10 C11 1_555 1_555
H11 C11 1_555 1_555
H12 C11 1_555 1_555
H13 C12 1_555 1_555
H14 C12 1_555 1_555
H15 C12 1_555 1_555
H16 C14 1_555 1_555
H17 C14 1_555 1_555
H18 C14 1_555 1_555
H19 C15 1_555 1_555
H20 C15 1_555 1_555
H21 C15 1_555 1_555
H22 C16 1_555 1_555
H23 C16 1_555 1_555
H24 C16 1_555 1_555
C9 C10 1_555 1_555

#END
