
#######################################################################
#
#                 Cambridge Crystallographic Data Centre
#                                CCDC 
#
#######################################################################
#
# If this CIF has been generated from an entry in the Cambridge 
# Structural Database, then it will include bibliographic, chemical, 
# crystal, experimental, refinement or atomic coordinate data resulting 
# from the CCDC's data processing and validation procedures.
#
#######################################################################

data_DIHFOS
_chemical_formula_moiety         'C29 H21 N2 1+,F6 P1 1-,C1 H2 Cl2'
_chemical_name_systematic        
'2,3,4-Triphenyl-5H-pyrido[4,3-b]indol-2-ium hexafluorophosphate dichloromethane solvate'
_symmetry_cell_setting           monoclinic
_symmetry_space_group_name_H-M   'P 21/n'
_symmetry_Int_Tables_number      14
_space_group_name_Hall           '-P 2yn'
loop_
_symmetry_equiv_pos_site_id
_symmetry_equiv_pos_as_xyz
1 x,y,z
2 1/2-x,1/2+y,1/2-z
3 -x,-y,-z
4 1/2+x,1/2-y,1/2+z
_cell_length_a                   13.7632(9)
_cell_length_b                   12.7539(9)
_cell_length_c                   16.2519(13)
_cell_angle_alpha                90
_cell_angle_beta                 99.002(7)
_cell_angle_gamma                90
_cell_volume                     2817.63
_exptl_crystal_colour            yellow
_exptl_crystal_description       block
_cell_formula_units_Z            4
loop_
_atom_site_label
_atom_site_type_symbol
_atom_site_fract_x
_atom_site_fract_y
_atom_site_fract_z
N1 N 0.3202(3) 0.5482(3) 0.4516(3)
H1 H 0.3575 0.5584 0.4145
N2 N 0.1965(3) 0.2884(3) 0.5325(2)
C1 C 0.2870(3) 0.4558(4) 0.4724(3)
C2 C 0.2846(3) 0.6269(4) 0.4999(3)
C3 C 0.3006(4) 0.7324(4) 0.4989(3)
H2 H 0.3395 0.7622 0.4632
C4 C 0.2566(4) 0.7936(4) 0.5533(3)
H3 H 0.2660 0.8658 0.5531
C5 C 0.1990(4) 0.7515(4) 0.6080(3)
H4 H 0.1712 0.7952 0.6438
C6 C 0.1830(4) 0.6433(4) 0.6094(3)
H5 H 0.1449 0.6131 0.6455
C7 C 0.2282(3) 0.5813(3) 0.5522(3)
C8 C 0.2277(3) 0.4681(4) 0.5353(3)
C9 C 0.1834(3) 0.3850(4) 0.5645(3)
H6 H 0.1445 0.3934 0.6060
C10 C 0.2546(3) 0.2722(3) 0.4713(3)
C11 C 0.3013(3) 0.3549(3) 0.4379(3)
C12 C 0.1447(3) 0.2020(4) 0.5644(3)
C13 C 0.1948(3) 0.1370(4) 0.6226(3)
H7 H 0.2609 0.1486 0.6433
C14 C 0.1443(4) 0.0530(4) 0.6503(3)
H8 H 0.1768 0.0073 0.6900
C15 C 0.0461(4) 0.0369(4) 0.6192(3)
H9 H 0.0130 -0.0199 0.6376
C16 C -0.0027(4) 0.1047(4) 0.5611(3)
H10 H -0.0689 0.0937 0.5406
C17 C 0.0456(3) 0.1882(4) 0.5333(3)
H11 H 0.0128 0.2347 0.4944
C18 C 0.2663(3) 0.1628(3) 0.4423(3)
C19 C 0.1925(3) 0.1160(3) 0.3869(3)
H12 H 0.1328 0.1504 0.3714
C20 C 0.2072(3) 0.0182(3) 0.3545(3)
H13 H 0.1576 -0.0127 0.3169
C21 C 0.2952(3) -0.0339(3) 0.3775(3)
H14 H 0.3050 -0.0997 0.3556
C22 C 0.3684(4) 0.0124(4) 0.4333(3)
H15 H 0.4276 -0.0227 0.4492
C23 C 0.3548(3) 0.1106(4) 0.4659(3)
H16 H 0.4046 0.1414 0.5035
C24 C 0.3604(3) 0.3372(3) 0.3714(3)
C25 C 0.4600(4) 0.3585(4) 0.3842(3)
H17 H 0.4890 0.3893 0.4339
C26 C 0.5167(4) 0.3346(4) 0.3242(3)
H18 H 0.5837 0.3493 0.3336
C27 C 0.4745(4) 0.2886(4) 0.2495(3)
H19 H 0.5133 0.2705 0.2097
C28 C 0.3739(4) 0.2699(4) 0.2350(3)
H20 H 0.3446 0.2412 0.1846
C29 C 0.3178(3) 0.2937(3) 0.2950(3)
H21 H 0.2504 0.2810 0.2849
P1 P 0.50537(9) 0.69196(10) 0.32217(8)
F1 F 0.5150(4) 0.5891(4) 0.2727(3)
F2 F 0.6159(3) 0.7210(5) 0.3350(3)
F3 F 0.4838(4) 0.7959(4) 0.3723(3)
F4 F 0.3881(3) 0.6671(5) 0.3141(3)
F5 F 0.5205(4) 0.6272(4) 0.4078(3)
F6 F 0.4831(4) 0.7564(4) 0.2371(3)
Cl1 Cl 0.59995(11) 1.04237(12) 0.27938(10)
Cl2 Cl 0.44614(11) 1.02069(13) 0.13616(10)
C30 C 0.4756(4) 1.0104(5) 0.2448(4)
H22 H 0.4631 0.9394 0.2617
H23 H 0.4338 1.0573 0.2707
F7? F 0.6110(6) 0.6362(9) 0.3220(7)
F8? F 0.5108(8) 0.7164(9) 0.2259(5)
F9? F 0.5098(9) 0.6659(9) 0.4183(5)
F10? F 0.4070(6) 0.7521(8) 0.3191(7)
F11? F 0.4460(8) 0.5886(7) 0.2967(7)
F12? F 0.5677(8) 0.7962(7) 0.3465(7)
loop_
_geom_bond_atom_site_label_1
_geom_bond_atom_site_label_2
_geom_bond_site_symmetry_1
_geom_bond_site_symmetry_2
N1 H1 1_555 1_555
N2 C9 1_555 1_555
C1 N1 1_555 1_555
C2 N1 1_555 1_555
C3 C2 1_555 1_555
H2 C3 1_555 1_555
C4 C3 1_555 1_555
H3 C4 1_555 1_555
C5 C4 1_555 1_555
H4 C5 1_555 1_555
C6 C5 1_555 1_555
H5 C6 1_555 1_555
C7 C2 1_555 1_555
C8 C1 1_555 1_555
C9 C8 1_555 1_555
H6 C9 1_555 1_555
C10 N2 1_555 1_555
C11 C1 1_555 1_555
C12 N2 1_555 1_555
C13 C12 1_555 1_555
H7 C13 1_555 1_555
C14 C13 1_555 1_555
H8 C14 1_555 1_555
C15 C14 1_555 1_555
H9 C15 1_555 1_555
C16 C15 1_555 1_555
H10 C16 1_555 1_555
C17 C12 1_555 1_555
H11 C17 1_555 1_555
C18 C10 1_555 1_555
C19 C18 1_555 1_555
H12 C19 1_555 1_555
C20 C19 1_555 1_555
H13 C20 1_555 1_555
C21 C20 1_555 1_555
H14 C21 1_555 1_555
C22 C21 1_555 1_555
H15 C22 1_555 1_555
C23 C18 1_555 1_555
H16 C23 1_555 1_555
C24 C11 1_555 1_555
C25 C24 1_555 1_555
H17 C25 1_555 1_555
C26 C25 1_555 1_555
H18 C26 1_555 1_555
C27 C26 1_555 1_555
H19 C27 1_555 1_555
C28 C27 1_555 1_555
H20 C28 1_555 1_555
C29 C24 1_555 1_555
H21 C29 1_555 1_555
P1 F1 1_555 1_555
F2 P1 1_555 1_555
F3 P1 1_555 1_555
F4 P1 1_555 1_555
F5 P1 1_555 1_555
F6 P1 1_555 1_555
Cl1 C30 1_555 1_555
Cl2 C30 1_555 1_555
C30 H22 1_555 1_555
H23 C30 1_555 1_555
C6 C7 1_555 1_555
C7 C8 1_555 1_555
C10 C11 1_555 1_555
C16 C17 1_555 1_555
C22 C23 1_555 1_555
C28 C29 1_555 1_555

#END
