
#######################################################################
#
#                 Cambridge Crystallographic Data Centre
#                                CCDC 
#
#######################################################################
#
# If this CIF has been generated from an entry in the Cambridge 
# Structural Database, then it will include bibliographic, chemical, 
# crystal, experimental, refinement or atomic coordinate data resulting 
# from the CCDC's data processing and validation procedures.
#
#######################################################################

data_DIHHEJ
_chemical_formula_moiety         'C11 H12 B1 N1 O1'
_chemical_name_systematic        1-methyl-3-phenoxy-1,3-azaborine
_symmetry_cell_setting           orthorhombic
_symmetry_space_group_name_H-M   'P c a 21'
_symmetry_Int_Tables_number      29
_space_group_name_Hall           'P 2c -2ac'
loop_
_symmetry_equiv_pos_site_id
_symmetry_equiv_pos_as_xyz
1 x,y,z
2 -x,-y,1/2+z
3 1/2+x,-y,z
4 1/2-x,y,1/2+z
_cell_length_a                   11.230(12)
_cell_length_b                   11.861(13)
_cell_length_c                   7.474(9)
_cell_angle_alpha                90
_cell_angle_beta                 90
_cell_angle_gamma                90
_cell_volume                     995.53
_exptl_crystal_colour            colorless
_exptl_crystal_description       plate
_cell_formula_units_Z            4
loop_
_atom_site_label
_atom_site_type_symbol
_atom_site_fract_x
_atom_site_fract_y
_atom_site_fract_z
O1 O 1.09275(14) 0.27918(16) 0.8744(3)
N1 N 0.89369(18) 0.5285(2) 0.8305(3)
B1 B 0.9881(2) 0.3413(3) 0.8325(4)
C1 C 0.9879(2) 0.4626(2) 0.8767(4)
C2 C 0.8788(2) 0.2977(3) 0.7402(4)
C3 C 0.7896(2) 0.3747(3) 0.7033(4)
C4 C 0.7970(2) 0.4864(3) 0.7478(4)
C5 C 0.8974(3) 0.6507(3) 0.8641(6)
C6 C 1.1004(2) 0.1636(2) 0.8651(4)
C7 C 1.1957(2) 0.1167(3) 0.7770(4)
C8 C 1.2112(3) 0.0014(3) 0.7757(4)
C9 C 1.1305(2) -0.0691(3) 0.8582(5)
C10 C 1.0333(3) -0.0208(3) 0.9448(4)
C11 C 1.0191(3) 0.0941(3) 0.9461(4)
H1 H 1.048(2) 0.510(2) 0.944(4)
H2 H 0.859(3) 0.215(2) 0.715(5)
H3 H 0.722(3) 0.345(2) 0.635(5)
H4 H 0.741(3) 0.542(2) 0.715(5)
H5 H 0.826(3) 0.680(3) 0.908(6)
H6 H 0.954(3) 0.668(3) 0.941(6)
H7 H 0.926(3) 0.696(3) 0.757(5)
H8 H 1.245(2) 0.1617(19) 0.716(4)
H9 H 1.273(4) -0.033(3) 0.711(6)
H10 H 1.143(2) -0.151(2) 0.856(5)
H11 H 0.979(3) -0.071(2) 0.994(4)
H12 H 0.956(3) 0.127(2) 1.011(4)
loop_
_geom_bond_atom_site_label_1
_geom_bond_atom_site_label_2
_geom_bond_site_symmetry_1
_geom_bond_site_symmetry_2
O1 B1 1_555 1_555
N1 C1 1_555 1_555
B1 C1 1_555 1_555
C1 H1 1_555 1_555
C2 B1 1_555 1_555
C3 C2 1_555 1_555
C4 N1 1_555 1_555
C5 N1 1_555 1_555
C6 O1 1_555 1_555
C7 C6 1_555 1_555
C8 C7 1_555 1_555
C9 C8 1_555 1_555
C10 C9 1_555 1_555
C11 C6 1_555 1_555
H2 C2 1_555 1_555
H3 C3 1_555 1_555
H4 C4 1_555 1_555
H5 C5 1_555 1_555
H6 C5 1_555 1_555
H7 C5 1_555 1_555
H8 C7 1_555 1_555
H9 C8 1_555 1_555
H10 C9 1_555 1_555
H11 C10 1_555 1_555
H12 C11 1_555 1_555
C3 C4 1_555 1_555
C10 C11 1_555 1_555

#END
