
#######################################################################
#
#                 Cambridge Crystallographic Data Centre
#                                CCDC 
#
#######################################################################
#
# If this CIF has been generated from an entry in the Cambridge 
# Structural Database, then it will include bibliographic, chemical, 
# crystal, experimental, refinement or atomic coordinate data resulting 
# from the CCDC's data processing and validation procedures.
#
#######################################################################

data_DIHJOW
_chemical_compound_source        
'endophytic fungus Penicillium commune QQF-3 from fresh fruit of the mangrove plant Kandelia candel'
_chemical_name_common            'Peniisocoumarin A unknown solvate'
_chemical_formula_moiety         'C28 H24 O12'
_chemical_name_systematic        
'dimethyl 3,4-bis(8-hydroxy-6-methoxy-1-oxo-1H-2-benzopyran-3-yl)cyclobutane-1,2-dicarboxylate unknown solvate'
_symmetry_cell_setting           monoclinic
_symmetry_space_group_name_H-M   'I 2/a'
_symmetry_Int_Tables_number      15
_space_group_name_Hall           '-I 2ya'
loop_
_symmetry_equiv_pos_site_id
_symmetry_equiv_pos_as_xyz
1 x,y,z
2 1/2-x,y,-z
3 1/2+x,1/2+y,1/2+z
4 -x,1/2+y,1/2-z
5 -x,-y,-z
6 1/2+x,-y,z
7 1/2-x,1/2-y,1/2-z
8 x,1/2-y,1/2+z
_cell_length_a                   27.9933(4)
_cell_length_b                   9.57267(8)
_cell_length_c                   22.8556(4)
_cell_angle_alpha                90
_cell_angle_beta                 118.274(2)
_cell_angle_gamma                90
_cell_volume                     5393.91
_exptl_crystal_colour            colorless
_exptl_crystal_description       prism
_chemical_melting_point          '142-143 deg.C'
_cell_formula_units_Z            8
loop_
_atom_site_label
_atom_site_type_symbol
_atom_site_fract_x
_atom_site_fract_y
_atom_site_fract_z
O1 O 0.45239(4) 0.08020(9) 0.89055(5)
O2 O 0.39209(5) 0.06846(10) 1.02692(5)
H1 H 0.3953 0.1342 1.0061
O3 O 0.54699(4) -0.15825(9) 0.70084(5)
O4 O 0.59747(4) 0.01109(11) 0.83233(5)
O5 O 0.50576(5) 0.05015(11) 0.67432(6)
O6 O 0.60946(4) -0.21611(11) 0.86055(5)
O7 O 0.36428(4) 0.06239(10) 0.73786(5)
O8 O 0.29256(5) 0.16569(12) 0.73365(7)
O9 O 0.41059(5) -0.41508(11) 1.04606(6)
O10 O 0.41915(5) 0.19602(10) 0.94632(5)
O11 O 0.20005(5) 0.02895(13) 0.69131(8)
H2 H 0.2201 0.0972 0.7036
C1 C 0.42808(5) -0.04860(14) 0.96304(6)
C2 C 0.44273(5) -0.17489(14) 0.94448(6)
O12 O 0.19694(4) -0.44281(13) 0.64070(6)
C3 C 0.43739(5) -0.30056(14) 0.97121(7)
H3 H 0.4470 -0.3843 0.9589
C4 C 0.57966(5) -0.10141(14) 0.83648(6)
C5 C 0.28266(6) -0.07249(15) 0.70103(8)
C6 C 0.40738(5) -0.05095(14) 1.00887(7)
C7 C 0.28128(6) -0.31705(16) 0.67168(7)
H4 H 0.2985 -0.3949 0.6659
C8 C 0.44693(5) -0.01158(13) 0.74744(6)
H5 H 0.4478 0.0789 0.7279
C9 C 0.39009(5) -0.05209(14) 0.72883(7)
C10 C 0.30877(5) -0.19093(15) 0.69319(7)
C11 C 0.48846(5) -0.01365(13) 0.82462(6)
H6 H 0.5100 0.0725 0.8372
C12 C 0.43223(5) 0.08193(14) 0.93452(7)
C13 C 0.48277(5) -0.11895(13) 0.73596(6)
H7 H 0.4633 -0.2060 0.7165
C14 C 0.52054(5) -0.13193(13) 0.81283(6)
H8 H 0.5155 -0.2216 0.8299
C15 C 0.51173(5) -0.06327(13) 0.69933(6)
C16 C 0.46307(5) -0.16602(14) 0.89685(7)
H9 H 0.4730 -0.2472 0.8830
C17 C 0.22738(6) -0.08220(17) 0.68578(8)
C18 C 0.46765(5) -0.04299(13) 0.87266(6)
C19 C 0.31123(6) 0.05739(16) 0.72464(8)
C20 C 0.40247(6) -0.17503(15) 1.03561(7)
H10 H 0.3893 -0.1762 1.0661
C21 C 0.22727(6) -0.32484(17) 0.65880(8)
C22 C 0.41843(8) -0.54779(15) 1.02285(9)
H11 H 0.4110 -0.6212 1.0460
H12 H 0.4553 -0.5552 1.0309
H13 H 0.3943 -0.5559 0.9761
C23 C 0.36493(5) -0.17473(15) 0.70802(7)
H14 H 0.3835 -0.2503 0.7030
C24 C 0.58381(7) -0.11231(16) 0.67660(8)
H15 H 0.5998 -0.0247 0.6969
H16 H 0.5642 -0.1010 0.6292
H17 H 0.6118 -0.1808 0.6876
C25 C 0.41740(6) -0.29963(14) 1.01678(7)
C26 C 0.20058(6) -0.20758(18) 0.66508(8)
H18 H 0.1644 -0.2141 0.6552
C27 C 0.66654(7) -0.1983(2) 0.88310(11)
H19 H 0.6801 -0.1239 0.9151
H20 H 0.6723 -0.1757 0.8460
H21 H 0.6853 -0.2833 0.9033
C28 C 0.22062(7) -0.56685(19) 0.63092(11)
H22 H 0.2535 -0.5878 0.6707
H23 H 0.2286 -0.5530 0.5948
H24 H 0.1957 -0.6432 0.6206
loop_
_geom_bond_atom_site_label_1
_geom_bond_atom_site_label_2
_geom_bond_site_symmetry_1
_geom_bond_site_symmetry_2
O1 C12 1_555 1_555
O2 H1 1_555 1_555
O3 C15 1_555 1_555
O4 C4 1_555 1_555
O5 C15 1_555 1_555
O6 C4 1_555 1_555
O7 C9 1_555 1_555
O8 C19 1_555 1_555
O9 C22 1_555 1_555
O10 C12 1_555 1_555
O11 H2 1_555 1_555
C1 C2 1_555 1_555
C2 C3 1_555 1_555
O12 C21 1_555 1_555
C3 H3 1_555 1_555
C4 C14 1_555 1_555
C5 C10 1_555 1_555
C6 O2 1_555 1_555
C7 H4 1_555 1_555
C8 H5 1_555 1_555
C9 C8 1_555 1_555
C10 C7 1_555 1_555
C11 C8 1_555 1_555
H6 C11 1_555 1_555
C12 C1 1_555 1_555
C13 C8 1_555 1_555
H7 C13 1_555 1_555
C14 C11 1_555 1_555
H8 C14 1_555 1_555
C15 C13 1_555 1_555
C16 C2 1_555 1_555
H9 C16 1_555 1_555
C17 O11 1_555 1_555
C18 O1 1_555 1_555
C19 O7 1_555 1_555
C20 C6 1_555 1_555
H10 C20 1_555 1_555
C21 C7 1_555 1_555
C22 H11 1_555 1_555
H12 C22 1_555 1_555
H13 C22 1_555 1_555
C23 C9 1_555 1_555
H14 C23 1_555 1_555
C24 O3 1_555 1_555
H15 C24 1_555 1_555
H16 C24 1_555 1_555
H17 C24 1_555 1_555
C25 O9 1_555 1_555
C26 C17 1_555 1_555
H18 C26 1_555 1_555
C27 O6 1_555 1_555
H19 C27 1_555 1_555
H20 C27 1_555 1_555
H21 C27 1_555 1_555
C28 O12 1_555 1_555
H22 C28 1_555 1_555
H23 C28 1_555 1_555
H24 C28 1_555 1_555
C1 C6 1_555 1_555
C3 C25 1_555 1_555
C5 C17 1_555 1_555
C5 C19 1_555 1_555
C10 C23 1_555 1_555
C11 C18 1_555 1_555
C13 C14 1_555 1_555
C16 C18 1_555 1_555
C20 C25 1_555 1_555
C21 C26 1_555 1_555

#END
