
#######################################################################
#
#                 Cambridge Crystallographic Data Centre
#                                CCDC 
#
#######################################################################
#
# If this CIF has been generated from an entry in the Cambridge 
# Structural Database, then it will include bibliographic, chemical, 
# crystal, experimental, refinement or atomic coordinate data resulting 
# from the CCDC's data processing and validation procedures.
#
#######################################################################

data_DIHJUC
_chemical_compound_source        
'endophytic fungus Penicillium commune QQF-3 from fresh fruit of the mangrove plant Kandelia candel'
_chemical_name_common            'Peniisocoumarin B'
_chemical_formula_moiety         'C28 H24 O12'
_chemical_name_systematic        
'dimethyl 3,4-bis(8-hydroxy-6-methoxy-1-oxo-1H-2-benzopyran-3-yl)cyclobutane-1,2-dicarboxylate'
_symmetry_cell_setting           triclinic
_symmetry_space_group_name_H-M   'P -1'
_symmetry_Int_Tables_number      2
_space_group_name_Hall           '-P 1'
loop_
_symmetry_equiv_pos_site_id
_symmetry_equiv_pos_as_xyz
1 x,y,z
2 -x,-y,-z
_cell_length_a                   8.18940(10)
_cell_length_b                   10.3069(2)
_cell_length_c                   15.1113(2)
_cell_angle_alpha                82.6270(10)
_cell_angle_beta                 87.4920(10)
_cell_angle_gamma                76.4570(10)
_cell_volume                     1229.66
_exptl_crystal_description       block
_chemical_melting_point          '148-149 deg.C'
_cell_formula_units_Z            2
loop_
_atom_site_label
_atom_site_type_symbol
_atom_site_fract_x
_atom_site_fract_y
_atom_site_fract_z
O1 O 0.28952(11) 0.84083(8) 0.20001(6)
O2 O 0.01853(11) 0.84872(9) 0.19998(6)
O3 O 0.33346(13) 1.20198(9) 0.35833(6)
O4 O 0.45650(11) 0.99188(8) 0.34202(6)
O5 O -0.18882(11) 1.05436(10) 0.11451(7)
H1 H -0.1605 0.9845 0.1485
O6 O 0.05922(11) 1.37799(9) -0.06116(6)
O7 O 0.13055(14) 1.25936(9) 0.49606(7)
H2 H 0.1872 1.2758 0.4518
O8 O 0.01776(12) 0.90054(9) 0.69176(6)
O9 O 0.47076(12) 0.62497(10) 0.08901(6)
O10 O 0.58594(13) 0.44794(9) 0.18852(7)
O11 O 0.36390(13) 0.60706(9) 0.31696(7)
C1 C 0.11070(15) 1.02699(11) 0.11268(8)
C2 C 0.22954(15) 1.19671(12) 0.02369(8)
H3 H 0.3216 1.2312 0.0037
C3 C 0.27621(16) 1.03449(12) 0.47045(8)
C4 C 0.25117(15) 1.07794(12) 0.08136(8)
C5 C 0.41392(15) 1.00103(12) 0.11199(8)
H4 H 0.5099 1.0301 0.0920
C6 C 0.07869(16) 1.07613(13) 0.59331(8)
H5 H 0.0014 1.1351 0.6248
C7 C 0.30872(15) 0.89563(12) 0.49991(8)
C8 C 0.06750(16) 1.26383(12) -0.00396(8)
C9 C -0.05122(15) 1.09820(12) 0.08460(8)
O12 O 0.54562(16) 0.46145(10) 0.40977(7)
C10 C 0.22852(16) 0.84689(12) 0.57585(8)
H6 H 0.2529 0.7555 0.5963
C11 C 0.49076(16) 0.85546(12) 0.37167(8)
C12 C 0.11134(16) 0.93754(13) 0.62039(8)
C13 C 0.35317(16) 1.08378(12) 0.38943(8)
C14 C 0.59044(15) 0.80733(12) 0.20633(8)
H7 H 0.6808 0.8473 0.1789
C15 C 0.55346(15) 0.57780(13) 0.15416(8)
C16 C 0.42793(15) 0.88851(12) 0.16872(8)
C17 C 0.16166(16) 1.12461(12) 0.51976(9)
C18 C -0.07309(15) 1.21569(12) 0.02586(8)
H8 H -0.1798 1.2616 0.0067
C19 C 0.42454(16) 0.80681(12) 0.44742(8)
H9 H 0.4533 0.7150 0.4665
C20 C 0.64449(17) 0.62634(13) 0.31025(8)
H10 H 0.7566 0.5802 0.3322
C21 C 0.13159(15) 0.90387(12) 0.17210(8)
C22 C 0.61651(16) 0.78171(12) 0.31056(8)
H11 H 0.7254 0.8000 0.3219
C23 C 0.64603(15) 0.65201(12) 0.20618(8)
H12 H 0.7638 0.6312 0.1863
C24 C -0.10184(17) 1.44788(13) -0.09601(10)
H13 H -0.0903 1.5263 -0.1352
H14 H -0.1772 1.4743 -0.0477
H15 H -0.1459 1.3898 -0.1285
C25 C 0.51521(19) 0.55495(13) 0.35177(9)
C26 C 0.04389(19) 0.76025(14) 0.72299(9)
H16 H 0.0257 0.7126 0.6751
H17 H -0.0334 0.7474 0.7711
H18 H 0.1569 0.7267 0.7437
C27 C 0.5078(2) 0.35897(14) 0.14741(11)
H19 H 0.5066 0.3829 0.0839
H20 H 0.3947 0.3671 0.1696
H21 H 0.5703 0.2679 0.1614
C28 C 0.2278(2) 0.55019(17) 0.35572(13)
H22 H 0.1238 0.5999 0.3291
H23 H 0.2218 0.5550 0.4188
H24 H 0.2473 0.4580 0.3450
loop_
_geom_bond_atom_site_label_1
_geom_bond_atom_site_label_2
_geom_bond_site_symmetry_1
_geom_bond_site_symmetry_2
O1 C16 1_555 1_555
O2 C21 1_555 1_555
O3 C13 1_555 1_555
O4 C11 1_555 1_555
O5 H1 1_555 1_555
O6 C8 1_555 1_555
O7 H2 1_555 1_555
O8 C12 1_555 1_555
O9 C15 1_555 1_555
O10 C15 1_555 1_555
O11 C25 1_555 1_555
C1 C4 1_555 1_555
C2 H3 1_555 1_555
C3 C7 1_555 1_555
C4 C2 1_555 1_555
C5 C4 1_555 1_555
H4 C5 1_555 1_555
C6 H5 1_555 1_555
C7 C10 1_555 1_555
C8 C2 1_555 1_555
C9 O5 1_555 1_555
O12 C25 1_555 1_555
C10 H6 1_555 1_555
C11 C19 1_555 1_555
C12 C6 1_555 1_555
C13 O4 1_555 1_555
C14 H7 1_555 1_555
C15 C23 1_555 1_555
C16 C5 1_555 1_555
C17 O7 1_555 1_555
C18 C8 1_555 1_555
H8 C18 1_555 1_555
C19 C7 1_555 1_555
H9 C19 1_555 1_555
C20 H10 1_555 1_555
C21 O1 1_555 1_555
C22 C11 1_555 1_555
H11 C22 1_555 1_555
C23 C14 1_555 1_555
H12 C23 1_555 1_555
C24 O6 1_555 1_555
H13 C24 1_555 1_555
H14 C24 1_555 1_555
H15 C24 1_555 1_555
C25 C20 1_555 1_555
C26 O8 1_555 1_555
H16 C26 1_555 1_555
H17 C26 1_555 1_555
H18 C26 1_555 1_555
C27 O10 1_555 1_555
H19 C27 1_555 1_555
H20 C27 1_555 1_555
H21 C27 1_555 1_555
C28 O11 1_555 1_555
H22 C28 1_555 1_555
H23 C28 1_555 1_555
H24 C28 1_555 1_555
C1 C9 1_555 1_555
C1 C21 1_555 1_555
C3 C13 1_555 1_555
C3 C17 1_555 1_555
C6 C17 1_555 1_555
C9 C18 1_555 1_555
C10 C12 1_555 1_555
C14 C16 1_555 1_555
C14 C22 1_555 1_555
C20 C22 1_555 1_555
C20 C23 1_555 1_555

#END
