
#######################################################################
#
#                 Cambridge Crystallographic Data Centre
#                                CCDC 
#
#######################################################################
#
# If this CIF has been generated from an entry in the Cambridge 
# Structural Database, then it will include bibliographic, chemical, 
# crystal, experimental, refinement or atomic coordinate data resulting 
# from the CCDC's data processing and validation procedures.
#
#######################################################################

data_DIHJAH
_chemical_formula_moiety         'C13 H8 N3 O3 S1 1-,C16 H36 N1 1+'
_chemical_name_systematic        
'tetra-n-butylammonium 5-(4-nitrophenyl)-2-(1H-pyrrol-2-yl)-1,3-thiazol-4-olate'
_symmetry_cell_setting           triclinic
_symmetry_space_group_name_H-M   'P -1'
_symmetry_Int_Tables_number      2
_space_group_name_Hall           '-P 1'
loop_
_symmetry_equiv_pos_site_id
_symmetry_equiv_pos_as_xyz
1 x,y,z
2 -x,-y,-z
_cell_length_a                   7.5125(2)
_cell_length_b                   11.7525(4)
_cell_length_c                   17.9159(7)
_cell_angle_alpha                75.109(1)
_cell_angle_beta                 88.515(2)
_cell_angle_gamma                74.760(2)
_cell_volume                     1473.45
_exptl_crystal_colour            'dark blue'
_exptl_crystal_description       prism
_cell_formula_units_Z            2
loop_
_atom_site_label
_atom_site_type_symbol
_atom_site_fract_x
_atom_site_fract_y
_atom_site_fract_z
S1 S 0.59852(7) 0.59783(4) 0.06958(3)
O1 O 0.54265(18) 0.81435(12) 0.20108(8)
O2 O 0.7562(3) 0.15075(16) 0.43740(11)
O3 O 0.7043(3) 0.28921(17) 0.50191(10)
N1 N 0.5168(2) 0.91126(15) -0.09938(9)
H1 H 0.497(3) 0.976(2) -0.0799(14)
N2 N 0.5406(2) 0.82553(14) 0.06998(9)
N3 N 0.7166(3) 0.25845(19) 0.44030(12)
C1 C 0.5168(3) 0.91826(18) -0.17633(11)
H2 H 0.494(3) 0.9975(19) -0.2129(12)
C2 C 0.5512(3) 0.80276(19) -0.18617(12)
H3 H 0.561(3) 0.777(2) -0.2339(14)
C3 C 0.5735(3) 0.72105(18) -0.11165(12)
H4 H 0.598(3) 0.632(2) -0.0979(14)
C4 C 0.5516(3) 0.79047(17) -0.05866(11)
C5 C 0.5605(3) 0.75249(17) 0.02447(11)
C6 C 0.5552(2) 0.75938(17) 0.14843(11)
C7 C 0.5867(3) 0.63129(17) 0.15900(11)
C8 C 0.6173(2) 0.53796(17) 0.22984(11)
C9 C 0.5983(3) 0.56618(19) 0.30240(12)
H5 H 0.563(3) 0.649(2) 0.3051(13)
C10 C 0.6296(3) 0.4756(2) 0.37087(12)
H6 H 0.614(3) 0.496(2) 0.4180(15)
C11 C 0.6828(3) 0.3537(2) 0.36857(13)
C12 C 0.7032(3) 0.3221(2) 0.29861(13)
H7 H 0.740(4) 0.237(2) 0.2976(15)
C13 C 0.6703(3) 0.41278(18) 0.23075(13)
H8 H 0.689(3) 0.390(2) 0.1821(14)
N4 N 0.0322(2) 0.84423(15) 0.26460(9)
C14 C 0.1816(3) 0.87339(19) 0.30667(12)
H9 H 0.281(3) 0.8740(19) 0.2711(12)
H10 H 0.227(3) 0.801(2) 0.3520(14)
C15 C 0.1264(3) 0.9905(2) 0.33271(14)
H11 H 0.030(4) 0.989(2) 0.3692(15)
H12 H 0.082(4) 1.063(2) 0.2889(16)
C16 C 0.2939(3) 1.0043(2) 0.37267(12)
H13 H 0.341(3) 0.934(2) 0.4127(14)
H14 H 0.396(4) 1.007(2) 0.3346(15)
C17 C 0.2494(4) 1.1172(3) 0.40324(18)
H15 H 0.155(4) 1.114(3) 0.4417(18)
H16 H 0.364(4) 1.126(3) 0.4269(17)
H17 H 0.197(4) 1.191(3) 0.362(2)
C18 C -0.0497(3) 0.94719(19) 0.19343(11)
H18 H -0.153(3) 0.9235(19) 0.1722(12)
H19 H -0.109(3) 1.018(2) 0.2145(13)
C19 C 0.0860(3) 0.9773(2) 0.13215(12)
H20 H 0.190(3) 0.996(2) 0.1560(14)
H21 H 0.136(3) 0.907(2) 0.1095(14)
C20 C -0.0054(3) 1.0912(2) 0.06849(13)
H22 H 0.080(3) 1.097(2) 0.0250(15)
H23 H -0.114(3) 1.081(2) 0.0459(14)
C21 C -0.0531(4) 1.2087(2) 0.09408(18)
H24 H -0.104(4) 1.277(3) 0.0495(17)
H25 H -0.149(4) 1.208(3) 0.1328(17)
H26 H 0.061(5) 1.221(3) 0.1159(19)
C22 C 0.1250(3) 0.72727(18) 0.24200(12)
H27 H 0.171(3) 0.6647(19) 0.2908(12)
H28 H 0.231(3) 0.744(2) 0.2125(13)
C23 C 0.0025(3) 0.68289(19) 0.19601(13)
H29 H -0.033(3) 0.745(2) 0.1450(15)
H30 H -0.112(3) 0.677(2) 0.2235(13)
C24 C 0.1013(3) 0.5578(2) 0.18393(14)
H31 H 0.215(3) 0.562(2) 0.1581(13)
H32 H 0.023(3) 0.541(2) 0.1478(15)
C25 C 0.1412(4) 0.4564(2) 0.25799(17)
H33 H 0.242(4) 0.461(2) 0.2898(15)
H34 H 0.179(4) 0.377(3) 0.2460(16)
H35 H 0.031(4) 0.455(2) 0.2884(16)
C26 C -0.1287(3) 0.82832(19) 0.31624(12)
H36 H -0.224(3) 0.8206(18) 0.2831(12)
H37 H -0.174(3) 0.904(2) 0.3299(12)
C27 C -0.0838(3) 0.7224(2) 0.38818(12)
H38 H -0.052(3) 0.641(2) 0.3737(14)
H39 H 0.023(4) 0.723(2) 0.4183(15)
C28 C -0.2492(3) 0.7298(2) 0.44012(12)
H40 H -0.357(3) 0.725(2) 0.4127(13)
H41 H -0.281(3) 0.810(2) 0.4507(14)
C29 C -0.2090(3) 0.6296(2) 0.51552(13)
H42 H -0.314(4) 0.635(2) 0.5489(16)
H43 H -0.179(3) 0.550(2) 0.5055(15)
H44 H -0.101(4) 0.634(2) 0.5448(16)
loop_
_geom_bond_atom_site_label_1
_geom_bond_atom_site_label_2
_geom_bond_site_symmetry_1
_geom_bond_site_symmetry_2
S1 C5 1_555 1_555
O1 C6 1_555 1_555
O2 N3 1_555 1_555
O3 N3 1_555 1_555
N1 H1 1_555 1_555
N2 C5 1_555 1_555
N3 C11 1_555 1_555
C1 N1 1_555 1_555
H2 C1 1_555 1_555
C2 C1 1_555 1_555
H3 C2 1_555 1_555
C3 C2 1_555 1_555
H4 C3 1_555 1_555
C4 N1 1_555 1_555
C5 C4 1_555 1_555
C6 N2 1_555 1_555
C7 S1 1_555 1_555
C8 C7 1_555 1_555
C9 C8 1_555 1_555
H5 C9 1_555 1_555
C10 C9 1_555 1_555
H6 C10 1_555 1_555
C11 C10 1_555 1_555
C12 C11 1_555 1_555
H7 C12 1_555 1_555
C13 C8 1_555 1_555
H8 C13 1_555 1_555
N4 C14 1_555 1_555
C14 H9 1_555 1_555
H10 C14 1_555 1_555
C15 C14 1_555 1_555
H11 C15 1_555 1_555
H12 C15 1_555 1_555
C16 C15 1_555 1_555
H13 C16 1_555 1_555
H14 C16 1_555 1_555
C17 C16 1_555 1_555
H15 C17 1_555 1_555
H16 C17 1_555 1_555
H17 C17 1_555 1_555
C18 N4 1_555 1_555
H18 C18 1_555 1_555
H19 C18 1_555 1_555
C19 C18 1_555 1_555
H20 C19 1_555 1_555
H21 C19 1_555 1_555
C20 C19 1_555 1_555
H22 C20 1_555 1_555
H23 C20 1_555 1_555
C21 C20 1_555 1_555
H24 C21 1_555 1_555
H25 C21 1_555 1_555
H26 C21 1_555 1_555
C22 N4 1_555 1_555
H27 C22 1_555 1_555
H28 C22 1_555 1_555
C23 C22 1_555 1_555
H29 C23 1_555 1_555
H30 C23 1_555 1_555
C24 C23 1_555 1_555
H31 C24 1_555 1_555
H32 C24 1_555 1_555
C25 C24 1_555 1_555
H33 C25 1_555 1_555
H34 C25 1_555 1_555
H35 C25 1_555 1_555
C26 N4 1_555 1_555
H36 C26 1_555 1_555
H37 C26 1_555 1_555
C27 C26 1_555 1_555
H38 C27 1_555 1_555
H39 C27 1_555 1_555
C28 C27 1_555 1_555
H40 C28 1_555 1_555
H41 C28 1_555 1_555
C29 C28 1_555 1_555
H42 C29 1_555 1_555
H43 C29 1_555 1_555
H44 C29 1_555 1_555
C3 C4 1_555 1_555
C6 C7 1_555 1_555
C12 C13 1_555 1_555

#END
