
#######################################################################
#
#                 Cambridge Crystallographic Data Centre
#                                CCDC 
#
#######################################################################
#
# If this CIF has been generated from an entry in the Cambridge 
# Structural Database, then it will include bibliographic, chemical, 
# crystal, experimental, refinement or atomic coordinate data resulting 
# from the CCDC's data processing and validation procedures.
#
#######################################################################

data_DIHKOX
_chemical_compound_source        
'endophytic fungus Penicillium commune QQF-3 from fresh fruit of the mangrove plant Kandelia candel'
_chemical_name_common            'Peniisocoumarin G'
_chemical_formula_moiety         'C12 H12 O6'
_chemical_name_systematic        
5,6,8-trihydroxy-3-((S)-2-hydroxypropyl)-1H-2-benzopyran-1-one
_chemical_properties_biological  
'Inhibitory effect against alpha-Glucosidase; cytotoxic activity'
_symmetry_cell_setting           orthorhombic
_symmetry_space_group_name_H-M   'P 21 21 2'
_symmetry_Int_Tables_number      18
_space_group_name_Hall           'P 2 2ab'
loop_
_symmetry_equiv_pos_site_id
_symmetry_equiv_pos_as_xyz
1 x,y,z
2 -x,-y,z
3 1/2+x,1/2-y,-z
4 1/2-x,1/2+y,-z
_cell_length_a                   14.7901(4)
_cell_length_b                   19.0871(5)
_cell_length_c                   8.0499(2)
_cell_angle_alpha                90
_cell_angle_beta                 90
_cell_angle_gamma                90
_cell_volume                     2272.49
_exptl_crystal_colour            colorless
_exptl_crystal_description       block
_chemical_melting_point          '206-207 deg.C'
_cell_formula_units_Z            8
loop_
_atom_site_label
_atom_site_type_symbol
_atom_site_fract_x
_atom_site_fract_y
_atom_site_fract_z
O1 O -0.83686(7) -0.20267(6) -0.12165(14)
O2 O -0.89258(8) -0.29334(6) 0.01406(15)
C1 C -0.99848(10) -0.21460(9) -0.10440(18)
C2 C -1.09524(10) -0.12525(8) -0.22795(18)
O3 O -1.06913(8) -0.31463(6) 0.02680(18)
H1 H -1.0161 -0.3223 0.0503
O4 O -1.25327(7) -0.13546(6) -0.20670(14)
H2 H -1.2923 -0.1588 -0.1603
O5 O -1.10222(8) -0.06239(6) -0.30712(16)
H3 H -1.1482 -0.0619 -0.3640
C3 C -1.00885(10) -0.15061(8) -0.19267(17)
C4 C -0.90926(11) -0.23981(8) -0.06648(18)
O6 O -0.71876(8) -0.07606(6) 0.01727(14)
C5 C -0.84664(11) -0.14082(8) -0.21250(19)
C6 C -1.07552(11) -0.25244(8) -0.05507(19)
C7 C -1.17042(10) -0.16322(8) -0.17372(18)
C8 C -0.92834(11) -0.11455(8) -0.24515(18)
H4 H -0.9333 -0.0724 -0.3025
C9 C -1.16070(10) -0.22682(8) -0.08956(19)
H5 H -1.2116 -0.2518 -0.0568
C10 C -0.72292(11) -0.05261(8) -0.1509(2)
H6 H -0.7667 -0.0142 -0.1562
C11 C -0.75732(11) -0.11150(9) -0.26352(18)
H7 H -0.7622 -0.0938 -0.3761
H8 H -0.7131 -0.1490 -0.2642
C12 C -0.63218(12) -0.02415(10) -0.2066(2)
H9 H -0.6121 0.0110 -0.1297
H10 H -0.6381 -0.0039 -0.3152
H11 H -0.5889 -0.0616 -0.2103
H12 H -0.6763(18) -0.1103(13) 0.027(3)
O7 O -1.14885(7) -0.19684(6) -0.63613(15)
O8 O -1.10092(8) -0.28867(6) -0.49711(16)
O9 O -0.92949(9) -0.31266(7) -0.45333(19)
H13 H -0.9838 -0.3187 -0.4385
O10 O -0.72830(7) -0.14405(6) -0.67626(14)
H14 H -0.6920 -0.1685 -0.6256
O11 O -0.86562(8) -0.06627(6) -0.79454(15)
H15 H -0.8201 -0.0703 -0.8518
C13 C -1.04987(11) -0.11249(8) -0.75456(18)
H16 H -1.0414 -0.0712 -0.8141
C14 C -0.97245(11) -0.15051(8) -0.69352(17)
C15 C -1.13355(11) -0.13586(8) -0.72654(19)
C16 C -0.91651(11) -0.25331(8) -0.5417(2)
C17 C -1.22119(11) -0.10399(8) -0.77863(19)
H17 H -1.2571 -0.1393 -0.8348
H18 H -1.2092 -0.0667 -0.8575
C18 C -0.81251(10) -0.16924(8) -0.65324(19)
O12 O -1.22244(8) -0.02460(6) -0.54126(14)
H19 H -1.1989 0.0033 -0.6056
C19 C -0.82888(11) -0.23127(8) -0.5674(2)
H20 H -0.7808 -0.2578 -0.5274
C20 C -1.07974(11) -0.23571(8) -0.57539(19)
C21 C -0.88350(11) -0.12862(8) -0.71711(18)
C22 C -0.98907(10) -0.21322(9) -0.60446(19)
C23 C -1.36333(11) -0.04142(10) -0.6940(2)
H21 H -1.3973(17) -0.0253(12) -0.597(3)
H22 H -1.4040(17) -0.0750(12) -0.758(3)
C24 C -1.27580(10) -0.07424(8) -0.63365(19)
H23 H -1.2912 -0.1131 -0.5592
H24 H -1.3502(18) -0.0019(12) -0.763(3)
loop_
_geom_bond_atom_site_label_1
_geom_bond_atom_site_label_2
_geom_bond_site_symmetry_1
_geom_bond_site_symmetry_2
O1 C4 1_555 1_555
O2 C4 1_555 1_555
C1 C3 1_555 1_555
C2 O5 1_555 1_555
O3 H1 1_555 1_555
O4 H2 1_555 1_555
O5 H3 1_555 1_555
C3 C2 1_555 1_555
C4 C1 1_555 1_555
O6 C10 1_555 1_555
C5 O1 1_555 1_555
C6 C1 1_555 1_555
C7 C2 1_555 1_555
C8 C3 1_555 1_555
H4 C8 1_555 1_555
C9 C6 1_555 1_555
H5 C9 1_555 1_555
C10 H6 1_555 1_555
C11 C5 1_555 1_555
H7 C11 1_555 1_555
H8 C11 1_555 1_555
C12 C10 1_555 1_555
H9 C12 1_555 1_555
H10 C12 1_555 1_555
H11 C12 1_555 1_555
H12 O6 1_555 1_555
O7 C15 1_555 1_555
O8 C20 1_555 1_555
O9 H13 1_555 1_555
O10 H14 1_555 1_555
O11 H15 1_555 1_555
C13 H16 1_555 1_555
C14 C13 1_555 1_555
C15 C13 1_555 1_555
C16 O9 1_555 1_555
C17 C15 1_555 1_555
H17 C17 1_555 1_555
H18 C17 1_555 1_555
C18 O10 1_555 1_555
O12 H19 1_555 1_555
C19 C16 1_555 1_555
H20 C19 1_555 1_555
C20 O7 1_555 1_555
C21 O11 1_555 1_555
C22 C14 1_555 1_555
C23 H21 1_555 1_555
H22 C23 1_555 1_555
C24 C17 1_555 1_555
H23 C24 1_555 1_555
H24 C23 1_555 1_555
O3 C6 1_555 1_555
O4 C7 1_555 1_555
C5 C8 1_555 1_555
C7 C9 1_555 1_555
C10 C11 1_555 1_555
C14 C21 1_555 1_555
C16 C22 1_555 1_555
C18 C19 1_555 1_555
C18 C21 1_555 1_555
O12 C24 1_555 1_555
C20 C22 1_555 1_555
C23 C24 1_555 1_555

#END
