
#######################################################################
#
#                 Cambridge Crystallographic Data Centre
#                                CCDC 
#
#######################################################################
#
# If this CIF has been generated from an entry in the Cambridge 
# Structural Database, then it will include bibliographic, chemical, 
# crystal, experimental, refinement or atomic coordinate data resulting 
# from the CCDC's data processing and validation procedures.
#
#######################################################################

data_DIHKAJ
_chemical_compound_source        
'endophytic fungus Penicillium commune QQF-3 from fresh fruit of the mangrove plant Kandelia candel'
_chemical_name_common            'Peniisocoumarin C'
_chemical_formula_moiety         'C15 H14 O6'
_chemical_name_systematic        
3-((3-acetyloxiran-2-yl)methyl)-8-hydroxy-6-methoxy-1H-2-benzopyran-1-one
_chemical_properties_biological  'Inhibitory effect against alpha-Glucosidase'
_symmetry_cell_setting           orthorhombic
_symmetry_space_group_name_H-M   'P 21 21 21'
_symmetry_Int_Tables_number      19
_space_group_name_Hall           'P 2ac 2ab'
loop_
_symmetry_equiv_pos_site_id
_symmetry_equiv_pos_as_xyz
1 x,y,z
2 1/2-x,-y,1/2+z
3 1/2+x,1/2-y,-z
4 -x,1/2+y,1/2-z
_cell_length_a                   4.55420(10)
_cell_length_b                   11.4674(3)
_cell_length_c                   25.3578(7)
_cell_angle_alpha                90
_cell_angle_beta                 90
_cell_angle_gamma                90
_cell_volume                     1324.31
_exptl_crystal_colour            colorless
_exptl_crystal_description       needle
_chemical_melting_point          '128-129 deg.C'
_cell_formula_units_Z            4
loop_
_atom_site_label
_atom_site_type_symbol
_atom_site_fract_x
_atom_site_fract_y
_atom_site_fract_z
O1 O 0.6952(3) 0.62069(13) 0.10367(5)
O2 O 0.6370(4) 0.42991(15) 0.09860(6)
C1 C 0.9672(5) 0.49968(19) 0.16399(8)
O3 O 1.1047(3) 0.88659(13) 0.03573(6)
C2 C 1.0137(5) 0.71186(18) 0.16553(8)
H1 H 1.0966 0.7795 0.1793
C3 C 1.0947(4) 0.59940(17) 0.18718(7)
O4 O 1.5237(4) 0.45747(14) 0.29164(6)
O5 O 0.9246(5) 0.28923(14) 0.16405(7)
H2 H 0.8295 0.3047 0.1375
C4 C 0.7124(5) 0.82708(19) 0.09957(8)
H3 H 0.7796 0.8948 0.1190
H4 H 0.4994 0.8274 0.0999
C5 C 1.3486(5) 0.47831(18) 0.24952(7)
C6 C 1.2849(5) 0.58933(18) 0.22986(8)
H5 H 1.3683 0.6553 0.2451
O6 O 0.8777(5) 1.09248(16) 0.08057(7)
C7 C 0.7606(5) 0.51043(18) 0.12122(8)
C8 C 1.0384(5) 0.38817(19) 0.18424(8)
C9 C 0.8212(5) 0.71903(19) 0.12601(8)
C10 C 1.2285(5) 0.37877(18) 0.22639(8)
H6 H 1.2770 0.3055 0.2395
C11 C 0.8200(5) 0.83467(19) 0.04341(8)
H7 H 0.7779 0.7665 0.0214
C12 C 0.7689(5) 1.05947(19) 0.03996(9)
C13 C 1.6461(5) 0.5562(2) 0.31893(8)
H8 H 1.7785 0.5969 0.2959
H9 H 1.7507 0.5298 0.3496
H10 H 1.4908 0.6077 0.3295
C14 C 0.8521(5) 0.9457(2) 0.01485(8)
H11 H 0.8274 0.9415 -0.0235
C15 C 0.5432(6) 1.1283(2) 0.01101(14)
H12 H 0.4803 1.1926 0.0325
H13 H 0.3780 1.0793 0.0031
H14 H 0.6259 1.1574 -0.0212
loop_
_geom_bond_atom_site_label_1
_geom_bond_atom_site_label_2
_geom_bond_site_symmetry_1
_geom_bond_site_symmetry_2
O1 C7 1_555 1_555
O2 C7 1_555 1_555
C1 C3 1_555 1_555
O3 C11 1_555 1_555
C2 H1 1_555 1_555
C3 C2 1_555 1_555
O4 C5 1_555 1_555
O5 H2 1_555 1_555
C4 H3 1_555 1_555
H4 C4 1_555 1_555
C5 C6 1_555 1_555
C6 C3 1_555 1_555
H5 C6 1_555 1_555
O6 C12 1_555 1_555
C7 C1 1_555 1_555
C8 C1 1_555 1_555
C9 O1 1_555 1_555
C10 C5 1_555 1_555
H6 C10 1_555 1_555
C11 C4 1_555 1_555
H7 C11 1_555 1_555
C12 C14 1_555 1_555
C13 O4 1_555 1_555
H8 C13 1_555 1_555
H9 C13 1_555 1_555
H10 C13 1_555 1_555
C14 O3 1_555 1_555
H11 C14 1_555 1_555
C15 C12 1_555 1_555
H12 C15 1_555 1_555
H13 C15 1_555 1_555
H14 C15 1_555 1_555
C2 C9 1_555 1_555
O5 C8 1_555 1_555
C4 C9 1_555 1_555
C8 C10 1_555 1_555
C11 C14 1_555 1_555

#END
