
#######################################################################
#
#                 Cambridge Crystallographic Data Centre
#                                CCDC 
#
#######################################################################
#
# If this CIF has been generated from an entry in the Cambridge 
# Structural Database, then it will include bibliographic, chemical, 
# crystal, experimental, refinement or atomic coordinate data resulting 
# from the CCDC's data processing and validation procedures.
#
#######################################################################

data_DIHNAL
_chemical_formula_moiety         'C12 H12 N1 O1 1+,F6 P1 1-'
_chemical_name_systematic        
'1-(2-Hydroxyphenyl)-2-methylpyridinium hexafluorophosphate'
_symmetry_cell_setting           monoclinic
_symmetry_space_group_name_H-M   'C 2/c'
_symmetry_Int_Tables_number      15
_space_group_name_Hall           '-C 2yn'
loop_
_symmetry_equiv_pos_site_id
_symmetry_equiv_pos_as_xyz
1 x,y,z
2 -x,y,1/2-z
3 1/2+x,1/2+y,z
4 1/2-x,1/2+y,1/2-z
5 -x,-y,-z
6 x,-y,1/2+z
7 1/2-x,1/2-y,-z
8 1/2+x,1/2-y,1/2+z
_cell_length_a                   27.198(5)
_cell_length_b                   7.1351(14)
_cell_length_c                   17.403(4)
_cell_angle_alpha                90
_cell_angle_beta                 127.87(3)
_cell_angle_gamma                90
_cell_volume                     2666.01
_exptl_crystal_colour            colorless
_exptl_crystal_description       block
_cell_formula_units_Z            8
loop_
_atom_site_label
_atom_site_type_symbol
_atom_site_fract_x
_atom_site_fract_y
_atom_site_fract_z
P1 P 0.0000 0.72544(17) 0.2500
F1 F 0.0000 0.5029(4) 0.2500
F2 F 0.00219(11) 0.7264(3) 0.16071(15)
F3 F 0.0000 0.9493(4) 0.2500
F4 F 0.07412(9) 0.7263(4) 0.32372(16)
F2A F -0.00219(11) 0.7264(3) 0.33929(15)
F4A F -0.07412(9) 0.7263(4) 0.17628(16)
P2 P 0.2500 0.7500 0.5000
F5 F 0.21172(10) 0.5650(3) 0.44100(15)
F6 F 0.20075(9) 0.8755(3) 0.40592(13)
F7 F 0.29088(10) 0.7269(3) 0.46328(15)
F5F F 0.28828(10) 0.9350(3) 0.55900(15)
F6F F 0.29925(9) 0.6245(3) 0.59408(13)
F7F F 0.20912(10) 0.7731(3) 0.53672(15)
O1 O 0.13554(12) 0.6465(3) 0.22433(17)
H1 H 0.1386 0.6848 0.2728
N1 N 0.12545(13) 0.5590(4) 0.06439(18)
C1 C 0.18325(17) 0.6255(5) 0.1041(2)
C2 C 0.23769(17) 0.5441(6) 0.1957(3)
H2 H 0.2350 0.5695 0.2472
H3 H 0.2751 0.5987 0.2114
H4 H 0.2384 0.4110 0.1882
C3 C 0.18734(19) 0.7696(5) 0.0538(3)
H5 H 0.2262 0.8182 0.0784
C4 C 0.1354(2) 0.8404(5) -0.0308(3)
H6 H 0.1390 0.9378 -0.0626
C5 C 0.0779(2) 0.7681(5) -0.0690(3)
H7 H 0.0424 0.8136 -0.1273
C6 C 0.07352(17) 0.6279(5) -0.0198(2)
H8 H 0.0347 0.5793 -0.0443
C7 C 0.11640(15) 0.4135(4) 0.1141(2)
C8 C 0.12118(15) 0.4654(4) 0.1956(2)
C9 C 0.11054(16) 0.3296(5) 0.2409(2)
H9 H 0.1139 0.3599 0.2959
C10 C 0.09497(16) 0.1490(5) 0.2042(3)
H10 H 0.0876 0.0590 0.2347
C11 C 0.09024(17) 0.1005(5) 0.1230(3)
H11 H 0.0799 -0.0216 0.0994
C12 C 0.10093(17) 0.2334(5) 0.0771(2)
H12 H 0.0978 0.2023 0.0223
loop_
_geom_bond_atom_site_label_1
_geom_bond_atom_site_label_2
_geom_bond_site_symmetry_1
_geom_bond_site_symmetry_2
P1 F1 1_555 1_555
F2 P1 1_555 1_555
F3 P1 1_555 1_555
F4 P1 1_555 1_555
P2 F5 1_555 1_555
F6 P2 1_555 1_555
F7 P2 1_555 1_555
O1 H1 1_555 1_555
N1 C1 1_555 1_555
C1 C2 1_555 1_555
C2 H2 1_555 1_555
H3 C2 1_555 1_555
H4 C2 1_555 1_555
C3 C1 1_555 1_555
H5 C3 1_555 1_555
C4 C3 1_555 1_555
H6 C4 1_555 1_555
C5 C4 1_555 1_555
H7 C5 1_555 1_555
C6 N1 1_555 1_555
H8 C6 1_555 1_555
C7 N1 1_555 1_555
C8 O1 1_555 1_555
C9 C8 1_555 1_555
H9 C9 1_555 1_555
C10 C9 1_555 1_555
H10 C10 1_555 1_555
C11 C10 1_555 1_555
H11 C11 1_555 1_555
C12 C7 1_555 1_555
H12 C12 1_555 1_555
F2A P1 1_555 1_555
F4A P1 1_555 1_555
F5F P2 1_555 1_555
F6F P2 1_555 1_555
F7F P2 1_555 1_555
C5 C6 1_555 1_555
C7 C8 1_555 1_555
C11 C12 1_555 1_555

#END
