
#######################################################################
#
#                 Cambridge Crystallographic Data Centre
#                                CCDC 
#
#######################################################################
#
# If this CIF has been generated from an entry in the Cambridge 
# Structural Database, then it will include bibliographic, chemical, 
# crystal, experimental, refinement or atomic coordinate data resulting 
# from the CCDC's data processing and validation procedures.
#
#######################################################################

data_DIHPUG
_chemical_formula_moiety         'C28 H40 O4'
_chemical_name_systematic        
10,21-Dimethoxy-1,12-dimethyltricyclo(17.3.1.1^8,12^)tetracosa-8,10,19,21-tetraene-23,24-dione
_symmetry_cell_setting           monoclinic
_symmetry_space_group_name_H-M   'P 21/n'
_symmetry_Int_Tables_number      14
_space_group_name_Hall           '-P 2yn'
loop_
_symmetry_equiv_pos_site_id
_symmetry_equiv_pos_as_xyz
1 x,y,z
2 1/2-x,1/2+y,1/2-z
3 -x,-y,-z
4 1/2+x,1/2-y,1/2+z
_cell_length_a                   12.336(3)
_cell_length_b                   11.201(2)
_cell_length_c                   18.593(4)
_cell_angle_alpha                90
_cell_angle_beta                 99.52(3)
_cell_angle_gamma                90
_cell_volume                     2533.72
_cell_formula_units_Z            4
loop_
_atom_site_label
_atom_site_type_symbol
_atom_site_fract_x
_atom_site_fract_y
_atom_site_fract_z
C1 C -0.24064(16) 0.24535(17) 0.07775(10)
C2 C -0.30571(16) 0.15944(17) 0.11609(10)
H1 H -0.3105 0.0799 0.1015
C3 C -0.35652(16) 0.19400(17) 0.17020(10)
C4 C -0.35667(16) 0.31827(18) 0.19232(11)
H2 H -0.3903 0.3376 0.2320
C5 C -0.31120(16) 0.40698(17) 0.15897(10)
C6 C -0.25427(16) 0.37631(17) 0.09771(11)
O1 O -0.21597(13) 0.45505(13) 0.06348(8)
C7 C -0.11768(16) 0.2166(2) 0.10067(12)
H3 H -0.0981 0.2240 0.1526
H4 H -0.0747 0.2714 0.0774
H5 H -0.1036 0.1365 0.0863
O2 O -0.41563(12) 0.12508(13) 0.21074(8)
C8 C -0.4291(2) 0.0033(2) 0.18958(13)
H6 H -0.4708 -0.0373 0.2214
H7 H -0.3583 -0.0337 0.1927
H8 H -0.4674 -0.0014 0.1403
C9 C -0.32828(18) 0.53606(18) 0.17609(12)
H9 H -0.3272(18) 0.5463(19) 0.2279(13)
H10 H -0.2682(18) 0.5844(19) 0.1649(11)
C10 C -0.27115(16) 0.23157(18) -0.00588(10)
H11 H -0.2246 0.2841 -0.0290
H12 H -0.2557 0.1502 -0.0190
C11 C -0.39025(17) 0.25959(19) -0.03568(11)
H13 H -0.4083 0.3374 -0.0180
H14 H -0.4368 0.2011 -0.0173
C12 C -0.41499(16) 0.25937(18) -0.11844(10)
H15 H -0.3994 0.1806 -0.1359
H16 H -0.3662 0.3155 -0.1367
C13 C -0.53367(17) 0.29216(18) -0.14974(11)
H17 H -0.5457 0.2796 -0.2021
H18 H -0.5828 0.2394 -0.1292
C14 C -0.43823(18) 0.57923(18) 0.13422(12)
H19 H -0.4371(16) 0.5664(17) 0.0831(12)
H20 H -0.4993(18) 0.5262(19) 0.1455(11)
C1B C -0.75936(16) 0.75465(17) -0.07775(10)
C2B C -0.69429(16) 0.84056(17) -0.11609(10)
H1B H -0.6895 0.9201 -0.1015
C3B C -0.64348(16) 0.80600(17) -0.17020(10)
C4B C -0.64333(16) 0.68173(18) -0.19232(11)
H2B H -0.6097 0.6624 -0.2320
C5B C -0.68880(16) 0.59302(17) -0.15897(10)
C6B C -0.74573(16) 0.62369(17) -0.09771(11)
O1B O -0.78403(13) 0.54495(13) -0.06348(8)
C7B C -0.88232(16) 0.7834(2) -0.10067(12)
H3B H -0.9019 0.7760 -0.1526
H4B H -0.9253 0.7286 -0.0774
H5B H -0.8964 0.8635 -0.0863
O2B O -0.58437(12) 0.87492(13) -0.21074(8)
C8B C -0.5709(2) 0.9967(2) -0.18958(13)
H6B H -0.5292 1.0373 -0.2214
H7B H -0.6417 1.0337 -0.1927
H8B H -0.5326 1.0014 -0.1403
C9B C -0.67172(18) 0.46394(18) -0.17609(12)
H9B H -0.6728(18) 0.4537(19) -0.2279(13)
H10B H -0.7318(18) 0.4156(19) -0.1649(11)
C10B C -0.72885(16) 0.76843(18) 0.00588(10)
H11B H -0.7754 0.7159 0.0290
H12B H -0.7443 0.8498 0.0190
C11B C -0.60975(17) 0.74041(19) 0.03568(11)
H13B H -0.5917 0.6626 0.0180
H14B H -0.5632 0.7989 0.0173
C12B C -0.58501(16) 0.74063(18) 0.11844(10)
H15B H -0.6006 0.8194 0.1359
H16B H -0.6338 0.6845 0.1367
C13B C -0.46633(17) 0.70784(18) 0.14974(11)
H17B H -0.4543 0.7204 0.2021
H18B H -0.4172 0.7606 0.1292
C14B C -0.56177(18) 0.42077(18) -0.13422(12)
H19B H -0.5629(16) 0.4336(17) -0.0831(12)
H20B H -0.5007(18) 0.4738(19) -0.1455(11)
C15 C 0.24945(17) 0.25666(18) 0.05681(11)
C16 C 0.17997(16) 0.35532(18) 0.07937(11)
H21 H 0.1668 0.4229 0.0502
C17 C 0.13681(15) 0.34813(17) 0.14027(10)
C18 C 0.15089(15) 0.24200(17) 0.18547(10)
H22 H 0.1216 0.2426 0.2284
C19 C 0.20351(16) 0.14273(18) 0.16946(10)
C20 C 0.25312(16) 0.14276(19) 0.10251(11)
O3 O 0.29956(14) 0.05386(14) 0.08441(9)
C21 C 0.36962(18) 0.3016(2) 0.06604(14)
H23 H 0.3947 0.3217 0.1162
H24 H 0.3732 0.3710 0.0362
H25 H 0.4155 0.2399 0.0514
O4 O 0.07349(12) 0.43160(12) 0.16739(8)
C22 C 0.0488(2) 0.53734(19) 0.12516(14)
H26 H 0.0050 0.5897 0.1495
H27 H 0.0089 0.5167 0.0780
H28 H 0.1160 0.5768 0.1195
C23 C 0.20858(19) 0.0308(2) 0.21542(13)
H29 H 0.2294(17) 0.0541(18) 0.2681(12)
H30 H 0.2680(19) -0.023(2) 0.2040(12)
C24 C 0.20958(18) 0.2240(2) -0.02443(11)
H31 H 0.2129 0.2948 -0.0540
H32 H 0.2593 0.1654 -0.0393
C25 C 0.09351(18) 0.1744(2) -0.03922(11)
H33 H 0.0437 0.2343 -0.0257
H34 H 0.0898 0.1055 -0.0081
C26 C 0.05407(17) 0.13786(18) -0.11776(11)
H35 H 0.1057 0.0811 -0.1323
H36 H 0.0532 0.2076 -0.1488
C27 C -0.05999(17) 0.08213(19) -0.12961(11)
H37 H -0.0602 0.0165 -0.0956
H38 H -0.1121 0.1412 -0.1182
C28 C 0.09899(19) -0.0359(2) 0.20632(11)
H39 H 0.0405(16) 0.0179(17) 0.2179(10)
H40 H 0.1015(16) -0.104(2) 0.2397(11)
C15B C -0.24945(17) -0.25666(18) -0.05681(11)
C16B C -0.17997(16) -0.35532(18) -0.07937(11)
H21B H -0.1668 -0.4229 -0.0502
C17B C -0.13681(15) -0.34813(17) -0.14027(10)
C18B C -0.15089(15) -0.24200(17) -0.18547(10)
H22B H -0.1216 -0.2426 -0.2284
C19B C -0.20351(16) -0.14273(18) -0.16946(10)
C20B C -0.25312(16) -0.14276(19) -0.10251(11)
O3B O -0.29956(14) -0.05386(14) -0.08441(9)
C21B C -0.36962(18) -0.3016(2) -0.06604(14)
H23B H -0.3947 -0.3217 -0.1162
H24B H -0.3732 -0.3710 -0.0362
H25B H -0.4155 -0.2399 -0.0514
O4B O -0.07349(12) -0.43160(12) -0.16739(8)
C22B C -0.0488(2) -0.53734(19) -0.12516(14)
H26B H -0.0050 -0.5897 -0.1495
H27B H -0.0089 -0.5167 -0.0780
H28B H -0.1160 -0.5768 -0.1195
C23B C -0.20858(19) -0.0308(2) -0.21542(13)
H29B H -0.2294(17) -0.0541(18) -0.2681(12)
H30B H -0.2680(19) 0.023(2) -0.2040(12)
C24B C -0.20958(18) -0.2240(2) 0.02443(11)
H31B H -0.2129 -0.2948 0.0540
H32B H -0.2593 -0.1654 0.0393
C25B C -0.09351(18) -0.1744(2) 0.03922(11)
H33B H -0.0437 -0.2343 0.0257
H34B H -0.0898 -0.1055 0.0081
C26B C -0.05407(17) -0.13786(18) 0.11776(11)
H35B H -0.1057 -0.0811 0.1323
H36B H -0.0532 -0.2076 0.1488
C27B C 0.05999(17) -0.08213(19) 0.12961(11)
H37B H 0.0602 -0.0165 0.0956
H38B H 0.1121 -0.1412 0.1182
C28B C -0.09899(19) 0.0359(2) -0.20632(11)
H39B H -0.0405(16) -0.0179(17) -0.2179(10)
H40B H -0.1015(16) 0.104(2) -0.2397(11)
loop_
_geom_bond_atom_site_label_1
_geom_bond_atom_site_label_2
_geom_bond_site_symmetry_1
_geom_bond_site_symmetry_2
C1 C2 1_555 1_555
C2 H1 1_555 1_555
C3 C2 1_555 1_555
C4 C3 1_555 1_555
H2 C4 1_555 1_555
C5 C4 1_555 1_555
C6 C1 1_555 1_555
O1 C6 1_555 1_555
C7 C1 1_555 1_555
H3 C7 1_555 1_555
H4 C7 1_555 1_555
H5 C7 1_555 1_555
O2 C3 1_555 1_555
C8 O2 1_555 1_555
H6 C8 1_555 1_555
H7 C8 1_555 1_555
H8 C8 1_555 1_555
C9 C5 1_555 1_555
H9 C9 1_555 1_555
H10 C9 1_555 1_555
C10 C1 1_555 1_555
H11 C10 1_555 1_555
H12 C10 1_555 1_555
C11 C10 1_555 1_555
H13 C11 1_555 1_555
H14 C11 1_555 1_555
C12 C11 1_555 1_555
H15 C12 1_555 1_555
H16 C12 1_555 1_555
C13 C12 1_555 1_555
H17 C13 1_555 1_555
H18 C13 1_555 1_555
C14 C9 1_555 1_555
H19 C14 1_555 1_555
H20 C14 1_555 1_555
C15 C16 1_555 1_555
C16 H21 1_555 1_555
C17 C16 1_555 1_555
C18 C17 1_555 1_555
H22 C18 1_555 1_555
C19 C18 1_555 1_555
C20 C15 1_555 1_555
O3 C20 1_555 1_555
C21 C15 1_555 1_555
H23 C21 1_555 1_555
H24 C21 1_555 1_555
H25 C21 1_555 1_555
O4 C17 1_555 1_555
C22 O4 1_555 1_555
H26 C22 1_555 1_555
H27 C22 1_555 1_555
H28 C22 1_555 1_555
C23 C19 1_555 1_555
H29 C23 1_555 1_555
H30 C23 1_555 1_555
C24 C15 1_555 1_555
H31 C24 1_555 1_555
H32 C24 1_555 1_555
C25 C24 1_555 1_555
H33 C25 1_555 1_555
H34 C25 1_555 1_555
C26 C25 1_555 1_555
H35 C26 1_555 1_555
H36 C26 1_555 1_555
C27 C26 1_555 1_555
H37 C27 1_555 1_555
H38 C27 1_555 1_555
C28 C23 1_555 1_555
H39 C28 1_555 1_555
H40 C28 1_555 1_555
C1B C2B 1_555 1_555
C2B H1B 1_555 1_555
C3B C2B 1_555 1_555
C4B C3B 1_555 1_555
H2B C4B 1_555 1_555
C5B C4B 1_555 1_555
C6B C1B 1_555 1_555
O1B C6B 1_555 1_555
C7B C1B 1_555 1_555
H3B C7B 1_555 1_555
H4B C7B 1_555 1_555
H5B C7B 1_555 1_555
O2B C3B 1_555 1_555
C8B O2B 1_555 1_555
H6B C8B 1_555 1_555
H7B C8B 1_555 1_555
H8B C8B 1_555 1_555
C9B C5B 1_555 1_555
H9B C9B 1_555 1_555
H10B C9B 1_555 1_555
C10B C1B 1_555 1_555
H11B C10B 1_555 1_555
H12B C10B 1_555 1_555
C11B C10B 1_555 1_555
H13B C11B 1_555 1_555
H14B C11B 1_555 1_555
C12B C11B 1_555 1_555
H15B C12B 1_555 1_555
H16B C12B 1_555 1_555
C13B C14 1_555 1_555
H17B C13B 1_555 1_555
H18B C13B 1_555 1_555
C14B C13 1_555 1_555
H19B C14B 1_555 1_555
H20B C14B 1_555 1_555
C15B C16B 1_555 1_555
C16B H21B 1_555 1_555
C17B C16B 1_555 1_555
C18B C17B 1_555 1_555
H22B C18B 1_555 1_555
C19B C18B 1_555 1_555
C20B C15B 1_555 1_555
O3B C20B 1_555 1_555
C21B C15B 1_555 1_555
H23B C21B 1_555 1_555
H24B C21B 1_555 1_555
H25B C21B 1_555 1_555
O4B C17B 1_555 1_555
C22B O4B 1_555 1_555
H26B C22B 1_555 1_555
H27B C22B 1_555 1_555
H28B C22B 1_555 1_555
C23B C19B 1_555 1_555
H29B C23B 1_555 1_555
H30B C23B 1_555 1_555
C24B C15B 1_555 1_555
H31B C24B 1_555 1_555
H32B C24B 1_555 1_555
C25B C24B 1_555 1_555
H33B C25B 1_555 1_555
H34B C25B 1_555 1_555
C26B C25B 1_555 1_555
H35B C26B 1_555 1_555
H36B C26B 1_555 1_555
C27B C28 1_555 1_555
H37B C27B 1_555 1_555
H38B C27B 1_555 1_555
C28B C27 1_555 1_555
H39B C28B 1_555 1_555
H40B C28B 1_555 1_555
C5 C6 1_555 1_555
C19 C20 1_555 1_555
C5B C6B 1_555 1_555
C9B C14B 1_555 1_555
C12B C13B 1_555 1_555
C19B C20B 1_555 1_555
C23B C28B 1_555 1_555
C26B C27B 1_555 1_555

#END
