
#######################################################################
#
#                 Cambridge Crystallographic Data Centre
#                                CCDC 
#
#######################################################################
#
# If this CIF has been generated from an entry in the Cambridge 
# Structural Database, then it will include bibliographic, chemical, 
# crystal, experimental, refinement or atomic coordinate data resulting 
# from the CCDC's data processing and validation procedures.
#
#######################################################################

data_DIHQUH
_chemical_formula_moiety         'C50 H38 N6 O10'
_chemical_name_systematic        
5,17-Di-p-tolyl-11,23-bis(methoxycarbonyl)-25,27-bis(benzyloxy)-2,8,14,20-tetraoxacalix(2)arene(2)triazine
_symmetry_cell_setting           monoclinic
_symmetry_space_group_name_H-M   'C 2/c'
_symmetry_Int_Tables_number      15
_space_group_name_Hall           '-C 2yn'
loop_
_symmetry_equiv_pos_site_id
_symmetry_equiv_pos_as_xyz
1 x,y,z
2 1/2+x,1/2+y,z
3 -x,y,1/2-z
4 1/2-x,1/2+y,1/2-z
5 -x,-y,-z
6 1/2-x,1/2-y,-z
7 x,-y,1/2+z
8 1/2+x,1/2-y,1/2+z
_cell_length_a                   9.3404(19)
_cell_length_b                   27.574(6)
_cell_length_c                   17.783(4)
_cell_angle_alpha                90
_cell_angle_beta                 102.76(3)
_cell_angle_gamma                90
_cell_volume                     4466.94
_exptl_crystal_colour            colorless
_exptl_crystal_description       'thin platelet'
_chemical_melting_point          'above 300 deg.C'
_cell_formula_units_Z            4
_exptl_crystal_recrystallization_method n-hexane/dichloromethane
loop_
_atom_site_label
_atom_site_type_symbol
_atom_site_fract_x
_atom_site_fract_y
_atom_site_fract_z
O1 O 1.33522(17) 0.29003(7) 0.21916(10)
O2 O 0.87763(17) 0.28810(7) 0.06033(9)
O3 O 1.3669(4) 0.46355(9) 0.31470(17)
O4 O 1.2677(3) 0.45962(8) 0.41612(16)
O5 O 1.18489(18) 0.24197(6) 0.31399(10)
N1 N 1.1003(2) 0.29044(8) 0.14532(11)
N2 N 1.0451(2) 0.23374(7) 0.04188(11)
N3 N 1.2818(2) 0.23395(8) 0.12591(12)
C1 C 1.0144(2) 0.26985(9) 0.08485(13)
C2 C 1.1816(3) 0.21627(9) 0.06632(14)
C3 C 1.2329(3) 0.27039(9) 0.16145(14)
C4 C 1.2168(2) 0.28997(9) 0.32548(14)
C5 C 1.2848(2) 0.31590(10) 0.27612(13)
C6 C 1.3132(3) 0.36447(10) 0.28589(14)
H1 H 1.3580 0.3812 0.2519
C7 C 1.2745(3) 0.38852(9) 0.34676(15)
C8 C 1.2066(3) 0.36336(10) 0.39752(14)
H2 H 1.1803 0.3793 0.4385
C9 C 0.8208(2) 0.31488(9) 0.11405(13)
C10 C 1.3082(3) 0.44079(11) 0.35604(19)
C11 C 1.2926(7) 0.51083(14) 0.4297(3)
H3 H 1.2585 0.5202 0.4747
H4 H 1.2402 0.5288 0.3860
H5 H 1.3957 0.5176 0.4376
C12 C 1.3052(3) 0.21096(11) 0.3492(2)
H6 H 1.3376 0.2189 0.4034
H7 H 1.3870 0.2157 0.3246
C13 C 1.2555(3) 0.15975(11) 0.34045(18)
C14 C 1.1723(4) 0.14199(16) 0.3883(3)
H8 H 1.1485 0.1623 0.4255
C15 C 1.1232(6) 0.0955(2) 0.3833(4)
H9 H 1.0655 0.0838 0.4157
C16 C 1.1605(10) 0.0676(2) 0.3307(6)
H10 H 1.1261 0.0358 0.3282
C17 C 1.2434(10) 0.0796(3) 0.2796(5)
H11 H 1.2670 0.0579 0.2441
C18 C 1.2918(5) 0.13037(19) 0.2863(3)
H12 H 1.3476 0.1425 0.2532
C19 C 1.2254(3) 0.17438(9) 0.02472(14)
C20 C 1.3622(3) 0.15314(10) 0.04973(16)
H13 H 1.4256 0.1649 0.0938
C21 C 1.4055(3) 0.11483(10) 0.01015(18)
H14 H 1.4980 0.1013 0.0278
C22 C 1.3134(3) 0.09617(10) -0.05554(17)
C23 C 1.1750(3) 0.11642(10) -0.07859(16)
H15 H 1.1097 0.1036 -0.1211
C24 C 1.1317(3) 0.15527(9) -0.03984(15)
H16 H 1.0389 0.1687 -0.0572
C25 C 1.3618(4) 0.05518(12) -0.1008(2)
H17 H 1.4605 0.0459 -0.0768
H18 H 1.3582 0.0657 -0.1526
H19 H 1.2976 0.0279 -0.1015
O1B O 0.66478(17) 0.29003(7) 0.28084(10)
O2B O 1.12237(17) 0.28810(7) 0.43967(9)
O3B O 0.6331(4) 0.46355(9) 0.18530(17)
O4B O 0.7323(3) 0.45962(8) 0.08388(16)
O5B O 0.81511(18) 0.24197(6) 0.18601(10)
N1B N 0.8997(2) 0.29044(8) 0.35468(11)
N2B N 0.9549(2) 0.23374(7) 0.45812(11)
N3B N 0.7182(2) 0.23395(8) 0.37409(12)
C1B C 0.9856(2) 0.26985(9) 0.41515(13)
C2B C 0.8184(3) 0.21627(9) 0.43368(14)
C3B C 0.7671(3) 0.27039(9) 0.33855(14)
C4B C 0.7832(2) 0.28997(9) 0.17452(14)
C5B C 0.7152(2) 0.31590(10) 0.22388(13)
C6B C 0.6868(3) 0.36447(10) 0.21411(14)
H1B H 0.6420 0.3812 0.2481
C7B C 0.7255(3) 0.38852(9) 0.15324(15)
C8B C 0.7934(3) 0.36336(10) 0.10248(14)
H2B H 0.8197 0.3793 0.0615
C9B C 1.1792(2) 0.31488(9) 0.38595(13)
C10B C 0.6918(3) 0.44079(11) 0.14396(19)
C11B C 0.7074(7) 0.51083(14) 0.0703(3)
H3B H 0.7415 0.5202 0.0253
H4B H 0.7598 0.5288 0.1140
H5B H 0.6043 0.5176 0.0624
C12B C 0.6948(3) 0.21096(11) 0.1508(2)
H6B H 0.6624 0.2189 0.0966
H7B H 0.6130 0.2157 0.1754
C13B C 0.7445(3) 0.15975(11) 0.15955(18)
C14B C 0.8277(4) 0.14199(16) 0.1117(3)
H8B H 0.8515 0.1623 0.0745
C15B C 0.8768(6) 0.0955(2) 0.1167(4)
H9B H 0.9345 0.0838 0.0843
C16B C 0.8395(10) 0.0676(2) 0.1693(6)
H10B H 0.8739 0.0358 0.1718
C17B C 0.7566(10) 0.0796(3) 0.2204(5)
H11B H 0.7330 0.0579 0.2559
C18B C 0.7082(5) 0.13037(19) 0.2137(3)
H12B H 0.6524 0.1425 0.2468
C19B C 0.7746(3) 0.17438(9) 0.47528(14)
C20B C 0.6378(3) 0.15314(10) 0.45027(16)
H13B H 0.5744 0.1649 0.4062
C21B C 0.5945(3) 0.11483(10) 0.48985(18)
H14B H 0.5020 0.1013 0.4722
C22B C 0.6866(3) 0.09617(10) 0.55554(17)
C23B C 0.8250(3) 0.11642(10) 0.57859(16)
H15B H 0.8903 0.1036 0.6211
C24B C 0.8683(3) 0.15527(9) 0.53984(15)
H16B H 0.9611 0.1687 0.5572
C25B C 0.6382(4) 0.05518(12) 0.6008(2)
H17B H 0.5395 0.0459 0.5768
H18B H 0.6418 0.0657 0.6526
H19B H 0.7024 0.0279 0.6015
loop_
_geom_bond_atom_site_label_1
_geom_bond_atom_site_label_2
_geom_bond_site_symmetry_1
_geom_bond_site_symmetry_2
O1 C3 1_555 1_555
O2 C1 1_555 1_555
O3 C10 1_555 1_555
O4 C10 1_555 1_555
O5 C4 1_555 1_555
N1 C1 1_555 1_555
N2 C1 1_555 1_555
N3 C2 1_555 1_555
C2 N2 1_555 1_555
C3 N1 1_555 1_555
C4 C5 1_555 1_555
C5 O1 1_555 1_555
C6 C5 1_555 1_555
H1 C6 1_555 1_555
C7 C6 1_555 1_555
C8 C7 1_555 1_555
H2 C8 1_555 1_555
C9 O2 1_555 1_555
C10 C7 1_555 1_555
C11 O4 1_555 1_555
H3 C11 1_555 1_555
H4 C11 1_555 1_555
H5 C11 1_555 1_555
C12 O5 1_555 1_555
H6 C12 1_555 1_555
H7 C12 1_555 1_555
C13 C12 1_555 1_555
C14 C13 1_555 1_555
H8 C14 1_555 1_555
C15 C14 1_555 1_555
H9 C15 1_555 1_555
C16 C15 1_555 1_555
H10 C16 1_555 1_555
C17 C16 1_555 1_555
H11 C17 1_555 1_555
C18 C13 1_555 1_555
H12 C18 1_555 1_555
C19 C2 1_555 1_555
C20 C19 1_555 1_555
H13 C20 1_555 1_555
C21 C20 1_555 1_555
H14 C21 1_555 1_555
C22 C21 1_555 1_555
C23 C22 1_555 1_555
H15 C23 1_555 1_555
C24 C19 1_555 1_555
H16 C24 1_555 1_555
C25 C22 1_555 1_555
H17 C25 1_555 1_555
H18 C25 1_555 1_555
H19 C25 1_555 1_555
O1B C3B 1_555 1_555
O2B C1B 1_555 1_555
O3B C10B 1_555 1_555
O4B C10B 1_555 1_555
O5B C4B 1_555 1_555
N1B C1B 1_555 1_555
N2B C1B 1_555 1_555
N3B C2B 1_555 1_555
C2B N2B 1_555 1_555
C3B N1B 1_555 1_555
C4B C9 1_555 1_555
C5B O1B 1_555 1_555
C6B C5B 1_555 1_555
H1B C6B 1_555 1_555
C7B C6B 1_555 1_555
C8B C9 1_555 1_555
H2B C8B 1_555 1_555
C9B C4 1_555 1_555
C10B C7B 1_555 1_555
C11B O4B 1_555 1_555
H3B C11B 1_555 1_555
H4B C11B 1_555 1_555
H5B C11B 1_555 1_555
C12B O5B 1_555 1_555
H6B C12B 1_555 1_555
H7B C12B 1_555 1_555
C13B C12B 1_555 1_555
C14B C13B 1_555 1_555
H8B C14B 1_555 1_555
C15B C14B 1_555 1_555
H9B C15B 1_555 1_555
C16B C15B 1_555 1_555
H10B C16B 1_555 1_555
C17B C16B 1_555 1_555
H11B C17B 1_555 1_555
C18B C13B 1_555 1_555
H12B C18B 1_555 1_555
C19B C2B 1_555 1_555
C20B C19B 1_555 1_555
H13B C20B 1_555 1_555
C21B C20B 1_555 1_555
H14B C21B 1_555 1_555
C22B C21B 1_555 1_555
C23B C22B 1_555 1_555
H15B C23B 1_555 1_555
C24B C19B 1_555 1_555
H16B C24B 1_555 1_555
C25B C22B 1_555 1_555
H17B C25B 1_555 1_555
H18B C25B 1_555 1_555
H19B C25B 1_555 1_555
N3 C3 1_555 1_555
C8 C9B 1_555 1_555
C17 C18 1_555 1_555
C23 C24 1_555 1_555
O2B C9B 1_555 1_555
N3B C3B 1_555 1_555
C4B C5B 1_555 1_555
C7B C8B 1_555 1_555
C17B C18B 1_555 1_555
C23B C24B 1_555 1_555

#END
