
#######################################################################
#
#                 Cambridge Crystallographic Data Centre
#                                CCDC 
#
#######################################################################
#
# If this CIF has been generated from an entry in the Cambridge 
# Structural Database, then it will include bibliographic, chemical, 
# crystal, experimental, refinement or atomic coordinate data resulting 
# from the CCDC's data processing and validation procedures.
#
#######################################################################

data_DIHQUI
_chemical_formula_moiety         'C13 H14 F1 N3 S1'
_chemical_name_systematic        
4-Cyclopropyl-3-((2-fluorobenzyl)sulfanyl)-5-methyl-4H-1,2,4-triazole
_symmetry_cell_setting           monoclinic
_symmetry_space_group_name_H-M   'P 21/c'
_symmetry_Int_Tables_number      14
_space_group_name_Hall           '-P 2ybc'
loop_
_symmetry_equiv_pos_site_id
_symmetry_equiv_pos_as_xyz
1 x,y,z
2 -x,1/2+y,1/2-z
3 -x,-y,-z
4 x,1/2-y,1/2+z
_cell_length_a                   12.614(3)
_cell_length_b                   7.0202(14)
_cell_length_c                   15.556(3)
_cell_angle_alpha                90
_cell_angle_beta                 110.92(3)
_cell_angle_gamma                90
_cell_volume                     1286.72
_exptl_crystal_colour            colorless
_exptl_crystal_description       cube
_cell_formula_units_Z            4
loop_
_atom_site_label
_atom_site_type_symbol
_atom_site_fract_x
_atom_site_fract_y
_atom_site_fract_z
S1 S 0.25460(2) 0.72865(5) 0.10753(2)
F1 F 0.47479(9) 1.03588(15) 0.09560(9)
N1 N 0.02652(8) 0.76087(12) 0.06242(7)
N2 N -0.04152(9) 0.73562(14) -0.08848(7)
N3 N 0.07749(8) 0.72026(14) -0.05853(7)
C1 C -0.18558(10) 0.78189(17) -0.01474(9)
H1 H -0.2375 0.8038 -0.0763
H2 H -0.1877 0.8881 0.0235
H3 H -0.2070 0.6681 0.0092
C2 C -0.06867(10) 0.75968(14) -0.01560(8)
C3 C 0.11449(10) 0.73640(15) 0.03134(8)
C4 C 0.03480(9) 0.79969(16) 0.15575(7)
H4 H 0.0415 0.9340 0.1741
C5 C 0.09753(10) 0.65923(17) 0.22940(8)
H5 H 0.1293 0.5474 0.2110
H6 H 0.1417 0.7089 0.2898
C6 C -0.02921(10) 0.67402(17) 0.19826(8)
H7 H -0.0614 0.7324 0.2399
H8 H -0.0738 0.5710 0.1612
C7 C 0.33043(10) 0.72418(17) 0.02736(9)
H9 H 0.3057 0.6174 -0.0147
H10 H 0.3177 0.8411 -0.0081
C8 C 0.45324(10) 0.70398(18) 0.08644(8)
C9 C 0.50173(12) 0.5259(2) 0.11343(10)
H11 H 0.4585 0.4170 0.0914
C10 C 0.61300(14) 0.5078(3) 0.17244(11)
H12 H 0.6440 0.3873 0.1895
C11 C 0.67813(14) 0.6671(4) 0.20611(12)
H13 H 0.7528 0.6544 0.2462
C12 C 0.63208(15) 0.8470(4) 0.17999(14)
H14 H 0.6752 0.9559 0.2021
C13 C 0.52096(13) 0.8608(2) 0.12052(12)
loop_
_geom_bond_atom_site_label_1
_geom_bond_atom_site_label_2
_geom_bond_site_symmetry_1
_geom_bond_site_symmetry_2
S1 C3 1_555 1_555
F1 C13 1_555 1_555
N1 C2 1_555 1_555
N2 N3 1_555 1_555
N3 C3 1_555 1_555
C1 H1 1_555 1_555
H2 C1 1_555 1_555
H3 C1 1_555 1_555
C2 N2 1_555 1_555
C3 N1 1_555 1_555
C4 N1 1_555 1_555
H4 C4 1_555 1_555
C5 C4 1_555 1_555
H5 C5 1_555 1_555
H6 C5 1_555 1_555
C6 C4 1_555 1_555
H7 C6 1_555 1_555
H8 C6 1_555 1_555
C7 S1 1_555 1_555
H9 C7 1_555 1_555
H10 C7 1_555 1_555
C8 C7 1_555 1_555
C9 C8 1_555 1_555
H11 C9 1_555 1_555
C10 C9 1_555 1_555
H12 C10 1_555 1_555
C11 C10 1_555 1_555
H13 C11 1_555 1_555
C12 C11 1_555 1_555
H14 C12 1_555 1_555
C13 C8 1_555 1_555
C1 C2 1_555 1_555
C5 C6 1_555 1_555
C12 C13 1_555 1_555

#END
