
#######################################################################
#
#                 Cambridge Crystallographic Data Centre
#                                CCDC 
#
#######################################################################
#
# If this CIF has been generated from an entry in the Cambridge 
# Structural Database, then it will include bibliographic, chemical, 
# crystal, experimental, refinement or atomic coordinate data resulting 
# from the CCDC's data processing and validation procedures.
#
#######################################################################

data_DIHQOB
_chemical_formula_moiety         'C36 H24 Cl2 N6 O10'
_chemical_name_systematic        
5,17-Dichloro-11,23-bis(methoxycarbonyl)-25,27-bis(benzyloxy)-2,8,14,20-tetraoxacalix(2)arene(2)triazine
_symmetry_cell_setting           triclinic
_symmetry_space_group_name_H-M   'P -1'
_symmetry_Int_Tables_number      2
_space_group_name_Hall           '-P 1'
loop_
_symmetry_equiv_pos_site_id
_symmetry_equiv_pos_as_xyz
1 x,y,z
2 -x,-y,-z
_cell_length_a                   9.3832(19)
_cell_length_b                   13.585(3)
_cell_length_c                   15.427(3)
_cell_angle_alpha                109.12(3)
_cell_angle_beta                 94.12(3)
_cell_angle_gamma                106.63(3)
_cell_volume                     1750.26
_exptl_crystal_colour            colorless
_exptl_crystal_description       prism
_chemical_melting_point          '230-232 deg.C'
_cell_formula_units_Z            2
_exptl_crystal_recrystallization_method n-hexane/dichloromethane
loop_
_atom_site_label
_atom_site_type_symbol
_atom_site_fract_x
_atom_site_fract_y
_atom_site_fract_z
Cl1 Cl 1.26058(9) 0.75101(6) -0.45472(6)
Cl2 Cl 0.63041(10) 0.74417(7) 0.17020(5)
O1 O 1.11304(19) 0.51415(15) -0.27966(13)
O2 O 0.8240(2) 0.48244(14) -0.03847(12)
O3 O 0.4956(2) 0.61261(14) -0.16530(12)
O4 O 0.7433(2) 0.59120(15) -0.42926(13)
O5 O 0.7612(3) 0.11598(17) -0.40175(15)
O6 O 0.5967(3) 0.12524(17) -0.30356(16)
O7 O 0.3632(3) 0.20937(17) -0.51015(16)
O8 O 0.2252(3) 0.23597(18) -0.39795(18)
O9 O 1.0220(2) 0.60960(14) -0.10451(15)
O10 O 0.7159(2) 0.70730(14) -0.25091(13)
N1 N 0.9195(2) 0.54699(16) -0.35265(14)
N2 N 0.9849(3) 0.66241(18) -0.44076(16)
N3 N 1.1768(2) 0.61956(17) -0.36526(16)
N4 N 0.6652(2) 0.54591(16) -0.10877(14)
N5 N 0.7294(3) 0.60217(17) 0.05651(15)
N6 N 0.5621(3) 0.67241(17) -0.01004(15)
C1 C 0.8878(3) 0.59983(19) -0.40549(17)
C2 C 1.1256(3) 0.6684(2) -0.41605(18)
C3 C 1.0658(3) 0.56082(19) -0.33518(17)
C4 C 0.9671(3) 0.50119(19) -0.15795(18)
C5 C 1.0010(3) 0.4514(2) -0.24484(19)
C6 C 0.9277(3) 0.3420(2) -0.29861(19)
H1 H 0.9550 0.3100 -0.3553
C7 C 0.8125(3) 0.2798(2) -0.26739(18)
C8 C 0.7773(3) 0.3266(2) -0.18072(18)
H2 H 0.7019 0.2851 -0.1588
C9 C 0.8554(3) 0.43503(19) -0.12800(17)
C10 C 0.7366(3) 0.54652(19) -0.03087(17)
C11 C 0.6419(3) 0.6641(2) 0.05978(18)
C12 C 0.5791(3) 0.60949(19) -0.09241(17)
C13 C 0.6220(3) 0.6016(2) -0.29619(18)
C14 C 0.5126(3) 0.5508(2) -0.25487(17)
C15 C 0.4180(3) 0.4436(2) -0.29907(18)
H3 H 0.3440 0.4116 -0.2704
C16 C 0.4361(3) 0.3842(2) -0.38786(18)
C17 C 0.5470(3) 0.4321(2) -0.43021(18)
H4 H 0.5601 0.3918 -0.4889
C18 C 0.6372(3) 0.5397(2) -0.38442(18)
C19 C 0.7243(3) 0.1654(2) -0.3320(2)
C20 C 0.5002(5) 0.0159(3) -0.3630(3)
H5 H 0.4130 -0.0060 -0.3360
H6 H 0.5550 -0.0351 -0.3692
H7 H 0.4683 0.0162 -0.4235
C21 C 0.3404(3) 0.2678(2) -0.4391(2)
C22 C 0.1227(5) 0.1246(3) -0.4461(4)
H8 H 0.0445 0.1090 -0.4109
H9 H 0.1775 0.0735 -0.4525
H10 H 0.0782 0.1173 -0.5068
C23 C 1.1819(3) 0.6685(2) -0.0863(2)
H11 H 1.2339 0.6188 -0.1181
H12 H 1.2206 0.6956 -0.0199
C24 C 1.2129(3) 0.7644(2) -0.11943(18)
C25 C 1.3590(3) 0.8371(2) -0.0971(3)
H13 H 1.4353 0.8256 -0.0637
C26 C 1.3912(4) 0.9269(3) -0.1247(3)
H14 H 1.4896 0.9758 -0.1101
C27 C 1.2788(5) 0.9442(3) -0.1737(3)
H15 H 1.3015 1.0048 -0.1922
C28 C 1.1341(4) 0.8733(3) -0.1954(2)
H16 H 1.0584 0.8855 -0.2285
C29 C 1.1002(3) 0.7833(2) -0.16795(19)
H17 H 1.0013 0.7354 -0.1822
C30 C 0.6512(4) 0.7870(2) -0.2666(2)
H18 H 0.5536 0.7775 -0.2474
H19 H 0.6373 0.7764 -0.3323
C31 C 0.7582(3) 0.9001(2) -0.2105(2)
C32 C 0.7887(4) 0.9370(3) -0.1151(2)
H20 H 0.7435 0.8906 -0.0847
C33 C 0.8832(5) 1.0397(4) -0.0643(3)
H21 H 0.9032 1.0633 0.0005
C34 C 0.9492(5) 1.1085(3) -0.1077(4)
H22 H 1.0122 1.1797 -0.0719
C35 C 0.9247(5) 1.0752(3) -0.2034(4)
H23 H 0.9722 1.1222 -0.2326
C36 C 0.8267(4) 0.9689(3) -0.2555(3)
H24 H 0.8076 0.9444 -0.3203
loop_
_geom_bond_atom_site_label_1
_geom_bond_atom_site_label_2
_geom_bond_site_symmetry_1
_geom_bond_site_symmetry_2
Cl1 C2 1_555 1_555
Cl2 C11 1_555 1_555
O1 C3 1_555 1_555
O2 C9 1_555 1_555
O3 C12 1_555 1_555
O4 C1 1_555 1_555
O5 C19 1_555 1_555
O6 C19 1_555 1_555
O7 C21 1_555 1_555
O8 C21 1_555 1_555
O9 C4 1_555 1_555
O10 C13 1_555 1_555
N1 C1 1_555 1_555
N2 C1 1_555 1_555
N3 C2 1_555 1_555
N4 C10 1_555 1_555
N5 C10 1_555 1_555
N6 C11 1_555 1_555
C2 N2 1_555 1_555
C3 N1 1_555 1_555
C4 C5 1_555 1_555
C5 O1 1_555 1_555
C6 C5 1_555 1_555
H1 C6 1_555 1_555
C7 C6 1_555 1_555
C8 C7 1_555 1_555
H2 C8 1_555 1_555
C9 C4 1_555 1_555
C10 O2 1_555 1_555
C11 N5 1_555 1_555
C12 N4 1_555 1_555
C13 C14 1_555 1_555
C14 O3 1_555 1_555
C15 C14 1_555 1_555
H3 C15 1_555 1_555
C16 C15 1_555 1_555
C17 C16 1_555 1_555
H4 C17 1_555 1_555
C18 O4 1_555 1_555
C19 C7 1_555 1_555
C20 O6 1_555 1_555
H5 C20 1_555 1_555
H6 C20 1_555 1_555
H7 C20 1_555 1_555
C21 C16 1_555 1_555
C22 O8 1_555 1_555
H8 C22 1_555 1_555
H9 C22 1_555 1_555
H10 C22 1_555 1_555
C23 O9 1_555 1_555
H11 C23 1_555 1_555
H12 C23 1_555 1_555
C24 C23 1_555 1_555
C25 C24 1_555 1_555
H13 C25 1_555 1_555
C26 C25 1_555 1_555
H14 C26 1_555 1_555
C27 C26 1_555 1_555
H15 C27 1_555 1_555
C28 C27 1_555 1_555
H16 C28 1_555 1_555
C29 C24 1_555 1_555
H17 C29 1_555 1_555
C30 O10 1_555 1_555
H18 C30 1_555 1_555
H19 C30 1_555 1_555
C31 C30 1_555 1_555
C32 C31 1_555 1_555
H20 C32 1_555 1_555
C33 C32 1_555 1_555
H21 C33 1_555 1_555
C34 C33 1_555 1_555
H22 C34 1_555 1_555
C35 C34 1_555 1_555
H23 C35 1_555 1_555
C36 C31 1_555 1_555
H24 C36 1_555 1_555
N3 C3 1_555 1_555
N6 C12 1_555 1_555
C8 C9 1_555 1_555
C13 C18 1_555 1_555
C17 C18 1_555 1_555
C28 C29 1_555 1_555
C35 C36 1_555 1_555

#END
