
#######################################################################
#
#                 Cambridge Crystallographic Data Centre
#                                CCDC 
#
#######################################################################
#
# If this CIF has been generated from an entry in the Cambridge 
# Structural Database, then it will include bibliographic, chemical, 
# crystal, experimental, refinement or atomic coordinate data resulting 
# from the CCDC's data processing and validation procedures.
#
#######################################################################

data_DIHRIW
_chemical_formula_moiety         'C48 H54 N6 O6,C1 H2 Cl2'
_chemical_name_systematic        
'5,11,17,23-Tetra-t-butyl-25,27-bis(benzyloxy)-2,8,14,20-tetraoxacalix(2)arene(2)triazine dichloromethane solvate'
_symmetry_cell_setting           monoclinic
_symmetry_space_group_name_H-M   'C 2/c'
_symmetry_Int_Tables_number      15
_space_group_name_Hall           '-C 2yn'
loop_
_symmetry_equiv_pos_site_id
_symmetry_equiv_pos_as_xyz
1 x,y,z
2 1/2+x,1/2+y,z
3 -x,y,1/2-z
4 1/2-x,1/2+y,1/2-z
5 -x,-y,-z
6 1/2-x,1/2-y,-z
7 x,-y,1/2+z
8 1/2+x,1/2-y,1/2+z
_cell_length_a                   14.890(3)
_cell_length_b                   17.963(4)
_cell_length_c                   18.365(4)
_cell_angle_alpha                90
_cell_angle_beta                 91.79(3)
_cell_angle_gamma                90
_cell_volume                     4909.67
_exptl_crystal_colour            colorless
_exptl_crystal_description       block
_chemical_melting_point          '280-282 deg.C'
_cell_formula_units_Z            4
_exptl_crystal_recrystallization_method acetone
loop_
_atom_site_label
_atom_site_type_symbol
_atom_site_fract_x
_atom_site_fract_y
_atom_site_fract_z
N1 N 0.7635(2) 0.18688(17) 0.39014(16)
N2 N 0.7786(3) 0.1898(2) 0.26223(17)
N3 N 0.7895(3) 0.0753(2) 0.3260(2)
O1 O 0.7840(2) 0.07492(15) 0.44867(15)
O2 O 0.7457(2) 0.29367(16) 0.32332(14)
O3 O 0.6747(2) 0.1230(3) 0.5626(2)
C1 C 0.7632(3) 0.2204(2) 0.3260(2)
C2 C 0.7896(4) 0.1161(3) 0.2657(2)
C3 C 0.7790(3) 0.1147(2) 0.3859(2)
C4 C 0.7635(3) 0.1403(2) 0.5621(2)
C5 C 0.8195(3) 0.11356(19) 0.50992(19)
C6 C 0.9117(3) 0.1193(2) 0.51726(19)
H1 H 0.9471 0.0995 0.4812
C7 C 0.9528(2) 0.15350(19) 0.57690(18)
C8 C 0.8970(3) 0.1844(2) 0.62816(19)
H2 H 0.9219 0.2098 0.6681
C9 C 0.6941(3) 0.3223(2) 0.37980(19)
C10 C 0.6122(4) 0.1635(4) 0.5260(4)
H3 H 0.6098 0.1496 0.4749
H4 H 0.6263 0.2161 0.5296
C11 C 0.5229(3) 0.1476(4) 0.5602(4)
C12 C 0.5040(6) 0.1810(7) 0.6226(5)
H5 H 0.5465 0.2126 0.6442
C13 C 0.4258(8) 0.1707(9) 0.6554(7)
H6 H 0.4145 0.1949 0.6989
C14 C 0.3634(7) 0.1248(10) 0.6248(7)
H7 H 0.3091 0.1186 0.6477
C15 C 0.3771(6) 0.0870(7) 0.5615(7)
H8 H 0.3338 0.0551 0.5415
C16 C 0.4598(5) 0.0984(5) 0.5280(4)
H9 H 0.4725 0.0737 0.4851
C17 C 1.0555(3) 0.1552(3) 0.5876(2)
C18 C 1.0916(9) 0.2112(7) 0.5348(9)
H10 H 1.0864 0.1916 0.4862
H11 H 1.1536 0.2211 0.5470
H12 H 1.0578 0.2566 0.5375
C20 C 1.0944(6) 0.0792(6) 0.5736(7)
H16 H 1.0499 0.0487 0.5493
H17 H 1.1126 0.0567 0.6191
H18 H 1.1456 0.0841 0.5434
C22 C 1.0855(8) 0.1786(9) 0.6654(6)
H22 H 1.0813 0.1367 0.6976
H23 H 1.0473 0.2179 0.6818
H24 H 1.1465 0.1959 0.6653
C24 C 0.7824(10) 0.0644(9) 0.1965(7)
C26 C 0.8770(13) 0.0399(17) 0.1889(9)
H28 H 0.8949 0.0098 0.2299
H29 H 0.9153 0.0828 0.1868
H30 H 0.8818 0.0115 0.1449
C28 C 0.7334(16) -0.0057(11) 0.2029(9)
H34 H 0.6711 0.0046 0.2103
H35 H 0.7578 -0.0335 0.2435
H36 H 0.7392 -0.0341 0.1591
C30 C 0.750(2) 0.1135(16) 0.1296(13)
H40 H 0.6870 0.1232 0.1325
H41 H 0.7615 0.0875 0.0852
H42 H 0.7825 0.1598 0.1304
N1E N 0.7365(2) 0.31312(17) 0.60986(16)
N2E N 0.7214(3) 0.3102(2) 0.73777(17)
N3E N 0.7105(3) 0.4247(2) 0.6740(2)
O1E O 0.7160(2) 0.42508(15) 0.55133(15)
O2E O 0.7543(2) 0.20633(16) 0.67668(14)
O3E O 0.8253(2) 0.3770(3) 0.4374(2)
C1E C 0.7368(3) 0.2796(2) 0.6740(2)
C2E C 0.7104(4) 0.3839(3) 0.7343(2)
C3E C 0.7210(3) 0.3853(2) 0.6141(2)
C4E C 0.7365(3) 0.3597(2) 0.4379(2)
C5E C 0.6805(3) 0.38644(19) 0.49008(19)
C6E C 0.5883(3) 0.3807(2) 0.48274(19)
H1E H 0.5529 0.4005 0.5188
C7E C 0.5472(2) 0.34650(19) 0.42310(18)
C8E C 0.6030(3) 0.3156(2) 0.37184(19)
H2E H 0.5781 0.2902 0.3319
C9E C 0.8059(3) 0.1777(2) 0.62020(19)
C10E C 0.8878(4) 0.3365(4) 0.4740(4)
H3E H 0.8902 0.3504 0.5251
H4E H 0.8737 0.2839 0.4704
C11E C 0.9771(3) 0.3524(4) 0.4398(4)
C12E C 0.9960(6) 0.3190(7) 0.3774(5)
H5E H 0.9535 0.2874 0.3558
C13E C 1.0742(8) 0.3293(9) 0.3446(7)
H6E H 1.0855 0.3051 0.3011
C14E C 1.1366(7) 0.3752(10) 0.3752(7)
H7E H 1.1909 0.3814 0.3523
C15E C 1.1229(6) 0.4130(7) 0.4385(7)
H8E H 1.1662 0.4449 0.4585
C16E C 1.0402(5) 0.4016(5) 0.4720(4)
H9E H 1.0275 0.4263 0.5149
C17E C 0.4445(3) 0.3448(3) 0.4124(2)
C18E C 0.4084(9) 0.2888(7) 0.4652(9)
H10E H 0.4136 0.3084 0.5138
H11E H 0.3464 0.2789 0.4530
H12E H 0.4422 0.2434 0.4625
C20E C 0.4056(6) 0.4208(6) 0.4264(7)
H16E H 0.4501 0.4513 0.4507
H17E H 0.3874 0.4433 0.3809
H18E H 0.3544 0.4159 0.4566
C22E C 0.4145(8) 0.3214(9) 0.3346(6)
H22E H 0.4187 0.3633 0.3024
H23E H 0.4527 0.2821 0.3182
H24E H 0.3535 0.3041 0.3347
C24E C 0.7176(10) 0.4356(9) 0.8035(7)
C26E C 0.6230(13) 0.4601(17) 0.8111(9)
H28E H 0.6051 0.4902 0.7701
H29E H 0.5847 0.4172 0.8132
H30E H 0.6182 0.4885 0.8551
C28E C 0.7666(16) 0.5057(11) 0.7971(9)
H34E H 0.8289 0.4954 0.7897
H35E H 0.7422 0.5335 0.7565
H36E H 0.7608 0.5341 0.8409
C30E C 0.750(2) 0.3865(16) 0.8704(13)
H40E H 0.8130 0.3768 0.8675
H41E H 0.7385 0.4125 0.9148
H42E H 0.7175 0.3402 0.8696
C32 C 0.5000 0.0931(9) 0.2500
Cl1 Cl 0.523(2) 0.0375(16) 0.3118(15)
Cl1B Cl 0.477(2) 0.0375(16) 0.1882(15)
C19? C 1.1040(11) 0.133(2) 0.5208(9)
H13? H 1.0782 0.0873 0.5015
H14? H 1.1664 0.1245 0.5332
H15? H 1.0985 0.1712 0.4848
C21? C 1.0780(8) 0.0943(14) 0.6428(12)
H19? H 1.0585 0.0471 0.6236
H20? H 1.0480 0.1043 0.6872
H21? H 1.1418 0.0932 0.6523
C23? C 1.0864(11) 0.2286(11) 0.6227(19)
H25? H 1.0735 0.2690 0.5897
H26? H 1.1499 0.2265 0.6333
H27? H 1.0551 0.2363 0.6670
C25? C 0.8290(13) 0.0857(10) 0.1914(9)
C27? C 0.9171(10) 0.1148(11) 0.1704(8)
H31? H 0.9604 0.1067 0.2094
H32? H 0.9123 0.1672 0.1606
H33? H 0.9361 0.0895 0.1275
C29? C 0.837(2) -0.0002(10) 0.2040(10)
H37? H 0.8915 -0.0110 0.2309
H38? H 0.8370 -0.0252 0.1578
H39? H 0.7865 -0.0171 0.2309
C31? C 0.755(4) 0.099(3) 0.1403(19)
H43? H 0.7710 0.0829 0.0927
H44? H 0.7415 0.1514 0.1391
H45? H 0.7031 0.0721 0.1553
Cl2? Cl 0.5485(13) 0.1358(13) 0.2862(14)
loop_
_geom_bond_atom_site_label_1
_geom_bond_atom_site_label_2
_geom_bond_site_symmetry_1
_geom_bond_site_symmetry_2
N1 C1 1_555 1_555
N2 C1 1_555 1_555
N3 C2 1_555 1_555
O1 C3 1_555 1_555
O2 C1 1_555 1_555
O3 C4 1_555 1_555
C2 N2 1_555 1_555
C3 N1 1_555 1_555
C4 C5 1_555 1_555
C5 O1 1_555 1_555
C6 C5 1_555 1_555
H1 C6 1_555 1_555
C7 C6 1_555 1_555
C8 C7 1_555 1_555
H2 C8 1_555 1_555
C9 O2 1_555 1_555
C10 O3 1_555 1_555
H3 C10 1_555 1_555
H4 C10 1_555 1_555
C11 C10 1_555 1_555
C12 C11 1_555 1_555
H5 C12 1_555 1_555
C13 C12 1_555 1_555
H6 C13 1_555 1_555
C14 C13 1_555 1_555
H7 C14 1_555 1_555
C15 C14 1_555 1_555
H8 C15 1_555 1_555
C16 C11 1_555 1_555
H9 C16 1_555 1_555
C17 C7 1_555 1_555
C18 C17 1_555 1_555
H10 C18 1_555 1_555
H11 C18 1_555 1_555
H12 C18 1_555 1_555
C20 C17 1_555 1_555
H16 C20 1_555 1_555
H17 C20 1_555 1_555
H18 C20 1_555 1_555
C22 C17 1_555 1_555
H22 C22 1_555 1_555
H23 C22 1_555 1_555
H24 C22 1_555 1_555
C24 C2 1_555 1_555
C26 C24 1_555 1_555
H28 C26 1_555 1_555
H29 C26 1_555 1_555
H30 C26 1_555 1_555
C28 C24 1_555 1_555
H34 C28 1_555 1_555
H35 C28 1_555 1_555
H36 C28 1_555 1_555
C30 C24 1_555 1_555
H40 C30 1_555 1_555
H41 C30 1_555 1_555
H42 C30 1_555 1_555
C32 Cl1 1_555 1_555
N1E C1E 1_555 1_555
N2E C1E 1_555 1_555
N3E C2E 1_555 1_555
O1E C3E 1_555 1_555
O2E C1E 1_555 1_555
O3E C4E 1_555 1_555
C2E N2E 1_555 1_555
C3E N1E 1_555 1_555
C4E C9 1_555 1_555
C5E O1E 1_555 1_555
C6E C5E 1_555 1_555
H1E C6E 1_555 1_555
C7E C6E 1_555 1_555
C8E C9 1_555 1_555
H2E C8E 1_555 1_555
C9E C4 1_555 1_555
C10E O3E 1_555 1_555
H3E C10E 1_555 1_555
H4E C10E 1_555 1_555
C11E C10E 1_555 1_555
C12E C11E 1_555 1_555
H5E C12E 1_555 1_555
C13E C12E 1_555 1_555
H6E C13E 1_555 1_555
C14E C13E 1_555 1_555
H7E C14E 1_555 1_555
C15E C14E 1_555 1_555
H8E C15E 1_555 1_555
C16E C11E 1_555 1_555
H9E C16E 1_555 1_555
C17E C7E 1_555 1_555
C18E C17E 1_555 1_555
H10E C18E 1_555 1_555
H11E C18E 1_555 1_555
H12E C18E 1_555 1_555
C20E C17E 1_555 1_555
H16E C20E 1_555 1_555
H17E C20E 1_555 1_555
H18E C20E 1_555 1_555
C22E C17E 1_555 1_555
H22E C22E 1_555 1_555
H23E C22E 1_555 1_555
H24E C22E 1_555 1_555
C24E C2E 1_555 1_555
C26E C24E 1_555 1_555
H28E C26E 1_555 1_555
H29E C26E 1_555 1_555
H30E C26E 1_555 1_555
C28E C24E 1_555 1_555
H34E C28E 1_555 1_555
H35E C28E 1_555 1_555
H36E C28E 1_555 1_555
C30E C24E 1_555 1_555
H40E C30E 1_555 1_555
H41E C30E 1_555 1_555
H42E C30E 1_555 1_555
Cl1B C32 1_555 1_555
N3 C3 1_555 1_555
C8 C9E 1_555 1_555
C15 C16 1_555 1_555
N3E C3E 1_555 1_555
O2E C9E 1_555 1_555
C4E C5E 1_555 1_555
C7E C8E 1_555 1_555
C15E C16E 1_555 1_555

#END
