
#######################################################################
#
#                 Cambridge Crystallographic Data Centre
#                                CCDC 
#
#######################################################################
#
# If this CIF has been generated from an entry in the Cambridge 
# Structural Database, then it will include bibliographic, chemical, 
# crystal, experimental, refinement or atomic coordinate data resulting 
# from the CCDC's data processing and validation procedures.
#
#######################################################################

data_DIJBED
_chemical_formula_moiety         'C15 H20 O3'
_chemical_name_systematic        'Iso-arteannuin B~2~'
_symmetry_cell_setting           orthorhombic
_symmetry_space_group_name_H-M   'P 21 21 21'
_symmetry_Int_Tables_number      19
_space_group_name_Hall           'P 2ac 2ab'
loop_
_symmetry_equiv_pos_site_id
_symmetry_equiv_pos_as_xyz
1 x,y,z
2 1/2+x,1/2-y,-z
3 -x,1/2+y,1/2-z
4 1/2-x,-y,1/2+z
_cell_length_a                   7.145(2)
_cell_length_b                   28.566(5)
_cell_length_c                   6.523(1)
_cell_angle_alpha                90
_cell_angle_beta                 90
_cell_angle_gamma                90
_cell_volume                     1331.37
_exptl_crystal_colour            colorless
_cell_formula_units_Z            4
loop_
_atom_site_label
_atom_site_type_symbol
_atom_site_fract_x
_atom_site_fract_y
_atom_site_fract_z
C1 C -0.0196(6) 0.0998(1) -0.0130(7)
C2 C 0.1375(6) 0.0632(1) 0.0089(7)
C3 C 0.1789(7) 0.0515(2) 0.2346(8)
C4 C 0.2076(7) 0.0940(2) 0.3658(7)
C5 C 0.1379(7) 0.1405(2) 0.2933(7)
C6 C 0.0465(6) 0.1460(1) 0.0872(6)
C7 C -0.1063(7) 0.1851(1) 0.0845(7)
C8 C -0.3019(7) 0.1678(2) 0.1416(8)
C9 C -0.3538(7) 0.1237(2) 0.0230(9)
C10 C -0.2143(7) 0.0835(1) 0.0579(8)
C11 C -0.0760(8) 0.2053(2) -0.1257(8)
C12 C 0.1237(8) 0.1975(1) -0.1756(7)
C13 C -0.1964(10) 0.2243(2) -0.2562(10)
C14 C 0.3658(8) 0.0928(2) 0.5172(8)
C15 C -0.2776(8) 0.0403(2) -0.0567(10)
O1 O 0.1959(4) 0.1657(1) -0.0415(5)
O2 O 0.2216(6) 0.2144(1) -0.3066(5)
O3 O 0.0334(5) 0.1144(1) 0.4430(5)
H1 H -0.021(6) 0.108(1) -0.161(6)
H2 H 0.263(8) 0.078(2) -0.055(8)
H3 H 0.094(7) 0.032(2) -0.073(8)
H4 H 0.287(8) 0.032(2) 0.242(8)
H5 H 0.071(7) 0.030(2) 0.285(8)
H6 H 0.202(7) 0.171(2) 0.351(7)
H7 H -0.060(7) 0.210(2) 0.185(8)
H8 H -0.415(9) 0.195(2) 0.142(9)
H9 H -0.306(8) 0.161(2) 0.302(8)
H10 H -0.353(7) 0.131(2) -0.128(8)
H11 H -0.482(8) 0.111(2) 0.055(8)
H12 H -0.215(7) 0.079(1) 0.219(7)
H13 H -0.169(10) 0.236(2) -0.408(10)
H14 H -0.361(11) 0.235(2) -0.201(11)
H15 H 0.373(8) 0.120(2) 0.594(8)
H16 H 0.492(9) 0.090(2) 0.450(10)
H17 H 0.353(9) 0.061(2) 0.625(9)
H18 H -0.196(7) 0.015(2) -0.051(8)
H19 H -0.284(9) 0.043(2) -0.204(10)
H20 H -0.406(10) 0.026(2) 0.026(11)
loop_
_geom_bond_atom_site_label_1
_geom_bond_atom_site_label_2
_geom_bond_site_symmetry_1
_geom_bond_site_symmetry_2
C1 C2 1_555 1_555
C2 C3 1_555 1_555
C3 C4 1_555 1_555
C4 C5 1_555 1_555
C5 C6 1_555 1_555
C6 C1 1_555 1_555
C7 C6 1_555 1_555
C8 C7 1_555 1_555
C9 C8 1_555 1_555
C10 C1 1_555 1_555
C11 C7 1_555 1_555
C12 C11 1_555 1_555
C13 C11 1_555 1_555
C14 C4 1_555 1_555
C15 C10 1_555 1_555
O1 C6 1_555 1_555
O2 C12 1_555 1_555
O3 C4 1_555 1_555
H1 C1 1_555 1_555
H2 C2 1_555 1_555
H3 C2 1_555 1_555
H4 C3 1_555 1_555
H5 C3 1_555 1_555
H6 C5 1_555 1_555
H7 C7 1_555 1_555
H8 C8 1_555 1_555
H9 C8 1_555 1_555
H10 C9 1_555 1_555
H11 C9 1_555 1_555
H12 C10 1_555 1_555
H13 C13 1_555 1_555
H14 C13 1_555 1_555
H15 C14 1_555 1_555
H16 C14 1_555 1_555
H17 C14 1_555 1_555
H18 C15 1_555 1_555
H19 C15 1_555 1_555
H20 C15 1_555 1_555
C5 O3 1_555 1_555
C9 C10 1_555 1_555
C12 O1 1_555 1_555

#END
