
#######################################################################
#
#                 Cambridge Crystallographic Data Centre
#                                CCDC 
#
#######################################################################
#
# If this CIF has been generated from an entry in the Cambridge 
# Structural Database, then it will include bibliographic, chemical, 
# crystal, experimental, refinement or atomic coordinate data resulting 
# from the CCDC's data processing and validation procedures.
#
#######################################################################

data_DIJCOR
_chemical_formula_moiety         'C20 H18 O1'
_chemical_name_systematic        
6-methyl-5-phenyl-3,4-dihydro-2H-naphtho[1,2-b]pyran
_symmetry_cell_setting           monoclinic
_symmetry_space_group_name_H-M   'C 2/c'
_symmetry_Int_Tables_number      15
_space_group_name_Hall           '-C 2yn'
loop_
_symmetry_equiv_pos_site_id
_symmetry_equiv_pos_as_xyz
1 x,y,z
2 -x,y,1/2-z
3 1/2+x,1/2+y,z
4 1/2-x,1/2+y,1/2-z
5 -x,-y,-z
6 x,-y,1/2+z
7 1/2-x,1/2-y,-z
8 1/2+x,1/2-y,1/2+z
_cell_length_a                   14.0810(14)
_cell_length_b                   14.4862(11)
_cell_length_c                   16.1120(15)
_cell_angle_alpha                90
_cell_angle_beta                 113.689(12)
_cell_angle_gamma                90
_cell_volume                     3009.6
_exptl_crystal_colour            brown
_exptl_crystal_description       parallelepiped
_cell_formula_units_Z            8
loop_
_atom_site_label
_atom_site_type_symbol
_atom_site_fract_x
_atom_site_fract_y
_atom_site_fract_z
O1 O 0.97961(14) 0.00859(12) 0.63696(11)
C1 C 1.0771(2) 0.0551(2) 0.6670(2)
H1 H 1.1180 0.0279 0.6371
H2 H 1.1141 0.0451 0.7316
C2 C 1.0688(2) 0.1551(2) 0.6493(2)
H3 H 1.1376 0.1815 0.6688
H4 H 1.0342 0.1840 0.6839
C3 C 1.0083(2) 0.17437(19) 0.54936(17)
H5 H 0.9912 0.2395 0.5406
H6 H 1.0506 0.1593 0.5163
C4 C 0.90977(18) 0.11785(16) 0.51293(15)
C5 C 0.90217(18) 0.04036(17) 0.55918(15)
C6 C 0.80929(19) -0.01260(16) 0.52966(15)
C7 C 0.8023(2) -0.09366(18) 0.57682(18)
H7 H 0.8597 -0.1137 0.6269
C8 C 0.7114(3) -0.1421(2) 0.5487(2)
H8 H 0.7074 -0.1953 0.5794
C9 C 0.6247(2) -0.1121(2) 0.4739(2)
H9 H 0.5629 -0.1450 0.4558
C10 C 0.6295(2) -0.0352(2) 0.42719(18)
H10 H 0.5706 -0.0163 0.3778
C11 C 0.72238(18) 0.01687(17) 0.45210(15)
C12 C 0.73053(19) 0.09655(17) 0.40318(15)
C13 C 0.82320(18) 0.14421(16) 0.43277(14)
C14 C 0.83502(18) 0.22579(16) 0.38072(14)
C15 C 0.8662(2) 0.21392(19) 0.31006(17)
H11 H 0.8809 0.1550 0.2956
C16 C 0.8755(2) 0.2889(2) 0.26089(18)
H12 H 0.8957 0.2799 0.2132
C17 C 0.8551(2) 0.3767(2) 0.28171(18)
H13 H 0.8614 0.4269 0.2483
C18 C 0.8253(2) 0.38966(19) 0.35239(19)
H14 H 0.8125 0.4489 0.3677
C19 C 0.8146(2) 0.31454(17) 0.40036(17)
H15 H 0.7931 0.3238 0.4473
C20 C 0.6385(3) 0.1304(2) 0.3224(2)
H16 H 0.6560 0.1870 0.3009
H17 H 0.5814 0.1409 0.3394
H18 H 0.6193 0.0849 0.2751
loop_
_geom_bond_atom_site_label_1
_geom_bond_atom_site_label_2
_geom_bond_site_symmetry_1
_geom_bond_site_symmetry_2
O1 C1 1_555 1_555
C1 H1 1_555 1_555
H2 C1 1_555 1_555
C2 C1 1_555 1_555
H3 C2 1_555 1_555
H4 C2 1_555 1_555
C3 C2 1_555 1_555
H5 C3 1_555 1_555
H6 C3 1_555 1_555
C4 C3 1_555 1_555
C5 O1 1_555 1_555
C6 C5 1_555 1_555
C7 C6 1_555 1_555
H7 C7 1_555 1_555
C8 C7 1_555 1_555
H8 C8 1_555 1_555
C9 C8 1_555 1_555
H9 C9 1_555 1_555
C10 C9 1_555 1_555
H10 C10 1_555 1_555
C11 C6 1_555 1_555
C12 C11 1_555 1_555
C13 C4 1_555 1_555
C14 C13 1_555 1_555
C15 C14 1_555 1_555
H11 C15 1_555 1_555
C16 C15 1_555 1_555
H12 C16 1_555 1_555
C17 C16 1_555 1_555
H13 C17 1_555 1_555
C18 C17 1_555 1_555
H14 C18 1_555 1_555
C19 C14 1_555 1_555
H15 C19 1_555 1_555
C20 C12 1_555 1_555
H16 C20 1_555 1_555
H17 C20 1_555 1_555
H18 C20 1_555 1_555
C4 C5 1_555 1_555
C10 C11 1_555 1_555
C12 C13 1_555 1_555
C18 C19 1_555 1_555

#END
