
#######################################################################
#
#                 Cambridge Crystallographic Data Centre
#                                CCDC 
#
#######################################################################
#
# If this CIF has been generated from an entry in the Cambridge 
# Structural Database, then it will include bibliographic, chemical, 
# crystal, experimental, refinement or atomic coordinate data resulting 
# from the CCDC's data processing and validation procedures.
#
#######################################################################

data_DIJCEE
_chemical_compound_source        
'red rhizomes of Boesenbergia pandurata (Roxb.) Schltr'
_chemical_name_common            'Panduratin A'
_chemical_formula_moiety         'C26 H30 O4'
_chemical_name_systematic        
(1'RS,2'SR,6'RS)-(2,6-Dihydroxy-4-methoxyphenyl)-(3'-methyl-2'-(3''-methylbut-2''-enyl)-6-phenyl-cyclohex-3'-enyl)-methanone
_symmetry_cell_setting           monoclinic
_symmetry_space_group_name_H-M   'P 21/n'
_symmetry_Int_Tables_number      14
_space_group_name_Hall           '-P 2yn'
loop_
_symmetry_equiv_pos_site_id
_symmetry_equiv_pos_as_xyz
1 x,y,z
2 1/2-x,1/2+y,1/2-z
3 -x,-y,-z
4 1/2+x,1/2-y,1/2+z
_cell_length_a                   10.140(5)
_cell_length_b                   24.85(1)
_cell_length_c                   9.415(4)
_cell_angle_alpha                90
_cell_angle_beta                 90.69(4)
_cell_angle_gamma                90
_cell_volume                     2372.21
_exptl_crystal_colour            yellow
_cell_formula_units_Z            4
loop_
_atom_site_label
_atom_site_type_symbol
_atom_site_fract_x
_atom_site_fract_y
_atom_site_fract_z
C1 C 0.3743(4) 0.0633(2) 0.3608(4)
C2 C 0.3067(4) 0.0490(2) 0.2220(5)
C3 C 0.1963(4) 0.0759(2) 0.1720(5)
C4 C 0.1321(5) 0.0583(2) 0.0477(5)
C5 C 0.1754(5) 0.0145(2) -0.0244(5)
C6 C 0.2860(5) -0.0119(2) 0.0236(5)
C7 C 0.3490(5) 0.0053(2) 0.1456(5)
C8 C 0.3794(4) 0.1237(2) 0.3959(4)
C9 C 0.4609(4) 0.1345(2) 0.5340(4)
C10 C 0.6120(4) 0.1277(2) 0.5159(5)
C11 C 0.6845(5) 0.1758(2) 0.4580(5)
C12 C 0.7761(5) 0.1760(2) 0.3590(5)
C13 C 0.8211(6) 0.1279(3) 0.2786(6)
C14 C 0.8424(6) 0.2283(3) 0.3205(7)
C15 C 0.4116(4) 0.0990(2) 0.6533(4)
C16 C 0.4427(5) 0.1180(2) 0.8012(5)
C17 C 0.3443(5) 0.0550(2) 0.6283(5)
C18 C 0.3060(5) 0.0341(2) 0.4836(5)
C19 C 0.4319(4) 0.1578(2) 0.2759(4)
O1 O 0.5023(3) 0.1348(1) 0.1856(3)
C20 C 0.4108(4) 0.2158(2) 0.2693(4)
C21 C 0.3218(4) 0.2460(2) 0.3535(4)
O2 O 0.2366(3) 0.2190(1) 0.4359(3)
C22 C 0.3202(4) 0.3014(2) 0.3483(5)
C23 C 0.4046(4) 0.3294(2) 0.2602(4)
O3 O 0.3918(3) 0.3835(1) 0.2667(3)
C24 C 0.4686(5) 0.4155(2) 0.1756(6)
C25 C 0.4921(4) 0.3020(2) 0.1745(4)
C26 C 0.4919(4) 0.2464(2) 0.1786(4)
O4 O 0.5748(3) 0.2208(1) 0.0894(3)
loop_
_geom_bond_atom_site_label_1
_geom_bond_atom_site_label_2
_geom_bond_site_symmetry_1
_geom_bond_site_symmetry_2
C1 C2 1_555 1_555
C2 C3 1_555 1_555
C3 C4 1_555 1_555
C4 C5 1_555 1_555
C5 C6 1_555 1_555
C6 C7 1_555 1_555
C7 C2 1_555 1_555
C8 C1 1_555 1_555
C9 C8 1_555 1_555
C10 C9 1_555 1_555
C11 C10 1_555 1_555
C12 C11 1_555 1_555
C13 C12 1_555 1_555
C14 C12 1_555 1_555
C15 C9 1_555 1_555
C16 C15 1_555 1_555
C17 C15 1_555 1_555
C18 C1 1_555 1_555
C19 C8 1_555 1_555
O1 C19 1_555 1_555
C20 C19 1_555 1_555
C21 C20 1_555 1_555
O2 C21 1_555 1_555
C22 C21 1_555 1_555
C23 C22 1_555 1_555
O3 C23 1_555 1_555
C24 O3 1_555 1_555
C25 C23 1_555 1_555
C26 C20 1_555 1_555
O4 C26 1_555 1_555
C17 C18 1_555 1_555
C25 C26 1_555 1_555

#END
