
#######################################################################
#
#                 Cambridge Crystallographic Data Centre
#                                CCDC 
#
#######################################################################
#
# If this CIF has been generated from an entry in the Cambridge 
# Structural Database, then it will include bibliographic, chemical, 
# crystal, experimental, refinement or atomic coordinate data resulting 
# from the CCDC's data processing and validation procedures.
#
#######################################################################

data_DIJCIL
_chemical_formula_moiety         'C38 H30 N2 O6 S2'
_chemical_name_systematic        
8,20-bis(4-methoxyphenyl)-2,14-dithia-8,20-diazapentacyclo[19.3.1.1^3,7^.1^9,13^.1^15,19^]octacosa-1(25),3(28),4,6,9(27),10,12,15(26),16,18,21,23-dodecaene-2,2,14,14-tetrone
_symmetry_cell_setting           monoclinic
_symmetry_space_group_name_H-M   'P 21/c'
_symmetry_Int_Tables_number      14
_space_group_name_Hall           '-P 2ybc'
loop_
_symmetry_equiv_pos_site_id
_symmetry_equiv_pos_as_xyz
1 x,y,z
2 -x,1/2+y,1/2-z
3 -x,-y,-z
4 x,1/2-y,1/2+z
_cell_length_a                   13.5501(6)
_cell_length_b                   4.9755(2)
_cell_length_c                   23.1851(10)
_cell_angle_alpha                90
_cell_angle_beta                 100.243(4)
_cell_angle_gamma                90
_cell_volume                     1538.19
_exptl_crystal_colour            colorless
_exptl_crystal_description       block
_cell_formula_units_Z            2
loop_
_atom_site_label
_atom_site_type_symbol
_atom_site_fract_x
_atom_site_fract_y
_atom_site_fract_z
S1 S 0.14610(3) 0.56177(8) 0.43656(2)
O1 O 0.21822(10) 0.4520(3) 0.40426(6)
O2 O 0.08443(9) 0.3872(2) 0.46398(5)
O3 O 0.46296(10) 0.9100(3) 0.85427(6)
N1 N 0.19865(11) 1.0050(3) 0.64076(6)
C1 C 0.21300(12) 0.7758(3) 0.49090(7)
C2 C 0.09528(12) 1.0253(4) 0.64344(7)
C3 C 0.26266(12) 1.1684(4) 0.73920(7)
H1 H 0.215742 1.306465 0.732782
C4 C 0.06705(12) 0.7798(3) 0.38888(7)
C5 C -0.04385(13) 0.9166(4) 0.69163(8)
H2 H -0.069078 0.821044 0.720284
C6 C 0.03256(12) 1.1903(3) 0.60438(7)
H3 H 0.056701 1.278793 0.574395
C7 C 0.30224(13) 0.8908(4) 0.48160(7)
H4 H 0.325686 0.862565 0.446749
C8 C 0.32509(13) 1.1481(4) 0.79329(7)
H5 H 0.318964 1.268696 0.823102
C9 C 0.17608(12) 0.8153(3) 0.54250(7)
H6 H 0.115494 0.738817 0.547418
C10 C 0.39656(13) 0.9470(4) 0.80250(7)
C11 C 0.35512(13) 1.0482(4) 0.52549(8)
H7 H 0.414661 1.128593 0.519904
C12 C 0.32104(13) 1.0887(4) 0.57782(8)
H8 H 0.358056 1.194247 0.607014
C13 C 0.34098(13) 0.7869(4) 0.70426(7)
H9 H 0.346490 0.664285 0.674723
C14 C 0.26851(12) 0.9880(4) 0.69454(7)
C15 C 0.23147(13) 0.9716(4) 0.58682(7)
C16 C 0.40496(13) 0.7689(4) 0.75788(8)
H10 H 0.453945 0.635895 0.763873
C17 C 0.05590(13) 0.8858(4) 0.68632(7)
H11 H 0.096944 0.770849 0.711641
C18 C -0.10615(13) 1.0878(4) 0.65482(7)
H12 H -0.172408 1.113588 0.659153
C19 C 0.46568(15) 1.1136(5) 0.89741(8)
H13 H 0.476868 1.284803 0.880600
H14 H 0.519043 1.076794 0.929603
H15 H 0.402950 1.116862 0.911203
S1B S -0.14610(3) 1.43823(8) 0.56344(2)
O1B O -0.21822(10) 1.5480(3) 0.59574(6)
O2B O -0.08443(9) 1.6128(2) 0.53602(5)
O3B O -0.46296(10) 1.0900(3) 0.14573(6)
N1B N -0.19865(11) 0.9950(3) 0.35924(6)
C1B C -0.21300(12) 1.2242(3) 0.50910(7)
C2B C -0.09528(12) 0.9747(4) 0.35656(7)
C3B C -0.26266(12) 0.8316(4) 0.26080(7)
H1B H -0.215742 0.693535 0.267218
C4B C -0.06705(12) 1.2202(3) 0.61112(7)
C5B C 0.04385(13) 1.0834(4) 0.30837(8)
H2B H 0.069078 1.178956 0.279716
C6B C -0.03256(12) 0.8097(3) 0.39562(7)
H3B H -0.056701 0.721207 0.425605
C7B C -0.30224(13) 1.1092(4) 0.51840(7)
H4B H -0.325686 1.137435 0.553251
C8B C -0.32509(13) 0.8519(4) 0.20671(7)
H5B H -0.318964 0.731304 0.176898
C9B C -0.17608(12) 1.1847(3) 0.45750(7)
H6B H -0.115494 1.261183 0.452582
C10B C -0.39656(13) 1.0530(4) 0.19750(7)
C11B C -0.35512(13) 0.9518(4) 0.47451(8)
H7B H -0.414661 0.871407 0.480096
C12B C -0.32104(13) 0.9113(4) 0.42218(8)
H8B H -0.358056 0.805753 0.392986
C13B C -0.34098(13) 1.2131(4) 0.29574(7)
H9B H -0.346490 1.335715 0.325277
C14B C -0.26851(12) 1.0120(4) 0.30546(7)
C15B C -0.23147(13) 1.0284(4) 0.41318(7)
C16B C -0.40496(13) 1.2311(4) 0.24212(8)
H10B H -0.453945 1.364105 0.236127
C17B C -0.05590(13) 1.1142(4) 0.31368(7)
H11B H -0.096944 1.229151 0.288359
C18B C 0.10615(13) 0.9122(4) 0.34518(7)
H12B H 0.172408 0.886412 0.340847
C19B C -0.46568(15) 0.8864(5) 0.10259(8)
H13B H -0.476868 0.715197 0.119400
H14B H -0.519043 0.923206 0.070397
H15B H -0.402950 0.883138 0.088797
loop_
_geom_bond_atom_site_label_1
_geom_bond_atom_site_label_2
_geom_bond_site_symmetry_1
_geom_bond_site_symmetry_2
S1 O1 1_555 1_555
O2 S1 1_555 1_555
O3 C10 1_555 1_555
N1 C2 1_555 1_555
C1 S1 1_555 1_555
C2 C6 1_555 1_555
C3 H1 1_555 1_555
C4 S1 1_555 1_555
C5 H2 1_555 1_555
C6 H3 1_555 1_555
C7 C1 1_555 1_555
H4 C7 1_555 1_555
C8 C3 1_555 1_555
H5 C8 1_555 1_555
C9 C1 1_555 1_555
H6 C9 1_555 1_555
C10 C8 1_555 1_555
C11 C7 1_555 1_555
H7 C11 1_555 1_555
C12 C11 1_555 1_555
H8 C12 1_555 1_555
C13 H9 1_555 1_555
C14 N1 1_555 1_555
C15 N1 1_555 1_555
C16 C10 1_555 1_555
H10 C16 1_555 1_555
C17 C2 1_555 1_555
H11 C17 1_555 1_555
C18 C5 1_555 1_555
H12 C18 1_555 1_555
C19 O3 1_555 1_555
H13 C19 1_555 1_555
H14 C19 1_555 1_555
H15 C19 1_555 1_555
S1B O1B 1_555 1_555
O2B S1B 1_555 1_555
O3B C10B 1_555 1_555
N1B C2B 1_555 1_555
C1B S1B 1_555 1_555
C2B C6B 1_555 1_555
C3B H1B 1_555 1_555
C4B C6 1_555 1_555
C5B H2B 1_555 1_555
C6B C4 1_555 1_555
H3B C6B 1_555 1_555
C7B C1B 1_555 1_555
H4B C7B 1_555 1_555
C8B C3B 1_555 1_555
H5B C8B 1_555 1_555
C9B C1B 1_555 1_555
H6B C9B 1_555 1_555
C10B C8B 1_555 1_555
C11B C7B 1_555 1_555
H7B C11B 1_555 1_555
C12B C11B 1_555 1_555
H8B C12B 1_555 1_555
C13B H9B 1_555 1_555
C14B N1B 1_555 1_555
C15B N1B 1_555 1_555
C16B C10B 1_555 1_555
H10B C16B 1_555 1_555
C17B C2B 1_555 1_555
H11B C17B 1_555 1_555
C18B C4 1_555 1_555
H12B C18B 1_555 1_555
C19B O3B 1_555 1_555
H13B C19B 1_555 1_555
H14B C19B 1_555 1_555
H15B C19B 1_555 1_555
C3 C14 1_555 1_555
C5 C17 1_555 1_555
C9 C15 1_555 1_555
C12 C15 1_555 1_555
C13 C14 1_555 1_555
C13 C16 1_555 1_555
C18 C4B 1_555 1_555
S1B C4B 1_555 1_555
C3B C14B 1_555 1_555
C5B C17B 1_555 1_555
C5B C18B 1_555 1_555
C9B C15B 1_555 1_555
C12B C15B 1_555 1_555
C13B C14B 1_555 1_555
C13B C16B 1_555 1_555

#END
