
#######################################################################
#
#                 Cambridge Crystallographic Data Centre
#                                CCDC 
#
#######################################################################
#
# If this CIF has been generated from an entry in the Cambridge 
# Structural Database, then it will include bibliographic, chemical, 
# crystal, experimental, refinement or atomic coordinate data resulting 
# from the CCDC's data processing and validation procedures.
#
#######################################################################

data_DIJCUX
_chemical_formula_moiety         'C19 H16 O2'
_chemical_name_systematic        
5-methyl-4-phenyl-2,3-dihydrofuro[3,2-d][1]benzoxepine
_symmetry_cell_setting           triclinic
_symmetry_space_group_name_H-M   'P -1'
_symmetry_Int_Tables_number      2
_space_group_name_Hall           '-P 1'
loop_
_symmetry_equiv_pos_site_id
_symmetry_equiv_pos_as_xyz
1 x,y,z
2 -x,-y,-z
_cell_length_a                   6.3828(8)
_cell_length_b                   10.3101(16)
_cell_length_c                   11.896(2)
_cell_angle_alpha                104.198(14)
_cell_angle_beta                 100.779(12)
_cell_angle_gamma                97.652(12)
_cell_volume                     732.249
_exptl_crystal_colour            yellow
_exptl_crystal_description       parallelepiped
_cell_formula_units_Z            2
loop_
_atom_site_label
_atom_site_type_symbol
_atom_site_fract_x
_atom_site_fract_y
_atom_site_fract_z
O1 O 0.2000(3) 0.43140(19) 0.72509(17)
O2 O -0.2985(3) 0.4740(2) 0.89271(18)
C1 C -0.0031(4) 0.3526(3) 0.6662(2)
C2 C -0.0222(5) 0.2481(3) 0.5650(3)
H1 H 0.0972 0.2365 0.5319
C3 C -0.2187(5) 0.1608(3) 0.5129(3)
H2 H -0.2313 0.0900 0.4448
C4 C -0.3968(5) 0.1781(3) 0.5615(3)
H3 H -0.5293 0.1193 0.5262
C5 C -0.3773(4) 0.2831(3) 0.6626(3)
H4 H -0.4975 0.2938 0.6954
C6 C -0.1821(4) 0.3729(3) 0.7164(2)
C7 C -0.1585(4) 0.4885(3) 0.8198(2)
C8 C -0.2720(5) 0.6069(3) 0.9764(3)
H5 H -0.2525 0.5988 1.0571
H6 H -0.3996 0.6466 0.9591
C9 C -0.0731(5) 0.6959(3) 0.9636(3)
H7 H -0.1040 0.7829 0.9548
H8 H 0.0479 0.7113 1.0312
C10 C -0.0278(4) 0.6102(3) 0.8505(2)
C11 C 0.1277(4) 0.6547(3) 0.7849(2)
C12 C 0.2259(4) 0.5678(3) 0.7199(2)
C13 C 0.3691(5) 0.5927(4) 0.6394(3)
H9 H 0.3832 0.6860 0.6377
H10 H 0.3071 0.5341 0.5605
H11 H 0.5098 0.5740 0.6680
C14 C 0.1655(4) 0.8032(3) 0.7899(2)
C15 C -0.0096(5) 0.8636(3) 0.7541(3)
H12 H -0.1489 0.8113 0.7271
C16 C 0.0221(6) 1.0002(4) 0.7583(3)
H13 H -0.0960 1.0388 0.7339
C17 C 0.2248(7) 1.0788(4) 0.7977(3)
H14 H 0.2447 1.1706 0.8002
C18 C 0.3985(7) 1.0227(4) 0.8335(3)
H15 H 0.5369 1.0762 0.8600
C19 C 0.3696(5) 0.8848(4) 0.8305(3)
H16 H 0.4887 0.8478 0.8560
loop_
_geom_bond_atom_site_label_1
_geom_bond_atom_site_label_2
_geom_bond_site_symmetry_1
_geom_bond_site_symmetry_2
O1 C1 1_555 1_555
O2 C7 1_555 1_555
C1 C2 1_555 1_555
C2 H1 1_555 1_555
C3 C2 1_555 1_555
H2 C3 1_555 1_555
C4 C3 1_555 1_555
H3 C4 1_555 1_555
C5 C4 1_555 1_555
H4 C5 1_555 1_555
C6 C1 1_555 1_555
C7 C6 1_555 1_555
C8 O2 1_555 1_555
H5 C8 1_555 1_555
H6 C8 1_555 1_555
C9 C8 1_555 1_555
H7 C9 1_555 1_555
H8 C9 1_555 1_555
C10 C7 1_555 1_555
C11 C10 1_555 1_555
C12 O1 1_555 1_555
C13 C12 1_555 1_555
H9 C13 1_555 1_555
H10 C13 1_555 1_555
H11 C13 1_555 1_555
C14 C11 1_555 1_555
C15 C14 1_555 1_555
H12 C15 1_555 1_555
C16 C15 1_555 1_555
H13 C16 1_555 1_555
C17 C16 1_555 1_555
H14 C17 1_555 1_555
C18 C17 1_555 1_555
H15 C18 1_555 1_555
C19 C14 1_555 1_555
H16 C19 1_555 1_555
C5 C6 1_555 1_555
C9 C10 1_555 1_555
C11 C12 1_555 1_555
C18 C19 1_555 1_555

#END
