
#######################################################################
#
#                 Cambridge Crystallographic Data Centre
#                                CCDC 
#
#######################################################################
#
# If this CIF has been generated from an entry in the Cambridge 
# Structural Database, then it will include bibliographic, chemical, 
# crystal, experimental, refinement or atomic coordinate data resulting 
# from the CCDC's data processing and validation procedures.
#
#######################################################################

data_DIJDEF01
_chemical_formula_moiety         'C15 H22 O5'
_chemical_name_systematic        
8-hydroxy-3,6,9-trimethyloctahydro-10aH-9,10b-epoxypyrano[4,3,2-jk][2]benzoxepin-2(3H)-one
_symmetry_cell_setting           monoclinic
_symmetry_space_group_name_H-M   'P 21'
_symmetry_Int_Tables_number      4
_space_group_name_Hall           'P 2yb'
loop_
_symmetry_equiv_pos_site_id
_symmetry_equiv_pos_as_xyz
1 x,y,z
2 -x,1/2+y,-z
_cell_length_a                   5.4642(10)
_cell_length_b                   13.752(2)
_cell_length_c                   9.8455(16)
_cell_angle_alpha                90
_cell_angle_beta                 101.701(7)
_cell_angle_gamma                90
_cell_volume                     724.453
_exptl_crystal_colour            colorless
_exptl_crystal_description       plate
_cell_formula_units_Z            2
_exptl_crystal_recrystallization_method Chloroform/Methanol
loop_
_atom_site_label
_atom_site_type_symbol
_atom_site_fract_x
_atom_site_fract_y
_atom_site_fract_z
O1 O 0.4266(5) 0.3155(2) 1.2195(2)
O2 O 0.6484(4) 0.36275(18) 0.7911(2)
O3 O 0.2899(4) 0.30404(19) 0.9960(2)
O4 O 0.3249(5) 0.2585(2) 0.7759(2)
O5 O 0.5983(5) 0.3657(3) 0.5018(2)
H1 H 0.5632 0.3551 0.4182
C1 C 0.3270(7) 0.4819(3) 0.7069(4)
H2 H 0.4583 0.5222 0.6812
C2 C 0.2234(8) 0.4163(4) 0.5828(4)
H3 H 0.0653 0.3892 0.5947
H4 H 0.1913 0.4555 0.4991
C3 C 0.3988(8) 0.3334(4) 0.5641(3)
H5 H 0.3037 0.2830 0.5056
C4 C 0.5215(7) 0.2886(3) 0.7050(4)
C5 C 0.2688(7) 0.3375(2) 0.8547(3)
H6 H 0.0969 0.3589 0.8184
C6 C 0.4513(6) 0.4180(3) 0.8306(3)
C7 C 0.5559(7) 0.4754(3) 0.9595(3)
H7 H 0.6955 0.5145 0.9411
C8 C 0.3598(9) 0.5449(3) 0.9960(5)
H8 H 0.2281 0.5075 1.0241
H9 H 0.4369 0.5853 1.0738
C9 C 0.2483(10) 0.6088(4) 0.8753(5)
H10 H 0.3776 0.6508 0.8534
H11 H 0.1212 0.6499 0.9016
C10 C 0.1318(9) 0.5507(3) 0.7464(5)
H12 H -0.0033 0.5110 0.7691
C11 C 0.4554(7) 0.3404(3) 1.1057(4)
C12 C 0.6598(7) 0.4037(3) 1.0772(3)
H13 H 0.7790 0.3615 1.0433
C13 C 0.8024(9) 0.4521(4) 1.2119(4)
H14 H 0.9343 0.4920 1.1912
H15 H 0.8721 0.4027 1.2773
H16 H 0.6892 0.4917 1.2509
C14 C 0.0179(11) 0.6187(4) 0.6259(6)
H17 H -0.1064 0.6593 0.6536
H18 H -0.0581 0.5805 0.5469
H19 H 0.1470 0.6586 0.6021
C15 C 0.6950(8) 0.2047(3) 0.6966(4)
H20 H 0.6068 0.1551 0.6376
H21 H 0.7545 0.1785 0.7877
H22 H 0.8343 0.2269 0.6592
loop_
_geom_bond_atom_site_label_1
_geom_bond_atom_site_label_2
_geom_bond_site_symmetry_1
_geom_bond_site_symmetry_2
O1 C11 1_555 1_555
O2 C4 1_555 1_555
O3 C5 1_555 1_555
O4 C4 1_555 1_555
O5 H1 1_555 1_555
C1 H2 1_555 1_555
C2 C1 1_555 1_555
H3 C2 1_555 1_555
H4 C2 1_555 1_555
C3 O5 1_555 1_555
H5 C3 1_555 1_555
C4 C3 1_555 1_555
C5 O4 1_555 1_555
H6 C5 1_555 1_555
C6 O2 1_555 1_555
C7 C6 1_555 1_555
H7 C7 1_555 1_555
C8 C7 1_555 1_555
H8 C8 1_555 1_555
H9 C8 1_555 1_555
C9 C8 1_555 1_555
H10 C9 1_555 1_555
H11 C9 1_555 1_555
C10 C1 1_555 1_555
H12 C10 1_555 1_555
C11 O3 1_555 1_555
C12 C7 1_555 1_555
H13 C12 1_555 1_555
C13 C12 1_555 1_555
H14 C13 1_555 1_555
H15 C13 1_555 1_555
H16 C13 1_555 1_555
C14 C10 1_555 1_555
H17 C14 1_555 1_555
H18 C14 1_555 1_555
H19 C14 1_555 1_555
C15 C4 1_555 1_555
H20 C15 1_555 1_555
H21 C15 1_555 1_555
H22 C15 1_555 1_555
C1 C6 1_555 1_555
C2 C3 1_555 1_555
C5 C6 1_555 1_555
C9 C10 1_555 1_555
C11 C12 1_555 1_555

#END
