
#######################################################################
#
#                 Cambridge Crystallographic Data Centre
#                                CCDC 
#
#######################################################################
#
# If this CIF has been generated from an entry in the Cambridge 
# Structural Database, then it will include bibliographic, chemical, 
# crystal, experimental, refinement or atomic coordinate data resulting 
# from the CCDC's data processing and validation procedures.
#
#######################################################################

data_DIJKAJ
_chemical_compound_source        'marine sponge Eunicea calyculata'
_chemical_formula_moiety         'C20 H30 O2'
_chemical_name_systematic        
7(S),8(S)-Epoxy-13-keto-1(S),11(R)-dolabella-3(E),12(18)-diene
_chemical_properties_biological  
'Inactive in the hyphae formation inhibition essay (HFI) in Streptomyces 85E'
_symmetry_cell_setting           monoclinic
_symmetry_space_group_name_H-M   'P 21'
_symmetry_Int_Tables_number      4
_space_group_name_Hall           'P 2yb'
loop_
_symmetry_equiv_pos_site_id
_symmetry_equiv_pos_as_xyz
1 x,y,z
2 -x,1/2+y,-z
_cell_length_a                   8.2112(6)
_cell_length_b                   8.6145(7)
_cell_length_c                   12.7256(10)
_cell_angle_alpha                90
_cell_angle_beta                 99.426(1)
_cell_angle_gamma                90
_cell_volume                     887.996
_exptl_crystal_colour            colorless
_exptl_crystal_description       block
_cell_formula_units_Z            2
_exptl_crystal_recrystallization_method acetone
loop_
_atom_site_label
_atom_site_type_symbol
_atom_site_fract_x
_atom_site_fract_y
_atom_site_fract_z
O1 O 0.2703(3) 0.2686(3) 0.57181(13)
O2 O 0.53426(18) 0.5403(2) 0.02059(11)
C1 C 0.2964(3) 0.2790(3) 0.48055(16)
C2 C 0.2609(2) 0.4128(3) 0.40697(15)
C3 C 0.1660(3) 0.5351(3) 0.42431(17)
C4 C 0.0895(3) 0.5538(4) 0.5239(2)
H1 H 0.1470 0.4866 0.5802
H2 H -0.0273 0.5247 0.5085
H3 H 0.0993 0.6622 0.5475
C5 C 0.1234(4) 0.6635(3) 0.3455(2)
H4 H 0.1468 0.6305 0.2758
H5 H 0.1896 0.7554 0.3693
H6 H 0.0059 0.6887 0.3397
C6 C 0.3430(2) 0.3822(2) 0.30912(15)
H7 H 0.2661 0.4167 0.2441
C7 C 0.5043(3) 0.4765(3) 0.31743(16)
H8 H 0.5873 0.4274 0.3726
H9 H 0.4828 0.5818 0.3431
C8 C 0.5818(3) 0.4940(3) 0.21536(16)
H10 H 0.6779 0.5645 0.2309
H11 H 0.6233 0.3913 0.1969
C9 C 0.4669(3) 0.5557(3) 0.11968(17)
C10 C 0.3910(4) 0.7125(3) 0.1307(2)
H12 H 0.3342 0.7472 0.0609
H13 H 0.4778 0.7870 0.1581
H14 H 0.3116 0.7054 0.1802
C11 C 0.3938(2) 0.4455(2) 0.03565(16)
H15 H 0.4223 0.3344 0.0526
C12 C 0.2344(3) 0.4670(3) -0.04017(17)
H16 H 0.2584 0.4828 -0.1132
H17 H 0.1773 0.5608 -0.0198
C13 C 0.1205(3) 0.3249(3) -0.03905(17)
H18 H 0.0133 0.3461 -0.0849
H19 H 0.1712 0.2341 -0.0689
C14 C 0.0910(2) 0.2865(3) 0.07292(16)
C15 C -0.0281(3) 0.3916(3) 0.11646(19)
H20 H -0.0328 0.3631 0.1905
H21 H -0.1381 0.3808 0.0736
H22 H 0.0089 0.4995 0.1137
C16 C 0.1775(2) 0.1723(2) 0.12679(16)
H23 H 0.2357 0.1059 0.0862
C17 C 0.1943(3) 0.1356(2) 0.24358(17)
H24 H 0.1913 0.0217 0.2533
H25 H 0.1000 0.1811 0.2724
C18 C 0.3583(3) 0.2008(3) 0.30637(15)
C19 C 0.5053(3) 0.1338(3) 0.26096(18)
H26 H 0.5075 0.0207 0.2695
H27 H 0.6081 0.1781 0.2992
H28 H 0.4943 0.1598 0.1852
C20 C 0.3756(3) 0.1533(3) 0.42472(17)
H29 H 0.3199 0.0527 0.4315
H30 H 0.4936 0.1425 0.4562
loop_
_geom_bond_atom_site_label_1
_geom_bond_atom_site_label_2
_geom_bond_site_symmetry_1
_geom_bond_site_symmetry_2
O1 C1 1_555 1_555
O2 C9 1_555 1_555
C1 C2 1_555 1_555
C2 C3 1_555 1_555
C3 C4 1_555 1_555
C4 H1 1_555 1_555
H2 C4 1_555 1_555
H3 C4 1_555 1_555
C5 C3 1_555 1_555
H4 C5 1_555 1_555
H5 C5 1_555 1_555
H6 C5 1_555 1_555
C6 C2 1_555 1_555
H7 C6 1_555 1_555
C7 C6 1_555 1_555
H8 C7 1_555 1_555
H9 C7 1_555 1_555
C8 C7 1_555 1_555
H10 C8 1_555 1_555
H11 C8 1_555 1_555
C9 C8 1_555 1_555
C10 C9 1_555 1_555
H12 C10 1_555 1_555
H13 C10 1_555 1_555
H14 C10 1_555 1_555
C11 O2 1_555 1_555
H15 C11 1_555 1_555
C12 C11 1_555 1_555
H16 C12 1_555 1_555
H17 C12 1_555 1_555
C13 C12 1_555 1_555
H18 C13 1_555 1_555
H19 C13 1_555 1_555
C14 C13 1_555 1_555
C15 C14 1_555 1_555
H20 C15 1_555 1_555
H21 C15 1_555 1_555
H22 C15 1_555 1_555
C16 C14 1_555 1_555
H23 C16 1_555 1_555
C17 C16 1_555 1_555
H24 C17 1_555 1_555
H25 C17 1_555 1_555
C18 C6 1_555 1_555
C19 C18 1_555 1_555
H26 C19 1_555 1_555
H27 C19 1_555 1_555
H28 C19 1_555 1_555
C20 C1 1_555 1_555
H29 C20 1_555 1_555
H30 C20 1_555 1_555
C9 C11 1_555 1_555
C17 C18 1_555 1_555
C18 C20 1_555 1_555

#END
