
#######################################################################
#
#                 Cambridge Crystallographic Data Centre
#                                CCDC 
#
#######################################################################
#
# If this CIF has been generated from an entry in the Cambridge 
# Structural Database, then it will include bibliographic, chemical, 
# crystal, experimental, refinement or atomic coordinate data resulting 
# from the CCDC's data processing and validation procedures.
#
#######################################################################

data_DIJKEN
_chemical_compound_source        'roots of Cacalia pilgeriana'
_chemical_formula_moiety         'C21 H30 O5'
_chemical_name_systematic        
1\b-Hydroxy-2\b-methylsenecioyloxyeremophil-7(11)-en-8\b(12)-olide
_chemical_properties_biological  
'moderate cytotoxicity against SMMC-7721, HL-60 (human leukaemia) and L-02 cells'
_symmetry_cell_setting           monoclinic
_symmetry_space_group_name_H-M   'P 21'
_symmetry_Int_Tables_number      4
_space_group_name_Hall           'P 2yb'
loop_
_symmetry_equiv_pos_site_id
_symmetry_equiv_pos_as_xyz
1 x,y,z
2 -x,1/2+y,-z
_cell_length_a                   10.009(1)
_cell_length_b                   6.797(1)
_cell_length_c                   14.730(2)
_cell_angle_alpha                90
_cell_angle_beta                 106.76(1)
_cell_angle_gamma                90
_cell_volume                     959.531
_exptl_crystal_colour            white
_exptl_crystal_description       column
_chemical_melting_point          '162-164 deg.C'
_cell_formula_units_Z            2
loop_
_atom_site_label
_atom_site_type_symbol
_atom_site_fract_x
_atom_site_fract_y
_atom_site_fract_z
O1 O 0.38230(18) 0.1831(3) 0.46405(11)
O2 O 0.49342(19) 0.2197(3) 0.79286(10)
H1 H 0.5104 0.2194 0.8507
O3 O 0.33894(15) 0.4473(2) 0.88743(9)
O4 O 0.4449(2) 0.6330(4) 1.01201(12)
O5 O 0.3235(2) 0.2221(4) 0.30702(12)
C1 C 0.4308(2) 0.4017(3) 0.75619(14)
H2 H 0.4911 0.4627 0.7222
C2 C 0.4194(2) 0.5449(4) 0.83171(14)
H3 H 0.5131 0.5746 0.8730
C3 C 0.3509(2) 0.7332(4) 0.78742(15)
H4 H 0.4131 0.7996 0.7577
H5 H 0.3386 0.8183 0.8373
C4 C 0.2084(2) 0.7049(4) 0.71296(15)
H6 H 0.1848 0.8313 0.6803
C5 C 0.2153(2) 0.5522(3) 0.63605(14)
C6 C 0.2951(2) 0.6437(4) 0.56967(14)
H7 H 0.2409 0.7512 0.5339
H8 H 0.3837 0.6964 0.6077
C7 C 0.3204(2) 0.4942(4) 0.50328(14)
C8 C 0.3851(3) 0.3053(4) 0.54464(15)
H9 H 0.4821 0.3289 0.5815
C9 C 0.3072(2) 0.2123(4) 0.60816(15)
H10 H 0.3587 0.0990 0.6401
H11 H 0.2164 0.1675 0.5699
C10 C 0.2886(2) 0.3610(3) 0.68216(14)
H12 H 0.2281 0.2994 0.7158
C11 C 0.2879(2) 0.4852(5) 0.40875(15)
C12 C 0.3294(3) 0.2914(5) 0.38376(17)
C13 C 0.2222(3) 0.6318(6) 0.33425(17)
H13 H 0.1281 0.5925 0.3027
H14 H 0.2745 0.6390 0.2890
H15 H 0.2217 0.7585 0.3629
C14 C 0.0670(2) 0.5056(5) 0.57340(17)
H16 H 0.0162 0.6260 0.5554
H17 H 0.0202 0.4247 0.6081
H18 H 0.0722 0.4369 0.5176
C15 C 0.0923(3) 0.6612(5) 0.75973(18)
H19 H 0.0963 0.5252 0.7778
H20 H 0.0031 0.6890 0.7156
H21 H 0.1053 0.7423 0.8150
C16 C 0.3629(3) 0.5044(4) 0.97804(15)
C17 C 0.2781(3) 0.4042(4) 1.03021(15)
H22 H 0.2820 0.4603 1.0885
C18 C 0.1973(2) 0.2476(4) 1.00804(16)
C19 C 0.1219(3) 0.1730(5) 1.07713(18)
H23 H 0.1376 0.2648 1.1295
H24 H 0.0225 0.1707 1.0453
C20 C 0.1669(3) -0.0296(5) 1.11631(19)
H25 H 0.1539 -0.1214 1.0649
H26 H 0.1117 -0.0696 1.1567
H27 H 0.2635 -0.0267 1.1522
C21 C 0.1730(3) 0.1278(5) 0.91984(19)
H28 H 0.1100 0.0221 0.9212
H29 H 0.2601 0.0746 0.9161
H30 H 0.1334 0.2095 0.8656
H31? H 0.2257 0.1820 0.8807
H32? H 0.0755 0.1295 0.8858
H33? H 0.2023 -0.0053 0.9363
loop_
_geom_bond_atom_site_label_1
_geom_bond_atom_site_label_2
_geom_bond_site_symmetry_1
_geom_bond_site_symmetry_2
O1 C8 1_555 1_555
O2 H1 1_555 1_555
O3 C2 1_555 1_555
O4 C16 1_555 1_555
O5 C12 1_555 1_555
C1 O2 1_555 1_555
H2 C1 1_555 1_555
C2 C1 1_555 1_555
H3 C2 1_555 1_555
C3 C2 1_555 1_555
H4 C3 1_555 1_555
H5 C3 1_555 1_555
C4 C3 1_555 1_555
H6 C4 1_555 1_555
C5 C4 1_555 1_555
C6 C5 1_555 1_555
H7 C6 1_555 1_555
H8 C6 1_555 1_555
C7 C6 1_555 1_555
C8 C7 1_555 1_555
H9 C8 1_555 1_555
C9 C8 1_555 1_555
H10 C9 1_555 1_555
H11 C9 1_555 1_555
C10 C1 1_555 1_555
H12 C10 1_555 1_555
C11 C7 1_555 1_555
C12 O1 1_555 1_555
C13 C11 1_555 1_555
H13 C13 1_555 1_555
H14 C13 1_555 1_555
H15 C13 1_555 1_555
C14 C5 1_555 1_555
H16 C14 1_555 1_555
H17 C14 1_555 1_555
H18 C14 1_555 1_555
C15 C4 1_555 1_555
H19 C15 1_555 1_555
H20 C15 1_555 1_555
H21 C15 1_555 1_555
C16 O3 1_555 1_555
C17 C16 1_555 1_555
H22 C17 1_555 1_555
C18 C17 1_555 1_555
C19 C18 1_555 1_555
H23 C19 1_555 1_555
H24 C19 1_555 1_555
C20 C19 1_555 1_555
H25 C20 1_555 1_555
H26 C20 1_555 1_555
H27 C20 1_555 1_555
C21 C18 1_555 1_555
H28 C21 1_555 1_555
H29 C21 1_555 1_555
H30 C21 1_555 1_555
C5 C10 1_555 1_555
C9 C10 1_555 1_555
C11 C12 1_555 1_555

#END
