
#######################################################################
#
#                 Cambridge Crystallographic Data Centre
#                                CCDC 
#
#######################################################################
#
# If this CIF has been generated from an entry in the Cambridge 
# Structural Database, then it will include bibliographic, chemical, 
# crystal, experimental, refinement or atomic coordinate data resulting 
# from the CCDC's data processing and validation procedures.
#
#######################################################################

data_DIJLEO01
_chemical_formula_moiety         'C13 H14 O3'
_chemical_name_systematic        'ethyl 2,6-dimethyl-1-benzofuran-3-carboxylate'
_symmetry_cell_setting           monoclinic
_symmetry_space_group_name_H-M   'P 21/c'
_symmetry_Int_Tables_number      14
_space_group_name_Hall           '-P 2ybc'
loop_
_symmetry_equiv_pos_site_id
_symmetry_equiv_pos_as_xyz
1 x,y,z
2 -x,1/2+y,1/2-z
3 -x,-y,-z
4 x,1/2-y,1/2+z
_cell_length_a                   8.020(2)
_cell_length_b                   19.607(6)
_cell_length_c                   7.492(2)
_cell_angle_alpha                90
_cell_angle_beta                 95.022(3)
_cell_angle_gamma                90
_cell_volume                     1173.58
_exptl_crystal_colour            colorless
_exptl_crystal_description       block
_cell_formula_units_Z            4
loop_
_atom_site_label
_atom_site_type_symbol
_atom_site_fract_x
_atom_site_fract_y
_atom_site_fract_z
C1 C 1.3012(3) 0.96226(11) 0.3961(3)
H1 H 1.3253 0.9931 0.3024
H2 H 1.3985 0.9352 0.4305
H3 H 1.2706 0.9878 0.4977
C2 C 1.1578(2) 0.91598(9) 0.3297(2)
C3 C 1.0074(2) 0.94368(8) 0.2524(2)
H4 H 0.9974 0.9909 0.2446
C4 C 0.8734(2) 0.90405(8) 0.1873(2)
H5 H 0.7749 0.9240 0.1372
C5 C 0.88927(17) 0.83344(7) 0.19856(19)
C6 C 1.03904(17) 0.80714(7) 0.27658(19)
C7 C 1.17388(19) 0.84608(8) 0.3432(2)
H6 H 1.2715 0.8260 0.3949
C8 C 0.8494(2) 0.64416(8) 0.1853(2)
H7 H 0.9269 0.6239 0.1102
H8 H 0.7370 0.6360 0.1345
H9 H 0.8644 0.6243 0.3027
C9 C 0.87991(19) 0.71848(7) 0.1982(2)
C10 C 0.78717(18) 0.77424(7) 0.1486(2)
C11 C 0.6174(2) 0.77141(8) 0.0606(2)
C12 C 0.3913(2) 0.83701(10) -0.0721(3)
H10 H 0.3107 0.8177 0.0029
H11 H 0.3866 0.8114 -0.1833
C13 C 0.3525(3) 0.91018(13) -0.1092(4)
H12 H 0.3609 0.9352 0.0013
H13 H 0.2409 0.9142 -0.1660
H14 H 0.4306 0.9283 -0.1869
O1 O 1.03419(13) 0.73669(5) 0.27653(15)
O2 O 0.55826(13) 0.83374(6) 0.01873(15)
O3 O 0.53862(16) 0.72004(6) 0.02753(19)
loop_
_geom_bond_atom_site_label_1
_geom_bond_atom_site_label_2
_geom_bond_site_symmetry_1
_geom_bond_site_symmetry_2
C1 H1 1_555 1_555
H2 C1 1_555 1_555
H3 C1 1_555 1_555
C2 C1 1_555 1_555
C3 C2 1_555 1_555
H4 C3 1_555 1_555
C4 C3 1_555 1_555
H5 C4 1_555 1_555
C5 C4 1_555 1_555
C6 C5 1_555 1_555
C7 C2 1_555 1_555
H6 C7 1_555 1_555
C8 H7 1_555 1_555
H8 C8 1_555 1_555
H9 C8 1_555 1_555
C9 C8 1_555 1_555
C10 C5 1_555 1_555
C11 C10 1_555 1_555
C12 H10 1_555 1_555
H11 C12 1_555 1_555
C13 C12 1_555 1_555
H12 C13 1_555 1_555
H13 C13 1_555 1_555
H14 C13 1_555 1_555
O1 C6 1_555 1_555
O2 C11 1_555 1_555
O3 C11 1_555 1_555
C6 C7 1_555 1_555
C9 C10 1_555 1_555
C9 O1 1_555 1_555
C12 O2 1_555 1_555

#END
