
#######################################################################
#
#                 Cambridge Crystallographic Data Centre
#                                CCDC 
#
#######################################################################
#
# If this CIF has been generated from an entry in the Cambridge 
# Structural Database, then it will include bibliographic, chemical, 
# crystal, experimental, refinement or atomic coordinate data resulting 
# from the CCDC's data processing and validation procedures.
#
#######################################################################

data_DIJLIR
_chemical_compound_source        'Sarcophyton tortuosum'
_chemical_formula_moiety         'C41 H62 O9,H2 O1'
_chemical_name_systematic        'Methyl isosartortuoate monohydrate'
_symmetry_cell_setting           tetragonal
_symmetry_space_group_name_H-M   'P 41 21 2'
_symmetry_Int_Tables_number      92
_space_group_name_Hall           'P 4abw 2nw'
loop_
_symmetry_equiv_pos_site_id
_symmetry_equiv_pos_as_xyz
1 x,y,z
2 1/2-y,1/2+x,1/4+z
3 -x,-y,1/2+z
4 1/2+y,1/2-x,3/4+z
5 y,x,-z
6 1/2+x,1/2-y,3/4-z
7 -y,-x,1/2-z
8 1/2-x,1/2+y,1/4-z
_cell_length_a                   9.547(2)
_cell_length_b                   9.547(2)
_cell_length_c                   92.722(7)
_cell_angle_alpha                90
_cell_angle_beta                 90
_cell_angle_gamma                90
_cell_volume                     8451.17
_exptl_crystal_colour            colorless
_chemical_melting_point          194-195deg.C
_cell_formula_units_Z            8
loop_
_atom_site_label
_atom_site_type_symbol
_atom_site_fract_x
_atom_site_fract_y
_atom_site_fract_z
C1 C 0.5192(8) 0.1578(9) 0.0612(1)
C2 C 0.5952(10) 0.2834(9) 0.0532(1)
C3 C 0.6825(10) 0.3786(9) 0.0631(1)
C4 C 0.8373(11) 0.3626(12) 0.0641(1)
C5 C 0.9219(11) 0.4625(13) 0.0736(1)
C6 C 0.9040(16) 0.4369(16) 0.0890(1)
C7 C 0.8186(19) 0.5145(15) 0.0973(1)
C8 C 0.8133(16) 0.4775(17) 0.1131(1)
C9 C 0.6748(13) 0.5373(13) 0.1205(1)
C10 C 0.5426(12) 0.4904(11) 0.1117(1)
C11 C 0.4979(12) 0.3402(11) 0.1127(1)
C12 C 0.4045(11) 0.2983(10) 0.0995(1)
C13 C 0.4928(9) 0.2375(9) 0.0874(1)
C14 C 0.4249(9) 0.2081(10) 0.0735(1)
C15 C 0.2850(12) 0.1989(15) 0.1036(1)
C16 C 0.3308(17) 0.0661(15) 0.1084(1)
C17 C 0.1867(14) 0.2665(18) 0.1146(1)
C18 C 0.6579(15) 0.4874(16) 0.1364(1)
C19 C 1.0785(15) 0.4426(23) 0.0688(2)
C20 C 0.6249(10) 0.0503(10) 0.0664(1)
C21 C 0.4340(9) 0.0807(8) 0.0495(1)
C22 C 0.5175(9) 0.0223(9) 0.0373(1)
C23 C 0.5457(10) -0.1145(10) 0.0344(1)
C24 C 0.6358(10) -0.1502(12) 0.0214(1)
C25 C 0.5511(11) -0.1517(12) 0.0074(1)
C26 C 0.4498(10) -0.2601(10) 0.0050(1)
C27 C 0.3321(11) -0.2419(12) -0.0050(1)
C28 C 0.2252(11) -0.1373(12) 0.0012(1)
C29 C 0.1710(10) -0.1750(11) 0.0163(1)
C30 C 0.0934(9) -0.0484(10) 0.0225(1)
C31 C 0.0177(9) -0.0658(10) 0.0371(1)
C32 C 0.1217(10) -0.0041(11) 0.0472(1)
C33 C 0.1804(9) 0.1179(9) 0.0389(1)
C34 C 0.3192(9) 0.1781(9) 0.0430(1)
C35 C 0.3496(10) 0.3141(9) 0.0405(1)
C36 C 0.4887(11) 0.3741(10) 0.0453(1)
C37 C 0.2551(12) 0.4142(10) 0.0332(1)
C38 C 0.5028(13) -0.2343(10) 0.0435(1)
C39 C 0.3859(15) -0.1890(15) -0.0197(1)
C40 C -0.0305(13) -0.2208(13) 0.0410(1)
C41 C 0.6402(13) -0.1548(11) 0.0802(1)
O1 O 0.6256(8) 0.4782(8) 0.0694(1)
O2 O 0.4799(10) 0.5773(9) 0.1053(1)
O3 O 0.6190(7) 0.2078(8) 0.0895(1)
O4 O 0.7449(6) 0.0408(7) 0.0629(1)
O5 O 0.5605(7) -0.0462(7) 0.0743(1)
O6 O 0.4630(8) -0.3753(7) 0.0112(1)
O7 O 0.2606(9) -0.3765(7) -0.0071(1)
O8 O 0.1859(6) 0.0613(7) 0.0243(1)
O9 O -0.1031(6) 0.0232(7) 0.0362(1)
H1 H 0.659(8) 0.235(8) 0.047(1)
H2 H 0.887(15) 0.345(15) 0.053(1)
H3 H 0.857(14) 0.259(14) 0.068(1)
H4 H 1.002(14) 0.491(13) 0.095(1)
H5 H 0.881(14) 0.361(14) 0.089(1)
H6 H 0.898(11) 0.537(13) 0.074(1)
H7 H 0.724(15) 0.502(17) 0.094(1)
H8 H 0.860(17) 0.635(18) 0.097(2)
H9 H 0.904(15) 0.525(16) 0.117(1)
H10 H 0.821(13) 0.376(13) 0.114(1)
H11 H 0.697(12) 0.632(13) 0.119(1)
H12 H 0.447(16) 0.342(14) 0.122(1)
H13 H 0.579(12) 0.284(11) 0.114(1)
H14 H 0.367(11) 0.391(12) 0.095(1)
H15 H 0.373(10) 0.297(10) 0.071(1)
H16 H 0.351(9) 0.139(9) 0.075(1)
H17 H 0.226(10) 0.168(10) 0.095(1)
H18 H 0.399(8) -0.020(9) 0.055(1)
H19 H 0.544(9) 0.085(9) 0.030(1)
H20 H 0.669(11) -0.230(11) 0.024(1)
H21 H 0.710(10) -0.069(10) 0.020(1)
H22 H 0.621(12) -0.141(12) -0.001(1)
H23 H 0.501(15) -0.045(14) 0.007(1)
H24 H 0.157(11) -0.121(10) -0.006(1)
H25 H 0.276(11) -0.024(12) -0.001(1)
H26 H 0.245(12) -0.190(12) 0.024(1)
H27 H 0.114(14) -0.256(14) 0.017(1)
H28 H 0.013(9) -0.034(9) 0.016(1)
H29 H 0.225(9) -0.071(10) 0.050(1)
H30 H 0.084(12) 0.047(13) 0.055(1)
H31 H 0.455(11) 0.456(11) 0.053(1)
H32 H 0.547(10) 0.410(10) 0.037(1)
H33 H 0.114(9) 0.197(9) 0.039(1)
H34 H 1.083(12) 0.463(13) 0.058(1)
H35 H 1.111(15) 0.506(19) 0.076(1)
H37 H 0.656(14) 0.403(14) 0.136(1)
H38 H 0.744(12) 0.514(13) 0.141(1)
H39 H 0.579(13) 0.533(13) 0.141(1)
H40 H 0.398(14) 0.087(15) 0.117(1)
H41 H 0.245(11) -0.006(11) 0.111(1)
H42 H 0.402(15) 0.011(17) 0.101(1)
H43 H 0.121(15) 0.336(16) 0.111(1)
H44 H 0.109(12) 0.205(13) 0.116(1)
H45 H 0.223(14) 0.301(14) 0.123(1)
H46 H 0.416(16) -0.243(15) 0.043(1)
H47 H 0.506(13) -0.305(12) 0.040(1)
H48 H 0.541(14) -0.212(12) 0.053(1)
H49 H 0.462(16) -0.243(15) -0.025(1)
H50 H 0.327(14) -0.166(13) -0.028(1)
H51 H 0.451(14) -0.097(13) -0.017(1)
H52 H 0.083(13) -0.276(13) 0.041(1)
H53 H -0.076(14) -0.218(14) 0.049(1)
H54 H -0.112(12) -0.258(11) 0.034(1)
H55 H 0.170(11) 0.418(12) 0.037(1)
H56 H 0.280(11) 0.484(11) 0.034(1)
H57 H 0.218(12) 0.390(12) 0.025(1)
H58 H 0.727(12) -0.129(12) 0.087(1)
H59 H 0.613(17) -0.207(16) 0.087(1)
H60 H 0.689(11) -0.214(10) 0.073(1)
H61 H 0.251(16) -0.444(17) 0.000(1)
H62 H -0.127(12) 0.087(13) 0.042(1)
O10 O 0.7559 0.2441 0.7500
H36? H 1.144(16) 0.519(16) 0.073(1)
loop_
_geom_bond_atom_site_label_1
_geom_bond_atom_site_label_2
_geom_bond_site_symmetry_1
_geom_bond_site_symmetry_2
C1 C2 1_555 1_555
C2 C3 1_555 1_555
C3 C4 1_555 1_555
C4 C5 1_555 1_555
C5 C6 1_555 1_555
C6 C7 1_555 1_555
C7 C8 1_555 1_555
C8 C9 1_555 1_555
C9 C10 1_555 1_555
C10 C11 1_555 1_555
C11 C12 1_555 1_555
C12 C13 1_555 1_555
C13 C14 1_555 1_555
C14 C1 1_555 1_555
C15 C12 1_555 1_555
C16 C15 1_555 1_555
C17 C15 1_555 1_555
C18 C9 1_555 1_555
C19 C5 1_555 1_555
C20 C1 1_555 1_555
C21 C1 1_555 1_555
C22 C21 1_555 1_555
C23 C22 1_555 1_555
C24 C23 1_555 1_555
C25 C24 1_555 1_555
C26 C25 1_555 1_555
C27 C26 1_555 1_555
C28 C27 1_555 1_555
C29 C28 1_555 1_555
C30 C29 1_555 1_555
C31 C30 1_555 1_555
C32 C31 1_555 1_555
C33 C32 1_555 1_555
C34 C21 1_555 1_555
C35 C34 1_555 1_555
C36 C2 1_555 1_555
C37 C35 1_555 1_555
C38 C23 1_555 1_555
C39 C27 1_555 1_555
C40 C31 1_555 1_555
C41 O5 1_555 1_555
O1 C3 1_555 1_555
O2 C10 1_555 1_555
O3 C13 1_555 1_555
O4 C20 1_555 1_555
O5 C20 1_555 1_555
O6 C26 1_555 1_555
O7 C27 1_555 1_555
O8 C30 1_555 1_555
O9 C31 1_555 1_555
H1 C2 1_555 1_555
H2 C4 1_555 1_555
H3 C4 1_555 1_555
H4 C6 1_555 1_555
H5 C6 1_555 1_555
H6 C5 1_555 1_555
H7 C7 1_555 1_555
H8 C7 1_555 1_555
H9 C8 1_555 1_555
H10 C8 1_555 1_555
H11 C9 1_555 1_555
H12 C11 1_555 1_555
H13 C11 1_555 1_555
H14 C12 1_555 1_555
H15 C14 1_555 1_555
H16 C14 1_555 1_555
H17 C15 1_555 1_555
H18 C21 1_555 1_555
H19 C22 1_555 1_555
H20 C24 1_555 1_555
H21 C24 1_555 1_555
H22 C25 1_555 1_555
H23 C25 1_555 1_555
H24 C28 1_555 1_555
H25 C28 1_555 1_555
H26 C29 1_555 1_555
H27 C29 1_555 1_555
H28 C30 1_555 1_555
H29 C32 1_555 1_555
H30 C32 1_555 1_555
H31 C36 1_555 1_555
H32 C36 1_555 1_555
H33 C33 1_555 1_555
H34 C19 1_555 1_555
H35 C19 1_555 1_555
H37 C18 1_555 1_555
H38 C18 1_555 1_555
H39 C18 1_555 1_555
H40 C16 1_555 1_555
H41 C16 1_555 1_555
H42 C16 1_555 1_555
H43 C17 1_555 1_555
H44 C17 1_555 1_555
H45 C17 1_555 1_555
H46 C38 1_555 1_555
H47 C38 1_555 1_555
H48 C38 1_555 1_555
H49 C39 1_555 1_555
H50 C39 1_555 1_555
H51 C39 1_555 1_555
H52 C40 1_555 1_555
H53 C40 1_555 1_555
H54 C40 1_555 1_555
H55 C37 1_555 1_555
H56 C37 1_555 1_555
H57 C37 1_555 1_555
H58 C41 1_555 1_555
H59 C41 1_555 1_555
H60 C41 1_555 1_555
H61 O7 1_555 1_555
H62 O9 1_555 1_555
C33 C34 1_555 1_555
C33 O8 1_555 1_555
C35 C36 1_555 1_555

#END
