
#######################################################################
#
#                 Cambridge Crystallographic Data Centre
#                                CCDC 
#
#######################################################################
#
# If this CIF has been generated from an entry in the Cambridge 
# Structural Database, then it will include bibliographic, chemical, 
# crystal, experimental, refinement or atomic coordinate data resulting 
# from the CCDC's data processing and validation procedures.
#
#######################################################################

data_DIJNUG
_chemical_formula_moiety         'C18 H20 N2 O4'
_chemical_name_systematic        
'(1S*,2S*,3S*)-3-Allyl-3-cyano-1,2-dimethylcyclopentyl 4-nitrobenzoate'
_symmetry_cell_setting           monoclinic
_symmetry_space_group_name_H-M   'P 21/c'
_symmetry_Int_Tables_number      14
_space_group_name_Hall           '-P 2ybc'
loop_
_symmetry_equiv_pos_site_id
_symmetry_equiv_pos_as_xyz
1 x,y,z
2 -x,1/2+y,1/2-z
3 -x,-y,-z
4 x,1/2-y,1/2+z
_cell_length_a                   7.7823(2)
_cell_length_b                   18.2549(4)
_cell_length_c                   12.5769(3)
_cell_angle_alpha                90
_cell_angle_beta                 98.899(1)
_cell_angle_gamma                90
_cell_volume                     1765.23
_exptl_crystal_colour            colorless
_exptl_crystal_description       plate
_chemical_melting_point          '388-389 K'
_cell_formula_units_Z            4
_exptl_crystal_recrystallization_method 'ethyl acetate/hexanes'
loop_
_atom_site_label
_atom_site_type_symbol
_atom_site_fract_x
_atom_site_fract_y
_atom_site_fract_z
C1 C -0.1370(3) 0.36816(15) 0.5702(2)
C2 C 0.0321(4) 0.32457(16) 0.6045(2)
H1 H 0.0198 0.2796 0.5615
C3 C 0.0261(4) 0.30072(15) 0.7202(3)
C4 C -0.1664(4) 0.28551(18) 0.7206(3)
H2 H -0.1897 0.2335 0.7117
H3 H -0.1993 0.3009 0.7885
C5 C -0.2692(4) 0.32762(19) 0.6290(3)
H4 H -0.3458 0.3625 0.6563
H5 H -0.3394 0.2944 0.5801
C6 C -0.1195(4) 0.4436(2) 0.6109(2)
C7 C -0.1907(4) 0.37017(19) 0.4471(2)
H6 H -0.0985 0.3932 0.4153
H7 H -0.2027 0.3203 0.4204
C8 C -0.3580(5) 0.4105(2) 0.4104(3)
H8 H -0.3616 0.4596 0.4296
C9 C -0.4897(6) 0.3850(3) 0.3577(4)
H9 H -0.4924 0.3361 0.3365
H10 H -0.5871 0.4144 0.3388
C10 C 0.1993(4) 0.3604(2) 0.5822(3)
H11 H 0.2204 0.4042 0.6245
H12 H 0.1885 0.3726 0.5072
H13 H 0.2946 0.3271 0.6008
C11 C 0.1489(5) 0.23811(17) 0.7594(3)
H14 H 0.2667 0.2531 0.7580
H15 H 0.1221 0.1964 0.7134
H16 H 0.1352 0.2253 0.8317
C12 C 0.0861(4) 0.37088(17) 0.8889(3)
C13 C 0.1687(3) 0.44035(16) 0.9329(2)
C14 C 0.2049(4) 0.4491(2) 1.0429(3)
H17 H 0.1738 0.4125 1.0878
C15 C 0.2860(4) 0.5109(2) 1.0869(3)
H18 H 0.3115 0.5164 1.1612
C16 C 0.3288(4) 0.56412(18) 1.0201(3)
C17 C 0.2922(4) 0.55840(17) 0.9103(3)
H19 H 0.3208 0.5960 0.8663
C18 C 0.2119(4) 0.49567(16) 0.8668(2)
H20 H 0.1866 0.4905 0.7924
N1 N -0.1113(4) 0.50230(17) 0.6417(2)
N2 N 0.4247(4) 0.6300(2) 1.0659(3)
O1 O 0.0830(2) 0.36688(9) 0.78279(16)
O2 O 0.0306(3) 0.32519(13) 0.94336(19)
O3 O 0.4688(4) 0.63217(18) 1.1627(3)
O4 O 0.4587(5) 0.67704(17) 1.0049(3)
loop_
_geom_bond_atom_site_label_1
_geom_bond_atom_site_label_2
_geom_bond_site_symmetry_1
_geom_bond_site_symmetry_2
C1 C2 1_555 1_555
C2 H1 1_555 1_555
C3 C2 1_555 1_555
C4 C3 1_555 1_555
H2 C4 1_555 1_555
H3 C4 1_555 1_555
C5 C1 1_555 1_555
H4 C5 1_555 1_555
H5 C5 1_555 1_555
C6 C1 1_555 1_555
C7 C1 1_555 1_555
H6 C7 1_555 1_555
H7 C7 1_555 1_555
C8 C7 1_555 1_555
H8 C8 1_555 1_555
C9 C8 1_555 1_555
H9 C9 1_555 1_555
H10 C9 1_555 1_555
C10 C2 1_555 1_555
H11 C10 1_555 1_555
H12 C10 1_555 1_555
H13 C10 1_555 1_555
C11 C3 1_555 1_555
H14 C11 1_555 1_555
H15 C11 1_555 1_555
H16 C11 1_555 1_555
C12 C13 1_555 1_555
C13 C14 1_555 1_555
C14 H17 1_555 1_555
C15 C14 1_555 1_555
H18 C15 1_555 1_555
C16 C15 1_555 1_555
C17 C16 1_555 1_555
H19 C17 1_555 1_555
C18 C13 1_555 1_555
H20 C18 1_555 1_555
N1 C6 1_555 1_555
N2 C16 1_555 1_555
O1 C3 1_555 1_555
O2 C12 1_555 1_555
O3 N2 1_555 1_555
O4 N2 1_555 1_555
C4 C5 1_555 1_555
C12 O1 1_555 1_555
C17 C18 1_555 1_555

#END
