
#######################################################################
#
#                 Cambridge Crystallographic Data Centre
#                                CCDC 
#
#######################################################################
#
# If this CIF has been generated from an entry in the Cambridge 
# Structural Database, then it will include bibliographic, chemical, 
# crystal, experimental, refinement or atomic coordinate data resulting 
# from the CCDC's data processing and validation procedures.
#
#######################################################################

data_DIJPAO
_chemical_formula_moiety         'C16 H18 N2 O4'
_chemical_name_systematic        
'(1R*,2S*,3S*)-3-Cyano-1,2,3-trimethylcyclopentyl 4-nitrobenzoate'
_symmetry_cell_setting           monoclinic
_symmetry_space_group_name_H-M   'P 21/c'
_symmetry_Int_Tables_number      14
_space_group_name_Hall           '-P 2ybc'
loop_
_symmetry_equiv_pos_site_id
_symmetry_equiv_pos_as_xyz
1 x,y,z
2 -x,1/2+y,1/2-z
3 -x,-y,-z
4 x,1/2-y,1/2+z
_cell_length_a                   6.9492(4)
_cell_length_b                   19.5923(12)
_cell_length_c                   11.7429(7)
_cell_angle_alpha                90
_cell_angle_beta                 98.627(4)
_cell_angle_gamma                90
_cell_volume                     1580.72
_exptl_crystal_colour            colorless
_exptl_crystal_description       plate
_chemical_melting_point          '394-395 K'
_cell_formula_units_Z            4
_exptl_crystal_recrystallization_method acetone/benzene/hexanes
loop_
_atom_site_label
_atom_site_type_symbol
_atom_site_fract_x
_atom_site_fract_y
_atom_site_fract_z
C1 C 0.4321(4) 0.60233(12) 0.3267(2)
C2 C 0.3037(4) 0.61436(11) 0.4210(2)
H1 H 0.3835 0.6015 0.4939
C3 C 0.2753(4) 0.69209(12) 0.4270(2)
C4 C 0.4726(4) 0.71852(15) 0.4054(3)
H2 H 0.4608 0.7646 0.3748
H3 H 0.5640 0.7189 0.4765
C5 C 0.5405(4) 0.67050(15) 0.3196(3)
H4 H 0.6799 0.6635 0.3376
H5 H 0.5116 0.6893 0.2425
C6 C 0.5602(4) 0.53958(14) 0.3507(2)
H6 H 0.4799 0.5000 0.3543
H7 H 0.6442 0.5451 0.4228
H8 H 0.6376 0.5339 0.2901
C7 C 0.1198(4) 0.57189(13) 0.4131(2)
H9 H 0.0315 0.5849 0.3457
H10 H 0.0595 0.5794 0.4804
H11 H 0.1520 0.5244 0.4081
C8 C 0.1221(5) 0.71551(14) 0.3349(3)
C9 C 0.2181(5) 0.71498(16) 0.5433(3)
H12 H 0.2133 0.7639 0.5460
H13 H 0.3130 0.6986 0.6052
H14 H 0.0926 0.6967 0.5511
C10 C 0.3532(4) 0.58632(13) 0.1171(2)
C11 C 0.1892(4) 0.58753(12) 0.0202(2)
C12 C 0.2327(4) 0.57941(14) -0.0911(2)
H15 H 0.3592 0.5688 -0.1018
C13 C 0.0912(4) 0.58695(13) -0.1850(2)
H16 H 0.1206 0.5815 -0.2591
C14 C -0.0946(4) 0.60268(11) -0.1676(2)
C15 C -0.1439(4) 0.60913(13) -0.0588(2)
H17 H -0.2715 0.6185 -0.0488
C16 C -0.0004(4) 0.60137(12) 0.0350(2)
H18 H -0.0315 0.6055 0.1090
N1 N 0.0008(4) 0.73476(13) 0.2660(2)
N2 N -0.2440(4) 0.61455(11) -0.2676(2)
O1 O 0.2925(2) 0.59233(9) 0.21988(14)
O2 O 0.5232(3) 0.58276(12) 0.10483(16)
O3 O -0.4095(3) 0.62848(12) -0.25100(17)
O4 O -0.1993(3) 0.60951(10) -0.36443(17)
loop_
_geom_bond_atom_site_label_1
_geom_bond_atom_site_label_2
_geom_bond_site_symmetry_1
_geom_bond_site_symmetry_2
C1 C2 1_555 1_555
C2 H1 1_555 1_555
C3 C2 1_555 1_555
C4 C3 1_555 1_555
H2 C4 1_555 1_555
H3 C4 1_555 1_555
C5 C1 1_555 1_555
H4 C5 1_555 1_555
H5 C5 1_555 1_555
C6 C1 1_555 1_555
H6 C6 1_555 1_555
H7 C6 1_555 1_555
H8 C6 1_555 1_555
C7 C2 1_555 1_555
H9 C7 1_555 1_555
H10 C7 1_555 1_555
H11 C7 1_555 1_555
C8 C3 1_555 1_555
C9 C3 1_555 1_555
H12 C9 1_555 1_555
H13 C9 1_555 1_555
H14 C9 1_555 1_555
C10 C11 1_555 1_555
C11 C12 1_555 1_555
C12 H15 1_555 1_555
C13 C12 1_555 1_555
H16 C13 1_555 1_555
C14 C13 1_555 1_555
C15 C14 1_555 1_555
H17 C15 1_555 1_555
C16 C11 1_555 1_555
H18 C16 1_555 1_555
N1 C8 1_555 1_555
N2 C14 1_555 1_555
O1 C1 1_555 1_555
O2 C10 1_555 1_555
O3 N2 1_555 1_555
O4 N2 1_555 1_555
C4 C5 1_555 1_555
C10 O1 1_555 1_555
C15 C16 1_555 1_555

#END
