
#######################################################################
#
#                 Cambridge Crystallographic Data Centre
#                                CCDC 
#
#######################################################################
#
# If this CIF has been generated from an entry in the Cambridge 
# Structural Database, then it will include bibliographic, chemical, 
# crystal, experimental, refinement or atomic coordinate data resulting 
# from the CCDC's data processing and validation procedures.
#
#######################################################################

data_DIJPAP
_chemical_formula_moiety         'C22 H25 N3 O3'
_chemical_name_systematic        
"Methyl 11-cyano-9-ethyl-2'-oxo-1',2'-dihydro-3H-spiro[7-azatricyclo[5.3.1.0^3,8^]undecane-4,3'-indole]-3-carboxylate"
_symmetry_cell_setting           monoclinic
_symmetry_space_group_name_H-M   'P 21'
_symmetry_Int_Tables_number      4
_space_group_name_Hall           'P 2yb'
loop_
_symmetry_equiv_pos_site_id
_symmetry_equiv_pos_as_xyz
1 x,y,z
2 -x,1/2+y,-z
_cell_length_a                   7.84890(12)
_cell_length_b                   14.21859(16)
_cell_length_c                   8.66234(11)
_cell_angle_alpha                90
_cell_angle_beta                 91.8044(12)
_cell_angle_gamma                90
_cell_volume                     966.24
_exptl_crystal_colour            'light colorless'
_exptl_crystal_description       block
_cell_formula_units_Z            2
loop_
_atom_site_label
_atom_site_type_symbol
_atom_site_fract_x
_atom_site_fract_y
_atom_site_fract_z
C1 C -0.47260(17) -0.62149(9) -0.02159(15)
C2 C -0.48667(17) -0.51338(9) 0.00652(15)
C3 C -0.41838(16) -0.64569(9) -0.19189(14)
C4 C -0.23214(18) -0.61615(10) -0.19924(15)
C5 C -0.28544(17) -0.56811(10) 0.18045(15)
C6 C -0.14330(19) -0.73763(10) 0.26261(18)
H1 H -0.0945 -0.7948 0.2914
C7 C -0.33740(17) -0.64894(9) 0.10087(15)
C8 C -0.65040(17) -0.66240(9) 0.00904(15)
H2 H -0.6718 -0.6576 0.1184
H3 H -0.7361 -0.6253 -0.0463
C9 C -0.43689(17) -0.75296(8) -0.22239(15)
H4 H -0.3635 -0.7870 -0.1477
C10 C -0.5010(2) -0.72570(11) -0.50512(17)
H5 H -0.4328 -0.6851 -0.5686
H6 H -0.5607 -0.7702 -0.5722
C11 C -0.66764(18) -0.76483(9) -0.04057(15)
H7 H -0.5977 -0.8035 0.0285
H8 H -0.7852 -0.7843 -0.0306
C12 C -0.62825(17) -0.66749(10) -0.41808(16)
H9 H -0.7055 -0.6353 -0.4918
C13 C -0.38422(18) -0.77912(10) -0.38680(15)
H10 H -0.2674 -0.7567 -0.3993
C14 C -0.73140(18) -0.73270(10) -0.31455(16)
H11 H -0.8143 -0.6950 -0.2591
C15 C -0.16410(19) -0.56953(10) 0.29982(17)
H12 H -0.1314 -0.5148 0.3516
C16 C -0.26603(19) -0.73470(9) 0.14317(16)
H13 H -0.2997 -0.7896 0.0924
C17 C -0.82363(19) -0.80386(11) -0.40958(17)
C18 C -0.53423(18) -0.59486(9) -0.31723(16)
H14 H -0.6161 -0.5550 -0.2670
H15 H -0.4645 -0.5554 -0.3811
C19 C -0.3857(2) -0.88504(11) -0.41692(18)
H16 H -0.4996 -0.9088 -0.4009
H17 H -0.3598 -0.8960 -0.5242
C20 C -0.09325(19) -0.65602(11) 0.33894(18)
H18 H -0.0105 -0.6593 0.4180
C21 C -0.2597(2) -0.94056(12) -0.3149(2)
H19 H -0.2661 -1.0060 -0.3418
H20 H -0.2875 -0.9328 -0.2086
H21 H -0.1463 -0.9179 -0.3302
C22 C -0.0471(2) -0.48532(13) -0.1777(2)
H22 H 0.0171 -0.5030 -0.2657
H23 H 0.0069 -0.5104 -0.0856
H24 H -0.0516 -0.4180 -0.1706
N1 N -0.61684(13) -0.78145(8) -0.20053(12)
N2 N -0.37466(14) -0.48984(8) 0.12279(13)
H25 H -0.3603 -0.4335 0.1569
N3 N -0.89160(18) -0.85846(10) -0.48641(16)
O1 O -0.21779(13) -0.52221(7) -0.19460(13)
O2 O -0.58777(13) -0.45950(6) -0.05688(11)
O3 O -0.11137(12) -0.66795(7) -0.20130(13)
loop_
_geom_bond_atom_site_label_1
_geom_bond_atom_site_label_2
_geom_bond_site_symmetry_1
_geom_bond_site_symmetry_2
C1 C2 1_555 1_555
C2 N2 1_555 1_555
C3 C1 1_555 1_555
C4 C3 1_555 1_555
C5 C7 1_555 1_555
C6 H1 1_555 1_555
C7 C1 1_555 1_555
C8 C1 1_555 1_555
H2 C8 1_555 1_555
H3 C8 1_555 1_555
C9 C3 1_555 1_555
H4 C9 1_555 1_555
C10 H5 1_555 1_555
H6 C10 1_555 1_555
C11 C8 1_555 1_555
H7 C11 1_555 1_555
H8 C11 1_555 1_555
C12 C10 1_555 1_555
H9 C12 1_555 1_555
C13 C9 1_555 1_555
H10 C13 1_555 1_555
C14 C12 1_555 1_555
H11 C14 1_555 1_555
C15 C5 1_555 1_555
H12 C15 1_555 1_555
C16 C6 1_555 1_555
H13 C16 1_555 1_555
C17 C14 1_555 1_555
C18 C3 1_555 1_555
H14 C18 1_555 1_555
H15 C18 1_555 1_555
C19 C13 1_555 1_555
H16 C19 1_555 1_555
H17 C19 1_555 1_555
C20 C6 1_555 1_555
H18 C20 1_555 1_555
C21 C19 1_555 1_555
H19 C21 1_555 1_555
H20 C21 1_555 1_555
H21 C21 1_555 1_555
C22 H22 1_555 1_555
H23 C22 1_555 1_555
H24 C22 1_555 1_555
N1 C9 1_555 1_555
N2 C5 1_555 1_555
H25 N2 1_555 1_555
N3 C17 1_555 1_555
O1 C4 1_555 1_555
O2 C2 1_555 1_555
O3 C4 1_555 1_555
C7 C16 1_555 1_555
C10 C13 1_555 1_555
C11 N1 1_555 1_555
C12 C18 1_555 1_555
C14 N1 1_555 1_555
C15 C20 1_555 1_555
C22 O1 1_555 1_555

#END
