
#######################################################################
#
#                 Cambridge Crystallographic Data Centre
#                                CCDC 
#
#######################################################################
#
# If this CIF has been generated from an entry in the Cambridge 
# Structural Database, then it will include bibliographic, chemical, 
# crystal, experimental, refinement or atomic coordinate data resulting 
# from the CCDC's data processing and validation procedures.
#
#######################################################################

data_DIJPIX
_chemical_formula_moiety         'C21 H18 Br2 O3'
_chemical_name_systematic        
5-(4-Bromophenyl)-2-(1-(4-bromophenyl)-3-oxobutyl)-2-methylfuran-3(2H)-one
_symmetry_cell_setting           orthorhombic
_symmetry_space_group_name_H-M   'P 21 21 21'
_symmetry_Int_Tables_number      19
_space_group_name_Hall           'P 2ac 2ab'
loop_
_symmetry_equiv_pos_site_id
_symmetry_equiv_pos_as_xyz
1 x,y,z
2 1/2-x,-y,1/2+z
3 -x,1/2+y,1/2-z
4 1/2+x,1/2-y,-z
_cell_length_a                   8.695(8)
_cell_length_b                   9.062(9)
_cell_length_c                   25.59(2)
_cell_angle_alpha                90
_cell_angle_beta                 90
_cell_angle_gamma                90
_cell_volume                     2016.34
_exptl_crystal_colour            yellow
_exptl_crystal_description       block
_cell_formula_units_Z            4
loop_
_atom_site_label
_atom_site_type_symbol
_atom_site_fract_x
_atom_site_fract_y
_atom_site_fract_z
Br1 Br 0.92684(16) 1.20585(15) -0.06083(6)
Br2 Br -0.22702(13) 0.57466(13) 0.04859(6)
C1 C 0.8361(13) 1.1232(11) -0.0014(6)
C2 C 0.8841(14) 1.1605(13) 0.0465(6)
H1 H 0.9655 1.2259 0.0509
C3 C 0.8120(13) 1.1015(13) 0.0886(5)
H2 H 0.8429 1.1322 0.1217
C4 C 0.7013(12) 1.0037(12) 0.0854(5)
C5 C 0.6527(12) 0.9688(12) 0.0358(6)
H3 H 0.5713 0.9032 0.0319
C6 C 0.7180(16) 1.0257(13) -0.0070(5)
H4 H 0.6834 0.9991 -0.0401
C7 C 0.6236(11) 0.9358(11) 0.1304(5)
C8 C 0.6688(14) 0.9372(13) 0.1795(6)
H5 H 0.7572 0.9813 0.1928
C9 C 0.5563(16) 0.8581(13) 0.2082(6)
C10 C 0.4345(13) 0.8054(11) 0.1692(5)
C11 C 0.4416(12) 0.6412(11) 0.1653(5)
H6 H 0.3783 0.6086 0.1368
H7 H 0.4051 0.5983 0.1973
H8 H 0.5460 0.6111 0.1593
C12 C 0.2797(12) 0.8683(10) 0.1811(4)
H9 H 0.2564 0.8421 0.2174
C13 C 0.2767(12) 1.0367(10) 0.1779(4)
H10 H 0.3624 1.0753 0.1980
H11 H 0.2919 1.0658 0.1418
C14 C 0.1338(14) 1.1051(12) 0.1972(4)
O1 O 0.0353(10) 1.0408(9) 0.2204(3)
C15 C 0.1525(13) 0.8024(11) 0.1477(4)
C16 C 0.1290(12) 0.8393(10) 0.0976(4)
H12 H 0.1916 0.9111 0.0828
C17 C 0.0169(13) 0.7762(11) 0.0671(4)
H13 H 0.0042 0.8051 0.0325
C18 C -0.0777(12) 0.6678(12) 0.0890(5)
C19 C -0.0553(13) 0.6303(12) 0.1386(5)
H14 H -0.1169 0.5579 0.1537
C20 C 0.0560(13) 0.6957(12) 0.1679(4)
H15 H 0.0676 0.6676 0.2026
O2 O 0.4914(8) 0.8659(7) 0.1206(3)
O3 O 0.5449(9) 0.8297(9) 0.2554(4)
C21 C 0.1171(14) 1.2719(11) 0.1863(5)
H16 H 0.0214 1.3065 0.2005
H17 H 0.1188 1.2889 0.1493
H18 H 0.2007 1.3240 0.2024
loop_
_geom_bond_atom_site_label_1
_geom_bond_atom_site_label_2
_geom_bond_site_symmetry_1
_geom_bond_site_symmetry_2
Br1 C1 1_555 1_555
Br2 C18 1_555 1_555
C1 C2 1_555 1_555
C2 H1 1_555 1_555
C3 C2 1_555 1_555
H2 C3 1_555 1_555
C4 C3 1_555 1_555
C5 C4 1_555 1_555
H3 C5 1_555 1_555
C6 C1 1_555 1_555
H4 C6 1_555 1_555
C7 C4 1_555 1_555
C8 C7 1_555 1_555
H5 C8 1_555 1_555
C9 C8 1_555 1_555
C10 C9 1_555 1_555
C11 C10 1_555 1_555
H6 C11 1_555 1_555
H7 C11 1_555 1_555
H8 C11 1_555 1_555
C12 C10 1_555 1_555
H9 C12 1_555 1_555
C13 C12 1_555 1_555
H10 C13 1_555 1_555
H11 C13 1_555 1_555
C14 C13 1_555 1_555
O1 C14 1_555 1_555
C15 C12 1_555 1_555
C16 C15 1_555 1_555
H12 C16 1_555 1_555
C17 C16 1_555 1_555
H13 C17 1_555 1_555
C18 C17 1_555 1_555
C19 C18 1_555 1_555
H14 C19 1_555 1_555
C20 C15 1_555 1_555
H15 C20 1_555 1_555
O2 C7 1_555 1_555
O3 C9 1_555 1_555
C21 C14 1_555 1_555
H16 C21 1_555 1_555
H17 C21 1_555 1_555
H18 C21 1_555 1_555
C5 C6 1_555 1_555
C10 O2 1_555 1_555
C19 C20 1_555 1_555

#END
