
#######################################################################
#
#                 Cambridge Crystallographic Data Centre
#                                CCDC 
#
#######################################################################
#
# If this CIF has been generated from an entry in the Cambridge 
# Structural Database, then it will include bibliographic, chemical, 
# crystal, experimental, refinement or atomic coordinate data resulting 
# from the CCDC's data processing and validation procedures.
#
#######################################################################

data_DIJSOG
_chemical_formula_moiety         
'C90 H56 F10 N4 S2 2+,2(Cl1 O4 1-),0.5(C1 H1 Cl3),1.5(H2 O1)'
_chemical_name_systematic        
'7,22-bis(pentafluorophenyl)-2,2,12,12,17,17,27,27-octaphenyl-31,34-dithia-33,36-diaza-32,35-diazoniaheptacyclo[26.2.1.1^3,6^.1^8,11^.1^13,16^.1^18,21^.1^23,26^]hexatriaconta-1(30),3,5,7,9,11(35),13,15,18,20,22,24,26(32),28-tetradecaene diperchlorate chloroform solvate sesquihydrate'
_symmetry_cell_setting           monoclinic
_symmetry_space_group_name_H-M   'P c'
_symmetry_Int_Tables_number      7
_space_group_name_Hall           'P -2yc'
loop_
_symmetry_equiv_pos_site_id
_symmetry_equiv_pos_as_xyz
1 x,y,z
2 x,-y,1/2+z
_cell_length_a                   17.6848(16)
_cell_length_b                   21.470(2)
_cell_length_c                   20.6857(18)
_cell_angle_alpha                90
_cell_angle_beta                 99.421(5)
_cell_angle_gamma                90
_cell_volume                     7748.27
_exptl_crystal_description       plate
_cell_formula_units_Z            4
loop_
_atom_site_label
_atom_site_type_symbol
_atom_site_fract_x
_atom_site_fract_y
_atom_site_fract_z
S1 S 0.50158(10) 0.70345(8) 0.83577(9)
S2 S 0.27524(10) 0.84133(8) 1.06042(9)
C1 C 0.6120(4) 0.7928(3) 0.8116(3)
C2 C 0.5432(5) 0.9045(4) 0.6712(4)
H1 H 0.4968 0.9182 0.6477
C3 C 0.6915(4) 0.7686(4) 0.8408(4)
C4 C 0.5435(5) 0.8587(4) 0.7155(4)
H2 H 0.4978 0.8394 0.7207
C5 C 0.5002(4) 0.6575(4) 0.7218(4)
H3 H 0.4889 0.6324 0.6849
C6 C 0.6135(4) 0.8395(3) 0.7544(4)
C7 C 0.7162(4) 0.7081(4) 0.8319(4)
H4 H 0.6833 0.6804 0.8067
C8 C 0.6798(4) 0.8666(4) 0.7422(4)
H5 H 0.7263 0.8533 0.7658
C9 C 0.4686(4) 0.6484(3) 0.7779(3)
C10 C 0.8352(5) 0.7279(4) 0.9006(4)
H6 H 0.8821 0.7135 0.9224
C11 C 0.7882(5) 0.6887(5) 0.8596(5)
H7 H 0.8051 0.6491 0.8505
C12 C 0.5511(4) 0.7083(4) 0.7257(4)
H8 H 0.5771 0.7205 0.6922
C13 C 0.7437(4) 0.8084(3) 0.8798(4)
H9 H 0.7302 0.8497 0.8855
C14 C 0.5575(4) 0.7381(3) 0.7868(3)
C15 C 0.8135(4) 0.7874(4) 0.9092(4)
H10 H 0.8466 0.8142 0.9356
C16 C 0.6799(5) 0.9139(5) 0.6952(5)
H11 H 0.7255 0.9324 0.6885
C17 C 0.6120(6) 0.9320(5) 0.6598(5)
H12 H 0.6110 0.9627 0.6280
C18 C 0.7642(4) 0.7764(4) 1.0835(4)
C19 C 0.6822(6) 0.7228(4) 1.1442(4)
C20 C 0.7526(5) 0.7307(4) 1.1267(4)
C21 C 0.6293(4) 0.8049(3) 1.0697(4)
C22 C 0.6195(5) 0.7597(4) 1.1155(4)
C23 C 0.7038(4) 0.8143(4) 1.0562(4)
F1 F 0.7168(2) 0.8594(2) 1.0159(2)
F2 F 0.8331(3) 0.7847(3) 1.0697(3)
F3 F 0.5521(3) 0.7488(2) 1.1329(2)
F4 F 0.8091(3) 0.6944(3) 1.1554(3)
F5 F 0.6700(4) 0.6777(2) 1.1868(2)
C24 C 0.5151(4) 0.8900(3) 0.9235(4)
H13 H 0.4849 0.9222 0.9352
C25 C 0.5768(4) 0.8270(3) 0.8657(4)
C26 C 0.5311(4) 0.8793(3) 0.8634(4)
H14 H 0.5144 0.9032 0.8263
C27 C 0.5513(4) 0.8446(3) 0.9652(4)
N1 N 0.5882(3) 0.8063(3) 0.9276(3)
H15 H 0.6146 0.7739 0.9416
C28 C 0.2704(4) 0.6355(3) 0.9000(4)
H16 H 0.2228 0.6450 0.9111
C29 C 0.3676(4) 0.6145(3) 0.8429(4)
C30 C 0.3431(4) 0.6270(3) 0.9458(4)
C31 C 0.2868(4) 0.6265(3) 0.8374(4)
H17 H 0.2518 0.6280 0.7986
C32 C 0.3545(4) 0.5919(4) 0.7237(4)
C33 C 0.3406(4) 0.5347(4) 0.6887(4)
H18 H 0.3673 0.4986 0.7031
C34 C 0.3165(4) 0.6445(4) 0.6985(4)
H19 H 0.3274 0.6824 0.7197
C35 C 0.4128(4) 0.5970(3) 0.7891(4)
C36 C 0.4546(4) 0.5347(3) 0.8101(4)
C37 C 0.2998(4) 0.6540(3) 1.0491(4)
C38 C 0.2013(4) 0.7154(4) 1.0634(3)
C39 C 0.3518(4) 0.6256(3) 1.0143(4)
C40 C 0.4142(4) 0.5909(4) 1.0534(4)
C41 C 0.4546(5) 0.6159(5) 1.1133(4)
C42 C 0.5316(5) 0.5233(6) 1.1319(6)
C43 C 0.5128(5) 0.5805(5) 1.1502(5)
C44 C 0.5148(4) 0.8735(3) 1.0729(3)
C45 C 0.5365(5) 0.8966(3) 1.1361(4)
H20 H 0.5828 0.8895 1.1637
C46 C 0.4762(4) 0.9318(3) 1.1496(4)
H21 H 0.4747 0.9540 1.1880
C47 C 0.3401(4) 0.9647(3) 1.0802(4)
C48 C 0.4182(4) 0.9284(3) 1.0962(4)
C49 C 0.3350(4) 1.0104(4) 1.1386(4)
C50 C 0.0900(4) 0.7038(4) 0.9467(4)
H22 H 0.1131 0.6692 0.9686
C51 C 0.0133(5) 0.7457(5) 0.8517(4)
H23 H -0.0153 0.7407 0.8101
C52 C 0.0994(4) 0.7604(3) 0.9771(4)
C53 C 0.0473(4) 0.6955(4) 0.8840(4)
H24 H 0.0424 0.6562 0.8649
C54 C 0.0639(5) 0.8109(4) 0.9424(4)
H25 H 0.0688 0.8504 0.9611
C55 C 0.1402(4) 0.7664(3) 1.0494(4)
C56 C 0.0229(6) 0.7156(5) 1.0807(5)
H26 H 0.0124 0.7008 1.0379
C57 C 0.0824(5) 0.7554(4) 1.0964(4)
C58 C -0.0242(6) 0.6952(6) 1.1255(6)
H27 H -0.0630 0.6658 1.1155
C59 C -0.0048(7) 0.7260(6) 1.1905(5)
H28 H -0.0331 0.7159 1.2232
C60 C 0.1792(4) 0.8308(3) 1.0610(4)
N2 N 0.3978(3) 0.6143(3) 0.9069(3)
H29 H 0.4453 0.6071 0.9218
C61 C 0.5640(4) 0.8402(3) 1.0351(4)
F6 F 0.5876(3) 0.4886(4) 1.1657(4)
C62 C 0.3264(3) 1.1193(3) 1.1824(4)
H30 H 0.3240 1.1623 1.1766
C63 C 0.3288(4) 1.0736(4) 1.1264(5)
H31 H 0.3260 1.0883 1.0838
C64 C 0.3339(7) 1.0324(6) 1.2501(6)
H32 H 0.3367 1.0182 1.2929
C65 C 0.3360(6) 0.9897(5) 1.2000(5)
H33 H 0.3380 0.9472 1.2089
C66 C 0.4501(5) 0.4311(4) 0.8522(4)
H34 H 0.4212 0.3984 0.8647
C67 C 0.4148(5) 0.4864(4) 0.8319(4)
H35 H 0.3627 0.4912 0.8329
N3 N 0.4429(3) 0.8936(3) 1.0503(3)
H36 H 0.4171 0.8852 1.0123
C68 C 0.3408(5) 0.9983(3) 1.0164(4)
C69 C 0.4054(5) 1.0285(4) 1.0043(5)
H37 H 0.4489 1.0283 1.0364
N4 N 0.2505(4) 0.7020(3) 1.0225(3)
H38 H 0.2517 0.7202 0.9856
C70 C 0.0951(5) 0.7778(4) 1.1613(4)
H39 H 0.1382 0.8021 1.1751
C71 C 0.0487(7) 0.7656(4) 1.2029(5)
H40 H 0.0552 0.7866 1.2427
C72 C 0.0205(5) 0.8032(4) 0.8795(5)
H41 H -0.0030 0.8374 0.8570
C73 C 0.2631(4) 0.6424(4) 0.6431(4)
H42 H 0.2364 0.6783 0.6281
C74 C 0.2482(5) 0.5871(5) 0.6087(4)
H43 H 0.2130 0.5856 0.5701
C75 C 0.2870(5) 0.5348(4) 0.6335(4)
H44 H 0.2760 0.4974 0.6114
F7 F 0.4422(3) 0.6709(2) 1.1312(2)
C76 C 0.3280(5) 1.0928(5) 1.2384(6)
H45 H 0.3246 1.1186 1.2739
C77 C 0.5678(6) 0.4725(5) 0.8328(5)
H46 H 0.6200 0.4675 0.8324
C78 C 0.5267(5) 0.4235(4) 0.8542(5)
H47 H 0.5509 0.3867 0.8695
C79 C 0.2833(5) 1.0276(4) 0.9048(5)
H48 H 0.2429 1.0252 0.8699
C80 C 0.2770(5) 0.9980(4) 0.9651(4)
H49 H 0.2316 0.9786 0.9708
C81 C 0.3488(6) 1.0600(5) 0.8975(5)
H50 H 0.3506 1.0818 0.8589
C82 C 0.4078(6) 1.0603(5) 0.9437(5)
H51 H 0.4521 1.0813 0.9375
C83 C 0.1474(5) 0.8866(4) 1.0741(5)
H52 H 0.0959 0.8913 1.0775
F8 F 0.5529(3) 0.6056(4) 1.2044(3)
F9 F 0.3945(3) 0.5017(2) 0.9830(3)
C84 C 0.4324(5) 0.5308(4) 1.0351(4)
C85 C 0.5330(4) 0.5286(4) 0.8121(4)
H53 H 0.5617 0.5615 0.7997
F10 F 0.5083(4) 0.4395(3) 1.0575(4)
C86 C 0.4911(6) 0.4954(5) 1.0745(6)
C87 C 0.1992(5) 0.9349(4) 1.0819(5)
H54 H 0.1847 0.9755 1.0896
C88 C 0.2721(4) 0.9199(4) 1.0776(4)
C89 C 0.2806(4) 0.6403(4) 1.1096(3)
H55 H 0.3055 0.6116 1.1393
C90 C 0.2176(4) 0.6768(4) 1.1191(4)
H56 H 0.1918 0.6758 1.1549
Cl1 Cl 0.33780(10) 0.79956(8) 0.90788(8)
O1 O 0.2600(3) 0.7787(2) 0.9149(2)
O2 O 0.3437(3) 0.8659(2) 0.9218(3)
O3 O 0.3485(3) 0.7876(3) 0.8431(3)
O4 O 0.3921(3) 0.7672(3) 0.9542(3)
Cl2 Cl 0.59266(10) 0.64388(8) 0.99643(8)
O5 O 0.6492(3) 0.6788(2) 0.9689(3)
O6 O 0.5326(3) 0.6845(2) 1.0083(3)
O7 O 0.5613(3) 0.5956(2) 0.9513(3)
O8 O 0.6290(3) 0.6147(3) 1.0560(3)
C91 C -0.2524(5) 0.5715(4) 0.7322(4)
H57 H -0.2969 0.5538 0.7424
C92 C -0.1910(4) 0.6428(3) 0.6679(3)
C93 C -0.1812(5) 0.5527(4) 0.7673(4)
H58 H -0.1783 0.5231 0.8004
C94 C -0.2581(4) 0.6163(4) 0.6821(4)
H59 H -0.3056 0.6278 0.6590
C95 C -0.1166(5) 0.5793(4) 0.7513(4)
H60 H -0.0688 0.5666 0.7729
C96 C -0.1210(4) 0.6239(4) 0.7042(4)
H61 H -0.0760 0.6425 0.6960
C97 C -0.3213(4) 0.6695(4) 0.5435(4)
H62 H -0.3025 0.6303 0.5356
C98 C -0.3948(4) 0.6849(5) 0.5164(4)
H63 H -0.4257 0.6556 0.4917
C99 C -0.3783(5) 0.7860(6) 0.5624(5)
H64 H -0.3972 0.8256 0.5687
C100 C -0.2748(4) 0.7110(4) 0.5821(3)
C101 C -0.3021(4) 0.7703(4) 0.5915(4)
H65 H -0.2711 0.7994 0.6164
C102 C -0.4235(4) 0.7442(6) 0.5257(4)
H66 H -0.4733 0.7547 0.5069
C103 C -0.1423(4) 0.7751(3) 0.6997(4)
H67 H -0.1711 0.7615 0.7307
C104 C -0.1423(3) 0.7466(3) 0.6402(3)
C105 C -0.0555(4) 0.8396(3) 0.6563(3)
C106 C -0.1920(4) 0.6916(3) 0.6114(3)
C107 C -0.0932(4) 0.8278(4) 0.7084(4)
H68 H -0.0870 0.8523 0.7460
C108 C 0.0009(4) 0.8926(3) 0.6530(4)
C109 C -0.1608(5) 1.0133(5) 0.6074(6)
H69 H -0.2141 1.0138 0.5989
C110 C -0.0039(5) 1.0099(4) 0.6332(5)
H70 H 0.0493 1.0086 0.6401
C111 C -0.0461(5) 0.9551(3) 0.6362(4)
C112 C -0.0414(6) 1.0655(4) 0.6201(7)
H71 H -0.0139 1.1026 0.6222
C113 C -0.1231(4) 0.9593(4) 0.6236(4)
H72 H -0.1517 0.9233 0.6263
C114 C -0.1215(6) 1.0663(5) 0.6035(7)
H73 H -0.1471 1.1031 0.5900
C115 C 0.1404(4) 0.8662(3) 0.5380(4)
H74 H 0.1877 0.8570 0.5262
C116 C 0.0726(4) 0.8776(3) 0.4940(4)
C117 C 0.1265(4) 0.8706(4) 0.5991(4)
H75 H 0.1627 0.8666 0.6369
C118 C 0.0469(4) 0.8824(3) 0.5969(4)
S3 S -0.08114(9) 0.78451(8) 0.59650(9)
N5 N 0.0167(3) 0.8867(3) 0.5340(3)
H76 H -0.0309 0.8942 0.5196
C119 C -0.2758(4) 0.6912(3) 0.3640(3)
C120 C -0.1364(3) 0.6602(3) 0.3890(3)
C121 C -0.2016(4) 0.6993(3) 0.3540(3)
C122 C -0.2456(5) 0.7854(3) 0.2821(4)
C123 C -0.3176(4) 0.7763(4) 0.2944(4)
C124 C -0.1878(5) 0.7471(3) 0.3120(4)
C125 C -0.3341(4) 0.7296(3) 0.3342(3)
F11 F -0.2940(2) 0.64219(19) 0.3995(2)
F12 F -0.1173(3) 0.7582(2) 0.3004(2)
F13 F -0.4058(2) 0.7202(2) 0.3443(2)
F14 F -0.3737(3) 0.8151(2) 0.2667(2)
F15 F -0.2308(3) 0.8316(2) 0.2429(2)
C126 C -0.0928(4) 0.6313(3) 0.3462(3)
C127 C 0.0046(4) 0.5791(3) 0.3127(3)
C128 C -0.1160(4) 0.6131(3) 0.2816(3)
H77 H -0.1636 0.6213 0.2565
C129 C -0.0563(4) 0.5807(3) 0.2603(3)
H78 H -0.0569 0.5633 0.2191
C130 C -0.1553(3) 0.6629(3) 0.5585(3)
C131 C -0.1277(4) 0.6528(3) 0.4554(3)
C132 C -0.0908(4) 0.6028(3) 0.4953(3)
H79 H -0.0608 0.5715 0.4816
C133 C -0.1083(4) 0.6101(3) 0.5576(3)
H80 H -0.0918 0.5842 0.5932
N6 N -0.1667(3) 0.6873(2) 0.4969(3)
H81 H -0.1941 0.7197 0.4851
C134 C 0.2272(4) 0.6961(3) 0.3327(4)
C135 C 0.0835(4) 0.5511(3) 0.3182(4)
C136 C 0.2672(3) 0.7555(3) 0.3623(4)
C137 C 0.2080(4) 0.8077(3) 0.3597(4)
C138 C 0.1103(4) 0.8646(3) 0.3868(4)
C139 C 0.1264(4) 0.8875(4) 0.3271(4)
H82 H 0.1010 0.9200 0.3030
C140 C 0.1871(4) 0.8531(4) 0.3101(4)
H83 H 0.2098 0.8589 0.2730
C141 C 0.0980(4) 0.8428(3) 0.7352(4)
H84 H 0.0910 0.8078 0.7085
C142 C 0.0558(4) 0.8936(4) 0.7187(4)
C143 C 0.1788(4) 0.5176(4) 0.4177(4)
H85 H 0.2167 0.5393 0.4007
C144 C 0.1050(4) 0.5186(3) 0.3838(4)
C145 C 0.0495(5) 0.4859(3) 0.4093(4)
H86 H -0.0004 0.4853 0.3866
N7 N -0.0182(3) 0.6095(2) 0.3649(3)
H87 H 0.0093 0.6142 0.4029
C146 C 0.1426(6) 0.4548(4) 0.5022(4)
H88 H 0.1550 0.4349 0.5424
C147 C 0.0668(5) 0.4536(4) 0.4684(4)
H89 H 0.0289 0.4317 0.4851
C148 C 0.1985(5) 0.4858(4) 0.4753(4)
H90 H 0.2492 0.4851 0.4963
C149 C 0.0599(4) 0.9424(4) 0.7631(5)
H91 H 0.0278 0.9766 0.7534
C150 C 0.1525(5) 0.8418(4) 0.7921(4)
H92 H 0.1850 0.8077 0.8008
C151 C 0.1101(4) 0.9413(4) 0.8211(4)
H93 H 0.1115 0.9742 0.8504
C152 C 0.1585(5) 0.8914(4) 0.8359(4)
H94 H 0.1943 0.8908 0.8742
C153 C -0.0084(4) 0.9898(3) 0.4311(4)
C154 C -0.0010(4) 0.9321(3) 0.3978(4)
C155 C -0.0494(4) 0.9211(3) 0.3410(4)
C156 C 0.0623(4) 0.8880(3) 0.4279(4)
F16 F -0.0450(2) 0.8694(2) 0.3089(2)
F17 F 0.0395(3) 1.0067(2) 0.4818(3)
C157 C -0.1138(5) 1.0175(5) 0.3492(6)
C158 C -0.1083(5) 0.9638(4) 0.3146(5)
C159 C -0.0659(5) 1.0302(4) 0.4071(6)
F18 F -0.1548(3) 0.9511(3) 0.2619(3)
C160 C 0.3249(4) 0.7931(4) 0.4763(4)
H95 H 0.3109 0.8333 0.4628
C161 C 0.3676(5) 0.7824(5) 0.5398(5)
H96 H 0.3839 0.8159 0.5671
C162 C 0.3045(4) 0.7436(3) 0.4350(4)
C163 C 0.3646(5) 0.6717(4) 0.5200(5)
H97 H 0.3772 0.6313 0.5341
C164 C 0.3850(5) 0.7221(5) 0.5608(5)
H98 H 0.4108 0.7154 0.6031
C165 C 0.3256(4) 0.6828(4) 0.4584(4)
H99 H 0.3122 0.6490 0.4307
C166 C 0.1429(4) 0.6039(3) 0.3112(4)
C167 C 0.0848(4) 0.5069(3) 0.2589(3)
C168 C 0.0899(4) 0.4010(4) 0.2183(5)
H100 H 0.0971 0.3585 0.2260
C169 C 0.0939(4) 0.4422(4) 0.2694(4)
H101 H 0.1030 0.4271 0.3122
C170 C 0.0696(4) 0.5287(4) 0.1947(4)
H102 H 0.0615 0.5710 0.1864
C171 C 0.0744(4) 0.4245(5) 0.1537(5)
H103 H 0.0696 0.3973 0.1183
C172 C 0.0666(4) 0.4870(5) 0.1429(4)
H104 H 0.0591 0.5019 0.1001
C173 C 0.3136(5) 0.7755(4) 0.2553(4)
H105 H 0.2643 0.7660 0.2344
C174 C 0.4029(4) 0.7903(4) 0.3512(4)
H106 H 0.4158 0.7903 0.3966
C175 C 0.3291(4) 0.7741(4) 0.3229(4)
N8 N 0.1624(3) 0.8151(2) 0.4039(3)
H107 H 0.1643 0.7926 0.4386
C176 C 0.4414(5) 0.8052(5) 0.2493(5)
H108 H 0.4796 0.8144 0.2248
C177 C 0.4569(5) 0.8063(5) 0.3143(5)
H109 H 0.5054 0.8182 0.3350
C178 C 0.3683(5) 0.7903(5) 0.2181(5)
H110 H 0.3565 0.7903 0.1726
C179 C 0.2564(4) 0.6497(4) 0.2961(4)
H111 H 0.3028 0.6531 0.2807
F19 F -0.1671(3) 1.0593(3) 0.3248(4)
F20 F -0.0716(4) 1.0844(2) 0.4373(4)
C180 C 0.2081(4) 0.5972(3) 0.2848(4)
H112 H 0.2194 0.5621 0.2619
S4 S 0.13968(9) 0.67366(8) 0.35063(9)
O9 O 0.1611(2) 0.7239(2) 0.5043(2)
O10 O 0.0807(3) 0.63457(19) 0.4924(2)
O11 O 0.0291(3) 0.7344(2) 0.4649(3)
O12 O 0.0743(3) 0.7077(2) 0.5773(3)
Cl3 Cl 0.08584(8) 0.70064(7) 0.50982(8)
O13 O 0.8524(3) 0.9003(2) 0.4868(3)
O14 O 0.7721(3) 0.8118(2) 0.4634(3)
O15 O 0.8914(3) 0.8170(2) 0.4277(3)
O16 O 0.7887(3) 0.8826(2) 0.3796(3)
Cl4 Cl 0.82700(10) 0.85347(8) 0.43990(10)
Cl5 Cl 0.73821(19) 0.50214(17) -0.03348(19)
C181 C 0.7820(7) 0.5559(5) 0.0205(6)
H113 H 0.7515 0.5942 0.0159
Cl6 Cl 0.7921(2) 0.53069(17) 0.10148(17)
Cl7 Cl 0.87475(18) 0.57274(17) 0.0033(3)
O17 O 0.7104(3) 0.0222(2) 0.4144(3)
O18 O 0.6235(3) 0.9763(4) 0.5012(4)
O19 O 0.5779(4) 0.9539(3) 0.3484(4)
loop_
_geom_bond_atom_site_label_1
_geom_bond_atom_site_label_2
_geom_bond_site_symmetry_1
_geom_bond_site_symmetry_2
S1 C9 1_555 1_555
S2 C60 1_555 1_555
C1 C3 1_555 1_555
C2 H1 1_555 1_555
C3 C7 1_555 1_555
C4 C2 1_555 1_555
H2 C4 1_555 1_555
C5 H3 1_555 1_555
C6 C1 1_555 1_555
C7 H4 1_555 1_555
C8 C6 1_555 1_555
H5 C8 1_555 1_555
C9 C5 1_555 1_555
C10 H6 1_555 1_555
C11 C7 1_555 1_555
H7 C11 1_555 1_555
C12 C5 1_555 1_555
H8 C12 1_555 1_555
C13 C3 1_555 1_555
H9 C13 1_555 1_555
C14 S1 1_555 1_555
C15 C10 1_555 1_555
H10 C15 1_555 1_555
C16 C8 1_555 1_555
H11 C16 1_555 1_555
C17 C2 1_555 1_555
H12 C17 1_555 1_555
C18 C20 1_555 1_555
C19 C20 1_555 1_555
C20 F4 1_555 1_555
C21 C22 1_555 1_555
C22 C19 1_555 1_555
C23 C18 1_555 1_555
F1 C23 1_555 1_555
F2 C18 1_555 1_555
F3 C22 1_555 1_555
F5 C19 1_555 1_555
C24 H13 1_555 1_555
C25 C1 1_555 1_555
C26 C24 1_555 1_555
H14 C26 1_555 1_555
C27 C24 1_555 1_555
N1 C25 1_555 1_555
H15 N1 1_555 1_555
C28 H16 1_555 1_555
C29 C31 1_555 1_555
C30 C28 1_555 1_555
C31 C28 1_555 1_555
H17 C31 1_555 1_555
C32 C33 1_555 1_555
C33 H18 1_555 1_555
C34 C32 1_555 1_555
H19 C34 1_555 1_555
C35 C9 1_555 1_555
C36 C35 1_555 1_555
C37 C39 1_555 1_555
C38 C55 1_555 1_555
C39 C30 1_555 1_555
C40 C39 1_555 1_555
C41 C40 1_555 1_555
C42 C43 1_555 1_555
C43 C41 1_555 1_555
C44 C45 1_555 1_555
C45 H20 1_555 1_555
C46 C45 1_555 1_555
H21 C46 1_555 1_555
C47 C48 1_555 1_555
C48 C46 1_555 1_555
C49 C47 1_555 1_555
C50 H22 1_555 1_555
C51 H23 1_555 1_555
C52 C50 1_555 1_555
C53 C50 1_555 1_555
H24 C53 1_555 1_555
C54 C52 1_555 1_555
H25 C54 1_555 1_555
C55 C52 1_555 1_555
C56 H26 1_555 1_555
C57 C55 1_555 1_555
C58 C56 1_555 1_555
H27 C58 1_555 1_555
C59 C58 1_555 1_555
H28 C59 1_555 1_555
C60 C55 1_555 1_555
N2 C29 1_555 1_555
H29 N2 1_555 1_555
C61 C21 1_555 1_555
F6 C42 1_555 1_555
C62 H30 1_555 1_555
C63 C49 1_555 1_555
H31 C63 1_555 1_555
C64 H32 1_555 1_555
C65 C49 1_555 1_555
H33 C65 1_555 1_555
C66 H34 1_555 1_555
C67 C36 1_555 1_555
H35 C67 1_555 1_555
N3 C44 1_555 1_555
H36 N3 1_555 1_555
C68 C47 1_555 1_555
C69 C68 1_555 1_555
H37 C69 1_555 1_555
N4 C37 1_555 1_555
H38 N4 1_555 1_555
C70 C57 1_555 1_555
H39 C70 1_555 1_555
C71 C59 1_555 1_555
H40 C71 1_555 1_555
C72 C51 1_555 1_555
H41 C72 1_555 1_555
C73 C34 1_555 1_555
H42 C73 1_555 1_555
C74 C73 1_555 1_555
H43 C74 1_555 1_555
C75 C33 1_555 1_555
H44 C75 1_555 1_555
F7 C41 1_555 1_555
C76 C62 1_555 1_555
H45 C76 1_555 1_555
C77 H46 1_555 1_555
C78 C66 1_555 1_555
H47 C78 1_555 1_555
C79 H48 1_555 1_555
C80 C68 1_555 1_555
H49 C80 1_555 1_555
C81 C79 1_555 1_555
H50 C81 1_555 1_555
C82 C69 1_555 1_555
H51 C82 1_555 1_555
C83 C60 1_555 1_555
H52 C83 1_555 1_555
F8 C43 1_555 1_555
F9 C84 1_555 1_555
C84 C40 1_555 1_555
C85 C36 1_555 1_555
H53 C85 1_555 1_555
F10 C86 1_555 1_555
C86 C42 1_555 1_555
C87 C83 1_555 1_555
H54 C87 1_555 1_555
C88 S2 1_555 1_555
C89 C37 1_555 1_555
H55 C89 1_555 1_555
C90 C38 1_555 1_555
H56 C90 1_555 1_555
Cl1 O1 1_555 1_555
O2 Cl1 1_555 1_555
O3 Cl1 1_555 1_555
O4 Cl1 1_555 1_555
Cl2 O5 1_555 1_555
O6 Cl2 1_555 1_555
O7 Cl2 1_555 1_555
O8 Cl2 1_555 1_555
C91 H57 1_555 1_555
C92 C94 1_555 1_555
C93 C91 1_555 1_555
H58 C93 1_555 1_555
C94 C91 1_555 1_555
H59 C94 1_555 1_555
C95 C93 1_555 1_555
H60 C95 1_555 1_555
C96 C92 1_555 1_555
H61 C96 1_555 1_555
C97 H62 1_555 1_555
C98 C97 1_555 1_555
H63 C98 1_555 1_555
C99 H64 1_555 1_555
C100 C97 1_555 1_555
C101 C99 1_555 1_555
H65 C101 1_555 1_555
C102 C98 1_555 1_555
H66 C102 1_555 1_555
C103 H67 1_555 1_555
C104 C103 1_555 1_555
C105 C107 1_555 1_555
C106 C92 1_555 1_555
C107 C103 1_555 1_555
H68 C107 1_555 1_555
C108 C105 1_555 1_555
C109 H69 1_555 1_555
C110 H70 1_555 1_555
C111 C108 1_555 1_555
C112 C110 1_555 1_555
H71 C112 1_555 1_555
C113 C109 1_555 1_555
H72 C113 1_555 1_555
C114 C109 1_555 1_555
H73 C114 1_555 1_555
C115 H74 1_555 1_555
C116 C115 1_555 1_555
C117 C115 1_555 1_555
H75 C117 1_555 1_555
C118 C108 1_555 1_555
S3 C104 1_555 1_555
N5 C116 1_555 1_555
H76 N5 1_555 1_555
C119 C121 1_555 1_555
C120 C121 1_555 1_555
C121 C124 1_555 1_555
C122 C123 1_555 1_555
C123 C125 1_555 1_555
C124 C122 1_555 1_555
C125 C119 1_555 1_555
F11 C119 1_555 1_555
F12 C124 1_555 1_555
F13 C125 1_555 1_555
F14 C123 1_555 1_555
F15 C122 1_555 1_555
C126 C120 1_555 1_555
C127 C129 1_555 1_555
C128 C126 1_555 1_555
H77 C128 1_555 1_555
C129 C128 1_555 1_555
H78 C129 1_555 1_555
C130 C106 1_555 1_555
C131 C120 1_555 1_555
C132 C131 1_555 1_555
H79 C132 1_555 1_555
C133 C130 1_555 1_555
H80 C133 1_555 1_555
N6 C130 1_555 1_555
H81 N6 1_555 1_555
C134 C136 1_555 1_555
C135 C127 1_555 1_555
C136 C137 1_555 1_555
C137 C140 1_555 1_555
C138 C139 1_555 1_555
C139 H82 1_555 1_555
C140 C139 1_555 1_555
H83 C140 1_555 1_555
C141 H84 1_555 1_555
C142 C108 1_555 1_555
C143 H85 1_555 1_555
C144 C135 1_555 1_555
C145 C144 1_555 1_555
H86 C145 1_555 1_555
N7 C126 1_555 1_555
H87 N7 1_555 1_555
C146 H88 1_555 1_555
C147 C145 1_555 1_555
H89 C147 1_555 1_555
C148 C143 1_555 1_555
H90 C148 1_555 1_555
C149 C142 1_555 1_555
H91 C149 1_555 1_555
C150 C141 1_555 1_555
H92 C150 1_555 1_555
C151 C149 1_555 1_555
H93 C151 1_555 1_555
C152 C150 1_555 1_555
H94 C152 1_555 1_555
C153 C154 1_555 1_555
C154 C155 1_555 1_555
C155 F16 1_555 1_555
C156 C116 1_555 1_555
F17 C153 1_555 1_555
C157 C158 1_555 1_555
C158 C155 1_555 1_555
C159 C153 1_555 1_555
F18 C158 1_555 1_555
C160 H95 1_555 1_555
C161 C160 1_555 1_555
H96 C161 1_555 1_555
C162 C136 1_555 1_555
C163 H97 1_555 1_555
C164 C161 1_555 1_555
H98 C164 1_555 1_555
C165 C162 1_555 1_555
H99 C165 1_555 1_555
C166 C135 1_555 1_555
C167 C135 1_555 1_555
C168 H100 1_555 1_555
C169 C167 1_555 1_555
H101 C169 1_555 1_555
C170 C167 1_555 1_555
H102 C170 1_555 1_555
C171 C168 1_555 1_555
H103 C171 1_555 1_555
C172 C170 1_555 1_555
H104 C172 1_555 1_555
C173 H105 1_555 1_555
C174 H106 1_555 1_555
C175 C136 1_555 1_555
N8 C137 1_555 1_555
H107 N8 1_555 1_555
C176 H108 1_555 1_555
C177 C174 1_555 1_555
H109 C177 1_555 1_555
C178 C173 1_555 1_555
H110 C178 1_555 1_555
C179 C134 1_555 1_555
H111 C179 1_555 1_555
F19 C157 1_555 1_555
F20 C159 1_555 1_555
C180 C166 1_555 1_555
H112 C180 1_555 1_555
S4 C134 1_555 1_555
O9 Cl3 1_555 1_555
O10 Cl3 1_555 1_555
O11 Cl3 1_555 1_555
O12 Cl3 1_555 1_555
O13 Cl4 1_555 1_555
O14 Cl4 1_555 1_555
O15 Cl4 1_555 1_555
O16 Cl4 1_555 1_555
Cl5 C181 1_555 1_555
C181 H113 1_555 1_555
Cl6 C181 1_555 1_555
Cl7 C181 1_555 1_555
C1 C14 1_555 1_555
C4 C6 1_555 1_555
C10 C11 1_555 1_555
C12 C14 1_555 1_555
C13 C15 1_555 1_555
C16 C17 1_555 1_555
C21 C23 1_555 1_555
C25 C26 1_555 1_555
C27 N1 1_555 1_555
C27 C61 1_555 1_555
C29 C35 1_555 1_555
C30 N2 1_555 1_555
C32 C35 1_555 1_555
C38 N4 1_555 1_555
C44 C61 1_555 1_555
C47 C88 1_555 1_555
C48 N3 1_555 1_555
C51 C53 1_555 1_555
C54 C72 1_555 1_555
C56 C57 1_555 1_555
C62 C63 1_555 1_555
C64 C65 1_555 1_555
C64 C76 1_555 1_555
C66 C67 1_555 1_555
C70 C71 1_555 1_555
C74 C75 1_555 1_555
C77 C78 1_555 1_555
C77 C85 1_555 1_555
C79 C80 1_555 1_555
C81 C82 1_555 1_555
C84 C86 1_555 1_555
C87 C88 1_555 1_555
C89 C90 1_555 1_555
C95 C96 1_555 1_555
C99 C102 1_555 1_555
C100 C101 1_555 1_555
C100 C106 1_555 1_555
C104 C106 1_555 1_555
C105 S3 1_555 1_555
C110 C111 1_555 1_555
C111 C113 1_555 1_555
C112 C114 1_555 1_555
C117 C118 1_555 1_555
C118 N5 1_555 1_555
C127 N7 1_555 1_555
C131 N6 1_555 1_555
C132 C133 1_555 1_555
C138 C156 1_555 1_555
C138 N8 1_555 1_555
C141 C142 1_555 1_555
C143 C144 1_555 1_555
C146 C147 1_555 1_555
C146 C148 1_555 1_555
C151 C152 1_555 1_555
C154 C156 1_555 1_555
C157 C159 1_555 1_555
C160 C162 1_555 1_555
C163 C164 1_555 1_555
C163 C165 1_555 1_555
C166 S4 1_555 1_555
C168 C169 1_555 1_555
C171 C172 1_555 1_555
C173 C175 1_555 1_555
C174 C175 1_555 1_555
C176 C177 1_555 1_555
C176 C178 1_555 1_555
C179 C180 1_555 1_555

#END
