
#######################################################################
#
#                 Cambridge Crystallographic Data Centre
#                                CCDC 
#
#######################################################################
#
# If this CIF has been generated from an entry in the Cambridge 
# Structural Database, then it will include bibliographic, chemical, 
# crystal, experimental, refinement or atomic coordinate data resulting 
# from the CCDC's data processing and validation procedures.
#
#######################################################################

data_DIJSUM
_chemical_formula_moiety         'C90 H54 F10 N4 S2'
_chemical_name_systematic        
'7,22-bis(pentafluorophenyl)-2,2,12,12,17,17,27,27-octaphenyl-31,34-dithia-32,33,35,36-tetraazaheptacyclo[26.2.1.1^3,6^.1^8,11^.1^13,16^.1^18,21^.1^23,26^]hexatriaconta-1(30),3(36),4,6,8,10,13,15,18(33),19,21,23,25,28-tetradecaene unknown solvate'
_symmetry_cell_setting           triclinic
_symmetry_space_group_name_H-M   'P -1'
_symmetry_Int_Tables_number      2
_space_group_name_Hall           '-P 1'
loop_
_symmetry_equiv_pos_site_id
_symmetry_equiv_pos_as_xyz
1 x,y,z
2 -x,-y,-z
_cell_length_a                   11.812(5)
_cell_length_b                   12.254(5)
_cell_length_c                   16.871(5)
_cell_angle_alpha                86.203(5)
_cell_angle_beta                 72.152(5)
_cell_angle_gamma                63.842(5)
_cell_volume                     2079.59
_exptl_crystal_colour            yellow
_cell_formula_units_Z            1
loop_
_atom_site_label
_atom_site_type_symbol
_atom_site_fract_x
_atom_site_fract_y
_atom_site_fract_z
S1 S 0.19057(9) 0.70061(8) 0.01172(6)
F1 F 0.3875(2) 0.1355(2) -0.24260(15)
N1 N 0.1255(3) 0.5213(3) -0.21334(18)
N2 N 0.0090(3) 0.6103(3) 0.22832(17)
H1 H 0.0180 0.5576 0.1928
F2 F 0.3192(3) 0.3288(3) -0.48418(15)
F3 F 0.6156(3) -0.0432(3) -0.3362(2)
C1 C 0.1867(3) 0.4979(3) 0.0487(2)
H2 H 0.1941 0.4271 0.0750
C2 C -0.1364(4) 0.7741(3) -0.0204(2)
H3 H -0.0976 0.7624 0.0218
C3 C 0.0938(3) 0.6944(3) -0.1260(2)
C4 C 0.2990(3) 0.6839(3) 0.1531(2)
C5 C -0.1172(3) 0.7585(3) -0.1646(2)
H4 H -0.0655 0.7389 -0.2204
C6 C 0.1425(3) 0.6367(3) -0.0520(2)
C7 C 0.2231(3) 0.3387(3) -0.3059(2)
C8 C 0.4325(4) 0.6443(3) 0.1417(2)
H5 H 0.4876 0.5613 0.1391
C9 C 0.1738(3) 0.5884(3) -0.1924(2)
C10 C -0.1037(3) 0.6719(3) 0.2929(2)
C11 C 0.2206(4) 0.8082(3) 0.1552(2)
H6 H 0.1307 0.8362 0.1623
C12 C 0.1046(3) 0.6429(3) 0.2275(2)
C13 C -0.2536(4) 0.8059(3) -0.1440(3)
H7 H -0.2928 0.8147 -0.1856
C14 C 0.3531(4) 0.4420(3) -0.2795(2)
H8 H 0.4386 0.3919 -0.3129
C15 C 0.2383(3) 0.5928(3) 0.1588(2)
C16 C -0.0568(3) 0.7399(3) -0.1032(2)
C17 C 0.4852(4) 0.7276(3) 0.1339(3)
H9 H 0.5749 0.7002 0.1270
C18 C -0.0756(4) 0.7444(3) 0.3358(2)
H10 H -0.1339 0.7969 0.3831
C19 C 0.1611(4) 0.8190(4) -0.2416(2)
H11 H 0.1762 0.7592 -0.2800
F4 F 0.6965(3) -0.0356(3) -0.5044(2)
C20 C 0.3309(3) 0.4662(3) 0.1782(2)
C21 C 0.2121(3) 0.5843(3) 0.0765(2)
C22 C 0.5234(4) 0.2716(4) 0.1338(3)
H12 H 0.5935 0.2169 0.0910
C23 C 0.1208(3) 0.8043(3) -0.1569(2)
C24 C 0.1482(3) 0.5272(3) -0.0242(2)
H13 H 0.1285 0.4769 -0.0509
C25 C 0.0934(4) 0.8986(3) -0.1022(3)
H14 H 0.0594 0.8950 -0.0451
C26 C 0.3465(4) 0.2388(4) -0.3606(2)
C27 C 0.4361(4) 0.3835(3) 0.1151(3)
H15 H 0.4484 0.4030 0.0599
C28 C 0.0548(4) 0.7255(3) 0.2962(2)
H16 H 0.0998 0.7614 0.3127
C29 C 0.3164(3) 0.5418(3) -0.2323(2)
H17 H 0.3706 0.5750 -0.2259
C30 C 0.2362(3) 0.4259(3) -0.2697(2)
C31 C -0.3316(4) 0.8401(3) -0.0619(3)
H18 H -0.4234 0.8730 -0.0482
C32 C -0.2733(4) 0.8254(3) -0.0004(3)
H19 H -0.3260 0.8500 0.0550
C33 C 0.2715(4) 0.8907(3) 0.1472(2)
H20 H 0.2163 0.9736 0.1490
F5 F 0.5459(3) 0.1492(3) -0.57732(17)
C34 C 0.1157(4) 0.9979(4) -0.1308(3)
H21 H 0.1009 1.0581 -0.0929
C35 C 0.4043(4) 0.8513(4) 0.1365(3)
H22 H 0.4393 0.9071 0.1310
C36 C 0.1794(4) 0.9203(4) -0.2702(3)
H23 H 0.2052 0.9283 -0.3273
C37 C 0.4243(4) 0.1412(4) -0.3253(3)
C38 C 0.5066(4) 0.2415(4) 0.2157(3)
H24 H 0.5651 0.1669 0.2283
C39 C 0.4037(4) 0.3221(4) 0.2774(3)
H25 H 0.3912 0.3018 0.3324
C40 C 0.3170(4) 0.4340(4) 0.2596(3)
H26 H 0.2482 0.4884 0.3031
C41 C 0.1599(4) 1.0080(4) -0.2154(3)
H27 H 0.1761 1.0742 -0.2348
C42 C 0.5404(4) 0.0496(4) -0.3723(3)
C43 C 0.5056(4) 0.1477(5) -0.4938(3)
C44 C 0.5808(4) 0.0548(5) -0.4576(3)
C45 C 0.3910(4) 0.2384(4) -0.4463(3)
S1A S -0.19057(9) 0.29939(8) -0.01172(6)
F1A F -0.3875(2) 0.8645(2) 0.24260(15)
N1A N -0.1255(3) 0.4787(3) 0.21334(18)
N2A N -0.0090(3) 0.3897(3) -0.22832(17)
H1A H -0.0180 0.4424 -0.1928
F2A F -0.3192(3) 0.6712(3) 0.48418(15)
F3A F -0.6156(3) 1.0432(3) 0.3362(2)
C1A C -0.1867(3) 0.5021(3) -0.0487(2)
H2A H -0.1941 0.5729 -0.0750
C2A C 0.1364(4) 0.2259(3) 0.0204(2)
H3A H 0.0976 0.2376 -0.0218
C3A C -0.0938(3) 0.3056(3) 0.1260(2)
C4A C -0.2990(3) 0.3161(3) -0.1531(2)
C5A C 0.1172(3) 0.2415(3) 0.1646(2)
H4A H 0.0655 0.2611 0.2204
C6A C -0.1425(3) 0.3633(3) 0.0520(2)
C7A C -0.2231(3) 0.6613(3) 0.3059(2)
C8A C -0.4325(4) 0.3557(3) -0.1417(2)
H5A H -0.4876 0.4387 -0.1391
C9A C -0.1738(3) 0.4116(3) 0.1924(2)
C10A C 0.1037(3) 0.3281(3) -0.2929(2)
C11A C -0.2206(4) 0.1918(3) -0.1552(2)
H6A H -0.1307 0.1638 -0.1623
C12A C -0.1046(3) 0.3571(3) -0.2275(2)
C13A C 0.2536(4) 0.1941(3) 0.1440(3)
H7A H 0.2928 0.1853 0.1856
C14A C -0.3531(4) 0.5580(3) 0.2795(2)
H8A H -0.4386 0.6081 0.3129
C15A C -0.2383(3) 0.4072(3) -0.1588(2)
C16A C 0.0568(3) 0.2601(3) 0.1032(2)
C17A C -0.4852(4) 0.2724(3) -0.1339(3)
H9A H -0.5749 0.2998 -0.1270
C18A C 0.0756(4) 0.2556(3) -0.3358(2)
H10A H 0.1339 0.2031 -0.3831
C19A C -0.1611(4) 0.1810(4) 0.2416(2)
H11A H -0.1762 0.2408 0.2800
F4A F -0.6965(3) 1.0356(3) 0.5044(2)
C20A C -0.3309(3) 0.5338(3) -0.1782(2)
C21A C -0.2121(3) 0.4157(3) -0.0765(2)
C22A C -0.5234(4) 0.7284(4) -0.1338(3)
H12A H -0.5935 0.7831 -0.0910
C23A C -0.1208(3) 0.1957(3) 0.1569(2)
C24A C -0.1482(3) 0.4728(3) 0.0242(2)
H13A H -0.1285 0.5231 0.0509
C25A C -0.0934(4) 0.1014(3) 0.1022(3)
H14A H -0.0594 0.1050 0.0451
C26A C -0.3465(4) 0.7612(4) 0.3606(2)
C27A C -0.4361(4) 0.6165(3) -0.1151(3)
H15A H -0.4484 0.5970 -0.0599
C28A C -0.0548(4) 0.2745(3) -0.2962(2)
H16A H -0.0998 0.2386 -0.3127
C29A C -0.3164(3) 0.4582(3) 0.2323(2)
H17A H -0.3706 0.4250 0.2259
C30A C -0.2362(3) 0.5741(3) 0.2697(2)
C31A C 0.3316(4) 0.1599(3) 0.0619(3)
H18A H 0.4234 0.1270 0.0482
C32A C 0.2733(4) 0.1746(3) 0.0004(3)
H19A H 0.3260 0.1500 -0.0550
C33A C -0.2715(4) 0.1093(3) -0.1472(2)
H20A H -0.2163 0.0264 -0.1490
F5A F -0.5459(3) 0.8508(3) 0.57732(17)
C34A C -0.1157(4) 0.0021(4) 0.1308(3)
H21A H -0.1009 -0.0581 0.0929
C35A C -0.4043(4) 0.1487(4) -0.1365(3)
H22A H -0.4393 0.0929 -0.1310
C36A C -0.1794(4) 0.0797(4) 0.2702(3)
H23A H -0.2052 0.0717 0.3273
C37A C -0.4243(4) 0.8588(4) 0.3253(3)
C38A C -0.5066(4) 0.7585(4) -0.2157(3)
H24A H -0.5651 0.8331 -0.2283
C39A C -0.4037(4) 0.6779(4) -0.2774(3)
H25A H -0.3912 0.6982 -0.3324
C40A C -0.3170(4) 0.5660(4) -0.2596(3)
H26A H -0.2482 0.5116 -0.3031
C41A C -0.1599(4) -0.0080(4) 0.2154(3)
H27A H -0.1761 -0.0742 0.2348
C42A C -0.5404(4) 0.9504(4) 0.3723(3)
C43A C -0.5056(4) 0.8523(5) 0.4938(3)
C44A C -0.5808(4) 0.9452(5) 0.4576(3)
C45A C -0.3910(4) 0.7616(4) 0.4463(3)
loop_
_geom_bond_atom_site_label_1
_geom_bond_atom_site_label_2
_geom_bond_site_symmetry_1
_geom_bond_site_symmetry_2
S1 C6 1_555 1_555
F1 C37 1_555 1_555
N1 C9 1_555 1_555
N2 H1 1_555 1_555
F2 C45 1_555 1_555
F3 C42 1_555 1_555
C1 H2 1_555 1_555
C2 H3 1_555 1_555
C3 C6 1_555 1_555
C4 C8 1_555 1_555
C5 H4 1_555 1_555
C6 C24 1_555 1_555
C7 C26 1_555 1_555
C8 H5 1_555 1_555
C9 C3 1_555 1_555
C10 N2 1_555 1_555
C11 C4 1_555 1_555
H6 C11 1_555 1_555
C12 N2 1_555 1_555
C13 C5 1_555 1_555
H7 C13 1_555 1_555
C14 H8 1_555 1_555
C15 C4 1_555 1_555
C16 C2 1_555 1_555
C17 C8 1_555 1_555
H9 C17 1_555 1_555
C18 C10 1_555 1_555
H10 C18 1_555 1_555
C19 H11 1_555 1_555
F4 C44 1_555 1_555
C20 C15 1_555 1_555
C21 S1 1_555 1_555
C22 H12 1_555 1_555
C23 C3 1_555 1_555
C24 C1 1_555 1_555
H13 C24 1_555 1_555
C25 C23 1_555 1_555
H14 C25 1_555 1_555
C26 C37 1_555 1_555
C27 C20 1_555 1_555
H15 C27 1_555 1_555
C28 C12 1_555 1_555
H16 C28 1_555 1_555
C29 C9 1_555 1_555
H17 C29 1_555 1_555
C30 N1 1_555 1_555
C31 C13 1_555 1_555
H18 C31 1_555 1_555
C32 C2 1_555 1_555
H19 C32 1_555 1_555
C33 C11 1_555 1_555
H20 C33 1_555 1_555
F5 C43 1_555 1_555
C34 C25 1_555 1_555
H21 C34 1_555 1_555
C35 C17 1_555 1_555
H22 C35 1_555 1_555
C36 C19 1_555 1_555
H23 C36 1_555 1_555
C37 C42 1_555 1_555
C38 C22 1_555 1_555
H24 C38 1_555 1_555
C39 C38 1_555 1_555
H25 C39 1_555 1_555
C40 C20 1_555 1_555
H26 C40 1_555 1_555
C41 C34 1_555 1_555
H27 C41 1_555 1_555
C42 C44 1_555 1_555
C43 C44 1_555 1_555
C45 C26 1_555 1_555
S1A C6A 1_555 1_555
F1A C37A 1_555 1_555
N1A C9A 1_555 1_555
N2A H1A 1_555 1_555
F2A C45A 1_555 1_555
F3A C42A 1_555 1_555
C1A H2A 1_555 1_555
C2A H3A 1_555 1_555
C3A C6A 1_555 1_555
C4A C8A 1_555 1_555
C5A H4A 1_555 1_555
C6A C24A 1_555 1_555
C7A C10 1_555 1_555
C8A H5A 1_555 1_555
C9A C3A 1_555 1_555
C10A C7 1_555 1_555
C11A C4A 1_555 1_555
H6A C11A 1_555 1_555
C12A N2A 1_555 1_555
C13A C5A 1_555 1_555
H7A C13A 1_555 1_555
C14A H8A 1_555 1_555
C15A C4A 1_555 1_555
C16A C2A 1_555 1_555
C17A C8A 1_555 1_555
H9A C17A 1_555 1_555
C18A C10A 1_555 1_555
H10A C18A 1_555 1_555
C19A H11A 1_555 1_555
F4A C44A 1_555 1_555
C20A C15A 1_555 1_555
C21A S1A 1_555 1_555
C22A H12A 1_555 1_555
C23A C3A 1_555 1_555
C24A C1A 1_555 1_555
H13A C24A 1_555 1_555
C25A C23A 1_555 1_555
H14A C25A 1_555 1_555
C26A C7A 1_555 1_555
C27A C20A 1_555 1_555
H15A C27A 1_555 1_555
C28A C12A 1_555 1_555
H16A C28A 1_555 1_555
C29A C9A 1_555 1_555
H17A C29A 1_555 1_555
C30A N1A 1_555 1_555
C31A C13A 1_555 1_555
H18A C31A 1_555 1_555
C32A C2A 1_555 1_555
H19A C32A 1_555 1_555
C33A C11A 1_555 1_555
H20A C33A 1_555 1_555
F5A C43A 1_555 1_555
C34A C25A 1_555 1_555
H21A C34A 1_555 1_555
C35A C17A 1_555 1_555
H22A C35A 1_555 1_555
C36A C19A 1_555 1_555
H23A C36A 1_555 1_555
C37A C26A 1_555 1_555
C38A C22A 1_555 1_555
H24A C38A 1_555 1_555
C39A C38A 1_555 1_555
H25A C39A 1_555 1_555
C40A C20A 1_555 1_555
H26A C40A 1_555 1_555
C41A C34A 1_555 1_555
H27A C41A 1_555 1_555
C42A C37A 1_555 1_555
C43A C44A 1_555 1_555
C44A C42A 1_555 1_555
C45A C26A 1_555 1_555
C1 C21 1_555 1_555
C3 C16 1_555 1_555
C5 C16 1_555 1_555
C7 C30 1_555 1_555
C12 C15 1_555 1_555
C14 C29 1_555 1_555
C14 C30 1_555 1_555
C15 C21 1_555 1_555
C18 C28 1_555 1_555
C19 C23 1_555 1_555
C22 C27 1_555 1_555
C31 C32 1_555 1_555
C33 C35 1_555 1_555
C36 C41 1_555 1_555
C39 C40 1_555 1_555
C43 C45 1_555 1_555
N2A C10A 1_555 1_555
C1A C21A 1_555 1_555
C3A C16A 1_555 1_555
C5A C16A 1_555 1_555
C7A C30A 1_555 1_555
C12A C15A 1_555 1_555
C14A C29A 1_555 1_555
C14A C30A 1_555 1_555
C15A C21A 1_555 1_555
C18A C28A 1_555 1_555
C19A C23A 1_555 1_555
C22A C27A 1_555 1_555
C31A C32A 1_555 1_555
C33A C35A 1_555 1_555
C36A C41A 1_555 1_555
C39A C40A 1_555 1_555
C43A C45A 1_555 1_555

#END
