
#######################################################################
#
#                 Cambridge Crystallographic Data Centre
#                                CCDC 
#
#######################################################################
#
# If this CIF has been generated from an entry in the Cambridge 
# Structural Database, then it will include bibliographic, chemical, 
# crystal, experimental, refinement or atomic coordinate data resulting 
# from the CCDC's data processing and validation procedures.
#
#######################################################################

data_DIJTOG
_chemical_formula_moiety         'C25 H28 N2 O5,0.13(H2 O1)'
_chemical_name_systematic        
'1,4,10,13-Tetramethoxy-9,16-dimethyl-(6S*,9R*,15S*)-5,6,9,15-tetrahydro-6,15-iminoisoquino[3,2-b]-3-benzazocine-7-one hydrate'
_chemical_properties_biological  
'weak antitumour activity against A549 lung, HeLa cervical, SAS oral, SKHep1 hepatoma and PC-3 prostate carcinoma cell lines'
_symmetry_cell_setting           monoclinic
_symmetry_space_group_name_H-M   'C 2/c'
_symmetry_Int_Tables_number      15
_space_group_name_Hall           '-C 2yn'
loop_
_symmetry_equiv_pos_site_id
_symmetry_equiv_pos_as_xyz
1 x,y,z
2 1/2+x,1/2+y,z
3 -x,y,1/2-z
4 1/2-x,1/2+y,1/2-z
5 -x,-y,-z
6 1/2-x,1/2-y,-z
7 x,-y,1/2+z
8 1/2+x,1/2-y,1/2+z
_cell_length_a                   21.555(4)
_cell_length_b                   10.048(2)
_cell_length_c                   20.986(4)
_cell_angle_alpha                90
_cell_angle_beta                 90.47(3)
_cell_angle_gamma                90
_cell_volume                     4545.09
_exptl_crystal_colour            colorless
_exptl_crystal_description       prism
_chemical_melting_point          '213-214 deg.C'
_cell_formula_units_Z            8
loop_
_atom_site_label
_atom_site_type_symbol
_atom_site_fract_x
_atom_site_fract_y
_atom_site_fract_z
N1 N 0.4399(2) 0.7755(5) 0.0162(2)
N2 N 0.3483(2) 0.7706(4) 0.1108(2)
O1 O 0.41567(19) 0.3713(4) 0.0480(2)
O2 O 0.5824(2) 0.6637(5) 0.1920(2)
O3 O 0.3900(2) 0.9558(4) 0.1558(2)
O4 O 0.2021(2) 0.7794(4) 0.2384(2)
O5 O 0.2246(2) 0.3600(4) 0.0699(2)
C1 C 0.4589(3) 0.4355(6) 0.0861(3)
C2 C 0.4983(3) 0.3709(6) 0.1276(3)
H1 H 0.4969 0.2787 0.1314
C3 C 0.5399(3) 0.4444(7) 0.1635(3)
H2 H 0.5668 0.4008 0.1914
C4 C 0.5423(3) 0.5800(6) 0.1588(3)
C5 C 0.5054(3) 0.7964(6) 0.1112(3)
H3 H 0.5434 0.8214 0.0898
H4 H 0.5066 0.8345 0.1537
C6 C 0.4505(3) 0.8532(5) 0.0748(3)
H5 H 0.4616 0.9438 0.0619
C7 C 0.3941(3) 0.8636(6) 0.1177(3)
C8 C 0.2872(3) 0.7999(5) 0.1414(3)
H6 H 0.2950 0.8413 0.1829
C9 C 0.2051(3) 0.6693(6) 0.1990(3)
C10 C 0.1669(3) 0.5597(6) 0.2049(3)
H7 H 0.1376 0.5564 0.2371
C11 C 0.1723(3) 0.4545(6) 0.1624(3)
H8 H 0.1466 0.3806 0.1662
C12 C 0.2157(3) 0.4595(6) 0.1146(3)
C13 C 0.3071(2) 0.5708(5) 0.0653(3)
H9 H 0.3082 0.5072 0.0331
C14 C 0.3531(2) 0.6600(5) 0.0695(2)
C15 C 0.4147(2) 0.6463(5) 0.0356(2)
H10 H 0.4084 0.5915 -0.0026
C16 C 0.4604(3) 0.5748(5) 0.0801(3)
C17 C 0.5024(3) 0.6472(6) 0.1163(3)
C18 C 0.2496(3) 0.6764(5) 0.1511(3)
C19 C 0.2559(3) 0.5707(5) 0.1092(3)
C20 C 0.4125(3) 0.2300(6) 0.0539(3)
H11 H 0.4489 0.1908 0.0357
H12 H 0.3763 0.1978 0.0318
H13 H 0.4101 0.2063 0.0981
C21 C 0.6183(4) 0.6040(9) 0.2420(3)
H14 H 0.5912 0.5605 0.2714
H15 H 0.6417 0.6716 0.2639
H16 H 0.6463 0.5399 0.2241
C22 C 0.1646(3) 0.7699(7) 0.2935(3)
H17 H 0.1217 0.7685 0.2811
H18 H 0.1723 0.8453 0.3206
H19 H 0.1746 0.6896 0.3162
C23 C 0.2004(4) 0.2331(6) 0.0825(4)
H20 H 0.2141 0.2043 0.1239
H21 H 0.2148 0.1715 0.0509
H22 H 0.1559 0.2367 0.0813
C24 C 0.3996(3) 0.8438(6) -0.0295(3)
H23 H 0.3935 0.7886 -0.0663
H24 H 0.4184 0.9263 -0.0420
H25 H 0.3602 0.8615 -0.0101
C25 C 0.2517(3) 0.8986(6) 0.0994(4)
H26 H 0.2457 0.8611 0.0577
H27 H 0.2749 0.9797 0.0961
H28 H 0.2120 0.9169 0.1180
O6 O 0.0000 0.579(2) 0.2500
loop_
_geom_bond_atom_site_label_1
_geom_bond_atom_site_label_2
_geom_bond_site_symmetry_1
_geom_bond_site_symmetry_2
N1 C6 1_555 1_555
N2 C7 1_555 1_555
O1 C1 1_555 1_555
O2 C4 1_555 1_555
O3 C7 1_555 1_555
O4 C9 1_555 1_555
O5 C12 1_555 1_555
C1 C2 1_555 1_555
C2 H1 1_555 1_555
C3 C2 1_555 1_555
H2 C3 1_555 1_555
C4 C3 1_555 1_555
C5 H3 1_555 1_555
H4 C5 1_555 1_555
C6 C5 1_555 1_555
H5 C6 1_555 1_555
C7 C6 1_555 1_555
C8 N2 1_555 1_555
H6 C8 1_555 1_555
C9 C10 1_555 1_555
C10 H7 1_555 1_555
C11 C10 1_555 1_555
H8 C11 1_555 1_555
C12 C11 1_555 1_555
C13 H9 1_555 1_555
C14 N2 1_555 1_555
C15 N1 1_555 1_555
H10 C15 1_555 1_555
C16 C1 1_555 1_555
C17 C4 1_555 1_555
C18 C8 1_555 1_555
C19 C12 1_555 1_555
C20 O1 1_555 1_555
H11 C20 1_555 1_555
H12 C20 1_555 1_555
H13 C20 1_555 1_555
C21 O2 1_555 1_555
H14 C21 1_555 1_555
H15 C21 1_555 1_555
H16 C21 1_555 1_555
C22 O4 1_555 1_555
H17 C22 1_555 1_555
H18 C22 1_555 1_555
H19 C22 1_555 1_555
C23 O5 1_555 1_555
H20 C23 1_555 1_555
H21 C23 1_555 1_555
H22 C23 1_555 1_555
C24 N1 1_555 1_555
H23 C24 1_555 1_555
H24 C24 1_555 1_555
H25 C24 1_555 1_555
C25 C8 1_555 1_555
H26 C25 1_555 1_555
H27 C25 1_555 1_555
H28 C25 1_555 1_555
C5 C17 1_555 1_555
C9 C18 1_555 1_555
C13 C14 1_555 1_555
C13 C19 1_555 1_555
C14 C15 1_555 1_555
C15 C16 1_555 1_555
C16 C17 1_555 1_555
C18 C19 1_555 1_555

#END
