
#######################################################################
#
#                 Cambridge Crystallographic Data Centre
#                                CCDC 
#
#######################################################################
#
# If this CIF has been generated from an entry in the Cambridge 
# Structural Database, then it will include bibliographic, chemical, 
# crystal, experimental, refinement or atomic coordinate data resulting 
# from the CCDC's data processing and validation procedures.
#
#######################################################################

data_DIJYOK
_chemical_formula_moiety         'C26 H42 N2 2+,C3 H8 O1,2(Br1 1-),H2 O1'
_chemical_name_systematic        
"N,N'-(5-t-Butyl-1,3-phenylene-bis(methylene))-bis(quinuclidinium) dibromide 1-propanol clathrate monohydrate"
_symmetry_cell_setting           orthorhombic
_symmetry_space_group_name_H-M   'P n m a'
_symmetry_Int_Tables_number      62
_space_group_name_Hall           '-P 2ac 2n'
loop_
_symmetry_equiv_pos_site_id
_symmetry_equiv_pos_as_xyz
1 x,y,z
2 1/2-x,1/2+y,1/2+z
3 x,1/2-y,z
4 1/2-x,-y,1/2+z
5 -x,-y,-z
6 1/2+x,1/2-y,1/2-z
7 -x,1/2+y,-z
8 1/2+x,y,1/2-z
_cell_length_a                   14.696(3)
_cell_length_b                   16.276(5)
_cell_length_c                   12.659(3)
_cell_angle_alpha                90
_cell_angle_beta                 90
_cell_angle_gamma                90
_cell_volume                     3027.93
_exptl_crystal_colour            colorless
_cell_formula_units_Z            4
loop_
_atom_site_label
_atom_site_type_symbol
_atom_site_fract_x
_atom_site_fract_y
_atom_site_fract_z
C1 C 0.29306(53) 0.17464(41) 0.34831(48)
C2 C 0.25618(59) 0.25000 0.40505(62)
C3 C 0.15153(68) 0.25000 0.39860(81)
C4 C 0.28093(46) 0.25000 0.52141(62)
C5 C 0.28977(32) 0.17654(35) 0.57928(40)
C6 C 0.30721(32) 0.17587(34) 0.68626(40)
C7 C 0.31490(49) 0.25000 0.74016(60)
C8 C 0.31276(33) 0.09465(31) 0.74335(43)
N1 N 0.40883(26) 0.05978(27) 0.75159(32)
C9 C 0.45285(35) 0.05182(38) 0.64429(42)
C10 C 0.54173(39) 0.00445(41) 0.65377(50)
C11 C 0.56657(39) -0.00643(37) 0.76930(47)
C12 C 0.56537(39) 0.07842(39) 0.82239(53)
C13 C 0.46792(36) 0.11141(35) 0.82240(48)
C14 C 0.40047(38) -0.02524(34) 0.80017(45)
C15 C 0.49499(38) -0.05950(39) 0.82284(50)
H1 H 0.3664(5) 0.1745(4) 0.3527(5)
H2 H 0.2722(5) 0.1761(4) 0.2665(5)
H3 H 0.2667(5) 0.1198(4) 0.3854(5)
H4 H 0.1306 0.2500 0.3177
H5 H 0.1262 0.3043 0.4382
H6 H 0.2826(3) 0.1187(3) 0.5384(4)
H7 H 0.3309 0.2500 0.8235
H8 H 0.2865(3) 0.1030(3) 0.8223(4)
H9 H 0.2710(3) 0.0508(3) 0.7016(4)
H10 H 0.4075(3) 0.0194(4) 0.5917(4)
H11 H 0.4665(3) 0.1123(4) 0.6130(4)
H12 H 0.5951(4) 0.0380(4) 0.6142(5)
H13 H 0.5340(4) -0.0551(4) 0.6174(5)
H14 H 0.6328(4) -0.0348(4) 0.7758(5)
H15 H 0.6089(4) 0.1200(4) 0.7793(5)
H16 H 0.5894(4) 0.0730(4) 0.9027(5)
H17 H 0.4680(4) 0.1740(3) 0.7942(5)
H18 H 0.4412(4) 0.1097(3) 0.9019(5)
H19 H 0.3625(4) -0.0213(3) 0.8730(4)
H20 H 0.3654(4) -0.0654(3) 0.7458(4)
H21 H 0.4995(4) -0.1215(4) 0.7929(5)
H22 H 0.5067(4) -0.0597(4) 0.9071(5)
C1B C 0.29306(53) 0.32536(41) 0.34831(48)
H5B H 0.1262 0.1957 0.4382
C5B C 0.28977(32) 0.32346(35) 0.57928(40)
C6B C 0.30721(32) 0.32413(34) 0.68626(40)
H1B H 0.3664(5) 0.3255(4) 0.3527(5)
H2B H 0.2722(5) 0.3239(4) 0.2665(5)
H3B H 0.2667(5) 0.3802(4) 0.3854(5)
H6B H 0.2826(3) 0.3813(3) 0.5384(4)
C8B C 0.31276(33) 0.40535(31) 0.74335(43)
N1B N 0.40883(26) 0.44022(27) 0.75159(32)
H8B H 0.2865(3) 0.3970(3) 0.8223(4)
H9B H 0.2710(3) 0.4492(3) 0.7016(4)
C9B C 0.45285(35) 0.44818(38) 0.64429(42)
C13B C 0.46792(36) 0.38859(35) 0.82240(48)
C14B C 0.40047(38) 0.52524(34) 0.80017(45)
C10B C 0.54173(39) 0.49555(41) 0.65377(50)
H10B H 0.4075(3) 0.4806(4) 0.5917(4)
H11B H 0.4665(3) 0.3877(4) 0.6130(4)
C12B C 0.56537(39) 0.42158(39) 0.82239(53)
H17B H 0.4680(4) 0.3260(3) 0.7942(5)
H18B H 0.4412(4) 0.3903(3) 0.9019(5)
C15B C 0.49499(38) 0.55950(39) 0.82284(50)
H19B H 0.3625(4) 0.5213(3) 0.8730(4)
H20B H 0.3654(4) 0.5654(3) 0.7458(4)
C11B C 0.56657(39) 0.50643(37) 0.76930(47)
H12B H 0.5951(4) 0.4620(4) 0.6142(5)
H13B H 0.5340(4) 0.5551(4) 0.6174(5)
H15B H 0.6089(4) 0.3800(4) 0.7793(5)
H16B H 0.5894(4) 0.4270(4) 0.9027(5)
H21B H 0.4995(4) 0.6215(4) 0.7929(5)
H22B H 0.5067(4) 0.5597(4) 0.9071(5)
H14B H 0.6328(4) 0.5348(4) 0.7758(5)
O1 O 0.37818(54) 0.25000 1.01512(66)
C16 C 0.11118(75) 0.25000 0.90342(81)
C17 C 0.08401(82) 0.25000 1.10253(92)
C18 C 0.07787(93) 0.34410(80) 1.0987(13)
C19 C 0.04741(96) 0.25000 0.9980(10)
C18B C 0.07787(93) 0.15590(80) 1.0987(13)
Br1 Br 0.26015(4) 0.06542(4) 0.03243(5)
loop_
_geom_bond_atom_site_label_1
_geom_bond_atom_site_label_2
_geom_bond_site_symmetry_1
_geom_bond_site_symmetry_2
C1 C2 1_555 1_555
C2 C3 1_555 1_555
C3 H4 1_555 1_555
C4 C2 1_555 1_555
C5 C4 1_555 1_555
C6 C5 1_555 1_555
C7 C6 1_555 1_555
C8 C6 1_555 1_555
N1 C8 1_555 1_555
C9 N1 1_555 1_555
C10 C9 1_555 1_555
C11 C10 1_555 1_555
C12 C11 1_555 1_555
C13 N1 1_555 1_555
C14 N1 1_555 1_555
C15 C11 1_555 1_555
C16 C19 1_555 1_555
C17 C18 1_555 1_555
C19 C17 1_555 1_555
H1 C1 1_555 1_555
H2 C1 1_555 1_555
H3 C1 1_555 1_555
H5 C3 1_555 1_555
H6 C5 1_555 1_555
H7 C7 1_555 1_555
H8 C8 1_555 1_555
H9 C8 1_555 1_555
H10 C9 1_555 1_555
H11 C9 1_555 1_555
H12 C10 1_555 1_555
H13 C10 1_555 1_555
H14 C11 1_555 1_555
H15 C12 1_555 1_555
H16 C12 1_555 1_555
H17 C13 1_555 1_555
H18 C13 1_555 1_555
H19 C14 1_555 1_555
H20 C14 1_555 1_555
H21 C15 1_555 1_555
H22 C15 1_555 1_555
C1B C2 1_555 1_555
H5B C3 1_555 1_555
C5B C4 1_555 1_555
C6B C7 1_555 1_555
H1B C1B 1_555 1_555
H2B C1B 1_555 1_555
H3B C1B 1_555 1_555
H6B C5B 1_555 1_555
C8B C6B 1_555 1_555
N1B C8B 1_555 1_555
H8B C8B 1_555 1_555
H9B C8B 1_555 1_555
C9B N1B 1_555 1_555
C13B N1B 1_555 1_555
C14B N1B 1_555 1_555
C10B C9B 1_555 1_555
H10B C9B 1_555 1_555
H11B C9B 1_555 1_555
C12B C13B 1_555 1_555
H17B C13B 1_555 1_555
H18B C13B 1_555 1_555
C15B C14B 1_555 1_555
H19B C14B 1_555 1_555
H20B C14B 1_555 1_555
C11B C10B 1_555 1_555
H12B C10B 1_555 1_555
H13B C10B 1_555 1_555
H15B C12B 1_555 1_555
H16B C12B 1_555 1_555
H21B C15B 1_555 1_555
H22B C15B 1_555 1_555
H14B C11B 1_555 1_555
C18B C17 1_555 1_555
C12 C13 1_555 1_555
C14 C15 1_555 1_555
C5B C6B 1_555 1_555
C12B C11B 1_555 1_555
C15B C11B 1_555 1_555

#END
