
#######################################################################
#
#                 Cambridge Crystallographic Data Centre
#                                CCDC 
#
#######################################################################
#
# If this CIF has been generated from an entry in the Cambridge 
# Structural Database, then it will include bibliographic, chemical, 
# crystal, experimental, refinement or atomic coordinate data resulting 
# from the CCDC's data processing and validation procedures.
#
#######################################################################

data_DIJYOM
_chemical_formula_moiety         'C38 H24 N2'
_chemical_name_systematic        
"14,15-Diphenyl-13,16-dihydrodiindeno[2,1-b:1',2'-j][4,7]phenanthroline unknown solvate"
_symmetry_cell_setting           monoclinic
_symmetry_space_group_name_H-M   'P 21/c'
_symmetry_Int_Tables_number      14
_space_group_name_Hall           '-P 2ybc'
loop_
_symmetry_equiv_pos_site_id
_symmetry_equiv_pos_as_xyz
1 x,y,z
2 -x,1/2+y,1/2-z
3 -x,-y,-z
4 x,1/2-y,1/2+z
_cell_length_a                   19.2487(15)
_cell_length_b                   10.3132(8)
_cell_length_c                   13.9713(11)
_cell_angle_alpha                90
_cell_angle_beta                 107.869(2)
_cell_angle_gamma                90
_cell_volume                     2639.73
_exptl_crystal_colour            colorless
_exptl_crystal_description       prismatic
_cell_formula_units_Z            4
loop_
_atom_site_label
_atom_site_type_symbol
_atom_site_fract_x
_atom_site_fract_y
_atom_site_fract_z
N1 N 0.44497(9) 0.33181(16) 0.10586(14)
N2 N 0.19807(9) 0.56397(15) 0.14529(14)
C1 C 0.52188(11) 0.1380(2) 0.11645(16)
C2 C 0.58347(11) 0.1831(2) 0.09563(18)
H1 H 0.5885 0.2705 0.0827
C3 C 0.63697(12) 0.0952(2) 0.09461(19)
H2 H 0.6790 0.1235 0.0814
C4 C 0.62889(13) -0.0350(2) 0.11310(19)
H3 H 0.6650 -0.0933 0.1099
C5 C 0.56854(12) -0.0798(2) 0.13606(17)
H4 H 0.5639 -0.1673 0.1492
C6 C 0.51479(11) 0.0079(2) 0.13930(16)
C7 C 0.44489(11) -0.01324(19) 0.16398(18)
H5 H 0.4545 -0.0389 0.2336
H6 H 0.4150 -0.0789 0.1208
C8 C 0.40866(10) 0.11845(19) 0.14439(15)
C9 C 0.45649(10) 0.2058(2) 0.11864(15)
C10 C 0.34351(10) 0.16245(18) 0.15442(15)
C11 C 0.32454(10) 0.29612(17) 0.12809(15)
C12 C 0.38014(11) 0.37623(19) 0.11174(16)
C13 C 0.37274(12) 0.51347(19) 0.10960(18)
H7 H 0.4084 0.5647 0.0962
C14 C 0.31503(12) 0.5697(2) 0.12662(18)
H8 H 0.3142 0.6593 0.1338
C15 C 0.25489(11) 0.49441(19) 0.13394(16)
C16 C 0.25508(10) 0.35715(18) 0.12369(14)
C17 C 0.18624(10) 0.29245(17) 0.10348(14)
C18 C 0.12923(10) 0.36377(19) 0.11829(15)
C19 C 0.13889(11) 0.49674(19) 0.14175(15)
C20 C 0.07133(11) 0.5515(2) 0.14976(15)
C21 C 0.01853(11) 0.4551(2) 0.12730(16)
C22 C 0.04992(10) 0.3300(2) 0.10312(17)
H9 H 0.0257 0.3035 0.0343
H10 H 0.0456 0.2612 0.1483
C23 C -0.05164(12) 0.4829(2) 0.12860(18)
H11 H -0.0873 0.4188 0.1145
C24 C -0.06754(13) 0.6073(3) 0.15117(18)
H12 H -0.1144 0.6267 0.1524
C25 C -0.01506(13) 0.7041(2) 0.17211(18)
H13 H -0.0274 0.7876 0.1861
C26 C 0.05525(12) 0.6777(2) 0.17239(16)
H14 H 0.0909 0.7419 0.1872
C27 C 0.30345(10) 0.07862(18) 0.20682(16)
C28 C 0.28427(11) -0.04875(19) 0.17791(17)
H15 H 0.2919 -0.0813 0.1199
C29 C 0.25393(12) -0.1274(2) 0.2346(2)
H16 H 0.2406 -0.2119 0.2137
C30 C 0.24332(13) -0.0820(2) 0.3212(2)
H17 H 0.2235 -0.1357 0.3596
C31 C 0.26212(12) 0.0433(2) 0.35090(18)
H18 H 0.2551 0.0745 0.4097
C32 C 0.29137(11) 0.1231(2) 0.29420(16)
H19 H 0.3032 0.2082 0.3148
C33 C 0.16962(10) 0.16438(18) 0.05177(15)
C34 C 0.19322(11) 0.13959(19) -0.03084(16)
H20 H 0.2237 0.1989 -0.0483
C35 C 0.17232(13) 0.0283(2) -0.08767(18)
H21 H 0.1889 0.0131 -0.1426
C36 C 0.12729(15) -0.0594(2) -0.0631(2)
H22 H 0.1129 -0.1339 -0.1016
C37 C 0.10335(13) -0.0372(2) 0.0187(2)
H23 H 0.0726 -0.0967 0.0353
C38 C 0.12482(11) 0.07362(19) 0.07626(17)
H24 H 0.1090 0.0872 0.1320
loop_
_geom_bond_atom_site_label_1
_geom_bond_atom_site_label_2
_geom_bond_site_symmetry_1
_geom_bond_site_symmetry_2
N1 C9 1_555 1_555
N2 C15 1_555 1_555
C1 C2 1_555 1_555
C2 H1 1_555 1_555
C3 C2 1_555 1_555
H2 C3 1_555 1_555
C4 C3 1_555 1_555
H3 C4 1_555 1_555
C5 C4 1_555 1_555
H4 C5 1_555 1_555
C6 C1 1_555 1_555
C7 C6 1_555 1_555
H5 C7 1_555 1_555
H6 C7 1_555 1_555
C8 C7 1_555 1_555
C9 C1 1_555 1_555
C10 C8 1_555 1_555
C11 C10 1_555 1_555
C12 N1 1_555 1_555
C13 C12 1_555 1_555
H7 C13 1_555 1_555
C14 C13 1_555 1_555
H8 C14 1_555 1_555
C15 C14 1_555 1_555
C16 C11 1_555 1_555
C17 C16 1_555 1_555
C18 C17 1_555 1_555
C19 N2 1_555 1_555
C20 C19 1_555 1_555
C21 C20 1_555 1_555
C22 C18 1_555 1_555
H9 C22 1_555 1_555
H10 C22 1_555 1_555
C23 C21 1_555 1_555
H11 C23 1_555 1_555
C24 C23 1_555 1_555
H12 C24 1_555 1_555
C25 C24 1_555 1_555
H13 C25 1_555 1_555
C26 C20 1_555 1_555
H14 C26 1_555 1_555
C27 C10 1_555 1_555
C28 C27 1_555 1_555
H15 C28 1_555 1_555
C29 C28 1_555 1_555
H16 C29 1_555 1_555
C30 C29 1_555 1_555
H17 C30 1_555 1_555
C31 C30 1_555 1_555
H18 C31 1_555 1_555
C32 C27 1_555 1_555
H19 C32 1_555 1_555
C33 C17 1_555 1_555
C34 C33 1_555 1_555
H20 C34 1_555 1_555
C35 C34 1_555 1_555
H21 C35 1_555 1_555
C36 C35 1_555 1_555
H22 C36 1_555 1_555
C37 C36 1_555 1_555
H23 C37 1_555 1_555
C38 C33 1_555 1_555
H24 C38 1_555 1_555
C5 C6 1_555 1_555
C8 C9 1_555 1_555
C11 C12 1_555 1_555
C15 C16 1_555 1_555
C18 C19 1_555 1_555
C21 C22 1_555 1_555
C25 C26 1_555 1_555
C31 C32 1_555 1_555
C37 C38 1_555 1_555

#END
