
#######################################################################
#
#                 Cambridge Crystallographic Data Centre
#                                CCDC 
#
#######################################################################
#
# If this CIF has been generated from an entry in the Cambridge 
# Structural Database, then it will include bibliographic, chemical, 
# crystal, experimental, refinement or atomic coordinate data resulting 
# from the CCDC's data processing and validation procedures.
#
#######################################################################

data_DIJYUS
_chemical_formula_moiety         'C26 H17 N1'
_chemical_name_systematic        7-Phenyl-8H-benzo[h]indeno[1,2-b]quinoline
_symmetry_cell_setting           monoclinic
_symmetry_space_group_name_H-M   'P 21/c'
_symmetry_Int_Tables_number      14
_space_group_name_Hall           '-P 2ybc'
loop_
_symmetry_equiv_pos_site_id
_symmetry_equiv_pos_as_xyz
1 x,y,z
2 -x,1/2+y,1/2-z
3 -x,-y,-z
4 x,1/2-y,1/2+z
_cell_length_a                   11.9303(15)
_cell_length_b                   14.2709(19)
_cell_length_c                   11.7163(16)
_cell_angle_alpha                90
_cell_angle_beta                 116.091(3)
_cell_angle_gamma                90
_cell_volume                     1791.5
_exptl_crystal_colour            colorless
_exptl_crystal_description       prismatic
_cell_formula_units_Z            4
loop_
_atom_site_label
_atom_site_type_symbol
_atom_site_fract_x
_atom_site_fract_y
_atom_site_fract_z
N1 N 1.05753(12) 0.13981(8) -0.02000(13)
C1 C 1.19453(15) 0.16205(11) 0.21128(15)
C2 C 1.31170(15) 0.18211(12) 0.21973(17)
H1 H 1.3251 0.1855 0.1474
C3 C 1.40791(17) 0.19687(14) 0.33941(19)
H2 H 1.4873 0.2112 0.3480
C4 C 1.38713(17) 0.19052(15) 0.44678(19)
H3 H 1.4530 0.2002 0.5266
C5 C 1.27070(17) 0.17015(13) 0.43690(18)
H4 H 1.2578 0.1658 0.5094
C6 C 1.17386(15) 0.15628(11) 0.31926(16)
C7 C 1.03851(14) 0.13337(11) 0.28463(15)
H5 H 1.0311 0.0745 0.3222
H6 H 0.9994 0.1827 0.3114
C8 C 0.98236(14) 0.12654(10) 0.14161(15)
C9 C 1.07598(15) 0.14281(10) 0.10016(15)
C10 C 0.93965(15) 0.11887(10) -0.10749(15)
C11 C 0.84026(15) 0.10180(11) -0.07495(16)
C12 C 0.86400(15) 0.10571(10) 0.05505(16)
C13 C 0.71970(16) 0.08049(12) -0.17436(17)
H7 H 0.6534 0.0715 -0.1539
C14 C 0.69900(17) 0.07297(13) -0.29678(17)
H8 H 0.6196 0.0575 -0.3583
C15 C 0.79610(17) 0.08814(11) -0.33330(17)
C16 C 0.91690(16) 0.11265(10) -0.23936(16)
C17 C 1.01078(18) 0.12980(11) -0.27873(17)
H9 H 1.0901 0.1471 -0.2188
C18 C 0.9874(2) 0.12146(13) -0.40354(18)
H10 H 1.0510 0.1327 -0.4273
C19 C 0.8699(2) 0.09651(15) -0.49478(19)
H11 H 0.8551 0.0905 -0.5793
C20 C 0.7763(2) 0.08076(14) -0.46107(18)
H12 H 0.6975 0.0648 -0.5234
C21 C 0.76414(14) 0.08677(11) 0.09651(15)
C22 C 0.71965(17) 0.15880(12) 0.14406(18)
H13 H 0.7488 0.2195 0.1457
C23 C 0.63267(17) 0.14163(15) 0.1889(2)
H14 H 0.6030 0.1908 0.2201
C24 C 0.58973(17) 0.05304(17) 0.18795(18)
H15 H 0.5317 0.0416 0.2193
C25 C 0.63236(17) -0.01900(15) 0.14066(19)
H16 H 0.6030 -0.0795 0.1398
C26 C 0.71887(15) -0.00233(12) 0.09417(17)
H17 H 0.7466 -0.0515 0.0612
loop_
_geom_bond_atom_site_label_1
_geom_bond_atom_site_label_2
_geom_bond_site_symmetry_1
_geom_bond_site_symmetry_2
N1 C9 1_555 1_555
C1 C2 1_555 1_555
C2 H1 1_555 1_555
C3 C2 1_555 1_555
H2 C3 1_555 1_555
C4 C3 1_555 1_555
H3 C4 1_555 1_555
C5 C4 1_555 1_555
H4 C5 1_555 1_555
C6 C1 1_555 1_555
C7 C6 1_555 1_555
H5 C7 1_555 1_555
H6 C7 1_555 1_555
C8 C7 1_555 1_555
C9 C1 1_555 1_555
C10 N1 1_555 1_555
C11 C10 1_555 1_555
C12 C8 1_555 1_555
C13 C11 1_555 1_555
H7 C13 1_555 1_555
C14 C13 1_555 1_555
H8 C14 1_555 1_555
C15 C14 1_555 1_555
C16 C10 1_555 1_555
C17 C16 1_555 1_555
H9 C17 1_555 1_555
C18 C17 1_555 1_555
H10 C18 1_555 1_555
C19 C18 1_555 1_555
H11 C19 1_555 1_555
C20 C15 1_555 1_555
H12 C20 1_555 1_555
C21 C12 1_555 1_555
C22 C21 1_555 1_555
H13 C22 1_555 1_555
C23 C22 1_555 1_555
H14 C23 1_555 1_555
C24 C23 1_555 1_555
H15 C24 1_555 1_555
C25 C24 1_555 1_555
H16 C25 1_555 1_555
C26 C21 1_555 1_555
H17 C26 1_555 1_555
C5 C6 1_555 1_555
C8 C9 1_555 1_555
C11 C12 1_555 1_555
C15 C16 1_555 1_555
C19 C20 1_555 1_555
C25 C26 1_555 1_555

#END
