
#######################################################################
#
#                 Cambridge Crystallographic Data Centre
#                                CCDC 
#
#######################################################################
#
# If this CIF has been generated from an entry in the Cambridge 
# Structural Database, then it will include bibliographic, chemical, 
# crystal, experimental, refinement or atomic coordinate data resulting 
# from the CCDC's data processing and validation procedures.
#
#######################################################################

data_DIJZED
_chemical_formula_moiety         'C24 H17 N1 O2'
_chemical_name_systematic        
'Methyl 10-phenyl-11H-indeno[1,2-b]quinoline-8-carboxylate'
_symmetry_cell_setting           monoclinic
_symmetry_space_group_name_H-M   'P 21/n'
_symmetry_Int_Tables_number      14
_space_group_name_Hall           '-P 2yn'
loop_
_symmetry_equiv_pos_site_id
_symmetry_equiv_pos_as_xyz
1 x,y,z
2 1/2-x,1/2+y,1/2-z
3 -x,-y,-z
4 1/2+x,1/2-y,1/2+z
_cell_length_a                   9.0870(10)
_cell_length_b                   9.8368(10)
_cell_length_c                   19.8075(19)
_cell_angle_alpha                90
_cell_angle_beta                 92.304(2)
_cell_angle_gamma                90
_cell_volume                     1769.1
_exptl_crystal_colour            colorless
_exptl_crystal_description       prismatic
_cell_formula_units_Z            4
loop_
_atom_site_label
_atom_site_type_symbol
_atom_site_fract_x
_atom_site_fract_y
_atom_site_fract_z
N1 N 1.19738(14) 0.60915(13) -0.00109(6)
O1 O 0.78263(15) 1.05230(14) -0.14363(6)
O2 O 0.67053(13) 1.02682(13) -0.04637(6)
C1 C 1.28424(16) 0.45098(16) 0.08919(7)
C2 C 1.40217(17) 0.38292(17) 0.06304(8)
H1 H 1.4318 0.4012 0.0196
C3 C 1.47483(18) 0.28738(18) 0.10287(9)
H2 H 1.5544 0.2405 0.0861
C4 C 1.43079(19) 0.26057(19) 0.16736(9)
H3 H 1.4814 0.1960 0.1935
C5 C 1.31258(19) 0.32805(18) 0.19374(8)
H4 H 1.2839 0.3099 0.2374
C6 C 1.23824(17) 0.42264(17) 0.15412(8)
C7 C 1.10539(17) 0.50733(17) 0.17004(8)
H5 H 1.0215 0.4503 0.1794
H6 H 1.1263 0.5664 0.2084
C8 C 1.07794(17) 0.58831(16) 0.10633(7)
C9 C 1.18710(16) 0.55535(15) 0.05949(7)
C10 C 0.96932(16) 0.67857(15) 0.08884(7)
C11 C 0.97651(16) 0.74196(15) 0.02387(7)
C12 C 1.09249(16) 0.70401(16) -0.01881(7)
C13 C 1.09822(18) 0.76451(18) -0.08315(8)
H7 H 1.1728 0.7399 -0.1116
C14 C 0.99710(19) 0.85771(18) -0.10422(8)
H8 H 1.0032 0.8963 -0.1469
C15 C 0.88241(18) 0.89732(16) -0.06246(7)
C16 C 0.87368(16) 0.83917(15) -0.00018(7)
H9 H 0.7975 0.8646 0.0272
C17 C 0.84583(16) 0.70463(15) 0.13441(7)
C18 C 0.72698(17) 0.61660(17) 0.13357(8)
H10 H 0.7236 0.5436 0.1037
C19 C 0.61362(18) 0.63626(18) 0.17671(8)
H11 H 0.5346 0.5761 0.1760
C20 C 0.61678(19) 0.7435(2) 0.22040(8)
H12 H 0.5399 0.7567 0.2493
C21 C 0.7334(2) 0.8315(2) 0.22155(9)
H13 H 0.7356 0.9048 0.2512
C22 C 0.84814(19) 0.81165(18) 0.17880(8)
H14 H 0.9275 0.8714 0.1802
C23 C 0.77634(19) 0.99924(18) -0.08925(8)
C24 C 0.5605(2) 1.1228(2) -0.07023(10)
H15 H 0.6059 1.2095 -0.0773
H16 H 0.4865 1.1319 -0.0372
H17 H 0.5157 1.0910 -0.1120
loop_
_geom_bond_atom_site_label_1
_geom_bond_atom_site_label_2
_geom_bond_site_symmetry_1
_geom_bond_site_symmetry_2
N1 C9 1_555 1_555
O1 C23 1_555 1_555
O2 C23 1_555 1_555
C1 C2 1_555 1_555
C2 H1 1_555 1_555
C3 C2 1_555 1_555
H2 C3 1_555 1_555
C4 C3 1_555 1_555
H3 C4 1_555 1_555
C5 C4 1_555 1_555
H4 C5 1_555 1_555
C6 C1 1_555 1_555
C7 C6 1_555 1_555
H5 C7 1_555 1_555
H6 C7 1_555 1_555
C8 C7 1_555 1_555
C9 C1 1_555 1_555
C10 C8 1_555 1_555
C11 C10 1_555 1_555
C12 N1 1_555 1_555
C13 C12 1_555 1_555
H7 C13 1_555 1_555
C14 C13 1_555 1_555
H8 C14 1_555 1_555
C15 C14 1_555 1_555
C16 C11 1_555 1_555
H9 C16 1_555 1_555
C17 C10 1_555 1_555
C18 C17 1_555 1_555
H10 C18 1_555 1_555
C19 C18 1_555 1_555
H11 C19 1_555 1_555
C20 C19 1_555 1_555
H12 C20 1_555 1_555
C21 C20 1_555 1_555
H13 C21 1_555 1_555
C22 C17 1_555 1_555
H14 C22 1_555 1_555
C23 C15 1_555 1_555
C24 O2 1_555 1_555
H15 C24 1_555 1_555
H16 C24 1_555 1_555
H17 C24 1_555 1_555
C5 C6 1_555 1_555
C8 C9 1_555 1_555
C11 C12 1_555 1_555
C15 C16 1_555 1_555
C21 C22 1_555 1_555

#END
