
#######################################################################
#
#                 Cambridge Crystallographic Data Centre
#                                CCDC 
#
#######################################################################
#
# If this CIF has been generated from an entry in the Cambridge 
# Structural Database, then it will include bibliographic, chemical, 
# crystal, experimental, refinement or atomic coordinate data resulting 
# from the CCDC's data processing and validation procedures.
#
#######################################################################

data_DIJZUT
_chemical_formula_moiety         'C23 H18 N2 O3'
_chemical_name_systematic        
2-Benzoyl-1'-methyl-4H-spiro[1,4-benzoxazine-3,3'-indol]-2'(1'H)-one
_symmetry_cell_setting           monoclinic
_symmetry_space_group_name_H-M   'P 21/c'
_symmetry_Int_Tables_number      14
_space_group_name_Hall           '-P 2ybc'
loop_
_symmetry_equiv_pos_site_id
_symmetry_equiv_pos_as_xyz
1 x,y,z
2 -x,1/2+y,1/2-z
3 -x,-y,-z
4 x,1/2-y,1/2+z
_cell_length_a                   12.279(3)
_cell_length_b                   14.689(3)
_cell_length_c                   10.823(3)
_cell_angle_alpha                90
_cell_angle_beta                 104.704(13)
_cell_angle_gamma                90
_cell_volume                     1888.17
_cell_formula_units_Z            4
loop_
_atom_site_label
_atom_site_type_symbol
_atom_site_fract_x
_atom_site_fract_y
_atom_site_fract_z
N1 N 0.0027(3) 0.1629(2) 0.4289(3)
H1 H 0.0270 0.1612 0.5107
O1 O -0.0717(3) 0.1278(2) 0.1646(3)
C1 C 0.0790(3) 0.1731(3) 0.3481(3)
N2 N 0.1933(3) 0.2978(2) 0.3273(3)
C2 C 0.1998(3) 0.1563(3) 0.4150(3)
O2 O 0.0028(3) 0.3175(2) 0.2444(3)
C3 C 0.0385(3) 0.1057(3) 0.2363(4)
H2 H 0.0382 0.0441 0.2709
C4 C -0.1124(4) 0.1559(3) 0.3693(4)
C5 C 0.0837(4) 0.2714(3) 0.2980(4)
C6 C 0.2044(3) 0.0378(3) 0.1617(3)
C7 C 0.1172(4) 0.1078(3) 0.1481(4)
C8 C 0.2643(4) 0.2307(3) 0.3976(4)
O3 O 0.1126(3) 0.1724(2) 0.0767(3)
C9 C 0.2522(4) 0.0817(3) 0.4814(4)
H3 H 0.2102 0.0313 0.4935
C10 C 0.1860(4) -0.0510(3) 0.1919(4)
H4 H 0.1162 -0.0674 0.2038
C11 C -0.1480(4) 0.1382(3) 0.2384(5)
C12 C 0.3681(5) 0.0824(4) 0.5299(5)
H5 H 0.4040 0.0324 0.5753
C13 C -0.1912(4) 0.1660(3) 0.4403(5)
H6 H -0.1683 0.1771 0.5277
C14 C -0.2600(5) 0.1321(3) 0.1788(6)
H7 H -0.2831 0.1201 0.0917
C15 C 0.3792(4) 0.2316(4) 0.4449(4)
H8 H 0.4216 0.2816 0.4325
C16 C 0.3078(4) 0.0600(3) 0.1425(4)
H9 H 0.3217 0.1192 0.1202
C17 C 0.3909(4) -0.0052(5) 0.1561(5)
H10 H 0.4611 0.0106 0.1446
C18 C 0.3707(4) -0.0921(4) 0.1863(5)
H11 H 0.4267 -0.1359 0.1945
C19 C 0.4298(4) 0.1563(5) 0.5114(5)
H12 H 0.5075 0.1557 0.5443
C20 C -0.3037(6) 0.1593(4) 0.3793(8)
H13 H -0.3569 0.1652 0.4265
C21 C 0.2684(4) -0.1155(3) 0.2047(4)
H14 H 0.2547 -0.1750 0.2259
C22 C 0.2283(4) 0.3885(3) 0.3000(5)
H15 H 0.1646 0.4212 0.2501
H16 H 0.2849 0.3839 0.2532
H17 H 0.2586 0.4202 0.3788
C23 C -0.3391(5) 0.1441(4) 0.2493(9)
H18 H -0.4156 0.1418 0.2091
loop_
_geom_bond_atom_site_label_1
_geom_bond_atom_site_label_2
_geom_bond_site_symmetry_1
_geom_bond_site_symmetry_2
N1 H1 1_555 1_555
O1 C3 1_555 1_555
C1 N1 1_555 1_555
N2 C5 1_555 1_555
C2 C1 1_555 1_555
O2 C5 1_555 1_555
C3 C1 1_555 1_555
H2 C3 1_555 1_555
C4 N1 1_555 1_555
C5 C1 1_555 1_555
C6 C7 1_555 1_555
C7 C3 1_555 1_555
C8 N2 1_555 1_555
O3 C7 1_555 1_555
C9 C2 1_555 1_555
H3 C9 1_555 1_555
C10 C6 1_555 1_555
H4 C10 1_555 1_555
C11 O1 1_555 1_555
C12 C9 1_555 1_555
H5 C12 1_555 1_555
C13 C4 1_555 1_555
H6 C13 1_555 1_555
C14 C11 1_555 1_555
H7 C14 1_555 1_555
C15 C8 1_555 1_555
H8 C15 1_555 1_555
C16 C6 1_555 1_555
H9 C16 1_555 1_555
C17 C16 1_555 1_555
H10 C17 1_555 1_555
C18 C17 1_555 1_555
H11 C18 1_555 1_555
C19 C12 1_555 1_555
H12 C19 1_555 1_555
C20 C13 1_555 1_555
H13 C20 1_555 1_555
C21 C10 1_555 1_555
H14 C21 1_555 1_555
C22 N2 1_555 1_555
H15 C22 1_555 1_555
H16 C22 1_555 1_555
H17 C22 1_555 1_555
C23 C14 1_555 1_555
H18 C23 1_555 1_555
C2 C8 1_555 1_555
C4 C11 1_555 1_555
C15 C19 1_555 1_555
C18 C21 1_555 1_555
C20 C23 1_555 1_555

#END
