
#######################################################################
#
#                 Cambridge Crystallographic Data Centre
#                                CCDC 
#
#######################################################################
#
# If this CIF has been generated from an entry in the Cambridge 
# Structural Database, then it will include bibliographic, chemical, 
# crystal, experimental, refinement or atomic coordinate data resulting 
# from the CCDC's data processing and validation procedures.
#
#######################################################################

data_DIKTOH
_chemical_name_common            
N-(1-(p-Toluidino)-2,2,2-trichloroethyl)-4-methylbenzenamine
_chemical_formula_moiety         'C16 H17 Cl3 N2'
_chemical_name_systematic        
2,2,2-Trichloro-N,N'-bis(4-methylphenyl)ethane-1,1-diamine
_symmetry_cell_setting           monoclinic
_symmetry_space_group_name_H-M   'P 21/n'
_symmetry_Int_Tables_number      14
_space_group_name_Hall           '-P 2yn'
loop_
_symmetry_equiv_pos_site_id
_symmetry_equiv_pos_as_xyz
1 x,y,z
2 1/2-x,1/2+y,1/2-z
3 -x,-y,-z
4 1/2+x,1/2-y,1/2+z
_cell_length_a                   5.9238(7)
_cell_length_b                   14.6193(16)
_cell_length_c                   19.093(2)
_cell_angle_alpha                90
_cell_angle_beta                 96.9920(10)
_cell_angle_gamma                90
_cell_volume                     1641.19
_exptl_crystal_colour            colorless
_exptl_crystal_description       flake
_cell_formula_units_Z            4
_exptl_crystal_recrystallization_method 'ethyl acetate'
loop_
_atom_site_label
_atom_site_type_symbol
_atom_site_fract_x
_atom_site_fract_y
_atom_site_fract_z
Cl1 Cl -0.08280(9) -0.09977(4) 0.04411(3)
Cl2 Cl -0.19299(8) -0.13076(4) 0.18383(3)
Cl3 Cl 0.23639(8) -0.19339(3) 0.14612(4)
N1 N 0.2129(3) -0.01115(12) 0.23320(9)
N2 N 0.3127(3) 0.01075(12) 0.11558(10)
C1 C 0.1040(3) 0.03174(12) 0.28542(10)
C2 C 0.2082(3) 0.03005(14) 0.35451(11)
H1 H 0.3495 0.0021 0.3647
C3 C 0.1062(4) 0.06897(15) 0.40834(11)
H2 H 0.1805 0.0668 0.4541
C4 C -0.1054(4) 0.11147(13) 0.39604(11)
C5 C -0.2055(3) 0.11434(14) 0.32724(11)
H3 H -0.3450 0.1436 0.3171
C6 C -0.1062(3) 0.07528(14) 0.27245(10)
H4 H -0.1802 0.0781 0.2267
C7 C -0.2196(5) 0.15171(19) 0.45545(13)
H5 H -0.1402 0.2060 0.4726
H6 H -0.2169 0.1079 0.4930
H7 H -0.3744 0.1668 0.4385
C8 C 0.1371(3) -0.01025(12) 0.15874(10)
H8 H 0.0182 0.0364 0.1499
C9 C 0.0315(3) -0.10421(12) 0.13430(10)
C10 C 0.4166(3) 0.09734(12) 0.11755(9)
C11 C 0.3454(3) 0.17078(13) 0.15532(10)
H9 H 0.2208 0.1645 0.1803
C12 C 0.4596(3) 0.25352(13) 0.15593(11)
H10 H 0.4086 0.3023 0.1810
C13 C 0.6474(3) 0.26591(13) 0.12033(10)
C14 C 0.7121(3) 0.19290(13) 0.08123(11)
H11 H 0.8349 0.1997 0.0557
C15 C 0.5991(3) 0.11015(13) 0.07915(10)
H12 H 0.6454 0.0626 0.0519
C16 C 0.7805(4) 0.35437(15) 0.12444(14)
H13 H 0.8958 0.3525 0.1644
H14 H 0.6796 0.4047 0.1295
H15 H 0.8507 0.3621 0.0821
H16 H 0.344(4) -0.0256(15) 0.2444(11)
H17 H 0.386(4) -0.0291(17) 0.1064(12)
loop_
_geom_bond_atom_site_label_1
_geom_bond_atom_site_label_2
_geom_bond_site_symmetry_1
_geom_bond_site_symmetry_2
Cl1 C9 1_555 1_555
Cl2 C9 1_555 1_555
Cl3 C9 1_555 1_555
N1 C1 1_555 1_555
N2 C8 1_555 1_555
C1 C2 1_555 1_555
C2 H1 1_555 1_555
C3 C2 1_555 1_555
H2 C3 1_555 1_555
C4 C3 1_555 1_555
C5 C4 1_555 1_555
H3 C5 1_555 1_555
C6 C1 1_555 1_555
H4 C6 1_555 1_555
C7 C4 1_555 1_555
H5 C7 1_555 1_555
H6 C7 1_555 1_555
H7 C7 1_555 1_555
C8 N1 1_555 1_555
H8 C8 1_555 1_555
C9 C8 1_555 1_555
C10 N2 1_555 1_555
C11 C10 1_555 1_555
H9 C11 1_555 1_555
C12 C11 1_555 1_555
H10 C12 1_555 1_555
C13 C12 1_555 1_555
C14 C13 1_555 1_555
H11 C14 1_555 1_555
C15 C10 1_555 1_555
H12 C15 1_555 1_555
C16 C13 1_555 1_555
H13 C16 1_555 1_555
H14 C16 1_555 1_555
H15 C16 1_555 1_555
H16 N1 1_555 1_555
H17 N2 1_555 1_555
C5 C6 1_555 1_555
C14 C15 1_555 1_555

#END
