
#######################################################################
#
#                 Cambridge Crystallographic Data Centre
#                                CCDC 
#
#######################################################################
#
# If this CIF has been generated from an entry in the Cambridge 
# Structural Database, then it will include bibliographic, chemical, 
# crystal, experimental, refinement or atomic coordinate data resulting 
# from the CCDC's data processing and validation procedures.
#
#######################################################################

data_DIKTIB
_chemical_name_common            
N-(1-(Anilino)-2,2,2-trichloroethyl)benzenamine
_chemical_formula_moiety         'C14 H13 Cl3 N2'
_chemical_name_systematic        
2,2,2-Trichloro-N,N'-diphenylethane-1,1-diamine
_symmetry_cell_setting           monoclinic
_symmetry_space_group_name_H-M   'P 21/c'
_symmetry_Int_Tables_number      14
_space_group_name_Hall           '-P 2ybc'
loop_
_symmetry_equiv_pos_site_id
_symmetry_equiv_pos_as_xyz
1 x,y,z
2 -x,1/2+y,1/2-z
3 -x,-y,-z
4 x,1/2-y,1/2+z
_cell_length_a                   6.1225(7)
_cell_length_b                   15.7539(17)
_cell_length_c                   15.2020(16)
_cell_angle_alpha                90
_cell_angle_beta                 95.9360(10)
_cell_angle_gamma                90
_cell_volume                     1458.42
_exptl_crystal_colour            colorless
_exptl_crystal_description       block
_cell_formula_units_Z            4
_exptl_crystal_recrystallization_method 'ethyl acetate'
loop_
_atom_site_label
_atom_site_type_symbol
_atom_site_fract_x
_atom_site_fract_y
_atom_site_fract_z
Cl1 Cl 1.11696(13) 0.49239(4) 0.79205(5)
Cl2 Cl 0.81810(11) 0.47878(5) 0.63491(5)
Cl3 Cl 1.25641(12) 0.41168(5) 0.63853(6)
N1 N 0.7747(3) 0.35121(12) 0.78349(13)
H1 H 0.7081 0.3993 0.7803
N2 N 0.9075(3) 0.28057(12) 0.66137(13)
H2 H 0.7816 0.2862 0.6312
C1 C 0.7018(3) 0.28814(14) 0.83771(14)
C2 C 0.5175(4) 0.30378(16) 0.88191(15)
H3 H 0.4469 0.3560 0.8752
C3 C 0.4389(4) 0.24291(18) 0.93537(16)
H4 H 0.3145 0.2540 0.9637
C4 C 0.5431(5) 0.16586(18) 0.94712(18)
H5 H 0.4889 0.1245 0.9828
C5 C 0.7286(5) 0.15053(17) 0.90555(18)
H6 H 0.8024 0.0992 0.9149
C6 C 0.8064(4) 0.21017(15) 0.85023(16)
H7 H 0.9293 0.1982 0.8212
C7 C 0.9569(3) 0.33852(14) 0.73291(14)
H8 H 1.0777 0.3144 0.7724
C8 C 1.0420(4) 0.21589(14) 0.63544(14)
C9 C 0.9689(4) 0.16890(15) 0.56090(15)
H9 H 0.8338 0.1816 0.5299
C10 C 1.0929(6) 0.10412(17) 0.53236(18)
H10 H 1.0412 0.0737 0.4820
C11 C 1.2923(6) 0.08332(17) 0.5769(2)
H11 H 1.3752 0.0390 0.5574
C12 C 1.3669(5) 0.12922(18) 0.65069(19)
H12 H 1.5015 0.1157 0.6816
C13 C 1.2446(4) 0.19519(16) 0.67957(17)
H13 H 1.2986 0.2262 0.7292
C14 C 1.0326(4) 0.42616(15) 0.70098(15)
loop_
_geom_bond_atom_site_label_1
_geom_bond_atom_site_label_2
_geom_bond_site_symmetry_1
_geom_bond_site_symmetry_2
Cl1 C14 1_555 1_555
Cl2 C14 1_555 1_555
Cl3 C14 1_555 1_555
N1 H1 1_555 1_555
N2 H2 1_555 1_555
C1 N1 1_555 1_555
C2 C1 1_555 1_555
H3 C2 1_555 1_555
C3 C2 1_555 1_555
H4 C3 1_555 1_555
C4 C3 1_555 1_555
H5 C4 1_555 1_555
C5 C4 1_555 1_555
H6 C5 1_555 1_555
C6 C1 1_555 1_555
H7 C6 1_555 1_555
C7 N1 1_555 1_555
H8 C7 1_555 1_555
C8 N2 1_555 1_555
C9 C8 1_555 1_555
H9 C9 1_555 1_555
C10 C9 1_555 1_555
H10 C10 1_555 1_555
C11 C10 1_555 1_555
H11 C11 1_555 1_555
C12 C11 1_555 1_555
H12 C12 1_555 1_555
C13 C8 1_555 1_555
H13 C13 1_555 1_555
C14 C7 1_555 1_555
N2 C7 1_555 1_555
C5 C6 1_555 1_555
C12 C13 1_555 1_555

#END
