
#######################################################################
#
#                 Cambridge Crystallographic Data Centre
#                                CCDC 
#
#######################################################################
#
# If this CIF has been generated from an entry in the Cambridge 
# Structural Database, then it will include bibliographic, chemical, 
# crystal, experimental, refinement or atomic coordinate data resulting 
# from the CCDC's data processing and validation procedures.
#
#######################################################################

data_DIKXAX01
_chemical_formula_moiety         'C19 H22 N2 O2'
_chemical_name_systematic        
2,2'-(pentane-1,5-diylbis(nitrilomethylylidene))diphenol
_symmetry_cell_setting           monoclinic
_symmetry_space_group_name_H-M   'P c'
_symmetry_Int_Tables_number      7
_space_group_name_Hall           'P -2yc'
loop_
_symmetry_equiv_pos_site_id
_symmetry_equiv_pos_as_xyz
1 x,y,z
2 x,-y,1/2+z
_cell_length_a                   16.3631(18)
_cell_length_b                   5.6428(5)
_cell_length_c                   9.1251(8)
_cell_angle_alpha                90
_cell_angle_beta                 101.418(10)
_cell_angle_gamma                90
_cell_volume                     825.879
_cell_formula_units_Z            2
loop_
_atom_site_label
_atom_site_type_symbol
_atom_site_fract_x
_atom_site_fract_y
_atom_site_fract_z
C1 C 0.6136(3) -0.3963(8) 1.0580(5)
O1 O 0.5394(2) -0.4934(6) 0.9954(4)
H1 H 0.509(4) -0.370(13) 0.926(8)
C2 C 0.6654(3) -0.5159(8) 1.1735(5)
H2 H 0.64860 -0.66400 1.20720
C3 C 0.7412(3) -0.4194(9) 1.2391(5)
H3 H 0.77580 -0.50080 1.31920
C4 C 0.7677(3) -0.2056(10) 1.1901(5)
H4 H 0.82050 -0.14230 1.23500
C5 C 0.7167(3) -0.0856(8) 1.0758(5)
H5 H 0.73450 0.06150 1.04240
C6 C 0.6386(3) -0.1786(8) 1.0082(5)
C7 C 0.5854(3) -0.0465(9) 0.8896(5)
H6 H 0.60390 0.10090 0.85770
N1 N 0.5136(2) -0.1280(8) 0.8277(4)
C8 C 0.4629(3) 0.0083(11) 0.7050(6)
H7 H 0.44040 -0.10030 0.62160
H8 H 0.49880 0.12620 0.66780
C9 C 0.3923(3) 0.1336(8) 0.7537(5)
H9 H 0.41460 0.23600 0.84050
H10 H 0.35480 0.01520 0.78600
C10 C 0.3429(3) 0.2840(8) 0.6292(5)
H11 H 0.38180 0.38800 0.58860
H12 H 0.31520 0.17880 0.54750
C11 C 0.2775(3) 0.4361(8) 0.6801(5)
H13 H 0.23990 0.33220 0.72410
H14 H 0.30550 0.54450 0.75960
C12 C 0.2258(3) 0.5808(8) 0.5570(5)
H15 H 0.19070 0.69410 0.60000
H16 H 0.26270 0.67230 0.50420
N2 N 0.1725(2) 0.4217(7) 0.4515(4)
C13 C 0.0976(3) 0.4839(8) 0.3955(4)
H17 H 0.07610 0.62740 0.42700
C14 C 0.0450(3) 0.3362(8) 0.2837(5)
C15 C 0.0739(3) 0.1168(8) 0.2413(4)
O2 O 0.1500(2) 0.0338(6) 0.3046(3)
H18 H 0.186(4) 0.165(11) 0.400(7)
C16 C 0.0243(3) -0.0141(8) 0.1298(5)
H19 H 0.04430 -0.15980 0.09850
C17 C -0.0544(3) 0.0656(10) 0.0634(5)
H20 H -0.08810 -0.02650 -0.01260
C18 C -0.0842(3) 0.2768(9) 0.1066(6)
H21 H -0.13840 0.33030 0.06120
C19 C -0.0346(3) 0.4115(8) 0.2171(5)
H22 H -0.05530 0.55690 0.24760
loop_
_geom_bond_atom_site_label_1
_geom_bond_atom_site_label_2
_geom_bond_site_symmetry_1
_geom_bond_site_symmetry_2
C1 O1 1_555 1_555
O1 H1 1_555 1_555
C2 C1 1_555 1_555
H2 C2 1_555 1_555
C3 C2 1_555 1_555
H3 C3 1_555 1_555
C4 C3 1_555 1_555
H4 C4 1_555 1_555
C5 C4 1_555 1_555
H5 C5 1_555 1_555
C6 C1 1_555 1_555
C7 C6 1_555 1_555
H6 C7 1_555 1_555
N1 C7 1_555 1_555
C8 N1 1_555 1_555
H7 C8 1_555 1_555
H8 C8 1_555 1_555
C9 C8 1_555 1_555
H9 C9 1_555 1_555
H10 C9 1_555 1_555
C10 C9 1_555 1_555
H11 C10 1_555 1_555
H12 C10 1_555 1_555
C11 C10 1_555 1_555
H13 C11 1_555 1_555
H14 C11 1_555 1_555
C12 C11 1_555 1_555
H15 C12 1_555 1_555
H16 C12 1_555 1_555
N2 C12 1_555 1_555
C13 N2 1_555 1_555
H17 C13 1_555 1_555
C14 C13 1_555 1_555
C15 C14 1_555 1_555
O2 C15 1_555 1_555
H18 O2 1_555 1_555
C16 C15 1_555 1_555
H19 C16 1_555 1_555
C17 C16 1_555 1_555
H20 C17 1_555 1_555
C18 C17 1_555 1_555
H21 C18 1_555 1_555
C19 C14 1_555 1_555
H22 C19 1_555 1_555
C5 C6 1_555 1_555
C18 C19 1_555 1_555

#END
