
#######################################################################
#
#                 Cambridge Crystallographic Data Centre
#                                CCDC 
#
#######################################################################
#
# If this CIF has been generated from an entry in the Cambridge 
# Structural Database, then it will include bibliographic, chemical, 
# crystal, experimental, refinement or atomic coordinate data resulting 
# from the CCDC's data processing and validation procedures.
#
#######################################################################

data_DILGOV
_chemical_formula_moiety         'C12 H15 N3 O1 S1'
_chemical_name_systematic        
1-(2,2-Dimethylcyclopropylcarbonyl)-3-(2-pyridyl)thiourea
_chemical_properties_biological  'possible insecticidal activity'
_symmetry_cell_setting           orthorhombic
_symmetry_space_group_name_H-M   'P b c a'
_symmetry_Int_Tables_number      61
_space_group_name_Hall           '-P 2ac 2ab'
loop_
_symmetry_equiv_pos_site_id
_symmetry_equiv_pos_as_xyz
1 x,y,z
2 1/2-x,-y,1/2+z
3 -x,1/2+y,1/2-z
4 1/2+x,1/2-y,-z
5 -x,-y,-z
6 1/2+x,y,1/2-z
7 x,1/2-y,1/2+z
8 1/2-x,1/2+y,z
_cell_length_a                   13.785(5)
_cell_length_b                   10.664(4)
_cell_length_c                   18.233(6)
_cell_angle_alpha                90
_cell_angle_beta                 90
_cell_angle_gamma                90
_cell_volume                     2680.31
_exptl_crystal_colour            colorless
_exptl_crystal_description       block
_chemical_melting_point          '365 K'
_cell_formula_units_Z            8
_exptl_crystal_recrystallization_method 'ethyl acetate/cyclohexane'
loop_
_atom_site_label
_atom_site_type_symbol
_atom_site_fract_x
_atom_site_fract_y
_atom_site_fract_z
S1 S 0.20197(6) 0.31298(7) 0.39880(4)
N1 N 0.06932(13) 0.68893(15) 0.47218(10)
N2 N 0.17241(13) 0.52421(15) 0.47711(9)
H1 H 0.1972 0.5695 0.5113
N3 N 0.29367(13) 0.39256(16) 0.51506(10)
H2 H 0.3287 0.3279 0.5056
O1 O 0.28019(13) 0.55553(14) 0.59591(9)
C1 C 0.03215(16) 0.5184(2) 0.39285(12)
H3 H 0.0484 0.4401 0.3741
C2 C -0.04982(17) 0.5802(2) 0.36940(14)
H4 H -0.0898 0.5435 0.3343
C3 C -0.07274(17) 0.6952(2) 0.39747(13)
H5 H -0.1282 0.7378 0.3826
C4 C -0.01104(17) 0.7452(2) 0.44817(13)
H6 H -0.0260 0.8237 0.4672
C5 C 0.08957(14) 0.57576(17) 0.44482(11)
C6 C 0.22019(15) 0.41698(19) 0.46441(11)
C7 C 0.31854(17) 0.45635(19) 0.57795(13)
C8 C 0.39334(18) 0.3926(2) 0.62153(13)
H7 H 0.4317 0.3302 0.5948
C9 C 0.37782(19) 0.3640(2) 0.70296(13)
C10 C 0.4473(2) 0.4617(3) 0.68099(15)
H8 H 0.5158 0.4435 0.6869
H9 H 0.4295 0.5483 0.6901
C11 C 0.4160(3) 0.2389(2) 0.72840(16)
H10 H 0.4792 0.2251 0.7080
H11 H 0.3729 0.1736 0.7125
H12 H 0.4200 0.2384 0.7810
C12 C 0.2849(2) 0.4015(3) 0.73987(16)
H13 H 0.2951 0.4065 0.7919
H14 H 0.2358 0.3402 0.7296
H15 H 0.2645 0.4818 0.7218
loop_
_geom_bond_atom_site_label_1
_geom_bond_atom_site_label_2
_geom_bond_site_symmetry_1
_geom_bond_site_symmetry_2
S1 C6 1_555 1_555
N1 C4 1_555 1_555
N2 H1 1_555 1_555
N3 H2 1_555 1_555
O1 C7 1_555 1_555
C1 H3 1_555 1_555
C2 C1 1_555 1_555
H4 C2 1_555 1_555
C3 C2 1_555 1_555
H5 C3 1_555 1_555
C4 C3 1_555 1_555
H6 C4 1_555 1_555
C5 N1 1_555 1_555
C6 N2 1_555 1_555
C7 N3 1_555 1_555
C8 C7 1_555 1_555
H7 C8 1_555 1_555
C9 C8 1_555 1_555
C10 C8 1_555 1_555
H8 C10 1_555 1_555
H9 C10 1_555 1_555
C11 C9 1_555 1_555
H10 C11 1_555 1_555
H11 C11 1_555 1_555
H12 C11 1_555 1_555
C12 C9 1_555 1_555
H13 C12 1_555 1_555
H14 C12 1_555 1_555
H15 C12 1_555 1_555
N2 C5 1_555 1_555
N3 C6 1_555 1_555
C1 C5 1_555 1_555
C9 C10 1_555 1_555

#END
