
#######################################################################
#
#                 Cambridge Crystallographic Data Centre
#                                CCDC 
#
#######################################################################
#
# If this CIF has been generated from an entry in the Cambridge 
# Structural Database, then it will include bibliographic, chemical, 
# crystal, experimental, refinement or atomic coordinate data resulting 
# from the CCDC's data processing and validation procedures.
#
#######################################################################

data_DILGOW
_chemical_name_common            
'bis(triethylammonium) 26,28-bis(carboxymethoxy)-25,27-bis(carboxylatomethoxy)calix(4)arene methanol solvate hydrate'
_chemical_formula_moiety         
'C36 H30 O12 2-,2(C6 H16 N1 1+),2(C1 H4 O1),0.25(H2 O1)'
_chemical_name_systematic        
"bis(triethylammonium) 2,2'-((26,28-bis(carboxymethoxy)pentacyclo[19.3.1.1^3,7^.1^9,13^.1^15,19^]octacosa-1(25),3(28),4,6,9(27),10,12,15(26),16,18,21,23-dodecaene-25,27-diyl)bis(oxy))diacetate methanol solvate hydrate"
_symmetry_cell_setting           orthorhombic
_symmetry_space_group_name_H-M   'P 21 21 2'
_symmetry_Int_Tables_number      18
_space_group_name_Hall           'P 2 2ab'
loop_
_symmetry_equiv_pos_site_id
_symmetry_equiv_pos_as_xyz
1 x,y,z
2 -x,-y,z
3 1/2-x,1/2+y,-z
4 1/2+x,1/2-y,-z
_cell_length_a                   13.849(4)
_cell_length_b                   24.297(6)
_cell_length_c                   7.644(2)
_cell_angle_alpha                90
_cell_angle_beta                 90
_cell_angle_gamma                90
_cell_volume                     2572.12
_exptl_crystal_colour            colorless
_exptl_crystal_description       needle
_cell_formula_units_Z            2
loop_
_atom_site_label
_atom_site_type_symbol
_atom_site_fract_x
_atom_site_fract_y
_atom_site_fract_z
O1 O 0.3635(3) 0.39912(14) -0.1774(5)
O2 O 0.3543(3) 0.28402(17) -0.1483(7)
O3 O 0.2188(3) 0.28387(15) -0.3046(6)
H1 H 0.2320 0.2443 -0.2919
O4 O 0.3277(2) 0.57529(14) 0.1551(4)
O5 O 0.1560(3) 0.65640(17) 0.3893(6)
O6 O 0.2971(3) 0.68124(15) 0.2736(6)
C1 C 0.3722(4) 0.40951(19) 0.0011(7)
C2 C 0.4538(4) 0.38785(19) 0.0872(7)
C3 C 0.4648(4) 0.3972(2) 0.2656(7)
H2 H 0.5197 0.3832 0.3250
C4 C 0.3958(4) 0.4271(2) 0.3576(8)
H3 H 0.4009 0.4312 0.4808
C5 C 0.3191(4) 0.4507(2) 0.2671(7)
H4 H 0.2733 0.4722 0.3297
C6 C 0.3074(4) 0.44387(19) 0.0876(7)
C7 C 0.3372(4) 0.5675(2) -0.0247(6)
C8 C 0.2889(4) 0.5251(2) -0.1100(7)
C9 C 0.2975(4) 0.5207(2) -0.2906(7)
H5 H 0.2608 0.4937 -0.3511
C10 C 0.3590(4) 0.5553(2) -0.3849(7)
H6 H 0.3637 0.5524 -0.5085
C11 C 0.4139(4) 0.5943(2) -0.2925(7)
H7 H 0.4590 0.6164 -0.3543
C12 C 0.4037(4) 0.60120(19) -0.1104(7)
C13 C 0.2341(4) 0.47979(19) -0.0094(7)
H8 H 0.1888 0.4967 0.0751
H9 H 0.1964 0.4570 -0.0921
C14 C 0.4662(4) 0.6416(2) -0.0166(7)
H10 H 0.4262 0.6637 0.0645
H11 H 0.4959 0.6670 -0.1025
C15 C 0.2804(4) 0.3694(2) -0.2310(8)
H12 H 0.2647 0.3798 -0.3530
H13 H 0.2253 0.3806 -0.1566
C16 C 0.2912(4) 0.3080(2) -0.2214(8)
C17 C 0.2334(4) 0.5908(2) 0.2160(8)
H14 H 0.2108 0.5632 0.3017
H15 H 0.1881 0.5904 0.1158
C18 C 0.2307(4) 0.6479(2) 0.3016(7)
O1A O 0.6365(3) 0.60088(14) -0.1774(5)
O2A O 0.6457(3) 0.71598(17) -0.1483(7)
O3A O 0.7812(3) 0.71613(15) -0.3046(6)
H1A H 0.7680 0.7557 -0.2919
O4A O 0.6723(2) 0.42471(14) 0.1551(4)
O5A O 0.8440(3) 0.34360(17) 0.3893(6)
O6A O 0.7029(3) 0.31876(15) 0.2736(6)
C1A C 0.6278(4) 0.59049(19) 0.0011(7)
C2A C 0.5462(4) 0.61215(19) 0.0872(7)
C3A C 0.5352(4) 0.6028(2) 0.2656(7)
H2A H 0.4803 0.6168 0.3250
C4A C 0.6042(4) 0.5729(2) 0.3576(8)
H3A H 0.5991 0.5688 0.4808
C5A C 0.6809(4) 0.5493(2) 0.2671(7)
H4A H 0.7267 0.5278 0.3297
C6A C 0.6926(4) 0.55613(19) 0.0876(7)
C7A C 0.6628(4) 0.4325(2) -0.0247(6)
C8A C 0.7111(4) 0.4749(2) -0.1100(7)
C9A C 0.7025(4) 0.4793(2) -0.2906(7)
H5A H 0.7392 0.5063 -0.3511
C10A C 0.6410(4) 0.4447(2) -0.3849(7)
H6A H 0.6363 0.4476 -0.5085
C11A C 0.5861(4) 0.4057(2) -0.2925(7)
H7A H 0.5410 0.3836 -0.3543
C12A C 0.5963(4) 0.39880(19) -0.1104(7)
C13A C 0.7659(4) 0.52021(19) -0.0094(7)
H8A H 0.8112 0.5033 0.0751
H9A H 0.8036 0.5430 -0.0921
C14A C 0.5338(4) 0.3584(2) -0.0166(7)
H10A H 0.5738 0.3363 0.0645
H11A H 0.5041 0.3330 -0.1025
C15A C 0.7196(4) 0.6306(2) -0.2310(8)
H12A H 0.7353 0.6202 -0.3530
H13A H 0.7747 0.6194 -0.1566
C16A C 0.7088(4) 0.6920(2) -0.2214(8)
C17A C 0.7666(4) 0.4092(2) 0.2160(8)
H14A H 0.7892 0.4368 0.3017
H15A H 0.8119 0.4096 0.1158
C18A C 0.7693(4) 0.3521(2) 0.3016(7)
N1 N 0.1297(5) 0.7076(2) 0.6973(8)
H16 H 0.1487 0.6963 0.5862
C19 C 0.0882(7) 0.7590(4) 0.6794(12)
H17 H 0.1392 0.7859 0.6490
H18 H 0.0603 0.7702 0.7933
C20 C 0.0110(6) 0.7614(4) 0.5434(13)
H19 H -0.0151 0.7988 0.5370
H20 H -0.0409 0.7357 0.5742
H21 H 0.0382 0.7511 0.4296
C21 C 0.2225(8) 0.7046(5) 0.8191(16)
H22 H 0.2048 0.7159 0.9393
H23 H 0.2460 0.6662 0.8240
C22 C 0.2974(7) 0.7390(4) 0.7568(14)
H24 H 0.3525 0.7372 0.8370
H25 H 0.2741 0.7770 0.7499
H26 H 0.3175 0.7267 0.6403
C23 C 0.0643(10) 0.6626(5) 0.7705(13)
H27 H 0.1034 0.6293 0.7935
H28 H 0.0151 0.6531 0.6817
C24 C 0.0135(8) 0.6799(5) 0.9394(13)
H29 H -0.0271 0.6495 0.9812
H30 H -0.0269 0.7122 0.9168
H31 H 0.0618 0.6889 1.0285
O7 O 0.0000 0.5000 0.183(6)
H32 H -0.0192 0.4647 0.2194
H32A H 0.0192 0.5353 0.2194
O8 O -0.0090(11) 0.5819(6) 0.353(2)
H33 H 0.0454 0.5993 0.3659
C25 C -0.0912(13) 0.6184(7) 0.330(3)
H34 H -0.1076 0.6355 0.4418
H35 H -0.1465 0.5973 0.2866
H36 H -0.0747 0.6471 0.2445
H37? H -0.0061 0.5249 0.2761
O9? O -0.044(2) 0.5505(9) 0.700(5)
H38? H -0.0672 0.5535 0.5980
C26? C 0.0000 0.5000 0.766(5)
H39? H 0.0696 0.5006 0.7422
H40? H -0.0293 0.4683 0.7069
H41? H -0.0109 0.4972 0.8921
loop_
_geom_bond_atom_site_label_1
_geom_bond_atom_site_label_2
_geom_bond_site_symmetry_1
_geom_bond_site_symmetry_2
O1 C1 1_555 1_555
O2 C16 1_555 1_555
O3 H1 1_555 1_555
O4 C7 1_555 1_555
O5 C18 1_555 1_555
O6 C18 1_555 1_555
C1 C2 1_555 1_555
C2 C3 1_555 1_555
C3 H2 1_555 1_555
C4 C3 1_555 1_555
H3 C4 1_555 1_555
C5 C4 1_555 1_555
H4 C5 1_555 1_555
C6 C1 1_555 1_555
C7 C8 1_555 1_555
C8 C9 1_555 1_555
C9 H5 1_555 1_555
C10 C9 1_555 1_555
H6 C10 1_555 1_555
C11 C10 1_555 1_555
H7 C11 1_555 1_555
C12 C7 1_555 1_555
C13 C6 1_555 1_555
H8 C13 1_555 1_555
H9 C13 1_555 1_555
C14 C12 1_555 1_555
H10 C14 1_555 1_555
H11 C14 1_555 1_555
C15 O1 1_555 1_555
H12 C15 1_555 1_555
H13 C15 1_555 1_555
C16 O3 1_555 1_555
C17 O4 1_555 1_555
H14 C17 1_555 1_555
H15 C17 1_555 1_555
C18 C17 1_555 1_555
N1 H16 1_555 1_555
C19 N1 1_555 1_555
H17 C19 1_555 1_555
H18 C19 1_555 1_555
C20 C19 1_555 1_555
H19 C20 1_555 1_555
H20 C20 1_555 1_555
H21 C20 1_555 1_555
C21 N1 1_555 1_555
H22 C21 1_555 1_555
H23 C21 1_555 1_555
C22 C21 1_555 1_555
H24 C22 1_555 1_555
H25 C22 1_555 1_555
H26 C22 1_555 1_555
C23 N1 1_555 1_555
H27 C23 1_555 1_555
H28 C23 1_555 1_555
C24 C23 1_555 1_555
H29 C24 1_555 1_555
H30 C24 1_555 1_555
H31 C24 1_555 1_555
O7 H32 1_555 1_555
O8 H33 1_555 1_555
C25 O8 1_555 1_555
H34 C25 1_555 1_555
H35 C25 1_555 1_555
H36 C25 1_555 1_555
O1A C1A 1_555 1_555
O2A C16A 1_555 1_555
O3A H1A 1_555 1_555
O4A C7A 1_555 1_555
O5A C18A 1_555 1_555
O6A C18A 1_555 1_555
C1A C2A 1_555 1_555
C2A C14 1_555 1_555
C3A C2A 1_555 1_555
H2A C3A 1_555 1_555
C4A C3A 1_555 1_555
H3A C4A 1_555 1_555
C5A C4A 1_555 1_555
H4A C5A 1_555 1_555
C6A C1A 1_555 1_555
C7A C8A 1_555 1_555
C8A C9A 1_555 1_555
C9A H5A 1_555 1_555
C10A C9A 1_555 1_555
H6A C10A 1_555 1_555
C11A C10A 1_555 1_555
H7A C11A 1_555 1_555
C12A C7A 1_555 1_555
C13A C6A 1_555 1_555
H8A C13A 1_555 1_555
H9A C13A 1_555 1_555
C14A C2 1_555 1_555
H10A C14A 1_555 1_555
H11A C14A 1_555 1_555
C15A O1A 1_555 1_555
H12A C15A 1_555 1_555
H13A C15A 1_555 1_555
C16A O3A 1_555 1_555
C17A O4A 1_555 1_555
H14A C17A 1_555 1_555
H15A C17A 1_555 1_555
C18A C17A 1_555 1_555
H32A O7 1_555 1_555
C5 C6 1_555 1_555
C8 C13 1_555 1_555
C11 C12 1_555 1_555
C15 C16 1_555 1_555
C5A C6A 1_555 1_555
C8A C13A 1_555 1_555
C11A C12A 1_555 1_555
C12A C14A 1_555 1_555
C15A C16A 1_555 1_555

#END
