
#######################################################################
#
#                 Cambridge Crystallographic Data Centre
#                                CCDC 
#
#######################################################################
#
# If this CIF has been generated from an entry in the Cambridge 
# Structural Database, then it will include bibliographic, chemical, 
# crystal, experimental, refinement or atomic coordinate data resulting 
# from the CCDC's data processing and validation procedures.
#
#######################################################################

data_DILHEM
_chemical_formula_moiety         'C22 H17 N1 S2'
_chemical_name_systematic        9-Ethyl-3,6-bis(2-thienyl)carbazole
_symmetry_cell_setting           triclinic
_symmetry_space_group_name_H-M   'P -1'
_symmetry_Int_Tables_number      2
_space_group_name_Hall           '-P 1'
loop_
_symmetry_equiv_pos_site_id
_symmetry_equiv_pos_as_xyz
1 x,y,z
2 -x,-y,-z
_cell_length_a                   13.826(5)
_cell_length_b                   14.436(5)
_cell_length_c                   15.525(5)
_cell_angle_alpha                70.674(5)
_cell_angle_beta                 69.206(5)
_cell_angle_gamma                87.850(5)
_cell_volume                     2722.34
_exptl_crystal_colour            yellow
_exptl_crystal_description       plate
_cell_formula_units_Z            6
loop_
_atom_site_label
_atom_site_type_symbol
_atom_site_fract_x
_atom_site_fract_y
_atom_site_fract_z
S1 S 0.71244(10) 0.73415(7) -0.10946(9)
S3 S 0.51077(10) 0.03050(9) 0.11620(10)
N1 N 0.8483(2) 0.31631(19) 0.1567(2)
C1 C 0.8887(4) 0.3126(4) 0.2850(6)
H1 H 0.8568 0.3730 0.2842
H2 H 0.9368 0.3050 0.3183
H3 H 0.8361 0.2581 0.3186
C2 C 0.9394(6) 0.3151(3) 0.1930(4)
H4 H 0.9770 0.2573 0.1913
H5 H 0.9873 0.3739 0.1547
C3 C 0.8148(2) 0.3983(2) 0.1017(2)
C4 C 0.73899(19) 0.36810(18) 0.07278(17)
C5 C 0.69553(19) 0.43772(18) 0.01479(18)
H6 H 0.6458 0.4179 -0.0046
C6 C 0.7267(2) 0.53743(18) -0.01424(19)
C7 C 0.8000(3) 0.5648(2) 0.0185(2)
H7 H 0.8189 0.6315 0.0011
C8 C 0.8451(3) 0.4974(2) 0.0750(3)
H8 H 0.8944 0.5176 0.0948
C9 C 0.6841(2) 0.61193(19) -0.0791(2)
C10 C 0.61263(17) 0.59080(15) -0.12592(16)
H9 H 0.5870 0.5300 -0.1213
C12 C 0.5931(3) 0.6909(3) -0.1812(3)
H11 H 0.550(3) 0.698(3) -0.216(3)
C13 C 0.6414(3) 0.7662(3) -0.1768(3)
H12 H 0.636(3) 0.839(3) -0.206(3)
C14 C 0.7929(2) 0.2335(2) 0.1665(2)
C15 C 0.72440(19) 0.26127(18) 0.11561(17)
C16 C 0.65954(18) 0.18905(17) 0.11686(17)
H13 H 0.6138 0.2068 0.0835
C17 C 0.66299(18) 0.09035(17) 0.16788(18)
C18 C 0.7337(2) 0.0654(2) 0.2172(2)
H14 H 0.7364 -0.0006 0.2509
C19 C 0.7985(3) 0.1348(2) 0.2172(3)
H15 H 0.8447 0.1169 0.2499
C20 C 0.59496(19) 0.01153(18) 0.17285(18)
C21 C 0.58974(13) -0.10133(10) 0.23914(13)
H16 H 0.6243 -0.1315 0.2813
C23 C 0.5085(3) -0.1447(3) 0.2107(3)
H18 H 0.491(3) -0.208(3) 0.237(3)
C24 C 0.4697(3) -0.0816(3) 0.1512(3)
H19 H 0.416(4) -0.097(3) 0.130(3)
S5 S 0.80073(9) 0.72853(8) 0.19477(7)
S6 S 0.57467(7) 0.42975(8) 0.71323(7)
N2 N 1.04847(17) 0.38998(17) 0.42305(17)
C25 C 1.1401(3) 0.2518(3) 0.3855(3)
H20 H 1.0839 0.2050 0.4348
H21 H 1.2045 0.2223 0.3790
H22 H 1.1301 0.2713 0.3240
C26 C 1.1428(2) 0.3390(2) 0.4140(2)
H23 H 1.1528 0.3188 0.4761
H24 H 1.2018 0.3845 0.3654
C27 C 1.0308(2) 0.46353(19) 0.34844(19)
C28 C 0.93146(19) 0.49525(18) 0.38463(18)
C29 C 0.8959(2) 0.56896(18) 0.32279(18)
H25 H 0.8307 0.5904 0.3471
C30 C 0.9580(2) 0.61119(19) 0.22376(18)
C31 C 1.0566(2) 0.5771(2) 0.1899(2)
H26 H 1.0979 0.6046 0.1239
C32 C 1.0940(2) 0.5054(2) 0.2497(2)
H27 H 1.1597 0.4849 0.2254
C33 C 0.9213(2) 0.6882(2) 0.1564(2)
C34 C 0.9754(3) 0.7401(2) 0.0557(2)
H28 H 1.0422 0.7301 0.0195
C35 C 0.9120(4) 0.8099(3) 0.0179(3)
H29 H 0.9342 0.8512 -0.0471
C36 C 0.8199(4) 0.8116(3) 0.0819(3)
H30 H 0.7708 0.8535 0.0671
C37 C 0.9612(2) 0.37190(19) 0.5078(2)
C38 C 0.88737(19) 0.43696(17) 0.48713(18)
C39 C 0.79393(19) 0.43471(18) 0.56199(18)
H31 H 0.7453 0.4779 0.5489
C40 C 0.7725(2) 0.36834(18) 0.65638(18)
C41 C 0.8477(2) 0.30319(19) 0.6736(2)
H32 H 0.8336 0.2582 0.7364
C42 C 0.9404(2) 0.3039(2) 0.6014(2)
H33 H 0.9884 0.2598 0.6145
C43 C 0.6749(2) 0.36582(18) 0.73637(19)
C44 C 0.6492(2) 0.31051(18) 0.84272(17)
H34 H 0.6917 0.2717 0.8723
C45 C 0.5429(3) 0.3306(3) 0.8902(2)
H35 H 0.5082 0.3032 0.9576
C46 C 0.4976(3) 0.3902(3) 0.8324(2)
H36 H 0.4305 0.4080 0.8557
S7 S 1.19353(8) 0.99255(10) 0.17451(9)
S9 S 0.39927(16) 0.64444(17) 0.67458(19)
N3 N 0.7489(2) 1.01317(19) 0.53198(19)
C47 C 0.7056(5) 1.1735(3) 0.5483(4)
H37 H 0.7553 1.2076 0.4841
H38 H 0.6989 1.2121 0.5896
H39 H 0.6395 1.1636 0.5438
C48 C 0.7408(3) 1.0782(3) 0.5898(3)
H40 H 0.6925 1.0459 0.6561
H41 H 0.8081 1.0886 0.5930
C49 C 0.8363(2) 1.0072(2) 0.4559(2)
C50 C 0.8150(2) 0.93445(18) 0.42109(18)
C51 C 0.8915(2) 0.91588(18) 0.34354(18)
H42 H 0.8782 0.8673 0.3210
C52 C 0.9881(2) 0.96989(18) 0.2995(2)
C53 C 1.0070(2) 1.0402(2) 0.3377(2)
H43 H 1.0722 1.0749 0.3097
C54 C 0.9331(3) 1.0597(2) 0.4145(2)
H44 H 0.9475 1.1068 0.4381
C55 C 1.0670(2) 0.95582(19) 0.2127(2)
C56 C 1.04342(18) 0.90629(16) 0.14985(16)
H45 H 0.9801 0.8786 0.1571
C58 C 1.1501(3) 0.9132(3) 0.0715(3)
H47 H 1.152(4) 0.889(3) 0.021(3)
C59 C 1.2267(3) 0.9560(3) 0.0796(3)
H48 H 1.290(4) 0.964(3) 0.040(3)
C60 C 0.6711(2) 0.9463(2) 0.5461(2)
C61 C 0.7091(2) 0.89398(19) 0.48028(19)
C62 C 0.6470(2) 0.8165(2) 0.48735(19)
H49 H 0.6725 0.7808 0.4452
C63 C 0.5466(2) 0.7918(2) 0.5575(2)
C64 C 0.5089(3) 0.8504(2) 0.6172(2)
H50 H 0.4405 0.8369 0.6612
C65 C 0.5689(3) 0.9260(2) 0.6129(2)
H51 H 0.5422 0.9631 0.6535
C66 C 0.4823(2) 0.7047(2) 0.5730(2)
C67 C 0.49871(12) 0.65660(11) 0.48471(11)
H52 H 0.5439 0.6736 0.4199
C69 C 0.4048(3) 0.5678(4) 0.5558(4)
H54 H 0.396(4) 0.522(4) 0.533(4)
C70 C 0.3597(3) 0.5652(3) 0.6472(4)
H55 H 0.300(4) 0.511(3) 0.708(3)
S2? S 0.61263(17) 0.59080(15) -0.12592(16)
S4? S 0.58974(13) -0.10133(10) 0.23914(13)
S8? S 1.04342(18) 0.90629(16) 0.14985(16)
S10? S 0.49871(12) 0.65660(11) 0.48471(11)
C11? C 0.71244(10) 0.73415(7) -0.10946(9)
H10? H 0.7537 0.7701 -0.0934
C22? C 0.51077(10) 0.03050(9) 0.11620(10)
H17? H 0.4935 0.0877 0.0770
C57? C 1.19353(8) 0.99255(10) 0.17451(9)
H46? H 1.2312 1.0228 0.1986
C68? C 0.39927(16) 0.64444(17) 0.67458(19)
H53? H 0.3796 0.6542 0.7346
loop_
_geom_bond_atom_site_label_1
_geom_bond_atom_site_label_2
_geom_bond_site_symmetry_1
_geom_bond_site_symmetry_2
S1 C9 1_555 1_555
S3 C20 1_555 1_555
S5 C33 1_555 1_555
S6 C43 1_555 1_555
S7 C55 1_555 1_555
S9 C66 1_555 1_555
N1 C2 1_555 1_555
N2 C26 1_555 1_555
N3 C48 1_555 1_555
C1 H1 1_555 1_555
H2 C1 1_555 1_555
H3 C1 1_555 1_555
C2 C1 1_555 1_555
H4 C2 1_555 1_555
H5 C2 1_555 1_555
C3 N1 1_555 1_555
C4 C3 1_555 1_555
C5 C4 1_555 1_555
H6 C5 1_555 1_555
C6 C5 1_555 1_555
C7 C6 1_555 1_555
H7 C7 1_555 1_555
C8 C3 1_555 1_555
H8 C8 1_555 1_555
C9 C6 1_555 1_555
C10 C9 1_555 1_555
H9 C10 1_555 1_555
C12 C10 1_555 1_555
H11 C12 1_555 1_555
C13 S1 1_555 1_555
H12 C13 1_555 1_555
C14 N1 1_555 1_555
C15 C4 1_555 1_555
C16 C15 1_555 1_555
H13 C16 1_555 1_555
C17 C16 1_555 1_555
C18 C17 1_555 1_555
H14 C18 1_555 1_555
C19 C14 1_555 1_555
H15 C19 1_555 1_555
C20 C17 1_555 1_555
C21 C20 1_555 1_555
H16 C21 1_555 1_555
C23 C21 1_555 1_555
H18 C23 1_555 1_555
C24 S3 1_555 1_555
H19 C24 1_555 1_555
C25 H20 1_555 1_555
H21 C25 1_555 1_555
H22 C25 1_555 1_555
C26 C25 1_555 1_555
H23 C26 1_555 1_555
H24 C26 1_555 1_555
C27 N2 1_555 1_555
C28 C27 1_555 1_555
C29 C28 1_555 1_555
H25 C29 1_555 1_555
C30 C29 1_555 1_555
C31 C30 1_555 1_555
H26 C31 1_555 1_555
C32 C27 1_555 1_555
H27 C32 1_555 1_555
C33 C30 1_555 1_555
C34 C33 1_555 1_555
H28 C34 1_555 1_555
C35 C34 1_555 1_555
H29 C35 1_555 1_555
C36 S5 1_555 1_555
H30 C36 1_555 1_555
C37 N2 1_555 1_555
C38 C28 1_555 1_555
C39 C38 1_555 1_555
H31 C39 1_555 1_555
C40 C39 1_555 1_555
C41 C40 1_555 1_555
H32 C41 1_555 1_555
C42 C37 1_555 1_555
H33 C42 1_555 1_555
C43 C40 1_555 1_555
C44 C43 1_555 1_555
H34 C44 1_555 1_555
C45 C44 1_555 1_555
H35 C45 1_555 1_555
C46 S6 1_555 1_555
H36 C46 1_555 1_555
C47 H37 1_555 1_555
H38 C47 1_555 1_555
H39 C47 1_555 1_555
C48 C47 1_555 1_555
H40 C48 1_555 1_555
H41 C48 1_555 1_555
C49 N3 1_555 1_555
C50 C49 1_555 1_555
C51 C50 1_555 1_555
H42 C51 1_555 1_555
C52 C51 1_555 1_555
C53 C52 1_555 1_555
H43 C53 1_555 1_555
C54 C49 1_555 1_555
H44 C54 1_555 1_555
C55 C52 1_555 1_555
C56 C55 1_555 1_555
H45 C56 1_555 1_555
C58 C56 1_555 1_555
H47 C58 1_555 1_555
C59 S7 1_555 1_555
H48 C59 1_555 1_555
C60 N3 1_555 1_555
C61 C50 1_555 1_555
C62 C61 1_555 1_555
H49 C62 1_555 1_555
C63 C62 1_555 1_555
C64 C63 1_555 1_555
H50 C64 1_555 1_555
C65 C60 1_555 1_555
H51 C65 1_555 1_555
C66 C63 1_555 1_555
C67 C66 1_555 1_555
H52 C67 1_555 1_555
C69 C67 1_555 1_555
H54 C69 1_555 1_555
C70 S9 1_555 1_555
H55 C70 1_555 1_555
C7 C8 1_555 1_555
C12 C13 1_555 1_555
C14 C15 1_555 1_555
C18 C19 1_555 1_555
C23 C24 1_555 1_555
C31 C32 1_555 1_555
C35 C36 1_555 1_555
C37 C38 1_555 1_555
C41 C42 1_555 1_555
C45 C46 1_555 1_555
C53 C54 1_555 1_555
C58 C59 1_555 1_555
C60 C61 1_555 1_555
C64 C65 1_555 1_555
C69 C70 1_555 1_555

#END
