
#######################################################################
#
#                 Cambridge Crystallographic Data Centre
#                                CCDC 
#
#######################################################################
#
# If this CIF has been generated from an entry in the Cambridge 
# Structural Database, then it will include bibliographic, chemical, 
# crystal, experimental, refinement or atomic coordinate data resulting 
# from the CCDC's data processing and validation procedures.
#
#######################################################################

data_DILJIS
_chemical_formula_moiety         'C5 H6 N1 O1 1+,Cl1 O4 1-'
_chemical_name_systematic        '3-Hydroxypyridinium perchlorate'
_symmetry_cell_setting           triclinic
_symmetry_space_group_name_H-M   'P -1'
_symmetry_Int_Tables_number      2
_space_group_name_Hall           '-P 1'
loop_
_symmetry_equiv_pos_site_id
_symmetry_equiv_pos_as_xyz
1 x,y,z
2 -x,-y,-z
_cell_length_a                   5.289(5)
_cell_length_b                   8.308(8)
_cell_length_c                   9.047(8)
_cell_angle_alpha                100.346(9)
_cell_angle_beta                 94.286(9)
_cell_angle_gamma                101.732(9)
_cell_volume                     380.338
_exptl_crystal_colour            colorless
_exptl_crystal_description       block
_cell_formula_units_Z            2
loop_
_atom_site_label
_atom_site_type_symbol
_atom_site_fract_x
_atom_site_fract_y
_atom_site_fract_z
Cl1 Cl 0.99857(8) 0.81013(6) 0.26437(5)
O2 O 1.1783(3) 0.8632(2) 0.39855(18)
O3 O 0.7448(3) 0.8283(3) 0.2972(2)
O4 O 1.0803(3) 0.9099(2) 0.15520(18)
O5 O 0.9893(4) 0.6374(2) 0.2005(2)
O1 O 0.8190(3) 0.5623(2) 0.61642(19)
H1 H 0.8863 0.5079 0.6687
N1 N 0.3914(3) 0.8349(2) 0.70012(19)
H2 H 0.3169 0.8974 0.6535
C1 C 0.5440(4) 0.7477(3) 0.6254(2)
H3 H 0.5680 0.7548 0.5258
C2 C 0.6662(4) 0.6466(2) 0.6984(2)
C3 C 0.6274(4) 0.6413(3) 0.8472(2)
H4 H 0.7100 0.5756 0.8988
C4 C 0.4666(4) 0.7332(3) 0.9187(2)
H5 H 0.4392 0.7287 1.0183
C5 C 0.3469(4) 0.8310(3) 0.8432(2)
H6 H 0.2373 0.8933 0.8903
loop_
_geom_bond_atom_site_label_1
_geom_bond_atom_site_label_2
_geom_bond_site_symmetry_1
_geom_bond_site_symmetry_2
Cl1 O2 1_555 1_555
O1 H1 1_555 1_555
O3 Cl1 1_555 1_555
O4 Cl1 1_555 1_555
O5 Cl1 1_555 1_555
N1 H2 1_555 1_555
C1 N1 1_555 1_555
H3 C1 1_555 1_555
C2 O1 1_555 1_555
C3 C2 1_555 1_555
H4 C3 1_555 1_555
C4 C3 1_555 1_555
H5 C4 1_555 1_555
C5 N1 1_555 1_555
H6 C5 1_555 1_555
C1 C2 1_555 1_555
C4 C5 1_555 1_555

#END
