
#######################################################################
#
#                 Cambridge Crystallographic Data Centre
#                                CCDC 
#
#######################################################################
#
# If this CIF has been generated from an entry in the Cambridge 
# Structural Database, then it will include bibliographic, chemical, 
# crystal, experimental, refinement or atomic coordinate data resulting 
# from the CCDC's data processing and validation procedures.
#
#######################################################################

data_DILLOZ
_chemical_formula_moiety         'C16 H18 N1 O3 P1'
_chemical_name_systematic        
'N-(Diphenylphosphine-oxide)alanine methyl ester'
_symmetry_cell_setting           orthorhombic
_symmetry_space_group_name_H-M   'P 21 21 21'
_symmetry_Int_Tables_number      19
_space_group_name_Hall           'P 2ac 2ab'
loop_
_symmetry_equiv_pos_site_id
_symmetry_equiv_pos_as_xyz
1 x,y,z
2 1/2-x,-y,1/2+z
3 1/2+x,1/2-y,-z
4 -x,1/2+y,1/2-z
_cell_length_a                   9.911(4)
_cell_length_b                   16.940(4)
_cell_length_c                   9.442(4)
_cell_angle_alpha                90
_cell_angle_beta                 90
_cell_angle_gamma                90
_cell_volume                     1585.24
_exptl_crystal_colour            colorless
_exptl_crystal_description       prism
_cell_formula_units_Z            4
loop_
_atom_site_label
_atom_site_type_symbol
_atom_site_fract_x
_atom_site_fract_y
_atom_site_fract_z
P1 P 0.9283(1) 0.24700(6) 0.9258(1)
O1 O 1.0745(2) 0.2254(1) 0.9253(2)
O2 O 0.9034(3) 0.1172(1) 1.2518(3)
O3 O 1.0407(3) 0.1830(1) 1.3911(2)
N1 N 0.8611(2) 0.2496(1) 1.0828(2)
C1 C 0.8628(4) 0.3143(2) 1.3139(3)
C2 C 0.9362(4) 0.2574(2) 1.2144(3)
C3 C 0.9507(4) 0.1753(2) 1.2852(3)
C4 C 1.0680(4) 0.1132(2) 1.4744(3)
C5 C 0.8197(4) 0.1829(2) 0.8277(3)
C6 C 0.7607(4) 0.1164(2) 0.8947(3)
C7 C 0.6841(5) 0.0625(2) 0.8197(4)
C8 C 0.6709(5) 0.0715(2) 0.6803(4)
C9 C 0.7243(4) 0.1363(2) 0.6094(3)
C10 C 0.7994(4) 0.1910(2) 0.6847(3)
C11 C 0.9107(4) 0.3466(2) 0.8468(3)
C12 C 0.7908(4) 0.3865(2) 0.8666(3)
C13 C 0.7801(4) 0.4625(2) 0.8100(4)
C14 C 0.8838(4) 0.4908(2) 0.7293(4)
C15 C 0.9989(5) 0.4521(2) 0.7080(4)
C16 C 1.0153(4) 0.3771(2) 0.7681(3)
H1 H 0.7647 0.2565 1.0930
H2 H 0.9160 0.3201 1.3996
H3 H 0.8530 0.3638 1.2713
H4 H 0.7780 0.2929 1.3394
H5 H 1.0225 0.2789 1.1937
H6 H 1.1313 0.1247 1.5471
H7 H 1.1048 0.0746 1.4124
H8 H 0.9872 0.0935 1.5154
H9 H 0.7725 0.1095 0.9938
H10 H 0.6455 0.0181 0.8659
H11 H 0.6207 0.0338 0.6275
H12 H 0.7079 0.1436 0.5112
H13 H 0.8405 0.2337 0.6358
H14 H 0.7172 0.3631 0.9154
H15 H 0.7013 0.4928 0.8284
H16 H 0.8746 0.5417 0.6882
H17 H 1.0708 0.4736 0.6537
H18 H 1.0947 0.3474 0.7496
loop_
_geom_bond_atom_site_label_1
_geom_bond_atom_site_label_2
_geom_bond_site_symmetry_1
_geom_bond_site_symmetry_2
P1 O1 1_555 1_555
O2 C3 1_555 1_555
O3 C3 1_555 1_555
N1 P1 1_555 1_555
C1 C2 1_555 1_555
C2 N1 1_555 1_555
C3 C2 1_555 1_555
C4 O3 1_555 1_555
C5 P1 1_555 1_555
C6 C5 1_555 1_555
C7 C6 1_555 1_555
C8 C7 1_555 1_555
C9 C8 1_555 1_555
C10 C5 1_555 1_555
C11 P1 1_555 1_555
C12 C11 1_555 1_555
C13 C12 1_555 1_555
C14 C13 1_555 1_555
C15 C14 1_555 1_555
C16 C11 1_555 1_555
H1 N1 1_555 1_555
H2 C1 1_555 1_555
H3 C1 1_555 1_555
H4 C1 1_555 1_555
H5 C2 1_555 1_555
H6 C4 1_555 1_555
H7 C4 1_555 1_555
H8 C4 1_555 1_555
H9 C6 1_555 1_555
H10 C7 1_555 1_555
H11 C8 1_555 1_555
H12 C9 1_555 1_555
H13 C10 1_555 1_555
H14 C12 1_555 1_555
H15 C13 1_555 1_555
H16 C14 1_555 1_555
H17 C15 1_555 1_555
H18 C16 1_555 1_555
C9 C10 1_555 1_555
C15 C16 1_555 1_555

#END
