
#######################################################################
#
#                 Cambridge Crystallographic Data Centre
#                                CCDC 
#
#######################################################################
#
# If this CIF has been generated from an entry in the Cambridge 
# Structural Database, then it will include bibliographic, chemical, 
# crystal, experimental, refinement or atomic coordinate data resulting 
# from the CCDC's data processing and validation procedures.
#
#######################################################################

data_DILREY
_chemical_compound_source        'Streptomyces sp.'
_chemical_name_common            'dihydrochalcomycin hexahydrate'
_chemical_formula_moiety         'C35 H58 O14,6(H2 O1)'
_chemical_name_systematic        
'12-hydroxy-2-{[(5-hydroxy-3,4-dimethoxy-6-methyloxan-2-yl)oxy]methyl}-9-[(3-hydroxy-4-methoxy-6-methyloxan-2-yl)oxy]-3,8,10,12-tetramethyl-4,17-dioxabicyclo[14.1.0]heptadec-6-ene-5,13-dione hexahydrate'
_symmetry_cell_setting           monoclinic
_symmetry_space_group_name_H-M   'P 21'
_symmetry_Int_Tables_number      4
_space_group_name_Hall           'P 2yb'
loop_
_symmetry_equiv_pos_site_id
_symmetry_equiv_pos_as_xyz
1 x,y,z
2 -x,1/2+y,-z
_cell_length_a                   13.932(3)
_cell_length_b                   25.605(5)
_cell_length_c                   14.049(3)
_cell_angle_alpha                90
_cell_angle_beta                 119.73(3)
_cell_angle_gamma                90
_cell_volume                     4352.01
_exptl_crystal_colour            colorless
_exptl_crystal_description       needles
_cell_formula_units_Z            4
_exptl_crystal_recrystallization_method 
'Re-crystallisation from solvent: methanol/water'
loop_
_atom_site_label
_atom_site_type_symbol
_atom_site_fract_x
_atom_site_fract_y
_atom_site_fract_z
O1 O 0.4046(9) 0.4505(4) 0.3490(9)
O2 O 0.1581(9) 0.5947(5) -0.1811(9)
H1 H 0.1513 0.5637 -0.1984
O3 O 0.2902(11) 0.5156(6) -0.0993(11)
O4 O 0.7122(9) 0.5257(5) 0.2214(11)
O5 O 0.5384(7) 0.5078(4) 0.3772(8)
C1 C 0.4361(13) 0.4948(6) 0.3490(13)
C2 C 0.3606(11) 0.5415(6) 0.3037(11)
H2 H 0.3901 0.5741 0.3035
C3 C 0.2522(12) 0.5367(6) 0.2643(11)
H3 H 0.2254 0.5036 0.2657
C4 C 0.1704(13) 0.5802(7) 0.2179(13)
H4 H 0.2075 0.6123 0.2153
C5 C 0.0815(12) 0.5639(6) 0.0993(12)
H5 H 0.0474 0.5314 0.1045
C6 C 0.1267(12) 0.5545(6) 0.0229(10)
H6 H 0.1866 0.5289 0.0582
C7 C 0.1768(12) 0.6046(6) 0.0019(12)
H7 H 0.2304 0.6188 0.0726
H8 H 0.1179 0.6301 -0.0330
C8 C 0.2348(11) 0.5997(7) -0.0695(12)
C9 C 0.3104(13) 0.5498(6) -0.0304(13)
C10 C 0.4004(16) 0.5437(9) 0.0833(16)
H9 H 0.3893 0.5116 0.1134
H10 H 0.3984 0.5725 0.1271
C11 C 0.5143(12) 0.5421(7) 0.0906(11)
H11 H 0.5192 0.5110 0.0538
H12 H 0.5218 0.5722 0.0529
C12 C 0.6049(11) 0.5419(5) 0.2044(12)
H13 H 0.6049 0.5703 0.2512
C13 C 0.6531(10) 0.4939(6) 0.2579(14)
H14 H 0.6197 0.4623 0.2145
C14 C 0.7084(12) 0.4869(6) 0.3852(13)
H15 H 0.7341 0.5209 0.4213
C15 C 0.6210(12) 0.4645(7) 0.4111(12)
H16 H 0.5861 0.4339 0.3646
C16 C 0.6655(12) 0.4494(9) 0.5328(12)
H17 H 0.6638 0.4794 0.5728
H18 H 0.7402 0.4370 0.5638
H19 H 0.6201 0.4223 0.5370
C17 C 0.8058(12) 0.4498(6) 0.4240(12)
H20 H 0.8531 0.4614 0.3957
H21 H 0.8487 0.4508 0.5034
C18 C 0.1178(13) 0.5887(7) 0.2899(11)
H22 H 0.0739 0.5589 0.2848
H23 H 0.0718 0.6192 0.2654
H24 H 0.1749 0.5934 0.3646
C19 C 0.0386(13) 0.5306(7) -0.0861(12)
H25 H 0.0067 0.5005 -0.0716
H26 H 0.0722 0.5204 -0.1286
H27 H -0.0181 0.5560 -0.1261
C20 C 0.3025(16) 0.6462(8) -0.0546(13)
H28 H 0.3068 0.6521 -0.1198
H29 H 0.3755 0.6408 0.0063
H30 H 0.2695 0.6759 -0.0405
O6 O -0.0038(7) 0.6040(4) 0.0558(8)
O7 O -0.1336(11) 0.6677(6) 0.1098(12)
H31 H -0.1494 0.6975 0.0855
O8 O -0.3727(10) 0.6495(7) -0.0248(13)
O9 O -0.1513(8) 0.5523(4) -0.0500(9)
C21 C -0.1047(12) 0.5876(5) 0.0383(12)
H32 H -0.0917 0.5682 0.1038
C22 C -0.1809(14) 0.6327(6) 0.0250(15)
H33 H -0.1930 0.6517 -0.0406
C23 C -0.2930(15) 0.6131(8) 0.0007(18)
H34 H -0.2830 0.5945 0.0659
C24 C -0.3356(14) 0.5748(7) -0.0908(15)
H35 H -0.3483 0.5922 -0.1574
H36 H -0.4056 0.5608 -0.1032
C25 C -0.2537(14) 0.5306(7) -0.0644(17)
H37 H -0.2414 0.5117 0.0014
C26 C -0.2845(17) 0.4932(7) -0.1597(16)
H38 H -0.3445 0.5076 -0.2253
H39 H -0.3065 0.4603 -0.1440
H40 H -0.2218 0.4882 -0.1697
C27 C -0.3717(17) 0.6744(10) 0.064(2)
H41 H -0.3239 0.6558 0.1306
H42 H -0.4452 0.6751 0.0539
H43 H -0.3452 0.7095 0.0701
O10 O 0.7740(8) 0.4000(4) 0.3915(8)
O11 O 0.7210(9) 0.3061(6) 0.4648(9)
O12 O 0.9347(9) 0.2713(5) 0.5869(10)
O13 O 1.0415(11) 0.2285(6) 0.4750(12)
H44 H 1.0728 0.2302 0.5421
O14 O 0.9321(8) 0.3630(4) 0.4112(10)
C28 C 0.8544(11) 0.3608(5) 0.4455(11)
H45 H 0.8918 0.3676 0.5246
C29 C 0.7965(14) 0.3094(7) 0.4238(18)
H46 H 0.7547 0.3041 0.3443
C30 C 0.8800(16) 0.2652(6) 0.4743(14)
H47 H 0.8427 0.2312 0.4536
C31 C 0.9629(18) 0.2711(7) 0.4282(15)
H48 H 0.9222 0.2679 0.3481
C32 C 1.0142(13) 0.3220(7) 0.4587(13)
H49 H 1.0567 0.3254 0.5387
C33 C 1.092(2) 0.3324(10) 0.406(3)
H50 H 1.1671 0.3240 0.4587
H51 H 1.0871 0.3685 0.3856
H52 H 1.0680 0.3109 0.3422
C34 C 0.6041(14) 0.3137(9) 0.3815(15)
H53 H 0.5992 0.3374 0.3263
H54 H 0.5647 0.3278 0.4155
H55 H 0.5722 0.2807 0.3482
C35 C 0.947(3) 0.2275(9) 0.643(3)
H56 H 0.9391 0.2350 0.7058
H57 H 1.0196 0.2133 0.6673
H58 H 0.8923 0.2026 0.5972
O15 O 0.0624(10) 0.4896(4) 0.6747(9)
O16 O 0.3468(9) 0.3417(5) 1.2114(8)
H59 H 0.4135 0.3472 1.2466
O17 O 0.4225(13) 0.4106(7) 1.1327(12)
O18 O 0.5062(9) 0.4169(5) 0.8065(9)
O19 O 0.1767(8) 0.4335(4) 0.6583(8)
C36 C 0.0983(10) 0.4456(6) 0.6841(10)
C37 C 0.0652(13) 0.3994(6) 0.7239(12)
H60 H 0.0931 0.3669 0.7205
C38 C -0.0006(11) 0.4024(6) 0.7631(12)
H61 H -0.0311 0.4351 0.7602
C39 C -0.0342(12) 0.3589(7) 0.8134(11)
H62 H 0.0057 0.3272 0.8145
C40 C -0.0034(12) 0.3721(6) 0.9286(13)
H63 H -0.0431 0.4041 0.9260
C41 C 0.1229(11) 0.3831(6) 1.0055(12)
H64 H 0.1477 0.4076 0.9687
C42 C 0.1889(13) 0.3317(6) 1.0278(15)
H65 H 0.1616 0.3072 1.0615
H66 H 0.1729 0.3170 0.9577
C43 C 0.3145(12) 0.3352(6) 1.1002(12)
C44 C 0.3652(13) 0.3796(7) 1.0645(12)
C45 C 0.3401(14) 0.3837(7) 0.9517(14)
H67 H 0.2899 0.4127 0.9169
H68 H 0.3035 0.3521 0.9127
C46 C 0.4466(13) 0.3923(7) 0.9434(14)
H69 H 0.4849 0.4233 0.9845
H70 H 0.4957 0.3627 0.9752
C47 C 0.4176(13) 0.3986(6) 0.8264(15)
H71 H 0.3701 0.3712 0.7767
C48 C 0.4099(12) 0.4500(6) 0.7742(13)
H72 H 0.4202 0.4812 0.8188
C49 C 0.3376(12) 0.4559(6) 0.6490(12)
H73 H 0.3279 0.4210 0.6168
C50 C 0.2247(15) 0.4758(5) 0.6214(16)
H74 H 0.2330 0.5076 0.6636
C51 C 0.1511(12) 0.4860(7) 0.5068(14)
H75 H 0.1315 0.4537 0.4670
H76 H 0.1872 0.5083 0.4793
H77 H 0.0855 0.5029 0.4977
C52 C 0.3966(11) 0.4902(6) 0.6022(13)
H78 H 0.4716 0.4780 0.6286
H79 H 0.3570 0.4891 0.5227
C53 C -0.1539(14) 0.3488(8) 0.7449(16)
H80 H -0.1734 0.3185 0.7719
H81 H -0.1715 0.3429 0.6704
H82 H -0.1946 0.3784 0.7478
C54 C 0.1434(18) 0.4078(8) 1.1143(13)
H83 H 0.1346 0.3816 1.1584
H84 H 0.0912 0.4354 1.0991
H85 H 0.2171 0.4216 1.1531
C55 C 0.3647(15) 0.2826(6) 1.0881(15)
H86 H 0.4437 0.2837 1.1328
H87 H 0.3449 0.2776 1.0128
H88 H 0.3362 0.2542 1.1114
O20 O -0.0363(8) 0.3330(4) 0.9784(8)
O21 O -0.2036(12) 0.2597(5) 0.9517(10)
H89 H -0.2265 0.2730 0.8912
O22 O -0.2680(11) 0.2705(5) 1.1116(11)
O23 O -0.0820(8) 0.3847(4) 1.0812(9)
C56 C -0.1235(12) 0.3466(6) 0.9996(11)
H90 H -0.1860 0.3609 0.9329
C57 C -0.1590(11) 0.2990(6) 1.0337(12)
H91 H -0.0958 0.2846 1.0996
C58 C -0.2505(13) 0.3152(6) 1.0613(12)
H92 H -0.3188 0.3234 0.9933
C59 C -0.2161(14) 0.3619(6) 1.1363(15)
H93 H -0.2801 0.3746 1.1394
H94 H -0.1619 0.3507 1.2095
C60 C -0.1686(12) 0.4062(6) 1.1041(13)
H95 H -0.2274 0.4218 1.0367
C61 C -0.1182(14) 0.4458(7) 1.1833(14)
H96 H -0.1665 0.4557 1.2107
H97 H -0.1041 0.4755 1.1505
H98 H -0.0498 0.4331 1.2426
C62 C -0.3692(14) 0.2715(9) 1.1118(16)
H99 H -0.3765 0.3043 1.1407
H100 H -0.3707 0.2436 1.1566
H101 H -0.4292 0.2674 1.0382
O24 O 0.3971(9) 0.5429(5) 0.6410(9)
O25 O 0.2730(12) 0.6379(6) 0.5626(11)
O26 O 0.3647(12) 0.6662(5) 0.4349(10)
O27 O 0.5821(15) 0.7056(6) 0.5333(13)
H102 H 0.6390 0.7203 0.5780
O28 O 0.5381(9) 0.5782(5) 0.6253(10)
C63 C 0.4241(12) 0.5800(6) 0.5885(12)
H103 H 0.3840 0.5724 0.5097
C64 C 0.3890(14) 0.6350(6) 0.6071(14)
H104 H 0.4264 0.6428 0.6857
C65 C 0.4233(15) 0.6763(7) 0.5462(12)
H105 H 0.4081 0.7118 0.5614
C66 C 0.5468(16) 0.6688(6) 0.5906(14)
H106 H 0.5860 0.6775 0.6689
C67 C 0.5782(13) 0.6146(7) 0.5771(14)
H107 H 0.5418 0.6071 0.4984
C68 C 0.6985(17) 0.6054(9) 0.624(2)
H108 H 0.7387 0.6240 0.6915
H109 H 0.7208 0.6176 0.5728
H110 H 0.7137 0.5688 0.6363
C69 C 0.2381(19) 0.6290(9) 0.638(2)
H111 H 0.2406 0.5922 0.6521
H112 H 0.1637 0.6414 0.6084
H113 H 0.2857 0.6472 0.7045
C70 C 0.312(2) 0.7116(11) 0.369(2)
H114 H 0.2368 0.7131 0.3531
H115 H 0.3143 0.7095 0.3020
H116 H 0.3506 0.7424 0.4086
O29 O 0.3646(9) 0.2776(3) 0.8062(7)
O30 O 0.5460(7) 0.3458(3) 0.6694(6)
O31 O 0.3677(6) 0.3702(2) 0.4699(6)
O32 O 0.2756(7) 0.2802(3) 0.3260(7)
O33 O 0.8681(5) 0.6051(3) 0.3124(7)
O34 O 0.9287(4) 0.5744(3) 0.5377(6)
O35 O 0.7662(5) 0.6953(3) 0.3437(6)
O36 O 0.9755(5) 0.6587(3) 0.6855(6)
O37 O 0.9004(6) 0.7131(3) 0.8034(6)
O38 O 0.5542(4) 0.6745(2) 0.3332(5)
O39 O 0.4311(5) 0.7617(3) 0.2107(7)
O40 O 0.0216(5) 0.7146(3) 0.0420(9)
loop_
_geom_bond_atom_site_label_1
_geom_bond_atom_site_label_2
_geom_bond_site_symmetry_1
_geom_bond_site_symmetry_2
O1 C1 1_555 1_555
O2 H1 1_555 1_555
O3 C9 1_555 1_555
O4 C12 1_555 1_555
O5 C1 1_555 1_555
C1 C2 1_555 1_555
C2 H2 1_555 1_555
C3 C2 1_555 1_555
H3 C3 1_555 1_555
C4 C3 1_555 1_555
H4 C4 1_555 1_555
C5 C4 1_555 1_555
H5 C5 1_555 1_555
C6 C5 1_555 1_555
H6 C6 1_555 1_555
C7 C6 1_555 1_555
H7 C7 1_555 1_555
H8 C7 1_555 1_555
C8 O2 1_555 1_555
C9 C8 1_555 1_555
C10 C9 1_555 1_555
H9 C10 1_555 1_555
H10 C10 1_555 1_555
C11 C10 1_555 1_555
H11 C11 1_555 1_555
H12 C11 1_555 1_555
C12 C11 1_555 1_555
H13 C12 1_555 1_555
C13 O4 1_555 1_555
H14 C13 1_555 1_555
C14 C13 1_555 1_555
H15 C14 1_555 1_555
C15 O5 1_555 1_555
H16 C15 1_555 1_555
C16 C15 1_555 1_555
H17 C16 1_555 1_555
H18 C16 1_555 1_555
H19 C16 1_555 1_555
C17 C14 1_555 1_555
H20 C17 1_555 1_555
H21 C17 1_555 1_555
C18 C4 1_555 1_555
H22 C18 1_555 1_555
H23 C18 1_555 1_555
H24 C18 1_555 1_555
C19 C6 1_555 1_555
H25 C19 1_555 1_555
H26 C19 1_555 1_555
H27 C19 1_555 1_555
C20 C8 1_555 1_555
H28 C20 1_555 1_555
H29 C20 1_555 1_555
H30 C20 1_555 1_555
O6 C5 1_555 1_555
O7 H31 1_555 1_555
O8 C23 1_555 1_555
O9 C21 1_555 1_555
C21 O6 1_555 1_555
H32 C21 1_555 1_555
C22 O7 1_555 1_555
H33 C22 1_555 1_555
C23 C22 1_555 1_555
H34 C23 1_555 1_555
C24 C23 1_555 1_555
H35 C24 1_555 1_555
H36 C24 1_555 1_555
C25 O9 1_555 1_555
H37 C25 1_555 1_555
C26 C25 1_555 1_555
H38 C26 1_555 1_555
H39 C26 1_555 1_555
H40 C26 1_555 1_555
C27 O8 1_555 1_555
H41 C27 1_555 1_555
H42 C27 1_555 1_555
H43 C27 1_555 1_555
O10 C17 1_555 1_555
O11 C29 1_555 1_555
O12 C30 1_555 1_555
O13 H44 1_555 1_555
O14 C28 1_555 1_555
C28 O10 1_555 1_555
H45 C28 1_555 1_555
C29 C28 1_555 1_555
H46 C29 1_555 1_555
C30 C29 1_555 1_555
H47 C30 1_555 1_555
C31 O13 1_555 1_555
H48 C31 1_555 1_555
C32 O14 1_555 1_555
H49 C32 1_555 1_555
C33 C32 1_555 1_555
H50 C33 1_555 1_555
H51 C33 1_555 1_555
H52 C33 1_555 1_555
C34 O11 1_555 1_555
H53 C34 1_555 1_555
H54 C34 1_555 1_555
H55 C34 1_555 1_555
C35 O12 1_555 1_555
H56 C35 1_555 1_555
H57 C35 1_555 1_555
H58 C35 1_555 1_555
O15 C36 1_555 1_555
O16 H59 1_555 1_555
O17 C44 1_555 1_555
O18 C47 1_555 1_555
O19 C36 1_555 1_555
C36 C37 1_555 1_555
C37 H60 1_555 1_555
C38 C37 1_555 1_555
H61 C38 1_555 1_555
C39 C38 1_555 1_555
H62 C39 1_555 1_555
C40 C39 1_555 1_555
H63 C40 1_555 1_555
C41 C40 1_555 1_555
H64 C41 1_555 1_555
C42 C41 1_555 1_555
H65 C42 1_555 1_555
H66 C42 1_555 1_555
C43 O16 1_555 1_555
C44 C43 1_555 1_555
C45 C44 1_555 1_555
H67 C45 1_555 1_555
H68 C45 1_555 1_555
C46 C45 1_555 1_555
H69 C46 1_555 1_555
H70 C46 1_555 1_555
C47 C46 1_555 1_555
H71 C47 1_555 1_555
C48 O18 1_555 1_555
H72 C48 1_555 1_555
C49 C48 1_555 1_555
H73 C49 1_555 1_555
C50 O19 1_555 1_555
H74 C50 1_555 1_555
C51 C50 1_555 1_555
H75 C51 1_555 1_555
H76 C51 1_555 1_555
H77 C51 1_555 1_555
C52 C49 1_555 1_555
H78 C52 1_555 1_555
H79 C52 1_555 1_555
C53 C39 1_555 1_555
H80 C53 1_555 1_555
H81 C53 1_555 1_555
H82 C53 1_555 1_555
C54 C41 1_555 1_555
H83 C54 1_555 1_555
H84 C54 1_555 1_555
H85 C54 1_555 1_555
C55 C43 1_555 1_555
H86 C55 1_555 1_555
H87 C55 1_555 1_555
H88 C55 1_555 1_555
O20 C40 1_555 1_555
O21 H89 1_555 1_555
O22 C58 1_555 1_555
O23 C56 1_555 1_555
C56 O20 1_555 1_555
H90 C56 1_555 1_555
C57 O21 1_555 1_555
H91 C57 1_555 1_555
C58 C57 1_555 1_555
H92 C58 1_555 1_555
C59 C58 1_555 1_555
H93 C59 1_555 1_555
H94 C59 1_555 1_555
C60 O23 1_555 1_555
H95 C60 1_555 1_555
C61 C60 1_555 1_555
H96 C61 1_555 1_555
H97 C61 1_555 1_555
H98 C61 1_555 1_555
C62 O22 1_555 1_555
H99 C62 1_555 1_555
H100 C62 1_555 1_555
H101 C62 1_555 1_555
O24 C52 1_555 1_555
O25 C64 1_555 1_555
O26 C65 1_555 1_555
O27 H102 1_555 1_555
O28 C63 1_555 1_555
C63 O24 1_555 1_555
H103 C63 1_555 1_555
C64 C63 1_555 1_555
H104 C64 1_555 1_555
C65 C64 1_555 1_555
H105 C65 1_555 1_555
C66 O27 1_555 1_555
H106 C66 1_555 1_555
C67 O28 1_555 1_555
H107 C67 1_555 1_555
C68 C67 1_555 1_555
H108 C68 1_555 1_555
H109 C68 1_555 1_555
H110 C68 1_555 1_555
C69 O25 1_555 1_555
H111 C69 1_555 1_555
H112 C69 1_555 1_555
H113 C69 1_555 1_555
C70 O26 1_555 1_555
H114 C70 1_555 1_555
H115 C70 1_555 1_555
H116 C70 1_555 1_555
C7 C8 1_555 1_555
C12 C13 1_555 1_555
C14 C15 1_555 1_555
C21 C22 1_555 1_555
C24 C25 1_555 1_555
C30 C31 1_555 1_555
C31 C32 1_555 1_555
C42 C43 1_555 1_555
C47 C48 1_555 1_555
C49 C50 1_555 1_555
C56 C57 1_555 1_555
C59 C60 1_555 1_555
C65 C66 1_555 1_555
C66 C67 1_555 1_555

#END
