
#######################################################################
#
#                 Cambridge Crystallographic Data Centre
#                                CCDC 
#
#######################################################################
#
# If this CIF has been generated from an entry in the Cambridge 
# Structural Database, then it will include bibliographic, chemical, 
# crystal, experimental, refinement or atomic coordinate data resulting 
# from the CCDC's data processing and validation procedures.
#
#######################################################################

data_DILROI
_chemical_formula_moiety         'C40 H34 O3 P2'
_chemical_name_systematic        
(dibenzo[b,d]furan-4,6-diyl)bis[(2-ethoxyphenyl)(phenyl)phosphane]
_symmetry_cell_setting           monoclinic
_symmetry_space_group_name_H-M   'P 21'
_symmetry_Int_Tables_number      4
_space_group_name_Hall           'P 2yb'
loop_
_symmetry_equiv_pos_site_id
_symmetry_equiv_pos_as_xyz
1 x,y,z
2 -x,1/2+y,-z
_cell_length_a                   10.28530(10)
_cell_length_b                   29.6952(4)
_cell_length_c                   10.83440(10)
_cell_angle_alpha                90
_cell_angle_beta                 90.0945(4)
_cell_angle_gamma                90
_cell_volume                     3309.08
_exptl_crystal_colour            colorless
_exptl_crystal_description       prism
_cell_formula_units_Z            4
loop_
_atom_site_label
_atom_site_type_symbol
_atom_site_fract_x
_atom_site_fract_y
_atom_site_fract_z
C1 C 0.8901(3) 0.68517(8) 0.5272(2)
C2 C 0.7734(3) 0.66871(8) 0.4815(2)
C3 C 0.7159(3) 0.69560(9) 0.3901(2)
H1 H 0.6350 0.6865 0.3558
C4 C 0.7734(4) 0.73521(10) 0.3478(3)
H2 H 0.7304 0.7524 0.2861
C5 C 0.8909(3) 0.75002(9) 0.3933(3)
H3 H 0.9299 0.7768 0.3629
C6 C 0.9513(3) 0.72453(8) 0.4855(2)
C7 C 1.0689(3) 0.72868(8) 0.5574(2)
C8 C 1.1723(3) 0.75921(9) 0.5609(3)
H4 H 1.1743 0.7845 0.5071
C9 C 1.2711(3) 0.75178(9) 0.6442(3)
H5 H 1.3414 0.7725 0.6483
C10 C 1.2702(3) 0.71447(9) 0.7230(3)
H6 H 1.3400 0.7106 0.7796
C11 C 1.1700(3) 0.68259(8) 0.7212(2)
C12 C 1.0712(3) 0.69151(8) 0.6371(2)
C13 C 0.7949(3) 0.57220(8) 0.4948(2)
C14 C 0.9174(3) 0.57659(8) 0.4425(2)
H7 H 0.9500 0.6058 0.4250
C15 C 0.9938(3) 0.53898(9) 0.4151(2)
H8 H 1.0781 0.5426 0.3809
C16 C 0.9452(3) 0.49643(9) 0.4382(2)
H9 H 0.9961 0.4707 0.4187
C17 C 0.8229(3) 0.49089(8) 0.4897(2)
H10 H 0.7895 0.4615 0.5038
C18 C 0.7493(2) 0.52845(8) 0.5206(2)
C19 C 0.5712(3) 0.48284(9) 0.5924(3)
H11 H 0.6273 0.4631 0.6435
H12 H 0.5579 0.4683 0.5112
C20 C 0.4436(3) 0.49044(12) 0.6549(3)
H13 H 0.4582 0.5049 0.7350
H14 H 0.3999 0.4615 0.6674
H15 H 0.3890 0.5099 0.6033
C21 C 0.54606(14) 0.61493(6) 0.45580(14)
C22 C 0.44148(19) 0.64124(6) 0.49312(14)
H16 H 0.4498 0.6604 0.5628
C23 C 0.32476(16) 0.63945(7) 0.42845(18)
H17 H 0.2533 0.6574 0.4540
C24 C 0.31262(14) 0.61136(8) 0.32646(18)
H18 H 0.2329 0.6101 0.2823
C25 C 0.41720(18) 0.58505(7) 0.28914(16)
H19 H 0.4089 0.5659 0.2194
C26 C 0.53392(15) 0.58684(6) 0.35381(16)
H20 H 0.6054 0.5689 0.3283
C27 C 1.0643(2) 0.64167(9) 0.9355(2)
C28 C 0.9964(3) 0.68133(10) 0.9502(3)
H21 H 1.0057 0.7048 0.8912
C29 C 0.9139(3) 0.68722(14) 1.0511(3)
H22 H 0.8687 0.7148 1.0621
C30 C 0.8987(4) 0.65277(15) 1.1346(3)
H23 H 0.8426 0.6569 1.2033
C31 C 0.9627(3) 0.61268(13) 1.1207(3)
H24 H 0.9491 0.5890 1.1781
C32 C 1.0475(3) 0.60683(10) 1.0225(2)
C33 C 1.0965(3) 0.53043(11) 1.0773(3)
H25 H 1.0093 0.5182 1.0578
H26 H 1.0994 0.5380 1.1663
C34 C 1.1983(3) 0.49668(11) 1.0475(3)
H27 H 1.1925 0.4886 0.9599
H28 H 1.1852 0.4697 1.0980
H29 H 1.2843 0.5094 1.0648
C35 C 1.33389(14) 0.63078(6) 0.87900(16)
C36 C 1.35753(16) 0.65145(7) 0.99194(17)
H30 H 1.2880 0.6649 1.0362
C37 C 1.4829(2) 0.65240(8) 1.04007(19)
H31 H 1.4990 0.6665 1.1173
C38 C 1.58454(14) 0.63269(9) 0.9753(2)
H32 H 1.6702 0.6333 1.0082
C39 C 1.56090(17) 0.61202(8) 0.8623(2)
H33 H 1.6304 0.5985 0.8180
C40 C 1.4356(2) 0.61106(7) 0.81419(15)
H34 H 1.4194 0.5969 0.7370
O1 O 0.96218(18) 0.66466(6) 0.62002(15)
O2 O 0.63098(17) 0.52653(6) 0.57695(17)
O3 O 1.12142(19) 0.56989(7) 1.00459(17)
P1 P 0.69501(7) 0.61900(2) 0.55036(5)
P2 P 1.17226(6) 0.62897(2) 0.80537(6)
C41 C 0.6620(2) 0.36869(7) 0.75423(18)
C42 C 0.7835(2) 0.37393(7) 0.69948(19)
C43 C 0.7837(2) 0.37116(7) 0.57048(19)
H35 H 0.8642 0.3741 0.5283
C44 C 0.6715(2) 0.36432(8) 0.50133(19)
H36 H 0.6764 0.3640 0.4138
C45 C 0.5526(2) 0.35794(8) 0.5585(2)
H37 H 0.4761 0.3524 0.5117
C46 C 0.5488(2) 0.35984(7) 0.6877(2)
C47 C 0.4473(2) 0.35441(7) 0.7783(2)
C48 C 0.3148(2) 0.34414(8) 0.7737(2)
H38 H 0.2716 0.3396 0.6971
C49 C 0.2488(2) 0.34075(9) 0.8841(2)
H39 H 0.1597 0.3323 0.8834
C50 C 0.3099(2) 0.34953(9) 0.9973(2)
H40 H 0.2601 0.3480 1.0709
C51 C 0.4413(2) 0.36034(7) 1.0053(2)
C52 C 0.5064(2) 0.36127(7) 0.8929(2)
C53 C 0.9246(2) 0.36727(8) 0.9357(2)
C54 C 0.9698(2) 0.39518(9) 1.0298(2)
H41 H 0.9984 0.4248 1.0105
C55 C 0.9739(3) 0.38048(11) 1.1514(2)
H42 H 1.0067 0.3996 1.2144
C56 C 0.9298(3) 0.33789(11) 1.1797(2)
H43 H 0.9307 0.3280 1.2631
C57 C 0.8844(3) 0.30948(10) 1.0889(3)
H44 H 0.8536 0.2803 1.1096
C58 C 0.8838(2) 0.32381(9) 0.9661(2)
C59 C 0.7661(3) 0.25986(10) 0.8904(3)
H45 H 0.6880 0.2691 0.9374
H46 H 0.8133 0.2367 0.9387
C60 C 0.7276(5) 0.24149(12) 0.7668(3)
H47 H 0.6798 0.2646 0.7207
H48 H 0.6722 0.2150 0.7781
H49 H 0.8058 0.2329 0.7209
C61 C 0.9438(2) 0.44414(8) 0.7801(2)
C62 C 0.8390(2) 0.46912(8) 0.8250(2)
H50 H 0.7664 0.4541 0.8602
C63 C 0.8407(3) 0.51572(9) 0.8183(2)
H51 H 0.7684 0.5325 0.8476
C64 C 0.9467(3) 0.53794(9) 0.7691(2)
H52 H 0.9469 0.5699 0.7637
C65 C 1.0531(3) 0.51348(10) 0.7276(2)
H53 H 1.1270 0.5287 0.6957
C66 C 1.0516(2) 0.46692(9) 0.7325(2)
H54 H 1.1243 0.4503 0.7034
C67 C 0.3950(2) 0.38092(9) 1.25933(19)
C68 C 0.3635(2) 0.42292(9) 1.3083(2)
H55 H 0.4083 0.4489 1.2797
C69 C 0.2677(3) 0.42768(11) 1.3986(2)
H56 H 0.2478 0.4566 1.4309
C70 C 0.2026(2) 0.39035(11) 1.4402(2)
H57 H 0.1374 0.3935 1.5016
C71 C 0.2309(2) 0.34834(11) 1.3936(2)
H58 H 0.1848 0.3227 1.4224
C72 C 0.3277(2) 0.34330(9) 1.3038(2)
C73 C 0.2856(3) 0.26467(11) 1.2842(3)
H59 H 0.1934 0.2705 1.2631
H60 H 0.2914 0.2578 1.3735
C74 C 0.3365(4) 0.22639(13) 1.2105(4)
H61 H 0.3387 0.2348 1.1231
H62 H 0.2798 0.2002 1.2213
H63 H 0.4245 0.2189 1.2385
C75 C 0.58175(14) 0.43067(4) 1.12103(14)
C76 C 0.68605(14) 0.44654(5) 1.19022(13)
H64 H 0.7294 0.4271 1.2464
C77 C 0.72696(15) 0.49090(5) 1.17721(14)
H65 H 0.7982 0.5017 1.2245
C78 C 0.66357(18) 0.51939(4) 1.09501(16)
H66 H 0.6915 0.5497 1.0861
C79 C 0.55927(17) 0.50352(5) 1.02582(14)
H67 H 0.5159 0.5230 0.9696
C80 C 0.51836(13) 0.45916(5) 1.03883(14)
H68 H 0.4471 0.4483 0.9915
O4 O 0.63783(13) 0.37029(5) 0.87960(12)
O5 O 0.84799(19) 0.29778(6) 0.86797(17)
O6 O 0.36458(19) 0.30336(6) 1.25450(17)
P3 P 0.94248(5) 0.38266(2) 0.77265(5)
P4 P 0.53021(5) 0.37184(2) 1.14930(5)
loop_
_geom_bond_atom_site_label_1
_geom_bond_atom_site_label_2
_geom_bond_site_symmetry_1
_geom_bond_site_symmetry_2
C1 C2 1_555 1_555
C2 C3 1_555 1_555
C3 H1 1_555 1_555
C4 C3 1_555 1_555
H2 C4 1_555 1_555
C5 C4 1_555 1_555
H3 C5 1_555 1_555
C6 C1 1_555 1_555
C7 C6 1_555 1_555
C8 C7 1_555 1_555
H4 C8 1_555 1_555
C9 C8 1_555 1_555
H5 C9 1_555 1_555
C10 C9 1_555 1_555
H6 C10 1_555 1_555
C11 C10 1_555 1_555
C12 C7 1_555 1_555
C13 C14 1_555 1_555
C14 H7 1_555 1_555
C15 C14 1_555 1_555
H8 C15 1_555 1_555
C16 C15 1_555 1_555
H9 C16 1_555 1_555
C17 C16 1_555 1_555
H10 C17 1_555 1_555
C18 C13 1_555 1_555
C19 H11 1_555 1_555
H12 C19 1_555 1_555
C20 C19 1_555 1_555
H13 C20 1_555 1_555
H14 C20 1_555 1_555
H15 C20 1_555 1_555
C21 C22 1_555 1_555
C22 H16 1_555 1_555
C23 C22 1_555 1_555
H17 C23 1_555 1_555
C24 C23 1_555 1_555
H18 C24 1_555 1_555
C25 C24 1_555 1_555
H19 C25 1_555 1_555
C26 C21 1_555 1_555
H20 C26 1_555 1_555
C27 C28 1_555 1_555
C28 H21 1_555 1_555
C29 C28 1_555 1_555
H22 C29 1_555 1_555
C30 C29 1_555 1_555
H23 C30 1_555 1_555
C31 C30 1_555 1_555
H24 C31 1_555 1_555
C32 C27 1_555 1_555
C33 H25 1_555 1_555
H26 C33 1_555 1_555
C34 C33 1_555 1_555
H27 C34 1_555 1_555
H28 C34 1_555 1_555
H29 C34 1_555 1_555
C35 C36 1_555 1_555
C36 H30 1_555 1_555
C37 C36 1_555 1_555
H31 C37 1_555 1_555
C38 C37 1_555 1_555
H32 C38 1_555 1_555
C39 C38 1_555 1_555
H33 C39 1_555 1_555
C40 C35 1_555 1_555
H34 C40 1_555 1_555
O1 C1 1_555 1_555
O2 C18 1_555 1_555
O3 C32 1_555 1_555
P1 C2 1_555 1_555
P2 C11 1_555 1_555
C41 C42 1_555 1_555
C42 C43 1_555 1_555
C43 H35 1_555 1_555
C44 C43 1_555 1_555
H36 C44 1_555 1_555
C45 C44 1_555 1_555
H37 C45 1_555 1_555
C46 C41 1_555 1_555
C47 C46 1_555 1_555
C48 C47 1_555 1_555
H38 C48 1_555 1_555
C49 C48 1_555 1_555
H39 C49 1_555 1_555
C50 C49 1_555 1_555
H40 C50 1_555 1_555
C51 C50 1_555 1_555
C52 C47 1_555 1_555
C53 C54 1_555 1_555
C54 H41 1_555 1_555
C55 C54 1_555 1_555
H42 C55 1_555 1_555
C56 C55 1_555 1_555
H43 C56 1_555 1_555
C57 C56 1_555 1_555
H44 C57 1_555 1_555
C58 C53 1_555 1_555
C59 H45 1_555 1_555
H46 C59 1_555 1_555
C60 C59 1_555 1_555
H47 C60 1_555 1_555
H48 C60 1_555 1_555
H49 C60 1_555 1_555
C61 C62 1_555 1_555
C62 H50 1_555 1_555
C63 C62 1_555 1_555
H51 C63 1_555 1_555
C64 C63 1_555 1_555
H52 C64 1_555 1_555
C65 C64 1_555 1_555
H53 C65 1_555 1_555
C66 C61 1_555 1_555
H54 C66 1_555 1_555
C67 C68 1_555 1_555
C68 H55 1_555 1_555
C69 C68 1_555 1_555
H56 C69 1_555 1_555
C70 C69 1_555 1_555
H57 C70 1_555 1_555
C71 C70 1_555 1_555
H58 C71 1_555 1_555
C72 C67 1_555 1_555
C73 H59 1_555 1_555
H60 C73 1_555 1_555
C74 C73 1_555 1_555
H61 C74 1_555 1_555
H62 C74 1_555 1_555
H63 C74 1_555 1_555
C75 C76 1_555 1_555
C76 H64 1_555 1_555
C77 C76 1_555 1_555
H65 C77 1_555 1_555
C78 C77 1_555 1_555
H66 C78 1_555 1_555
C79 C78 1_555 1_555
H67 C79 1_555 1_555
C80 C75 1_555 1_555
H68 C80 1_555 1_555
O4 C41 1_555 1_555
O5 C58 1_555 1_555
O6 C72 1_555 1_555
P3 C42 1_555 1_555
P4 C51 1_555 1_555
C5 C6 1_555 1_555
C11 C12 1_555 1_555
C12 O1 1_555 1_555
C13 P1 1_555 1_555
C17 C18 1_555 1_555
C19 O2 1_555 1_555
C21 P1 1_555 1_555
C25 C26 1_555 1_555
C27 P2 1_555 1_555
C31 C32 1_555 1_555
C33 O3 1_555 1_555
C35 P2 1_555 1_555
C39 C40 1_555 1_555
C45 C46 1_555 1_555
C51 C52 1_555 1_555
C52 O4 1_555 1_555
C53 P3 1_555 1_555
C57 C58 1_555 1_555
C59 O5 1_555 1_555
C61 P3 1_555 1_555
C65 C66 1_555 1_555
C67 P4 1_555 1_555
C71 C72 1_555 1_555
C73 O6 1_555 1_555
C75 P4 1_555 1_555
C79 C80 1_555 1_555

#END
