
#######################################################################
#
#                 Cambridge Crystallographic Data Centre
#                                CCDC 
#
#######################################################################
#
# If this CIF has been generated from an entry in the Cambridge 
# Structural Database, then it will include bibliographic, chemical, 
# crystal, experimental, refinement or atomic coordinate data resulting 
# from the CCDC's data processing and validation procedures.
#
#######################################################################

data_DILSIC01
_chemical_formula_moiety         'C27 H20 N2 O1'
_chemical_name_systematic        
1-[3-phenyl-5-(pyren-1-yl)-4,5-dihydro-1H-pyrazol-1-yl]ethan-1-one
_symmetry_cell_setting           monoclinic
_symmetry_space_group_name_H-M   'P 21/c'
_symmetry_Int_Tables_number      14
_space_group_name_Hall           '-P 2ybc'
loop_
_symmetry_equiv_pos_site_id
_symmetry_equiv_pos_as_xyz
1 x,y,z
2 -x,1/2+y,1/2-z
3 -x,-y,-z
4 x,1/2-y,1/2+z
_cell_length_a                   9.3054(9)
_cell_length_b                   28.633(3)
_cell_length_c                   15.6531(16)
_cell_angle_alpha                90
_cell_angle_beta                 103.437(3)
_cell_angle_gamma                90
_cell_volume                     4056.47
_exptl_crystal_colour            yellow
_exptl_crystal_description       needle
_cell_formula_units_Z            8
loop_
_atom_site_label
_atom_site_type_symbol
_atom_site_fract_x
_atom_site_fract_y
_atom_site_fract_z
C1 C 0.5497(2) 0.21347(8) 0.65229(13)
H1 H 0.5041 0.2380 0.6748
C2 C 0.5594(2) 0.17195(8) 0.69173(15)
H2 H 0.5190 0.1682 0.7403
C3 C 0.6299(2) 0.13329(8) 0.66158(16)
C4 C 0.6908(2) 0.13954(7) 0.58779(14)
C5 C 0.67877(19) 0.18360(7) 0.54465(12)
C6 C 0.60753(19) 0.22150(7) 0.57621(12)
C7 C 0.6428(3) 0.08968(10) 0.7017(2)
H3 H 0.6027 0.0849 0.7501
C8 C 0.7136(3) 0.05362(10) 0.6711(2)
H4 H 0.7204 0.0247 0.6989
C9 C 0.7746(3) 0.05946(9) 0.6001(2)
H5 H 0.8232 0.0346 0.5808
C10 C 0.7646(2) 0.10209(8) 0.55675(16)
C11 C 0.8250(2) 0.10956(9) 0.48247(17)
H6 H 0.8733 0.0851 0.4617
C12 C 0.8142(2) 0.15091(9) 0.44167(15)
H7 H 0.8554 0.1546 0.3933
C13 C 0.7404(2) 0.18958(7) 0.47093(13)
C14 C 0.7278(2) 0.23275(8) 0.42954(14)
H8 H 0.7665 0.2370 0.3804
C15 C 0.6583(2) 0.26930(7) 0.46060(13)
H9 H 0.6515 0.2980 0.4319
C16 C 0.59825(19) 0.26469(7) 0.53324(13)
C17 C 0.5343(2) 0.30618(7) 0.57120(13)
H10 H 0.4450 0.2968 0.5899
C18 C 0.6464(2) 0.32741(7) 0.64859(13)
H11 H 0.6060 0.3297 0.7003
H12 H 0.7366 0.3092 0.6627
C19 C 0.6732(2) 0.37449(7) 0.61521(14)
C20 C 0.3872(3) 0.34693(10) 0.44005(16)
C21 C 0.3639(3) 0.39110(10) 0.38846(17)
H13 H 0.2876 0.3866 0.3361
H14 H 0.4541 0.3998 0.3728
H15 H 0.3351 0.4154 0.4232
C22 C 0.7791(2) 0.40755(8) 0.66428(14)
C23 C 0.7660(3) 0.45513(9) 0.64764(18)
H16 H 0.6890 0.4664 0.6035
C24 C 0.8658(6) 0.48552(13) 0.6958(3)
H17 H 0.8561 0.5174 0.6847
C25 C 0.9804(5) 0.4692(2) 0.7607(3)
H18 H 1.0483 0.4901 0.7931
C26 C 0.9949(4) 0.42257(17) 0.7778(2)
H19 H 1.0726 0.4116 0.8218
C27 C 0.8945(3) 0.39173(10) 0.72976(15)
H20 H 0.9046 0.3599 0.7416
N1 N 0.50201(19) 0.34607(6) 0.51166(11)
N2 N 0.5915(2) 0.38458(6) 0.53984(12)
O1 O 0.3116(2) 0.31206(7) 0.42074(13)
C28 C 0.1571(2) 0.32682(7) 0.64019(13)
C29 C 0.0557(3) 0.34037(9) 0.56082(13)
H21 H -0.0128 0.3188 0.5314
C30 C 0.0571(3) 0.38365(10) 0.52765(16)
H22 H -0.0121 0.3914 0.4765
C31 C 0.1612(4) 0.41805(9) 0.56836(18)
C32 C 0.2640(3) 0.40605(9) 0.64681(16)
C33 C 0.2604(2) 0.36081(8) 0.68317(14)
C34 C 0.1680(5) 0.46274(12) 0.5334(2)
H23 H 0.1020 0.4710 0.4813
C35 C 0.2712(6) 0.49465(13) 0.5750(3)
H24 H 0.2736 0.5244 0.5514
C36 C 0.3703(5) 0.48289(13) 0.6512(3)
H25 H 0.4398 0.5049 0.6780
C37 C 0.3704(4) 0.43923(10) 0.6895(2)
C38 C 0.4695(4) 0.42619(13) 0.7690(3)
H26 H 0.5392 0.4477 0.7975
C39 C 0.4654(3) 0.38443(12) 0.8036(2)
H27 H 0.5327 0.3773 0.8558
C40 C 0.3611(2) 0.34973(9) 0.76336(16)
C41 C 0.3564(2) 0.30581(10) 0.79767(16)
H28 H 0.4214 0.2982 0.8505
C42 C 0.2578(2) 0.27279(8) 0.75575(14)
H29 H 0.2582 0.2433 0.7807
C43 C 0.1581(2) 0.28236(8) 0.67741(12)
C44 C 0.0566(2) 0.24422(7) 0.63200(13)
H30 H -0.0360 0.2579 0.5983
C45 C 0.1257(2) 0.21321(8) 0.57180(13)
H31 H 0.0632 0.2118 0.5129
H32 H 0.2226 0.2246 0.5688
C46 C 0.1360(2) 0.16651(8) 0.61573(14)
C47 C -0.0468(2) 0.21885(9) 0.75821(13)
C48 C -0.0579(2) 0.18005(8) 0.81953(14)
H33 H 0.0345 0.1767 0.8618
H34 H -0.0807 0.1515 0.7870
H35 H -0.1347 0.1869 0.8494
C49 C 0.2002(2) 0.12395(9) 0.58795(15)
C50 C 0.1912(3) 0.08167(10) 0.62965(18)
H36 H 0.1423 0.0803 0.6751
C51 C 0.2527(3) 0.04209(11) 0.6051(2)
H37 H 0.2465 0.0142 0.6344
C52 C 0.3231(4) 0.04320(16) 0.5382(3)
H38 H 0.3650 0.0161 0.5218
C53 C 0.3321(4) 0.08395(16) 0.4953(2)
H39 H 0.3796 0.0845 0.4492
C54 C 0.2710(3) 0.12503(11) 0.51934(17)
H40 H 0.2777 0.1528 0.4896
N3 N 0.02513(18) 0.20950(6) 0.69420(11)
N4 N 0.07935(18) 0.16532(6) 0.68314(11)
O2 O -0.09517(17) 0.25813(6) 0.76368(10)
loop_
_geom_bond_atom_site_label_1
_geom_bond_atom_site_label_2
_geom_bond_site_symmetry_1
_geom_bond_site_symmetry_2
C1 H1 1_555 1_555
C2 C1 1_555 1_555
H2 C2 1_555 1_555
C3 C2 1_555 1_555
C4 C3 1_555 1_555
C5 C4 1_555 1_555
C6 C1 1_555 1_555
C7 C3 1_555 1_555
H3 C7 1_555 1_555
C8 C7 1_555 1_555
H4 C8 1_555 1_555
C9 C8 1_555 1_555
H5 C9 1_555 1_555
C10 C4 1_555 1_555
C11 C10 1_555 1_555
H6 C11 1_555 1_555
C12 C11 1_555 1_555
H7 C12 1_555 1_555
C13 C5 1_555 1_555
C14 C13 1_555 1_555
H8 C14 1_555 1_555
C15 C14 1_555 1_555
H9 C15 1_555 1_555
C16 C6 1_555 1_555
C17 C16 1_555 1_555
H10 C17 1_555 1_555
C18 C17 1_555 1_555
H11 C18 1_555 1_555
H12 C18 1_555 1_555
C19 C18 1_555 1_555
C20 C21 1_555 1_555
C21 H13 1_555 1_555
H14 C21 1_555 1_555
H15 C21 1_555 1_555
C22 C19 1_555 1_555
C23 C22 1_555 1_555
H16 C23 1_555 1_555
C24 C23 1_555 1_555
H17 C24 1_555 1_555
C25 C24 1_555 1_555
H18 C25 1_555 1_555
C26 C25 1_555 1_555
H19 C26 1_555 1_555
C27 C22 1_555 1_555
H20 C27 1_555 1_555
N1 C17 1_555 1_555
N2 C19 1_555 1_555
O1 C20 1_555 1_555
C28 C29 1_555 1_555
C29 H21 1_555 1_555
C30 C29 1_555 1_555
H22 C30 1_555 1_555
C31 C30 1_555 1_555
C32 C31 1_555 1_555
C33 C28 1_555 1_555
C34 C31 1_555 1_555
H23 C34 1_555 1_555
C35 C34 1_555 1_555
H24 C35 1_555 1_555
C36 C35 1_555 1_555
H25 C36 1_555 1_555
C37 C32 1_555 1_555
C38 C37 1_555 1_555
H26 C38 1_555 1_555
C39 C38 1_555 1_555
H27 C39 1_555 1_555
C40 C33 1_555 1_555
C41 C40 1_555 1_555
H28 C41 1_555 1_555
C42 C41 1_555 1_555
H29 C42 1_555 1_555
C43 C28 1_555 1_555
C44 C43 1_555 1_555
H30 C44 1_555 1_555
C45 C44 1_555 1_555
H31 C45 1_555 1_555
H32 C45 1_555 1_555
C46 C45 1_555 1_555
C47 C48 1_555 1_555
C48 H33 1_555 1_555
H34 C48 1_555 1_555
H35 C48 1_555 1_555
C49 C46 1_555 1_555
C50 C49 1_555 1_555
H36 C50 1_555 1_555
C51 C50 1_555 1_555
H37 C51 1_555 1_555
C52 C51 1_555 1_555
H38 C52 1_555 1_555
C53 C52 1_555 1_555
H39 C53 1_555 1_555
C54 C49 1_555 1_555
H40 C54 1_555 1_555
N3 C44 1_555 1_555
N4 C46 1_555 1_555
O2 C47 1_555 1_555
C5 C6 1_555 1_555
C9 C10 1_555 1_555
C12 C13 1_555 1_555
C15 C16 1_555 1_555
C20 N1 1_555 1_555
C26 C27 1_555 1_555
N1 N2 1_555 1_555
C32 C33 1_555 1_555
C36 C37 1_555 1_555
C39 C40 1_555 1_555
C42 C43 1_555 1_555
C47 N3 1_555 1_555
C53 C54 1_555 1_555
N3 N4 1_555 1_555

#END
