
#######################################################################
#
#                 Cambridge Crystallographic Data Centre
#                                CCDC 
#
#######################################################################
#
# If this CIF has been generated from an entry in the Cambridge 
# Structural Database, then it will include bibliographic, chemical, 
# crystal, experimental, refinement or atomic coordinate data resulting 
# from the CCDC's data processing and validation procedures.
#
#######################################################################

data_DIMDIP
_chemical_formula_moiety         'C7 H9 N2 1+,I1 1-'
_chemical_name_systematic        
'3-methyl-1-(prop-2-yn-1-yl)-1H-imidazol-3-ium iodide'
_symmetry_cell_setting           monoclinic
_symmetry_space_group_name_H-M   'P 21/c'
_symmetry_Int_Tables_number      14
_space_group_name_Hall           '-P 2ybc'
loop_
_symmetry_equiv_pos_site_id
_symmetry_equiv_pos_as_xyz
1 x,y,z
2 -x,1/2+y,1/2-z
3 -x,-y,-z
4 x,1/2-y,1/2+z
_cell_length_a                   8.2413(8)
_cell_length_b                   9.6363(8)
_cell_length_c                   11.7799(10)
_cell_angle_alpha                90
_cell_angle_beta                 106.800(7)
_cell_angle_gamma                90
_cell_volume                     895.58
_exptl_crystal_colour            colorless
_exptl_crystal_description       prism
_cell_formula_units_Z            4
loop_
_atom_site_label
_atom_site_type_symbol
_atom_site_fract_x
_atom_site_fract_y
_atom_site_fract_z
I1 I 0.22746(2) 0.15101(2) 0.49497(2)
N1 N 0.32135(7) 0.78577(6) 0.76224(5)
N2 N 0.11809(7) 0.86821(6) 0.82376(5)
C1 C -0.01802(10) 0.95839(9) 0.83777(7)
H1 H -0.070(2) 0.9196(16) 0.8939(13)
H2 H 0.024(2) 1.0478(17) 0.8632(14)
H3 H -0.1036(19) 0.9646(15) 0.7642(13)
C2 C 0.21144(9) 0.89070(7) 0.75041(6)
H4 H 0.2030(16) 0.9627(13) 0.6991(11)
C3 C 0.16777(8) 0.74456(7) 0.88330(6)
H5 H 0.1123(16) 0.7085(13) 0.9360(11)
C4 C 0.29623(9) 0.69305(7) 0.84526(6)
H6 H 0.3587(16) 0.6164(13) 0.8658(11)
C5 C 0.44561(9) 0.76833(7) 0.69499(6)
H7 H 0.5549(16) 0.7741(14) 0.7498(11)
H8 H 0.4267(18) 0.8431(12) 0.6372(12)
C6 C 0.42122(9) 0.63287(7) 0.63614(6)
C7 C 0.39594(10) 0.52033(8) 0.59131(7)
H9 H 0.3738(18) 0.4343(15) 0.5576(12)
loop_
_geom_bond_atom_site_label_1
_geom_bond_atom_site_label_2
_geom_bond_site_symmetry_1
_geom_bond_site_symmetry_2
N1 C2 1_555 1_555
N2 C1 1_555 1_555
C1 H1 1_555 1_555
H2 C1 1_555 1_555
H3 C1 1_555 1_555
C2 N2 1_555 1_555
H4 C2 1_555 1_555
C3 N2 1_555 1_555
H5 C3 1_555 1_555
C4 N1 1_555 1_555
H6 C4 1_555 1_555
C5 N1 1_555 1_555
H7 C5 1_555 1_555
H8 C5 1_555 1_555
C6 C5 1_555 1_555
C7 C6 1_555 1_555
H9 C7 1_555 1_555
C3 C4 1_555 1_555

#END
