
#######################################################################
#
#                 Cambridge Crystallographic Data Centre
#                                CCDC 
#
#######################################################################
#
# If this CIF has been generated from an entry in the Cambridge 
# Structural Database, then it will include bibliographic, chemical, 
# crystal, experimental, refinement or atomic coordinate data resulting 
# from the CCDC's data processing and validation procedures.
#
#######################################################################

data_DIMDUB
_chemical_formula_moiety         'C7 H9 N2 1+,C4 N3 1-'
_chemical_name_systematic        
'3-methyl-1-(prop-2-yn-1-yl)-1H-imidazol-3-ium tricyanomethanide'
_symmetry_cell_setting           monoclinic
_symmetry_space_group_name_H-M   'P 21/n'
_symmetry_Int_Tables_number      14
_space_group_name_Hall           '-P 2yn'
loop_
_symmetry_equiv_pos_site_id
_symmetry_equiv_pos_as_xyz
1 x,y,z
2 1/2-x,1/2+y,1/2-z
3 -x,-y,-z
4 1/2+x,1/2-y,1/2+z
_cell_length_a                   8.4656(11)
_cell_length_b                   13.8952(16)
_cell_length_c                   9.3978(9)
_cell_angle_alpha                90
_cell_angle_beta                 91.255(10)
_cell_angle_gamma                90
_cell_volume                     1105.21
_exptl_crystal_colour            colorless
_exptl_crystal_description       prism
_cell_formula_units_Z            4
loop_
_atom_site_label
_atom_site_type_symbol
_atom_site_fract_x
_atom_site_fract_y
_atom_site_fract_z
N1 N 0.00717(12) 0.04754(7) 0.27496(11)
N2 N 0.05307(12) 0.19097(8) 0.35698(11)
C1 C 0.11670(18) 0.27001(10) 0.44647(16)
H1 H 0.061(4) 0.331(3) 0.412(4)
H2 H 0.082(4) 0.263(3) 0.557(4)
H3 H 0.231(4) 0.270(2) 0.438(4)
C2 C 0.09663(14) 0.09868(9) 0.36701(13)
H4 H 0.1754(19) 0.0742(12) 0.4313(17)
C3 C -0.06771(16) 0.19898(10) 0.25582(15)
H5 H -0.115(2) 0.2618(13) 0.2340(18)
C4 C -0.09644(16) 0.10914(10) 0.20417(15)
H6 H -0.175(2) 0.0856(12) 0.1345(18)
C5 C 0.01642(15) -0.05717(9) 0.24600(15)
H7 H -0.0881(19) -0.0847(11) 0.2640(16)
H8 H 0.0399(19) -0.0647(12) 0.1435(18)
C6 C 0.13786(15) -0.10383(9) 0.33547(14)
C7 C 0.23675(17) -0.14359(10) 0.40631(15)
H9 H 0.315(3) -0.1771(14) 0.466(2)
N3 N 0.49414(15) -0.23300(9) 0.64709(13)
N4 N 0.71097(14) -0.02951(9) 0.96520(13)
N5 N 0.35646(13) 0.07352(8) 0.63582(13)
C8 C 0.50776(15) -0.15643(9) 0.69506(13)
C9 C 0.62505(15) -0.04410(9) 0.86961(14)
C10 C 0.43135(14) 0.01258(9) 0.68917(13)
C11 C 0.52139(14) -0.06273(9) 0.75224(14)
H10? H 0.193(5) 0.239(3) 0.520(4)
H11? H 0.167(4) 0.318(2) 0.387(3)
H12? H 0.031(4) 0.298(3) 0.500(4)
loop_
_geom_bond_atom_site_label_1
_geom_bond_atom_site_label_2
_geom_bond_site_symmetry_1
_geom_bond_site_symmetry_2
N1 C2 1_555 1_555
N2 C1 1_555 1_555
C1 H1 1_555 1_555
H2 C1 1_555 1_555
H3 C1 1_555 1_555
C2 N2 1_555 1_555
H4 C2 1_555 1_555
C3 N2 1_555 1_555
H5 C3 1_555 1_555
C4 N1 1_555 1_555
H6 C4 1_555 1_555
C5 N1 1_555 1_555
H7 C5 1_555 1_555
H8 C5 1_555 1_555
C6 C5 1_555 1_555
C7 C6 1_555 1_555
H9 C7 1_555 1_555
N3 C8 1_555 1_555
N4 C9 1_555 1_555
N5 C10 1_555 1_555
C8 C11 1_555 1_555
C9 C11 1_555 1_555
C10 C11 1_555 1_555
C3 C4 1_555 1_555

#END
