
#######################################################################
#
#                 Cambridge Crystallographic Data Centre
#                                CCDC 
#
#######################################################################
#
# If this CIF has been generated from an entry in the Cambridge 
# Structural Database, then it will include bibliographic, chemical, 
# crystal, experimental, refinement or atomic coordinate data resulting 
# from the CCDC's data processing and validation procedures.
#
#######################################################################

data_DIMMAQ
_chemical_formula_moiety         'C32 H20 N2'
_chemical_name_systematic        
4,4'-[anthracene-9,10-diylbis(ethene-2,1-diyl)]dibenzonitrile
_symmetry_cell_setting           triclinic
_symmetry_space_group_name_H-M   'P -1'
_symmetry_Int_Tables_number      2
_space_group_name_Hall           '-P 1'
loop_
_symmetry_equiv_pos_site_id
_symmetry_equiv_pos_as_xyz
1 x,y,z
2 -x,-y,-z
_cell_length_a                   4.8886(2)
_cell_length_b                   8.4636(4)
_cell_length_c                   13.9375(7)
_cell_angle_alpha                87.565(2)
_cell_angle_beta                 79.993(2)
_cell_angle_gamma                83.561(2)
_cell_volume                     564.155
_exptl_crystal_colour            yellow
_exptl_crystal_description       block
_cell_formula_units_Z            1
loop_
_atom_site_label
_atom_site_type_symbol
_atom_site_fract_x
_atom_site_fract_y
_atom_site_fract_z
C1 C 0.9916(3) 0.60614(18) 0.91922(10)
C2 C 0.8571(3) 0.46644(19) 0.92359(10)
C3 C 0.5484(4) 0.1379(2) 0.68359(11)
H1 H 0.6398 0.0492 0.7137
C4 C 1.1369(3) 0.64035(18) 0.99593(10)
C5 C 0.5698(3) 0.29045(19) 0.71290(10)
C6 C 0.2682(3) 0.2414(2) 0.56558(11)
C7 C 0.3968(4) 0.1125(2) 0.61161(11)
H2 H 0.3810 0.0073 0.5938
N1 N 0.0048(4) 0.2010(2) 0.42446(13)
C8 C 0.7285(3) 0.3118(2) 0.79114(11)
H3 H 0.8606 0.2263 0.8047
C9 C 0.7024(3) 0.4401(2) 0.84411(11)
H4 H 0.5700 0.5248 0.8297
C10 C 0.2892(4) 0.3950(2) 0.59306(12)
H5 H 0.2014 0.4836 0.5617
C11 C 0.4378(4) 0.4185(2) 0.66599(12)
H6 H 0.4504 0.5238 0.6846
C12 C 0.9966(4) 0.7142(2) 0.83724(12)
H7 H 0.9026 0.6925 0.7858
C13 C 1.2817(4) 0.7795(2) 0.98409(12)
H8 H 1.3838 0.8029 1.0329
C14 C 0.1192(4) 0.2176(2) 0.48749(13)
C15 C 1.1315(4) 0.8461(2) 0.83103(14)
H9 H 1.1280 0.9170 0.7764
C16 C 1.2777(4) 0.8788(2) 0.90563(14)
H10 H 1.3738 0.9712 0.9007
C1A C 1.0084(3) 0.39386(18) 1.08078(10)
C2A C 1.1429(3) 0.53356(19) 1.07641(10)
C3A C 1.4516(4) 0.8621(2) 1.31641(11)
H1A H 1.3602 0.9508 1.2863
C4A C 0.8631(3) 0.35965(18) 1.00407(10)
C5A C 1.4302(3) 0.70955(19) 1.28710(10)
C6A C 1.7318(3) 0.7586(2) 1.43442(11)
C7A C 1.6032(4) 0.8875(2) 1.38839(11)
H2A H 1.6190 0.9927 1.4062
N1A N 1.9952(4) 0.7990(2) 1.57554(13)
C8A C 1.2715(3) 0.6882(2) 1.20886(11)
H3A H 1.1394 0.7737 1.1953
C9A C 1.2976(3) 0.5599(2) 1.15589(11)
H4A H 1.4300 0.4752 1.1703
C10A C 1.7108(4) 0.6050(2) 1.40694(12)
H5A H 1.7986 0.5164 1.4383
C11A C 1.5622(4) 0.5815(2) 1.33401(12)
H6A H 1.5496 0.4762 1.3154
C12A C 1.0034(4) 0.2858(2) 1.16276(12)
H7A H 1.0974 0.3075 1.2142
C13A C 0.7183(4) 0.2205(2) 1.01591(12)
H8A H 0.6162 0.1971 0.9671
C14A C 1.8808(4) 0.7824(2) 1.51251(13)
C15A C 0.8685(4) 0.1539(2) 1.16897(14)
H9A H 0.8720 0.0830 1.2236
C16A C 0.7223(4) 0.1212(2) 1.09437(14)
H10A H 0.6262 0.0288 1.0993
loop_
_geom_bond_atom_site_label_1
_geom_bond_atom_site_label_2
_geom_bond_site_symmetry_1
_geom_bond_site_symmetry_2
C1 C2 1_555 1_555
C2 C9 1_555 1_555
C3 H1 1_555 1_555
C4 C1 1_555 1_555
C5 C3 1_555 1_555
C6 C7 1_555 1_555
C7 C3 1_555 1_555
H2 C7 1_555 1_555
N1 C14 1_555 1_555
C8 C5 1_555 1_555
H3 C8 1_555 1_555
C9 C8 1_555 1_555
H4 C9 1_555 1_555
C10 C6 1_555 1_555
H5 C10 1_555 1_555
C11 C5 1_555 1_555
H6 C11 1_555 1_555
C12 C1 1_555 1_555
H7 C12 1_555 1_555
C13 C4 1_555 1_555
H8 C13 1_555 1_555
C14 C6 1_555 1_555
C15 C12 1_555 1_555
H9 C15 1_555 1_555
C16 C13 1_555 1_555
H10 C16 1_555 1_555
C1A C2A 1_555 1_555
C2A C4 1_555 1_555
C3A H1A 1_555 1_555
C4A C2 1_555 1_555
C5A C3A 1_555 1_555
C6A C7A 1_555 1_555
C7A C3A 1_555 1_555
H2A C7A 1_555 1_555
N1A C14A 1_555 1_555
C8A C5A 1_555 1_555
H3A C8A 1_555 1_555
C9A C2A 1_555 1_555
H4A C9A 1_555 1_555
C10A C6A 1_555 1_555
H5A C10A 1_555 1_555
C11A C5A 1_555 1_555
H6A C11A 1_555 1_555
C12A C1A 1_555 1_555
H7A C12A 1_555 1_555
C13A C4A 1_555 1_555
H8A C13A 1_555 1_555
C14A C6A 1_555 1_555
C15A C12A 1_555 1_555
H9A C15A 1_555 1_555
C16A C13A 1_555 1_555
H10A C16A 1_555 1_555
C10 C11 1_555 1_555
C15 C16 1_555 1_555
C1A C4A 1_555 1_555
C8A C9A 1_555 1_555
C10A C11A 1_555 1_555
C15A C16A 1_555 1_555

#END
