
#######################################################################
#
#                 Cambridge Crystallographic Data Centre
#                                CCDC 
#
#######################################################################
#
# If this CIF has been generated from an entry in the Cambridge 
# Structural Database, then it will include bibliographic, chemical, 
# crystal, experimental, refinement or atomic coordinate data resulting 
# from the CCDC's data processing and validation procedures.
#
#######################################################################

data_DIMPHE11
_chemical_formula_moiety         'C8 H10 O1'
_chemical_name_systematic        2,3-Dimethylphenol
_symmetry_cell_setting           orthorhombic
_symmetry_space_group_name_H-M   'P 21 21 21'
_symmetry_Int_Tables_number      19
_space_group_name_Hall           'P 2n 2a'
loop_
_symmetry_equiv_pos_site_id
_symmetry_equiv_pos_as_xyz
1 x,y,z
2 1/2+x,-y,-z
3 -x,1/2+y,1/2-z
4 1/2-x,1/2-y,1/2+z
_cell_length_a                   4.810(20)
_cell_length_b                   5.920(30)
_cell_length_c                   24.650(40)
_cell_angle_alpha                90
_cell_angle_beta                 90
_cell_angle_gamma                90
_cell_volume                     701.914
_cell_formula_units_Z            4
loop_
_atom_site_label
_atom_site_type_symbol
_atom_site_fract_x
_atom_site_fract_y
_atom_site_fract_z
C1 C -0.01100 -0.08400 0.07700
C2 C -0.18900 -0.23400 0.10000
C3 C -0.22800 -0.21900 0.15900
C4 C -0.09400 -0.05600 0.18500
C5 C 0.08700 0.10200 0.16100
C6 C 0.13600 0.09000 0.10400
C7 C -0.42100 -0.38400 0.18500
C8 C -0.33400 -0.43100 0.06500
O1 O 0.02300 -0.10000 0.01900
loop_
_geom_bond_atom_site_label_1
_geom_bond_atom_site_label_2
_geom_bond_site_symmetry_1
_geom_bond_site_symmetry_2
C1 C2 1_555 1_555
C2 C3 1_555 1_555
C3 C4 1_555 1_555
C4 C5 1_555 1_555
C5 C6 1_555 1_555
C6 C1 1_555 1_555
C7 C3 1_555 1_555
C8 C2 1_555 1_555
O1 C1 1_555 1_555

#END
