
#######################################################################
#
#                 Cambridge Crystallographic Data Centre
#                                CCDC 
#
#######################################################################
#
# If this CIF has been generated from an entry in the Cambridge 
# Structural Database, then it will include bibliographic, chemical, 
# crystal, experimental, refinement or atomic coordinate data resulting 
# from the CCDC's data processing and validation procedures.
#
#######################################################################

data_DIMTAX
_chemical_formula_moiety         'C46 H30 O2,0.25(C1 H1 Cl3)'
_chemical_name_systematic        
'1,3-bis[(4-methoxyphenyl)ethynyl]-6,8-diphenylpyrene chloroform solvate'
_symmetry_cell_setting           monoclinic
_symmetry_space_group_name_H-M   'P 21'
_symmetry_Int_Tables_number      4
_space_group_name_Hall           'P 2yb'
loop_
_symmetry_equiv_pos_site_id
_symmetry_equiv_pos_as_xyz
1 x,y,z
2 -x,1/2+y,-z
_cell_length_a                   9.9484(6)
_cell_length_b                   32.371(2)
_cell_length_c                   20.3215(13)
_cell_angle_alpha                90
_cell_angle_beta                 95.498(2)
_cell_angle_gamma                90
_cell_volume                     6514.22
_exptl_crystal_colour            yellow
_exptl_crystal_description       needle
_chemical_melting_point          '440 K'
_cell_formula_units_Z            8
_exptl_crystal_recrystallization_method 
'Re-crystallisation from solvent: chloroform/hexane'
loop_
_atom_site_label
_atom_site_type_symbol
_atom_site_fract_x
_atom_site_fract_y
_atom_site_fract_z
C1 C 0.2169(4) 0.31363(14) 0.1045(2)
C2 C 0.1364(4) 0.34455(13) 0.0679(2)
C3 C 0.1631(4) 0.38713(14) 0.0812(2)
C4 C 0.0815(4) 0.41700(14) 0.0446(2)
C5 C -0.0144(4) 0.40378(15) -0.0048(2)
H1 H -0.065610 0.424123 -0.029824
C6 C -0.0399(4) 0.36245(14) -0.0199(2)
C7 C 0.0318(4) 0.33158(14) 0.0190(2)
C8 C 0.0000(4) 0.28904(15) 0.0136(2)
H2 H -0.073847 0.280522 -0.016394
C9 C 0.0724(4) 0.25984(14) 0.0503(2)
H3 H 0.047543 0.231579 0.045818
C10 C 0.1853(4) 0.27137(14) 0.0955(2)
C11 C 0.2639(4) 0.24124(14) 0.1324(2)
C12 C 0.3746(4) 0.25335(14) 0.1747(2)
H4 H 0.428988 0.232852 0.197625
C13 C 0.4079(4) 0.29499(14) 0.1843(2)
C14 C 0.3256(4) 0.32607(14) 0.1509(2)
C15 C 0.3467(4) 0.36855(14) 0.1635(2)
H5 H 0.418539 0.376894 0.194851
C16 C 0.2672(4) 0.39761(14) 0.1321(2)
H6 H 0.280610 0.425781 0.144075
C17 C 0.0983(4) 0.46213(14) 0.0556(2)
C18 C 0.2240(4) 0.48198(14) 0.0579(2)
H7 H 0.303861 0.466233 0.055264
C19 C 0.2316(5) 0.52491(15) 0.0641(2)
H8 H 0.317093 0.538197 0.066989
C20 C 0.1163(5) 0.54807(16) 0.0661(3)
H9 H 0.122121 0.577281 0.069827
C21 C -0.0075(6) 0.52893(17) 0.0628(3)
H10 H -0.087156 0.545001 0.063721
C22 C -0.0166(5) 0.48621(16) 0.0580(3)
H11 H -0.102579 0.473291 0.056401
C23 C -0.1304(4) 0.35337(14) -0.0807(2)
C24 C -0.2414(4) 0.37851(15) -0.0990(2)
H12 H -0.264011 0.400112 -0.070423
C25 C -0.3194(5) 0.37236(17) -0.1587(3)
H13 H -0.395153 0.389654 -0.170201
C26 C -0.2882(5) 0.34143(17) -0.2017(3)
H14 H -0.341091 0.337734 -0.242741
C27 C -0.1810(5) 0.31639(16) -0.1845(2)
H15 H -0.160151 0.294621 -0.213209
C28 C -0.1007(5) 0.32248(15) -0.1246(2)
H16 H -0.024645 0.305162 -0.113859
C29 C 0.2297(4) 0.19793(14) 0.1290(2)
C30 C 0.2043(4) 0.16166(14) 0.1295(2)
C31 C 0.1717(4) 0.11882(14) 0.1286(2)
C32 C 0.0362(4) 0.10591(15) 0.1250(2)
H17 H -0.033533 0.126040 0.123313
C33 C 0.0031(4) 0.06485(15) 0.1240(2)
H18 H -0.088928 0.056712 0.122216
C34 C 0.1038(5) 0.03513(14) 0.1255(2)
C35 C 0.2382(5) 0.04710(15) 0.1286(2)
H19 H 0.307308 0.026780 0.129752
C36 C 0.2716(5) 0.08861(15) 0.1300(2)
H20 H 0.363822 0.096588 0.131849
O1 O 0.0824(3) -0.00699(10) 0.12642(18)
C37 C -0.0569(5) -0.01966(16) 0.1249(3)
H21 H -0.061644 -0.049859 0.127133
H22 H -0.106618 -0.010042 0.083810
H23 H -0.096973 -0.007684 0.162783
C38 C 0.5217(4) 0.30584(15) 0.2290(2)
C39 C 0.6171(4) 0.31388(15) 0.2673(2)
C40 C 0.7276(4) 0.32318(15) 0.3145(2)
C41 C 0.8036(5) 0.29250(16) 0.3485(2)
H24 H 0.782326 0.264388 0.339012
C42 C 0.9081(4) 0.30138(14) 0.3952(2)
H25 H 0.957963 0.279707 0.417576
C43 C 0.9408(4) 0.34261(14) 0.4096(2)
C44 C 0.8688(5) 0.37398(13) 0.3745(2)
H26 H 0.892742 0.402032 0.382902
C45 C 0.7636(5) 0.36465(15) 0.3279(2)
H27 H 0.715064 0.386261 0.304667
O2 O 1.0401(3) 0.35543(10) 0.45595(15)
C46 C 1.1263(4) 0.32366(15) 0.4876(2)
H28 H 1.196731 0.336540 0.517831
H29 H 1.168329 0.307893 0.453827
H30 H 1.072116 0.305064 0.512427
C47 C -0.2788(4) 0.30908(13) 0.1061(2)
C48 C -0.3561(4) 0.34107(13) 0.0697(2)
C49 C -0.3286(4) 0.38329(13) 0.0847(2)
C50 C -0.4107(4) 0.41368(13) 0.0510(2)
C51 C -0.5045(4) 0.40188(14) -0.0004(2)
H31 H -0.554621 0.422848 -0.024534
C52 C -0.5290(4) 0.36074(13) -0.0187(2)
C53 C -0.4602(4) 0.32931(13) 0.0204(2)
C54 C -0.4943(4) 0.28647(14) 0.0127(2)
H32 H -0.565310 0.278530 -0.019367
C55 C -0.4272(4) 0.25700(14) 0.0503(2)
H33 H -0.455225 0.229012 0.045490
C56 C -0.3150(4) 0.26722(13) 0.0970(2)
C57 C -0.2428(4) 0.23681(14) 0.1355(2)
C58 C -0.1321(4) 0.24824(14) 0.1787(2)
H34 H -0.082035 0.227416 0.203181
C59 C -0.0926(4) 0.28919(14) 0.1870(2)
C60 C -0.1678(4) 0.32071(14) 0.1524(2)
C61 C -0.1384(4) 0.36326(14) 0.1622(2)
H35 H -0.061658 0.370939 0.191074
C62 C -0.2159(4) 0.39327(14) 0.1317(2)
H36 H -0.195621 0.421408 0.141575
C63 C -0.3981(4) 0.45831(13) 0.0701(2)
C64 C -0.4095(5) 0.47047(15) 0.1359(2)
H37 H -0.422213 0.450136 0.168447
C65 C -0.4022(5) 0.51188(16) 0.1537(3)
H38 H -0.411035 0.519799 0.198083
C66 C -0.3820(5) 0.54174(15) 0.1065(3)
H39 H -0.375669 0.570046 0.118701
C67 C -0.3711(5) 0.53021(16) 0.0417(3)
H40 H -0.357553 0.550581 0.009304
C68 C -0.3800(4) 0.48840(14) 0.0239(2)
H41 H -0.373492 0.480701 -0.020829
C69 C -0.6200(4) 0.35224(13) -0.0789(2)
C70 C -0.7384(4) 0.37474(14) -0.0937(2)
H42 H -0.766076 0.394065 -0.062474
C71 C -0.8165(5) 0.36930(16) -0.1533(2)
H43 H -0.897019 0.384917 -0.162330
C72 C -0.7792(5) 0.34159(16) -0.1998(2)
H44 H -0.832865 0.338375 -0.240739
C73 C -0.6631(5) 0.31860(15) -0.1861(2)
H45 H -0.637024 0.299149 -0.217527
C74 C -0.5840(4) 0.32392(14) -0.1261(2)
H46 H -0.504171 0.307970 -0.117244
C75 C -0.2814(4) 0.19386(14) 0.1337(2)
C76 C -0.3075(4) 0.15729(14) 0.1354(2)
C77 C -0.3339(4) 0.11403(14) 0.1378(2)
C78 C -0.3503(4) 0.09004(14) 0.0799(2)
H47 H -0.345188 0.102923 0.038178
C79 C -0.3736(4) 0.04811(15) 0.0826(2)
H48 H -0.384712 0.032438 0.042974
C80 C -0.3809(4) 0.02874(14) 0.1429(2)
C81 C -0.3661(4) 0.05121(15) 0.2014(2)
H49 H -0.371675 0.037936 0.242767
C82 C -0.3430(4) 0.09363(14) 0.1982(2)
H50 H -0.333149 0.109169 0.238054
O3 O -0.4014(4) -0.01278(11) 0.13889(18)
C83 C -0.3994(7) -0.03548(17) 0.2004(3)
H51 H -0.408817 -0.065074 0.190876
H52 H -0.474455 -0.026284 0.224686
H53 H -0.313758 -0.030433 0.227131
C84 C 0.0229(4) 0.29947(14) 0.2318(2)
C85 C 0.1192(4) 0.30726(15) 0.2703(2)
C86 C 0.2277(4) 0.31756(15) 0.3173(2)
C87 C 0.3156(5) 0.2886(2) 0.3469(2)
H54 H 0.306965 0.260201 0.335437
C88 C 0.4196(5) 0.30226(18) 0.3949(3)
H55 H 0.481357 0.283254 0.416917
C89 C 0.4281(5) 0.34493(16) 0.4089(2)
C90 C 0.3458(5) 0.37317(16) 0.3789(3)
H56 H 0.356984 0.401689 0.389012
C91 C 0.2476(6) 0.36031(19) 0.3343(3)
H57 H 0.188362 0.380251 0.313014
O4 O 0.5283(4) 0.35960(12) 0.45679(18)
C92 C 0.6213(5) 0.3329(2) 0.4888(3)
H58 H 0.574184 0.308835 0.504834
H59 H 0.670604 0.347072 0.526215
H60 H 0.685041 0.323701 0.457854
C93 C 1.0276(4) 0.69222(13) 0.3975(2)
C94 C 1.1026(4) 0.66172(13) 0.4358(2)
C95 C 1.2072(4) 0.67393(13) 0.4851(2)
C96 C 1.2743(4) 0.64317(14) 0.5257(2)
C97 C 1.2479(4) 0.60191(14) 0.5108(2)
H61 H 1.298410 0.581520 0.536113
C98 C 1.1507(4) 0.58859(14) 0.4607(2)
C99 C 1.0734(4) 0.61854(13) 0.4241(2)
C100 C 0.9687(4) 0.60816(14) 0.3738(2)
H62 H 0.951809 0.579827 0.364042
C101 C 0.8920(4) 0.63719(14) 0.3393(2)
H63 H 0.820839 0.628937 0.307555
C102 C 0.9189(4) 0.68036(13) 0.35102(19)
C103 C 0.8419(4) 0.71112(14) 0.3150(2)
C104 C 0.8803(4) 0.75256(14) 0.3214(2)
H64 H 0.829007 0.772944 0.296504
C105 C 0.9924(4) 0.76470(13) 0.3638(2)
C106 C 1.0648(4) 0.73471(13) 0.4045(2)
C107 C 1.1764(4) 0.74564(13) 0.4512(2)
H65 H 1.204377 0.773679 0.454733
C108 C 1.2424(4) 0.71714(13) 0.4900(2)
H66 H 1.313867 0.725635 0.521495
C109 C 1.3645(4) 0.65276(14) 0.5867(2)
C110 C 1.3309(5) 0.68309(15) 0.6313(2)
H67 H 1.254013 0.700040 0.620467
C111 C 1.4078(5) 0.68876(15) 0.6907(2)
H68 H 1.384340 0.709845 0.720038
C112 C 1.5200(5) 0.66369(16) 0.7081(2)
H69 H 1.572534 0.667379 0.749239
C113 C 1.5532(5) 0.63344(16) 0.6645(2)
H70 H 1.628462 0.615947 0.676079
C114 C 1.4784(5) 0.62833(16) 0.6041(2)
H71 H 1.504576 0.608001 0.574145
C115 C 1.1347(4) 0.54342(13) 0.4521(2)
C116 C 1.2505(4) 0.51858(14) 0.4543(2)
H72 H 1.337237 0.531095 0.458310
C117 C 1.2395(5) 0.47597(15) 0.4508(3)
H73 H 1.318485 0.459365 0.452405
C118 C 1.1134(5) 0.45765(16) 0.4450(3)
H74 H 1.106090 0.428405 0.442855
C119 C 0.9998(4) 0.48116(14) 0.4422(2)
H75 H 0.913638 0.468308 0.436613
C120 C 1.0090(4) 0.52403(14) 0.4477(2)
H76 H 0.929263 0.540097 0.448356
C121 C 0.7277(4) 0.70032(14) 0.2707(2)
C122 C 0.6325(4) 0.69204(14) 0.2326(2)
C123 C 0.5204(4) 0.68128(15) 0.1862(2)
C124 C 0.4772(5) 0.64029(15) 0.1800(2)
H77 H 0.522118 0.619510 0.206862
C125 C 0.3695(5) 0.62980(17) 0.1351(3)
H78 H 0.339458 0.601967 0.131466
C126 C 0.3053(4) 0.66032(15) 0.0951(2)
C127 C 0.3451(5) 0.70080(18) 0.1005(3)
H79 H 0.300416 0.721384 0.073188
C128 C 0.4530(5) 0.71139(17) 0.1472(3)
H80 H 0.480217 0.739442 0.152039
O5 O 0.2026(3) 0.64679(11) 0.05075(17)
C129 C 0.1217(5) 0.67696(15) 0.0161(2)
H81 H 0.046189 0.663480 -0.010036
H82 H 0.176165 0.692249 -0.013422
H83 H 0.086618 0.696110 0.047645
C130 C 1.0329(4) 0.80684(14) 0.3643(2)
C131 C 1.0612(4) 0.84280(15) 0.3615(2)
C132 C 1.0917(4) 0.88624(14) 0.3583(2)
C133 C 1.0991(4) 0.90629(15) 0.2973(2)
H84 H 1.085206 0.890700 0.257663
C134 C 1.1264(4) 0.94834(15) 0.2936(2)
H85 H 1.132788 0.961241 0.252016
C135 C 1.1441(4) 0.97120(14) 0.3519(2)
C136 C 1.1350(4) 0.95201(15) 0.4123(2)
H86 H 1.146571 0.967852 0.451835
C137 C 1.1095(4) 0.91020(14) 0.4158(2)
H87 H 1.103982 0.897566 0.457683
O6 O 1.1697(4) 1.01269(11) 0.35532(17)
C138 C 1.1714(7) 1.03456(18) 0.2943(3)
H88 H 1.181446 1.064206 0.303267
H89 H 1.086662 1.029597 0.266742
H90 H 1.247397 1.024883 0.271075
C139 C 1.5199(4) 0.68743(13) 0.3951(2)
C140 C 1.5958(4) 0.65646(13) 0.4324(2)
C141 C 1.7004(4) 0.66802(13) 0.4818(2)
C142 C 1.7658(4) 0.63698(14) 0.5221(2)
C143 C 1.7396(4) 0.59584(14) 0.5064(2)
H91 H 1.787382 0.575138 0.532259
C144 C 1.6454(4) 0.58335(13) 0.4539(2)
C145 C 1.5672(4) 0.61414(13) 0.4193(2)
C146 C 1.4542(4) 0.60366(14) 0.3724(2)
H92 H 1.433337 0.575397 0.364055
C147 C 1.3773(4) 0.63313(14) 0.3400(2)
H93 H 1.301496 0.625309 0.310604
C148 C 1.4089(4) 0.67580(13) 0.3495(2)
C149 C 1.3331(4) 0.70688(14) 0.3136(2)
C150 C 1.3721(4) 0.74783(15) 0.3210(2)
H94 H 1.321264 0.768379 0.296198
C151 C 1.4839(4) 0.75994(13) 0.3636(2)
C152 C 1.5572(4) 0.72979(13) 0.4031(2)
C153 C 1.6685(4) 0.74019(14) 0.4498(2)
H95 H 1.695818 0.768253 0.454294
C154 C 1.7362(4) 0.71129(14) 0.4878(2)
H96 H 1.808553 0.719494 0.518989
C155 C 1.8576(4) 0.64663(14) 0.5826(2)
C156 C 1.8258(5) 0.67699(15) 0.6277(2)
H97 H 1.748543 0.693881 0.617418
C157 C 1.9038(5) 0.68294(16) 0.6867(3)
H98 H 1.879845 0.703791 0.716327
C158 C 2.0173(5) 0.65865(16) 0.7031(3)
H99 H 2.070854 0.662561 0.743891
C159 C 2.0513(5) 0.62830(16) 0.6585(3)
H100 H 2.128825 0.611551 0.668907
C160 C 1.9727(4) 0.62256(15) 0.5993(2)
H101 H 1.997342 0.601939 0.569383
C161 C 1.6333(4) 0.53878(14) 0.4375(2)
C162 C 1.6112(4) 0.50870(14) 0.4838(2)
H102 H 1.602932 0.516541 0.528270
C163 C 1.6008(4) 0.46707(15) 0.4660(2)
H103 H 1.583219 0.447057 0.498319
C164 C 1.6157(5) 0.45471(15) 0.4026(3)
H104 H 1.608575 0.426353 0.390737
C165 C 1.6414(5) 0.48439(16) 0.3558(2)
H105 H 1.653237 0.476059 0.311874
C166 C 1.6497(5) 0.52551(15) 0.3721(2)
H106 H 1.666702 0.545292 0.339407
C167 C 1.2192(4) 0.69713(14) 0.2684(2)
C168 C 1.1225(4) 0.69141(14) 0.2296(2)
C169 C 1.0082(4) 0.68632(17) 0.1814(2)
C170 C 0.9612(6) 0.6495(2) 0.1571(3)
H107 H 1.001534 0.624191 0.172069
C171 C 0.8402(6) 0.6505(2) 0.1043(3)
H108 H 0.801884 0.625701 0.085977
C172 C 0.7902(5) 0.68734(18) 0.0850(3)
C173 C 0.8334(5) 0.72429(18) 0.1089(3)
H109 H 0.793007 0.749618 0.093958
C174 C 0.9406(5) 0.7224(2) 0.1565(2)
H110 H 0.973039 0.747917 0.174637
O7 O 0.6811(4) 0.68915(12) 0.03480(19)
C175 C 0.6209(5) 0.6540(2) 0.0106(3)
H111 H 0.686438 0.637312 -0.010835
H112 H 0.544882 0.661014 -0.021716
H113 H 0.587868 0.638180 0.046933
C176 C 1.5226(4) 0.80220(14) 0.3665(2)
C177 C 1.5519(4) 0.83817(15) 0.3660(2)
C178 C 1.5864(4) 0.88142(14) 0.3661(2)
C179 C 1.4858(4) 0.91193(15) 0.3642(2)
H114 H 1.393464 0.904127 0.362277
C180 C 1.5204(4) 0.95286(15) 0.3652(2)
H115 H 1.451529 0.973258 0.364168
C181 C 1.6557(4) 0.96508(14) 0.3677(2)
C182 C 1.7559(4) 0.93468(15) 0.3706(2)
H116 H 1.848461 0.942352 0.373236
C183 C 1.7198(4) 0.89331(14) 0.3698(2)
H117 H 1.788319 0.872791 0.371736
O8 O 1.6800(3) 1.00673(10) 0.36755(17)
C184 C 1.8182(5) 1.01853(16) 0.3715(3)
H118 H 1.824911 1.048731 0.371206
H119 H 1.859663 1.007256 0.333465
H120 H 1.865379 1.007728 0.412431
C185 C 0.1479(11) 0.4968(3) 0.2336(5)
H121 H 0.151930 0.497543 0.184664
Cl1 Cl 0.1081(5) 0.54561(10) 0.26006(16)
Cl2 Cl 0.3078(3) 0.48117(10) 0.27140(13)
Cl3 Cl 0.0262(3) 0.45958(12) 0.25181(16)
C186? C 0.0875(16) 0.5047(5) 0.2726(8)
H122? H 0.087724 0.504330 0.321787
Cl4? Cl 0.2073(9) 0.5408(3) 0.2522(4)
Cl5? Cl 0.1245(16) 0.4555(3) 0.2473(5)
Cl6? Cl -0.0743(7) 0.5205(3) 0.2386(3)
loop_
_geom_bond_atom_site_label_1
_geom_bond_atom_site_label_2
_geom_bond_site_symmetry_1
_geom_bond_site_symmetry_2
C1 C2 1_555 1_555
C2 C3 1_555 1_555
C3 C4 1_555 1_555
C4 C5 1_555 1_555
C5 H1 1_555 1_555
C6 C5 1_555 1_555
C7 C2 1_555 1_555
C8 C7 1_555 1_555
H2 C8 1_555 1_555
C9 C8 1_555 1_555
H3 C9 1_555 1_555
C10 C1 1_555 1_555
C11 C10 1_555 1_555
C12 C11 1_555 1_555
H4 C12 1_555 1_555
C13 C12 1_555 1_555
C14 C1 1_555 1_555
C15 C14 1_555 1_555
H5 C15 1_555 1_555
C16 C3 1_555 1_555
H6 C16 1_555 1_555
C17 C4 1_555 1_555
C18 C17 1_555 1_555
H7 C18 1_555 1_555
C19 C18 1_555 1_555
H8 C19 1_555 1_555
C20 C19 1_555 1_555
H9 C20 1_555 1_555
C21 C20 1_555 1_555
H10 C21 1_555 1_555
C22 C17 1_555 1_555
H11 C22 1_555 1_555
C23 C6 1_555 1_555
C24 C23 1_555 1_555
H12 C24 1_555 1_555
C25 C24 1_555 1_555
H13 C25 1_555 1_555
C26 C25 1_555 1_555
H14 C26 1_555 1_555
C27 C26 1_555 1_555
H15 C27 1_555 1_555
C28 C23 1_555 1_555
H16 C28 1_555 1_555
C29 C11 1_555 1_555
C30 C29 1_555 1_555
C31 C30 1_555 1_555
C32 C31 1_555 1_555
H17 C32 1_555 1_555
C33 C32 1_555 1_555
H18 C33 1_555 1_555
C34 C33 1_555 1_555
C35 C34 1_555 1_555
H19 C35 1_555 1_555
C36 C31 1_555 1_555
H20 C36 1_555 1_555
O1 C34 1_555 1_555
C37 O1 1_555 1_555
H21 C37 1_555 1_555
H22 C37 1_555 1_555
H23 C37 1_555 1_555
C38 C13 1_555 1_555
C39 C38 1_555 1_555
C40 C39 1_555 1_555
C41 C40 1_555 1_555
H24 C41 1_555 1_555
C42 C41 1_555 1_555
H25 C42 1_555 1_555
C43 C42 1_555 1_555
C44 C43 1_555 1_555
H26 C44 1_555 1_555
C45 C40 1_555 1_555
H27 C45 1_555 1_555
O2 C43 1_555 1_555
C46 O2 1_555 1_555
H28 C46 1_555 1_555
H29 C46 1_555 1_555
H30 C46 1_555 1_555
C47 C48 1_555 1_555
C48 C49 1_555 1_555
C49 C50 1_555 1_555
C50 C51 1_555 1_555
C51 H31 1_555 1_555
C52 C51 1_555 1_555
C53 C48 1_555 1_555
C54 C53 1_555 1_555
H32 C54 1_555 1_555
C55 C54 1_555 1_555
H33 C55 1_555 1_555
C56 C47 1_555 1_555
C57 C56 1_555 1_555
C58 C57 1_555 1_555
H34 C58 1_555 1_555
C59 C58 1_555 1_555
C60 C47 1_555 1_555
C61 C60 1_555 1_555
H35 C61 1_555 1_555
C62 C49 1_555 1_555
H36 C62 1_555 1_555
C63 C50 1_555 1_555
C64 C63 1_555 1_555
H37 C64 1_555 1_555
C65 C64 1_555 1_555
H38 C65 1_555 1_555
C66 C65 1_555 1_555
H39 C66 1_555 1_555
C67 C66 1_555 1_555
H40 C67 1_555 1_555
C68 C63 1_555 1_555
H41 C68 1_555 1_555
C69 C52 1_555 1_555
C70 C69 1_555 1_555
H42 C70 1_555 1_555
C71 C70 1_555 1_555
H43 C71 1_555 1_555
C72 C71 1_555 1_555
H44 C72 1_555 1_555
C73 C72 1_555 1_555
H45 C73 1_555 1_555
C74 C69 1_555 1_555
H46 C74 1_555 1_555
C75 C57 1_555 1_555
C76 C75 1_555 1_555
C77 C76 1_555 1_555
C78 C77 1_555 1_555
H47 C78 1_555 1_555
C79 C78 1_555 1_555
H48 C79 1_555 1_555
C80 C79 1_555 1_555
C81 C80 1_555 1_555
H49 C81 1_555 1_555
C82 C77 1_555 1_555
H50 C82 1_555 1_555
O3 C80 1_555 1_555
C83 O3 1_555 1_555
H51 C83 1_555 1_555
H52 C83 1_555 1_555
H53 C83 1_555 1_555
C84 C59 1_555 1_555
C85 C84 1_555 1_555
C86 C85 1_555 1_555
C87 C86 1_555 1_555
H54 C87 1_555 1_555
C88 C87 1_555 1_555
H55 C88 1_555 1_555
C89 C88 1_555 1_555
C90 C89 1_555 1_555
H56 C90 1_555 1_555
C91 C86 1_555 1_555
H57 C91 1_555 1_555
O4 C89 1_555 1_555
C92 O4 1_555 1_555
H58 C92 1_555 1_555
H59 C92 1_555 1_555
H60 C92 1_555 1_555
C93 C94 1_555 1_555
C94 C95 1_555 1_555
C95 C96 1_555 1_555
C96 C97 1_555 1_555
C97 H61 1_555 1_555
C98 C97 1_555 1_555
C99 C94 1_555 1_555
C100 C99 1_555 1_555
H62 C100 1_555 1_555
C101 C100 1_555 1_555
H63 C101 1_555 1_555
C102 C93 1_555 1_555
C103 C102 1_555 1_555
C104 C103 1_555 1_555
H64 C104 1_555 1_555
C105 C104 1_555 1_555
C106 C93 1_555 1_555
C107 C106 1_555 1_555
H65 C107 1_555 1_555
C108 C95 1_555 1_555
H66 C108 1_555 1_555
C109 C96 1_555 1_555
C110 C109 1_555 1_555
H67 C110 1_555 1_555
C111 C110 1_555 1_555
H68 C111 1_555 1_555
C112 C111 1_555 1_555
H69 C112 1_555 1_555
C113 C112 1_555 1_555
H70 C113 1_555 1_555
C114 C109 1_555 1_555
H71 C114 1_555 1_555
C115 C98 1_555 1_555
C116 C115 1_555 1_555
H72 C116 1_555 1_555
C117 C116 1_555 1_555
H73 C117 1_555 1_555
C118 C117 1_555 1_555
H74 C118 1_555 1_555
C119 C118 1_555 1_555
H75 C119 1_555 1_555
C120 C115 1_555 1_555
H76 C120 1_555 1_555
C121 C103 1_555 1_555
C122 C121 1_555 1_555
C123 C122 1_555 1_555
C124 C123 1_555 1_555
H77 C124 1_555 1_555
C125 C124 1_555 1_555
H78 C125 1_555 1_555
C126 C125 1_555 1_555
C127 C126 1_555 1_555
H79 C127 1_555 1_555
C128 C123 1_555 1_555
H80 C128 1_555 1_555
O5 C126 1_555 1_555
C129 O5 1_555 1_555
H81 C129 1_555 1_555
H82 C129 1_555 1_555
H83 C129 1_555 1_555
C130 C105 1_555 1_555
C131 C130 1_555 1_555
C132 C131 1_555 1_555
C133 C132 1_555 1_555
H84 C133 1_555 1_555
C134 C133 1_555 1_555
H85 C134 1_555 1_555
C135 C134 1_555 1_555
C136 C135 1_555 1_555
H86 C136 1_555 1_555
C137 C132 1_555 1_555
H87 C137 1_555 1_555
O6 C135 1_555 1_555
C138 O6 1_555 1_555
H88 C138 1_555 1_555
H89 C138 1_555 1_555
H90 C138 1_555 1_555
C139 C140 1_555 1_555
C140 C141 1_555 1_555
C141 C142 1_555 1_555
C142 C143 1_555 1_555
C143 H91 1_555 1_555
C144 C143 1_555 1_555
C145 C140 1_555 1_555
C146 C145 1_555 1_555
H92 C146 1_555 1_555
C147 C146 1_555 1_555
H93 C147 1_555 1_555
C148 C139 1_555 1_555
C149 C148 1_555 1_555
C150 C149 1_555 1_555
H94 C150 1_555 1_555
C151 C150 1_555 1_555
C152 C139 1_555 1_555
C153 C152 1_555 1_555
H95 C153 1_555 1_555
C154 C141 1_555 1_555
H96 C154 1_555 1_555
C155 C142 1_555 1_555
C156 C155 1_555 1_555
H97 C156 1_555 1_555
C157 C156 1_555 1_555
H98 C157 1_555 1_555
C158 C157 1_555 1_555
H99 C158 1_555 1_555
C159 C158 1_555 1_555
H100 C159 1_555 1_555
C160 C155 1_555 1_555
H101 C160 1_555 1_555
C161 C144 1_555 1_555
C162 C161 1_555 1_555
H102 C162 1_555 1_555
C163 C162 1_555 1_555
H103 C163 1_555 1_555
C164 C163 1_555 1_555
H104 C164 1_555 1_555
C165 C164 1_555 1_555
H105 C165 1_555 1_555
C166 C161 1_555 1_555
H106 C166 1_555 1_555
C167 C149 1_555 1_555
C168 C167 1_555 1_555
C169 C168 1_555 1_555
C170 C169 1_555 1_555
H107 C170 1_555 1_555
C171 C170 1_555 1_555
H108 C171 1_555 1_555
C172 C171 1_555 1_555
C173 C172 1_555 1_555
H109 C173 1_555 1_555
C174 C169 1_555 1_555
H110 C174 1_555 1_555
O7 C172 1_555 1_555
C175 O7 1_555 1_555
H111 C175 1_555 1_555
H112 C175 1_555 1_555
H113 C175 1_555 1_555
C176 C151 1_555 1_555
C177 C176 1_555 1_555
C178 C177 1_555 1_555
C179 C178 1_555 1_555
H114 C179 1_555 1_555
C180 C179 1_555 1_555
H115 C180 1_555 1_555
C181 C180 1_555 1_555
C182 C181 1_555 1_555
H116 C182 1_555 1_555
C183 C178 1_555 1_555
H117 C183 1_555 1_555
O8 C181 1_555 1_555
C184 O8 1_555 1_555
H118 C184 1_555 1_555
H119 C184 1_555 1_555
H120 C184 1_555 1_555
C185 H121 1_555 1_555
Cl1 C185 1_555 1_555
Cl2 C185 1_555 1_555
Cl3 C185 1_555 1_555
C6 C7 1_555 1_555
C9 C10 1_555 1_555
C13 C14 1_555 1_555
C15 C16 1_555 1_555
C21 C22 1_555 1_555
C27 C28 1_555 1_555
C35 C36 1_555 1_555
C44 C45 1_555 1_555
C52 C53 1_555 1_555
C55 C56 1_555 1_555
C59 C60 1_555 1_555
C61 C62 1_555 1_555
C67 C68 1_555 1_555
C73 C74 1_555 1_555
C81 C82 1_555 1_555
C90 C91 1_555 1_555
C98 C99 1_555 1_555
C101 C102 1_555 1_555
C105 C106 1_555 1_555
C107 C108 1_555 1_555
C113 C114 1_555 1_555
C119 C120 1_555 1_555
C127 C128 1_555 1_555
C136 C137 1_555 1_555
C144 C145 1_555 1_555
C147 C148 1_555 1_555
C151 C152 1_555 1_555
C153 C154 1_555 1_555
C159 C160 1_555 1_555
C165 C166 1_555 1_555
C173 C174 1_555 1_555
C182 C183 1_555 1_555

#END
