
#######################################################################
#
#                 Cambridge Crystallographic Data Centre
#                                CCDC 
#
#######################################################################
#
# If this CIF has been generated from an entry in the Cambridge 
# Structural Database, then it will include bibliographic, chemical, 
# crystal, experimental, refinement or atomic coordinate data resulting 
# from the CCDC's data processing and validation procedures.
#
#######################################################################

data_DIMVUT
_chemical_formula_moiety         'C10 H14 N2 O2'
_chemical_name_systematic        
'ethyl 2-cyano-5-(dimethylamino)penta-2,4-dienoate'
_symmetry_cell_setting           monoclinic
_symmetry_space_group_name_H-M   'P 21/n'
_symmetry_Int_Tables_number      14
_space_group_name_Hall           '-P 2yn'
loop_
_symmetry_equiv_pos_site_id
_symmetry_equiv_pos_as_xyz
1 x,y,z
2 1/2-x,1/2+y,1/2-z
3 -x,-y,-z
4 1/2+x,1/2-y,1/2+z
_cell_length_a                   6.6196(4)
_cell_length_b                   8.7859(4)
_cell_length_c                   18.3836(10)
_cell_angle_alpha                90
_cell_angle_beta                 92.894(5)
_cell_angle_gamma                90
_cell_volume                     1067.81
_exptl_crystal_colour            colorless
_exptl_crystal_description       platelet
_cell_formula_units_Z            4
loop_
_atom_site_label
_atom_site_type_symbol
_atom_site_fract_x
_atom_site_fract_y
_atom_site_fract_z
O1 O 0.3729(3) 0.0163(3) 0.60898(11)
O2 O 0.3849(3) 0.1539(2) 0.71207(10)
N1 N 1.1379(3) 0.2580(3) 0.44695(11)
N2 N 0.8014(5) 0.3907(3) 0.71851(14)
C1 C 1.1887(5) 0.2179(4) 0.37270(16)
H1 H 1.0920 0.1457 0.3528
H2 H 1.3215 0.1739 0.3736
H3 H 1.1858 0.3078 0.3430
C2 C 1.2749(5) 0.3632(4) 0.48544(18)
H4 H 1.2317 0.4658 0.4757
H5 H 1.4093 0.3493 0.4692
H6 H 1.2743 0.3440 0.5368
C3 C 0.9756(4) 0.2020(3) 0.47629(14)
H7 H 0.8988 0.1334 0.4480
C4 C 0.9078(4) 0.2342(3) 0.54414(13)
H8 H 0.9806 0.3004 0.5750
C5 C 0.7300(4) 0.1678(3) 0.56669(13)
H9 H 0.6668 0.0985 0.5348
C6 C 0.6379(4) 0.1938(3) 0.63112(13)
C7 C 0.7249(4) 0.3018(3) 0.68119(14)
C8 C 0.4539(4) 0.1119(3) 0.64796(14)
C9 C 0.2145(4) 0.0679(4) 0.73709(17)
H10 H 0.2327 -0.0397 0.7275
H11 H 0.0902 0.1012 0.7117
C10 C 0.2037(6) 0.0945(5) 0.81666(19)
H12 H 0.3263 0.0595 0.8413
H13 H 0.0907 0.0399 0.8345
H14 H 0.1873 0.2014 0.8256
loop_
_geom_bond_atom_site_label_1
_geom_bond_atom_site_label_2
_geom_bond_site_symmetry_1
_geom_bond_site_symmetry_2
O1 C8 1_555 1_555
O2 C8 1_555 1_555
N1 C1 1_555 1_555
N2 C7 1_555 1_555
C1 H1 1_555 1_555
H2 C1 1_555 1_555
H3 C1 1_555 1_555
C2 N1 1_555 1_555
H4 C2 1_555 1_555
H5 C2 1_555 1_555
H6 C2 1_555 1_555
C3 N1 1_555 1_555
H7 C3 1_555 1_555
C4 C3 1_555 1_555
H8 C4 1_555 1_555
C5 C4 1_555 1_555
H9 C5 1_555 1_555
C6 C5 1_555 1_555
C7 C6 1_555 1_555
C8 C6 1_555 1_555
C9 O2 1_555 1_555
H10 C9 1_555 1_555
H11 C9 1_555 1_555
C10 C9 1_555 1_555
H12 C10 1_555 1_555
H13 C10 1_555 1_555
H14 C10 1_555 1_555

#END
