
#######################################################################
#
#                 Cambridge Crystallographic Data Centre
#                                CCDC 
#
#######################################################################
#
# If this CIF has been generated from an entry in the Cambridge 
# Structural Database, then it will include bibliographic, chemical, 
# crystal, experimental, refinement or atomic coordinate data resulting 
# from the CCDC's data processing and validation procedures.
#
#######################################################################

data_DIMWEE
_chemical_formula_moiety         'C20 H18 N2 O1'
_chemical_name_systematic        
2-(benzenecarbonyl)-5-(dimethylamino)-5-phenylpenta-2,4-dienenitrile
_symmetry_cell_setting           monoclinic
_symmetry_space_group_name_H-M   'P 21/n'
_symmetry_Int_Tables_number      14
_space_group_name_Hall           '-P 2yn'
loop_
_symmetry_equiv_pos_site_id
_symmetry_equiv_pos_as_xyz
1 x,y,z
2 1/2-x,1/2+y,1/2-z
3 -x,-y,-z
4 1/2+x,1/2-y,1/2+z
_cell_length_a                   9.6203(3)
_cell_length_b                   17.7657(7)
_cell_length_c                   9.9957(4)
_cell_angle_alpha                90
_cell_angle_beta                 95.113(3)
_cell_angle_gamma                90
_cell_volume                     1701.58
_exptl_crystal_colour            orange
_exptl_crystal_description       prism
_cell_formula_units_Z            4
loop_
_atom_site_label
_atom_site_type_symbol
_atom_site_fract_x
_atom_site_fract_y
_atom_site_fract_z
O1 O 0.34409(15) -0.09939(8) 0.49511(16)
N1 N 0.02365(17) 0.22924(8) 0.18558(15)
N2 N 0.18176(19) -0.07077(10) 0.1724(2)
C1 C -0.0533(2) 0.29998(11) 0.1871(2)
H1 H -0.0844 0.3078 0.2747
H2 H -0.1325 0.2980 0.1217
H3 H 0.0065 0.3408 0.1660
C2 C 0.0478(3) 0.20222(14) 0.0520(2)
H4 H 0.1394 0.1806 0.0541
H5 H 0.0406 0.2435 -0.0102
H6 H -0.0207 0.1648 0.0241
C3 C 0.06437(17) 0.18963(9) 0.29562(17)
C4 C 0.05776(17) 0.22686(8) 0.42810(17)
C5 C -0.0281(3) 0.20038(12) 0.5211(2)
H7 H -0.0842 0.1585 0.5012
C6 C -0.0309(3) 0.23603(15) 0.6441(3)
H8 H -0.0894 0.2181 0.7061
C7 C 0.0517(3) 0.29735(13) 0.6751(2)
H9 H 0.0496 0.3209 0.7580
C8 C 0.1373(2) 0.32389(12) 0.5840(2)
H10 H 0.1939 0.3654 0.6050
C9 C 0.1401(2) 0.28936(9) 0.46127(19)
H11 H 0.1980 0.3082 0.3995
C10 C 0.11347(18) 0.11570(9) 0.28795(18)
H12 H 0.1055 0.0921 0.2046
C11 C 0.17297(16) 0.07579(9) 0.39691(18)
H13 H 0.1852 0.1013 0.4784
C12 C 0.21645(16) 0.00107(9) 0.39649(18)
C13 C 0.19905(17) -0.03965(9) 0.2725(2)
C14 C 0.28762(17) -0.03802(9) 0.50969(19)
C15 C 0.29495(16) -0.00355(9) 0.64571(18)
C16 C 0.42383(17) 0.00200(10) 0.7209(2)
H14 H 0.5038 -0.0152 0.6846
C17 C 0.4343(2) 0.03243(11) 0.8475(2)
H15 H 0.5213 0.0375 0.8951
C18 C 0.3165(2) 0.05532(12) 0.9041(2)
H16 H 0.3236 0.0753 0.9905
C19 C 0.1886(2) 0.04869(13) 0.8330(2)
H17 H 0.1087 0.0633 0.8722
C20 C 0.17722(18) 0.02066(12) 0.7042(2)
H18 H 0.0901 0.0179 0.6560
loop_
_geom_bond_atom_site_label_1
_geom_bond_atom_site_label_2
_geom_bond_site_symmetry_1
_geom_bond_site_symmetry_2
O1 C14 1_555 1_555
N1 C1 1_555 1_555
N2 C13 1_555 1_555
C1 H1 1_555 1_555
H2 C1 1_555 1_555
H3 C1 1_555 1_555
C2 N1 1_555 1_555
H4 C2 1_555 1_555
H5 C2 1_555 1_555
H6 C2 1_555 1_555
C3 N1 1_555 1_555
C4 C3 1_555 1_555
C5 C4 1_555 1_555
H7 C5 1_555 1_555
C6 C5 1_555 1_555
H8 C6 1_555 1_555
C7 C6 1_555 1_555
H9 C7 1_555 1_555
C8 C7 1_555 1_555
H10 C8 1_555 1_555
C9 C4 1_555 1_555
H11 C9 1_555 1_555
C10 C3 1_555 1_555
H12 C10 1_555 1_555
C11 C10 1_555 1_555
H13 C11 1_555 1_555
C12 C11 1_555 1_555
C13 C12 1_555 1_555
C14 C12 1_555 1_555
C15 C14 1_555 1_555
C16 C15 1_555 1_555
H14 C16 1_555 1_555
C17 C16 1_555 1_555
H15 C17 1_555 1_555
C18 C17 1_555 1_555
H16 C18 1_555 1_555
C19 C18 1_555 1_555
H17 C19 1_555 1_555
C20 C15 1_555 1_555
H18 C20 1_555 1_555
C8 C9 1_555 1_555
C19 C20 1_555 1_555

#END
