
#######################################################################
#
#                 Cambridge Crystallographic Data Centre
#                                CCDC 
#
#######################################################################
#
# If this CIF has been generated from an entry in the Cambridge 
# Structural Database, then it will include bibliographic, chemical, 
# crystal, experimental, refinement or atomic coordinate data resulting 
# from the CCDC's data processing and validation procedures.
#
#######################################################################

data_DIMWAA
_chemical_formula_moiety         'C16 H19 N3 O1'
_chemical_name_systematic        
2-cyano-5-(dimethylamino)-N,N-dimethyl-5-phenylpenta-2,4-dienamide
_symmetry_cell_setting           monoclinic
_symmetry_space_group_name_H-M   'P 21/c'
_symmetry_Int_Tables_number      14
_space_group_name_Hall           '-P 2ybc'
loop_
_symmetry_equiv_pos_site_id
_symmetry_equiv_pos_as_xyz
1 x,y,z
2 -x,1/2+y,1/2-z
3 -x,-y,-z
4 x,1/2-y,1/2+z
_cell_length_a                   10.4687(6)
_cell_length_b                   14.2688(6)
_cell_length_c                   11.3323(5)
_cell_angle_alpha                90
_cell_angle_beta                 114.632(6)
_cell_angle_gamma                90
_cell_volume                     1538.73
_exptl_crystal_colour            yellow
_exptl_crystal_description       prism
_cell_formula_units_Z            4
loop_
_atom_site_label
_atom_site_type_symbol
_atom_site_fract_x
_atom_site_fract_y
_atom_site_fract_z
O1 O -0.15346(17) 0.34139(10) -0.08907(14)
N1 N 0.12394(17) 0.04673(11) 0.34810(16)
N2 N -0.3232(2) 0.03216(13) -0.1406(2)
N3 N -0.30213(16) 0.27086(12) -0.27146(15)
C1 C 0.1749(2) 0.26651(15) 0.3653(2)
H1 H 0.1068 0.2614 0.3976
C2 C 0.2603(2) 0.34532(15) 0.3930(2)
H2 H 0.2492 0.3930 0.4439
C3 C 0.3606(2) 0.35338(16) 0.3459(2)
H3 H 0.4164 0.4068 0.3635
C4 C 0.3786(2) 0.28342(19) 0.2735(2)
H4 H 0.4482 0.2886 0.2430
C5 C 0.2945(2) 0.20418(16) 0.2442(2)
H5 H 0.3075 0.1568 0.1940
C6 C 0.19138(17) 0.19551(13) 0.28958(16)
C7 C 0.09869(18) 0.11167(13) 0.25627(17)
C8 C 0.2438(3) 0.05064(18) 0.4746(2)
H6 H 0.3184 0.0858 0.4674
H7 H 0.2758 -0.0118 0.5034
H8 H 0.2159 0.0805 0.5361
C9 C 0.0269(3) -0.03136(16) 0.3261(2)
H9 H -0.0660 -0.0076 0.3043
H10 H 0.0562 -0.0687 0.4034
H11 H 0.0267 -0.0692 0.2560
C10 C -0.01223(18) 0.10431(14) 0.13386(18)
H12 H -0.0611 0.0480 0.1110
C11 C -0.05316(18) 0.17693(13) 0.04463(17)
H13 H 0.0014 0.2310 0.0684
C12 C -0.16562(17) 0.17820(13) -0.07546(16)
C13 C -0.2536(2) 0.09767(14) -0.11443(18)
C14 C -0.20466(19) 0.26829(14) -0.14597(17)
C15 C -0.3312(3) 0.19544(18) -0.3641(2)
H14 H -0.2735 0.1424 -0.3228
H15 H -0.3111 0.2157 -0.4354
H16 H -0.4285 0.1781 -0.3958
C16 C -0.3541(3) 0.36295(18) -0.3265(2)
H17 H -0.3391 0.4067 -0.2576
H18 H -0.4528 0.3590 -0.3814
H19 H -0.3048 0.3837 -0.3766
loop_
_geom_bond_atom_site_label_1
_geom_bond_atom_site_label_2
_geom_bond_site_symmetry_1
_geom_bond_site_symmetry_2
O1 C14 1_555 1_555
N1 C7 1_555 1_555
N2 C13 1_555 1_555
N3 C14 1_555 1_555
C1 H1 1_555 1_555
C2 C1 1_555 1_555
H2 C2 1_555 1_555
C3 C2 1_555 1_555
H3 C3 1_555 1_555
C4 C3 1_555 1_555
H4 C4 1_555 1_555
C5 C4 1_555 1_555
H5 C5 1_555 1_555
C6 C1 1_555 1_555
C7 C6 1_555 1_555
C8 N1 1_555 1_555
H6 C8 1_555 1_555
H7 C8 1_555 1_555
H8 C8 1_555 1_555
C9 N1 1_555 1_555
H9 C9 1_555 1_555
H10 C9 1_555 1_555
H11 C9 1_555 1_555
C10 C7 1_555 1_555
H12 C10 1_555 1_555
C11 C10 1_555 1_555
H13 C11 1_555 1_555
C12 C11 1_555 1_555
C13 C12 1_555 1_555
C14 C12 1_555 1_555
C15 N3 1_555 1_555
H14 C15 1_555 1_555
H15 C15 1_555 1_555
H16 C15 1_555 1_555
C16 N3 1_555 1_555
H17 C16 1_555 1_555
H18 C16 1_555 1_555
H19 C16 1_555 1_555
C5 C6 1_555 1_555

#END
