
#######################################################################
#
#                 Cambridge Crystallographic Data Centre
#                                CCDC 
#
#######################################################################
#
# If this CIF has been generated from an entry in the Cambridge 
# Structural Database, then it will include bibliographic, chemical, 
# crystal, experimental, refinement or atomic coordinate data resulting 
# from the CCDC's data processing and validation procedures.
#
#######################################################################

data_DIMYAC
_chemical_formula_moiety         'C11 H14 O5'
_chemical_name_systematic        
6-(4-hydroxybut-2-en-2-yl)-5-(hydroxymethyl)-4-methoxy-2H-pyran-2-one
_symmetry_cell_setting           monoclinic
_symmetry_space_group_name_H-M   'P 21/n'
_symmetry_Int_Tables_number      14
_space_group_name_Hall           '-P 2yn'
loop_
_symmetry_equiv_pos_site_id
_symmetry_equiv_pos_as_xyz
1 x,y,z
2 1/2-x,1/2+y,1/2-z
3 -x,-y,-z
4 1/2+x,1/2-y,1/2+z
_cell_length_a                   4.469(3)
_cell_length_b                   22.911(13)
_cell_length_c                   10.525(6)
_cell_angle_alpha                90
_cell_angle_beta                 98.898(7)
_cell_angle_gamma                90
_cell_volume                     1064.68
_exptl_crystal_colour            colorless
_exptl_crystal_description       block
_cell_formula_units_Z            4
loop_
_atom_site_label
_atom_site_type_symbol
_atom_site_fract_x
_atom_site_fract_y
_atom_site_fract_z
O1 O 0.5597(3) 0.13371(6) 0.96692(13)
O2 O 0.4759(4) 0.34770(7) 0.78998(15)
O3 O 0.4171(4) 0.02231(6) 0.66479(13)
O4 O 0.2871(4) 0.14705(7) 0.54118(16)
O5 O 0.8760(4) 0.07472(7) 1.08408(15)
C1 C 0.3758(4) 0.14931(8) 0.85508(17)
C2 C 0.3229(4) 0.11218(8) 0.75485(18)
C3 C 0.4774(4) 0.05680(8) 0.76782(18)
C4 C 0.2666(4) 0.20955(8) 0.86688(18)
C5 C 0.6700(5) 0.04269(9) 0.87671(19)
H1 H 0.7729 0.0073 0.8820
C6 C 0.7132(5) 0.08143(8) 0.98070(19)
C7 C 0.1127(5) 0.12637(9) 0.63377(19)
H2 H 0.0006 0.0918 0.6016
H3 H -0.0310 0.1560 0.6507
C8 C 0.3005(5) 0.24875(8) 0.77776(19)
H4 H 0.3832 0.2362 0.7067
C9 C 0.2152(5) 0.31185(9) 0.7830(2)
H5 H 0.0730 0.3218 0.7068
H6 H 0.1172 0.3187 0.8576
C10 C 0.5731(6) -0.03269(9) 0.6675(2)
H7 H 0.5123 -0.0528 0.5877
H8 H 0.5236 -0.0560 0.7371
H9 H 0.7877 -0.0260 0.6793
C11 C 0.1429(5) 0.22376(9) 0.9882(2)
H10 H 0.0794 0.2638 0.9861
H11 H 0.2975 0.2176 1.0611
H12 H -0.0270 0.1989 0.9949
H13 H 0.191(8) 0.1432(14) 0.473(3)
H14 H 0.451(7) 0.3661(15) 0.725(3)
loop_
_geom_bond_atom_site_label_1
_geom_bond_atom_site_label_2
_geom_bond_site_symmetry_1
_geom_bond_site_symmetry_2
O1 C1 1_555 1_555
O2 C9 1_555 1_555
O3 C3 1_555 1_555
O4 C7 1_555 1_555
O5 C6 1_555 1_555
C1 C2 1_555 1_555
C2 C3 1_555 1_555
C3 C5 1_555 1_555
C4 C1 1_555 1_555
C5 H1 1_555 1_555
C6 O1 1_555 1_555
C7 C2 1_555 1_555
H2 C7 1_555 1_555
H3 C7 1_555 1_555
C8 C4 1_555 1_555
H4 C8 1_555 1_555
C9 C8 1_555 1_555
H5 C9 1_555 1_555
H6 C9 1_555 1_555
C10 O3 1_555 1_555
H7 C10 1_555 1_555
H8 C10 1_555 1_555
H9 C10 1_555 1_555
C11 C4 1_555 1_555
H10 C11 1_555 1_555
H11 C11 1_555 1_555
H12 C11 1_555 1_555
H13 O4 1_555 1_555
H14 O2 1_555 1_555
C5 C6 1_555 1_555

#END
