
#######################################################################
#
#                 Cambridge Crystallographic Data Centre
#                                CCDC 
#
#######################################################################
#
# If this CIF has been generated from an entry in the Cambridge 
# Structural Database, then it will include bibliographic, chemical, 
# crystal, experimental, refinement or atomic coordinate data resulting 
# from the CCDC's data processing and validation procedures.
#
#######################################################################

data_DIMYUW
_chemical_formula_moiety         'C18 H21 Cl1 N2 Si1'
_chemical_name_systematic        
2-chloro-1,3-bis(2,6-dimethylphenyl)-2,3-dihydro-1H-1,3,2-diazasilole
_symmetry_cell_setting           monoclinic
_symmetry_space_group_name_H-M   'P 21/c'
_symmetry_Int_Tables_number      14
_space_group_name_Hall           '-P 2ybc'
loop_
_symmetry_equiv_pos_site_id
_symmetry_equiv_pos_as_xyz
1 x,y,z
2 -x,1/2+y,1/2-z
3 -x,-y,-z
4 x,1/2-y,1/2+z
_cell_length_a                   14.783(7)
_cell_length_b                   7.424(3)
_cell_length_c                   16.441(8)
_cell_angle_alpha                90
_cell_angle_beta                 112.30(3)
_cell_angle_gamma                90
_cell_volume                     1669.43
_exptl_crystal_colour            colorless
_exptl_crystal_description       needle
_cell_formula_units_Z            4
loop_
_atom_site_label
_atom_site_type_symbol
_atom_site_fract_x
_atom_site_fract_y
_atom_site_fract_z
Si1 Si 0.73013(16) 0.3560(5) 0.2817(2)
H1 H 0.7066 0.3926 0.3288
N1 N 0.6535(7) 0.2038(11) 0.2096(8)
N2 N 0.8238(8) 0.2121(10) 0.3181(8)
C1 C 0.7006(6) 0.0431(13) 0.2119(5)
H2 H 0.6725 -0.0563 0.1744
C2 C 0.7968(7) 0.0449(14) 0.2775(5)
H3 H 0.8385 -0.0575 0.2922
Cl1 Cl 0.7649(4) 0.5748(9) 0.2213(4)
C3 C 0.5578(2) 0.2367(4) 0.1450(2)
C4 C 0.5424(2) 0.2460(4) 0.0555(2)
C5 C 0.4480(2) 0.2809(5) -0.0046(2)
H4 H 0.4361 0.2878 -0.0655
C6 C 0.3711(2) 0.3058(5) 0.0231(2)
H5 H 0.3073 0.3306 -0.0186
C7 C 0.3877(2) 0.2944(4) 0.1118(2)
H6 H 0.3348 0.3108 0.1304
C8 C 0.4806(2) 0.2593(4) 0.1739(2)
C9 C 0.4968(2) 0.2467(5) 0.2704(2)
H7 H 0.4342 0.2232 0.2762
H8 H 0.5241 0.3604 0.2997
H9 H 0.5424 0.1483 0.2977
C10 C 0.6252(2) 0.2236(5) 0.0244(2)
H10 H 0.6088 0.2842 -0.0324
H11 H 0.6360 0.0951 0.0178
H12 H 0.6848 0.2769 0.0675
C11 C 0.9216(2) 0.2365(4) 0.3807(2)
C12 C 0.9967(2) 0.2723(5) 0.3501(2)
C13 C 1.0897(2) 0.3072(5) 0.4112(2)
H13 H 1.1413 0.3314 0.3917
C14 C 1.1085(2) 0.3074(5) 0.5006(2)
H14 H 1.1725 0.3330 0.5418
C15 C 1.0340(3) 0.2702(5) 0.5298(2)
H15 H 1.0475 0.2697 0.5910
C16 C 0.9397(2) 0.2335(4) 0.4706(2)
C17 C 0.8594(3) 0.1922(5) 0.5034(2)
H16 H 0.8883 0.1493 0.5642
H17 H 0.8164 0.0989 0.4663
H18 H 0.8213 0.3016 0.5009
C18 C 0.9758(3) 0.2746(5) 0.2530(2)
H19 H 1.0374 0.2839 0.2440
H20 H 0.9342 0.3781 0.2258
H21 H 0.9421 0.1631 0.2262
Si2? Si 0.7399(7) 0.3927(15) 0.2635(8)
H22? H 0.7137 0.4377 0.3076
N3? N 0.660(3) 0.222(4) 0.207(3)
N4? N 0.823(3) 0.189(4) 0.320(3)
C19? C 0.711(2) 0.043(5) 0.2250(18)
H23? H 0.6752 -0.0640 0.2007
C20? C 0.789(3) 0.034(5) 0.2661(19)
H24? H 0.8291 -0.0655 0.2657
Cl2? Cl 0.7511(16) 0.579(4) 0.2082(15)
loop_
_geom_bond_atom_site_label_1
_geom_bond_atom_site_label_2
_geom_bond_site_symmetry_1
_geom_bond_site_symmetry_2
Si1 H1 1_555 1_555
N1 Si1 1_555 1_555
N2 Si1 1_555 1_555
C1 N1 1_555 1_555
H2 C1 1_555 1_555
C2 N2 1_555 1_555
H3 C2 1_555 1_555
Cl1 Si1 1_555 1_555
C3 N1 1_555 1_555
C4 C3 1_555 1_555
C5 C4 1_555 1_555
H4 C5 1_555 1_555
C6 C5 1_555 1_555
H5 C6 1_555 1_555
C7 C6 1_555 1_555
H6 C7 1_555 1_555
C8 C3 1_555 1_555
C9 C8 1_555 1_555
H7 C9 1_555 1_555
H8 C9 1_555 1_555
H9 C9 1_555 1_555
C10 C4 1_555 1_555
H10 C10 1_555 1_555
H11 C10 1_555 1_555
H12 C10 1_555 1_555
C11 N2 1_555 1_555
C12 C11 1_555 1_555
C13 C12 1_555 1_555
H13 C13 1_555 1_555
C14 C13 1_555 1_555
H14 C14 1_555 1_555
C15 C14 1_555 1_555
H15 C15 1_555 1_555
C16 C11 1_555 1_555
C17 C16 1_555 1_555
H16 C17 1_555 1_555
H17 C17 1_555 1_555
H18 C17 1_555 1_555
C18 C12 1_555 1_555
H19 C18 1_555 1_555
H20 C18 1_555 1_555
H21 C18 1_555 1_555
C1 C2 1_555 1_555
C7 C8 1_555 1_555
C15 C16 1_555 1_555

#END
