
#######################################################################
#
#                 Cambridge Crystallographic Data Centre
#                                CCDC 
#
#######################################################################
#
# If this CIF has been generated from an entry in the Cambridge 
# Structural Database, then it will include bibliographic, chemical, 
# crystal, experimental, refinement or atomic coordinate data resulting 
# from the CCDC's data processing and validation procedures.
#
#######################################################################

data_DIMZIL
_chemical_formula_moiety         'C18 H21 Br1 N2 Si1'
_chemical_name_systematic        
2-bromo-1,3-bis(2,6-dimethylphenyl)-2,3-dihydro-1H-1,3,2-diazasilole
_symmetry_cell_setting           monoclinic
_symmetry_space_group_name_H-M   'P 21/c'
_symmetry_Int_Tables_number      14
_space_group_name_Hall           '-P 2ybc'
loop_
_symmetry_equiv_pos_site_id
_symmetry_equiv_pos_as_xyz
1 x,y,z
2 -x,1/2+y,1/2-z
3 -x,-y,-z
4 x,1/2-y,1/2+z
_cell_length_a                   14.915(2)
_cell_length_b                   7.5788(11)
_cell_length_c                   16.451(2)
_cell_angle_alpha                90
_cell_angle_beta                 112.472(4)
_cell_angle_gamma                90
_cell_volume                     1718.38
_exptl_crystal_colour            red
_exptl_crystal_description       plate
_cell_formula_units_Z            4
loop_
_atom_site_label
_atom_site_type_symbol
_atom_site_fract_x
_atom_site_fract_y
_atom_site_fract_z
Br1 Br 0.76556(2) 0.57924(3) 0.21633(2)
Si1 Si 0.72984(4) 0.35226(8) 0.28721(4)
H1 H 0.6995(19) 0.440(3) 0.3450(16)
N1 N 0.65217(13) 0.2037(2) 0.21687(12)
C1 C 0.70313(16) 0.0447(3) 0.21831(15)
H2 H 0.6752 -0.0521 0.1804
C2 C 0.79416(17) 0.0440(3) 0.27811(14)
H3 H 0.8366 -0.0538 0.2867
N2 N 0.82172(13) 0.2020(3) 0.32752(12)
C3 C 0.55632(15) 0.2344(3) 0.15281(14)
C4 C 0.47985(16) 0.2574(3) 0.18201(14)
C5 C 0.38756(16) 0.2940(3) 0.12051(15)
H4 H 0.3355 0.3103 0.1395
C6 C 0.37051(17) 0.3070(3) 0.03156(16)
H5 H 0.3072 0.3327 -0.0099
C7 C 0.44636(17) 0.2823(3) 0.00370(15)
H6 H 0.4341 0.2903 -0.0573
C8 C 0.54006(17) 0.2460(3) 0.06298(14)
C9 C 0.49676(17) 0.2440(3) 0.27834(14)
H7 H 0.5431 0.1489 0.3055
H8 H 0.4352 0.2184 0.2844
H9 H 0.5229 0.3559 0.3077
C10 C 0.62163(18) 0.2241(3) 0.03067(15)
H10 H 0.6310 0.0985 0.0223
H11 H 0.6815 0.2733 0.0742
H12 H 0.6053 0.2864 -0.0254
C11 C 0.91871(16) 0.2297(3) 0.39086(14)
C12 C 0.99496(17) 0.2554(3) 0.36216(15)
C13 C 1.08734(17) 0.2882(3) 0.42501(17)
H13 H 1.1400 0.3059 0.4069
C14 C 1.10334(18) 0.2953(4) 0.51388(17)
H14 H 1.1666 0.3183 0.5561
C15 C 1.02770(18) 0.2689(4) 0.54078(16)
H15 H 1.0395 0.2745 0.6017
C16 C 0.93425(17) 0.2341(3) 0.48068(15)
C17 C 0.97766(18) 0.2521(4) 0.26551(15)
H16 H 0.9556 0.1344 0.2416
H17 H 1.0382 0.2804 0.2580
H18 H 0.9280 0.3395 0.2342
C18 C 0.85215(19) 0.2042(4) 0.51131(16)
H19 H 0.8784 0.1618 0.5722
H20 H 0.8074 0.1160 0.4736
H21 H 0.8173 0.3153 0.5081
loop_
_geom_bond_atom_site_label_1
_geom_bond_atom_site_label_2
_geom_bond_site_symmetry_1
_geom_bond_site_symmetry_2
Br1 Si1 1_555 1_555
Si1 H1 1_555 1_555
N1 Si1 1_555 1_555
C1 N1 1_555 1_555
H2 C1 1_555 1_555
C2 C1 1_555 1_555
H3 C2 1_555 1_555
N2 Si1 1_555 1_555
C3 N1 1_555 1_555
C4 C3 1_555 1_555
C5 C4 1_555 1_555
H4 C5 1_555 1_555
C6 C5 1_555 1_555
H5 C6 1_555 1_555
C7 C6 1_555 1_555
H6 C7 1_555 1_555
C8 C3 1_555 1_555
C9 C4 1_555 1_555
H7 C9 1_555 1_555
H8 C9 1_555 1_555
H9 C9 1_555 1_555
C10 C8 1_555 1_555
H10 C10 1_555 1_555
H11 C10 1_555 1_555
H12 C10 1_555 1_555
C11 N2 1_555 1_555
C12 C11 1_555 1_555
C13 C12 1_555 1_555
H13 C13 1_555 1_555
C14 C13 1_555 1_555
H14 C14 1_555 1_555
C15 C14 1_555 1_555
H15 C15 1_555 1_555
C16 C11 1_555 1_555
C17 C12 1_555 1_555
H16 C17 1_555 1_555
H17 C17 1_555 1_555
H18 C17 1_555 1_555
C18 C16 1_555 1_555
H19 C18 1_555 1_555
H20 C18 1_555 1_555
H21 C18 1_555 1_555
C2 N2 1_555 1_555
C7 C8 1_555 1_555
C15 C16 1_555 1_555

#END
