
#######################################################################
#
#                 Cambridge Crystallographic Data Centre
#                                CCDC 
#
#######################################################################
#
# If this CIF has been generated from an entry in the Cambridge 
# Structural Database, then it will include bibliographic, chemical, 
# crystal, experimental, refinement or atomic coordinate data resulting 
# from the CCDC's data processing and validation procedures.
#
#######################################################################

data_DINCAH
_chemical_compound_source        'Kadsura longipedunculata Finet et Gagnep'
_chemical_name_common            'micrandilactone I'
_chemical_formula_moiety         'C30 H44 O7'
_chemical_name_systematic        
8,12a-dihydroxy-5,5,7b,10a-tetramethyl-10-[1-(5-methyl-6-oxo-3,6-dihydro-2H-pyran-2-yl)ethyl]hexadecahydro-2H-furo[3,2-b]indeno[4',5':5,6]cyclohepta[1,2-c]furan-2-one
_symmetry_cell_setting           monoclinic
_symmetry_space_group_name_H-M   'P 21'
_symmetry_Int_Tables_number      4
_space_group_name_Hall           'P 2yb'
loop_
_symmetry_equiv_pos_site_id
_symmetry_equiv_pos_as_xyz
1 x,y,z
2 -x,1/2+y,-z
_cell_length_a                   8.8562(3)
_cell_length_b                   9.3385(3)
_cell_length_c                   16.4586(6)
_cell_angle_alpha                90
_cell_angle_beta                 92.603(2)
_cell_angle_gamma                90
_cell_volume                     1359.78
_exptl_crystal_colour            colorless
_exptl_crystal_description       lath
_cell_formula_units_Z            2
_exptl_crystal_recrystallization_method methanol
loop_
_atom_site_label
_atom_site_type_symbol
_atom_site_fract_x
_atom_site_fract_y
_atom_site_fract_z
O1 O 0.9623(3) 0.8841(3) 0.96638(15)
O2 O 1.0332(3) 0.9868(3) 0.73408(19)
O3 O 0.8872(3) 0.8194(3) 0.78523(15)
O4 O 0.7780(3) 0.5899(3) 0.69756(14)
H1 H 0.872(5) 0.616(6) 0.690(3)
O5 O 0.2453(2) 0.4770(3) 0.76969(15)
H2 H 0.238(5) 0.504(6) 0.717(3)
O6 O 0.2788(3) -0.1845(3) 0.64544(14)
O7 O 0.1052(3) -0.3535(3) 0.63668(18)
C1 C 1.0179(4) 0.7797(4) 0.9128(2)
H3 H 1.0674 0.6977 0.9426
C2 C 1.1216(4) 0.8487(5) 0.8532(3)
H4 H 1.1766 0.9308 0.8785
H5 H 1.1958 0.7787 0.8338
C3 C 1.0158(4) 0.8977(4) 0.7845(2)
C4 C 0.8130(4) 0.8364(4) 0.9876(2)
C5 C 0.7434(4) 0.7858(4) 0.9050(2)
H6 H 0.7078 0.8745 0.8760
C6 C 0.6060(4) 0.6889(4) 0.9078(2)
H7 H 0.5238 0.7414 0.9337
H8 H 0.6321 0.6046 0.9421
C7 C 0.5485(4) 0.6373(4) 0.8235(2)
H9 H 0.4371 0.6277 0.8230
H10 H 0.5729 0.7104 0.7825
C8 C 0.6166(4) 0.4948(4) 0.79943(19)
H11 H 0.6249 0.4377 0.8508
C9 C 0.7813(4) 0.5064(4) 0.7705(2)
C10 C 0.8799(4) 0.7316(4) 0.8586(2)
C11 C 0.8429(4) 0.3571(4) 0.7510(2)
H12 H 0.8637 0.3055 0.8028
H13 H 0.9403 0.3689 0.7246
C12 C 0.7384(4) 0.2636(4) 0.6957(2)
H14 H 0.7281 0.3069 0.6408
H15 H 0.7835 0.1672 0.6903
C13 C 0.5820(4) 0.2501(4) 0.7313(2)
C14 C 0.5145(4) 0.4048(4) 0.74012(19)
C15 C 0.3568(4) 0.3669(4) 0.7703(2)
H16 H 0.3714 0.3326 0.8277
C16 C 0.3096(4) 0.2361(4) 0.7176(2)
H17 H 0.2347 0.2652 0.6742
H18 H 0.2631 0.1622 0.7515
C17 C 0.4537(4) 0.1751(4) 0.6792(2)
H19 H 0.4567 0.2128 0.6224
C18 C 0.6002(4) 0.1686(4) 0.8123(2)
H20 H 0.6556 0.0793 0.8040
H21 H 0.5002 0.1465 0.8322
H22 H 0.6564 0.2280 0.8524
C19 C 0.8899(4) 0.5729(4) 0.8361(2)
H23 H 0.8782 0.5175 0.8867
H24 H 0.9940 0.5554 0.8189
C20 C 0.4530(4) 0.0094(4) 0.6746(2)
H25 H 0.4424 -0.0279 0.7311
C21 C 0.5957(4) -0.0560(4) 0.6420(2)
H26 H 0.5792 -0.1582 0.6314
H27 H 0.6798 -0.0440 0.6822
H28 H 0.6199 -0.0078 0.5913
C22 C 0.3116(4) -0.0354(4) 0.6239(2)
H29 H 0.2256 0.0251 0.6413
C23 C 0.3167(4) -0.0244(4) 0.5331(2)
H30 H 0.3341 0.0761 0.5170
H31 H 0.4001 -0.0839 0.5135
C24 C 0.1684(4) -0.0761(4) 0.4971(2)
H32 H 0.1321 -0.0400 0.4459
C25 C 0.0869(5) -0.1717(4) 0.5356(2)
C26 C 0.1539(4) -0.2434(4) 0.6091(2)
C27 C -0.0672(6) -0.2225(6) 0.5045(3)
H33 H -0.1087 -0.1548 0.4638
H34 H -0.1349 -0.2284 0.5499
H35 H -0.0580 -0.3173 0.4796
C28 C 0.4865(4) 0.4828(4) 0.65814(19)
H36 H 0.4042 0.4353 0.6268
H37 H 0.5788 0.4799 0.6275
H38 H 0.4589 0.5827 0.6681
C29 C 0.7311(4) 0.9660(4) 1.0195(2)
H39 H 0.7762 0.9930 1.0728
H40 H 0.6241 0.9426 1.0249
H41 H 0.7400 1.0460 0.9815
C30 C 0.8293(4) 0.7192(4) 1.0514(2)
H42 H 0.8827 0.6373 1.0289
H43 H 0.7288 0.6887 1.0672
H44 H 0.8868 0.7558 1.0992
loop_
_geom_bond_atom_site_label_1
_geom_bond_atom_site_label_2
_geom_bond_site_symmetry_1
_geom_bond_site_symmetry_2
O1 C1 1_555 1_555
O2 C3 1_555 1_555
O3 C3 1_555 1_555
O4 H1 1_555 1_555
O5 H2 1_555 1_555
O6 C22 1_555 1_555
O7 C26 1_555 1_555
C1 H3 1_555 1_555
C2 C1 1_555 1_555
H4 C2 1_555 1_555
H5 C2 1_555 1_555
C3 C2 1_555 1_555
C4 O1 1_555 1_555
C5 C4 1_555 1_555
H6 C5 1_555 1_555
C6 C5 1_555 1_555
H7 C6 1_555 1_555
H8 C6 1_555 1_555
C7 C6 1_555 1_555
H9 C7 1_555 1_555
H10 C7 1_555 1_555
C8 C7 1_555 1_555
H11 C8 1_555 1_555
C9 O4 1_555 1_555
C10 O3 1_555 1_555
C11 C9 1_555 1_555
H12 C11 1_555 1_555
H13 C11 1_555 1_555
C12 C11 1_555 1_555
H14 C12 1_555 1_555
H15 C12 1_555 1_555
C13 C12 1_555 1_555
C14 C8 1_555 1_555
C15 O5 1_555 1_555
H16 C15 1_555 1_555
C16 C15 1_555 1_555
H17 C16 1_555 1_555
H18 C16 1_555 1_555
C17 C13 1_555 1_555
H19 C17 1_555 1_555
C18 C13 1_555 1_555
H20 C18 1_555 1_555
H21 C18 1_555 1_555
H22 C18 1_555 1_555
C19 C9 1_555 1_555
H23 C19 1_555 1_555
H24 C19 1_555 1_555
C20 C17 1_555 1_555
H25 C20 1_555 1_555
C21 C20 1_555 1_555
H26 C21 1_555 1_555
H27 C21 1_555 1_555
H28 C21 1_555 1_555
C22 C20 1_555 1_555
H29 C22 1_555 1_555
C23 C22 1_555 1_555
H30 C23 1_555 1_555
H31 C23 1_555 1_555
C24 C23 1_555 1_555
H32 C24 1_555 1_555
C25 C24 1_555 1_555
C26 O6 1_555 1_555
C27 C25 1_555 1_555
H33 C27 1_555 1_555
H34 C27 1_555 1_555
H35 C27 1_555 1_555
C28 C14 1_555 1_555
H36 C28 1_555 1_555
H37 C28 1_555 1_555
H38 C28 1_555 1_555
C29 C4 1_555 1_555
H39 C29 1_555 1_555
H40 C29 1_555 1_555
H41 C29 1_555 1_555
C30 C4 1_555 1_555
H42 C30 1_555 1_555
H43 C30 1_555 1_555
H44 C30 1_555 1_555
C1 C10 1_555 1_555
C5 C10 1_555 1_555
C8 C9 1_555 1_555
C10 C19 1_555 1_555
C13 C14 1_555 1_555
C14 C15 1_555 1_555
C16 C17 1_555 1_555
C25 C26 1_555 1_555

#END
