
#######################################################################
#
#                 Cambridge Crystallographic Data Centre
#                                CCDC 
#
#######################################################################
#
# If this CIF has been generated from an entry in the Cambridge 
# Structural Database, then it will include bibliographic, chemical, 
# crystal, experimental, refinement or atomic coordinate data resulting 
# from the CCDC's data processing and validation procedures.
#
#######################################################################

data_DINFOY
_chemical_formula_moiety         'C48 H32 N4'
_chemical_name_systematic        
"5,5'-[quinoxaline-2,3-diylbis(4,1-phenylene)]bis(5H-dibenzo[b,f]azepine) unknown solvate"
_symmetry_cell_setting           triclinic
_symmetry_space_group_name_H-M   'P -1'
_symmetry_Int_Tables_number      2
_space_group_name_Hall           '-P 1'
loop_
_symmetry_equiv_pos_site_id
_symmetry_equiv_pos_as_xyz
1 x,y,z
2 -x,-y,-z
_cell_length_a                   12.135(4)
_cell_length_b                   12.225(3)
_cell_length_c                   17.067(4)
_cell_angle_alpha                78.98(2)
_cell_angle_beta                 81.21(2)
_cell_angle_gamma                67.65(3)
_cell_volume                     2289.55
_exptl_crystal_colour            yellow
_exptl_crystal_description       block
_cell_formula_units_Z            2
_exptl_crystal_recrystallization_method 
'Re-crystallisation from solvent: dichloromethane/acetone/hexane'
_exptl_crystal_preparation       
'material was dissolved in DCM and acetone mixture. Then the same amount of hexane was added.'
loop_
_atom_site_label
_atom_site_type_symbol
_atom_site_fract_x
_atom_site_fract_y
_atom_site_fract_z
N1 N 0.6127(3) 1.0275(3) 0.59497(19)
N2 N 0.8903(3) 0.4681(3) 0.6635(2)
N3 N 0.7852(3) 0.3456(3) 0.79002(19)
N4 N 0.2332(3) 0.5747(3) 0.8712(2)
C1 C 0.6674(3) 1.0734(3) 0.5204(3)
C2 C 0.6174(4) 1.0930(3) 0.4498(3)
H1 H 0.545153 1.082790 0.450081
C3 C 0.6748(4) 1.1284(4) 0.3769(3)
H2 H 0.642274 1.140984 0.328591
C4 C 0.7833(4) 1.1442(4) 0.3797(3)
H3 H 0.823170 1.166659 0.332099
C5 C 0.8315(4) 1.1275(4) 0.4500(3)
H4 H 0.903321 1.138685 0.449073
C6 C 0.7755(4) 1.0939(4) 0.5238(3)
C7 C 0.8219(4) 1.0862(4) 0.5982(3)
H5 H 0.904652 1.061179 0.597302
C8 C 0.7600(5) 1.1109(4) 0.6684(3)
H6 H 0.804768 1.104616 0.709782
C9 C 0.6314(4) 1.1465(4) 0.6885(3)
C10 C 0.5752(6) 1.2232(5) 0.7466(3)
H7 H 0.620634 1.247317 0.774011
C11 C 0.4524(7) 1.2623(5) 0.7626(4)
H8 H 0.416193 1.313517 0.800551
C12 C 0.3821(5) 1.2277(5) 0.7240(4)
H9 H 0.299455 1.255305 0.735379
C13 C 0.4372(4) 1.1509(4) 0.6680(3)
H10 H 0.391157 1.125958 0.641656
C14 C 0.5586(4) 1.1113(4) 0.6508(3)
C15 C 0.6559(3) 0.9039(3) 0.6217(2)
C16 C 0.7240(3) 0.8225(4) 0.5703(2)
H11 H 0.743376 0.850630 0.517444
C17 C 0.7632(3) 0.7015(3) 0.5957(2)
H12 H 0.810163 0.649550 0.560043
C18 C 0.7343(3) 0.6546(3) 0.6739(2)
C19 C 0.6673(3) 0.7361(3) 0.7263(2)
H13 H 0.648646 0.707627 0.779194
C20 C 0.6281(3) 0.8582(3) 0.7013(2)
H14 H 0.583122 0.910394 0.737261
C21 C 0.7846(3) 0.5248(3) 0.6999(2)
C22 C 0.9477(3) 0.3489(4) 0.6892(3)
C23 C 1.0557(4) 0.2840(5) 0.6479(3)
H15 H 1.087829 0.321239 0.602634
C24 C 1.1123(4) 0.1668(5) 0.6750(4)
H16 H 1.182959 0.123878 0.647157
C25 C 1.0674(4) 0.1086(4) 0.7435(3)
H17 H 1.110286 0.029049 0.762089
C26 C 0.9610(4) 0.1677(4) 0.7834(3)
H18 H 0.930406 0.128589 0.828454
C27 C 0.8985(3) 0.2884(3) 0.7555(3)
C28 C 0.7275(3) 0.4578(3) 0.7626(2)
C29 C 0.5985(3) 0.5057(3) 0.7921(2)
C30 C 0.5628(3) 0.4705(3) 0.8718(2)
H19 H 0.620912 0.428253 0.907260
C31 C 0.4442(3) 0.4967(3) 0.8990(2)
H20 H 0.423271 0.475048 0.952850
C32 C 0.3550(3) 0.5557(3) 0.8465(2)
C33 C 0.3881(3) 0.5962(3) 0.7666(2)
H21 H 0.330173 0.639527 0.731164
C34 C 0.5094(3) 0.5701(3) 0.7416(2)
H22 H 0.530975 0.597062 0.688999
C35 C 0.1396(3) 0.6374(4) 0.8192(3)
C36 C 0.1314(4) 0.5880(5) 0.7550(3)
H23 H 0.186206 0.513034 0.745908
C37 C 0.0408(5) 0.6504(6) 0.7033(3)
H24 H 0.033397 0.616868 0.660817
C38 C -0.0370(4) 0.7628(6) 0.7172(4)
H25 H -0.095650 0.806552 0.682388
C39 C -0.0293(4) 0.8105(5) 0.7807(4)
H26 H -0.083976 0.886178 0.788312
C40 C 0.0581(4) 0.7503(4) 0.8360(3)
C41 C 0.0548(4) 0.8010(5) 0.9077(4)
H27 H 0.031238 0.883634 0.902616
C42 C 0.0830(4) 0.7381(5) 0.9807(3)
H28 H 0.074307 0.782841 1.021136
C43 C 0.1250(4) 0.6103(5) 1.0037(3)
C44 C 0.0918(4) 0.5599(6) 1.0812(3)
H29 H 0.044848 0.610156 1.117775
C45 C 0.1276(5) 0.4385(7) 1.1033(3)
H30 H 0.106177 0.408581 1.155298
C46 C 0.1949(5) 0.3586(5) 1.0505(3)
H31 H 0.217120 0.276453 1.066111
C47 C 0.2282(4) 0.4062(5) 0.9726(3)
H32 H 0.272768 0.354979 0.935874
C48 C 0.1947(3) 0.5297(4) 0.9501(2)
loop_
_geom_bond_atom_site_label_1
_geom_bond_atom_site_label_2
_geom_bond_site_symmetry_1
_geom_bond_site_symmetry_2
N1 C1 1_555 1_555
N2 C21 1_555 1_555
N3 C27 1_555 1_555
N4 C32 1_555 1_555
C1 C2 1_555 1_555
C2 H1 1_555 1_555
C3 C2 1_555 1_555
H2 C3 1_555 1_555
C4 C3 1_555 1_555
H3 C4 1_555 1_555
C5 C4 1_555 1_555
H4 C5 1_555 1_555
C6 C1 1_555 1_555
C7 C6 1_555 1_555
H5 C7 1_555 1_555
C8 C7 1_555 1_555
H6 C8 1_555 1_555
C9 C8 1_555 1_555
C10 C9 1_555 1_555
H7 C10 1_555 1_555
C11 C10 1_555 1_555
H8 C11 1_555 1_555
C12 C11 1_555 1_555
H9 C12 1_555 1_555
C13 C12 1_555 1_555
H10 C13 1_555 1_555
C14 N1 1_555 1_555
C15 N1 1_555 1_555
C16 C15 1_555 1_555
H11 C16 1_555 1_555
C17 C16 1_555 1_555
H12 C17 1_555 1_555
C18 C17 1_555 1_555
C19 C18 1_555 1_555
H13 C19 1_555 1_555
C20 C15 1_555 1_555
H14 C20 1_555 1_555
C21 C18 1_555 1_555
C22 N2 1_555 1_555
C23 C22 1_555 1_555
H15 C23 1_555 1_555
C24 C23 1_555 1_555
H16 C24 1_555 1_555
C25 C24 1_555 1_555
H17 C25 1_555 1_555
C26 C25 1_555 1_555
H18 C26 1_555 1_555
C27 C22 1_555 1_555
C28 N3 1_555 1_555
C29 C28 1_555 1_555
C30 C29 1_555 1_555
H19 C30 1_555 1_555
C31 C30 1_555 1_555
H20 C31 1_555 1_555
C32 C31 1_555 1_555
C33 C32 1_555 1_555
H21 C33 1_555 1_555
C34 C29 1_555 1_555
H22 C34 1_555 1_555
C35 N4 1_555 1_555
C36 C35 1_555 1_555
H23 C36 1_555 1_555
C37 C36 1_555 1_555
H24 C37 1_555 1_555
C38 C37 1_555 1_555
H25 C38 1_555 1_555
C39 C38 1_555 1_555
H26 C39 1_555 1_555
C40 C35 1_555 1_555
C41 C40 1_555 1_555
H27 C41 1_555 1_555
C42 C41 1_555 1_555
H28 C42 1_555 1_555
C43 C42 1_555 1_555
C44 C43 1_555 1_555
H29 C44 1_555 1_555
C45 C44 1_555 1_555
H30 C45 1_555 1_555
C46 C45 1_555 1_555
H31 C46 1_555 1_555
C47 C46 1_555 1_555
H32 C47 1_555 1_555
C48 N4 1_555 1_555
C5 C6 1_555 1_555
C9 C14 1_555 1_555
C13 C14 1_555 1_555
C19 C20 1_555 1_555
C21 C28 1_555 1_555
C26 C27 1_555 1_555
C33 C34 1_555 1_555
C39 C40 1_555 1_555
C43 C48 1_555 1_555
C47 C48 1_555 1_555

#END
