
#######################################################################
#
#                 Cambridge Crystallographic Data Centre
#                                CCDC 
#
#######################################################################
#
# If this CIF has been generated from an entry in the Cambridge 
# Structural Database, then it will include bibliographic, chemical, 
# crystal, experimental, refinement or atomic coordinate data resulting 
# from the CCDC's data processing and validation procedures.
#
#######################################################################

data_DINICA13
_chemical_name_common            'Dideuterodinicotinic acid'
_chemical_formula_moiety         'C7 H3 D2 N1 O4'
_chemical_name_systematic        
5-(Deuterocarboxy)-deuteropyridinium-3-carboxylate
_symmetry_cell_setting           monoclinic
_symmetry_space_group_name_H-M   'P 21/c'
_symmetry_Int_Tables_number      14
_space_group_name_Hall           '-P 2ybc'
loop_
_symmetry_equiv_pos_site_id
_symmetry_equiv_pos_as_xyz
1 x,y,z
2 -x,1/2+y,1/2-z
3 -x,-y,-z
4 x,1/2-y,1/2+z
_cell_length_a                   9.7196(13)
_cell_length_b                   11.1396(17)
_cell_length_c                   6.4540(13)
_cell_angle_alpha                90
_cell_angle_beta                 108.754(10)
_cell_angle_gamma                90
_cell_volume                     661.69
_exptl_crystal_colour            'pale brown'
_exptl_crystal_description       plate
_cell_formula_units_Z            4
loop_
_atom_site_label
_atom_site_type_symbol
_atom_site_fract_x
_atom_site_fract_y
_atom_site_fract_z
C1 C -0.31825(19) -0.34616(17) 0.2184(3)
C2 C -0.3897(2) -0.44952(15) 0.2507(3)
C3 C -0.31936(19) -0.56033(16) 0.2675(3)
C4 C -0.17971(19) -0.56593(16) 0.2503(3)
C5 C -0.11472(19) -0.45937(16) 0.2187(3)
C6 C -0.54041(19) -0.44351(16) 0.2650(3)
C7 C -0.09387(19) -0.68080(16) 0.2687(3)
H1 H -0.3653(12) -0.2551(9) 0.2073(18)
H2 H -0.3747(5) -0.6404(4) 0.2937(8)
H3 H -0.0053(14) -0.4558(10) 0.208(2)
D1 D -0.6889(3) -0.3221(2) 0.2683(4)
D2 D -0.1203(3) -0.2685(2) 0.1924(4)
N1 N -0.18432(14) -0.35410(11) 0.2021(2)
O1 O -0.5835(2) -0.33141(19) 0.2726(4)
O2 O -0.6124(2) -0.53294(19) 0.2657(3)
O3 O -0.1546(2) -0.78138(18) 0.2512(4)
O4 O 0.0406(2) -0.66458(19) 0.3028(4)
loop_
_geom_bond_atom_site_label_1
_geom_bond_atom_site_label_2
_geom_bond_site_symmetry_1
_geom_bond_site_symmetry_2
C1 C2 1_555 1_555
C2 C3 1_555 1_555
C3 C4 1_555 1_555
C4 C5 1_555 1_555
C5 H3 1_555 1_555
C6 C2 1_555 1_555
C7 C4 1_555 1_555
H1 C1 1_555 1_555
H2 C3 1_555 1_555
D1 O1 1_555 1_555
D2 N1 1_555 1_555
N1 C1 1_555 1_555
O1 C6 1_555 1_555
O2 C6 1_555 1_555
O3 C7 1_555 1_555
O4 C7 1_555 1_555
C5 N1 1_555 1_555

#END
