
#######################################################################
#
#                 Cambridge Crystallographic Data Centre
#                                CCDC 
#
#######################################################################
#
# If this CIF has been generated from an entry in the Cambridge 
# Structural Database, then it will include bibliographic, chemical, 
# crystal, experimental, refinement or atomic coordinate data resulting 
# from the CCDC's data processing and validation procedures.
#
#######################################################################

data_DINVUU
_chemical_formula_moiety         'C40 H34 N2 O2'
_chemical_name_systematic        
7-(diethylamino)-3-((4-(triphenylvinyl)phenyl)carbonoimidoyl)-2H-chromen-2-one
_symmetry_cell_setting           triclinic
_symmetry_space_group_name_H-M   'P -1'
_symmetry_Int_Tables_number      2
_space_group_name_Hall           '-P 1'
loop_
_symmetry_equiv_pos_site_id
_symmetry_equiv_pos_as_xyz
1 x,y,z
2 -x,-y,-z
_cell_length_a                   8.3623(5)
_cell_length_b                   12.1380(7)
_cell_length_c                   15.3131(8)
_cell_angle_alpha                101.052(5)
_cell_angle_beta                 95.914(5)
_cell_angle_gamma                96.684(5)
_cell_volume                     1502.53
_exptl_crystal_colour            red
_exptl_crystal_description       plate
_cell_formula_units_Z            2
loop_
_atom_site_label
_atom_site_type_symbol
_atom_site_fract_x
_atom_site_fract_y
_atom_site_fract_z
O1 O 0.44612(15) 0.67673(9) 0.42148(8)
O2 O 0.40729(13) 0.84602(8) 0.39854(7)
N1 N 0.15690(16) 0.69191(10) 0.62563(8)
N2 N 0.34943(16) 1.20806(10) 0.33469(9)
C1 C -0.13329(17) 0.34560(11) 0.86756(9)
C2 C -0.02150(17) 0.33645(11) 0.80909(9)
C3 C -0.16539(18) 0.26371(12) 0.92710(9)
C4 C -0.0409(2) 0.22409(13) 0.97537(10)
H1 H 0.0691 0.2511 0.9720
C5 C -0.0767(2) 0.14572(14) 1.02810(11)
H2 H 0.0092 0.1194 1.0603
C6 C -0.2361(2) 0.10542(14) 1.03427(11)
H3 H -0.2598 0.0511 1.0700
C7 C -0.3600(2) 0.14507(14) 0.98794(12)
H4 H -0.4698 0.1179 0.9917
C8 C -0.32540(19) 0.22416(13) 0.93604(10)
H5 H -0.4121 0.2522 0.9059
C9 C 0.06116(18) 0.23335(12) 0.78887(9)
C10 C 0.22801(19) 0.24291(13) 0.78587(11)
H6 H 0.2901 0.3159 0.7961
C11 C 0.3046(2) 0.14700(15) 0.76807(12)
H7 H 0.4184 0.1546 0.7659
C12 C 0.2151(2) 0.04017(15) 0.75347(11)
H8 H 0.2680 -0.0254 0.7437
C13 C 0.0488(2) 0.02912(13) 0.75308(11)
H9 H -0.0131 -0.0441 0.7414
C14 C -0.02771(19) 0.12493(12) 0.76970(10)
H10 H -0.1424 0.1167 0.7680
C15 C -0.24412(17) 0.43480(12) 0.87279(10)
C16 C -0.25105(19) 0.50869(13) 0.95319(10)
H11 H -0.1786 0.5071 1.0048
C17 C -0.3633(2) 0.58516(13) 0.95884(11)
H12 H -0.3655 0.6365 1.0138
C18 C -0.4717(2) 0.58657(13) 0.88455(12)
H13 H -0.5488 0.6384 0.8885
C19 C -0.4672(2) 0.51262(13) 0.80484(11)
H14 H -0.5425 0.5127 0.7540
C20 C -0.35257(19) 0.43756(12) 0.79841(10)
H15 H -0.3487 0.3880 0.7428
C21 C 0.02632(17) 0.42798(12) 0.76063(10)
C22 C 0.04693(19) 0.40178(12) 0.66956(10)
H16 H 0.0297 0.3248 0.6388
C23 C 0.09204(19) 0.48601(13) 0.62350(10)
H17 H 0.1036 0.4662 0.5616
C24 C 0.12069(17) 0.60001(12) 0.66764(10)
C25 C 0.10262(18) 0.62617(12) 0.75866(10)
H18 H 0.1216 0.7030 0.7898
C26 C 0.05765(18) 0.54206(12) 0.80394(9)
H19 H 0.0477 0.5621 0.8660
C27 C 0.24060(18) 0.68192(12) 0.56008(10)
H20 H 0.2816 0.6127 0.5410
C28 C 0.37986(19) 0.75896(12) 0.44431(10)
C29 C 0.27426(18) 0.77508(12) 0.51395(9)
C30 C 0.21277(18) 0.87460(12) 0.53432(9)
H21 H 0.1446 0.8843 0.5804
C31 C 0.24743(17) 0.96365(12) 0.48906(9)
C32 C 0.19037(18) 1.06939(12) 0.50676(10)
H22 H 0.1270 1.0854 0.5545
C33 C 0.22384(19) 1.14937(12) 0.45712(10)
H23 H 0.1826 1.2195 0.4706
C34 C 0.31946(17) 1.12952(12) 0.38552(10)
C35 C 0.38348(17) 1.02615(12) 0.36996(10)
H24 H 0.4526 1.0114 0.3248
C36 C 0.34559(17) 0.94681(11) 0.42029(9)
C37 C 0.45655(19) 1.19283(13) 0.26542(11)
H25 H 0.5479 1.1552 0.2862
H26 H 0.5025 1.2682 0.2565
C38 C 0.3720(3) 1.12306(17) 0.17638(12)
H27 H 0.4506 1.1139 0.1332
H28 H 0.2851 1.1618 0.1537
H29 H 0.3257 1.0484 0.1846
C39 C 0.2561(2) 1.30309(13) 0.33616(11)
H30 H 0.1469 1.2805 0.3519
H31 H 0.2420 1.3197 0.2752
C40 C 0.3342(2) 1.40890(14) 0.40131(13)
H32 H 0.4426 1.4319 0.3863
H33 H 0.3434 1.3943 0.4623
H34 H 0.2676 1.4696 0.3979
loop_
_geom_bond_atom_site_label_1
_geom_bond_atom_site_label_2
_geom_bond_site_symmetry_1
_geom_bond_site_symmetry_2
O1 C28 1_555 1_555
O2 C28 1_555 1_555
N1 C24 1_555 1_555
N2 C34 1_555 1_555
C1 C2 1_555 1_555
C2 C9 1_555 1_555
C3 C1 1_555 1_555
C4 C3 1_555 1_555
H1 C4 1_555 1_555
C5 C4 1_555 1_555
H2 C5 1_555 1_555
C6 C5 1_555 1_555
H3 C6 1_555 1_555
C7 C6 1_555 1_555
H4 C7 1_555 1_555
C8 C3 1_555 1_555
H5 C8 1_555 1_555
C9 C10 1_555 1_555
C10 H6 1_555 1_555
C11 C10 1_555 1_555
H7 C11 1_555 1_555
C12 C11 1_555 1_555
H8 C12 1_555 1_555
C13 C12 1_555 1_555
H9 C13 1_555 1_555
C14 C9 1_555 1_555
H10 C14 1_555 1_555
C15 C1 1_555 1_555
C16 C15 1_555 1_555
H11 C16 1_555 1_555
C17 C16 1_555 1_555
H12 C17 1_555 1_555
C18 C17 1_555 1_555
H13 C18 1_555 1_555
C19 C18 1_555 1_555
H14 C19 1_555 1_555
C20 C15 1_555 1_555
H15 C20 1_555 1_555
C21 C2 1_555 1_555
C22 C21 1_555 1_555
H16 C22 1_555 1_555
C23 C22 1_555 1_555
H17 C23 1_555 1_555
C24 C23 1_555 1_555
C25 C24 1_555 1_555
H18 C25 1_555 1_555
C26 C21 1_555 1_555
H19 C26 1_555 1_555
C27 N1 1_555 1_555
H20 C27 1_555 1_555
C28 C29 1_555 1_555
C29 C27 1_555 1_555
C30 C29 1_555 1_555
H21 C30 1_555 1_555
C31 C30 1_555 1_555
C32 C31 1_555 1_555
H22 C32 1_555 1_555
C33 C32 1_555 1_555
H23 C33 1_555 1_555
C34 C33 1_555 1_555
C35 C34 1_555 1_555
H24 C35 1_555 1_555
C36 O2 1_555 1_555
C37 N2 1_555 1_555
H25 C37 1_555 1_555
H26 C37 1_555 1_555
C38 C37 1_555 1_555
H27 C38 1_555 1_555
H28 C38 1_555 1_555
H29 C38 1_555 1_555
C39 N2 1_555 1_555
H30 C39 1_555 1_555
H31 C39 1_555 1_555
C40 C39 1_555 1_555
H32 C40 1_555 1_555
H33 C40 1_555 1_555
H34 C40 1_555 1_555
C7 C8 1_555 1_555
C13 C14 1_555 1_555
C19 C20 1_555 1_555
C25 C26 1_555 1_555
C31 C36 1_555 1_555
C35 C36 1_555 1_555

#END
