
#######################################################################
#
#                 Cambridge Crystallographic Data Centre
#                                CCDC 
#
#######################################################################
#
# If this CIF has been generated from an entry in the Cambridge 
# Structural Database, then it will include bibliographic, chemical, 
# crystal, experimental, refinement or atomic coordinate data resulting 
# from the CCDC's data processing and validation procedures.
#
#######################################################################

data_DINYUX
_chemical_formula_moiety         'C25 H25 N9 O9'
_chemical_name_systematic        
N',N''-[{[(2-nitrophenyl)carbamoyl]azanediyl}bis(ethane-2,1-diyl)]bis[N'-(2-nitrophenyl)urea]
_symmetry_cell_setting           triclinic
_symmetry_space_group_name_H-M   'P -1'
_symmetry_Int_Tables_number      2
_space_group_name_Hall           '-P 1'
loop_
_symmetry_equiv_pos_site_id
_symmetry_equiv_pos_as_xyz
1 x,y,z
2 -x,-y,-z
_cell_length_a                   5.8865(2)
_cell_length_b                   14.2293(7)
_cell_length_c                   16.8469(8)
_cell_angle_alpha                75.358(4)
_cell_angle_beta                 87.692(3)
_cell_angle_gamma                82.114(4)
_cell_volume                     1352.35
_exptl_crystal_colour            'yellowish yellow'
_exptl_crystal_description       plate
_cell_formula_units_Z            2
loop_
_atom_site_label
_atom_site_type_symbol
_atom_site_fract_x
_atom_site_fract_y
_atom_site_fract_z
O1 O 0.7933(3) 0.34986(9) 0.61811(8)
O2 O 0.0546(3) 0.33087(9) 0.39477(8)
N1 N 0.6301(3) 0.24508(10) 0.56459(8)
N2 N 0.8494(3) 0.18665(11) 0.68180(9)
H1 H 0.8123 0.1304 0.6815
O3 O 0.7474(3) 0.02805(12) 0.78780(9)
O4 O 0.6816(3) 0.04675(12) 0.38438(9)
N3 N 0.2101(3) 0.44397(11) 0.44044(9)
H2 H 0.2237 0.5050 0.4328
O5 O 0.2563(3) 0.61587(14) 0.20319(11)
N4 N 0.0521(3) 0.48795(11) 0.31397(9)
H3 H 0.0968 0.5435 0.3121
O6 O 0.7794(4) 0.02394(15) 0.91530(9)
O7 O 1.2322(3) 0.26038(16) 0.24298(10)
N5 N 0.8562(3) 0.13870(12) 0.44778(10)
H4 H 0.9353 0.1866 0.4415
N6 N 0.8287(3) 0.05527(12) 0.84322(10)
N7 N 0.8945(3) 0.16311(13) 0.30946(10)
H5 H 0.9896 0.2016 0.3154
O8 O 1.2492(4) 0.31523(16) 0.11278(11)
N8 N 0.1662(3) 0.59507(14) 0.14758(11)
N9 N 1.1657(3) 0.26544(14) 0.17373(11)
C1 C 0.7589(3) 0.26609(12) 0.62076(9)
C2 C 0.1016(3) 0.41455(12) 0.38416(10)
C3 C 0.5393(3) 0.32552(12) 0.49575(9)
H6 H 0.5296 0.3002 0.4478
H7 H 0.6450 0.3740 0.4830
C4 C 0.9959(3) 0.18991(12) 0.74387(10)
C5 C -0.0632(3) 0.48069(13) 0.24594(11)
C6 C 0.3045(3) 0.37465(13) 0.51364(10)
H8 H 0.2027 0.3254 0.5332
H9 H 0.3168 0.4084 0.5563
C7 C 0.9890(3) 0.12713(13) 0.82227(10)
C8 C 0.5877(3) 0.14605(13) 0.56362(11)
H10 H 0.4537 0.1508 0.5305
H11 H 0.5549 0.1103 0.6191
C9 C 0.8563(3) 0.16011(13) 0.22969(12)
C10 C 0.7982(4) 0.11175(14) 0.38092(12)
O9 O 0.2224(4) 0.6249(2) 0.07662(12)
C11 C -0.0140(3) 0.53193(15) 0.16580(11)
C12 C 0.9842(3) 0.21001(14) 0.16320(12)
C13 C 0.7892(4) 0.08933(14) 0.52988(12)
H12 H 0.9190 0.0789 0.5662
H13 H 0.7495 0.0256 0.5292
C14 C 1.1590(3) 0.25445(15) 0.73075(12)
H14 H 1.1709 0.2968 0.6792
C15 C 1.1339(4) 0.12985(17) 0.88452(12)
H15 H 1.1249 0.0874 0.9362
C16 C 0.6863(4) 0.11084(16) 0.20936(13)
H16 H 0.5984 0.0764 0.2509
C17 C 1.2899(4) 0.19536(18) 0.86938(13)
H17 H 1.3864 0.1982 0.9108
C18 C 1.3030(4) 0.25720(17) 0.79221(14)
H18 H 1.4102 0.3012 0.7816
C19 C -0.2409(4) 0.42347(16) 0.25541(14)
H19 H -0.2817 0.3903 0.3079
C20 C 0.9409(4) 0.21004(17) 0.08324(13)
H20 H 1.0277 0.2435 0.0408
C21 C 0.6465(4) 0.11225(19) 0.12946(14)
H21 H 0.5314 0.0790 0.1180
C22 C -0.1361(5) 0.5240(2) 0.09902(13)
H22 H -0.1027 0.5590 0.0463
C23 C 0.7725(5) 0.1616(2) 0.06581(14)
H23 H 0.7433 0.1620 0.0119
C24 C -0.3050(5) 0.4645(2) 0.11130(18)
H24 H -0.3843 0.4578 0.0668
C25 C -0.3567(5) 0.4149(2) 0.18940(18)
H25 H -0.4723 0.3749 0.1976
loop_
_geom_bond_atom_site_label_1
_geom_bond_atom_site_label_2
_geom_bond_site_symmetry_1
_geom_bond_site_symmetry_2
O1 C1 1_555 1_555
O2 C2 1_555 1_555
N1 C1 1_555 1_555
N2 H1 1_555 1_555
O3 N6 1_555 1_555
O4 C10 1_555 1_555
N3 H2 1_555 1_555
O5 N8 1_555 1_555
N4 H3 1_555 1_555
O6 N6 1_555 1_555
O7 N9 1_555 1_555
N5 H4 1_555 1_555
N6 C7 1_555 1_555
N7 H5 1_555 1_555
O8 N9 1_555 1_555
N8 O9 1_555 1_555
N9 C12 1_555 1_555
C1 N2 1_555 1_555
C2 N3 1_555 1_555
C3 N1 1_555 1_555
H6 C3 1_555 1_555
H7 C3 1_555 1_555
C4 N2 1_555 1_555
C5 N4 1_555 1_555
C6 N3 1_555 1_555
H8 C6 1_555 1_555
H9 C6 1_555 1_555
C7 C4 1_555 1_555
C8 N1 1_555 1_555
H10 C8 1_555 1_555
H11 C8 1_555 1_555
C9 N7 1_555 1_555
C10 N5 1_555 1_555
C11 N8 1_555 1_555
C12 C9 1_555 1_555
C13 N5 1_555 1_555
H12 C13 1_555 1_555
H13 C13 1_555 1_555
C14 C4 1_555 1_555
H14 C14 1_555 1_555
C15 C7 1_555 1_555
H15 C15 1_555 1_555
C16 C9 1_555 1_555
H16 C16 1_555 1_555
C17 C15 1_555 1_555
H17 C17 1_555 1_555
C18 C14 1_555 1_555
H18 C18 1_555 1_555
C19 C5 1_555 1_555
H19 C19 1_555 1_555
C20 C12 1_555 1_555
H20 C20 1_555 1_555
C21 C16 1_555 1_555
H21 C21 1_555 1_555
C22 C11 1_555 1_555
H22 C22 1_555 1_555
C23 C20 1_555 1_555
H23 C23 1_555 1_555
C24 C22 1_555 1_555
H24 C24 1_555 1_555
C25 C19 1_555 1_555
H25 C25 1_555 1_555
N4 C2 1_555 1_555
N7 C10 1_555 1_555
C3 C6 1_555 1_555
C5 C11 1_555 1_555
C8 C13 1_555 1_555
C17 C18 1_555 1_555
C21 C23 1_555 1_555
C24 C25 1_555 1_555

#END
