
#######################################################################
#
#                 Cambridge Crystallographic Data Centre
#                                CCDC 
#
#######################################################################
#
# If this CIF has been generated from an entry in the Cambridge 
# Structural Database, then it will include bibliographic, chemical, 
# crystal, experimental, refinement or atomic coordinate data resulting 
# from the CCDC's data processing and validation procedures.
#
#######################################################################

data_DIPROM
_chemical_name_common            
2-[(4-oxo-3-phenylthiazolidin-2-ylidene)amino]-3a,4,7,7a-tetrahydroisoindole-1,3-dione
_chemical_formula_moiety         'C17 H15 N3 O3 S1'
_chemical_name_systematic        
2-[(4-oxo-3-phenyl-1,3-thiazolidin-2-ylidene)amino]-3a,4,7,7a-tetrahydro-1H-isoindole-1,3(2H)-dione
_symmetry_cell_setting           triclinic
_symmetry_space_group_name_H-M   'P -1'
_symmetry_Int_Tables_number      2
_space_group_name_Hall           '-P 1'
loop_
_symmetry_equiv_pos_site_id
_symmetry_equiv_pos_as_xyz
1 x,y,z
2 -x,-y,-z
_cell_length_a                   9.959(2)
_cell_length_b                   12.280(2)
_cell_length_c                   13.481(2)
_cell_angle_alpha                91.51(2)
_cell_angle_beta                 96.55(2)
_cell_angle_gamma                103.50(2)
_cell_volume                     1590.27
_exptl_crystal_colour            colorless
_exptl_crystal_description       prism
_cell_formula_units_Z            4
loop_
_atom_site_label
_atom_site_type_symbol
_atom_site_fract_x
_atom_site_fract_y
_atom_site_fract_z
C1 C 0.8656(5) 0.1088(3) 1.0240(3)
C2 C 0.8359(6) 0.2267(5) 1.1688(4)
H1 H 0.7387 0.2055 1.1409
H2 H 0.8403 0.2286 1.2411
C3 C 0.9015(6) 0.3409(4) 1.1365(4)
H3 H 0.8463 0.3873 1.1101
C4 C 1.0373(7) 0.3744(4) 1.1461(4)
H4 H 1.0795 0.4447 1.1259
C5 C 1.1246(6) 0.2990(4) 1.1898(3)
H5 H 1.1228 0.2986 1.2616
H6 H 1.2202 0.3273 1.1774
C6 C 1.1065(4) 0.1735(3) 1.0384(3)
C7 C 1.0699(4) 0.1796(3) 1.1435(3)
H7 H 1.1118 0.1281 1.1840
C8 C 0.9106(5) 0.1399(4) 1.1341(3)
H8 H 0.8857 0.0726 1.1719
C9 C 0.9763(4) 0.1879(3) 0.8195(2)
C10 C 0.9760(5) 0.3719(3) 0.7377(3)
H9 H 0.8990 0.4080 0.7273
H10 H 1.0605 0.4256 0.7264
C11 C 0.9507(4) 0.2705(3) 0.6660(2)
C12 C 0.9357(4) 0.0671(3) 0.6653(2)
C13 C 0.8011(4) 0.0149(4) 0.6298(3)
H11 H 0.7289 0.0485 0.6399
C14 C 0.7740(5) -0.0888(4) 0.5784(3)
H12 H 0.6833 -0.1250 0.5531
C15 C 0.8820(5) -0.1376(4) 0.5651(3)
H13 H 0.8636 -0.2076 0.5314
C16 C 1.0166(5) -0.0845(4) 0.6008(3)
H14 H 1.0888 -0.1184 0.5913
C17 C 1.0447(4) 0.0194(3) 0.6511(3)
H15 H 1.1357 0.0565 0.6748
N1 N 0.9843(4) 0.1322(3) 0.9762(2)
N2 N 0.9783(4) 0.1038(3) 0.8727(2)
N3 N 0.9632(3) 0.1762(2) 0.7164(2)
O1 O 0.7500(4) 0.0729(4) 0.9823(3)
O2 O 1.2202(4) 0.2007(3) 1.0106(2)
O3 O 0.9241(3) 0.2721(2) 0.57699(19)
S1 S 0.99206(10) 0.32613(7) 0.86276(6)
C18 C 0.4461(4) 0.7612(3) 0.2512(3)
C19 C 0.4207(6) 0.7030(6) 0.0707(3)
H16 H 0.3382 0.7327 0.0639
H17 H 0.4651 0.7168 0.0103
C20 C 0.3811(5) 0.5798(5) 0.0847(3)
H18 H 0.2889 0.5406 0.0681
C21 C 0.4730(6) 0.5264(5) 0.1197(3)
H19 H 0.4462 0.4505 0.1312
C22 C 0.6222(5) 0.5885(4) 0.1412(3)
H20 H 0.6628 0.5972 0.0789
H21 H 0.6723 0.5447 0.1835
C23 C 0.6397(4) 0.6943(4) 0.3047(3)
C24 C 0.6399(4) 0.7046(4) 0.1930(3)
H22 H 0.7282 0.7535 0.1798
C25 C 0.5204(5) 0.7607(4) 0.1608(3)
H23 H 0.5601 0.8385 0.1459
C26 C 0.3994(4) 0.6530(3) 0.4534(2)
C27 C 0.1936(5) 0.4880(4) 0.4713(3)
H24 H 0.0996 0.4840 0.4402
H25 H 0.1978 0.4148 0.4948
C28 C 0.2319(5) 0.5747(3) 0.5574(3)
C29 C 0.4047(4) 0.7494(3) 0.6170(2)
C30 C 0.3769(4) 0.8512(4) 0.5998(3)
H26 H 0.3208 0.8608 0.5423
C31 C 0.4333(5) 0.9403(4) 0.6692(4)
H27 H 0.4197 1.0113 0.6566
C32 C 0.5103(5) 0.9229(4) 0.7577(3)
H28 H 0.5447 0.9816 0.8057
C33 C 0.5351(5) 0.8205(5) 0.7741(3)
H29 H 0.5886 0.8098 0.8326
C34 C 0.4811(4) 0.7310(4) 0.7039(3)
H30 H 0.4964 0.6603 0.7155
N4 N 0.5211(3) 0.7211(3) 0.3306(2)
N5 N 0.4936(4) 0.7339(3) 0.4304(2)
N6 N 0.3492(3) 0.6570(3) 0.5449(2)
O4 O 0.3384(3) 0.7882(3) 0.2597(2)
O5 O 0.7250(4) 0.6665(4) 0.3621(2)
O6 O 0.1686(4) 0.5735(3) 0.6283(2)
S2 S 0.31574(12) 0.52895(9) 0.38223(7)
loop_
_geom_bond_atom_site_label_1
_geom_bond_atom_site_label_2
_geom_bond_site_symmetry_1
_geom_bond_site_symmetry_2
C1 C8 1_555 1_555
C2 H1 1_555 1_555
H2 C2 1_555 1_555
C3 C2 1_555 1_555
H3 C3 1_555 1_555
C4 C3 1_555 1_555
H4 C4 1_555 1_555
C5 C4 1_555 1_555
H5 C5 1_555 1_555
H6 C5 1_555 1_555
C6 C7 1_555 1_555
C7 C5 1_555 1_555
H7 C7 1_555 1_555
C8 C2 1_555 1_555
H8 C8 1_555 1_555
C9 N2 1_555 1_555
C10 H9 1_555 1_555
H10 C10 1_555 1_555
C11 C10 1_555 1_555
C12 C13 1_555 1_555
C13 H11 1_555 1_555
C14 C13 1_555 1_555
H12 C14 1_555 1_555
C15 C14 1_555 1_555
H13 C15 1_555 1_555
C16 C15 1_555 1_555
H14 C16 1_555 1_555
C17 C12 1_555 1_555
H15 C17 1_555 1_555
N1 C1 1_555 1_555
N2 N1 1_555 1_555
N3 C9 1_555 1_555
O1 C1 1_555 1_555
O2 C6 1_555 1_555
O3 C11 1_555 1_555
S1 C9 1_555 1_555
C18 C25 1_555 1_555
C19 H16 1_555 1_555
H17 C19 1_555 1_555
C20 C19 1_555 1_555
H18 C20 1_555 1_555
C21 C20 1_555 1_555
H19 C21 1_555 1_555
C22 C21 1_555 1_555
H20 C22 1_555 1_555
H21 C22 1_555 1_555
C23 C24 1_555 1_555
C24 C22 1_555 1_555
H22 C24 1_555 1_555
C25 C19 1_555 1_555
H23 C25 1_555 1_555
C26 N5 1_555 1_555
C27 H24 1_555 1_555
H25 C27 1_555 1_555
C28 C27 1_555 1_555
C29 C30 1_555 1_555
C30 H26 1_555 1_555
C31 C30 1_555 1_555
H27 C31 1_555 1_555
C32 C31 1_555 1_555
H28 C32 1_555 1_555
C33 C32 1_555 1_555
H29 C33 1_555 1_555
C34 C29 1_555 1_555
H30 C34 1_555 1_555
N4 C18 1_555 1_555
N5 N4 1_555 1_555
N6 C26 1_555 1_555
O4 C18 1_555 1_555
O5 C23 1_555 1_555
O6 C28 1_555 1_555
S2 C26 1_555 1_555
C6 N1 1_555 1_555
C7 C8 1_555 1_555
C10 S1 1_555 1_555
C11 N3 1_555 1_555
C12 N3 1_555 1_555
C16 C17 1_555 1_555
C23 N4 1_555 1_555
C24 C25 1_555 1_555
C27 S2 1_555 1_555
C28 N6 1_555 1_555
C29 N6 1_555 1_555
C33 C34 1_555 1_555

#END
