
#######################################################################
#
#                 Cambridge Crystallographic Data Centre
#                                CCDC 
#
#######################################################################
#
# If this CIF has been generated from an entry in the Cambridge 
# Structural Database, then it will include bibliographic, chemical, 
# crystal, experimental, refinement or atomic coordinate data resulting 
# from the CCDC's data processing and validation procedures.
#
#######################################################################

data_DIPYAC
_chemical_formula_moiety         'C10 H12 N4 O3 S4'
_chemical_name_systematic        
1^2^,6^2^-Dioxo-2,5-dithia-9-oxa-1,6(5,3)-di(1,3,4-thiadiazolina)cycloundecaphane
_symmetry_cell_setting           orthorhombic
_symmetry_space_group_name_H-M   'P n a 21'
_symmetry_Int_Tables_number      33
_space_group_name_Hall           'P 2c -2n'
loop_
_symmetry_equiv_pos_site_id
_symmetry_equiv_pos_as_xyz
1 x,y,z
2 -x,-y,1/2+z
3 1/2+x,1/2-y,z
4 1/2-x,1/2+y,1/2+z
_cell_length_a                   8.293(2)
_cell_length_b                   12.0260(11)
_cell_length_c                   15.361(2)
_cell_angle_alpha                90
_cell_angle_beta                 90
_cell_angle_gamma                90
_cell_volume                     1531.98
_exptl_crystal_colour            colorless
_exptl_crystal_description       rod
_chemical_melting_point          156-158deg.C
_cell_formula_units_Z            4
_exptl_crystal_recrystallization_method ethanol
loop_
_atom_site_label
_atom_site_type_symbol
_atom_site_fract_x
_atom_site_fract_y
_atom_site_fract_z
S1 S 0.6706(4) 0.1578(2) 0.4826(2)
C1 C 0.5489(10) 0.0400(8) 0.4876(6)
N1 N 0.6264(9) -0.0522(6) 0.4924(5)
N2 N 0.7932(9) -0.0300(7) 0.4909(6)
C2 C 0.8420(9) 0.0723(7) 0.4829(8)
O1 O 0.9841(9) 0.0981(7) 0.4816(7)
S2 S 0.3413(3) 0.0485(3) 0.48930(13)
C3 C 0.3110(7) 0.1026(6) 0.3754(4)
H1 H 0.2095 0.1418 0.3686
H2 H 0.3995 0.1492 0.3561
C4 C 0.3105(8) 0.0025(6) 0.3365(16)
H3 H 0.2096 -0.0365 0.3458
H4 H 0.3994 -0.0436 0.3561
S3 S 0.3391(3) 0.0519(3) 0.20355(13)
C5 C 0.5530(10) 0.0418(8) 0.2033(7)
N3 N 0.6249(9) -0.0517(8) 0.1982(7)
N4 N 0.7861(8) -0.0377(5) 0.1987(5)
C6 C 0.8464(12) 0.0709(10) 0.2073(9)
S4 S 0.6716(4) 0.1585(2) 0.2104(2)
O2 O 0.9816(8) 0.1034(7) 0.2128(7)
C7 C 0.8954(12) -0.1337(10) 0.1943(8)
H5 H 0.8735 -0.1753 0.1415
H6 H 1.0058 -0.1074 0.1915
C8 C 0.8775(11) -0.2068(8) 0.2690(7)
H7 H 0.7669 -0.2327 0.2727
H8 H 0.9470 -0.2711 0.2622
O3 O 0.9177(4) -0.1505(3) 0.3447(6)
C9 C 0.8735(13) -0.2092(10) 0.4224(7)
H9 H 0.9421 -0.2737 0.4303
H10 H 0.7624 -0.2339 0.4189
C10 C 0.8947(12) -0.1281(9) 0.4985(6)
H11 H 0.8693 -0.1662 0.5524
H12 H 1.0067 -0.1050 0.5013
loop_
_geom_bond_atom_site_label_1
_geom_bond_atom_site_label_2
_geom_bond_site_symmetry_1
_geom_bond_site_symmetry_2
S1 C1 1_555 1_555
C1 N1 1_555 1_555
N1 N2 1_555 1_555
N2 C2 1_555 1_555
C2 S1 1_555 1_555
O1 C2 1_555 1_555
S2 C1 1_555 1_555
C3 S2 1_555 1_555
H1 C3 1_555 1_555
H2 C3 1_555 1_555
C4 C3 1_555 1_555
H3 C4 1_555 1_555
H4 C4 1_555 1_555
S3 C4 1_555 1_555
C5 S3 1_555 1_555
N3 C5 1_555 1_555
N4 N3 1_555 1_555
C6 N4 1_555 1_555
S4 C5 1_555 1_555
O2 C6 1_555 1_555
C7 N4 1_555 1_555
H5 C7 1_555 1_555
H6 C7 1_555 1_555
C8 C7 1_555 1_555
H7 C8 1_555 1_555
H8 C8 1_555 1_555
O3 C8 1_555 1_555
C9 O3 1_555 1_555
H9 C9 1_555 1_555
H10 C9 1_555 1_555
C10 N2 1_555 1_555
H11 C10 1_555 1_555
H12 C10 1_555 1_555
C6 S4 1_555 1_555
C9 C10 1_555 1_555

#END
