
#######################################################################
#
#                 Cambridge Crystallographic Data Centre
#                                CCDC 
#
#######################################################################
#
# If this CIF has been generated from an entry in the Cambridge 
# Structural Database, then it will include bibliographic, chemical, 
# crystal, experimental, refinement or atomic coordinate data resulting 
# from the CCDC's data processing and validation procedures.
#
#######################################################################

data_DIPZUX
_chemical_formula_moiety         'C26 H34 N2 O6'
_chemical_name_systematic        
26,27-Dimethoxy-4,18-dimethyl-8,11,14-trioxa-1,21-diazatetracyclo(19.3.1.1^2,6^.1^16,20^)heptacosa-2,4,6(26),16,18,20(27)-hexaen-25-one
_symmetry_cell_setting           orthorhombic
_symmetry_space_group_name_H-M   'P 21 21 21'
_symmetry_Int_Tables_number      19
_space_group_name_Hall           'P 2ac 2ab'
loop_
_symmetry_equiv_pos_site_id
_symmetry_equiv_pos_as_xyz
1 x,y,z
2 1/2+x,1/2-y,-z
3 -x,1/2+y,1/2-z
4 1/2-x,-y,1/2+z
_cell_length_a                   10.124(4)
_cell_length_b                   11.964(4)
_cell_length_c                   21.317(5)
_cell_angle_alpha                90
_cell_angle_beta                 90
_cell_angle_gamma                90
_cell_volume                     2581.99
_exptl_crystal_colour            colorless
_cell_formula_units_Z            4
loop_
_atom_site_label
_atom_site_type_symbol
_atom_site_fract_x
_atom_site_fract_y
_atom_site_fract_z
C1 C 0.2785(11) 0.4162(9) 0.22217(4)
O1 O 0.2571(8) -0.0223(6) 0.1199(3)
C2 C 0.3769(12) -0.08113(10) 0.1054(5)
N1 N 0.4231(6) 0.1462(6) 0.0604(3)
N2 N 0.4246(7) 0.1208(6) -0.0486(3)
O2 O 0.2327(5) 0.1144(5) 0.0064(2)
C3 C 0.2191(12) 0.2666(9) -0.2433(5)
O3 O 0.3117(7) -0.0894(5) -0.0729(3)
C4 C 0.4377(14) -0.1411(9) -0.0822(5)
O4 O -0.0110(7) -0.1108(6) -0.1369(3)
C5 C -0.0004(12) -0.1221(12) -0.0691(5)
C6 C -0.1026(21) -0.0752(16) -0.0389(5)
O5 O -0.1134(9) -0.0903(8) 0.0253(3)
C7 C -0.0548(12) -0.0071(10) 0.0634(5)
C8 C -0.0764(13) -0.0410(10) 0.1291(5)
O6 O -0.0466(6) 0.0448(6) 0.1734(3)
C9 C 0.1788(9) 0.2244(8) 0.2126(4)
C10 C 0.2704(8) 0.3017(7) 0.1937(4)
C11 C 0.3518(8) 0.2718(7) 0.1440(4)
C12 C 0.1723(9) 0.1181(8) 0.1884(4)
C13 C 0.3466(8) 0.1690(7) 0.1163(3)
C14 C 0.2623(9) 0.0881(8) 0.1410(4)
C15 C 0.5651(9) 0.1792(8) 0.0610(4)
C16 C 0.6329(9) 0.1254(8) 0.0054(4)
C17 C 0.5631(9) 0.1537(8) -0.0540(4)
C18 C 0.3519(8) 0.1268(7) 0.0064(4)
C19 C 0.3467(8) 0.1017(7) -0.1040(4)
C20 C 0.3256(8) 0.1877(4) -0.1476(4)
C21 C 0.2418(8) 0.1733(8) -0.1977(4)
C22 C 0.1723(9) 0.0743(8) -0.2017(4)
C23 C 0.1946(9) -0.0144(8) -0.1607(4)
C24 C 0.2856(8) -0.0025(8) -0.1132(4)
C25 C 0.1121(10) -0.1218(9) -0.1677(4)
C26 C 0.0702(10) 0.0353(9) 0.2090(4)
H1 H 0.108 0.248 0.248
H2 H 0.196 0.435 0.253
H3 H 0.286 0.485 0.187
H4 H 0.368 0.413 0.249
H5 H 0.422 0.332 0.127
H6 H 0.353 -0.168 0.112
H7 H 0.451 -0.056 0.139
H8 H 0.407 -0.065 0.057
H9 H 0.573 0.269 0.058
H10 H 0.611 0.151 0.104
H11 H 0.633 0.036 0.012
H12 H 0.734 0.155 0.003
H13 H 0.608 0.109 -0.093
H14 H 0.569 0.243 -0.062
H15 H 0.376 0.267 -0.142
H16 H 0.143 0.244 -0.276
H17 H 0.306 0.284 -0.261
H18 H 0.192 0.338 -0.216
H19 H 0.098 0.065 -0.238
H20 H 0.459 -0.199 -0.045
H21 H 0.511 -0.079 -0.078
H22 H 0.436 -0.180 -0.128
H23 H 0.166 -0.191 -0.147
H24 H 0.095 -0.138 -0.217
H25 H 0.090 -0.082 -0.054
H26 H 0.003 -0.210 -0.057
H27 H -0.097 0.014 -0.047
H28 H -0.192 -0.108 -0.060
H29 H 0.050 -0.001 0.054
H30 H -0.101 0.073 0.055
H31 H -0.014 -0.112 0.139
H32 H -0.179 -0.064 0.135
H33 H 0.047 0.050 0.258
H34 H 0.110 -0.048 0.203
loop_
_geom_bond_atom_site_label_1
_geom_bond_atom_site_label_2
_geom_bond_site_symmetry_1
_geom_bond_site_symmetry_2
C1 C10 1_555 1_555
O1 C2 1_555 1_555
C2 H6 1_555 1_555
N1 C13 1_555 1_555
N2 C17 1_555 1_555
O2 C18 1_555 1_555
C3 C21 1_555 1_555
O3 C4 1_555 1_555
C4 H20 1_555 1_555
O4 C5 1_555 1_555
C5 C6 1_555 1_555
C6 O5 1_555 1_555
O5 C7 1_555 1_555
C7 C8 1_555 1_555
C8 O6 1_555 1_555
O6 C26 1_555 1_555
C9 C10 1_555 1_555
C10 C11 1_555 1_555
C11 C13 1_555 1_555
C12 C9 1_555 1_555
C13 C14 1_555 1_555
C14 O1 1_555 1_555
C15 N1 1_555 1_555
C16 C15 1_555 1_555
C17 C16 1_555 1_555
C18 N1 1_555 1_555
C19 N2 1_555 1_555
C20 C19 1_555 1_555
C21 C20 1_555 1_555
C22 C21 1_555 1_555
C23 C22 1_555 1_555
C24 O3 1_555 1_555
C25 O4 1_555 1_555
C26 C12 1_555 1_555
H1 C9 1_555 1_555
H2 C1 1_555 1_555
H3 C1 1_555 1_555
H4 C1 1_555 1_555
H5 C11 1_555 1_555
H7 C2 1_555 1_555
H8 C2 1_555 1_555
H9 C15 1_555 1_555
H10 C15 1_555 1_555
H11 C16 1_555 1_555
H12 C16 1_555 1_555
H13 C17 1_555 1_555
H14 C17 1_555 1_555
H15 C20 1_555 1_555
H16 C3 1_555 1_555
H17 C3 1_555 1_555
H18 C3 1_555 1_555
H19 C22 1_555 1_555
H21 C4 1_555 1_555
H22 C4 1_555 1_555
H23 C25 1_555 1_555
H24 C25 1_555 1_555
H25 C5 1_555 1_555
H26 C5 1_555 1_555
H27 C6 1_555 1_555
H28 C6 1_555 1_555
H29 C7 1_555 1_555
H30 C7 1_555 1_555
H31 C8 1_555 1_555
H32 C8 1_555 1_555
H33 C26 1_555 1_555
H34 C26 1_555 1_555
N2 C18 1_555 1_555
C12 C14 1_555 1_555
C19 C24 1_555 1_555
C23 C24 1_555 1_555
C23 C25 1_555 1_555

#END
