
#######################################################################
#
#                 Cambridge Crystallographic Data Centre
#                                CCDC 
#
#######################################################################
#
# If this CIF has been generated from an entry in the Cambridge 
# Structural Database, then it will include bibliographic, chemical, 
# crystal, experimental, refinement or atomic coordinate data resulting 
# from the CCDC's data processing and validation procedures.
#
#######################################################################

data_DIPZUZ
_chemical_formula_moiety         'C12 H10 Br1 N1 O2'
_chemical_name_systematic        
3-Bromo-2-(1-methyl-2-oxo-1,2-dihydro-3H-indol-3-ylidene)propanal
_symmetry_cell_setting           triclinic
_symmetry_space_group_name_H-M   'P -1'
_symmetry_Int_Tables_number      2
_space_group_name_Hall           '-P 1'
loop_
_symmetry_equiv_pos_site_id
_symmetry_equiv_pos_as_xyz
1 x,y,z
2 -x,-y,-z
_cell_length_a                   7.5286(4)
_cell_length_b                   8.9463(5)
_cell_length_c                   9.2134(5)
_cell_angle_alpha                65.1570(10)
_cell_angle_beta                 70.5940(10)
_cell_angle_gamma                83.0090(10)
_cell_volume                     531.019
_exptl_crystal_colour            colorless
_exptl_crystal_description       block
_cell_formula_units_Z            2
loop_
_atom_site_label
_atom_site_type_symbol
_atom_site_fract_x
_atom_site_fract_y
_atom_site_fract_z
Br1 Br 0.25164(4) 1.04349(3) 0.20650(3)
O1 O 0.2304(3) 0.8734(2) -0.0919(2)
O2 O 0.3579(3) 0.4090(2) 0.1808(2)
N1 N 0.3420(3) 0.3393(2) 0.4545(2)
C1 C 0.2786(3) 0.4097(3) 0.5715(3)
C2 C 0.2818(3) 0.3422(3) 0.7357(3)
H1 H 0.3291 0.2352 0.7831
C3 C 0.2129(4) 0.4373(3) 0.8290(3)
H2 H 0.2144 0.3950 0.9420
C4 C 0.1425(4) 0.5925(3) 0.7597(3)
H3 H 0.0943 0.6540 0.8267
C5 C 0.1411(3) 0.6599(3) 0.5937(3)
H4 H 0.0940 0.7670 0.5469
C6 C 0.2097(3) 0.5678(3) 0.4976(3)
C7 C 0.2374(3) 0.5994(3) 0.3220(3)
C8 C 0.3210(3) 0.4435(3) 0.3019(3)
C9 C 0.1997(3) 0.7352(3) 0.1968(3)
C10 C 0.2683(4) 0.7538(3) 0.0192(3)
H5 H 0.3434 0.6703 -0.0081
C11 C 0.0897(3) 0.8750(3) 0.2265(3)
H6 H -0.0035 0.8329 0.3406
H7 H 0.0197 0.9258 0.1439
C12 C 0.4184(4) 0.1754(3) 0.4873(3)
H8 H 0.4528 0.1551 0.3849
H9 H 0.3236 0.0934 0.5776
H10 H 0.5306 0.1672 0.5216
loop_
_geom_bond_atom_site_label_1
_geom_bond_atom_site_label_2
_geom_bond_site_symmetry_1
_geom_bond_site_symmetry_2
Br1 C11 1_555 1_555
O1 C10 1_555 1_555
O2 C8 1_555 1_555
N1 C1 1_555 1_555
C1 C2 1_555 1_555
C2 H1 1_555 1_555
C3 C2 1_555 1_555
H2 C3 1_555 1_555
C4 C3 1_555 1_555
H3 C4 1_555 1_555
C5 C4 1_555 1_555
H4 C5 1_555 1_555
C6 C1 1_555 1_555
C7 C6 1_555 1_555
C8 N1 1_555 1_555
C9 C7 1_555 1_555
C10 C9 1_555 1_555
H5 C10 1_555 1_555
C11 C9 1_555 1_555
H6 C11 1_555 1_555
H7 C11 1_555 1_555
C12 N1 1_555 1_555
H8 C12 1_555 1_555
H9 C12 1_555 1_555
H10 C12 1_555 1_555
C5 C6 1_555 1_555
C7 C8 1_555 1_555

#END
