
#######################################################################
#
#                 Cambridge Crystallographic Data Centre
#                                CCDC 
#
#######################################################################
#
# If this CIF has been generated from an entry in the Cambridge 
# Structural Database, then it will include bibliographic, chemical, 
# crystal, experimental, refinement or atomic coordinate data resulting 
# from the CCDC's data processing and validation procedures.
#
#######################################################################

data_DIQJIZ
_chemical_formula_moiety         'C22 H26 O9'
_chemical_name_systematic        
"5'-(2,2-dimethyl-1,3-dioxolan-4-yl)-7-methoxy-2',2'-dimethyl-3a',6a'-dihydro-2'H,5'H-spiro[1-benzopyran-2,6'-furo[2,3-d][1,3]dioxole]-3-carboxylic acid"
_symmetry_cell_setting           monoclinic
_symmetry_space_group_name_H-M   'P 21'
_symmetry_Int_Tables_number      4
_space_group_name_Hall           'P 2yb'
loop_
_symmetry_equiv_pos_site_id
_symmetry_equiv_pos_as_xyz
1 x,y,z
2 -x,1/2+y,-z
_cell_length_a                   6.83620(10)
_cell_length_b                   15.7227(3)
_cell_length_c                   10.03170(10)
_cell_angle_alpha                90
_cell_angle_beta                 95.1820(10)
_cell_angle_gamma                90
_cell_volume                     1073.84
_exptl_crystal_colour            'dull yellow'
_exptl_crystal_description       block
_cell_formula_units_Z            2
loop_
_atom_site_label
_atom_site_type_symbol
_atom_site_fract_x
_atom_site_fract_y
_atom_site_fract_z
O1 O 0.3313(3) 0.45489(14) 0.29848(19)
O2 O 0.4369(3) 0.60176(15) 0.4471(2)
O3 O 0.4105(4) 0.45515(17) 0.6609(2)
O4 O 0.6881(4) 0.6374(2) 0.1202(2)
O5 O 0.8251(4) 0.6120(2) 0.3297(3)
O6 O 0.3599(5) 0.59744(18) 0.6671(3)
O7 O 0.8423(4) 0.4114(3) 0.5329(5)
O8 O -0.2567(4) 0.3555(2) 0.0802(4)
C1 C 0.8228(5) 0.6709(2) 0.2225(3)
C2 C 0.7277(4) 0.3527(2) 0.5189(3)
C3 C 0.5724(4) 0.5346(2) 0.4285(3)
H1 H 0.6702 0.5326 0.5062
C4 C 0.2030(4) 0.3886(2) 0.2752(3)
C5 C 0.4464(4) 0.4539(2) 0.4269(3)
C6 C 0.5353(4) 0.3669(2) 0.4489(3)
C7 C 0.0386(5) 0.4014(2) 0.1870(3)
H2 H 0.0178 0.4535 0.1442
C8 C 0.2427(5) 0.3095(2) 0.3352(3)
C9 C 0.6770(4) 0.5498(2) 0.3033(3)
H3 H 0.7380 0.4965 0.2777
C10 C 0.3088(4) 0.4763(2) 0.5357(3)
H4 H 0.1790 0.4497 0.5210
C11 C -0.0949(5) 0.3358(3) 0.1631(4)
C12 C 0.5536(5) 0.5855(3) 0.1824(3)
H5 H 0.5032 0.5403 0.1230
H6 H 0.4444 0.6187 0.2096
C13 C 0.4280(5) 0.2984(2) 0.4124(4)
H7 H 0.4728 0.2442 0.4366
C14 C 0.3013(5) 0.5732(2) 0.5351(3)
H8 H 0.1686 0.5937 0.5070
O9 O 0.7680(7) 0.2822(3) 0.5576(6)
C15 C 0.4012(6) 0.5251(3) 0.7495(3)
C16 C 0.1049(6) 0.2440(3) 0.3083(4)
H9 H 0.1279 0.1908 0.3473
C17 C -0.0642(6) 0.2574(3) 0.2248(5)
H10 H -0.1567 0.2143 0.2102
C18 C 1.0224(6) 0.6744(4) 0.1713(5)
H11 H 1.0566 0.6191 0.1402
H12 H 1.1176 0.6921 0.2421
H13 H 1.0206 0.7143 0.0988
C19 C 0.6040(8) 0.5353(5) 0.8246(5)
H14 H 0.6341 0.4859 0.8789
H15 H 0.6052 0.5848 0.8806
H16 H 0.7005 0.5416 0.7614
C20 C -0.4017(7) 0.2916(5) 0.0517(7)
H17 H -0.5130 0.3158 0.0000
H18 H -0.4422 0.2695 0.1341
H19 H -0.3479 0.2465 0.0019
C21 C 0.7566(8) 0.7558(4) 0.2695(6)
H20 H 0.7743 0.7980 0.2024
H21 H 0.8329 0.7710 0.3511
H22 H 0.6203 0.7529 0.2851
C22 C 0.2389(8) 0.5114(4) 0.8404(5)
H23 H 0.1168 0.5025 0.7872
H24 H 0.2282 0.5606 0.8959
H25 H 0.2687 0.4625 0.8959
loop_
_geom_bond_atom_site_label_1
_geom_bond_atom_site_label_2
_geom_bond_site_symmetry_1
_geom_bond_site_symmetry_2
O1 C4 1_555 1_555
O2 C3 1_555 1_555
O3 C10 1_555 1_555
O4 C1 1_555 1_555
O5 C1 1_555 1_555
O6 C14 1_555 1_555
O7 C2 1_555 1_555
O8 C11 1_555 1_555
C1 C18 1_555 1_555
C2 C6 1_555 1_555
C3 H1 1_555 1_555
C4 C7 1_555 1_555
C5 O1 1_555 1_555
C6 C5 1_555 1_555
C7 H2 1_555 1_555
C8 C4 1_555 1_555
C9 O5 1_555 1_555
H3 C9 1_555 1_555
C10 C5 1_555 1_555
H4 C10 1_555 1_555
C11 C7 1_555 1_555
C12 O4 1_555 1_555
H5 C12 1_555 1_555
H6 C12 1_555 1_555
C13 C6 1_555 1_555
H7 C13 1_555 1_555
C14 O2 1_555 1_555
H8 C14 1_555 1_555
O9 C2 1_555 1_555
C15 O3 1_555 1_555
C16 C8 1_555 1_555
H9 C16 1_555 1_555
C17 C11 1_555 1_555
H10 C17 1_555 1_555
C18 H11 1_555 1_555
H12 C18 1_555 1_555
H13 C18 1_555 1_555
C19 C15 1_555 1_555
H14 C19 1_555 1_555
H15 C19 1_555 1_555
H16 C19 1_555 1_555
C20 O8 1_555 1_555
H17 C20 1_555 1_555
H18 C20 1_555 1_555
H19 C20 1_555 1_555
C21 C1 1_555 1_555
H20 C21 1_555 1_555
H21 C21 1_555 1_555
H22 C21 1_555 1_555
C22 C15 1_555 1_555
H23 C22 1_555 1_555
H24 C22 1_555 1_555
H25 C22 1_555 1_555
O6 C15 1_555 1_555
C3 C5 1_555 1_555
C3 C9 1_555 1_555
C8 C13 1_555 1_555
C9 C12 1_555 1_555
C10 C14 1_555 1_555
C16 C17 1_555 1_555

#END
