
#######################################################################
#
#                 Cambridge Crystallographic Data Centre
#                                CCDC 
#
#######################################################################
#
# If this CIF has been generated from an entry in the Cambridge 
# Structural Database, then it will include bibliographic, chemical, 
# crystal, experimental, refinement or atomic coordinate data resulting 
# from the CCDC's data processing and validation procedures.
#
#######################################################################

data_DIQJEU
_chemical_formula_moiety         '2(C17 H19 N2 1+),C10 H4 O8 2-,C10 H6 O8'
_chemical_name_systematic        
'bis(7,7-Dimethyl-3-(pyridin-2-yl)-5,6,7,8-tetrahydro-6,8-methanoisoquinolinium) 2,5-dicarboxyterephthalate benzene-1,2,4,5-tetracarboxylic acid solvate'
_symmetry_cell_setting           triclinic
_symmetry_space_group_name_H-M   'P -1'
_symmetry_Int_Tables_number      2
_space_group_name_Hall           '-P 1'
loop_
_symmetry_equiv_pos_site_id
_symmetry_equiv_pos_as_xyz
1 x,y,z
2 -x,-y,-z
_cell_length_a                   7.2917(15)
_cell_length_b                   10.673(2)
_cell_length_c                   15.371(3)
_cell_angle_alpha                81.460(4)
_cell_angle_beta                 87.501(4)
_cell_angle_gamma                82.960(4)
_cell_volume                     1173.66
_exptl_crystal_colour            colorless
_exptl_crystal_description       block
_cell_formula_units_Z            1
_exptl_crystal_recrystallization_method acetonitrile/ethanol
loop_
_atom_site_label
_atom_site_type_symbol
_atom_site_fract_x
_atom_site_fract_y
_atom_site_fract_z
O1 O 0.5176(4) 0.8100(3) 0.21473(17)
C1 C 0.4601(4) 0.9086(3) 0.0718(2)
C2 C 0.6409(4) 0.9139(3) 0.0393(2)
C3 C 0.3212(4) 0.9961(3) 0.0314(2)
H1 H 0.1999 0.9940 0.0524
C4 C 0.7967(5) 0.8173(3) 0.0756(2)
C5 C 0.4156(4) 0.8177(3) 0.1521(2)
O2 O 0.9405(3) 0.8723(3) 0.0920(2)
H2 H 1.0310 0.8095 0.1217
O3 O 0.7913(4) 0.7061(3) 0.0863(2)
O4 O 0.2760(3) 0.7610(2) 0.15053(16)
O1A O 0.4824(4) 1.1900(3) -0.21473(17)
C1A C 0.5399(4) 1.0914(3) -0.0718(2)
C2A C 0.3591(4) 1.0861(3) -0.0393(2)
C3A C 0.6788(4) 1.0039(3) -0.0314(2)
H1A H 0.8001 1.0060 -0.0524
C4A C 0.2033(5) 1.1827(3) -0.0756(2)
C5A C 0.5844(4) 1.1823(3) -0.1521(2)
O2A O 0.0595(3) 1.1277(3) -0.0920(2)
H2A H -0.0310 1.1905 -0.1217
O3A O 0.2087(4) 1.2939(3) -0.0863(2)
O4A O 0.7240(3) 1.2390(2) -0.15053(16)
O5 O 1.1997(4) 0.6077(2) 0.28705(16)
C6 C 0.8539(4) 0.5664(3) 0.4505(2)
C7 C 1.0359(4) 0.5766(3) 0.4204(2)
C8 C 1.1785(4) 0.5094(3) 0.4702(2)
H3 H 1.2997 0.5151 0.4500
C9 C 0.6888(5) 0.6328(3) 0.4008(2)
C10 C 1.0845(4) 0.6633(3) 0.3393(2)
O6 O 0.5472(3) 0.6693(3) 0.43730(17)
O7 O 0.7148(4) 0.6405(3) 0.31609(16)
H4 H 0.6003 0.6731 0.2879
O8 O 1.0264(4) 0.7747(2) 0.32660(17)
H5 H 1.2042 0.6611 0.2312
O5A O 0.8003(4) 0.3923(2) 0.71295(16)
C6A C 1.1461(4) 0.4336(3) 0.5495(2)
C7A C 0.9641(4) 0.4234(3) 0.5796(2)
C8A C 0.8215(4) 0.4906(3) 0.5298(2)
H3A H 0.7003 0.4849 0.5500
C9A C 1.3112(5) 0.3672(3) 0.5992(2)
C10A C 0.9155(4) 0.3367(3) 0.6607(2)
O6A O 1.4528(3) 0.3307(3) 0.56270(17)
O7A O 1.2852(4) 0.3595(3) 0.68391(16)
H4A H 1.3997 0.3269 0.7121
O8A O 0.9736(4) 0.2253(2) 0.67340(17)
H5A H 0.7958 0.3389 0.7688
C11 C 0.7915(6) 0.0377(4) 0.2633(3)
H6 H 0.8417 -0.0136 0.2222
C12 C 0.7129(6) 0.1588(4) 0.2360(3)
C13 C 0.6938(7) 0.2176(4) 0.1403(3)
H7 H 0.7448 0.1643 0.0963
C14 C 0.7441(7) 0.3558(4) 0.1280(3)
C15 C 0.7607(8) 0.4082(5) 0.0306(3)
H8 H 0.7502 0.4996 0.0235
H9 H 0.6639 0.3821 -0.0005
H10 H 0.8786 0.3758 0.0075
C16 C 0.9098(7) 0.3832(4) 0.1758(3)
H11 H 1.0207 0.3401 0.1530
H12 H 0.8961 0.3535 0.2376
H13 H 0.9171 0.4735 0.1671
C17 C 0.4887(7) 0.2773(4) 0.1298(3)
H14 H 0.4489 0.2966 0.0694
H15 H 0.4010 0.2315 0.1673
C18 C 0.5507(7) 0.3912(4) 0.1670(3)
H16 H 0.4896 0.4748 0.1416
C19 C 0.5465(7) 0.3663(4) 0.2673(3)
H17 H 0.6112 0.4284 0.2900
H18 H 0.4196 0.3755 0.2893
C20 C 0.6372(5) 0.2337(4) 0.2988(3)
C21 C 0.6466(5) 0.1828(3) 0.3882(3)
H19 H 0.5976 0.2317 0.4308
C22 C 0.7291(5) 0.0599(3) 0.4125(2)
C23 C 0.7512(5) -0.0049(3) 0.5037(2)
C24 C 0.6996(5) 0.0548(4) 0.5757(3)
H20 H 0.6459 0.1393 0.5689
C25 C 0.7290(6) -0.0130(4) 0.6578(3)
H21 H 0.6952 0.0247 0.7078
C26 C 0.8090(6) -0.1373(4) 0.6655(3)
H22 H 0.8309 -0.1849 0.7206
C27 C 0.8557(6) -0.1896(4) 0.5904(3)
H23 H 0.9095 -0.2740 0.5961
N1 N 0.7963(4) -0.0074(3) 0.3491(2)
H24 H 0.8458 -0.0844 0.3644
N2 N 0.8287(5) -0.1271(3) 0.5102(2)
loop_
_geom_bond_atom_site_label_1
_geom_bond_atom_site_label_2
_geom_bond_site_symmetry_1
_geom_bond_site_symmetry_2
O1 C5 1_555 1_555
C1 C2 1_555 1_555
C2 C4 1_555 1_555
C3 C1 1_555 1_555
H1 C3 1_555 1_555
C4 O2 1_555 1_555
C5 C1 1_555 1_555
O2 H2 1_555 1_555
O3 C4 1_555 1_555
O4 C5 1_555 1_555
O5 C10 1_555 1_555
C6 C7 1_555 1_555
C7 C8 1_555 1_555
C8 H3 1_555 1_555
C9 C6 1_555 1_555
C10 C7 1_555 1_555
O6 C9 1_555 1_555
O7 C9 1_555 1_555
H4 O7 1_555 1_555
O8 C10 1_555 1_555
H5 O5 1_555 1_555
C11 H6 1_555 1_555
C12 C11 1_555 1_555
C13 C12 1_555 1_555
H7 C13 1_555 1_555
C14 C13 1_555 1_555
C15 C14 1_555 1_555
H8 C15 1_555 1_555
H9 C15 1_555 1_555
H10 C15 1_555 1_555
C16 C14 1_555 1_555
H11 C16 1_555 1_555
H12 C16 1_555 1_555
H13 C16 1_555 1_555
C17 C13 1_555 1_555
H14 C17 1_555 1_555
H15 C17 1_555 1_555
C18 C14 1_555 1_555
H16 C18 1_555 1_555
C19 C18 1_555 1_555
H17 C19 1_555 1_555
H18 C19 1_555 1_555
C20 C12 1_555 1_555
C21 C20 1_555 1_555
H19 C21 1_555 1_555
C22 C21 1_555 1_555
C23 C22 1_555 1_555
C24 C23 1_555 1_555
H20 C24 1_555 1_555
C25 C24 1_555 1_555
H21 C25 1_555 1_555
C26 C25 1_555 1_555
H22 C26 1_555 1_555
C27 C26 1_555 1_555
H23 C27 1_555 1_555
N1 C11 1_555 1_555
H24 N1 1_555 1_555
N2 C23 1_555 1_555
O1A C5A 1_555 1_555
C1A C2A 1_555 1_555
C2A C3 1_555 1_555
C3A C2 1_555 1_555
H1A C3A 1_555 1_555
C4A C2A 1_555 1_555
C5A C1A 1_555 1_555
O2A C4A 1_555 1_555
H2A O2A 1_555 1_555
O3A C4A 1_555 1_555
O4A C5A 1_555 1_555
O5A C10A 1_555 1_555
C6A C8 1_555 1_555
C7A C6A 1_555 1_555
C8A C6 1_555 1_555
H3A C8A 1_555 1_555
C9A C6A 1_555 1_555
C10A C7A 1_555 1_555
O6A C9A 1_555 1_555
O7A C9A 1_555 1_555
H4A O7A 1_555 1_555
O8A C10A 1_555 1_555
H5A O5A 1_555 1_555
C17 C18 1_555 1_555
C19 C20 1_555 1_555
C22 N1 1_555 1_555
C27 N2 1_555 1_555
C1A C3A 1_555 1_555
C7A C8A 1_555 1_555

#END
