
#######################################################################
#
#                 Cambridge Crystallographic Data Centre
#                                CCDC 
#
#######################################################################
#
# If this CIF has been generated from an entry in the Cambridge 
# Structural Database, then it will include bibliographic, chemical, 
# crystal, experimental, refinement or atomic coordinate data resulting 
# from the CCDC's data processing and validation procedures.
#
#######################################################################

data_DIQYIN
_chemical_formula_moiety         'C34 H54 Li2 O3 Si2'
_chemical_name_systematic        
'(\m~2~-2,3-diphenyl-1,4-bis(trimethylsilyl)buta-1,3-diene-1,4-diyl)-bis(tetrahydrofuran)-(diethyl ether)-di-lithium'
_symmetry_cell_setting           triclinic
_symmetry_space_group_name_H-M   'P -1'
_symmetry_Int_Tables_number      2
_space_group_name_Hall           '-P 1'
loop_
_symmetry_equiv_pos_site_id
_symmetry_equiv_pos_as_xyz
1 x,y,z
2 -x,-y,-z
_cell_length_a                   10.8853(6)
_cell_length_b                   10.8872(6)
_cell_length_c                   17.4247(10)
_cell_angle_alpha                89.952(4)
_cell_angle_beta                 84.999(5)
_cell_angle_gamma                61.040(6)
_cell_volume                     1797.89
_cell_formula_units_Z            2
loop_
_atom_site_label
_atom_site_type_symbol
_atom_site_fract_x
_atom_site_fract_y
_atom_site_fract_z
Si1 Si 0.70745(6) 0.23622(5) 0.84964(3)
Si2 Si 0.20410(5) 0.44431(5) 0.61555(3)
O1 O 0.20848(17) 0.44480(18) 0.87180(10)
O2 O 0.3633(2) 0.13498(19) 0.82975(10)
O3 O 0.69331(13) 0.08161(13) 0.61341(8)
C1 C 0.56057(19) 0.31398(18) 0.78942(10)
C2 C 0.50958(18) 0.44027(17) 0.75629(10)
C3 C 0.39099(18) 0.48804(17) 0.70296(10)
C4 C 0.34250(18) 0.40109(18) 0.68062(11)
C5 C 0.6408(2) 0.2806(2) 0.95457(12)
H1 H 0.6103 0.3798 0.9663
H2 H 0.7164 0.2217 0.9862
H3 H 0.5608 0.2633 0.9659
C6 C 0.7934(2) 0.0392(2) 0.83625(14)
H4 H 0.7235 0.0088 0.8503
H5 H 0.8706 -0.0046 0.8693
H6 H 0.8311 0.0109 0.7822
C7 C 0.8577(2) 0.2769(2) 0.83228(14)
H7 H 0.8950 0.2565 0.7778
H8 H 0.9326 0.2188 0.8645
H9 H 0.8232 0.3764 0.8455
C8 C 0.56883(18) 0.53799(17) 0.76691(10)
C9 C 0.5529(2) 0.60314(19) 0.83856(12)
H10 H 0.4978 0.5916 0.8804
C10 C 0.6169(2) 0.6850(2) 0.84968(13)
H11 H 0.6052 0.7285 0.8990
C11 C 0.6967(2) 0.7036(2) 0.78997(14)
H12 H 0.7403 0.7594 0.7979
C12 C 0.7129(2) 0.6402(2) 0.71839(13)
H13 H 0.7682 0.6520 0.6768
C13 C 0.6486(2) 0.55922(19) 0.70707(12)
H14 H 0.6594 0.5174 0.6574
C14 C 0.33343(18) 0.63666(18) 0.67740(11)
C15 C 0.2358(2) 0.75057(19) 0.72519(12)
H15 H 0.2081 0.7355 0.7760
C16 C 0.1780(2) 0.8869(2) 0.69926(15)
H16 H 0.1089 0.9635 0.7319
C17 C 0.2202(3) 0.9110(2) 0.62695(16)
H17 H 0.1817 1.0041 0.6098
C18 C 0.3187(2) 0.7994(2) 0.57948(14)
H18 H 0.3494 0.8155 0.5297
C19 C 0.3729(2) 0.6639(2) 0.60423(12)
H19 H 0.4388 0.5877 0.5703
C20 C 0.0570(2) 0.6313(2) 0.61371(14)
H20 H 0.0118 0.6654 0.6662
H21 H -0.0129 0.6348 0.5807
H22 H 0.0956 0.6908 0.5933
C21 C 0.2857(3) 0.3910(3) 0.51372(13)
H23 H 0.3249 0.4517 0.4962
H24 H 0.2138 0.4003 0.4805
H25 H 0.3614 0.2930 0.5111
C22 C 0.1134(2) 0.3377(2) 0.63943(14)
H26 H 0.1840 0.2380 0.6390
H27 H 0.0477 0.3516 0.6010
H28 H 0.0611 0.3680 0.6907
C23 C 0.2277(3) 0.5282(3) 0.92705(17)
H29 H 0.2995 0.5532 0.9056
H30 H 0.2608 0.4750 0.9739
C24 C 0.0924(3) 0.6558(3) 0.94646(19)
H31 H 0.0987 0.7397 0.9299
H32 H 0.0659 0.6660 1.0028
C25 C -0.0124(3) 0.6411(3) 0.9057(2)
H33 H -0.0789 0.6280 0.9428
H34 H -0.0667 0.7260 0.8768
C26 C 0.0655(3) 0.5186(3) 0.85312(18)
H35 H 0.0226 0.4566 0.8582
H36 H 0.0627 0.5480 0.7992
C27 C 0.4016(4) 0.0969(3) 0.90525(18)
H37 H 0.4027 0.1750 0.9337
H38 H 0.4963 0.0130 0.9036
C28 C 0.2930(4) 0.0663(4) 0.94230(17)
H39 H 0.2100 0.1531 0.9652
H40 H 0.3311 -0.0018 0.9831
C29 C 0.2549(3) 0.0049(3) 0.87748(15)
H41 H 0.3119 -0.0988 0.8740
H42 H 0.1536 0.0321 0.8839
C30 C 0.2887(4) 0.0676(3) 0.80842(17)
H43 H 0.3465 -0.0068 0.7680
H44 H 0.2005 0.1362 0.7874
C31 C 0.5383(3) -0.0157(3) 0.62079(18)
H45 H 0.4752 0.0585 0.5890
H46 H 0.5095 0.0143 0.6754
H47 H 0.5333 -0.1017 0.6109
C32 C 0.6849(2) -0.0434(2) 0.60129(16)
H48 H 0.7487 -0.1174 0.6339
H49 H 0.7157 -0.0775 0.5467
C33 C 0.8341(2) 0.0594(2) 0.59685(14)
H50 H 0.8715 0.0180 0.5438
H51 H 0.8963 -0.0066 0.6333
C34 C 0.8319(3) 0.1979(2) 0.60453(15)
H52 H 0.7699 0.2629 0.5685
H53 H 0.9277 0.1838 0.5927
H54 H 0.7967 0.2374 0.6574
Li1 Li 0.3620(4) 0.3101(4) 0.7950(2)
Li2 Li 0.5474(3) 0.2331(3) 0.68151(19)
loop_
_geom_bond_atom_site_label_1
_geom_bond_atom_site_label_2
_geom_bond_site_symmetry_1
_geom_bond_site_symmetry_2
Si1 C1 1_555 1_555
Si2 C4 1_555 1_555
O1 C23 1_555 1_555
O2 C27 1_555 1_555
O3 C32 1_555 1_555
C1 C2 1_555 1_555
C2 C3 1_555 1_555
C3 C4 1_555 1_555
C4 Li1 1_555 1_555
C5 Si1 1_555 1_555
H1 C5 1_555 1_555
H2 C5 1_555 1_555
H3 C5 1_555 1_555
C6 Si1 1_555 1_555
H4 C6 1_555 1_555
H5 C6 1_555 1_555
H6 C6 1_555 1_555
C7 Si1 1_555 1_555
H7 C7 1_555 1_555
H8 C7 1_555 1_555
H9 C7 1_555 1_555
C8 C2 1_555 1_555
C9 C8 1_555 1_555
H10 C9 1_555 1_555
C10 C9 1_555 1_555
H11 C10 1_555 1_555
C11 C10 1_555 1_555
H12 C11 1_555 1_555
C12 C11 1_555 1_555
H13 C12 1_555 1_555
C13 C8 1_555 1_555
H14 C13 1_555 1_555
C14 C3 1_555 1_555
C15 C14 1_555 1_555
H15 C15 1_555 1_555
C16 C15 1_555 1_555
H16 C16 1_555 1_555
C17 C16 1_555 1_555
H17 C17 1_555 1_555
C18 C17 1_555 1_555
H18 C18 1_555 1_555
C19 C14 1_555 1_555
H19 C19 1_555 1_555
C20 Si2 1_555 1_555
H20 C20 1_555 1_555
H21 C20 1_555 1_555
H22 C20 1_555 1_555
C21 Si2 1_555 1_555
H23 C21 1_555 1_555
H24 C21 1_555 1_555
H25 C21 1_555 1_555
C22 Si2 1_555 1_555
H26 C22 1_555 1_555
H27 C22 1_555 1_555
H28 C22 1_555 1_555
C23 H29 1_555 1_555
H30 C23 1_555 1_555
C24 C23 1_555 1_555
H31 C24 1_555 1_555
H32 C24 1_555 1_555
C25 C24 1_555 1_555
H33 C25 1_555 1_555
H34 C25 1_555 1_555
C26 O1 1_555 1_555
H35 C26 1_555 1_555
H36 C26 1_555 1_555
C27 H37 1_555 1_555
H38 C27 1_555 1_555
C28 C27 1_555 1_555
H39 C28 1_555 1_555
H40 C28 1_555 1_555
C29 C28 1_555 1_555
H41 C29 1_555 1_555
H42 C29 1_555 1_555
C30 O2 1_555 1_555
H43 C30 1_555 1_555
H44 C30 1_555 1_555
C31 H45 1_555 1_555
H46 C31 1_555 1_555
H47 C31 1_555 1_555
C32 C31 1_555 1_555
H48 C32 1_555 1_555
H49 C32 1_555 1_555
C33 O3 1_555 1_555
H50 C33 1_555 1_555
H51 C33 1_555 1_555
C34 C33 1_555 1_555
H52 C34 1_555 1_555
H53 C34 1_555 1_555
H54 C34 1_555 1_555
Li1 O1 1_555 1_555
Li2 O3 1_555 1_555
O2 Li1 1_555 1_555
C1 Li1 1_555 1_555
C1 Li2 1_555 1_555
C4 Li2 1_555 1_555
C12 C13 1_555 1_555
C18 C19 1_555 1_555
C25 C26 1_555 1_555
C29 C30 1_555 1_555

#END
