
#######################################################################
#
#                 Cambridge Crystallographic Data Centre
#                                CCDC 
#
#######################################################################
#
# If this CIF has been generated from an entry in the Cambridge 
# Structural Database, then it will include bibliographic, chemical, 
# crystal, experimental, refinement or atomic coordinate data resulting 
# from the CCDC's data processing and validation procedures.
#
#######################################################################

data_DIQYEJ
_chemical_formula_moiety         'C38 H58 Ba1 O4 Si2'
_chemical_name_systematic        
(\h^5^,\h^5^-indeno[2,1-a]indene-5,10-diylbis(trimethylsilane))-tetrakis(tetrahydrofuran)-barium
_symmetry_cell_setting           monoclinic
_symmetry_space_group_name_H-M   'C 2/c'
_symmetry_Int_Tables_number      15
_space_group_name_Hall           '-C 2yn'
loop_
_symmetry_equiv_pos_site_id
_symmetry_equiv_pos_as_xyz
1 x,y,z
2 -x,y,1/2-z
3 1/2+x,1/2+y,z
4 1/2-x,1/2+y,1/2-z
5 -x,-y,-z
6 x,-y,1/2+z
7 1/2-x,1/2-y,-z
8 1/2+x,1/2-y,1/2+z
_cell_length_a                   22.0250(19)
_cell_length_b                   9.270(3)
_cell_length_c                   21.292(5)
_cell_angle_alpha                90
_cell_angle_beta                 120.230(12)
_cell_angle_gamma                90
_cell_volume                     3756.05
_exptl_crystal_colour            red
_exptl_crystal_description       Plate
_cell_formula_units_Z            4
loop_
_atom_site_label
_atom_site_type_symbol
_atom_site_fract_x
_atom_site_fract_y
_atom_site_fract_z
Ba1 Ba 0.0000 0.64293(5) 0.2500
Si1 Si -0.16059(8) 0.37594(17) 0.24789(8)
O1 O 0.1098(2) 0.7702(4) 0.3718(2)
O2 O 0.0559(2) 0.8410(4) 0.1957(2)
C1 C -0.0376(2) 0.3508(6) 0.2299(3)
C2 C -0.0670(3) 0.3729(6) 0.2774(3)
C3 C -0.0060(3) 0.3778(5) 0.3485(3)
C4 C 0.0021(3) 0.3905(6) 0.4190(3)
H1 H -0.0384 0.4028 0.4235
C5 C 0.0668(3) 0.3855(6) 0.4804(3)
H2 H 0.0702 0.3940 0.5265
C6 C 0.1283(3) 0.3682(6) 0.4768(3)
H3 H 0.1728 0.3639 0.5202
C7 C 0.1239(3) 0.3573(6) 0.4099(3)
H4 H 0.1655 0.3463 0.4074
C8 C 0.0586(3) 0.3625(6) 0.3458(3)
C9 C -0.1794(3) 0.3868(6) 0.3242(3)
H5 H -0.1576 0.3047 0.3570
H6 H -0.2304 0.3845 0.3045
H7 H -0.1602 0.4769 0.3511
C10 C -0.2070(3) 0.2095(6) 0.1946(3)
H8 H -0.1923 0.1891 0.1590
H9 H -0.2579 0.2253 0.1692
H10 H -0.1950 0.1274 0.2278
C11 C -0.2073(3) 0.5326(7) 0.1860(3)
H11 H -0.1904 0.6230 0.2133
H12 H -0.2580 0.5237 0.1669
H13 H -0.1980 0.5328 0.1456
C12 C 0.1206(4) 0.7349(7) 0.4421(4)
H14 H 0.1558 0.6569 0.4646
H15 H 0.0761 0.7024 0.4384
C13 C 0.1462(4) 0.8693(9) 0.4864(4)
H16 H 0.1824 0.8467 0.5371
H17 H 0.1070 0.9211 0.4866
C14 C 0.1766(4) 0.9578(8) 0.4503(4)
H18 H 0.1550 1.0549 0.4381
H19 H 0.2280 0.9686 0.4825
C15 C 0.1607(4) 0.8784(9) 0.3837(4)
H20 H 0.1418 0.9452 0.3417
H21 H 0.2039 0.8332 0.3894
C16 C 0.0363(4) 0.9909(6) 0.1779(3)
H22 H 0.0623 1.0522 0.2216
H23 H -0.0147 1.0037 0.1587
C17 C 0.0548(5) 1.0310(7) 0.1212(4)
H24 H 0.0155 1.0835 0.0805
H25 H 0.0972 1.0927 0.1423
C18 C 0.0679(5) 0.8931(8) 0.0959(4)
H26 H 0.1045 0.9042 0.0823
H27 H 0.0244 0.8563 0.0534
C19 C 0.0919(4) 0.7952(8) 0.1587(4)
H28 H 0.0799 0.6940 0.1422
H29 H 0.1434 0.8026 0.1912
Si1A Si 0.16059(8) 0.37594(17) 0.25211(8)
C1A C 0.0376(2) 0.3508(6) 0.2701(3)
C2A C 0.0670(3) 0.3729(6) 0.2226(3)
C3A C 0.0060(3) 0.3778(5) 0.1515(3)
C4A C -0.0021(3) 0.3905(6) 0.0810(3)
H1A H 0.0384 0.4028 0.0765
C5A C -0.0668(3) 0.3855(6) 0.0196(3)
H2A H -0.0702 0.3940 -0.0265
C6A C -0.1283(3) 0.3682(6) 0.0232(3)
H3A H -0.1728 0.3639 -0.0202
C7A C -0.1239(3) 0.3573(6) 0.0901(3)
H4A H -0.1655 0.3463 0.0926
C8A C -0.0586(3) 0.3625(6) 0.1542(3)
C9A C 0.1794(3) 0.3868(6) 0.1758(3)
H5A H 0.1576 0.3047 0.1430
H6A H 0.2304 0.3845 0.1955
H7A H 0.1602 0.4769 0.1489
C10A C 0.2070(3) 0.2095(6) 0.3054(3)
H8A H 0.1923 0.1891 0.3410
H9A H 0.2579 0.2253 0.3308
H10A H 0.1950 0.1274 0.2722
C11A C 0.2073(3) 0.5326(7) 0.3140(3)
H11A H 0.1904 0.6230 0.2867
H12A H 0.2580 0.5237 0.3331
H13A H 0.1980 0.5328 0.3544
O1A O -0.1098(2) 0.7702(4) 0.1282(2)
O2A O -0.0559(2) 0.8410(4) 0.3043(2)
C12A C -0.1206(4) 0.7349(7) 0.0579(4)
H14A H -0.1558 0.6569 0.0354
H15A H -0.0761 0.7024 0.0616
C13A C -0.1462(4) 0.8693(9) 0.0136(4)
H16A H -0.1824 0.8467 -0.0371
H17A H -0.1070 0.9211 0.0134
C14A C -0.1766(4) 0.9578(8) 0.0497(4)
H18A H -0.1550 1.0549 0.0619
H19A H -0.2280 0.9686 0.0175
C15A C -0.1607(4) 0.8784(9) 0.1163(4)
H20A H -0.1418 0.9452 0.1583
H21A H -0.2039 0.8332 0.1106
C16A C -0.0363(4) 0.9909(6) 0.3221(3)
H22A H -0.0623 1.0522 0.2784
H23A H 0.0147 1.0037 0.3413
C17A C -0.0548(5) 1.0310(7) 0.3788(4)
H24A H -0.0155 1.0835 0.4195
H25A H -0.0972 1.0927 0.3577
C18A C -0.0679(5) 0.8931(8) 0.4041(4)
H26A H -0.1045 0.9042 0.4177
H27A H -0.0244 0.8563 0.4466
C19A C -0.0919(4) 0.7952(8) 0.3413(4)
H28A H -0.0799 0.6940 0.3578
H29A H -0.1434 0.8026 0.3088
loop_
_geom_bond_atom_site_label_1
_geom_bond_atom_site_label_2
_geom_bond_site_symmetry_1
_geom_bond_site_symmetry_2
Ba1 O1 1_555 1_555
Si1 C2 1_555 1_555
O1 C12 1_555 1_555
O2 Ba1 1_555 1_555
C1 Ba1 1_555 1_555
C2 Ba1 1_555 1_555
C3 Ba1 1_555 1_555
C4 C3 1_555 1_555
H1 C4 1_555 1_555
C5 C4 1_555 1_555
H2 C5 1_555 1_555
C6 C5 1_555 1_555
H3 C6 1_555 1_555
C7 C6 1_555 1_555
H4 C7 1_555 1_555
C8 Ba1 1_555 1_555
C9 Si1 1_555 1_555
H5 C9 1_555 1_555
H6 C9 1_555 1_555
H7 C9 1_555 1_555
C10 Si1 1_555 1_555
H8 C10 1_555 1_555
H9 C10 1_555 1_555
H10 C10 1_555 1_555
C11 Si1 1_555 1_555
H11 C11 1_555 1_555
H12 C11 1_555 1_555
H13 C11 1_555 1_555
C12 H14 1_555 1_555
H15 C12 1_555 1_555
C13 C12 1_555 1_555
H16 C13 1_555 1_555
H17 C13 1_555 1_555
C14 C13 1_555 1_555
H18 C14 1_555 1_555
H19 C14 1_555 1_555
C15 O1 1_555 1_555
H20 C15 1_555 1_555
H21 C15 1_555 1_555
C16 O2 1_555 1_555
H22 C16 1_555 1_555
H23 C16 1_555 1_555
C17 C16 1_555 1_555
H24 C17 1_555 1_555
H25 C17 1_555 1_555
C18 C17 1_555 1_555
H26 C18 1_555 1_555
H27 C18 1_555 1_555
C19 O2 1_555 1_555
H28 C19 1_555 1_555
H29 C19 1_555 1_555
Si1A C2A 1_555 1_555
C1A Ba1 1_555 1_555
C2A Ba1 1_555 1_555
C3A Ba1 1_555 1_555
C4A C3A 1_555 1_555
H1A C4A 1_555 1_555
C5A C4A 1_555 1_555
H2A C5A 1_555 1_555
C6A C5A 1_555 1_555
H3A C6A 1_555 1_555
C7A C6A 1_555 1_555
H4A C7A 1_555 1_555
C8A Ba1 1_555 1_555
C9A Si1A 1_555 1_555
H5A C9A 1_555 1_555
H6A C9A 1_555 1_555
H7A C9A 1_555 1_555
C10A Si1A 1_555 1_555
H8A C10A 1_555 1_555
H9A C10A 1_555 1_555
H10A C10A 1_555 1_555
C11A Si1A 1_555 1_555
H11A C11A 1_555 1_555
H12A C11A 1_555 1_555
H13A C11A 1_555 1_555
O1A Ba1 1_555 1_555
O2A Ba1 1_555 1_555
C12A O1A 1_555 1_555
H14A C12A 1_555 1_555
H15A C12A 1_555 1_555
C13A C12A 1_555 1_555
H16A C13A 1_555 1_555
H17A C13A 1_555 1_555
C14A C13A 1_555 1_555
H18A C14A 1_555 1_555
H19A C14A 1_555 1_555
C15A O1A 1_555 1_555
H20A C15A 1_555 1_555
H21A C15A 1_555 1_555
C16A O2A 1_555 1_555
H22A C16A 1_555 1_555
H23A C16A 1_555 1_555
C17A C16A 1_555 1_555
H24A C17A 1_555 1_555
H25A C17A 1_555 1_555
C18A C17A 1_555 1_555
H26A C18A 1_555 1_555
H27A C18A 1_555 1_555
C19A O2A 1_555 1_555
H28A C19A 1_555 1_555
H29A C19A 1_555 1_555
C1 C2 1_555 1_555
C1 C1A 1_555 1_555
C1 C8A 1_555 1_555
C2 C3 1_555 1_555
C3 C8 1_555 1_555
C7 C8 1_555 1_555
C8 C1A 1_555 1_555
C14 C15 1_555 1_555
C18 C19 1_555 1_555
C1A C2A 1_555 1_555
C2A C3A 1_555 1_555
C3A C8A 1_555 1_555
C7A C8A 1_555 1_555
C14A C15A 1_555 1_555
C18A C19A 1_555 1_555

#END
