
#######################################################################
#
#                 Cambridge Crystallographic Data Centre
#                                CCDC 
#
#######################################################################
#
# If this CIF has been generated from an entry in the Cambridge 
# Structural Database, then it will include bibliographic, chemical, 
# crystal, experimental, refinement or atomic coordinate data resulting 
# from the CCDC's data processing and validation procedures.
#
#######################################################################

data_DIRQAZ
_chemical_formula_moiety         'C38 H22 N10 Si1,0.84(H2 O1)'
_chemical_name_systematic        
"bis(2,2'-(pyridine-2,6-diyl)bis(benzimidazole))-silicon hydrate"
_symmetry_cell_setting           tetragonal
_symmetry_space_group_name_H-M   'P -4 n 2'
_symmetry_Int_Tables_number      118
_space_group_name_Hall           'P -4 -2n'
loop_
_symmetry_equiv_pos_site_id
_symmetry_equiv_pos_as_xyz
1 x,y,z
2 y,-x,-z
3 -x,-y,z
4 -y,x,-z
5 1/2+y,1/2+x,1/2-z
6 1/2-y,1/2-x,1/2-z
7 1/2-x,1/2+y,1/2+z
8 1/2+x,1/2-y,1/2+z
_cell_length_a                   9.7375(10)
_cell_length_b                   9.7375(10)
_cell_length_c                   15.684(2)
_cell_angle_alpha                90
_cell_angle_beta                 90
_cell_angle_gamma                90
_cell_volume                     1487.14
_exptl_crystal_colour            yellow
_exptl_crystal_description       irregular
_cell_formula_units_Z            2
loop_
_atom_site_label
_atom_site_type_symbol
_atom_site_fract_x
_atom_site_fract_y
_atom_site_fract_z
Si1 Si 1 1 0.500
N1 N 0.8744(6) 0.6574(6) 0.3862(3)
N2 N 0.9332(5) 0.8219(5) 0.4836(3)
N3 N 1 1 0.3805(3)
C1 C 0.8872(6) 0.7103(6) 0.5290(4)
C2 C 0.8728(7) 0.6863(7) 0.6169(4)
H1 H 0.895643 0.754316 0.65789
C3 C 0.9593(7) 0.8861(7) 0.3385(3)
C4 C 0.7986(6) 0.4800(6) 0.4938(5)
H2 H 0.770961 0.412585 0.45353
C5 C 0.9596(7) 0.8816(7) 0.2500(4)
H3 H 0.933405 0.800947 0.220004
C6 C 0.8522(6) 0.6081(7) 0.4689(4)
C7 C 0.9223(6) 0.7808(6) 0.3996(4)
C8 C 1 1 0.2068(5)
H4 H 0.999999 1.000001 0.146253
C9 C 0.7888(8) 0.4590(7) 0.5802(5)
H5 H 0.756837 0.372744 0.60049
C10 C 0.8248(8) 0.5617(8) 0.6401(4)
H6 H 0.814868 0.54206 0.699071
N1A N 0.6574(6) 1.1256(6) 0.6138(3)
N2A N 0.8219(5) 1.0668(5) 0.5164(3)
N3A N 1 1 0.6195(3)
C1A C 0.7103(6) 1.1128(6) 0.4710(4)
C2A C 0.6863(7) 1.1272(7) 0.3831(4)
H1A H 0.754316 1.104357 0.34211
C3A C 0.8861(7) 1.0407(7) 0.6615(3)
C4A C 0.4800(6) 1.2014(6) 0.5062(5)
H2A H 0.412585 1.229039 0.54647
C5A C 0.8816(7) 1.0404(7) 0.7500(4)
H3A H 0.800947 1.066595 0.779996
C6A C 0.6081(7) 1.1478(6) 0.5311(4)
C7A C 0.7808(6) 1.0777(6) 0.6004(4)
C8A C 1 1 0.7932(5)
H4A H 1.000001 1.000001 0.853747
C9A C 0.4590(7) 1.2112(8) 0.4198(5)
H5A H 0.372744 1.243163 0.39951
C10A C 0.5617(8) 1.1752(8) 0.3599(4)
H6A H 0.54206 1.185132 0.300929
N1B N 1.1256(6) 1.3426(6) 0.3862(3)
N2B N 1.0668(5) 1.1781(5) 0.4836(3)
C1B C 1.1128(6) 1.2897(6) 0.5290(4)
C2B C 1.1272(7) 1.3137(7) 0.6169(4)
H1B H 1.104357 1.245684 0.65789
C3B C 1.0407(7) 1.1139(7) 0.3385(3)
C4B C 1.2014(6) 1.5200(6) 0.4938(5)
H2B H 1.229039 1.587415 0.45353
C5B C 1.0404(7) 1.1184(7) 0.2500(4)
H3B H 1.066595 1.199053 0.220004
C6B C 1.1478(6) 1.3919(7) 0.4689(4)
C7B C 1.0777(6) 1.2192(6) 0.3996(4)
C9B C 1.2112(8) 1.5410(7) 0.5802(5)
H5B H 1.243163 1.627256 0.60049
C10B C 1.1752(8) 1.4383(8) 0.6401(4)
H6B H 1.185132 1.45794 0.699071
N1C N 1.3426(6) 0.8744(6) 0.6138(3)
N2C N 1.1781(5) 0.9332(5) 0.5164(3)
C1C C 1.2897(6) 0.8872(6) 0.4710(4)
C2C C 1.3137(7) 0.8728(7) 0.3831(4)
H1C H 1.245684 0.895643 0.34211
C3C C 1.1139(7) 0.9593(7) 0.6615(3)
C4C C 1.5200(6) 0.7986(6) 0.5062(5)
H2C H 1.587415 0.770961 0.54647
C5C C 1.1184(7) 0.9596(7) 0.7500(4)
H3C H 1.199053 0.933405 0.779996
C6C C 1.3919(7) 0.8522(6) 0.5311(4)
C7C C 1.2192(6) 0.9223(6) 0.6004(4)
C9C C 1.5410(7) 0.7888(8) 0.4198(5)
H5C H 1.627256 0.756837 0.39951
C10C C 1.4383(8) 0.8248(8) 0.3599(4)
H6C H 1.45794 0.814868 0.300929
O1 O 0.4037(18) 0.0963(18) 0.750
loop_
_geom_bond_atom_site_label_1
_geom_bond_atom_site_label_2
_geom_bond_site_symmetry_1
_geom_bond_site_symmetry_2
Si1 N2 1_555 1_555
N1 C6 1_555 1_555
N2 C1 1_555 1_555
N3 Si1 1_555 1_555
C1 C2 1_555 1_555
C2 H1 1_555 1_555
C3 N3 1_555 1_555
C4 H2 1_555 1_555
C5 C3 1_555 1_555
H3 C5 1_555 1_555
C6 C1 1_555 1_555
C7 N1 1_555 1_555
C8 C5 1_555 1_555
H4 C8 1_555 1_555
C9 C4 1_555 1_555
H5 C9 1_555 1_555
C10 C2 1_555 1_555
H6 C10 1_555 1_555
N1A C6A 1_555 1_555
N2A Si1 1_555 1_555
N3A Si1 1_555 1_555
C1A N2A 1_555 1_555
C2A C1A 1_555 1_555
H1A C2A 1_555 1_555
C3A N3A 1_555 1_555
C4A H2A 1_555 1_555
C5A C3A 1_555 1_555
H3A C5A 1_555 1_555
C6A C1A 1_555 1_555
C7A N1A 1_555 1_555
C8A C5A 1_555 1_555
H4A C8A 1_555 1_555
C9A C4A 1_555 1_555
H5A C9A 1_555 1_555
C10A C2A 1_555 1_555
H6A C10A 1_555 1_555
N1B C6B 1_555 1_555
N2B Si1 1_555 1_555
C1B N2B 1_555 1_555
C2B C1B 1_555 1_555
H1B C2B 1_555 1_555
C3B N3 1_555 1_555
C4B H2B 1_555 1_555
C5B C8 1_555 1_555
H3B C5B 1_555 1_555
C6B C1B 1_555 1_555
C7B N1B 1_555 1_555
C9B C4B 1_555 1_555
H5B C9B 1_555 1_555
C10B C2B 1_555 1_555
H6B C10B 1_555 1_555
N1C C6C 1_555 1_555
N2C Si1 1_555 1_555
C1C N2C 1_555 1_555
C2C C1C 1_555 1_555
H1C C2C 1_555 1_555
C3C N3A 1_555 1_555
C4C H2C 1_555 1_555
C5C C8A 1_555 1_555
H3C C5C 1_555 1_555
C6C C1C 1_555 1_555
C7C N1C 1_555 1_555
C9C C4C 1_555 1_555
H5C C9C 1_555 1_555
C10C C2C 1_555 1_555
H6C C10C 1_555 1_555
N2 C7 1_555 1_555
C3 C7 1_555 1_555
C4 C6 1_555 1_555
C9 C10 1_555 1_555
N2A C7A 1_555 1_555
C3A C7A 1_555 1_555
C4A C6A 1_555 1_555
C9A C10A 1_555 1_555
N2B C7B 1_555 1_555
C3B C5B 1_555 1_555
C3B C7B 1_555 1_555
C4B C6B 1_555 1_555
C9B C10B 1_555 1_555
N2C C7C 1_555 1_555
C3C C5C 1_555 1_555
C3C C7C 1_555 1_555
C4C C6C 1_555 1_555
C9C C10C 1_555 1_555

#END
