
#######################################################################
#
#                 Cambridge Crystallographic Data Centre
#                                CCDC 
#
#######################################################################
#
# If this CIF has been generated from an entry in the Cambridge 
# Structural Database, then it will include bibliographic, chemical, 
# crystal, experimental, refinement or atomic coordinate data resulting 
# from the CCDC's data processing and validation procedures.
#
#######################################################################

data_DIRRIF
_chemical_formula_moiety         'C12 H19 N1 O2'
_chemical_name_systematic        2-(6'-Carbamoylhexyl)-cyclopent-2-en-1-one
_symmetry_cell_setting           monoclinic
_symmetry_space_group_name_H-M   'P 21/c'
_symmetry_Int_Tables_number      14
_space_group_name_Hall           '-P 2ybc'
loop_
_symmetry_equiv_pos_site_id
_symmetry_equiv_pos_as_xyz
1 x,y,z
2 -x,1/2+y,1/2-z
3 -x,-y,-z
4 x,1/2-y,1/2+z
_cell_length_a                   20.511(4)
_cell_length_b                   5.888(1)
_cell_length_c                   9.973(2)
_cell_angle_alpha                90
_cell_angle_beta                 95.90(2)
_cell_angle_gamma                90
_cell_volume                     1198.05
_chemical_melting_point          81.5-82.5deg.C
_cell_formula_units_Z            4
loop_
_atom_site_label
_atom_site_type_symbol
_atom_site_fract_x
_atom_site_fract_y
_atom_site_fract_z
C1 C 0.6162(1) 1.5644(5) 0.0236(3)
C2 C 0.6395(1) 1.3541(5) -0.0366(3)
C3 C 0.6042(2) 1.3223(6) -0.1559(3)
C4 C 0.5535(2) 1.5012(6) -0.1910(4)
C5 C 0.5639(2) 1.6710(6) -0.0755(4)
O1 O 0.6350(1) 1.6383(4) 0.1352(2)
C6 C 0.6944(2) 1.2162(7) 0.0317(3)
C7 C 0.7285(2) 1.0660(6) -0.0628(3)
C8 C 0.7821(2) 0.9186(6) 0.0062(3)
C9 C 0.8121(2) 0.7611(6) -0.0909(3)
C10 C 0.8640(2) 0.6017(6) -0.0253(3)
C11 C 0.8923(2) 0.4509(6) -0.1269(3)
C12 C 0.9378(1) 0.2685(5) -0.0694(3)
N1 N 0.9632(1) 0.1349(5) -0.1573(3)
O2 O 0.9510(1) 0.2404(4) 0.0540(2)
loop_
_geom_bond_atom_site_label_1
_geom_bond_atom_site_label_2
_geom_bond_site_symmetry_1
_geom_bond_site_symmetry_2
C1 C2 1_555 1_555
C2 C3 1_555 1_555
C3 C4 1_555 1_555
C4 C5 1_555 1_555
C5 C1 1_555 1_555
O1 C1 1_555 1_555
C6 C2 1_555 1_555
C7 C6 1_555 1_555
C8 C7 1_555 1_555
C9 C8 1_555 1_555
C10 C9 1_555 1_555
C11 C10 1_555 1_555
C12 C11 1_555 1_555
N1 C12 1_555 1_555
O2 C12 1_555 1_555

#END
