
#######################################################################
#
#                 Cambridge Crystallographic Data Centre
#                                CCDC 
#
#######################################################################
#
# If this CIF has been generated from an entry in the Cambridge 
# Structural Database, then it will include bibliographic, chemical, 
# crystal, experimental, refinement or atomic coordinate data resulting 
# from the CCDC's data processing and validation procedures.
#
#######################################################################

data_DIRSEE
_chemical_formula_moiety         'C18 H19 N1 O5'
_chemical_name_systematic        
16,16-Dimethoxy-5,7-dioxa-12-azapentacyclo[10.6.1.0^2,10^.0^4,8^.0^13,18^]nonadeca-2(10),3,8,17-tetraen-15-one
_symmetry_cell_setting           monoclinic
_symmetry_space_group_name_H-M   'C 2'
_symmetry_Int_Tables_number      5
_space_group_name_Hall           'C 2y'
loop_
_symmetry_equiv_pos_site_id
_symmetry_equiv_pos_as_xyz
1 x,y,z
2 -x,y,-z
3 1/2+x,1/2+y,z
4 1/2-x,1/2+y,-z
_cell_length_a                   16.3096(7)
_cell_length_b                   11.1853(6)
_cell_length_c                   8.9459(4)
_cell_angle_alpha                90
_cell_angle_beta                 99.301(5)
_cell_angle_gamma                90
_cell_volume                     1610.52
_exptl_crystal_colour            'light yellow'
_exptl_crystal_description       block
_cell_formula_units_Z            4
loop_
_atom_site_label
_atom_site_type_symbol
_atom_site_fract_x
_atom_site_fract_y
_atom_site_fract_z
O1 O -0.99753(11) -0.5683(4) -0.2886(2)
O2 O -0.92031(11) -0.7204(2) -0.09264(19)
O3 O -0.82487(9) -0.56352(18) -0.04179(16)
O4 O -0.38431(11) -0.5330(2) -0.1647(2)
O5 O -0.41494(11) -0.7327(2) -0.1563(2)
C1 C -0.76484(12) -0.6390(2) -0.3201(2)
C2 C -0.80382(13) -0.7030(2) -0.2294(2)
H1 H -0.7918 -0.7837 -0.2131
C3 C -0.86836(13) -0.6419(3) -0.1527(2)
C4 C -0.92296(14) -0.5647(4) -0.2741(3)
C5 C -0.87927(14) -0.4901(3) -0.3744(3)
H2 H -0.8912 -0.4066 -0.3580
H3 H -0.9013 -0.5089 -0.4791
C6 C -0.78442(13) -0.5077(2) -0.3490(2)
H4 H -0.7584 -0.4598 -0.2624
N1 N -0.74825(13) -0.47595(18) -0.4862(2)
C7 C -0.74019(15) -0.5927(2) -0.5596(2)
H5 H -0.7020 -0.5878 -0.6320
H6 H -0.7936 -0.6209 -0.6109
C8 C -0.70601(14) -0.6742(2) -0.4262(2)
H7 H -0.7094 -0.7593 -0.4527
C9 C -0.66427(15) -0.4254(2) -0.4434(3)
H8 H -0.6674 -0.3582 -0.3760
H9 H -0.6458 -0.3949 -0.5339
C10 C -0.59943(13) -0.5135(2) -0.3660(2)
C11 C -0.52112(14) -0.4700(2) -0.3023(3)
H10 H -0.5078 -0.3893 -0.3066
C12 C -0.46499(14) -0.5519(2) -0.2333(2)
C13 C -0.36198(18) -0.6419(4) -0.0849(4)
H11 H -0.296(2) -0.666(4) -0.089(4)
H12 H -0.3762(17) -0.635(3) 0.028(3)
C14 C -0.48405(15) -0.6713(2) -0.2274(3)
C15 C -0.55978(14) -0.7164(2) -0.2912(2)
H13 H -0.5715 -0.7976 -0.2883
C16 C -0.61859(13) -0.6344(2) -0.3608(2)
C17 C -0.8817(2) -0.7867(4) 0.0347(3)
H14 H -0.9216 -0.8395 0.0678
H15 H -0.8606 -0.7328 0.1153
H16 H -0.8367 -0.8327 0.0073
C18 C -0.8767(2) -0.4943(3) 0.0404(3)
H17 H -0.9082 -0.4380 -0.0268
H18 H -0.8427 -0.4521 0.1211
H19 H -0.9140 -0.5465 0.0819
loop_
_geom_bond_atom_site_label_1
_geom_bond_atom_site_label_2
_geom_bond_site_symmetry_1
_geom_bond_site_symmetry_2
O1 C4 1_555 1_555
O2 C3 1_555 1_555
O3 C3 1_555 1_555
O4 C12 1_555 1_555
O5 C13 1_555 1_555
C1 C2 1_555 1_555
C2 H1 1_555 1_555
C3 C2 1_555 1_555
C4 C3 1_555 1_555
C5 C4 1_555 1_555
H2 C5 1_555 1_555
H3 C5 1_555 1_555
C6 C1 1_555 1_555
H4 C6 1_555 1_555
N1 C6 1_555 1_555
C7 N1 1_555 1_555
H5 C7 1_555 1_555
H6 C7 1_555 1_555
C8 C1 1_555 1_555
H7 C8 1_555 1_555
C9 N1 1_555 1_555
H8 C9 1_555 1_555
H9 C9 1_555 1_555
C10 C9 1_555 1_555
C11 C10 1_555 1_555
H10 C11 1_555 1_555
C12 C11 1_555 1_555
C13 O4 1_555 1_555
H11 C13 1_555 1_555
H12 C13 1_555 1_555
C14 O5 1_555 1_555
C15 C14 1_555 1_555
H13 C15 1_555 1_555
C16 C8 1_555 1_555
C17 O2 1_555 1_555
H14 C17 1_555 1_555
H15 C17 1_555 1_555
H16 C17 1_555 1_555
C18 O3 1_555 1_555
H17 C18 1_555 1_555
H18 C18 1_555 1_555
H19 C18 1_555 1_555
C5 C6 1_555 1_555
C7 C8 1_555 1_555
C10 C16 1_555 1_555
C12 C14 1_555 1_555
C15 C16 1_555 1_555

#END
