
#######################################################################
#
#                 Cambridge Crystallographic Data Centre
#                                CCDC 
#
#######################################################################
#
# If this CIF has been generated from an entry in the Cambridge 
# Structural Database, then it will include bibliographic, chemical, 
# crystal, experimental, refinement or atomic coordinate data resulting 
# from the CCDC's data processing and validation procedures.
#
#######################################################################

data_DIRSII
_chemical_formula_moiety         'C18 H21 N1 O5'
_chemical_name_systematic        2-Methoxy-O^2^-methylpancracine
_symmetry_cell_setting           orthorhombic
_symmetry_space_group_name_H-M   'P 21 21 21'
_symmetry_Int_Tables_number      19
_space_group_name_Hall           'P 2ac 2ab'
loop_
_symmetry_equiv_pos_site_id
_symmetry_equiv_pos_as_xyz
1 x,y,z
2 1/2-x,-y,1/2+z
3 1/2+x,1/2-y,-z
4 -x,1/2+y,1/2-z
_cell_length_a                   10.0884(3)
_cell_length_b                   10.4866(3)
_cell_length_c                   15.4775(5)
_cell_angle_alpha                90
_cell_angle_beta                 90
_cell_angle_gamma                90
_cell_volume                     1637.41
_exptl_crystal_colour            'light colorless'
_exptl_crystal_description       block
_cell_formula_units_Z            4
loop_
_atom_site_label
_atom_site_type_symbol
_atom_site_fract_x
_atom_site_fract_y
_atom_site_fract_z
O1 O -0.98744(18) -0.64296(18) -0.47196(13)
O2 O -0.7827(2) -0.6932(2) -0.53428(13)
O3 O -0.9940(3) -0.8971(2) -0.47398(19)
H1 H -0.9750 -0.9728 -0.4785
O4 O -0.22250(18) -0.6227(2) -0.18040(15)
O5 O -0.24401(17) -0.7990(2) -0.09051(14)
N1 N -0.83885(19) -0.7673(2) -0.18509(14)
C1 C -0.7592(2) -0.66778(19) -0.31347(15)
C2 C -0.7804(2) -0.6253(2) -0.39297(16)
H2 H -0.7437 -0.5476 -0.4093
C3 C -0.8619(2) -0.6982(2) -0.45770(16)
C4 C -0.8941(3) -0.8336(2) -0.42694(19)
H3 H -0.8128 -0.8843 -0.4324
C5 C -0.9317(2) -0.8322(2) -0.33165(19)
H4 H -1.0045 -0.7734 -0.3223
H5 H -0.9601 -0.9165 -0.3139
C6 C -0.8133(2) -0.7913(2) -0.27895(16)
H6 H -0.7445 -0.8569 -0.2841
C7 C -0.8260(3) -0.6266(3) -0.17553(19)
H7 H -0.8064 -0.6032 -0.1163
H8 H -0.9061 -0.5833 -0.1939
C8 C -0.7094(2) -0.5957(2) -0.23542(16)
H9 H -0.6995 -0.5041 -0.2462
C9 C -0.7341(2) -0.8246(3) -0.13165(16)
H10 H -0.7293 -0.9152 -0.1440
H11 H -0.7575 -0.8149 -0.0712
C10 C -0.5979(2) -0.7652(2) -0.14680(14)
C11 C -0.5856(2) -0.6559(2) -0.19729(13)
C12 C -0.4609(2) -0.6010(2) -0.21243(15)
H12 H -0.4516 -0.5291 -0.2470
C13 C -0.3540(2) -0.6573(2) -0.17449(15)
C14 C -0.1543(3) -0.7052(3) -0.1223(2)
H13 H -0.0812 -0.7464 -0.1519
H14 H -0.1186 -0.6562 -0.0745
C15 C -0.3668(2) -0.7636(2) -0.12207(15)
C16 C -0.4858(2) -0.8210(2) -0.10740(15)
H15 H -0.4928 -0.8935 -0.0731
C17 C -0.9925(3) -0.5087(3) -0.4860(3)
H16 H -0.9176 -0.4829 -0.5200
H17 H -0.9907 -0.4653 -0.4314
H18 H -1.0728 -0.4874 -0.5161
C18 C -0.8367(5) -0.7510(5) -0.6108(2)
H19 H -0.7868 -0.7238 -0.6603
H20 H -0.9276 -0.7257 -0.6174
H21 H -0.8318 -0.8421 -0.6058
loop_
_geom_bond_atom_site_label_1
_geom_bond_atom_site_label_2
_geom_bond_site_symmetry_1
_geom_bond_site_symmetry_2
O1 C3 1_555 1_555
O2 C3 1_555 1_555
O3 H1 1_555 1_555
O4 C13 1_555 1_555
O5 C14 1_555 1_555
N1 C6 1_555 1_555
C1 C2 1_555 1_555
C2 H2 1_555 1_555
C3 C2 1_555 1_555
C4 O3 1_555 1_555
H3 C4 1_555 1_555
C5 C4 1_555 1_555
H4 C5 1_555 1_555
H5 C5 1_555 1_555
C6 C1 1_555 1_555
H6 C6 1_555 1_555
C7 N1 1_555 1_555
H7 C7 1_555 1_555
H8 C7 1_555 1_555
C8 C1 1_555 1_555
H9 C8 1_555 1_555
C9 N1 1_555 1_555
H10 C9 1_555 1_555
H11 C9 1_555 1_555
C10 C9 1_555 1_555
C11 C8 1_555 1_555
C12 C11 1_555 1_555
H12 C12 1_555 1_555
C13 C12 1_555 1_555
C14 O4 1_555 1_555
H13 C14 1_555 1_555
H14 C14 1_555 1_555
C15 O5 1_555 1_555
C16 C10 1_555 1_555
H15 C16 1_555 1_555
C17 O1 1_555 1_555
H16 C17 1_555 1_555
H17 C17 1_555 1_555
H18 C17 1_555 1_555
C18 O2 1_555 1_555
H19 C18 1_555 1_555
H20 C18 1_555 1_555
H21 C18 1_555 1_555
C3 C4 1_555 1_555
C5 C6 1_555 1_555
C7 C8 1_555 1_555
C10 C11 1_555 1_555
C13 C15 1_555 1_555
C15 C16 1_555 1_555

#END
