
#######################################################################
#
#                 Cambridge Crystallographic Data Centre
#                                CCDC 
#
#######################################################################
#
# If this CIF has been generated from an entry in the Cambridge 
# Structural Database, then it will include bibliographic, chemical, 
# crystal, experimental, refinement or atomic coordinate data resulting 
# from the CCDC's data processing and validation procedures.
#
#######################################################################

data_DIRVOR
_chemical_formula_moiety         
'C23 H16 Br4 F6 N3 O3 S1 1-,0.43(C6 H14),0.57(C1 H2 Cl2),C16 H36 N1 1+'
_chemical_name_systematic        
'tetra-n-butylammonium 2-((2-(((3,5-bis(trifluoromethyl)phenyl)carbamothioyl)amino)cyclohexyl)carbamoyl)-3,4,5,6-tetrabromobenzoate dichloromethane n-hexane solvate'
_symmetry_cell_setting           monoclinic
_symmetry_space_group_name_H-M   'P 21'
_symmetry_Int_Tables_number      4
_space_group_name_Hall           'P 2yb'
loop_
_symmetry_equiv_pos_site_id
_symmetry_equiv_pos_as_xyz
1 x,y,z
2 -x,1/2+y,-z
_cell_length_a                   12.867(3)
_cell_length_b                   31.092(9)
_cell_length_c                   13.661(4)
_cell_angle_alpha                90
_cell_angle_beta                 109.908(6)
_cell_angle_gamma                90
_cell_volume                     5138.63
_exptl_crystal_colour            colorless
_exptl_crystal_description       rod
_cell_formula_units_Z            4
loop_
_atom_site_label
_atom_site_type_symbol
_atom_site_fract_x
_atom_site_fract_y
_atom_site_fract_z
N1 N 0.3807(11) 0.9820(4) 0.8762(11)
C1 C 0.3182(18) 0.8720(9) 0.5790(18)
H1 H 0.3169 0.8454 0.6172
H2 H 0.3446 0.8657 0.5212
H3 H 0.2434 0.8840 0.5517
C2 C 0.3953(17) 0.9043(7) 0.6521(15)
H4 H 0.4073 0.9286 0.6105
H5 H 0.4678 0.8904 0.6868
C3 C 0.3499(15) 0.9225(7) 0.7387(14)
H6 H 0.2742 0.9338 0.7047
H7 H 0.3457 0.8988 0.7855
C4 C 0.4220(13) 0.9578(5) 0.8024(13)
H8 H 0.4942 0.9449 0.8430
H9 H 0.4356 0.9788 0.7536
C5 C 0.4638(15) 1.0168(6) 0.9191(14)
H10 H 0.4620 1.0363 0.8614
H11 H 0.5381 1.0034 0.9448
C6 C 0.4493(16) 1.0442(7) 1.0083(16)
H12 H 0.3712 1.0535 0.9888
H13 H 0.4670 1.0264 1.0720
C7 C 0.5218(19) 1.0827(7) 1.0306(17)
H14 H 0.5992 1.0724 1.0533
H15 H 0.5079 1.0982 0.9641
C8 C 0.514(3) 1.1106(12) 1.099(2)
H16 H 0.4971 1.0956 1.1549
H17 H 0.4557 1.1313 1.0656
H18 H 0.5850 1.1258 1.1288
C9 C 0.1281(15) 1.0709(5) 0.5781(11)
H19 H 0.1808 1.0948 0.5990
H20 H 0.0527 1.0823 0.5512
H21 H 0.1430 1.0540 0.5237
C10 C 0.1408(12) 1.0418(5) 0.6738(11)
H22 H 0.1133 1.0572 0.7235
H23 H 0.0957 1.0155 0.6509
C11 C 0.2595(13) 1.0295(5) 0.7269(12)
H24 H 0.2870 1.0135 0.6781
H25 H 0.3052 1.0557 0.7496
C12 C 0.2676(12) 1.0024(5) 0.8184(12)
H26 H 0.2126 0.9789 0.7951
H27 H 0.2463 1.0201 0.8687
C13 C 0.3650(14) 0.9539(6) 0.9590(13)
H28 H 0.3056 0.9329 0.9260
H29 H 0.3404 0.9719 1.0068
C14 C 0.4721(14) 0.9288(6) 1.0244(13)
H30 H 0.4868 0.9051 0.9825
H31 H 0.5366 0.9484 1.0451
C15 C 0.4523(16) 0.9104(7) 1.1230(14)
H32 H 0.3777 0.8973 1.1015
H33 H 0.5067 0.8872 1.1527
C16 C 0.461(2) 0.9422(9) 1.2044(17)
H34 H 0.5287 0.9592 1.2170
H35 H 0.4640 0.9275 1.2686
H36 H 0.3967 0.9613 1.1819
N2 N 0.9732(11) 0.7188(4) 0.6564(8)
C18 C 0.5564(13) 0.6947(7) 0.5313(14)
H40 H 0.5687 0.6741 0.5884
H41 H 0.4958 0.6845 0.4702
H42 H 0.5371 0.7228 0.5527
C19 C 0.6638(14) 0.6989(6) 0.5033(12)
H43 H 0.6755 0.6719 0.4700
H44 H 0.6541 0.7224 0.4521
C20 C 0.7652(14) 0.7080(5) 0.5973(10)
H45 H 0.7550 0.7354 0.6296
H46 H 0.7746 0.6848 0.6493
C21 C 0.8651(13) 0.7107(5) 0.5678(11)
H47 H 0.8544 0.7341 0.5161
H48 H 0.8722 0.6834 0.5330
C22 C 1.0661(13) 0.7225(6) 0.6112(10)
H49 H 1.0591 0.6982 0.5625
H50 H 1.0544 0.7493 0.5697
C23 C 1.1788(14) 0.7229(6) 0.6845(12)
H51 H 1.1963 0.6943 0.7178
H52 H 1.1844 0.7442 0.7398
C24 C 1.2640(16) 0.7340(7) 0.6321(13)
H53 H 1.2550 0.7136 0.5741
H54 H 1.2483 0.7632 0.6020
C25 C 1.3799(18) 0.7324(9) 0.7029(17)
H55 H 1.3860 0.7466 0.7686
H56 H 1.4272 0.7472 0.6706
H57 H 1.4034 0.7024 0.7165
C26 C 1.0513(17) 0.5606(6) 0.7296(14)
H58 H 0.9756 0.5525 0.6876
H59 H 1.0807 0.5399 0.7865
H60 H 1.0977 0.5605 0.6856
C27 C 1.0512(14) 0.6042(6) 0.7734(12)
H61 H 1.1279 0.6123 0.8152
H62 H 1.0071 0.6038 0.8203
C28 C 1.0035(14) 0.6378(6) 0.6886(11)
H63 H 1.0505 0.6395 0.6445
H64 H 0.9287 0.6286 0.6439
C29 C 0.9962(14) 0.6810(5) 0.7317(10)
H65 H 1.0668 0.6867 0.7888
H66 H 0.9372 0.6802 0.7630
C30 C 0.9677(15) 0.7602(6) 0.7173(11)
H67 H 0.9190 0.7549 0.7587
H68 H 1.0425 0.7668 0.7664
C31 C 0.9240(18) 0.7996(7) 0.6461(14)
H69 H 0.9451 0.7964 0.5832
H70 H 0.8423 0.7995 0.6231
C32 C 0.9656(19) 0.8427(7) 0.6958(15)
H71 H 0.9132 0.8654 0.6581
H72 H 0.9667 0.8423 0.7686
C33 C 1.072(2) 0.8533(10) 0.6957(18)
H73 H 1.0960 0.8319 0.6548
H74 H 1.1244 0.8534 0.7673
H75 H 1.0708 0.8818 0.6648
Br1 Br -0.22882(12) 0.63296(5) 0.84128(10)
Br2 Br -0.31407(14) 0.58675(6) 0.60920(11)
Br3 Br -0.2827(2) 0.48316(7) 0.58975(13)
Br4 Br -0.1321(2) 0.42860(5) 0.79858(14)
S1 S 0.2450(3) 0.48038(12) 0.9367(3)
F1 F 0.0020(11) 0.4419(5) 0.4525(8)
F2 F 0.1021(12) 0.4955(4) 0.5377(9)
F3 F -0.0328(11) 0.4721(5) 0.5802(9)
F4 F 0.3186(14) 0.3428(6) 0.5299(12)
F5 F 0.2634(16) 0.2974(7) 0.6091(13)
F6 F 0.4067(13) 0.3261(6) 0.6928(12)
O1 O -0.1296(9) 0.4626(3) 1.0460(7)
O2 O -0.0044(8) 0.5787(3) 1.0592(6)
O3 O -0.1793(9) 0.5788(3) 1.0611(7)
N3 N 0.2065(10) 0.4190(4) 1.0569(9)
N4 N 0.2025(10) 0.3962(4) 0.9020(9)
N5 N 0.0366(11) 0.4820(4) 1.0385(9)
C34 C 0.2182(13) 0.4492(5) 1.1412(11)
H76 H 0.2599 0.4751 1.1321
C35 C 0.2822(14) 0.4268(5) 1.2457(11)
H77 H 0.2419 0.4008 1.2544
H78 H 0.3564 0.4180 1.2463
C36 C 0.2933(16) 0.4587(6) 1.3348(12)
H79 H 0.3362 0.4451 1.4020
H80 H 0.3343 0.4845 1.3256
C37 C 0.1813(17) 0.4722(7) 1.3374(12)
H81 H 0.1903 0.4931 1.3945
H82 H 0.1407 0.4469 1.3496
C38 C 0.1138(16) 0.4939(6) 1.2274(11)
H83 H 0.0403 0.5032 1.2276
H84 H 0.1539 0.5196 1.2168
C39 C 0.0995(14) 0.4630(5) 1.1404(11)
H85 H 0.0594 0.4370 1.1519
C40 C 0.2148(11) 0.4302(5) 0.9665(11)
C41 C 0.1992(14) 0.4003(6) 0.7930(12)
C42 C 0.1286(15) 0.4284(6) 0.7232(13)
H86 H 0.0833 0.4475 0.7453
C43 C 0.1244(17) 0.4285(7) 0.6211(13)
C44 C 0.1848(16) 0.3989(7) 0.5899(14)
H87 H 0.1810 0.3986 0.5192
C45 C 0.2483(17) 0.3708(8) 0.6556(14)
C46 C 0.2552(15) 0.3677(7) 0.7583(14)
H88 H 0.2947 0.3453 0.8026
C47 C 0.052(2) 0.4593(8) 0.5465(16)
C48 C 0.319(2) 0.3376(11) 0.619(2)
C49 C -0.0703(14) 0.4821(5) 1.0036(11)
C50 C -0.1254(13) 0.5071(5) 0.9057(11)
C51 C -0.1466(11) 0.5501(4) 0.9158(10)
C52 C -0.2048(12) 0.5727(5) 0.8293(10)
C53 C -0.2469(12) 0.5536(5) 0.7269(10)
C54 C -0.2237(14) 0.5107(5) 0.7185(11)
C55 C -0.1644(13) 0.4867(5) 0.8068(11)
C56 C -0.1073(14) 0.5711(4) 1.0213(10)
Br5 Br 0.13621(12) 0.86837(5) -0.02899(12)
Br6 Br 0.33329(13) 0.80142(5) -0.04126(13)
Br7 Br 0.30262(13) 0.69715(5) -0.01217(13)
Br8 Br 0.07311(12) 0.66173(4) 0.02122(10)
S2 S 0.0353(3) 0.68864(12) 0.3576(3)
F7 F 0.4896(13) 0.5469(5) 0.3206(12)
F8 F 0.4114(14) 0.5940(7) 0.1981(12)
F9 F 0.5204(15) 0.6081(7) 0.3323(14)
F10 F 0.4224(11) 0.6131(6) 0.6534(9)
F11 F 0.3365(14) 0.5557(6) 0.6387(10)
F12 F 0.2599(10) 0.6118(5) 0.6430(7)
O4 O -0.1747(8) 0.7279(3) -0.0879(6)
O5 O -0.0965(11) 0.8243(4) 0.0644(9)
O6 O -0.1209(8) 0.8402(3) -0.0984(8)
N6 N -0.1174(10) 0.6474(4) 0.2055(8)
N7 N 0.0525(10) 0.6151(4) 0.2568(8)
N8 N -0.1120(10) 0.7230(4) 0.0895(8)
C57 C -0.1978(12) 0.6809(5) 0.1945(10)
H89 H -0.1686 0.7005 0.2558
C58 C -0.3070(13) 0.6636(6) 0.1947(11)
H90 H -0.3360 0.6433 0.1359
H91 H -0.2947 0.6473 0.2599
C59 C -0.3914(14) 0.6973(6) 0.1859(12)
H92 H -0.3686 0.7151 0.2499
H93 H -0.4630 0.6836 0.1789
C60 C -0.4051(14) 0.7263(6) 0.0907(13)
H94 H -0.4415 0.7096 0.0264
H95 H -0.4539 0.7507 0.0919
C61 C -0.2987(12) 0.7431(5) 0.0881(11)
H96 H -0.2680 0.7636 0.1463
H97 H -0.3117 0.7590 0.0222
C62 C -0.2155(12) 0.7078(5) 0.0967(10)
H98 H -0.2488 0.6882 0.0360
C63 C -0.0154(11) 0.6491(4) 0.2703(9)
C64 C 0.1631(12) 0.6088(5) 0.3215(10)
C65 C 0.2406(13) 0.6007(5) 0.2777(11)
H99 H 0.2219 0.6030 0.2044
C66 C 0.3471(14) 0.5891(6) 0.3385(12)
C67 C 0.3758(13) 0.5887(5) 0.4437(11)
H100 H 0.4505 0.5834 0.4854
C68 C 0.3005(14) 0.5956(6) 0.4896(11)
C69 C 0.1881(12) 0.6057(5) 0.4290(10)
H101 H 0.1335 0.6101 0.4605
C70 C 0.4329(19) 0.5833(9) 0.2870(18)
C71 C 0.3253(17) 0.5950(8) 0.6054(14)
C72 C -0.1018(11) 0.7322(4) -0.0039(10)
C73 C 0.0085(12) 0.7485(5) 0.0019(9)
C74 C 0.0225(12) 0.7935(4) -0.0123(10)
C75 C 0.1200(11) 0.8088(5) -0.0199(9)
C76 C 0.2036(12) 0.7804(5) -0.0245(10)
C77 C 0.1896(12) 0.7366(5) -0.0078(11)
C78 C 0.0938(12) 0.7209(5) 0.0059(9)
C79 C -0.0745(13) 0.8226(5) -0.0159(11)
Cl1 Cl 0.6044(4) 0.81243(15) 0.6764(3)
Cl2 Cl 0.5605(4) 0.83085(17) 0.8691(4)
C80 C 0.6369(13) 0.7996(6) 0.8088(12)
H102 H 0.7169 0.8045 0.8454
H103 H 0.6215 0.7688 0.8154
C81 C 0.3188(19) 0.7128(7) 0.2748(17)
H104 H 0.3763 0.6915 0.2790
H105 H 0.2570 0.7090 0.2094
H106 H 0.2925 0.7090 0.3337
C82 C 0.3665(19) 0.7578(7) 0.2784(18)
H107 H 0.4299 0.7617 0.3437
H108 H 0.3930 0.7620 0.2190
C83 C 0.277(2) 0.7907(10) 0.273(2)
H109 H 0.2233 0.7895 0.2012
H110 H 0.3127 0.8193 0.2810
C84 C 0.209(3) 0.7902(13) 0.346(2)
H111 H 0.2590 0.7904 0.4194
H112 H 0.1637 0.7637 0.3344
C85 C 0.133(3) 0.8302(14) 0.324(3)
H113 H 0.1774 0.8567 0.3438
H114 H 0.0876 0.8317 0.2495
C86 C 0.058(3) 0.8255(16) 0.390(3)
H115 H 0.0009 0.8477 0.3697
H116 H 0.1026 0.8287 0.4636
H117 H 0.0236 0.7970 0.3781
C17? C 0.636(5) 1.082(3) 1.098(5)
H37? H 0.6679 1.1105 1.1030
H38? H 0.6775 1.0619 1.0684
H39? H 0.6408 1.0715 1.1670
Cl3? Cl -0.101(3) 0.7912(11) 0.357(2)
Cl4? Cl 0.098(4) 0.812(3) 0.308(6)
C87? C 0.029(8) 0.816(6) 0.399(8)
H118? H 0.0757 0.8035 0.4658
H119? H 0.0194 0.8473 0.4120
loop_
_geom_bond_atom_site_label_1
_geom_bond_atom_site_label_2
_geom_bond_site_symmetry_1
_geom_bond_site_symmetry_2
N1 C4 1_555 1_555
C1 H1 1_555 1_555
H2 C1 1_555 1_555
H3 C1 1_555 1_555
C2 C1 1_555 1_555
H4 C2 1_555 1_555
H5 C2 1_555 1_555
C3 C2 1_555 1_555
H6 C3 1_555 1_555
H7 C3 1_555 1_555
C4 C3 1_555 1_555
H8 C4 1_555 1_555
H9 C4 1_555 1_555
C5 N1 1_555 1_555
H10 C5 1_555 1_555
H11 C5 1_555 1_555
C6 C5 1_555 1_555
H12 C6 1_555 1_555
H13 C6 1_555 1_555
C7 C6 1_555 1_555
H14 C7 1_555 1_555
H15 C7 1_555 1_555
C8 C7 1_555 1_555
H16 C8 1_555 1_555
H17 C8 1_555 1_555
H18 C8 1_555 1_555
C9 H19 1_555 1_555
H20 C9 1_555 1_555
H21 C9 1_555 1_555
C10 C9 1_555 1_555
H22 C10 1_555 1_555
H23 C10 1_555 1_555
C11 C10 1_555 1_555
H24 C11 1_555 1_555
H25 C11 1_555 1_555
C12 N1 1_555 1_555
H26 C12 1_555 1_555
H27 C12 1_555 1_555
C13 N1 1_555 1_555
H28 C13 1_555 1_555
H29 C13 1_555 1_555
C14 C13 1_555 1_555
H30 C14 1_555 1_555
H31 C14 1_555 1_555
C15 C14 1_555 1_555
H32 C15 1_555 1_555
H33 C15 1_555 1_555
C16 C15 1_555 1_555
H34 C16 1_555 1_555
H35 C16 1_555 1_555
H36 C16 1_555 1_555
N2 C21 1_555 1_555
C18 H40 1_555 1_555
H41 C18 1_555 1_555
H42 C18 1_555 1_555
C19 C18 1_555 1_555
H43 C19 1_555 1_555
H44 C19 1_555 1_555
C20 C19 1_555 1_555
H45 C20 1_555 1_555
H46 C20 1_555 1_555
C21 C20 1_555 1_555
H47 C21 1_555 1_555
H48 C21 1_555 1_555
C22 N2 1_555 1_555
H49 C22 1_555 1_555
H50 C22 1_555 1_555
C23 C22 1_555 1_555
H51 C23 1_555 1_555
H52 C23 1_555 1_555
C24 C23 1_555 1_555
H53 C24 1_555 1_555
H54 C24 1_555 1_555
C25 C24 1_555 1_555
H55 C25 1_555 1_555
H56 C25 1_555 1_555
H57 C25 1_555 1_555
C26 H58 1_555 1_555
H59 C26 1_555 1_555
H60 C26 1_555 1_555
C27 C26 1_555 1_555
H61 C27 1_555 1_555
H62 C27 1_555 1_555
C28 C27 1_555 1_555
H63 C28 1_555 1_555
H64 C28 1_555 1_555
C29 N2 1_555 1_555
H65 C29 1_555 1_555
H66 C29 1_555 1_555
C30 N2 1_555 1_555
H67 C30 1_555 1_555
H68 C30 1_555 1_555
C31 C30 1_555 1_555
H69 C31 1_555 1_555
H70 C31 1_555 1_555
C32 C31 1_555 1_555
H71 C32 1_555 1_555
H72 C32 1_555 1_555
C33 C32 1_555 1_555
H73 C33 1_555 1_555
H74 C33 1_555 1_555
H75 C33 1_555 1_555
Br1 C52 1_555 1_555
Br2 C53 1_555 1_555
Br3 C54 1_555 1_555
Br4 C55 1_555 1_555
S1 C40 1_555 1_555
F1 C47 1_555 1_555
F2 C47 1_555 1_555
F3 C47 1_555 1_555
F4 C48 1_555 1_555
F5 C48 1_555 1_555
F6 C48 1_555 1_555
O1 C49 1_555 1_555
O2 C56 1_555 1_555
O3 C56 1_555 1_555
N3 C34 1_555 1_555
N4 C40 1_555 1_555
N5 C39 1_555 1_555
C34 H76 1_555 1_555
C35 C34 1_555 1_555
H77 C35 1_555 1_555
H78 C35 1_555 1_555
C36 C35 1_555 1_555
H79 C36 1_555 1_555
H80 C36 1_555 1_555
C37 C36 1_555 1_555
H81 C37 1_555 1_555
H82 C37 1_555 1_555
C38 C37 1_555 1_555
H83 C38 1_555 1_555
H84 C38 1_555 1_555
C39 C34 1_555 1_555
H85 C39 1_555 1_555
C40 N3 1_555 1_555
C41 N4 1_555 1_555
C42 C41 1_555 1_555
H86 C42 1_555 1_555
C43 C42 1_555 1_555
C44 C43 1_555 1_555
H87 C44 1_555 1_555
C45 C44 1_555 1_555
C46 C41 1_555 1_555
H88 C46 1_555 1_555
C47 C43 1_555 1_555
C48 C45 1_555 1_555
C49 N5 1_555 1_555
C50 C49 1_555 1_555
C51 C50 1_555 1_555
C52 C51 1_555 1_555
C53 C52 1_555 1_555
C54 C53 1_555 1_555
C55 C50 1_555 1_555
C56 C51 1_555 1_555
Br5 C75 1_555 1_555
Br6 C76 1_555 1_555
Br7 C77 1_555 1_555
Br8 C78 1_555 1_555
S2 C63 1_555 1_555
F7 C70 1_555 1_555
F8 C70 1_555 1_555
F9 C70 1_555 1_555
F10 C71 1_555 1_555
F11 C71 1_555 1_555
F12 C71 1_555 1_555
O4 C72 1_555 1_555
O5 C79 1_555 1_555
O6 C79 1_555 1_555
N6 C57 1_555 1_555
N7 C63 1_555 1_555
N8 C62 1_555 1_555
C57 H89 1_555 1_555
C58 C57 1_555 1_555
H90 C58 1_555 1_555
H91 C58 1_555 1_555
C59 C58 1_555 1_555
H92 C59 1_555 1_555
H93 C59 1_555 1_555
C60 C59 1_555 1_555
H94 C60 1_555 1_555
H95 C60 1_555 1_555
C61 C60 1_555 1_555
H96 C61 1_555 1_555
H97 C61 1_555 1_555
C62 C57 1_555 1_555
H98 C62 1_555 1_555
C63 N6 1_555 1_555
C64 N7 1_555 1_555
C65 C64 1_555 1_555
H99 C65 1_555 1_555
C66 C65 1_555 1_555
C67 C66 1_555 1_555
H100 C67 1_555 1_555
C68 C67 1_555 1_555
C69 C64 1_555 1_555
H101 C69 1_555 1_555
C70 C66 1_555 1_555
C71 C68 1_555 1_555
C72 N8 1_555 1_555
C73 C72 1_555 1_555
C74 C73 1_555 1_555
C75 C74 1_555 1_555
C76 C75 1_555 1_555
C77 C76 1_555 1_555
C78 C73 1_555 1_555
C79 C74 1_555 1_555
Cl1 C80 1_555 1_555
Cl2 C80 1_555 1_555
C80 H102 1_555 1_555
H103 C80 1_555 1_555
C81 H104 1_555 1_555
H105 C81 1_555 1_555
H106 C81 1_555 1_555
C82 C81 1_555 1_555
H107 C82 1_555 1_555
H108 C82 1_555 1_555
C83 C82 1_555 1_555
H109 C83 1_555 1_555
H110 C83 1_555 1_555
C84 C83 1_555 1_555
H111 C84 1_555 1_555
H112 C84 1_555 1_555
C85 C84 1_555 1_555
H113 C85 1_555 1_555
H114 C85 1_555 1_555
C86 C85 1_555 1_555
H115 C86 1_555 1_555
H116 C86 1_555 1_555
H117 C86 1_555 1_555
C11 C12 1_555 1_555
C28 C29 1_555 1_555
C38 C39 1_555 1_555
C45 C46 1_555 1_555
C54 C55 1_555 1_555
C61 C62 1_555 1_555
C68 C69 1_555 1_555
C77 C78 1_555 1_555

#END
