
#######################################################################
#
#                 Cambridge Crystallographic Data Centre
#                                CCDC 
#
#######################################################################
#
# If this CIF has been generated from an entry in the Cambridge 
# Structural Database, then it will include bibliographic, chemical, 
# crystal, experimental, refinement or atomic coordinate data resulting 
# from the CCDC's data processing and validation procedures.
#
#######################################################################

data_DIRXAG
_chemical_formula_moiety         'C1 H2 N5 O1 1-,2(H2 O1),Cs1 1+'
_chemical_name_systematic        'cesium 1-amino-1H-tetrazol-5-olate dihydrate'
_symmetry_cell_setting           monoclinic
_symmetry_space_group_name_H-M   'P 21/c'
_symmetry_Int_Tables_number      14
_space_group_name_Hall           '-P 2ybc'
loop_
_symmetry_equiv_pos_site_id
_symmetry_equiv_pos_as_xyz
1 x,y,z
2 -x,1/2+y,1/2-z
3 -x,-y,-z
4 x,1/2-y,1/2+z
_cell_length_a                   8.4652(7)
_cell_length_b                   6.4705(4)
_cell_length_c                   14.0956(11)
_cell_angle_alpha                90
_cell_angle_beta                 107.008(2)
_cell_angle_gamma                90
_cell_volume                     738.306
_exptl_crystal_colour            white
_exptl_crystal_description       block
_cell_formula_units_Z            4
loop_
_atom_site_label
_atom_site_type_symbol
_atom_site_fract_x
_atom_site_fract_y
_atom_site_fract_z
N1 N 0.0935(6) 0.2223(6) 0.6484(4)
N2 N 0.1848(5) 0.3764(8) 0.7018(3)
N3 N 0.0947(6) 0.5377(8) 0.6840(4)
N4 N -0.0590(5) 0.4945(7) 0.6195(4)
N5 N 0.1581(5) 0.0240(7) 0.6550(4)
H1 H 0.154852 -0.043906 0.710100
H2 H 0.113922 -0.052896 0.600430
O1 O -0.1727(5) 0.1846(6) 0.5412(3)
C1 C -0.0584(6) 0.2948(8) 0.5973(4)
Cs1 Cs 0.44160(4) -0.26919(6) 0.83127(3)
O2 O 0.2953(5) 0.2066(6) 0.4651(3)
H3 H 0.245609 0.093156 0.461269
H4 H 0.218939 0.286246 0.434619
O3 O 0.5451(5) 0.2001(7) 0.8841(3)
H5 H 0.460910 0.235986 0.900032
H6 H 0.634240 0.213436 0.929622
loop_
_geom_bond_atom_site_label_1
_geom_bond_atom_site_label_2
_geom_bond_site_symmetry_1
_geom_bond_site_symmetry_2
N1 N2 1_555 1_555
N2 N3 1_555 1_555
N3 N4 1_555 1_555
N4 C1 1_555 1_555
N5 N1 1_555 1_555
H1 N5 1_555 1_555
H2 N5 1_555 1_555
O1 C1 1_555 1_555
C1 N1 1_555 1_555
O2 H3 1_555 1_555
H4 O2 1_555 1_555
O3 H5 1_555 1_555
H6 O3 1_555 1_555

#END
