
#######################################################################
#
#                 Cambridge Crystallographic Data Centre
#                                CCDC 
#
#######################################################################
#
# If this CIF has been generated from an entry in the Cambridge 
# Structural Database, then it will include bibliographic, chemical, 
# crystal, experimental, refinement or atomic coordinate data resulting 
# from the CCDC's data processing and validation procedures.
#
#######################################################################

data_DISBAI
_chemical_formula_moiety         'C9 H19 Cl1 N1 O4 P1'
_chemical_name_systematic        
O-(1-Diethylaminomethyl-2-chloroethenyl)-O'-ethylphosphate
_symmetry_cell_setting           monoclinic
_symmetry_space_group_name_H-M   'P 21/c'
_symmetry_Int_Tables_number      14
_space_group_name_Hall           '-P 2ybc'
loop_
_symmetry_equiv_pos_site_id
_symmetry_equiv_pos_as_xyz
1 x,y,z
2 -x,1/2+y,1/2-z
3 -x,-y,-z
4 x,1/2-y,1/2+z
_cell_length_a                   8.40(2)
_cell_length_b                   7.581(3)
_cell_length_c                   21.043(7)
_cell_angle_alpha                90
_cell_angle_beta                 99.66(2)
_cell_angle_gamma                90
_cell_volume                     1321.03
_chemical_melting_point          140-141deg.C
_cell_formula_units_Z            4
loop_
_atom_site_label
_atom_site_type_symbol
_atom_site_fract_x
_atom_site_fract_y
_atom_site_fract_z
P1 P 0.35344(6) 0.13958(7) 0.83454(3)
Cl1 Cl 0.71656(7) 0.41794(8) 0.96419(3)
O1 O 0.2407(2) 0.2062(2) 0.7774(1)
O2 O 0.5120(2) 0.2691(2) 0.8483(1)
O3 O 0.4220(2) -0.0398(2) 0.8361(1)
O4 O 0.2650(2) 0.1787(2) 0.8944(1)
N1 N 0.2387(2) 0.5550(2) 0.7933(1)
C1 C 0.3367(3) 0.1169(4) 0.9579(1)
C2 C 0.2063(4) 0.0857(4) 0.9966(1)
C3 C 0.5091(2) 0.4500(2) 0.8526(1)
C4 C 0.6001(3) 0.5300(3) 0.9016(1)
C5 C 0.4204(2) 0.5569(3) 0.7979(1)
C6 C 0.1850(3) 0.6234(3) 0.8534(1)
C7 C 0.0182(3) 0.5572(3) 0.8596(1)
C8 C 0.1606(3) 0.6540(3) 0.7341(1)
C9 C 0.1572(3) 0.5472(3) 0.6730(1)
loop_
_geom_bond_atom_site_label_1
_geom_bond_atom_site_label_2
_geom_bond_site_symmetry_1
_geom_bond_site_symmetry_2
P1 O1 1_555 1_555
Cl1 C4 1_555 1_555
O2 P1 1_555 1_555
O3 P1 1_555 1_555
O4 P1 1_555 1_555
N1 C5 1_555 1_555
C1 O4 1_555 1_555
C2 C1 1_555 1_555
C3 O2 1_555 1_555
C4 C3 1_555 1_555
C5 C3 1_555 1_555
C6 N1 1_555 1_555
C7 C6 1_555 1_555
C8 N1 1_555 1_555
C9 C8 1_555 1_555

#END
