
#######################################################################
#
#                 Cambridge Crystallographic Data Centre
#                                CCDC 
#
#######################################################################
#
# If this CIF has been generated from an entry in the Cambridge 
# Structural Database, then it will include bibliographic, chemical, 
# crystal, experimental, refinement or atomic coordinate data resulting 
# from the CCDC's data processing and validation procedures.
#
#######################################################################

data_DISJUN01
_chemical_formula_moiety         'C14 H10 Cl1 N1 O1'
_chemical_name_systematic        6-chloro-1-phenyl-1,3-dihydro-2H-indol-2-one
_symmetry_cell_setting           monoclinic
_symmetry_space_group_name_H-M   'P 21/c'
_symmetry_Int_Tables_number      14
_space_group_name_Hall           '-P 2ybc'
loop_
_symmetry_equiv_pos_site_id
_symmetry_equiv_pos_as_xyz
1 x,y,z
2 -x,1/2+y,1/2-z
3 -x,-y,-z
4 x,1/2-y,1/2+z
_cell_length_a                   12.7217(8)
_cell_length_b                   4.8842(3)
_cell_length_c                   19.9554(14)
_cell_angle_alpha                90
_cell_angle_beta                 108.5770(10)
_cell_angle_gamma                90
_cell_volume                     1175.33
_exptl_crystal_colour            colorless
_exptl_crystal_description       block
_cell_formula_units_Z            4
loop_
_atom_site_label
_atom_site_type_symbol
_atom_site_fract_x
_atom_site_fract_y
_atom_site_fract_z
Cl1 Cl 1.02300(3) -0.13142(9) 0.39339(2)
O1 O 0.54649(11) 0.8081(3) 0.34224(7)
N1 N 0.69396(9) 0.5144(2) 0.38432(5)
C1 C 0.90732(13) 0.1921(3) 0.28554(8)
C2 C 0.92024(11) 0.1067(3) 0.35376(7)
C3 C 0.85347(11) 0.2032(3) 0.39196(7)
C4 C 0.77239(10) 0.3888(3) 0.35832(6)
C5 C 0.68828(11) 0.4769(3) 0.45445(6)
C6 C 0.7745(5) 0.5750(11) 0.5097(2)
H1 H 0.830(3) 0.665(7) 0.5036(17)
C7 C 0.7655(6) 0.5472(13) 0.5770(3)
H2 H 0.821(3) 0.620(8) 0.612(2)
C8 C 0.5989(4) 0.3505(14) 0.4624(2)
H3 H 0.542(3) 0.299(8) 0.422(2)
C9 C 0.5914(5) 0.3287(14) 0.5303(2)
H4 H 0.531(3) 0.264(9) 0.530(2)
C10 C 0.67357(17) 0.4190(5) 0.58814(9)
C11 C 0.82503(13) 0.3798(3) 0.25342(7)
C12 C 0.75626(11) 0.4785(3) 0.28895(6)
C13 C 0.66060(14) 0.6719(3) 0.26879(7)
C14 C 0.62326(12) 0.6806(3) 0.33387(7)
H5 H 0.6820(14) 0.861(4) 0.2592(9)
H6 H 0.6002(17) 0.610(4) 0.2284(11)
H7 H 0.8135(14) 0.445(4) 0.2049(9)
H8 H 0.9551(14) 0.125(3) 0.2586(9)
H9 H 0.8627(13) 0.145(3) 0.4400(9)
H10 H 0.6594(18) 0.383(4) 0.6330(12)
C15? C 0.7302(7) 0.6689(16) 0.5071(3)
H11? H 0.761(5) 0.816(11) 0.491(3)
C16? C 0.7219(9) 0.6310(19) 0.5741(3)
H12? H 0.746(4) 0.761(10) 0.604(3)
C17? C 0.6386(6) 0.2416(12) 0.4715(2)
H13? H 0.604(3) 0.123(8) 0.434(2)
C18? C 0.6324(6) 0.2102(14) 0.5400(2)
H14? H 0.594(3) 0.046(9) 0.550(2)
loop_
_geom_bond_atom_site_label_1
_geom_bond_atom_site_label_2
_geom_bond_site_symmetry_1
_geom_bond_site_symmetry_2
Cl1 C2 1_555 1_555
O1 C14 1_555 1_555
N1 C4 1_555 1_555
C1 C2 1_555 1_555
C2 C3 1_555 1_555
C3 C4 1_555 1_555
C4 C12 1_555 1_555
C5 N1 1_555 1_555
C6 C5 1_555 1_555
H1 C6 1_555 1_555
C7 C6 1_555 1_555
H2 C7 1_555 1_555
C8 C5 1_555 1_555
H3 C8 1_555 1_555
C9 C8 1_555 1_555
H4 C9 1_555 1_555
C10 C7 1_555 1_555
C11 C1 1_555 1_555
C12 C11 1_555 1_555
C13 C12 1_555 1_555
C14 N1 1_555 1_555
H5 C13 1_555 1_555
H6 C13 1_555 1_555
H7 C11 1_555 1_555
H8 C1 1_555 1_555
H9 C3 1_555 1_555
H10 C10 1_555 1_555
C9 C10 1_555 1_555
C13 C14 1_555 1_555

#END
