
#######################################################################
#
#                 Cambridge Crystallographic Data Centre
#                                CCDC 
#
#######################################################################
#
# If this CIF has been generated from an entry in the Cambridge 
# Structural Database, then it will include bibliographic, chemical, 
# crystal, experimental, refinement or atomic coordinate data resulting 
# from the CCDC's data processing and validation procedures.
#
#######################################################################

data_DISJUN
_chemical_formula_moiety         'C14 H10 Cl1 N1 O1'
_chemical_name_systematic        6-chloro-1-phenyl-1,3-dihydro-2H-indol-2-one
_symmetry_cell_setting           triclinic
_symmetry_space_group_name_H-M   'P -1'
_symmetry_Int_Tables_number      2
_space_group_name_Hall           '-P 1'
loop_
_symmetry_equiv_pos_site_id
_symmetry_equiv_pos_as_xyz
1 x,y,z
2 -x,-y,-z
_cell_length_a                   9.6212(5)
_cell_length_b                   13.4483(7)
_cell_length_c                   19.7967(10)
_cell_angle_alpha                72.6810(10)
_cell_angle_beta                 89.9950(10)
_cell_angle_gamma                69.0510(10)
_cell_volume                     2267.39
_exptl_crystal_colour            colorless
_exptl_crystal_description       block
_cell_formula_units_Z            8
loop_
_atom_site_label
_atom_site_type_symbol
_atom_site_fract_x
_atom_site_fract_y
_atom_site_fract_z
C1 C 0.2867(3) 0.21744(17) 0.16306(10)
C2 C 0.3409(3) 0.11604(18) 0.22960(10)
C3 C 0.4820(3) 0.03907(17) 0.21151(9)
C4 C 0.5834(3) -0.06659(17) 0.24935(10)
C5 C 0.7079(3) -0.11853(17) 0.21809(10)
C6 C 0.7249(3) -0.06289(16) 0.14888(10)
C7 C 0.6254(3) 0.04321(17) 0.10909(9)
C8 C 0.5036(3) 0.09215(16) 0.14199(9)
C9 C 0.3755(3) 0.27299(16) 0.04356(9)
C10 C 0.2666(2) 0.28606(16) -0.00838(9)
C11 C 0.2507(2) 0.36267(18) -0.07553(10)
C12 C 0.3409(3) 0.42542(19) -0.09043(11)
C13 C 0.4493(2) 0.40975(15) -0.03871(9)
C14 C 0.4659(2) 0.33411(15) 0.02875(9)
Cl1 Cl 0.87866(8) -0.12995(4) 0.10994(2)
N1 N 0.3867(3) 0.19695(13) 0.11401(8)
O1 O 0.1770(2) 0.30357(12) 0.15250(7)
H1 H 0.574(3) -0.1028(17) 0.2970(10)
H2 H 0.774(3) -0.1910(18) 0.2449(10)
H3 H 0.645(3) 0.0817(17) 0.0609(10)
H4 H 0.203(3) 0.2456(18) 0.0018(11)
H5 H 0.171(3) 0.3747(18) -0.1104(11)
H6 H 0.317(3) 0.4835(18) -0.1359(11)
H7 H 0.515(2) 0.4500(17) -0.0481(10)
H8 H 0.535(3) 0.3253(18) 0.0645(10)
H9 H 0.364(3) 0.1394(16) 0.2669(10)
H10 H 0.273(3) 0.0796(18) 0.2436(10)
C15 C 0.8146(3) 0.20245(17) 0.16916(10)
C16 C 0.8716(3) 0.09776(17) 0.23351(10)
C17 C 1.0080(3) 0.02145(17) 0.21084(10)
C18 C 1.1117(3) -0.08342(16) 0.24614(9)
C19 C 1.2331(3) -0.13302(17) 0.21223(10)
C20 C 1.2444(3) -0.07476(16) 0.14246(9)
C21 C 1.1400(3) 0.03106(16) 0.10449(9)
C22 C 1.0207(3) 0.07716(16) 0.14048(9)
C23 C 0.8828(3) 0.26161(16) 0.04554(9)
C24 C 0.8476(2) 0.23351(15) -0.01278(9)
C25 C 0.8214(2) 0.31207(16) -0.08046(9)
C26 C 0.8290(3) 0.41622(19) -0.08909(11)
C27 C 0.8643(2) 0.44282(15) -0.03061(9)
C28 C 0.8918(2) 0.36461(15) 0.03751(9)
Cl2 Cl 1.39793(7) -0.13603(4) 0.10140(2)
N2 N 0.9049(3) 0.18261(13) 0.11587(8)
O2 O 0.7097(2) 0.28920(12) 0.16316(7)
H11 H 1.112(2) -0.1228(15) 0.2941(9)
H12 H 1.298(3) -0.207(2) 0.2356(11)
H13 H 1.152(4) 0.0735(18) 0.0542(11)
H14 H 0.843(2) 0.1602(16) -0.0062(9)
H15 H 0.800(2) 0.2896(15) -0.1184(9)
H16 H 0.804(3) 0.4743(16) -0.1362(10)
H17 H 0.867(2) 0.5123(16) -0.0342(9)
H18 H 0.914(2) 0.3808(15) 0.0766(9)
H19 H 0.800(3) 0.0641(16) 0.2465(10)
H20 H 0.900(2) 0.1158(14) 0.2719(9)
C29 C 0.5162(3) 0.29434(17) 0.33062(9)
C30 C 0.4681(3) 0.39964(18) 0.26548(10)
C31 C 0.5276(3) 0.47495(16) 0.28759(9)
C32 C 0.5278(3) 0.58049(17) 0.25115(9)
C33 C 0.5986(3) 0.62997(18) 0.28463(10)
C34 C 0.6675(3) 0.57407(16) 0.35372(9)
C35 C 0.6679(3) 0.46825(16) 0.39238(10)
C36 C 0.5989(3) 0.42123(16) 0.35759(9)
C37 C 0.6411(3) 0.23703(16) 0.45317(9)
C38 C 0.5795(2) 0.26423(15) 0.51157(9)
C39 C 0.6324(2) 0.18647(17) 0.57956(9)
C40 C 0.7445(3) 0.08334(18) 0.58807(10)
C41 C 0.8074(2) 0.05670(15) 0.52943(9)
C42 C 0.7571(2) 0.13392(15) 0.46154(9)
Cl3 Cl 0.75702(8) 0.63669(4) 0.39429(3)
N3 N 0.5868(3) 0.31493(14) 0.38306(8)
O3 O 0.4955(2) 0.20782(12) 0.33728(7)
H21 H 0.470(3) 0.6225(16) 0.2014(10)
H22 H 0.610(3) 0.7006(19) 0.2555(10)
H23 H 0.707(3) 0.4348(18) 0.4391(11)
H24 H 0.500(2) 0.3326(16) 0.5045(9)
H25 H 0.582(2) 0.2051(16) 0.6178(10)
H26 H 0.801(3) 0.0223(18) 0.6355(11)
H27 H 0.882(2) -0.0156(15) 0.5352(9)
H28 H 0.796(2) 0.1186(15) 0.4214(9)
H29 H 0.496(3) 0.3845(18) 0.2199(11)
H30 H 0.356(3) 0.4227(19) 0.2617(11)
C43 C 0.0068(3) 0.28499(17) 0.33803(9)
C44 C -0.0403(3) 0.38884(18) 0.27152(10)
C45 C 0.0237(3) 0.46422(16) 0.29103(9)
C46 C 0.0211(3) 0.57014(17) 0.25488(9)
C47 C 0.0933(3) 0.62025(17) 0.28724(10)
C48 C 0.1666(3) 0.56337(16) 0.35529(9)
C49 C 0.1703(3) 0.45679(17) 0.39420(10)
C50 C 0.0994(3) 0.40989(16) 0.36034(9)
C51 C 0.1443(3) 0.22764(16) 0.45795(9)
C52 C 0.0513(2) 0.21653(16) 0.50978(9)
C53 C 0.1098(2) 0.13908(18) 0.57723(9)
C54 C 0.2610(3) 0.07568(18) 0.59221(10)
C55 C 0.3565(2) 0.08915(16) 0.54019(10)
C56 C 0.2990(2) 0.16497(16) 0.47246(9)
Cl4 Cl 0.25518(8) 0.62717(4) 0.39532(3)
N4 N 0.0858(3) 0.30472(14) 0.38786(8)
O4 O -0.0187(2) 0.19957(12) 0.34720(7)
H31 H -0.042(3) 0.6116(16) 0.2045(10)
H32 H 0.103(3) 0.694(2) 0.2585(11)
H33 H 0.211(3) 0.4221(16) 0.4393(10)
H34 H -0.051(3) 0.2640(19) 0.4983(12)
H35 H 0.048(2) 0.1317(17) 0.6134(10)
H36 H 0.465(2) 0.0441(17) 0.5500(10)
H37 H 0.367(2) 0.1757(16) 0.4354(10)
H38 H -0.155(3) 0.4128(17) 0.2663(10)
H39 H -0.006(3) 0.3664(18) 0.2271(10)
H40 H 0.319(3) 0.0144(15) 0.6385(9)
loop_
_geom_bond_atom_site_label_1
_geom_bond_atom_site_label_2
_geom_bond_site_symmetry_1
_geom_bond_site_symmetry_2
C1 C2 1_555 1_555
C2 C3 1_555 1_555
C3 C4 1_555 1_555
C4 C5 1_555 1_555
C5 C6 1_555 1_555
C6 C7 1_555 1_555
C7 C8 1_555 1_555
C8 C3 1_555 1_555
C9 C10 1_555 1_555
C10 C11 1_555 1_555
C11 C12 1_555 1_555
C12 C13 1_555 1_555
C13 C14 1_555 1_555
C14 C9 1_555 1_555
Cl1 C6 1_555 1_555
N1 C1 1_555 1_555
O1 C1 1_555 1_555
H1 C4 1_555 1_555
H2 C5 1_555 1_555
H3 C7 1_555 1_555
H4 C10 1_555 1_555
H5 C11 1_555 1_555
H6 C12 1_555 1_555
H7 C13 1_555 1_555
H8 C14 1_555 1_555
H9 C2 1_555 1_555
H10 C2 1_555 1_555
C15 C16 1_555 1_555
C16 C17 1_555 1_555
C17 C18 1_555 1_555
C18 C19 1_555 1_555
C19 C20 1_555 1_555
C20 C21 1_555 1_555
C21 C22 1_555 1_555
C22 C17 1_555 1_555
C23 C24 1_555 1_555
C24 C25 1_555 1_555
C25 C26 1_555 1_555
C26 C27 1_555 1_555
C27 C28 1_555 1_555
C28 C23 1_555 1_555
Cl2 C20 1_555 1_555
N2 C15 1_555 1_555
O2 C15 1_555 1_555
H11 C18 1_555 1_555
H12 C19 1_555 1_555
H13 C21 1_555 1_555
H14 C24 1_555 1_555
H15 C25 1_555 1_555
H16 C26 1_555 1_555
H17 C27 1_555 1_555
H18 C28 1_555 1_555
H19 C16 1_555 1_555
H20 C16 1_555 1_555
C29 C30 1_555 1_555
C30 C31 1_555 1_555
C31 C32 1_555 1_555
C32 C33 1_555 1_555
C33 C34 1_555 1_555
C34 C35 1_555 1_555
C35 C36 1_555 1_555
C36 C31 1_555 1_555
C37 C38 1_555 1_555
C38 C39 1_555 1_555
C39 C40 1_555 1_555
C40 C41 1_555 1_555
C41 C42 1_555 1_555
C42 C37 1_555 1_555
Cl3 C34 1_555 1_555
N3 C29 1_555 1_555
O3 C29 1_555 1_555
H21 C32 1_555 1_555
H22 C33 1_555 1_555
H23 C35 1_555 1_555
H24 C38 1_555 1_555
H25 C39 1_555 1_555
H26 C40 1_555 1_555
H27 C41 1_555 1_555
H28 C42 1_555 1_555
H29 C30 1_555 1_555
H30 C30 1_555 1_555
C43 C44 1_555 1_555
C44 C45 1_555 1_555
C45 C46 1_555 1_555
C46 C47 1_555 1_555
C47 C48 1_555 1_555
C48 C49 1_555 1_555
C49 C50 1_555 1_555
C50 C45 1_555 1_555
C51 C52 1_555 1_555
C52 C53 1_555 1_555
C53 C54 1_555 1_555
C54 C55 1_555 1_555
C55 C56 1_555 1_555
C56 C51 1_555 1_555
Cl4 C48 1_555 1_555
N4 C43 1_555 1_555
O4 C43 1_555 1_555
H31 C46 1_555 1_555
H32 C47 1_555 1_555
H33 C49 1_555 1_555
H34 C52 1_555 1_555
H35 C53 1_555 1_555
H36 C55 1_555 1_555
H37 C56 1_555 1_555
H38 C44 1_555 1_555
H39 C44 1_555 1_555
H40 C54 1_555 1_555
C8 N1 1_555 1_555
C9 N1 1_555 1_555
C22 N2 1_555 1_555
C23 N2 1_555 1_555
C36 N3 1_555 1_555
C37 N3 1_555 1_555
C50 N4 1_555 1_555
C51 N4 1_555 1_555

#END
