
#######################################################################
#
#                 Cambridge Crystallographic Data Centre
#                                CCDC 
#
#######################################################################
#
# If this CIF has been generated from an entry in the Cambridge 
# Structural Database, then it will include bibliographic, chemical, 
# crystal, experimental, refinement or atomic coordinate data resulting 
# from the CCDC's data processing and validation procedures.
#
#######################################################################

data_DISKAS
_chemical_formula_moiety         'C30 H19 P1 S2'
_chemical_name_systematic        
4,5,6-Triphenyl-5H-isophosphindolo[5,4-b:6,7-b']dithiophene
_symmetry_cell_setting           monoclinic
_symmetry_space_group_name_H-M   'P 21/n'
_symmetry_Int_Tables_number      14
_space_group_name_Hall           '-P 2yn'
loop_
_symmetry_equiv_pos_site_id
_symmetry_equiv_pos_as_xyz
1 x,y,z
2 1/2-x,1/2+y,1/2-z
3 -x,-y,-z
4 1/2+x,1/2-y,1/2+z
_cell_length_a                   6.2062(2)
_cell_length_b                   21.4229(9)
_cell_length_c                   17.4039(8)
_cell_angle_alpha                90
_cell_angle_beta                 97.372(3)
_cell_angle_gamma                90
_cell_volume                     2294.81
_exptl_crystal_colour            orange
_exptl_crystal_description       block
_chemical_melting_point          175deg.C(dec)
_cell_formula_units_Z            4
loop_
_atom_site_label
_atom_site_type_symbol
_atom_site_fract_x
_atom_site_fract_y
_atom_site_fract_z
S1 S 0.89692(7) -0.02990(2) 0.86545(2)
S2 S 0.90483(7) -0.028931(19) 0.66918(2)
P1 P 0.09117(6) 0.153106(18) 0.72918(2)
C1 C 0.2729(2) 0.12699(7) 0.81136(9)
C2 C 0.4258(2) 0.08809(7) 0.78653(9)
C3 C 0.4241(2) 0.08731(7) 0.70107(9)
C4 C 0.2675(2) 0.12526(7) 0.66252(9)
C5 C 0.7561(3) -0.00658(8) 0.93936(10)
H1 H 0.7880 -0.0208 0.9913
C6 C 0.5947(3) 0.03427(8) 0.91546(9)
H2 H 0.5015 0.0519 0.9489
C7 C 0.5794(2) 0.04808(7) 0.83434(9)
C8 C 0.7337(3) 0.01531(7) 0.79980(9)
C9 C 0.7345(2) 0.01517(7) 0.71802(9)
C10 C 0.5795(2) 0.04706(7) 0.66855(9)
C11 C 0.5997(3) 0.03289(7) 0.58939(9)
H3 H 0.5066 0.0496 0.5468
C12 C 0.7656(3) -0.00692(8) 0.58149(10)
H4 H 0.8009 -0.0211 0.5329
C13 C 0.1172(3) 0.23807(7) 0.73005(9)
C14 C -0.0494(3) 0.27355(8) 0.75405(10)
H5 H -0.1739 0.2534 0.7690
C15 C -0.0350(3) 0.33835(9) 0.75635(11)
H6 H -0.1481 0.3622 0.7739
C16 C 0.1428(3) 0.36807(8) 0.73324(11)
H7 H 0.1511 0.4124 0.7339
C17 C 0.3094(3) 0.33312(8) 0.70897(11)
H8 H 0.4320 0.3535 0.6929
C18 C 0.2979(3) 0.26845(8) 0.70801(10)
H9 H 0.4139 0.2448 0.6922
C19 C 0.2462(2) 0.14580(7) 0.89101(9)
C20 C 0.4196(3) 0.17356(8) 0.93821(10)
H10 H 0.5542 0.1797 0.9187
C21 C 0.3974(3) 0.19223(8) 1.01322(10)
H11 H 0.5167 0.2107 1.0448
C22 C 0.2016(3) 0.18399(8) 1.04199(10)
H12 H 0.1869 0.1963 1.0935
C23 C 0.0272(3) 0.15772(8) 0.99558(10)
H13 H -0.1075 0.1523 1.0152
C24 C 0.0486(3) 0.13924(7) 0.92040(9)
H14 H -0.0727 0.1219 0.8887
C25 C 0.2241(2) 0.14141(7) 0.57962(9)
C26 C 0.0152(3) 0.13501(8) 0.53927(9)
H15 H -0.0981 0.1186 0.5652
C27 C -0.0288(3) 0.15224(8) 0.46201(10)
H16 H -0.1709 0.1469 0.4352
C28 C 0.1333(3) 0.17723(8) 0.42378(10)
H17 H 0.1031 0.1887 0.3708
C29 C 0.3402(3) 0.18543(8) 0.46322(10)
H18 H 0.4513 0.2032 0.4374
C30 C 0.3855(3) 0.16778(7) 0.54040(9)
H19 H 0.5276 0.1736 0.5669
loop_
_geom_bond_atom_site_label_1
_geom_bond_atom_site_label_2
_geom_bond_site_symmetry_1
_geom_bond_site_symmetry_2
S1 C5 1_555 1_555
S2 C9 1_555 1_555
P1 C1 1_555 1_555
C1 C2 1_555 1_555
C2 C3 1_555 1_555
C3 C4 1_555 1_555
C4 P1 1_555 1_555
C5 H1 1_555 1_555
C6 C5 1_555 1_555
H2 C6 1_555 1_555
C7 C2 1_555 1_555
C8 S1 1_555 1_555
C9 C8 1_555 1_555
C10 C3 1_555 1_555
C11 C10 1_555 1_555
H3 C11 1_555 1_555
C12 S2 1_555 1_555
H4 C12 1_555 1_555
C13 P1 1_555 1_555
C14 C13 1_555 1_555
H5 C14 1_555 1_555
C15 C14 1_555 1_555
H6 C15 1_555 1_555
C16 C15 1_555 1_555
H7 C16 1_555 1_555
C17 C16 1_555 1_555
H8 C17 1_555 1_555
C18 C13 1_555 1_555
H9 C18 1_555 1_555
C19 C1 1_555 1_555
C20 C19 1_555 1_555
H10 C20 1_555 1_555
C21 C20 1_555 1_555
H11 C21 1_555 1_555
C22 C21 1_555 1_555
H12 C22 1_555 1_555
C23 C22 1_555 1_555
H13 C23 1_555 1_555
C24 C19 1_555 1_555
H14 C24 1_555 1_555
C25 C4 1_555 1_555
C26 C25 1_555 1_555
H15 C26 1_555 1_555
C27 C26 1_555 1_555
H16 C27 1_555 1_555
C28 C27 1_555 1_555
H17 C28 1_555 1_555
C29 C28 1_555 1_555
H18 C29 1_555 1_555
C30 C25 1_555 1_555
H19 C30 1_555 1_555
C6 C7 1_555 1_555
C7 C8 1_555 1_555
C9 C10 1_555 1_555
C11 C12 1_555 1_555
C17 C18 1_555 1_555
C23 C24 1_555 1_555
C29 C30 1_555 1_555

#END
