
#######################################################################
#
#                 Cambridge Crystallographic Data Centre
#                                CCDC 
#
#######################################################################
#
# If this CIF has been generated from an entry in the Cambridge 
# Structural Database, then it will include bibliographic, chemical, 
# crystal, experimental, refinement or atomic coordinate data resulting 
# from the CCDC's data processing and validation procedures.
#
#######################################################################

data_DISKOG
_chemical_name_common            
'1-t-butyl-3,4-diphenyl-1,2,4-triazolium 5-(2-carbethoxyvinyl-1-oxide)'
_chemical_formula_moiety         'C23 H25 N3 O3'
_chemical_name_systematic        
1-(1-t-butyl-3,4-diphenyl-1,2,4-triazolium-5-yl)-3-ethoxy-3-oxoprop-1-en-1-olate
_symmetry_cell_setting           monoclinic
_symmetry_space_group_name_H-M   'C c'
_symmetry_Int_Tables_number      9
_space_group_name_Hall           'C -2yc'
loop_
_symmetry_equiv_pos_site_id
_symmetry_equiv_pos_as_xyz
1 x,y,z
2 x,-y,1/2+z
3 1/2+x,1/2+y,z
4 1/2+x,1/2-y,1/2+z
_cell_length_a                   11.961(5)
_cell_length_b                   19.647(5)
_cell_length_c                   9.048(5)
_cell_angle_alpha                90
_cell_angle_beta                 94.251(5)
_cell_angle_gamma                90
_cell_volume                     2120.41
_exptl_crystal_colour            colorless
_exptl_crystal_description       block
_chemical_melting_point          '160-162 deg.C'
_cell_formula_units_Z            4
_exptl_crystal_recrystallization_method n-octane
loop_
_atom_site_label
_atom_site_type_symbol
_atom_site_fract_x
_atom_site_fract_y
_atom_site_fract_z
C1 C 0.0971(4) 0.3019(3) 0.0398(6)
C2 C 0.0311(4) 0.2033(3) 0.1031(6)
C3 C -0.0096(4) 0.1331(3) 0.1004(6)
C4 C 0.0320(5) 0.0821(3) 0.0110(6)
H1 H 0.0899 0.0928 -0.0516
C5 C -0.0091(5) 0.0171(3) 0.0124(6)
H2 H 0.0194 -0.0168 -0.0495
C6 C -0.0925(5) 0.0012(3) 0.1047(7)
H3 H -0.1216 -0.0437 0.1061
C7 C -0.1334(5) 0.0504(3) 0.1943(6)
H4 H -0.1903 0.0389 0.2578
C8 C -0.0928(5) 0.1162(3) 0.1935(6)
H5 H -0.1216 0.1497 0.2561
C9 C 0.0912(5) 0.2152(3) -0.1600(6)
C10 C 0.1995(5) 0.2080(3) -0.2005(6)
H6 H 0.2614 0.2186 -0.1324
C11 C 0.2169(5) 0.1849(3) -0.3435(7)
H7 H 0.2909 0.1793 -0.3734
C12 C 0.1266(6) 0.1704(3) -0.4393(7)
H8 H 0.1379 0.1546 -0.5363
C13 C 0.0181(5) 0.1785(3) -0.3964(7)
H9 H -0.0442 0.1680 -0.4638
C14 C 0.0009(5) 0.2019(3) -0.2561(6)
H10 H -0.0729 0.2085 -0.2270
C15 C 0.0865(5) 0.3600(3) 0.2927(7)
C16 C 0.2055(5) 0.3521(4) 0.3623(8)
H11 H 0.2126 0.3085 0.4145
H12 H 0.2223 0.3893 0.4327
H13 H 0.2584 0.3536 0.2846
C17 C 0.0698(6) 0.4285(3) 0.2140(8)
H14 H 0.1344 0.4380 0.1567
H15 H 0.0627 0.4645 0.2877
H16 H 0.0015 0.4269 0.1471
C18 C -0.0011(6) 0.3515(3) 0.4033(7)
H17 H -0.0760 0.3537 0.3516
H18 H 0.0070 0.3879 0.4772
H19 H 0.0089 0.3073 0.4527
C19 C 0.1538(5) 0.3544(3) -0.0542(6)
C20 C 0.0855(5) 0.3871(3) -0.1602(7)
H20 H 0.1194 0.4150 -0.2301
C21 C -0.0332(5) 0.3816(3) -0.1708(7)
C22 C -0.2014(5) 0.4217(3) -0.3024(7)
H21 H -0.2312 0.3766 -0.2767
H22 H -0.2253 0.4312 -0.4075
C23 C -0.2485(5) 0.4755(3) -0.2054(8)
H23 H -0.2274 0.4651 -0.1011
H24 H -0.3303 0.4763 -0.2220
H25 H -0.2182 0.5201 -0.2300
N1 N 0.0705(4) 0.3045(2) 0.1793(5)
N2 N 0.0278(4) 0.2424(2) 0.2212(5)
N3 N 0.0756(4) 0.2375(2) -0.0112(5)
O1 O 0.2587(3) 0.35722(18) -0.0240(4)
O2 O -0.0914(3) 0.3468(2) -0.0926(4)
O3 O -0.0803(3) 0.42055(19) -0.2834(4)
loop_
_geom_bond_atom_site_label_1
_geom_bond_atom_site_label_2
_geom_bond_site_symmetry_1
_geom_bond_site_symmetry_2
C1 C19 1_555 1_555
C2 C3 1_555 1_555
C3 C4 1_555 1_555
C4 H1 1_555 1_555
C5 C4 1_555 1_555
H2 C5 1_555 1_555
C6 C5 1_555 1_555
H3 C6 1_555 1_555
C7 C6 1_555 1_555
H4 C7 1_555 1_555
C8 C3 1_555 1_555
H5 C8 1_555 1_555
C9 C10 1_555 1_555
C10 H6 1_555 1_555
C11 C10 1_555 1_555
H7 C11 1_555 1_555
C12 C11 1_555 1_555
H8 C12 1_555 1_555
C13 C12 1_555 1_555
H9 C13 1_555 1_555
C14 C9 1_555 1_555
H10 C14 1_555 1_555
C15 C16 1_555 1_555
C16 H11 1_555 1_555
H12 C16 1_555 1_555
H13 C16 1_555 1_555
C17 C15 1_555 1_555
H14 C17 1_555 1_555
H15 C17 1_555 1_555
H16 C17 1_555 1_555
C18 C15 1_555 1_555
H17 C18 1_555 1_555
H18 C18 1_555 1_555
H19 C18 1_555 1_555
C19 C20 1_555 1_555
C20 H20 1_555 1_555
C21 C20 1_555 1_555
C22 H21 1_555 1_555
H22 C22 1_555 1_555
C23 C22 1_555 1_555
H23 C23 1_555 1_555
H24 C23 1_555 1_555
H25 C23 1_555 1_555
N1 C1 1_555 1_555
N2 C2 1_555 1_555
N3 C1 1_555 1_555
O1 C19 1_555 1_555
O2 C21 1_555 1_555
O3 C21 1_555 1_555
C2 N3 1_555 1_555
C7 C8 1_555 1_555
C9 N3 1_555 1_555
C13 C14 1_555 1_555
C15 N1 1_555 1_555
C22 O3 1_555 1_555
N1 N2 1_555 1_555

#END
