
#######################################################################
#
#                 Cambridge Crystallographic Data Centre
#                                CCDC 
#
#######################################################################
#
# If this CIF has been generated from an entry in the Cambridge 
# Structural Database, then it will include bibliographic, chemical, 
# crystal, experimental, refinement or atomic coordinate data resulting 
# from the CCDC's data processing and validation procedures.
#
#######################################################################

data_DISKEY
_chemical_formula_moiety         'C14 H10 Cl1 N1 O1'
_chemical_name_systematic        4-chloro-1-phenyl-1,3-dihydro-2H-indol-2-one
_symmetry_cell_setting           monoclinic
_symmetry_space_group_name_H-M   'P 21/c'
_symmetry_Int_Tables_number      14
_space_group_name_Hall           '-P 2ybc'
loop_
_symmetry_equiv_pos_site_id
_symmetry_equiv_pos_as_xyz
1 x,y,z
2 -x,1/2+y,1/2-z
3 -x,-y,-z
4 x,1/2-y,1/2+z
_cell_length_a                   10.4274(9)
_cell_length_b                   11.8586(10)
_cell_length_c                   9.1689(8)
_cell_angle_alpha                90
_cell_angle_beta                 90.341(2)
_cell_angle_gamma                90
_cell_volume                     1133.75
_exptl_crystal_colour            colorless
_exptl_crystal_description       plane
_cell_formula_units_Z            4
loop_
_atom_site_label
_atom_site_type_symbol
_atom_site_fract_x
_atom_site_fract_y
_atom_site_fract_z
C1 C 0.76721(10) 0.49310(9) 0.64644(12)
C2 C 0.85830(11) 0.40374(9) 0.58832(12)
C3 C 0.86181(10) 0.42828(9) 0.42814(11)
C4 C 0.92785(10) 0.37865(9) 0.31494(12)
C5 C 0.90912(11) 0.41479(10) 0.17124(12)
C6 C 0.82162(11) 0.50041(10) 0.14285(12)
C7 C 0.75357(10) 0.55343(9) 0.25525(12)
C8 C 0.77632(10) 0.51624(9) 0.39652(11)
C9 C 0.62732(10) 0.64194(9) 0.53875(11)
C10 C 0.64796(11) 0.74572(9) 0.47135(12)
C11 C 0.55612(12) 0.83056(10) 0.48458(13)
C12 C 0.44611(12) 0.81288(10) 0.56664(13)
C13 C 0.42704(11) 0.70949(10) 0.63459(13)
C14 C 0.51636(10) 0.62325(10) 0.61973(12)
Cl1 Cl 1.03557(3) 0.27007(2) 0.35207(3)
N1 N 0.71912(8) 0.55315(8) 0.52725(9)
O1 O 0.74015(8) 0.51070(8) 0.77320(9)
H1 H 0.9565(14) 0.3789(13) 0.0896(17)
H2 H 0.8079(14) 0.5211(13) 0.0430(17)
H3 H 0.6961(13) 0.6125(12) 0.2337(15)
H4 H 0.7241(15) 0.7584(12) 0.4177(17)
H5 H 0.5717(14) 0.9014(13) 0.4399(16)
H6 H 0.3836(16) 0.8679(14) 0.5786(18)
H7 H 0.3452(14) 0.7052(13) 0.7050(17)
H8 H 0.5053(14) 0.5512(14) 0.6660(16)
H9 H 0.9405(15) 0.4094(14) 0.6355(17)
H10 H 0.8247(14) 0.3270(14) 0.6089(17)
loop_
_geom_bond_atom_site_label_1
_geom_bond_atom_site_label_2
_geom_bond_site_symmetry_1
_geom_bond_site_symmetry_2
C1 C2 1_555 1_555
C2 C3 1_555 1_555
C3 C4 1_555 1_555
C4 C5 1_555 1_555
C5 C6 1_555 1_555
C6 C7 1_555 1_555
C7 C8 1_555 1_555
C8 C3 1_555 1_555
C9 C10 1_555 1_555
C10 C11 1_555 1_555
C11 C12 1_555 1_555
C12 C13 1_555 1_555
C13 C14 1_555 1_555
C14 C9 1_555 1_555
Cl1 C4 1_555 1_555
N1 C1 1_555 1_555
O1 C1 1_555 1_555
H1 C5 1_555 1_555
H2 C6 1_555 1_555
H3 C7 1_555 1_555
H4 C10 1_555 1_555
H5 C11 1_555 1_555
H6 C12 1_555 1_555
H7 C13 1_555 1_555
H8 C14 1_555 1_555
H9 C2 1_555 1_555
H10 C2 1_555 1_555
C8 N1 1_555 1_555
C9 N1 1_555 1_555

#END
