
#######################################################################
#
#                 Cambridge Crystallographic Data Centre
#                                CCDC 
#
#######################################################################
#
# If this CIF has been generated from an entry in the Cambridge 
# Structural Database, then it will include bibliographic, chemical, 
# crystal, experimental, refinement or atomic coordinate data resulting 
# from the CCDC's data processing and validation procedures.
#
#######################################################################

data_DISRAB
_chemical_formula_moiety         'C24 H11 N5'
_chemical_name_systematic        
6-(2-cyanophenyl)-4c,5,7-triazaindeno[1,2,3-jk]fluorene-4-carbonitrile
_symmetry_cell_setting           triclinic
_symmetry_space_group_name_H-M   'P -1'
_symmetry_Int_Tables_number      2
_space_group_name_Hall           '-P 1'
loop_
_symmetry_equiv_pos_site_id
_symmetry_equiv_pos_as_xyz
1 x,y,z
2 -x,-y,-z
_cell_length_a                   8.273(4)
_cell_length_b                   10.329(5)
_cell_length_c                   10.949(5)
_cell_angle_alpha                103.418(7)
_cell_angle_beta                 94.898(9)
_cell_angle_gamma                100.748(9)
_cell_volume                     885.967
_exptl_crystal_colour            black
_exptl_crystal_description       rod-like
_cell_formula_units_Z            2
loop_
_atom_site_label
_atom_site_type_symbol
_atom_site_fract_x
_atom_site_fract_y
_atom_site_fract_z
N1 N 0.4267(4) 0.7201(3) 0.7170(3)
C1 C 0.2121(5) 0.7125(4) 0.5055(4)
C2 C 0.4416(5) 0.9602(4) 0.7852(3)
C3 C 0.1986(5) 0.4810(4) 0.4471(4)
N2 N 0.2698(4) 0.8321(3) 0.5896(3)
C4 C 0.3744(5) 0.8275(4) 0.6908(3)
C5 C 0.3650(4) 0.6017(4) 0.6343(3)
C6 C 0.2562(5) 0.2454(4) 0.4604(4)
H1 H 0.186755 0.194344 0.386979
C7 C 0.0986(5) 0.5151(4) 0.3501(4)
C8 C 0.4643(5) 0.3955(4) 0.6870(4)
C9 C 0.2719(5) 0.3863(4) 0.4993(4)
C10 C 0.3762(5) 0.4634(4) 0.6156(4)
C11 C 0.3371(5) 1.0417(4) 0.8416(4)
C12 C 0.4479(5) 0.2561(4) 0.6437(4)
H2 H 0.506476 0.210442 0.689649
C13 C 0.4016(6) 1.1637(4) 0.9318(4)
H3 H 0.330664 1.215965 0.969779
C14 C 0.1090(5) 0.6590(4) 0.3860(4)
C15 C 0.3451(6) 0.1836(4) 0.5325(4)
H4 H 0.336320 0.089981 0.505973
C16 C 0.5702(6) 1.2069(5) 0.9649(4)
H5 H 0.613716 1.289258 1.024268
C17 C 0.6102(5) 1.0049(5) 0.8216(4)
H6 H 0.681871 0.951534 0.786558
C18 C 0.0075(5) 0.4381(5) 0.2344(4)
H7 H -0.000895 0.344395 0.209093
C19 C 0.0281(5) 0.7238(5) 0.3078(4)
H8 H 0.033161 0.817074 0.331709
C20 C 0.6752(6) 1.1283(5) 0.9099(4)
H9 H 0.789497 1.157775 0.931956
C21 C -0.0589(6) 0.6445(6) 0.1946(4)
H10 H -0.111982 0.685433 0.140377
N3 N 0.2576(4) 0.6014(3) 0.5325(3)
C22 C -0.0697(5) 0.5043(6) 0.1587(4)
H11 H -0.130780 0.453989 0.081558
N4 N 0.6474(5) 0.5290(4) 0.8962(4)
C23 C 0.5651(5) 0.4705(4) 0.8044(4)
C24 C 0.1590(6) 0.9960(5) 0.8150(5)
N5 N 0.0189(6) 0.9637(6) 0.7988(5)
loop_
_geom_bond_atom_site_label_1
_geom_bond_atom_site_label_2
_geom_bond_site_symmetry_1
_geom_bond_site_symmetry_2
N1 C4 1_555 1_555
C1 N2 1_555 1_555
C2 C4 1_555 1_555
C3 C7 1_555 1_555
N2 C4 1_555 1_555
C5 N1 1_555 1_555
C6 H1 1_555 1_555
C7 C14 1_555 1_555
C8 C10 1_555 1_555
C9 C3 1_555 1_555
C10 C5 1_555 1_555
C11 C2 1_555 1_555
C12 C8 1_555 1_555
H2 C12 1_555 1_555
C13 C11 1_555 1_555
H3 C13 1_555 1_555
C14 C1 1_555 1_555
C15 C6 1_555 1_555
H4 C15 1_555 1_555
C16 C13 1_555 1_555
H5 C16 1_555 1_555
C17 C2 1_555 1_555
H6 C17 1_555 1_555
C18 C7 1_555 1_555
H7 C18 1_555 1_555
C19 C14 1_555 1_555
H8 C19 1_555 1_555
C20 C16 1_555 1_555
H9 C20 1_555 1_555
C21 C19 1_555 1_555
H10 C21 1_555 1_555
N3 C1 1_555 1_555
C22 C18 1_555 1_555
H11 C22 1_555 1_555
N4 C23 1_555 1_555
C23 C8 1_555 1_555
C24 C11 1_555 1_555
N5 C24 1_555 1_555
C3 N3 1_555 1_555
C5 N3 1_555 1_555
C6 C9 1_555 1_555
C9 C10 1_555 1_555
C12 C15 1_555 1_555
C17 C20 1_555 1_555
C21 C22 1_555 1_555

#END
