
#######################################################################
#
#                 Cambridge Crystallographic Data Centre
#                                CCDC 
#
#######################################################################
#
# If this CIF has been generated from an entry in the Cambridge 
# Structural Database, then it will include bibliographic, chemical, 
# crystal, experimental, refinement or atomic coordinate data resulting 
# from the CCDC's data processing and validation procedures.
#
#######################################################################

data_DITBAJ
_chemical_compound_source        
'monimiaceous plant Hedycarya angustifolia A.Cunn'
_chemical_name_common            Isosevanine
_chemical_formula_moiety         'C18 H15 N1 O4'
_chemical_name_systematic        
1-(3-Hydroxy-4-methoxybenzyl)-6,7-methylenedioxy-isoquinoline
_symmetry_cell_setting           monoclinic
_symmetry_space_group_name_H-M   'P 21/n'
_symmetry_Int_Tables_number      14
_space_group_name_Hall           '-P 2yn'
loop_
_symmetry_equiv_pos_site_id
_symmetry_equiv_pos_as_xyz
1 x,y,z
2 1/2-x,1/2+y,1/2-z
3 -x,-y,-z
4 1/2+x,1/2-y,1/2+z
_cell_length_a                   22.45(1)
_cell_length_b                   5.746(4)
_cell_length_c                   11.569(3)
_cell_angle_alpha                90
_cell_angle_beta                 93.65(4)
_cell_angle_gamma                90
_cell_volume                     1489.35
_exptl_crystal_colour            yellow
_chemical_melting_point          148deg.C
_cell_formula_units_Z            4
loop_
_atom_site_label
_atom_site_type_symbol
_atom_site_fract_x
_atom_site_fract_y
_atom_site_fract_z
O1 O 0.9898(2) 1.1136(8) 0.2812(3)
C1 C 0.9999(3) 1.2976(13) 0.3635(5)
H1 H 1.044(3) 1.304(11) 0.388(5)
H2 H 0.988(3) 1.467(11) 0.331(5)
O2 O 0.9626(2) 1.2537(7) 0.4573(7)
C2 C 0.9251(2) 1.0740(9) 0.4237(4)
C3 C 0.8798(2) 0.9841(10) 0.4792(4)
H3 H 0.870(2) 1.057(8) 0.550(4)
C4 C 0.8476(2) 0.7945(8) 0.4268(3)
C5 C 0.7989(2) 0.6888(9) 0.4787(3)
N1 N 0.7694(2) 0.5086(7) 0.4330(3)
C6 C 0.7876(2) 0.4212(10) 0.3306(4)
H4 H 0.765(2) 0.275(9) 0.302(4)
C7 C 0.8330(2) 0.5125(10) 0.2736(4)
H5 H 0.840(2) 0.460(9) 0.201(4)
C8 C 0.8645(2) 0.7062(9) 0.3184(3)
C9 C 0.9131(2) 0.8105(11) 0.2621(4)
H6 H 0.920(2) 0.750(9) 0.185(4)
C10 C 0.9415(2) 0.9871(11) 0.3161(4)
C11 C 0.7792(3) 0.7760(11) 0.5931(4)
H7 H 0.778(2) 0.955(9) 0.595(4)
H8 H 0.738(2) 0.746(9) 0.602(4)
C12 C 0.8162(2) 0.6791(9) 0.6977(4)
C13 C 0.8086(2) 0.7714(10) 0.8080(4)
H9 H 0.780(2) 0.908(8) 0.816(4)
C14 C 0.8395(2) 0.6858(9) 0.9056(4)
O3 O 0.8326(2) 0.7698(8) 1.0141(3)
H10 H 0.797(2) 0.871(11) 1.010(5)
C15 C 0.8802(2) 0.5017(9) 0.8948(4)
O4 O 0.9090(1) 0.4285(7) 0.9971(3)
C16 C 0.8878(2) 0.4072(10) 0.7881(4)
H11 H 0.917(2) 0.281(8) 0.785(4)
C17 C 0.8554(2) 0.4964(9) 0.6892(4)
H12 H 0.861(2) 0.437(8) 0.616(3)
C18 C 0.9483(3) 0.2349(14) 0.9896(6)
H13 H 0.922(3) 0.089(11) 0.952(5)
H14 H 0.980(3) 0.274(12) 0.941(5)
H15 H 0.963(3) 0.202(11) 1.070(5)
loop_
_geom_bond_atom_site_label_1
_geom_bond_atom_site_label_2
_geom_bond_site_symmetry_1
_geom_bond_site_symmetry_2
O1 C1 1_555 1_555
C1 H1 1_555 1_555
H2 C1 1_555 1_555
O2 C1 1_555 1_555
C2 O2 1_555 1_555
C3 C2 1_555 1_555
H3 C3 1_555 1_555
C4 C3 1_555 1_555
C5 C4 1_555 1_555
N1 C5 1_555 1_555
C6 N1 1_555 1_555
H4 C6 1_555 1_555
C7 C6 1_555 1_555
H5 C7 1_555 1_555
C8 C4 1_555 1_555
C9 C8 1_555 1_555
H6 C9 1_555 1_555
C10 O1 1_555 1_555
C11 C5 1_555 1_555
H7 C11 1_555 1_555
H8 C11 1_555 1_555
C12 C11 1_555 1_555
C13 C12 1_555 1_555
H9 C13 1_555 1_555
C14 C13 1_555 1_555
O3 C14 1_555 1_555
H10 O3 1_555 1_555
C15 C14 1_555 1_555
O4 C15 1_555 1_555
C16 C15 1_555 1_555
H11 C16 1_555 1_555
C17 C12 1_555 1_555
H12 C17 1_555 1_555
C18 O4 1_555 1_555
H13 C18 1_555 1_555
H14 C18 1_555 1_555
H15 C18 1_555 1_555
C2 C10 1_555 1_555
C7 C8 1_555 1_555
C9 C10 1_555 1_555
C16 C17 1_555 1_555

#END
