
#######################################################################
#
#                 Cambridge Crystallographic Data Centre
#                                CCDC 
#
#######################################################################
#
# If this CIF has been generated from an entry in the Cambridge 
# Structural Database, then it will include bibliographic, chemical, 
# crystal, experimental, refinement or atomic coordinate data resulting 
# from the CCDC's data processing and validation procedures.
#
#######################################################################

data_DITDUF
_chemical_compound_source        
'Spiraea japonica L.f van fortunei (planchon) Rehd'
_chemical_formula_moiety         'C22 H31 N1 O3'
_chemical_name_systematic        'Spirasine VI'
_symmetry_cell_setting           orthorhombic
_symmetry_space_group_name_H-M   'P 21 21 21'
_symmetry_Int_Tables_number      19
_space_group_name_Hall           'P 2ac 2ab'
loop_
_symmetry_equiv_pos_site_id
_symmetry_equiv_pos_as_xyz
1 x,y,z
2 1/2+x,1/2-y,-z
3 -x,1/2+y,1/2-z
4 1/2-x,-y,1/2+z
_cell_length_a                   8.4631(15)
_cell_length_b                   9.3062(14)
_cell_length_c                   23.2359(34)
_cell_angle_alpha                90
_cell_angle_beta                 90
_cell_angle_gamma                90
_cell_volume                     1830.04
_chemical_melting_point          202-203deg.C
_cell_formula_units_Z            4
loop_
_atom_site_label
_atom_site_type_symbol
_atom_site_fract_x
_atom_site_fract_y
_atom_site_fract_z
C1 C 0.3199(7) 0.2560(7) 0.6215(3)
C2 C 0.2270(7) 0.1610(7) 0.5828(3)
C3 C 0.2264(8) 0.0053(8) 0.6057(3)
C4 C 0.3947(8) -0.0534(7) 0.6190(2)
C5 C 0.4750(6) 0.0471(6) 0.6623(2)
C6 C 0.6388(7) -0.0053(6) 0.6813(2)
C7 C 0.7794(7) 0.1030(7) 0.6871(3)
C8 C 0.7510(6) 0.2553(6) 0.6659(2)
C9 C 0.5798(6) 0.2993(6) 0.6775(2)
C10 C 0.4877(6) 0.2003(7) 0.6360(2)
C11 C 0.5583(8) 0.4680(7) 0.6676(2)
C12 C 0.7066(7) 0.5276(7) 0.6352(2)
C13 C 0.7383(8) 0.4310(7) 0.5842(2)
C14 C 0.7461(6) 0.2682(7) 0.5992(3)
C15 C 0.8741(8) 0.3576(8) 0.6943(3)
C16 C 0.8522(7) 0.5125(7) 0.6770(2)
C17 C 1.0048(8) 0.5806(9) 0.6499(4)
C18 C 0.3676(7) -0.2102(7) 0.6433(3)
C19 C 0.4981(7) -0.0545(7) 0.5643(2)
C20 C 0.6011(7) 0.1882(7) 0.5823(2)
C21 C 0.7372(9) -0.0063(9) 0.5231(3)
C22 C 0.6992(10) -0.1634(9) 0.5180(4)
O1 O 0.6619(6) -0.1270(5) 0.6974(2)
O2 O 0.8176(6) 0.5941(5) 0.7286(2)
O3 O 0.5610(6) -0.1916(5) 0.5504(2)
N1 N 0.6341(6) 0.0341(6) 0.5718(2)
H1 H 0.3143(65) 0.3582(64) 0.6038(28)
H2 H 0.2645(74) 0.2673(65) 0.6590(32)
H3 H 0.2654(85) 0.1693(74) 0.5391(33)
H4 H 0.1137(98) 0.1726(84) 0.5824(33)
H5 H 0.1620(72) -0.0686(79) 0.5872(32)
H6 H 0.1632(69) 0.02417(70) 0.6533(31)
H7 H 0.4098(80) 0.0438(65) 0.6977(25)
H8 H 0.8113(85) 0.1049(66) 0.7357(29)
H9 H 0.8687(72) 0.0576(68) 0.6618(25)
H10 H 0.5388(73) 0.2857(67) 0.7154(27)
H11 H 0.4522(74) 0.4815(66) 0.6423(28)
H12 H 0.5460(76) 0.5029(63) 0.7071(28)
H13 H 0.7081(75) 0.6432(73) 0.6248(28)
H14 H 0.7978(90) 0.4711(83) 0.5548(26)
H15 H 0.6708(76) 0.4605(78) 0.5570(24)
H16 H 0.8166(74) 0.2273(79) 0.5795(31)
H17 H 0.8434(86) 0.3603(70) 0.7415(27)
H18 H 0.9567(83) 0.3407(76) 0.7070(34)
H19 H 1.0411 0.5144 0.6134(34)
H20 H 0.9769(84) 0.6819(92) 0.6348(43)
H21 H 1.0949 0.5679(89) 0.6835(31)
H22 H 0.3166(67) -0.2613(76) 0.6113(30)
H23 H 0.3059(68) -0.2067(64) 0.6802(26)
H24 H 0.4193(95) -0.2719(80) 0.6507(36)
H25 H 0.4322(87) -0.0165(80) 0.5251(32)
H26 H 0.5483(80) 0.2347(83) 0.5508(27)
H27 H 0.6992(95) 0.0503(84) 0.4908(32)
H28 H 0.8490(77) 0.0040(80) 0.5404(29)
H29 H 0.6809 -0.2067 0.4797(42)
H30 H 0.7759(89) -0.2279(87) 0.5342(41)
H31 H 0.7743(79) 0.7065(64) 0.7395(31)
loop_
_geom_bond_atom_site_label_1
_geom_bond_atom_site_label_2
_geom_bond_site_symmetry_1
_geom_bond_site_symmetry_2
C1 C2 1_555 1_555
C2 C3 1_555 1_555
C3 C4 1_555 1_555
C4 C5 1_555 1_555
C5 C6 1_555 1_555
C6 C7 1_555 1_555
C7 C8 1_555 1_555
C8 C9 1_555 1_555
C9 C10 1_555 1_555
C10 C1 1_555 1_555
C11 C9 1_555 1_555
C12 C11 1_555 1_555
C13 C12 1_555 1_555
C14 C8 1_555 1_555
C15 C8 1_555 1_555
C16 C12 1_555 1_555
C17 C16 1_555 1_555
C18 C4 1_555 1_555
C19 C4 1_555 1_555
C20 C10 1_555 1_555
C21 C22 1_555 1_555
C22 O3 1_555 1_555
O1 C6 1_555 1_555
O2 C16 1_555 1_555
O3 C19 1_555 1_555
N1 C19 1_555 1_555
H1 C1 1_555 1_555
H2 C1 1_555 1_555
H3 C2 1_555 1_555
H4 C2 1_555 1_555
H5 C3 1_555 1_555
H6 C3 1_555 1_555
H7 C5 1_555 1_555
H8 C7 1_555 1_555
H9 C7 1_555 1_555
H10 C9 1_555 1_555
H11 C11 1_555 1_555
H12 C11 1_555 1_555
H13 C12 1_555 1_555
H14 C13 1_555 1_555
H15 C13 1_555 1_555
H16 C14 1_555 1_555
H17 C15 1_555 1_555
H18 C15 1_555 1_555
H19 C17 1_555 1_555
H20 C17 1_555 1_555
H21 C17 1_555 1_555
H22 C18 1_555 1_555
H23 C18 1_555 1_555
H24 C18 1_555 1_555
H25 C19 1_555 1_555
H26 C20 1_555 1_555
H27 C21 1_555 1_555
H28 C21 1_555 1_555
H29 C22 1_555 1_555
H30 C22 1_555 1_555
H31 O2 1_555 1_555
C5 C10 1_555 1_555
C13 C14 1_555 1_555
C14 C20 1_555 1_555
C15 C16 1_555 1_555
C20 N1 1_555 1_555
C21 N1 1_555 1_555

#END
