
#######################################################################
#
#                 Cambridge Crystallographic Data Centre
#                                CCDC 
#
#######################################################################
#
# If this CIF has been generated from an entry in the Cambridge 
# Structural Database, then it will include bibliographic, chemical, 
# crystal, experimental, refinement or atomic coordinate data resulting 
# from the CCDC's data processing and validation procedures.
#
#######################################################################

data_DITFOD
_chemical_formula_moiety         'C10 H12 O2 S2'
_chemical_name_systematic        4-(1,3-Dithian-2-yl)benzene-1,3-diol
_symmetry_cell_setting           monoclinic
_symmetry_space_group_name_H-M   'C 2/c'
_symmetry_Int_Tables_number      15
_space_group_name_Hall           '-C 2yn'
loop_
_symmetry_equiv_pos_site_id
_symmetry_equiv_pos_as_xyz
1 x,y,z
2 -x,y,1/2-z
3 1/2+x,1/2+y,z
4 1/2-x,1/2+y,1/2-z
5 -x,-y,-z
6 x,-y,1/2+z
7 1/2-x,1/2-y,-z
8 1/2+x,1/2-y,1/2+z
_cell_length_a                   28.3902(17)
_cell_length_b                   11.2221(7)
_cell_length_c                   7.3345(4)
_cell_angle_alpha                90
_cell_angle_beta                 96.9960(10)
_cell_angle_gamma                90
_cell_volume                     2319.36
_exptl_crystal_colour            yellow
_exptl_crystal_description       Block
_cell_formula_units_Z            8
loop_
_atom_site_label
_atom_site_type_symbol
_atom_site_fract_x
_atom_site_fract_y
_atom_site_fract_z
S1 S 0.429808(12) 0.31502(3) 0.21743(5)
S2 S 0.354416(11) 0.22475(3) 0.44117(4)
O1 O 0.24770(3) 0.14329(8) -0.37311(13)
H1 H 0.2248 0.1905 -0.3969
O2 O 0.30726(4) 0.46329(8) 0.02349(14)
H2 H 0.2859 0.5004 -0.0429
C1 C 0.33793(5) 0.26905(11) 0.07544(17)
C2 C 0.36725(4) 0.31420(11) 0.24576(17)
H3 H 0.3574 0.3981 0.2670
C3 C 0.27727(5) 0.30648(11) -0.18121(17)
H4 H 0.2567 0.3602 -0.2523
C4 C 0.44114(5) 0.31609(15) 0.6026(2)
H5 H 0.4539 0.2343 0.5951
H6 H 0.4580 0.3543 0.7135
C5 C 0.30714(5) 0.34715(11) -0.02948(18)
C6 C 0.33887(5) 0.14986(12) 0.02130(18)
H7 H 0.3602 0.0964 0.0893
C7 C 0.30925(5) 0.10770(12) -0.12997(18)
H8 H 0.3104 0.0265 -0.1659
C8 C 0.45160(5) 0.38589(15) 0.4337(2)
H9 H 0.4863 0.3968 0.4392
H10 H 0.4371 0.4659 0.4372
C9 C 0.27792(5) 0.18645(11) -0.22764(18)
C10 C 0.38856(5) 0.30852(13) 0.62356(19)
H11 H 0.3755 0.3902 0.6257
H12 H 0.3849 0.2706 0.7428
loop_
_geom_bond_atom_site_label_1
_geom_bond_atom_site_label_2
_geom_bond_site_symmetry_1
_geom_bond_site_symmetry_2
S1 C2 1_555 1_555
S2 C2 1_555 1_555
O1 H1 1_555 1_555
O2 H2 1_555 1_555
C1 C2 1_555 1_555
C2 H3 1_555 1_555
C3 H4 1_555 1_555
C4 H5 1_555 1_555
H6 C4 1_555 1_555
C5 O2 1_555 1_555
C6 C1 1_555 1_555
H7 C6 1_555 1_555
C7 C6 1_555 1_555
H8 C7 1_555 1_555
C8 S1 1_555 1_555
H9 C8 1_555 1_555
H10 C8 1_555 1_555
C9 O1 1_555 1_555
C10 S2 1_555 1_555
H11 C10 1_555 1_555
H12 C10 1_555 1_555
C1 C5 1_555 1_555
C3 C5 1_555 1_555
C3 C9 1_555 1_555
C4 C8 1_555 1_555
C4 C10 1_555 1_555
C7 C9 1_555 1_555

#END
