
#######################################################################
#
#                 Cambridge Crystallographic Data Centre
#                                CCDC 
#
#######################################################################
#
# If this CIF has been generated from an entry in the Cambridge 
# Structural Database, then it will include bibliographic, chemical, 
# crystal, experimental, refinement or atomic coordinate data resulting 
# from the CCDC's data processing and validation procedures.
#
#######################################################################

data_DITFUJ
_chemical_formula_moiety         'C10 H12 O2 S2,1.39(H2 O1)'
_chemical_name_systematic        '4-(1,3-dithian-2-yl)benzene-1,3-diol hydrate'
_symmetry_cell_setting           monoclinic
_symmetry_space_group_name_H-M   'C 2/c'
_symmetry_Int_Tables_number      15
_space_group_name_Hall           '-C 2yn'
loop_
_symmetry_equiv_pos_site_id
_symmetry_equiv_pos_as_xyz
1 x,y,z
2 -x,y,1/2-z
3 1/2+x,1/2+y,z
4 1/2-x,1/2+y,1/2-z
5 -x,-y,-z
6 x,-y,1/2+z
7 1/2-x,1/2-y,-z
8 1/2+x,1/2-y,1/2+z
_cell_length_a                   28.3902(17)
_cell_length_b                   11.2221(7)
_cell_length_c                   7.3345(4)
_cell_angle_alpha                90
_cell_angle_beta                 96.9960(10)
_cell_angle_gamma                90
_cell_volume                     2319.36
_exptl_crystal_colour            yellow
_exptl_crystal_description       Block
_cell_formula_units_Z            8
loop_
_atom_site_label
_atom_site_type_symbol
_atom_site_fract_x
_atom_site_fract_y
_atom_site_fract_z
S1 S 0.429793(15) 0.31492(4) 0.21741(6)
S2 S 0.354420(14) 0.22475(4) 0.44114(6)
O1 O 0.24778(4) 0.14325(11) -0.37306(17)
H1 H 0.2257 0.1922 -0.4010
O2 O 0.30726(5) 0.46339(11) 0.02339(18)
H2 H 0.2856 0.5002 -0.0415
C1 C 0.33791(6) 0.26893(15) 0.0756(2)
C2 C 0.36726(6) 0.31405(14) 0.2458(2)
H3 H 0.3574 0.3980 0.2670
C3 C 0.27726(6) 0.30642(15) -0.1812(2)
H4 H 0.2567 0.3601 -0.2523
C4 C 0.44113(7) 0.31638(19) 0.6026(3)
H5 H 0.4540 0.2347 0.5955
H6 H 0.4579 0.3548 0.7135
C5 C 0.30710(6) 0.34713(15) -0.0296(2)
C6 C 0.33887(6) 0.14986(15) 0.0211(2)
H7 H 0.3603 0.0964 0.0889
C7 C 0.30921(6) 0.10751(15) -0.1301(2)
H8 H 0.3103 0.0263 -0.1659
C8 C 0.45155(7) 0.3861(2) 0.4336(3)
H9 H 0.4863 0.3971 0.4391
H10 H 0.4370 0.4661 0.4369
C9 C 0.27785(6) 0.18655(14) -0.2277(2)
C10 C 0.38862(7) 0.30843(17) 0.6236(2)
H11 H 0.3755 0.3901 0.6260
H12 H 0.3850 0.2703 0.7428
O4 O 0.4529(3) 0.0284(6) 0.8147(15)
O4A O 0.5471(3) 0.0284(6) 0.6853(15)
O3? O 0.5080(3) -0.0319(8) 0.8406(13)
O5? O 0.4609(8) 0.0399(12) 0.849(3)
O6? O 0.45769(12) 0.0444(3) 0.9331(7)
loop_
_geom_bond_atom_site_label_1
_geom_bond_atom_site_label_2
_geom_bond_site_symmetry_1
_geom_bond_site_symmetry_2
S1 C2 1_555 1_555
S2 C2 1_555 1_555
O1 H1 1_555 1_555
O2 H2 1_555 1_555
C1 C2 1_555 1_555
C2 H3 1_555 1_555
C3 H4 1_555 1_555
C4 H5 1_555 1_555
H6 C4 1_555 1_555
C5 O2 1_555 1_555
C6 C1 1_555 1_555
H7 C6 1_555 1_555
C7 C6 1_555 1_555
H8 C7 1_555 1_555
C8 S1 1_555 1_555
H9 C8 1_555 1_555
H10 C8 1_555 1_555
C9 O1 1_555 1_555
C10 S2 1_555 1_555
H11 C10 1_555 1_555
H12 C10 1_555 1_555
C1 C5 1_555 1_555
C3 C5 1_555 1_555
C3 C9 1_555 1_555
C4 C8 1_555 1_555
C4 C10 1_555 1_555
C7 C9 1_555 1_555

#END
