
#######################################################################
#
#                 Cambridge Crystallographic Data Centre
#                                CCDC 
#
#######################################################################
#
# If this CIF has been generated from an entry in the Cambridge 
# Structural Database, then it will include bibliographic, chemical, 
# crystal, experimental, refinement or atomic coordinate data resulting 
# from the CCDC's data processing and validation procedures.
#
#######################################################################

data_DITHOF
_chemical_formula_moiety         'C44 H34 N4,2(C2 H6 O1)'
_chemical_name_systematic        
"4,4'-(2-methyl-1H-benzimidazole-4,7-diyl)bis(N,N-diphenylaniline) ethanol solvate"
_symmetry_cell_setting           monoclinic
_symmetry_space_group_name_H-M   'P c'
_symmetry_Int_Tables_number      7
_space_group_name_Hall           'P -2yc'
loop_
_symmetry_equiv_pos_site_id
_symmetry_equiv_pos_as_xyz
1 x,y,z
2 x,-y,1/2+z
_cell_length_a                   10.9212(12)
_cell_length_b                   7.7360(9)
_cell_length_c                   25.815(3)
_cell_angle_alpha                90
_cell_angle_beta                 112.928(4)
_cell_angle_gamma                90
_cell_volume                     2008.71
_exptl_crystal_colour            red
_exptl_crystal_description       block
_cell_formula_units_Z            2
loop_
_atom_site_label
_atom_site_type_symbol
_atom_site_fract_x
_atom_site_fract_y
_atom_site_fract_z
C1 C 0.5987(6) -0.6023(10) 1.0980(3)
C2 C 0.5176(8) -0.5125(11) 1.1177(4)
H1 H 0.5314 -0.3950 1.1254
C3 C 0.4153(9) -0.5968(12) 1.1261(4)
H2 H 0.3621 -0.5366 1.1407
C4 C 0.3920(8) -0.7678(12) 1.1133(4)
H3 H 0.3215 -0.8230 1.1180
C5 C 0.4706(9) -0.8567(11) 1.0937(4)
H4 H 0.4550 -0.9735 1.0851
C6 C 0.5747(7) -0.7741(10) 1.0865(3)
H5 H 0.6297 -0.8367 1.0735
C7 C 0.8298(6) -0.6093(9) 1.1055(3)
C8 C 0.8989(7) -0.6103(9) 1.0703(3)
H6 H 0.8662 -0.5483 1.0368
C9 C 1.0134(8) -0.7010(10) 1.0844(4)
H7 H 1.0601 -0.6966 1.0611
C10 C 1.0612(8) -0.7977(11) 1.1318(5)
H8 H 1.1380 -0.8632 1.1404
C11 C 0.9925(8) -0.7968(11) 1.1674(4)
H9 H 1.0250 -0.8609 1.2005
C12 C 0.8780(7) -0.7033(10) 1.1544(3)
H10 H 0.8333 -0.7036 1.1786
C13 C 0.6824(7) -0.3703(9) 1.0565(3)
C14 C 0.5651(6) -0.3439(9) 1.0109(3)
H11 H 0.4996 -0.4287 1.0018
C15 C 0.5406(7) -0.1976(10) 0.9782(3)
H12 H 0.4595 -0.1846 0.9480
C16 C 0.6354(7) -0.0704(9) 0.9901(3)
C17 C 0.7513(7) -0.0924(9) 1.0350(3)
H13 H 0.8170 -0.0082 1.0431
C18 C 0.7751(7) -0.2381(10) 1.0696(3)
H14 H 0.8534 -0.2463 1.1015
C19 C 0.6102(7) 0.0898(10) 0.9567(3)
C20 C 0.4881(7) 0.1794(9) 0.9365(3)
C21 C 0.4653(7) 0.3362(8) 0.9062(3)
C22 C 0.5633(7) 0.4086(10) 0.8920(3)
C23 C 0.6842(7) 0.3260(9) 0.9113(3)
H15 H 0.7529 0.3741 0.9033
C24 C 0.7084(7) 0.1747(10) 0.9422(3)
H16 H 0.7927 0.1260 0.9542
C25 C 0.2822(6) 0.2764(9) 0.9212(3)
C26 C 0.1470(7) 0.2824(10) 0.9234(4)
H17 H 0.1489 0.3586 0.9531
H18 H 0.1222 0.1684 0.9304
H19 H 0.0835 0.3239 0.8881
C27 C 0.5392(7) 0.5656(9) 0.8573(3)
C28 C 0.4184(6) 0.5944(9) 0.8110(3)
H20 H 0.3513 0.5122 0.8024
C29 C 0.3967(6) 0.7417(9) 0.7779(3)
H21 H 0.3151 0.7594 0.7483
C30 C 0.4991(7) 0.8635(10) 0.7895(3)
C31 C 0.6200(7) 0.8419(10) 0.8351(3)
H22 H 0.6871 0.9240 0.8436
C32 C 0.6366(7) 0.6943(10) 0.8674(3)
H23 H 0.7173 0.6793 0.8978
C33 C 0.5839(6) 1.1035(10) 0.7496(3)
C34 C 0.6080(7) 1.2743(11) 0.7640(3)
H24 H 0.5542 1.3324 0.7787
C35 C 0.7100(8) 1.3607(11) 0.7572(4)
H25 H 0.7253 1.4764 0.7675
C36 C 0.7901(10) 1.2776(15) 0.7351(5)
H26 H 0.8590 1.3367 0.7302
C37 C 0.7676(9) 1.1085(15) 0.7205(4)
H27 H 0.8216 1.0517 0.7056
C38 C 0.6629(7) 1.0175(10) 0.7276(3)
H28 H 0.6478 0.9016 0.7177
C39 C 0.3536(6) 1.1078(9) 0.7409(3)
C40 C 0.3028(7) 1.1976(9) 0.6906(3)
H29 H 0.3472 1.1925 0.6664
C41 C 0.1868(8) 1.2958(10) 0.6753(4)
H30 H 0.1563 1.3593 0.6421
C42 C 0.1192(8) 1.2971(10) 0.7097(4)
H31 H 0.0404 1.3593 0.6994
C43 C 0.1662(8) 1.2076(10) 0.7595(4)
H32 H 0.1194 1.2108 0.7829
C44 C 0.2842(6) 1.1114(9) 0.7756(3)
H33 H 0.3154 1.0506 0.8093
N1 N 0.7057(5) -0.5190(8) 1.0909(2)
N2 N 0.4735(6) 1.0151(8) 0.7563(2)
N3 N 0.3354(5) 0.3944(6) 0.89724(19)
N4 N 0.3706(5) 0.1439(6) 0.9447(2)
H34 H 0.3565 0.0547 0.9614
C45 C 0.1909(14) 0.794(2) 0.0173(5)
H35 H 0.2413 0.6876 0.0276
H36 H 0.2171 0.8657 0.0508
C46 C 0.0600(13) 0.756(2) 0.0004(6)
H37 H 0.0091 0.8328 -0.0295
H38 H 0.0332 0.7702 0.0315
H39 H 0.0449 0.6390 -0.0127
O1 O 0.2251(5) 0.8812(7) -0.0235(2)
H40 H 0.2230 0.8134 -0.0482
C47 C -0.0233(10) 0.763(2) 0.8280(6)
H41 H -0.0167 0.8799 0.8412
H42 H -0.0484 0.6890 0.8521
H43 H -0.0892 0.7563 0.7903
C48 C 0.0974(12) 0.7109(18) 0.8286(4)
H44 H 0.1245 0.7907 0.8061
H45 H 0.0870 0.5978 0.8112
O2 O 0.1970(5) 0.7021(7) 0.8820(2)
H46 H 0.2513 0.6235 0.8819
loop_
_geom_bond_atom_site_label_1
_geom_bond_atom_site_label_2
_geom_bond_site_symmetry_1
_geom_bond_site_symmetry_2
C1 C2 1_555 1_555
C2 H1 1_555 1_555
C3 C2 1_555 1_555
H2 C3 1_555 1_555
C4 C3 1_555 1_555
H3 C4 1_555 1_555
C5 C4 1_555 1_555
H4 C5 1_555 1_555
C6 C1 1_555 1_555
H5 C6 1_555 1_555
C7 C8 1_555 1_555
C8 H6 1_555 1_555
C9 C8 1_555 1_555
H7 C9 1_555 1_555
C10 C9 1_555 1_555
H8 C10 1_555 1_555
C11 C10 1_555 1_555
H9 C11 1_555 1_555
C12 C7 1_555 1_555
H10 C12 1_555 1_555
C13 C14 1_555 1_555
C14 H11 1_555 1_555
C15 C14 1_555 1_555
H12 C15 1_555 1_555
C16 C15 1_555 1_555
C17 C16 1_555 1_555
H13 C17 1_555 1_555
C18 C13 1_555 1_555
H14 C18 1_555 1_555
C19 C16 1_555 1_555
C20 C19 1_555 1_555
C21 C20 1_555 1_555
C22 C21 1_555 1_555
C23 C22 1_555 1_555
H15 C23 1_555 1_555
C24 C19 1_555 1_555
H16 C24 1_555 1_555
C25 C26 1_555 1_555
C26 H17 1_555 1_555
H18 C26 1_555 1_555
H19 C26 1_555 1_555
C27 C22 1_555 1_555
C28 C27 1_555 1_555
H20 C28 1_555 1_555
C29 C28 1_555 1_555
H21 C29 1_555 1_555
C30 C29 1_555 1_555
C31 C30 1_555 1_555
H22 C31 1_555 1_555
C32 C27 1_555 1_555
H23 C32 1_555 1_555
C33 C34 1_555 1_555
C34 H24 1_555 1_555
C35 C34 1_555 1_555
H25 C35 1_555 1_555
C36 C35 1_555 1_555
H26 C36 1_555 1_555
C37 C36 1_555 1_555
H27 C37 1_555 1_555
C38 C33 1_555 1_555
H28 C38 1_555 1_555
C39 C40 1_555 1_555
C40 H29 1_555 1_555
C41 C40 1_555 1_555
H30 C41 1_555 1_555
C42 C41 1_555 1_555
H31 C42 1_555 1_555
C43 C42 1_555 1_555
H32 C43 1_555 1_555
C44 C39 1_555 1_555
H33 C44 1_555 1_555
N1 C1 1_555 1_555
N2 C30 1_555 1_555
N3 C21 1_555 1_555
N4 C20 1_555 1_555
H34 N4 1_555 1_555
C45 H35 1_555 1_555
H36 C45 1_555 1_555
C46 C45 1_555 1_555
H37 C46 1_555 1_555
H38 C46 1_555 1_555
H39 C46 1_555 1_555
O1 C45 1_555 1_555
H40 O1 1_555 1_555
C47 H41 1_555 1_555
H42 C47 1_555 1_555
H43 C47 1_555 1_555
C48 C47 1_555 1_555
H44 C48 1_555 1_555
H45 C48 1_555 1_555
O2 C48 1_555 1_555
H46 O2 1_555 1_555
C5 C6 1_555 1_555
C7 N1 1_555 1_555
C11 C12 1_555 1_555
C13 N1 1_555 1_555
C17 C18 1_555 1_555
C23 C24 1_555 1_555
C25 N3 1_555 1_555
C25 N4 1_555 1_555
C31 C32 1_555 1_555
C33 N2 1_555 1_555
C37 C38 1_555 1_555
C39 N2 1_555 1_555
C43 C44 1_555 1_555

#END
