
#######################################################################
#
#                 Cambridge Crystallographic Data Centre
#                                CCDC 
#
#######################################################################
#
# If this CIF has been generated from an entry in the Cambridge 
# Structural Database, then it will include bibliographic, chemical, 
# crystal, experimental, refinement or atomic coordinate data resulting 
# from the CCDC's data processing and validation procedures.
#
#######################################################################

data_DITJUN
_chemical_formula_moiety         'C60 H18 F20 N6,1.33(C6 H14),1.17(C1 H1 Cl3)'
_chemical_name_systematic        
'6,11,21,26-Tetrakis(pentafluorophenyl)-37,38,39,40,41,42-hexaazanonacyclo[14.14.5.1^2,5^.1^7,10^.1^12,15^.1^17,20^.1^22,25^.1^27,30^.1^31,35^]dotetraconta-1,3,5(42),6,8,10,12(40),13,15,17(39),18,20,22,24,26,28,30(37),31,33,35-icosaene n-hexane chloroform solvate'
_symmetry_cell_setting           triclinic
_symmetry_space_group_name_H-M   'P -1'
_symmetry_Int_Tables_number      2
_space_group_name_Hall           '-P 1'
loop_
_symmetry_equiv_pos_site_id
_symmetry_equiv_pos_as_xyz
1 x,y,z
2 -x,-y,-z
_cell_length_a                   18.8577(3)
_cell_length_b                   20.0669(4)
_cell_length_c                   20.2441(4)
_cell_angle_alpha                66.1520(8)
_cell_angle_beta                 62.6962(8)
_cell_angle_gamma                78.0242(8)
_cell_volume                     6223.7
_exptl_crystal_colour            violet
_exptl_crystal_description       prism
_cell_formula_units_Z            4
loop_
_atom_site_label
_atom_site_type_symbol
_atom_site_fract_x
_atom_site_fract_y
_atom_site_fract_z
C1 C 0.3519(6) 0.6314(3) 0.5147(3)
C2 C 0.3843(5) 0.6146(3) 0.4460(4)
C3 C 0.4171(4) 0.6692(4) 0.3719(3)
C4 C 0.4174(4) 0.7404(3) 0.3664(3)
C5 C 0.3850(4) 0.7571(3) 0.4351(4)
C6 C 0.3523(4) 0.7026(3) 0.5092(4)
F1 F 0.3845(5) 0.5486(4) 0.4487(6)
F2 F 0.4470(4) 0.6537(4) 0.3049(3)
F3 F 0.4448(3) 0.7938(4) 0.2956(4)
F4 F 0.3832(3) 0.8256(3) 0.4300(6)
F5 F 0.3183(5) 0.7203(4) 0.5729(6)
C7 C -0.32231(16) 0.52514(16) 0.8382(2)
C8 C -0.3463(2) 0.50952(17) 0.7907(2)
C9 C -0.4083(2) 0.5500(2) 0.77194(19)
C10 C -0.44617(16) 0.60612(19) 0.8007(2)
C11 C -0.42214(18) 0.62174(16) 0.8482(2)
C12 C -0.36022(19) 0.58125(18) 0.86700(18)
F6 F -0.3131(2) 0.45576(18) 0.7647(2)
F7 F -0.43275(19) 0.5351(2) 0.72741(19)
F8 F -0.50392(17) 0.6476(2) 0.78038(19)
F9 F -0.46018(17) 0.67502(17) 0.87686(19)
F10 F -0.33796(16) 0.59841(16) 0.91094(17)
F11 F -0.23418(16) 0.15288(15) 1.17722(17)
F12 F -0.33353(18) 0.09512(17) 1.33192(19)
F13 F -0.4318(2) 0.1821(2) 1.41235(19)
F14 F -0.4250(2) 0.3287(2) 1.3382(2)
F15 F -0.32315(19) 0.38801(16) 1.18639(19)
F16 F 0.42247(16) 0.26607(16) 0.83964(19)
F17 F 0.53093(16) 0.22075(16) 0.90022(19)
F18 F 0.56760(17) 0.30773(18) 0.95446(19)
F19 F 0.49211(16) 0.43990(17) 0.94705(17)
F20 F 0.38329(17) 0.48568(15) 0.88578(18)
C13 C 0.2624(2) 0.3625(2) 0.8874(3)
C14 C 0.2417(3) 0.3249(3) 0.9716(3)
H1 H 0.2755 0.3165 0.9976
C15 C 0.1654(3) 0.3041(3) 1.0064(3)
H2 H 0.1342 0.2802 1.0615
C16 C 0.1406(3) 0.3261(2) 0.9415(3)
C17 C 0.0675(3) 0.3164(2) 0.9440(3)
C18 C -0.0065(3) 0.2995(2) 1.0107(3)
C19 C -0.0238(3) 0.2697(2) 1.0951(3)
H3 H 0.0137 0.2569 1.1177
C20 C -0.1038(3) 0.2638(2) 1.1347(3)
H4 H -0.1336 0.2445 1.1907
C21 C -0.1358(3) 0.2933(2) 1.0740(3)
C22 C -0.2163(3) 0.3054(3) 1.0904(3)
C23 C -0.2497(3) 0.3478(3) 1.0359(3)
C24 C -0.3326(3) 0.3566(3) 1.0538(3)
H5 H -0.3745 0.3319 1.1029
C25 C -0.3415(3) 0.4068(3) 0.9877(3)
H6 H -0.3907 0.4228 0.9833
C26 C -0.2654(3) 0.4308(3) 0.9275(3)
C27 C -0.2497(3) 0.4852(3) 0.8524(3)
C28 C -0.1758(3) 0.5086(3) 0.7903(3)
C29 C -0.1621(3) 0.5725(3) 0.7170(3)
H7 H -0.2017 0.6034 0.7017
C30 C -0.0832(3) 0.5785(3) 0.6762(3)
H8 H -0.0554 0.6155 0.6271
C31 C -0.0475(3) 0.5160(2) 0.7227(3)
C32 C 0.0337(3) 0.4963(3) 0.7062(3)
C33 C 0.0990(3) 0.5415(3) 0.6558(3)
C34 C 0.1055(3) 0.6125(3) 0.5945(3)
H9 H 0.0640 0.6401 0.5801
C35 C 0.1818(3) 0.6316(3) 0.5619(3)
H10 H 0.2056 0.6744 0.5182
C36 C 0.2210(3) 0.5736(2) 0.6070(3)
C37 C 0.3005(3) 0.5756(3) 0.5954(3)
C38 C 0.3356(3) 0.5305(3) 0.6463(3)
C39 C 0.4160(3) 0.5331(3) 0.6343(3)
H11 H 0.4559 0.5642 0.5885
C40 C 0.4257(3) 0.4841(3) 0.6988(3)
H12 H 0.4738 0.4745 0.7059
C41 C 0.3509(3) 0.4485(3) 0.7555(3)
C42 C 0.3347(3) 0.3982(2) 0.8314(3)
C43 C 0.0677(2) 0.3330(2) 0.8650(3)
C44 C 0.0478(3) 0.4024(3) 0.8247(3)
H13 H 0.0320 0.4385 0.8483
C45 C 0.0507(3) 0.4200(2) 0.7505(3)
C46 C 0.0711(4) 0.3675(3) 0.7176(3)
H14 H 0.0728 0.3791 0.6665
C47 C 0.0893(5) 0.2975(3) 0.7590(4)
H15 H 0.1021 0.2605 0.7369
C48 C 0.0891(4) 0.2807(3) 0.8322(3)
H16 H 0.1038 0.2330 0.8595
C49 C -0.2753(3) 0.2733(3) 1.1756(3)
C50 C -0.2799(3) 0.1976(3) 1.2158(3)
C51 C -0.3311(3) 0.1675(3) 1.2946(3)
C52 C -0.3799(3) 0.2116(4) 1.3349(3)
C53 C -0.3772(3) 0.2855(3) 1.2975(3)
C54 C -0.3250(3) 0.3155(3) 1.2195(3)
C55 C 0.4000(3) 0.3782(3) 0.8594(3)
C56 C 0.4396(3) 0.3109(3) 0.8643(3)
C57 C 0.4952(3) 0.2866(3) 0.8958(3)
C58 C 0.5136(3) 0.3310(3) 0.9225(3)
C59 C 0.4759(3) 0.3973(3) 0.9192(3)
C60 C 0.4200(3) 0.4210(3) 0.8875(3)
N1 N 0.2016(2) 0.3616(2) 0.8695(2)
N2 N -0.0752(2) 0.31271(19) 1.0000(2)
N3 N -0.2102(2) 0.3930(2) 0.9581(2)
H17 H -0.1581 0.3973 0.9320
N4 N -0.1049(2) 0.4750(2) 0.7904(2)
N5 N 0.1710(2) 0.5196(2) 0.6617(2)
N6 N 0.2989(2) 0.4773(2) 0.7190(2)
H18 H 0.2496 0.4635 0.7394
C67 C 0.2751(5) 0.2228(8) 0.4987(8)
C68 C 0.2769(7) 0.1575(8) 0.5590(8)
C69 C 0.3368(8) 0.1434(7) 0.5851(7)
C70 C 0.3950(6) 0.1946(8) 0.5509(7)
C71 C 0.3932(5) 0.2598(8) 0.4906(6)
C72 C 0.3333(5) 0.2739(7) 0.4645(6)
F26 F 0.2269(7) 0.1086(9) 0.5851(10)
F27 F 0.3376(6) 0.0819(7) 0.6411(6)
F28 F 0.4485(5) 0.1816(8) 0.5793(6)
F29 F 0.4443(5) 0.3102(9) 0.4629(6)
F30 F 0.3311(8) 0.3355(7) 0.4083(8)
F31 F 0.36593(19) -0.00307(17) 0.0671(2)
F32 F 0.4872(2) -0.0415(2) -0.0500(3)
F33 F 0.5126(2) 0.0352(3) -0.2046(3)
F34 F 0.4100(2) 0.1469(2) -0.2397(2)
F35 F 0.29088(17) 0.18673(17) -0.12177(17)
F36 F -0.07832(18) -0.07346(15) 0.28537(19)
F37 F -0.17825(18) -0.14507(15) 0.27824(19)
F38 F -0.23555(18) -0.08138(17) 0.16553(18)
F39 F -0.1883(2) 0.05393(17) 0.05664(19)
F40 F -0.08625(17) 0.12610(14) 0.06242(16)
F41 F -0.07632(16) 0.10275(15) 0.72467(16)
F42 F -0.19633(17) 0.08049(16) 0.87017(16)
F43 F -0.32096(16) 0.17589(18) 0.89296(16)
F44 F -0.32623(17) 0.29674(17) 0.76677(17)
F45 F -0.21000(17) 0.31699(15) 0.62057(16)
C73 C 0.2491(3) 0.2341(3) 0.3823(3)
C74 C 0.3312(3) 0.2113(3) 0.3406(3)
H19 H 0.3729 0.2013 0.3575
C75 C 0.3365(3) 0.2071(3) 0.2743(3)
H20 H 0.3820 0.1921 0.2358
C76 C 0.2582(3) 0.2303(2) 0.2727(3)
C77 C 0.2319(3) 0.2327(2) 0.2180(3)
C78 C 0.2719(3) 0.2031(2) 0.1567(3)
C79 C 0.3580(3) 0.1929(3) 0.1109(3)
H21 H 0.4008 0.2050 0.1162
C80 C 0.3636(3) 0.1632(3) 0.0602(3)
H22 H 0.4115 0.1517 0.0210
C81 C 0.2825(3) 0.1516(2) 0.0762(3)
C82 C 0.2613(3) 0.1177(2) 0.0409(3)
C83 C 0.1828(3) 0.1000(2) 0.0615(3)
C84 C 0.1645(3) 0.0639(3) 0.0248(3)
H23 H 0.2014 0.0510 -0.0197
C85 C 0.0841(3) 0.0503(3) 0.0642(3)
H24 H 0.0559 0.0263 0.0518
C86 C 0.0510(3) 0.0783(3) 0.1264(3)
C87 C -0.0291(3) 0.0710(2) 0.1829(3)
C88 C -0.0661(3) 0.0966(2) 0.2464(3)
C89 C -0.1478(3) 0.0841(3) 0.3065(3)
H25 H -0.1864 0.0578 0.3096
C90 C -0.1583(3) 0.1166(3) 0.3564(3)
H26 H -0.2051 0.1165 0.4030
C91 C -0.0827(3) 0.1529(2) 0.3250(3)
C92 C -0.0605(3) 0.1942(2) 0.3545(3)
C93 C -0.0935(3) 0.1910(3) 0.4326(3)
C94 C -0.1700(3) 0.1622(3) 0.4991(3)
H27 H -0.2091 0.1398 0.4980
C95 C -0.1737(3) 0.1737(3) 0.5611(3)
H28 H -0.2169 0.1623 0.6124
C96 C -0.0990(3) 0.2072(3) 0.5357(3)
C97 C -0.0749(3) 0.2215(2) 0.5847(3)
C98 C 0.0021(3) 0.2381(2) 0.5661(3)
C99 C 0.0267(3) 0.2490(3) 0.6181(3)
H29 H -0.0077 0.2526 0.6686
C100 C 0.1071(3) 0.2534(3) 0.5833(3)
H30 H 0.1386 0.2602 0.6055
C101 C 0.1373(3) 0.2458(3) 0.5073(3)
C102 C 0.2171(3) 0.2393(3) 0.4581(3)
C103 C 0.1490(3) 0.2610(2) 0.2296(3)
C104 C 0.0855(3) 0.2170(3) 0.2863(3)
H31 H 0.0946 0.1692 0.3185
C105 C 0.0081(3) 0.2419(2) 0.2966(3)
C106 C -0.0046(3) 0.3124(2) 0.2511(3)
H32 H -0.0575 0.3301 0.2585
C107 C 0.0592(3) 0.3574(3) 0.1947(3)
H33 H 0.0503 0.4057 0.1634
C108 C 0.1363(3) 0.3309(3) 0.1846(3)
H34 H 0.1804 0.3613 0.1463
C109 C 0.3264(3) 0.0939(3) -0.0236(3)
C110 C 0.3770(3) 0.0364(3) -0.0088(4)
C111 C 0.4400(3) 0.0153(4) -0.0685(5)
C112 C 0.4506(4) 0.0539(4) -0.1456(5)
C113 C 0.4010(3) 0.1106(4) -0.1643(4)
C114 C 0.3397(3) 0.1305(3) -0.1035(3)
C115 C -0.0804(3) 0.0294(3) 0.1753(3)
C116 C -0.1044(3) -0.0405(3) 0.2281(3)
C117 C -0.1559(3) -0.0778(3) 0.2243(3)
C118 C -0.1846(3) -0.0456(3) 0.1680(3)
C119 C -0.1605(3) 0.0224(3) 0.1131(3)
C120 C -0.1083(3) 0.0595(3) 0.1164(3)
C121 C -0.1370(3) 0.2118(2) 0.6680(3)
C122 C -0.1373(3) 0.1522(3) 0.7330(3)
C123 C -0.1984(3) 0.1398(3) 0.8081(3)
C124 C -0.2623(3) 0.1879(3) 0.8201(3)
C125 C -0.2647(3) 0.2480(3) 0.7562(3)
C126 C -0.2039(3) 0.2590(3) 0.6818(3)
N7 N 0.2068(2) 0.2461(2) 0.3398(2)
N8 N 0.2287(2) 0.1788(2) 0.1342(2)
N9 N 0.1125(2) 0.1092(2) 0.1223(2)
H35 H 0.1075 0.1315 0.1538
N10 N -0.0288(2) 0.1398(2) 0.2588(2)
N11 N -0.0525(2) 0.2180(2) 0.4578(2)
N12 N 0.0703(2) 0.2395(2) 0.4977(2)
H36 H 0.0714 0.2367 0.4549
C133 C -0.1134(4) 0.2467(3) 0.8773(4)
H37 H -0.0853 0.2706 0.8931
Cl1 Cl -0.12396(10) 0.30956(8) 0.79110(10)
Cl2 Cl -0.05654(11) 0.16876(9) 0.85889(11)
Cl3 Cl -0.20817(11) 0.22026(10) 0.95550(10)
C134 C 0.7008(6) 0.6532(6) 0.3428(7)
H38 H 0.7341 0.6310 0.3013
Cl4 Cl 0.71510(15) 0.74495(15) 0.30111(15)
Cl5 Cl 0.72999(18) 0.61220(15) 0.4230(2)
Cl6 Cl 0.60070(16) 0.6332(2) 0.3792(3)
C136 C 0.1293(4) 0.0568(4) 0.4987(4)
H40 H 0.1703 0.0261 0.5162
H41 H 0.1459 0.1081 0.4701
C137 C 0.0514(5) 0.0492(4) 0.5631(5)
H42 H 0.0518 0.0657 0.6024
H43 H 0.0366 -0.0021 0.5883
H44 H 0.0125 0.0788 0.5427
C138 C 0.1918(5) 0.0254(5) 0.3674(5)
H45 H 0.2156 0.0740 0.3418
H46 H 0.2297 -0.0108 0.3855
C139 C 0.1074(9) 0.0253(5) 0.4455(7)
H47 H 0.0869 -0.0247 0.4771
H48 H 0.0665 0.0571 0.4286
C140 C 0.1810(6) 0.0075(5) 0.3049(6)
H49 H 0.1495 -0.0371 0.3323
H50 H 0.1502 0.0478 0.2807
C141 C 0.2552(12) -0.0036(7) 0.2426(8)
H51 H 0.2440 -0.0147 0.2054
H52 H 0.2856 -0.0443 0.2658
H53 H 0.2863 0.0408 0.2141
C142 C 0.0402(6) 0.4865(5) 0.5009(5)
H54 H 0.0512 0.4370 0.4983
H55 H 0.0374 0.4823 0.5525
C143 C 0.1101(7) 0.5346(5) 0.4340(6)
H56 H 0.1144 0.5374 0.3824
H57 H 0.0987 0.5845 0.4356
C144 C 0.1896(7) 0.5077(6) 0.4385(7)
H58 H 0.2313 0.5415 0.3946
H59 H 0.2027 0.4592 0.4347
H60 H 0.1862 0.5052 0.4893
C142A C -0.0402(6) 0.5135(5) 0.4991(5)
H54A H -0.0512 0.5630 0.5017
H55A H -0.0374 0.5177 0.4475
C143A C -0.1101(7) 0.4654(5) 0.5660(6)
H56A H -0.1144 0.4626 0.6176
H57A H -0.0987 0.4155 0.5644
C144A C -0.1896(7) 0.4923(6) 0.5615(7)
H58A H -0.2313 0.4585 0.6054
H59A H -0.2027 0.5408 0.5653
H60A H -0.1862 0.4948 0.5107
C145 C 0.9824(8) 0.4813(5) 0.0409(7)
H61 H 0.9942 0.5058 0.0682
H62 H 1.0054 0.4311 0.0532
C146 C 0.8888(8) 0.4779(6) 0.0730(10)
H63 H 0.8660 0.5280 0.0589
H64 H 0.8769 0.4516 0.0472
C147 C 0.8496(7) 0.4388(7) 0.1643(9)
H65 H 0.7917 0.4375 0.1826
H66 H 0.8606 0.4652 0.1900
H67 H 0.8715 0.3888 0.1783
C145A C 1.0176(8) 0.5187(5) -0.0409(7)
H61A H 1.0058 0.4942 -0.0682
H62A H 0.9946 0.5689 -0.0532
C146A C 1.1112(8) 0.5221(6) -0.0730(10)
H63A H 1.1340 0.4720 -0.0589
H64A H 1.1231 0.5484 -0.0472
C147A C 1.1504(7) 0.5612(7) -0.1643(9)
H65A H 1.2083 0.5625 -0.1826
H66A H 1.1394 0.5348 -0.1900
H67A H 1.1285 0.6112 -0.1783
C149 C 0.3669(11) 0.0024(8) 0.4540(10)
H69 H 0.3239 0.0113 0.5009
H70 H 0.3713 -0.0498 0.4631
H71 H 0.3551 0.0296 0.4075
C150 C 0.5062(7) 0.0607(14) 0.3148(19)
H72 H 0.5117 0.0991 0.3309
H73 H 0.4575 0.0743 0.3048
C151 C 0.490(2) 0.0083(11) 0.3724(17)
H74 H 0.5381 -0.0115 0.3820
H75 H 0.4712 -0.0290 0.3638
C152 C 0.4277(11) 0.0218(12) 0.4427(13)
H76 H 0.4404 -0.0055 0.4892
H77 H 0.4238 0.0744 0.4341
C153 C 0.5760(13) 0.0722(10) 0.2317(15)
H78 H 0.5813 0.0247 0.2255
H79 H 0.6231 0.0740 0.2403
C154 C 0.5978(13) 0.1359(10) 0.1342(13)
H80 H 0.6499 0.1235 0.0974
H81 H 0.5990 0.1849 0.1332
H82 H 0.5566 0.1347 0.1181
C61? C 0.3406(15) 0.6428(9) 0.5350(12)
C62? C 0.3811(14) 0.6413(11) 0.4584(14)
C63? C 0.4130(14) 0.7047(14) 0.3943(11)
C64? C 0.4045(13) 0.7697(11) 0.4068(13)
C65? C 0.3641(12) 0.7712(9) 0.4834(15)
C66? C 0.3321(15) 0.7078(11) 0.5475(12)
F21? F 0.2924(13) 0.7144(11) 0.6165(13)
F22? F 0.3556(10) 0.8360(8) 0.4945(16)
F23? F 0.397(2) 0.582(2) 0.4451(18)
F24? F 0.4330(13) 0.8358(14) 0.3481(16)
F25? F 0.456(2) 0.702(3) 0.3228(13)
C127? C 0.2801(8) 0.2449(11) 0.4788(10)
C128? C 0.2958(12) 0.1806(11) 0.5323(10)
C129? C 0.3538(13) 0.1783(15) 0.5576(12)
C130? C 0.3960(10) 0.2404(19) 0.5294(14)
C131? C 0.3803(10) 0.3047(16) 0.4759(13)
C132? C 0.3224(10) 0.3070(12) 0.4506(11)
F46? F 0.3107(11) 0.3686(11) 0.3988(10)
F47? F 0.4256(9) 0.3660(17) 0.4441(9)
F48? F 0.2599(19) 0.1195(15) 0.5653(19)
F49? F 0.4576(10) 0.238(2) 0.5491(16)
F50? F 0.373(2) 0.1201(18) 0.608(2)
C135? C 0.2835(17) -0.0100(18) 0.255(2)
H39? H 0.3101 0.0290 0.2022
Cl7? Cl 0.1863(6) -0.0034(4) 0.2660(6)
Cl8? Cl 0.3354(4) -0.0877(4) 0.2393(4)
Cl9? Cl 0.2974(5) 0.0171(4) 0.3177(5)
C148? C 0.552(4) 0.1058(17) 0.1832(17)
H68? H 0.4986 0.0854 0.2024
Cl10? Cl 0.6177(12) 0.0424(10) 0.2188(10)
Cl11? Cl 0.6036(10) 0.1377(9) 0.0810(10)
Cl12? Cl 0.5456(8) 0.1792(7) 0.2098(8)
loop_
_geom_bond_atom_site_label_1
_geom_bond_atom_site_label_2
_geom_bond_site_symmetry_1
_geom_bond_site_symmetry_2
C1 C2 1_555 1_555
C2 C3 1_555 1_555
C3 C4 1_555 1_555
C4 C5 1_555 1_555
C5 C6 1_555 1_555
C6 C1 1_555 1_555
F1 C2 1_555 1_555
F2 C3 1_555 1_555
F3 C4 1_555 1_555
F4 C5 1_555 1_555
F5 C6 1_555 1_555
C7 C8 1_555 1_555
C8 C9 1_555 1_555
C9 C10 1_555 1_555
C10 C11 1_555 1_555
C11 C12 1_555 1_555
C12 C7 1_555 1_555
F6 C8 1_555 1_555
F7 C9 1_555 1_555
F8 C10 1_555 1_555
F9 C11 1_555 1_555
F10 C12 1_555 1_555
F11 C50 1_555 1_555
F12 C51 1_555 1_555
F13 C52 1_555 1_555
F14 C53 1_555 1_555
F15 C54 1_555 1_555
F16 C56 1_555 1_555
F17 C57 1_555 1_555
F18 C58 1_555 1_555
F19 C59 1_555 1_555
F20 C60 1_555 1_555
C13 C14 1_555 1_555
C14 H1 1_555 1_555
C15 C14 1_555 1_555
H2 C15 1_555 1_555
C16 C15 1_555 1_555
C17 C16 1_555 1_555
C18 C17 1_555 1_555
C19 C18 1_555 1_555
H3 C19 1_555 1_555
C20 C19 1_555 1_555
H4 C20 1_555 1_555
C21 C20 1_555 1_555
C22 C21 1_555 1_555
C23 C22 1_555 1_555
C24 C23 1_555 1_555
H5 C24 1_555 1_555
C25 C24 1_555 1_555
H6 C25 1_555 1_555
C26 C25 1_555 1_555
C27 C7 1_555 1_555
C28 C27 1_555 1_555
C29 C28 1_555 1_555
H7 C29 1_555 1_555
C30 C29 1_555 1_555
H8 C30 1_555 1_555
C31 C30 1_555 1_555
C32 C31 1_555 1_555
C33 C32 1_555 1_555
C34 C33 1_555 1_555
H9 C34 1_555 1_555
C35 C34 1_555 1_555
H10 C35 1_555 1_555
C36 C35 1_555 1_555
C37 C1 1_555 1_555
C38 C37 1_555 1_555
C39 C38 1_555 1_555
H11 C39 1_555 1_555
C40 C39 1_555 1_555
H12 C40 1_555 1_555
C41 C40 1_555 1_555
C42 C13 1_555 1_555
C43 C17 1_555 1_555
C44 C43 1_555 1_555
H13 C44 1_555 1_555
C45 C32 1_555 1_555
C46 C45 1_555 1_555
H14 C46 1_555 1_555
C47 C46 1_555 1_555
H15 C47 1_555 1_555
C48 C43 1_555 1_555
H16 C48 1_555 1_555
C49 C22 1_555 1_555
C50 C49 1_555 1_555
C51 C50 1_555 1_555
C52 C51 1_555 1_555
C53 C52 1_555 1_555
C54 C49 1_555 1_555
C55 C42 1_555 1_555
C56 C55 1_555 1_555
C57 C56 1_555 1_555
C58 C57 1_555 1_555
C59 C58 1_555 1_555
C60 C55 1_555 1_555
N1 C13 1_555 1_555
N2 C18 1_555 1_555
N3 C23 1_555 1_555
H17 N3 1_555 1_555
N4 C28 1_555 1_555
N5 C33 1_555 1_555
N6 C38 1_555 1_555
H18 N6 1_555 1_555
C67 C68 1_555 1_555
C68 C69 1_555 1_555
C69 C70 1_555 1_555
C70 C71 1_555 1_555
C71 C72 1_555 1_555
C72 C67 1_555 1_555
F26 C68 1_555 1_555
F27 C69 1_555 1_555
F28 C70 1_555 1_555
F29 C71 1_555 1_555
F30 C72 1_555 1_555
F31 C110 1_555 1_555
F32 C111 1_555 1_555
F33 C112 1_555 1_555
F34 C113 1_555 1_555
F35 C114 1_555 1_555
F36 C116 1_555 1_555
F37 C117 1_555 1_555
F38 C118 1_555 1_555
F39 C119 1_555 1_555
F40 C120 1_555 1_555
F41 C122 1_555 1_555
F42 C123 1_555 1_555
F43 C124 1_555 1_555
F44 C125 1_555 1_555
F45 C126 1_555 1_555
C73 C74 1_555 1_555
C74 H19 1_555 1_555
C75 C74 1_555 1_555
H20 C75 1_555 1_555
C76 C75 1_555 1_555
C77 C76 1_555 1_555
C78 C77 1_555 1_555
C79 C78 1_555 1_555
H21 C79 1_555 1_555
C80 C79 1_555 1_555
H22 C80 1_555 1_555
C81 C80 1_555 1_555
C82 C81 1_555 1_555
C83 C82 1_555 1_555
C84 C83 1_555 1_555
H23 C84 1_555 1_555
C85 C84 1_555 1_555
H24 C85 1_555 1_555
C86 C85 1_555 1_555
C87 C86 1_555 1_555
C88 C87 1_555 1_555
C89 C88 1_555 1_555
H25 C89 1_555 1_555
C90 C89 1_555 1_555
H26 C90 1_555 1_555
C91 C90 1_555 1_555
C92 C91 1_555 1_555
C93 C92 1_555 1_555
C94 C93 1_555 1_555
H27 C94 1_555 1_555
C95 C94 1_555 1_555
H28 C95 1_555 1_555
C96 C95 1_555 1_555
C97 C96 1_555 1_555
C98 C97 1_555 1_555
C99 C98 1_555 1_555
H29 C99 1_555 1_555
C100 C99 1_555 1_555
H30 C100 1_555 1_555
C101 C100 1_555 1_555
C102 C67 1_555 1_555
C103 C77 1_555 1_555
C104 C103 1_555 1_555
H31 C104 1_555 1_555
C105 C92 1_555 1_555
C106 C105 1_555 1_555
H32 C106 1_555 1_555
C107 C106 1_555 1_555
H33 C107 1_555 1_555
C108 C103 1_555 1_555
H34 C108 1_555 1_555
C109 C82 1_555 1_555
C110 C109 1_555 1_555
C111 C110 1_555 1_555
C112 C111 1_555 1_555
C113 C112 1_555 1_555
C114 C109 1_555 1_555
C115 C87 1_555 1_555
C116 C115 1_555 1_555
C117 C116 1_555 1_555
C118 C117 1_555 1_555
C119 C118 1_555 1_555
C120 C115 1_555 1_555
C121 C97 1_555 1_555
C122 C121 1_555 1_555
C123 C122 1_555 1_555
C124 C123 1_555 1_555
C125 C124 1_555 1_555
C126 C121 1_555 1_555
N7 C73 1_555 1_555
N8 C78 1_555 1_555
N9 C83 1_555 1_555
H35 N9 1_555 1_555
N10 C88 1_555 1_555
N11 C93 1_555 1_555
N12 C98 1_555 1_555
H36 N12 1_555 1_555
C133 H37 1_555 1_555
Cl1 C133 1_555 1_555
Cl2 C133 1_555 1_555
Cl3 C133 1_555 1_555
C134 H38 1_555 1_555
Cl4 C134 1_555 1_555
Cl5 C134 1_555 1_555
Cl6 C134 1_555 1_555
C136 H40 1_555 1_555
H41 C136 1_555 1_555
C137 C136 1_555 1_555
H42 C137 1_555 1_555
H43 C137 1_555 1_555
H44 C137 1_555 1_555
C138 H45 1_555 1_555
H46 C138 1_555 1_555
C139 C136 1_555 1_555
H47 C139 1_555 1_555
H48 C139 1_555 1_555
C140 C138 1_555 1_555
H49 C140 1_555 1_555
H50 C140 1_555 1_555
C141 C140 1_555 1_555
H51 C141 1_555 1_555
H52 C141 1_555 1_555
H53 C141 1_555 1_555
C142 H54 1_555 1_555
H55 C142 1_555 1_555
C143 C142 1_555 1_555
H56 C143 1_555 1_555
H57 C143 1_555 1_555
C144 C143 1_555 1_555
H58 C144 1_555 1_555
H59 C144 1_555 1_555
H60 C144 1_555 1_555
C145 H61 1_555 1_555
H62 C145 1_555 1_555
C146 C145 1_555 1_555
H63 C146 1_555 1_555
H64 C146 1_555 1_555
C147 C146 1_555 1_555
H65 C147 1_555 1_555
H66 C147 1_555 1_555
H67 C147 1_555 1_555
C149 H69 1_555 1_555
H70 C149 1_555 1_555
H71 C149 1_555 1_555
C150 H72 1_555 1_555
H73 C150 1_555 1_555
C151 C150 1_555 1_555
H74 C151 1_555 1_555
H75 C151 1_555 1_555
C152 C149 1_555 1_555
H76 C152 1_555 1_555
H77 C152 1_555 1_555
C153 C150 1_555 1_555
H78 C153 1_555 1_555
H79 C153 1_555 1_555
C154 C153 1_555 1_555
H80 C154 1_555 1_555
H81 C154 1_555 1_555
H82 C154 1_555 1_555
C142A C142 1_555 1_555
H54A C142A 1_555 1_555
H55A C142A 1_555 1_555
C143A C142A 1_555 1_555
H56A C143A 1_555 1_555
H57A C143A 1_555 1_555
C144A C143A 1_555 1_555
H58A C144A 1_555 1_555
H59A C144A 1_555 1_555
H60A C144A 1_555 1_555
C145A C145 1_555 1_555
H61A C145A 1_555 1_555
H62A C145A 1_555 1_555
C146A C145A 1_555 1_555
H63A C146A 1_555 1_555
H64A C146A 1_555 1_555
C147A C146A 1_555 1_555
H65A C147A 1_555 1_555
H66A C147A 1_555 1_555
H67A C147A 1_555 1_555
C16 N1 1_555 1_555
C21 N2 1_555 1_555
C26 C27 1_555 1_555
C26 N3 1_555 1_555
C31 N4 1_555 1_555
C36 C37 1_555 1_555
C36 N5 1_555 1_555
C41 C42 1_555 1_555
C41 N6 1_555 1_555
C44 C45 1_555 1_555
C47 C48 1_555 1_555
C53 C54 1_555 1_555
C59 C60 1_555 1_555
C73 C102 1_555 1_555
C76 N7 1_555 1_555
C81 N8 1_555 1_555
C86 N9 1_555 1_555
C91 N10 1_555 1_555
C96 N11 1_555 1_555
C101 C102 1_555 1_555
C101 N12 1_555 1_555
C104 C105 1_555 1_555
C107 C108 1_555 1_555
C113 C114 1_555 1_555
C119 C120 1_555 1_555
C125 C126 1_555 1_555
C138 C139 1_555 1_555
C151 C152 1_555 1_555

#END
