
#######################################################################
#
#                 Cambridge Crystallographic Data Centre
#                                CCDC 
#
#######################################################################
#
# If this CIF has been generated from an entry in the Cambridge 
# Structural Database, then it will include bibliographic, chemical, 
# crystal, experimental, refinement or atomic coordinate data resulting 
# from the CCDC's data processing and validation procedures.
#
#######################################################################

data_DITKAU
_chemical_formula_moiety         'C58 H16 F20 N6 S1,1.75(C6 H14)'
_chemical_name_systematic        
'6,11,21,26-Tetrakis(pentafluorophenyl)-35-thia-36,37,38,39,40,41-hexaazanonacyclo[14.14.4.1^2,5^.1^7,10^.1^12,15^.1^17,20^.1^22,25^.1^27,30^.1^31,34^]hentetraconta-1,3,5(41),6,8,10,12(39),13,15,17(38),18,20,22,24,26,28,30(36),31,33-nonadecaene n-hexane solvate'
_symmetry_cell_setting           monoclinic
_symmetry_space_group_name_H-M   'C 2/m'
_symmetry_Int_Tables_number      12
_space_group_name_Hall           '-C 2y'
loop_
_symmetry_equiv_pos_site_id
_symmetry_equiv_pos_as_xyz
1 x,y,z
2 -x,y,-z
3 1/2+x,1/2+y,z
4 1/2-x,1/2+y,-z
5 -x,-y,-z
6 x,-y,z
7 1/2-x,1/2-y,-z
8 1/2+x,1/2-y,z
_cell_length_a                   18.7976(3)
_cell_length_b                   27.6642(5)
_cell_length_c                   23.9062(4)
_cell_angle_alpha                90
_cell_angle_beta                 103.7880(7)
_cell_angle_gamma                90
_cell_volume                     12073.5
_exptl_crystal_colour            brown
_exptl_crystal_description       prism
_cell_formula_units_Z            8
loop_
_atom_site_label
_atom_site_type_symbol
_atom_site_fract_x
_atom_site_fract_y
_atom_site_fract_z
F1 F 0.49408(12) 0.33947(7) 0.31682(10)
F2 F 0.59327(13) 0.26876(8) 0.34983(11)
F3 F 0.71123(12) 0.26347(8) 0.30401(11)
F4 F 0.73362(14) 0.33273(10) 0.22939(12)
F5 F 0.63654(12) 0.40485(9) 0.19828(11)
F6 F 0.15937(11) 0.38741(7) -0.15812(9)
F7 F 0.12154(12) 0.31168(7) -0.22980(9)
F8 F 0.00331(12) 0.25685(7) -0.22466(10)
F9 F -0.07339(11) 0.27623(8) -0.14504(10)
F10 F -0.03582(12) 0.35264(8) -0.07252(10)
N1 N 0.16970(15) 0.41913(10) 0.02736(13)
N2 N 0.37425(15) 0.41786(10) 0.18484(13)
N3 N 0.4790(2) 0.5000 0.23361(18)
H1 H 0.4345 0.5000 0.2112
N4 N 0.1000(2) 0.5000 -0.05186(17)
H2 H 0.1271 0.5000 -0.0163
C1 C 0.13463(19) 0.39115(13) -0.01794(16)
C2 C 0.15183(19) 0.33989(13) -0.00509(17)
H3 H 0.1330 0.3130 -0.0287
C3 C 0.19932(19) 0.33877(13) 0.04654(16)
H4 H 0.2217 0.3109 0.0664
C4 C 0.21002(19) 0.38869(12) 0.06635(16)
C5 C 0.25781(19) 0.40848(12) 0.11744(15)
C6 C 0.32801(19) 0.39050(12) 0.14426(16)
C7 C 0.3645(2) 0.34646(12) 0.13279(17)
H5 H 0.3444 0.3218 0.1061
C8 C 0.4321(2) 0.34759(12) 0.16726(17)
H6 H 0.4688 0.3234 0.1704
C9 C 0.43857(19) 0.39268(12) 0.19892(16)
C10 C 0.50259(19) 0.41106(12) 0.23573(16)
C11 C 0.51893(19) 0.45880(13) 0.25372(16)
C12 C 0.58596(19) 0.47581(12) 0.29105(16)
H7 H 0.6241 0.4559 0.3123
C13 C 0.03346(17) 0.47547(11) -0.13763(16)
H8 H 0.0092 0.4554 -0.1685
C14 C 0.07562(18) 0.45938(13) -0.08396(16)
C15 C 0.09111(18) 0.41000(12) -0.06863(16)
C16 C 0.23722(18) 0.45573(12) 0.13121(15)
C17 C 0.16605(19) 0.47530(11) 0.12139(14)
H9 H 0.1229 0.4562 0.1154
C18 C 0.5620(2) 0.37428(12) 0.25651(17)
C19 C 0.5531(2) 0.33868(13) 0.29414(18)
C20 C 0.6033(2) 0.30260(13) 0.31132(19)
C21 C 0.6630(2) 0.30022(14) 0.28909(19)
C22 C 0.6745(2) 0.33492(17) 0.2515(2)
C23 C 0.6243(2) 0.37151(15) 0.2356(2)
C24 C 0.06161(19) 0.37294(12) -0.11426(16)
C25 C 0.0999(2) 0.36150(13) -0.15520(17)
C26 C 0.0810(2) 0.32265(13) -0.19169(17)
C27 C 0.0223(2) 0.29450(12) -0.18840(18)
C28 C -0.0173(2) 0.30471(13) -0.14849(19)
C29 C 0.0030(2) 0.34363(13) -0.11224(18)
S1 S 0.30239(7) 0.5000 0.14884(6)
F1E F 0.49408(12) 0.66053(7) 0.31682(10)
F2E F 0.59327(13) 0.73124(8) 0.34983(11)
F3E F 0.71123(12) 0.73653(8) 0.30401(11)
F4E F 0.73362(14) 0.66727(10) 0.22939(12)
F5E F 0.63654(12) 0.59515(9) 0.19828(11)
F6E F 0.15937(11) 0.61259(7) -0.15812(9)
F7E F 0.12154(12) 0.68832(7) -0.22980(9)
F8E F 0.00331(12) 0.74315(7) -0.22466(10)
F9E F -0.07339(11) 0.72377(8) -0.14504(10)
F10E F -0.03582(12) 0.64736(8) -0.07252(10)
N1E N 0.16970(15) 0.58087(10) 0.02736(13)
N2E N 0.37425(15) 0.58214(10) 0.18484(13)
C1E C 0.13463(19) 0.60885(13) -0.01794(16)
C2E C 0.15183(19) 0.66011(13) -0.00509(17)
H3E H 0.1330 0.6870 -0.0287
C3E C 0.19932(19) 0.66123(13) 0.04654(16)
H4E H 0.2217 0.6891 0.0664
C4E C 0.21002(19) 0.61131(12) 0.06635(16)
C5E C 0.25781(19) 0.59152(12) 0.11744(15)
C6E C 0.32801(19) 0.60950(12) 0.14426(16)
C7E C 0.3645(2) 0.65354(12) 0.13279(17)
H5E H 0.3444 0.6782 0.1061
C8E C 0.4321(2) 0.65241(12) 0.16726(17)
H6E H 0.4688 0.6766 0.1704
C9E C 0.43857(19) 0.60732(12) 0.19892(16)
C10E C 0.50259(19) 0.58894(12) 0.23573(16)
C11E C 0.51893(19) 0.54120(13) 0.25372(16)
C12E C 0.58596(19) 0.52419(12) 0.29105(16)
H7E H 0.6241 0.5441 0.3123
C13E C 0.03346(17) 0.52453(11) -0.13763(16)
H8E H 0.0092 0.5446 -0.1685
C14E C 0.07562(18) 0.54062(13) -0.08396(16)
C15E C 0.09111(18) 0.59000(12) -0.06863(16)
C16E C 0.23722(18) 0.54427(12) 0.13121(15)
C17E C 0.16605(19) 0.52470(11) 0.12139(14)
H9E H 0.1229 0.5438 0.1154
C18E C 0.5620(2) 0.62572(12) 0.25651(17)
C19E C 0.5531(2) 0.66132(13) 0.29414(18)
C20E C 0.6033(2) 0.69740(13) 0.31132(19)
C21E C 0.6630(2) 0.69978(14) 0.28909(19)
C22E C 0.6745(2) 0.66508(17) 0.2515(2)
C23E C 0.6243(2) 0.62849(15) 0.2356(2)
C24E C 0.06161(19) 0.62706(12) -0.11426(16)
C25E C 0.0999(2) 0.63850(13) -0.15520(17)
C26E C 0.0810(2) 0.67735(13) -0.19169(17)
C27E C 0.0223(2) 0.70550(12) -0.18840(18)
C28E C -0.0173(2) 0.69529(13) -0.14849(19)
C29E C 0.0030(2) 0.65637(13) -0.11224(18)
F11 F 0.31687(12) 0.15260(8) 0.52485(10)
F12 F 0.24840(13) 0.22360(8) 0.56741(10)
F13 F 0.10230(13) 0.23755(8) 0.52714(11)
F14 F 0.02404(13) 0.17673(9) 0.44631(11)
F15 F 0.09213(11) 0.10510(8) 0.40321(10)
F16 F 0.77561(11) 0.10469(8) 0.37944(9)
F17 F 0.88204(12) 0.16988(8) 0.37941(10)
F18 F 0.87707(11) 0.22607(7) 0.28585(11)
F19 F 0.76543(11) 0.21562(7) 0.19037(10)
F20 F 0.66156(11) 0.14774(7) 0.18857(9)
N5 N 0.52582(15) 0.08239(9) 0.28433(12)
N6 N 0.32357(15) 0.08037(10) 0.36652(13)
N7 N 0.2558(2) 0.0000 0.42051(18)
H10 H 0.2829 0.0000 0.3952
N8 N 0.6308(2) 0.0000 0.27756(17)
H11 H 0.5850 0.0000 0.2805
C30 C 0.65458(19) 0.08909(12) 0.28280(15)
C31 C 0.58873(19) 0.10780(12) 0.29289(15)
C32 C 0.5803(2) 0.15469(11) 0.31763(16)
H12 H 0.6156 0.1799 0.3256
C33 C 0.5128(2) 0.15556(12) 0.32705(16)
H13 H 0.4916 0.1808 0.3445
C34 C 0.47863(19) 0.11000(12) 0.30512(15)
C35 C 0.40841(18) 0.09128(11) 0.30598(15)
C36 C 0.36139(19) 0.11084(12) 0.34056(16)
C37 C 0.34951(19) 0.16117(12) 0.35532(17)
H14 H 0.3712 0.1891 0.3432
C38 C 0.30211(19) 0.16009(12) 0.38919(16)
H15 H 0.2822 0.1871 0.4047
C39 C 0.28694(19) 0.10911(12) 0.39774(16)
C40 C 0.24475(19) 0.09042(12) 0.43266(16)
C41 C 0.23163(19) 0.04101(12) 0.44305(16)
C42 C 0.1909(2) 0.02465(12) 0.48232(17)
H16 H 0.1675 0.0447 0.5048
C43 C 0.74140(18) 0.02472(11) 0.26798(14)
H17 H 0.7809 0.0448 0.2640
C44 C 0.67253(19) 0.04091(12) 0.27489(15)
C45 C 0.38725(18) 0.04450(12) 0.28352(15)
C46 C 0.31647(18) 0.02462(11) 0.27031(14)
H18 H 0.2731 0.0436 0.2622
C47 C 0.2065(2) 0.12685(12) 0.46200(16)
C48 C 0.2440(2) 0.15770(13) 0.50426(17)
C49 C 0.2093(2) 0.19431(13) 0.52606(18)
C50 C 0.1356(3) 0.20150(14) 0.50667(19)
C51 C 0.0960(2) 0.17052(15) 0.46571(19)
C52 C 0.1318(2) 0.13378(14) 0.44425(17)
C53 C 0.71499(19) 0.12497(12) 0.28418(16)
C54 C 0.7723(2) 0.13120(13) 0.33163(18)
C55 C 0.8277(2) 0.16441(14) 0.33199(19)
C56 C 0.8254(2) 0.19257(13) 0.2844(2)
C57 C 0.7688(2) 0.18715(13) 0.23608(19)
C58 C 0.71529(19) 0.15328(12) 0.23618(17)
S2 S 0.45206(7) 0.0000 0.28569(6)
F11E F 0.31687(12) -0.15260(8) 0.52485(10)
F12E F 0.24840(13) -0.22360(8) 0.56741(10)
F13E F 0.10230(13) -0.23755(8) 0.52714(11)
F14E F 0.02404(13) -0.17673(9) 0.44631(11)
F15E F 0.09213(11) -0.10510(8) 0.40321(10)
F16E F 0.77561(11) -0.10469(8) 0.37944(9)
F17E F 0.88204(12) -0.16988(8) 0.37941(10)
F18E F 0.87707(11) -0.22607(7) 0.28585(11)
F19E F 0.76543(11) -0.21562(7) 0.19037(10)
F20E F 0.66156(11) -0.14774(7) 0.18857(9)
N5E N 0.52582(15) -0.08239(9) 0.28433(12)
N6E N 0.32357(15) -0.08037(10) 0.36652(13)
C30E C 0.65458(19) -0.08909(12) 0.28280(15)
C31E C 0.58873(19) -0.10780(12) 0.29289(15)
C32E C 0.5803(2) -0.15469(11) 0.31763(16)
H12E H 0.6156 -0.1799 0.3256
C33E C 0.5128(2) -0.15556(12) 0.32705(16)
H13E H 0.4916 -0.1808 0.3445
C34E C 0.47863(19) -0.11000(12) 0.30512(15)
C35E C 0.40841(18) -0.09128(11) 0.30598(15)
C36E C 0.36139(19) -0.11084(12) 0.34056(16)
C37E C 0.34951(19) -0.16117(12) 0.35532(17)
H14E H 0.3712 -0.1891 0.3432
C38E C 0.30211(19) -0.16009(12) 0.38919(16)
H15E H 0.2822 -0.1871 0.4047
C39E C 0.28694(19) -0.10911(12) 0.39774(16)
C40E C 0.24475(19) -0.09042(12) 0.43266(16)
C41E C 0.23163(19) -0.04101(12) 0.44305(16)
C42E C 0.1909(2) -0.02465(12) 0.48232(17)
H16E H 0.1675 -0.0447 0.5048
C43E C 0.74140(18) -0.02472(11) 0.26798(14)
H17E H 0.7809 -0.0448 0.2640
C44E C 0.67253(19) -0.04091(12) 0.27489(15)
C45E C 0.38725(18) -0.04450(12) 0.28352(15)
C46E C 0.31647(18) -0.02462(11) 0.27031(14)
H18E H 0.2731 -0.0436 0.2622
C47E C 0.2065(2) -0.12685(12) 0.46200(16)
C48E C 0.2440(2) -0.15770(13) 0.50426(17)
C49E C 0.2093(2) -0.19431(13) 0.52606(18)
C50E C 0.1356(3) -0.20150(14) 0.50667(19)
C51E C 0.0960(2) -0.17052(15) 0.46571(19)
C52E C 0.1318(2) -0.13378(14) 0.44425(17)
C53E C 0.71499(19) -0.12497(12) 0.28418(16)
C54E C 0.7723(2) -0.13120(13) 0.33163(18)
C55E C 0.8277(2) -0.16441(14) 0.33199(19)
C56E C 0.8254(2) -0.19257(13) 0.2844(2)
C57E C 0.7688(2) -0.18715(13) 0.23608(19)
C58E C 0.71529(19) -0.15328(12) 0.23618(17)
C59 C 0.0429(8) 0.1732(5) 0.0125(7)
C60 C 0.1763(7) 0.1747(5) 0.0707(6)
C61 C 0.1027(8) 0.1715(7) 0.0548(10)
C59A C -0.0429(8) 0.1732(5) -0.0125(7)
C60A C -0.1763(7) 0.1747(5) -0.0707(6)
C61A C -0.1027(8) 0.1715(7) -0.0548(10)
C62? C 0.2487(6) -0.0073(13) 0.1076(5)
C63? C 0.2083(6) 0.0196(4) 0.0584(5)
C64? C 0.0384(6) -0.0118(6) -0.0715(5)
C65? C 0.1507(5) 0.0142(5) 0.0122(4)
C66? C 0.0950(5) 0.0178(4) -0.0319(4)
C67? C -0.0226(6) -0.0186(4) -0.1107(5)
C68? C 0.4197(6) 0.4727(4) 0.3847(5)
C69? C 0.4520(9) 0.4416(6) 0.4407(6)
C70? C 0.4208(4) 0.4369(3) 0.3399(4)
C71? C 0.4869(8) 0.4842(4) 0.4792(4)
C72? C 0.5188(6) 0.4458(4) 0.5333(4)
C73? C 0.5454(7) 0.4781(4) 0.5921(6)
C74? C 0.1030(9) 0.4834(5) 0.4278(8)
H19? H 0.0813 0.4728 0.3879
H20? H 0.1500 0.4658 0.4401
C75? C 0.0417(6) 0.4160(4) 0.4707(5)
H21? H 0.0372 0.4003 0.4329
H22? H 0.0882 0.4037 0.4953
C76? C 0.0583(6) 0.4640(4) 0.4603(5)
H23? H 0.0100 0.4794 0.4448
H24? H 0.0768 0.4781 0.4992
C77? C 0.1238(8) 0.5340(5) 0.4226(7)
H25? H 0.1568 0.5362 0.3966
H26? H 0.1486 0.5464 0.4606
H27? H 0.0797 0.5533 0.4071
C78? C -0.0081(11) 0.3422(3) 0.5103(7)
H28? H -0.0507 0.3345 0.5257
H29? H 0.0369 0.3365 0.5401
H30? H -0.0084 0.3215 0.4770
C79? C -0.0114(10) 0.3927(4) 0.4928(9)
H31? H -0.0582 0.3966 0.4635
H32? H -0.0163 0.4117 0.5268
loop_
_geom_bond_atom_site_label_1
_geom_bond_atom_site_label_2
_geom_bond_site_symmetry_1
_geom_bond_site_symmetry_2
F1 C19 1_555 1_555
F2 C20 1_555 1_555
F3 C21 1_555 1_555
F4 C22 1_555 1_555
F5 C23 1_555 1_555
F6 C25 1_555 1_555
F7 C26 1_555 1_555
F8 C27 1_555 1_555
F9 C28 1_555 1_555
F10 C29 1_555 1_555
N1 C1 1_555 1_555
N2 C6 1_555 1_555
N3 H1 1_555 1_555
N4 H2 1_555 1_555
C1 C2 1_555 1_555
C2 H3 1_555 1_555
C3 C2 1_555 1_555
H4 C3 1_555 1_555
C4 N1 1_555 1_555
C5 C4 1_555 1_555
C6 C5 1_555 1_555
C7 C6 1_555 1_555
H5 C7 1_555 1_555
C8 C7 1_555 1_555
H6 C8 1_555 1_555
C9 N2 1_555 1_555
C10 C9 1_555 1_555
C11 N3 1_555 1_555
C12 C11 1_555 1_555
H7 C12 1_555 1_555
C13 H8 1_555 1_555
C14 N4 1_555 1_555
C15 C1 1_555 1_555
C16 C5 1_555 1_555
C17 C16 1_555 1_555
H9 C17 1_555 1_555
C18 C10 1_555 1_555
C19 C18 1_555 1_555
C20 C19 1_555 1_555
C21 C20 1_555 1_555
C22 C21 1_555 1_555
C23 C18 1_555 1_555
C24 C15 1_555 1_555
C25 C24 1_555 1_555
C26 C25 1_555 1_555
C27 C26 1_555 1_555
C28 C27 1_555 1_555
C29 C24 1_555 1_555
S1 C16 1_555 1_555
F11 C48 1_555 1_555
F12 C49 1_555 1_555
F13 C50 1_555 1_555
F14 C51 1_555 1_555
F15 C52 1_555 1_555
F16 C54 1_555 1_555
F17 C55 1_555 1_555
F18 C56 1_555 1_555
F19 C57 1_555 1_555
F20 C58 1_555 1_555
N5 C31 1_555 1_555
N6 C36 1_555 1_555
N7 H10 1_555 1_555
N8 H11 1_555 1_555
C30 C31 1_555 1_555
C31 C32 1_555 1_555
C32 H12 1_555 1_555
C33 C32 1_555 1_555
H13 C33 1_555 1_555
C34 N5 1_555 1_555
C35 C34 1_555 1_555
C36 C35 1_555 1_555
C37 C36 1_555 1_555
H14 C37 1_555 1_555
C38 C37 1_555 1_555
H15 C38 1_555 1_555
C39 N6 1_555 1_555
C40 C39 1_555 1_555
C41 N7 1_555 1_555
C42 C41 1_555 1_555
H16 C42 1_555 1_555
C43 H17 1_555 1_555
C44 N8 1_555 1_555
C45 C35 1_555 1_555
C46 C45 1_555 1_555
H18 C46 1_555 1_555
C47 C40 1_555 1_555
C48 C47 1_555 1_555
C49 C48 1_555 1_555
C50 C49 1_555 1_555
C51 C50 1_555 1_555
C52 C47 1_555 1_555
C53 C30 1_555 1_555
C54 C53 1_555 1_555
C55 C54 1_555 1_555
C56 C55 1_555 1_555
C57 C56 1_555 1_555
C58 C53 1_555 1_555
S2 C45 1_555 1_555
C59 C61 1_555 1_555
C60 C61 1_555 1_555
F1E C19E 1_555 1_555
F2E C20E 1_555 1_555
F3E C21E 1_555 1_555
F4E C22E 1_555 1_555
F5E C23E 1_555 1_555
F6E C25E 1_555 1_555
F7E C26E 1_555 1_555
F8E C27E 1_555 1_555
F9E C28E 1_555 1_555
F10E C29E 1_555 1_555
N1E C1E 1_555 1_555
N2E C6E 1_555 1_555
C1E C2E 1_555 1_555
C2E H3E 1_555 1_555
C3E C2E 1_555 1_555
H4E C3E 1_555 1_555
C4E N1E 1_555 1_555
C5E C4E 1_555 1_555
C6E C5E 1_555 1_555
C7E C6E 1_555 1_555
H5E C7E 1_555 1_555
C8E C7E 1_555 1_555
H6E C8E 1_555 1_555
C9E N2E 1_555 1_555
C10E C9E 1_555 1_555
C11E N3 1_555 1_555
C12E C12 1_555 1_555
H7E C12E 1_555 1_555
C13E C13 1_555 1_555
H8E C13E 1_555 1_555
C14E N4 1_555 1_555
C15E C1E 1_555 1_555
C16E S1 1_555 1_555
C17E C17 1_555 1_555
H9E C17E 1_555 1_555
C18E C10E 1_555 1_555
C19E C18E 1_555 1_555
C20E C19E 1_555 1_555
C21E C20E 1_555 1_555
C22E C21E 1_555 1_555
C23E C18E 1_555 1_555
C24E C15E 1_555 1_555
C25E C24E 1_555 1_555
C26E C25E 1_555 1_555
C27E C26E 1_555 1_555
C28E C27E 1_555 1_555
C29E C24E 1_555 1_555
F11E C48E 1_555 1_555
F12E C49E 1_555 1_555
F13E C50E 1_555 1_555
F14E C51E 1_555 1_555
F15E C52E 1_555 1_555
F16E C54E 1_555 1_555
F17E C55E 1_555 1_555
F18E C56E 1_555 1_555
F19E C57E 1_555 1_555
F20E C58E 1_555 1_555
N5E C31E 1_555 1_555
N6E C36E 1_555 1_555
C30E C31E 1_555 1_555
C31E C32E 1_555 1_555
C32E H12E 1_555 1_555
C33E C32E 1_555 1_555
H13E C33E 1_555 1_555
C34E N5E 1_555 1_555
C35E C34E 1_555 1_555
C36E C35E 1_555 1_555
C37E C36E 1_555 1_555
H14E C37E 1_555 1_555
C38E C37E 1_555 1_555
H15E C38E 1_555 1_555
C39E N6E 1_555 1_555
C40E C39E 1_555 1_555
C41E N7 1_555 1_555
C42E C42 1_555 1_555
H16E C42E 1_555 1_555
C43E C43 1_555 1_555
H17E C43E 1_555 1_555
C44E N8 1_555 1_555
C45E S2 1_555 1_555
C46E C46 1_555 1_555
H18E C46E 1_555 1_555
C47E C40E 1_555 1_555
C48E C47E 1_555 1_555
C49E C48E 1_555 1_555
C50E C49E 1_555 1_555
C51E C50E 1_555 1_555
C52E C47E 1_555 1_555
C53E C30E 1_555 1_555
C54E C53E 1_555 1_555
C55E C54E 1_555 1_555
C56E C55E 1_555 1_555
C57E C56E 1_555 1_555
C58E C53E 1_555 1_555
C59A C59 1_555 1_555
C60A C61A 1_555 1_555
C61A C59A 1_555 1_555
C3 C4 1_555 1_555
C8 C9 1_555 1_555
C10 C11 1_555 1_555
C13 C14 1_555 1_555
C14 C15 1_555 1_555
C22 C23 1_555 1_555
C28 C29 1_555 1_555
C30 C44 1_555 1_555
C33 C34 1_555 1_555
C38 C39 1_555 1_555
C40 C41 1_555 1_555
C43 C44 1_555 1_555
C51 C52 1_555 1_555
C57 C58 1_555 1_555
C3E C4E 1_555 1_555
C5E C16E 1_555 1_555
C8E C9E 1_555 1_555
C10E C11E 1_555 1_555
C11E C12E 1_555 1_555
C13E C14E 1_555 1_555
C14E C15E 1_555 1_555
C16E C17E 1_555 1_555
C22E C23E 1_555 1_555
C28E C29E 1_555 1_555
C30E C44E 1_555 1_555
C33E C34E 1_555 1_555
C35E C45E 1_555 1_555
C38E C39E 1_555 1_555
C40E C41E 1_555 1_555
C41E C42E 1_555 1_555
C43E C44E 1_555 1_555
C45E C46E 1_555 1_555
C51E C52E 1_555 1_555
C57E C58E 1_555 1_555

#END
