
#######################################################################
#
#                 Cambridge Crystallographic Data Centre
#                                CCDC 
#
#######################################################################
#
# If this CIF has been generated from an entry in the Cambridge 
# Structural Database, then it will include bibliographic, chemical, 
# crystal, experimental, refinement or atomic coordinate data resulting 
# from the CCDC's data processing and validation procedures.
#
#######################################################################

data_DITLAV
_chemical_formula_moiety         'C28 H4 Br4 F14 N4'
_chemical_name_systematic        
4,7,11,14-Tetrabromo-2,9-bis(heptafluoropropyl)pyrimido[4',5',6':6,7]phenaleno[1,2,3-gh]perimidine
_symmetry_cell_setting           triclinic
_symmetry_space_group_name_H-M   'P -1'
_symmetry_Int_Tables_number      2
_space_group_name_Hall           '-P 1'
loop_
_symmetry_equiv_pos_site_id
_symmetry_equiv_pos_as_xyz
1 x,y,z
2 -x,-y,-z
_cell_length_a                   4.9853(2)
_cell_length_b                   10.1228(5)
_cell_length_c                   13.8975(6)
_cell_angle_alpha                103.981(4)
_cell_angle_beta                 95.353(4)
_cell_angle_gamma                91.166(4)
_cell_volume                     676.927
_exptl_crystal_colour            orange
_exptl_crystal_description       needle
_cell_formula_units_Z            1
loop_
_atom_site_label
_atom_site_type_symbol
_atom_site_fract_x
_atom_site_fract_y
_atom_site_fract_z
Br1 Br 0.28471(8) 0.12155(4) 1.08084(2)
Br2 Br 0.50123(10) 0.45473(5) 0.61785(3)
F1 F -0.2485(5) 0.0488(2) 0.76359(15)
F2 F -0.1647(5) 0.1250(2) 0.63515(16)
F3 F 0.1884(5) -0.1138(2) 0.73750(16)
F4 F 0.2684(5) -0.0376(2) 0.60840(17)
F5 F -0.3016(5) -0.2151(3) 0.64817(18)
F6 F -0.2428(5) -0.1348(3) 0.52069(16)
F7 F 0.0232(6) -0.2830(3) 0.5593(2)
N1 N 0.2102(7) 0.1613(3) 0.8681(2)
N2 N 0.2794(7) 0.2602(3) 0.7303(2)
C1 C 0.4154(8) 0.2424(4) 0.9238(3)
C2 C 0.4875(8) 0.2372(4) 1.0257(2)
C3 C 0.6967(8) 0.3158(4) 1.0812(3)
H1 H 0.7408 0.3096 1.1479
C4 C 0.8546(8) 0.4083(4) 1.0430(3)
C5 C 0.7836(8) 0.4187(4) 0.9428(3)
C6 C 0.5640(8) 0.3358(4) 0.8858(2)
C7 C 0.4805(8) 0.3417(4) 0.7863(3)
C8 C 0.6226(9) 0.4383(4) 0.7466(3)
C9 C 0.8361(9) 0.5169(4) 0.7995(3)
H2 H 0.9283 0.5777 0.7701
C10 C 0.9249(8) 0.5096(4) 0.8998(3)
C11 C 0.1626(9) 0.1744(4) 0.7754(3)
C12 C -0.0496(8) 0.0734(4) 0.7090(2)
C13 C 0.0738(8) -0.0624(4) 0.6629(3)
C14 C -0.1169(9) -0.1762(4) 0.5953(3)
Br1A Br 1.71529(8) 0.87845(4) 0.91916(2)
Br2A Br 1.49877(10) 0.54527(5) 1.38215(3)
F1A F 2.2485(5) 0.9512(2) 1.23641(15)
F2A F 2.1647(5) 0.8750(2) 1.36485(16)
F3A F 1.8116(5) 1.1138(2) 1.26250(16)
F4A F 1.7316(5) 1.0376(2) 1.39160(17)
F5A F 2.3016(5) 1.2151(3) 1.35183(18)
F6A F 2.2428(5) 1.1348(3) 1.47931(16)
F7A F 1.9768(6) 1.2830(3) 1.4407(2)
N1A N 1.7898(7) 0.8387(3) 1.1319(2)
N2A N 1.7206(7) 0.7398(3) 1.2697(2)
C1A C 1.5846(8) 0.7576(4) 1.0762(3)
C2A C 1.5125(8) 0.7628(4) 0.9743(2)
C3A C 1.3033(8) 0.6842(4) 0.9188(3)
H1A H 1.2592 0.6904 0.8521
C4A C 1.1454(8) 0.5917(4) 0.9570(3)
C5A C 1.2164(8) 0.5813(4) 1.0572(3)
C6A C 1.4360(8) 0.6642(4) 1.1142(2)
C7A C 1.5195(8) 0.6583(4) 1.2137(3)
C8A C 1.3774(9) 0.5617(4) 1.2534(3)
C9A C 1.1639(9) 0.4831(4) 1.2005(3)
H2A H 1.0717 0.4223 1.2299
C10A C 1.0751(8) 0.4904(4) 1.1002(3)
C11A C 1.8374(9) 0.8256(4) 1.2246(3)
C12A C 2.0496(8) 0.9266(4) 1.2910(2)
C13A C 1.9262(8) 1.0624(4) 1.3371(3)
C14A C 2.1169(9) 1.1762(4) 1.4047(3)
loop_
_geom_bond_atom_site_label_1
_geom_bond_atom_site_label_2
_geom_bond_site_symmetry_1
_geom_bond_site_symmetry_2
Br1 C2 1_555 1_555
Br2 C8 1_555 1_555
F1 C12 1_555 1_555
F2 C12 1_555 1_555
F3 C13 1_555 1_555
F4 C13 1_555 1_555
F5 C14 1_555 1_555
F6 C14 1_555 1_555
F7 C14 1_555 1_555
N1 C1 1_555 1_555
N2 C7 1_555 1_555
C1 C2 1_555 1_555
C2 C3 1_555 1_555
C3 H1 1_555 1_555
C4 C3 1_555 1_555
C5 C4 1_555 1_555
C6 C1 1_555 1_555
C7 C6 1_555 1_555
C8 C7 1_555 1_555
C9 C8 1_555 1_555
H2 C9 1_555 1_555
C10 C5 1_555 1_555
C11 N1 1_555 1_555
C12 C11 1_555 1_555
C13 C12 1_555 1_555
C14 C13 1_555 1_555
Br1A C2A 1_555 1_555
Br2A C8A 1_555 1_555
F1A C12A 1_555 1_555
F2A C12A 1_555 1_555
F3A C13A 1_555 1_555
F4A C13A 1_555 1_555
F5A C14A 1_555 1_555
F6A C14A 1_555 1_555
F7A C14A 1_555 1_555
N1A C1A 1_555 1_555
N2A C7A 1_555 1_555
C1A C2A 1_555 1_555
C2A C3A 1_555 1_555
C3A H1A 1_555 1_555
C4A C10 1_555 1_555
C5A C4A 1_555 1_555
C6A C1A 1_555 1_555
C7A C6A 1_555 1_555
C8A C7A 1_555 1_555
C9A C8A 1_555 1_555
H2A C9A 1_555 1_555
C10A C4 1_555 1_555
C11A N1A 1_555 1_555
C12A C11A 1_555 1_555
C13A C12A 1_555 1_555
C14A C13A 1_555 1_555
N2 C11 1_555 1_555
C5 C6 1_555 1_555
C9 C10 1_555 1_555
N2A C11A 1_555 1_555
C3A C4A 1_555 1_555
C5A C6A 1_555 1_555
C5A C10A 1_555 1_555
C9A C10A 1_555 1_555

#END
