
#######################################################################
#
#                 Cambridge Crystallographic Data Centre
#                                CCDC 
#
#######################################################################
#
# If this CIF has been generated from an entry in the Cambridge 
# Structural Database, then it will include bibliographic, chemical, 
# crystal, experimental, refinement or atomic coordinate data resulting 
# from the CCDC's data processing and validation procedures.
#
#######################################################################

data_DITLEZ
_chemical_formula_moiety         'C26 H4 Br4 F10 N4'
_chemical_name_systematic        
4,7,11,14-Tetrabromo-2,9-bis(pentafluoroethyl)pyrimido[4',5',6':6,7]phenaleno[1,2,3-gh]perimidine
_symmetry_cell_setting           triclinic
_symmetry_space_group_name_H-M   'P -1'
_symmetry_Int_Tables_number      2
_space_group_name_Hall           '-P 1'
loop_
_symmetry_equiv_pos_site_id
_symmetry_equiv_pos_as_xyz
1 x,y,z
2 -x,-y,-z
_cell_length_a                   5.0066(3)
_cell_length_b                   9.7801(7)
_cell_length_c                   13.0065(6)
_cell_angle_alpha                91.231(5)
_cell_angle_beta                 95.117(4)
_cell_angle_gamma                90.984(5)
_cell_volume                     634.063
_exptl_crystal_colour            red
_exptl_crystal_description       needle
_cell_formula_units_Z            1
loop_
_atom_site_label
_atom_site_type_symbol
_atom_site_fract_x
_atom_site_fract_y
_atom_site_fract_z
Br1 Br 0.76863(8) 0.91301(4) 1.08171(3)
Br2 Br 0.27265(9) 0.40301(5) 0.60027(3)
F1 F 0.9535(5) 0.7485(3) 0.61461(17)
F2 F 1.1183(5) 0.8691(3) 0.74844(17)
F3 F 0.5302(6) 0.9182(4) 0.5897(2)
F4 F 0.6795(6) 1.0369(3) 0.7250(2)
F5 F 0.9128(6) 1.0249(3) 0.5944(2)
N1 N 0.7176(7) 0.7950(4) 0.8601(2)
N2 N 0.5669(7) 0.6443(4) 0.7169(2)
C1 C 0.5445(8) 0.7326(4) 0.9184(3)
C2 C 0.5321(8) 0.7754(4) 1.0246(3)
C3 C 0.3525(8) 0.7158(4) 1.0832(3)
H1 H 0.3463 0.7468 1.1527
C4 C 0.1733(8) 0.6083(4) 1.0438(3)
C5 C 0.1844(8) 0.5608(4) 0.9399(3)
C6 C 0.3731(8) 0.6243(4) 0.8791(3)
C7 C 0.3970(8) 0.5806(4) 0.7757(3)
C8 C 0.2312(8) 0.4679(4) 0.7345(3)
C9 C 0.0476(8) 0.4086(5) 0.7916(3)
H2 H -0.0628 0.3356 0.7617
C10 C 0.0162(8) 0.4531(4) 0.8955(3)
C11 C 0.7105(8) 0.7475(4) 0.7627(3)
C12 C 0.8861(8) 0.8274(5) 0.6940(3)
C13 C 0.7504(9) 0.9538(5) 0.6493(3)
Br1A Br -0.76863(8) 0.08699(4) 0.91829(3)
Br2A Br -0.27265(9) 0.59699(5) 1.39973(3)
F1A F -0.9535(5) 0.2515(3) 1.38539(17)
F2A F -1.1183(5) 0.1309(3) 1.25156(17)
F3A F -0.5302(6) 0.0818(4) 1.4103(2)
F4A F -0.6795(6) -0.0369(3) 1.2750(2)
F5A F -0.9128(6) -0.0249(3) 1.4056(2)
N1A N -0.7176(7) 0.2050(4) 1.1399(2)
N2A N -0.5669(7) 0.3557(4) 1.2831(2)
C1A C -0.5445(8) 0.2674(4) 1.0816(3)
C2A C -0.5321(8) 0.2246(4) 0.9754(3)
C3A C -0.3525(8) 0.2842(4) 0.9168(3)
H1A H -0.3463 0.2532 0.8473
C4A C -0.1733(8) 0.3917(4) 0.9562(3)
C5A C -0.1844(8) 0.4392(4) 1.0601(3)
C6A C -0.3731(8) 0.3757(4) 1.1209(3)
C7A C -0.3970(8) 0.4194(4) 1.2243(3)
C8A C -0.2312(8) 0.5321(4) 1.2655(3)
C9A C -0.0476(8) 0.5914(5) 1.2084(3)
H2A H 0.0628 0.6644 1.2383
C10A C -0.0162(8) 0.5469(4) 1.1045(3)
C11A C -0.7105(8) 0.2525(4) 1.2373(3)
C12A C -0.8861(8) 0.1726(5) 1.3060(3)
C13A C -0.7504(9) 0.0462(5) 1.3507(3)
loop_
_geom_bond_atom_site_label_1
_geom_bond_atom_site_label_2
_geom_bond_site_symmetry_1
_geom_bond_site_symmetry_2
Br1 C2 1_555 1_555
Br2 C8 1_555 1_555
F1 C12 1_555 1_555
F2 C12 1_555 1_555
F3 C13 1_555 1_555
F4 C13 1_555 1_555
F5 C13 1_555 1_555
N1 C1 1_555 1_555
N2 C7 1_555 1_555
C1 C2 1_555 1_555
C2 C3 1_555 1_555
C3 H1 1_555 1_555
C4 C3 1_555 1_555
C5 C4 1_555 1_555
C6 C1 1_555 1_555
C7 C6 1_555 1_555
C8 C7 1_555 1_555
C9 C8 1_555 1_555
H2 C9 1_555 1_555
C10 C5 1_555 1_555
C11 N1 1_555 1_555
C12 C11 1_555 1_555
C13 C12 1_555 1_555
Br1A C2A 1_555 1_555
Br2A C8A 1_555 1_555
F1A C12A 1_555 1_555
F2A C12A 1_555 1_555
F3A C13A 1_555 1_555
F4A C13A 1_555 1_555
F5A C13A 1_555 1_555
N1A C1A 1_555 1_555
N2A C7A 1_555 1_555
C1A C2A 1_555 1_555
C2A C3A 1_555 1_555
C3A H1A 1_555 1_555
C4A C10 1_555 1_555
C5A C4A 1_555 1_555
C6A C1A 1_555 1_555
C7A C6A 1_555 1_555
C8A C7A 1_555 1_555
C9A C8A 1_555 1_555
H2A C9A 1_555 1_555
C10A C4 1_555 1_555
C11A N1A 1_555 1_555
C12A C11A 1_555 1_555
C13A C12A 1_555 1_555
N2 C11 1_555 1_555
C5 C6 1_555 1_555
C9 C10 1_555 1_555
N2A C11A 1_555 1_555
C3A C4A 1_555 1_555
C5A C6A 1_555 1_555
C5A C10A 1_555 1_555
C9A C10A 1_555 1_555

#END
