
#######################################################################
#
#                 Cambridge Crystallographic Data Centre
#                                CCDC 
#
#######################################################################
#
# If this CIF has been generated from an entry in the Cambridge 
# Structural Database, then it will include bibliographic, chemical, 
# crystal, experimental, refinement or atomic coordinate data resulting 
# from the CCDC's data processing and validation procedures.
#
#######################################################################

data_DITZEL
_chemical_formula_moiety         'C64 H56 S4'
_chemical_name_systematic        
2,5,8,11-Tetra-n-butyl-3,4,9,10-tetrakis(2-phenylethynyl)cyclo-octatetrathiophene
_symmetry_cell_setting           triclinic
_symmetry_space_group_name_H-M   'P -1'
_symmetry_Int_Tables_number      2
_space_group_name_Hall           '-P 1'
loop_
_symmetry_equiv_pos_site_id
_symmetry_equiv_pos_as_xyz
1 x,y,z
2 -x,-y,-z
_cell_length_a                   12.3750(6)
_cell_length_b                   15.0495(6)
_cell_length_c                   15.9682(7)
_cell_angle_alpha                73.6820(10)
_cell_angle_beta                 79.6430(10)
_cell_angle_gamma                72.0990(10)
_cell_volume                     2701.67
_exptl_crystal_colour            colorless
_cell_formula_units_Z            2
_exptl_crystal_recrystallization_method benzene/ethanol
loop_
_atom_site_label
_atom_site_type_symbol
_atom_site_fract_x
_atom_site_fract_y
_atom_site_fract_z
S1 S 0.88712(3) 0.47570(3) 0.11075(3)
C1 C 0.81046(13) 0.48673(11) 0.02705(10)
C2 C 0.77383(13) 0.40648(11) 0.03913(9)
C3 C 0.81098(12) 0.33326(10) 0.11684(9)
C4 C 0.79183(13) 0.23676(11) 0.14052(9)
C5 C 0.82436(14) 0.17277(12) 0.08248(10)
C6 C 0.79848(16) 0.08704(12) 0.11955(11)
S2 S 0.73619(4) 0.08243(3) 0.22530(3)
C7 C 0.74260(13) 0.19702(11) 0.22044(9)
C8 C 0.69559(13) 0.24189(11) 0.29422(9)
S3 S 0.55147(3) 0.26273(3) 0.33057(3)
C9 C 0.56427(14) 0.31606(12) 0.40890(10)
C10 C 0.67554(13) 0.31703(11) 0.40749(10)
C11 C 0.75155(13) 0.27442(11) 0.34086(9)
C12 C 0.87408(12) 0.26932(10) 0.32339(9)
C13 C 0.95470(13) 0.22520(11) 0.38822(9)
C14 C 1.06278(14) 0.23378(11) 0.35658(10)
S4 S 1.06802(3) 0.29327(3) 0.24762(3)
C15 C 0.92433(12) 0.30861(10) 0.24387(9)
C16 C 0.87162(13) 0.36196(10) 0.16284(9)
C17 C 0.78777(13) 0.57606(12) -0.04621(11)
H1 H 0.8062 0.5576 -0.1011
H2 H 0.8372 0.6139 -0.0452
C18 C 0.66476(16) 0.63759(19) -0.04178(18)
H5 H 0.6470 0.6623 0.0112
H6 H 0.6135 0.5979 -0.0380
C19 C 0.6447(2) 0.72148(19) -0.1221(2)
H7 H 0.6968 0.7606 -0.1265
H8 H 0.6612 0.6968 -0.1750
C20 C 0.5222(2) 0.7838(2) -0.1168(2)
H9 H 0.4706 0.7452 -0.1126
H10 H 0.5113 0.8363 -0.1690
H11 H 0.5065 0.8098 -0.0653
C24 C 0.70211(13) 0.39896(11) -0.01781(9)
C25 C 0.63984(14) 0.39646(12) -0.06608(10)
C26 C 0.56725(13) 0.39345(12) -0.12513(10)
C27 C 0.48739(15) 0.47725(13) -0.16300(11)
H19 H 0.4811 0.5357 -0.1495
C28 C 0.41786(17) 0.47452(16) -0.21999(12)
H20 H 0.3641 0.5311 -0.2451
C29 C 0.42665(19) 0.3898(2) -0.24026(14)
H21 H 0.3793 0.3883 -0.2794
C30 C 0.5055(2) 0.30627(18) -0.20297(16)
H22 H 0.5114 0.2481 -0.2168
C31 C 0.57524(17) 0.30826(14) -0.14571(13)
H23 H 0.6285 0.2514 -0.1205
C36 C 0.8194(6) -0.0014(5) 0.0867(6)
H33 H 0.8613 -0.0571 0.1285
H34 H 0.8676 0.0053 0.0307
C37 C 0.7103(6) -0.0202(5) 0.0739(8)
H35 H 0.6735 0.0308 0.0261
H36 H 0.6576 -0.0188 0.1275
C38 C 0.7345(4) -0.1171(3) 0.0524(3)
H37 H 0.7505 -0.1122 -0.0109
H38 H 0.7976 -0.1653 0.0827
C39 C 0.6204(9) -0.1382(13) 0.0885(7)
H39 H 0.5969 -0.1645 0.0480
H40 H 0.5636 -0.0791 0.0956
H41 H 0.6278 -0.1844 0.1449
C40 C 0.88159(15) 0.19556(12) -0.00383(11)
C41 C 0.92831(15) 0.21688(12) -0.07548(11)
C42 C 0.98525(15) 0.24521(12) -0.16147(11)
C43 C 0.98503(18) 0.20195(15) -0.22767(12)
H42 H 0.9466 0.1542 -0.2167
C44 C 1.0412(2) 0.22903(18) -0.30950(13)
H43 H 1.0401 0.2000 -0.3542
C45 C 1.0986(2) 0.29786(18) -0.32604(15)
H44 H 1.1375 0.3153 -0.3817
C46 C 1.0994(2) 0.34093(18) -0.26172(17)
H45 H 1.1384 0.3884 -0.2734
C47 C 1.0431(2) 0.31517(15) -0.17915(15)
H46 H 1.0441 0.3452 -0.1351
C48 C 0.4676(10) 0.3566(8) 0.4677(6)
H47 H 0.4110 0.4057 0.4314
H48 H 0.4951 0.3894 0.5012
C49 C 0.4072(3) 0.2874(4) 0.5326(3)
H49 H 0.3419 0.3237 0.5652
H50 H 0.3781 0.2543 0.5005
C50 C 0.4869(4) 0.2134(3) 0.5967(2)
H51 H 0.5236 0.2464 0.6233
H52 H 0.5468 0.1716 0.5650
C51 C 0.4229(10) 0.1525(10) 0.6685(7)
H53 H 0.3695 0.1927 0.7042
H54 H 0.4769 0.1021 0.7050
H55 H 0.3816 0.1238 0.6421
C56 C 0.71040(14) 0.36050(12) 0.46276(10)
C57 C 0.74087(14) 0.39634(12) 0.50931(10)
C58 C 0.77814(14) 0.43917(12) 0.56480(11)
C59 C 0.74801(17) 0.41788(15) 0.65493(12)
H65 H 0.7044 0.3739 0.6803
C60 C 0.78210(19) 0.46127(18) 0.70698(13)
H66 H 0.7621 0.4465 0.7679
C61 C 0.84525(18) 0.52615(17) 0.67008(15)
H67 H 0.8672 0.5563 0.7059
C62 C 0.87644(17) 0.54710(15) 0.58149(15)
H68 H 0.9204 0.5910 0.5568
C63 C 0.84367(15) 0.50420(13) 0.52878(12)
H69 H 0.8654 0.5186 0.4681
C64 C 1.16789(15) 0.19402(13) 0.40429(11)
H70 H 1.1452 0.1754 0.4674
H71 H 1.2064 0.2446 0.3943
C65 C 1.25136(17) 0.10759(15) 0.37594(14)
H72 H 1.2839 0.1287 0.3155
H73 H 1.2097 0.0616 0.3764
C66 C 1.34815(17) 0.05669(16) 0.43369(15)
H74 H 1.4060 0.0106 0.4049
H75 H 1.3839 0.1043 0.4391
C67 C 1.3113(2) 0.0042(2) 0.52392(18)
H76 H 1.3763 -0.0238 0.5580
H77 H 1.2810 -0.0465 0.5195
H78 H 1.2527 0.0488 0.5526
C68 C 0.92752(13) 0.17481(11) 0.47574(10)
C69 C 0.90852(14) 0.13126(12) 0.54940(10)
C70 C 0.88553(14) 0.08049(11) 0.63834(10)
C71 C 0.96793(15) 0.00020(12) 0.67799(11)
H79 H 1.0389 -0.0205 0.6464
C72 C 0.94584(17) -0.04895(13) 0.76317(11)
H80 H 1.0018 -0.1030 0.7894
C73 C 0.8421(2) -0.01922(15) 0.81011(12)
H81 H 0.8272 -0.0528 0.8682
C74 C 0.76012(19) 0.06026(16) 0.77123(13)
H82 H 0.6892 0.0804 0.8031
C75 C 0.78127(16) 0.11028(13) 0.68642(12)
H83 H 0.7252 0.1647 0.6609
H3? H 0.7653 0.5624 -0.0947
H4? H 0.8564 0.5962 -0.0658
C21? C 0.6901(15) 0.6556(8) -0.0182(10)
H12? H 0.6232 0.6303 0.0006
H13? H 0.7103 0.6666 0.0339
C22? C 0.6520(14) 0.7535(10) -0.0810(10)
H14? H 0.6004 0.8001 -0.0495
H15? H 0.7181 0.7773 -0.1097
C23? C 0.591(2) 0.7389(16) -0.1485(15)
H16? H 0.6401 0.6875 -0.1744
H17? H 0.5721 0.7979 -0.1940
H18? H 0.5213 0.7220 -0.1201
C32? C 0.8238(10) 0.0104(7) 0.0696(7)
H24? H 0.9049 -0.0244 0.0706
H25? H 0.8104 0.0418 0.0083
C33? C 0.7542(6) -0.0623(4) 0.1038(5)
H26? H 0.7958 -0.1242 0.0901
H27? H 0.7342 -0.0723 0.1674
C34? C 0.6486(8) -0.0150(8) 0.0549(9)
H28? H 0.6636 0.0352 0.0036
H29? H 0.5849 0.0149 0.0932
C35? C 0.6181(13) -0.0915(10) 0.0259(9)
H30? H 0.6220 -0.0756 -0.0376
H31? H 0.5412 -0.0941 0.0507
H32? H 0.6714 -0.1536 0.0461
C52? C 0.4574(9) 0.3618(7) 0.4633(4)
H56? H 0.4588 0.4265 0.4634
H57? H 0.3895 0.3679 0.4364
C53? C 0.4502(4) 0.3019(3) 0.5572(3)
H58? H 0.5223 0.2898 0.5812
H59? H 0.3897 0.3394 0.5923
C54? C 0.4263(5) 0.2061(3) 0.5671(3)
H60? H 0.4855 0.1701 0.5300
H61? H 0.3531 0.2189 0.5444
C55? C 0.4219(11) 0.1422(13) 0.6595(6)
H62? H 0.4916 0.1325 0.6848
H63? H 0.4145 0.0806 0.6575
H64? H 0.3569 0.1728 0.6953
loop_
_geom_bond_atom_site_label_1
_geom_bond_atom_site_label_2
_geom_bond_site_symmetry_1
_geom_bond_site_symmetry_2
S1 C1 1_555 1_555
C1 C2 1_555 1_555
C2 C3 1_555 1_555
C3 C4 1_555 1_555
C4 C5 1_555 1_555
C5 C6 1_555 1_555
C6 S2 1_555 1_555
S2 C7 1_555 1_555
C7 C4 1_555 1_555
C8 C7 1_555 1_555
S3 C8 1_555 1_555
C9 S3 1_555 1_555
C10 C9 1_555 1_555
C11 C8 1_555 1_555
C12 C11 1_555 1_555
C13 C12 1_555 1_555
C14 C13 1_555 1_555
S4 C14 1_555 1_555
C15 C12 1_555 1_555
C16 S1 1_555 1_555
C17 C1 1_555 1_555
H1 C17 1_555 1_555
H2 C17 1_555 1_555
C18 C17 1_555 1_555
H5 C18 1_555 1_555
H6 C18 1_555 1_555
C19 C18 1_555 1_555
H7 C19 1_555 1_555
H8 C19 1_555 1_555
C20 C19 1_555 1_555
H9 C20 1_555 1_555
H10 C20 1_555 1_555
H11 C20 1_555 1_555
C24 C2 1_555 1_555
C25 C24 1_555 1_555
C26 C25 1_555 1_555
C27 C26 1_555 1_555
H19 C27 1_555 1_555
C28 C27 1_555 1_555
H20 C28 1_555 1_555
C29 C28 1_555 1_555
H21 C29 1_555 1_555
C30 C29 1_555 1_555
H22 C30 1_555 1_555
C31 C26 1_555 1_555
H23 C31 1_555 1_555
C36 C6 1_555 1_555
H33 C36 1_555 1_555
H34 C36 1_555 1_555
C37 C36 1_555 1_555
H35 C37 1_555 1_555
H36 C37 1_555 1_555
C38 C37 1_555 1_555
H37 C38 1_555 1_555
H38 C38 1_555 1_555
C39 C38 1_555 1_555
H39 C39 1_555 1_555
H40 C39 1_555 1_555
H41 C39 1_555 1_555
C40 C5 1_555 1_555
C41 C40 1_555 1_555
C42 C41 1_555 1_555
C43 C42 1_555 1_555
H42 C43 1_555 1_555
C44 C43 1_555 1_555
H43 C44 1_555 1_555
C45 C44 1_555 1_555
H44 C45 1_555 1_555
C46 C45 1_555 1_555
H45 C46 1_555 1_555
C47 C42 1_555 1_555
H46 C47 1_555 1_555
C48 C9 1_555 1_555
H47 C48 1_555 1_555
H48 C48 1_555 1_555
C49 C48 1_555 1_555
H49 C49 1_555 1_555
H50 C49 1_555 1_555
C50 C49 1_555 1_555
H51 C50 1_555 1_555
H52 C50 1_555 1_555
C51 C50 1_555 1_555
H53 C51 1_555 1_555
H54 C51 1_555 1_555
H55 C51 1_555 1_555
C56 C10 1_555 1_555
C57 C56 1_555 1_555
C58 C57 1_555 1_555
C59 C58 1_555 1_555
H65 C59 1_555 1_555
C60 C59 1_555 1_555
H66 C60 1_555 1_555
C61 C60 1_555 1_555
H67 C61 1_555 1_555
C62 C61 1_555 1_555
H68 C62 1_555 1_555
C63 C58 1_555 1_555
H69 C63 1_555 1_555
C64 C14 1_555 1_555
H70 C64 1_555 1_555
H71 C64 1_555 1_555
C65 C64 1_555 1_555
H72 C65 1_555 1_555
H73 C65 1_555 1_555
C66 C65 1_555 1_555
H74 C66 1_555 1_555
H75 C66 1_555 1_555
C67 C66 1_555 1_555
H76 C67 1_555 1_555
H77 C67 1_555 1_555
H78 C67 1_555 1_555
C68 C13 1_555 1_555
C69 C68 1_555 1_555
C70 C69 1_555 1_555
C71 C70 1_555 1_555
H79 C71 1_555 1_555
C72 C71 1_555 1_555
H80 C72 1_555 1_555
C73 C72 1_555 1_555
H81 C73 1_555 1_555
C74 C73 1_555 1_555
H82 C74 1_555 1_555
C75 C70 1_555 1_555
H83 C75 1_555 1_555
C3 C16 1_555 1_555
C10 C11 1_555 1_555
S4 C15 1_555 1_555
C15 C16 1_555 1_555
C30 C31 1_555 1_555
C46 C47 1_555 1_555
C62 C63 1_555 1_555
C74 C75 1_555 1_555

#END
