
#######################################################################
#
#                 Cambridge Crystallographic Data Centre
#                                CCDC 
#
#######################################################################
#
# If this CIF has been generated from an entry in the Cambridge 
# Structural Database, then it will include bibliographic, chemical, 
# crystal, experimental, refinement or atomic coordinate data resulting 
# from the CCDC's data processing and validation procedures.
#
#######################################################################

data_DIVFEW
_chemical_formula_moiety         'C26 H24 N2 O4'
_chemical_name_systematic        
'(R)-(-)-dimethyl 1,2,3,6-tetrahydro-1,2,3-triphenylpyrimidine-4,5-dicarboxylate'
_symmetry_cell_setting           orthorhombic
_symmetry_space_group_name_H-M   'P 21 21 21'
_symmetry_Int_Tables_number      19
_space_group_name_Hall           'P 2ac 2ab'
loop_
_symmetry_equiv_pos_site_id
_symmetry_equiv_pos_as_xyz
1 x,y,z
2 1/2-x,-y,1/2+z
3 1/2+x,1/2-y,-z
4 -x,1/2+y,1/2-z
_cell_length_a                   9.754(2)
_cell_length_b                   11.691(2)
_cell_length_c                   19.628(4)
_cell_angle_alpha                90
_cell_angle_beta                 90
_cell_angle_gamma                90
_cell_volume                     2238.26
_exptl_crystal_colour            'light green'
_exptl_crystal_description       'long stick'
_chemical_melting_point          '410.4-410.6 K'
_cell_formula_units_Z            4
_exptl_crystal_recrystallization_method dichloromethane/cyclohexane
_exptl_crystal_preparation       ', Luminescent'
loop_
_atom_site_label
_atom_site_type_symbol
_atom_site_fract_x
_atom_site_fract_y
_atom_site_fract_z
O1 O 0.65498(16) -0.00644(13) 0.21769(11)
O2 O 0.86459(14) -0.02115(12) 0.26410(10)
N1 N 0.62519(17) -0.22877(13) 0.28395(11)
N2 N 0.59491(17) -0.30788(13) 0.39587(11)
O3 O 0.7458(2) 0.08688(12) 0.37560(11)
C1 C 0.6860(2) -0.13242(15) 0.31124(14)
C2 C 0.3928(2) -0.23162(16) 0.33624(13)
C3 C 0.3061(2) -0.2581(2) 0.38926(15)
H1 H 0.3342 -0.3094 0.4227
O4 O 0.7500(2) -0.00919(14) 0.47449(11)
C4 C 0.6682(2) -0.27597(16) 0.22140(13)
C5 C 0.7322(2) -0.04614(17) 0.25911(14)
C6 C 0.7306(2) -0.00056(19) 0.40650(15)
C7 C 0.6279(2) -0.19831(16) 0.42785(13)
H2 H 0.6938 -0.2113 0.4640
H3 H 0.5454 -0.1673 0.4484
C8 C 0.6856(2) -0.11169(17) 0.37912(14)
C9 C 0.3483(2) -0.15539(17) 0.28691(15)
H4 H 0.4058 -0.1364 0.2509
C10 C 0.6908(2) -0.39889(18) 0.40170(13)
C11 C 0.5736(3) -0.32694(19) 0.17762(15)
H5 H 0.4816 -0.3307 0.1898
C12 C 0.6462(3) -0.50996(17) 0.38674(15)
H6 H 0.5572 -0.5217 0.3712
C13 C 0.8240(2) -0.3843(2) 0.42415(16)
H7 H 0.8570 -0.3113 0.4334
C14 C 0.5314(2) -0.29186(16) 0.32942(12)
H8 H 0.5154 -0.3675 0.3095
C15 C 0.8056(2) -0.27320(17) 0.20231(16)
H9 H 0.8702 -0.2409 0.2313
C16 C 0.2192(3) -0.1074(2) 0.29089(18)
H10 H 0.1901 -0.0569 0.2573
C17 C 0.6166(3) -0.3717(2) 0.11639(17)
H11 H 0.5530 -0.4055 0.0874
C18 C 0.1769(2) -0.2088(2) 0.39329(17)
H12 H 0.1195 -0.2267 0.4296
C19 C 0.7527(3) -0.3672(2) 0.09731(18)
H13 H 0.7803 -0.3971 0.0556
C20 C 0.9094(3) 0.0720(2) 0.2211(2)
H14 H 0.8815 0.0578 0.1750
H15 H 1.0075 0.0780 0.2230
H16 H 0.8691 0.1422 0.2368
C21 C 0.8468(3) -0.3185(2) 0.14014(17)
H17 H 0.9387 -0.3156 0.1276
C22 C 0.7329(3) -0.6017(2) 0.39479(18)
H18 H 0.7024 -0.6751 0.3844
C23 C 0.9082(3) -0.4784(2) 0.43288(18)
H19 H 0.9968 -0.4678 0.4493
C24 C 0.8647(3) -0.5856(2) 0.41813(17)
H20 H 0.9232 -0.6477 0.4237
C25 C 0.1335(3) -0.1336(2) 0.34392(17)
H21 H 0.0468 -0.1008 0.3465
C26 C 0.7921(4) 0.0949(3) 0.5087(2)
H22 H 0.8814 0.1170 0.4929
H23 H 0.7950 0.0819 0.5570
H24 H 0.7276 0.1547 0.4989
loop_
_geom_bond_atom_site_label_1
_geom_bond_atom_site_label_2
_geom_bond_site_symmetry_1
_geom_bond_site_symmetry_2
O1 C5 1_555 1_555
O2 C5 1_555 1_555
N1 C1 1_555 1_555
N2 C7 1_555 1_555
O3 C6 1_555 1_555
C1 C5 1_555 1_555
C2 C3 1_555 1_555
C3 H1 1_555 1_555
O4 C6 1_555 1_555
C4 N1 1_555 1_555
C6 C8 1_555 1_555
C7 H2 1_555 1_555
H3 C7 1_555 1_555
C8 C1 1_555 1_555
C9 C2 1_555 1_555
H4 C9 1_555 1_555
C10 N2 1_555 1_555
C11 C4 1_555 1_555
H5 C11 1_555 1_555
C12 C10 1_555 1_555
H6 C12 1_555 1_555
C13 C10 1_555 1_555
H7 C13 1_555 1_555
C14 N1 1_555 1_555
H8 C14 1_555 1_555
C15 C4 1_555 1_555
H9 C15 1_555 1_555
C16 C9 1_555 1_555
H10 C16 1_555 1_555
C17 C11 1_555 1_555
H11 C17 1_555 1_555
C18 C3 1_555 1_555
H12 C18 1_555 1_555
C19 C17 1_555 1_555
H13 C19 1_555 1_555
C20 O2 1_555 1_555
H14 C20 1_555 1_555
H15 C20 1_555 1_555
H16 C20 1_555 1_555
C21 C15 1_555 1_555
H17 C21 1_555 1_555
C22 C12 1_555 1_555
H18 C22 1_555 1_555
C23 C13 1_555 1_555
H19 C23 1_555 1_555
C24 C22 1_555 1_555
H20 C24 1_555 1_555
C25 C16 1_555 1_555
H21 C25 1_555 1_555
C26 O4 1_555 1_555
H22 C26 1_555 1_555
H23 C26 1_555 1_555
H24 C26 1_555 1_555
N2 C14 1_555 1_555
C2 C14 1_555 1_555
C7 C8 1_555 1_555
C18 C25 1_555 1_555
C19 C21 1_555 1_555
C23 C24 1_555 1_555

#END
