
#######################################################################
#
#                 Cambridge Crystallographic Data Centre
#                                CCDC 
#
#######################################################################
#
# If this CIF has been generated from an entry in the Cambridge 
# Structural Database, then it will include bibliographic, chemical, 
# crystal, experimental, refinement or atomic coordinate data resulting 
# from the CCDC's data processing and validation procedures.
#
#######################################################################

data_DIVFUM
_chemical_formula_moiety         'C28 H27 Br1 N2 O4'
_chemical_name_systematic        
'(S)-(+)-diethyl 2-(4-bromophenyl)-1,2,3,6-tetrahydro-1,3-diphenylpyrimidine-4,5-dicarboxylate'
_symmetry_cell_setting           monoclinic
_symmetry_space_group_name_H-M   'P 21'
_symmetry_Int_Tables_number      4
_space_group_name_Hall           'P 2yb'
loop_
_symmetry_equiv_pos_site_id
_symmetry_equiv_pos_as_xyz
1 x,y,z
2 -x,1/2+y,-z
_cell_length_a                   11.4015(8)
_cell_length_b                   19.6478(15)
_cell_length_c                   11.6171(9)
_cell_angle_alpha                90
_cell_angle_beta                 91.917(3)
_cell_angle_gamma                90
_cell_volume                     2600.94
_exptl_crystal_colour            'light green'
_exptl_crystal_description       'long stick'
_chemical_melting_point          '409.9-410.2 K'
_cell_formula_units_Z            4
_exptl_crystal_recrystallization_method 'ethyl acetate/cyclohexane'
_exptl_crystal_preparation       ', Luminescent'
loop_
_atom_site_label
_atom_site_type_symbol
_atom_site_fract_x
_atom_site_fract_y
_atom_site_fract_z
Br1 Br 0.75315(14) 0.34857(13) 0.12427(19)
N1 N 0.1964(8) 0.3745(4) 0.3256(8)
C1 C 0.1449(9) 0.2008(5) 0.2850(10)
C2 C 0.5265(12) 0.2859(7) 0.1355(16)
H1 H 0.5554 0.2555 0.0820
C3 C 0.3746(10) 0.3213(5) 0.2538(12)
C4 C 0.5974(9) 0.3391(7) 0.1789(13)
C5 C 0.1261(9) 0.2915(5) 0.1447(11)
C6 C 0.1354(12) 0.3554(6) 0.5206(11)
H2 H 0.2115 0.3412 0.5392
C7 C 0.4151(10) 0.2792(6) 0.1728(14)
H3 H 0.3666 0.2453 0.1421
C8 C 0.4459(11) 0.3733(5) 0.2948(13)
H4 H 0.4180 0.4030 0.3498
C9 C 0.0540(15) 0.3579(8) 0.6047(16)
H5 H 0.0758 0.3454 0.6796
C10 C -0.0071(11) 0.3926(7) 0.3810(14)
H6 H -0.0295 0.4033 0.3054
C11 C 0.5581(11) 0.3820(6) 0.2557(17)
H7 H 0.6051 0.4175 0.2832
C12 C -0.0044(14) 0.1201(7) 0.3251(16)
H8 H -0.0829 0.1073 0.3212
C13 C -0.0575(17) 0.3783(8) 0.5804(18)
H9 H -0.1124 0.3806 0.6377
C14 C 0.0048(16) 0.4861(8) -0.0821(16)
H10 H 0.0464 0.4682 -0.1470
H11 H 0.0198 0.5347 -0.0773
C15 C -0.1210(18) 0.4743(11) -0.0999(16)
H12 H -0.1507 0.5033 -0.1607
H13 H -0.1609 0.4842 -0.0304
H14 H -0.1341 0.4275 -0.1209
C16 C 0.0812(10) 0.3879(6) 0.0118(14)
C17 C -0.0713(19) 0.2043(11) -0.071(2)
H15 H -0.0060 0.1931 -0.1186
H16 H -0.1041 0.1622 -0.0425
C18 C -0.156(3) 0.2396(15) -0.135(3)
H17 H -0.1981 0.2086 -0.1850
H18 H -0.1189 0.2738 -0.1801
H19 H -0.2096 0.2608 -0.0840
C19 C 0.0273(11) 0.1817(6) 0.2813(12)
H20 H -0.0293 0.2107 0.2492
C20 C 0.1052(11) 0.3737(5) 0.4082(12)
C21 C 0.0825(10) 0.2405(6) 0.0519(11)
C22 C 0.1915(15) 0.0963(7) 0.3850(13)
H21 H 0.2457 0.0686 0.4240
C23 C -0.0875(14) 0.3958(9) 0.468(2)
H22 H -0.1638 0.4100 0.4495
C24 C 0.0756(16) 0.0772(6) 0.3737(16)
H23 H 0.0522 0.0347 0.3996
O1 O 0.0478(9) 0.4531(4) 0.0238(9)
C25 C 0.1233(9) 0.3604(5) 0.1257(9)
C26 C 0.1703(11) 0.4083(5) 0.2157(12)
H24 H 0.2413 0.4294 0.1889
H25 H 0.1132 0.4441 0.2272
C27 C 0.2548(9) 0.3102(5) 0.3094(11)
H26 H 0.2693 0.2896 0.3854
N2 N 0.1808(7) 0.2638(4) 0.2410(9)
O2 O -0.0292(7) 0.2478(5) 0.0294(9)
O3 O 0.0773(10) 0.3561(6) -0.0798(9)
O4 O 0.1475(8) 0.1982(5) 0.0182(9)
C28 C 0.2263(12) 0.1578(5) 0.3369(12)
H27 H 0.3052 0.1699 0.3399
Br2 Br -0.15947(14) 0.08858(10) 0.62092(19)
C29 C 0.4903(13) 0.0839(7) 0.5242(16)
C30 C 0.5442(11) 0.2949(6) 0.7985(13)
H28 H 0.6028 0.2687 0.7666
C31 C 0.3438(11) 0.3100(5) 0.8468(12)
H29 H 0.2668 0.2944 0.8470
C32 C 0.1516(12) 0.0867(6) 0.8040(12)
H30 H 0.1864 0.0591 0.8605
C33 C 0.4617(12) 0.1119(6) 0.6379(15)
C34 C 0.3725(14) 0.3730(5) 0.8917(14)
H31 H 0.3141 0.3993 0.9234
C35 C -0.0045(10) 0.1108(6) 0.6769(13)
C36 C 0.1659(10) 0.1790(5) 0.6754(12)
H32 H 0.2073 0.2141 0.6418
C37 C 0.0422(12) 0.0704(6) 0.7671(13)
H33 H 0.0004 0.0348 0.7990
C38 C 0.0539(11) 0.1636(6) 0.6379(12)
H34 H 0.0175 0.1914 0.5827
C39 C 0.4310(9) 0.2705(5) 0.8016(10)
C40 C 0.4242(13) 0.0615(6) 0.7273(14)
H35 H 0.3539 0.0383 0.6989
H36 H 0.4854 0.0277 0.7388
N3 N 0.4031(8) 0.2048(4) 0.7549(10)
C41 C 0.6046(13) 0.0761(8) 0.9069(16)
H37 H 0.6270 0.0669 0.8322
O5 O 0.4291(8) 0.2721(5) 0.5289(9)
C42 C 0.5703(12) 0.3592(7) 0.8434(14)
H38 H 0.6464 0.3761 0.8410
O6 O 0.6082(7) 0.2251(4) 0.5558(9)
C43 C 0.528(3) -0.0169(12) 0.4122(19)
H39 H 0.5001 -0.0635 0.4113
H40 H 0.4896 0.0079 0.3494
O7 O 0.5069(17) 0.0173(6) 0.5282(10)
C44 C 0.6502(17) 0.2658(10) 0.457(2)
H41 H 0.5886 0.2688 0.3975
H42 H 0.6696 0.3115 0.4824
O8 O 0.4948(11) 0.1175(5) 0.4384(10)
C45 C 0.750(2) 0.2345(12) 0.412(2)
H43 H 0.7797 0.2622 0.3516
H44 H 0.7290 0.1905 0.3820
H45 H 0.8092 0.2295 0.4722
N4 N 0.4009(9) 0.0930(4) 0.8359(11)
C46 C 0.4907(10) 0.0924(5) 0.9246(14)
C47 C 0.2167(10) 0.1406(5) 0.7659(11)
C48 C 0.3348(9) 0.1563(4) 0.8204(11)
H46 H 0.3227 0.1758 0.8967
C49 C 0.4553(9) 0.1793(6) 0.6568(14)
C50 C 0.4957(11) 0.2305(6) 0.5714(14)
C51 C 0.4584(14) 0.1050(6) 1.0369(16)
H47 H 0.3809 0.1158 1.0518
C52 C 0.6875(15) 0.0725(11) 0.995(3)
H48 H 0.7647 0.0612 0.9795
C53 C 0.4843(16) 0.3977(7) 0.8909(14)
H49 H 0.5018 0.4402 0.9223
C54 C 0.5429(19) 0.1016(8) 1.1280(19)
H50 H 0.5216 0.1101 1.2032
C55 C 0.6554(18) 0.0859(10) 1.105(2)
H51 H 0.7115 0.0841 1.1648
C56 C 0.651(3) -0.0140(18) 0.405(2)
H52 H 0.6737 -0.0324 0.3328
H53 H 0.6865 -0.0402 0.4669
H54 H 0.6765 0.0324 0.4116
loop_
_geom_bond_atom_site_label_1
_geom_bond_atom_site_label_2
_geom_bond_site_symmetry_1
_geom_bond_site_symmetry_2
Br1 C4 1_555 1_555
N1 C20 1_555 1_555
C1 C19 1_555 1_555
C2 H1 1_555 1_555
C3 C7 1_555 1_555
C4 C2 1_555 1_555
C5 C21 1_555 1_555
C6 H2 1_555 1_555
C7 C2 1_555 1_555
H3 C7 1_555 1_555
C8 C3 1_555 1_555
H4 C8 1_555 1_555
C9 C6 1_555 1_555
H5 C9 1_555 1_555
C10 H6 1_555 1_555
C11 C4 1_555 1_555
H7 C11 1_555 1_555
C12 H8 1_555 1_555
C13 C9 1_555 1_555
H9 C13 1_555 1_555
C14 H10 1_555 1_555
H11 C14 1_555 1_555
C15 C14 1_555 1_555
H12 C15 1_555 1_555
H13 C15 1_555 1_555
H14 C15 1_555 1_555
C16 O1 1_555 1_555
C17 H15 1_555 1_555
H16 C17 1_555 1_555
C18 C17 1_555 1_555
H17 C18 1_555 1_555
H18 C18 1_555 1_555
H19 C18 1_555 1_555
C19 C12 1_555 1_555
H20 C19 1_555 1_555
C20 C6 1_555 1_555
C21 O2 1_555 1_555
C22 H21 1_555 1_555
C23 C10 1_555 1_555
H22 C23 1_555 1_555
C24 C12 1_555 1_555
H23 C24 1_555 1_555
O1 C14 1_555 1_555
C25 C5 1_555 1_555
C26 N1 1_555 1_555
H24 C26 1_555 1_555
H25 C26 1_555 1_555
C27 N1 1_555 1_555
H26 C27 1_555 1_555
N2 C1 1_555 1_555
O2 C17 1_555 1_555
O3 C16 1_555 1_555
O4 C21 1_555 1_555
C28 C1 1_555 1_555
H27 C28 1_555 1_555
Br2 C35 1_555 1_555
C29 C33 1_555 1_555
C30 H28 1_555 1_555
C31 H29 1_555 1_555
C32 H30 1_555 1_555
C33 C40 1_555 1_555
C34 C31 1_555 1_555
H31 C34 1_555 1_555
C35 C37 1_555 1_555
C36 H32 1_555 1_555
C37 C32 1_555 1_555
H33 C37 1_555 1_555
C38 C35 1_555 1_555
H34 C38 1_555 1_555
C39 C30 1_555 1_555
C40 H35 1_555 1_555
H36 C40 1_555 1_555
N3 C39 1_555 1_555
C41 H37 1_555 1_555
O5 C50 1_555 1_555
C42 C30 1_555 1_555
H38 C42 1_555 1_555
O6 C44 1_555 1_555
C43 H39 1_555 1_555
H40 C43 1_555 1_555
O7 C29 1_555 1_555
C44 H41 1_555 1_555
H42 C44 1_555 1_555
O8 C29 1_555 1_555
C45 C44 1_555 1_555
H43 C45 1_555 1_555
H44 C45 1_555 1_555
H45 C45 1_555 1_555
N4 C40 1_555 1_555
C46 C41 1_555 1_555
C47 C32 1_555 1_555
C48 N3 1_555 1_555
H46 C48 1_555 1_555
C49 C33 1_555 1_555
C50 O6 1_555 1_555
C51 C46 1_555 1_555
H47 C51 1_555 1_555
C52 C41 1_555 1_555
H48 C52 1_555 1_555
C53 C34 1_555 1_555
H49 C53 1_555 1_555
C54 C51 1_555 1_555
H50 C54 1_555 1_555
C55 C52 1_555 1_555
H51 C55 1_555 1_555
C56 C43 1_555 1_555
H52 C56 1_555 1_555
H53 C56 1_555 1_555
H54 C56 1_555 1_555
C3 C27 1_555 1_555
C5 N2 1_555 1_555
C8 C11 1_555 1_555
C10 C20 1_555 1_555
C13 C23 1_555 1_555
C16 C25 1_555 1_555
C22 C24 1_555 1_555
C22 C28 1_555 1_555
C25 C26 1_555 1_555
C27 N2 1_555 1_555
C31 C39 1_555 1_555
C36 C38 1_555 1_555
C36 C47 1_555 1_555
N3 C49 1_555 1_555
C42 C53 1_555 1_555
C43 O7 1_555 1_555
N4 C46 1_555 1_555
N4 C48 1_555 1_555
C47 C48 1_555 1_555
C49 C50 1_555 1_555
C54 C55 1_555 1_555

#END
