
#######################################################################
#
#                 Cambridge Crystallographic Data Centre
#                                CCDC 
#
#######################################################################
#
# If this CIF has been generated from an entry in the Cambridge 
# Structural Database, then it will include bibliographic, chemical, 
# crystal, experimental, refinement or atomic coordinate data resulting 
# from the CCDC's data processing and validation procedures.
#
#######################################################################

data_DIVFIA
_chemical_formula_moiety         'C26 H24 N2 O4'
_chemical_name_systematic        
'(S)-(+)-dimethyl 1,2,3,6-tetrahydro-1,2,3-triphenylpyrimidine-4,5-dicarboxylate'
_symmetry_cell_setting           orthorhombic
_symmetry_space_group_name_H-M   'P 21 21 21'
_symmetry_Int_Tables_number      19
_space_group_name_Hall           'P 2ac 2ab'
loop_
_symmetry_equiv_pos_site_id
_symmetry_equiv_pos_as_xyz
1 x,y,z
2 1/2-x,-y,1/2+z
3 1/2+x,1/2-y,-z
4 -x,1/2+y,1/2-z
_cell_length_a                   9.65062(13)
_cell_length_b                   11.62065(13)
_cell_length_c                   19.4417(2)
_cell_angle_alpha                90
_cell_angle_beta                 90
_cell_angle_gamma                90
_cell_volume                     2180.32
_exptl_crystal_colour            'light green'
_exptl_crystal_description       'fine and long stick'
_chemical_melting_point          '410.8-411.5 K'
_cell_formula_units_Z            4
_exptl_crystal_recrystallization_method dichloromethane/cyclohexane
_exptl_crystal_preparation       ', Luminescent'
loop_
_atom_site_label
_atom_site_type_symbol
_atom_site_fract_x
_atom_site_fract_y
_atom_site_fract_z
O1 O 0.34568(10) 0.49238(8) 0.21510(5)
O2 O 0.13293(10) 0.48028(7) 0.26161(4)
O3 O 0.24920(12) 0.49440(8) 0.47472(4)
O4 O 0.25144(12) 0.58983(8) 0.37402(5)
N1 N 0.40416(11) 0.19193(9) 0.39699(5)
N2 N 0.37382(11) 0.27003(8) 0.28341(5)
C1 C 0.69554(14) 0.24398(12) 0.39085(7)
H1 H 0.6666 0.1939 0.4253
C2 C 0.26808(14) 0.50189(11) 0.40563(6)
C3 C 0.65391(14) 0.34364(11) 0.28516(6)
H2 H 0.5962 0.3617 0.2484
C4 C 0.33018(14) 0.22114(10) 0.22004(6)
C5 C 0.31258(13) 0.36709(10) 0.30990(6)
C6 C 0.26590(14) 0.45384(10) 0.25710(6)
C7 C 0.35228(15) -0.01163(11) 0.38815(6)
H3 H 0.4426 -0.0238 0.3732
C8 C 0.37137(15) 0.30284(10) 0.42841(6)
H4 H 0.4550 0.3344 0.4486
H5 H 0.3052 0.2907 0.4652
C9 C 0.60769(14) 0.26825(11) 0.33596(6)
C10 C 0.38241(17) 0.12243(12) 0.11463(7)
H6 H 0.4466 0.0880 0.0855
C11 C 0.82570(15) 0.29382(12) 0.39455(7)
H7 H 0.8832 0.2774 0.4317
C12 C 0.09084(16) 0.57507(12) 0.21831(8)
H8 H 0.1209 0.5611 0.1720
H9 H 0.1319 0.6450 0.2349
H10 H -0.0083 0.5821 0.2193
C13 C 0.31235(14) 0.38937(11) 0.37859(6)
C14 C 0.08539(16) 0.02156(13) 0.43410(7)
H11 H -0.0042 0.0327 0.4504
C15 C 0.17179(14) 0.11569(12) 0.42528(6)
H12 H 0.1390 0.1894 0.4344
C16 C 0.42668(15) 0.16897(11) 0.17663(6)
H13 H 0.5196 0.1654 0.1891
C17 C 0.30722(14) 0.10044(11) 0.40282(6)
C18 C 0.12968(18) -0.08782(13) 0.41916(7)
H14 H 0.0704 -0.1502 0.4247
C19 C 0.78447(15) 0.39184(12) 0.28883(7)
H15 H 0.8145 0.4410 0.2541
C20 C 0.87097(16) 0.36780(12) 0.34358(7)
H16 H 0.9585 0.4010 0.3461
C21 C 0.24486(17) 0.12643(12) 0.09546(7)
H17 H 0.2167 0.0952 0.0537
C22 C 0.14935(16) 0.17712(11) 0.13873(7)
H18 H 0.0564 0.1796 0.1261
C23 C 0.19135(15) 0.22452(11) 0.20117(7)
H19 H 0.1265 0.2584 0.2302
C24 C 0.26381(17) -0.10408(12) 0.39572(7)
H20 H 0.2945 -0.1778 0.3850
C25 C 0.2088(2) 0.60029(14) 0.50810(8)
H21 H 0.1195 0.6238 0.4914
H22 H 0.2757 0.6591 0.4981
H23 H 0.2041 0.5884 0.5569
C26 C 0.46906(14) 0.20738(11) 0.32960(6)
H24 H 0.4857 0.1310 0.3098
loop_
_geom_bond_atom_site_label_1
_geom_bond_atom_site_label_2
_geom_bond_site_symmetry_1
_geom_bond_site_symmetry_2
O1 C6 1_555 1_555
O2 C6 1_555 1_555
O3 C2 1_555 1_555
O4 C2 1_555 1_555
N1 C8 1_555 1_555
N2 C4 1_555 1_555
C1 H1 1_555 1_555
C2 C13 1_555 1_555
C3 H2 1_555 1_555
C4 C16 1_555 1_555
C5 N2 1_555 1_555
C6 C5 1_555 1_555
C7 H3 1_555 1_555
C8 H4 1_555 1_555
H5 C8 1_555 1_555
C9 C1 1_555 1_555
C10 H6 1_555 1_555
C11 C1 1_555 1_555
H7 C11 1_555 1_555
C12 O2 1_555 1_555
H8 C12 1_555 1_555
H9 C12 1_555 1_555
H10 C12 1_555 1_555
C13 C5 1_555 1_555
C14 H11 1_555 1_555
C15 C14 1_555 1_555
H12 C15 1_555 1_555
C16 C10 1_555 1_555
H13 C16 1_555 1_555
C17 N1 1_555 1_555
C18 C14 1_555 1_555
H14 C18 1_555 1_555
C19 C3 1_555 1_555
H15 C19 1_555 1_555
C20 C11 1_555 1_555
H16 C20 1_555 1_555
C21 C10 1_555 1_555
H17 C21 1_555 1_555
C22 C21 1_555 1_555
H18 C22 1_555 1_555
C23 C4 1_555 1_555
H19 C23 1_555 1_555
C24 C7 1_555 1_555
H20 C24 1_555 1_555
C25 O3 1_555 1_555
H21 C25 1_555 1_555
H22 C25 1_555 1_555
H23 C25 1_555 1_555
C26 N1 1_555 1_555
H24 C26 1_555 1_555
N2 C26 1_555 1_555
C3 C9 1_555 1_555
C7 C17 1_555 1_555
C8 C13 1_555 1_555
C9 C26 1_555 1_555
C15 C17 1_555 1_555
C18 C24 1_555 1_555
C19 C20 1_555 1_555
C22 C23 1_555 1_555

#END
