
#######################################################################
#
#                 Cambridge Crystallographic Data Centre
#                                CCDC 
#
#######################################################################
#
# If this CIF has been generated from an entry in the Cambridge 
# Structural Database, then it will include bibliographic, chemical, 
# crystal, experimental, refinement or atomic coordinate data resulting 
# from the CCDC's data processing and validation procedures.
#
#######################################################################

data_DIVGIB
_chemical_formula_moiety         'C26 H23 Br1 N2 O4'
_chemical_name_systematic        
'(S)-(+)-dimthyl 2-(4-bromophenyl)-1,2,3,6-tetrahydro-1,3-diphenylpyrimidine-4,5-dicarboxylate'
_symmetry_cell_setting           tetragonal
_symmetry_space_group_name_H-M   'P 41 21 2'
_symmetry_Int_Tables_number      92
_space_group_name_Hall           'P 4abw 2nw'
loop_
_symmetry_equiv_pos_site_id
_symmetry_equiv_pos_as_xyz
1 x,y,z
2 1/2-y,1/2+x,1/4+z
3 -x,-y,1/2+z
4 1/2+y,1/2-x,3/4+z
5 1/2+x,1/2-y,3/4-z
6 y,x,-z
7 1/2-x,1/2+y,1/4-z
8 -y,-x,1/2-z
_cell_length_a                   11.3983(4)
_cell_length_b                   11.3983(4)
_cell_length_c                   36.807(3)
_cell_angle_alpha                90
_cell_angle_beta                 90
_cell_angle_gamma                90
_cell_volume                     4782.01
_exptl_crystal_colour            'light green'
_exptl_crystal_description       Rectangle
_chemical_melting_point          '401.7-402.2 K'
_cell_formula_units_Z            8
_exptl_crystal_recrystallization_method dichloromethane/cyclohexane
_exptl_crystal_preparation       ', Luminescent'
loop_
_atom_site_label
_atom_site_type_symbol
_atom_site_fract_x
_atom_site_fract_y
_atom_site_fract_z
Br1 Br 0.42435(5) 0.71390(4) 0.31563(2)
O1 O 0.5309(2) 0.1088(3) 0.38925(8)
O2 O 0.5174(2) -0.0658(2) 0.36117(8)
O3 O 0.6237(3) 0.0623(3) 0.30579(8)
O4 O 0.5293(3) 0.0557(3) 0.25276(7)
N1 N 0.2992(3) 0.1347(3) 0.35522(8)
N2 N 0.2079(3) 0.1507(3) 0.29627(8)
C1 C 0.4902(3) 0.0462(3) 0.36638(11)
C2 C 0.2526(3) 0.0942(3) 0.38875(10)
C3 C 0.3980(3) 0.0871(3) 0.33980(10)
C4 C 0.2888(3) 0.3294(3) 0.32524(10)
C5 C 0.2298(3) 0.2109(3) 0.33093(9)
H1 H 0.1537 0.2249 0.3426
C6 C 0.2597(3) -0.0236(3) 0.39814(11)
H2 H 0.2924 -0.0771 0.3820
C7 C 0.1273(3) 0.0544(4) 0.29986(9)
C8 C 0.1999(4) 0.1729(4) 0.41251(10)
H3 H 0.1940 0.2518 0.4064
C9 C 0.3194(3) 0.1264(4) 0.27796(10)
H4 H 0.3444 0.1964 0.2651
H5 H 0.3071 0.0651 0.2601
C10 C 0.3669(4) 0.3745(4) 0.35015(11)
H6 H 0.3911 0.3280 0.3695
C11 C 0.4160(3) 0.0887(3) 0.30348(10)
C12 C 0.5336(4) 0.0667(4) 0.28857(11)
C13 C 0.4104(4) 0.4881(4) 0.34695(12)
H7 H 0.4633 0.5176 0.3639
C14 C 0.3736(4) 0.5557(3) 0.31825(13)
C15 C 0.0102(4) 0.0808(4) 0.30558(11)
H8 H -0.0133 0.1586 0.3079
C16 C 0.2578(4) 0.3984(4) 0.29552(11)
H9 H 0.2080 0.3681 0.2778
C17 C 0.1565(4) 0.1334(4) 0.44519(11)
H10 H 0.1206 0.1861 0.4610
C18 C 0.3005(4) 0.5120(4) 0.29214(12)
H11 H 0.2794 0.5580 0.2723
C19 C 0.1606(4) -0.0615(4) 0.29676(11)
H12 H 0.2390 -0.0802 0.2929
C20 C 0.2185(4) -0.0615(4) 0.43143(12)
H13 H 0.2265 -0.1398 0.4381
C21 C 0.1653(4) 0.0172(5) 0.45488(12)
H14 H 0.1357 -0.0084 0.4771
C22 C -0.0725(5) -0.0092(6) 0.30791(13)
H15 H -0.1513 0.0083 0.3115
C23 C 0.6424(5) 0.0489(5) 0.23465(13)
H16 H 0.6308 0.0348 0.2092
H17 H 0.6875 -0.0140 0.2449
H18 H 0.6838 0.1216 0.2379
C24 C -0.0368(6) -0.1234(5) 0.30482(14)
H19 H -0.0917 -0.1836 0.3065
C25 C 0.0784(6) -0.1497(5) 0.29936(14)
H20 H 0.1018 -0.2276 0.2974
C26 C 0.6154(5) -0.1095(5) 0.38225(16)
H21 H 0.6869 -0.0755 0.3734
H22 H 0.6194 -0.1933 0.3801
H23 H 0.6049 -0.0886 0.4073
loop_
_geom_bond_atom_site_label_1
_geom_bond_atom_site_label_2
_geom_bond_site_symmetry_1
_geom_bond_site_symmetry_2
Br1 C14 1_555 1_555
O1 C1 1_555 1_555
O2 C1 1_555 1_555
O3 C12 1_555 1_555
O4 C12 1_555 1_555
N1 C2 1_555 1_555
N2 C5 1_555 1_555
C1 C3 1_555 1_555
C2 C6 1_555 1_555
C3 N1 1_555 1_555
C4 C5 1_555 1_555
C5 N1 1_555 1_555
H1 C5 1_555 1_555
C6 H2 1_555 1_555
C7 N2 1_555 1_555
C8 C2 1_555 1_555
H3 C8 1_555 1_555
C9 N2 1_555 1_555
H4 C9 1_555 1_555
H5 C9 1_555 1_555
C10 C4 1_555 1_555
H6 C10 1_555 1_555
C11 C3 1_555 1_555
C12 C11 1_555 1_555
C13 C10 1_555 1_555
H7 C13 1_555 1_555
C14 C13 1_555 1_555
C15 C7 1_555 1_555
H8 C15 1_555 1_555
C16 C4 1_555 1_555
H9 C16 1_555 1_555
C17 C8 1_555 1_555
H10 C17 1_555 1_555
C18 C14 1_555 1_555
H11 C18 1_555 1_555
C19 C7 1_555 1_555
H12 C19 1_555 1_555
C20 C6 1_555 1_555
H13 C20 1_555 1_555
C21 C17 1_555 1_555
H14 C21 1_555 1_555
C22 C15 1_555 1_555
H15 C22 1_555 1_555
C23 O4 1_555 1_555
H16 C23 1_555 1_555
H17 C23 1_555 1_555
H18 C23 1_555 1_555
C24 C22 1_555 1_555
H19 C24 1_555 1_555
C25 C19 1_555 1_555
H20 C25 1_555 1_555
C26 O2 1_555 1_555
H21 C26 1_555 1_555
H22 C26 1_555 1_555
H23 C26 1_555 1_555
C9 C11 1_555 1_555
C16 C18 1_555 1_555
C20 C21 1_555 1_555
C24 C25 1_555 1_555

#END
