
#######################################################################
#
#                 Cambridge Crystallographic Data Centre
#                                CCDC 
#
#######################################################################
#
# If this CIF has been generated from an entry in the Cambridge 
# Structural Database, then it will include bibliographic, chemical, 
# crystal, experimental, refinement or atomic coordinate data resulting 
# from the CCDC's data processing and validation procedures.
#
#######################################################################

data_DIVSOQ01
_chemical_formula_moiety         'C11 H14 N2 S3'
_chemical_name_systematic        
5,6,7,8,9,10-hexahydro-1H,4H-2-thia-3a,6a-diazacyclohepta[1,2,3-de]naphthalene-1,3-dithione
_symmetry_cell_setting           monoclinic
_symmetry_space_group_name_H-M   'P 21/c'
_symmetry_Int_Tables_number      14
_space_group_name_Hall           '-P 2ybc'
loop_
_symmetry_equiv_pos_site_id
_symmetry_equiv_pos_as_xyz
1 x,y,z
2 -x,1/2+y,1/2-z
3 -x,-y,-z
4 x,1/2-y,1/2+z
_cell_length_a                   16.374(2)
_cell_length_b                   9.3327(12)
_cell_length_c                   7.7832(10)
_cell_angle_alpha                90
_cell_angle_beta                 90.0325(15)
_cell_angle_gamma                90
_cell_volume                     1189.38
_exptl_crystal_colour            brown
_exptl_crystal_description       plate
_cell_formula_units_Z            4
loop_
_atom_site_label
_atom_site_type_symbol
_atom_site_fract_x
_atom_site_fract_y
_atom_site_fract_z
S1 S 0.0741(5) 0.3822(7) 0.8846(9)
S2 S 0.2550(5) 0.4105(12) 0.8088(12)
S3 S 0.4263(3) 0.3846(7) 0.8834(9)
N1 N 0.3262(9) 0.1488(10) 0.8513(19)
N2 N 0.2633(3) -0.0460(9) 0.7581(13)
C1 C 0.3364(3) -0.1334(6) 0.7730(11)
H1 H 0.3664 -0.1314 0.6627
H2 H 0.3205 -0.2339 0.7964
C2 C 0.3915(5) -0.0815(10) 0.9139(12)
H3 H 0.4435 -0.1355 0.9122
H4 H 0.3652 -0.0965 1.0270
C3 C 0.4087(6) 0.0855(9) 0.8841(16)
H5 H 0.4342 0.1290 0.9870
H6 H 0.4451 0.1003 0.7842
C4 C 0.2438(5) 0.0849(18) 0.816(3)
C5 C 0.1793(8) 0.150(2) 0.841(3)
C6 C 0.0995(7) 0.0567(10) 0.8949(13)
H7 H 0.0711 0.1061 0.9902
H8 H 0.0615 0.0536 0.7959
C7 C 0.1185(6) -0.0978(8) 0.9508(11)
H9 H 0.1641 -0.0971 1.0343
H10 H 0.0701 -0.1392 1.0086
C8 C 0.1412(4) -0.1898(6) 0.7984(11)
H11 H 0.1690 -0.2773 0.8406
H12 H 0.0906 -0.2201 0.7391
C9 C 0.1938(3) -0.1192(6) 0.6758(10)
H13 H 0.1615 -0.0482 0.6102
H14 H 0.2149 -0.1910 0.5934
C10 C 0.1699(8) 0.301(2) 0.847(2)
C11 C 0.3358(8) 0.2884(10) 0.8472(19)
S4? S 0.4168(4) 0.3993(8) 0.8621(11)
S5? S 0.2439(6) 0.4121(12) 0.8252(12)
S6? S 0.0806(5) 0.3995(8) 0.8579(9)
N3? N 0.1699(7) 0.1550(18) 0.846(2)
N4? N 0.2367(3) -0.0512(9) 0.7596(14)
C12? C 0.1607(3) -0.1359(6) 0.7733(12)
H15? H 0.1732 -0.2367 0.8027
H16? H 0.1303 -0.1341 0.6632
C13? C 0.1112(5) -0.0667(8) 0.9138(12)
H17? H 0.0584 -0.1169 0.9285
H18? H 0.1413 -0.0694 1.0241
C14? C 0.0981(8) 0.0791(11) 0.8598(11)
H19? H 0.0700 0.0792 0.7472
H20? H 0.0620 0.1275 0.9437
C15? C 0.2565(5) 0.0902(18) 0.816(3)
C16? C 0.3274(11) 0.1703(13) 0.843(2)
C17? C 0.3954(6) 0.0584(10) 0.8911(17)
H21? H 0.4288 0.0443 0.7866
H22? H 0.4311 0.1054 0.9768
C18? C 0.3770(5) -0.0860(10) 0.9587(10)
H23? H 0.3277 -0.0809 1.0320
H24? H 0.4230 -0.1183 1.0316
C19? C 0.3626(3) -0.1975(6) 0.8143(10)
H25? H 0.3351 -0.2838 0.8603
H26? H 0.4151 -0.2266 0.7617
C20? C 0.3064(3) -0.1197(6) 0.6775(10)
H27? H 0.3388 -0.0467 0.6155
H28? H 0.2867 -0.1907 0.5925
C21? C 0.3315(9) 0.3152(11) 0.8365(19)
C22? C 0.1588(8) 0.304(2) 0.857(3)
loop_
_geom_bond_atom_site_label_1
_geom_bond_atom_site_label_2
_geom_bond_site_symmetry_1
_geom_bond_site_symmetry_2
S1 C10 1_555 1_555
S2 C10 1_555 1_555
S3 C11 1_555 1_555
N1 C3 1_555 1_555
N2 C1 1_555 1_555
C1 H1 1_555 1_555
H2 C1 1_555 1_555
C2 C1 1_555 1_555
H3 C2 1_555 1_555
H4 C2 1_555 1_555
C3 C2 1_555 1_555
H5 C3 1_555 1_555
H6 C3 1_555 1_555
C4 N1 1_555 1_555
C5 C4 1_555 1_555
C6 C5 1_555 1_555
H7 C6 1_555 1_555
H8 C6 1_555 1_555
C7 C6 1_555 1_555
H9 C7 1_555 1_555
H10 C7 1_555 1_555
C8 C7 1_555 1_555
H11 C8 1_555 1_555
H12 C8 1_555 1_555
C9 N2 1_555 1_555
H13 C9 1_555 1_555
H14 C9 1_555 1_555
C10 C5 1_555 1_555
C11 S2 1_555 1_555
N1 C11 1_555 1_555
N2 C4 1_555 1_555
C8 C9 1_555 1_555

#END
