
#######################################################################
#
#                 Cambridge Crystallographic Data Centre
#                                CCDC 
#
#######################################################################
#
# If this CIF has been generated from an entry in the Cambridge 
# Structural Database, then it will include bibliographic, chemical, 
# crystal, experimental, refinement or atomic coordinate data resulting 
# from the CCDC's data processing and validation procedures.
#
#######################################################################

data_DIVTAG
_chemical_formula_moiety         'C76 H72 N8 O8 Te4,4(C1 H1 Cl3)'
_chemical_name_systematic        
'(17s,18s,19s,20s)-17,18,19,20-tetra-n-hexyl-2,4,6,8,10,12,14,16-octaoxa-3,7,11,15(5,6)-tetrakis(2,1,3-benzotelluradiazola)-1,5,9,13(1,5,2,4)-tetrabenzenapentacyclo[11.3.1.1^1,5^.1^5,9^.1^9,13^]icosaphane chloroform solvate'
_symmetry_cell_setting           monoclinic
_symmetry_space_group_name_H-M   'C 2/c'
_symmetry_Int_Tables_number      15
_space_group_name_Hall           '-C 2yn'
loop_
_symmetry_equiv_pos_site_id
_symmetry_equiv_pos_as_xyz
1 x,y,z
2 -x,y,1/2-z
3 1/2+x,1/2+y,z
4 1/2-x,1/2+y,1/2-z
5 -x,-y,-z
6 x,-y,1/2+z
7 1/2-x,1/2-y,-z
8 1/2+x,1/2-y,1/2+z
_cell_length_a                   27.0988(3)
_cell_length_b                   28.3944(3)
_cell_length_c                   23.5967(2)
_cell_angle_alpha                90
_cell_angle_beta                 103.7480(10)
_cell_angle_gamma                90
_cell_volume                     17636.4
_exptl_crystal_colour            orange
_exptl_crystal_description       plank
_cell_formula_units_Z            8
_exptl_crystal_recrystallization_method 
'Re-crystallisation from solvent: Chloroform'
loop_
_atom_site_label
_atom_site_type_symbol
_atom_site_fract_x
_atom_site_fract_y
_atom_site_fract_z
Te1 Te 0.45671(2) 0.51990(2) 0.91022(2)
Te2 Te 0.53151(2) 0.41552(2) 0.68677(2)
Te3 Te 0.56578(2) 0.65162(2) 0.58745(2)
Te4 Te 0.48400(2) 0.74645(2) 0.82549(3)
O1 O 0.32147(15) 0.44582(15) 0.49663(16)
O2 O 0.34496(17) 0.60256(17) 0.42805(18)
O3 O 0.28915(15) 0.40694(15) 0.58603(18)
O4 O 0.23495(16) 0.47403(17) 0.74822(18)
O5 O 0.33122(18) 0.69030(17) 0.4630(2)
O6 O 0.22214(16) 0.56202(19) 0.78695(18)
O7 O 0.24438(19) 0.71928(17) 0.7192(2)
O8 O 0.2760(2) 0.75342(17) 0.6266(2)
N1 N 0.40876(19) 0.47490(19) 0.8583(2)
N2 N 0.39511(19) 0.56273(19) 0.8965(2)
N3 N 0.46245(19) 0.39512(19) 0.6965(2)
N4 N 0.49335(19) 0.4420(2) 0.6091(2)
N5 N 0.5186(2) 0.6054(2) 0.5390(2)
N6 N 0.4471(3) 0.7594(2) 0.7418(3)
N7 N 0.5071(3) 0.6961(2) 0.5704(3)
N8 N 0.4146(3) 0.7281(2) 0.8372(3)
C1 C -0.0793(8) 0.4050(9) 0.5314(13)
H1 H -0.113304 0.409210 0.508278
H2 H -0.060145 0.386704 0.509980
H3 H -0.080323 0.388925 0.566923
C2 C -0.0546(6) 0.4522(7) 0.5457(9)
H4 H -0.054612 0.468442 0.509533
H5 H -0.074773 0.470662 0.566429
C3 C -0.0015(5) 0.4495(6) 0.5816(8)
H6 H 0.017756 0.428631 0.562493
H7 H -0.001996 0.435682 0.619108
C4 C 0.0253(4) 0.4963(5) 0.5919(8)
H8 H 0.005369 0.518139 0.608955
H9 H 0.028639 0.509283 0.554956
C5 C 0.0778(4) 0.4907(5) 0.6326(10)
H10 H 0.074225 0.481514 0.671062
H11 H 0.096056 0.465785 0.618096
C6 C 0.1079(2) 0.5356(3) 0.6373(3)
H12 H 0.089319 0.559917 0.652422
H13 H 0.109547 0.545070 0.598305
C7 C 0.0872(9) 0.3474(6) 0.2518(8)
H14 H 0.090018 0.314095 0.258452
H15 H 0.053092 0.355004 0.231237
H16 H 0.110404 0.357028 0.228979
C8 C 0.0999(8) 0.3732(5) 0.3102(7)
H17 H 0.076835 0.362308 0.333173
H18 H 0.133992 0.364326 0.330920
C9 C 0.0972(5) 0.4262(5) 0.3073(5)
H19 H 0.064214 0.435162 0.283423
H20 H 0.122712 0.437422 0.287879
C10 C 0.1052(4) 0.4511(6) 0.3670(5)
H21 H 0.095363 0.483907 0.360594
H22 H 0.082981 0.436807 0.388916
C11 C 0.1599(3) 0.4487(3) 0.4034(3)
H23 H 0.172269 0.416747 0.402577
H24 H 0.180942 0.468996 0.385855
C12 C 0.1653(2) 0.4636(3) 0.4668(3)
H25 H 0.145726 0.442165 0.484913
H26 H 0.151001 0.494846 0.467481
C13 C 0.1412(5) 0.6472(4) 0.1424(4)
H27 H 0.110803 0.664361 0.125114
H28 H 0.139164 0.616152 0.125954
H29 H 0.170053 0.663356 0.134663
C14 C 0.1467(12) 0.6439(9) 0.2064(7)
H30 H 0.130870 0.671611 0.218188
H31 H 0.182745 0.646002 0.224615
C15 C 0.1265(6) 0.6021(6) 0.2324(4)
H32 H 0.090733 0.597707 0.214420
H33 H 0.144683 0.573802 0.226338
C16 C 0.1341(4) 0.6118(5) 0.2956(4)
H34 H 0.114205 0.589016 0.311314
H35 H 0.119879 0.642612 0.299686
C17 C 0.1873(3) 0.6109(4) 0.3333(3)
H36 H 0.209172 0.629395 0.314849
H37 H 0.199684 0.578727 0.336486
C18 C 0.1902(3) 0.6301(3) 0.3937(3)
H38 H 0.169815 0.610719 0.413230
H39 H 0.176571 0.661839 0.390803
C19 C -0.0693(7) 0.6665(7) 0.4715(6)
H40 H -0.105378 0.670544 0.465218
H41 H -0.056165 0.689011 0.448547
H42 H -0.062126 0.635219 0.460321
C20 C -0.0445(5) 0.6740(9) 0.5353(6)
H43 H -0.059115 0.651654 0.557885
H44 H -0.053170 0.705299 0.546143
C21 C 0.0125(5) 0.6688(6) 0.5525(11)
H45 H 0.021966 0.651377 0.588855
H46 H 0.023435 0.650666 0.522860
C22 C 0.0399(4) 0.7155(6) 0.5600(9)
H47 H 0.041583 0.727120 0.521864
H48 H 0.020133 0.737896 0.576507
C23 C 0.0931(3) 0.7138(4) 0.5984(4)
H49 H 0.102823 0.745140 0.613439
H50 H 0.093491 0.693326 0.631421
C24 C 0.1312(3) 0.6962(3) 0.5661(3)
H51 H 0.128082 0.714695 0.530842
H52 H 0.123308 0.663790 0.554590
C25 C 0.3577(2) 0.4375(2) 0.5474(2)
C26 C 0.2206(2) 0.4640(2) 0.5026(3)
H53 H 0.235153 0.433523 0.495748
C27 C 0.2656(2) 0.5817(2) 0.4484(3)
C28 C 0.3157(2) 0.5696(2) 0.4497(2)
C29 C 0.2337(2) 0.4738(2) 0.6880(2)
C30 C 0.3407(2) 0.41578(19) 0.5943(3)
C31 C 0.2253(2) 0.4672(2) 0.5680(2)
C32 C 0.1970(2) 0.5009(2) 0.6507(3)
C33 C 0.3569(2) 0.5425(2) 0.8618(2)
C34 C 0.3349(2) 0.5251(2) 0.4670(2)
H54 H 0.368280 0.517648 0.466957
C35 C 0.3852(2) 0.6235(2) 0.4667(2)
C36 C 0.2603(2) 0.4406(2) 0.6077(3)
C37 C 0.2532(2) 0.5013(2) 0.4836(2)
C38 C 0.2358(2) 0.5464(2) 0.4663(2)
H55 H 0.202415 0.553869 0.466620
C39 C 0.3053(3) 0.7191(2) 0.5468(3)
H56 H 0.334153 0.737894 0.556417
C40 C 0.4445(2) 0.4328(2) 0.6029(2)
C41 C 0.4075(2) 0.4464(2) 0.5521(3)
H57 H 0.417745 0.461498 0.521855
C42 C 0.1945(2) 0.4974(2) 0.5912(2)
H58 H 0.171213 0.516167 0.565648
C43 C 0.3040(2) 0.4921(2) 0.4842(2)
C44 C 0.3634(2) 0.4941(2) 0.8415(2)
C45 C 0.4740(2) 0.6253(2) 0.5204(3)
C46 C 0.2250(3) 0.6942(2) 0.5669(3)
C47 C 0.3991(3) 0.7498(2) 0.7351(3)
C48 C 0.3077(3) 0.5647(3) 0.8436(3)
H59 H 0.301928 0.594218 0.857895
C49 C 0.2644(2) 0.4430(2) 0.6669(3)
H60 H 0.287686 0.424176 0.692363
C50 C 0.2454(3) 0.6307(2) 0.4296(3)
H61 H 0.266147 0.643388 0.404359
C51 C 0.2767(2) 0.4954(2) 0.7852(2)
C52 C 0.3210(2) 0.4712(2) 0.8024(3)
H62 H 0.323940 0.440635 0.789403
C53 C 0.2698(3) 0.7209(2) 0.5811(3)
C54 C 0.4668(3) 0.6742(2) 0.5374(3)
C55 C 0.4275(2) 0.4083(2) 0.6487(2)
C56 C 0.2702(2) 0.5420(2) 0.8053(3)
C57 C 0.2536(3) 0.6616(2) 0.4825(3)
C58 C 0.1625(2) 0.5343(3) 0.6757(3)
H63 H 0.160539 0.521603 0.713784
C59 C 0.2156(2) 0.5950(3) 0.7405(3)
C60 C 0.2178(3) 0.6648(3) 0.5172(3)
H64 H 0.188248 0.646944 0.506877
C61 C 0.3746(2) 0.4002(2) 0.6438(3)
H65 H 0.363457 0.384813 0.673251
C62 C 0.1777(2) 0.6163(2) 0.6432(3)
H66 H 0.158638 0.608104 0.606312
C63 C 0.2964(3) 0.7269(3) 0.7267(3)
C64 C 0.3784(3) 0.6702(2) 0.4849(3)
C65 C 0.2981(2) 0.6901(2) 0.4995(3)
C66 C 0.4305(2) 0.6012(2) 0.4821(3)
H67 H 0.434107 0.570951 0.468620
C67 C 0.1871(3) 0.6989(3) 0.6025(3)
H68 H 0.191822 0.730014 0.621065
C68 C 0.2359(3) 0.6393(3) 0.7516(3)
H69 H 0.255213 0.647020 0.788501
C69 C 0.3132(3) 0.7439(2) 0.6770(3)
C70 C 0.1964(3) 0.6619(2) 0.6515(3)
C71 C 0.1857(2) 0.5825(3) 0.6863(3)
C72 C 0.2273(2) 0.6722(2) 0.7074(3)
C73 C 0.3624(3) 0.7554(2) 0.6819(4)
H70 H 0.372341 0.767313 0.649606
C74 C 0.3802(3) 0.7329(3) 0.7867(4)
C75 C 0.4176(3) 0.6958(2) 0.5184(3)
H71 H 0.412500 0.726687 0.528708
C76 C 0.3295(3) 0.7220(3) 0.7792(4)
H72 H 0.317870 0.711142 0.810821
Cl1 Cl 0.66753(15) 0.33659(11) 0.68179(14)
Cl2 Cl 0.71435(19) 0.31320(15) 0.80120(16)
Cl3 Cl 0.60709(18) 0.29515(13) 0.7506(2)
C90 C 0.6700(5) 0.2975(4) 0.7381(5)
H108 H 0.678787 0.266310 0.725771
C77? C 0.0083(16) 0.396(2) 0.4957(19)
H73? H -0.014993 0.389817 0.458926
H74? H 0.034642 0.416749 0.489729
H75? H 0.023190 0.366941 0.512263
C78? C -0.0198(11) 0.4190(13) 0.5369(14)
H76? H -0.035337 0.447972 0.519509
H77? H -0.046791 0.398156 0.542047
C79? C 0.0144(13) 0.4297(10) 0.5955(12)
H78? H 0.043769 0.409090 0.601941
H79? H -0.003589 0.423115 0.625548
C80? C 0.0326(8) 0.4806(8) 0.6015(17)
H80? H 0.024961 0.495035 0.563127
H81? H 0.013867 0.497560 0.625264
C81? C 0.0883(9) 0.4854(7) 0.628(2)
H82? H 0.106796 0.469215 0.603469
H83? H 0.095927 0.469481 0.665677
H84? H 0.086278 0.554055 0.656265
H85? H 0.107668 0.550108 0.600022
C82? C 0.1322(15) 0.3239(14) 0.3008(14)
H86? H 0.159572 0.310407 0.286756
H87? H 0.109188 0.299444 0.305880
H88? H 0.114488 0.346462 0.273010
C83? C 0.1538(10) 0.3485(10) 0.3597(12)
H89? H 0.172235 0.325708 0.387342
H90? H 0.177538 0.372750 0.354456
C84? C 0.1117(8) 0.3709(6) 0.3846(10)
H91? H 0.079245 0.357395 0.365158
H92? H 0.117833 0.363425 0.425771
C85? C 0.1090(7) 0.4247(7) 0.3770(9)
H93? H 0.098741 0.432142 0.335800
H94? H 0.083415 0.437076 0.395551
H95? H 0.187273 0.427304 0.401343
H96? H 0.163140 0.476328 0.380339
C86? C -0.0482(15) 0.8114(8) 0.5722(13)
H97? H -0.074396 0.824075 0.541185
H98? H -0.059633 0.811422 0.607750
H99? H -0.018217 0.830484 0.577182
C87? C -0.0363(13) 0.7617(10) 0.5574(16)
H100? H -0.067003 0.742938 0.551469
H101? H -0.025628 0.761982 0.520932
C88? C 0.0047(8) 0.7383(13) 0.6035(12)
H102? H -0.011188 0.721917 0.630634
H103? H 0.026559 0.762498 0.625196
C89? C 0.0368(3) 0.7038(9) 0.5795(15)
H104? H 0.030477 0.672302 0.591984
H105? H 0.026579 0.704499 0.537179
H106? H 0.096602 0.747827 0.600454
H107? H 0.104209 0.702311 0.638124
loop_
_geom_bond_atom_site_label_1
_geom_bond_atom_site_label_2
_geom_bond_site_symmetry_1
_geom_bond_site_symmetry_2
Te1 N1 1_555 1_555
Te2 N3 1_555 1_555
Te3 N5 1_555 1_555
Te4 N6 1_555 1_555
O1 C25 1_555 1_555
O2 C28 1_555 1_555
O3 C30 1_555 1_555
O4 C29 1_555 1_555
O5 C64 1_555 1_555
O6 C56 1_555 1_555
O7 C63 1_555 1_555
O8 C53 1_555 1_555
N1 C44 1_555 1_555
N2 Te1 1_555 1_555
N3 C55 1_555 1_555
N4 Te2 1_555 1_555
N5 C45 1_555 1_555
N6 C47 1_555 1_555
N7 Te3 1_555 1_555
N8 Te4 1_555 1_555
C1 H1 1_555 1_555
H2 C1 1_555 1_555
H3 C1 1_555 1_555
C2 C1 1_555 1_555
H4 C2 1_555 1_555
H5 C2 1_555 1_555
C3 C2 1_555 1_555
H6 C3 1_555 1_555
H7 C3 1_555 1_555
C4 C3 1_555 1_555
H8 C4 1_555 1_555
H9 C4 1_555 1_555
C5 C4 1_555 1_555
H10 C5 1_555 1_555
H11 C5 1_555 1_555
C6 C5 1_555 1_555
H12 C6 1_555 1_555
H13 C6 1_555 1_555
C7 H14 1_555 1_555
H15 C7 1_555 1_555
H16 C7 1_555 1_555
C8 C7 1_555 1_555
H17 C8 1_555 1_555
H18 C8 1_555 1_555
C9 C8 1_555 1_555
H19 C9 1_555 1_555
H20 C9 1_555 1_555
C10 C9 1_555 1_555
H21 C10 1_555 1_555
H22 C10 1_555 1_555
C11 C10 1_555 1_555
H23 C11 1_555 1_555
H24 C11 1_555 1_555
C12 C11 1_555 1_555
H25 C12 1_555 1_555
H26 C12 1_555 1_555
C13 H27 1_555 1_555
H28 C13 1_555 1_555
H29 C13 1_555 1_555
C14 C13 1_555 1_555
H30 C14 1_555 1_555
H31 C14 1_555 1_555
C15 C14 1_555 1_555
H32 C15 1_555 1_555
H33 C15 1_555 1_555
C16 C15 1_555 1_555
H34 C16 1_555 1_555
H35 C16 1_555 1_555
C17 C16 1_555 1_555
H36 C17 1_555 1_555
H37 C17 1_555 1_555
C18 C17 1_555 1_555
H38 C18 1_555 1_555
H39 C18 1_555 1_555
C19 H40 1_555 1_555
H41 C19 1_555 1_555
H42 C19 1_555 1_555
C20 C19 1_555 1_555
H43 C20 1_555 1_555
H44 C20 1_555 1_555
C21 C20 1_555 1_555
H45 C21 1_555 1_555
H46 C21 1_555 1_555
C22 C21 1_555 1_555
H47 C22 1_555 1_555
H48 C22 1_555 1_555
C23 C22 1_555 1_555
H49 C23 1_555 1_555
H50 C23 1_555 1_555
C24 C23 1_555 1_555
H51 C24 1_555 1_555
H52 C24 1_555 1_555
C25 C30 1_555 1_555
C26 C12 1_555 1_555
H53 C26 1_555 1_555
C27 C28 1_555 1_555
C28 C34 1_555 1_555
C29 C32 1_555 1_555
C30 C61 1_555 1_555
C31 C26 1_555 1_555
C32 C42 1_555 1_555
C33 N2 1_555 1_555
C34 H54 1_555 1_555
C35 O2 1_555 1_555
C36 O3 1_555 1_555
C37 C26 1_555 1_555
C38 C27 1_555 1_555
H55 C38 1_555 1_555
C39 H56 1_555 1_555
C40 N4 1_555 1_555
C41 C25 1_555 1_555
H57 C41 1_555 1_555
C42 C31 1_555 1_555
H58 C42 1_555 1_555
C43 O1 1_555 1_555
C44 C33 1_555 1_555
C45 C54 1_555 1_555
C46 C53 1_555 1_555
C47 C73 1_555 1_555
C48 C33 1_555 1_555
H59 C48 1_555 1_555
C49 C29 1_555 1_555
H60 C49 1_555 1_555
C50 C18 1_555 1_555
H61 C50 1_555 1_555
C51 O4 1_555 1_555
C52 C44 1_555 1_555
H62 C52 1_555 1_555
C53 C39 1_555 1_555
C54 N7 1_555 1_555
C55 C40 1_555 1_555
C56 C48 1_555 1_555
C57 C50 1_555 1_555
C58 C6 1_555 1_555
H63 C58 1_555 1_555
C59 O6 1_555 1_555
C60 C46 1_555 1_555
H64 C60 1_555 1_555
C61 C55 1_555 1_555
H65 C61 1_555 1_555
C62 H66 1_555 1_555
C63 C69 1_555 1_555
C64 C35 1_555 1_555
C65 O5 1_555 1_555
C66 C35 1_555 1_555
H67 C66 1_555 1_555
C67 C24 1_555 1_555
H68 C67 1_555 1_555
C68 C59 1_555 1_555
H69 C68 1_555 1_555
C69 O8 1_555 1_555
C70 C62 1_555 1_555
C71 C58 1_555 1_555
C72 O7 1_555 1_555
C73 C69 1_555 1_555
H70 C73 1_555 1_555
C74 N8 1_555 1_555
C75 C54 1_555 1_555
H71 C75 1_555 1_555
C76 C63 1_555 1_555
H72 C76 1_555 1_555
Cl1 C90 1_555 1_555
Cl2 C90 1_555 1_555
Cl3 C90 1_555 1_555
C90 H108 1_555 1_555
C27 C50 1_555 1_555
C31 C36 1_555 1_555
C32 C58 1_555 1_555
C34 C43 1_555 1_555
C36 C49 1_555 1_555
C37 C38 1_555 1_555
C37 C43 1_555 1_555
C39 C65 1_555 1_555
C40 C41 1_555 1_555
C45 C66 1_555 1_555
C46 C67 1_555 1_555
C47 C74 1_555 1_555
C51 C52 1_555 1_555
C51 C56 1_555 1_555
C57 C60 1_555 1_555
C57 C65 1_555 1_555
C59 C71 1_555 1_555
C62 C71 1_555 1_555
C64 C75 1_555 1_555
C67 C70 1_555 1_555
C68 C72 1_555 1_555
C70 C72 1_555 1_555
C74 C76 1_555 1_555

#END
