
#######################################################################
#
#                 Cambridge Crystallographic Data Centre
#                                CCDC 
#
#######################################################################
#
# If this CIF has been generated from an entry in the Cambridge 
# Structural Database, then it will include bibliographic, chemical, 
# crystal, experimental, refinement or atomic coordinate data resulting 
# from the CCDC's data processing and validation procedures.
#
#######################################################################

data_DIVTIO
_chemical_formula_moiety         'C96 H112 N8 O8 S4'
_chemical_name_systematic        
'(17s,18s,19s,20s)-17,18,19,20-tetra-n-undecyl-2,4,6,8,10,12,14,16-octaoxa-3,7,11,15(5,6)-tetrakis(2,1,3-benzothiadiazola)-1,5,9,13(1,5,2,4)-tetrabenzenapentacyclo[11.3.1.1^1,5^.1^5,9^.1^9,13^]icosaphane unknown solvate'
_symmetry_cell_setting           triclinic
_symmetry_space_group_name_H-M   'P -1'
_symmetry_Int_Tables_number      2
_space_group_name_Hall           '-P 1'
loop_
_symmetry_equiv_pos_site_id
_symmetry_equiv_pos_as_xyz
1 x,y,z
2 -x,-y,-z
_cell_length_a                   12.89645(7)
_cell_length_b                   13.29862(7)
_cell_length_c                   25.49663(10)
_cell_angle_alpha                93.2390(4)
_cell_angle_beta                 93.1253(4)
_cell_angle_gamma                94.2921(5)
_cell_volume                     4345.98
_exptl_crystal_colour            'light yellow'
_exptl_crystal_description       plate
_cell_formula_units_Z            2
_exptl_crystal_recrystallization_method 
'Re-crystallisation from solvent: Dichloromethane'
loop_
_atom_site_label
_atom_site_type_symbol
_atom_site_fract_x
_atom_site_fract_y
_atom_site_fract_z
S1 S 0.61331(3) 0.40880(3) -0.09217(2)
S2 S 0.27631(5) 0.77906(4) -0.15237(2)
S3 S 0.20325(18) 0.10827(15) -0.00054(8)
S4 S -0.14098(4) 0.44689(7) -0.05368(2)
O1 O -0.07091(9) 0.55152(10) 0.17922(5)
O2 O 0.66212(9) 0.50519(10) 0.14199(4)
O3 O 0.67969(9) 0.69139(9) 0.10162(5)
O4 O 0.17489(10) 0.30705(9) 0.21549(5)
O5 O 0.43795(11) 0.94072(9) 0.06430(5)
O6 O -0.05241(9) 0.73340(10) 0.13732(5)
O7 O 0.37880(11) 0.29647(9) 0.20459(5)
O8 O 0.23190(11) 0.93267(9) 0.07106(5)
N1 N 0.62406(12) 0.52752(12) -0.07306(6)
N2 N 0.61492(12) 0.35667(12) -0.03643(6)
C1 C 0.08920(12) 0.60473(12) 0.22935(6)
N3 N 0.38187(16) 0.81738(13) -0.11805(6)
C2 C 0.18381(12) 0.57807(12) 0.25146(6)
H1 H 0.228184 0.629007 0.270781
C3 C 0.21680(12) 0.48054(12) 0.24672(6)
C4 C 0.10531(13) 0.77132(12) 0.19140(6)
C5 C 0.20445(13) 0.82134(12) 0.19767(6)
H2 H 0.242800 0.819468 0.230437
C6 C 0.05701(12) 0.71280(12) 0.23487(6)
H3 H -0.020265 0.709380 0.227851
N4 N 0.3125(4) 0.1422(6) 0.0325(2)
C7 C 0.62427(12) 0.43331(13) 0.00088(7)
C8 C 0.31883(13) 0.45380(13) 0.27376(6)
H4 H 0.310795 0.380011 0.279716
C9 C 0.24992(14) 0.87415(12) 0.15781(6)
C10 C 0.15050(13) 0.40809(12) 0.21751(6)
C11 C 0.46968(13) 0.56058(13) 0.23784(6)
H5 H 0.453431 0.615218 0.260797
C12 C 0.62993(12) 0.53058(13) -0.02007(7)
C13 C 0.02695(12) 0.52934(13) 0.20003(6)
C14 C 0.64550(12) 0.51034(13) 0.08804(6)
C15 C 0.35538(14) 0.93435(12) 0.16577(7)
H6 H 0.353983 0.990413 0.141258
C16 C 0.08121(13) 0.76540(13) 0.28991(6)
H7 H 0.155367 0.759407 0.300540
H8 H 0.070806 0.838165 0.288154
C17 C 0.59906(13) 0.74976(13) 0.11707(7)
C18 C 0.48922(13) 0.80544(13) 0.18305(6)
H9 H 0.466096 0.802550 0.217711
C19 C 0.56840(13) 0.74523(13) 0.16862(6)
N5 N 0.19068(17) 0.78891(14) -0.10854(7)
C20 C 0.55650(14) 0.81358(13) 0.08240(7)
H10 H 0.580494 0.817234 0.047934
C21 C 0.44252(14) 0.86942(12) 0.14922(6)
C22 C 0.05120(13) 0.77426(13) 0.14286(7)
C23 C 0.47816(15) 0.87238(12) 0.09851(7)
C24 C 0.19257(15) 0.87256(12) 0.10989(7)
C25 C 0.05667(13) 0.43141(13) 0.19432(6)
H11 H 0.012780 0.380675 0.174572
C26 C 0.40881(13) 0.46953(13) 0.23769(6)
C27 C 0.51671(14) 0.40257(14) 0.17094(7)
H12 H 0.533550 0.347776 0.148255
C28 C 0.64485(13) 0.61907(13) 0.01403(7)
H13 H 0.648787 0.684175 0.000394
C29 C 0.57450(13) 0.49453(14) 0.17222(6)
C30 C 0.65339(12) 0.60831(13) 0.06681(6)
C31 C 0.43385(14) 0.39107(13) 0.20311(7)
N6 N 0.1205(4) 0.1428(6) 0.0409(2)
C32 C 0.37716(17) 0.89986(13) 0.02083(7)
C33 C 0.34165(13) 0.50981(13) 0.32803(6)
H14 H 0.409039 0.490505 0.343274
H15 H 0.348780 0.583388 0.323463
C34 C 0.55351(13) 0.57556(14) 0.20589(6)
C35 C 0.61907(13) 0.67584(14) 0.20623(7)
H16 H 0.687273 0.660701 0.191945
C36 C 0.01396(14) 0.72195(14) 0.33170(7)
H17 H 0.028732 0.650700 0.335657
H18 H -0.060308 0.722767 0.319780
C37 C 0.27540(14) 0.55315(14) 0.41767(6)
H19 H 0.280600 0.625072 0.409279
H20 H 0.342674 0.538885 0.435187
C38 C 0.25766(14) 0.48773(14) 0.36663(6)
H21 H 0.188889 0.499361 0.349848
H22 H 0.256357 0.415727 0.374715
N7 N -0.13557(13) 0.39557(19) 0.00234(7)
C39 C 0.63179(13) 0.42425(13) 0.05617(7)
H23 H 0.627363 0.359779 0.070523
C40 C -0.08223(13) 0.55290(16) 0.12491(7)
C41 C 0.18959(14) 0.53632(14) 0.45580(7)
H24 H 0.122036 0.549070 0.438062
H25 H 0.185516 0.464821 0.464938
C42 C 0.09425(15) 0.82458(13) 0.10190(7)
H26 H 0.056391 0.825810 0.068952
N8 N -0.12187(13) 0.5656(2) -0.03606(7)
C43 C 0.2106(8) 0.2655(15) 0.1690(4)
C44 C -0.04659(15) 0.75045(15) 0.42492(7)
H27 H -0.117423 0.758877 0.409643
H28 H -0.042611 0.678082 0.431347
C45 C 0.03248(14) 0.78010(14) 0.38506(7)
H29 H 0.030665 0.853185 0.379879
H30 H 0.103024 0.768880 0.399769
C46 C 0.37464(15) 0.98412(13) 0.22161(7)
H31 H 0.313257 1.020815 0.230411
H32 H 0.380970 0.930453 0.246705
C47 C 0.42140(18) 0.87819(13) -0.02567(7)
H33 H 0.494517 0.887577 -0.028770
C48 C 0.20672(15) 0.60359(15) 0.50597(7)
H34 H 0.209655 0.675013 0.496734
H35 H 0.275034 0.591758 0.523200
C49 C -0.07331(13) 0.64942(16) 0.10285(7)
C50 C 0.47158(16) 1.05748(14) 0.22910(7)
H36 H 0.473419 1.102918 0.199666
H37 H 0.534528 1.019230 0.228690
C51 C 0.26678(17) 0.88910(13) 0.02532(7)
C52 C 0.56287(16) 1.20042(14) 0.29094(8)
H38 H 0.575814 1.233203 0.257748
H39 H 0.626319 1.167393 0.301651
C53 C 0.64322(14) 0.72468(16) 0.26178(7)
H40 H 0.576938 0.739735 0.277264
H41 H 0.676410 0.675673 0.283803
C54 C 0.3188(7) 0.2611(9) 0.1624(3)
C55 C 0.48859(16) 1.32009(14) 0.42622(7)
H42 H 0.538687 1.380577 0.429649
H43 H 0.421787 1.341036 0.411117
C56 C 0.12268(16) 0.58663(16) 0.54520(7)
H44 H 0.054450 0.599634 0.528274
H45 H 0.118946 0.515023 0.554140
C57 C 0.35318(18) 0.84123(14) -0.06883(7)
C58 C 0.41784(16) 1.35868(15) 0.51543(7)
H46 H 0.461277 1.423577 0.518989
H47 H 0.350532 1.371382 0.497417
C59 C -0.03022(15) 0.81209(16) 0.47739(7)
H48 H 0.034971 0.794176 0.495647
H49 H -0.021442 0.884664 0.470509
C60 C -0.10545(14) 0.46553(18) 0.09410(8)
H50 H -0.113521 0.401799 0.109068
C61 C 0.54306(16) 1.28115(14) 0.33341(7)
H51 H 0.602318 1.333337 0.335846
H52 H 0.479873 1.314125 0.322220
C62 C 0.67468(16) 1.10517(15) 0.55862(7)
H53 H 0.737135 1.080669 0.576561
H54 H 0.689775 1.177978 0.553617
C63 C 0.3607(5) 0.2183(7) 0.1196(3)
H55 H 0.433520 0.214112 0.117325
C64 C 0.2882(5) 0.1810(6) 0.0793(2)
C65 C 0.20013(18) 0.85101(14) -0.01515(7)
H56 H 0.127226 0.842125 -0.011290
C66 C 0.47205(17) 1.12015(14) 0.28105(7)
H57 H 0.473402 1.073946 0.310148
H58 H 0.406206 1.153816 0.281997
C67 C 0.74678(16) 1.06075(16) 0.46976(8)
H59 H 0.764937 1.133566 0.466084
H60 H 0.807891 1.032467 0.486953
C68 C 0.52882(18) 1.24316(15) 0.38782(8)
H61 H 0.479481 1.182118 0.384546
H62 H 0.596523 1.223159 0.402298
C69 C 0.24398(19) 0.82489(15) -0.06367(7)
C70 C 0.47150(17) 1.28475(15) 0.48056(8)
H63 H 0.539765 1.273077 0.497882
H64 H 0.428911 1.219368 0.477150
C71 C 0.1793(5) 0.1816(7) 0.0836(3)
C72 C 0.1417(6) 0.2252(10) 0.1305(4)
H65 H 0.068913 0.225762 0.134587
C73 C -0.11934(16) 0.79575(16) 0.51363(7)
H66 H -0.183780 0.817072 0.496088
H67 H -0.130586 0.722650 0.518921
C74 C 0.72435(15) 1.00852(16) 0.41529(8)
H68 H 0.667112 1.040929 0.397036
H69 H 0.699998 0.937091 0.419158
C75 C 0.58412(17) 1.09273(17) 0.59390(8)
H70 H 0.570972 1.020319 0.600396
H71 H 0.520827 1.114584 0.575496
C76 C -0.11697(14) 0.4741(2) 0.03891(8)
C77 C 0.65539(16) 1.04909(16) 0.50490(7)
H72 H 0.593403 1.074124 0.486794
H73 H 0.639554 0.976384 0.509904
C78 C -0.08831(14) 0.6590(2) 0.04993(8)
H74 H -0.084763 0.723548 0.035661
C79 C 0.73510(16) 0.86670(17) 0.31984(8)
H75 H 0.667711 0.870343 0.336403
H76 H 0.776716 0.820696 0.339960
C80 C 0.71421(15) 0.82139(17) 0.26361(7)
H77 H 0.681438 0.870987 0.241810
H78 H 0.781084 0.806841 0.248604
C81 C -0.10923(14) 0.5698(2) 0.01719(8)
C82 C 0.60364(19) 1.15328(19) 0.64653(8)
H79 H 0.613791 1.225369 0.640454
H80 H 0.666094 1.131873 0.665031
H81 H 0.543568 1.141534 0.667951
C83 C 0.79178(17) 0.97072(18) 0.32430(8)
H82 H 0.748179 1.017989 0.306275
H83 H 0.857276 0.968277 0.305907
C84 C 0.81771(17) 1.01161(18) 0.38116(8)
H84 H 0.871611 0.971671 0.397131
H85 H 0.847598 1.082359 0.380981
C85 C 0.3972(2) 1.32612(18) 0.56963(8)
H86 H 0.464518 1.317025 0.588704
H87 H 0.356100 1.259942 0.566505
C86 C 0.14180(19) 0.6532(2) 0.59539(8)
H88 H 0.208234 0.635509 0.612468
H89 H 0.153451 0.723577 0.584978
C87 C -0.10105(18) 0.8528(2) 0.56720(8)
H90 H -0.087092 0.925697 0.561949
H91 H -0.038302 0.829511 0.585426
C88 C 0.3391(2) 1.4010(2) 0.60151(9)
H92 H 0.272882 1.411275 0.582613
H93 H 0.381378 1.465480 0.606747
H94 H 0.325465 1.374481 0.635777
C89 C -0.1928(2) 0.8391(2) 0.60240(9)
H95 H -0.203969 0.767197 0.610250
H96 H -0.256922 0.858710 0.583772
C90 C -0.0788(2) 0.9247(2) 0.74445(10)
H97 H -0.062649 0.996960 0.740394
H98 H -0.023930 0.899142 0.766982
H99 H -0.145742 0.914625 0.760603
C91 C -0.1698(3) 0.9087(3) 0.65734(15)
H100 H -0.148772 0.978957 0.649162
H101 H -0.234578 0.909604 0.676448
C92 C -0.0850(3) 0.8697(3) 0.69236(13)
H102 H -0.100337 0.796613 0.696346
H103 H -0.017282 0.879282 0.676048
C93 C 0.0637(4) 0.6538(4) 0.63687(16)
H104 H 0.083243 0.710514 0.663215
H105 H -0.005854 0.663887 0.620552
C94 C 0.0592(3) 0.5571(3) 0.66332(14)
H106 H 0.037922 0.501752 0.636422
H107 H 0.003900 0.558726 0.688707
C95 C 0.1609(3) 0.5306(3) 0.69309(16)
H108 H 0.147548 0.466798 0.710707
H109 H 0.215033 0.520257 0.667645
C96 C 0.1998(5) 0.6141(4) 0.7337(2)
H110 H 0.214585 0.676869 0.716104
H111 H 0.263546 0.595683 0.752173
H112 H 0.146390 0.624010 0.758967
H113? H 0.128256 0.724086 0.589415
H114? H 0.214028 0.651103 0.610340
H115? H -0.234534 0.898032 0.598293
H116? H -0.236925 0.779022 0.587550
H117? H -0.033276 0.869448 0.748111
H118? H -0.138491 0.913877 0.766224
H119? H -0.039838 0.989004 0.755953
C97? C 0.0577(5) 0.6022(6) 0.6335(2)
H120? H -0.013853 0.603908 0.617549
H121? H 0.071361 0.530954 0.638195
C98? C 0.0689(4) 0.6632(6) 0.68695(18)
H122? H 0.046558 0.731538 0.681369
H123? H 0.019543 0.630733 0.710446
C99? C 0.1723(5) 0.6748(6) 0.7149(3)
H124? H 0.168821 0.718095 0.747532
H125? H 0.222441 0.709296 0.692481
C100? C 0.2112(9) 0.5745(6) 0.7288(4)
H126? H 0.265491 0.556793 0.705277
H127? H 0.153225 0.522085 0.724783
H128? H 0.239921 0.579725 0.765299
C101? C -0.1768(4) 0.8273(5) 0.6598(2)
H129? H -0.133531 0.770389 0.666505
H130? H -0.244310 0.814694 0.675883
C102? C -0.1207(6) 0.9279(5) 0.6822(3)
H131? H -0.168935 0.981992 0.679058
H132? H -0.060557 0.944921 0.660901
C103? C 0.3029(11) 0.2637(15) 0.1604(5)
C104? C 0.3321(7) 0.2190(12) 0.1132(5)
H133? H 0.404032 0.213260 0.108369
C105? C 0.2581(8) 0.1817(9) 0.0721(4)
S5? S 0.1661(2) 0.1076(3) -0.00545(16)
N9? N 0.2794(6) 0.1368(10) 0.0247(4)
N10? N 0.0883(6) 0.1454(12) 0.0387(5)
C106? C 0.1510(8) 0.1894(13) 0.0809(5)
C107? C 0.1160(9) 0.2306(18) 0.1286(6)
H134? H 0.044202 0.231535 0.135182
C108? C 0.1933(12) 0.269(3) 0.1645(6)
loop_
_geom_bond_atom_site_label_1
_geom_bond_atom_site_label_2
_geom_bond_site_symmetry_1
_geom_bond_site_symmetry_2
S1 N1 1_555 1_555
S2 N3 1_555 1_555
S3 N4 1_555 1_555
S4 N7 1_555 1_555
O1 C13 1_555 1_555
O2 C14 1_555 1_555
O3 C17 1_555 1_555
O4 C10 1_555 1_555
O5 C23 1_555 1_555
O6 C22 1_555 1_555
O7 C31 1_555 1_555
O8 C24 1_555 1_555
N1 C12 1_555 1_555
N2 S1 1_555 1_555
C1 C2 1_555 1_555
N3 C57 1_555 1_555
C2 H1 1_555 1_555
C3 C2 1_555 1_555
C4 C5 1_555 1_555
C5 H2 1_555 1_555
C6 C1 1_555 1_555
H3 C6 1_555 1_555
N4 C64 1_555 1_555
C7 N2 1_555 1_555
C8 C3 1_555 1_555
H4 C8 1_555 1_555
C9 C5 1_555 1_555
C10 C3 1_555 1_555
C11 H5 1_555 1_555
C12 C7 1_555 1_555
C13 C1 1_555 1_555
C14 C30 1_555 1_555
C15 C9 1_555 1_555
H6 C15 1_555 1_555
C16 C6 1_555 1_555
H7 C16 1_555 1_555
H8 C16 1_555 1_555
C17 C19 1_555 1_555
C18 H9 1_555 1_555
C19 C18 1_555 1_555
N5 S2 1_555 1_555
C20 C17 1_555 1_555
H10 C20 1_555 1_555
C21 C15 1_555 1_555
C22 C4 1_555 1_555
C23 C20 1_555 1_555
C24 C9 1_555 1_555
C25 C10 1_555 1_555
H11 C25 1_555 1_555
C26 C8 1_555 1_555
C27 H12 1_555 1_555
C28 C12 1_555 1_555
H13 C28 1_555 1_555
C29 O2 1_555 1_555
C30 O3 1_555 1_555
C31 C26 1_555 1_555
N6 S3 1_555 1_555
C32 O5 1_555 1_555
C33 C8 1_555 1_555
H14 C33 1_555 1_555
H15 C33 1_555 1_555
C34 C11 1_555 1_555
C35 C19 1_555 1_555
H16 C35 1_555 1_555
C36 C16 1_555 1_555
H17 C36 1_555 1_555
H18 C36 1_555 1_555
C37 H19 1_555 1_555
H20 C37 1_555 1_555
C38 C33 1_555 1_555
H21 C38 1_555 1_555
H22 C38 1_555 1_555
N7 C76 1_555 1_555
C39 C7 1_555 1_555
H23 C39 1_555 1_555
C40 O1 1_555 1_555
C41 C37 1_555 1_555
H24 C41 1_555 1_555
H25 C41 1_555 1_555
C42 C22 1_555 1_555
H26 C42 1_555 1_555
N8 S4 1_555 1_555
C43 O4 1_555 1_555
C44 H27 1_555 1_555
H28 C44 1_555 1_555
C45 C36 1_555 1_555
H29 C45 1_555 1_555
H30 C45 1_555 1_555
C46 C15 1_555 1_555
H31 C46 1_555 1_555
H32 C46 1_555 1_555
C47 C32 1_555 1_555
H33 C47 1_555 1_555
C48 C41 1_555 1_555
H34 C48 1_555 1_555
H35 C48 1_555 1_555
C49 O6 1_555 1_555
C50 C46 1_555 1_555
H36 C50 1_555 1_555
H37 C50 1_555 1_555
C51 O8 1_555 1_555
C52 H38 1_555 1_555
H39 C52 1_555 1_555
C53 C35 1_555 1_555
H40 C53 1_555 1_555
H41 C53 1_555 1_555
C54 O7 1_555 1_555
C55 H42 1_555 1_555
H43 C55 1_555 1_555
C56 C48 1_555 1_555
H44 C56 1_555 1_555
H45 C56 1_555 1_555
C57 C47 1_555 1_555
C58 H46 1_555 1_555
H47 C58 1_555 1_555
C59 C44 1_555 1_555
H48 C59 1_555 1_555
H49 C59 1_555 1_555
C60 C40 1_555 1_555
H50 C60 1_555 1_555
C61 C52 1_555 1_555
H51 C61 1_555 1_555
H52 C61 1_555 1_555
C62 H53 1_555 1_555
H54 C62 1_555 1_555
C63 C54 1_555 1_555
H55 C63 1_555 1_555
C64 C63 1_555 1_555
C65 C51 1_555 1_555
H56 C65 1_555 1_555
C66 C50 1_555 1_555
H57 C66 1_555 1_555
H58 C66 1_555 1_555
C67 H59 1_555 1_555
H60 C67 1_555 1_555
C68 C55 1_555 1_555
H61 C68 1_555 1_555
H62 C68 1_555 1_555
C69 N5 1_555 1_555
C70 C55 1_555 1_555
H63 C70 1_555 1_555
H64 C70 1_555 1_555
C71 N6 1_555 1_555
C72 C43 1_555 1_555
H65 C72 1_555 1_555
C73 C59 1_555 1_555
H66 C73 1_555 1_555
H67 C73 1_555 1_555
C74 C67 1_555 1_555
H68 C74 1_555 1_555
H69 C74 1_555 1_555
C75 C62 1_555 1_555
H70 C75 1_555 1_555
H71 C75 1_555 1_555
C76 C60 1_555 1_555
C77 C62 1_555 1_555
H72 C77 1_555 1_555
H73 C77 1_555 1_555
C78 C49 1_555 1_555
H74 C78 1_555 1_555
C79 H75 1_555 1_555
H76 C79 1_555 1_555
C80 C53 1_555 1_555
H77 C80 1_555 1_555
H78 C80 1_555 1_555
C81 N8 1_555 1_555
C82 C75 1_555 1_555
H79 C82 1_555 1_555
H80 C82 1_555 1_555
H81 C82 1_555 1_555
C83 C79 1_555 1_555
H82 C83 1_555 1_555
H83 C83 1_555 1_555
C84 C74 1_555 1_555
H84 C84 1_555 1_555
H85 C84 1_555 1_555
C85 C58 1_555 1_555
H86 C85 1_555 1_555
H87 C85 1_555 1_555
C86 C56 1_555 1_555
H88 C86 1_555 1_555
H89 C86 1_555 1_555
C87 C73 1_555 1_555
H90 C87 1_555 1_555
H91 C87 1_555 1_555
C88 C85 1_555 1_555
H92 C88 1_555 1_555
H93 C88 1_555 1_555
H94 C88 1_555 1_555
C89 C87 1_555 1_555
H95 C89 1_555 1_555
H96 C89 1_555 1_555
C90 H97 1_555 1_555
H98 C90 1_555 1_555
H99 C90 1_555 1_555
C91 C89 1_555 1_555
H100 C91 1_555 1_555
H101 C91 1_555 1_555
C92 C90 1_555 1_555
H102 C92 1_555 1_555
H103 C92 1_555 1_555
C93 C86 1_555 1_555
H104 C93 1_555 1_555
H105 C93 1_555 1_555
C94 C93 1_555 1_555
H106 C94 1_555 1_555
H107 C94 1_555 1_555
C95 C94 1_555 1_555
H108 C95 1_555 1_555
H109 C95 1_555 1_555
C96 C95 1_555 1_555
H110 C96 1_555 1_555
H111 C96 1_555 1_555
H112 C96 1_555 1_555
C4 C6 1_555 1_555
C11 C26 1_555 1_555
C13 C25 1_555 1_555
C14 C39 1_555 1_555
C18 C21 1_555 1_555
C21 C23 1_555 1_555
C24 C42 1_555 1_555
C27 C29 1_555 1_555
C27 C31 1_555 1_555
C28 C30 1_555 1_555
C29 C34 1_555 1_555
C32 C51 1_555 1_555
C34 C35 1_555 1_555
C37 C38 1_555 1_555
C40 C49 1_555 1_555
C43 C54 1_555 1_555
C44 C45 1_555 1_555
C52 C66 1_555 1_555
C57 C69 1_555 1_555
C58 C70 1_555 1_555
C61 C68 1_555 1_555
C64 C71 1_555 1_555
C65 C69 1_555 1_555
C67 C77 1_555 1_555
C71 C72 1_555 1_555
C76 C81 1_555 1_555
C78 C81 1_555 1_555
C79 C80 1_555 1_555
C83 C84 1_555 1_555
C91 C92 1_555 1_555

#END
