
#######################################################################
#
#                 Cambridge Crystallographic Data Centre
#                                CCDC 
#
#######################################################################
#
# If this CIF has been generated from an entry in the Cambridge 
# Structural Database, then it will include bibliographic, chemical, 
# crystal, experimental, refinement or atomic coordinate data resulting 
# from the CCDC's data processing and validation procedures.
#
#######################################################################

data_DIVXIP
_chemical_name_common            
'3-Hydroxy-N,N,N-trimethyl-1-oxo-1H-inden-2-aminium hydroxide inner salt'
_chemical_formula_moiety         'C12 H13 N1 O2'
_chemical_name_systematic        'Trimethyl (3-oxido-1-oxoinden-2-yl)-ammonium'
_symmetry_cell_setting           monoclinic
_symmetry_space_group_name_H-M   'P 21/n'
_symmetry_Int_Tables_number      14
_space_group_name_Hall           '-P 2yn'
loop_
_symmetry_equiv_pos_site_id
_symmetry_equiv_pos_as_xyz
1 x,y,z
2 1/2-x,1/2+y,1/2-z
3 -x,-y,-z
4 1/2+x,1/2-y,1/2+z
_cell_length_a                   15.992(5)
_cell_length_b                   9.329(4)
_cell_length_c                   7.112(3)
_cell_angle_alpha                90
_cell_angle_beta                 90.15(3)
_cell_angle_gamma                90
_cell_volume                     1061.03
_cell_formula_units_Z            4
loop_
_atom_site_label
_atom_site_type_symbol
_atom_site_fract_x
_atom_site_fract_y
_atom_site_fract_z
O1 O 0.5621(2) 0.0629(4) 0.7495(5)
O2 O 0.3339(2) 0.3842(4) 0.7522(5)
N1 N 0.3643(2) 0.0721(4) 0.7508(5)
C1 C 0.3108(3) 0.0862(6) 0.5756(7)
C2 C 0.4016(4) -0.0743(6) 0.7482(9)
C3 C 0.3109(3) 0.0860(6) 0.9217(7)
C4 C 0.4049(3) 0.3314(5) 0.7512(6)
C5 C 0.4288(3) 0.1856(5) 0.7497(6)
C6 C 0.5173(3) 0.1713(5) 0.7507(6)
C7 C 0.5494(3) 0.3222(6) 0.7494(6)
C8 C 0.4841(3) 0.4166(5) 0.7504(6)
C9 C 0.4962(4) 0.5630(6) 0.7507(7)
C10 C 0.5790(6) 0.6097(8) 0.7511(8)
C11 C 0.6444(5) 0.5163(10) 0.7496(9)
C12 C 0.6307(4) 0.3683(8) 0.7484(8)
H1 H 0.2665(3) 0.0159(6) 0.5881(7)
H2 H 0.3452(3) 0.0625(6) 0.4677(7)
H3 H 0.2866(3) 0.1806(6) 0.5584(7)
H4 H 0.4344(4) -0.0941(6) 0.6365(9)
H5 H 0.3524(4) -0.1352(6) 0.7491(9)
H6 H 0.4350(4) -0.0935(6) 0.8592(9)
H7 H 0.2872(3) 0.1817(6) 0.9218(7)
H8 H 0.3410(3) 0.0702(6) 1.0383(7)
H9 H 0.2664(3) 0.0160(6) 0.9103(7)
H10 H 0.4444(4) 0.6373(6) 0.7494(7)
H11 H 0.5922(6) 0.7233(8) 0.7514(8)
H12 H 0.7070(5) 0.5598(10) 0.7468(9)
H13 H 0.6832(4) 0.2954(8) 0.7461(8)
loop_
_geom_bond_atom_site_label_1
_geom_bond_atom_site_label_2
_geom_bond_site_symmetry_1
_geom_bond_site_symmetry_2
O1 C6 1_555 1_555
O2 C4 1_555 1_555
N1 C1 1_555 1_555
C1 H1 1_555 1_555
C2 N1 1_555 1_555
C3 N1 1_555 1_555
C4 C5 1_555 1_555
C5 N1 1_555 1_555
C6 C5 1_555 1_555
C7 C6 1_555 1_555
C8 C4 1_555 1_555
C9 C8 1_555 1_555
C10 C9 1_555 1_555
C11 C10 1_555 1_555
C12 C7 1_555 1_555
H2 C1 1_555 1_555
H3 C1 1_555 1_555
H4 C2 1_555 1_555
H5 C2 1_555 1_555
H6 C2 1_555 1_555
H7 C3 1_555 1_555
H8 C3 1_555 1_555
H9 C3 1_555 1_555
H10 C9 1_555 1_555
H11 C10 1_555 1_555
H12 C11 1_555 1_555
H13 C12 1_555 1_555
C7 C8 1_555 1_555
C11 C12 1_555 1_555

#END
