
#######################################################################
#
#                 Cambridge Crystallographic Data Centre
#                                CCDC 
#
#######################################################################
#
# If this CIF has been generated from an entry in the Cambridge 
# Structural Database, then it will include bibliographic, chemical, 
# crystal, experimental, refinement or atomic coordinate data resulting 
# from the CCDC's data processing and validation procedures.
#
#######################################################################

data_DIWBAP
_chemical_formula_moiety         'C76 H72 N8 O8 S4,2(C6 H6),0.26(H2 O1)'
_chemical_name_systematic        
'(17s,18s,19s,20s)-17,18,19,20-tetra-n-hexyl-2,4,6,8,10,12,14,16-octaoxa-3,7,11,15(5,6)-tetrakis(2,1,3-benzothiadiazola)-1,5,9,13(1,5,2,4)-tetrabenzenapentacyclo[11.3.1.11,5.15,9.19,13]icosaphane benzene solvate hydrate'
_symmetry_cell_setting           triclinic
_symmetry_space_group_name_H-M   'P -1'
_symmetry_Int_Tables_number      2
_space_group_name_Hall           '-P 1'
loop_
_symmetry_equiv_pos_site_id
_symmetry_equiv_pos_as_xyz
1 x,y,z
2 -x,-y,-z
_cell_length_a                   12.59280(10)
_cell_length_b                   12.59660(10)
_cell_length_c                   23.7103(2)
_cell_angle_alpha                86.2150(10)
_cell_angle_beta                 86.1830(10)
_cell_angle_gamma                87.9680(10)
_cell_volume                     3742.73
_exptl_crystal_colour            colorless
_exptl_crystal_description       plate
_cell_formula_units_Z            2
_exptl_crystal_recrystallization_method benzene/tetrahydrofuran
loop_
_atom_site_label
_atom_site_type_symbol
_atom_site_fract_x
_atom_site_fract_y
_atom_site_fract_z
S1 S 0.91791(4) 0.85901(3) 1.03343(2)
S2 S 0.51617(3) 1.22266(3) 0.93394(2)
S3 S 0.25464(4) 0.89155(3) 0.99211(2)
S4 S 0.73972(3) 0.59028(3) 1.07863(2)
O1 O 1.08833(8) 0.68025(8) 0.81432(4)
O2 O 1.03096(8) 0.88055(9) 0.78110(4)
O3 O 0.73657(8) 1.09674(8) 0.71380(5)
O4 O 0.53091(9) 1.09288(8) 0.69284(5)
O5 O 0.30092(8) 0.80206(8) 0.74430(4)
O6 O 0.35154(8) 0.61398(8) 0.79618(4)
O7 O 0.65164(8) 0.40090(8) 0.85939(4)
O8 O 0.86273(8) 0.38457(8) 0.86029(4)
N1 N 0.98225(12) 0.75733(11) 1.00825(6)
N2 N 0.90631(13) 0.93513(12) 0.97627(6)
N3 N 0.62996(12) 1.18212(11) 0.90643(6)
N4 N 0.44231(12) 1.21743(12) 0.88072(6)
N5 N 0.23199(12) 0.94383(11) 0.92947(6)
N6 N 0.30711(12) 0.77718(12) 0.97636(6)
N7 N 0.64426(11) 0.57211(11) 1.03782(6)
N8 N 0.83919(10) 0.53338(11) 1.04425(6)
C1 C 1.2167(3) 0.4517(3) 0.46696(13)
H1 H 1.174065 0.515869 0.461968
H2 H 1.211622 0.409369 0.435080
H3 H 1.289637 0.469344 0.469835
C2 C 1.1776(3) 0.3900(2) 0.52002(11)
H4 H 1.218702 0.323540 0.523504
H5 H 1.103941 0.372562 0.516601
C3 C 1.1847(2) 0.4485(2) 0.57409(13)
H6 H 1.258034 0.467475 0.577001
H7 H 1.165253 0.400346 0.606448
C4 C 1.11123(16) 0.5530(2) 0.57716(9)
H8 H 1.140666 0.608104 0.550760
H9 H 1.040812 0.538221 0.565973
C5 C 1.10223(13) 0.59264(14) 0.63624(7)
H10 H 1.171544 0.614978 0.645551
H11 H 1.081230 0.534519 0.663087
C6 C 1.02194(12) 0.68535(13) 0.64247(6)
H12 H 0.953889 0.664281 0.630676
H13 H 1.045491 0.744777 0.617173
C7 C 0.8223(2) 1.0704(2) 0.36103(12)
H14 H 0.837196 1.062558 0.321256
H15 H 0.888034 1.071502 0.379273
H16 H 0.782548 1.135755 0.366419
C8 C 0.7590(2) 0.9793(2) 0.38607(10)
H17 H 0.801440 0.913648 0.384898
H18 H 0.696496 0.972077 0.364975
C9 C 0.72653(19) 1.0020(2) 0.44624(11)
H19 H 0.691032 1.071561 0.446941
H20 H 0.789653 1.003644 0.467443
C10 C 0.64827(14) 0.91413(17) 0.47612(7)
H21 H 0.583546 0.913542 0.456153
H22 H 0.682589 0.844017 0.475399
C11 C 0.62223(12) 0.94201(13) 0.53658(6)
H23 H 0.557972 0.906444 0.551002
H24 H 0.607808 1.018102 0.537112
C12 C 0.71117(12) 0.91080(12) 0.57583(6)
H25 H 0.777941 0.937304 0.558645
H26 H 0.718090 0.833807 0.580170
C13 C 0.53073(15) 0.69297(15) 0.39408(8)
H27 H 0.539638 0.672305 0.355753
H28 H 0.573255 0.646326 0.417764
H29 H 0.552878 0.764820 0.395579
C14 C 0.41488(14) 0.68583(15) 0.41476(7)
H30 H 0.393119 0.613341 0.412051
H31 H 0.372690 0.731502 0.389715
C15 C 0.38949(13) 0.71721(13) 0.47565(7)
H32 H 0.411802 0.789511 0.478388
H33 H 0.312921 0.716895 0.483552
C16 C 0.44157(13) 0.64583(13) 0.52106(7)
H34 H 0.518320 0.648712 0.514635
H35 H 0.421772 0.572901 0.517698
C17 C 0.40965(12) 0.67772(12) 0.58095(6)
H36 H 0.333745 0.668702 0.588517
H37 H 0.423476 0.752523 0.583263
C18 C 0.46899(12) 0.61291(12) 0.62634(6)
H38 H 0.544939 0.617509 0.617054
H39 H 0.450855 0.538792 0.625829
C19 C 0.9592(3) 0.1710(3) 0.50837(12)
H40 H 0.957918 0.121243 0.479473
H41 H 1.019967 0.214921 0.500872
H42 H 0.895348 0.214958 0.508513
C20 C 0.9661(2) 0.1115(2) 0.56506(12)
H43 H 1.025108 0.059884 0.563122
H44 H 0.901277 0.072864 0.574196
C21 C 0.98264(17) 0.1890(2) 0.61398(8)
H45 H 0.997541 0.146818 0.648420
H46 H 1.043784 0.232306 0.603156
C22 C 0.88539(14) 0.26160(16) 0.62563(7)
H47 H 0.821825 0.221272 0.623198
H48 H 0.884852 0.319007 0.596281
C23 C 0.88055(12) 0.30966(13) 0.68323(7)
H49 H 0.941348 0.354172 0.685138
H50 H 0.884310 0.252988 0.712845
C24 C 0.77805(12) 0.37614(12) 0.69313(6)
H51 H 0.718126 0.334181 0.685486
H52 H 0.779417 0.437828 0.666381
C25 C 0.56123(12) 0.80909(12) 0.66488(6)
H53 H 0.609855 0.762926 0.647035
C26 C 0.89624(11) 0.46707(12) 0.82084(6)
C27 C 0.88725(11) 0.56669(12) 0.73255(6)
H54 H 0.857385 0.578397 0.697760
C28 C 0.96700(11) 0.63365(12) 0.74512(6)
C29 C 1.00951(11) 0.61449(12) 0.79771(6)
C30 C 0.84962(11) 0.48307(12) 0.76917(6)
C31 C 0.80802(12) 0.42491(12) 0.90745(6)
C32 C 0.45458(11) 0.57170(11) 0.78694(6)
C33 C 0.80058(12) 0.49843(12) 0.99731(6)
C34 C 0.94511(11) 0.89517(12) 0.74679(6)
C35 C 0.97654(11) 0.53105(12) 0.83492(6)
H55 H 1.008058 0.517981 0.869175
C36 C 0.65325(11) 0.47233(11) 0.76382(6)
C37 C 0.46740(12) 0.76701(12) 0.69037(6)
C38 C 0.50123(11) 0.58260(11) 0.73188(6)
C39 C 1.01039(12) 0.85088(12) 0.83813(6)
C40 C 0.39775(11) 0.83758(12) 0.71840(6)
C41 C 0.58662(12) 0.91618(12) 0.66449(6)
C42 C 0.76057(11) 0.41407(12) 0.75319(6)
H56 H 0.760620 0.350314 0.779217
C43 C 0.29921(11) 0.79709(12) 0.80299(6)
C44 C 1.04868(11) 0.74584(12) 0.85623(7)
C45 C 0.68857(12) 0.52055(12) 0.99372(6)
C46 C 0.33382(11) 0.69783(12) 0.83088(6)
C47 C 0.88189(12) 0.98733(12) 0.74957(6)
H57 H 0.894867 1.037807 0.774977
C48 C 0.86065(12) 0.44841(12) 0.95316(6)
H58 H 0.932971 0.432334 0.955354
C49 C 0.69435(12) 0.44248(12) 0.90502(6)
C50 C 0.61442(13) 1.16362(12) 0.85256(7)
C51 C 0.42005(12) 0.94450(12) 0.71951(6)
H59 H 0.372288 0.990324 0.738196
C52 C 0.60023(12) 0.53144(12) 0.72160(6)
H60 H 0.632303 0.536924 0.685088
C53 C 0.50346(12) 0.51247(12) 0.82999(6)
H61 H 0.469958 0.504007 0.866084
C54 C 1.00606(12) 0.72275(12) 0.70304(6)
H62 H 1.075799 0.742794 0.714199
C55 C 0.63463(12) 0.48838(12) 0.94722(6)
H63 H 0.561321 0.498347 0.945728
C56 C 0.44380(11) 0.64976(11) 0.68647(6)
H64 H 0.367195 0.642156 0.695274
C57 C 0.60302(11) 0.46632(11) 0.81806(6)
C58 C 0.26374(12) 0.88190(12) 0.83271(7)
H65 H 0.238772 0.944492 0.814378
C59 C 0.78120(12) 0.93181(12) 0.67339(6)
C60 C 0.66500(12) 1.11548(11) 0.75911(7)
C61 C 0.51344(12) 0.98304(12) 0.69279(6)
C62 C 0.96424(13) 0.91840(13) 0.87577(7)
H66 H 0.940041 0.986289 0.863855
C63 C 0.55482(12) 1.12357(12) 0.74593(7)
C64 C 0.84876(12) 0.84182(12) 0.67070(6)
H67 H 0.838318 0.793582 0.643688
C65 C 0.79918(12) 1.00309(12) 0.71397(6)
C66 C 0.93163(11) 0.82084(12) 0.70686(6)
C67 C 0.26627(12) 0.87131(12) 0.89269(7)
C68 C 0.33995(12) 0.68684(12) 0.88787(7)
H68 H 0.364386 0.623332 0.905494
C69 C 0.95419(13) 0.88191(13) 0.93382(7)
C70 C 0.50701(13) 1.18234(12) 0.83780(7)
C71 C 1.04649(12) 0.71155(12) 0.91193(7)
H69 H 1.076083 0.645558 0.923348
C72 C 0.69031(12) 0.95498(12) 0.63450(6)
H70 H 0.682705 1.032538 0.628579
C73 C 0.69508(13) 1.13357(12) 0.81144(7)
H71 H 0.766052 1.126529 0.820073
C74 C 0.99755(13) 0.77982(12) 0.95207(7)
C75 C 0.47718(13) 1.16050(13) 0.78299(7)
H72 H 0.407306 1.171064 0.772892
C76 C 0.30795(12) 0.77523(13) 0.91975(7)
C77 C 0.7116(2) 0.74452(18) 0.83776(11)
H73 H 0.749177 0.702220 0.812107
C78 C 0.6289(2) 0.8124(2) 0.82032(9)
H74 H 0.610920 0.815724 0.782817
C79 C 0.57428(17) 0.87417(17) 0.85823(11)
H75 H 0.519073 0.919508 0.846398
C80 C 0.5998(2) 0.87008(19) 0.91318(11)
H76 H 0.562028 0.912634 0.938672
C81 C 0.6808(2) 0.8035(2) 0.93112(10)
H77 H 0.697758 0.800844 0.968781
C82 C 0.73717(17) 0.74060(18) 0.89366(12)
H78 H 0.792316 0.695586 0.905878
C83 C 0.2215(3) 0.2406(3) 0.71042(17)
H79 H 0.251738 0.224350 0.675044
C84 C 0.1665(2) 0.1663(3) 0.74164(14)
H80 H 0.161452 0.098646 0.728749
C85 C 0.1169(2) 0.1910(3) 0.79347(14)
H81 H 0.081494 0.138478 0.816033
C86 C 0.1196(3) 0.2903(3) 0.81147(17)
H82 H 0.080475 0.309564 0.844071
C87 C 0.1842(2) 0.3637(2) 0.77884(10)
H83 H 0.192369 0.430632 0.792028
C88 C 0.2347(2) 0.3394(2) 0.72877(11)
H84 H 0.276978 0.388605 0.707628
O9 O 0.9051(5) 1.1645(5) 0.8758(3)
H85? H 1.040921 0.527025 0.572572
H86? H 1.116445 0.617782 0.552770
H87? H 0.817966 1.019021 0.333165
H88? H 0.891175 1.064229 0.376257
H89? H 0.811821 1.140698 0.343727
H90? H 0.639006 0.837845 0.477728
H91? H 0.588388 0.944966 0.456383
H92? H 0.967783 0.117043 0.628718
H93? H 1.042365 0.213190 0.632983
C89? C 0.7338(4) 0.9290(5) 0.4368(2)
H94? H 0.729830 0.882963 0.405823
H95? H 0.800630 0.914147 0.454276
C90? C 0.7241(5) 1.0470(5) 0.4155(2)
H96? H 0.733566 1.092370 0.446141
H97? H 0.654138 1.062670 0.401576
C91? C 0.9290(7) 0.1127(7) 0.5323(4)
H98? H 0.942795 0.098756 0.493104
H99? H 0.858785 0.143961 0.537869
H100? H 0.934090 0.047184 0.555178
C92? C 1.0114(5) 0.1899(5) 0.5494(2)
H101? H 1.001912 0.260426 0.531024
H102? H 1.083775 0.163708 0.541175
C93? C 1.1756(5) 0.4848(5) 0.5509(3)
H103? H 1.157526 0.414494 0.567030
H104? H 1.246825 0.497407 0.561684
C94? C 1.1829(5) 0.4788(5) 0.4888(3)
H105? H 1.223532 0.538086 0.471806
H106? H 1.111828 0.486307 0.475310
C95? C 1.2351(5) 0.3750(5) 0.4689(3)
H107? H 1.303376 0.364033 0.484540
H108? H 1.244144 0.379230 0.428333
H109? H 1.190625 0.316615 0.481479
H110? H 0.175528 0.434577 0.787419
H111? H 0.259924 0.392213 0.702485
C96? C 0.2470(6) 0.2331(8) 0.7186(5)
H112? H 0.280170 0.213373 0.684496
C97? C 0.1448(7) 0.2838(9) 0.8179(5)
H113? H 0.108258 0.304372 0.851030
C98? C 0.1573(8) 0.1751(8) 0.8099(4)
H114? H 0.132182 0.122727 0.836389
C99? C 0.2095(7) 0.1527(6) 0.7596(4)
H115? H 0.221328 0.081747 0.751723
H116? H 0.941446 1.162973 0.904850
H117? H 0.945261 1.178856 0.846260
loop_
_geom_bond_atom_site_label_1
_geom_bond_atom_site_label_2
_geom_bond_site_symmetry_1
_geom_bond_site_symmetry_2
S1 N1 1_555 1_555
S2 N3 1_555 1_555
S3 N5 1_555 1_555
S4 N7 1_555 1_555
O1 C29 1_555 1_555
O2 C34 1_555 1_555
O3 C60 1_555 1_555
O4 C61 1_555 1_555
O5 C40 1_555 1_555
O6 C32 1_555 1_555
O7 C49 1_555 1_555
O8 C26 1_555 1_555
N1 C74 1_555 1_555
N2 S1 1_555 1_555
N3 C50 1_555 1_555
N4 S2 1_555 1_555
N5 C67 1_555 1_555
N6 S3 1_555 1_555
N7 C45 1_555 1_555
N8 S4 1_555 1_555
C1 H1 1_555 1_555
H2 C1 1_555 1_555
H3 C1 1_555 1_555
C2 C1 1_555 1_555
H4 C2 1_555 1_555
H5 C2 1_555 1_555
C3 C2 1_555 1_555
H6 C3 1_555 1_555
H7 C3 1_555 1_555
C4 C3 1_555 1_555
H8 C4 1_555 1_555
H9 C4 1_555 1_555
C5 C4 1_555 1_555
H10 C5 1_555 1_555
H11 C5 1_555 1_555
C6 C5 1_555 1_555
H12 C6 1_555 1_555
H13 C6 1_555 1_555
C7 H14 1_555 1_555
H15 C7 1_555 1_555
H16 C7 1_555 1_555
C8 C7 1_555 1_555
H17 C8 1_555 1_555
H18 C8 1_555 1_555
C9 C8 1_555 1_555
H19 C9 1_555 1_555
H20 C9 1_555 1_555
C10 C9 1_555 1_555
H21 C10 1_555 1_555
H22 C10 1_555 1_555
C11 C10 1_555 1_555
H23 C11 1_555 1_555
H24 C11 1_555 1_555
C12 C11 1_555 1_555
H25 C12 1_555 1_555
H26 C12 1_555 1_555
C13 H27 1_555 1_555
H28 C13 1_555 1_555
H29 C13 1_555 1_555
C14 C13 1_555 1_555
H30 C14 1_555 1_555
H31 C14 1_555 1_555
C15 C14 1_555 1_555
H32 C15 1_555 1_555
H33 C15 1_555 1_555
C16 C15 1_555 1_555
H34 C16 1_555 1_555
H35 C16 1_555 1_555
C17 C16 1_555 1_555
H36 C17 1_555 1_555
H37 C17 1_555 1_555
C18 C17 1_555 1_555
H38 C18 1_555 1_555
H39 C18 1_555 1_555
C19 H40 1_555 1_555
H41 C19 1_555 1_555
H42 C19 1_555 1_555
C20 C19 1_555 1_555
H43 C20 1_555 1_555
H44 C20 1_555 1_555
C21 C20 1_555 1_555
H45 C21 1_555 1_555
H46 C21 1_555 1_555
C22 C21 1_555 1_555
H47 C22 1_555 1_555
H48 C22 1_555 1_555
C23 C22 1_555 1_555
H49 C23 1_555 1_555
H50 C23 1_555 1_555
C24 C23 1_555 1_555
H51 C24 1_555 1_555
H52 C24 1_555 1_555
C25 H53 1_555 1_555
C26 C30 1_555 1_555
C27 H54 1_555 1_555
C28 C27 1_555 1_555
C29 C28 1_555 1_555
C30 C27 1_555 1_555
C31 O8 1_555 1_555
C32 C38 1_555 1_555
C33 N8 1_555 1_555
C34 C47 1_555 1_555
C35 C26 1_555 1_555
H55 C35 1_555 1_555
C36 C42 1_555 1_555
C37 C25 1_555 1_555
C38 C52 1_555 1_555
C39 O2 1_555 1_555
C40 C37 1_555 1_555
C41 C25 1_555 1_555
C42 C24 1_555 1_555
H56 C42 1_555 1_555
C43 O5 1_555 1_555
C44 O1 1_555 1_555
C45 C33 1_555 1_555
C46 O6 1_555 1_555
C47 H57 1_555 1_555
C48 C31 1_555 1_555
H58 C48 1_555 1_555
C49 C31 1_555 1_555
C50 C70 1_555 1_555
C51 C40 1_555 1_555
H59 C51 1_555 1_555
C52 C36 1_555 1_555
H60 C52 1_555 1_555
C53 C32 1_555 1_555
H61 C53 1_555 1_555
C54 C6 1_555 1_555
H62 C54 1_555 1_555
C55 C45 1_555 1_555
H63 C55 1_555 1_555
C56 C18 1_555 1_555
H64 C56 1_555 1_555
C57 O7 1_555 1_555
C58 C43 1_555 1_555
H65 C58 1_555 1_555
C59 C64 1_555 1_555
C60 C63 1_555 1_555
C61 C41 1_555 1_555
C62 C39 1_555 1_555
H66 C62 1_555 1_555
C63 O4 1_555 1_555
C64 H67 1_555 1_555
C65 O3 1_555 1_555
C66 C34 1_555 1_555
C67 C58 1_555 1_555
C68 C46 1_555 1_555
H68 C68 1_555 1_555
C69 N2 1_555 1_555
C70 N4 1_555 1_555
C71 C44 1_555 1_555
H69 C71 1_555 1_555
C72 C12 1_555 1_555
H70 C72 1_555 1_555
C73 C50 1_555 1_555
H71 C73 1_555 1_555
C74 C69 1_555 1_555
C75 C63 1_555 1_555
H72 C75 1_555 1_555
C76 N6 1_555 1_555
C77 H73 1_555 1_555
C78 C77 1_555 1_555
H74 C78 1_555 1_555
C79 C78 1_555 1_555
H75 C79 1_555 1_555
C80 C79 1_555 1_555
H76 C80 1_555 1_555
C81 C80 1_555 1_555
H77 C81 1_555 1_555
C82 C77 1_555 1_555
H78 C82 1_555 1_555
C83 H79 1_555 1_555
C84 C83 1_555 1_555
H80 C84 1_555 1_555
C85 C84 1_555 1_555
H81 C85 1_555 1_555
C86 C85 1_555 1_555
H82 C86 1_555 1_555
C87 C86 1_555 1_555
H83 C87 1_555 1_555
C88 C83 1_555 1_555
H84 C88 1_555 1_555
C28 C54 1_555 1_555
C29 C35 1_555 1_555
C30 C42 1_555 1_555
C33 C48 1_555 1_555
C36 C57 1_555 1_555
C37 C56 1_555 1_555
C38 C56 1_555 1_555
C39 C44 1_555 1_555
C41 C72 1_555 1_555
C43 C46 1_555 1_555
C47 C65 1_555 1_555
C49 C55 1_555 1_555
C51 C61 1_555 1_555
C53 C57 1_555 1_555
C54 C66 1_555 1_555
C59 C65 1_555 1_555
C59 C72 1_555 1_555
C60 C73 1_555 1_555
C62 C69 1_555 1_555
C64 C66 1_555 1_555
C67 C76 1_555 1_555
C68 C76 1_555 1_555
C70 C75 1_555 1_555
C71 C74 1_555 1_555
C81 C82 1_555 1_555
C87 C88 1_555 1_555

#END
