
#######################################################################
#
#                 Cambridge Crystallographic Data Centre
#                                CCDC 
#
#######################################################################
#
# If this CIF has been generated from an entry in the Cambridge 
# Structural Database, then it will include bibliographic, chemical, 
# crystal, experimental, refinement or atomic coordinate data resulting 
# from the CCDC's data processing and validation procedures.
#
#######################################################################

data_DIWFOG
_chemical_formula_moiety         'C38 H48 N2 O3 P2 Se2 Sr1'
_chemical_name_systematic        
"(N,N'-ethane-1,2-diylbis(P,P-diphenyl(phosphinoselenoic amidato)))-tris(tetrahydrofuran)-strontium"
_symmetry_cell_setting           triclinic
_symmetry_space_group_name_H-M   'P -1'
_symmetry_Int_Tables_number      2
_space_group_name_Hall           '-P 1'
loop_
_symmetry_equiv_pos_site_id
_symmetry_equiv_pos_as_xyz
1 x,y,z
2 -x,-y,-z
_cell_length_a                   9.8678(11)
_cell_length_b                   13.4550(14)
_cell_length_c                   17.0933(17)
_cell_angle_alpha                106.687(9)
_cell_angle_beta                 101.184(9)
_cell_angle_gamma                106.567(10)
_cell_volume                     1987.42
_exptl_crystal_colour            colorless
_exptl_crystal_description       plate
_cell_formula_units_Z            2
_chemical_properties_physical    'air- and moisture-sensitive'
loop_
_atom_site_label
_atom_site_type_symbol
_atom_site_fract_x
_atom_site_fract_y
_atom_site_fract_z
Sr1 Sr 0.03116(6) 0.38619(5) 0.69919(3)
Se1 Se 0.10168(8) 0.63856(6) 0.69703(5)
Se2 Se -0.09749(8) 0.12216(6) 0.68376(5)
P1 P 0.29055(17) 0.65298(13) 0.79338(10)
P2 P 0.13096(17) 0.18800(13) 0.76115(10)
O1 O -0.2078(6) 0.3535(4) 0.5871(3)
O2 O 0.1021(6) 0.3186(4) 0.5646(3)
O3 O -0.1318(5) 0.4135(4) 0.7953(3)
N1 N 0.2796(6) 0.5320(4) 0.7917(3)
N2 N 0.1885(5) 0.3201(4) 0.7938(3)
C1 C 0.3578(7) 0.5130(5) 0.8649(4)
H1 H 0.3145 0.5295 0.9111
H2 H 0.4614 0.5613 0.8855
C2 C 0.3444(6) 0.3915(5) 0.8359(4)
H3 H 0.4016 0.3783 0.7964
H4 H 0.3834 0.3743 0.8849
C3 C 0.4600(7) 0.7268(5) 0.7744(4)
C4 C 0.5619(8) 0.6757(6) 0.7641(4)
H5 H 0.5433 0.6051 0.7665
C5 C 0.6937(9) 0.7307(7) 0.7499(5)
H6 H 0.7635 0.6973 0.7440
C6 C 0.7188(9) 0.8342(7) 0.7447(5)
H7 H 0.8060 0.8707 0.7353
C7 C 0.6170(9) 0.8838(6) 0.7531(5)
H8 H 0.6348 0.9533 0.7487
C8 C 0.4878(9) 0.8320(6) 0.7683(5)
H9 H 0.4194 0.8667 0.7744
C9 C 0.2992(7) 0.7424(5) 0.8985(4)
C10 C 0.4294(8) 0.8206(6) 0.9579(4)
H10 H 0.5170 0.8336 0.9432
C11 C 0.4312(9) 0.8800(6) 1.0395(5)
H11 H 0.5198 0.9325 1.0790
C12 C 0.3028(10) 0.8617(6) 1.0619(5)
H12 H 0.3041 0.9021 1.1165
C13 C 0.1722(9) 0.7837(7) 1.0037(5)
H13 H 0.0851 0.7707 1.0190
C14 C 0.1700(8) 0.7242(6) 0.9221(5)
H14 H 0.0811 0.6717 0.8829
C15 C 0.2452(7) 0.1311(5) 0.7018(4)
C16 C 0.1988(8) 0.0812(6) 0.6137(5)
H15 H 0.1040 0.0706 0.5827
C17 C 0.2935(9) 0.0466(6) 0.5713(5)
H16 H 0.2617 0.0134 0.5119
C18 C 0.4333(10) 0.0610(6) 0.6160(6)
H17 H 0.4950 0.0359 0.5872
C19 C 0.4823(9) 0.1131(6) 0.7046(5)
H18 H 0.5782 0.1252 0.7350
C20 C 0.3890(8) 0.1469(6) 0.7474(5)
H19 H 0.4215 0.1803 0.8068
C21 C 0.1478(7) 0.1366(5) 0.8487(4)
C22 C 0.1719(7) 0.2075(6) 0.9309(4)
H20 H 0.1817 0.2813 0.9409
C23 C 0.1817(8) 0.1699(7) 0.9993(5)
H21 H 0.1980 0.2183 1.0543
C24 C 0.1673(8) 0.0610(7) 0.9849(5)
H22 H 0.1736 0.0357 1.0302
C25 C 0.1435(8) -0.0112(7) 0.9029(6)
H23 H 0.1340 -0.0848 0.8935
C26 C 0.1338(8) 0.0253(6) 0.8354(5)
H24 H 0.1178 -0.0237 0.7806
C27 C -0.2345(11) 0.4181(8) 0.5364(6)
H25 H -0.1506 0.4414 0.5156
H26 H -0.2462 0.4843 0.5711
C28 C -0.3659(11) 0.3530(9) 0.4654(7)
H27 H -0.3469 0.3536 0.4119
H28 H -0.4449 0.3812 0.4718
C29 C -0.4065(11) 0.2365(8) 0.4677(7)
H29 H -0.5132 0.1993 0.4508
H30 H -0.3663 0.1920 0.4302
C30 C -0.3382(9) 0.2558(7) 0.5582(6)
H31 H -0.4052 0.2674 0.5915
H32 H -0.3128 0.1928 0.5630
C31 C -0.0002(10) 0.2347(8) 0.4852(5)
H33 H -0.0678 0.2639 0.4586
H34 H -0.0577 0.1706 0.4954
C32 C 0.0904(11) 0.2024(8) 0.4288(6)
H35 H 0.1042 0.1342 0.4301
H36 H 0.0438 0.1920 0.3701
C33 C 0.2303(13) 0.2957(10) 0.4652(7)
H37 H 0.2293 0.3495 0.4378
H38 H 0.3112 0.2705 0.4572
C34 C 0.2487(10) 0.3473(8) 0.5593(6)
H39 H 0.3057 0.3171 0.5925
H40 H 0.2982 0.4275 0.5801
C35 C -0.2283(9) 0.4749(7) 0.7957(5)
H41 H -0.3267 0.4281 0.7570
H42 H -0.1900 0.5381 0.7792
C36 C -0.2312(9) 0.5131(7) 0.8878(6)
H43 H -0.1460 0.5798 0.9236
H44 H -0.3212 0.5272 0.8917
C37 C -0.2257(11) 0.4152(8) 0.9122(6)
H45 H -0.3237 0.3583 0.8937
H46 H -0.1841 0.4377 0.9736
C38 C -0.1253(11) 0.3738(8) 0.8647(5)
H47 H -0.0245 0.4031 0.9023
H48 H -0.1600 0.2931 0.8433
loop_
_geom_bond_atom_site_label_1
_geom_bond_atom_site_label_2
_geom_bond_site_symmetry_1
_geom_bond_site_symmetry_2
Sr1 Se1 1_555 1_555
Se1 P1 1_555 1_555
Se2 Sr1 1_555 1_555
P1 N1 1_555 1_555
P2 Se2 1_555 1_555
O1 Sr1 1_555 1_555
O2 Sr1 1_555 1_555
O3 Sr1 1_555 1_555
N1 Sr1 1_555 1_555
N2 Sr1 1_555 1_555
C1 N1 1_555 1_555
H1 C1 1_555 1_555
H2 C1 1_555 1_555
C2 N2 1_555 1_555
H3 C2 1_555 1_555
H4 C2 1_555 1_555
C3 P1 1_555 1_555
C4 C3 1_555 1_555
H5 C4 1_555 1_555
C5 C4 1_555 1_555
H6 C5 1_555 1_555
C6 C5 1_555 1_555
H7 C6 1_555 1_555
C7 C6 1_555 1_555
H8 C7 1_555 1_555
C8 C3 1_555 1_555
H9 C8 1_555 1_555
C9 P1 1_555 1_555
C10 C9 1_555 1_555
H10 C10 1_555 1_555
C11 C10 1_555 1_555
H11 C11 1_555 1_555
C12 C11 1_555 1_555
H12 C12 1_555 1_555
C13 C12 1_555 1_555
H13 C13 1_555 1_555
C14 C9 1_555 1_555
H14 C14 1_555 1_555
C15 P2 1_555 1_555
C16 C15 1_555 1_555
H15 C16 1_555 1_555
C17 C16 1_555 1_555
H16 C17 1_555 1_555
C18 C17 1_555 1_555
H17 C18 1_555 1_555
C19 C18 1_555 1_555
H18 C19 1_555 1_555
C20 C15 1_555 1_555
H19 C20 1_555 1_555
C21 P2 1_555 1_555
C22 C21 1_555 1_555
H20 C22 1_555 1_555
C23 C22 1_555 1_555
H21 C23 1_555 1_555
C24 C23 1_555 1_555
H22 C24 1_555 1_555
C25 C24 1_555 1_555
H23 C25 1_555 1_555
C26 C21 1_555 1_555
H24 C26 1_555 1_555
C27 O1 1_555 1_555
H25 C27 1_555 1_555
H26 C27 1_555 1_555
C28 C27 1_555 1_555
H27 C28 1_555 1_555
H28 C28 1_555 1_555
C29 C28 1_555 1_555
H29 C29 1_555 1_555
H30 C29 1_555 1_555
C30 O1 1_555 1_555
H31 C30 1_555 1_555
H32 C30 1_555 1_555
C31 O2 1_555 1_555
H33 C31 1_555 1_555
H34 C31 1_555 1_555
C32 C31 1_555 1_555
H35 C32 1_555 1_555
H36 C32 1_555 1_555
C33 C32 1_555 1_555
H37 C33 1_555 1_555
H38 C33 1_555 1_555
C34 O2 1_555 1_555
H39 C34 1_555 1_555
H40 C34 1_555 1_555
C35 O3 1_555 1_555
H41 C35 1_555 1_555
H42 C35 1_555 1_555
C36 C35 1_555 1_555
H43 C36 1_555 1_555
H44 C36 1_555 1_555
C37 C36 1_555 1_555
H45 C37 1_555 1_555
H46 C37 1_555 1_555
C38 O3 1_555 1_555
H47 C38 1_555 1_555
H48 C38 1_555 1_555
P2 N2 1_555 1_555
C1 C2 1_555 1_555
C7 C8 1_555 1_555
C13 C14 1_555 1_555
C19 C20 1_555 1_555
C25 C26 1_555 1_555
C29 C30 1_555 1_555
C33 C34 1_555 1_555
C37 C38 1_555 1_555

#END
