
#######################################################################
#
#                 Cambridge Crystallographic Data Centre
#                                CCDC 
#
#######################################################################
#
# If this CIF has been generated from an entry in the Cambridge 
# Structural Database, then it will include bibliographic, chemical, 
# crystal, experimental, refinement or atomic coordinate data resulting 
# from the CCDC's data processing and validation procedures.
#
#######################################################################

data_DIWFEW
_chemical_formula_moiety         'C21 H18 Cl4 Si1'
_chemical_name_systematic        triphenyl(1,3,3,3-tetrachloropropyl)silane
_symmetry_cell_setting           monoclinic
_symmetry_space_group_name_H-M   'P 21/c'
_symmetry_Int_Tables_number      14
_space_group_name_Hall           '-P 2ybc'
loop_
_symmetry_equiv_pos_site_id
_symmetry_equiv_pos_as_xyz
1 x,y,z
2 -x,1/2+y,1/2-z
3 -x,-y,-z
4 x,1/2-y,1/2+z
_cell_length_a                   8.1096(3)
_cell_length_b                   11.3062(4)
_cell_length_c                   22.2285(8)
_cell_angle_alpha                90
_cell_angle_beta                 92.740(2)
_cell_angle_gamma                90
_cell_volume                     2035.77
_exptl_crystal_colour            colorless
_exptl_crystal_description       piece
_cell_formula_units_Z            4
loop_
_atom_site_label
_atom_site_type_symbol
_atom_site_fract_x
_atom_site_fract_y
_atom_site_fract_z
Si1 Si 0.19797(14) 0.73440(9) 0.87728(5)
C1 C 0.0795(3) 0.8757(2) 0.88020(11)
C2 C -0.0295(5) 0.9001(3) 0.92551(16)
H1 H -0.0385 0.8459 0.9578
C3 C -0.1248(5) 1.0020(4) 0.9241(2)
H2 H -0.1976 1.0168 0.9555
C4 C -0.1151(5) 1.0825(3) 0.87734(18)
H3 H -0.1802 1.1524 0.8768
C5 C -0.0099(4) 1.0603(3) 0.83169(16)
H4 H -0.0031 1.1146 0.7993
C6 C 0.0867(4) 0.9580(3) 0.83312(16)
H5 H 0.1589 0.9437 0.8015
Cl1 Cl 0.4757(3) 0.65299(15) 1.08571(8)
Cl2 Cl 0.68907(8) 0.64302(6) 0.98636(3)
Cl3 Cl 0.67108(9) 0.85884(6) 1.05576(3)
Cl4 Cl 0.13708(9) 0.65329(6) 1.00296(3)
C7 C 0.5545(3) 0.7362(2) 1.02523(10)
C8 C 0.3015(3) 0.6915(2) 0.95347(9)
H6 H 0.3678 0.6184 0.9472
C9 C 0.4167(3) 0.78370(19) 0.98247(10)
H7 H 0.3495 0.8400 1.0051
H8 H 0.4679 0.8287 0.9500
C10 C 0.3607(2) 0.75265(17) 0.82139(8)
C11 C 0.3704(2) 0.67441(19) 0.77301(9)
H9 H 0.2934 0.6112 0.7690
C12 C 0.4902(3) 0.6869(2) 0.73058(10)
H10 H 0.4936 0.6331 0.6978
C13 C 0.6044(3) 0.7779(2) 0.73626(10)
H11 H 0.6867 0.7862 0.7075
C14 C 0.5987(3) 0.8572(2) 0.78394(10)
H12 H 0.6775 0.9192 0.7880
C15 C 0.4770(3) 0.84542(19) 0.82576(9)
H13 H 0.4723 0.9008 0.8578
C16 C 0.0579(2) 0.60907(16) 0.85684(8)
C17 C -0.1082(2) 0.62447(18) 0.83893(9)
H14 H -0.1530 0.7020 0.8362
C18 C -0.2090(3) 0.5273(2) 0.82499(10)
H15 H -0.3216 0.5392 0.8127
C19 C -0.1464(3) 0.4142(2) 0.82885(9)
H16 H -0.2154 0.3484 0.8189
C20 C 0.0175(3) 0.39666(19) 0.84729(11)
H17 H 0.0606 0.3187 0.8507
C21 C 0.1182(2) 0.49274(18) 0.86076(10)
H18 H 0.2306 0.4797 0.8729
Si2? Si 0.1760(10) 0.7523(7) 0.8759(3)
C22? C 0.045(2) 0.8880(11) 0.8728(8)
C23? C -0.074(3) 0.910(2) 0.9152(10)
H19? H -0.0878 0.8541 0.9466
C24? C -0.171(4) 1.009(2) 0.9127(13)
H20? H -0.2545 1.0186 0.9407
C25? C -0.148(3) 1.096(2) 0.8703(12)
H21? H -0.2103 1.1674 0.8709
C26? C -0.035(3) 1.078(2) 0.8268(11)
H22? H -0.0247 1.1329 0.7949
C27? C 0.064(3) 0.9784(18) 0.8305(11)
H23? H 0.1502 0.9709 0.8031
Cl5? Cl 0.4895(17) 0.6716(11) 1.0862(5)
Cl6? Cl 0.7499(5) 0.6383(4) 1.00562(19)
Cl7? Cl 0.5855(5) 0.8614(4) 1.02496(18)
Cl8? Cl 0.1305(7) 0.6890(4) 1.0037(2)
C28? C 0.556(2) 0.7064(14) 1.0129(5)
C29? C 0.2793(14) 0.7450(13) 0.9551(4)
H24? H 0.3031 0.8283 0.9679
C30? C 0.4408(16) 0.6785(11) 0.9606(6)
H25? H 0.4152 0.5930 0.9621
H26? H 0.5000 0.6925 0.9234
loop_
_geom_bond_atom_site_label_1
_geom_bond_atom_site_label_2
_geom_bond_site_symmetry_1
_geom_bond_site_symmetry_2
Si1 C1 1_555 1_555
C1 C2 1_555 1_555
C2 H1 1_555 1_555
C3 C2 1_555 1_555
H2 C3 1_555 1_555
C4 C3 1_555 1_555
H3 C4 1_555 1_555
C5 C4 1_555 1_555
H4 C5 1_555 1_555
C6 C1 1_555 1_555
H5 C6 1_555 1_555
Cl1 C7 1_555 1_555
Cl2 C7 1_555 1_555
Cl3 C7 1_555 1_555
Cl4 C8 1_555 1_555
C7 C9 1_555 1_555
C8 Si1 1_555 1_555
H6 C8 1_555 1_555
C9 C8 1_555 1_555
H7 C9 1_555 1_555
H8 C9 1_555 1_555
C10 Si1 1_555 1_555
C11 C10 1_555 1_555
H9 C11 1_555 1_555
C12 C11 1_555 1_555
H10 C12 1_555 1_555
C13 C12 1_555 1_555
H11 C13 1_555 1_555
C14 C13 1_555 1_555
H12 C14 1_555 1_555
C15 C10 1_555 1_555
H13 C15 1_555 1_555
C16 Si1 1_555 1_555
C17 C16 1_555 1_555
H14 C17 1_555 1_555
C18 C17 1_555 1_555
H15 C18 1_555 1_555
C19 C18 1_555 1_555
H16 C19 1_555 1_555
C20 C19 1_555 1_555
H17 C20 1_555 1_555
C21 C16 1_555 1_555
H18 C21 1_555 1_555
C5 C6 1_555 1_555
C14 C15 1_555 1_555
C20 C21 1_555 1_555

#END
