
#######################################################################
#
#                 Cambridge Crystallographic Data Centre
#                                CCDC 
#
#######################################################################
#
# If this CIF has been generated from an entry in the Cambridge 
# Structural Database, then it will include bibliographic, chemical, 
# crystal, experimental, refinement or atomic coordinate data resulting 
# from the CCDC's data processing and validation procedures.
#
#######################################################################

data_DIWFUM
_chemical_formula_moiety         'C38 H48 Ba1 N2 O3 P2 Se2'
_chemical_name_systematic        
"(N,N'-ethane-1,2-diylbis(P,P-diphenyl(phosphinoselenoic amidato)))-tris(tetrahydrofuran)-barium"
_symmetry_cell_setting           triclinic
_symmetry_space_group_name_H-M   'P -1'
_symmetry_Int_Tables_number      2
_space_group_name_Hall           '-P 1'
loop_
_symmetry_equiv_pos_site_id
_symmetry_equiv_pos_as_xyz
1 x,y,z
2 -x,-y,-z
_cell_length_a                   9.6600(5)
_cell_length_b                   17.2064(10)
_cell_length_c                   25.4384(14)
_cell_angle_alpha                105.952(5)
_cell_angle_beta                 90.358(4)
_cell_angle_gamma                102.056(5)
_cell_volume                     3966.61
_exptl_crystal_colour            colorless
_exptl_crystal_description       needle
_cell_formula_units_Z            4
_chemical_properties_physical    'air- and moisture-sensitive; hygroscopic'
loop_
_atom_site_label
_atom_site_type_symbol
_atom_site_fract_x
_atom_site_fract_y
_atom_site_fract_z
Ba1 Ba 1.07995(4) 0.55086(2) 0.348457(15)
Se1 Se 1.02326(8) 0.39864(5) 0.22367(3)
Se2 Se 1.12209(9) 0.68862(5) 0.47557(3)
P1 P 0.86992(18) 0.47209(11) 0.21940(7)
P2 P 0.96303(19) 0.72544(11) 0.43428(7)
O1 O 1.2872(6) 0.6232(4) 0.2944(2)
O2 O 1.3336(6) 0.5197(4) 0.3842(2)
O3 O 0.9458(6) 0.4334(3) 0.3950(2)
N1 N 0.8957(6) 0.5517(4) 0.2707(2)
N2 N 0.9151(6) 0.6592(4) 0.3764(2)
C1 C 0.7896(7) 0.6015(4) 0.2862(3)
H1 H 0.7089 0.5699 0.2993
H2 H 0.7567 0.6150 0.2544
C2 C 0.8515(8) 0.6807(4) 0.3307(3)
H3 H 0.9234 0.7162 0.3162
H4 H 0.7776 0.7103 0.3437
C3 C 0.6894(7) 0.4091(4) 0.2148(3)
C4 C 0.6583(8) 0.3512(5) 0.2440(3)
H5 H 0.7313 0.3401 0.2629
C5 C 0.5203(9) 0.3098(5) 0.2455(3)
H6 H 0.5011 0.2712 0.2654
C6 C 0.4112(9) 0.3251(5) 0.2179(3)
H7 H 0.3186 0.2963 0.2186
C7 C 0.4390(8) 0.3840(5) 0.1887(3)
H8 H 0.3654 0.3958 0.1706
C8 C 0.5783(8) 0.4248(5) 0.1871(3)
H9 H 0.5977 0.4633 0.1672
C9 C 0.8518(9) 0.4379(5) 0.1050(3)
H10 H 0.8296 0.3823 0.1043
C10 C 0.8579(9) 0.4595(6) 0.0558(3)
H11 H 0.8405 0.4185 0.0225
C11 C 0.8898(9) 0.5417(6) 0.0568(3)
H12 H 0.8919 0.5563 0.0242
C12 C 0.9189(8) 0.6025(6) 0.1064(3)
H13 H 0.9419 0.6579 0.1069
C13 C 0.9139(8) 0.5815(5) 0.1555(3)
H14 H 0.9340 0.6225 0.1888
C14 C 0.8784(7) 0.4981(5) 0.1541(3)
C15 C 1.0296(7) 0.8298(4) 0.4274(3)
C16 C 1.1658(8) 0.8492(5) 0.4095(3)
H15 H 1.2232 0.8109 0.4041
C17 C 1.2156(9) 0.9250(5) 0.3997(3)
H16 H 1.3064 0.9378 0.3880
C18 C 1.1298(9) 0.9817(5) 0.4073(3)
H17 H 1.1630 1.0325 0.4005
C19 C 0.9956(10) 0.9634(5) 0.4249(4)
H18 H 0.9386 1.0019 0.4303
C20 C 0.9459(8) 0.8872(5) 0.4346(3)
H19 H 0.8548 0.8747 0.4461
C21 C 0.8133(8) 0.7388(5) 0.4776(3)
C22 C 0.6777(8) 0.7070(5) 0.4533(3)
H20 H 0.6641 0.6764 0.4166
C23 C 0.5593(10) 0.7207(6) 0.4838(4)
H21 H 0.4678 0.6999 0.4674
C24 C 0.5809(11) 0.7650(6) 0.5379(5)
H22 H 0.5034 0.7758 0.5580
C25 C 0.7162(12) 0.7940(5) 0.5632(4)
H23 H 0.7289 0.8222 0.6003
C26 C 0.8332(10) 0.7809(5) 0.5333(3)
H24 H 0.9242 0.8002 0.5503
C27 C 1.2957(8) 0.5988(5) 0.2349(3)
H25 H 1.2347 0.6242 0.2176
H26 H 1.2677 0.5391 0.2200
C28 C 1.4482(8) 0.6295(5) 0.2261(3)
H27 H 1.4578 0.6431 0.1915
H28 H 1.5034 0.5886 0.2266
C29 C 1.4937(8) 0.7059(5) 0.2740(3)
H29 H 1.4629 0.7529 0.2677
H30 H 1.5957 0.7199 0.2817
C30 C 1.4169(9) 0.6778(7) 0.3199(3)
H31 H 1.4732 0.6493 0.3366
H32 H 1.3984 0.7249 0.3479
C31 C 1.3698(11) 0.4502(7) 0.3458(4)
H33 H 1.4715 0.4594 0.3425
H34 H 1.3230 0.4401 0.3100
C32 C 1.3180(11) 0.3773(6) 0.3695(4)
H35 H 1.3850 0.3415 0.3644
H36 H 1.2263 0.3450 0.3522
C33 C 1.3071(10) 0.4184(6) 0.4305(4)
H37 H 1.2098 0.4066 0.4405
H38 H 1.3660 0.3991 0.4531
C34 C 1.3589(9) 0.5087(5) 0.4372(3)
H39 H 1.3075 0.5409 0.4644
H40 H 1.4593 0.5259 0.4485
C35 C 0.9098(9) 0.3444(5) 0.3739(3)
H41 H 0.9686 0.3199 0.3929
H42 H 0.9246 0.3276 0.3351
C36 C 0.7548(9) 0.3163(6) 0.3834(3)
H43 H 0.7443 0.2833 0.4091
H44 H 0.7010 0.2840 0.3493
C37 C 0.7066(9) 0.3968(7) 0.4068(4)
H45 H 0.6638 0.4133 0.3782
H46 H 0.6387 0.3914 0.4342
C38 C 0.8404(10) 0.4579(6) 0.4319(4)
H47 H 0.8323 0.5140 0.4343
H48 H 0.8635 0.4547 0.4683
Ba2 Ba 0.43649(4) 0.94610(3) 0.152987(16)
Se3 Se 0.45445(9) 1.08521(5) 0.28001(3)
Se4 Se 0.44398(10) 0.82421(6) 0.02132(3)
P3 P 0.61601(18) 1.01839(11) 0.28640(7)
P4 P 0.57370(19) 0.77785(11) 0.06903(7)
O4 O 0.1954(5) 0.8517(3) 0.1779(2)
O5 O 0.2399(7) 1.0166(4) 0.1126(2)
O6 O 0.6101(7) 1.0676(4) 0.1236(3)
N3 N 0.5897(6) 0.9335(4) 0.2384(2)
N4 N 0.6055(6) 0.8388(4) 0.1292(2)
C39 C 0.7045(7) 0.8886(4) 0.2238(3)
H49 H 0.7330 0.8720 0.2550
H50 H 0.7861 0.9250 0.2147
C40 C 0.6560(7) 0.8125(4) 0.1753(3)
H51 H 0.7341 0.7854 0.1646
H52 H 0.5800 0.7736 0.1852
C41 C 0.6206(7) 1.0035(4) 0.3547(3)
C42 C 0.6585(8) 1.0699(5) 0.4016(3)
H53 H 0.6820 1.1237 0.3985
C43 C 0.6613(9) 1.0562(6) 0.4530(3)
H54 H 0.6838 1.1009 0.4843
C44 C 0.6310(8) 0.9767(5) 0.4575(3)
H55 H 0.6364 0.9679 0.4918
C45 C 0.5925(8) 0.9100(6) 0.4117(3)
H56 H 0.5700 0.8565 0.4151
C46 C 0.5876(8) 0.9235(5) 0.3594(3)
H57 H 0.5622 0.8787 0.3283
C47 C 0.7937(7) 1.0816(4) 0.2861(3)
C48 C 0.9096(8) 1.0611(5) 0.3072(3)
H58 H 0.8957 1.0200 0.3251
C49 C 1.0476(9) 1.1024(5) 0.3015(3)
H59 H 1.1253 1.0879 0.3149
C50 C 1.0681(10) 1.1647(5) 0.2759(3)
H60 H 1.1593 1.1934 0.2730
C51 C 0.9534(10) 1.1838(5) 0.2549(3)
H61 H 0.9677 1.2250 0.2369
C52 C 0.8164(9) 1.1434(5) 0.2596(3)
H62 H 0.7398 1.1575 0.2451
C53 C 0.4901(7) 0.6722(4) 0.0698(3)
C54 C 0.3464(8) 0.6545(5) 0.0786(3)
H63 H 0.2924 0.6938 0.0797
C55 C 0.2837(8) 0.5781(5) 0.0856(3)
H64 H 0.1881 0.5668 0.0924
C56 C 0.3621(9) 0.5185(5) 0.0827(3)
H65 H 0.3190 0.4670 0.0869
C57 C 0.5037(9) 0.5356(5) 0.0737(3)
H66 H 0.5569 0.4958 0.0718
C58 C 0.5678(8) 0.6126(5) 0.0675(3)
H67 H 0.6640 0.6241 0.0617
C59 C 0.7398(8) 0.7643(5) 0.0358(3)
C60 C 0.8662(8) 0.8060(5) 0.0651(3)
H68 H 0.8662 0.8426 0.0997
C61 C 0.9932(9) 0.7938(6) 0.0433(4)
H69 H 1.0783 0.8209 0.0638
C62 C 0.7402(9) 0.7138(5) -0.0164(3)
H70 H 0.6550 0.6875 -0.0370
C63 C 0.8700(10) 0.7020(5) -0.0388(4)
H71 H 0.8709 0.6672 -0.0739
C64 C 0.9944(10) 0.7418(5) -0.0085(4)
H72 H 1.0802 0.7337 -0.0228
C65 C 0.0953(9) 0.8914(6) 0.2115(4)
H73 H 0.0113 0.8881 0.1891
H74 H 0.1377 0.9493 0.2288
C66 C 0.0566(11) 0.8461(7) 0.2544(4)
H75 H -0.0294 0.8033 0.2428
H76 H 0.0439 0.8839 0.2892
C67 C 0.1843(10) 0.8090(6) 0.2582(3)
H77 H 0.2608 0.8489 0.2821
H78 H 0.1597 0.7602 0.2711
C68 C 0.2235(9) 0.7872(5) 0.1994(3)
H79 H 0.3230 0.7850 0.1976
H80 H 0.1667 0.7338 0.1788
C69 C 0.1919(12) 1.0863(7) 0.1452(4)
H81 H 0.2542 1.1131 0.1781
H82 H 0.0967 1.0691 0.1558
C70 C 0.1935(12) 1.1445(6) 0.1108(4)
H83 H 0.2853 1.1822 0.1143
H84 H 0.1207 1.1763 0.1203
C71 C 0.1627(12) 1.0848(6) 0.0537(4)
H85 H 0.0615 1.0692 0.0438
H86 H 0.2101 1.1097 0.0269
C72 C 0.2171(13) 1.0128(6) 0.0562(4)
H87 H 0.1494 0.9623 0.0376
H88 H 0.3055 1.0129 0.0384
C73 C 0.5897(10) 1.1499(5) 0.1295(4)
H89 H 0.5616 1.1735 0.1660
H90 H 0.5169 1.1492 0.1029
C74 C 0.7294(10) 1.1988(5) 0.1201(4)
H91 H 0.7169 1.2392 0.1014
H92 H 0.7852 1.2272 0.1544
C75 C 0.7975(12) 1.1352(7) 0.0854(5)
H93 H 0.7739 1.1277 0.0469
H94 H 0.8998 1.1518 0.0921
C76 C 0.7457(15) 1.0611(7) 0.0993(6)
H95 H 0.8123 1.0540 0.1254
H96 H 0.7325 1.0140 0.0670
loop_
_geom_bond_atom_site_label_1
_geom_bond_atom_site_label_2
_geom_bond_site_symmetry_1
_geom_bond_site_symmetry_2
Ba1 Se1 1_555 1_555
Se1 P1 1_555 1_555
Se2 Ba1 1_555 1_555
P1 N1 1_555 1_555
P2 Se2 1_555 1_555
O1 Ba1 1_555 1_555
O2 Ba1 1_555 1_555
O3 Ba1 1_555 1_555
N1 Ba1 1_555 1_555
N2 Ba1 1_555 1_555
C1 N1 1_555 1_555
H1 C1 1_555 1_555
H2 C1 1_555 1_555
C2 N2 1_555 1_555
H3 C2 1_555 1_555
H4 C2 1_555 1_555
C3 P1 1_555 1_555
C4 C3 1_555 1_555
H5 C4 1_555 1_555
C5 C4 1_555 1_555
H6 C5 1_555 1_555
C6 C5 1_555 1_555
H7 C6 1_555 1_555
C7 C6 1_555 1_555
H8 C7 1_555 1_555
C8 C3 1_555 1_555
H9 C8 1_555 1_555
C9 H10 1_555 1_555
C10 C9 1_555 1_555
H11 C10 1_555 1_555
C11 C10 1_555 1_555
H12 C11 1_555 1_555
C12 C11 1_555 1_555
H13 C12 1_555 1_555
C13 C12 1_555 1_555
H14 C13 1_555 1_555
C14 P1 1_555 1_555
C15 P2 1_555 1_555
C16 C15 1_555 1_555
H15 C16 1_555 1_555
C17 C16 1_555 1_555
H16 C17 1_555 1_555
C18 C17 1_555 1_555
H17 C18 1_555 1_555
C19 C18 1_555 1_555
H18 C19 1_555 1_555
C20 C15 1_555 1_555
H19 C20 1_555 1_555
C21 P2 1_555 1_555
C22 C21 1_555 1_555
H20 C22 1_555 1_555
C23 C22 1_555 1_555
H21 C23 1_555 1_555
C24 C23 1_555 1_555
H22 C24 1_555 1_555
C25 C24 1_555 1_555
H23 C25 1_555 1_555
C26 C21 1_555 1_555
H24 C26 1_555 1_555
C27 O1 1_555 1_555
H25 C27 1_555 1_555
H26 C27 1_555 1_555
C28 C27 1_555 1_555
H27 C28 1_555 1_555
H28 C28 1_555 1_555
C29 C28 1_555 1_555
H29 C29 1_555 1_555
H30 C29 1_555 1_555
C30 O1 1_555 1_555
H31 C30 1_555 1_555
H32 C30 1_555 1_555
C31 O2 1_555 1_555
H33 C31 1_555 1_555
H34 C31 1_555 1_555
C32 C31 1_555 1_555
H35 C32 1_555 1_555
H36 C32 1_555 1_555
C33 C32 1_555 1_555
H37 C33 1_555 1_555
H38 C33 1_555 1_555
C34 O2 1_555 1_555
H39 C34 1_555 1_555
H40 C34 1_555 1_555
C35 O3 1_555 1_555
H41 C35 1_555 1_555
H42 C35 1_555 1_555
C36 C35 1_555 1_555
H43 C36 1_555 1_555
H44 C36 1_555 1_555
C37 C36 1_555 1_555
H45 C37 1_555 1_555
H46 C37 1_555 1_555
C38 O3 1_555 1_555
H47 C38 1_555 1_555
H48 C38 1_555 1_555
Ba2 Se3 1_555 1_555
Se3 P3 1_555 1_555
Se4 Ba2 1_555 1_555
P3 N3 1_555 1_555
P4 Se4 1_555 1_555
O4 Ba2 1_555 1_555
O5 Ba2 1_555 1_555
O6 Ba2 1_555 1_555
N3 Ba2 1_555 1_555
N4 Ba2 1_555 1_555
C39 N3 1_555 1_555
H49 C39 1_555 1_555
H50 C39 1_555 1_555
C40 N4 1_555 1_555
H51 C40 1_555 1_555
H52 C40 1_555 1_555
C41 P3 1_555 1_555
C42 C41 1_555 1_555
H53 C42 1_555 1_555
C43 C42 1_555 1_555
H54 C43 1_555 1_555
C44 C43 1_555 1_555
H55 C44 1_555 1_555
C45 C44 1_555 1_555
H56 C45 1_555 1_555
C46 C41 1_555 1_555
H57 C46 1_555 1_555
C47 P3 1_555 1_555
C48 C47 1_555 1_555
H58 C48 1_555 1_555
C49 C48 1_555 1_555
H59 C49 1_555 1_555
C50 C49 1_555 1_555
H60 C50 1_555 1_555
C51 C50 1_555 1_555
H61 C51 1_555 1_555
C52 C47 1_555 1_555
H62 C52 1_555 1_555
C53 P4 1_555 1_555
C54 C53 1_555 1_555
H63 C54 1_555 1_555
C55 C54 1_555 1_555
H64 C55 1_555 1_555
C56 C55 1_555 1_555
H65 C56 1_555 1_555
C57 C56 1_555 1_555
H66 C57 1_555 1_555
C58 C53 1_555 1_555
H67 C58 1_555 1_555
C59 P4 1_555 1_555
C60 C59 1_555 1_555
H68 C60 1_555 1_555
C61 C60 1_555 1_555
H69 C61 1_555 1_555
C62 C59 1_555 1_555
H70 C62 1_555 1_555
C63 C62 1_555 1_555
H71 C63 1_555 1_555
C64 C61 1_555 1_555
H72 C64 1_555 1_555
C65 O4 1_555 1_555
H73 C65 1_555 1_555
H74 C65 1_555 1_555
C66 C65 1_555 1_555
H75 C66 1_555 1_555
H76 C66 1_555 1_555
C67 C66 1_555 1_555
H77 C67 1_555 1_555
H78 C67 1_555 1_555
C68 O4 1_555 1_555
H79 C68 1_555 1_555
H80 C68 1_555 1_555
C69 O5 1_555 1_555
H81 C69 1_555 1_555
H82 C69 1_555 1_555
C70 C69 1_555 1_555
H83 C70 1_555 1_555
H84 C70 1_555 1_555
C71 C70 1_555 1_555
H85 C71 1_555 1_555
H86 C71 1_555 1_555
C72 O5 1_555 1_555
H87 C72 1_555 1_555
H88 C72 1_555 1_555
C73 O6 1_555 1_555
H89 C73 1_555 1_555
H90 C73 1_555 1_555
C74 C73 1_555 1_555
H91 C74 1_555 1_555
H92 C74 1_555 1_555
C75 C74 1_555 1_555
H93 C75 1_555 1_555
H94 C75 1_555 1_555
C76 O6 1_555 1_555
H95 C76 1_555 1_555
H96 C76 1_555 1_555
P2 N2 1_555 1_555
C1 C2 1_555 1_555
C7 C8 1_555 1_555
C9 C14 1_555 1_555
C13 C14 1_555 1_555
C19 C20 1_555 1_555
C25 C26 1_555 1_555
C29 C30 1_555 1_555
C33 C34 1_555 1_555
C37 C38 1_555 1_555
P4 N4 1_555 1_555
C39 C40 1_555 1_555
C45 C46 1_555 1_555
C51 C52 1_555 1_555
C57 C58 1_555 1_555
C63 C64 1_555 1_555
C67 C68 1_555 1_555
C71 C72 1_555 1_555
C75 C76 1_555 1_555

#END
