
#######################################################################
#
#                 Cambridge Crystallographic Data Centre
#                                CCDC 
#
#######################################################################
#
# If this CIF has been generated from an entry in the Cambridge 
# Structural Database, then it will include bibliographic, chemical, 
# crystal, experimental, refinement or atomic coordinate data resulting 
# from the CCDC's data processing and validation procedures.
#
#######################################################################

data_DIWFUN
_chemical_formula_moiety         'C44 H22 F4 N4'
_chemical_name_systematic        5,10,15,20-tetrakis(3-fluorophenyl)porphyrin
_symmetry_cell_setting           monoclinic
_symmetry_space_group_name_H-M   'P 21/c'
_symmetry_Int_Tables_number      14
_space_group_name_Hall           '-P 2ybc'
loop_
_symmetry_equiv_pos_site_id
_symmetry_equiv_pos_as_xyz
1 x,y,z
2 -x,1/2+y,1/2-z
3 -x,-y,-z
4 x,1/2-y,1/2+z
_cell_length_a                   14.8491(12)
_cell_length_b                   9.3665(8)
_cell_length_c                   12.8409(10)
_cell_angle_alpha                90
_cell_angle_beta                 112.5136(10)
_cell_angle_gamma                90
_cell_volume                     1649.85
_exptl_crystal_colour            red
_exptl_crystal_description       irregular
_cell_formula_units_Z            2
_chemical_properties_physical    Light-sensitive
_exptl_crystal_recrystallization_method chloroform
loop_
_atom_site_label
_atom_site_type_symbol
_atom_site_fract_x
_atom_site_fract_y
_atom_site_fract_z
F1 F 0.03217(14) 0.3797(2) -0.07239(16)
F2 F 0.69309(15) 0.4610(2) -0.00491(15)
N1 N 0.45977(10) 0.40617(16) 0.34033(13)
H1 H 0.4742(18) 0.454(3) 0.411(2)
N2 N 0.64009(10) 0.51431(15) 0.51314(12)
C1 C 0.36802(12) 0.35796(19) 0.27480(15)
C2 C 0.37471(13) 0.2916(2) 0.17789(15)
H2 H 0.3224 0.2492 0.1174
C3 C 0.46867(13) 0.2997(2) 0.18717(15)
H3 H 0.4938 0.2629 0.1348
C4 C 0.52334(12) 0.37310(19) 0.28948(15)
C5 C 0.62306(12) 0.40420(18) 0.33165(15)
C6 C 0.67600(12) 0.47105(18) 0.43505(14)
C7 C 0.77868(12) 0.50848(18) 0.47112(14)
H4 H 0.8196 0.4916 0.4309
C8 C 0.80419(12) 0.57151(19) 0.57244(15)
H5 H 0.8670 0.6065 0.6182
C9 C 0.71733(12) 0.57576(18) 0.59855(15)
C10 C 0.28498(12) 0.36652(19) 0.30168(15)
C11 C 0.19185(12) 0.3094(2) 0.21546(16)
C12 C 0.15199(13) 0.3722(2) 0.10880(16)
H6 H 0.1838 0.4505 0.0904
C13 C 0.06564(15) 0.3193(3) 0.03010(18)
C14 C 0.01711(14) 0.2065(3) 0.0531(2)
H7 H -0.0420 0.1719 -0.0021
C15 C 0.05674(15) 0.1442(3) 0.1594(2)
C16 C 0.14401(14) 0.1941(2) 0.24024(19)
H8 H 0.1708 0.1496 0.3121
C17 C 0.67751(12) 0.3658(2) 0.25847(15)
C18 C 0.65546(15) 0.4320(2) 0.15472(17)
H9 H 0.6038 0.4993 0.1275
C19 C 0.71033(17) 0.3979(3) 0.09162(18)
C20 C 0.78687(15) 0.3030(2) 0.12808(18)
H10 H 0.8246 0.2842 0.0843
C21 C 0.80709(14) 0.2360(2) 0.23011(17)
C22 C 0.75270(13) 0.2657(2) 0.29470(16)
H11 H 0.7669 0.2173 0.3642
F1B F 0.96783(14) 0.6203(2) 1.07239(16)
F2B F 0.30691(15) 0.5390(2) 1.00491(15)
N1B N 0.54023(10) 0.59383(16) 0.65967(13)
H1B H 0.5258(18) 0.546(3) 0.589(2)
N2B N 0.35991(10) 0.48569(15) 0.48686(12)
C1B C 0.63198(12) 0.64204(19) 0.72520(15)
C2B C 0.62529(13) 0.7084(2) 0.82211(15)
H2B H 0.6776 0.7508 0.8826
C3B C 0.53133(13) 0.7003(2) 0.81283(15)
H3B H 0.5062 0.7371 0.8652
C4B C 0.47666(12) 0.62690(19) 0.71052(15)
C5B C 0.37694(12) 0.59580(18) 0.66835(15)
C6B C 0.32400(12) 0.52895(18) 0.56495(14)
C7B C 0.22132(12) 0.49152(18) 0.52888(14)
H4B H 0.1804 0.5084 0.5691
C8B C 0.19581(12) 0.42849(19) 0.42756(15)
H5B H 0.1330 0.3935 0.3818
C9B C 0.28267(12) 0.42424(18) 0.40145(15)
C10B C 0.71502(12) 0.63348(19) 0.69832(15)
C11B C 0.80815(12) 0.6906(2) 0.78454(16)
C12B C 0.84801(13) 0.6278(2) 0.89120(16)
H6B H 0.8162 0.5495 0.9096
C13B C 0.93436(15) 0.6807(3) 0.96990(18)
C14B C 0.98289(14) 0.7935(3) 0.9469(2)
H7B H 1.0420 0.8281 1.0021
C15B C 0.94326(15) 0.8558(3) 0.8406(2)
C16B C 0.85599(14) 0.8059(2) 0.75976(19)
H8B H 0.8292 0.8504 0.6879
C17B C 0.32249(12) 0.6342(2) 0.74153(15)
C18B C 0.34454(15) 0.5680(2) 0.84528(17)
H9B H 0.3962 0.5007 0.8725
C19B C 0.28967(17) 0.6021(3) 0.90838(18)
C20B C 0.21313(15) 0.6970(2) 0.87192(18)
H10B H 0.1754 0.7158 0.9157
C21B C 0.19291(14) 0.7640(2) 0.76989(17)
C22B C 0.24730(13) 0.7343(2) 0.70530(16)
H11B H 0.2331 0.7827 0.6358
F3? F 0.0197(3) 0.0303(4) 0.1835(4)
F4? F 0.8793(3) 0.1718(5) 0.2575(4)
loop_
_geom_bond_atom_site_label_1
_geom_bond_atom_site_label_2
_geom_bond_site_symmetry_1
_geom_bond_site_symmetry_2
F1 C13 1_555 1_555
F2 C19 1_555 1_555
N1 H1 1_555 1_555
N2 C6 1_555 1_555
C1 N1 1_555 1_555
C2 C1 1_555 1_555
H2 C2 1_555 1_555
C3 C2 1_555 1_555
H3 C3 1_555 1_555
C4 N1 1_555 1_555
C5 C4 1_555 1_555
C6 C5 1_555 1_555
C7 C6 1_555 1_555
H4 C7 1_555 1_555
C8 C7 1_555 1_555
H5 C8 1_555 1_555
C9 N2 1_555 1_555
C10 C1 1_555 1_555
C11 C10 1_555 1_555
C12 C11 1_555 1_555
H6 C12 1_555 1_555
C13 C12 1_555 1_555
C14 C13 1_555 1_555
H7 C14 1_555 1_555
C15 C14 1_555 1_555
C16 C11 1_555 1_555
H8 C16 1_555 1_555
C17 C5 1_555 1_555
C18 C17 1_555 1_555
H9 C18 1_555 1_555
C19 C18 1_555 1_555
C20 C19 1_555 1_555
H10 C20 1_555 1_555
C21 C20 1_555 1_555
C22 C17 1_555 1_555
H11 C22 1_555 1_555
F1B C13B 1_555 1_555
F2B C19B 1_555 1_555
N1B H1B 1_555 1_555
N2B C6B 1_555 1_555
C1B N1B 1_555 1_555
C2B C1B 1_555 1_555
H2B C2B 1_555 1_555
C3B C2B 1_555 1_555
H3B C3B 1_555 1_555
C4B N1B 1_555 1_555
C5B C4B 1_555 1_555
C6B C5B 1_555 1_555
C7B C6B 1_555 1_555
H4B C7B 1_555 1_555
C8B C7B 1_555 1_555
H5B C8B 1_555 1_555
C9B C10 1_555 1_555
C10B C9 1_555 1_555
C11B C10B 1_555 1_555
C12B C11B 1_555 1_555
H6B C12B 1_555 1_555
C13B C12B 1_555 1_555
C14B C13B 1_555 1_555
H7B C14B 1_555 1_555
C15B C14B 1_555 1_555
C16B C11B 1_555 1_555
H8B C16B 1_555 1_555
C17B C5B 1_555 1_555
C18B C17B 1_555 1_555
H9B C18B 1_555 1_555
C19B C18B 1_555 1_555
C20B C19B 1_555 1_555
H10B C20B 1_555 1_555
C21B C20B 1_555 1_555
C22B C17B 1_555 1_555
H11B C22B 1_555 1_555
C3 C4 1_555 1_555
C8 C9 1_555 1_555
C15 C16 1_555 1_555
C21 C22 1_555 1_555
N2B C9B 1_555 1_555
C1B C10B 1_555 1_555
C3B C4B 1_555 1_555
C8B C9B 1_555 1_555
C15B C16B 1_555 1_555
C21B C22B 1_555 1_555

#END
