
#######################################################################
#
#                 Cambridge Crystallographic Data Centre
#                                CCDC 
#
#######################################################################
#
# If this CIF has been generated from an entry in the Cambridge 
# Structural Database, then it will include bibliographic, chemical, 
# crystal, experimental, refinement or atomic coordinate data resulting 
# from the CCDC's data processing and validation procedures.
#
#######################################################################

data_DIWGOG
_chemical_formula_moiety         'C12 H16 O4,C10 H8 N2'
_chemical_name_systematic        
"Adamantane-1,3-dicarboxylic acid 4,4'-bipyridine"
_symmetry_cell_setting           monoclinic
_symmetry_space_group_name_H-M   'C 2/c'
_symmetry_Int_Tables_number      15
_space_group_name_Hall           '-C 2yn'
loop_
_symmetry_equiv_pos_site_id
_symmetry_equiv_pos_as_xyz
1 x,y,z
2 1/2+x,1/2+y,z
3 -x,y,1/2-z
4 1/2-x,1/2+y,1/2-z
5 -x,-y,-z
6 1/2-x,1/2-y,-z
7 x,-y,1/2+z
8 1/2+x,1/2-y,1/2+z
_cell_length_a                   21.5610(16)
_cell_length_b                   7.2378(5)
_cell_length_c                   12.1520(9)
_cell_angle_alpha                90
_cell_angle_beta                 92.5800(10)
_cell_angle_gamma                90
_cell_volume                     1894.45
_exptl_crystal_colour            colorless
_exptl_crystal_description       Block
_cell_formula_units_Z            4
loop_
_atom_site_label
_atom_site_type_symbol
_atom_site_fract_x
_atom_site_fract_y
_atom_site_fract_z
O1 O 0.13609(6) 0.52680(19) 0.30675(10)
H1 H 0.1589(11) 0.613(4) 0.3422(19)
O2 O 0.09343(6) 0.4964(2) 0.46669(10)
C1 C 0.09471(6) 0.4576(2) 0.37100(11)
C2 C 0.04885(5) 0.32848(17) 0.31155(10)
C3 C 0.01594(7) 0.2066(2) 0.39395(11)
H2 H -0.0041(8) 0.283(2) 0.4495(14)
H3 H 0.0482(8) 0.127(2) 0.4331(14)
C4 C 0.0000 0.4511(2) 0.2500
H4 H -0.0208(7) 0.528(2) 0.3058(12)
C5 C 0.08076(6) 0.20706(19) 0.22707(12)
H5 H 0.1022(7) 0.284(2) 0.1737(13)
H6 H 0.1137(7) 0.129(2) 0.2641(13)
C6 C -0.03203(7) 0.08481(19) 0.33264(12)
H7 H -0.0538(8) 0.007(2) 0.3864(14)
C7 C 0.0000 -0.0376(3) 0.2500
H8 H -0.0319(8) -0.121(3) 0.2107(14)
O1B O -0.13609(6) 0.52680(19) 0.19325(10)
H1B H -0.1589(11) 0.613(4) 0.1578(19)
O2B O -0.09343(6) 0.4964(2) 0.03331(10)
C1B C -0.09471(6) 0.4576(2) 0.12900(11)
C2B C -0.04885(5) 0.32848(17) 0.18845(10)
C3B C -0.01594(7) 0.2066(2) 0.10605(11)
H2B H 0.0041(8) 0.283(2) 0.0505(14)
H3B H -0.0482(8) 0.127(2) 0.0669(14)
H4B H 0.0208(7) 0.528(2) 0.1942(12)
C5B C -0.08076(6) 0.20706(19) 0.27293(12)
H5B H -0.1022(7) 0.284(2) 0.3263(13)
H6B H -0.1137(7) 0.129(2) 0.2359(13)
C6B C 0.03203(7) 0.08481(19) 0.16736(12)
H7B H 0.0538(8) 0.007(2) 0.1136(14)
H8B H 0.0319(8) -0.121(3) 0.2893(14)
N1 N 0.19746(5) 0.81941(17) 0.39186(10)
C8 C 0.16828(7) 0.9049(2) 0.47075(14)
H9 H 0.1330(9) 0.843(3) 0.4995(15)
C9 C 0.18683(7) 1.0727(2) 0.51509(14)
H10 H 0.1631(9) 1.127(3) 0.5690(16)
C10 C 0.23917(6) 1.15934(18) 0.47739(10)
C11 C 0.26991(7) 1.0692(2) 0.39601(13)
H11 H 0.3066(9) 1.117(3) 0.3668(15)
C12 C 0.24781(7) 0.9022(2) 0.35584(14)
H12 H 0.2692(8) 0.840(3) 0.3002(15)
N1E N 0.30254(5) 1.68059(17) 0.60814(10)
C8E C 0.33172(7) 1.5951(2) 0.52925(14)
H9E H 0.3670(9) 1.657(3) 0.5005(15)
C9E C 0.31317(7) 1.4273(2) 0.48491(14)
H10E H 0.3369(9) 1.373(3) 0.4310(16)
C10E C 0.26083(6) 1.34066(18) 0.52261(10)
C11E C 0.23009(7) 1.4308(2) 0.60399(13)
H11E H 0.1934(9) 1.383(3) 0.6332(15)
C12E C 0.25219(7) 1.5978(2) 0.64416(14)
H12E H 0.2308(8) 1.660(3) 0.6998(15)
loop_
_geom_bond_atom_site_label_1
_geom_bond_atom_site_label_2
_geom_bond_site_symmetry_1
_geom_bond_site_symmetry_2
O1 H1 1_555 1_555
O2 C1 1_555 1_555
C1 O1 1_555 1_555
C2 C1 1_555 1_555
C3 C2 1_555 1_555
H2 C3 1_555 1_555
H3 C3 1_555 1_555
C4 C2 1_555 1_555
H4 C4 1_555 1_555
C5 C2 1_555 1_555
H5 C5 1_555 1_555
H6 C5 1_555 1_555
C6 C3 1_555 1_555
H7 C6 1_555 1_555
C7 C6 1_555 1_555
H8 C7 1_555 1_555
N1 C8 1_555 1_555
C8 H9 1_555 1_555
C9 C8 1_555 1_555
H10 C9 1_555 1_555
C10 C9 1_555 1_555
C11 C10 1_555 1_555
H11 C11 1_555 1_555
C12 N1 1_555 1_555
H12 C12 1_555 1_555
O1B H1B 1_555 1_555
O2B C1B 1_555 1_555
C1B O1B 1_555 1_555
C2B C4 1_555 1_555
C3B C2B 1_555 1_555
H2B C3B 1_555 1_555
H3B C3B 1_555 1_555
H4B C4 1_555 1_555
C5B C6 1_555 1_555
H5B C5B 1_555 1_555
H6B C5B 1_555 1_555
C6B C5 1_555 1_555
H7B C6B 1_555 1_555
H8B C7 1_555 1_555
N1E C8E 1_555 1_555
C8E H9E 1_555 1_555
C9E C8E 1_555 1_555
H10E C9E 1_555 1_555
C10E C10 1_555 1_555
C11E C10E 1_555 1_555
H11E C11E 1_555 1_555
C12E N1E 1_555 1_555
H12E C12E 1_555 1_555
C7 C6B 1_555 1_555
C11 C12 1_555 1_555
C1B C2B 1_555 1_555
C2B C5B 1_555 1_555
C3B C6B 1_555 1_555
C9E C10E 1_555 1_555
C11E C12E 1_555 1_555

#END
