
#######################################################################
#
#                 Cambridge Crystallographic Data Centre
#                                CCDC 
#
#######################################################################
#
# If this CIF has been generated from an entry in the Cambridge 
# Structural Database, then it will include bibliographic, chemical, 
# crystal, experimental, refinement or atomic coordinate data resulting 
# from the CCDC's data processing and validation procedures.
#
#######################################################################

data_DIWGOI
_chemical_formula_moiety         'C44 H26 F4 N4'
_chemical_name_systematic        5,10,15,20-tetrakis(2-fluorophenyl)porphyrin
_symmetry_cell_setting           tetragonal
_symmetry_space_group_name_H-M   'I -4 2 d'
_symmetry_Int_Tables_number      122
_space_group_name_Hall           'I -4 2bw'
loop_
_symmetry_equiv_pos_site_id
_symmetry_equiv_pos_as_xyz
1 x,y,z
2 -x,-y,z
3 y,-x,-z
4 -y,x,-z
5 1/2-x,y,3/4-z
6 1/2+x,-y,3/4-z
7 1/2-y,-x,3/4+z
8 1/2+y,x,3/4+z
9 1/2+x,1/2+y,1/2+z
10 1/2-x,1/2-y,1/2+z
11 1/2+y,1/2-x,1/2-z
12 1/2-y,1/2+x,1/2-z
13 -x,1/2+y,1/4-z
14 x,1/2-y,1/4-z
15 -y,1/2-x,1/4+z
16 y,1/2+x,1/4+z
_cell_length_a                   15.179(6)
_cell_length_b                   15.179(6)
_cell_length_c                   13.683(5)
_cell_angle_alpha                90
_cell_angle_beta                 90
_cell_angle_gamma                90
_cell_volume                     3152.59
_exptl_crystal_colour            red
_exptl_crystal_description       prism
_cell_formula_units_Z            4
_chemical_properties_physical    Light-sensitive
_exptl_crystal_recrystallization_method 
'Re-crystallisation from solvent: 1,3-dichlorobenzene'
loop_
_atom_site_label
_atom_site_type_symbol
_atom_site_fract_x
_atom_site_fract_y
_atom_site_fract_z
F1 F 0.72912(12) 0.60018(13) 0.53224(13)
N1 N 0.93103(14) 0.61457(14) 0.74691(18)
C1 C 0.96374(17) 0.69689(17) 0.7667(2)
C2 C 0.89172(18) 0.75901(17) 0.7673(2)
H1 H 0.8957 0.8203 0.7807
C3 C 0.81726(18) 0.71375(17) 0.7453(2)
H2 H 0.7597 0.7376 0.7386
C4 C 0.84210(17) 0.62226(17) 0.7339(2)
C5 C 0.78270(16) 0.55258(16) 0.7207(2)
C6 C 0.68939(17) 0.57699(17) 0.6962(2)
C7 C 0.66744(18) 0.60316(18) 0.6019(2)
C8 C 0.5837(2) 0.6310(2) 0.5762(2)
H3 H 0.5708 0.6490 0.5112
C9 C 0.51890(19) 0.6320(2) 0.6478(2)
H4 H 0.4610 0.6510 0.6320
C10 C 0.53805(19) 0.6055(2) 0.7415(3)
H5 H 0.4933 0.6062 0.7901
C11 C 0.62277(19) 0.5777(2) 0.7654(2)
H6 H 0.6351 0.5588 0.8302
F1J F 1.10018(13) 0.77088(12) 0.96776(13)
N1J N 1.11457(14) 0.56897(14) 0.75309(18)
C1J C 1.19689(17) 0.53626(17) 0.7333(2)
C2J C 1.25901(17) 0.60828(18) 0.7327(2)
H1J H 1.3203 0.6043 0.7193
C3J C 1.21375(17) 0.68274(18) 0.7547(2)
H2J H 1.2376 0.7403 0.7614
C4J C 1.12226(17) 0.65790(17) 0.7661(2)
C5J C 1.05258(16) 0.71730(16) 0.7793(2)
C6J C 1.07699(17) 0.81061(17) 0.8038(2)
C7J C 1.10316(18) 0.83256(18) 0.8981(2)
C8J C 1.1310(2) 0.9163(2) 0.9238(2)
H3J H 1.1490 0.9292 0.9888
C9J C 1.1320(2) 0.98110(19) 0.8522(2)
H4J H 1.1510 1.0390 0.8680
C10J C 1.1055(2) 0.96195(19) 0.7585(3)
H5J H 1.1062 1.0067 0.7099
C11J C 1.0777(2) 0.87723(19) 0.7346(2)
H6J H 1.0588 0.8649 0.6698
F1K F 0.89982(13) 0.22912(12) 0.96776(13)
N1K N 0.88543(14) 0.43103(14) 0.75309(18)
C1K C 0.80311(17) 0.46374(17) 0.7333(2)
C2K C 0.74099(17) 0.39172(18) 0.7327(2)
H1K H 0.6797 0.3957 0.7193
C3K C 0.78625(17) 0.31726(18) 0.7547(2)
H2K H 0.7624 0.2597 0.7614
C4K C 0.87774(17) 0.34210(17) 0.7661(2)
C5K C 0.94742(16) 0.28270(16) 0.7793(2)
C6K C 0.92301(17) 0.18939(17) 0.8038(2)
C7K C 0.89684(18) 0.16744(18) 0.8981(2)
C8K C 0.8690(2) 0.0837(2) 0.9238(2)
H3K H 0.8510 0.0708 0.9888
C9K C 0.8680(2) 0.01890(19) 0.8522(2)
H4K H 0.8490 -0.0390 0.8680
C10K C 0.8945(2) 0.03805(19) 0.7585(3)
H5K H 0.8938 -0.0067 0.7099
C11K C 0.9223(2) 0.12277(19) 0.7346(2)
H6K H 0.9412 0.1351 0.6698
F1A F 1.27088(12) 0.39982(13) 0.53224(13)
N1A N 1.06897(14) 0.38543(14) 0.74691(18)
C1A C 1.03626(17) 0.30311(17) 0.7667(2)
C2A C 1.10828(18) 0.24099(17) 0.7673(2)
H1A H 1.1043 0.1797 0.7807
C3A C 1.18274(18) 0.28625(17) 0.7453(2)
H2A H 1.2403 0.2624 0.7386
C4A C 1.15790(17) 0.37774(17) 0.7339(2)
C5A C 1.21730(16) 0.44742(16) 0.7207(2)
C6A C 1.31061(17) 0.42301(17) 0.6962(2)
C7A C 1.33256(18) 0.39684(18) 0.6019(2)
C8A C 1.4163(2) 0.3690(2) 0.5762(2)
H3A H 1.4292 0.3510 0.5112
C9A C 1.48110(19) 0.3680(2) 0.6478(2)
H4A H 1.5390 0.3490 0.6320
C10A C 1.46195(19) 0.3945(2) 0.7415(3)
H5A H 1.5067 0.3938 0.7901
C11A C 1.37723(19) 0.4223(2) 0.7654(2)
H6A H 1.3649 0.4412 0.8302
H7? H 0.9618 0.5656 0.7432
loop_
_geom_bond_atom_site_label_1
_geom_bond_atom_site_label_2
_geom_bond_site_symmetry_1
_geom_bond_site_symmetry_2
F1 C7 1_555 1_555
N1 C1 1_555 1_555
C1 C2 1_555 1_555
C2 H1 1_555 1_555
C3 C2 1_555 1_555
H2 C3 1_555 1_555
C4 N1 1_555 1_555
C5 C4 1_555 1_555
C6 C5 1_555 1_555
C7 C6 1_555 1_555
C8 C7 1_555 1_555
H3 C8 1_555 1_555
C9 C8 1_555 1_555
H4 C9 1_555 1_555
C10 C9 1_555 1_555
H5 C10 1_555 1_555
C11 C6 1_555 1_555
H6 C11 1_555 1_555
F1J C7J 1_555 1_555
N1J C1J 1_555 1_555
C1J C2J 1_555 1_555
C2J H1J 1_555 1_555
C3J C2J 1_555 1_555
H2J C3J 1_555 1_555
C4J N1J 1_555 1_555
C5J C1 1_555 1_555
C6J C5J 1_555 1_555
C7J C6J 1_555 1_555
C8J C7J 1_555 1_555
H3J C8J 1_555 1_555
C9J C8J 1_555 1_555
H4J C9J 1_555 1_555
C10J C9J 1_555 1_555
H5J C10J 1_555 1_555
C11J C6J 1_555 1_555
H6J C11J 1_555 1_555
F1K C7K 1_555 1_555
N1K C1K 1_555 1_555
C1K C5 1_555 1_555
C2K C1K 1_555 1_555
H1K C2K 1_555 1_555
C3K C2K 1_555 1_555
H2K C3K 1_555 1_555
C4K N1K 1_555 1_555
C5K C4K 1_555 1_555
C6K C5K 1_555 1_555
C7K C6K 1_555 1_555
C8K C7K 1_555 1_555
H3K C8K 1_555 1_555
C9K C8K 1_555 1_555
H4K C9K 1_555 1_555
C10K C9K 1_555 1_555
H5K C10K 1_555 1_555
C11K C6K 1_555 1_555
H6K C11K 1_555 1_555
F1A C7A 1_555 1_555
N1A C1A 1_555 1_555
C1A C5K 1_555 1_555
C2A C1A 1_555 1_555
H1A C2A 1_555 1_555
C3A C2A 1_555 1_555
H2A C3A 1_555 1_555
C4A N1A 1_555 1_555
C5A C1J 1_555 1_555
C6A C5A 1_555 1_555
C7A C6A 1_555 1_555
C8A C7A 1_555 1_555
H3A C8A 1_555 1_555
C9A C8A 1_555 1_555
H4A C9A 1_555 1_555
C10A C9A 1_555 1_555
H5A C10A 1_555 1_555
C11A C6A 1_555 1_555
H6A C11A 1_555 1_555
C3 C4 1_555 1_555
C10 C11 1_555 1_555
C3J C4J 1_555 1_555
C4J C5J 1_555 1_555
C10J C11J 1_555 1_555
C3K C4K 1_555 1_555
C10K C11K 1_555 1_555
C3A C4A 1_555 1_555
C4A C5A 1_555 1_555
C10A C11A 1_555 1_555

#END
