
#######################################################################
#
#                 Cambridge Crystallographic Data Centre
#                                CCDC 
#
#######################################################################
#
# If this CIF has been generated from an entry in the Cambridge 
# Structural Database, then it will include bibliographic, chemical, 
# crystal, experimental, refinement or atomic coordinate data resulting 
# from the CCDC's data processing and validation procedures.
#
#######################################################################

data_DIWGIB
_chemical_formula_moiety         'C34 H46 B2 Ba1 N2 O2 P2'
_chemical_name_systematic        
bis(tetrahydrofuran)-(N,N'-bis((borane)(diphenyl)phosphoranyl)ethane-1,2-diaminato)-barium
_symmetry_cell_setting           triclinic
_symmetry_space_group_name_H-M   'P -1'
_symmetry_Int_Tables_number      2
_space_group_name_Hall           '-P 1'
loop_
_symmetry_equiv_pos_site_id
_symmetry_equiv_pos_as_xyz
1 x,y,z
2 -x,-y,-z
_cell_length_a                   9.2659(9)
_cell_length_b                   14.0750(13)
_cell_length_c                   14.9320(15)
_cell_angle_alpha                111.894(9)
_cell_angle_beta                 91.583(8)
_cell_angle_gamma                101.013(8)
_cell_volume                     1763.18
_exptl_crystal_colour            colorless
_exptl_crystal_description       block
_cell_formula_units_Z            2
_chemical_properties_physical    'air- and moisture-sensitive'
loop_
_atom_site_label
_atom_site_type_symbol
_atom_site_fract_x
_atom_site_fract_y
_atom_site_fract_z
Ba1 Ba 0.60539(4) 0.41368(3) 0.09508(3)
P1 P 0.52801(17) 0.65478(11) 0.26516(11)
P2 P 0.71452(19) 0.26206(12) 0.21855(12)
O1 O 0.8664(5) 0.5441(4) 0.0984(3)
O2 O 0.3393(5) 0.2732(4) 0.0567(3)
N1 N 0.5772(5) 0.5538(4) 0.2693(3)
N2 N 0.6631(6) 0.3707(4) 0.2487(4)
C1 C 0.6282(7) 0.5426(5) 0.3580(4)
H1 H 0.5739 0.5773 0.4108
H2 H 0.7325 0.5751 0.3763
C2 C 0.6031(7) 0.4258(5) 0.3397(4)
H3 H 0.6521 0.4169 0.3934
H4 H 0.4982 0.3966 0.3347
C3 C 0.3885(7) 0.6954(5) 0.3480(4)
C4 C 0.3822(7) 0.8008(5) 0.3987(4)
H5 H 0.4532 0.8536 0.3923
C5 C 0.2724(8) 0.8270(5) 0.4576(5)
H6 H 0.2698 0.8971 0.4909
C6 C 0.1655(7) 0.7486(6) 0.4672(5)
H7 H 0.0917 0.7658 0.5074
C7 C 0.1699(7) 0.6454(5) 0.4167(5)
H8 H 0.0972 0.5929 0.4222
C8 C 0.2798(7) 0.6180(5) 0.3579(5)
H9 H 0.2812 0.5476 0.3250
C9 C 0.6715(7) 0.7758(5) 0.3052(4)
C10 C 0.7970(8) 0.7907(5) 0.3641(5)
H10 H 0.8096 0.7389 0.3863
C11 C 0.9051(8) 0.8819(5) 0.3909(5)
H11 H 0.9906 0.8896 0.4294
C12 C 0.8882(8) 0.9614(5) 0.3617(5)
H12 H 0.9618 1.0222 0.3798
C13 C 0.7594(8) 0.9496(5) 0.3047(5)
H13 H 0.7450 1.0032 0.2857
C14 C 0.6531(7) 0.8574(5) 0.2767(5)
H14 H 0.5675 0.8493 0.2381
C15 C 0.5830(7) 0.1605(5) 0.2403(5)
C16 C 0.5429(7) 0.1754(5) 0.3336(5)
H15 H 0.5887 0.2358 0.3861
C17 C 0.4346(7) 0.1001(5) 0.3486(5)
H16 H 0.4087 0.1109 0.4108
C18 C 0.3664(8) 0.0101(5) 0.2713(6)
H17 H 0.2940 -0.0395 0.2814
C19 C 0.4056(8) -0.0064(6) 0.1789(6)
H18 H 0.3602 -0.0674 0.1268
C20 C 0.5128(8) 0.0680(5) 0.1638(5)
H19 H 0.5384 0.0560 0.1013
C21 C 0.8830(7) 0.2709(5) 0.2900(4)
C22 C 0.9450(7) 0.1842(5) 0.2741(5)
H20 H 0.8936 0.1185 0.2312
C23 C 1.0814(7) 0.1932(5) 0.3206(5)
H21 H 1.1213 0.1343 0.3080
C24 C 1.1582(7) 0.2901(6) 0.3859(5)
H22 H 1.2497 0.2963 0.4173
C25 C 1.0990(7) 0.3772(5) 0.4043(5)
H23 H 1.1499 0.4421 0.4488
C26 C 0.9620(7) 0.3683(5) 0.3560(5)
H24 H 0.9234 0.4277 0.3680
C27 C 0.9660(8) 0.5776(6) 0.1866(5)
H25 H 1.0205 0.5242 0.1832
H26 H 0.9110 0.5905 0.2427
C28 C 1.0711(8) 0.6781(6) 0.1936(6)
H27 H 1.0898 0.7289 0.2601
H28 H 1.1645 0.6639 0.1703
C29 C 0.9928(8) 0.7175(6) 0.1305(5)
H29 H 1.0624 0.7580 0.1039
H30 H 0.9265 0.7602 0.1659
C30 C 0.9078(8) 0.6168(6) 0.0514(5)
H31 H 0.8207 0.6286 0.0232
H32 H 0.9693 0.5898 0.0003
C31 C 0.2451(10) 0.2524(7) 0.1255(6)
H33 H 0.1754 0.2981 0.1409
H34 H 0.3037 0.2642 0.1850
C32 C 0.1648(10) 0.1403(8) 0.0787(7)
H35 H 0.2118 0.0966 0.1020
H36 H 0.0628 0.1326 0.0933
C33 C 0.1714(10) 0.1107(7) -0.0245(7)
H37 H 0.0845 0.1204 -0.0547
H38 H 0.1786 0.0379 -0.0552
C34 C 0.3085(9) 0.1827(6) -0.0324(5)
H39 H 0.3909 0.1478 -0.0426
H40 H 0.2928 0.2030 -0.0866
B1 B 0.4583(8) 0.6216(6) 0.1312(5)
H41 H 0.418(6) 0.695(4) 0.134(4)
H42 H 0.372(6) 0.550(4) 0.109(4)
H43 H 0.551(8) 0.611(5) 0.090(5)
B2 B 0.7532(10) 0.2182(6) 0.0834(6)
H44 H 0.834(6) 0.286(4) 0.083(4)
H45 H 0.646(7) 0.201(5) 0.039(4)
H46 H 0.792(6) 0.144(5) 0.066(4)
loop_
_geom_bond_atom_site_label_1
_geom_bond_atom_site_label_2
_geom_bond_site_symmetry_1
_geom_bond_site_symmetry_2
Ba1 O1 1_555 1_555
P1 N1 1_555 1_555
P2 N2 1_555 1_555
O1 C27 1_555 1_555
O2 Ba1 1_555 1_555
N1 Ba1 1_555 1_555
N2 Ba1 1_555 1_555
C1 N1 1_555 1_555
H1 C1 1_555 1_555
H2 C1 1_555 1_555
C2 N2 1_555 1_555
H3 C2 1_555 1_555
H4 C2 1_555 1_555
C3 P1 1_555 1_555
C4 C3 1_555 1_555
H5 C4 1_555 1_555
C5 C4 1_555 1_555
H6 C5 1_555 1_555
C6 C5 1_555 1_555
H7 C6 1_555 1_555
C7 C6 1_555 1_555
H8 C7 1_555 1_555
C8 C3 1_555 1_555
H9 C8 1_555 1_555
C9 P1 1_555 1_555
C10 C9 1_555 1_555
H10 C10 1_555 1_555
C11 C10 1_555 1_555
H11 C11 1_555 1_555
C12 C11 1_555 1_555
H12 C12 1_555 1_555
C13 C12 1_555 1_555
H13 C13 1_555 1_555
C14 C9 1_555 1_555
H14 C14 1_555 1_555
C15 P2 1_555 1_555
C16 C15 1_555 1_555
H15 C16 1_555 1_555
C17 C16 1_555 1_555
H16 C17 1_555 1_555
C18 C17 1_555 1_555
H17 C18 1_555 1_555
C19 C18 1_555 1_555
H18 C19 1_555 1_555
C20 C15 1_555 1_555
H19 C20 1_555 1_555
C21 P2 1_555 1_555
C22 C21 1_555 1_555
H20 C22 1_555 1_555
C23 C22 1_555 1_555
H21 C23 1_555 1_555
C24 C23 1_555 1_555
H22 C24 1_555 1_555
C25 C24 1_555 1_555
H23 C25 1_555 1_555
C26 C21 1_555 1_555
H24 C26 1_555 1_555
C27 H25 1_555 1_555
H26 C27 1_555 1_555
C28 C27 1_555 1_555
H27 C28 1_555 1_555
H28 C28 1_555 1_555
C29 C28 1_555 1_555
H29 C29 1_555 1_555
H30 C29 1_555 1_555
C30 O1 1_555 1_555
H31 C30 1_555 1_555
H32 C30 1_555 1_555
C31 O2 1_555 1_555
H33 C31 1_555 1_555
H34 C31 1_555 1_555
C32 C31 1_555 1_555
H35 C32 1_555 1_555
H36 C32 1_555 1_555
C33 C32 1_555 1_555
H37 C33 1_555 1_555
H38 C33 1_555 1_555
C34 O2 1_555 1_555
H39 C34 1_555 1_555
H40 C34 1_555 1_555
B1 P1 1_555 1_555
H41 B1 1_555 1_555
H42 B1 1_555 1_555
H43 B1 1_555 1_555
B2 P2 1_555 1_555
H44 B2 1_555 1_555
H45 B2 1_555 1_555
H46 B2 1_555 1_555
C1 C2 1_555 1_555
C7 C8 1_555 1_555
C13 C14 1_555 1_555
C19 C20 1_555 1_555
C25 C26 1_555 1_555
C29 C30 1_555 1_555
C33 C34 1_555 1_555

#END
