
#######################################################################
#
#                 Cambridge Crystallographic Data Centre
#                                CCDC 
#
#######################################################################
#
# If this CIF has been generated from an entry in the Cambridge 
# Structural Database, then it will include bibliographic, chemical, 
# crystal, experimental, refinement or atomic coordinate data resulting 
# from the CCDC's data processing and validation procedures.
#
#######################################################################

data_DIWGAU
_chemical_formula_moiety         'C44 H22 F4 N4'
_chemical_name_systematic        5,10,15,20-tetrakis(2-fluorophenyl)porphyrin
_symmetry_cell_setting           monoclinic
_symmetry_space_group_name_H-M   'P 21/c'
_symmetry_Int_Tables_number      14
_space_group_name_Hall           '-P 2ybc'
loop_
_symmetry_equiv_pos_site_id
_symmetry_equiv_pos_as_xyz
1 x,y,z
2 -x,1/2+y,1/2-z
3 -x,-y,-z
4 x,1/2-y,1/2+z
_cell_length_a                   12.4235(16)
_cell_length_b                   11.4662(15)
_cell_length_c                   11.7633(15)
_cell_angle_alpha                90
_cell_angle_beta                 98.8321(14)
_cell_angle_gamma                90
_cell_volume                     1655.82
_exptl_crystal_colour            purple
_exptl_crystal_description       irregular
_cell_formula_units_Z            2
_chemical_properties_physical    Light-sensitive
_exptl_crystal_recrystallization_method chloroform
loop_
_atom_site_label
_atom_site_type_symbol
_atom_site_fract_x
_atom_site_fract_y
_atom_site_fract_z
F1 F 0.37729(10) 0.41903(11) 0.80922(11)
F2 F -0.16603(16) 0.18466(16) 0.79580(16)
N1 N 0.05641(11) 0.40478(12) 0.64884(12)
H1 H 0.0320(16) 0.4448(17) 0.5854(18)
N2 N -0.14291(11) 0.52975(11) 0.56051(11)
C1 C 0.15667(13) 0.35151(14) 0.67031(14)
C2 C 0.15919(14) 0.28838(14) 0.77561(14)
H2 H 0.2178 0.2415 0.8114
C3 C 0.06423(14) 0.30656(15) 0.81570(14)
H3 H 0.0452 0.2760 0.8850
C4 C -0.00258(14) 0.37989(14) 0.73547(14)
C5 C -0.10844(13) 0.41736(14) 0.74154(14)
C6 C -0.17516(13) 0.48307(14) 0.65761(13)
C7 C -0.28966(13) 0.50510(14) 0.65911(14)
H4 H -0.3306 0.4819 0.7172
C8 C -0.32720(14) 0.56486(14) 0.56243(14)
H5 H -0.3997 0.5911 0.5386
C9 C -0.23465(13) 0.58120(14) 0.50189(14)
C10 C 0.24013(13) 0.35932(14) 0.60364(14)
C11 C 0.34401(13) 0.29761(14) 0.64889(14)
C12 C 0.40857(14) 0.32946(15) 0.75134(15)
C13 C 0.50350(14) 0.27232(16) 0.79591(16)
H6 H 0.5459 0.2978 0.8656
C14 C 0.53585(15) 0.17711(17) 0.73710(16)
H7 H 0.6001 0.1356 0.7671
C15 C 0.47412(15) 0.14254(16) 0.63429(16)
H8 H 0.4966 0.0776 0.5935
C16 C 0.37992(15) 0.20216(15) 0.59079(16)
C17 C -0.15565(13) 0.38170(15) 0.84649(14)
C18 C -0.18392(14) 0.26677(15) 0.86545(15)
C19 C -0.23068(14) 0.23465(17) 0.96009(16)
H9 H -0.2510 0.1559 0.9699
C20 C -0.24756(15) 0.31809(18) 1.04035(16)
H10 H -0.2797 0.2967 1.1056
C21 C -0.21787(17) 0.43233(18) 1.02582(16)
H11 H -0.2284 0.4896 1.0815
C22 C -0.17249(16) 0.46323(16) 0.92942(15)
F1B F -0.37729(10) 0.58097(11) 0.19078(11)
F2B F 0.16603(16) 0.81534(16) 0.20420(16)
N1B N -0.05641(11) 0.59522(12) 0.35116(12)
H1B H -0.0320(16) 0.5552(17) 0.4146(18)
N2B N 0.14291(11) 0.47025(11) 0.43949(11)
C1B C -0.15667(13) 0.64849(14) 0.32969(14)
C2B C -0.15919(14) 0.71162(14) 0.22439(14)
H2B H -0.2178 0.7585 0.1886
C3B C -0.06423(14) 0.69344(15) 0.18430(14)
H3B H -0.0452 0.7240 0.1150
C4B C 0.00258(14) 0.62011(14) 0.26453(14)
C5B C 0.10844(13) 0.58264(14) 0.25846(14)
C6B C 0.17516(13) 0.51693(14) 0.34239(13)
C7B C 0.28966(13) 0.49490(14) 0.34089(14)
H4B H 0.3306 0.5181 0.2828
C8B C 0.32720(14) 0.43514(14) 0.43757(14)
H5B H 0.3997 0.4089 0.4614
C9B C 0.23465(13) 0.41880(14) 0.49811(14)
C10B C -0.24013(13) 0.64068(14) 0.39636(14)
C11B C -0.34401(13) 0.70239(14) 0.35111(14)
C12B C -0.40857(14) 0.67054(15) 0.24866(15)
C13B C -0.50350(14) 0.72768(16) 0.20409(16)
H6B H -0.5459 0.7022 0.1344
C14B C -0.53585(15) 0.82289(17) 0.26290(16)
H7B H -0.6001 0.8644 0.2329
C15B C -0.47412(15) 0.85746(16) 0.36571(16)
H8B H -0.4966 0.9224 0.4065
C16B C -0.37992(15) 0.79784(15) 0.40921(16)
C17B C 0.15565(13) 0.61830(15) 0.15351(14)
C18B C 0.18392(14) 0.73323(15) 0.13455(15)
C19B C 0.23068(14) 0.76535(17) 0.03991(16)
H9B H 0.2510 0.8441 0.0301
C20B C 0.24756(15) 0.68191(18) -0.04035(16)
H10B H 0.2797 0.7033 -0.1056
C21B C 0.21787(17) 0.56767(18) -0.02582(16)
H11B H 0.2284 0.5104 -0.0815
C22B C 0.17249(16) 0.53677(16) 0.07058(15)
F3? F 0.3319(3) 0.1759(3) 0.5022(4)
F4? F -0.1412(2) 0.57018(18) 0.91817(19)
loop_
_geom_bond_atom_site_label_1
_geom_bond_atom_site_label_2
_geom_bond_site_symmetry_1
_geom_bond_site_symmetry_2
F1 C12 1_555 1_555
F2 C18 1_555 1_555
N1 H1 1_555 1_555
N2 C6 1_555 1_555
C1 N1 1_555 1_555
C2 C1 1_555 1_555
H2 C2 1_555 1_555
C3 C2 1_555 1_555
H3 C3 1_555 1_555
C4 N1 1_555 1_555
C5 C4 1_555 1_555
C6 C5 1_555 1_555
C7 C6 1_555 1_555
H4 C7 1_555 1_555
C8 C7 1_555 1_555
H5 C8 1_555 1_555
C9 N2 1_555 1_555
C10 C1 1_555 1_555
C11 C10 1_555 1_555
C12 C11 1_555 1_555
C13 C12 1_555 1_555
H6 C13 1_555 1_555
C14 C13 1_555 1_555
H7 C14 1_555 1_555
C15 C14 1_555 1_555
H8 C15 1_555 1_555
C16 C11 1_555 1_555
C17 C5 1_555 1_555
C18 C17 1_555 1_555
C19 C18 1_555 1_555
H9 C19 1_555 1_555
C20 C19 1_555 1_555
H10 C20 1_555 1_555
C21 C20 1_555 1_555
H11 C21 1_555 1_555
C22 C17 1_555 1_555
F1B C12B 1_555 1_555
F2B C18B 1_555 1_555
N1B H1B 1_555 1_555
N2B C6B 1_555 1_555
C1B N1B 1_555 1_555
C2B C1B 1_555 1_555
H2B C2B 1_555 1_555
C3B C2B 1_555 1_555
H3B C3B 1_555 1_555
C4B N1B 1_555 1_555
C5B C4B 1_555 1_555
C6B C5B 1_555 1_555
C7B C6B 1_555 1_555
H4B C7B 1_555 1_555
C8B C7B 1_555 1_555
H5B C8B 1_555 1_555
C9B C10 1_555 1_555
C10B C9 1_555 1_555
C11B C10B 1_555 1_555
C12B C11B 1_555 1_555
C13B C12B 1_555 1_555
H6B C13B 1_555 1_555
C14B C13B 1_555 1_555
H7B C14B 1_555 1_555
C15B C14B 1_555 1_555
H8B C15B 1_555 1_555
C16B C11B 1_555 1_555
C17B C5B 1_555 1_555
C18B C17B 1_555 1_555
C19B C18B 1_555 1_555
H9B C19B 1_555 1_555
C20B C19B 1_555 1_555
H10B C20B 1_555 1_555
C21B C20B 1_555 1_555
H11B C21B 1_555 1_555
C22B C17B 1_555 1_555
C3 C4 1_555 1_555
C8 C9 1_555 1_555
C15 C16 1_555 1_555
C21 C22 1_555 1_555
N2B C9B 1_555 1_555
C1B C10B 1_555 1_555
C3B C4B 1_555 1_555
C8B C9B 1_555 1_555
C15B C16B 1_555 1_555
C21B C22B 1_555 1_555

#END
