
#######################################################################
#
#                 Cambridge Crystallographic Data Centre
#                                CCDC 
#
#######################################################################
#
# If this CIF has been generated from an entry in the Cambridge 
# Structural Database, then it will include bibliographic, chemical, 
# crystal, experimental, refinement or atomic coordinate data resulting 
# from the CCDC's data processing and validation procedures.
#
#######################################################################

data_DIWGUO
_chemical_formula_moiety         'C44 H28 F4 N4'
_chemical_name_systematic        5,10,15,20-tetrakis(3-fluorophenyl)porphyrin
_symmetry_cell_setting           tetragonal
_symmetry_space_group_name_H-M   'I -4 2 d'
_symmetry_Int_Tables_number      122
_space_group_name_Hall           'I -4 2bw'
loop_
_symmetry_equiv_pos_site_id
_symmetry_equiv_pos_as_xyz
1 x,y,z
2 -x,-y,z
3 y,-x,-z
4 -y,x,-z
5 1/2-x,y,3/4-z
6 1/2+x,-y,3/4-z
7 1/2-y,-x,3/4+z
8 1/2+y,x,3/4+z
9 1/2+x,1/2+y,1/2+z
10 1/2-x,1/2-y,1/2+z
11 1/2+y,1/2-x,1/2-z
12 1/2-y,1/2+x,1/2-z
13 -x,1/2+y,1/4-z
14 x,1/2-y,1/4-z
15 -y,1/2-x,1/4+z
16 y,1/2+x,1/4+z
_cell_length_a                   15.293(3)
_cell_length_b                   15.293(3)
_cell_length_c                   13.680(3)
_cell_angle_alpha                90
_cell_angle_beta                 90
_cell_angle_gamma                90
_cell_volume                     3199.42
_exptl_crystal_colour            'dark red'
_exptl_crystal_description       hexagon
_cell_formula_units_Z            4
_chemical_properties_physical    Light-sensitive
_exptl_crystal_recrystallization_method 
'Re-crystallisation from solvent: Acetophenone'
loop_
_atom_site_label
_atom_site_type_symbol
_atom_site_fract_x
_atom_site_fract_y
_atom_site_fract_z
F1 F 0.6693(2) 0.07827(19) 0.7427(2)
N1 N 0.43270(13) 0.38500(14) 1.00294(19)
C1 C 0.34401(16) 0.37630(18) 1.0135(2)
C2 C 0.32106(17) 0.28593(18) 1.0008(3)
H1 H 0.2640 0.2618 1.0054
C3 C 0.39531(19) 0.24153(18) 0.9812(2)
H2 H 0.3999 0.1807 0.9681
C4 C 0.46630(18) 0.30325(19) 0.9837(2)
C5 C 0.55525(18) 0.28406(17) 0.9738(2)
C6 C 0.58097(17) 0.19234(18) 0.9461(2)
C7 C 0.6111(2) 0.17703(18) 0.8528(3)
H3 H 0.6145 0.2235 0.8068
C8 C 0.6366(2) 0.0929(2) 0.8265(3)
C9 C 0.6326(2) 0.02489(19) 0.8910(3)
H4 H 0.6499 -0.0322 0.8718
C10 C 0.6031(2) 0.04060(19) 0.9839(3)
C11 C 0.5763(2) 0.12382(19) 1.0123(3)
H5 H 0.5549 0.1336 1.0766
F1B F 0.07827(19) 0.3307(2) 1.2573(2)
N1B N 0.38500(14) 0.56730(13) 0.99706(19)
C1B C 0.37630(18) 0.65599(16) 0.9865(2)
C2B C 0.28593(18) 0.67894(17) 0.9992(3)
H1B H 0.2618 0.7360 0.9946
C3B C 0.24153(18) 0.60469(19) 1.0188(2)
H2B H 0.1807 0.6001 1.0319
C4B C 0.30325(19) 0.53370(18) 1.0163(2)
C5B C 0.28406(17) 0.44475(18) 1.0262(2)
C6B C 0.19234(18) 0.41903(17) 1.0539(2)
C7B C 0.17703(18) 0.3889(2) 1.1472(3)
H3B H 0.2235 0.3855 1.1932
C8B C 0.0929(2) 0.3634(2) 1.1735(3)
C9B C 0.02489(19) 0.3674(2) 1.1090(3)
H4B H -0.0322 0.3501 1.1282
C10B C 0.04060(19) 0.3969(2) 1.0161(3)
C11B C 0.12382(19) 0.4237(2) 0.9877(3)
H5B H 0.1336 0.4451 0.9234
F1C F 0.92173(19) 0.6693(2) 1.2573(2)
N1C N 0.61500(14) 0.43270(13) 0.99706(19)
C1C C 0.62370(18) 0.34401(16) 0.9865(2)
C2C C 0.71407(18) 0.32106(17) 0.9992(3)
H1C H 0.7382 0.2640 0.9946
C3C C 0.75847(18) 0.39531(19) 1.0188(2)
H2C H 0.8193 0.3999 1.0319
C4C C 0.69675(19) 0.46630(18) 1.0163(2)
C5C C 0.71594(17) 0.55525(18) 1.0262(2)
C6C C 0.80766(18) 0.58097(17) 1.0539(2)
C7C C 0.82297(18) 0.6111(2) 1.1472(3)
H3C H 0.7765 0.6145 1.1932
C8C C 0.9071(2) 0.6366(2) 1.1735(3)
C9C C 0.97511(19) 0.6326(2) 1.1090(3)
H4C H 1.0322 0.6499 1.1282
C10C C 0.95940(19) 0.6031(2) 1.0161(3)
C11C C 0.87618(19) 0.5763(2) 0.9877(3)
H5C H 0.8664 0.5549 0.9234
F1A F 0.3307(2) 0.92173(19) 0.7427(2)
N1A N 0.56730(13) 0.61500(14) 1.00294(19)
C1A C 0.65599(16) 0.62370(18) 1.0135(2)
C2A C 0.67894(17) 0.71407(18) 1.0008(3)
H1A H 0.7360 0.7382 1.0054
C3A C 0.60469(19) 0.75847(18) 0.9812(2)
H2A H 0.6001 0.8193 0.9681
C4A C 0.53370(18) 0.69675(19) 0.9837(2)
C5A C 0.44475(18) 0.71594(17) 0.9738(2)
C6A C 0.41903(17) 0.80766(18) 0.9461(2)
C7A C 0.3889(2) 0.82297(18) 0.8528(3)
H3A H 0.3855 0.7765 0.8068
C8A C 0.3634(2) 0.9071(2) 0.8265(3)
C9A C 0.3674(2) 0.97511(19) 0.8910(3)
H4A H 0.3501 1.0322 0.8718
C10A C 0.3969(2) 0.95940(19) 0.9839(3)
C11A C 0.4237(2) 0.87618(19) 1.0123(3)
H5A H 0.4451 0.8664 1.0766
F2? F 0.6093(4) -0.0233(3) 1.0371(3)
H6? H 0.4627 0.4339 1.0076
loop_
_geom_bond_atom_site_label_1
_geom_bond_atom_site_label_2
_geom_bond_site_symmetry_1
_geom_bond_site_symmetry_2
F1 C8 1_555 1_555
N1 C1 1_555 1_555
C1 C2 1_555 1_555
C2 H1 1_555 1_555
C3 C2 1_555 1_555
H2 C3 1_555 1_555
C4 N1 1_555 1_555
C5 C4 1_555 1_555
C6 C5 1_555 1_555
C7 C6 1_555 1_555
H3 C7 1_555 1_555
C8 C7 1_555 1_555
C9 C8 1_555 1_555
H4 C9 1_555 1_555
C10 C9 1_555 1_555
C11 C6 1_555 1_555
H5 C11 1_555 1_555
F1B C8B 1_555 1_555
N1B C1B 1_555 1_555
C1B C2B 1_555 1_555
C2B H1B 1_555 1_555
C3B C2B 1_555 1_555
H2B C3B 1_555 1_555
C4B N1B 1_555 1_555
C5B C1 1_555 1_555
C6B C5B 1_555 1_555
C7B C6B 1_555 1_555
H3B C7B 1_555 1_555
C8B C7B 1_555 1_555
C9B C8B 1_555 1_555
H4B C9B 1_555 1_555
C10B C9B 1_555 1_555
C11B C6B 1_555 1_555
H5B C11B 1_555 1_555
F1C C8C 1_555 1_555
N1C C1C 1_555 1_555
C1C C5 1_555 1_555
C2C C1C 1_555 1_555
H1C C2C 1_555 1_555
C3C C2C 1_555 1_555
H2C C3C 1_555 1_555
C4C N1C 1_555 1_555
C5C C4C 1_555 1_555
C6C C5C 1_555 1_555
C7C C6C 1_555 1_555
H3C C7C 1_555 1_555
C8C C7C 1_555 1_555
C9C C8C 1_555 1_555
H4C C9C 1_555 1_555
C10C C9C 1_555 1_555
C11C C6C 1_555 1_555
H5C C11C 1_555 1_555
F1A C8A 1_555 1_555
N1A C1A 1_555 1_555
C1A C5C 1_555 1_555
C2A C1A 1_555 1_555
H1A C2A 1_555 1_555
C3A C2A 1_555 1_555
H2A C3A 1_555 1_555
C4A N1A 1_555 1_555
C5A C1B 1_555 1_555
C6A C5A 1_555 1_555
C7A C6A 1_555 1_555
H3A C7A 1_555 1_555
C8A C7A 1_555 1_555
C9A C8A 1_555 1_555
H4A C9A 1_555 1_555
C10A C9A 1_555 1_555
C11A C6A 1_555 1_555
H5A C11A 1_555 1_555
C3 C4 1_555 1_555
C10 C11 1_555 1_555
C3B C4B 1_555 1_555
C4B C5B 1_555 1_555
C10B C11B 1_555 1_555
C3C C4C 1_555 1_555
C10C C11C 1_555 1_555
C3A C4A 1_555 1_555
C4A C5A 1_555 1_555
C10A C11A 1_555 1_555

#END
