
#######################################################################
#
#                 Cambridge Crystallographic Data Centre
#                                CCDC 
#
#######################################################################
#
# If this CIF has been generated from an entry in the Cambridge 
# Structural Database, then it will include bibliographic, chemical, 
# crystal, experimental, refinement or atomic coordinate data resulting 
# from the CCDC's data processing and validation procedures.
#
#######################################################################

data_DIWGEX
_chemical_formula_moiety         'C26 H32 B2 N2 P2'
_chemical_name_systematic        
N,N'-bis((borane)(diphenyl)phosphoranyl)ethane-1,2-diamine
_symmetry_cell_setting           monoclinic
_symmetry_space_group_name_H-M   'C c'
_symmetry_Int_Tables_number      9
_space_group_name_Hall           'C -2yc'
loop_
_symmetry_equiv_pos_site_id
_symmetry_equiv_pos_as_xyz
1 x,y,z
2 x,-y,1/2+z
3 1/2+x,1/2+y,z
4 1/2+x,1/2-y,1/2+z
_cell_length_a                   12.7050(6)
_cell_length_b                   13.7069(7)
_cell_length_c                   14.7809(7)
_cell_angle_alpha                90
_cell_angle_beta                 91.387(4)
_cell_angle_gamma                90
_cell_volume                     2573.28
_exptl_crystal_colour            colorless
_exptl_crystal_description       plate
_cell_formula_units_Z            4
_chemical_properties_physical    'air- and moisture-sensitive'
loop_
_atom_site_label
_atom_site_type_symbol
_atom_site_fract_x
_atom_site_fract_y
_atom_site_fract_z
P1 P 0.13360(6) 0.98108(7) 0.25365(6)
P2 P 0.47231(7) 0.90487(7) 0.56314(6)
N1 N 0.3923(3) 0.9830(2) 0.5088(2)
H1 H 0.3854 1.0412 0.5296
N2 N 0.2495(2) 1.0236(3) 0.2898(2)
H2 H 0.2944 1.0349 0.2484
C1 C 0.0402(3) 1.0808(3) 0.2535(3)
C2 C 0.0538(4) 0.9256(3) 0.4213(3)
H3 H 0.0468 0.9917 0.4338
C3 C -0.0657(4) 1.0613(4) 0.2367(4)
H4 H -0.0889 0.9970 0.2332
C4 C 0.5841(3) 0.8881(3) 0.4917(3)
C5 C 0.4071(3) 0.7871(3) 0.5643(3)
C6 C 0.0872(3) 0.8956(3) 0.3377(3)
C7 C 0.6041(3) 0.9471(3) 0.4180(3)
H5 H 0.5553 0.9944 0.4006
C8 C 0.3527(4) 0.6381(4) 0.4926(4)
H6 H 0.3562 0.5953 0.4439
C9 C 0.2850(3) 1.0440(3) 0.3809(3)
H7 H 0.2260 1.0663 0.4157
H8 H 0.3367 1.0960 0.3801
C10 C 0.3337(3) 0.9546(3) 0.4265(3)
H9 H 0.2786 0.9089 0.4417
H10 H 0.3807 0.9225 0.3852
C11 C 0.6570(3) 0.8164(3) 0.5155(3)
H11 H 0.6444 0.7754 0.5642
C12 C 0.3449(5) 0.7634(4) 0.6377(4)
H12 H 0.3418 0.8050 0.6872
B1 B 0.5166(5) 0.9584(5) 0.6779(4)
H13 H 0.5514 1.0197 0.6685
H14 H 0.5643 0.9140 0.7079
H15 H 0.4563 0.9685 0.7146
C13 C 0.0733(4) 1.1762(3) 0.2604(3)
H16 H 0.1438 1.1901 0.2725
C14 C 0.2903(4) 0.6148(4) 0.5645(4)
H17 H 0.2508 0.5576 0.5641
C15 C 0.4102(4) 0.7235(3) 0.4913(3)
H18 H 0.4509 0.7385 0.4417
C16 C 0.0309(4) 0.8575(5) 0.4864(3)
H19 H 0.0074 0.8782 0.5423
C17 C 0.2877(5) 0.6769(4) 0.6361(4)
H20 H 0.2466 0.6611 0.6852
C18 C -0.1034(5) 1.2317(5) 0.2323(4)
H21 H -0.1518 1.2823 0.2258
C19 C 0.7665(4) 0.8655(4) 0.3943(4)
H22 H 0.8274 0.8576 0.3615
C20 C 0.7478(4) 0.8057(4) 0.4672(4)
H23 H 0.7966 0.7580 0.4838
C21 C 0.0006(5) 1.2521(4) 0.2491(4)
H24 H 0.0231 1.3166 0.2531
C22 C 0.6951(4) 0.9369(4) 0.3701(3)
H25 H 0.7082 0.9781 0.3216
C23 C 0.0951(5) 0.7974(3) 0.3200(4)
H26 H 0.1166 0.7761 0.2637
C24 C -0.1366(4) 1.1362(5) 0.2251(4)
H27 H -0.2071 1.1224 0.2123
B2 B 0.1531(4) 0.9314(4) 0.1355(3)
H28 H 0.1798 0.9822 0.0976
H29 H 0.0870 0.9086 0.1109
H30 H 0.2024 0.8784 0.1382
C25 C 0.0708(7) 0.7303(4) 0.3864(6)
H31 H 0.0742 0.6639 0.3741
C26 C 0.0418(5) 0.7618(5) 0.4705(4)
H32 H 0.0299 0.7168 0.5162
loop_
_geom_bond_atom_site_label_1
_geom_bond_atom_site_label_2
_geom_bond_site_symmetry_1
_geom_bond_site_symmetry_2
P1 N2 1_555 1_555
P2 N1 1_555 1_555
N1 H1 1_555 1_555
N2 H2 1_555 1_555
C1 P1 1_555 1_555
C2 H3 1_555 1_555
C3 C1 1_555 1_555
H4 C3 1_555 1_555
C4 P2 1_555 1_555
C5 P2 1_555 1_555
C6 P1 1_555 1_555
C7 C4 1_555 1_555
H5 C7 1_555 1_555
C8 H6 1_555 1_555
C9 N2 1_555 1_555
H7 C9 1_555 1_555
H8 C9 1_555 1_555
C10 N1 1_555 1_555
H9 C10 1_555 1_555
H10 C10 1_555 1_555
C11 C4 1_555 1_555
H11 C11 1_555 1_555
C12 C5 1_555 1_555
H12 C12 1_555 1_555
B1 P2 1_555 1_555
H13 B1 1_555 1_555
H14 B1 1_555 1_555
H15 B1 1_555 1_555
C13 C1 1_555 1_555
H16 C13 1_555 1_555
C14 C8 1_555 1_555
H17 C14 1_555 1_555
C15 C5 1_555 1_555
H18 C15 1_555 1_555
C16 C2 1_555 1_555
H19 C16 1_555 1_555
C17 C12 1_555 1_555
H20 C17 1_555 1_555
C18 H21 1_555 1_555
C19 H22 1_555 1_555
C20 C11 1_555 1_555
H23 C20 1_555 1_555
C21 C13 1_555 1_555
H24 C21 1_555 1_555
C22 C7 1_555 1_555
H25 C22 1_555 1_555
C23 C6 1_555 1_555
H26 C23 1_555 1_555
C24 C3 1_555 1_555
H27 C24 1_555 1_555
B2 P1 1_555 1_555
H28 B2 1_555 1_555
H29 B2 1_555 1_555
H30 B2 1_555 1_555
C25 C23 1_555 1_555
H31 C25 1_555 1_555
C26 C16 1_555 1_555
H32 C26 1_555 1_555
C2 C6 1_555 1_555
C8 C15 1_555 1_555
C9 C10 1_555 1_555
C14 C17 1_555 1_555
C18 C21 1_555 1_555
C18 C24 1_555 1_555
C19 C20 1_555 1_555
C19 C22 1_555 1_555
C25 C26 1_555 1_555

#END
