
#######################################################################
#
#                 Cambridge Crystallographic Data Centre
#                                CCDC 
#
#######################################################################
#
# If this CIF has been generated from an entry in the Cambridge 
# Structural Database, then it will include bibliographic, chemical, 
# crystal, experimental, refinement or atomic coordinate data resulting 
# from the CCDC's data processing and validation procedures.
#
#######################################################################

data_DIWHAU
_chemical_formula_moiety         'C12 H15 I1 N2 O2 S1'
_chemical_name_systematic        
N-(ethyl(2-hydroxyethyl)carbamothioyl)-2-iodobenzamide
_symmetry_cell_setting           orthorhombic
_symmetry_space_group_name_H-M   'P n a 21'
_symmetry_Int_Tables_number      33
_space_group_name_Hall           'P 2c -2n'
loop_
_symmetry_equiv_pos_site_id
_symmetry_equiv_pos_as_xyz
1 x,y,z
2 -x,-y,1/2+z
3 1/2-x,1/2+y,1/2+z
4 1/2+x,1/2-y,z
_cell_length_a                   6.9108(4)
_cell_length_b                   18.5587(10)
_cell_length_c                   11.2975(5)
_cell_angle_alpha                90
_cell_angle_beta                 90
_cell_angle_gamma                90
_cell_volume                     1448.97
_exptl_crystal_colour            colorless
_exptl_crystal_description       block
_cell_formula_units_Z            4
loop_
_atom_site_label
_atom_site_type_symbol
_atom_site_fract_x
_atom_site_fract_y
_atom_site_fract_z
I1 I 0.41562(3) 0.828167(13) 0.00714(4)
S1 S 0.53340(12) 1.10906(4) 0.20741(9)
O1 O 0.6534(5) 0.95564(14) 0.1521(3)
O2 O 0.1785(4) 0.95316(13) 0.4803(2)
N1 N 0.4023(4) 0.97938(14) 0.2788(3)
N2 N 0.1921(4) 1.07357(13) 0.2976(2)
C1 C 0.5621(5) 0.8427(2) 0.3816(4)
H1 H 0.5828 0.8793 0.4366
C2 C 0.5679(5) 0.7714(2) 0.4166(4)
H2 H 0.5956 0.7599 0.4949
C3 C 0.5331(5) 0.7177(2) 0.3365(4)
H3 H 0.5387 0.6698 0.3607
C4 C 0.4896(5) 0.73382(16) 0.2200(4)
H4 H 0.4632 0.6970 0.1666
C5 C 0.4853(4) 0.80533(16) 0.1826(3)
C6 C 0.5252(4) 0.85966(15) 0.2633(3)
C7 C 0.5362(5) 0.93663(15) 0.2239(3)
C8 C 0.3680(5) 1.05304(15) 0.2629(3)
C9 C 0.1388(5) 1.15014(17) 0.3017(3)
H5 H 0.2534 1.1785 0.3189
H6 H 0.0471 1.1577 0.3655
C10 C 0.0506(7) 1.17624(19) 0.1870(5)
H7 H 0.1429 1.1709 0.1241
H8 H 0.0158 1.2261 0.1946
H9 H -0.0628 1.1484 0.1694
C11 C 0.0327(5) 1.02362(18) 0.3268(4)
H10 H 0.0463 0.9804 0.2792
H11 H -0.0892 1.0461 0.3057
C12 C 0.0261(6) 1.0025(2) 0.4552(4)
H12 H 0.0397 1.0451 0.5043
H13 H -0.0976 0.9804 0.4730
H14 H 0.329(4) 0.9597(16) 0.331(2)
H15 H 0.235(5) 0.966(2) 0.540(2)
loop_
_geom_bond_atom_site_label_1
_geom_bond_atom_site_label_2
_geom_bond_site_symmetry_1
_geom_bond_site_symmetry_2
I1 C5 1_555 1_555
S1 C8 1_555 1_555
O1 C7 1_555 1_555
O2 C12 1_555 1_555
N1 C7 1_555 1_555
N2 C8 1_555 1_555
C1 H1 1_555 1_555
C2 C1 1_555 1_555
H2 C2 1_555 1_555
C3 C2 1_555 1_555
H3 C3 1_555 1_555
C4 C3 1_555 1_555
H4 C4 1_555 1_555
C5 C4 1_555 1_555
C6 C1 1_555 1_555
C7 C6 1_555 1_555
C8 N1 1_555 1_555
C9 N2 1_555 1_555
H5 C9 1_555 1_555
H6 C9 1_555 1_555
C10 C9 1_555 1_555
H7 C10 1_555 1_555
H8 C10 1_555 1_555
H9 C10 1_555 1_555
C11 N2 1_555 1_555
H10 C11 1_555 1_555
H11 C11 1_555 1_555
C12 C11 1_555 1_555
H12 C12 1_555 1_555
H13 C12 1_555 1_555
H14 N1 1_555 1_555
H15 O2 1_555 1_555
C5 C6 1_555 1_555

#END
