
#######################################################################
#
#                 Cambridge Crystallographic Data Centre
#                                CCDC 
#
#######################################################################
#
# If this CIF has been generated from an entry in the Cambridge 
# Structural Database, then it will include bibliographic, chemical, 
# crystal, experimental, refinement or atomic coordinate data resulting 
# from the CCDC's data processing and validation procedures.
#
#######################################################################

data_DIWHUO
_chemical_formula_moiety         'C24 H22 N4 O1'
_chemical_name_systematic        
5-methyl-4-(((2-(methylamino)phenyl)amino)(phenyl)methylene)-2-phenyl-2,4-dihydro-3H-pyrazol-3-one
_symmetry_cell_setting           monoclinic
_symmetry_space_group_name_H-M   'P 21/n'
_symmetry_Int_Tables_number      14
_space_group_name_Hall           '-P 2yn'
loop_
_symmetry_equiv_pos_site_id
_symmetry_equiv_pos_as_xyz
1 x,y,z
2 1/2-x,1/2+y,1/2-z
3 -x,-y,-z
4 1/2+x,1/2-y,1/2+z
_cell_length_a                   10.07950(10)
_cell_length_b                   18.0520(2)
_cell_length_c                   11.08400(10)
_cell_angle_alpha                90
_cell_angle_beta                 101.5550(10)
_cell_angle_gamma                90
_cell_volume                     1975.92
_exptl_crystal_colour            yellow
_exptl_crystal_description       block
_cell_formula_units_Z            4
loop_
_atom_site_label
_atom_site_type_symbol
_atom_site_fract_x
_atom_site_fract_y
_atom_site_fract_z
C1 C 0.45573(16) -0.14898(9) -0.20840(17)
H1 H 0.3704 -0.1571 -0.2569
C2 C 0.56758(17) -0.18312(9) -0.23589(16)
H2 H 0.5574 -0.2153 -0.3026
C3 C 0.69496(15) -0.17044(8) -0.16601(14)
H3 H 0.7698 -0.1941 -0.1858
C4 C 0.71162(14) -0.12253(7) -0.06636(13)
C5 C 0.59806(15) -0.08961(9) -0.03613(16)
H4 H 0.6072 -0.0589 0.0324
C6 C 0.47133(16) -0.10253(9) -0.10813(18)
H5 H 0.3958 -0.0795 -0.0885
C7 C 1.05708(14) -0.12913(8) 0.06674(13)
C8 C 1.02465(13) -0.06770(7) 0.13701(12)
C9 C 0.88403(14) -0.05192(8) 0.08737(12)
C10 C 1.19183(15) -0.16400(9) 0.06692(16)
H6 H 1.1843 -0.1972 -0.0018
H7 H 1.2208 -0.1911 0.1421
H8 H 1.2569 -0.1261 0.0606
C11 C 1.09962(14) -0.02967(7) 0.23731(13)
C12 C 1.23339(13) -0.05710(7) 0.30240(13)
C13 C 1.24250(15) -0.12442(8) 0.36368(15)
H9 H 1.1649 -0.1524 0.3630
C14 C 1.36686(17) -0.15013(9) 0.42585(16)
H10 H 1.3726 -0.1950 0.4679
C15 C 1.48150(17) -0.10951(9) 0.42541(17)
H11 H 1.5651 -0.1269 0.4669
C16 C 1.47345(16) -0.04318(10) 0.36392(17)
H12 H 1.5518 -0.0162 0.3629
C17 C 1.35008(15) -0.01642(9) 0.30371(15)
H13 H 1.3451 0.0291 0.2638
C18 C 1.08274(13) 0.07203(8) 0.38806(13)
C19 C 1.03775(14) 0.14600(8) 0.38557(14)
C20 C 1.05980(16) 0.18501(9) 0.49685(15)
H14 H 1.0308 0.2339 0.4978
C21 C 1.12369(16) 0.15209(11) 0.60482(16)
H15 H 1.1365 0.1788 0.6779
C22 C 1.16854(16) 0.08063(11) 0.60609(15)
H16 H 1.2134 0.0592 0.6793
C23 C 1.14673(15) 0.04016(10) 0.49752(14)
H17 H 1.1755 -0.0088 0.4985
C24 C 0.9212(2) 0.25203(10) 0.27387(19)
H18 H 0.8596 0.2573 0.3292
H19 H 0.8754 0.2643 0.1918
H20 H 0.9968 0.2847 0.2988
N1 N 0.84230(11) -0.10756(6) 0.00307(11)
N2 N 0.95155(12) -0.15258(7) -0.01216(12)
N3 N 1.04600(12) 0.03159(6) 0.27611(11)
H21 H 0.9781 0.0495 0.2249
N4 N 0.96876(14) 0.17646(7) 0.27670(13)
H22 H 0.9541 0.1504 0.2104
O1 O 0.81257(10) -0.00007(5) 0.11301(9)
loop_
_geom_bond_atom_site_label_1
_geom_bond_atom_site_label_2
_geom_bond_site_symmetry_1
_geom_bond_site_symmetry_2
C1 H1 1_555 1_555
C2 C1 1_555 1_555
H2 C2 1_555 1_555
C3 C2 1_555 1_555
H3 C3 1_555 1_555
C4 C3 1_555 1_555
C5 C4 1_555 1_555
H4 C5 1_555 1_555
C6 C1 1_555 1_555
H5 C6 1_555 1_555
C7 C8 1_555 1_555
C8 C9 1_555 1_555
C9 N1 1_555 1_555
C10 C7 1_555 1_555
H6 C10 1_555 1_555
H7 C10 1_555 1_555
H8 C10 1_555 1_555
C11 C8 1_555 1_555
C12 C11 1_555 1_555
C13 C12 1_555 1_555
H9 C13 1_555 1_555
C14 C13 1_555 1_555
H10 C14 1_555 1_555
C15 C14 1_555 1_555
H11 C15 1_555 1_555
C16 C15 1_555 1_555
H12 C16 1_555 1_555
C17 C12 1_555 1_555
H13 C17 1_555 1_555
C18 C19 1_555 1_555
C19 C20 1_555 1_555
C20 H14 1_555 1_555
C21 C20 1_555 1_555
H15 C21 1_555 1_555
C22 C21 1_555 1_555
H16 C22 1_555 1_555
C23 C18 1_555 1_555
H17 C23 1_555 1_555
C24 H18 1_555 1_555
H19 C24 1_555 1_555
H20 C24 1_555 1_555
N1 C4 1_555 1_555
N2 C7 1_555 1_555
N3 C11 1_555 1_555
H21 N3 1_555 1_555
N4 C19 1_555 1_555
H22 N4 1_555 1_555
O1 C9 1_555 1_555
C5 C6 1_555 1_555
C16 C17 1_555 1_555
C18 N3 1_555 1_555
C22 C23 1_555 1_555
C24 N4 1_555 1_555
N1 N2 1_555 1_555

#END
