
#######################################################################
#
#                 Cambridge Crystallographic Data Centre
#                                CCDC 
#
#######################################################################
#
# If this CIF has been generated from an entry in the Cambridge 
# Structural Database, then it will include bibliographic, chemical, 
# crystal, experimental, refinement or atomic coordinate data resulting 
# from the CCDC's data processing and validation procedures.
#
#######################################################################

data_DIWKAX
_chemical_formula_moiety         'C23 H14 N2 O2'
_chemical_name_systematic        1-(2-nitrophenyl)-N-(pyren-1-yl)methanimine
_symmetry_cell_setting           triclinic
_symmetry_space_group_name_H-M   'P -1'
_symmetry_Int_Tables_number      2
_space_group_name_Hall           '-P 1'
loop_
_symmetry_equiv_pos_site_id
_symmetry_equiv_pos_as_xyz
1 x,y,z
2 -x,-y,-z
_cell_length_a                   7.198(2)
_cell_length_b                   8.086(2)
_cell_length_c                   14.794(5)
_cell_angle_alpha                101.741(5)
_cell_angle_beta                 91.919(5)
_cell_angle_gamma                95.605(5)
_cell_volume                     837.75
_exptl_crystal_colour            yellow
_exptl_crystal_description       Block
_cell_formula_units_Z            2
loop_
_atom_site_label
_atom_site_type_symbol
_atom_site_fract_x
_atom_site_fract_y
_atom_site_fract_z
O1 O 0.0894(4) -0.5029(2) 0.26465(14)
O2 O 0.0899(3) -0.5975(2) 0.12117(13)
N1 N 0.2321(3) -0.0518(2) 0.40718(12)
N2 N 0.1101(3) -0.4810(2) 0.18813(15)
C1 C 0.2267(3) -0.0579(3) 0.50164(14)
C2 C 0.2800(3) 0.0963(3) 0.56536(13)
C3 C 0.3373(3) 0.2516(3) 0.53747(15)
H1 H 0.3414 0.2524 0.4748
C4 C 0.3855(3) 0.3968(3) 0.59980(14)
H2 H 0.4225 0.4954 0.5791
C5 C 0.3816(3) 0.4038(3) 0.69699(14)
C6 C 0.4290(3) 0.5532(3) 0.76313(16)
H3 H 0.4682 0.6531 0.7441
C7 C 0.4185(3) 0.5551(3) 0.85661(16)
H4 H 0.4488 0.6562 0.8996
C8 C 0.3635(3) 0.4084(3) 0.88609(15)
H5 H 0.3578 0.4115 0.9491
C9 C 0.3161(3) 0.2545(3) 0.82343(14)
C10 C 0.2570(3) 0.1005(3) 0.85177(15)
H6 H 0.2519 0.1008 0.9145
C11 C 0.2085(3) -0.0448(3) 0.79011(15)
H7 H 0.1696 -0.1428 0.8110
C12 C 0.2154(3) -0.0522(3) 0.69289(14)
C13 C 0.1620(3) -0.2012(3) 0.62727(16)
H8 H 0.1210 -0.3002 0.6468
C14 C 0.1689(3) -0.2036(3) 0.53410(15)
H9 H 0.1342 -0.3049 0.4919
C15 C 0.2744(3) 0.0982(3) 0.66146(13)
C16 C 0.3243(3) 0.2525(3) 0.72739(13)
C17 C 0.2056(4) -0.1761(3) 0.34611(16)
H10 H 0.1828 -0.2813 0.3621
C18 C 0.2071(3) -0.1706(3) 0.24732(14)
C19 C 0.1633(3) -0.3089(3) 0.17302(14)
C20 C 0.1660(3) -0.2918(3) 0.08213(15)
H11 H 0.1375 -0.3862 0.0344
C21 C 0.2107(4) -0.1349(3) 0.06288(16)
H12 H 0.2113 -0.1220 0.0018
C22 C 0.2548(4) 0.0037(3) 0.13371(16)
H13 H 0.2864 0.1101 0.1204
C23 C 0.2525(3) -0.0138(3) 0.22376(15)
H14 H 0.2821 0.0819 0.2707
loop_
_geom_bond_atom_site_label_1
_geom_bond_atom_site_label_2
_geom_bond_site_symmetry_1
_geom_bond_site_symmetry_2
O1 N2 1_555 1_555
O2 N2 1_555 1_555
N1 C1 1_555 1_555
N2 C19 1_555 1_555
C1 C2 1_555 1_555
C2 C3 1_555 1_555
C3 H1 1_555 1_555
C4 C3 1_555 1_555
H2 C4 1_555 1_555
C5 C4 1_555 1_555
C6 C5 1_555 1_555
H3 C6 1_555 1_555
C7 C6 1_555 1_555
H4 C7 1_555 1_555
C8 C7 1_555 1_555
H5 C8 1_555 1_555
C9 C8 1_555 1_555
C10 C9 1_555 1_555
H6 C10 1_555 1_555
C11 C10 1_555 1_555
H7 C11 1_555 1_555
C12 C11 1_555 1_555
C13 C12 1_555 1_555
H8 C13 1_555 1_555
C14 C1 1_555 1_555
H9 C14 1_555 1_555
C15 C2 1_555 1_555
C16 C5 1_555 1_555
C17 N1 1_555 1_555
H10 C17 1_555 1_555
C18 C17 1_555 1_555
C19 C18 1_555 1_555
C20 C19 1_555 1_555
H11 C20 1_555 1_555
C21 C20 1_555 1_555
H12 C21 1_555 1_555
C22 C21 1_555 1_555
H13 C22 1_555 1_555
C23 C18 1_555 1_555
H14 C23 1_555 1_555
C9 C16 1_555 1_555
C12 C15 1_555 1_555
C13 C14 1_555 1_555
C15 C16 1_555 1_555
C22 C23 1_555 1_555

#END
