
#######################################################################
#
#                 Cambridge Crystallographic Data Centre
#                                CCDC 
#
#######################################################################
#
# If this CIF has been generated from an entry in the Cambridge 
# Structural Database, then it will include bibliographic, chemical, 
# crystal, experimental, refinement or atomic coordinate data resulting 
# from the CCDC's data processing and validation procedures.
#
#######################################################################

data_DIWMAA
_chemical_formula_moiety         'C25 H15 F1 N2 O1'
_chemical_name_systematic        
2-(7-(4-fluorophenyl)-7H-acenaphtho[1,2-d]imidazol-8-yl)phenol
_symmetry_cell_setting           monoclinic
_symmetry_space_group_name_H-M   'P 21/c'
_symmetry_Int_Tables_number      14
_space_group_name_Hall           '-P 2ybc'
loop_
_symmetry_equiv_pos_site_id
_symmetry_equiv_pos_as_xyz
1 x,y,z
2 -x,1/2+y,1/2-z
3 -x,-y,-z
4 x,1/2-y,1/2+z
_cell_length_a                   8.3355(3)
_cell_length_b                   22.8736(6)
_cell_length_c                   9.4113(3)
_cell_angle_alpha                90
_cell_angle_beta                 97.8850(10)
_cell_angle_gamma                90
_cell_volume                     1777.42
_exptl_crystal_colour            orange
_exptl_crystal_description       block
_chemical_melting_point          '481-483 K'
_cell_formula_units_Z            4
_exptl_crystal_recrystallization_method 
'Re-crystallisation from solvent: Ethyl acetate'
loop_
_atom_site_label
_atom_site_type_symbol
_atom_site_fract_x
_atom_site_fract_y
_atom_site_fract_z
F1 F 0.0980(2) 0.71232(7) 0.02978(16)
O1 O 0.3268(2) 0.39100(7) 0.56226(18)
H1 H 0.3640 0.4182 0.6131
N1 N 0.2862(2) 0.57475(7) 0.50415(17)
N2 N 0.3720(2) 0.49888(7) 0.64781(18)
C1 C 0.3793(2) 0.59671(9) 0.6245(2)
C2 C 0.4428(2) 0.65154(9) 0.6881(2)
C3 C 0.4369(3) 0.70981(10) 0.6559(3)
H2 H 0.3762 0.7232 0.5719
C4 C 0.5245(3) 0.74942(11) 0.7524(3)
H3 H 0.5199 0.7891 0.7305
C5 C 0.6157(3) 0.73168(11) 0.8765(3)
H4 H 0.6721 0.7592 0.9369
C6 C 0.6250(3) 0.67139(10) 0.9142(2)
C7 C 0.7168(3) 0.64597(11) 1.0360(2)
H5 H 0.7751 0.6698 1.1048
C8 C 0.7206(3) 0.58664(12) 1.0535(3)
H6 H 0.7829 0.5709 1.1340
C9 C 0.6331(3) 0.54838(11) 0.9535(2)
H7 H 0.6401 0.5081 0.9669
C10 C 0.5377(2) 0.57123(9) 0.8365(2)
C11 C 0.4319(2) 0.55020(9) 0.7090(2)
C12 C 0.2825(2) 0.51440(9) 0.5240(2)
C13 C 0.5368(2) 0.63322(9) 0.8182(2)
C14 C 0.2339(2) 0.60902(9) 0.3785(2)
C15 C 0.2921(3) 0.59717(10) 0.2508(2)
H8 H 0.3629 0.5661 0.2455
C16 C 0.2457(3) 0.63139(11) 0.1306(2)
C17 C 0.1436(3) 0.67783(10) 0.1461(2)
C18 C 0.0861(3) 0.69188(10) 0.2716(3)
C19 C 0.1327(3) 0.65601(10) 0.3900(2)
H9 H 0.0955 0.6638 0.4768
C20 C 0.1906(2) 0.47179(9) 0.4292(2)
C21 C 0.2214(3) 0.41192(9) 0.4515(2)
C22 C 0.1413(3) 0.37102(10) 0.3580(3)
H10 H 0.1658 0.3315 0.3708
C23 C 0.0264(3) 0.38812(11) 0.2469(3)
H11 H -0.0252 0.3604 0.1844
C24 C -0.0120(3) 0.44644(11) 0.2281(3)
H12 H -0.0920 0.4580 0.1547
C25 C 0.0683(3) 0.48750(10) 0.3182(2)
H13 H 0.0407 0.5267 0.3052
loop_
_geom_bond_atom_site_label_1
_geom_bond_atom_site_label_2
_geom_bond_site_symmetry_1
_geom_bond_site_symmetry_2
F1 C17 1_555 1_555
O1 H1 1_555 1_555
N1 C1 1_555 1_555
N2 C11 1_555 1_555
C1 C2 1_555 1_555
C2 C3 1_555 1_555
C3 H2 1_555 1_555
C4 C3 1_555 1_555
H3 C4 1_555 1_555
C5 C4 1_555 1_555
H4 C5 1_555 1_555
C6 C5 1_555 1_555
C7 C6 1_555 1_555
H5 C7 1_555 1_555
C8 C7 1_555 1_555
H6 C8 1_555 1_555
C9 C8 1_555 1_555
H7 C9 1_555 1_555
C10 C9 1_555 1_555
C11 C1 1_555 1_555
C12 N1 1_555 1_555
C13 C2 1_555 1_555
C14 N1 1_555 1_555
C15 C14 1_555 1_555
H8 C15 1_555 1_555
C16 C15 1_555 1_555
C17 C16 1_555 1_555
C18 C17 1_555 1_555
C19 C14 1_555 1_555
H9 C19 1_555 1_555
C20 C12 1_555 1_555
C21 O1 1_555 1_555
C22 C21 1_555 1_555
H10 C22 1_555 1_555
C23 C22 1_555 1_555
H11 C23 1_555 1_555
C24 C23 1_555 1_555
H12 C24 1_555 1_555
C25 C20 1_555 1_555
H13 C25 1_555 1_555
N2 C12 1_555 1_555
C6 C13 1_555 1_555
C10 C11 1_555 1_555
C10 C13 1_555 1_555
C18 C19 1_555 1_555
C20 C21 1_555 1_555
C24 C25 1_555 1_555

#END
