
#######################################################################
#
#                 Cambridge Crystallographic Data Centre
#                                CCDC 
#
#######################################################################
#
# If this CIF has been generated from an entry in the Cambridge 
# Structural Database, then it will include bibliographic, chemical, 
# crystal, experimental, refinement or atomic coordinate data resulting 
# from the CCDC's data processing and validation procedures.
#
#######################################################################

data_DIWNED
_chemical_formula_moiety         'C20 H14 N6 O2'
_chemical_name_systematic        
6-Amino-3-methyl-4-(4-nitrophenyl)-1-phenylpyrazolo(3,4-b)pyridine-5-carbonitrile
_symmetry_cell_setting           monoclinic
_symmetry_space_group_name_H-M   'C 2/c'
_symmetry_Int_Tables_number      15
_space_group_name_Hall           '-C 2yn'
loop_
_symmetry_equiv_pos_site_id
_symmetry_equiv_pos_as_xyz
1 x,y,z
2 1/2+x,1/2+y,z
3 -x,y,1/2-z
4 1/2-x,1/2+y,1/2-z
5 -x,-y,-z
6 1/2-x,1/2-y,-z
7 x,-y,1/2+z
8 1/2+x,1/2-y,1/2+z
_cell_length_a                   16.470(11)
_cell_length_b                   9.742(7)
_cell_length_c                   23.46(2)
_cell_angle_alpha                90
_cell_angle_beta                 105.857(8)
_cell_angle_gamma                90
_cell_volume                     3620.93
_exptl_crystal_colour            yellow
_exptl_crystal_description       block
_cell_formula_units_Z            8
_exptl_crystal_recrystallization_method ethanol
loop_
_atom_site_label
_atom_site_type_symbol
_atom_site_fract_x
_atom_site_fract_y
_atom_site_fract_z
C1 C 0.14291(11) 0.3249(2) 0.22385(8)
C2 C 0.13161(11) 0.17956(19) 0.22657(8)
C3 C 0.12907(11) 0.06720(19) 0.18900(8)
C4 C 0.11731(12) -0.0608(2) 0.21136(8)
C5 C 0.10829(12) -0.0751(2) 0.27046(8)
C6 C 0.11882(11) 0.1536(2) 0.28254(8)
C7 C 0.16473(14) 0.4076(2) 0.17675(9)
H1 H 0.1171 0.4109 0.1424
H2 H 0.2117 0.3663 0.1665
H3 H 0.1795 0.4992 0.1910
C8 C 0.11094(16) -0.1792(2) 0.17454(10)
C9 C 0.13676(11) 0.08314(19) 0.12762(8)
C10 C 0.06928(13) 0.1307(3) 0.08327(9)
H4 H 0.0187 0.1510 0.0919
C11 C 0.07559(14) 0.1485(2) 0.02644(9)
H5 H 0.0300 0.1808 -0.0034
C12 C 0.15017(13) 0.11769(19) 0.01483(8)
C13 C 0.21832(13) 0.0685(2) 0.05755(9)
H6 H 0.2684 0.0471 0.0484
C14 C 0.21111(12) 0.0516(2) 0.11416(8)
H7 H 0.2568 0.0184 0.1437
C15 C 0.11107(11) 0.3128(2) 0.36614(8)
C16 C 0.14851(12) 0.2328(2) 0.41484(9)
H8 H 0.1792 0.1550 0.4107
C17 C 0.13988(13) 0.2697(2) 0.47001(9)
H9 H 0.1640 0.2155 0.5029
C18 C 0.09585(14) 0.3862(3) 0.47639(10)
H10 H 0.0910 0.4111 0.5136
C19 C 0.05918(14) 0.4654(2) 0.42781(11)
H11 H 0.0294 0.5440 0.4322
C20 C 0.06610(12) 0.4293(2) 0.37226(10)
H12 H 0.0408 0.4828 0.3394
N1 N 0.12015(10) 0.27857(17) 0.30914(7)
N2 N 0.13518(10) 0.38354(17) 0.27275(7)
N3 N 0.10738(10) 0.03211(17) 0.30563(6)
N4 N 0.1045(2) -0.2721(2) 0.14393(10)
N5 N 0.10113(12) -0.20117(18) 0.29226(8)
H13 H 0.0962 -0.2102 0.3276
H14 H 0.1015 -0.2726 0.2708
N6 N 0.15858(14) 0.14160(19) -0.04520(8)
O1 O 0.22406(12) 0.1080(2) -0.05634(7)
O2 O 0.09960(14) 0.1956(2) -0.08097(7)
loop_
_geom_bond_atom_site_label_1
_geom_bond_atom_site_label_2
_geom_bond_site_symmetry_1
_geom_bond_site_symmetry_2
C1 C2 1_555 1_555
C2 C3 1_555 1_555
C3 C4 1_555 1_555
C4 C5 1_555 1_555
C5 N3 1_555 1_555
C6 C2 1_555 1_555
C7 C1 1_555 1_555
H1 C7 1_555 1_555
H2 C7 1_555 1_555
H3 C7 1_555 1_555
C8 C4 1_555 1_555
C9 C3 1_555 1_555
C10 C9 1_555 1_555
H4 C10 1_555 1_555
C11 C10 1_555 1_555
H5 C11 1_555 1_555
C12 C11 1_555 1_555
C13 C12 1_555 1_555
H6 C13 1_555 1_555
C14 C9 1_555 1_555
H7 C14 1_555 1_555
C15 C16 1_555 1_555
C16 H8 1_555 1_555
C17 C16 1_555 1_555
H9 C17 1_555 1_555
C18 C17 1_555 1_555
H10 C18 1_555 1_555
C19 C18 1_555 1_555
H11 C19 1_555 1_555
C20 C15 1_555 1_555
H12 C20 1_555 1_555
N1 C6 1_555 1_555
N2 C1 1_555 1_555
N3 C6 1_555 1_555
N4 C8 1_555 1_555
N5 C5 1_555 1_555
H13 N5 1_555 1_555
H14 N5 1_555 1_555
N6 C12 1_555 1_555
O1 N6 1_555 1_555
O2 N6 1_555 1_555
C13 C14 1_555 1_555
C15 N1 1_555 1_555
C19 C20 1_555 1_555
N1 N2 1_555 1_555

#END
