
#######################################################################
#
#                 Cambridge Crystallographic Data Centre
#                                CCDC 
#
#######################################################################
#
# If this CIF has been generated from an entry in the Cambridge 
# Structural Database, then it will include bibliographic, chemical, 
# crystal, experimental, refinement or atomic coordinate data resulting 
# from the CCDC's data processing and validation procedures.
#
#######################################################################

data_DIWNOO
_chemical_formula_moiety         'C28 H22 Br2 N4 O1'
_chemical_name_systematic        
(4-bromophenyl)(6-(4-bromophenyl)-1,3-dimethyl-5-((4-methylphenyl)amino)-1H-pyrazolo[3,4-b]pyridin-4-yl)methanone
_symmetry_cell_setting           monoclinic
_symmetry_space_group_name_H-M   'P 21/c'
_symmetry_Int_Tables_number      14
_space_group_name_Hall           '-P 2ybc'
loop_
_symmetry_equiv_pos_site_id
_symmetry_equiv_pos_as_xyz
1 x,y,z
2 -x,1/2+y,1/2-z
3 -x,-y,-z
4 x,1/2-y,1/2+z
_cell_length_a                   18.4011(16)
_cell_length_b                   6.1969(5)
_cell_length_c                   23.223(2)
_cell_angle_alpha                90
_cell_angle_beta                 105.394(2)
_cell_angle_gamma                90
_cell_volume                     2553.11
_cell_formula_units_Z            4
loop_
_atom_site_label
_atom_site_type_symbol
_atom_site_fract_x
_atom_site_fract_y
_atom_site_fract_z
Br1 Br 0.10170(9) 0.2600(3) 1.08196(7)
Br2 Br 0.33657(11) -0.4792(3) 0.63372(8)
N1 N 0.4205(6) 0.3164(18) 0.8421(4)
N2 N 0.4932(6) 0.5689(19) 0.9124(5)
N3 N 0.4828(6) 0.7424(18) 0.9457(4)
N4 N 0.2097(5) 0.2717(16) 0.8059(4)
H1 H 0.1983 0.1519 0.8201
O1 O 0.2095(5) 0.8207(15) 0.8636(4)
C1 C 0.3489(7) 0.256(2) 0.8166(5)
C2 C 0.2846(7) 0.351(2) 0.8301(5)
C3 C 0.2955(7) 0.527(2) 0.8702(5)
C4 C 0.3696(7) 0.599(2) 0.8964(5)
C5 C 0.4279(7) 0.476(2) 0.8820(5)
C6 C 0.4070(8) 0.758(2) 0.9368(5)
C7 C 0.3758(6) 0.935(2) 0.9668(5)
H2 H 0.4147 0.9901 0.9996
H3 H 0.3352 0.8799 0.9813
H4 H 0.3573 1.0489 0.9387
C8 C 0.5721(6) 0.505(2) 0.9137(6)
H5 H 0.5720 0.3609 0.8982
H6 H 0.6031 0.5087 0.9541
H7 H 0.5918 0.6028 0.8897
C9 C 0.2323(7) 0.651(2) 0.8863(5)
C10 C 0.2001(6) 0.547(2) 0.9325(5)
C11 C 0.2234(6) 0.344(2) 0.9578(5)
H8 H 0.2583 0.2643 0.9440
C12 C 0.1952(7) 0.261(2) 1.0025(5)
H9 H 0.2114 0.1273 1.0191
C13 C 0.1431(7) 0.377(3) 1.0228(5)
C14 C 0.1189(7) 0.576(2) 0.9989(6)
H10 H 0.0838 0.6535 1.0129
C15 C 0.1472(6) 0.659(2) 0.9545(6)
H11 H 0.1305 0.7932 0.9385
C16 C 0.3419(7) 0.076(2) 0.7717(5)
C17 C 0.3986(8) -0.090(2) 0.7832(5)
H12 H 0.4366 -0.0907 0.8188
C18 C 0.3961(8) -0.249(2) 0.7412(6)
H13 H 0.4338 -0.3534 0.7483
C19 C 0.3407(9) -0.257(2) 0.6906(6)
C20 C 0.2861(8) -0.093(3) 0.6770(6)
H14 H 0.2504 -0.0921 0.6402
C21 C 0.2855(7) 0.068(2) 0.7188(6)
H15 H 0.2471 0.1706 0.7111
C22 C 0.1542(7) 0.369(2) 0.7620(5)
C23 C 0.0842(7) 0.274(2) 0.7387(5)
H16 H 0.0752 0.1376 0.7521
C24 C 0.0269(7) 0.376(2) 0.6956(6)
H17 H -0.0197 0.3090 0.6819
C25 C 0.0387(8) 0.580(2) 0.6728(6)
C26 C 0.1078(7) 0.670(2) 0.6948(5)
H18 H 0.1166 0.8032 0.6797
C27 C 0.1661(7) 0.577(2) 0.7381(5)
H19 H 0.2121 0.6474 0.7515
C28 C -0.0232(7) 0.686(2) 0.6259(6)
H20 H -0.0156 0.8395 0.6274
H21 H -0.0710 0.6537 0.6333
H22 H -0.0226 0.6332 0.5872
loop_
_geom_bond_atom_site_label_1
_geom_bond_atom_site_label_2
_geom_bond_site_symmetry_1
_geom_bond_site_symmetry_2
Br1 C13 1_555 1_555
Br2 C19 1_555 1_555
N1 C1 1_555 1_555
N2 N3 1_555 1_555
N3 C6 1_555 1_555
N4 H1 1_555 1_555
O1 C9 1_555 1_555
C1 C2 1_555 1_555
C2 N4 1_555 1_555
C3 C2 1_555 1_555
C4 C3 1_555 1_555
C5 N1 1_555 1_555
C6 C4 1_555 1_555
C7 C6 1_555 1_555
H2 C7 1_555 1_555
H3 C7 1_555 1_555
H4 C7 1_555 1_555
C8 N2 1_555 1_555
H5 C8 1_555 1_555
H6 C8 1_555 1_555
H7 C8 1_555 1_555
C9 C3 1_555 1_555
C10 C9 1_555 1_555
C11 C10 1_555 1_555
H8 C11 1_555 1_555
C12 C11 1_555 1_555
H9 C12 1_555 1_555
C13 C12 1_555 1_555
C14 C13 1_555 1_555
H10 C14 1_555 1_555
C15 C10 1_555 1_555
H11 C15 1_555 1_555
C16 C1 1_555 1_555
C17 C16 1_555 1_555
H12 C17 1_555 1_555
C18 C17 1_555 1_555
H13 C18 1_555 1_555
C19 C18 1_555 1_555
C20 C19 1_555 1_555
H14 C20 1_555 1_555
C21 C16 1_555 1_555
H15 C21 1_555 1_555
C22 N4 1_555 1_555
C23 C22 1_555 1_555
H16 C23 1_555 1_555
C24 C23 1_555 1_555
H17 C24 1_555 1_555
C25 C24 1_555 1_555
C26 C25 1_555 1_555
H18 C26 1_555 1_555
C27 C22 1_555 1_555
H19 C27 1_555 1_555
C28 C25 1_555 1_555
H20 C28 1_555 1_555
H21 C28 1_555 1_555
H22 C28 1_555 1_555
N2 C5 1_555 1_555
C4 C5 1_555 1_555
C14 C15 1_555 1_555
C20 C21 1_555 1_555
C26 C27 1_555 1_555

#END
