
#######################################################################
#
#                 Cambridge Crystallographic Data Centre
#                                CCDC 
#
#######################################################################
#
# If this CIF has been generated from an entry in the Cambridge 
# Structural Database, then it will include bibliographic, chemical, 
# crystal, experimental, refinement or atomic coordinate data resulting 
# from the CCDC's data processing and validation procedures.
#
#######################################################################

data_DIWPEG
_chemical_formula_moiety         'C22 H22 O2'
_chemical_name_systematic        
'methyl 4-(3-benzylidenebicyclo[2.2.1]hept-2-yl)benzoate'
_symmetry_cell_setting           monoclinic
_symmetry_space_group_name_H-M   'C 2/c'
_symmetry_Int_Tables_number      15
_space_group_name_Hall           '-C 2yn'
loop_
_symmetry_equiv_pos_site_id
_symmetry_equiv_pos_as_xyz
1 x,y,z
2 -x,y,1/2-z
3 1/2+x,1/2+y,z
4 1/2-x,1/2+y,1/2-z
5 -x,-y,-z
6 x,-y,1/2+z
7 1/2-x,1/2-y,-z
8 1/2+x,1/2-y,1/2+z
_cell_length_a                   19.1645(14)
_cell_length_b                   5.9934(5)
_cell_length_c                   29.725(3)
_cell_angle_alpha                90
_cell_angle_beta                 98.230(8)
_cell_angle_gamma                90
_cell_volume                     3379.07
_cell_formula_units_Z            8
loop_
_atom_site_label
_atom_site_type_symbol
_atom_site_fract_x
_atom_site_fract_y
_atom_site_fract_z
C1 C 0.49089(11) 0.6638(5) 0.85461(8)
H1 H 0.5052 0.7969 0.8378
C2 C 0.50407(12) 0.4360(5) 0.83321(9)
H2 H 0.5499 0.4341 0.8215
H3 H 0.4660 0.3991 0.8082
C3 C 0.50429(12) 0.2718(5) 0.87368(9)
H4 H 0.4664 0.1592 0.8671
H5 H 0.5502 0.1942 0.8804
C4 C 0.49144(11) 0.4220(4) 0.91291(9)
H6 H 0.5060 0.3568 0.9438
C5 C 0.41306(11) 0.5015(4) 0.90346(8)
H7 H 0.3831 0.3720 0.8915
C6 C 0.41561(11) 0.6670(4) 0.86485(8)
C7 C 0.53099(11) 0.6328(4) 0.90313(8)
H8 H 0.5821 0.6069 0.9035
H9 H 0.5233 0.7576 0.9237
C8 C 0.38595(11) 0.5885(4) 0.94524(8)
C9 C 0.34819(11) 0.4434(4) 0.97004(8)
H10 H 0.3383 0.2963 0.9591
C10 C 0.32509(11) 0.5089(4) 1.00990(8)
H11 H 0.2997 0.4071 1.0260
C11 C 0.33881(11) 0.7227(4) 1.02655(8)
C12 C 0.37539(11) 0.8711(4) 1.00202(8)
H12 H 0.3846 1.0188 1.0129
C13 C 0.39830(11) 0.8040(4) 0.96204(8)
H13 H 0.4229 0.9069 0.9457
C14 C 0.31385(11) 0.7895(5) 1.06932(9)
C15 C 0.29896(13) 1.0870(5) 1.11929(8)
H14 H 0.2494 1.0467 1.1193
H15 H 0.3040 1.2496 1.1212
H16 H 0.3278 1.0180 1.1455
C16 C 0.36074(11) 0.7867(4) 0.84571(8)
H17 H 0.3184 0.7675 0.8584
C17 C 0.35698(11) 0.9446(4) 0.80765(8)
C18 C 0.39604(12) 0.9214(5) 0.77168(8)
H18 H 0.4267 0.7974 0.7709
C19 C 0.39036(12) 1.0787(5) 0.73702(9)
H19 H 0.4179 1.0623 0.7131
C20 C 0.34516(12) 1.2588(5) 0.73688(9)
H20 H 0.3415 1.3654 0.7130
C21 C 0.30524(12) 1.2817(5) 0.77215(8)
H21 H 0.2740 1.4045 0.7725
C22 C 0.31104(11) 1.1260(4) 0.80666(8)
H22 H 0.2831 1.1426 0.8304
O1 O 0.28964(9) 0.6619(3) 1.09486(6)
O2 O 0.32203(8) 1.0084(3) 1.07781(5)
loop_
_geom_bond_atom_site_label_1
_geom_bond_atom_site_label_2
_geom_bond_site_symmetry_1
_geom_bond_site_symmetry_2
C1 H1 1_555 1_555
C2 C1 1_555 1_555
H2 C2 1_555 1_555
H3 C2 1_555 1_555
C3 C2 1_555 1_555
H4 C3 1_555 1_555
H5 C3 1_555 1_555
C4 C3 1_555 1_555
H6 C4 1_555 1_555
C5 C4 1_555 1_555
H7 C5 1_555 1_555
C6 C1 1_555 1_555
C7 C1 1_555 1_555
H8 C7 1_555 1_555
H9 C7 1_555 1_555
C8 C5 1_555 1_555
C9 C8 1_555 1_555
H10 C9 1_555 1_555
C10 C9 1_555 1_555
H11 C10 1_555 1_555
C11 C10 1_555 1_555
C12 C11 1_555 1_555
H12 C12 1_555 1_555
C13 C8 1_555 1_555
H13 C13 1_555 1_555
C14 C11 1_555 1_555
C15 H14 1_555 1_555
H15 C15 1_555 1_555
H16 C15 1_555 1_555
C16 C6 1_555 1_555
H17 C16 1_555 1_555
C17 C16 1_555 1_555
C18 C17 1_555 1_555
H18 C18 1_555 1_555
C19 C18 1_555 1_555
H19 C19 1_555 1_555
C20 C19 1_555 1_555
H20 C20 1_555 1_555
C21 C20 1_555 1_555
H21 C21 1_555 1_555
C22 C17 1_555 1_555
H22 C22 1_555 1_555
O1 C14 1_555 1_555
O2 C14 1_555 1_555
C4 C7 1_555 1_555
C5 C6 1_555 1_555
C12 C13 1_555 1_555
C15 O2 1_555 1_555
C21 C22 1_555 1_555

#END
