
#######################################################################
#
#                 Cambridge Crystallographic Data Centre
#                                CCDC 
#
#######################################################################
#
# If this CIF has been generated from an entry in the Cambridge 
# Structural Database, then it will include bibliographic, chemical, 
# crystal, experimental, refinement or atomic coordinate data resulting 
# from the CCDC's data processing and validation procedures.
#
#######################################################################

data_DIWPOQ
_chemical_formula_moiety         'C26 H26 N2 P2 Se2,2(C4 H8 O1)'
_chemical_name_systematic        
"N,N'-ethane-1,2-diylbis(P,P-diphenyl(phosphinoselenoic amide)) tetrahydrofuran solvate"
_symmetry_cell_setting           orthorhombic
_symmetry_space_group_name_H-M   'P b c a'
_symmetry_Int_Tables_number      61
_space_group_name_Hall           '-P 2ac 2ab'
loop_
_symmetry_equiv_pos_site_id
_symmetry_equiv_pos_as_xyz
1 x,y,z
2 1/2-x,-y,1/2+z
3 1/2+x,1/2-y,-z
4 -x,1/2+y,1/2-z
5 -x,-y,-z
6 1/2+x,y,1/2-z
7 1/2-x,1/2+y,z
8 x,1/2-y,1/2+z
_cell_length_a                   16.5026(5)
_cell_length_b                   11.4432(3)
_cell_length_c                   18.3315(5)
_cell_angle_alpha                90
_cell_angle_beta                 90
_cell_angle_gamma                90
_cell_volume                     3461.77
_exptl_crystal_colour            colorless
_exptl_crystal_description       block
_cell_formula_units_Z            4
_chemical_properties_physical    Moisture-sensitive
loop_
_atom_site_label
_atom_site_type_symbol
_atom_site_fract_x
_atom_site_fract_y
_atom_site_fract_z
Se1 Se 0.095012(14) 0.15200(2) 0.435802(13)
P1 P 0.01015(3) 0.26986(4) 0.39170(3)
N1 N 0.01621(11) 0.40918(15) 0.41700(10)
H1 H 0.0236 0.4637 0.3854
C1 C 0.00858(13) 0.43591(18) 0.49510(11)
H2 H 0.0584 0.4155 0.5201
H3 H -0.0351 0.3902 0.5161
C2 C -0.09348(12) 0.2314(2) 0.41465(12)
C3 C 0.01857(13) 0.28151(18) 0.29318(11)
C4 C -0.00809(18) 0.3827(2) 0.18052(14)
H4 H -0.0310 0.4454 0.1558
C5 C -0.01608(17) 0.3744(2) 0.25569(13)
H5 H -0.0447 0.4313 0.2811
C6 C 0.06030(16) 0.1972(2) 0.25452(13)
H6 H 0.0835 0.1344 0.2790
C7 C -0.25196(16) 0.1768(3) 0.45361(17)
H7 H -0.3048 0.1590 0.4673
C8 C -0.11138(15) 0.1243(2) 0.44711(14)
H8 H -0.0701 0.0708 0.4560
C9 C -0.15626(14) 0.3107(2) 0.40158(14)
H9 H -0.1451 0.3825 0.3800
C10 C 0.03367(18) 0.2982(2) 0.14247(12)
H10 H 0.0388 0.3036 0.0921
C11 C 0.06772(18) 0.2058(2) 0.17917(14)
H11 H 0.0959 0.1487 0.1535
C12 C -0.19046(16) 0.0974(2) 0.46615(16)
H12 H -0.2022 0.0257 0.4875
C13 C -0.23494(15) 0.2823(3) 0.42073(16)
H13 H -0.2767 0.3348 0.4113
Se1D Se -0.095012(14) 0.84800(2) 0.564198(13)
P1D P -0.01015(3) 0.73014(4) 0.60830(3)
N1D N -0.01621(11) 0.59082(15) 0.58300(10)
H1D H -0.0236 0.5363 0.6146
C1D C -0.00858(13) 0.56409(18) 0.50490(11)
H2D H -0.0584 0.5845 0.4799
H3D H 0.0351 0.6098 0.4839
C2D C 0.09348(12) 0.7686(2) 0.58535(12)
C3D C -0.01857(13) 0.71849(18) 0.70682(11)
C4D C 0.00809(18) 0.6173(2) 0.81948(14)
H4D H 0.0310 0.5546 0.8442
C5D C 0.01608(17) 0.6256(2) 0.74431(13)
H5D H 0.0447 0.5687 0.7189
C6D C -0.06030(16) 0.8028(2) 0.74548(13)
H6D H -0.0835 0.8656 0.7210
C7D C 0.25196(16) 0.8232(3) 0.54639(17)
H7D H 0.3048 0.8410 0.5327
C8D C 0.11138(15) 0.8757(2) 0.55289(14)
H8D H 0.0701 0.9292 0.5440
C9D C 0.15626(14) 0.6893(2) 0.59842(14)
H9D H 0.1451 0.6175 0.6200
C10D C -0.03367(18) 0.7018(2) 0.85753(12)
H10D H -0.0388 0.6964 0.9079
C11D C -0.06772(18) 0.7942(2) 0.82083(14)
H11D H -0.0959 0.8513 0.8465
C12D C 0.19046(16) 0.9026(2) 0.53385(16)
H12D H 0.2022 0.9743 0.5125
C13D C 0.23494(15) 0.7177(3) 0.57927(16)
H13D H 0.2767 0.6652 0.5887
O1 O 0.16869(13) 0.51737(18) 0.37588(13)
C14 C 0.22351(19) 0.4446(3) 0.3398(2)
H14 H 0.2067 0.3635 0.3433
H15 H 0.2774 0.4523 0.3605
C15 C 0.1732(3) 0.6278(3) 0.3441(3)
H16 H 0.2125 0.6758 0.3695
H17 H 0.1209 0.6664 0.3463
C16 C 0.2222(3) 0.4854(6) 0.2621(2)
H18 H 0.2753 0.4780 0.2398
H19 H 0.1832 0.4414 0.2335
C17 C 0.1978(4) 0.6108(7) 0.2683(3)
H20 H 0.2428 0.6616 0.2562
H21 H 0.1531 0.6278 0.2355
loop_
_geom_bond_atom_site_label_1
_geom_bond_atom_site_label_2
_geom_bond_site_symmetry_1
_geom_bond_site_symmetry_2
Se1 P1 1_555 1_555
P1 N1 1_555 1_555
N1 H1 1_555 1_555
C1 N1 1_555 1_555
H2 C1 1_555 1_555
H3 C1 1_555 1_555
C2 P1 1_555 1_555
C3 P1 1_555 1_555
C4 H4 1_555 1_555
C5 C3 1_555 1_555
H5 C5 1_555 1_555
C6 C3 1_555 1_555
H6 C6 1_555 1_555
C7 H7 1_555 1_555
C8 C2 1_555 1_555
H8 C8 1_555 1_555
C9 C2 1_555 1_555
H9 C9 1_555 1_555
C10 C4 1_555 1_555
H10 C10 1_555 1_555
C11 C6 1_555 1_555
H11 C11 1_555 1_555
C12 C7 1_555 1_555
H12 C12 1_555 1_555
C13 C7 1_555 1_555
H13 C13 1_555 1_555
O1 C14 1_555 1_555
C14 H14 1_555 1_555
H15 C14 1_555 1_555
C15 O1 1_555 1_555
H16 C15 1_555 1_555
H17 C15 1_555 1_555
C16 C14 1_555 1_555
H18 C16 1_555 1_555
H19 C16 1_555 1_555
C17 C15 1_555 1_555
H20 C17 1_555 1_555
H21 C17 1_555 1_555
Se1D P1D 1_555 1_555
P1D N1D 1_555 1_555
N1D H1D 1_555 1_555
C1D C1 1_555 1_555
H2D C1D 1_555 1_555
H3D C1D 1_555 1_555
C2D P1D 1_555 1_555
C3D P1D 1_555 1_555
C4D H4D 1_555 1_555
C5D C3D 1_555 1_555
H5D C5D 1_555 1_555
C6D C3D 1_555 1_555
H6D C6D 1_555 1_555
C7D H7D 1_555 1_555
C8D C2D 1_555 1_555
H8D C8D 1_555 1_555
C9D C2D 1_555 1_555
H9D C9D 1_555 1_555
C10D C4D 1_555 1_555
H10D C10D 1_555 1_555
C11D C6D 1_555 1_555
H11D C11D 1_555 1_555
C12D C7D 1_555 1_555
H12D C12D 1_555 1_555
C13D C7D 1_555 1_555
H13D C13D 1_555 1_555
C4 C5 1_555 1_555
C8 C12 1_555 1_555
C9 C13 1_555 1_555
C10 C11 1_555 1_555
C16 C17 1_555 1_555
N1D C1D 1_555 1_555
C4D C5D 1_555 1_555
C8D C12D 1_555 1_555
C9D C13D 1_555 1_555
C10D C11D 1_555 1_555

#END
