
#######################################################################
#
#                 Cambridge Crystallographic Data Centre
#                                CCDC 
#
#######################################################################
#
# If this CIF has been generated from an entry in the Cambridge 
# Structural Database, then it will include bibliographic, chemical, 
# crystal, experimental, refinement or atomic coordinate data resulting 
# from the CCDC's data processing and validation procedures.
#
#######################################################################

data_DIWPIK
_chemical_formula_moiety         'C26 H26 N2 P2 Se2'
_chemical_name_systematic        
"N,N'-ethane-1,2-diylbis(P,P-diphenyl(phosphinoselenoic amide))"
_symmetry_cell_setting           monoclinic
_symmetry_space_group_name_H-M   'C 2/c'
_symmetry_Int_Tables_number      15
_space_group_name_Hall           '-C 2yn'
loop_
_symmetry_equiv_pos_site_id
_symmetry_equiv_pos_as_xyz
1 x,y,z
2 -x,y,1/2-z
3 1/2+x,1/2+y,z
4 1/2-x,1/2+y,1/2-z
5 -x,-y,-z
6 x,-y,1/2+z
7 1/2-x,1/2-y,-z
8 1/2+x,1/2-y,1/2+z
_cell_length_a                   23.2423(12)
_cell_length_b                   12.0610(7)
_cell_length_c                   9.2715(5)
_cell_angle_alpha                90
_cell_angle_beta                 102.372(6)
_cell_angle_gamma                90
_cell_volume                     2538.68
_exptl_crystal_colour            colorless
_exptl_crystal_description       needle
_cell_formula_units_Z            4
_chemical_properties_physical    'air- and moisture-sensitive'
loop_
_atom_site_label
_atom_site_type_symbol
_atom_site_fract_x
_atom_site_fract_y
_atom_site_fract_z
Se1 Se 0.414105(15) 0.74441(3) 0.07482(4)
P1 P 0.40225(3) 0.66151(6) 0.26790(7)
N1 N 0.45382(10) 0.57040(18) 0.3433(2)
H1 H 0.4722 0.5787 0.4335
C1 C 0.33397(12) 0.5840(2) 0.2339(3)
C2 C 0.28468(14) 0.6286(3) 0.1412(4)
H2 H 0.2871 0.6971 0.0969
C3 C 0.23183(15) 0.5716(4) 0.1144(4)
H3 H 0.1985 0.6029 0.0548
C4 C 0.22842(15) 0.4689(3) 0.1756(4)
H4 H 0.1933 0.4293 0.1545
C5 C 0.27729(16) 0.4248(3) 0.2685(4)
H5 H 0.2747 0.3560 0.3119
C6 C 0.32988(14) 0.4812(3) 0.2978(4)
H6 H 0.3627 0.4505 0.3603
C7 C 0.46822(12) 0.4761(2) 0.2573(3)
H7 H 0.4429 0.4780 0.1595
H8 H 0.4602 0.4077 0.3046
C8 C 0.40035(14) 0.7545(2) 0.4201(3)
C9 C 0.36795(19) 0.7283(3) 0.5243(4)
H9 H 0.3463 0.6629 0.5153
C10 C 0.3676(2) 0.7985(4) 0.6414(4)
H10 H 0.3460 0.7800 0.7115
C11 C 0.39909(19) 0.8957(4) 0.6546(4)
H11 H 0.3981 0.9436 0.7326
C12 C 0.43211(17) 0.9223(3) 0.5527(5)
H12 H 0.4542 0.9872 0.5635
C13 C 0.43255(14) 0.8525(3) 0.4340(4)
H13 H 0.4543 0.8712 0.3642
Se1A Se 0.585895(15) 0.74441(3) 0.42518(4)
P1A P 0.59775(3) 0.66151(6) 0.23210(7)
N1A N 0.54618(10) 0.57040(18) 0.1567(2)
H1A H 0.5278 0.5787 0.0665
C1A C 0.66603(12) 0.5840(2) 0.2661(3)
C2A C 0.71532(14) 0.6286(3) 0.3588(4)
H2A H 0.7129 0.6971 0.4031
C3A C 0.76817(15) 0.5716(4) 0.3856(4)
H3A H 0.8015 0.6029 0.4452
C4A C 0.77158(15) 0.4689(3) 0.3244(4)
H4A H 0.8067 0.4293 0.3455
C5A C 0.72271(16) 0.4248(3) 0.2315(4)
H5A H 0.7253 0.3560 0.1881
C6A C 0.67012(14) 0.4812(3) 0.2022(4)
H6A H 0.6373 0.4505 0.1397
C7A C 0.53178(12) 0.4761(2) 0.2427(3)
H7A H 0.5571 0.4780 0.3405
H8A H 0.5398 0.4077 0.1954
C8A C 0.59965(14) 0.7545(2) 0.0799(3)
C9A C 0.63205(19) 0.7283(3) -0.0243(4)
H9A H 0.6537 0.6629 -0.0153
C10A C 0.6324(2) 0.7985(4) -0.1414(4)
H10A H 0.6540 0.7800 -0.2115
C11A C 0.60091(19) 0.8957(4) -0.1546(4)
H11A H 0.6019 0.9436 -0.2326
C12A C 0.56789(17) 0.9223(3) -0.0527(5)
H12A H 0.5458 0.9872 -0.0635
C13A C 0.56745(14) 0.8525(3) 0.0660(4)
H13A H 0.5457 0.8712 0.1358
loop_
_geom_bond_atom_site_label_1
_geom_bond_atom_site_label_2
_geom_bond_site_symmetry_1
_geom_bond_site_symmetry_2
Se1 P1 1_555 1_555
P1 N1 1_555 1_555
N1 H1 1_555 1_555
C1 P1 1_555 1_555
C2 C1 1_555 1_555
H2 C2 1_555 1_555
C3 C2 1_555 1_555
H3 C3 1_555 1_555
C4 C3 1_555 1_555
H4 C4 1_555 1_555
C5 C4 1_555 1_555
H5 C5 1_555 1_555
C6 C1 1_555 1_555
H6 C6 1_555 1_555
C7 N1 1_555 1_555
H7 C7 1_555 1_555
H8 C7 1_555 1_555
C8 P1 1_555 1_555
C9 C8 1_555 1_555
H9 C9 1_555 1_555
C10 C9 1_555 1_555
H10 C10 1_555 1_555
C11 C10 1_555 1_555
H11 C11 1_555 1_555
C12 C11 1_555 1_555
H12 C12 1_555 1_555
C13 C8 1_555 1_555
H13 C13 1_555 1_555
Se1A P1A 1_555 1_555
P1A N1A 1_555 1_555
N1A H1A 1_555 1_555
C1A P1A 1_555 1_555
C2A C1A 1_555 1_555
H2A C2A 1_555 1_555
C3A C2A 1_555 1_555
H3A C3A 1_555 1_555
C4A C3A 1_555 1_555
H4A C4A 1_555 1_555
C5A C4A 1_555 1_555
H5A C5A 1_555 1_555
C6A C1A 1_555 1_555
H6A C6A 1_555 1_555
C7A C7 1_555 1_555
H7A C7A 1_555 1_555
H8A C7A 1_555 1_555
C8A P1A 1_555 1_555
C9A C8A 1_555 1_555
H9A C9A 1_555 1_555
C10A C9A 1_555 1_555
H10A C10A 1_555 1_555
C11A C10A 1_555 1_555
H11A C11A 1_555 1_555
C12A C11A 1_555 1_555
H12A C12A 1_555 1_555
C13A C8A 1_555 1_555
H13A C13A 1_555 1_555
C5 C6 1_555 1_555
C12 C13 1_555 1_555
N1A C7A 1_555 1_555
C5A C6A 1_555 1_555
C12A C13A 1_555 1_555

#END
