
#######################################################################
#
#                 Cambridge Crystallographic Data Centre
#                                CCDC 
#
#######################################################################
#
# If this CIF has been generated from an entry in the Cambridge 
# Structural Database, then it will include bibliographic, chemical, 
# crystal, experimental, refinement or atomic coordinate data resulting 
# from the CCDC's data processing and validation procedures.
#
#######################################################################

data_DIWQOR
_chemical_formula_moiety         'C23 H18'
_chemical_name_systematic        1-cyclopropyl-2-phenylanthracene
_symmetry_cell_setting           monoclinic
_symmetry_space_group_name_H-M   'C c'
_symmetry_Int_Tables_number      9
_space_group_name_Hall           'C -2yc'
loop_
_symmetry_equiv_pos_site_id
_symmetry_equiv_pos_as_xyz
1 x,y,z
2 x,-y,1/2+z
3 1/2+x,1/2+y,z
4 1/2+x,1/2-y,1/2+z
_cell_length_a                   13.2621(15)
_cell_length_b                   17.5448(19)
_cell_length_c                   7.8579(9)
_cell_angle_alpha                90
_cell_angle_beta                 117.509(2)
_cell_angle_gamma                90
_cell_volume                     1621.66
_exptl_crystal_colour            'light yellow'
_exptl_crystal_description       prismatic
_cell_formula_units_Z            4
loop_
_atom_site_label
_atom_site_type_symbol
_atom_site_fract_x
_atom_site_fract_y
_atom_site_fract_z
C1 C 0.18350(14) 0.36665(9) 0.2924(2)
C2 C 0.14690(16) 0.34507(11) 0.0991(2)
H1 H 0.1972 0.3210 0.0644
C3 C 0.03915(19) 0.35932(14) -0.0353(3)
H2 H 0.0165 0.3455 -0.1620
C4 C -0.03871(17) 0.39429(14) 0.0123(3)
H3 H -0.1125 0.4032 -0.0829
C5 C -0.00833(15) 0.41548(12) 0.1956(3)
H4 H -0.0614 0.4383 0.2257
C6 C 0.10500(13) 0.40273(10) 0.3423(2)
C7 C 0.14241(14) 0.42573(9) 0.5315(3)
H5 H 0.0915 0.4495 0.5651
C8 C 0.25362(14) 0.41414(8) 0.6713(2)
C9 C 0.33256(13) 0.37637(8) 0.6222(2)
C10 C 0.29460(13) 0.35349(8) 0.4337(2)
H6 H 0.3448 0.3286 0.4003
C11 C 0.29235(15) 0.43801(10) 0.8639(2)
H7 H 0.2429 0.4638 0.8976
C12 C 0.39928(16) 0.42397(9) 0.9982(2)
H8 H 0.4223 0.4404 1.1233
C13 C 0.47851(13) 0.38454(8) 0.9542(2)
C14 C 0.44727(12) 0.36235(8) 0.7690(2)
C15 C 0.52648(13) 0.32320(8) 0.7114(2)
H9 H 0.5173 0.2677 0.6983
C16 C 0.56003(16) 0.36031(10) 0.5729(3)
H10 H 0.5669 0.3281 0.4786
H11 H 0.5318 0.4113 0.5287
C17 C 0.64558(15) 0.35093(10) 0.7768(3)
H12 H 0.6694 0.3962 0.8565
H13 H 0.7046 0.3130 0.8064
C18 C 0.59259(14) 0.36886(8) 1.1167(2)
C19 C 0.63924(16) 0.29652(9) 1.1540(2)
H14 H 0.5988 0.2562 1.0751
C20 C 0.74462(18) 0.28333(12) 1.3060(3)
H15 H 0.7747 0.2343 1.3295
C21 C 0.8051(2) 0.34187(15) 1.4225(3)
H16 H 0.8772 0.3330 1.5233
C22 C 0.7599(2) 0.41327(14) 1.3909(3)
H17 H 0.8003 0.4530 1.4723
C23 C 0.65477(18) 0.42671(10) 1.2392(3)
H18 H 0.6249 0.4758 1.2186
loop_
_geom_bond_atom_site_label_1
_geom_bond_atom_site_label_2
_geom_bond_site_symmetry_1
_geom_bond_site_symmetry_2
C1 C2 1_555 1_555
C2 H1 1_555 1_555
C3 C2 1_555 1_555
H2 C3 1_555 1_555
C4 C3 1_555 1_555
H3 C4 1_555 1_555
C5 C4 1_555 1_555
H4 C5 1_555 1_555
C6 C1 1_555 1_555
C7 C6 1_555 1_555
H5 C7 1_555 1_555
C8 C7 1_555 1_555
C9 C8 1_555 1_555
C10 C1 1_555 1_555
H6 C10 1_555 1_555
C11 C8 1_555 1_555
H7 C11 1_555 1_555
C12 C11 1_555 1_555
H8 C12 1_555 1_555
C13 C12 1_555 1_555
C14 C9 1_555 1_555
C15 C14 1_555 1_555
H9 C15 1_555 1_555
C16 C15 1_555 1_555
H10 C16 1_555 1_555
H11 C16 1_555 1_555
C17 C15 1_555 1_555
H12 C17 1_555 1_555
H13 C17 1_555 1_555
C18 C13 1_555 1_555
C19 C18 1_555 1_555
H14 C19 1_555 1_555
C20 C19 1_555 1_555
H15 C20 1_555 1_555
C21 C20 1_555 1_555
H16 C21 1_555 1_555
C22 C21 1_555 1_555
H17 C22 1_555 1_555
C23 C18 1_555 1_555
H18 C23 1_555 1_555
C5 C6 1_555 1_555
C9 C10 1_555 1_555
C13 C14 1_555 1_555
C16 C17 1_555 1_555
C22 C23 1_555 1_555

#END
