
#######################################################################
#
#                 Cambridge Crystallographic Data Centre
#                                CCDC 
#
#######################################################################
#
# If this CIF has been generated from an entry in the Cambridge 
# Structural Database, then it will include bibliographic, chemical, 
# crystal, experimental, refinement or atomic coordinate data resulting 
# from the CCDC's data processing and validation procedures.
#
#######################################################################

data_DIWQIK
_chemical_name_common            Trichodermin
_chemical_formula_moiety         'C17 H24 O4'
_chemical_name_systematic        4\b-Acetoxy-12,13-epoxytrichothec-9-ene
_chemical_properties_biological  
'potent inhibitor of protein synthesis in mammalian cells'
_symmetry_cell_setting           orthorhombic
_symmetry_space_group_name_H-M   'P 21 21 21'
_symmetry_Int_Tables_number      19
_space_group_name_Hall           'P 2ac 2ab'
loop_
_symmetry_equiv_pos_site_id
_symmetry_equiv_pos_as_xyz
1 x,y,z
2 1/2+x,1/2-y,-z
3 -x,1/2+y,1/2-z
4 1/2-x,-y,1/2+z
_cell_length_a                   7.0127(3)
_cell_length_b                   8.4102(3)
_cell_length_c                   26.2786(10)
_cell_angle_alpha                90
_cell_angle_beta                 90
_cell_angle_gamma                90
_cell_volume                     1549.86
_exptl_crystal_colour            colorless
_exptl_crystal_description       chunk
_chemical_melting_point          '319-320 K'
_cell_formula_units_Z            4
_exptl_crystal_recrystallization_method n-hexane
loop_
_atom_site_label
_atom_site_type_symbol
_atom_site_fract_x
_atom_site_fract_y
_atom_site_fract_z
C1 C 0.6512(4) 0.9319(2) 0.36688(10)
H1 H 0.6793 1.0017 0.3390
H2 H 0.7086 0.9727 0.3974
H3 H 0.5156 0.9253 0.3714
C2 C 0.4588(3) 0.6081(3) 0.39880(9)
H4 H 0.3918 0.7071 0.4051
H5 H 0.4180 0.5680 0.3660
C3 C 0.4061(3) 0.4884(3) 0.43987(9)
H6 H 0.4140 0.5397 0.4729
H7 H 0.2752 0.4548 0.4348
C4 C 0.4905(3) 0.7268(3) 0.27735(9)
H8 H 0.4452 0.6423 0.2553
H9 H 0.3912 0.7860 0.2947
O1 O 0.6596(2) 0.81223(19) 0.26194(6)
C5 C 0.7438(4) 0.6934(3) 0.45039(7)
H10 H 0.6641 0.7780 0.4626
H11 H 0.8732 0.7299 0.4482
H12 H 0.7369 0.6051 0.4735
C6 C 0.7308(3) 0.7668(2) 0.35565(7)
C7 C 1.1534(4) 1.1714(3) 0.34760(9)
H13 H 1.2106 1.2347 0.3739
H14 H 1.0445 1.2262 0.3341
H15 H 1.2444 1.1536 0.3209
C8 C 0.6749(3) 0.6406(2) 0.39726(7)
C9 C 0.6697(3) 0.7020(2) 0.30416(7)
C10 C 0.5325(3) 0.3449(2) 0.43982(8)
C11 C 0.4718(4) 0.2079(3) 0.47267(9)
H16 H 0.5618 0.1226 0.4692
H17 H 0.3478 0.1721 0.4622
H18 H 0.4669 0.2415 0.5076
O2 O 1.0964(3) 0.9811(2) 0.41353(6)
C12 C 1.0918(3) 1.0153(2) 0.36930(9)
O3 O 1.0281(2) 0.91593(16) 0.33263(5)
C13 C 0.9533(3) 0.7633(2) 0.34927(8)
H19 H 1.0141 0.7309 0.3812
C14 C 0.7705(3) 0.4800(2) 0.38357(7)
H20 H 0.9069 0.4892 0.3911
C15 C 0.6935(3) 0.3431(2) 0.41348(8)
H21 H 0.7641 0.2495 0.4136
C16 C 0.8015(3) 0.5625(2) 0.29623(7)
H22 H 0.7955 0.5252 0.2609
O4 O 0.7508(2) 0.43802(14) 0.33066(5)
C17 C 0.9936(3) 0.6396(2) 0.30725(8)
H23 H 1.0438 0.6907 0.2770
H24 H 1.0849 0.5610 0.3189
loop_
_geom_bond_atom_site_label_1
_geom_bond_atom_site_label_2
_geom_bond_site_symmetry_1
_geom_bond_site_symmetry_2
C1 H1 1_555 1_555
H2 C1 1_555 1_555
H3 C1 1_555 1_555
C2 H4 1_555 1_555
H5 C2 1_555 1_555
C3 C2 1_555 1_555
H6 C3 1_555 1_555
H7 C3 1_555 1_555
C4 H8 1_555 1_555
H9 C4 1_555 1_555
O1 C4 1_555 1_555
C5 H10 1_555 1_555
H11 C5 1_555 1_555
H12 C5 1_555 1_555
C6 C1 1_555 1_555
C7 H13 1_555 1_555
H14 C7 1_555 1_555
H15 C7 1_555 1_555
C8 C2 1_555 1_555
C9 C4 1_555 1_555
C10 C3 1_555 1_555
C11 C10 1_555 1_555
H16 C11 1_555 1_555
H17 C11 1_555 1_555
H18 C11 1_555 1_555
O2 C12 1_555 1_555
C12 C7 1_555 1_555
O3 C12 1_555 1_555
C13 C6 1_555 1_555
H19 C13 1_555 1_555
C14 C8 1_555 1_555
H20 C14 1_555 1_555
C15 C10 1_555 1_555
H21 C15 1_555 1_555
C16 C9 1_555 1_555
H22 C16 1_555 1_555
O4 C14 1_555 1_555
C17 C13 1_555 1_555
H23 C17 1_555 1_555
H24 C17 1_555 1_555
O1 C9 1_555 1_555
C5 C8 1_555 1_555
C6 C8 1_555 1_555
C6 C9 1_555 1_555
O3 C13 1_555 1_555
C14 C15 1_555 1_555
C16 O4 1_555 1_555
C16 C17 1_555 1_555

#END
