
#######################################################################
#
#                 Cambridge Crystallographic Data Centre
#                                CCDC 
#
#######################################################################
#
# If this CIF has been generated from an entry in the Cambridge 
# Structural Database, then it will include bibliographic, chemical, 
# crystal, experimental, refinement or atomic coordinate data resulting 
# from the CCDC's data processing and validation procedures.
#
#######################################################################

data_DIWQIL
_chemical_formula_moiety         'C30 H28 O5'
_chemical_name_systematic        
11,11-bis(3,5-dimethoxyphenyl)-15-oxatetracyclo[10.2.1.0^1,10^.0^3,8^]pentadeca-3,5,7,9,13-pentaene
_symmetry_cell_setting           triclinic
_symmetry_space_group_name_H-M   'P -1'
_symmetry_Int_Tables_number      2
_space_group_name_Hall           '-P 1'
loop_
_symmetry_equiv_pos_site_id
_symmetry_equiv_pos_as_xyz
1 x,y,z
2 -x,-y,-z
_cell_length_a                   7.3809(8)
_cell_length_b                   10.0988(11)
_cell_length_c                   17.2264(19)
_cell_angle_alpha                95.408(2)
_cell_angle_beta                 101.204(2)
_cell_angle_gamma                100.723(2)
_cell_volume                     1226.18
_exptl_crystal_colour            colorless
_exptl_crystal_description       prismatic
_cell_formula_units_Z            2
loop_
_atom_site_label
_atom_site_type_symbol
_atom_site_fract_x
_atom_site_fract_y
_atom_site_fract_z
O1 O -0.30007(16) 0.54372(13) 0.22132(8)
O2 O -0.3257(2) 1.00210(16) 0.13190(11)
O3 O 0.3202(2) 1.13156(16) 0.26198(12)
O4 O 0.1667(2) 0.9005(2) 0.56124(10)
O5 O 0.5894(2) 0.64774(18) 0.46046(9)
C1 C -0.0092(2) 0.68359(17) 0.28942(10)
C2 C -0.2070(3) 0.60445(19) 0.30129(11)
H1 H -0.2775 0.6604 0.3282
C3 C -0.1702(3) 0.4812(2) 0.33994(12)
H2 H -0.1691 0.4681 0.3927
C4 C -0.1402(3) 0.3960(2) 0.28343(12)
H3 H -0.1130 0.3105 0.2883
C5 C -0.1591(2) 0.46550(18) 0.20889(11)
C6 C 0.0160(2) 0.57980(17) 0.22389(10)
C7 C 0.1439(2) 0.58209(18) 0.17952(11)
H4 H 0.2469 0.6549 0.1898
C8 C 0.1275(3) 0.47300(19) 0.11462(11)
C9 C -0.0410(3) 0.37370(19) 0.09048(11)
C10 C -0.2100(3) 0.3853(2) 0.12620(12)
H5 H -0.2937 0.4285 0.0912
H6 H -0.2786 0.2946 0.1287
C11 C 0.2760(3) 0.4639(2) 0.07712(12)
H7 H 0.3878 0.5291 0.0930
C12 C 0.2603(4) 0.3597(3) 0.01667(14)
H8 H 0.3607 0.3551 -0.0081
C13 C 0.0956(4) 0.2628(3) -0.00681(14)
H9 H 0.0843 0.1926 -0.0477
C14 C -0.0531(3) 0.2696(2) 0.03027(12)
H10 H -0.1633 0.2029 0.0145
C15 C -0.0164(2) 0.81879(17) 0.25579(10)
C16 C -0.1798(3) 0.84288(18) 0.20800(11)
H11 H -0.2911 0.7770 0.1963
C17 C -0.1741(3) 0.96564(19) 0.17839(12)
C18 C -0.0091(3) 1.0654(2) 0.19386(12)
H12 H -0.0069 1.1469 0.1728
C19 C 0.1505(3) 1.0407(2) 0.24095(13)
C20 C 0.1472(3) 0.91839(19) 0.27166(13)
H13 H 0.2566 0.9031 0.3034
C21 C -0.5050(3) 0.9163(3) 0.1217(2)
H14 H -0.5057 0.8300 0.0930
H15 H -0.5991 0.9573 0.0922
H16 H -0.5322 0.9033 0.1731
C22 C 0.3336(4) 1.2563(3) 0.2295(2)
H17 H 0.3043 1.2380 0.1722
H18 H 0.4597 1.3096 0.2476
H19 H 0.2460 1.3056 0.2467
C23 C 0.1348(2) 0.70998(17) 0.36904(10)
C24 C 0.0947(3) 0.7884(2) 0.43150(12)
H20 H -0.0183 0.8186 0.4242
C25 C 0.2200(3) 0.8219(2) 0.50406(12)
C26 C 0.3892(3) 0.7763(2) 0.51699(12)
H21 H 0.4736 0.7982 0.5662
C27 C 0.4278(3) 0.6978(2) 0.45481(12)
C28 C 0.3018(2) 0.66363(19) 0.38089(11)
H22 H 0.3297 0.6100 0.3397
C29 C 0.3002(4) 0.9647(3) 0.62881(15)
H23 H 0.3458 0.8976 0.6587
H24 H 0.2438 1.0204 0.6613
H25 H 0.4037 1.0207 0.6132
C30 C 0.7177(3) 0.6722(3) 0.53561(15)
H26 H 0.7680 0.7681 0.5496
H27 H 0.8190 0.6258 0.5326
H28 H 0.6530 0.6392 0.5755
loop_
_geom_bond_atom_site_label_1
_geom_bond_atom_site_label_2
_geom_bond_site_symmetry_1
_geom_bond_site_symmetry_2
O1 C2 1_555 1_555
O2 C17 1_555 1_555
O3 C19 1_555 1_555
O4 C25 1_555 1_555
O5 C27 1_555 1_555
C1 C2 1_555 1_555
C2 H1 1_555 1_555
C3 C2 1_555 1_555
H2 C3 1_555 1_555
C4 C3 1_555 1_555
H3 C4 1_555 1_555
C5 O1 1_555 1_555
C6 C1 1_555 1_555
C7 C6 1_555 1_555
H4 C7 1_555 1_555
C8 C7 1_555 1_555
C9 C8 1_555 1_555
C10 C5 1_555 1_555
H5 C10 1_555 1_555
H6 C10 1_555 1_555
C11 C8 1_555 1_555
H7 C11 1_555 1_555
C12 C11 1_555 1_555
H8 C12 1_555 1_555
C13 C12 1_555 1_555
H9 C13 1_555 1_555
C14 C9 1_555 1_555
H10 C14 1_555 1_555
C15 C1 1_555 1_555
C16 C15 1_555 1_555
H11 C16 1_555 1_555
C17 C16 1_555 1_555
C18 C17 1_555 1_555
H12 C18 1_555 1_555
C19 C18 1_555 1_555
C20 C15 1_555 1_555
H13 C20 1_555 1_555
C21 O2 1_555 1_555
H14 C21 1_555 1_555
H15 C21 1_555 1_555
H16 C21 1_555 1_555
C22 O3 1_555 1_555
H17 C22 1_555 1_555
H18 C22 1_555 1_555
H19 C22 1_555 1_555
C23 C1 1_555 1_555
C24 C23 1_555 1_555
H20 C24 1_555 1_555
C25 C24 1_555 1_555
C26 C25 1_555 1_555
H21 C26 1_555 1_555
C27 C26 1_555 1_555
C28 C23 1_555 1_555
H22 C28 1_555 1_555
C29 O4 1_555 1_555
H23 C29 1_555 1_555
H24 C29 1_555 1_555
H25 C29 1_555 1_555
C30 O5 1_555 1_555
H26 C30 1_555 1_555
H27 C30 1_555 1_555
H28 C30 1_555 1_555
C4 C5 1_555 1_555
C5 C6 1_555 1_555
C9 C10 1_555 1_555
C13 C14 1_555 1_555
C19 C20 1_555 1_555
C27 C28 1_555 1_555

#END
