
#######################################################################
#
#                 Cambridge Crystallographic Data Centre
#                                CCDC 
#
#######################################################################
#
# If this CIF has been generated from an entry in the Cambridge 
# Structural Database, then it will include bibliographic, chemical, 
# crystal, experimental, refinement or atomic coordinate data resulting 
# from the CCDC's data processing and validation procedures.
#
#######################################################################

data_DIWROS
_chemical_formula_moiety         'C18 H11 Cl1 N2'
_chemical_name_systematic        
2-(4-chlorophenyl)-4-ethynyl-5-phenylpyrimidine
_symmetry_cell_setting           monoclinic
_symmetry_space_group_name_H-M   'P 21/c'
_symmetry_Int_Tables_number      14
_space_group_name_Hall           '-P 2ybc'
loop_
_symmetry_equiv_pos_site_id
_symmetry_equiv_pos_as_xyz
1 x,y,z
2 -x,1/2+y,1/2-z
3 -x,-y,-z
4 x,1/2-y,1/2+z
_cell_length_a                   3.8578(2)
_cell_length_b                   19.4092(8)
_cell_length_c                   17.8001(7)
_cell_angle_alpha                90
_cell_angle_beta                 94.279(4)
_cell_angle_gamma                90
_cell_volume                     1329.1
_exptl_crystal_colour            white
_exptl_crystal_description       needle
_cell_formula_units_Z            4
loop_
_atom_site_label
_atom_site_type_symbol
_atom_site_fract_x
_atom_site_fract_y
_atom_site_fract_z
Cl1 Cl 0.11884(9) 0.419950(17) 0.556141(18)
C1 C 0.2718(4) 0.46342(7) 0.63772(8)
C2 C 0.2300(4) 0.43347(7) 0.70737(8)
H1 H 0.1215 0.3909 0.7105
C3 C 0.3528(4) 0.46809(7) 0.77220(8)
H2 H 0.3242 0.4487 0.8191
C4 C 0.5186(4) 0.53169(7) 0.76789(8)
C5 C 0.5530(4) 0.56099(7) 0.69695(8)
H3 H 0.6591 0.6038 0.6935
C6 C 0.4309(4) 0.52704(7) 0.63183(8)
H4 H 0.4554 0.5466 0.5848
C7 C 0.6571(4) 0.56856(7) 0.83662(8)
N1 N 0.6127(3) 0.53920(6) 0.90398(7)
C8 C 0.7215(4) 0.57602(7) 0.96461(8)
H5 H 0.6928 0.5572 1.0118
C9 C 0.8756(4) 0.64095(7) 0.96164(8)
C10 C 0.9287(4) 0.66403(7) 0.88836(8)
C11 C 1.1137(4) 0.72674(7) 0.87495(8)
C12 C 1.2751(4) 0.77765(7) 0.86345(8)
H6 H 1.4009 0.8173 0.8545
N2 N 0.8186(3) 0.62836(6) 0.82653(7)
C13 C 0.9715(4) 0.68142(7) 1.03056(8)
C14 C 1.1338(4) 0.65006(7) 1.09460(8)
H7 H 1.1841 0.6032 1.0940
C15 C 1.2202(4) 0.68857(8) 1.15898(8)
H8 H 1.3284 0.6673 1.2013
C16 C 1.1464(4) 0.75883(8) 1.16085(8)
H9 H 1.2054 0.7845 1.2040
C17 C 0.9835(4) 0.78988(8) 1.09737(8)
H10 H 0.9337 0.8367 1.0981
C18 C 0.8943(4) 0.75179(7) 1.03288(8)
H11 H 0.7826 0.7731 0.9910
loop_
_geom_bond_atom_site_label_1
_geom_bond_atom_site_label_2
_geom_bond_site_symmetry_1
_geom_bond_site_symmetry_2
Cl1 C1 1_555 1_555
C1 C2 1_555 1_555
C2 H1 1_555 1_555
C3 C2 1_555 1_555
H2 C3 1_555 1_555
C4 C3 1_555 1_555
C5 C4 1_555 1_555
H3 C5 1_555 1_555
C6 C1 1_555 1_555
H4 C6 1_555 1_555
C7 C4 1_555 1_555
N1 C7 1_555 1_555
C8 N1 1_555 1_555
H5 C8 1_555 1_555
C9 C8 1_555 1_555
C10 C9 1_555 1_555
C11 C10 1_555 1_555
C12 C11 1_555 1_555
H6 C12 1_555 1_555
N2 C7 1_555 1_555
C13 C9 1_555 1_555
C14 C13 1_555 1_555
H7 C14 1_555 1_555
C15 C14 1_555 1_555
H8 C15 1_555 1_555
C16 C15 1_555 1_555
H9 C16 1_555 1_555
C17 C16 1_555 1_555
H10 C17 1_555 1_555
C18 C13 1_555 1_555
H11 C18 1_555 1_555
C5 C6 1_555 1_555
C10 N2 1_555 1_555
C17 C18 1_555 1_555

#END
