
#######################################################################
#
#                 Cambridge Crystallographic Data Centre
#                                CCDC 
#
#######################################################################
#
# If this CIF has been generated from an entry in the Cambridge 
# Structural Database, then it will include bibliographic, chemical, 
# crystal, experimental, refinement or atomic coordinate data resulting 
# from the CCDC's data processing and validation procedures.
#
#######################################################################

data_DIWRAE
_chemical_formula_moiety         'C24 H22'
_chemical_name_systematic        1-butyl-2-phenylanthracene
_symmetry_cell_setting           monoclinic
_symmetry_space_group_name_H-M   'P c'
_symmetry_Int_Tables_number      7
_space_group_name_Hall           'P -2yc'
loop_
_symmetry_equiv_pos_site_id
_symmetry_equiv_pos_as_xyz
1 x,y,z
2 x,-y,1/2+z
_cell_length_a                   5.9284(12)
_cell_length_b                   18.307(4)
_cell_length_c                   16.375(4)
_cell_angle_alpha                90
_cell_angle_beta                 90.258(5)
_cell_angle_gamma                90
_cell_volume                     1777.18
_cell_formula_units_Z            4
loop_
_atom_site_label
_atom_site_type_symbol
_atom_site_fract_x
_atom_site_fract_y
_atom_site_fract_z
C1 C 0.2925(5) 0.22897(18) 0.62941(18)
C2 C 0.3313(5) 0.30671(18) 0.64275(18)
C3 C 0.1774(5) 0.36025(18) 0.61724(19)
H1 H 0.0488 0.3458 0.5888
C4 C 0.2104(5) 0.43488(18) 0.63311(18)
C5 C 0.0546(6) 0.4890(2) 0.6080(2)
H2 H -0.0746 0.4751 0.5796
C6 C 0.0892(6) 0.5607(2) 0.6243(2)
H3 H -0.0177 0.5949 0.6081
C7 C 0.2874(8) 0.5841(2) 0.6661(3)
H4 H 0.3115 0.6335 0.6759
C8 C 0.4415(6) 0.5338(2) 0.6915(2)
H5 H 0.5700 0.5494 0.7192
C9 C 0.4104(6) 0.45739(18) 0.6766(2)
C10 C 0.5619(5) 0.4041(2) 0.70193(19)
H6 H 0.6914 0.4185 0.7298
C11 C 0.5276(5) 0.33016(18) 0.68723(19)
C12 C 0.6784(5) 0.2762(2) 0.7176(2)
H7 H 0.8110 0.2903 0.7438
C13 C 0.6304(5) 0.2043(2) 0.7088(2)
H8 H 0.7268 0.1700 0.7322
C14 C 0.4376(5) 0.17949(18) 0.6652(2)
C15 C 0.4043(5) 0.09807(17) 0.6623(2)
C16 C 0.2195(6) 0.0644(2) 0.6988(2)
H9 H 0.1088 0.0931 0.7230
C17 C 0.1981(8) -0.0104(2) 0.6997(3)
H10 H 0.0743 -0.0320 0.7247
C18 C 0.3599(9) -0.0533(2) 0.6636(3)
H11 H 0.3459 -0.1039 0.6642
C19 C 0.5406(8) -0.0216(2) 0.6269(3)
H12 H 0.6480 -0.0506 0.6014
C20 C 0.5657(7) 0.0535(2) 0.6272(2)
H13 H 0.6927 0.0744 0.6035
C21 C 0.1100(5) 0.20532(18) 0.5704(2)
H14 H -0.0295 0.2301 0.5840
H15 H 0.0851 0.1532 0.5762
C22 C 0.1703(6) 0.2221(2) 0.4817(2)
H16 H 0.0513 0.2036 0.4465
H17 H 0.1765 0.2747 0.4747
C23 C 0.3946(7) 0.1893(2) 0.4546(2)
H18 H 0.5157 0.2133 0.4843
H19 H 0.3970 0.1380 0.4693
C24 C 0.4393(9) 0.1960(3) 0.3650(3)
H20 H 0.3237 0.1709 0.3349
H21 H 0.5834 0.1749 0.3527
H22 H 0.4396 0.2467 0.3498
C25 C 0.7872(5) 0.74575(17) 0.44750(18)
C26 C 0.8205(5) 0.66910(17) 0.42949(18)
C27 C 0.6686(5) 0.61482(18) 0.45391(19)
H23 H 0.5413 0.6286 0.4831
C28 C 0.7008(5) 0.53959(18) 0.43591(18)
C29 C 0.5451(6) 0.48538(19) 0.4606(2)
H24 H 0.4142 0.4987 0.4880
C30 C 0.5870(6) 0.4133(2) 0.4444(2)
H25 H 0.4857 0.3778 0.4618
C31 C 0.7825(7) 0.3922(2) 0.4013(2)
H26 H 0.8073 0.3430 0.3903
C32 C 0.9330(7) 0.4420(2) 0.3760(2)
H27 H 1.0607 0.4271 0.3476
C33 C 0.8969(5) 0.51833(19) 0.3926(2)
C34 C 1.0503(5) 0.57225(19) 0.3682(2)
H28 H 1.1790 0.5583 0.3399
C35 C 1.0160(5) 0.64667(18) 0.38507(18)
C36 C 1.1675(5) 0.70156(19) 0.35635(19)
H29 H 1.2980 0.6880 0.3290
C37 C 1.1228(5) 0.7725(2) 0.3686(2)
H30 H 1.2203 0.8074 0.3473
C38 C 0.9307(5) 0.79595(18) 0.41320(19)
C39 C 0.9016(5) 0.87742(18) 0.4209(2)
C40 C 0.7158(6) 0.91346(19) 0.3879(2)
H31 H 0.6017 0.8864 0.3632
C41 C 0.6969(7) 0.9887(2) 0.3911(3)
H32 H 0.5719 1.0121 0.3686
C42 C 0.8660(9) 1.0287(2) 0.4280(3)
H33 H 0.8563 1.0794 0.4293
C43 C 1.0446(8) 0.9952(2) 0.4620(3)
H34 H 1.1532 1.0228 0.4891
C44 C 1.0691(6) 0.9204(2) 0.4571(3)
H35 H 1.1982 0.8983 0.4781
C45 C 0.6059(5) 0.76810(18) 0.5072(2)
H36 H 0.4658 0.7440 0.4925
H37 H 0.5819 0.8204 0.5031
C46 C 0.6673(6) 0.7485(2) 0.5966(2)
H38 H 0.5503 0.7674 0.6321
H39 H 0.6677 0.6958 0.6021
C47 C 0.8902(8) 0.7772(3) 0.6257(3)
H40 H 1.0085 0.7558 0.5926
H41 H 0.8937 0.8296 0.6171
C48 C 0.9402(10) 0.7619(4) 0.7134(3)
H42 H 0.8495 0.7930 0.7471
H43 H 1.0969 0.7711 0.7242
H44 H 0.9063 0.7117 0.7252
loop_
_geom_bond_atom_site_label_1
_geom_bond_atom_site_label_2
_geom_bond_site_symmetry_1
_geom_bond_site_symmetry_2
C1 C2 1_555 1_555
C2 C3 1_555 1_555
C3 H1 1_555 1_555
C4 C3 1_555 1_555
C5 C4 1_555 1_555
H2 C5 1_555 1_555
C6 C5 1_555 1_555
H3 C6 1_555 1_555
C7 C6 1_555 1_555
H4 C7 1_555 1_555
C8 C7 1_555 1_555
H5 C8 1_555 1_555
C9 C4 1_555 1_555
C10 C9 1_555 1_555
H6 C10 1_555 1_555
C11 C2 1_555 1_555
C12 C11 1_555 1_555
H7 C12 1_555 1_555
C13 C12 1_555 1_555
H8 C13 1_555 1_555
C14 C1 1_555 1_555
C15 C14 1_555 1_555
C16 C15 1_555 1_555
H9 C16 1_555 1_555
C17 C16 1_555 1_555
H10 C17 1_555 1_555
C18 C17 1_555 1_555
H11 C18 1_555 1_555
C19 C18 1_555 1_555
H12 C19 1_555 1_555
C20 C15 1_555 1_555
H13 C20 1_555 1_555
C21 C1 1_555 1_555
H14 C21 1_555 1_555
H15 C21 1_555 1_555
C22 C21 1_555 1_555
H16 C22 1_555 1_555
H17 C22 1_555 1_555
C23 C22 1_555 1_555
H18 C23 1_555 1_555
H19 C23 1_555 1_555
C24 C23 1_555 1_555
H20 C24 1_555 1_555
H21 C24 1_555 1_555
H22 C24 1_555 1_555
C25 C26 1_555 1_555
C26 C27 1_555 1_555
C27 H23 1_555 1_555
C28 C27 1_555 1_555
C29 C28 1_555 1_555
H24 C29 1_555 1_555
C30 C29 1_555 1_555
H25 C30 1_555 1_555
C31 C30 1_555 1_555
H26 C31 1_555 1_555
C32 C31 1_555 1_555
H27 C32 1_555 1_555
C33 C28 1_555 1_555
C34 C33 1_555 1_555
H28 C34 1_555 1_555
C35 C26 1_555 1_555
C36 C35 1_555 1_555
H29 C36 1_555 1_555
C37 C36 1_555 1_555
H30 C37 1_555 1_555
C38 C25 1_555 1_555
C39 C38 1_555 1_555
C40 C39 1_555 1_555
H31 C40 1_555 1_555
C41 C40 1_555 1_555
H32 C41 1_555 1_555
C42 C41 1_555 1_555
H33 C42 1_555 1_555
C43 C42 1_555 1_555
H34 C43 1_555 1_555
C44 C39 1_555 1_555
H35 C44 1_555 1_555
C45 C25 1_555 1_555
H36 C45 1_555 1_555
H37 C45 1_555 1_555
C46 C45 1_555 1_555
H38 C46 1_555 1_555
H39 C46 1_555 1_555
C47 C46 1_555 1_555
H40 C47 1_555 1_555
H41 C47 1_555 1_555
C48 C47 1_555 1_555
H42 C48 1_555 1_555
H43 C48 1_555 1_555
H44 C48 1_555 1_555
C8 C9 1_555 1_555
C10 C11 1_555 1_555
C13 C14 1_555 1_555
C19 C20 1_555 1_555
C32 C33 1_555 1_555
C34 C35 1_555 1_555
C37 C38 1_555 1_555
C43 C44 1_555 1_555

#END
