
#######################################################################
#
#                 Cambridge Crystallographic Data Centre
#                                CCDC 
#
#######################################################################
#
# If this CIF has been generated from an entry in the Cambridge 
# Structural Database, then it will include bibliographic, chemical, 
# crystal, experimental, refinement or atomic coordinate data resulting 
# from the CCDC's data processing and validation procedures.
#
#######################################################################

data_DIWSUA
_chemical_formula_moiety         'C12 H15 N1 O3'
_chemical_name_systematic        
3-hydroxy-5-(2-hydroxy-2-phenylethyl)pyrrolidin-2-one
_symmetry_cell_setting           monoclinic
_symmetry_space_group_name_H-M   'P 21'
_symmetry_Int_Tables_number      4
_space_group_name_Hall           'P 2yb'
loop_
_symmetry_equiv_pos_site_id
_symmetry_equiv_pos_as_xyz
1 x,y,z
2 -x,1/2+y,-z
_cell_length_a                   14.0078(4)
_cell_length_b                   5.6647(2)
_cell_length_c                   14.2081(4)
_cell_angle_alpha                90
_cell_angle_beta                 97.6230(10)
_cell_angle_gamma                90
_cell_volume                     1117.45
_exptl_crystal_colour            colorless
_exptl_crystal_description       prismatic
_cell_formula_units_Z            4
loop_
_atom_site_label
_atom_site_type_symbol
_atom_site_fract_x
_atom_site_fract_y
_atom_site_fract_z
N1 N 0.12010(13) 0.7566(4) 0.24043(12)
O1 O 0.03597(13) 0.6443(3) 0.09936(11)
O2 O 0.11941(11) 1.0726(3) 0.03137(10)
H1 H 0.0694 1.1102 -0.0020
O3 O 0.21376(14) 0.5131(3) 0.39708(11)
H2 H 0.1871 0.4368 0.4351
C1 C 0.08097(14) 0.7919(4) 0.15095(14)
C2 C 0.10157(15) 1.0466(4) 0.12602(14)
H3 H 0.0471 1.1466 0.1371
C3 C 0.18841(15) 1.1062(4) 0.19805(14)
H4 H 0.1910 1.2738 0.2121
H5 H 0.2479 1.0590 0.1754
C4 C 0.17071(15) 0.9622(4) 0.28534(14)
H6 H 0.1267 1.0499 0.3206
C5 C 0.26010(15) 0.8957(5) 0.35275(14)
H7 H 0.2919 1.0388 0.3778
H8 H 0.3042 0.8119 0.3175
C6 C 0.23825(15) 0.7417(5) 0.43549(14)
H9 H 0.1821 0.8072 0.4608
C7 C 0.32150(16) 0.7284(5) 0.51529(14)
C8 C 0.3301(2) 0.8968(6) 0.58535(18)
H10 H 0.2856 1.0192 0.5826
C9 C 0.4041(3) 0.8864(8) 0.6598(2)
H11 H 0.4087 1.0003 0.7073
C10 C 0.4709(3) 0.7076(8) 0.6638(2)
H12 H 0.5215 0.7019 0.7133
C11 C 0.4628(2) 0.5406(7) 0.5955(3)
H13 H 0.5074 0.4184 0.5985
C12 C 0.38833(19) 0.5499(5) 0.5208(2)
H14 H 0.3836 0.4341 0.4739
H15 H 0.1182(19) 0.632(6) 0.2717(18)
N2 N 0.11105(14) 0.1127(3) 0.74769(12)
O4 O 0.03153(13) -0.1085(3) 0.62791(11)
O5 O 0.10226(12) 0.2561(4) 0.50980(10)
H16 H 0.0557 0.2948 0.4718
O6 O 0.14210(11) 0.7349(3) 0.89201(10)
H17 H 0.1461 0.8049 0.9429
C13 C 0.07140(15) 0.0756(4) 0.65838(14)
C14 C 0.08275(16) 0.3016(4) 0.60309(14)
H18 H 0.0230 0.3930 0.5998
C15 C 0.16152(17) 0.4314(4) 0.66567(14)
H19 H 0.1562 0.6008 0.6566
H20 H 0.2249 0.3798 0.6540
C16 C 0.14090(16) 0.3592(4) 0.76459(14)
H21 H 0.0852 0.4494 0.7796
C17 C 0.22165(16) 0.3864(4) 0.84668(15)
H22 H 0.2814 0.3296 0.8272
H23 H 0.2075 0.2903 0.8996
C18 C 0.23452(15) 0.6428(4) 0.87900(15)
H24 H 0.2580 0.7323 0.8277
C19 C 0.30616(15) 0.6748(4) 0.96763(15)
C20 C 0.37403(18) 0.8526(5) 0.97243(19)
H25 H 0.3777 0.9485 0.9199
C21 C 0.4368(2) 0.8892(6) 1.0551(2)
H26 H 0.4824 1.0092 1.0576
C22 C 0.43221(19) 0.7511(6) 1.1328(2)
H27 H 0.4749 0.7758 1.1878
C23 C 0.3644(2) 0.5749(6) 1.12959(19)
H28 H 0.3608 0.4809 1.1827
C24 C 0.30156(19) 0.5375(5) 1.04734(17)
H29 H 0.2556 0.4186 1.0456
H30 H 0.1060(19) 0.010(6) 0.7954(19)
loop_
_geom_bond_atom_site_label_1
_geom_bond_atom_site_label_2
_geom_bond_site_symmetry_1
_geom_bond_site_symmetry_2
N1 C1 1_555 1_555
O1 C1 1_555 1_555
O2 H1 1_555 1_555
O3 H2 1_555 1_555
C1 C2 1_555 1_555
C2 O2 1_555 1_555
H3 C2 1_555 1_555
C3 C2 1_555 1_555
H4 C3 1_555 1_555
H5 C3 1_555 1_555
C4 N1 1_555 1_555
H6 C4 1_555 1_555
C5 C4 1_555 1_555
H7 C5 1_555 1_555
H8 C5 1_555 1_555
C6 O3 1_555 1_555
H9 C6 1_555 1_555
C7 C6 1_555 1_555
C8 C7 1_555 1_555
H10 C8 1_555 1_555
C9 C8 1_555 1_555
H11 C9 1_555 1_555
C10 C9 1_555 1_555
H12 C10 1_555 1_555
C11 C10 1_555 1_555
H13 C11 1_555 1_555
C12 C7 1_555 1_555
H14 C12 1_555 1_555
H15 N1 1_555 1_555
N2 C13 1_555 1_555
O4 C13 1_555 1_555
O5 H16 1_555 1_555
O6 H17 1_555 1_555
C13 C14 1_555 1_555
C14 O5 1_555 1_555
H18 C14 1_555 1_555
C15 C14 1_555 1_555
H19 C15 1_555 1_555
H20 C15 1_555 1_555
C16 N2 1_555 1_555
H21 C16 1_555 1_555
C17 C16 1_555 1_555
H22 C17 1_555 1_555
H23 C17 1_555 1_555
C18 O6 1_555 1_555
H24 C18 1_555 1_555
C19 C18 1_555 1_555
C20 C19 1_555 1_555
H25 C20 1_555 1_555
C21 C20 1_555 1_555
H26 C21 1_555 1_555
C22 C21 1_555 1_555
H27 C22 1_555 1_555
C23 C22 1_555 1_555
H28 C23 1_555 1_555
C24 C19 1_555 1_555
H29 C24 1_555 1_555
H30 N2 1_555 1_555
C3 C4 1_555 1_555
C5 C6 1_555 1_555
C11 C12 1_555 1_555
C15 C16 1_555 1_555
C17 C18 1_555 1_555
C23 C24 1_555 1_555

#END
