
#######################################################################
#
#                 Cambridge Crystallographic Data Centre
#                                CCDC 
#
#######################################################################
#
# If this CIF has been generated from an entry in the Cambridge 
# Structural Database, then it will include bibliographic, chemical, 
# crystal, experimental, refinement or atomic coordinate data resulting 
# from the CCDC's data processing and validation procedures.
#
#######################################################################

data_DIWSEJ
_chemical_formula_moiety         'C26 H30 N2 O1 S1'
_chemical_name_systematic        
5,5-bis(4-(dimethylamino)phenyl)-2-methyl-1-(2-thienyl)pent-4-en-1-one
_symmetry_cell_setting           monoclinic
_symmetry_space_group_name_H-M   'P 21'
_symmetry_Int_Tables_number      4
_space_group_name_Hall           'P 2yb'
loop_
_symmetry_equiv_pos_site_id
_symmetry_equiv_pos_as_xyz
1 x,y,z
2 -x,1/2+y,-z
_cell_length_a                   5.8526(13)
_cell_length_b                   12.083(5)
_cell_length_c                   16.324(7)
_cell_angle_alpha                90
_cell_angle_beta                 97.560(6)
_cell_angle_gamma                90
_cell_volume                     1144.35
_exptl_crystal_colour            'light yellow'
_exptl_crystal_description       plate
_cell_formula_units_Z            2
loop_
_atom_site_label
_atom_site_type_symbol
_atom_site_fract_x
_atom_site_fract_y
_atom_site_fract_z
S1 S 1.55828(12) 0.62703(7) 0.53841(4)
O1 O 1.3391(4) 0.43780(17) 0.61304(14)
N1 N 0.3509(4) 0.66722(16) 1.10885(13)
N2 N 1.1017(5) 1.0619(2) 0.68116(15)
C1 C 1.0834(4) 0.5323(2) 0.69211(15)
H1 H 0.9758 0.5952 0.6760
C2 C 1.2570(4) 0.5262(2) 0.63079(16)
C3 C 1.3333(4) 0.6301(2) 0.59683(13)
C4 C 1.2475(5) 0.7354(2) 0.60097(16)
H2 H 1.1242 0.7543 0.6308
C5 C 1.3626(6) 0.8120(3) 0.55621(18)
H3 H 1.3255 0.8885 0.5521
C6 C 1.5330(6) 0.7642(3) 0.51941(17)
H4 H 1.6278 0.8037 0.4865
C7 C 0.9425(5) 0.4264(2) 0.69183(19)
H5 H 1.0450 0.3642 0.7093
H6 H 0.8642 0.4126 0.6360
H7 H 0.8277 0.4343 0.7301
C8 C 1.2191(4) 0.5581(2) 0.77744(15)
H8 H 1.3290 0.4972 0.7935
H9 H 1.3093 0.6268 0.7736
C9 C 1.0632(4) 0.5722(2) 0.84335(15)
H10 H 1.0397 0.5091 0.8759
C10 C 0.9553(4) 0.66523(19) 0.85998(14)
C11 C 0.7948(4) 0.66909(19) 0.92349(13)
C12 C 0.6701(4) 0.5750(2) 0.94062(14)
H11 H 0.6850 0.5094 0.9097
C13 C 0.5250(4) 0.5746(2) 1.00164(15)
H12 H 0.4442 0.5089 1.0117
C14 C 0.4961(4) 0.66924(19) 1.04823(14)
C15 C 0.6228(4) 0.76372(19) 1.03169(14)
H13 H 0.6098 0.8295 1.0627
C16 C 0.7667(4) 0.76188(19) 0.97060(14)
H14 H 0.8493 0.8272 0.9607
C17 C 0.2931(5) 0.7699(2) 1.14656(19)
H15 H 0.4348 0.8073 1.1706
H16 H 0.1972 0.7544 1.1901
H17 H 0.2081 0.8176 1.1046
C18 C 0.1818(5) 0.5797(2) 1.10779(16)
H18 H 0.0887 0.5770 1.0534
H19 H 0.0816 0.5942 1.1502
H20 H 0.2606 0.5087 1.1191
C19 C 0.9926(4) 0.7703(2) 0.81490(13)
C20 C 0.8242(4) 0.8115(2) 0.75420(14)
H21 H 0.6810 0.7738 0.7432
C21 C 0.8604(4) 0.90600(19) 0.70951(14)
H22 H 0.7428 0.9307 0.6678
C22 C 1.0669(4) 0.9660(2) 0.72443(14)
C23 C 1.2335(4) 0.9252(2) 0.78649(15)
H23 H 1.3750 0.9639 0.7992
C24 C 1.1967(4) 0.8300(2) 0.82958(14)
H24 H 1.3149 0.8044 0.8707
C25 C 0.9403(5) 1.0957(3) 0.61330(19)
H25 H 0.9285 1.0386 0.5703
H26 H 0.9916 1.1653 0.5909
H27 H 0.7892 1.1066 0.6318
C26 C 1.3043(5) 1.1261(3) 0.7017(2)
H28 H 1.3197 1.1463 0.7603
H29 H 1.2941 1.1934 0.6679
H30 H 1.4389 1.0828 0.6910
loop_
_geom_bond_atom_site_label_1
_geom_bond_atom_site_label_2
_geom_bond_site_symmetry_1
_geom_bond_site_symmetry_2
S1 C3 1_555 1_555
O1 C2 1_555 1_555
N1 C14 1_555 1_555
N2 C22 1_555 1_555
C1 H1 1_555 1_555
C2 C1 1_555 1_555
C3 C2 1_555 1_555
C4 C3 1_555 1_555
H2 C4 1_555 1_555
C5 C4 1_555 1_555
H3 C5 1_555 1_555
C6 S1 1_555 1_555
H4 C6 1_555 1_555
C7 C1 1_555 1_555
H5 C7 1_555 1_555
H6 C7 1_555 1_555
H7 C7 1_555 1_555
C8 C1 1_555 1_555
H8 C8 1_555 1_555
H9 C8 1_555 1_555
C9 C8 1_555 1_555
H10 C9 1_555 1_555
C10 C9 1_555 1_555
C11 C10 1_555 1_555
C12 C11 1_555 1_555
H11 C12 1_555 1_555
C13 C12 1_555 1_555
H12 C13 1_555 1_555
C14 C13 1_555 1_555
C15 C14 1_555 1_555
H13 C15 1_555 1_555
C16 C11 1_555 1_555
H14 C16 1_555 1_555
C17 N1 1_555 1_555
H15 C17 1_555 1_555
H16 C17 1_555 1_555
H17 C17 1_555 1_555
C18 N1 1_555 1_555
H18 C18 1_555 1_555
H19 C18 1_555 1_555
H20 C18 1_555 1_555
C19 C10 1_555 1_555
C20 C19 1_555 1_555
H21 C20 1_555 1_555
C21 C20 1_555 1_555
H22 C21 1_555 1_555
C22 C21 1_555 1_555
C23 C22 1_555 1_555
H23 C23 1_555 1_555
C24 C19 1_555 1_555
H24 C24 1_555 1_555
C25 N2 1_555 1_555
H25 C25 1_555 1_555
H26 C25 1_555 1_555
H27 C25 1_555 1_555
C26 N2 1_555 1_555
H28 C26 1_555 1_555
H29 C26 1_555 1_555
H30 C26 1_555 1_555
C5 C6 1_555 1_555
C15 C16 1_555 1_555
C23 C24 1_555 1_555

#END
