
#######################################################################
#
#                 Cambridge Crystallographic Data Centre
#                                CCDC 
#
#######################################################################
#
# If this CIF has been generated from an entry in the Cambridge 
# Structural Database, then it will include bibliographic, chemical, 
# crystal, experimental, refinement or atomic coordinate data resulting 
# from the CCDC's data processing and validation procedures.
#
#######################################################################

data_DIWSAF
_chemical_formula_moiety         'C24 H24 O1'
_chemical_name_systematic        4,6,6-triphenylhexan-2-one
_symmetry_cell_setting           orthorhombic
_symmetry_space_group_name_H-M   'P 21 21 21'
_symmetry_Int_Tables_number      19
_space_group_name_Hall           'P 2ac 2ab'
loop_
_symmetry_equiv_pos_site_id
_symmetry_equiv_pos_as_xyz
1 x,y,z
2 1/2-x,-y,1/2+z
3 1/2+x,1/2-y,-z
4 -x,1/2+y,1/2-z
_cell_length_a                   8.0465(8)
_cell_length_b                   14.8088(6)
_cell_length_c                   15.4166(6)
_cell_angle_alpha                90
_cell_angle_beta                 90
_cell_angle_gamma                90
_cell_volume                     1837.03
_cell_formula_units_Z            4
loop_
_atom_site_label
_atom_site_type_symbol
_atom_site_fract_x
_atom_site_fract_y
_atom_site_fract_z
C1 C -0.4601(2) -0.91647(13) -0.12525(12)
H1 H -0.4257 -0.9387 -0.1787
C2 C -0.4605(2) -1.11639(13) 0.22886(12)
H2 H -0.3957 -1.1684 0.2304
C3 C -1.0298(2) -0.99409(11) 0.12742(11)
H3 H -0.9808 -1.0119 0.1830
C4 C -1.0937(2) -1.07860(11) 0.08300(11)
C5 C -0.6151(2) -0.93693(12) 0.00683(11)
C6 C -0.7301(2) -0.99286(11) 0.06437(11)
H4 H -0.7526 -1.0496 0.0339
C7 C -0.5684(2) -0.98475(14) 0.29847(12)
H5 H -0.5758 -0.9477 0.3470
O1 O -1.02036(18) -0.86151(10) 0.26035(9)
C8 C -0.6544(2) -0.96218(13) 0.22335(12)
H6 H -0.7199 -0.9104 0.2222
C9 C -0.4574(2) -0.80000(12) -0.01794(12)
H7 H -0.4217 -0.7437 0.0011
C10 C -0.5456(2) -1.09364(12) 0.15361(12)
H8 H -0.5368 -1.1306 0.1051
C11 C -0.8966(2) -0.94349(11) 0.07503(11)
H9 H -0.9409 -0.9309 0.0178
H10 H -0.8757 -0.8859 0.1030
C12 C -0.5605(2) -0.85200(13) 0.03397(12)
H11 H -0.5939 -0.8300 0.0877
C13 C -1.1405(2) -0.85843(13) 0.21303(12)
C14 C -0.6435(2) -1.01656(12) 0.14965(11)
C15 C -1.1758(2) -0.93008(12) 0.14610(12)
H12 H -1.2076 -0.9007 0.0924
H13 H -1.2698 -0.9657 0.1655
C16 C -0.4074(2) -0.83218(13) -0.09838(12)
H14 H -0.3391 -0.7974 -0.1338
C17 C -0.4719(2) -1.06192(14) 0.30149(12)
H15 H -0.4150 -1.0771 0.3520
C18 C -1.1502(2) -1.23855(12) 0.08507(13)
H16 H -1.1396 -1.2943 0.1123
C19 C -1.1792(2) -1.07305(13) 0.00393(11)
H17 H -1.1884 -1.0176 -0.0241
C20 C -1.2645(3) -0.78324(13) 0.21957(14)
H18 H -1.2487 -0.7420 0.1722
H19 H -1.2493 -0.7519 0.2735
H20 H -1.3749 -0.8077 0.2172
C21 C -0.5637(2) -0.96822(12) -0.07344(12)
H21 H -0.5991 -1.0245 -0.0928
C22 C -1.0793(2) -1.16255(12) 0.12219(12)
H22 H -1.0213 -1.1679 0.1741
C23 C -1.2496(2) -1.14872(14) -0.03276(12)
H23 H -1.3062 -1.1439 -0.0851
C24 C -1.2368(2) -1.23197(13) 0.00774(13)
H24 H -1.2857 -1.2828 -0.0168
loop_
_geom_bond_atom_site_label_1
_geom_bond_atom_site_label_2
_geom_bond_site_symmetry_1
_geom_bond_site_symmetry_2
C1 H1 1_555 1_555
C2 H2 1_555 1_555
C3 H3 1_555 1_555
C4 C3 1_555 1_555
C5 C6 1_555 1_555
C6 H4 1_555 1_555
C7 H5 1_555 1_555
O1 C13 1_555 1_555
C8 C7 1_555 1_555
H6 C8 1_555 1_555
C9 H7 1_555 1_555
C10 C2 1_555 1_555
H8 C10 1_555 1_555
C11 C3 1_555 1_555
H9 C11 1_555 1_555
H10 C11 1_555 1_555
C12 C5 1_555 1_555
H11 C12 1_555 1_555
C13 C15 1_555 1_555
C14 C6 1_555 1_555
C15 C3 1_555 1_555
H12 C15 1_555 1_555
H13 C15 1_555 1_555
C16 C1 1_555 1_555
H14 C16 1_555 1_555
C17 C2 1_555 1_555
H15 C17 1_555 1_555
C18 H16 1_555 1_555
C19 C4 1_555 1_555
H17 C19 1_555 1_555
C20 C13 1_555 1_555
H18 C20 1_555 1_555
H19 C20 1_555 1_555
H20 C20 1_555 1_555
C21 C1 1_555 1_555
H21 C21 1_555 1_555
C22 C4 1_555 1_555
H22 C22 1_555 1_555
C23 C19 1_555 1_555
H23 C23 1_555 1_555
C24 C18 1_555 1_555
H24 C24 1_555 1_555
C5 C21 1_555 1_555
C6 C11 1_555 1_555
C7 C17 1_555 1_555
C8 C14 1_555 1_555
C9 C12 1_555 1_555
C9 C16 1_555 1_555
C10 C14 1_555 1_555
C18 C22 1_555 1_555
C23 C24 1_555 1_555

#END
