
#######################################################################
#
#                 Cambridge Crystallographic Data Centre
#                                CCDC 
#
#######################################################################
#
# If this CIF has been generated from an entry in the Cambridge 
# Structural Database, then it will include bibliographic, chemical, 
# crystal, experimental, refinement or atomic coordinate data resulting 
# from the CCDC's data processing and validation procedures.
#
#######################################################################

data_DIWTEK
_chemical_formula_moiety         'C29 H30 N4 O2'
_chemical_name_systematic        
4,13,21-Trimethyl-6,16,19,21-tetraazaoctacyclo[16.9.1.1^6,13^.1^15,19^.0^1,20^.0^7,12^.0^16,30^.0^22,27^]triaconta-3,7,9,11,22,24,26-heptaene-17,29-dione
_symmetry_cell_setting           orthorhombic
_symmetry_space_group_name_H-M   'P 21 21 21'
_symmetry_Int_Tables_number      19
_space_group_name_Hall           'P 2ac 2ab'
loop_
_symmetry_equiv_pos_site_id
_symmetry_equiv_pos_as_xyz
1 x,y,z
2 1/2-x,-y,1/2+z
3 -x,1/2+y,1/2-z
4 1/2+x,1/2-y,-z
_cell_length_a                   8.2481(3)
_cell_length_b                   12.7097(5)
_cell_length_c                   22.8106(8)
_cell_angle_alpha                90
_cell_angle_beta                 90
_cell_angle_gamma                90
_cell_volume                     2391.26
_exptl_crystal_colour            colorless
_exptl_crystal_description       blade
_cell_formula_units_Z            4
loop_
_atom_site_label
_atom_site_type_symbol
_atom_site_fract_x
_atom_site_fract_y
_atom_site_fract_z
O1 O 0.7309(2) 0.57326(16) 0.86066(8)
O2 O 1.2123(2) 0.50183(16) 1.00807(8)
N1 N 0.9738(3) 0.58616(18) 0.99014(9)
N2 N 0.9952(3) 0.52964(17) 0.87685(9)
N3 N 0.9195(3) 0.65066(19) 1.08845(10)
N4 N 0.9753(3) 0.34173(18) 0.85916(10)
C1 C 0.7924(3) 0.3412(2) 0.94467(12)
C2 C 1.1173(4) 0.5437(2) 0.97385(13)
C3 C 0.4946(4) 0.6119(2) 1.11327(14)
H1 H 0.408(3) 0.584(2) 1.0930(10)
C4 C 0.7760(3) 0.6589(2) 1.12045(12)
C5 C 0.8986(3) 0.5648(2) 1.04619(12)
H2 H 0.943(3) 0.493(2) 1.0610(10)
C6 C 0.6497(3) 0.6100(2) 1.09062(13)
C7 C 1.0876(4) 0.2697(2) 0.83701(12)
C8 C 1.0142(3) 0.4459(2) 0.83458(13)
H3 H 0.944(3) 0.460(2) 0.7981(12)
C9 C 0.8540(4) 0.5774(2) 0.89073(13)
C10 C 0.6821(3) 0.4127(2) 0.96059(13)
H4 H 0.618(3) 0.448(2) 0.9269(12)
C11 C 0.5939(4) 0.7100(3) 1.19586(15)
H5 H 0.580(3) 0.733(2) 1.2328(13)
C12 C 0.7532(4) 0.7080(2) 1.17383(13)
H6 H 0.842(3) 0.743(2) 1.1974(12)
C13 C 1.1970(3) 0.4392(2) 0.82346(12)
C14 C 0.6452(4) 0.4540(2) 1.02040(14)
H7 H 0.681(3) 0.404(2) 1.0514(12)
H8 H 0.532(3) 0.4582(17) 1.0242(9)
C15 C 0.8138(4) 0.3156(3) 0.87999(14)
H9 H 0.801(3) 0.235(2) 0.8731(11)
H10 H 0.729(3) 0.350(2) 0.8540(12)
C16 C 0.7146(3) 0.5638(2) 1.03436(11)
C17 C 0.7000(4) 0.6423(2) 0.98206(13)
H11 H 0.601(3) 0.6264(19) 0.9556(11)
H12 H 0.682(3) 0.714(2) 0.9968(12)
C18 C 1.2209(4) 0.3228(2) 0.81372(12)
C19 C 0.8613(3) 0.6375(2) 0.94870(13)
H13 H 0.909(3) 0.716(2) 0.9394(10)
C20 C 1.1466(3) 0.5529(3) 0.90871(13)
H14 H 1.181(3) 0.6258(19) 0.8999(10)
C21 C 0.4685(4) 0.6635(2) 1.16645(14)
H15 H 0.364(3) 0.667(2) 1.1836(11)
C22 C 1.3463(4) 0.2675(3) 0.78873(14)
H16 H 1.437(3) 0.304(2) 0.7745(11)
C23 C 1.0752(4) 0.6581(3) 1.11878(15)
H17 H 1.073(4) 0.724(3) 1.1407(16)
H18 H 1.174(4) 0.654(2) 1.0865(14)
H19 H 1.087(3) 0.599(2) 1.1477(11)
C24 C 0.9013(4) 0.2825(3) 0.98585(16)
H20 H 0.891(4) 0.308(3) 1.0270(15)
H21 H 1.021(4) 0.289(2) 0.9717(13)
H22 H 0.876(3) 0.205(3) 0.9813(13)
C25 C 1.2677(4) 0.4735(3) 0.88367(15)
H23 H 1.271(3) 0.412(2) 0.9141(12)
H24 H 1.370(4) 0.511(2) 0.8781(12)
C26 C 1.0792(4) 0.1611(3) 0.83565(13)
H25 H 0.990(3) 0.117(2) 0.8492(11)
C27 C 1.2541(5) 0.5104(3) 0.77385(16)
H26 H 1.381(4) 0.506(2) 0.7715(12)
H27 H 1.227(4) 0.587(3) 0.7836(13)
H28 H 1.192(3) 0.495(2) 0.7343(14)
C28 C 1.2072(5) 0.1067(3) 0.80943(14)
H29 H 1.204(3) 0.031(2) 0.8077(12)
C29 C 1.3375(5) 0.1583(3) 0.78615(15)
H30 H 1.440(4) 0.112(2) 0.7681(12)
loop_
_geom_bond_atom_site_label_1
_geom_bond_atom_site_label_2
_geom_bond_site_symmetry_1
_geom_bond_site_symmetry_2
O1 C9 1_555 1_555
O2 C2 1_555 1_555
N1 C2 1_555 1_555
N2 C8 1_555 1_555
N3 C4 1_555 1_555
N4 C7 1_555 1_555
C1 C10 1_555 1_555
C2 C20 1_555 1_555
C3 H1 1_555 1_555
C4 C6 1_555 1_555
C5 N1 1_555 1_555
H2 C5 1_555 1_555
C6 C3 1_555 1_555
C7 C18 1_555 1_555
C8 N4 1_555 1_555
H3 C8 1_555 1_555
C9 N2 1_555 1_555
C10 H4 1_555 1_555
C11 H5 1_555 1_555
C12 C4 1_555 1_555
H6 C12 1_555 1_555
C13 C8 1_555 1_555
C14 C10 1_555 1_555
H7 C14 1_555 1_555
H8 C14 1_555 1_555
C15 N4 1_555 1_555
H9 C15 1_555 1_555
H10 C15 1_555 1_555
C16 C5 1_555 1_555
C17 C16 1_555 1_555
H11 C17 1_555 1_555
H12 C17 1_555 1_555
C18 C13 1_555 1_555
C19 N1 1_555 1_555
H13 C19 1_555 1_555
C20 N2 1_555 1_555
H14 C20 1_555 1_555
C21 C3 1_555 1_555
H15 C21 1_555 1_555
C22 C18 1_555 1_555
H16 C22 1_555 1_555
C23 N3 1_555 1_555
H17 C23 1_555 1_555
H18 C23 1_555 1_555
H19 C23 1_555 1_555
C24 C1 1_555 1_555
H20 C24 1_555 1_555
H21 C24 1_555 1_555
H22 C24 1_555 1_555
C25 C13 1_555 1_555
H23 C25 1_555 1_555
H24 C25 1_555 1_555
C26 C7 1_555 1_555
H25 C26 1_555 1_555
C27 C13 1_555 1_555
H26 C27 1_555 1_555
H27 C27 1_555 1_555
H28 C27 1_555 1_555
C28 C26 1_555 1_555
H29 C28 1_555 1_555
C29 C22 1_555 1_555
H30 C29 1_555 1_555
N3 C5 1_555 1_555
C1 C15 1_555 1_555
C6 C16 1_555 1_555
C9 C19 1_555 1_555
C11 C12 1_555 1_555
C11 C21 1_555 1_555
C14 C16 1_555 1_555
C17 C19 1_555 1_555
C20 C25 1_555 1_555
C28 C29 1_555 1_555

#END
