
#######################################################################
#
#                 Cambridge Crystallographic Data Centre
#                                CCDC 
#
#######################################################################
#
# If this CIF has been generated from an entry in the Cambridge 
# Structural Database, then it will include bibliographic, chemical, 
# crystal, experimental, refinement or atomic coordinate data resulting 
# from the CCDC's data processing and validation procedures.
#
#######################################################################

data_DIWTAF
_chemical_formula_moiety         'C28 H40 N2 O2'
_chemical_name_systematic        
(E)-4-t-butyl-2-(2,6-diisopropylphenyliminomethyl)-6-(morpholinomethyl)phenol
_symmetry_cell_setting           orthorhombic
_symmetry_space_group_name_H-M   'P n a 21'
_symmetry_Int_Tables_number      33
_space_group_name_Hall           'P 2c -2n'
loop_
_symmetry_equiv_pos_site_id
_symmetry_equiv_pos_as_xyz
1 x,y,z
2 -x,-y,1/2+z
3 1/2+x,1/2-y,z
4 1/2-x,1/2+y,1/2+z
_cell_length_a                   10.086(2)
_cell_length_b                   20.394(4)
_cell_length_c                   12.750(3)
_cell_angle_alpha                90
_cell_angle_beta                 90
_cell_angle_gamma                90
_cell_volume                     2622.6
_exptl_crystal_colour            yellow
_exptl_crystal_description       block
_chemical_melting_point          '364 K'
_cell_formula_units_Z            4
loop_
_atom_site_label
_atom_site_type_symbol
_atom_site_fract_x
_atom_site_fract_y
_atom_site_fract_z
O1 O 0.66312(13) 0.02738(7) 0.58337(11)
O2 O 0.44036(11) 0.16255(6) 1.01270(9)
H1 H 0.4303 0.1919 1.0559
N1 N 0.47500(13) 0.04647(6) 0.74844(11)
N2 N 0.32848(13) 0.25917(7) 1.10594(11)
C1 C 0.53145(19) 0.10072(9) 0.68955(16)
H2 H 0.6101 0.1168 0.7251
H3 H 0.4678 0.1363 0.6857
C2 C 0.5673(2) 0.07857(11) 0.58034(18)
H4 H 0.4883 0.0632 0.5447
H5 H 0.6025 0.1154 0.5410
C3 C 0.6091(2) -0.02659(9) 0.63968(16)
H6 H 0.6740 -0.0616 0.6427
H7 H 0.5317 -0.0430 0.6028
C4 C 0.57015(19) -0.00743(9) 0.74948(15)
H8 H 0.5314 -0.0449 0.7848
H9 H 0.6485 0.0057 0.7882
C5 C 0.44409(19) 0.06580(9) 0.85631(14)
H10 H 0.5235 0.0834 0.8887
H11 H 0.4181 0.0271 0.8956
C6 C 0.33465(16) 0.11632(8) 0.86387(13)
C7 C 0.33721(15) 0.16278(8) 0.94452(12)
C8 C 0.23469(15) 0.20886(8) 0.95331(13)
C9 C 0.12971(16) 0.20779(7) 0.88116(13)
H12 H 0.0617 0.2383 0.8879
C10 C 0.12458(15) 0.16266(7) 0.80036(13)
C11 C 0.22915(16) 0.11738(8) 0.79479(13)
H13 H 0.2273 0.0863 0.7415
C12 C 0.01307(17) 0.16019(8) 0.71896(14)
C13 C -0.0397(15) 0.0916(5) 0.6974(9)
H14 H -0.0129 0.0779 0.6285
H15 H -0.1348 0.0919 0.7015
H16 H -0.0049 0.0617 0.7485
C14 C 0.0691(10) 0.1924(4) 0.6171(6)
H17 H 0.1041 0.2350 0.6334
H18 H -0.0006 0.1966 0.5663
H19 H 0.1384 0.1654 0.5889
C15 C -0.1030(10) 0.2032(6) 0.7539(9)
H20 H -0.0786 0.2486 0.7479
H21 H -0.1247 0.1935 0.8256
H22 H -0.1785 0.1946 0.7102
C19 C 0.23491(16) 0.25686(8) 1.03797(13)
H32 H 0.1653 0.2866 1.0428
C20 C 0.32130(16) 0.30595(9) 1.18948(13)
C21 C 0.30559(17) 0.28018(9) 1.29173(15)
C22 C 0.29501(18) 0.32502(10) 1.37352(15)
H33 H 0.2815 0.3096 1.4413
C23 C 0.3040(2) 0.39149(10) 1.35681(15)
H34 H 0.2946 0.4205 1.4126
C24 C 0.3271(2) 0.41500(9) 1.25706(16)
H35 H 0.3356 0.4600 1.2470
C25 C 0.33791(17) 0.37310(9) 1.17069(15)
C26 C 0.3753(2) 0.40061(9) 1.06383(15)
H36 H 0.3678 0.3650 1.0126
C27 C 0.5192(2) 0.42388(10) 1.06373(17)
H37 H 0.5760 0.3885 1.0851
H38 H 0.5288 0.4599 1.1116
H39 H 0.5433 0.4378 0.9944
C28 C 0.2825(2) 0.45530(12) 1.0295(2)
H40 H 0.1927 0.4397 1.0304
H41 H 0.3052 0.4690 0.9597
H42 H 0.2910 0.4918 1.0766
C29 C 0.29776(18) 0.20684(9) 1.30904(15)
H43 H 0.3423 0.1858 1.2496
C30 C 0.1547(2) 0.18351(11) 1.3088(2)
H44 H 0.1120 0.1978 1.2455
H45 H 0.1092 0.2015 1.3683
H46 H 0.1527 0.1365 1.3123
C31 C 0.3684(2) 0.18417(11) 1.40882(18)
H47 H 0.4588 0.1988 1.4075
H48 H 0.3662 0.1372 1.4126
H49 H 0.3245 0.2023 1.4690
C16? C -0.0535(11) 0.0920(4) 0.7330(8)
H23? H -0.0796 0.0865 0.8049
H24? H 0.0082 0.0582 0.7142
H25? H -0.1303 0.0892 0.6888
C17? C 0.0708(11) 0.1619(4) 0.6092(6)
H26? H 0.1136 0.2033 0.5977
H27? H 0.0010 0.1562 0.5588
H28? H 0.1344 0.1271 0.6015
C18? C -0.0942(12) 0.2112(6) 0.7301(10)
H29? H -0.0563 0.2541 0.7220
H30? H -0.1340 0.2077 0.7982
H31? H -0.1605 0.2044 0.6772
loop_
_geom_bond_atom_site_label_1
_geom_bond_atom_site_label_2
_geom_bond_site_symmetry_1
_geom_bond_site_symmetry_2
O1 C2 1_555 1_555
O2 H1 1_555 1_555
N1 C1 1_555 1_555
N2 C19 1_555 1_555
C1 H2 1_555 1_555
H3 C1 1_555 1_555
C2 C1 1_555 1_555
H4 C2 1_555 1_555
H5 C2 1_555 1_555
C3 O1 1_555 1_555
H6 C3 1_555 1_555
H7 C3 1_555 1_555
C4 N1 1_555 1_555
H8 C4 1_555 1_555
H9 C4 1_555 1_555
C5 N1 1_555 1_555
H10 C5 1_555 1_555
H11 C5 1_555 1_555
C6 C5 1_555 1_555
C7 O2 1_555 1_555
C8 C7 1_555 1_555
C9 C8 1_555 1_555
H12 C9 1_555 1_555
C10 C9 1_555 1_555
C11 C6 1_555 1_555
H13 C11 1_555 1_555
C12 C10 1_555 1_555
C13 C12 1_555 1_555
H14 C13 1_555 1_555
H15 C13 1_555 1_555
H16 C13 1_555 1_555
C14 C12 1_555 1_555
H17 C14 1_555 1_555
H18 C14 1_555 1_555
H19 C14 1_555 1_555
C15 C12 1_555 1_555
H20 C15 1_555 1_555
H21 C15 1_555 1_555
H22 C15 1_555 1_555
C19 C8 1_555 1_555
H32 C19 1_555 1_555
C20 N2 1_555 1_555
C21 C20 1_555 1_555
C22 C21 1_555 1_555
H33 C22 1_555 1_555
C23 C22 1_555 1_555
H34 C23 1_555 1_555
C24 C23 1_555 1_555
H35 C24 1_555 1_555
C25 C20 1_555 1_555
C26 C25 1_555 1_555
H36 C26 1_555 1_555
C27 C26 1_555 1_555
H37 C27 1_555 1_555
H38 C27 1_555 1_555
H39 C27 1_555 1_555
C28 C26 1_555 1_555
H40 C28 1_555 1_555
H41 C28 1_555 1_555
H42 C28 1_555 1_555
C29 C21 1_555 1_555
H43 C29 1_555 1_555
C30 C29 1_555 1_555
H44 C30 1_555 1_555
H45 C30 1_555 1_555
H46 C30 1_555 1_555
C31 C29 1_555 1_555
H47 C31 1_555 1_555
H48 C31 1_555 1_555
H49 C31 1_555 1_555
C3 C4 1_555 1_555
C6 C7 1_555 1_555
C10 C11 1_555 1_555
C24 C25 1_555 1_555

#END
