
#######################################################################
#
#                 Cambridge Crystallographic Data Centre
#                                CCDC 
#
#######################################################################
#
# If this CIF has been generated from an entry in the Cambridge 
# Structural Database, then it will include bibliographic, chemical, 
# crystal, experimental, refinement or atomic coordinate data resulting 
# from the CCDC's data processing and validation procedures.
#
#######################################################################

data_DIWXEN
_chemical_formula_moiety         'C37 H26 N2 O2'
_chemical_name_systematic        
4,4'-((1,1'-Methylenebis(naphthalene-2,1-diyl))bis(oxymethylene))dibenzonitrile
_symmetry_cell_setting           triclinic
_symmetry_space_group_name_H-M   'P -1'
_symmetry_Int_Tables_number      2
_space_group_name_Hall           '-P 1'
loop_
_symmetry_equiv_pos_site_id
_symmetry_equiv_pos_as_xyz
1 x,y,z
2 -x,-y,-z
_cell_length_a                   14.3054(10)
_cell_length_b                   14.4363(8)
_cell_length_c                   15.2974(7)
_cell_angle_alpha                67.7010(10)
_cell_angle_beta                 83.5890(10)
_cell_angle_gamma                71.7840(10)
_cell_volume                     2776.35
_exptl_crystal_colour            colorless
_exptl_crystal_description       Block
_cell_formula_units_Z            4
_exptl_crystal_recrystallization_method 'diethyl ether'
loop_
_atom_site_label
_atom_site_type_symbol
_atom_site_fract_x
_atom_site_fract_y
_atom_site_fract_z
O1 O 0.26966(14) 0.69880(16) 0.21213(13)
O2 O 0.36207(15) 0.81079(15) -0.03224(14)
C1 C 0.4200(2) 0.6345(2) 0.14721(19)
C2 C 0.3698(2) 0.6810(2) 0.2090(2)
C3 C 0.5749(2) 0.6332(2) 0.2048(2)
C4 C 0.5251(2) 0.6063(2) 0.1465(2)
C5 C 0.2736(2) 0.7897(2) -0.0247(2)
C6 C 0.2725(2) 0.6903(2) 0.03295(19)
C7 C 0.3682(2) 0.9119(2) -0.0901(2)
H1 H 0.3205 0.9640 -0.0695
H2 H 0.3527 0.9264 -0.1550
C8 C 0.1841(2) 0.6625(3) 0.0399(2)
C9 C 0.1899(2) 0.8644(3) -0.0758(2)
H3 H 0.1921 0.9316 -0.1133
C10 C 0.4692(2) 0.9192(2) -0.0850(2)
C11 C 0.4189(2) 0.7046(2) 0.2687(2)
H4 H 0.3834 0.7351 0.3106
C12 C 0.1075(2) 0.7667(3) 0.2586(2)
C13 C 0.6543(2) 0.9396(2) -0.0771(2)
C14 C 0.1008(2) 0.7371(3) -0.0159(2)
C15 C 0.6786(2) 0.6109(3) 0.1998(2)
H5 H 0.7110 0.6300 0.2366
C16 C 0.3664(2) 0.6112(2) 0.0819(2)
H6 H 0.4122 0.5982 0.0332
H7 H 0.3512 0.5462 0.1181
C17 C 0.1056(2) 0.8380(3) -0.0703(2)
H8 H 0.0500 0.8882 -0.1034
C18 C 0.5846(2) 0.5528(2) 0.0903(2)
H9 H 0.5547 0.5314 0.0535
C19 C 0.5186(2) 0.6828(2) 0.2650(2)
H10 H 0.5503 0.7011 0.3031
C20 C -0.0371(3) 0.8383(3) 0.1622(2)
H11 H -0.0681 0.8763 0.1035
C21 C 0.0612(3) 0.8243(3) 0.1709(2)
H12 H 0.0968 0.8532 0.1185
C22 C -0.0442(3) 0.7411(3) 0.3275(3)
H13 H -0.0797 0.7143 0.3809
C23 C 0.2141(2) 0.7550(3) 0.2686(3)
H14 H 0.2244 0.8235 0.2480
H15 H 0.2346 0.7174 0.3342
C24 C -0.0907(2) 0.7957(3) 0.2409(3)
C25 C 0.7501(3) 0.9521(3) -0.0743(2)
C26 C 0.4996(3) 0.9965(3) -0.1545(2)
H16 H 0.4581 1.0423 -0.2054
C27 C 0.7312(3) 0.5622(3) 0.1420(3)
H17 H 0.7991 0.5494 0.1387
C28 C 0.5313(3) 0.8544(3) -0.0114(3)
H18 H 0.5111 0.8025 0.0374
C29 C 0.6233(3) 0.8633(3) -0.0071(3)
H19 H 0.6647 0.8171 0.0439
C30 C 0.6847(3) 0.5314(3) 0.0881(2)
H20 H 0.7216 0.4959 0.0502
C31 C 0.0543(3) 0.7262(3) 0.3350(2)
H21 H 0.0854 0.6876 0.3935
N1 N 0.8261(2) 0.9621(3) -0.0730(2)
C32 C 0.1737(3) 0.5637(3) 0.0984(3)
H22 H 0.2256 0.5144 0.1378
C33 C -0.1935(3) 0.8123(3) 0.2335(3)
C34 C 0.5908(3) 1.0077(3) -0.1503(2)
H23 H 0.6095 1.0620 -0.1974
C35 C 0.0143(3) 0.7080(4) -0.0128(3)
H24 H -0.0401 0.7563 -0.0494
C36 C 0.0895(4) 0.5395(4) 0.0981(4)
H25 H 0.0853 0.4732 0.1363
N2 N -0.2756(3) 0.8256(3) 0.2266(3)
C37 C 0.0098(4) 0.6113(5) 0.0424(4)
H26 H -0.0470 0.5928 0.0429
O3 O 0.29159(14) 0.81321(14) 0.44137(13)
O4 O 0.37325(14) 0.70793(16) 0.69447(14)
C38 C 0.2878(2) 0.6880(2) 0.68556(19)
C39 C 0.4363(2) 0.6956(2) 0.52235(18)
C40 C 0.28969(19) 0.6397(2) 0.62340(18)
C41 C 0.1210(2) 0.6324(2) 0.6724(2)
C42 C 0.5381(2) 0.6702(2) 0.54265(19)
C43 C 0.2070(2) 0.6061(2) 0.61961(19)
C44 C 0.38052(19) 0.6150(2) 0.56354(19)
H27 H 0.4262 0.5499 0.6022
H28 H 0.3600 0.6027 0.5116
C45 C 0.3902(2) 0.7936(2) 0.45917(19)
C46 C 0.1278(2) 0.9257(2) 0.4002(2)
C47 C 0.1215(2) 0.6889(2) 0.7301(2)
H29 H 0.0653 0.7086 0.7636
C48 C 0.4413(2) 0.8665(2) 0.4126(2)
H30 H 0.4082 0.9322 0.3703
C49 C 0.3762(2) 0.7579(3) 0.7566(2)
H31 H 0.3615 0.7168 0.8204
H32 H 0.3281 0.8266 0.7377
C50 C 0.2034(2) 0.7150(2) 0.7375(2)
H33 H 0.2032 0.7507 0.7769
C51 C 0.2349(2) 0.9191(2) 0.3947(2)
H34 H 0.2545 0.9438 0.3291
H35 H 0.2465 0.9631 0.4245
C52 C 0.1268(3) 0.5111(3) 0.5683(2)
H36 H 0.1292 0.4689 0.5344
C53 C 0.5902(2) 0.7451(2) 0.4935(2)
C54 C 0.0666(2) 0.9902(2) 0.3234(2)
H37 H 0.0927 1.0265 0.2671
C55 C 0.4781(2) 0.7679(3) 0.7527(2)
C56 C 0.2055(2) 0.5444(2) 0.5673(2)
H38 H 0.2600 0.5261 0.5313
C57 C 0.5912(2) 0.5769(2) 0.6124(2)
H39 H 0.5593 0.5270 0.6463
C58 C 0.0884(2) 0.8711(2) 0.4832(2)
H40 H 0.1292 0.8273 0.5353
C59 C 0.0396(2) 0.5987(3) 0.6694(2)
H41 H -0.0168 0.6181 0.7027
C60 C -0.0319(2) 1.0010(2) 0.3292(2)
H42 H -0.0726 1.0453 0.2772
C61 C -0.0101(2) 0.8811(2) 0.4894(2)
H43 H -0.0360 0.8439 0.5455
C62 C 0.6661(2) 0.7860(3) 0.7443(3)
C63 C 0.5408(3) 0.7126(3) 0.8278(2)
H44 H 0.5197 0.6684 0.8829
C64 C 0.6343(3) 0.7201(3) 0.8244(3)
H45 H 0.6761 0.6806 0.8764
C65 C 0.5380(2) 0.8428(3) 0.4282(2)
H46 H 0.5711 0.8918 0.3954
C66 C -0.0714(2) 0.9465(2) 0.4122(2)
C67 C 0.5096(3) 0.8351(3) 0.6723(2)
H47 H 0.4671 0.8750 0.6209
C68 C 0.6873(3) 0.5573(3) 0.6319(3)
H48 H 0.7199 0.4944 0.6783
C69 C 0.6896(2) 0.7216(3) 0.5146(3)
H49 H 0.7238 0.7694 0.4811
C70 C 0.7376(3) 0.6300(3) 0.5835(3)
H50 H 0.8031 0.6165 0.5978
C71 C 0.0417(3) 0.5386(3) 0.6190(3)
H51 H -0.0123 0.5161 0.6181
C72 C 0.7637(3) 0.7936(3) 0.7400(3)
C73 C 0.6033(3) 0.8437(3) 0.6675(3)
H52 H 0.6244 0.8882 0.6126
C74 C -0.1753(3) 0.9587(3) 0.4192(3)
N3 N -0.2582(3) 0.9711(3) 0.4230(3)
N4 N 0.8419(3) 0.7993(3) 0.7366(4)
loop_
_geom_bond_atom_site_label_1
_geom_bond_atom_site_label_2
_geom_bond_site_symmetry_1
_geom_bond_site_symmetry_2
O1 C2 1_555 1_555
O2 C5 1_555 1_555
C1 C2 1_555 1_555
C2 C11 1_555 1_555
C3 C4 1_555 1_555
C4 C1 1_555 1_555
C5 C6 1_555 1_555
C6 C8 1_555 1_555
C7 O2 1_555 1_555
H1 C7 1_555 1_555
H2 C7 1_555 1_555
C8 C14 1_555 1_555
C9 C5 1_555 1_555
H3 C9 1_555 1_555
C10 C7 1_555 1_555
C11 H4 1_555 1_555
C12 C21 1_555 1_555
C13 C25 1_555 1_555
C14 C17 1_555 1_555
C15 C3 1_555 1_555
H5 C15 1_555 1_555
C16 C1 1_555 1_555
H6 C16 1_555 1_555
H7 C16 1_555 1_555
C17 C9 1_555 1_555
H8 C17 1_555 1_555
C18 C4 1_555 1_555
H9 C18 1_555 1_555
C19 C3 1_555 1_555
H10 C19 1_555 1_555
C20 H11 1_555 1_555
C21 C20 1_555 1_555
H12 C21 1_555 1_555
C22 H13 1_555 1_555
C23 O1 1_555 1_555
H14 C23 1_555 1_555
H15 C23 1_555 1_555
C24 C20 1_555 1_555
C25 N1 1_555 1_555
C26 C10 1_555 1_555
H16 C26 1_555 1_555
C27 C15 1_555 1_555
H17 C27 1_555 1_555
C28 C10 1_555 1_555
H18 C28 1_555 1_555
C29 C13 1_555 1_555
H19 C29 1_555 1_555
C30 C18 1_555 1_555
H20 C30 1_555 1_555
C31 C12 1_555 1_555
H21 C31 1_555 1_555
C32 C8 1_555 1_555
H22 C32 1_555 1_555
C33 C24 1_555 1_555
C34 C13 1_555 1_555
H23 C34 1_555 1_555
C35 C14 1_555 1_555
H24 C35 1_555 1_555
C36 C32 1_555 1_555
H25 C36 1_555 1_555
N2 C33 1_555 1_555
C37 C35 1_555 1_555
H26 C37 1_555 1_555
O3 C45 1_555 1_555
O4 C38 1_555 1_555
C38 C40 1_555 1_555
C39 C42 1_555 1_555
C40 C43 1_555 1_555
C41 C43 1_555 1_555
C42 C53 1_555 1_555
C43 C56 1_555 1_555
C44 C39 1_555 1_555
H27 C44 1_555 1_555
H28 C44 1_555 1_555
C45 C39 1_555 1_555
C46 C51 1_555 1_555
C47 C41 1_555 1_555
H29 C47 1_555 1_555
C48 C45 1_555 1_555
H30 C48 1_555 1_555
C49 O4 1_555 1_555
H31 C49 1_555 1_555
H32 C49 1_555 1_555
C50 C38 1_555 1_555
H33 C50 1_555 1_555
C51 O3 1_555 1_555
H34 C51 1_555 1_555
H35 C51 1_555 1_555
C52 H36 1_555 1_555
C53 C65 1_555 1_555
C54 C46 1_555 1_555
H37 C54 1_555 1_555
C55 C49 1_555 1_555
C56 C52 1_555 1_555
H38 C56 1_555 1_555
C57 C42 1_555 1_555
H39 C57 1_555 1_555
C58 C46 1_555 1_555
H40 C58 1_555 1_555
C59 C41 1_555 1_555
H41 C59 1_555 1_555
C60 C54 1_555 1_555
H42 C60 1_555 1_555
C61 C58 1_555 1_555
H43 C61 1_555 1_555
C62 C64 1_555 1_555
C63 C55 1_555 1_555
H44 C63 1_555 1_555
C64 C63 1_555 1_555
H45 C64 1_555 1_555
C65 C48 1_555 1_555
H46 C65 1_555 1_555
C66 C60 1_555 1_555
C67 C55 1_555 1_555
H47 C67 1_555 1_555
C68 C57 1_555 1_555
H48 C68 1_555 1_555
C69 C53 1_555 1_555
H49 C69 1_555 1_555
C70 C68 1_555 1_555
H50 C70 1_555 1_555
C71 C52 1_555 1_555
H51 C71 1_555 1_555
C72 C62 1_555 1_555
C73 C62 1_555 1_555
H52 C73 1_555 1_555
C74 C66 1_555 1_555
N3 C74 1_555 1_555
N4 C72 1_555 1_555
C6 C16 1_555 1_555
C11 C19 1_555 1_555
C12 C23 1_555 1_555
C22 C24 1_555 1_555
C22 C31 1_555 1_555
C26 C34 1_555 1_555
C27 C30 1_555 1_555
C28 C29 1_555 1_555
C36 C37 1_555 1_555
C40 C44 1_555 1_555
C47 C50 1_555 1_555
C59 C71 1_555 1_555
C61 C66 1_555 1_555
C67 C73 1_555 1_555
C69 C70 1_555 1_555

#END
