
#######################################################################
#
#                 Cambridge Crystallographic Data Centre
#                                CCDC 
#
#######################################################################
#
# If this CIF has been generated from an entry in the Cambridge 
# Structural Database, then it will include bibliographic, chemical, 
# crystal, experimental, refinement or atomic coordinate data resulting 
# from the CCDC's data processing and validation procedures.
#
#######################################################################

data_DIWXOY
_chemical_formula_moiety         'C23 H17 N1 O2'
_chemical_name_systematic        'Methyl 1,4-diphenylisoquinoline-3-carboxylate'
_symmetry_cell_setting           triclinic
_symmetry_space_group_name_H-M   'P -1'
_symmetry_Int_Tables_number      2
_space_group_name_Hall           '-P 1'
loop_
_symmetry_equiv_pos_site_id
_symmetry_equiv_pos_as_xyz
1 x,y,z
2 -x,-y,-z
_cell_length_a                   8.9830(18)
_cell_length_b                   9.792(2)
_cell_length_c                   11.223(2)
_cell_angle_alpha                73.14(3)
_cell_angle_beta                 87.60(3)
_cell_angle_gamma                66.13(3)
_cell_volume                     860.73
_cell_formula_units_Z            2
loop_
_atom_site_label
_atom_site_type_symbol
_atom_site_fract_x
_atom_site_fract_y
_atom_site_fract_z
N1 N 0.1425(3) 0.7435(3) 0.47463(19)
O1 O 0.2076(3) 0.6824(3) 0.78411(18)
C1 C 0.0728(3) 0.7581(3) 0.5837(2)
C2 C -0.0788(3) 0.7603(3) 0.6093(2)
O2 O 0.2368(3) 0.8737(3) 0.63329(18)
C3 C -0.1659(3) 0.7399(3) 0.5173(2)
C4 C -0.3253(4) 0.7469(4) 0.5313(3)
H1 H -0.3777 0.7693 0.6009
C5 C -0.4031(4) 0.7214(4) 0.4444(3)
H2 H -0.5098 0.7303 0.4531
C6 C -0.3236(4) 0.6820(4) 0.3418(3)
H3 H -0.3758 0.6596 0.2849
C7 C -0.1712(4) 0.6761(3) 0.3243(3)
H4 H -0.1195 0.6486 0.2560
C8 C -0.0895(3) 0.7112(3) 0.4090(2)
C9 C 0.0644(3) 0.7210(3) 0.3903(2)
C10 C 0.1476(3) 0.7065(3) 0.2740(2)
C11 C 0.0641(4) 0.7846(3) 0.1557(2)
H5 H -0.0462 0.8509 0.1478
C12 C 0.1434(4) 0.7647(4) 0.0502(3)
H6 H 0.0856 0.8163 -0.0281
C13 C 0.3068(4) 0.6693(4) 0.0594(3)
H7 H 0.3594 0.6554 -0.0121
C14 C 0.3922(4) 0.5943(3) 0.1755(3)
H8 H 0.5033 0.5307 0.1822
C15 C 0.3140(3) 0.6129(3) 0.2823(2)
H9 H 0.3730 0.5624 0.3602
C16 C 0.1781(3) 0.7659(3) 0.6784(2)
C17 C 0.3369(4) 0.8881(4) 0.7223(3)
H10 H 0.3742 0.9678 0.6816
H11 H 0.4293 0.7900 0.7550
H12 H 0.2738 0.9159 0.7894
C18 C -0.1527(3) 0.7861(3) 0.7272(2)
C19 C -0.1636(4) 0.6644(4) 0.8224(3)
H13 H -0.1222 0.5643 0.8139
C20 C -0.2351(4) 0.6902(4) 0.9295(3)
H14 H -0.2419 0.6077 0.9929
C21 C -0.2965(4) 0.8383(4) 0.9424(3)
H15 H -0.3451 0.8559 1.0144
C22 C -0.2862(4) 0.9593(4) 0.8495(3)
H16 H -0.3276 1.0590 0.8588
C23 C -0.2145(4) 0.9346(3) 0.7416(3)
H17 H -0.2077 1.0176 0.6789
loop_
_geom_bond_atom_site_label_1
_geom_bond_atom_site_label_2
_geom_bond_site_symmetry_1
_geom_bond_site_symmetry_2
N1 C1 1_555 1_555
O1 C16 1_555 1_555
C1 C2 1_555 1_555
C2 C3 1_555 1_555
O2 C16 1_555 1_555
C3 C4 1_555 1_555
C4 H1 1_555 1_555
C5 C4 1_555 1_555
H2 C5 1_555 1_555
C6 C5 1_555 1_555
H3 C6 1_555 1_555
C7 C6 1_555 1_555
H4 C7 1_555 1_555
C8 C3 1_555 1_555
C9 N1 1_555 1_555
C10 C9 1_555 1_555
C11 C10 1_555 1_555
H5 C11 1_555 1_555
C12 C11 1_555 1_555
H6 C12 1_555 1_555
C13 C12 1_555 1_555
H7 C13 1_555 1_555
C14 C13 1_555 1_555
H8 C14 1_555 1_555
C15 C10 1_555 1_555
H9 C15 1_555 1_555
C16 C1 1_555 1_555
C17 O2 1_555 1_555
H10 C17 1_555 1_555
H11 C17 1_555 1_555
H12 C17 1_555 1_555
C18 C2 1_555 1_555
C19 C18 1_555 1_555
H13 C19 1_555 1_555
C20 C19 1_555 1_555
H14 C20 1_555 1_555
C21 C20 1_555 1_555
H15 C21 1_555 1_555
C22 C21 1_555 1_555
H16 C22 1_555 1_555
C23 C18 1_555 1_555
H17 C23 1_555 1_555
C7 C8 1_555 1_555
C8 C9 1_555 1_555
C14 C15 1_555 1_555
C22 C23 1_555 1_555

#END
