
#######################################################################
#
#                 Cambridge Crystallographic Data Centre
#                                CCDC 
#
#######################################################################
#
# If this CIF has been generated from an entry in the Cambridge 
# Structural Database, then it will include bibliographic, chemical, 
# crystal, experimental, refinement or atomic coordinate data resulting 
# from the CCDC's data processing and validation procedures.
#
#######################################################################

data_DIWZAL
_chemical_formula_moiety         'C15 H13 N1 O2'
_chemical_name_systematic        2-Benzyl-3-hydroxyisoindolin-1-one
_symmetry_cell_setting           monoclinic
_symmetry_space_group_name_H-M   'P 21/c'
_symmetry_Int_Tables_number      14
_space_group_name_Hall           '-P 2ybc'
loop_
_symmetry_equiv_pos_site_id
_symmetry_equiv_pos_as_xyz
1 x,y,z
2 -x,1/2+y,1/2-z
3 -x,-y,-z
4 x,1/2-y,1/2+z
_cell_length_a                   12.987(2)
_cell_length_b                   7.6913(11)
_cell_length_c                   12.083(3)
_cell_angle_alpha                90
_cell_angle_beta                 96.970(4)
_cell_angle_gamma                90
_cell_volume                     1198.01
_exptl_crystal_colour            yellow
_exptl_crystal_description       prism
_cell_formula_units_Z            4
_exptl_crystal_recrystallization_method methanol
loop_
_atom_site_label
_atom_site_type_symbol
_atom_site_fract_x
_atom_site_fract_y
_atom_site_fract_z
O1 O 0.75469(8) 0.09965(13) 0.26735(8)
O2 O 0.83901(8) 0.40713(13) -0.01648(8)
H1 H 0.8147 0.4093 -0.0842
N1 N 0.76813(9) 0.18693(15) 0.08781(9)
C1 C 0.80730(10) 0.13926(17) 0.19204(11)
C2 C 0.92180(10) 0.14286(16) 0.19561(11)
C3 C 0.99831(11) 0.10180(18) 0.28149(12)
H2 H 0.9813 0.0643 0.3519
C4 C 1.10108(11) 0.11733(19) 0.26110(13)
H3 H 1.1554 0.0901 0.3184
C5 C 1.12515(11) 0.17246(19) 0.15735(13)
H4 H 1.1958 0.1836 0.1453
C6 C 1.04772(11) 0.21129(18) 0.07129(12)
H5 H 1.0644 0.2473 0.0004
C7 C 0.94557(10) 0.19609(16) 0.09167(11)
C8 C 0.84726(10) 0.23175(18) 0.01559(11)
H6 H 0.8419 0.1541 -0.0513
C9 C 0.65870(11) 0.17803(18) 0.04419(12)
H7 H 0.6397 0.2820 -0.0022
H8 H 0.6163 0.1781 0.1070
C10 C 0.63528(10) 0.01660(18) -0.02500(11)
C11 C 0.64630(12) -0.1464(2) 0.02505(14)
H9 H 0.6665 -0.1552 0.1031
C12 C 0.62794(13) -0.2956(2) -0.03818(16)
H10 H 0.6359 -0.4063 -0.0032
C13 C 0.59819(12) -0.2852(2) -0.15163(16)
H11 H 0.5858 -0.3880 -0.1948
C14 C 0.58667(12) -0.1248(2) -0.20135(15)
H12 H 0.5656 -0.1170 -0.2793
C15 C 0.60541(11) 0.0262(2) -0.13919(12)
H13 H 0.5978 0.1364 -0.1748
loop_
_geom_bond_atom_site_label_1
_geom_bond_atom_site_label_2
_geom_bond_site_symmetry_1
_geom_bond_site_symmetry_2
O1 C1 1_555 1_555
O2 H1 1_555 1_555
N1 C1 1_555 1_555
C1 C2 1_555 1_555
C2 C3 1_555 1_555
C3 H2 1_555 1_555
C4 C3 1_555 1_555
H3 C4 1_555 1_555
C5 C4 1_555 1_555
H4 C5 1_555 1_555
C6 C5 1_555 1_555
H5 C6 1_555 1_555
C7 C2 1_555 1_555
C8 O2 1_555 1_555
H6 C8 1_555 1_555
C9 N1 1_555 1_555
H7 C9 1_555 1_555
H8 C9 1_555 1_555
C10 C9 1_555 1_555
C11 C10 1_555 1_555
H9 C11 1_555 1_555
C12 C11 1_555 1_555
H10 C12 1_555 1_555
C13 C12 1_555 1_555
H11 C13 1_555 1_555
C14 C13 1_555 1_555
H12 C14 1_555 1_555
C15 C10 1_555 1_555
H13 C15 1_555 1_555
N1 C8 1_555 1_555
C6 C7 1_555 1_555
C7 C8 1_555 1_555
C14 C15 1_555 1_555

#END
