
#######################################################################
#
#                 Cambridge Crystallographic Data Centre
#                                CCDC 
#
#######################################################################
#
# If this CIF has been generated from an entry in the Cambridge 
# Structural Database, then it will include bibliographic, chemical, 
# crystal, experimental, refinement or atomic coordinate data resulting 
# from the CCDC's data processing and validation procedures.
#
#######################################################################

data_DIXBIW
_chemical_formula_moiety         'C17 H11 N1 O4'
_chemical_name_systematic        
2-((3-Oxo-1,3-dihydro-2-benzofuran-5-yl)methyl)-1H-isoindole-1,3(2H)-dione
_symmetry_cell_setting           triclinic
_symmetry_space_group_name_H-M   'P -1'
_symmetry_Int_Tables_number      2
_space_group_name_Hall           '-P 1'
loop_
_symmetry_equiv_pos_site_id
_symmetry_equiv_pos_as_xyz
1 x,y,z
2 -x,-y,-z
_cell_length_a                   6.9911(10)
_cell_length_b                   8.4863(11)
_cell_length_c                   11.8735(15)
_cell_angle_alpha                96.183(8)
_cell_angle_beta                 104.654(7)
_cell_angle_gamma                109.326(7)
_cell_volume                     628.824
_exptl_crystal_colour            colorless
_exptl_crystal_description       block
_cell_formula_units_Z            2
_exptl_crystal_recrystallization_method 'ethyl acetate/hexane'
loop_
_atom_site_label
_atom_site_type_symbol
_atom_site_fract_x
_atom_site_fract_y
_atom_site_fract_z
O1 O 0.2674(2) 0.30147(15) 0.49093(11)
O2 O 0.0066(2) -0.15792(15) 0.18381(10)
O3 O 0.7232(2) 0.31049(16) -0.03625(11)
O4 O 0.4395(2) 0.06880(16) -0.11558(11)
N1 N 0.1282(2) 0.09687(17) 0.31779(12)
C1 C 0.2194(2) 0.1570(2) 0.43986(14)
C2 C 0.2401(2) 0.0083(2) 0.48934(14)
C3 C 0.3205(3) -0.0046(2) 0.60439(15)
H1 H 0.3738 0.0911 0.6686
C4 C 0.3211(3) -0.1629(2) 0.62342(15)
H2 H 0.3753 -0.1760 0.7023
C5 C 0.2442(3) -0.3025(2) 0.52968(16)
H3 H 0.2474 -0.4093 0.5451
C6 C 0.1625(3) -0.2879(2) 0.41369(16)
H4 H 0.1088 -0.3831 0.3491
C7 C 0.1619(2) -0.1309(2) 0.39560(14)
C8 C 0.0876(2) -0.0755(2) 0.28412(14)
C9 C 0.0815(3) 0.2028(2) 0.23436(14)
H5 H 0.0491 0.2950 0.2743
H6 H -0.0457 0.1325 0.1664
C10 C 0.2673(3) 0.2804(2) 0.18906(14)
C11 C 0.2905(3) 0.1902(2) 0.09251(14)
H7 H 0.1865 0.0813 0.0509
C12 C 0.4694(3) 0.2634(2) 0.05847(14)
C13 C 0.5310(3) 0.1966(2) -0.04011(14)
C14 C 0.7936(3) 0.4579(2) 0.05835(15)
H8 H 0.8078 0.5626 0.0261
H9 H 0.9324 0.4733 0.1151
C15 C 0.6229(3) 0.4199(2) 0.11741(14)
C16 C 0.6011(3) 0.5117(2) 0.21374(15)
H10 H 0.7057 0.6207 0.2548
C17 C 0.4225(3) 0.4401(2) 0.24835(14)
H11 H 0.4049 0.5013 0.3143
loop_
_geom_bond_atom_site_label_1
_geom_bond_atom_site_label_2
_geom_bond_site_symmetry_1
_geom_bond_site_symmetry_2
O1 C1 1_555 1_555
O2 C8 1_555 1_555
O3 C13 1_555 1_555
O4 C13 1_555 1_555
N1 C1 1_555 1_555
C1 C2 1_555 1_555
C2 C3 1_555 1_555
C3 H1 1_555 1_555
C4 C3 1_555 1_555
H2 C4 1_555 1_555
C5 C4 1_555 1_555
H3 C5 1_555 1_555
C6 C5 1_555 1_555
H4 C6 1_555 1_555
C7 C2 1_555 1_555
C8 N1 1_555 1_555
C9 N1 1_555 1_555
H5 C9 1_555 1_555
H6 C9 1_555 1_555
C10 C9 1_555 1_555
C11 C10 1_555 1_555
H7 C11 1_555 1_555
C12 C11 1_555 1_555
C13 C12 1_555 1_555
C14 O3 1_555 1_555
H8 C14 1_555 1_555
H9 C14 1_555 1_555
C15 C12 1_555 1_555
C16 C15 1_555 1_555
H10 C16 1_555 1_555
C17 C10 1_555 1_555
H11 C17 1_555 1_555
C6 C7 1_555 1_555
C7 C8 1_555 1_555
C14 C15 1_555 1_555
C16 C17 1_555 1_555

#END
