
#######################################################################
#
#                 Cambridge Crystallographic Data Centre
#                                CCDC 
#
#######################################################################
#
# If this CIF has been generated from an entry in the Cambridge 
# Structural Database, then it will include bibliographic, chemical, 
# crystal, experimental, refinement or atomic coordinate data resulting 
# from the CCDC's data processing and validation procedures.
#
#######################################################################

data_DIXBIW01
_chemical_formula_moiety         'C17 H11 N1 O4'
_chemical_name_systematic        
2-((3-Oxo-1,3-dihydro-2-benzofuran-5-yl)methyl)-1H-isoindole-1,3(2H)-dione
_symmetry_cell_setting           monoclinic
_symmetry_space_group_name_H-M   'P 21/n'
_symmetry_Int_Tables_number      14
_space_group_name_Hall           '-P 2yn'
loop_
_symmetry_equiv_pos_site_id
_symmetry_equiv_pos_as_xyz
1 x,y,z
2 1/2-x,1/2+y,1/2-z
3 -x,-y,-z
4 1/2+x,1/2-y,1/2+z
_cell_length_a                   11.324(2)
_cell_length_b                   8.5867(17)
_cell_length_c                   13.942(3)
_cell_angle_alpha                90
_cell_angle_beta                 102.08(3)
_cell_angle_gamma                90
_cell_volume                     1325.64
_exptl_crystal_colour            'light peach'
_exptl_crystal_description       block
_cell_formula_units_Z            4
_exptl_crystal_recrystallization_method 'acetic acid/isopropyl alcohol'
loop_
_atom_site_label
_atom_site_type_symbol
_atom_site_fract_x
_atom_site_fract_y
_atom_site_fract_z
O1 O 0.30246(13) 0.05177(18) 0.53536(10)
O2 O 0.68465(13) 0.23129(19) 0.65718(10)
O3 O 0.54483(14) 0.27521(18) 1.11956(10)
O4 O 0.69894(14) 0.12088(19) 1.10270(11)
N1 N 0.49383(15) 0.12376(19) 0.61847(11)
C1 C 0.39420(18) 0.1267(2) 0.53959(14)
C2 C 0.42807(17) 0.2336(2) 0.46629(14)
C3 C 0.36267(18) 0.2807(2) 0.37540(14)
H1 H 0.2822 0.2463 0.3512
C4 C 0.42023(19) 0.3805(2) 0.32130(14)
H2 H 0.3776 0.4167 0.2593
C5 C 0.5384(2) 0.4283(2) 0.35577(15)
H3 H 0.5759 0.4943 0.3162
C6 C 0.60325(18) 0.3812(2) 0.44753(14)
H4 H 0.6840 0.4146 0.4717
C7 C 0.54555(17) 0.2843(2) 0.50165(13)
C8 C 0.58845(17) 0.2157(2) 0.60056(14)
C9 C 0.5029(2) 0.0288(2) 0.70692(14)
H5 H 0.5841 -0.0192 0.7232
H6 H 0.4428 -0.0564 0.6931
C10 C 0.48219(17) 0.1201(2) 0.79483(13)
C11 C 0.56277(17) 0.1046(2) 0.88363(14)
H7 H 0.6333 0.0425 0.8894
C12 C 0.53747(17) 0.1825(2) 0.96401(14)
C13 C 0.60569(18) 0.1848(2) 1.06590(15)
C14 C 0.4346(2) 0.3359(3) 1.05763(15)
H8 H 0.4348 0.4512 1.0577
H9 H 0.3624 0.2988 1.0805
C15 C 0.43599(18) 0.2740(2) 0.95769(15)
C16 C 0.35575(19) 0.2929(3) 0.86841(15)
H10 H 0.2866 0.3577 0.8626
C17 C 0.38015(19) 0.2141(2) 0.78805(15)
H11 H 0.3258 0.2243 0.7265
loop_
_geom_bond_atom_site_label_1
_geom_bond_atom_site_label_2
_geom_bond_site_symmetry_1
_geom_bond_site_symmetry_2
O1 C1 1_555 1_555
O2 C8 1_555 1_555
O3 C13 1_555 1_555
O4 C13 1_555 1_555
N1 C1 1_555 1_555
C1 C2 1_555 1_555
C2 C3 1_555 1_555
C3 H1 1_555 1_555
C4 C3 1_555 1_555
H2 C4 1_555 1_555
C5 C4 1_555 1_555
H3 C5 1_555 1_555
C6 C5 1_555 1_555
H4 C6 1_555 1_555
C7 C2 1_555 1_555
C8 N1 1_555 1_555
C9 N1 1_555 1_555
H5 C9 1_555 1_555
H6 C9 1_555 1_555
C10 C9 1_555 1_555
C11 C10 1_555 1_555
H7 C11 1_555 1_555
C12 C11 1_555 1_555
C13 C12 1_555 1_555
C14 O3 1_555 1_555
H8 C14 1_555 1_555
H9 C14 1_555 1_555
C15 C12 1_555 1_555
C16 C15 1_555 1_555
H10 C16 1_555 1_555
C17 C10 1_555 1_555
H11 C17 1_555 1_555
C6 C7 1_555 1_555
C7 C8 1_555 1_555
C14 C15 1_555 1_555
C16 C17 1_555 1_555

#END
