
#######################################################################
#
#                 Cambridge Crystallographic Data Centre
#                                CCDC 
#
#######################################################################
#
# If this CIF has been generated from an entry in the Cambridge 
# Structural Database, then it will include bibliographic, chemical, 
# crystal, experimental, refinement or atomic coordinate data resulting 
# from the CCDC's data processing and validation procedures.
#
#######################################################################

data_DIXPUV
_chemical_formula_moiety         'C15 H14 S1'
_chemical_name_systematic        (-)-M-1-Thia(2.2)metacyclophane
_symmetry_cell_setting           monoclinic
_symmetry_space_group_name_H-M   'P 21'
_symmetry_Int_Tables_number      4
_space_group_name_Hall           'P 2yb'
loop_
_symmetry_equiv_pos_site_id
_symmetry_equiv_pos_as_xyz
1 x,y,z
2 -x,1/2+y,-z
_cell_length_a                   5.3340(10)
_cell_length_b                   13.6400(10)
_cell_length_c                   8.1260(10)
_cell_angle_alpha                90
_cell_angle_beta                 101.070(10)
_cell_angle_gamma                90
_cell_volume                     580.213
_exptl_crystal_colour            colorless
_exptl_crystal_description       plates
_cell_formula_units_Z            2
loop_
_atom_site_label
_atom_site_type_symbol
_atom_site_fract_x
_atom_site_fract_y
_atom_site_fract_z
S1 S -0.12142(16) 0.50000(8) -0.03664(10)
C1 C 0.1113(7) 0.5960(3) 0.0468(4)
H1 H 0.2616 0.5892 -0.0031
H2 H 0.0370 0.6599 0.0161
C2 C 0.1884(6) 0.5899(2) 0.2331(4)
C3 C 0.0323(6) 0.6300(2) 0.3385(4)
H3 H -0.1002 0.6725 0.2949
C4 C 0.0772(7) 0.6059(3) 0.5049(4)
H4 H -0.0194 0.6352 0.5752
C5 C 0.2656(6) 0.5382(2) 0.5706(4)
H5 H 0.2899 0.5212 0.6834
C6 C 0.4169(5) 0.4962(3) 0.4689(3)
C7 C 0.3870(6) 0.5283(2) 0.3033(4)
H6 H 0.5031 0.5079 0.2384
C8 C 0.5758(6) 0.4012(3) 0.5255(4)
H7 H 0.6292 0.4004 0.6466
H8 H 0.7272 0.3995 0.4758
C9 C 0.3981(6) 0.3085(3) 0.4650(4)
H9 H 0.4917 0.2486 0.4991
H10 H 0.2494 0.3100 0.5175
C10 C 0.3122(6) 0.3098(2) 0.2732(4)
C11 C 0.4591(6) 0.2677(2) 0.1669(4)
H11 H 0.5932 0.2260 0.2112
C12 C 0.4082(7) 0.2868(3) -0.0022(5)
H12 H 0.5018 0.2550 -0.0717
C13 C 0.2210(7) 0.3524(2) -0.0703(4)
H13 H 0.1940 0.3668 -0.1842
C14 C 0.0721(6) 0.3971(3) 0.0314(4)
C15 C 0.1087(6) 0.3695(2) 0.1997(4)
H14 H -0.0057 0.3915 0.2647
loop_
_geom_bond_atom_site_label_1
_geom_bond_atom_site_label_2
_geom_bond_site_symmetry_1
_geom_bond_site_symmetry_2
S1 C1 1_555 1_555
C1 H1 1_555 1_555
H2 C1 1_555 1_555
C2 C1 1_555 1_555
C3 C2 1_555 1_555
H3 C3 1_555 1_555
C4 C3 1_555 1_555
H4 C4 1_555 1_555
C5 C4 1_555 1_555
H5 C5 1_555 1_555
C6 C5 1_555 1_555
C7 C2 1_555 1_555
H6 C7 1_555 1_555
C8 C6 1_555 1_555
H7 C8 1_555 1_555
H8 C8 1_555 1_555
C9 C8 1_555 1_555
H9 C9 1_555 1_555
H10 C9 1_555 1_555
C10 C9 1_555 1_555
C11 C10 1_555 1_555
H11 C11 1_555 1_555
C12 C11 1_555 1_555
H12 C12 1_555 1_555
C13 C12 1_555 1_555
H13 C13 1_555 1_555
C14 S1 1_555 1_555
C15 C10 1_555 1_555
H14 C15 1_555 1_555
C6 C7 1_555 1_555
C13 C14 1_555 1_555
C14 C15 1_555 1_555

#END
