
#######################################################################
#
#                 Cambridge Crystallographic Data Centre
#                                CCDC 
#
#######################################################################
#
# If this CIF has been generated from an entry in the Cambridge 
# Structural Database, then it will include bibliographic, chemical, 
# crystal, experimental, refinement or atomic coordinate data resulting 
# from the CCDC's data processing and validation procedures.
#
#######################################################################

data_DIXQAD
_chemical_formula_moiety         'C30 H26 N4'
_chemical_name_systematic        
2-(4-(1,5-bis(4-(Dimethylamino)phenyl)penta-1,4-diyn-3-ylidene)cyclohex-2-enylidene)malononitrile
_symmetry_cell_setting           monoclinic
_symmetry_space_group_name_H-M   'P 21'
_symmetry_Int_Tables_number      4
_space_group_name_Hall           'P 2yb'
loop_
_symmetry_equiv_pos_site_id
_symmetry_equiv_pos_as_xyz
1 x,y,z
2 -x,1/2+y,-z
_cell_length_a                   6.4246(3)
_cell_length_b                   8.3928(4)
_cell_length_c                   22.8723(11)
_cell_angle_alpha                90
_cell_angle_beta                 93.101(2)
_cell_angle_gamma                90
_cell_volume                     1231.48
_exptl_crystal_colour            'dark purple'
_exptl_crystal_description       plate
_chemical_melting_point          'above 400deg.C'
_cell_formula_units_Z            2
loop_
_atom_site_label
_atom_site_type_symbol
_atom_site_fract_x
_atom_site_fract_y
_atom_site_fract_z
N1 N -0.4514(5) 0.2012(4) 0.58386(17)
N2 N -0.5531(5) -0.0948(4) 0.73944(17)
N3 N 0.9642(4) 0.9069(4) 0.53110(12)
N4 N 0.9903(5) 0.2294(4) 1.11136(11)
C1 C 0.6477(4) 0.5354(3) 0.71117(12)
C2 C 0.5584(4) 0.4528(3) 0.74484(12)
C3 C 0.4365(4) 0.3532(3) 0.78054(11)
C4 C 0.5175(5) 0.3256(4) 0.83887(13)
C5 C 0.5915(5) 0.3045(4) 0.88764(13)
C6 C 0.2511(4) 0.2898(4) 0.75896(12)
C7 C 0.1082(5) 0.1966(4) 0.79661(14)
C8 C -0.0310(5) 0.0810(5) 0.76362(14)
C9 C -0.1237(4) 0.1427(3) 0.70668(13)
C10 C 0.0023(4) 0.2496(4) 0.67488(14)
C11 C 0.1752(4) 0.3182(4) 0.69977(13)
C12 C -0.3129(4) 0.0941(4) 0.68422(14)
C13 C -0.3934(5) 0.1505(4) 0.62914(17)
C14 C -0.4451(5) -0.0136(4) 0.71510(18)
C15 C 0.7349(4) 0.6306(3) 0.66696(11)
C16 C 0.9350(4) 0.6938(3) 0.67145(12)
C17 C 1.0110(4) 0.7868(3) 0.62772(12)
C18 C 0.8881(4) 0.8192(3) 0.57611(12)
C19 C 0.6874(4) 0.7558(3) 0.57161(12)
C20 C 0.6134(4) 0.6621(3) 0.61596(12)
C21 C 1.1687(7) 0.9755(7) 0.5373(2)
C22 C 0.8296(7) 0.9579(5) 0.48182(16)
C23 C 0.6890(5) 0.2852(4) 0.94499(12)
C24 C 0.8801(6) 0.3537(5) 0.95899(14)
C25 C 0.9790(6) 0.3385(5) 1.01335(14)
C26 C 0.8885(5) 0.2489(4) 1.05723(12)
C27 C 0.6954(5) 0.1788(5) 1.04329(13)
C28 C 0.5970(5) 0.1949(4) 0.98811(13)
C29 C 1.1985(7) 0.2866(8) 1.12209(18)
C30 C 0.8904(9) 0.1519(7) 1.15863(17)
H1 H 1.153(4) 0.843(3) 0.6318(13)
H2 H 0.475(5) 0.621(4) 0.6107(12)
H3 H 0.264(4) 0.392(4) 0.6806(13)
H4 H 0.452(5) 0.152(4) 0.9819(13)
H5 H 1.043(6) 0.675(5) 0.7064(19)
H6 H 1.104(6) 0.383(5) 1.0211(16)
H7 H 0.778(7) 0.209(5) 1.1639(19)
H8 H 0.736(8) 0.860(7) 0.464(3)
H9 H 0.005(8) 0.282(8) 0.815(3)
H10 H -0.049(5) 0.280(4) 0.6329(16)
H11 H -0.153(6) 0.060(5) 0.7854(18)
H12 H 0.626(6) 0.112(5) 1.0683(17)
H13 H 0.073(6) -0.012(5) 0.7523(17)
H14 H 1.190(9) 0.397(9) 1.123(3)
H15 H 0.191(6) 0.142(5) 0.8254(17)
H16 H 0.595(5) 0.780(4) 0.5383(14)
H17 H 1.211(15) 1.097(17) 0.559(5)
H18 H 1.300(7) 0.242(6) 1.095(2)
H19 H 0.942(6) 0.417(6) 0.9311(18)
H20 H 1.265(7) 0.245(6) 1.163(2)
H21 H 1.256(9) 0.898(8) 0.544(3)
H22 H 1.189(10) 1.017(8) 0.500(3)
H23 H 0.832(9) 0.031(8) 1.148(3)
H24 H 0.725(9) 1.034(8) 0.498(3)
H25 H 1.016(9) 0.129(8) 1.191(3)
H26 H 0.925(8) 1.019(6) 0.452(2)
loop_
_geom_bond_atom_site_label_1
_geom_bond_atom_site_label_2
_geom_bond_site_symmetry_1
_geom_bond_site_symmetry_2
N1 C13 1_555 1_555
N2 C14 1_555 1_555
N3 C18 1_555 1_555
N4 C26 1_555 1_555
C1 C2 1_555 1_555
C2 C3 1_555 1_555
C3 C4 1_555 1_555
C4 C5 1_555 1_555
C5 C23 1_555 1_555
C6 C3 1_555 1_555
C7 C6 1_555 1_555
C8 C7 1_555 1_555
C9 C8 1_555 1_555
C10 C9 1_555 1_555
C11 C6 1_555 1_555
C12 C9 1_555 1_555
C13 C12 1_555 1_555
C14 C12 1_555 1_555
C15 C1 1_555 1_555
C16 C15 1_555 1_555
C17 C16 1_555 1_555
C18 C17 1_555 1_555
C19 C18 1_555 1_555
C20 C15 1_555 1_555
C21 N3 1_555 1_555
C22 N3 1_555 1_555
C23 C24 1_555 1_555
C24 C25 1_555 1_555
C25 C26 1_555 1_555
C26 C27 1_555 1_555
C27 C28 1_555 1_555
C28 C23 1_555 1_555
C29 N4 1_555 1_555
C30 N4 1_555 1_555
H1 C17 1_555 1_555
H2 C20 1_555 1_555
H3 C11 1_555 1_555
H4 C28 1_555 1_555
H5 C16 1_555 1_555
H6 C25 1_555 1_555
H7 C30 1_555 1_555
H8 C22 1_555 1_555
H9 C7 1_555 1_555
H10 C10 1_555 1_555
H11 C8 1_555 1_555
H12 C27 1_555 1_555
H13 C8 1_555 1_555
H14 C29 1_555 1_555
H15 C7 1_555 1_555
H16 C19 1_555 1_555
H17 C21 1_555 1_555
H18 C29 1_555 1_555
H19 C24 1_555 1_555
H20 C29 1_555 1_555
H21 C21 1_555 1_555
H22 C21 1_555 1_555
H23 C30 1_555 1_555
H24 C22 1_555 1_555
H25 C30 1_555 1_555
H26 C22 1_555 1_555
C10 C11 1_555 1_555
C19 C20 1_555 1_555

#END
