
#######################################################################
#
#                 Cambridge Crystallographic Data Centre
#                                CCDC 
#
#######################################################################
#
# If this CIF has been generated from an entry in the Cambridge 
# Structural Database, then it will include bibliographic, chemical, 
# crystal, experimental, refinement or atomic coordinate data resulting 
# from the CCDC's data processing and validation procedures.
#
#######################################################################

data_DIXQIK
_chemical_formula_moiety         'C14 H12 O3 S1'
_chemical_name_systematic        
(+)-P-9-Oxa-1-thia(2.2)metacyclophane-1,1'-dioxide
_symmetry_cell_setting           monoclinic
_symmetry_space_group_name_H-M   'P 21'
_symmetry_Int_Tables_number      4
_space_group_name_Hall           'P 2yb'
loop_
_symmetry_equiv_pos_site_id
_symmetry_equiv_pos_as_xyz
1 x,y,z
2 -x,1/2+y,-z
_cell_length_a                   8.394(1)
_cell_length_b                   5.437(1)
_cell_length_c                   12.854(1)
_cell_angle_alpha                90
_cell_angle_beta                 91.65(1)
_cell_angle_gamma                90
_cell_volume                     586.39
_exptl_crystal_colour            colorless
_exptl_crystal_description       blocks
_cell_formula_units_Z            2
loop_
_atom_site_label
_atom_site_type_symbol
_atom_site_fract_x
_atom_site_fract_y
_atom_site_fract_z
S1 S 0.78529(9) 0.49974(17) 0.56114(5)
C1 C 0.9394(4) 0.6403(7) 0.6435(3)
H1 H 1.0408 0.6307 0.6094
H2 H 0.9144 0.8126 0.6539
C2 C 0.9524(3) 0.5130(7) 0.7470(2)
C3 C 1.0507(4) 0.3077(7) 0.7622(3)
H3 H 1.1268 0.2698 0.7136
C4 C 1.0353(5) 0.1611(8) 0.8487(3)
H4 H 1.1078 0.0344 0.8614
C5 C 0.9124(4) 0.2004(7) 0.9174(3)
H5 H 0.8964 0.0931 0.9725
C6 C 0.8146(4) 0.4025(7) 0.9019(2)
C7 C 0.8414(4) 0.5680(6) 0.8224(2)
H6 H 0.7856 0.7156 0.8193
O1 O 0.6761(3) 0.4256(5) 0.95847(18)
C8 C 0.5392(4) 0.3080(7) 0.9052(3)
H7 H 0.4464 0.3203 0.9481
H8 H 0.5618 0.1351 0.8944
C9 C 0.5055(4) 0.4306(6) 0.8022(3)
C10 C 0.4100(4) 0.6390(7) 0.7941(3)
H9 H 0.3443 0.6807 0.8484
C11 C 0.4117(4) 0.7852(8) 0.7057(3)
H10 H 0.3395 0.9141 0.6981
C12 C 0.5200(4) 0.7409(7) 0.6289(3)
H11 H 0.5302 0.8502 0.5738
C13 C 0.6134(3) 0.5296(6) 0.6355(2)
C14 C 0.5994(4) 0.3673(7) 0.7189(2)
H12 H 0.6527 0.2173 0.7188
O2 O 0.8201(3) 0.2418(5) 0.5525(2)
O3 O 0.7675(4) 0.6452(6) 0.46851(19)
loop_
_geom_bond_atom_site_label_1
_geom_bond_atom_site_label_2
_geom_bond_site_symmetry_1
_geom_bond_site_symmetry_2
S1 C1 1_555 1_555
C1 H1 1_555 1_555
H2 C1 1_555 1_555
C2 C1 1_555 1_555
C3 C2 1_555 1_555
H3 C3 1_555 1_555
C4 C3 1_555 1_555
H4 C4 1_555 1_555
C5 C4 1_555 1_555
H5 C5 1_555 1_555
C6 C5 1_555 1_555
C7 C2 1_555 1_555
H6 C7 1_555 1_555
O1 C6 1_555 1_555
C8 O1 1_555 1_555
H7 C8 1_555 1_555
H8 C8 1_555 1_555
C9 C8 1_555 1_555
C10 C9 1_555 1_555
H9 C10 1_555 1_555
C11 C10 1_555 1_555
H10 C11 1_555 1_555
C12 C11 1_555 1_555
H11 C12 1_555 1_555
C13 S1 1_555 1_555
C14 C9 1_555 1_555
H12 C14 1_555 1_555
O2 S1 1_555 1_555
O3 S1 1_555 1_555
C6 C7 1_555 1_555
C12 C13 1_555 1_555
C13 C14 1_555 1_555

#END
