
#######################################################################
#
#                 Cambridge Crystallographic Data Centre
#                                CCDC 
#
#######################################################################
#
# If this CIF has been generated from an entry in the Cambridge 
# Structural Database, then it will include bibliographic, chemical, 
# crystal, experimental, refinement or atomic coordinate data resulting 
# from the CCDC's data processing and validation procedures.
#
#######################################################################

data_DIXQOS
_chemical_formula_moiety         'C59 H40 F2 N2 S4,0.5(C1 H2 Cl2)'
_chemical_name_systematic        
'6,30-bis(4-Fluorophenyl)-14,22-dimethyl-11,25-diphenyl-13,23,34,39-tetrathia-35,38-diazanonacyclo[29.2.1.1^2,5^.1^7,10^.1^12,15^.1^21,24^.1^26,29^.0^14,22^.0^16,20^]nonatriaconta-1(33),2,4,6,8,10(38),11,15(37),16(20),21(36),24,26(35),27,29,31-pentadecaene dichloromethane solvate'
_symmetry_cell_setting           monoclinic
_symmetry_space_group_name_H-M   'C 2/c'
_symmetry_Int_Tables_number      15
_space_group_name_Hall           '-C 2yn'
loop_
_symmetry_equiv_pos_site_id
_symmetry_equiv_pos_as_xyz
1 x,y,z
2 -x,y,1/2-z
3 1/2+x,1/2+y,z
4 1/2-x,1/2+y,1/2-z
5 -x,-y,-z
6 x,-y,1/2+z
7 1/2-x,1/2-y,-z
8 1/2+x,1/2-y,1/2+z
_cell_length_a                   13.741(3)
_cell_length_b                   18.160(4)
_cell_length_c                   37.729(8)
_cell_angle_alpha                90
_cell_angle_beta                 95.668(2)
_cell_angle_gamma                90
_cell_volume                     9368.74
_exptl_crystal_colour            red
_exptl_crystal_description       prism
_cell_formula_units_Z            8
loop_
_atom_site_label
_atom_site_type_symbol
_atom_site_fract_x
_atom_site_fract_y
_atom_site_fract_z
S1 S 0.37730(6) 0.11801(5) 0.18856(2)
C1 C 0.3946(2) 0.02429(19) 0.19630(8)
C2 C 0.3930(2) 0.0090(2) 0.23209(9)
H1 H 0.4005 -0.0393 0.2417
C3 C 0.3796(2) 0.07026(19) 0.25267(8)
H2 H 0.3761 0.0679 0.2777
C4 C 0.3716(2) 0.13510(19) 0.23365(8)
S2 S 0.36277(6) 0.28869(5) 0.22559(2)
C5 C 0.3648(2) 0.20709(19) 0.24910(8)
C6 C 0.3626(2) 0.2207(2) 0.28508(8)
H3 H 0.3610 0.1828 0.3024
C7 C 0.3628(2) 0.2945(2) 0.29338(9)
H4 H 0.3621 0.3121 0.3171
C8 C 0.3643(2) 0.34119(19) 0.26425(8)
C9 C 0.3717(2) 0.41993(19) 0.26538(8)
N1 N 0.29900(19) 0.44372(15) 0.20448(7)
C10 C 0.3489(2) 0.46633(19) 0.23677(8)
C11 C 0.3688(2) 0.5443(2) 0.23546(9)
H5 H 0.4039 0.5729 0.2536
C12 C 0.3284(2) 0.5688(2) 0.20385(9)
H6 H 0.3283 0.6180 0.1953
C13 C 0.2849(2) 0.50531(19) 0.18535(8)
C14 C 0.2293(2) 0.50805(19) 0.15060(8)
C15 C 0.2060(2) 0.4468(2) 0.13057(9)
C16 C 0.1492(2) 0.4478(2) 0.09623(9)
H7 H 0.1200 0.4916 0.0863
C17 C 0.1405(3) 0.3831(2) 0.07934(10)
C18 C 0.0948(3) 0.36829(19) 0.04426(9)
C19 C 0.0355(3) 0.4217(2) 0.02076(9)
H8 H 0.0745 0.4657 0.0159
H9 H -0.0235 0.4375 0.0318
C20 C 0.0077(4) 0.3775(2) -0.01346(11)
H10 H -0.0643 0.3741 -0.0182
H11 H 0.0336 0.4020 -0.0340
C21 C 0.0513(4) 0.3022(3) -0.00812(11)
H12 H 0.0979 0.2921 -0.0259
H13 H -0.0004 0.2641 -0.0102
C22 C 0.1032(3) 0.3032(2) 0.02900(9)
C23 C 0.1580(3) 0.2448(2) 0.04730(9)
C24 C 0.1644(3) 0.1740(2) 0.03831(9)
H14 H 0.1332 0.1553 0.0166
C25 C 0.2215(3) 0.1275(2) 0.06340(8)
C26 C 0.2370(2) 0.05452(19) 0.05945(8)
C27 C 0.2956(2) 0.0107(2) 0.08534(8)
C28 C 0.3254(3) -0.0643(2) 0.07898(9)
H15 H 0.3119 -0.0918 0.0576
C29 C 0.3757(2) -0.0872(2) 0.10908(9)
H16 H 0.4067 -0.1336 0.1131
C30 C 0.3738(2) -0.02729(19) 0.13432(8)
N2 N 0.32646(19) 0.03323(15) 0.11797(7)
C31 C 0.4048(2) -0.03188(19) 0.16997(8)
C32 C 0.3240(11) 0.3162(11) 0.0709(5)
H17 H 0.3022 0.3650 0.0624
H18 H 0.3569 0.2912 0.0524
H19 H 0.3697 0.3214 0.0924
C33 C 0.0857(12) 0.2680(10) 0.1152(6)
H20 H 0.0473 0.2480 0.0941
H21 H 0.0436 0.2987 0.1286
H22 H 0.1124 0.2275 0.1303
S3 S 0.2394(10) 0.3562(9) 0.1437(2)
C34 C 0.1701(5) 0.3149(3) 0.10348(15)
C35 C 0.2348(5) 0.2703(3) 0.07958(14)
S4 S 0.2780(5) 0.1829(6) 0.0997(2)
C36 C 0.4465(2) -0.10269(18) 0.18411(8)
C37 C 0.3892(3) -0.1650(2) 0.18561(11)
H23 H 0.3213 -0.1624 0.1780
C38 C 0.4287(4) -0.2306(2) 0.19796(12)
H24 H 0.3889 -0.2731 0.1991
C39 C 0.5269(4) -0.2336(2) 0.20865(11)
F1 F 0.5669(2) -0.29815(13) 0.22024(7)
C40 C 0.5857(3) -0.1737(2) 0.20815(9)
H25 H 0.6533 -0.1769 0.2163
C41 C 0.5450(2) -0.1081(2) 0.19557(8)
H26 H 0.5854 -0.0658 0.1948
C42 C 0.4043(2) 0.45373(19) 0.30064(8)
C43 C 0.4855(2) 0.4274(2) 0.32192(9)
H27 H 0.5204 0.3861 0.3142
C44 C 0.5160(3) 0.4605(2) 0.35403(9)
H28 H 0.5713 0.4425 0.3685
C45 C 0.4649(3) 0.5197(2) 0.36453(9)
F2 F 0.49568(16) 0.55306(13) 0.39584(5)
C46 C 0.3839(3) 0.5472(2) 0.34508(9)
H29 H 0.3491 0.5880 0.3533
C47 C 0.3545(2) 0.5131(2) 0.31292(9)
H30 H 0.2983 0.5312 0.2989
C48 C 0.1966(2) 0.58183(19) 0.13656(8)
C49 C 0.2635(3) 0.6335(2) 0.12643(9)
H31 H 0.3310 0.6214 0.1281
C50 C 0.2327(3) 0.7021(2) 0.11400(10)
H32 H 0.2792 0.7373 0.1078
C51 C 0.1339(3) 0.7195(2) 0.11061(10)
H33 H 0.1126 0.7664 0.1018
C52 C 0.0673(3) 0.6687(2) 0.11996(9)
H34 H -0.0004 0.6803 0.1175
C53 C 0.0984(3) 0.6005(2) 0.13303(8)
H35 H 0.0516 0.5659 0.1397
C54 C 0.1868(2) 0.01234(19) 0.02882(9)
C55 C 0.2080(3) 0.0220(2) -0.00582(9)
H36 H 0.2539 0.0585 -0.0111
C56 C 0.1630(3) -0.0211(2) -0.03320(10)
H37 H 0.1787 -0.0145 -0.0570
C57 C 0.0957(3) -0.0732(2) -0.02564(11)
H38 H 0.0639 -0.1021 -0.0443
C58 C 0.0740(3) -0.0841(2) 0.00900(11)
H39 H 0.0285 -0.1210 0.0142
C59 C 0.1186(3) -0.0413(2) 0.03593(10)
H40 H 0.1028 -0.0483 0.0597
S5? S 0.2544(16) 0.3580(16) 0.1372(4)
C60? C 0.2256(8) 0.3275(6) 0.0909(2)
S6? S 0.2520(8) 0.1740(9) 0.1020(4)
C61? C 0.1720(8) 0.2534(5) 0.0887(2)
C62? C 0.3179(13) 0.3267(17) 0.0708(6)
H41? H 0.3655 0.2918 0.0823
H42? H 0.3467 0.3761 0.0712
H43? H 0.3002 0.3116 0.0460
C63? C 0.083(2) 0.2522(18) 0.1106(10)
H44? H 0.1057 0.2541 0.1361
H45? H 0.0457 0.2068 0.1055
H46? H 0.0413 0.2948 0.1043
Cl1? Cl 0.37526(16) -0.23873(14) 0.04197(6)
C64? C 0.2525(9) -0.2645(13) 0.0225(5)
H47? H 0.2392 -0.3166 0.0281
H48? H 0.2029 -0.2333 0.0326
Cl2? Cl 0.2465(5) -0.2522(4) -0.02323(16)
loop_
_geom_bond_atom_site_label_1
_geom_bond_atom_site_label_2
_geom_bond_site_symmetry_1
_geom_bond_site_symmetry_2
S1 C1 1_555 1_555
C1 C2 1_555 1_555
C2 H1 1_555 1_555
C3 C2 1_555 1_555
H2 C3 1_555 1_555
C4 S1 1_555 1_555
S2 C5 1_555 1_555
C5 C4 1_555 1_555
C6 C5 1_555 1_555
H3 C6 1_555 1_555
C7 C6 1_555 1_555
H4 C7 1_555 1_555
C8 S2 1_555 1_555
C9 C8 1_555 1_555
N1 C10 1_555 1_555
C10 C9 1_555 1_555
C11 C10 1_555 1_555
H5 C11 1_555 1_555
C12 C11 1_555 1_555
H6 C12 1_555 1_555
C13 N1 1_555 1_555
C14 C13 1_555 1_555
C15 C14 1_555 1_555
C16 C15 1_555 1_555
H7 C16 1_555 1_555
C17 C16 1_555 1_555
C18 C17 1_555 1_555
C19 C18 1_555 1_555
H8 C19 1_555 1_555
H9 C19 1_555 1_555
C20 C19 1_555 1_555
H10 C20 1_555 1_555
H11 C20 1_555 1_555
C21 C20 1_555 1_555
H12 C21 1_555 1_555
H13 C21 1_555 1_555
C22 C18 1_555 1_555
C23 C22 1_555 1_555
C24 C23 1_555 1_555
H14 C24 1_555 1_555
C25 C24 1_555 1_555
C26 C25 1_555 1_555
C27 C26 1_555 1_555
C28 C27 1_555 1_555
H15 C28 1_555 1_555
C29 C28 1_555 1_555
H16 C29 1_555 1_555
C30 C29 1_555 1_555
N2 C27 1_555 1_555
C31 C1 1_555 1_555
C32 H17 1_555 1_555
H18 C32 1_555 1_555
H19 C32 1_555 1_555
C33 H20 1_555 1_555
H21 C33 1_555 1_555
H22 C33 1_555 1_555
S3 C15 1_555 1_555
C34 C17 1_555 1_555
C35 C23 1_555 1_555
S4 C25 1_555 1_555
C36 C31 1_555 1_555
C37 C36 1_555 1_555
H23 C37 1_555 1_555
C38 C37 1_555 1_555
H24 C38 1_555 1_555
C39 C38 1_555 1_555
F1 C39 1_555 1_555
C40 C39 1_555 1_555
H25 C40 1_555 1_555
C41 C36 1_555 1_555
H26 C41 1_555 1_555
C42 C9 1_555 1_555
C43 C42 1_555 1_555
H27 C43 1_555 1_555
C44 C43 1_555 1_555
H28 C44 1_555 1_555
C45 C44 1_555 1_555
F2 C45 1_555 1_555
C46 C45 1_555 1_555
H29 C46 1_555 1_555
C47 C42 1_555 1_555
H30 C47 1_555 1_555
C48 C14 1_555 1_555
C49 C48 1_555 1_555
H31 C49 1_555 1_555
C50 C49 1_555 1_555
H32 C50 1_555 1_555
C51 C50 1_555 1_555
H33 C51 1_555 1_555
C52 C51 1_555 1_555
H34 C52 1_555 1_555
C53 C48 1_555 1_555
H35 C53 1_555 1_555
C54 C26 1_555 1_555
C55 C54 1_555 1_555
H36 C55 1_555 1_555
C56 C55 1_555 1_555
H37 C56 1_555 1_555
C57 C56 1_555 1_555
H38 C57 1_555 1_555
C58 C57 1_555 1_555
H39 C58 1_555 1_555
C59 C54 1_555 1_555
H40 C59 1_555 1_555
C3 C4 1_555 1_555
C7 C8 1_555 1_555
C12 C13 1_555 1_555
C21 C22 1_555 1_555
C30 N2 1_555 1_555
C30 C31 1_555 1_555
C32 C35 1_555 1_555
C33 C34 1_555 1_555
S3 C34 1_555 1_555
C34 C35 1_555 1_555
C35 S4 1_555 1_555
C40 C41 1_555 1_555
C46 C47 1_555 1_555
C52 C53 1_555 1_555
C58 C59 1_555 1_555

#END
