
#######################################################################
#
#                 Cambridge Crystallographic Data Centre
#                                CCDC 
#
#######################################################################
#
# If this CIF has been generated from an entry in the Cambridge 
# Structural Database, then it will include bibliographic, chemical, 
# crystal, experimental, refinement or atomic coordinate data resulting 
# from the CCDC's data processing and validation procedures.
#
#######################################################################

data_DIXQEG
_chemical_formula_moiety         'C22 H21 N1 O2 S2'
_chemical_name_systematic        
8-Methyl-10-(p-toluenesulfonyl)-1-thia-10-aza(2.2)metacyclophane
_symmetry_cell_setting           triclinic
_symmetry_space_group_name_H-M   'P -1'
_symmetry_Int_Tables_number      2
_space_group_name_Hall           '-P 1'
loop_
_symmetry_equiv_pos_site_id
_symmetry_equiv_pos_as_xyz
1 x,y,z
2 -x,-y,-z
_cell_length_a                   7.124(1)
_cell_length_b                   9.731(2)
_cell_length_c                   14.518(3)
_cell_angle_alpha                92.74(1)
_cell_angle_beta                 97.96(1)
_cell_angle_gamma                103.92(1)
_cell_volume                     964.021
_exptl_crystal_colour            colorless
_exptl_crystal_description       blocks
_cell_formula_units_Z            2
loop_
_atom_site_label
_atom_site_type_symbol
_atom_site_fract_x
_atom_site_fract_y
_atom_site_fract_z
C1 C 0.5988(5) 1.0088(4) 0.1476(2)
H1 H 0.7104 0.9760 0.1310
H2 H 0.6063 1.0163 0.2156
H3 H 0.6018 1.1020 0.1243
S1 S 0.13124(14) 0.98764(11) 0.27543(7)
C2 C 0.2078(6) 1.0579(4) 0.1654(3)
H4 H 0.1086 1.1037 0.1346
H5 H 0.3338 1.1307 0.1803
C3 C 0.2304(5) 0.9402(4) 0.0995(2)
C4 C 0.0646(5) 0.8519(4) 0.0465(2)
H6 H -0.0558 0.8788 0.0414
C5 C 0.0710(5) 0.7254(4) 0.0007(2)
H7 H -0.0394 0.6707 -0.0410
C6 C 0.2423(5) 0.6802(4) 0.0170(2)
H8 H 0.2447 0.5891 -0.0088
C7 C 0.4097(5) 0.7656(4) 0.0701(2)
C8 C 0.4112(5) 0.9043(3) 0.1044(2)
C9 C 0.5690(5) 0.6968(4) 0.1090(2)
H9 H 0.6962 0.7687 0.1216
H10 H 0.5797 0.6218 0.0629
N1 N 0.5206(4) 0.6327(3) 0.19839(17)
C10 C 0.4938(5) 0.7297(3) 0.2700(2)
C11 C 0.6491(5) 0.7928(4) 0.3383(2)
H11 H 0.7635 0.7580 0.3463
C12 C 0.6366(6) 0.9086(4) 0.3957(2)
H12 H 0.7383 0.9480 0.4462
C13 C 0.4772(6) 0.9659(4) 0.3792(2)
H13 H 0.4750 1.0496 0.4151
C14 C 0.3205(5) 0.9026(4) 0.3111(2)
C15 C 0.3232(5) 0.7775(4) 0.2607(2)
H14 H 0.2094 0.7252 0.2203
S2 S 0.41893(11) 0.46350(8) 0.19969(5)
O1 O 0.4342(4) 0.3963(3) 0.11265(16)
O2 O 0.2297(3) 0.4432(3) 0.22841(18)
C16 C 0.5728(5) 0.4098(3) 0.2891(2)
C17 C 0.7479(5) 0.3852(4) 0.2710(2)
H15 H 0.7849 0.3973 0.2109
C18 C 0.8687(5) 0.3427(5) 0.3410(3)
H16 H 0.9878 0.3240 0.3282
C19 C 0.8189(5) 0.3271(4) 0.4296(3)
C20 C 0.6441(6) 0.3538(4) 0.4465(3)
H17 H 0.6090 0.3444 0.5071
C21 C 0.5194(5) 0.3940(4) 0.3771(2)
H18 H 0.3988 0.4105 0.3895
C22 C 0.9561(7) 0.2844(5) 0.5055(3)
H19 H 1.0422 0.3698 0.5411
H20 H 1.0354 0.2295 0.4773
H21 H 0.8798 0.2262 0.5473
loop_
_geom_bond_atom_site_label_1
_geom_bond_atom_site_label_2
_geom_bond_site_symmetry_1
_geom_bond_site_symmetry_2
C1 H1 1_555 1_555
H2 C1 1_555 1_555
H3 C1 1_555 1_555
S1 C2 1_555 1_555
C2 H4 1_555 1_555
H5 C2 1_555 1_555
C3 C2 1_555 1_555
C4 C3 1_555 1_555
H6 C4 1_555 1_555
C5 C4 1_555 1_555
H7 C5 1_555 1_555
C6 C5 1_555 1_555
H8 C6 1_555 1_555
C7 C6 1_555 1_555
C8 C1 1_555 1_555
C9 C7 1_555 1_555
H9 C9 1_555 1_555
H10 C9 1_555 1_555
N1 C9 1_555 1_555
C10 N1 1_555 1_555
C11 C10 1_555 1_555
H11 C11 1_555 1_555
C12 C11 1_555 1_555
H12 C12 1_555 1_555
C13 C12 1_555 1_555
H13 C13 1_555 1_555
C14 S1 1_555 1_555
C15 C10 1_555 1_555
H14 C15 1_555 1_555
S2 N1 1_555 1_555
O1 S2 1_555 1_555
O2 S2 1_555 1_555
C16 S2 1_555 1_555
C17 C16 1_555 1_555
H15 C17 1_555 1_555
C18 C17 1_555 1_555
H16 C18 1_555 1_555
C19 C18 1_555 1_555
C20 C19 1_555 1_555
H17 C20 1_555 1_555
C21 C16 1_555 1_555
H18 C21 1_555 1_555
C22 C19 1_555 1_555
H19 C22 1_555 1_555
H20 C22 1_555 1_555
H21 C22 1_555 1_555
C3 C8 1_555 1_555
C7 C8 1_555 1_555
C13 C14 1_555 1_555
C14 C15 1_555 1_555
C20 C21 1_555 1_555

#END
