
#######################################################################
#
#                 Cambridge Crystallographic Data Centre
#                                CCDC 
#
#######################################################################
#
# If this CIF has been generated from an entry in the Cambridge 
# Structural Database, then it will include bibliographic, chemical, 
# crystal, experimental, refinement or atomic coordinate data resulting 
# from the CCDC's data processing and validation procedures.
#
#######################################################################

data_DIXQUX
_chemical_formula_moiety         'C30 H18 Cl1 N5'
_chemical_name_systematic        
(Z)-2,2'-(2-(2-Chloro-2-(4-(dimethylamino)phenyl)vinyl)-anthracene-9,10-diylidene)dimalononitrile
_symmetry_cell_setting           monoclinic
_symmetry_space_group_name_H-M   'P 21/n'
_symmetry_Int_Tables_number      14
_space_group_name_Hall           '-P 2yn'
loop_
_symmetry_equiv_pos_site_id
_symmetry_equiv_pos_as_xyz
1 x,y,z
2 1/2-x,1/2+y,1/2-z
3 -x,-y,-z
4 1/2+x,1/2-y,1/2+z
_cell_length_a                   9.9793(2)
_cell_length_b                   12.7394(3)
_cell_length_c                   18.3064(4)
_cell_angle_alpha                90
_cell_angle_beta                 91.5790(13)
_cell_angle_gamma                90
_cell_volume                     2326.41
_exptl_crystal_colour            'dark purple'
_exptl_crystal_description       Cube
_chemical_melting_point          290-291deg.C
_cell_formula_units_Z            4
loop_
_atom_site_label
_atom_site_type_symbol
_atom_site_fract_x
_atom_site_fract_y
_atom_site_fract_z
C1 C -0.37167(19) 0.29175(17) 0.21684(10)
Cl1 Cl -0.41610(5) 0.46632(4) 0.13842(3)
N1 N -0.1078(2) -0.12882(16) 0.10400(10)
N2 N 0.2677(2) -0.10163(18) 0.00628(11)
N3 N -0.29007(18) 0.38313(16) -0.03580(10)
N4 N 0.0875(2) 0.41235(19) -0.12592(11)
N5 N -0.98488(18) 0.38249(19) 0.31405(11)
C2 C -0.24495(17) 0.25531(15) 0.18809(9)
C3 C -0.19761(18) 0.15963(16) 0.21711(10)
C4 C -0.08847(18) 0.10854(16) 0.18943(10)
C5 C -0.01926(17) 0.15238(15) 0.13164(9)
C6 C 0.09339(17) 0.09971(16) 0.09750(9)
C7 C 0.20146(17) 0.17044(16) 0.07474(9)
C8 C 0.33724(19) 0.1416(2) 0.07815(11)
C9 C 0.4339(2) 0.2119(2) 0.05513(11)
C10 C 0.3971(2) 0.3092(2) 0.02856(12)
C11 C 0.2623(2) 0.33945(19) 0.02580(11)
C12 C 0.16468(17) 0.27000(16) 0.04851(9)
C13 C 0.01966(17) 0.29598(14) 0.04495(9)
C14 C -0.05930(17) 0.25203(14) 0.10476(9)
C15 C -0.17089(17) 0.30212(16) 0.13291(9)
C16 C 0.09262(19) -0.00528(17) 0.08285(9)
C17 C -0.0198(2) -0.07249(16) 0.09712(10)
C18 C 0.1941(2) -0.05711(18) 0.04153(11)
C19 C -0.03705(18) 0.34816(15) -0.01229(10)
C20 C -0.17936(19) 0.36630(15) -0.02250(10)
C21 C 0.0358(2) 0.38383(17) -0.07476(10)
C22 C -0.46023(18) 0.36641(16) 0.19894(9)
C23 C -0.59720(18) 0.37234(16) 0.22709(9)
C24 C -0.6482(2) 0.29082(18) 0.26911(12)
C25 C -0.7743(2) 0.29417(19) 0.29773(12)
C26 C -0.86056(19) 0.37922(18) 0.28437(10)
C27 C -0.8116(2) 0.45968(19) 0.24013(12)
C28 C -0.6840(2) 0.45619(18) 0.21257(11)
C29 C -1.0766(2) 0.4672(2) 0.29827(13)
C30 C -1.0269(2) 0.3008(3) 0.36359(13)
H1 H -0.195(2) 0.365(2) 0.1181(11)
H2 H -0.863(3) 0.527(3) 0.2285(17)
H3 H -0.657(3) 0.514(2) 0.1865(15)
H4 H -0.060(2) 0.045(2) 0.2102(12)
H5 H -0.597(3) 0.236(2) 0.2773(14)
H6 H 0.356(2) 0.073(2) 0.1029(12)
H7 H -0.804(2) 0.2378(19) 0.3304(12)
H8 H 0.236(2) 0.410(2) 0.0093(12)
H9 H 0.464(2) 0.362(2) 0.0129(12)
H10 H -1.034(3) 0.542(2) 0.3074(16)
H11 H -0.405(3) 0.246(2) 0.2502(16)
H12 H -0.244(2) 0.1297(18) 0.2534(12)
H13 H 0.526(3) 0.192(2) 0.0609(12)
H14 H -1.095(3) 0.467(2) 0.2426(15)
H15 H -0.954(4) 0.294(3) 0.4069(19)
H16 H -1.154(4) 0.460(3) 0.3171(18)
H17 H -1.102(3) 0.320(3) 0.3837(15)
H18 H -1.017(3) 0.234(3) 0.3399(16)
loop_
_geom_bond_atom_site_label_1
_geom_bond_atom_site_label_2
_geom_bond_site_symmetry_1
_geom_bond_site_symmetry_2
C1 C2 1_555 1_555
Cl1 C22 1_555 1_555
N1 C17 1_555 1_555
N2 C18 1_555 1_555
N3 C20 1_555 1_555
N4 C21 1_555 1_555
N5 C26 1_555 1_555
C2 C3 1_555 1_555
C3 C4 1_555 1_555
C4 C5 1_555 1_555
C5 C6 1_555 1_555
C6 C7 1_555 1_555
C7 C8 1_555 1_555
C8 C9 1_555 1_555
C9 C10 1_555 1_555
C10 C11 1_555 1_555
C11 C12 1_555 1_555
C12 C7 1_555 1_555
C13 C12 1_555 1_555
C14 C5 1_555 1_555
C15 C2 1_555 1_555
C16 C6 1_555 1_555
C17 C16 1_555 1_555
C18 C16 1_555 1_555
C19 C13 1_555 1_555
C20 C19 1_555 1_555
C21 C19 1_555 1_555
C22 C1 1_555 1_555
C23 C22 1_555 1_555
C24 C23 1_555 1_555
C25 C24 1_555 1_555
C26 C25 1_555 1_555
C27 C26 1_555 1_555
C28 C23 1_555 1_555
C29 N5 1_555 1_555
C30 N5 1_555 1_555
H1 C15 1_555 1_555
H2 C27 1_555 1_555
H3 C28 1_555 1_555
H4 C4 1_555 1_555
H5 C24 1_555 1_555
H6 C8 1_555 1_555
H7 C25 1_555 1_555
H8 C11 1_555 1_555
H9 C10 1_555 1_555
H10 C29 1_555 1_555
H11 C1 1_555 1_555
H12 C3 1_555 1_555
H13 C9 1_555 1_555
H14 C29 1_555 1_555
H15 C30 1_555 1_555
H16 C29 1_555 1_555
H17 C30 1_555 1_555
H18 C30 1_555 1_555
C13 C14 1_555 1_555
C14 C15 1_555 1_555
C27 C28 1_555 1_555

#END
