
#######################################################################
#
#                 Cambridge Crystallographic Data Centre
#                                CCDC 
#
#######################################################################
#
# If this CIF has been generated from an entry in the Cambridge 
# Structural Database, then it will include bibliographic, chemical, 
# crystal, experimental, refinement or atomic coordinate data resulting 
# from the CCDC's data processing and validation procedures.
#
#######################################################################

data_DIXRAE
_chemical_formula_moiety         'C24 H30 N6 O2'
_chemical_name_systematic        
2,6-bis(1,1,3,3-Tetramethylguanidino)anthracene-9,10-dione
_symmetry_cell_setting           monoclinic
_symmetry_space_group_name_H-M   'P 21/c'
_symmetry_Int_Tables_number      14
_space_group_name_Hall           '-P 2ybc'
loop_
_symmetry_equiv_pos_site_id
_symmetry_equiv_pos_as_xyz
1 x,y,z
2 -x,1/2+y,1/2-z
3 -x,-y,-z
4 x,1/2-y,1/2+z
_cell_length_a                   10.0964(7)
_cell_length_b                   7.2737(5)
_cell_length_c                   15.5822(11)
_cell_angle_alpha                90
_cell_angle_beta                 94.957(3)
_cell_angle_gamma                90
_cell_volume                     1140.05
_exptl_crystal_colour            amber
_exptl_crystal_description       plate
_cell_formula_units_Z            2
loop_
_atom_site_label
_atom_site_type_symbol
_atom_site_fract_x
_atom_site_fract_y
_atom_site_fract_z
O1 O -0.1977(5) 0.7516(7) 0.4999(3)
N1 N 0.2587(5) 0.8529(7) 0.2421(3)
N2 N 0.3296(5) 0.6992(7) 0.1250(3)
N3 N 0.3409(6) 0.5469(7) 0.2572(3)
C1 C 0.1740(6) 0.8471(8) 0.3074(4)
C2 C 0.0729(7) 0.7151(10) 0.3094(4)
C3 C -0.0168(7) 0.7187(9) 0.3710(4)
C4 C -0.0096(6) 0.8582(9) 0.4347(4)
C5 C -0.0900(6) 1.0084(8) 0.5675(4)
C6 C 0.1797(6) 0.9857(9) 0.3691(3)
C7 C -0.1063(6) 0.8612(9) 0.5003(4)
C8 C 0.3065(6) 0.7020(9) 0.2115(4)
C9 C 0.3732(8) 0.5555(11) 0.3501(4)
C10 C 0.3268(8) 0.3629(10) 0.2238(5)
C11 C 0.4407(8) 0.5997(10) 0.0937(5)
C12 C 0.2706(8) 0.8386(10) 0.0693(4)
H1 H 0.0669 0.6190 0.2670
H2 H -0.0846 0.6263 0.3719
H3 H 0.2467 1.0793 0.3684
H4 H 0.3949 0.4350 0.3721
H5 H 0.2985 0.6029 0.3772
H6 H 0.4481 0.6356 0.3621
H7 H 0.3571 0.2756 0.2673
H8 H 0.3787 0.3509 0.1753
H9 H 0.2349 0.3401 0.2057
H10 H 0.4391 0.6147 0.0324
H11 H 0.4341 0.4714 0.1072
H12 H 0.5225 0.6480 0.1207
H13 H 0.2954 0.8196 0.0119
H14 H 0.3006 0.9575 0.0895
H15 H 0.1757 0.8317 0.0693
O1B O 0.1977(5) 1.2484(7) 0.5001(3)
N1B N -0.2587(5) 1.1471(7) 0.7579(3)
N2B N -0.3296(5) 1.3008(7) 0.8750(3)
N3B N -0.3409(6) 1.4531(7) 0.7428(3)
C1B C -0.1740(6) 1.1529(8) 0.6926(4)
C2B C -0.0729(7) 1.2849(10) 0.6906(4)
C3B C 0.0168(7) 1.2813(9) 0.6290(4)
C4B C 0.0096(6) 1.1418(9) 0.5653(4)
C5B C 0.0900(6) 0.9916(8) 0.4325(4)
C6B C -0.1797(6) 1.0143(9) 0.6309(3)
C7B C 0.1063(6) 1.1388(9) 0.4997(4)
C8B C -0.3065(6) 1.2980(9) 0.7885(4)
C9B C -0.3732(8) 1.4445(11) 0.6499(4)
C10B C -0.3268(8) 1.6371(10) 0.7762(5)
C11B C -0.4407(8) 1.4003(10) 0.9063(5)
C12B C -0.2706(8) 1.1614(10) 0.9307(4)
H1B H -0.0669 1.3810 0.7330
H2B H 0.0846 1.3737 0.6281
H3B H -0.2467 0.9207 0.6316
H4B H -0.3949 1.5650 0.6279
H5B H -0.2985 1.3971 0.6228
H6B H -0.4481 1.3644 0.6379
H7B H -0.3571 1.7244 0.7327
H8B H -0.3787 1.6491 0.8247
H9B H -0.2349 1.6599 0.7943
H10B H -0.4391 1.3853 0.9676
H11B H -0.4341 1.5286 0.8928
H12B H -0.5225 1.3520 0.8793
H13B H -0.2954 1.1804 0.9881
H14B H -0.3006 1.0425 0.9105
H15B H -0.1757 1.1683 0.9307
loop_
_geom_bond_atom_site_label_1
_geom_bond_atom_site_label_2
_geom_bond_site_symmetry_1
_geom_bond_site_symmetry_2
O1 C7 1_555 1_555
N1 C1 1_555 1_555
N2 C8 1_555 1_555
N3 C8 1_555 1_555
C1 C2 1_555 1_555
C2 C3 1_555 1_555
C3 C4 1_555 1_555
C4 C7 1_555 1_555
C5 C7 1_555 1_555
C6 C1 1_555 1_555
C8 N1 1_555 1_555
C9 N3 1_555 1_555
C10 N3 1_555 1_555
C11 N2 1_555 1_555
C12 N2 1_555 1_555
H1 C2 1_555 1_555
H2 C3 1_555 1_555
H3 C6 1_555 1_555
H4 C9 1_555 1_555
H5 C9 1_555 1_555
H6 C9 1_555 1_555
H7 C10 1_555 1_555
H8 C10 1_555 1_555
H9 C10 1_555 1_555
H10 C11 1_555 1_555
H11 C11 1_555 1_555
H12 C11 1_555 1_555
H13 C12 1_555 1_555
H14 C12 1_555 1_555
H15 C12 1_555 1_555
O1B C7B 1_555 1_555
N1B C1B 1_555 1_555
N2B C8B 1_555 1_555
N3B C8B 1_555 1_555
C1B C2B 1_555 1_555
C2B C3B 1_555 1_555
C3B C4B 1_555 1_555
C4B C5 1_555 1_555
C5B C4 1_555 1_555
C6B C5 1_555 1_555
C7B C4B 1_555 1_555
C8B N1B 1_555 1_555
C9B N3B 1_555 1_555
C10B N3B 1_555 1_555
C11B N2B 1_555 1_555
C12B N2B 1_555 1_555
H1B C2B 1_555 1_555
H2B C3B 1_555 1_555
H3B C6B 1_555 1_555
H4B C9B 1_555 1_555
H5B C9B 1_555 1_555
H6B C9B 1_555 1_555
H7B C10B 1_555 1_555
H8B C10B 1_555 1_555
H9B C10B 1_555 1_555
H10B C11B 1_555 1_555
H11B C11B 1_555 1_555
H12B C11B 1_555 1_555
H13B C12B 1_555 1_555
H14B C12B 1_555 1_555
H15B C12B 1_555 1_555
C6 C5B 1_555 1_555
C1B C6B 1_555 1_555
C5B C7B 1_555 1_555

#END
