
#######################################################################
#
#                 Cambridge Crystallographic Data Centre
#                                CCDC 
#
#######################################################################
#
# If this CIF has been generated from an entry in the Cambridge 
# Structural Database, then it will include bibliographic, chemical, 
# crystal, experimental, refinement or atomic coordinate data resulting 
# from the CCDC's data processing and validation procedures.
#
#######################################################################

data_DIXSEK
_chemical_formula_moiety         'C36 H23 F3 N4 O1'
_chemical_name_systematic        
4-(4-(5-Ethynyl-2,4-difluorophenyl)-1H-1,2,3-triazol-1-yl)-3-fluoro-N-tritylbenzamide
_symmetry_cell_setting           triclinic
_symmetry_space_group_name_H-M   'P -1'
_symmetry_Int_Tables_number      2
_space_group_name_Hall           '-P 1'
loop_
_symmetry_equiv_pos_site_id
_symmetry_equiv_pos_as_xyz
1 x,y,z
2 -x,-y,-z
_cell_length_a                   10.327(2)
_cell_length_b                   11.834(2)
_cell_length_c                   23.984(5)
_cell_angle_alpha                79.88(3)
_cell_angle_beta                 88.92(3)
_cell_angle_gamma                87.48(3)
_cell_volume                     2882.5
_exptl_crystal_colour            colorless
_exptl_crystal_description       plate
_cell_formula_units_Z            4
loop_
_atom_site_label
_atom_site_type_symbol
_atom_site_fract_x
_atom_site_fract_y
_atom_site_fract_z
F1 F 0.3421(5) 1.1504(4) 0.3063(2)
F2 F 0.4396(5) 0.7886(4) 0.4142(2)
F3 F 0.5318(6) 0.5277(4) 0.5569(2)
O1 O 0.6042(6) 0.2369(5) 0.7297(2)
N1 N 0.3425(7) 0.8994(6) 0.5656(3)
N2 N 0.3668(7) 0.8186(6) 0.6091(3)
N3 N 0.4163(6) 0.7267(5) 0.5888(2)
N4 N 0.4668(6) 0.2967(5) 0.7950(2)
H1 H 0.4288 0.3565 0.8048
C1 C 0.3643(6) 0.9357(6) 0.4609(3)
C2 C 0.3162(7) 1.0488(7) 0.4571(3)
H2 H 0.2902 1.0755 0.4900
C3 C 0.3063(7) 1.1232(7) 0.4047(3)
C4 C 0.3474(7) 1.0785(7) 0.3575(3)
C5 C 0.3954(8) 0.9684(7) 0.3590(3)
H3 H 0.4240 0.9415 0.3266
C6 C 0.3987(7) 0.9007(7) 0.4112(3)
C7 C 0.3771(7) 0.8604(6) 0.5173(3)
C8 C 0.4243(8) 0.7513(6) 0.5310(3)
H4 H 0.4555 0.7032 0.5066
C9 C 0.4498(7) 0.6259(6) 0.6279(3)
C10 C 0.5055(7) 0.5274(6) 0.6111(3)
C11 C 0.5330(8) 0.4287(7) 0.6494(3)
H5 H 0.5702 0.3644 0.6369
C12 C 0.5058(7) 0.4247(7) 0.7061(3)
C13 C 0.4508(12) 0.5207(7) 0.7231(4)
H6 H 0.4320 0.5188 0.7614
C14 C 0.4226(11) 0.6203(8) 0.6851(4)
H7 H 0.3851 0.6840 0.6980
C15 C 0.5312(7) 0.3112(6) 0.7439(3)
C16 C 0.4576(7) 0.1867(6) 0.8347(3)
C17 C 0.4210(7) 0.0924(7) 0.8014(3)
C18 C 0.3201(9) 0.1157(8) 0.7635(3)
H8 H 0.2814 0.1892 0.7568
C19 C 0.2756(11) 0.0349(10) 0.7358(4)
H9 H 0.2066 0.0527 0.7110
C20 C 0.3337(12) -0.0743(11) 0.7447(4)
H10 H 0.3033 -0.1306 0.7264
C21 C 0.4349(11) -0.0984(9) 0.7803(5)
H11 H 0.4747 -0.1715 0.7861
C22 C 0.4805(8) -0.0146(7) 0.8086(4)
H12 H 0.5514 -0.0316 0.8324
C23 C 0.5814(7) 0.1544(7) 0.8697(3)
C24 C 0.6971(9) 0.2041(11) 0.8556(4)
H13 H 0.7038 0.2576 0.8223
C25 C 0.8039(11) 0.1767(14) 0.8894(5)
H14 H 0.8799 0.2159 0.8809
C26 C 0.7972(11) 0.0894(14) 0.9368(5)
H15 H 0.8710 0.0644 0.9578
C27 C 0.6821(9) 0.0419(11) 0.9518(4)
H16 H 0.6760 -0.0135 0.9844
C28 C 0.5742(8) 0.0748(10) 0.9194(4)
H17 H 0.4952 0.0433 0.9309
C29 C 0.3472(7) 0.2069(7) 0.8762(3)
C30 C 0.2493(8) 0.1310(9) 0.8909(4)
H18 H 0.2480 0.0665 0.8737
C31 C 0.1548(10) 0.1467(14) 0.9294(5)
H19 H 0.0902 0.0938 0.9378
C32 C 0.1548(14) 0.2409(19) 0.9559(6)
H20 H 0.0917 0.2514 0.9829
C33 C 0.2473(15) 0.3170(13) 0.9422(5)
H21 H 0.2462 0.3821 0.9591
C34 C 0.3453(11) 0.3009(9) 0.9032(4)
H22 H 0.4099 0.3540 0.8953
C35 C 0.2531(7) 1.2374(7) 0.4002(3)
C36 C 0.2131(9) 1.3335(7) 0.3960(4)
H23 H 0.2106 1.4209 0.3958
F4 F 0.7999(6) 0.6469(5) 0.3162(2)
F5 F 0.9088(5) 0.2841(4) 0.4207(2)
F6 F 1.0277(5) 0.0251(4) 0.56193(18)
O2 O 1.0874(6) -0.2653(5) 0.7393(3)
N5 N 0.8537(7) 0.3987(6) 0.5739(3)
N6 N 0.8727(7) 0.3150(6) 0.6168(3)
N7 N 0.9014(5) 0.2191(5) 0.5950(2)
N8 N 0.9069(6) -0.2314(5) 0.7899(3)
H24 H 0.8401 -0.1858 0.7912
C37 C 0.8538(6) 0.4333(6) 0.4692(3)
C38 C 0.8159(7) 0.5491(6) 0.4670(3)
H25 H 0.8025 0.5776 0.5005
C39 C 0.7982(7) 0.6220(7) 0.4153(3)
C40 C 0.8195(7) 0.5767(7) 0.3666(3)
C41 C 0.8593(8) 0.4640(8) 0.3669(3)
H26 H 0.8758 0.4356 0.3336
C42 C 0.8730(7) 0.3967(7) 0.4187(3)
C43 C 0.8699(6) 0.3571(6) 0.5248(3)
C44 C 0.9007(7) 0.2433(6) 0.5378(3)
H27 H 0.9177 0.1926 0.5127
C45 C 0.9229(7) 0.1131(6) 0.6328(3)
C46 C 0.9860(7) 0.0191(6) 0.6159(3)
C47 C 1.0095(7) -0.0817(7) 0.6525(3)
H28 H 1.0561 -0.1422 0.6405
C48 C 0.9630(7) -0.0925(7) 0.7078(3)
C49 C 0.8978(7) 0.0004(7) 0.7253(3)
H29 H 0.8668 -0.0066 0.7624
C50 C 0.8783(7) 0.1027(7) 0.6886(3)
H30 H 0.8355 0.1647 0.7010
C51 C 0.9929(8) -0.2041(7) 0.7468(3)
C52 C 0.9198(7) -0.3347(7) 0.8351(3)
C53 C 0.9446(7) -0.4399(7) 0.8067(3)
C54 C 1.0397(9) -0.5234(7) 0.8234(4)
H31 H 1.0974 -0.5140 0.8513
C55 C 1.0505(11) -0.6212(8) 0.7991(4)
H32 H 1.1168 -0.6758 0.8103
C56 C 0.9659(10) -0.6386(9) 0.7592(4)
H33 H 0.9712 -0.7064 0.7445
C57 C 0.8725(10) -0.5554(10) 0.7406(4)
H34 H 0.8163 -0.5654 0.7122
C58 C 0.8612(9) -0.4561(9) 0.7640(4)
H35 H 0.7976 -0.4001 0.7511
C59 C 1.0251(8) -0.3164(7) 0.8768(3)
C60 C 1.1057(15) -0.2252(11) 0.8674(5)
H36 H 1.1000 -0.1727 0.8337
C61 C 1.1955(16) -0.2107(14) 0.9078(6)
H37 H 1.2485 -0.1482 0.9006
C62 C 1.2076(12) -0.2865(11) 0.9578(5)
H38 H 1.2678 -0.2758 0.9846
C63 C 1.1299(9) -0.3770(10) 0.9672(4)
H39 H 1.1375 -0.4306 1.0005
C64 C 1.0390(9) -0.3900(9) 0.9274(4)
H40 H 0.9848 -0.4516 0.9353
C65 C 0.7896(8) -0.3446(8) 0.8682(3)
C66 C 0.7333(9) -0.4501(10) 0.8835(4)
H41 H 0.7710 -0.5150 0.8719
C67 C 0.6194(12) -0.4584(14) 0.9164(5)
H42 H 0.5846 -0.5300 0.9279
C68 C 0.5605(11) -0.3669(16) 0.9315(6)
H43 H 0.4818 -0.3740 0.9510
C69 C 0.6166(14) -0.2582(14) 0.9182(6)
H44 H 0.5775 -0.1942 0.9302
C70 C 0.7327(11) -0.2495(9) 0.8865(4)
H45 H 0.7717 -0.1791 0.8778
C71 C 0.7614(8) 0.7407(7) 0.4127(3)
C72 C 0.7315(9) 0.8399(8) 0.4082(4)
H46 H 0.7258 0.9166 0.4141
loop_
_geom_bond_atom_site_label_1
_geom_bond_atom_site_label_2
_geom_bond_site_symmetry_1
_geom_bond_site_symmetry_2
F1 C4 1_555 1_555
F2 C6 1_555 1_555
F3 C10 1_555 1_555
O1 C15 1_555 1_555
N1 N2 1_555 1_555
N2 N3 1_555 1_555
N3 C8 1_555 1_555
N4 H1 1_555 1_555
C1 C2 1_555 1_555
C2 H2 1_555 1_555
C3 C2 1_555 1_555
C4 C3 1_555 1_555
C5 C4 1_555 1_555
H3 C5 1_555 1_555
C6 C1 1_555 1_555
C7 N1 1_555 1_555
C8 C7 1_555 1_555
H4 C8 1_555 1_555
C9 N3 1_555 1_555
C10 C9 1_555 1_555
C11 C10 1_555 1_555
H5 C11 1_555 1_555
C12 C11 1_555 1_555
C13 C12 1_555 1_555
H6 C13 1_555 1_555
C14 C9 1_555 1_555
H7 C14 1_555 1_555
C15 N4 1_555 1_555
C16 N4 1_555 1_555
C17 C16 1_555 1_555
C18 C17 1_555 1_555
H8 C18 1_555 1_555
C19 C18 1_555 1_555
H9 C19 1_555 1_555
C20 C19 1_555 1_555
H10 C20 1_555 1_555
C21 C20 1_555 1_555
H11 C21 1_555 1_555
C22 C17 1_555 1_555
H12 C22 1_555 1_555
C23 C16 1_555 1_555
C24 C23 1_555 1_555
H13 C24 1_555 1_555
C25 C24 1_555 1_555
H14 C25 1_555 1_555
C26 C25 1_555 1_555
H15 C26 1_555 1_555
C27 C26 1_555 1_555
H16 C27 1_555 1_555
C28 C23 1_555 1_555
H17 C28 1_555 1_555
C29 C16 1_555 1_555
C30 C29 1_555 1_555
H18 C30 1_555 1_555
C31 C30 1_555 1_555
H19 C31 1_555 1_555
C32 C31 1_555 1_555
H20 C32 1_555 1_555
C33 C32 1_555 1_555
H21 C33 1_555 1_555
C34 C29 1_555 1_555
H22 C34 1_555 1_555
C35 C3 1_555 1_555
C36 C35 1_555 1_555
H23 C36 1_555 1_555
F4 C40 1_555 1_555
F5 C42 1_555 1_555
F6 C46 1_555 1_555
O2 C51 1_555 1_555
N5 N6 1_555 1_555
N6 N7 1_555 1_555
N7 C44 1_555 1_555
N8 H24 1_555 1_555
C37 C38 1_555 1_555
C38 H25 1_555 1_555
C39 C38 1_555 1_555
C40 C39 1_555 1_555
C41 C40 1_555 1_555
H26 C41 1_555 1_555
C42 C37 1_555 1_555
C43 N5 1_555 1_555
C44 C43 1_555 1_555
H27 C44 1_555 1_555
C45 N7 1_555 1_555
C46 C45 1_555 1_555
C47 C46 1_555 1_555
H28 C47 1_555 1_555
C48 C47 1_555 1_555
C49 C48 1_555 1_555
H29 C49 1_555 1_555
C50 C45 1_555 1_555
H30 C50 1_555 1_555
C51 N8 1_555 1_555
C52 N8 1_555 1_555
C53 C52 1_555 1_555
C54 C53 1_555 1_555
H31 C54 1_555 1_555
C55 C54 1_555 1_555
H32 C55 1_555 1_555
C56 C55 1_555 1_555
H33 C56 1_555 1_555
C57 C56 1_555 1_555
H34 C57 1_555 1_555
C58 C53 1_555 1_555
H35 C58 1_555 1_555
C59 C52 1_555 1_555
C60 C59 1_555 1_555
H36 C60 1_555 1_555
C61 C60 1_555 1_555
H37 C61 1_555 1_555
C62 C61 1_555 1_555
H38 C62 1_555 1_555
C63 C62 1_555 1_555
H39 C63 1_555 1_555
C64 C59 1_555 1_555
H40 C64 1_555 1_555
C65 C52 1_555 1_555
C66 C65 1_555 1_555
H41 C66 1_555 1_555
C67 C66 1_555 1_555
H42 C67 1_555 1_555
C68 C67 1_555 1_555
H43 C68 1_555 1_555
C69 C68 1_555 1_555
H44 C69 1_555 1_555
C70 C65 1_555 1_555
H45 C70 1_555 1_555
C71 C39 1_555 1_555
C72 C71 1_555 1_555
H46 C72 1_555 1_555
C1 C7 1_555 1_555
C5 C6 1_555 1_555
C12 C15 1_555 1_555
C13 C14 1_555 1_555
C21 C22 1_555 1_555
C27 C28 1_555 1_555
C33 C34 1_555 1_555
C37 C43 1_555 1_555
C41 C42 1_555 1_555
C48 C51 1_555 1_555
C49 C50 1_555 1_555
C57 C58 1_555 1_555
C63 C64 1_555 1_555
C69 C70 1_555 1_555

#END
