
#######################################################################
#
#                 Cambridge Crystallographic Data Centre
#                                CCDC 
#
#######################################################################
#
# If this CIF has been generated from an entry in the Cambridge 
# Structural Database, then it will include bibliographic, chemical, 
# crystal, experimental, refinement or atomic coordinate data resulting 
# from the CCDC's data processing and validation procedures.
#
#######################################################################

data_DIXTEN02
_chemical_formula_moiety         'C26 H16 O2'
_chemical_name_systematic        9-(9H-Xanthen-9-ylidene)-9H-xanthene
_symmetry_cell_setting           monoclinic
_symmetry_space_group_name_H-M   'C 2/c'
_symmetry_Int_Tables_number      15
_space_group_name_Hall           '-C 2yn'
loop_
_symmetry_equiv_pos_site_id
_symmetry_equiv_pos_as_xyz
1 x,y,z
2 -x,y,1/2-z
3 1/2+x,1/2+y,z
4 1/2-x,1/2+y,1/2-z
5 -x,-y,-z
6 x,-y,1/2+z
7 1/2-x,1/2-y,-z
8 1/2+x,1/2-y,1/2+z
_cell_length_a                   14.685(4)
_cell_length_b                   12.803(4)
_cell_length_c                   9.354(3)
_cell_angle_alpha                90
_cell_angle_beta                 95.080(5)
_cell_angle_gamma                90
_cell_volume                     1751.76
_cell_formula_units_Z            4
loop_
_atom_site_label
_atom_site_type_symbol
_atom_site_fract_x
_atom_site_fract_y
_atom_site_fract_z
C1 C 0.05182(9) 0.72800(10) 0.04176(14)
C2 C 0.02807(10) 0.83272(11) 0.04461(15)
H1 H 0.0730 0.8854 0.0377
C3 C -0.06193(10) 0.85908(11) 0.05761(15)
H2 H -0.0795 0.9305 0.0586
C4 C -0.12707(10) 0.78132(11) 0.06925(15)
H3 H -0.1886 0.7998 0.0814
C5 C -0.10257(9) 0.67745(11) 0.06317(14)
H4 H -0.1475 0.6249 0.0714
C6 C -0.01236(9) 0.64834(10) 0.04508(13)
C7 C 0.02179(9) 0.53932(10) 0.03774(14)
C8 C 0.11290(9) 0.53047(10) 0.11920(14)
C9 C 0.14297(9) 0.44689(10) 0.20769(14)
H5 H 0.1026 0.3906 0.2217
C10 C 0.23073(10) 0.44515(11) 0.27495(14)
H6 H 0.2505 0.3874 0.3334
C11 C 0.28992(10) 0.52784(11) 0.25702(15)
H7 H 0.3509 0.5251 0.3001
C12 C 0.26054(9) 0.61412(12) 0.17678(15)
H8 H 0.3002 0.6717 0.1665
C13 C 0.17229(9) 0.61489(10) 0.11193(14)
O1 O 0.14399(6) 0.70528(7) 0.03827(10)
C1D C -0.05182(9) 0.27200(10) -0.04176(14)
C2D C -0.02807(10) 0.16728(11) -0.04461(15)
H1D H -0.0730 0.1146 -0.0377
C3D C 0.06193(10) 0.14092(11) -0.05761(15)
H2D H 0.0795 0.0695 -0.0586
C4D C 0.12707(10) 0.21868(11) -0.06925(15)
H3D H 0.1886 0.2002 -0.0814
C5D C 0.10257(9) 0.32255(11) -0.06317(14)
H4D H 0.1475 0.3751 -0.0714
C6D C 0.01236(9) 0.35166(10) -0.04508(13)
C7D C -0.02179(9) 0.46068(10) -0.03774(14)
C8D C -0.11290(9) 0.46953(10) -0.11920(14)
C9D C -0.14297(9) 0.55311(10) -0.20769(14)
H5D H -0.1026 0.6094 -0.2217
C10D C -0.23073(10) 0.55485(11) -0.27495(14)
H6D H -0.2505 0.6126 -0.3334
C11D C -0.28992(10) 0.47216(11) -0.25702(15)
H7D H -0.3509 0.4749 -0.3001
C12D C -0.26054(9) 0.38588(12) -0.17678(15)
H8D H -0.3002 0.3283 -0.1665
C13D C -0.17229(9) 0.38511(10) -0.11193(14)
O1D O -0.14399(6) 0.29472(7) -0.03827(10)
loop_
_geom_bond_atom_site_label_1
_geom_bond_atom_site_label_2
_geom_bond_site_symmetry_1
_geom_bond_site_symmetry_2
C1 C2 1_555 1_555
C2 H1 1_555 1_555
C3 C2 1_555 1_555
H2 C3 1_555 1_555
C4 C3 1_555 1_555
H3 C4 1_555 1_555
C5 C4 1_555 1_555
H4 C5 1_555 1_555
C6 C1 1_555 1_555
C7 C6 1_555 1_555
C8 C7 1_555 1_555
C9 C8 1_555 1_555
H5 C9 1_555 1_555
C10 C9 1_555 1_555
H6 C10 1_555 1_555
C11 C10 1_555 1_555
H7 C11 1_555 1_555
C12 C11 1_555 1_555
H8 C12 1_555 1_555
C13 C8 1_555 1_555
O1 C1 1_555 1_555
C1D C2D 1_555 1_555
C2D H1D 1_555 1_555
C3D C2D 1_555 1_555
H2D C3D 1_555 1_555
C4D C3D 1_555 1_555
H3D C4D 1_555 1_555
C5D C4D 1_555 1_555
H4D C5D 1_555 1_555
C6D C1D 1_555 1_555
C7D C7 1_555 1_555
C8D C7D 1_555 1_555
C9D C8D 1_555 1_555
H5D C9D 1_555 1_555
C10D C9D 1_555 1_555
H6D C10D 1_555 1_555
C11D C10D 1_555 1_555
H7D C11D 1_555 1_555
C12D C11D 1_555 1_555
H8D C12D 1_555 1_555
C13D C8D 1_555 1_555
O1D C1D 1_555 1_555
C5 C6 1_555 1_555
C12 C13 1_555 1_555
C13 O1 1_555 1_555
C5D C6D 1_555 1_555
C6D C7D 1_555 1_555
C12D C13D 1_555 1_555
C13D O1D 1_555 1_555

#END
