
#######################################################################
#
#                 Cambridge Crystallographic Data Centre
#                                CCDC 
#
#######################################################################
#
# If this CIF has been generated from an entry in the Cambridge 
# Structural Database, then it will include bibliographic, chemical, 
# crystal, experimental, refinement or atomic coordinate data resulting 
# from the CCDC's data processing and validation procedures.
#
#######################################################################

data_DIXXEO
_chemical_formula_moiety         'C43 H26 I3 N5,2(C6 H5 N1 O2)'
_chemical_name_systematic        
"5-(4'-Pyridyl)-10,15,20-tris(4'-iodophenyl)porphyrin nitrobenzene solvate"
_symmetry_cell_setting           triclinic
_symmetry_space_group_name_H-M   'P 1'
_symmetry_Int_Tables_number      1
_space_group_name_Hall           'P 1'
loop_
_symmetry_equiv_pos_site_id
_symmetry_equiv_pos_as_xyz
1 x,y,z
_cell_length_a                   10.6814(3)
_cell_length_b                   11.1396(3)
_cell_length_c                   11.4818(4)
_cell_angle_alpha                103.6349(11)
_cell_angle_beta                 93.4413(12)
_cell_angle_gamma                110.096(2)
_cell_volume                     1231.87
_exptl_crystal_colour            red
_exptl_crystal_description       prism
_cell_formula_units_Z            1
_exptl_crystal_recrystallization_method nitrobenzene
loop_
_atom_site_label
_atom_site_type_symbol
_atom_site_fract_x
_atom_site_fract_y
_atom_site_fract_z
C1 C 0.3171(6) 0.6247(6) -0.1473(6)
C2 C 0.4337(5) 0.6975(6) -0.1956(6)
H1 H 0.4325 0.7261 -0.2672
C3 C -0.4516(6) 0.2536(6) 0.0941(6)
H2 H -0.5034 0.3018 0.1315
C4 C 0.4988(6) 0.6598(6) -0.0212(6)
C5 C 0.5838(6) 0.6615(6) 0.0794(6)
C6 C 0.5444(6) 0.6047(6) 0.1724(6)
C7 C 0.6367(6) 0.6074(6) 0.2725(6)
H3 H 0.7317 0.6534 0.2884
C8 C 0.5626(6) 0.5329(7) 0.3380(6)
H4 H 0.5957 0.5159 0.4086
C9 C 0.4241(6) 0.4835(6) 0.2823(6)
C10 C 0.3120(5) 0.3947(6) 0.3178(5)
C11 C 0.1803(6) 0.3479(6) 0.2593(6)
C12 C 0.0626(6) 0.2674(6) 0.3024(6)
H5 H 0.0635 0.2335 0.3709
C13 C -0.0470(6) 0.2502(6) 0.2269(6)
H6 H -0.1378 0.2019 0.2329
C14 C -0.0035(6) 0.3175(6) 0.1354(6)
C15 C -0.0897(6) 0.3196(6) 0.0401(5)
C16 C -0.0503(6) 0.3825(6) -0.0507(6)
C17 C -0.1412(6) 0.3817(6) -0.1490(6)
H7 H -0.2365 0.3375 -0.1633
C18 C -0.0674(6) 0.4550(7) -0.2179(6)
H8 H -0.1007 0.4727 -0.2880
C19 C 0.0723(6) 0.5007(6) -0.1627(6)
C20 C 0.1820(6) 0.5803(6) -0.2052(6)
N1 N 0.3611(5) 0.6036(5) -0.0428(5)
H9 H 0.3096 0.5611 0.0029
N2 N 0.4168(5) 0.5303(5) 0.1831(5)
N3 N 0.1350(5) 0.3764(5) 0.1586(5)
H11 H 0.1860 0.4242 0.1160
N4 N 0.0797(5) 0.4558(5) -0.0623(5)
C21 C 0.7329(6) 0.7316(7) 0.0802(6)
C22 C 0.8064(6) 0.6641(8) 0.0158(7)
H13 H 0.7638 0.5732 -0.0283
C23 C 0.9413(6) 0.7309(7) 0.0172(7)
H14 H 0.9898 0.6831 -0.0269
N5 N 1.0088(5) 0.8584(5) 0.0761(5)
C24 C 0.9383(7) 0.9205(7) 0.1392(9)
H15 H 0.9844 1.0108 0.1837
C25 C 0.8026(7) 0.8631(7) 0.1448(8)
H16 H 0.7577 0.9129 0.1920
C26 C 0.3410(6) 0.3465(7) 0.4245(6)
C27 C 0.3173(6) 0.2121(6) 0.4077(6)
H17 H 0.2817 0.1515 0.3296
C28 C 0.3457(6) 0.1657(7) 0.5059(7)
H18 H 0.3308 0.0743 0.4945
C29 C 0.3952(6) 0.2542(7) 0.6187(6)
C30 C 0.4194(7) 0.3869(7) 0.6384(6)
H19 H 0.4538 0.4460 0.7173
C31 C 0.3929(6) 0.4344(6) 0.5406(6)
H20 H 0.4101 0.5263 0.5531
C32 C -0.2377(7) 0.2505(7) 0.0379(6)
C33 C -0.3147(6) 0.3180(6) 0.0923(6)
H21 H -0.2735 0.4109 0.1295
C34 C 0.5451(6) 0.7166(6) -0.1183(6)
H22 H 0.6364 0.7596 -0.1269
C35 C -0.5107(5) 0.1182(6) 0.0405(6)
C36 C -0.4365(6) 0.0484(6) -0.0179(7)
H23 H -0.4782 -0.0440 -0.0569
C37 C -0.2994(7) 0.1160(7) -0.0187(7)
H24 H -0.2480 0.0688 -0.0586
C38 C 0.1600(6) 0.6244(6) -0.3147(6)
C39 C 0.1040(6) 0.5329(7) -0.4263(6)
H25 H 0.0775 0.4408 -0.4325
C40 C 0.0857(6) 0.5733(7) -0.5298(7)
H26 H 0.0454 0.5088 -0.6053
C41 C 0.1260(6) 0.7075(7) -0.5231(7)
C42 C 0.1819(6) 0.8021(6) -0.4106(7)
H27 H 0.2086 0.8943 -0.4044
C43 C 0.1978(6) 0.7589(6) -0.3082(6)
H28 H 0.2353 0.8229 -0.2319
I1 I 0.43677(4) 0.18620(4) 0.76782(4)
I2 I -0.71520(3) 0.01134(4) 0.04938(4)
I3 I 0.10415(4) 0.76816(5) -0.67944(4)
C44 C 0.5292(7) 0.9117(9) 0.3851(7)
H29 H 0.4751 0.8197 0.3571
C45 C 0.5420(10) 0.9949(13) 0.3090(10)
H30 H 0.4946 0.9603 0.2285
C46 C 0.6215(10) 1.1240(13) 0.3501(11)
H31 H 0.6319 1.1783 0.2961
C47 C 0.6884(9) 1.1807(10) 0.4670(11)
H32 H 0.7419 1.2729 0.4941
C48 C 0.6761(8) 1.1003(9) 0.5442(8)
H33 H 0.7212 1.1365 0.6256
C49 C 0.5975(7) 0.9672(7) 0.5017(7)
N6 N 0.5829(8) 0.8822(9) 0.5828(8)
O1 O 0.6413(6) 0.9331(8) 0.6872(6)
O2 O 0.5069(10) 0.7664(8) 0.5429(8)
C50 C 0.9338(11) 0.9426(14) 0.5782(10)
H34 H 0.8962 0.8891 0.4977
C51 C 1.0071(14) 1.0811(17) 0.6031(14)
H35 H 1.0202 1.1211 0.5381
C52 C 1.0594(12) 1.1580(13) 0.7195(16)
H36 H 1.1084 1.2507 0.7354
C53 C 1.0405(11) 1.1000(12) 0.8124(11)
H37 H 1.0749 1.1535 0.8934
C54 C 0.9729(9) 0.9661(12) 0.7911(10)
H38 H 0.9628 0.9264 0.8563
C55 C 0.9195(8) 0.8895(10) 0.6735(8)
N7 N 0.8474(7) 0.7479(9) 0.6518(8)
O3 O 0.8153(7) 0.6771(9) 0.5482(7)
O4 O 0.8252(7) 0.7031(8) 0.7401(7)
H10? H 0.3426 0.5150 0.1348
H12? H 0.1538 0.4709 -0.0140
loop_
_geom_bond_atom_site_label_1
_geom_bond_atom_site_label_2
_geom_bond_site_symmetry_1
_geom_bond_site_symmetry_2
C1 C2 1_555 1_555
C2 H1 1_555 1_555
C3 H2 1_555 1_555
C4 C5 1_555 1_555
C5 C6 1_555 1_555
C6 C7 1_555 1_555
C7 H3 1_555 1_555
C8 C7 1_555 1_555
H4 C8 1_555 1_555
C9 C8 1_555 1_555
C10 C9 1_555 1_555
C11 C10 1_555 1_555
C12 C11 1_555 1_555
H5 C12 1_555 1_555
C13 C12 1_555 1_555
H6 C13 1_555 1_555
C14 C13 1_555 1_555
C15 C14 1_555 1_555
C16 C15 1_555 1_555
C17 C16 1_555 1_555
H7 C17 1_555 1_555
C18 C17 1_555 1_555
H8 C18 1_555 1_555
C19 C18 1_555 1_555
C20 C1 1_555 1_555
N1 C1 1_555 1_555
H9 N1 1_555 1_555
N2 C6 1_555 1_555
N3 C11 1_555 1_555
H11 N3 1_555 1_555
N4 C16 1_555 1_555
C21 C5 1_555 1_555
C22 C21 1_555 1_555
H13 C22 1_555 1_555
C23 C22 1_555 1_555
H14 C23 1_555 1_555
N5 C23 1_555 1_555
C24 N5 1_555 1_555
H15 C24 1_555 1_555
C25 C21 1_555 1_555
H16 C25 1_555 1_555
C26 C10 1_555 1_555
C27 C26 1_555 1_555
H17 C27 1_555 1_555
C28 C27 1_555 1_555
H18 C28 1_555 1_555
C29 C28 1_555 1_555
C30 C29 1_555 1_555
H19 C30 1_555 1_555
C31 C26 1_555 1_555
H20 C31 1_555 1_555
C32 C15 1_555 1_555
C33 C3 1_555 1_555
H21 C33 1_555 1_555
C34 C2 1_555 1_555
H22 C34 1_555 1_555
C35 C3 1_555 1_555
C36 C35 1_555 1_555
H23 C36 1_555 1_555
C37 C32 1_555 1_555
H24 C37 1_555 1_555
C38 C20 1_555 1_555
C39 C38 1_555 1_555
H25 C39 1_555 1_555
C40 C39 1_555 1_555
H26 C40 1_555 1_555
C41 C40 1_555 1_555
C42 C41 1_555 1_555
H27 C42 1_555 1_555
C43 C38 1_555 1_555
H28 C43 1_555 1_555
I1 C29 1_555 1_555
I2 C35 1_555 1_555
I3 C41 1_555 1_555
C44 H29 1_555 1_555
C45 C44 1_555 1_555
H30 C45 1_555 1_555
C46 C45 1_555 1_555
H31 C46 1_555 1_555
C47 C46 1_555 1_555
H32 C47 1_555 1_555
C48 C47 1_555 1_555
H33 C48 1_555 1_555
C49 C44 1_555 1_555
N6 C49 1_555 1_555
O1 N6 1_555 1_555
O2 N6 1_555 1_555
C50 H34 1_555 1_555
C51 C50 1_555 1_555
H35 C51 1_555 1_555
C52 C51 1_555 1_555
H36 C52 1_555 1_555
C53 C52 1_555 1_555
H37 C53 1_555 1_555
C54 C53 1_555 1_555
H38 C54 1_555 1_555
C55 C50 1_555 1_555
N7 C55 1_555 1_555
O3 N7 1_555 1_555
O4 N7 1_555 1_555
C4 N1 1_555 1_555
C4 C34 1_555 1_555
C9 N2 1_555 1_555
C14 N3 1_555 1_555
C19 C20 1_555 1_555
C19 N4 1_555 1_555
C24 C25 1_555 1_555
C30 C31 1_555 1_555
C32 C33 1_555 1_555
C36 C37 1_555 1_555
C42 C43 1_555 1_555
C48 C49 1_555 1_555
C54 C55 1_555 1_555

#END
