
#######################################################################
#
#                 Cambridge Crystallographic Data Centre
#                                CCDC 
#
#######################################################################
#
# If this CIF has been generated from an entry in the Cambridge 
# Structural Database, then it will include bibliographic, chemical, 
# crystal, experimental, refinement or atomic coordinate data resulting 
# from the CCDC's data processing and validation procedures.
#
#######################################################################

data_DIYMUU
_chemical_formula_moiety         'C32 H32 O9'
_chemical_name_systematic        
5,7-diacetoxy-3-(2-benzyloxy-4,5-diisopropyloxyphenyl)chromen-2-one
_symmetry_cell_setting           triclinic
_symmetry_space_group_name_H-M   'P -1'
_symmetry_Int_Tables_number      2
_space_group_name_Hall           '-P 1'
loop_
_symmetry_equiv_pos_site_id
_symmetry_equiv_pos_as_xyz
1 x,y,z
2 -x,-y,-z
_cell_length_a                   9.2701(6)
_cell_length_b                   9.7551(6)
_cell_length_c                   16.9828(10)
_cell_angle_alpha                83.987(3)
_cell_angle_beta                 75.183(3)
_cell_angle_gamma                77.040(3)
_cell_volume                     1445.05
_exptl_crystal_colour            colorless
_exptl_crystal_description       block
_chemical_melting_point          '158-159 deg.C'
_cell_formula_units_Z            2
loop_
_atom_site_label
_atom_site_type_symbol
_atom_site_fract_x
_atom_site_fract_y
_atom_site_fract_z
C1 C 0.4305(2) 0.5388(2) 0.37388(12)
H1 H 0.3585 0.5093 0.4233
H2 H 0.4418 0.6351 0.3807
C2 C 0.5830(2) 0.4388(2) 0.36300(11)
C3 C 0.7105(3) 0.4846(2) 0.36887(13)
H3 H 0.7022 0.5810 0.3775
C4 C 0.8499(3) 0.3926(2) 0.36245(14)
H4 H 0.9367 0.4258 0.3661
C5 C 0.8617(3) 0.2519(2) 0.35070(13)
H5 H 0.9568 0.1878 0.3469
C6 C 0.7357(3) 0.2044(2) 0.34456(15)
H6 H 0.7442 0.1077 0.3366
C7 C 0.5974(3) 0.2971(2) 0.34997(14)
H7 H 0.5114 0.2641 0.3448
C8 C -0.1234(4) 0.8343(2) 0.50008(15)
H8 H -0.0270 0.8091 0.5193
C9 C -0.1876(4) 0.7115(3) 0.51592(15)
H9 H -0.2830 0.7303 0.4980
H10 H -0.2083 0.6861 0.5745
H11 H -0.1157 0.6335 0.4861
C10 C -0.2173(3) 0.9627(3) 0.54487(15)
H12 H -0.1607 1.0391 0.5320
H13 H -0.2386 0.9398 0.6037
H14 H -0.3136 0.9927 0.5280
C11 C -0.2869(2) 0.8296(2) 0.23931(12)
H15 H -0.2769 0.7273 0.2318
C12 C -0.2276(3) 0.9023(2) 0.15839(14)
H16 H -0.2435 1.0036 0.1652
H17 H -0.2823 0.8869 0.1189
H18 H -0.1185 0.8638 0.1386
C13 C -0.4520(3) 0.8942(2) 0.27774(14)
H19 H -0.4833 0.8487 0.3318
H20 H -0.5170 0.8804 0.2431
H21 H -0.4623 0.9952 0.2831
C14 C -0.0007(2) 0.78178(18) 0.36091(11)
C15 C 0.1426(2) 0.70634(19) 0.36514(11)
H22 H 0.1856 0.7213 0.4079
C16 C 0.2246(2) 0.60860(19) 0.30730(11)
C17 C 0.1597(2) 0.58398(18) 0.24565(11)
C18 C 0.0162(2) 0.66345(18) 0.24102(11)
H23 H -0.0269 0.6492 0.1982
C19 C -0.0645(2) 0.76273(18) 0.29773(11)
C20 C 0.3045(2) 0.33584(19) 0.21158(12)
C21 C 0.4201(2) 0.28080(19) 0.07078(11)
C22 C 0.5175(2) 0.1819(2) 0.01817(12)
H24 H 0.5703 0.0955 0.0379
C23 C 0.5341(2) 0.2149(2) -0.06455(12)
C24 C 0.4556(2) 0.3387(2) -0.09494(12)
H25 H 0.4681 0.3580 -0.1520
C25 C 0.3597(2) 0.43218(19) -0.04046(12)
C26 C 0.3406(2) 0.40817(18) 0.04401(11)
C27 C 0.2539(2) 0.50916(19) 0.10329(11)
H26 H 0.2033 0.5984 0.0855
C28 C 0.2432(2) 0.47934(18) 0.18372(11)
C29 C 0.1492(3) 0.5562(2) -0.08829(14)
C30 C 0.0721(4) 0.7007(3) -0.11123(19)
H27 H -0.0280 0.6978 -0.1195
H28 H 0.1345 0.7356 -0.1618
H29 H 0.0591 0.7637 -0.0675
C31 C 0.7772(3) 0.0783(2) -0.12626(13)
C32 C 0.8524(3) -0.0083(2) -0.19849(13)
H30 H 0.9600 -0.0446 -0.1987
H31 H 0.8449 0.0500 -0.2485
H32 H 0.8018 -0.0873 -0.1958
O1 O 0.37289(15) 0.53793(14) 0.30384(8)
O2 O -0.08056(17) 0.88174(13) 0.41582(8)
O3 O -0.20552(16) 0.84532(14) 0.29890(8)
O4 O 0.27634(18) 0.28524(14) 0.28005(8)
O5 O 0.40325(16) 0.24711(13) 0.15307(8)
O6 O 0.28143(17) 0.56071(13) -0.06823(8)
O7 O 0.1063(2) 0.44863(18) -0.08633(12)
O8 O 0.62489(17) 0.11947(16) -0.12249(9)
O9 O 0.83494(19) 0.1131(2) -0.07851(11)
loop_
_geom_bond_atom_site_label_1
_geom_bond_atom_site_label_2
_geom_bond_site_symmetry_1
_geom_bond_site_symmetry_2
C1 H1 1_555 1_555
H2 C1 1_555 1_555
C2 C1 1_555 1_555
C3 C2 1_555 1_555
H3 C3 1_555 1_555
C4 C3 1_555 1_555
H4 C4 1_555 1_555
C5 C4 1_555 1_555
H5 C5 1_555 1_555
C6 C5 1_555 1_555
H6 C6 1_555 1_555
C7 C2 1_555 1_555
H7 C7 1_555 1_555
C8 H8 1_555 1_555
C9 C8 1_555 1_555
H9 C9 1_555 1_555
H10 C9 1_555 1_555
H11 C9 1_555 1_555
C10 C8 1_555 1_555
H12 C10 1_555 1_555
H13 C10 1_555 1_555
H14 C10 1_555 1_555
C11 H15 1_555 1_555
C12 C11 1_555 1_555
H16 C12 1_555 1_555
H17 C12 1_555 1_555
H18 C12 1_555 1_555
C13 C11 1_555 1_555
H19 C13 1_555 1_555
H20 C13 1_555 1_555
H21 C13 1_555 1_555
C14 C15 1_555 1_555
C15 H22 1_555 1_555
C16 C15 1_555 1_555
C17 C16 1_555 1_555
C18 C17 1_555 1_555
H23 C18 1_555 1_555
C19 C14 1_555 1_555
C20 C28 1_555 1_555
C21 C22 1_555 1_555
C22 H24 1_555 1_555
C23 C22 1_555 1_555
C24 C23 1_555 1_555
H25 C24 1_555 1_555
C25 C24 1_555 1_555
C26 C21 1_555 1_555
C27 C26 1_555 1_555
H26 C27 1_555 1_555
C28 C17 1_555 1_555
C29 C30 1_555 1_555
C30 H27 1_555 1_555
H28 C30 1_555 1_555
H29 C30 1_555 1_555
C31 C32 1_555 1_555
C32 H30 1_555 1_555
H31 C32 1_555 1_555
H32 C32 1_555 1_555
O1 C1 1_555 1_555
O2 C8 1_555 1_555
O3 C11 1_555 1_555
O4 C20 1_555 1_555
O5 C20 1_555 1_555
O6 C25 1_555 1_555
O7 C29 1_555 1_555
O8 C23 1_555 1_555
O9 C31 1_555 1_555
C6 C7 1_555 1_555
C14 O2 1_555 1_555
C16 O1 1_555 1_555
C18 C19 1_555 1_555
C19 O3 1_555 1_555
C21 O5 1_555 1_555
C25 C26 1_555 1_555
C27 C28 1_555 1_555
C29 O6 1_555 1_555
C31 O8 1_555 1_555

#END
