
#######################################################################
#
#                 Cambridge Crystallographic Data Centre
#                                CCDC 
#
#######################################################################
#
# If this CIF has been generated from an entry in the Cambridge 
# Structural Database, then it will include bibliographic, chemical, 
# crystal, experimental, refinement or atomic coordinate data resulting 
# from the CCDC's data processing and validation procedures.
#
#######################################################################

data_DIYMUV
_chemical_formula_moiety         '0.63(C102 Cl18),0.37(C102 Cl20)'
_chemical_name_systematic        
'octadecachloro-C102fullerene icosachloro-C102fullerene'
_symmetry_cell_setting           triclinic
_symmetry_space_group_name_H-M   'P -1'
_symmetry_Int_Tables_number      2
_space_group_name_Hall           '-P 1'
loop_
_symmetry_equiv_pos_site_id
_symmetry_equiv_pos_as_xyz
1 x,y,z
2 -x,-y,-z
_cell_length_a                   13.8320(10)
_cell_length_b                   15.7740(10)
_cell_length_c                   15.981(2)
_cell_angle_alpha                83.342(6)
_cell_angle_beta                 84.758(9)
_cell_angle_gamma                84.313(10)
_cell_volume                     3435
_exptl_crystal_colour            red
_exptl_crystal_description       needle
_cell_formula_units_Z            2
loop_
_atom_site_label
_atom_site_type_symbol
_atom_site_fract_x
_atom_site_fract_y
_atom_site_fract_z
Cl1 Cl 1.09609(16) 0.18659(16) 0.49321(17)
Cl2 Cl 1.15799(14) 0.37237(17) 0.33191(15)
Cl3 Cl 1.1127(2) 0.0003(3) 0.1340(2)
Cl4 Cl 0.88828(19) 0.21771(16) 0.65446(16)
Cl5 Cl 1.00273(16) 0.58238(15) 0.31464(15)
Cl6 Cl 0.9115(3) -0.1579(2) 0.1713(3)
Cl7 Cl 0.7419(3) -0.18044(17) 0.3837(2)
Cl8 Cl 0.70891(16) 0.44341(15) 0.63987(14)
Cl9 Cl 0.76382(14) 0.61667(13) 0.46591(13)
Cl10 Cl 0.8529(6) 0.6519(3) 0.1183(4)
Cl11 Cl 0.8613(4) 0.5306(6) -0.0577(4)
Cl12 Cl 0.8312(4) 0.2461(4) -0.1608(3)
Cl13 Cl 0.65472(16) -0.09441(16) 0.03592(17)
Cl14 Cl 0.49850(17) -0.13179(15) 0.25465(17)
Cl15 Cl 0.58939(17) 0.66952(15) 0.26348(19)
Cl16 Cl 0.6473(4) 0.4426(3) -0.1116(3)
Cl17 Cl 0.62815(17) 0.1175(2) -0.10218(16)
Cl18 Cl 0.30281(18) 0.03527(16) 0.30484(16)
Cl19 Cl 0.44441(17) 0.30992(18) -0.03629(15)
Cl20 Cl 0.27434(15) 0.26319(16) 0.14847(15)
C1 C 1.0224(7) 0.1802(11) 0.2878(10)
C2 C 0.9822(10) 0.0932(10) 0.3091(8)
C3 C 0.9190(7) 0.0775(8) 0.3924(7)
C4 C 0.9247(6) 0.1413(6) 0.4474(6)
C5 C 0.9921(6) 0.2108(7) 0.4282(6)
C6 C 1.0324(8) 0.2331(10) 0.3365(9)
C7 C 1.0386(6) 0.3395(6) 0.3143(6)
C8 C 1.0075(7) 0.3797(9) 0.2316(7)
C9 C 1.0094(9) 0.3227(9) 0.1676(7)
C10 C 1.0318(9) 0.2312(11) 0.1891(9)
C11 C 1.0213(8) 0.1744(10) 0.1399(9)
C12 C 1.0010(6) 0.0646(8) 0.1612(8)
C13 C 0.9608(9) 0.0376(12) 0.2482(10)
C14 C 0.8898(11) -0.0173(8) 0.2634(8)
C15 C 0.8292(10) -0.0253(7) 0.3390(8)
C16 C 0.8411(8) 0.0255(6) 0.4030(6)
C17 C 0.7582(7) 0.0433(6) 0.4626(6)
C18 C 0.7661(6) 0.1038(6) 0.5149(5)
C19 C 0.8526(7) 0.1496(5) 0.5102(6)
C20 C 0.8280(6) 0.2284(6) 0.5572(6)
C21 C 0.8594(6) 0.3084(6) 0.5013(6)
C22 C 0.9413(6) 0.2992(6) 0.4451(6)
C23 C 0.9653(5) 0.3647(5) 0.3848(5)
C24 C 0.9071(6) 0.4418(5) 0.3779(5)
C25 C 0.9186(5) 0.5045(5) 0.3002(5)
C26 C 0.9511(5) 0.4573(7) 0.2233(5)
C27 C 0.8982(5) 0.4829(6) 0.1530(5)
C28 C 0.9032(6) 0.4323(6) 0.0877(5)
C29 C 0.9605(8) 0.3521(9) 0.0930(6)
C30 C 0.9390(6) 0.2901(7) 0.0423(6)
C31 C 0.9710(6) 0.2038(7) 0.0631(6)
C32 C 0.9172(7) 0.1358(8) 0.0435(9)
C33 C 0.9263(6) 0.0610(6) 0.1010(7)
C34 C 0.8507(6) 0.0080(6) 0.1146(6)
C35 C 0.8457(8) -0.0550(6) 0.1916(9)
C36 C 0.7467(14) -0.0657(9) 0.2375(11)
C37 C 0.7356(11) -0.0667(7) 0.3372(7)
C38 C 0.6490(8) -0.0212(6) 0.3785(7)
C39 C 0.6593(7) 0.0282(6) 0.4450(6)
C40 C 0.5796(7) 0.0864(6) 0.4720(6)
C41 C 0.5930(6) 0.1544(6) 0.5193(5)
C42 C 0.6855(6) 0.1576(5) 0.5493(5)
C43 C 0.7188(6) 0.2318(5) 0.5716(5)
C44 C 0.6599(6) 0.3078(6) 0.5638(5)
C45 C 0.6990(6) 0.3922(6) 0.5440(5)
C46 C 0.7992(6) 0.3855(5) 0.4950(5)
C47 C 0.8234(5) 0.4517(5) 0.4329(5)
C48 C 0.7502(6) 0.5279(5) 0.4078(5)
C49 C 0.7478(9) 0.5558(7) 0.3152(9)
C50 C 0.8218(7) 0.5454(6) 0.2761(9)
C51 C 0.8154(7) 0.5476(6) 0.1669(6)
C52 C 0.7241(7) 0.5173(7) 0.1390(8)
C53 C 0.7316(7) 0.4718(9) 0.0730(7)
C54 C 0.8281(7) 0.4427(7) 0.0289(6)
C55 C 0.7925(10) 0.3755(11) -0.0079(8)
C56 C 0.8506(8) 0.3099(9) -0.0014(7)
C57 C 0.8017(10) 0.2388(11) -0.0308(11)
C58 C 0.8349(8) 0.1514(9) -0.0018(9)
C59 C 0.7563(7) 0.1020(8) 0.0184(7)
C60 C 0.7650(6) 0.0300(7) 0.0728(6)
C61 C 0.6757(5) -0.0154(5) 0.1049(5)
C62 C 0.6823(10) -0.0556(7) 0.1966(9)
C63 C 0.5678(7) -0.0388(6) 0.2501(7)
C64 C 0.5636(8) -0.0107(6) 0.3361(7)
C65 C 0.4863(8) 0.0449(6) 0.3619(6)
C66 C 0.4943(7) 0.0926(6) 0.4293(6)
C67 C 0.4336(6) 0.1732(6) 0.4181(5)
C68 C 0.4582(5) 0.2455(6) 0.4490(5)
C69 C 0.5323(6) 0.2344(6) 0.5103(5)
C70 C 0.5681(5) 0.3064(6) 0.5299(5)
C71 C 0.5495(6) 0.3892(6) 0.4815(5)
C72 C 0.6251(6) 0.4393(6) 0.4874(6)
C73 C 0.6494(6) 0.4989(6) 0.4210(7)
C74 C 0.5961(6) 0.5099(6) 0.3492(7)
C75 C 0.6451(6) 0.5603(6) 0.2762(8)
C76 C 0.6414(6) 0.5210(6) 0.1962(7)
C77 C 0.5646(6) 0.4680(6) 0.1841(6)
C78 C 0.5714(6) 0.4204(7) 0.1133(5)
C79 C 0.6552(7) 0.4305(10) 0.0591(6)
C80 C 0.6820(9) 0.3785(10) -0.0005(11)
C81 C 0.6429(10) 0.2939(9) 0.0055(6)
C82 C 0.6903(11) 0.2335(11) -0.0245(8)
C83 C 0.6601(7) 0.1454(6) -0.0039(6)
C84 C 0.5829(6) 0.1277(6) 0.0644(5)
C85 C 0.5880(5) 0.0494(5) 0.1152(6)
C86 C 0.5303(6) 0.0366(5) 0.1886(6)
C87 C 0.4611(5) 0.1024(6) 0.2144(6)
C88 C 0.4126(6) 0.0908(6) 0.3044(6)
C89 C 0.3904(5) 0.1735(6) 0.3402(5)
C90 C 0.3785(5) 0.2505(5) 0.2918(5)
C91 C 0.4050(5) 0.3252(5) 0.3197(5)
C92 C 0.4421(5) 0.3258(5) 0.3987(5)
C93 C 0.4954(5) 0.3973(5) 0.4100(5)
C94 C 0.5220(5) 0.4579(5) 0.3400(5)
C95 C 0.4988(5) 0.4439(5) 0.2556(5)
C96 C 0.4377(5) 0.3813(5) 0.2486(5)
C97 C 0.4406(5) 0.3383(5) 0.1741(5)
C98 C 0.5086(6) 0.3518(6) 0.1093(5)
C99 C 0.5320(7) 0.2850(7) 0.0482(5)
C100 C 0.5168(7) 0.1956(6) 0.0915(5)
C101 C 0.4542(6) 0.1806(6) 0.1640(5)
C102 C 0.3905(6) 0.2569(6) 0.1957(5)
Cl21? Cl 0.8111(9) 0.6523(5) 0.0924(6)
Cl22? Cl 0.8491(6) 0.4830(11) -0.0816(6)
loop_
_geom_bond_atom_site_label_1
_geom_bond_atom_site_label_2
_geom_bond_site_symmetry_1
_geom_bond_site_symmetry_2
Cl1 C5 1_555 1_555
Cl2 C7 1_555 1_555
Cl3 C12 1_555 1_555
Cl4 C20 1_555 1_555
Cl5 C25 1_555 1_555
Cl6 C35 1_555 1_555
Cl7 C37 1_555 1_555
Cl8 C45 1_555 1_555
Cl9 C48 1_555 1_555
Cl10 C51 1_555 1_555
Cl11 C54 1_555 1_555
Cl12 C57 1_555 1_555
Cl13 C61 1_555 1_555
Cl14 C63 1_555 1_555
Cl15 C75 1_555 1_555
Cl16 C80 1_555 1_555
Cl17 C83 1_555 1_555
Cl18 C88 1_555 1_555
Cl19 C99 1_555 1_555
Cl20 C102 1_555 1_555
C1 C2 1_555 1_555
C2 C3 1_555 1_555
C3 C4 1_555 1_555
C4 C5 1_555 1_555
C5 C6 1_555 1_555
C6 C1 1_555 1_555
C7 C6 1_555 1_555
C8 C7 1_555 1_555
C9 C8 1_555 1_555
C10 C1 1_555 1_555
C11 C10 1_555 1_555
C12 C11 1_555 1_555
C13 C2 1_555 1_555
C14 C13 1_555 1_555
C15 C14 1_555 1_555
C16 C3 1_555 1_555
C17 C16 1_555 1_555
C18 C17 1_555 1_555
C19 C4 1_555 1_555
C20 C19 1_555 1_555
C21 C20 1_555 1_555
C22 C5 1_555 1_555
C23 C7 1_555 1_555
C24 C23 1_555 1_555
C25 C24 1_555 1_555
C26 C8 1_555 1_555
C27 C26 1_555 1_555
C28 C27 1_555 1_555
C29 C9 1_555 1_555
C30 C29 1_555 1_555
C31 C11 1_555 1_555
C32 C31 1_555 1_555
C33 C12 1_555 1_555
C34 C33 1_555 1_555
C35 C14 1_555 1_555
C36 C35 1_555 1_555
C37 C15 1_555 1_555
C38 C37 1_555 1_555
C39 C17 1_555 1_555
C40 C39 1_555 1_555
C41 C40 1_555 1_555
C42 C18 1_555 1_555
C43 C20 1_555 1_555
C44 C43 1_555 1_555
C45 C44 1_555 1_555
C46 C21 1_555 1_555
C47 C24 1_555 1_555
C48 C47 1_555 1_555
C49 C48 1_555 1_555
C50 C25 1_555 1_555
C51 C27 1_555 1_555
C52 C51 1_555 1_555
C53 C52 1_555 1_555
C54 C28 1_555 1_555
C55 C54 1_555 1_555
C56 C30 1_555 1_555
C57 C56 1_555 1_555
C58 C32 1_555 1_555
C59 C58 1_555 1_555
C60 C34 1_555 1_555
C61 C60 1_555 1_555
C62 C36 1_555 1_555
C63 C62 1_555 1_555
C64 C38 1_555 1_555
C65 C64 1_555 1_555
C66 C40 1_555 1_555
C67 C66 1_555 1_555
C68 C67 1_555 1_555
C69 C41 1_555 1_555
C70 C44 1_555 1_555
C71 C70 1_555 1_555
C72 C45 1_555 1_555
C73 C48 1_555 1_555
C74 C73 1_555 1_555
C75 C49 1_555 1_555
C76 C52 1_555 1_555
C77 C76 1_555 1_555
C78 C77 1_555 1_555
C79 C53 1_555 1_555
C80 C55 1_555 1_555
C81 C80 1_555 1_555
C82 C57 1_555 1_555
C83 C59 1_555 1_555
C84 C83 1_555 1_555
C85 C61 1_555 1_555
C86 C63 1_555 1_555
C87 C86 1_555 1_555
C88 C65 1_555 1_555
C89 C67 1_555 1_555
C90 C89 1_555 1_555
C91 C90 1_555 1_555
C92 C68 1_555 1_555
C93 C71 1_555 1_555
C94 C74 1_555 1_555
C95 C77 1_555 1_555
C96 C91 1_555 1_555
C97 C96 1_555 1_555
C98 C78 1_555 1_555
C99 C81 1_555 1_555
C100 C84 1_555 1_555
C101 C87 1_555 1_555
C102 C90 1_555 1_555
C9 C10 1_555 1_555
C12 C13 1_555 1_555
C15 C16 1_555 1_555
C18 C19 1_555 1_555
C21 C22 1_555 1_555
C22 C23 1_555 1_555
C25 C26 1_555 1_555
C28 C29 1_555 1_555
C30 C31 1_555 1_555
C32 C33 1_555 1_555
C34 C35 1_555 1_555
C36 C37 1_555 1_555
C38 C39 1_555 1_555
C41 C42 1_555 1_555
C42 C43 1_555 1_555
C45 C46 1_555 1_555
C46 C47 1_555 1_555
C49 C50 1_555 1_555
C50 C51 1_555 1_555
C53 C54 1_555 1_555
C55 C56 1_555 1_555
C57 C58 1_555 1_555
C59 C60 1_555 1_555
C61 C62 1_555 1_555
C63 C64 1_555 1_555
C65 C66 1_555 1_555
C68 C69 1_555 1_555
C69 C70 1_555 1_555
C71 C72 1_555 1_555
C72 C73 1_555 1_555
C74 C75 1_555 1_555
C75 C76 1_555 1_555
C78 C79 1_555 1_555
C79 C80 1_555 1_555
C81 C82 1_555 1_555
C82 C83 1_555 1_555
C84 C85 1_555 1_555
C85 C86 1_555 1_555
C87 C88 1_555 1_555
C88 C89 1_555 1_555
C91 C92 1_555 1_555
C92 C93 1_555 1_555
C93 C94 1_555 1_555
C94 C95 1_555 1_555
C95 C96 1_555 1_555
C97 C98 1_555 1_555
C97 C102 1_555 1_555
C98 C99 1_555 1_555
C99 C100 1_555 1_555
C100 C101 1_555 1_555
C101 C102 1_555 1_555

#END
