
#######################################################################
#
#                 Cambridge Crystallographic Data Centre
#                                CCDC 
#
#######################################################################
#
# If this CIF has been generated from an entry in the Cambridge 
# Structural Database, then it will include bibliographic, chemical, 
# crystal, experimental, refinement or atomic coordinate data resulting 
# from the CCDC's data processing and validation procedures.
#
#######################################################################

data_DIYNAC
_chemical_formula_moiety         
'0.471(C104 Cl16),0.429(C104 Cl18),0.1(C104 Cl20)'
_chemical_name_systematic        
'hexadecachloro-C104fullerene octadecachloro-C104fullerene icosachloro-C104fullerene chlorine'
_symmetry_cell_setting           monoclinic
_symmetry_space_group_name_H-M   'P 21/m'
_symmetry_Int_Tables_number      11
_space_group_name_Hall           '-P 2yb'
loop_
_symmetry_equiv_pos_site_id
_symmetry_equiv_pos_as_xyz
1 x,y,z
2 -x,1/2+y,-z
3 -x,-y,-z
4 x,1/2-y,z
_cell_length_a                   11.6050(10)
_cell_length_b                   19.5130(10)
_cell_length_c                   15.5140(10)
_cell_angle_alpha                90
_cell_angle_beta                 109.977(7)
_cell_angle_gamma                90
_cell_volume                     3301.73
_exptl_crystal_colour            red
_exptl_crystal_description       needle
_cell_formula_units_Z            2
loop_
_atom_site_label
_atom_site_type_symbol
_atom_site_fract_x
_atom_site_fract_y
_atom_site_fract_z
Cl9 Cl 1.45019(14) 0.65409(7) 0.97646(9)
Cl9C Cl 1.45019(14) 0.84591(7) 0.97646(9)
Cl1 Cl 0.84175(8) 0.44956(4) 0.50536(6)
Cl2 Cl 0.21799(8) 0.64672(4) 0.33065(5)
Cl3 Cl 0.74200(9) 0.63210(4) 1.09922(5)
Cl4 Cl 0.77115(9) 0.54020(4) 0.29111(6)
Cl5 Cl 1.06195(9) 0.63104(5) 1.11616(6)
Cl6 Cl 0.43133(10) 0.64248(4) 0.18540(5)
Cl7 Cl 0.49968(10) 0.53238(5) 0.88884(6)
Cl8 Cl 1.16841(14) 0.54001(8) 0.93953(10)
Cl9_2 Cl 0.45019(14) 0.65409(7) 0.97646(9)
C1 C 0.4789(3) 0.61869(15) 0.7446(2)
C2 C 0.3766(3) 0.67641(15) 0.57062(19)
C3 C 0.3873(4) 0.7500 0.3565(3)
C4 C 0.6276(3) 0.55569(14) 0.6955(2)
C5 C 0.6779(3) 0.55661(15) 0.4796(2)
C6 C 0.4134(3) 0.67882(15) 0.7337(2)
C7 C 0.5099(3) 0.59020(15) 0.67238(19)
C8 C 0.8826(3) 0.55124(15) 0.7123(2)
C9 C 0.6866(3) 0.59527(15) 0.8569(2)
C10 C 0.7533(3) 0.67447(16) 0.9976(2)
C11 C 0.5543(3) 0.60697(15) 0.84524(19)
C12 C 0.6674(3) 0.53793(14) 0.6246(2)
C13 C 0.7928(3) 0.53155(15) 0.6338(2)
C14 C 0.5995(3) 0.55735(15) 0.5309(2)
C15 C 0.4492(3) 0.61606(15) 0.5818(2)
C16 C 0.3698(3) 0.71308(15) 0.64776(19)
C17 C 0.4656(3) 0.63549(15) 0.42357(19)
C18 C 0.5423(3) 0.63435(16) 0.37104(19)
C19 C 0.7758(3) 0.62314(16) 0.9318(2)
C20 C 0.3496(3) 0.71491(15) 0.48765(19)
C21 C 0.4957(3) 0.59856(15) 0.5076(2)
C22 C 0.6524(3) 0.59553(16) 0.4011(2)
C23 C 0.4474(3) 0.71521(15) 0.8196(2)
C24 C 0.6385(3) 0.71462(16) 0.95018(19)
C25 C 0.8480(3) 0.56493(16) 0.7928(2)
C26 C 0.8977(3) 0.58535(16) 0.5339(2)
C27 C 0.7206(3) 0.56579(15) 0.7850(2)
C28 C 0.8990(3) 0.62238(17) 0.9390(2)
C29 C 0.9722(3) 0.67349(18) 1.0099(2)
C30 C 1.1078(3) 0.67808(19) 0.9178(3)
C31 C 0.3622(3) 0.68660(16) 0.40179(19)
C32 C 0.8052(3) 0.53371(16) 0.5396(2)
C33 C 0.6402(4) 0.71317(17) 0.2887(2)
C34 C 1.1092(3) 0.71288(18) 0.6904(3)
C35 C 0.5207(3) 0.68526(17) 0.2916(2)
C36 C 0.9343(3) 0.67853(17) 0.4440(2)
C37 C 0.7585(4) 0.60831(17) 0.3675(2)
C38 C 0.4583(5) 0.7500 0.3073(3)
C39 C 1.1314(3) 0.67852(18) 0.7737(3)
C40 C 0.7481(3) 0.67803(17) 0.3225(2)
C41 C 0.9923(3) 0.58573(17) 0.7043(2)
C42 C 0.9361(3) 0.59377(17) 0.8717(2)
C43 C 0.8579(3) 0.71432(18) 0.3633(2)
C44 C 1.0653(3) 0.60746(18) 0.8755(2)
C45 C 0.9867(3) 0.61226(16) 0.6146(2)
C46 C 0.8692(3) 0.71628(18) 1.0216(2)
C47 C 0.8757(3) 0.61651(16) 0.4507(2)
C48 C 1.0450(3) 0.67625(17) 0.6077(3)
C49 C 1.0565(3) 0.71357(19) 0.9734(2)
C50 C 1.1539(3) 0.71424(19) 0.8581(3)
C51 C 0.5340(3) 0.67539(17) 0.8918(2)
C52 C 1.0731(3) 0.61589(17) 0.7805(3)
C53 C 1.0105(3) 0.71231(17) 0.5226(3)
Cl1C Cl 0.84175(8) 1.05044(4) 0.50536(6)
Cl2C Cl 0.21799(8) 0.85328(4) 0.33065(5)
Cl3C Cl 0.74200(9) 0.86790(4) 1.09922(5)
Cl4C Cl 0.77115(9) 0.95980(4) 0.29111(6)
Cl5C Cl 1.06195(9) 0.86896(5) 1.11616(6)
Cl6C Cl 0.43133(10) 0.85752(4) 0.18540(5)
Cl7C Cl 0.49968(10) 0.96762(5) 0.88884(6)
Cl8C Cl 1.16841(14) 0.95999(8) 0.93953(10)
Cl9C_2 Cl 0.45019(14) 0.84591(7) 0.97646(9)
C1C C 0.4789(3) 0.88131(15) 0.7446(2)
C2C C 0.3766(3) 0.82359(15) 0.57062(19)
C4C C 0.6276(3) 0.94431(14) 0.6955(2)
C5C C 0.6779(3) 0.94339(15) 0.4796(2)
C6C C 0.4134(3) 0.82118(15) 0.7337(2)
C7C C 0.5099(3) 0.90980(15) 0.67238(19)
C8C C 0.8826(3) 0.94876(15) 0.7123(2)
C9C C 0.6866(3) 0.90473(15) 0.8569(2)
C10C C 0.7533(3) 0.82553(16) 0.9976(2)
C11C C 0.5543(3) 0.89303(15) 0.84524(19)
C12C C 0.6674(3) 0.96207(14) 0.6246(2)
C13C C 0.7928(3) 0.96845(15) 0.6338(2)
C14C C 0.5995(3) 0.94265(15) 0.5309(2)
C15C C 0.4492(3) 0.88394(15) 0.5818(2)
C16C C 0.3698(3) 0.78692(15) 0.64776(19)
C17C C 0.4656(3) 0.86451(15) 0.42357(19)
C18C C 0.5423(3) 0.86565(16) 0.37104(19)
C19C C 0.7758(3) 0.87686(16) 0.9318(2)
C20C C 0.3496(3) 0.78509(15) 0.48765(19)
C21C C 0.4957(3) 0.90144(15) 0.5076(2)
C22C C 0.6524(3) 0.90447(16) 0.4011(2)
C23C C 0.4474(3) 0.78479(15) 0.8196(2)
C24C C 0.6385(3) 0.78538(16) 0.95018(19)
C25C C 0.8480(3) 0.93507(16) 0.7928(2)
C26C C 0.8977(3) 0.91465(16) 0.5339(2)
C27C C 0.7206(3) 0.93421(15) 0.7850(2)
C28C C 0.8990(3) 0.87762(17) 0.9390(2)
C29C C 0.9722(3) 0.82651(18) 1.0099(2)
C30C C 1.1078(3) 0.82192(19) 0.9178(3)
C31C C 0.3622(3) 0.81340(16) 0.40179(19)
C32C C 0.8052(3) 0.96629(16) 0.5396(2)
C33C C 0.6402(4) 0.78683(17) 0.2887(2)
C34C C 1.1092(3) 0.78712(18) 0.6904(3)
C35C C 0.5207(3) 0.81474(17) 0.2916(2)
C36C C 0.9343(3) 0.82147(17) 0.4440(2)
C37C C 0.7585(4) 0.89169(17) 0.3675(2)
C39C C 1.1314(3) 0.82148(18) 0.7737(3)
C40C C 0.7481(3) 0.82197(17) 0.3225(2)
C41C C 0.9923(3) 0.91427(17) 0.7043(2)
C42C C 0.9361(3) 0.90623(17) 0.8717(2)
C43C C 0.8579(3) 0.78568(18) 0.3633(2)
C44C C 1.0653(3) 0.89254(18) 0.8755(2)
C45C C 0.9867(3) 0.88774(16) 0.6146(2)
C46C C 0.8692(3) 0.78372(18) 1.0216(2)
C47C C 0.8757(3) 0.88349(16) 0.4507(2)
C48C C 1.0450(3) 0.82375(17) 0.6077(3)
C49C C 1.0565(3) 0.78643(19) 0.9734(2)
C50C C 1.1539(3) 0.78576(19) 0.8581(3)
C51C C 0.5340(3) 0.82461(17) 0.8918(2)
C52C C 1.0731(3) 0.88411(17) 0.7805(3)
C53C C 1.0105(3) 0.78769(17) 0.5226(3)
Cl10? Cl 1.1439(13) 0.5266(8) 0.9014(11)
Cl11? Cl 1.2838(8) 0.6557(5) 0.9943(6)
loop_
_geom_bond_atom_site_label_1
_geom_bond_atom_site_label_2
_geom_bond_site_symmetry_1
_geom_bond_site_symmetry_2
Cl1 C32 1_555 1_555
Cl2 C31 1_555 1_555
Cl3 C10 1_555 1_555
Cl4 C37 1_555 1_555
Cl5 C29 1_555 1_555
Cl6 C35 1_555 1_555
Cl7 C11 1_555 1_555
Cl8 C44 1_555 1_555
Cl9_2 C51 1_555 1_555
C1 C6 1_555 1_555
C2 C15 1_555 1_555
C3 C31 1_555 1_555
C4 C7 1_555 1_555
C5 C14 1_555 1_555
C6 C16 1_555 1_555
C7 C1 1_555 1_555
C8 C13 1_555 1_555
C9 C11 1_555 1_555
C10 C19 1_555 1_555
C11 C1 1_555 1_555
C12 C4 1_555 1_555
C13 C12 1_555 1_555
C14 C12 1_555 1_555
C15 C7 1_555 1_555
C16 C2 1_555 1_555
C17 C18 1_555 1_555
C18 C22 1_555 1_555
C19 C9 1_555 1_555
C20 C2 1_555 1_555
C21 C14 1_555 1_555
C22 C5 1_555 1_555
C23 C6 1_555 1_555
C24 C10 1_555 1_555
C25 C8 1_555 1_555
C26 C32 1_555 1_555
C27 C4 1_555 1_555
C28 C19 1_555 1_555
C29 C28 1_555 1_555
C30 C44 1_555 1_555
C31 C17 1_555 1_555
C32 C5 1_555 1_555
C33 C35 1_555 1_555
C34 C39 1_555 1_555
C35 C18 1_555 1_555
C36 C43 1_555 1_555
C37 C22 1_555 1_555
C38 C3 1_555 1_555
C39 C50 1_555 1_555
C40 C33 1_555 1_555
C41 C8 1_555 1_555
C42 C25 1_555 1_555
C43 C40 1_555 1_555
C44 C42 1_555 1_555
C45 C26 1_555 1_555
C46 C10 1_555 1_555
C47 C26 1_555 1_555
C48 C34 1_555 1_555
C49 C29 1_555 1_555
C50 C30 1_555 1_555
C51 C11 1_555 1_555
C52 C39 1_555 1_555
C53 C36 1_555 1_555
Cl1C C32C 1_555 1_555
Cl2C C31C 1_555 1_555
Cl3C C10C 1_555 1_555
Cl4C C37C 1_555 1_555
Cl5C C29C 1_555 1_555
Cl6C C35C 1_555 1_555
Cl7C C11C 1_555 1_555
Cl8C C44C 1_555 1_555
Cl9C_2 C51C 1_555 1_555
C1C C6C 1_555 1_555
C2C C15C 1_555 1_555
C4C C7C 1_555 1_555
C5C C14C 1_555 1_555
C6C C16C 1_555 1_555
C7C C1C 1_555 1_555
C8C C13C 1_555 1_555
C9C C11C 1_555 1_555
C10C C19C 1_555 1_555
C11C C1C 1_555 1_555
C12C C4C 1_555 1_555
C13C C12C 1_555 1_555
C14C C12C 1_555 1_555
C15C C7C 1_555 1_555
C16C C16 1_555 1_555
C17C C18C 1_555 1_555
C18C C22C 1_555 1_555
C19C C9C 1_555 1_555
C20C C20 1_555 1_555
C21C C14C 1_555 1_555
C22C C5C 1_555 1_555
C23C C23 1_555 1_555
C24C C24 1_555 1_555
C25C C8C 1_555 1_555
C26C C32C 1_555 1_555
C27C C4C 1_555 1_555
C28C C19C 1_555 1_555
C29C C28C 1_555 1_555
C30C C44C 1_555 1_555
C31C C3 1_555 1_555
C32C C5C 1_555 1_555
C33C C33 1_555 1_555
C34C C34 1_555 1_555
C35C C38 1_555 1_555
C36C C43C 1_555 1_555
C37C C22C 1_555 1_555
C39C C34C 1_555 1_555
C40C C33C 1_555 1_555
C41C C8C 1_555 1_555
C42C C25C 1_555 1_555
C43C C43 1_555 1_555
C44C C42C 1_555 1_555
C45C C26C 1_555 1_555
C46C C46 1_555 1_555
C47C C26C 1_555 1_555
C48C C34C 1_555 1_555
C49C C49 1_555 1_555
C50C C50 1_555 1_555
C51C C11C 1_555 1_555
C52C C39C 1_555 1_555
C53C C53 1_555 1_555
C9 C27 1_555 1_555
C13 C32 1_555 1_555
C15 C21 1_555 1_555
C17 C21 1_555 1_555
C20 C31 1_555 1_555
C23 C51 1_555 1_555
C24 C51 1_555 1_555
C25 C27 1_555 1_555
C28 C42 1_555 1_555
C29 C46 1_555 1_555
C30 C49 1_555 1_555
C35 C38 1_555 1_555
C36 C47 1_555 1_555
C37 C40 1_555 1_555
C37 C47 1_555 1_555
C41 C45 1_555 1_555
C41 C52 1_555 1_555
C44 C52 1_555 1_555
C45 C48 1_555 1_555
C48 C53 1_555 1_555
C2C C16C 1_555 1_555
C2C C20C 1_555 1_555
C6C C23C 1_555 1_555
C9C C27C 1_555 1_555
C10C C24C 1_555 1_555
C10C C46C 1_555 1_555
C13C C32C 1_555 1_555
C15C C21C 1_555 1_555
C17C C21C 1_555 1_555
C17C C31C 1_555 1_555
C18C C35C 1_555 1_555
C20C C31C 1_555 1_555
C23C C51C 1_555 1_555
C24C C51C 1_555 1_555
C25C C27C 1_555 1_555
C28C C42C 1_555 1_555
C29C C46C 1_555 1_555
C29C C49C 1_555 1_555
C30C C49C 1_555 1_555
C30C C50C 1_555 1_555
C33C C35C 1_555 1_555
C36C C47C 1_555 1_555
C36C C53C 1_555 1_555
C37C C40C 1_555 1_555
C37C C47C 1_555 1_555
C39C C50C 1_555 1_555
C40C C43C 1_555 1_555
C41C C45C 1_555 1_555
C41C C52C 1_555 1_555
C44C C52C 1_555 1_555
C45C C48C 1_555 1_555
C48C C53C 1_555 1_555

#END
