
#######################################################################
#
#                 Cambridge Crystallographic Data Centre
#                                CCDC 
#
#######################################################################
#
# If this CIF has been generated from an entry in the Cambridge 
# Structural Database, then it will include bibliographic, chemical, 
# crystal, experimental, refinement or atomic coordinate data resulting 
# from the CCDC's data processing and validation procedures.
#
#######################################################################

data_DIYVOX
_chemical_formula_moiety         'C21 H25 N1 O4 S1'
_chemical_name_systematic        
(Z)-N-(1-(4-methoxyphenyl)-4,4-dimethyl-3-oxopent-1-en-2-yl)-4-methylbenzenesulfonamide
_symmetry_cell_setting           triclinic
_symmetry_space_group_name_H-M   'P -1'
_symmetry_Int_Tables_number      2
_space_group_name_Hall           '-P 1'
loop_
_symmetry_equiv_pos_site_id
_symmetry_equiv_pos_as_xyz
1 x,y,z
2 -x,-y,-z
_cell_length_a                   9.506(3)
_cell_length_b                   10.443(3)
_cell_length_c                   10.924(3)
_cell_angle_alpha                110.184(4)
_cell_angle_beta                 93.423(5)
_cell_angle_gamma                98.428(4)
_cell_volume                     999.723
_chemical_melting_point          '152-154 deg.C'
_cell_formula_units_Z            2
loop_
_atom_site_label
_atom_site_type_symbol
_atom_site_fract_x
_atom_site_fract_y
_atom_site_fract_z
S1 S 1.08141(6) 0.64543(5) 0.70749(5)
O1 O 1.14334(16) 0.54472(15) 0.61251(15)
O2 O 1.17082(16) 0.75955(16) 0.80547(16)
O3 O 0.71134(16) 0.64781(15) 0.66008(16)
O4 O 1.44375(18) 1.22831(18) 0.57962(19)
N1 N 0.98150(18) 0.70689(17) 0.62230(16)
C1 C 0.9662(2) 0.5590(2) 0.7847(2)
C2 C 0.8914(3) 0.4281(2) 0.7147(2)
H1 H 0.9082 0.3821 0.6289
C3 C 0.7922(3) 0.3658(3) 0.7717(3)
H2 H 0.7424 0.2769 0.7240
C4 C 0.7645(3) 0.4320(3) 0.8980(3)
C5 C 0.8410(3) 0.5617(3) 0.9662(3)
H3 H 0.8241 0.6075 1.0520
C6 C 0.9424(3) 0.6267(3) 0.9118(2)
H4 H 0.9937 0.7147 0.9603
C7 C 0.6534(4) 0.3648(4) 0.9598(3)
H5 H 0.6917 0.2978 0.9875
H6 H 0.5703 0.3195 0.8969
H7 H 0.6273 0.4342 1.0345
C8 C 0.9089(2) 0.8169(2) 0.6915(2)
C9 C 0.7631(2) 0.7681(2) 0.7198(2)
C10 C 0.6801(2) 0.8612(2) 0.8191(2)
C11 C 0.5555(3) 0.7667(3) 0.8429(4)
H8 H 0.4954 0.7158 0.7616
H9 H 0.5007 0.8216 0.9050
H10 H 0.5917 0.7030 0.8770
C12 C 0.7708(3) 0.9420(3) 0.9495(3)
H11 H 0.8132 0.8793 0.9807
H12 H 0.7118 0.9892 1.0122
H13 H 0.8450 1.0086 0.9382
C13 C 0.6182(3) 0.9571(3) 0.7616(3)
H14 H 0.6945 1.0238 0.7534
H15 H 0.5543 1.0045 0.8185
H16 H 0.5667 0.9038 0.6766
C14 C 0.9630(2) 0.9483(2) 0.7112(2)
H17 H 0.9081 1.0106 0.7590
C15 C 1.0898(2) 1.0149(2) 0.6739(2)
C16 C 1.1990(2) 0.9506(2) 0.6143(3)
H18 H 1.1944 0.8561 0.5955
C17 C 1.3129(3) 1.0246(2) 0.5828(3)
H19 H 1.3840 0.9794 0.5417
C18 C 1.3238(2) 1.1653(2) 0.6112(2)
C19 C 1.2162(3) 1.2307(2) 0.6666(2)
H20 H 1.2201 1.3248 0.6831
C20 C 1.1019(3) 1.1548(2) 0.6975(2)
H21 H 1.0296 1.2000 0.7361
C21 C 1.4654(3) 1.3746(3) 0.6136(3)
H22 H 1.3854 1.3993 0.5745
H23 H 1.5515 1.4046 0.5819
H24 H 1.4740 1.4187 0.7074
H25 H 0.9244(19) 0.6376(17) 0.5601(16)
loop_
_geom_bond_atom_site_label_1
_geom_bond_atom_site_label_2
_geom_bond_site_symmetry_1
_geom_bond_site_symmetry_2
S1 O1 1_555 1_555
O2 S1 1_555 1_555
O3 C9 1_555 1_555
O4 C18 1_555 1_555
N1 S1 1_555 1_555
C1 S1 1_555 1_555
C2 C1 1_555 1_555
H1 C2 1_555 1_555
C3 C2 1_555 1_555
H2 C3 1_555 1_555
C4 C3 1_555 1_555
C5 C4 1_555 1_555
H3 C5 1_555 1_555
C6 C1 1_555 1_555
H4 C6 1_555 1_555
C7 C4 1_555 1_555
H5 C7 1_555 1_555
H6 C7 1_555 1_555
H7 C7 1_555 1_555
C8 N1 1_555 1_555
C9 C8 1_555 1_555
C10 C9 1_555 1_555
C11 C10 1_555 1_555
H8 C11 1_555 1_555
H9 C11 1_555 1_555
H10 C11 1_555 1_555
C12 C10 1_555 1_555
H11 C12 1_555 1_555
H12 C12 1_555 1_555
H13 C12 1_555 1_555
C13 C10 1_555 1_555
H14 C13 1_555 1_555
H15 C13 1_555 1_555
H16 C13 1_555 1_555
C14 C8 1_555 1_555
H17 C14 1_555 1_555
C15 C14 1_555 1_555
C16 C15 1_555 1_555
H18 C16 1_555 1_555
C17 C16 1_555 1_555
H19 C17 1_555 1_555
C18 C17 1_555 1_555
C19 C18 1_555 1_555
H20 C19 1_555 1_555
C20 C15 1_555 1_555
H21 C20 1_555 1_555
C21 O4 1_555 1_555
H22 C21 1_555 1_555
H23 C21 1_555 1_555
H24 C21 1_555 1_555
H25 N1 1_555 1_555
C5 C6 1_555 1_555
C19 C20 1_555 1_555

#END
