
#######################################################################
#
#                 Cambridge Crystallographic Data Centre
#                                CCDC 
#
#######################################################################
#
# If this CIF has been generated from an entry in the Cambridge 
# Structural Database, then it will include bibliographic, chemical, 
# crystal, experimental, refinement or atomic coordinate data resulting 
# from the CCDC's data processing and validation procedures.
#
#######################################################################

data_DIYXAL
_chemical_formula_moiety         'C16 H19 N4 O3 P1'
_chemical_name_systematic        'Diethyl 9-(benzyl)purin-6-ylphosphonate'
_symmetry_cell_setting           monoclinic
_symmetry_space_group_name_H-M   'P 21/c'
_symmetry_Int_Tables_number      14
_space_group_name_Hall           '-P 2ybc'
loop_
_symmetry_equiv_pos_site_id
_symmetry_equiv_pos_as_xyz
1 x,y,z
2 -x,1/2+y,1/2-z
3 -x,-y,-z
4 x,1/2-y,1/2+z
_cell_length_a                   8.5952(10)
_cell_length_b                   21.587(3)
_cell_length_c                   9.6507(11)
_cell_angle_alpha                90
_cell_angle_beta                 100.7350(10)
_cell_angle_gamma                90
_cell_volume                     1759.3
_exptl_crystal_colour            colorless
_exptl_crystal_description       block
_cell_formula_units_Z            4
loop_
_atom_site_label
_atom_site_type_symbol
_atom_site_fract_x
_atom_site_fract_y
_atom_site_fract_z
P1 P 0.20189(7) 0.35486(3) 0.60493(7)
O1 O 0.1812(2) 0.40028(8) 0.72551(19)
O2 O 0.32100(19) 0.30622(7) 0.68262(17)
O3 O 0.05728(19) 0.32848(9) 0.5222(2)
N1 N 0.6746(2) 0.41783(9) 0.39524(19)
N2 N 0.5869(2) 0.35852(9) 0.5574(2)
N3 N 0.4347(2) 0.47470(9) 0.3052(2)
N4 N 0.2172(2) 0.44408(9) 0.4156(2)
C1 C 0.7058(3) 0.37313(12) 0.4964(3)
H1 H 0.8046 0.3543 0.5203
C2 C 0.5194(2) 0.43350(10) 0.3890(2)
C3 C 0.2867(3) 0.47753(11) 0.3272(3)
H2 H 0.2223 0.5068 0.2737
C4 C 0.3071(2) 0.40236(9) 0.4985(2)
C5 C 0.4655(2) 0.39631(9) 0.4901(2)
C6 C 0.7804(3) 0.43941(11) 0.3013(3)
H3 H 0.8892 0.4382 0.3515
H4 H 0.7549 0.4820 0.2741
C7 C 0.7641(3) 0.39974(10) 0.1713(2)
C8 C 0.6637(3) 0.41777(14) 0.0474(3)
H5 H 0.6091 0.4551 0.0447
C9 C 0.6447(4) 0.38118(19) -0.0704(3)
H6 H 0.5775 0.3939 -0.1525
C10 C 0.7235(5) 0.32630(19) -0.0682(4)
H7 H 0.7095 0.3015 -0.1483
C11 C 0.8239(4) 0.30756(14) 0.0529(4)
H8 H 0.8783 0.2703 0.0542
C12 C 0.8440(3) 0.34457(12) 0.1739(3)
H9 H 0.9113 0.3318 0.2558
C13 C 0.0903(5) 0.38182(16) 0.8317(4)
H10 H -0.0206 0.3778 0.7887
H11 H 0.1274 0.3419 0.8709
C14 C 0.1080(5) 0.42747(18) 0.9421(4)
H12 H 0.2173 0.4302 0.9866
H13 H 0.0457 0.4157 1.0106
H14 H 0.0726 0.4670 0.9026
C15 C 0.3506(4) 0.24805(13) 0.6134(4)
H15 H 0.2610 0.2390 0.5390
H16 H 0.4433 0.2529 0.5705
C16 C 0.3739(8) 0.19954(18) 0.7059(5)
H17 H 0.4574 0.2096 0.7834
H18 H 0.4026 0.1633 0.6586
H19 H 0.2782 0.1916 0.7406
loop_
_geom_bond_atom_site_label_1
_geom_bond_atom_site_label_2
_geom_bond_site_symmetry_1
_geom_bond_site_symmetry_2
P1 O1 1_555 1_555
O1 C13 1_555 1_555
O2 P1 1_555 1_555
O3 P1 1_555 1_555
N1 C1 1_555 1_555
N2 C1 1_555 1_555
N3 C2 1_555 1_555
N4 C3 1_555 1_555
C1 H1 1_555 1_555
C2 N1 1_555 1_555
C3 N3 1_555 1_555
H2 C3 1_555 1_555
C4 P1 1_555 1_555
C5 N2 1_555 1_555
C6 N1 1_555 1_555
H3 C6 1_555 1_555
H4 C6 1_555 1_555
C7 C6 1_555 1_555
C8 C7 1_555 1_555
H5 C8 1_555 1_555
C9 C8 1_555 1_555
H6 C9 1_555 1_555
C10 C9 1_555 1_555
H7 C10 1_555 1_555
C11 C10 1_555 1_555
H8 C11 1_555 1_555
C12 C7 1_555 1_555
H9 C12 1_555 1_555
C13 H10 1_555 1_555
H11 C13 1_555 1_555
C14 C13 1_555 1_555
H12 C14 1_555 1_555
H13 C14 1_555 1_555
H14 C14 1_555 1_555
C15 O2 1_555 1_555
H15 C15 1_555 1_555
H16 C15 1_555 1_555
C16 C15 1_555 1_555
H17 C16 1_555 1_555
H18 C16 1_555 1_555
H19 C16 1_555 1_555
N4 C4 1_555 1_555
C2 C5 1_555 1_555
C4 C5 1_555 1_555
C11 C12 1_555 1_555

#END
