
#######################################################################
#
#                 Cambridge Crystallographic Data Centre
#                                CCDC 
#
#######################################################################
#
# If this CIF has been generated from an entry in the Cambridge 
# Structural Database, then it will include bibliographic, chemical, 
# crystal, experimental, refinement or atomic coordinate data resulting 
# from the CCDC's data processing and validation procedures.
#
#######################################################################

data_DIYXOZ
_chemical_formula_moiety         'C28 H24 O8 S1'
_chemical_name_systematic        
2-Acetyloxy-3,4-bis(benzoyloxy)-5-(benzoyloxymethyl)-tetrahydrothiophene
_symmetry_cell_setting           monoclinic
_symmetry_space_group_name_H-M   'P 21'
_symmetry_Int_Tables_number      4
_space_group_name_Hall           'P 2yb'
loop_
_symmetry_equiv_pos_site_id
_symmetry_equiv_pos_as_xyz
1 x,y,z
2 -x,1/2+y,-z
_cell_length_a                   11.4112(18)
_cell_length_b                   8.6807(14)
_cell_length_c                   13.502(2)
_cell_angle_alpha                90
_cell_angle_beta                 102.110(2)
_cell_angle_gamma                90
_cell_volume                     1307.71
_exptl_crystal_colour            colorless
_exptl_crystal_description       prismatic
_cell_formula_units_Z            2
loop_
_atom_site_label
_atom_site_type_symbol
_atom_site_fract_x
_atom_site_fract_y
_atom_site_fract_z
S1 S 0.59973(6) 0.34529(9) 0.08324(6)
O1 O 0.7444(2) 0.1045(3) 0.23368(16)
O2 O 0.6439(3) 0.1563(6) 0.3520(3)
O3 O 0.72116(14) -0.0091(2) -0.04048(14)
O4 O 0.91462(17) -0.0702(3) 0.01223(18)
O5 O 0.64284(15) 0.2570(2) -0.13447(13)
O6 O 0.77277(19) 0.1627(3) -0.22387(17)
O7 O 0.82065(16) 0.4513(2) 0.07818(15)
O8 O 0.7305(2) 0.6681(3) 0.11107(19)
C1 C 0.6248(2) 0.1403(3) 0.0672(2)
H1 H 0.5555 0.0987 0.0192
C2 C 0.7342(2) 0.1292(3) 0.0193(2)
H2 H 0.8074 0.1239 0.0722
C3 C 0.7379(2) 0.2694(3) -0.0465(2)
H3 H 0.8160 0.2802 -0.0650
C4 C 0.7098(2) 0.4072(3) 0.0129(2)
H4 H 0.6781 0.4918 -0.0330
C5 C 0.6394(3) 0.0507(4) 0.1643(3)
H5 H 0.5694 0.0645 0.1935
H6 H 0.6474 -0.0582 0.1509
C6 C 0.7349(4) 0.1608(5) 0.3224(3)
C7 C 0.8469(4) 0.2287(5) 0.3790(3)
C8 C 0.9459(4) 0.2460(6) 0.3383(3)
H7 H 0.9424 0.2157 0.2717
C9 C 1.0499(4) 0.3066(7) 0.3928(4)
H8 H 1.1168 0.3164 0.3640
C10 C 1.0546(7) 0.3534(8) 0.4918(6)
H9 H 1.1259 0.3909 0.5308
C11 C 0.9561(8) 0.3444(9) 0.5313(4)
H10 H 0.9579 0.3834 0.5958
C12 C 0.8521(6) 0.2779(7) 0.4773(4)
H11 H 0.7859 0.2663 0.5068
C13 C 0.8195(2) -0.0946(3) -0.0413(2)
C14 C 0.7937(2) -0.2190(3) -0.11766(19)
C15 C 0.8816(2) -0.3277(3) -0.1207(2)
H12 H 0.9543 -0.3224 -0.0743
C16 C 0.8623(3) -0.4435(4) -0.1916(2)
H13 H 0.9213 -0.5171 -0.1924
C17 C 0.7558(3) -0.4507(4) -0.2613(2)
H14 H 0.7438 -0.5275 -0.3104
C18 C 0.6668(3) -0.3447(4) -0.2585(2)
H15 H 0.5943 -0.3512 -0.3051
C19 C 0.6848(2) -0.2289(3) -0.1872(2)
H16 H 0.6244 -0.1576 -0.1853
C20 C 0.6717(3) 0.1911(3) -0.2175(2)
C21 C 0.5646(3) 0.1599(4) -0.2970(2)
C22 C 0.5800(4) 0.1025(6) -0.3885(2)
H17 H 0.6571 0.0863 -0.3989
C23 C 0.4831(5) 0.0689(8) -0.4644(3)
H18 H 0.4942 0.0291 -0.5258
C24 C 0.3698(5) 0.0948(9) -0.4487(3)
H19 H 0.3038 0.0766 -0.5009
C25 C 0.3528(4) 0.1468(7) -0.3574(3)
H20 H 0.2755 0.1601 -0.3467
C26 C 0.4498(3) 0.1797(5) -0.2811(3)
H21 H 0.4382 0.2152 -0.2189
C27 C 0.8188(3) 0.5886(4) 0.1245(2)
C28 C 0.9364(3) 0.6250(5) 0.1904(3)
H22 H 0.9405 0.7331 0.2056
H23 H 0.9993 0.5981 0.1562
H24 H 0.9458 0.5673 0.2522
loop_
_geom_bond_atom_site_label_1
_geom_bond_atom_site_label_2
_geom_bond_site_symmetry_1
_geom_bond_site_symmetry_2
S1 C1 1_555 1_555
O1 C5 1_555 1_555
O2 C6 1_555 1_555
O3 C2 1_555 1_555
O4 C13 1_555 1_555
O5 C3 1_555 1_555
O6 C20 1_555 1_555
O7 C4 1_555 1_555
O8 C27 1_555 1_555
C1 H1 1_555 1_555
C2 C1 1_555 1_555
H2 C2 1_555 1_555
C3 C2 1_555 1_555
H3 C3 1_555 1_555
C4 S1 1_555 1_555
H4 C4 1_555 1_555
C5 C1 1_555 1_555
H5 C5 1_555 1_555
H6 C5 1_555 1_555
C6 O1 1_555 1_555
C7 C6 1_555 1_555
C8 C7 1_555 1_555
H7 C8 1_555 1_555
C9 C8 1_555 1_555
H8 C9 1_555 1_555
C10 C9 1_555 1_555
H9 C10 1_555 1_555
C11 C10 1_555 1_555
H10 C11 1_555 1_555
C12 C7 1_555 1_555
H11 C12 1_555 1_555
C13 O3 1_555 1_555
C14 C13 1_555 1_555
C15 C14 1_555 1_555
H12 C15 1_555 1_555
C16 C15 1_555 1_555
H13 C16 1_555 1_555
C17 C16 1_555 1_555
H14 C17 1_555 1_555
C18 C17 1_555 1_555
H15 C18 1_555 1_555
C19 C14 1_555 1_555
H16 C19 1_555 1_555
C20 O5 1_555 1_555
C21 C20 1_555 1_555
C22 C21 1_555 1_555
H17 C22 1_555 1_555
C23 C22 1_555 1_555
H18 C23 1_555 1_555
C24 C23 1_555 1_555
H19 C24 1_555 1_555
C25 C24 1_555 1_555
H20 C25 1_555 1_555
C26 C21 1_555 1_555
H21 C26 1_555 1_555
C27 O7 1_555 1_555
C28 C27 1_555 1_555
H22 C28 1_555 1_555
H23 C28 1_555 1_555
H24 C28 1_555 1_555
C3 C4 1_555 1_555
C11 C12 1_555 1_555
C18 C19 1_555 1_555
C25 C26 1_555 1_555

#END
