
#######################################################################
#
#                 Cambridge Crystallographic Data Centre
#                                CCDC 
#
#######################################################################
#
# If this CIF has been generated from an entry in the Cambridge 
# Structural Database, then it will include bibliographic, chemical, 
# crystal, experimental, refinement or atomic coordinate data resulting 
# from the CCDC's data processing and validation procedures.
#
#######################################################################

data_DIYXUF
_chemical_formula_moiety         'C16 H18 O6'
_chemical_name_systematic        
'2,2-Dimethyl-5-oxiran-2-yltetrahydrofuro[2,3-d][1,3]dioxol-6-yl benzoate'
_symmetry_cell_setting           orthorhombic
_symmetry_space_group_name_H-M   'P 21 21 21'
_symmetry_Int_Tables_number      19
_space_group_name_Hall           'P 2ac 2ab'
loop_
_symmetry_equiv_pos_site_id
_symmetry_equiv_pos_as_xyz
1 x,y,z
2 1/2-x,-y,1/2+z
3 -x,1/2+y,1/2-z
4 1/2+x,1/2-y,-z
_cell_length_a                   5.7838(10)
_cell_length_b                   13.321(2)
_cell_length_c                   20.084(4)
_cell_angle_alpha                90
_cell_angle_beta                 90
_cell_angle_gamma                90
_cell_volume                     1547.39
_exptl_crystal_colour            colorless
_exptl_crystal_description       plate
_cell_formula_units_Z            4
loop_
_atom_site_label
_atom_site_type_symbol
_atom_site_fract_x
_atom_site_fract_y
_atom_site_fract_z
O1 O 0.3740(3) 0.01920(12) 0.93048(7)
O2 O 0.0407(3) -0.13950(14) 0.85938(9)
O3 O 0.5287(2) 0.04382(11) 0.76209(6)
O4 O 0.9072(3) 0.05737(14) 0.74161(8)
O5 O 0.6127(4) 0.20142(12) 0.83951(8)
O6 O 0.3581(4) 0.19208(14) 0.92479(10)
C1 C 0.3434(4) -0.00677(16) 0.86144(10)
H1 H 0.2205 0.0345 0.8420
C2 C 0.5744(4) 0.02101(15) 0.83055(9)
H2 H 0.6832 -0.0351 0.8341
C3 C 0.6594(4) 0.11068(18) 0.87157(10)
H3 H 0.8231 0.1043 0.8835
C4 C 0.5028(5) 0.10773(19) 0.93282(11)
H4 H 0.5928 0.1122 0.9740
C5 C 0.2813(4) -0.11442(18) 0.85609(11)
H5 H 0.3876 -0.1618 0.8775
C6 C 0.1625(5) -0.15081(19) 0.79757(12)
H6 H 0.1298 -0.1031 0.7623
H7 H 0.1969 -0.2184 0.7826
C7 C 0.7106(4) 0.06354(14) 0.72285(10)
C8 C 0.6369(4) 0.09302(13) 0.65497(9)
C9 C 0.4198(4) 0.13316(17) 0.64262(10)
H8 H 0.3135 0.1399 0.6771
C10 C 0.3625(5) 0.1631(2) 0.57893(12)
H9 H 0.2196 0.1927 0.5709
C11 C 0.5151(6) 0.1494(2) 0.52749(12)
H10 H 0.4732 0.1675 0.4844
C12 C 0.7304(6) 0.1088(2) 0.53936(11)
H11 H 0.8334 0.0996 0.5043
C13 C 0.7934(5) 0.08158(16) 0.60328(11)
H12 H 0.9400 0.0558 0.6115
C14 C 0.4590(5) 0.26014(19) 0.87860(12)
C15 C 0.5910(7) 0.3418(2) 0.91332(16)
H13 H 0.7098 0.3126 0.9405
H14 H 0.4875 0.3799 0.9409
H15 H 0.6601 0.3853 0.8808
C16 C 0.2720(7) 0.2994(3) 0.8337(2)
H16 H 0.1640 0.3381 0.8594
H17 H 0.1931 0.2441 0.8131
H18 H 0.3394 0.3411 0.7999
loop_
_geom_bond_atom_site_label_1
_geom_bond_atom_site_label_2
_geom_bond_site_symmetry_1
_geom_bond_site_symmetry_2
O1 C1 1_555 1_555
O2 C5 1_555 1_555
O3 C2 1_555 1_555
O4 C7 1_555 1_555
O5 C3 1_555 1_555
O6 C4 1_555 1_555
C1 H1 1_555 1_555
C2 C1 1_555 1_555
H2 C2 1_555 1_555
C3 C2 1_555 1_555
H3 C3 1_555 1_555
C4 O1 1_555 1_555
H4 C4 1_555 1_555
C5 C1 1_555 1_555
H5 C5 1_555 1_555
C6 O2 1_555 1_555
H6 C6 1_555 1_555
H7 C6 1_555 1_555
C7 O3 1_555 1_555
C8 C7 1_555 1_555
C9 C8 1_555 1_555
H8 C9 1_555 1_555
C10 C9 1_555 1_555
H9 C10 1_555 1_555
C11 C10 1_555 1_555
H10 C11 1_555 1_555
C12 C11 1_555 1_555
H11 C12 1_555 1_555
C13 C8 1_555 1_555
H12 C13 1_555 1_555
C14 O5 1_555 1_555
C15 C14 1_555 1_555
H13 C15 1_555 1_555
H14 C15 1_555 1_555
H15 C15 1_555 1_555
C16 C14 1_555 1_555
H16 C16 1_555 1_555
H17 C16 1_555 1_555
H18 C16 1_555 1_555
O6 C14 1_555 1_555
C3 C4 1_555 1_555
C5 C6 1_555 1_555
C12 C13 1_555 1_555

#END
