
#######################################################################
#
#                 Cambridge Crystallographic Data Centre
#                                CCDC 
#
#######################################################################
#
# If this CIF has been generated from an entry in the Cambridge 
# Structural Database, then it will include bibliographic, chemical, 
# crystal, experimental, refinement or atomic coordinate data resulting 
# from the CCDC's data processing and validation procedures.
#
#######################################################################

data_DIYYUG
_chemical_formula_moiety         'C18 H17 Cl1 O2'
_chemical_name_systematic        
2-(1-(4-Chlorophenyl)ethyl)-1-phenylbutane-1,3-dione
_symmetry_cell_setting           monoclinic
_symmetry_space_group_name_H-M   'P 21/a'
_symmetry_Int_Tables_number      14
_space_group_name_Hall           '-P 2yab'
loop_
_symmetry_equiv_pos_site_id
_symmetry_equiv_pos_as_xyz
1 x,y,z
2 1/2-x,1/2+y,-z
3 -x,-y,-z
4 1/2+x,1/2-y,z
_cell_length_a                   15.3369(7)
_cell_length_b                   5.5988(2)
_cell_length_c                   19.0061(11)
_cell_angle_alpha                90
_cell_angle_beta                 109.104(2)
_cell_angle_gamma                90
_cell_volume                     1542.14
_exptl_crystal_colour            colorless
_exptl_crystal_description       irregular
_cell_formula_units_Z            4
loop_
_atom_site_label
_atom_site_type_symbol
_atom_site_fract_x
_atom_site_fract_y
_atom_site_fract_z
Cl1 Cl 0.03342(5) 0.19448(16) -0.08471(4)
O1 O 0.41001(17) -0.3107(4) 0.33511(10)
O2 O 0.19208(17) -0.3675(4) 0.26077(13)
C1 C 0.36083(19) -0.1530(4) 0.34576(13)
C2 C 0.29019(17) -0.0291(4) 0.27979(13)
C3 C 0.19764(19) -0.1558(5) 0.26848(13)
C4 C 0.36583(16) -0.0916(4) 0.42320(12)
C5 C 0.32827(17) 0.1159(4) 0.44218(14)
C6 C 0.33696(18) 0.1598(5) 0.51561(14)
C7 C 0.38316(18) 0.0022(5) 0.57111(16)
C8 C 0.42110(18) -0.2017(5) 0.55277(15)
C9 C 0.41195(18) -0.2472(4) 0.47972(14)
C10 C 0.1175(3) -0.0109(8) 0.2709(2)
C11 C 0.32041(18) -0.0405(5) 0.21013(13)
C12 C 0.4044(2) 0.1233(7) 0.2210(2)
C13 C 0.24450(17) 0.0166(4) 0.13811(12)
C14 C 0.1942(2) 0.2281(4) 0.12706(15)
C15 C 0.1287(2) 0.2813(5) 0.05955(15)
C16 C 0.11355(18) 0.1232(5) 0.00136(13)
C17 C 0.16147(19) -0.0864(5) 0.01030(15)
C18 C 0.22669(19) -0.1387(4) 0.07849(14)
H1 H 0.4352(17) -0.381(5) 0.4658(14)
H2 H 0.4535(18) -0.309(4) 0.5919(14)
H3 H 0.3408(17) -0.205(4) 0.2078(13)
H4 H 0.3884(15) 0.027(4) 0.6192(13)
H5 H 0.0946(18) 0.416(5) 0.0553(14)
H6 H 0.2986(16) 0.225(4) 0.4046(13)
H7 H 0.2844(16) 0.135(5) 0.2929(13)
H8 H 0.2612(17) -0.286(4) 0.0880(13)
H9 H 0.3119(18) 0.301(5) 0.5268(14)
H10 H 0.1511(19) -0.199(5) -0.0296(16)
H11 H 0.2053(19) 0.343(5) 0.1655(15)
H12 H 0.456(2) 0.074(6) 0.270(2)
H13 H 0.424(2) 0.121(5) 0.1783(18)
H14 H 0.062(3) -0.097(6) 0.2663(18)
H15 H 0.387(2) 0.291(6) 0.2313(16)
H16 H 0.106(2) 0.108(6) 0.237(2)
H17 H 0.137(3) 0.070(7) 0.317(2)
loop_
_geom_bond_atom_site_label_1
_geom_bond_atom_site_label_2
_geom_bond_site_symmetry_1
_geom_bond_site_symmetry_2
Cl1 C16 1_555 1_555
O1 C1 1_555 1_555
O2 C3 1_555 1_555
C1 C2 1_555 1_555
C2 C3 1_555 1_555
C3 C10 1_555 1_555
C4 C1 1_555 1_555
C5 C4 1_555 1_555
C6 C5 1_555 1_555
C7 C6 1_555 1_555
C8 C7 1_555 1_555
C9 C4 1_555 1_555
C10 H14 1_555 1_555
C11 C2 1_555 1_555
C12 C11 1_555 1_555
C13 C11 1_555 1_555
C14 C13 1_555 1_555
C15 C14 1_555 1_555
C16 C15 1_555 1_555
C17 C16 1_555 1_555
C18 C13 1_555 1_555
H1 C9 1_555 1_555
H2 C8 1_555 1_555
H3 C11 1_555 1_555
H4 C7 1_555 1_555
H5 C15 1_555 1_555
H6 C5 1_555 1_555
H7 C2 1_555 1_555
H8 C18 1_555 1_555
H9 C6 1_555 1_555
H10 C17 1_555 1_555
H11 C14 1_555 1_555
H12 C12 1_555 1_555
H13 C12 1_555 1_555
H15 C12 1_555 1_555
H16 C10 1_555 1_555
H17 C10 1_555 1_555
C8 C9 1_555 1_555
C17 C18 1_555 1_555

#END
