
#######################################################################
#
#                 Cambridge Crystallographic Data Centre
#                                CCDC 
#
#######################################################################
#
# If this CIF has been generated from an entry in the Cambridge 
# Structural Database, then it will include bibliographic, chemical, 
# crystal, experimental, refinement or atomic coordinate data resulting 
# from the CCDC's data processing and validation procedures.
#
#######################################################################

data_DIZFAU
_chemical_formula_moiety         'C22 H28 Br2 Si3'
_chemical_name_systematic        
1,1-Dibromo-2,5-bis(trimethylsilyl)-3,4-diphenylsilole
_symmetry_cell_setting           monoclinic
_symmetry_space_group_name_H-M   'C 2/c'
_symmetry_Int_Tables_number      15
_space_group_name_Hall           '-C 2yn'
loop_
_symmetry_equiv_pos_site_id
_symmetry_equiv_pos_as_xyz
1 x,y,z
2 1/2+x,1/2+y,z
3 -x,y,1/2-z
4 1/2-x,1/2+y,1/2-z
5 -x,-y,-z
6 1/2-x,1/2-y,-z
7 x,-y,1/2+z
8 1/2+x,1/2-y,1/2+z
_cell_length_a                   20.3293(6)
_cell_length_b                   10.3868(3)
_cell_length_c                   11.5102(3)
_cell_angle_alpha                90
_cell_angle_beta                 98.168(2)
_cell_angle_gamma                90
_cell_volume                     2405.8
_exptl_crystal_colour            colorless
_exptl_crystal_description       irregular
_chemical_melting_point          137-138deg.C
_cell_formula_units_Z            4
loop_
_atom_site_label
_atom_site_type_symbol
_atom_site_fract_x
_atom_site_fract_y
_atom_site_fract_z
Br1 Br 0.472103(6) 0.352814(13) 0.096676(10)
Si1 Si 0.5000 0.48052(5) 0.2500
Si2 Si 0.655342(16) 0.56663(3) 0.21259(3)
C1 C 0.56723(6) 0.59726(12) 0.23642(10)
C2 C 0.53720(6) 0.71268(11) 0.24651(9)
C3 C 0.65503(7) 0.40919(14) 0.13450(13)
C4 C 0.71180(7) 0.55072(17) 0.35432(12)
C5 C 0.68701(6) 0.69738(13) 0.12351(11)
C6 C 0.57238(6) 0.83856(11) 0.25801(10)
C7 C 0.61410(6) 0.86549(12) 0.36223(11)
C8 C 0.64443(7) 0.98532(13) 0.37966(12)
C9 C 0.63370(7) 1.07815(13) 0.29290(12)
C10 C 0.59329(6) 1.05154(13) 0.18795(12)
C11 C 0.56237(6) 0.93285(12) 0.17088(11)
H1 H 0.6995(11) 0.388(2) 0.1241(18)
H2 H 0.6381(11) 0.346(2) 0.1787(19)
H3 H 0.6296(10) 0.4167(19) 0.0619(17)
H4 H 0.7141(10) 0.6289(19) 0.3943(17)
H5 H 0.7557(10) 0.5284(19) 0.3379(17)
H6 H 0.6955(10) 0.489(2) 0.4006(17)
H7 H 0.6565(9) 0.7179(19) 0.0576(16)
H8 H 0.6959(9) 0.776(2) 0.1715(16)
H9 H 0.7259(9) 0.6708(17) 0.0958(15)
H10 H 0.6220(8) 0.8038(16) 0.4214(14)
H11 H 0.6723(9) 1.0028(17) 0.4487(16)
H12 H 0.6542(9) 1.1585(17) 0.3058(15)
H13 H 0.5853(8) 1.1170(16) 0.1289(14)
H14 H 0.5346(8) 0.9161(16) 0.1024(14)
Br1B Br 0.527897(6) 0.352814(13) 0.403324(10)
Si2B Si 0.344658(16) 0.56663(3) 0.28741(3)
C1B C 0.43277(6) 0.59726(12) 0.26358(10)
C2B C 0.46280(6) 0.71268(11) 0.25349(9)
C3B C 0.34497(7) 0.40919(14) 0.36550(13)
C4B C 0.28820(7) 0.55072(17) 0.14568(12)
C5B C 0.31299(6) 0.69738(13) 0.37649(11)
C6B C 0.42762(6) 0.83856(11) 0.24199(10)
C7B C 0.38590(6) 0.86549(12) 0.13777(11)
C8B C 0.35557(7) 0.98532(13) 0.12034(12)
C9B C 0.36630(7) 1.07815(13) 0.20710(12)
C10B C 0.40671(6) 1.05154(13) 0.31205(12)
C11B C 0.43763(6) 0.93285(12) 0.32912(11)
H1B H 0.3005(11) 0.388(2) 0.3759(18)
H2B H 0.3619(11) 0.346(2) 0.3213(19)
H3B H 0.3704(10) 0.4167(19) 0.4381(17)
H4B H 0.2859(10) 0.6289(19) 0.1057(17)
H5B H 0.2443(10) 0.5284(19) 0.1621(17)
H6B H 0.3045(10) 0.489(2) 0.0994(17)
H7B H 0.3435(9) 0.7179(19) 0.4424(16)
H8B H 0.3041(9) 0.776(2) 0.3285(16)
H9B H 0.2741(9) 0.6708(17) 0.4042(15)
H10B H 0.3780(8) 0.8038(16) 0.0786(14)
H11B H 0.3277(9) 1.0028(17) 0.0513(16)
H12B H 0.3458(9) 1.1585(17) 0.1942(15)
H13B H 0.4147(8) 1.1170(16) 0.3711(14)
H14B H 0.4654(8) 0.9161(16) 0.3976(14)
loop_
_geom_bond_atom_site_label_1
_geom_bond_atom_site_label_2
_geom_bond_site_symmetry_1
_geom_bond_site_symmetry_2
Br1 Si1 1_555 1_555
Si1 C1 1_555 1_555
Si2 C1 1_555 1_555
C1 C2 1_555 1_555
C2 C6 1_555 1_555
C3 Si2 1_555 1_555
C4 Si2 1_555 1_555
C5 Si2 1_555 1_555
C6 C7 1_555 1_555
C7 C8 1_555 1_555
C8 C9 1_555 1_555
C9 C10 1_555 1_555
C10 C11 1_555 1_555
C11 C6 1_555 1_555
H1 C3 1_555 1_555
H2 C3 1_555 1_555
H3 C3 1_555 1_555
H4 C4 1_555 1_555
H5 C4 1_555 1_555
H6 C4 1_555 1_555
H7 C5 1_555 1_555
H8 C5 1_555 1_555
H9 C5 1_555 1_555
H10 C7 1_555 1_555
H11 C8 1_555 1_555
H12 C9 1_555 1_555
H13 C10 1_555 1_555
H14 C11 1_555 1_555
Br1B Si1 1_555 1_555
Si2B C1B 1_555 1_555
C1B Si1 1_555 1_555
C2B C2 1_555 1_555
C3B Si2B 1_555 1_555
C4B Si2B 1_555 1_555
C5B Si2B 1_555 1_555
C6B C2B 1_555 1_555
C7B C6B 1_555 1_555
C8B C7B 1_555 1_555
C9B C8B 1_555 1_555
C10B C9B 1_555 1_555
C11B C6B 1_555 1_555
H1B C3B 1_555 1_555
H2B C3B 1_555 1_555
H3B C3B 1_555 1_555
H4B C4B 1_555 1_555
H5B C4B 1_555 1_555
H6B C4B 1_555 1_555
H7B C5B 1_555 1_555
H8B C5B 1_555 1_555
H9B C5B 1_555 1_555
H10B C7B 1_555 1_555
H11B C8B 1_555 1_555
H12B C9B 1_555 1_555
H13B C10B 1_555 1_555
H14B C11B 1_555 1_555
C1B C2B 1_555 1_555
C10B C11B 1_555 1_555

#END
