
#######################################################################
#
#                 Cambridge Crystallographic Data Centre
#                                CCDC 
#
#######################################################################
#
# If this CIF has been generated from an entry in the Cambridge 
# Structural Database, then it will include bibliographic, chemical, 
# crystal, experimental, refinement or atomic coordinate data resulting 
# from the CCDC's data processing and validation procedures.
#
#######################################################################

data_DIZKAZ
_chemical_formula_moiety         'C25 H26 Cl1 N3 O4'
_chemical_name_systematic        
'(S)-(+)-3-[4-(4,4-dimethyl-4,5-dihydro-1,3-oxazol-2-yl)-3-methylisoxazol-5-yl]-2-phenylpropyl (4-chlorophenyl)carbamate'
_symmetry_cell_setting           monoclinic
_symmetry_space_group_name_H-M   'P 21'
_symmetry_Int_Tables_number      4
_space_group_name_Hall           'P 2yb'
loop_
_symmetry_equiv_pos_site_id
_symmetry_equiv_pos_as_xyz
1 x,y,z
2 -x,1/2+y,-z
_cell_length_a                   8.3725(6)
_cell_length_b                   20.3094(14)
_cell_length_c                   13.7369(9)
_cell_angle_alpha                90
_cell_angle_beta                 99.223(1)
_cell_angle_gamma                90
_cell_volume                     2305.63
_cell_formula_units_Z            4
loop_
_atom_site_label
_atom_site_type_symbol
_atom_site_fract_x
_atom_site_fract_y
_atom_site_fract_z
C1 C 0.4686(3) 0.9489(2) 0.6896(2)
C2 C 0.3450(3) 0.9038(2) 0.6657(2)
C3 C 0.2950(3) 0.8874(2) 0.5685(2)
C4 C 0.3706(3) 0.9141(2) 0.4943(2)
C5 C 0.4939(3) 0.9596(2) 0.5193(2)
C6 C 0.5413(3) 0.9771(2) 0.6171(2)
C7 C 0.3819(3) 0.9064(1) 0.3158(2)
C8 C 0.3609(3) 0.8806(2) 0.1467(2)
C9 C 0.2625(3) 0.8353(1) 0.0745(2)
C10 C 0.2624(8) 0.7653(3) 0.1070(4)
C11 C 0.4047(8) 0.7302(3) 0.1330(4)
C12 C 0.4095(8) 0.6652(3) 0.1654(4)
C13 C 0.2615(9) 0.6353(3) 0.1711(4)
C14 C 0.1163(9) 0.6700(3) 0.1477(4)
C15 C 0.1181(8) 0.7343(3) 0.1154(4)
C22 C 0.3035(4) 0.8453(2) -0.0307(2)
C23 C 0.4647(3) 0.8194(2) -0.0457(2)
C24 C 0.5171(3) 0.7622(2) -0.0816(2)
C25 C 0.6891(3) 0.7710(2) -0.0727(2)
C26 C 0.8118(3) 0.7252(2) -0.1011(2)
C27 C 0.4225(3) 0.7035(2) -0.1104(2)
C28 C 0.1928(3) 0.6460(2) -0.1300(2)
C29 C 0.3327(3) 0.6024(2) -0.1518(2)
C30 C 0.3460(4) 0.5389(2) -0.0919(3)
C31 C 0.3211(4) 0.5883(2) -0.2611(2)
Cl1 Cl 0.5371(1) 0.9674(1) 0.8128(1)
N1 N 0.3158(3) 0.8930(1) 0.3975(2)
N2 N 0.7341(3) 0.8277(1) -0.0345(2)
N3 N 0.4750(3) 0.6458(1) -0.1200(2)
O1 O 0.4927(2) 0.9435(1) 0.3103(2)
O2 O 0.3044(2) 0.8713(1) 0.2397(1)
O3 O 0.5910(2) 0.8594(1) -0.0162(2)
O4 O 0.2584(2) 0.7120(1) -0.1258(2)
H1 H 0.2955 0.8845 0.7155
H2 H 0.2088 0.8577 0.5519
H3 H 0.5452 0.9785 0.4700
H4 H 0.6237 1.0084 0.6340
H5 H 0.4761 0.8698 0.1530
H6 H 0.3454 0.9265 0.1249
H7 H 0.1493 0.8504 0.0707
H8 H 0.5031 0.7513 0.1284
H9 H 0.5079 0.6425 0.1827
H10 H 0.2593 0.5910 0.1911
H11 H 0.0176 0.6497 0.1538
H12 H 0.0201 0.7574 0.0990
H18 H 0.2198 0.8237 -0.0780
H19 H 0.2994 0.8925 -0.0457
H20 H 0.8325 0.6903 -0.0526
H21 H 0.9113 0.7490 -0.1040
H22 H 0.7717 0.7063 -0.1652
H23 H 0.0991 0.6421 -0.1824
H24 H 0.1601 0.6338 -0.0670
H25 H 0.4388 0.5139 -0.1051
H26 H 0.2484 0.5130 -0.1102
H27 H 0.3592 0.5494 -0.0222
H28 H 0.4176 0.5652 -0.2728
H29 H 0.3114 0.6294 -0.2974
H30 H 0.2268 0.5611 -0.2829
H31 H 0.2294 0.8685 0.3889
C32 C 0.0522(3) 0.0005(2) -0.1720(2)
C33 C -0.0138(3) -0.0263(2) -0.0960(2)
C34 C 0.0458(3) -0.0082(2) 0.0000(2)
C35 C 0.1702(3) 0.0375(2) 0.0189(2)
C36 C 0.2380(4) 0.0626(2) -0.0593(2)
C37 C 0.1785(4) 0.0441(2) -0.1549(2)
C38 C 0.1870(3) 0.0460(1) 0.2007(2)
C39 C 0.2566(3) 0.0687(2) 0.3715(2)
C40 C 0.1326(3) 0.1164(1) 0.4019(2)
C41 C 0.1657(3) 0.1874(1) 0.3781(2)
C42 C 0.3211(4) 0.2115(2) 0.3837(2)
C43 C 0.3489(4) 0.2764(2) 0.3603(2)
C44 C 0.2215(5) 0.3180(2) 0.3301(3)
C45 C 0.0667(4) 0.2954(2) 0.3255(2)
C46 C 0.0380(4) 0.2303(2) 0.3487(2)
C47 C 0.1286(3) 0.1060(2) 0.5127(2)
C48 C -0.0239(3) 0.1320(2) 0.5401(2)
C49 C -0.0719(3) 0.1900(1) 0.5759(2)
C50 C -0.2429(3) 0.1818(2) 0.5731(2)
C51 C -0.3619(3) 0.2289(2) 0.6036(2)
C52 C 0.0249(3) 0.2480(2) 0.6043(2)
C53 C 0.2570(3) 0.3045(2) 0.6273(2)
C54 C 0.1184(3) 0.3483(2) 0.6491(2)
C55 C 0.1060(4) 0.4119(2) 0.5900(3)
C56 C 0.1296(4) 0.3624(2) 0.7585(2)
Cl2 Cl -0.0257(1) -0.0199(1) -0.2943(1)
N4 N 0.2373(3) 0.0597(1) 0.1134(2)
N5 N -0.2918(3) 0.1243(1) 0.5400(2)
N6 N -0.0271(3) 0.3060(1) 0.6167(2)
O5 O 0.0792(2) 0.0097(1) 0.2139(2)
O6 O 0.2801(2) 0.0806(1) 0.2715(1)
O7 O -0.1519(2) 0.0915(1) 0.5183(2)
O8 O 0.1886(2) 0.2386(1) 0.6184(2)
H32 H -0.0991 -0.0567 -0.1091
H33 H 0.0021 -0.0269 0.0525
H34 H 0.3249 0.0924 -0.0471
H35 H 0.2243 0.0612 -0.2078
H36 H 0.3598 0.0738 0.4159
H37 H 0.2192 0.0233 0.3775
H38 H 0.0250 0.1043 0.3652
H39 H 0.4095 0.1834 0.4038
H40 H 0.4556 0.2921 0.3651
H41 H 0.2405 0.3617 0.3128
H42 H -0.0210 0.3240 0.3065
H43 H -0.0690 0.2151 0.3444
H44 H 0.1377 0.0589 0.5281
H45 H 0.2210 0.1285 0.5516
H46 H -0.4634 0.2064 0.6055
H47 H -0.3795 0.2648 0.5565
H48 H -0.3202 0.2463 0.6685
H49 H 0.2932 0.3179 0.5658
H50 H 0.3491 0.3066 0.6811
H51 H 0.0101 0.4359 0.6007
H52 H 0.0988 0.4017 0.5205
H53 H 0.2011 0.4387 0.6112
H54 H 0.1433 0.3214 0.7950
H55 H 0.0311 0.3840 0.7705
H56 H 0.2214 0.3909 0.7800
H57 H 0.3212 0.0853 0.1167
C16? C 0.3031(15) 0.7627(5) 0.1127(8)
C17? C 0.4590(15) 0.7400(5) 0.1429(7)
C18? C 0.4840(19) 0.6777(6) 0.1768(9)
C19? C 0.3460(20) 0.6376(6) 0.1781(9)
C20? C 0.1875(19) 0.6562(6) 0.1535(8)
C21? C 0.1717(16) 0.7220(5) 0.1174(8)
H13? H 0.5476 0.7680 0.1399
H14? H 0.5889 0.6616 0.1987
H15? H 0.3654 0.5936 0.1979
H16? H 0.0994 0.6288 0.1598
H17? H 0.0672 0.7385 0.0956
loop_
_geom_bond_atom_site_label_1
_geom_bond_atom_site_label_2
_geom_bond_site_symmetry_1
_geom_bond_site_symmetry_2
C1 C2 1_555 1_555
C2 C3 1_555 1_555
C3 C4 1_555 1_555
C4 C5 1_555 1_555
C5 C6 1_555 1_555
C6 C1 1_555 1_555
C7 N1 1_555 1_555
C8 C9 1_555 1_555
C9 C10 1_555 1_555
C10 C11 1_555 1_555
C11 C12 1_555 1_555
C12 C13 1_555 1_555
C13 C14 1_555 1_555
C14 C15 1_555 1_555
C15 C10 1_555 1_555
C22 C9 1_555 1_555
C23 C22 1_555 1_555
C24 C23 1_555 1_555
C25 C24 1_555 1_555
C26 C25 1_555 1_555
C27 C24 1_555 1_555
C28 C29 1_555 1_555
C29 C30 1_555 1_555
C30 H25 1_555 1_555
C31 C29 1_555 1_555
Cl1 C1 1_555 1_555
N1 C4 1_555 1_555
N2 C25 1_555 1_555
N3 C27 1_555 1_555
O1 C7 1_555 1_555
O2 C7 1_555 1_555
O3 C23 1_555 1_555
O4 C27 1_555 1_555
C32 C33 1_555 1_555
C33 C34 1_555 1_555
C34 C35 1_555 1_555
C35 C36 1_555 1_555
C36 C37 1_555 1_555
C37 C32 1_555 1_555
C38 N4 1_555 1_555
C39 C40 1_555 1_555
C40 C41 1_555 1_555
C41 C42 1_555 1_555
C42 C43 1_555 1_555
C43 C44 1_555 1_555
C44 C45 1_555 1_555
C45 C46 1_555 1_555
C46 C41 1_555 1_555
C47 C40 1_555 1_555
C48 C47 1_555 1_555
C49 C48 1_555 1_555
C50 C49 1_555 1_555
C51 C50 1_555 1_555
C52 C49 1_555 1_555
C53 C54 1_555 1_555
C54 C55 1_555 1_555
C55 H51 1_555 1_555
C56 C54 1_555 1_555
Cl2 C32 1_555 1_555
N4 C35 1_555 1_555
N5 C50 1_555 1_555
N6 C52 1_555 1_555
O5 C38 1_555 1_555
O6 C38 1_555 1_555
O7 C48 1_555 1_555
O8 C52 1_555 1_555
H1 C2 1_555 1_555
H2 C3 1_555 1_555
H3 C5 1_555 1_555
H4 C6 1_555 1_555
H5 C8 1_555 1_555
H6 C8 1_555 1_555
H7 C9 1_555 1_555
H8 C11 1_555 1_555
H9 C12 1_555 1_555
H10 C13 1_555 1_555
H11 C14 1_555 1_555
H12 C15 1_555 1_555
H18 C22 1_555 1_555
H19 C22 1_555 1_555
H20 C26 1_555 1_555
H21 C26 1_555 1_555
H22 C26 1_555 1_555
H23 C28 1_555 1_555
H24 C28 1_555 1_555
H26 C30 1_555 1_555
H27 C30 1_555 1_555
H28 C31 1_555 1_555
H29 C31 1_555 1_555
H30 C31 1_555 1_555
H31 N1 1_555 1_555
H32 C33 1_555 1_555
H33 C34 1_555 1_555
H34 C36 1_555 1_555
H35 C37 1_555 1_555
H36 C39 1_555 1_555
H37 C39 1_555 1_555
H38 C40 1_555 1_555
H39 C42 1_555 1_555
H40 C43 1_555 1_555
H41 C44 1_555 1_555
H42 C45 1_555 1_555
H43 C46 1_555 1_555
H44 C47 1_555 1_555
H45 C47 1_555 1_555
H46 C51 1_555 1_555
H47 C51 1_555 1_555
H48 C51 1_555 1_555
H49 C53 1_555 1_555
H50 C53 1_555 1_555
H52 C55 1_555 1_555
H53 C55 1_555 1_555
H54 C56 1_555 1_555
H55 C56 1_555 1_555
H56 C56 1_555 1_555
H57 N4 1_555 1_555
C8 O2 1_555 1_555
C28 O4 1_555 1_555
C29 N3 1_555 1_555
N2 O3 1_555 1_555
C39 O6 1_555 1_555
C53 O8 1_555 1_555
C54 N6 1_555 1_555
N5 O7 1_555 1_555

#END
