
#######################################################################
#
#                 Cambridge Crystallographic Data Centre
#                                CCDC 
#
#######################################################################
#
# If this CIF has been generated from an entry in the Cambridge 
# Structural Database, then it will include bibliographic, chemical, 
# crystal, experimental, refinement or atomic coordinate data resulting 
# from the CCDC's data processing and validation procedures.
#
#######################################################################

data_DIZLUU
_chemical_formula_moiety         'C30 H31 N1 O3'
_chemical_name_systematic        
'Methyl 12-(biphenyl-4-yl)-13-amino-7-oxodehydrodeisopropylabietate'
_symmetry_cell_setting           orthorhombic
_symmetry_space_group_name_H-M   'P 21 21 21'
_symmetry_Int_Tables_number      19
_space_group_name_Hall           'P 2ac 2ab'
loop_
_symmetry_equiv_pos_site_id
_symmetry_equiv_pos_as_xyz
1 x,y,z
2 1/2+x,1/2-y,-z
3 -x,1/2+y,1/2-z
4 1/2-x,-y,1/2+z
_cell_length_a                   10.8871(16)
_cell_length_b                   14.240(2)
_cell_length_c                   15.356(2)
_cell_angle_alpha                90
_cell_angle_beta                 90
_cell_angle_gamma                90
_cell_volume                     2380.68
_exptl_crystal_colour            yellow
_exptl_crystal_description       block
_cell_formula_units_Z            4
_exptl_crystal_recrystallization_method 'petroleum ether/ethyl acetate'
loop_
_atom_site_label
_atom_site_type_symbol
_atom_site_fract_x
_atom_site_fract_y
_atom_site_fract_z
O1 O 0.6188(3) 0.66406(19) 0.21218(17)
O2 O 0.5893(3) 0.91019(19) 0.37306(19)
O3 O 0.7120(3) 1.00940(19) 0.4434(2)
N1 N 0.4719(4) 0.3583(3) 0.3277(3)
H1 H 0.469(4) 0.355(3) 0.266(3)
H2 H 0.486(5) 0.300(4) 0.352(4)
C1 C 0.6595(3) 0.5008(2) 0.4797(2)
H3 H 0.6917 0.4974 0.5371
C2 C 0.5899(3) 0.4255(2) 0.4493(2)
C3 C 0.5432(4) 0.4291(3) 0.3634(3)
C4 C 0.5681(4) 0.5088(3) 0.3141(2)
H4 H 0.5368 0.5123 0.2565
C5 C 0.6368(3) 0.5830(2) 0.3457(2)
C6 C 0.6844(3) 0.5806(3) 0.4310(2)
C7 C 0.6599(3) 0.6631(2) 0.2867(2)
C8 C 0.7371(3) 0.7417(3) 0.3217(2)
H5 H 0.7142 0.8010 0.2924
H6 H 0.8247 0.7289 0.3091
C9 C 0.7193(3) 0.7523(3) 0.4202(2)
H7 H 0.6283 0.7533 0.4290
C10 C 0.7643(3) 0.6615(3) 0.4669(2)
C11 C 0.7650(3) 0.8472(3) 0.4553(2)
C12 C 0.7516(4) 0.8503(3) 0.5551(2)
H8 H 0.7931 0.9073 0.5776
H9 H 0.6635 0.8549 0.5702
C13 C 0.8061(4) 0.7644(3) 0.5992(3)
H10 H 0.7938 0.7692 0.6629
H11 H 0.8956 0.7622 0.5879
C14 C 0.7469(4) 0.6738(3) 0.5660(2)
H12 H 0.6580 0.6748 0.5795
H13 H 0.7837 0.6195 0.5965
C15 C 0.5694(4) 0.3432(3) 0.5070(2)
C16 C 0.6664(3) 0.3071(2) 0.5564(2)
H14 H 0.7449 0.3359 0.5527
C17 C 0.6505(3) 0.2306(3) 0.6104(2)
H15 H 0.7188 0.2071 0.6421
C18 C 0.5367(3) 0.1869(3) 0.6195(2)
C19 C 0.4386(4) 0.2249(3) 0.5723(3)
H16 H 0.3592 0.1982 0.5785
C20 C 0.4548(4) 0.3013(3) 0.5165(2)
H17 H 0.3867 0.3249 0.4846
C21 C 0.5215(4) 0.1025(3) 0.6752(2)
C22 C 0.6204(4) 0.0410(3) 0.6878(2)
H18 H 0.6972 0.0538 0.6611
C23 C 0.6070(5) -0.0385(3) 0.7391(3)
H19 H 0.6744 -0.0800 0.7467
C24 C 0.4959(5) -0.0579(3) 0.7791(3)
H20 H 0.4869 -0.1122 0.8144
C25 C 0.3988(5) 0.0024(3) 0.7671(3)
H21 H 0.3225 -0.0107 0.7945
C26 C 0.4100(4) 0.0821(3) 0.7158(2)
H22 H 0.3417 0.1229 0.7083
C27 C 0.8988(3) 0.6345(3) 0.4488(3)
H23 H 0.9175 0.5747 0.4775
H24 H 0.9533 0.6836 0.4714
H25 H 0.9112 0.6280 0.3859
C28 C 0.6796(4) 0.9229(3) 0.4185(3)
C29 C 0.6319(5) 1.0851(3) 0.4133(3)
H26 H 0.6273 1.0838 0.3495
H27 H 0.6653 1.1456 0.4323
H28 H 0.5496 1.0766 0.4377
C30 C 0.8978(3) 0.8722(3) 0.4287(3)
H29 H 0.9064 0.8666 0.3654
H30 H 0.9551 0.8290 0.4573
H31 H 0.9162 0.9368 0.4465
loop_
_geom_bond_atom_site_label_1
_geom_bond_atom_site_label_2
_geom_bond_site_symmetry_1
_geom_bond_site_symmetry_2
O1 C7 1_555 1_555
O2 C28 1_555 1_555
O3 C28 1_555 1_555
N1 H1 1_555 1_555
H2 N1 1_555 1_555
C1 H3 1_555 1_555
C2 C1 1_555 1_555
C3 N1 1_555 1_555
C4 C3 1_555 1_555
H4 C4 1_555 1_555
C5 C4 1_555 1_555
C6 C1 1_555 1_555
C7 C5 1_555 1_555
C8 C7 1_555 1_555
H5 C8 1_555 1_555
H6 C8 1_555 1_555
C9 C8 1_555 1_555
H7 C9 1_555 1_555
C10 C6 1_555 1_555
C11 C9 1_555 1_555
C12 C11 1_555 1_555
H8 C12 1_555 1_555
H9 C12 1_555 1_555
C13 C12 1_555 1_555
H10 C13 1_555 1_555
H11 C13 1_555 1_555
C14 C10 1_555 1_555
H12 C14 1_555 1_555
H13 C14 1_555 1_555
C15 C2 1_555 1_555
C16 C15 1_555 1_555
H14 C16 1_555 1_555
C17 C16 1_555 1_555
H15 C17 1_555 1_555
C18 C17 1_555 1_555
C19 C18 1_555 1_555
H16 C19 1_555 1_555
C20 C15 1_555 1_555
H17 C20 1_555 1_555
C21 C18 1_555 1_555
C22 C21 1_555 1_555
H18 C22 1_555 1_555
C23 C22 1_555 1_555
H19 C23 1_555 1_555
C24 C23 1_555 1_555
H20 C24 1_555 1_555
C25 C24 1_555 1_555
H21 C25 1_555 1_555
C26 C21 1_555 1_555
H22 C26 1_555 1_555
C27 C10 1_555 1_555
H23 C27 1_555 1_555
H24 C27 1_555 1_555
H25 C27 1_555 1_555
C28 C11 1_555 1_555
C29 O3 1_555 1_555
H26 C29 1_555 1_555
H27 C29 1_555 1_555
H28 C29 1_555 1_555
C30 C11 1_555 1_555
H29 C30 1_555 1_555
H30 C30 1_555 1_555
H31 C30 1_555 1_555
C2 C3 1_555 1_555
C5 C6 1_555 1_555
C9 C10 1_555 1_555
C13 C14 1_555 1_555
C19 C20 1_555 1_555
C25 C26 1_555 1_555

#END
