
#######################################################################
#
#                 Cambridge Crystallographic Data Centre
#                                CCDC 
#
#######################################################################
#
# If this CIF has been generated from an entry in the Cambridge 
# Structural Database, then it will include bibliographic, chemical, 
# crystal, experimental, refinement or atomic coordinate data resulting 
# from the CCDC's data processing and validation procedures.
#
#######################################################################

data_DIZMAB
_chemical_formula_moiety         'C28 H29 N1 O3'
_chemical_name_systematic        
'Methyl 12-(2-naphthyl)-13-amino-7-oxodehydrodeisopropylabietate'
_symmetry_cell_setting           orthorhombic
_symmetry_space_group_name_H-M   'P 21 21 21'
_symmetry_Int_Tables_number      19
_space_group_name_Hall           'P 2ac 2ab'
loop_
_symmetry_equiv_pos_site_id
_symmetry_equiv_pos_as_xyz
1 x,y,z
2 1/2+x,1/2-y,-z
3 -x,1/2+y,1/2-z
4 1/2-x,-y,1/2+z
_cell_length_a                   11.5134(16)
_cell_length_b                   13.3182(18)
_cell_length_c                   14.282(2)
_cell_angle_alpha                90
_cell_angle_beta                 90
_cell_angle_gamma                90
_cell_volume                     2189.97
_exptl_crystal_colour            brown-yellow
_exptl_crystal_description       block
_cell_formula_units_Z            4
_exptl_crystal_recrystallization_method 'petroleum ether/ethyl acetate'
loop_
_atom_site_label
_atom_site_type_symbol
_atom_site_fract_x
_atom_site_fract_y
_atom_site_fract_z
O1 O 0.83368(18) 0.39840(14) 0.80077(12)
O2 O 0.89703(16) 0.12255(13) 0.64466(13)
O3 O 0.78982(16) 0.00733(13) 0.57222(13)
N1 N 1.0244(3) 0.69966(19) 0.65854(18)
H1 H 1.0436 0.7001 0.7182
H2 H 1.0487 0.7479 0.6213
C1 C 0.9180(2) 0.54726(19) 0.68183(18)
H3 H 0.9392 0.5488 0.7461
C2 C 0.8492(2) 0.46854(18) 0.64924(17)
C3 C 0.8152(2) 0.46412(18) 0.55444(17)
C4 C 0.8493(2) 0.54367(18) 0.49770(17)
H4 H 0.8229 0.5449 0.4347
C5 C 0.9202(2) 0.62155(18) 0.52866(17)
C6 C 0.9563(2) 0.62325(19) 0.62341(18)
C7 C 0.8120(2) 0.39114(18) 0.71704(17)
C8 C 0.7461(2) 0.30363(19) 0.67920(16)
H5 H 0.6617 0.3168 0.6845
H6 H 0.7642 0.2432 0.7168
C9 C 0.7771(2) 0.28407(18) 0.57640(17)
H7 H 0.8639 0.2829 0.5751
C10 C 0.7434(2) 0.37620(18) 0.51582(16)
C11 C 0.7405(2) 0.17880(18) 0.54168(17)
C12 C 0.7712(2) 0.16771(19) 0.43705(17)
H8 H 0.8566 0.1628 0.4304
H9 H 0.7370 0.1046 0.4129
C13 C 0.7276(3) 0.2551(2) 0.37840(17)
H10 H 0.6417 0.2569 0.3807
H11 H 0.7511 0.2450 0.3124
C14 C 0.7758(2) 0.3549(2) 0.41341(17)
H12 H 0.7456 0.4098 0.3735
H13 H 0.8614 0.3543 0.4074
C15 C 0.9582(2) 0.70182(19) 0.46267(17)
C16 C 0.8804(2) 0.76513(19) 0.42081(17)
H14 H 0.7997 0.7555 0.4314
C17 C 0.9172(2) 0.84511(19) 0.36178(17)
C18 C 0.8384(3) 0.9161(2) 0.32418(18)
H15 H 0.7578 0.9104 0.3372
C19 C 0.8784(3) 0.9927(2) 0.26920(18)
H16 H 0.8252 1.0410 0.2456
C20 C 0.9963(3) 1.0010(2) 0.2473(2)
H17 H 1.0223 1.0535 0.2073
C21 C 1.0741(3) 0.9343(2) 0.28291(19)
H18 H 1.1541 0.9407 0.2678
C22 C 1.0370(2) 0.8551(2) 0.34234(17)
C23 C 1.1160(2) 0.7874(2) 0.38397(19)
H19 H 1.1966 0.7933 0.3708
C24 C 1.0783(2) 0.7135(2) 0.44275(19)
H20 H 1.1330 0.6694 0.4707
C25 C 0.6139(2) 0.4063(2) 0.51890(19)
H21 H 0.5890 0.4130 0.5842
H22 H 0.5673 0.3544 0.4880
H23 H 0.6033 0.4705 0.4865
C26 C 0.8170(2) 0.10234(19) 0.59315(18)
C27 C 0.8655(3) -0.0678(2) 0.6137(2)
H24 H 0.9435 -0.0618 0.5868
H25 H 0.8346 -0.1349 0.6008
H26 H 0.8695 -0.0573 0.6815
C28 C 0.6121(2) 0.1534(2) 0.55782(19)
H27 H 0.5928 0.1634 0.6240
H28 H 0.5979 0.0832 0.5407
H29 H 0.5635 0.1973 0.5191
loop_
_geom_bond_atom_site_label_1
_geom_bond_atom_site_label_2
_geom_bond_site_symmetry_1
_geom_bond_site_symmetry_2
O1 C7 1_555 1_555
O2 C26 1_555 1_555
O3 C26 1_555 1_555
N1 H1 1_555 1_555
H2 N1 1_555 1_555
C1 H3 1_555 1_555
C2 C1 1_555 1_555
C3 C2 1_555 1_555
C4 C3 1_555 1_555
H4 C4 1_555 1_555
C5 C4 1_555 1_555
C6 N1 1_555 1_555
C7 C2 1_555 1_555
C8 C7 1_555 1_555
H5 C8 1_555 1_555
H6 C8 1_555 1_555
C9 C8 1_555 1_555
H7 C9 1_555 1_555
C10 C3 1_555 1_555
C11 C9 1_555 1_555
C12 C11 1_555 1_555
H8 C12 1_555 1_555
H9 C12 1_555 1_555
C13 C12 1_555 1_555
H10 C13 1_555 1_555
H11 C13 1_555 1_555
C14 C10 1_555 1_555
H12 C14 1_555 1_555
H13 C14 1_555 1_555
C15 C5 1_555 1_555
C16 C15 1_555 1_555
H14 C16 1_555 1_555
C17 C16 1_555 1_555
C18 C17 1_555 1_555
H15 C18 1_555 1_555
C19 C18 1_555 1_555
H16 C19 1_555 1_555
C20 C19 1_555 1_555
H17 C20 1_555 1_555
C21 C20 1_555 1_555
H18 C21 1_555 1_555
C22 C17 1_555 1_555
C23 C22 1_555 1_555
H19 C23 1_555 1_555
C24 C15 1_555 1_555
H20 C24 1_555 1_555
C25 C10 1_555 1_555
H21 C25 1_555 1_555
H22 C25 1_555 1_555
H23 C25 1_555 1_555
C26 C11 1_555 1_555
C27 O3 1_555 1_555
H24 C27 1_555 1_555
H25 C27 1_555 1_555
H26 C27 1_555 1_555
C28 C11 1_555 1_555
H27 C28 1_555 1_555
H28 C28 1_555 1_555
H29 C28 1_555 1_555
C1 C6 1_555 1_555
C5 C6 1_555 1_555
C9 C10 1_555 1_555
C13 C14 1_555 1_555
C21 C22 1_555 1_555
C23 C24 1_555 1_555

#END
