
#######################################################################
#
#                 Cambridge Crystallographic Data Centre
#                                CCDC 
#
#######################################################################
#
# If this CIF has been generated from an entry in the Cambridge 
# Structural Database, then it will include bibliographic, chemical, 
# crystal, experimental, refinement or atomic coordinate data resulting 
# from the CCDC's data processing and validation procedures.
#
#######################################################################

data_DIZTAH
_chemical_formula_moiety         'C17 H24 N2 O3 2+,2(Cl1 1-),H2 O1'
_chemical_name_systematic        
'17-Methyl-4,5a-epoxy-3,14-dihydroxy-6-amino-morphinan dihydrochloride monohydrate'
_symmetry_cell_setting           monoclinic
_symmetry_space_group_name_H-M   'P 21'
_symmetry_Int_Tables_number      4
_space_group_name_Hall           'P 2yb'
loop_
_symmetry_equiv_pos_site_id
_symmetry_equiv_pos_as_xyz
1 x,y,z
2 -x,1/2+y,-z
_cell_length_a                   7.895(1)
_cell_length_b                   11.008(2)
_cell_length_c                   10.501(1)
_cell_angle_alpha                90
_cell_angle_beta                 95.50(1)
_cell_angle_gamma                90
_cell_volume                     908.421
_exptl_crystal_colour            colorless
_cell_formula_units_Z            2
loop_
_atom_site_label
_atom_site_type_symbol
_atom_site_fract_x
_atom_site_fract_y
_atom_site_fract_z
Cl1 Cl -0.1905(1) -0.9160 -0.14848(9)
Cl2 Cl -0.9723(1) -0.7606(1) -0.45619(9)
O1 O -0.1817(5) -0.4385(4) -0.7810(3)
H18 H -0.155(9) -0.382(9) -0.712(7)
H19 H -0.076(7) -0.438(7) -0.810(6)
O2 O -0.2519(3) -0.9373(2) -0.6865(2)
O3 O -0.1920(3) -0.6848(3) -0.7515(3)
O4 O -0.6662(3) -1.1936(2) -0.6159(2)
N1 N -0.1831(4) -1.0145(3) -0.4367(3)
N2 N -0.8407(4) -1.1328(3) -0.8416(3)
C1 C -0.6600(5) -0.7211(3) -0.8152(3)
C2 C -0.4988(5) -0.6683(4) -0.8044(3)
C3 C -0.3514(4) -0.7348(4) -0.7652(3)
C4 C -0.3737(4) -0.8569(3) -0.7395(3)
C5 C -0.3435(4) -1.0450(3) -0.6478(6)
C6 C -0.3562(4) -1.0441(3) -0.5030(3)
C7 C -0.4889(5) -0.9539(4) -0.5342(3)
C8 C -0.6678(4) -0.9898(4) -0.5225(3)
C9 C -0.8349(4) -1.0395(3) -0.7355(3)
C10 C -0.8505(4) -0.9073(3) -0.7858(3)
C11 C -0.6803(4) -0.8454(3) -0.7915(3)
C12 C -0.5326(4) -0.9091(3) -0.7590(3)
C13 C -0.5212(4) -1.0410(3) -0.7227(3)
C14 C -0.6720(4) -1.0660(3) -0.6460(3)
C15 C -0.5272(4) -1.1238(4) -0.8417(3)
C16 C -0.6975(5) -1.1151(4) -0.9237(3)
C17 C -1.0083(5) -1.1393(4) -0.9192(4)
H1 H -0.757(6) -0.685(6) -0.832(5)
H2 H -0.481(6) -0.593(6) -0.824(5)
H3 H -0.278(4) -1.119(4) -0.678(3)
H4 H -0.383(4) -1.126(4) -0.479(3)
H5 H -0.453(5) -0.874(5) -0.492(4)
H6 H -0.737(5) -0.913(5) -0.538(4)
H7 H -0.723(5) -1.052(5) -0.460(4)
H8 H -0.944(4) -1.062(4) -0.684(3)
H9 H -0.920(5) -0.860(5) -0.723(4)
H10 H -0.917(5) -0.910(4) -0.873(4)
H11 H -0.432(4) -1.102(4) -0.895(3)
H12 H -0.515(5) -1.205(5) -0.812(4)
H13 H -0.724(4) -1.036(4) -0.961(3)
H14 H -0.714(5) -1.176(5) -0.987(4)
H15 H -1.090(5) -1.153(5) -0.867(4)
H16 H -1.001(7) -1.190(6) -0.976(5)
H17 H -1.036(7) -1.079(7) -0.968(5)
H20 H -0.211(6) -0.608(7) -0.774(5)
H21 H -0.762(5) -1.203(5) -0.577(4)
H22 H -0.114(6) -1.073(5) -0.454(4)
H23 H -0.193(7) -0.991(6) -0.355(5)
H24 H -0.131(5) -0.941(5) -0.470(4)
H25 H -0.836(5) -1.213(5) -0.797(4)
loop_
_geom_bond_atom_site_label_1
_geom_bond_atom_site_label_2
_geom_bond_site_symmetry_1
_geom_bond_site_symmetry_2
O1 H18 1_555 1_555
O2 C4 1_555 1_555
O3 C3 1_555 1_555
O4 C14 1_555 1_555
N1 C6 1_555 1_555
N2 C9 1_555 1_555
C1 C2 1_555 1_555
C2 C3 1_555 1_555
C3 C4 1_555 1_555
C4 C12 1_555 1_555
C5 O2 1_555 1_555
C6 C5 1_555 1_555
C7 C6 1_555 1_555
C8 C7 1_555 1_555
C9 C10 1_555 1_555
C10 C11 1_555 1_555
C11 C1 1_555 1_555
C12 C11 1_555 1_555
C13 C5 1_555 1_555
C14 C8 1_555 1_555
C15 C13 1_555 1_555
C16 N2 1_555 1_555
C17 N2 1_555 1_555
H1 C1 1_555 1_555
H2 C2 1_555 1_555
H3 C5 1_555 1_555
H4 C6 1_555 1_555
H5 C7 1_555 1_555
H6 C8 1_555 1_555
H7 C8 1_555 1_555
H8 C9 1_555 1_555
H9 C10 1_555 1_555
H10 C10 1_555 1_555
H11 C15 1_555 1_555
H12 C15 1_555 1_555
H13 C16 1_555 1_555
H14 C16 1_555 1_555
H15 C17 1_555 1_555
H16 C17 1_555 1_555
H17 C17 1_555 1_555
H19 O1 1_555 1_555
H20 O3 1_555 1_555
H21 O4 1_555 1_555
H22 N1 1_555 1_555
H23 N1 1_555 1_555
H24 N1 1_555 1_555
H25 N2 1_555 1_555
C9 C14 1_555 1_555
C12 C13 1_555 1_555
C13 C14 1_555 1_555
C15 C16 1_555 1_555

#END
