
#######################################################################
#
#                 Cambridge Crystallographic Data Centre
#                                CCDC 
#
#######################################################################
#
# If this CIF has been generated from an entry in the Cambridge 
# Structural Database, then it will include bibliographic, chemical, 
# crystal, experimental, refinement or atomic coordinate data resulting 
# from the CCDC's data processing and validation procedures.
#
#######################################################################

data_DIZXAN
_chemical_formula_moiety         'C15 H18 O4'
_chemical_name_systematic        
'4,4-dimethyl-1-oxo-1-phenylpent-2-en-2-yl methyl carbonate'
_symmetry_cell_setting           monoclinic
_symmetry_space_group_name_H-M   'C 2/c'
_symmetry_Int_Tables_number      15
_space_group_name_Hall           '-C 2yn'
loop_
_symmetry_equiv_pos_site_id
_symmetry_equiv_pos_as_xyz
1 x,y,z
2 -x,y,1/2-z
3 1/2+x,1/2+y,z
4 1/2-x,1/2+y,1/2-z
5 -x,-y,-z
6 x,-y,1/2+z
7 1/2-x,1/2-y,-z
8 1/2+x,1/2-y,1/2+z
_cell_length_a                   23.655(3)
_cell_length_b                   9.7505(10)
_cell_length_c                   15.4692(16)
_cell_angle_alpha                90
_cell_angle_beta                 126.057(2)
_cell_angle_gamma                90
_cell_volume                     2884.44
_exptl_crystal_colour            colorless
_exptl_crystal_description       prismatic
_cell_formula_units_Z            8
loop_
_atom_site_label
_atom_site_type_symbol
_atom_site_fract_x
_atom_site_fract_y
_atom_site_fract_z
O1 O 0.09441(6) 0.69475(11) 0.16259(8)
O2 O 0.15145(5) 0.52414(9) 0.33128(8)
O3 O 0.24425(6) 0.64218(14) 0.36624(11)
O4 O 0.23271(7) 0.41531(12) 0.33883(11)
C1 C 0.10175(7) 0.74091(14) 0.24148(10)
C2 C 0.12069(7) 0.64741(12) 0.33056(11)
C3 C 0.10087(7) 0.66276(13) 0.39391(10)
H1 H 0.0786 0.7453 0.3861
C4 C 0.10879(7) 0.56665(14) 0.47721(10)
C5 C 0.09627(10) 0.64847(17) 0.54864(13)
H2 H 0.1307 0.7199 0.5842
H3 H 0.0999 0.5886 0.6009
H4 H 0.0504 0.6884 0.5057
C6 C 0.05341(9) 0.45444(17) 0.41989(13)
H5 H 0.0078 0.4955 0.3768
H6 H 0.0564 0.3948 0.4718
H7 H 0.0612 0.4025 0.3751
C7 C 0.18147(9) 0.5032(2) 0.54780(14)
H8 H 0.1884 0.4432 0.5057
H9 H 0.1857 0.4519 0.6043
H10 H 0.2160 0.5746 0.5779
C8 C 0.09207(7) 0.88983(13) 0.24921(10)
C9 C 0.04308(9) 0.96106(16) 0.15617(12)
H11 H 0.0140 0.9135 0.0923
C10 C 0.03724(10) 1.10072(18) 0.15779(15)
H12 H 0.0031 1.1471 0.0958
C11 C 0.08165(11) 1.17200(17) 0.25070(16)
H13 H 0.0789 1.2671 0.2511
C12 C 0.13026(10) 1.10309(17) 0.34334(15)
H14 H 0.1602 1.1519 0.4063
C13 C 0.13496(8) 0.96172(14) 0.34356(12)
H15 H 0.1668 0.9153 0.4069
C14 C 0.21350(8) 0.53796(16) 0.34698(12)
C15 C 0.29834(12) 0.4095(3) 0.3512(2)
H16 H 0.2974 0.4742 0.3035
H17 H 0.3050 0.3187 0.3346
H18 H 0.3361 0.4317 0.4236
loop_
_geom_bond_atom_site_label_1
_geom_bond_atom_site_label_2
_geom_bond_site_symmetry_1
_geom_bond_site_symmetry_2
O1 C1 1_555 1_555
O2 C2 1_555 1_555
O3 C14 1_555 1_555
O4 C14 1_555 1_555
C1 C2 1_555 1_555
C2 C3 1_555 1_555
C3 H1 1_555 1_555
C4 C3 1_555 1_555
C5 C4 1_555 1_555
H2 C5 1_555 1_555
H3 C5 1_555 1_555
H4 C5 1_555 1_555
C6 C4 1_555 1_555
H5 C6 1_555 1_555
H6 C6 1_555 1_555
H7 C6 1_555 1_555
C7 C4 1_555 1_555
H8 C7 1_555 1_555
H9 C7 1_555 1_555
H10 C7 1_555 1_555
C8 C1 1_555 1_555
C9 C8 1_555 1_555
H11 C9 1_555 1_555
C10 C9 1_555 1_555
H12 C10 1_555 1_555
C11 C10 1_555 1_555
H13 C11 1_555 1_555
C12 C11 1_555 1_555
H14 C12 1_555 1_555
C13 C8 1_555 1_555
H15 C13 1_555 1_555
C14 O2 1_555 1_555
C15 O4 1_555 1_555
H16 C15 1_555 1_555
H17 C15 1_555 1_555
H18 C15 1_555 1_555
C12 C13 1_555 1_555

#END
