
#######################################################################
#
#                 Cambridge Crystallographic Data Centre
#                                CCDC 
#
#######################################################################
#
# If this CIF has been generated from an entry in the Cambridge 
# Structural Database, then it will include bibliographic, chemical, 
# crystal, experimental, refinement or atomic coordinate data resulting 
# from the CCDC's data processing and validation procedures.
#
#######################################################################

data_DIZXIV
_chemical_formula_moiety         'C20 H18 O3'
_chemical_name_systematic        
3-benzoyl-5-hydroxy-2,4-dimethyl-5-phenylcyclopent-2-en-1-one
_symmetry_cell_setting           monoclinic
_symmetry_space_group_name_H-M   'P 21/c'
_symmetry_Int_Tables_number      14
_space_group_name_Hall           '-P 2ybc'
loop_
_symmetry_equiv_pos_site_id
_symmetry_equiv_pos_as_xyz
1 x,y,z
2 -x,1/2+y,1/2-z
3 -x,-y,-z
4 x,1/2-y,1/2+z
_cell_length_a                   15.191(2)
_cell_length_b                   7.0358(10)
_cell_length_c                   16.337(2)
_cell_angle_alpha                90
_cell_angle_beta                 115.321(3)
_cell_angle_gamma                90
_cell_volume                     1578.36
_exptl_crystal_colour            colorless
_exptl_crystal_description       prismatic
_cell_formula_units_Z            4
loop_
_atom_site_label
_atom_site_type_symbol
_atom_site_fract_x
_atom_site_fract_y
_atom_site_fract_z
O1 O 0.03017(8) 0.7618(2) 0.05487(8)
O2 O 0.16100(9) 1.02695(18) 0.03431(9)
H1 H 0.1022 1.0445 0.0154
O3 O 0.40558(9) 0.4407(2) 0.17578(9)
C1 C 0.11453(11) 0.7216(2) 0.07482(10)
C2 C 0.18025(11) 0.8307(2) 0.04134(11)
C3 C 0.28350(11) 0.7867(2) 0.11580(11)
H2 H 0.3275 0.7591 0.0875
C4 C 0.26684(11) 0.6078(2) 0.15847(10)
C5 C 0.17283(11) 0.5680(2) 0.13537(10)
C6 C 0.12752(13) 0.4033(3) 0.15949(13)
H3 H 0.1628 0.2896 0.1602
H4 H 0.0611 0.3904 0.1156
H5 H 0.1293 0.4232 0.2183
C7 C 0.32665(13) 0.9445(3) 0.18553(13)
H6 H 0.2820 0.9760 0.2109
H7 H 0.3381 1.0548 0.1568
H8 H 0.3871 0.9022 0.2328
C8 C 0.35348(11) 0.4860(2) 0.21212(11)
C9 C 0.37479(11) 0.4240(2) 0.30567(11)
C10 C 0.44628(12) 0.2866(3) 0.34580(12)
H9 H 0.4790 0.2358 0.3140
C11 C 0.46863(14) 0.2256(3) 0.43255(13)
H10 H 0.5168 0.1344 0.4594
C12 C 0.41981(15) 0.2992(3) 0.47962(13)
H11 H 0.4346 0.2565 0.5379
C13 C 0.34950(14) 0.4354(3) 0.44071(12)
H12 H 0.3169 0.4848 0.4729
C14 C 0.32681(12) 0.4998(3) 0.35398(11)
H13 H 0.2797 0.5932 0.3281
C15 C 0.16286(11) 0.7410(2) -0.05021(10)
C16 C 0.20662(16) 0.5728(3) -0.05665(12)
H14 H 0.2499 0.5127 -0.0041
C17 C 0.18717(17) 0.4931(3) -0.13955(13)
H15 H 0.2179 0.3807 -0.1425
C18 C 0.12254(14) 0.5787(3) -0.21802(12)
H16 H 0.1096 0.5249 -0.2740
C19 C 0.07769(13) 0.7431(3) -0.21293(12)
H17 H 0.0331 0.8003 -0.2657
C20 C 0.09812(12) 0.8254(3) -0.12970(11)
H18 H 0.0679 0.9389 -0.1272
loop_
_geom_bond_atom_site_label_1
_geom_bond_atom_site_label_2
_geom_bond_site_symmetry_1
_geom_bond_site_symmetry_2
O1 C1 1_555 1_555
O2 H1 1_555 1_555
O3 C8 1_555 1_555
C1 C2 1_555 1_555
C2 O2 1_555 1_555
C3 C2 1_555 1_555
H2 C3 1_555 1_555
C4 C3 1_555 1_555
C5 C1 1_555 1_555
C6 C5 1_555 1_555
H3 C6 1_555 1_555
H4 C6 1_555 1_555
H5 C6 1_555 1_555
C7 C3 1_555 1_555
H6 C7 1_555 1_555
H7 C7 1_555 1_555
H8 C7 1_555 1_555
C8 C4 1_555 1_555
C9 C8 1_555 1_555
C10 C9 1_555 1_555
H9 C10 1_555 1_555
C11 C10 1_555 1_555
H10 C11 1_555 1_555
C12 C11 1_555 1_555
H11 C12 1_555 1_555
C13 C12 1_555 1_555
H12 C13 1_555 1_555
C14 C9 1_555 1_555
H13 C14 1_555 1_555
C15 C2 1_555 1_555
C16 C15 1_555 1_555
H14 C16 1_555 1_555
C17 C16 1_555 1_555
H15 C17 1_555 1_555
C18 C17 1_555 1_555
H16 C18 1_555 1_555
C19 C18 1_555 1_555
H17 C19 1_555 1_555
C20 C15 1_555 1_555
H18 C20 1_555 1_555
C4 C5 1_555 1_555
C13 C14 1_555 1_555
C19 C20 1_555 1_555

#END
