
#######################################################################
#
#                 Cambridge Crystallographic Data Centre
#                                CCDC 
#
#######################################################################
#
# If this CIF has been generated from an entry in the Cambridge 
# Structural Database, then it will include bibliographic, chemical, 
# crystal, experimental, refinement or atomic coordinate data resulting 
# from the CCDC's data processing and validation procedures.
#
#######################################################################

data_DIZYUI
_chemical_formula_moiety         'C20 H18 N2 O2'
_chemical_name_systematic        
(2,5-diphenyl-1,3-oxazol-4-yl)(pyrrolidin-1-yl)methanone
_symmetry_cell_setting           triclinic
_symmetry_space_group_name_H-M   'P -1'
_symmetry_Int_Tables_number      2
_space_group_name_Hall           '-P 1'
loop_
_symmetry_equiv_pos_site_id
_symmetry_equiv_pos_as_xyz
1 x,y,z
2 -x,-y,-z
_cell_length_a                   7.7404(15)
_cell_length_b                   8.6624(17)
_cell_length_c                   13.340(3)
_cell_angle_alpha                81.46(3)
_cell_angle_beta                 89.70(3)
_cell_angle_gamma                70.47(3)
_cell_volume                     832.698
_exptl_crystal_colour            colorless
_chemical_melting_point          '380-381 K'
_cell_formula_units_Z            2
_exptl_crystal_recrystallization_method dichloromethane
loop_
_atom_site_label
_atom_site_type_symbol
_atom_site_fract_x
_atom_site_fract_y
_atom_site_fract_z
O1 O 0.3577(11) 0.8624(10) 0.0933(6)
O2 O 0.2374(12) 0.8228(10) 0.4050(6)
N1 N 0.1966(12) 1.0719(10) 0.1687(6)
N2 N 0.2461(13) 1.0797(12) 0.3886(7)
C1 C 0.237(2) 1.0404(16) -0.1052(8)
H1 H 0.3229 0.9341 -0.0975
C2 C 0.171(3) 1.123(2) -0.2026(10)
H2 H 0.2149 1.0754 -0.2598
C3 C 0.040(2) 1.279(2) -0.2106(11)
H3 H -0.0088 1.3344 -0.2749
C4 C -0.023(2) 1.356(2) -0.1291(12)
H4 H -0.1092 1.4625 -0.1383
C5 C 0.0445(19) 1.273(2) -0.0303(10)
H5 H 0.0041 1.3228 0.0268
C6 C 0.1777(18) 1.1103(16) -0.0220(9)
C7 C 0.2422(13) 1.0201(17) 0.0824(7)
C8 C 0.2885(15) 0.9417(13) 0.2413(7)
C9 C 0.3869(18) 0.8029(15) 0.1998(7)
C10 C 0.5136(12) 0.6314(10) 0.2205(8)
C11 C 0.5588(16) 0.5678(14) 0.3208(11)
H6 H 0.5044 0.6308 0.3705
C12 C 0.679(2) 0.418(2) 0.3474(11)
H7 H 0.7112 0.3782 0.4158
C13 C 0.7568(19) 0.3192(17) 0.2770(14)
H8 H 0.8437 0.2148 0.2969
C14 C 0.704(2) 0.3767(17) 0.1756(14)
H9 H 0.7523 0.3078 0.1277
C15 C 0.5806(19) 0.5373(17) 0.1436(9)
H10 H 0.5456 0.5782 0.0756
C16 C 0.2563(14) 0.9431(15) 0.3510(9)
C17 C 0.2108(19) 1.0871(18) 0.4961(9)
H11 H 0.3120 1.0086 0.5394
H12 H 0.0986 1.0651 0.5137
C18 C 0.193(2) 1.263(2) 0.5046(10)
H13 H 0.0645 1.3300 0.5048
H14 H 0.2527 1.2660 0.5678
C19 C 0.278(2) 1.331(2) 0.4194(11)
H15 H 0.4022 1.3217 0.4386
H16 H 0.2080 1.4466 0.3967
C20 C 0.279(2) 1.2293(16) 0.3367(9)
H17 H 0.1835 1.2902 0.2849
H18 H 0.3969 1.1999 0.3052
loop_
_geom_bond_atom_site_label_1
_geom_bond_atom_site_label_2
_geom_bond_site_symmetry_1
_geom_bond_site_symmetry_2
O1 C7 1_555 1_555
O2 C16 1_555 1_555
N1 C7 1_555 1_555
N2 C16 1_555 1_555
C1 H1 1_555 1_555
C2 C1 1_555 1_555
H2 C2 1_555 1_555
C3 C2 1_555 1_555
H3 C3 1_555 1_555
C4 C3 1_555 1_555
H4 C4 1_555 1_555
C5 C4 1_555 1_555
H5 C5 1_555 1_555
C6 C1 1_555 1_555
C7 C6 1_555 1_555
C8 N1 1_555 1_555
C9 O1 1_555 1_555
C10 C9 1_555 1_555
C11 C10 1_555 1_555
H6 C11 1_555 1_555
C12 C11 1_555 1_555
H7 C12 1_555 1_555
C13 C12 1_555 1_555
H8 C13 1_555 1_555
C14 C13 1_555 1_555
H9 C14 1_555 1_555
C15 C10 1_555 1_555
H10 C15 1_555 1_555
C16 C8 1_555 1_555
C17 N2 1_555 1_555
H11 C17 1_555 1_555
H12 C17 1_555 1_555
C18 C17 1_555 1_555
H13 C18 1_555 1_555
H14 C18 1_555 1_555
C19 C18 1_555 1_555
H15 C19 1_555 1_555
H16 C19 1_555 1_555
C20 N2 1_555 1_555
H17 C20 1_555 1_555
H18 C20 1_555 1_555
C5 C6 1_555 1_555
C8 C9 1_555 1_555
C14 C15 1_555 1_555
C19 C20 1_555 1_555

#END
