
#######################################################################
#
#                 Cambridge Crystallographic Data Centre
#                                CCDC 
#
#######################################################################
#
# If this CIF has been generated from an entry in the Cambridge 
# Structural Database, then it will include bibliographic, chemical, 
# crystal, experimental, refinement or atomic coordinate data resulting 
# from the CCDC's data processing and validation procedures.
#
#######################################################################

data_DIZZUJ
_chemical_formula_moiety         'C14 H4 F12'
_chemical_name_systematic        1,3,5,7-tetrakis(trifluoromethyl)azulene
_symmetry_cell_setting           triclinic
_symmetry_space_group_name_H-M   'P -1'
_symmetry_Int_Tables_number      2
_space_group_name_Hall           '-P 1'
loop_
_symmetry_equiv_pos_site_id
_symmetry_equiv_pos_as_xyz
1 x,y,z
2 -x,-y,-z
_cell_length_a                   8.9064(4)
_cell_length_b                   9.5245(4)
_cell_length_c                   13.4137(6)
_cell_angle_alpha                105.240(2)
_cell_angle_beta                 101.204(2)
_cell_angle_gamma                101.091(2)
_cell_volume                     1040.7
_exptl_crystal_colour            purple
_exptl_crystal_description       plate
_cell_formula_units_Z            3
_exptl_crystal_recrystallization_method Dichloromethane
loop_
_atom_site_label
_atom_site_type_symbol
_atom_site_fract_x
_atom_site_fract_y
_atom_site_fract_z
F1 F 0.66696(18) 0.19899(15) -0.08628(11)
F2 F 0.5250(2) 0.3527(2) -0.10792(14)
F3 F 0.73070(19) 0.42037(16) 0.02275(12)
F4 F 0.05356(17) 0.2739(2) -0.05454(11)
F5 F -0.03523(16) 0.14816(18) 0.04133(14)
F6 F 0.07462(19) 0.38230(19) 0.10983(13)
F7 F 0.14349(15) -0.07007(15) 0.27888(10)
F8 F 0.21640(15) 0.15479(15) 0.38822(11)
F9 F 0.31592(16) -0.01815(17) 0.42852(11)
F10 F 0.87116(16) 0.06671(19) 0.36399(12)
F11 F 0.90554(14) 0.23008(14) 0.28111(11)
F12 F 0.83332(15) -0.00454(15) 0.19345(12)
C1 C 0.5095(2) 0.2504(2) 0.03430(16)
C2 C 0.3542(2) 0.2617(2) 0.01864(16)
H1 H 0.3186 0.3002 -0.0377
C3 C 0.2433(2) 0.2247(2) 0.07385(15)
C4 C 0.2601(2) 0.1656(2) 0.16041(16)
H2 H 0.1691 0.1475 0.1868
C5 C 0.3913(2) 0.1307(2) 0.21167(16)
C6 C 0.3997(2) 0.0730(2) 0.29730(15)
C7 C 0.5523(2) 0.0540(2) 0.32920(16)
H3 H 0.5880 0.0158 0.3856
C8 C 0.6431(2) 0.1008(2) 0.26403(16)
C9 C 0.5500(2) 0.1476(2) 0.18898(16)
C10 C 0.5977(2) 0.1994(2) 0.11061(16)
H4 H 0.7036 0.2010 0.1074
C11 C 0.6054(2) 0.3047(2) -0.03619(17)
C12 C 0.0841(2) 0.2569(2) 0.04131(16)
C13 C 0.2700(2) 0.0352(2) 0.34823(16)
C14 C 0.8117(2) 0.0983(2) 0.27638(16)
C15? C 0.3270(2) 0.5874(2) 0.38377(16)
C16? C -0.2268(2) 0.6399(2) 0.31109(16)
F13? F 0.3368(2) 0.6444(2) 0.30532(13)
F14? F 0.36512(18) 0.45625(16) 0.35695(13)
F15? F 0.44190(16) 0.67689(18) 0.46861(11)
F16? F -0.27271(18) 0.74856(16) 0.37318(11)
F17? F -0.35646(15) 0.52472(15) 0.26484(11)
F18? F -0.1884(2) 0.6888(2) 0.23326(12)
C17? C 0.0530(5) 0.6234(5) 0.3292(4)
H5? H 0.0697 0.6634 0.2732
C18? C 0.1676(5) 0.4673(5) 0.5424(4)
H6? H 0.2747 0.4659 0.5450
C19? C 0.0960(5) 0.5246(4) 0.4665(3)
C20? C -0.1848(5) 0.5014(5) 0.4958(4)
H7? H -0.2845 0.5197 0.4716
C21? C -0.0700(5) 0.5407(4) 0.4449(3)
C22? C -0.0879(6) 0.6013(6) 0.3606(4)
C23? C 0.1667(15) 0.5774(14) 0.3931(8)
C24? C -0.0464(6) 0.3990(5) 0.6320(4)
H8? H -0.0653 0.3584 0.6873
C25? C 0.1040(6) 0.4110(5) 0.6159(4)
C26? C -0.1709(13) 0.4378(13) 0.5788(7)
loop_
_geom_bond_atom_site_label_1
_geom_bond_atom_site_label_2
_geom_bond_site_symmetry_1
_geom_bond_site_symmetry_2
F1 C11 1_555 1_555
F2 C11 1_555 1_555
F3 C11 1_555 1_555
F4 C12 1_555 1_555
F5 C12 1_555 1_555
F6 C12 1_555 1_555
F7 C13 1_555 1_555
F8 C13 1_555 1_555
F9 C13 1_555 1_555
F10 C14 1_555 1_555
F11 C14 1_555 1_555
F12 C14 1_555 1_555
C1 C2 1_555 1_555
C2 H1 1_555 1_555
C3 C2 1_555 1_555
C4 C3 1_555 1_555
H2 C4 1_555 1_555
C5 C4 1_555 1_555
C6 C5 1_555 1_555
C7 C6 1_555 1_555
H3 C7 1_555 1_555
C8 C7 1_555 1_555
C9 C5 1_555 1_555
C10 C1 1_555 1_555
H4 C10 1_555 1_555
C11 C1 1_555 1_555
C12 C3 1_555 1_555
C13 C6 1_555 1_555
C14 C8 1_555 1_555
C8 C9 1_555 1_555
C9 C10 1_555 1_555

#END
