
#######################################################################
#
#                 Cambridge Crystallographic Data Centre
#                                CCDC 
#
#######################################################################
#
# If this CIF has been generated from an entry in the Cambridge 
# Structural Database, then it will include bibliographic, chemical, 
# crystal, experimental, refinement or atomic coordinate data resulting 
# from the CCDC's data processing and validation procedures.
#
#######################################################################

data_DIZZIX
_chemical_formula_moiety         'C14 H4 F12'
_chemical_name_systematic        1,2,3,5-tetrakis(trifluoromethyl)azulene
_symmetry_cell_setting           monoclinic
_symmetry_space_group_name_H-M   'C c'
_symmetry_Int_Tables_number      9
_space_group_name_Hall           'C -2yc'
loop_
_symmetry_equiv_pos_site_id
_symmetry_equiv_pos_as_xyz
1 x,y,z
2 x,-y,1/2+z
3 1/2+x,1/2+y,z
4 1/2+x,1/2-y,1/2+z
_cell_length_a                   4.8939(3)
_cell_length_b                   32.3450(18)
_cell_length_c                   8.6013(5)
_cell_angle_alpha                90
_cell_angle_beta                 94.4396(11)
_cell_angle_gamma                90
_cell_volume                     1357.44
_exptl_crystal_colour            purple
_exptl_crystal_description       plate
_cell_formula_units_Z            4
_exptl_crystal_recrystallization_method Dichloromethane
loop_
_atom_site_label
_atom_site_type_symbol
_atom_site_fract_x
_atom_site_fract_y
_atom_site_fract_z
C1 C 0.2764(3) 0.17969(4) 0.13062(17)
C2 C 0.3233(3) 0.15515(5) 0.00052(17)
C3 C 0.2123(3) 0.11543(5) 0.01929(18)
C4 C -0.0764(4) 0.08228(5) 0.21413(19)
H1 H -0.0818 0.0579 0.1523
C5 C -0.2204(4) 0.08039(5) 0.3480(2)
C6 C -0.2567(4) 0.11106(5) 0.4593(2)
H2 H -0.3637 0.1033 0.5420
C7 C -0.1578(4) 0.15132(6) 0.4655(2)
H3 H -0.2109 0.1674 0.5506
C8 C 0.0082(4) 0.17159(5) 0.36485(18)
H4 H 0.0537 0.1994 0.3916
C9 C 0.1168(3) 0.15662(4) 0.23007(17)
C10 C 0.0750(3) 0.11520(4) 0.15856(18)
C11 C 0.3856(3) 0.22257(5) 0.16101(18)
C12 C 0.4494(3) 0.17083(5) -0.14348(19)
C13 C 0.2444(5) 0.07943(6) -0.0888(2)
C14 C -0.3533(5) 0.03910(6) 0.3803(2)
F1 F 0.4202(3) 0.23115(3) 0.31428(13)
F2 F 0.2213(3) 0.25233(3) 0.09673(14)
F3 F 0.6324(2) 0.22769(4) 0.10495(15)
F4 F 0.3906(3) 0.21081(4) -0.16882(14)
F5 F 0.7222(2) 0.16689(4) -0.13519(14)
F6 F 0.3503(3) 0.15061(4) -0.27257(13)
F7 F 0.4945(3) 0.07947(4) -0.14338(17)
F8 F 0.0615(3) 0.07975(5) -0.21372(17)
F9 F 0.2204(4) 0.04310(4) -0.0184(2)
F10 F -0.5983(10) 0.04229(19) 0.4080(12)
F11 F -0.2155(9) 0.02208(12) 0.5122(5)
F12 F -0.3137(15) 0.00997(12) 0.2726(4)
F13? F -0.5689(16) 0.04312(19) 0.4755(7)
F14? F -0.1978(9) 0.01231(15) 0.4335(12)
F15? F -0.4989(12) 0.02488(13) 0.2469(4)
loop_
_geom_bond_atom_site_label_1
_geom_bond_atom_site_label_2
_geom_bond_site_symmetry_1
_geom_bond_site_symmetry_2
C1 C2 1_555 1_555
C2 C3 1_555 1_555
C3 C10 1_555 1_555
C4 H1 1_555 1_555
C5 C4 1_555 1_555
C6 C5 1_555 1_555
H2 C6 1_555 1_555
C7 C6 1_555 1_555
H3 C7 1_555 1_555
C8 C7 1_555 1_555
H4 C8 1_555 1_555
C9 C1 1_555 1_555
C10 C4 1_555 1_555
C11 C1 1_555 1_555
C12 C2 1_555 1_555
C13 C3 1_555 1_555
C14 C5 1_555 1_555
F1 C11 1_555 1_555
F2 C11 1_555 1_555
F3 C11 1_555 1_555
F4 C12 1_555 1_555
F5 C12 1_555 1_555
F6 C12 1_555 1_555
F7 C13 1_555 1_555
F8 C13 1_555 1_555
F9 C13 1_555 1_555
F10 C14 1_555 1_555
F11 C14 1_555 1_555
F12 C14 1_555 1_555
C8 C9 1_555 1_555
C9 C10 1_555 1_555

#END
