
#######################################################################
#
#                 Cambridge Crystallographic Data Centre
#                                CCDC 
#
#######################################################################
#
# If this CIF has been generated from an entry in the Cambridge 
# Structural Database, then it will include bibliographic, chemical, 
# crystal, experimental, refinement or atomic coordinate data resulting 
# from the CCDC's data processing and validation procedures.
#
#######################################################################

data_DLCARC
_chemical_formula_moiety         'C7 H16 N1 O3 1+,Cl1 1-'
_chemical_name_systematic        'DL-Carnitine hydrochloride'
_chemical_properties_biological  
'racemate of the drug used to increase cardiac output and improve myocardial activity'
_symmetry_cell_setting           monoclinic
_symmetry_space_group_name_H-M   'P 21/c'
_symmetry_Int_Tables_number      14
_space_group_name_Hall           '-P 2ybc'
loop_
_symmetry_equiv_pos_site_id
_symmetry_equiv_pos_as_xyz
1 x,y,z
2 -x,1/2+y,1/2-z
3 -x,-y,-z
4 x,1/2-y,1/2+z
_cell_length_a                   6.77(1)
_cell_length_b                   11.41(2)
_cell_length_c                   15.10(3)
_cell_angle_alpha                90
_cell_angle_beta                 120.1(1)
_cell_angle_gamma                90
_cell_volume                     1009.12
_cell_formula_units_Z            4
loop_
_atom_site_label
_atom_site_type_symbol
_atom_site_fract_x
_atom_site_fract_y
_atom_site_fract_z
Cl1 Cl 0.08700 0.28880 0.42200
C1 C -0.44110 -0.35780 0.28800
C2 C -0.41240 -0.55470 0.35260
C3 C -0.66700 -0.41440 0.36390
C4 C -0.75820 -0.49090 0.19330
C5 C -0.95450 -0.56350 0.18550
C6 C -1.12820 -0.57760 0.07170
C7 C -1.35360 -0.62240 0.05530
H1 H -1.63400 -0.72900 -0.04500
H2 H -0.52000 -0.62100 0.36600
H3 H -0.54100 -0.38200 0.41600
H4 H -0.69200 -0.49200 0.39100
H5 H -0.84500 -0.37600 0.32500
H6 H -0.29100 -0.34000 0.36400
H7 H -0.39500 -0.38100 0.22700
H8 H -0.55300 -0.28100 0.26900
H9 H -1.07300 -0.65400 0.04100
H10 H -1.09700 -0.49600 0.05100
H11 H -1.05400 -0.51500 0.21400
H12 H -0.96500 -0.70400 0.26400
H13 H -0.81300 -0.40900 0.15800
H14 H -0.68200 -0.54100 0.15400
H15 H -0.36800 -0.59200 0.30100
H16 H -0.26400 -0.53200 0.41200
N1 N -0.57290 -0.45610 0.29990
O1 O -0.87960 -0.67640 0.22910
O2 O -1.41900 -0.61310 0.11590
O3 O -1.47290 -0.67510 -0.03430
loop_
_geom_bond_atom_site_label_1
_geom_bond_atom_site_label_2
_geom_bond_site_symmetry_1
_geom_bond_site_symmetry_2
C1 H6 1_555 1_555
C2 H2 1_555 1_555
C3 H3 1_555 1_555
C4 C5 1_555 1_555
C5 C6 1_555 1_555
C6 C7 1_555 1_555
C7 O2 1_555 1_555
H1 O3 1_555 1_555
H4 C3 1_555 1_555
H5 C3 1_555 1_555
H7 C1 1_555 1_555
H8 C1 1_555 1_555
H9 C6 1_555 1_555
H10 C6 1_555 1_555
H11 C5 1_555 1_555
H12 O1 1_555 1_555
H13 C4 1_555 1_555
H14 C4 1_555 1_555
H15 C2 1_555 1_555
H16 C2 1_555 1_555
N1 C1 1_555 1_555
O1 C5 1_555 1_555
O3 C7 1_555 1_555
C2 N1 1_555 1_555
C3 N1 1_555 1_555
C4 N1 1_555 1_555

#END
