
#######################################################################
#
#                 Cambridge Crystallographic Data Centre
#                                CCDC 
#
#######################################################################
#
# If this CIF has been generated from an entry in the Cambridge 
# Structural Database, then it will include bibliographic, chemical, 
# crystal, experimental, refinement or atomic coordinate data resulting 
# from the CCDC's data processing and validation procedures.
#
#######################################################################

data_DMEGLY01
_chemical_formula_moiety         'C4 H8 N2 O2'
_chemical_name_systematic        Dimethylglyoxime
_symmetry_cell_setting           triclinic
_symmetry_space_group_name_H-M   'P -1'
_symmetry_Int_Tables_number      2
_space_group_name_Hall           '-P 1'
loop_
_symmetry_equiv_pos_site_id
_symmetry_equiv_pos_as_xyz
1 x,y,z
2 -x,-y,-z
_cell_length_a                   6.075(3)
_cell_length_b                   6.314(3)
_cell_length_c                   4.484(2)
_cell_angle_alpha                122.50(3)
_cell_angle_beta                 91.66(4)
_cell_angle_gamma                77.75(3)
_cell_volume                     141
_cell_formula_units_Z            1
loop_
_atom_site_label
_atom_site_type_symbol
_atom_site_fract_x
_atom_site_fract_y
_atom_site_fract_z
C1 C 0.08970 0.01710 -0.08750
C2 C 0.29540 -0.19660 -0.29130
N1 N 0.05190 0.23880 -0.04840
O1 O 0.22400 0.26570 -0.21910
H1 H 0.38800 -0.23500 -0.14300
H2 H 0.25600 -0.36300 -0.44500
H3 H 0.39500 -0.16400 -0.41200
H4 H 0.17100 0.42600 -0.15400
C1A C -0.08970 -0.01710 0.08750
C2A C -0.29540 0.19660 0.29130
N1A N -0.05190 -0.23880 0.04840
H1A H -0.38800 0.23500 0.14300
H2A H -0.25600 0.36300 0.44500
H3A H -0.39500 0.16400 0.41200
O1A O -0.22400 -0.26570 0.21910
H4A H -0.17100 -0.42600 0.15400
loop_
_geom_bond_atom_site_label_1
_geom_bond_atom_site_label_2
_geom_bond_site_symmetry_1
_geom_bond_site_symmetry_2
C1 C2 1_555 1_555
C2 H1 1_555 1_555
N1 C1 1_555 1_555
O1 N1 1_555 1_555
H2 C2 1_555 1_555
H3 C2 1_555 1_555
H4 O1 1_555 1_555
C1A C1 1_555 1_555
C2A C1A 1_555 1_555
N1A C1A 1_555 1_555
H1A C2A 1_555 1_555
H2A C2A 1_555 1_555
H3A C2A 1_555 1_555
O1A N1A 1_555 1_555
H4A O1A 1_555 1_555

#END
