
#######################################################################
#
#                 Cambridge Crystallographic Data Centre
#                                CCDC 
#
#######################################################################
#
# If this CIF has been generated from an entry in the Cambridge 
# Structural Database, then it will include bibliographic, chemical, 
# crystal, experimental, refinement or atomic coordinate data resulting 
# from the CCDC's data processing and validation procedures.
#
#######################################################################

data_DMENAM
_chemical_formula_moiety         'C16 H38 N2 2+,2(Br1 1-),2(H2 O1)'
_chemical_name_systematic        
'Decamethylene di(trimethylammonium) dibromide dihydrate'
_symmetry_cell_setting           monoclinic
_symmetry_space_group_name_H-M   'P 21/a'
_symmetry_Int_Tables_number      14
_space_group_name_Hall           '-P 2yab'
loop_
_symmetry_equiv_pos_site_id
_symmetry_equiv_pos_as_xyz
1 x,y,z
2 1/2-x,1/2+y,-z
3 -x,-y,-z
4 1/2+x,1/2-y,z
_cell_length_a                   13.490
_cell_length_b                   10.070
_cell_length_c                   9.040
_cell_angle_alpha                90
_cell_angle_beta                 109.0
_cell_angle_gamma                90
_cell_volume                     1161.13
_cell_formula_units_Z            2
loop_
_atom_site_label
_atom_site_type_symbol
_atom_site_fract_x
_atom_site_fract_y
_atom_site_fract_z
Br1 Br -0.40570 0.14590 -0.25460
C1 C 0.03230 0.04840 0.06970
C2 C 0.09360 -0.02920 0.20610
C3 C 0.14960 0.06050 0.35530
C4 C 0.20210 -0.02100 0.51050
C5 C 0.25840 0.07870 0.63840
C6 C 0.34950 0.12030 0.91790
C7 C 0.20900 -0.03440 0.85340
C8 C 0.37240 -0.09530 0.81150
N1 N 0.29540 0.01700 0.79680
C1B C -0.03230 -0.04840 -0.06970
C2B C -0.09360 0.02920 -0.20610
C3B C -0.14960 -0.06050 -0.35530
C4B C -0.20210 0.02100 -0.51050
C5B C -0.25840 -0.07870 -0.63840
N1B N -0.29540 -0.01700 -0.79680
C6B C -0.34950 -0.12030 -0.91790
C7B C -0.20900 0.03440 -0.85340
C8B C -0.37240 0.09530 -0.81150
O1 O 0.42190 0.18230 0.37290
loop_
_geom_bond_atom_site_label_1
_geom_bond_atom_site_label_2
_geom_bond_site_symmetry_1
_geom_bond_site_symmetry_2
C1 C2 1_555 1_555
C2 C3 1_555 1_555
C3 C4 1_555 1_555
C4 C5 1_555 1_555
C5 N1 1_555 1_555
C6 N1 1_555 1_555
C7 N1 1_555 1_555
C8 N1 1_555 1_555
C1B C1 1_555 1_555
C2B C1B 1_555 1_555
C3B C2B 1_555 1_555
C4B C3B 1_555 1_555
C5B C4B 1_555 1_555
N1B C5B 1_555 1_555
C6B N1B 1_555 1_555
C7B N1B 1_555 1_555
C8B N1B 1_555 1_555

#END
