
#######################################################################
#
#                 Cambridge Crystallographic Data Centre
#                                CCDC 
#
#######################################################################
#
# If this CIF has been generated from an entry in the Cambridge 
# Structural Database, then it will include bibliographic, chemical, 
# crystal, experimental, refinement or atomic coordinate data resulting 
# from the CCDC's data processing and validation procedures.
#
#######################################################################

data_DMPHOL
_chemical_formula_moiety         'C8 H10 O1'
_chemical_name_systematic        2,5-Dimethylphenol
_symmetry_cell_setting           monoclinic
_symmetry_space_group_name_H-M   'P 21'
_symmetry_Int_Tables_number      4
_space_group_name_Hall           'P 2yb'
loop_
_symmetry_equiv_pos_site_id
_symmetry_equiv_pos_as_xyz
1 x,y,z
2 -x,1/2+y,-z
_cell_length_a                   5.940
_cell_length_b                   4.910
_cell_length_c                   12.480
_cell_angle_alpha                90
_cell_angle_beta                 109.70
_cell_angle_gamma                90
_cell_volume                     342.68
_cell_formula_units_Z            2
loop_
_atom_site_label
_atom_site_type_symbol
_atom_site_fract_x
_atom_site_fract_y
_atom_site_fract_z
C1 C 0.46900 0.09300 0.15400
C2 C 0.30300 -0.03000 0.19800
C3 C 0.31300 0.06000 0.30500
C4 C 0.48100 0.24700 0.36400
C5 C 0.65200 0.35600 0.32200
C6 C 0.64000 0.27100 0.21400
C7 C 0.11300 -0.22700 0.13000
C8 C 0.83800 0.56200 0.38700
O1 O 0.45400 0.000 0.04200
loop_
_geom_bond_atom_site_label_1
_geom_bond_atom_site_label_2
_geom_bond_site_symmetry_1
_geom_bond_site_symmetry_2
C1 C2 1_555 1_555
C2 C3 1_555 1_555
C3 C4 1_555 1_555
C4 C5 1_555 1_555
C5 C6 1_555 1_555
C6 C1 1_555 1_555
C7 C2 1_555 1_555
C8 C5 1_555 1_555
O1 C1 1_555 1_555

#END
