
#######################################################################
#
#                 Cambridge Crystallographic Data Centre
#                                CCDC 
#
#######################################################################
#
# If this CIF has been generated from an entry in the Cambridge 
# Structural Database, then it will include bibliographic, chemical, 
# crystal, experimental, refinement or atomic coordinate data resulting 
# from the CCDC's data processing and validation procedures.
#
#######################################################################

data_DMPYRM
_chemical_formula_moiety         'C6 H14 N1 1+,C8 H7 O3 1-'
_chemical_name_systematic        
'trans-(2R,5R)-2,5-Dimethylpyrrolidinium (S)-mandelate'
_symmetry_cell_setting           triclinic
_symmetry_space_group_name_H-M   'P 1'
_symmetry_Int_Tables_number      1
_space_group_name_Hall           'P 1'
loop_
_symmetry_equiv_pos_site_id
_symmetry_equiv_pos_as_xyz
1 x,y,z
_cell_length_a                   7.610(4)
_cell_length_b                   8.325(4)
_cell_length_c                   5.863(4)
_cell_angle_alpha                96.58(5)
_cell_angle_beta                 102.58(5)
_cell_angle_gamma                78.90(5)
_cell_volume                     354.716
_cell_formula_units_Z            1
loop_
_atom_site_label
_atom_site_type_symbol
_atom_site_fract_x
_atom_site_fract_y
_atom_site_fract_z
C1 C 0.41860 0.31320 0.10570
C2 C 0.33090 0.36760 -0.11610
C3 C 0.15250 0.35430 -0.20420
C4 C 0.05430 0.28790 -0.07890
C5 C 0.13910 0.23510 0.14070
C6 C 0.31730 0.24710 0.22840
C7 C 0.61480 0.33090 0.20840
C8 C 0.62120 0.47860 0.38540
O1 O 0.71340 0.18730 0.31650
O2 O 0.59110 0.61910 0.31500
O3 O 0.65140 0.44830 0.59740
H1 H 0.39500 0.40800 -0.19300
H2 H 0.08700 0.38600 -0.36200
H3 H -0.07800 0.27200 -0.14800
H4 H 0.06700 0.18200 0.21000
H5 H 0.38600 0.21200 0.36800
H6 H 0.67000 0.35400 0.09500
H21 H 0.71100 0.21600 0.46700
C9 C 0.53810 0.87020 0.87580
C10 C 0.63510 0.95530 0.73700
C11 C 0.82950 0.91820 0.85400
C12 C 0.85830 0.74910 0.94000
C13 C 0.35210 0.83900 0.75860
C14 C 0.97050 0.73340 1.18620
N1 N 0.66930 0.71420 0.92240
H7 H 0.54100 0.91600 1.01400
H8 H 0.61000 0.90100 0.58100
H9 H 0.59000 1.06600 0.72100
H10 H 0.88600 0.99500 0.99100
H11 H 0.93200 0.92200 0.77200
H12 H 0.91400 0.66900 0.84300
H13 H 0.28500 0.78200 0.84000
H14 H 0.26500 0.95100 0.72700
H15 H 0.36100 0.77000 0.60400
H16 H 0.98100 0.62000 1.21400
H17 H 1.11700 0.76500 1.18700
H18 H 0.90900 0.82200 1.27800
H19 H 0.64600 0.65300 1.01200
H20 H 0.63800 0.63100 0.81500
loop_
_geom_bond_atom_site_label_1
_geom_bond_atom_site_label_2
_geom_bond_site_symmetry_1
_geom_bond_site_symmetry_2
C1 C2 1_555 1_555
C2 C3 1_555 1_555
C3 C4 1_555 1_555
C4 C5 1_555 1_555
C5 C6 1_555 1_555
C6 C1 1_555 1_555
C7 C1 1_555 1_555
C8 C7 1_555 1_555
C9 C10 1_555 1_555
C10 C11 1_555 1_555
C11 C12 1_555 1_555
C12 C14 1_555 1_555
C13 C9 1_555 1_555
C14 H16 1_555 1_555
N1 C9 1_555 1_555
O1 C7 1_555 1_555
O2 C8 1_555 1_555
O3 C8 1_555 1_555
H1 C2 1_555 1_555
H2 C3 1_555 1_555
H3 C4 1_555 1_555
H4 C5 1_555 1_555
H5 C6 1_555 1_555
H6 C7 1_555 1_555
H7 C9 1_555 1_555
H8 C10 1_555 1_555
H9 C10 1_555 1_555
H10 C11 1_555 1_555
H11 C11 1_555 1_555
H12 C12 1_555 1_555
H13 C13 1_555 1_555
H14 C13 1_555 1_555
H15 C13 1_555 1_555
H17 C14 1_555 1_555
H18 C14 1_555 1_555
H19 N1 1_555 1_555
H20 N1 1_555 1_555
H21 O1 1_555 1_555
C12 N1 1_555 1_555

#END
