
#######################################################################
#
#                 Cambridge Crystallographic Data Centre
#                                CCDC 
#
#######################################################################
#
# If this CIF has been generated from an entry in the Cambridge 
# Structural Database, then it will include bibliographic, chemical, 
# crystal, experimental, refinement or atomic coordinate data resulting 
# from the CCDC's data processing and validation procedures.
#
#######################################################################

data_DMSULO06
_chemical_name_common            'Dimethyl sulfone'
_chemical_formula_moiety         'C2 H6 O2 S1'
_chemical_name_systematic        (methylsulfonyl)methane
_symmetry_cell_setting           orthorhombic
_symmetry_space_group_name_H-M   'C m c m'
_symmetry_Int_Tables_number      63
_space_group_name_Hall           '-C 2n 2'
loop_
_symmetry_equiv_pos_site_id
_symmetry_equiv_pos_as_xyz
1 x,y,z
2 1/2+x,1/2+y,z
3 x,-y,-z
4 1/2+x,1/2-y,-z
5 -x,y,1/2-z
6 1/2-x,1/2+y,1/2-z
7 -x,-y,1/2+z
8 1/2-x,1/2-y,1/2+z
9 -x,-y,-z
10 1/2-x,1/2-y,-z
11 -x,y,z
12 1/2-x,1/2+y,z
13 x,-y,1/2+z
14 1/2+x,1/2-y,1/2+z
15 x,y,1/2-z
16 1/2+x,1/2+y,1/2-z
_cell_length_a                   7.2215(19)
_cell_length_b                   7.9829(19)
_cell_length_c                   7.2441(14)
_cell_angle_alpha                90
_cell_angle_beta                 90
_cell_angle_gamma                90
_cell_volume                     417.612
_exptl_crystal_colour            colorless
_exptl_crystal_description       'hexagonal prism'
_cell_formula_units_Z            4
loop_
_atom_site_label
_atom_site_type_symbol
_atom_site_fract_x
_atom_site_fract_y
_atom_site_fract_z
S1 S 0.0000 0.1472(3) 0.2500
O1 O -0.16985(13) 0.05265(14) 0.2500
C1 C 0.0000 0.28310(11) 0.05947(13)
H1 H 0.1234(2) 0.3599(2) 0.0649(3)
H2 H 0.0000 0.2058(4) -0.0625(3)
O1J O 0.16985(13) 0.05265(14) 0.2500
H1J H -0.1234(2) 0.3599(2) 0.0649(3)
C1D C 0.0000 0.28310(11) 0.44053(13)
H1D H -0.1234(2) 0.3599(2) 0.4351(3)
H2D H 0.0000 0.2058(4) 0.5625(3)
H1N H 0.1234(2) 0.3599(2) 0.4351(3)
loop_
_geom_bond_atom_site_label_1
_geom_bond_atom_site_label_2
_geom_bond_site_symmetry_1
_geom_bond_site_symmetry_2
S1 O1 1_555 1_555
C1 S1 1_555 1_555
H1 C1 1_555 1_555
H2 C1 1_555 1_555
O1J S1 1_555 1_555
H1J C1 1_555 1_555
C1D S1 1_555 1_555
H1D C1D 1_555 1_555
H2D C1D 1_555 1_555
H1N C1D 1_555 1_555

#END
