
#######################################################################
#
#                 Cambridge Crystallographic Data Centre
#                                CCDC 
#
#######################################################################
#
# If this CIF has been generated from an entry in the Cambridge 
# Structural Database, then it will include bibliographic, chemical, 
# crystal, experimental, refinement or atomic coordinate data resulting 
# from the CCDC's data processing and validation procedures.
#
#######################################################################

data_DMTHOX
_chemical_formula_moiety         'C6 H12 O1 S2'
_chemical_name_systematic        'r-4,c-6-Dimethyl-1,3-dithiane t-1-oxide'
_symmetry_cell_setting           monoclinic
_symmetry_space_group_name_H-M   'C 2/c'
_symmetry_Int_Tables_number      15
_space_group_name_Hall           '-C 2yn'
loop_
_symmetry_equiv_pos_site_id
_symmetry_equiv_pos_as_xyz
1 x,y,z
2 1/2+x,1/2+y,z
3 -x,y,1/2-z
4 1/2-x,1/2+y,1/2-z
5 -x,-y,-z
6 1/2-x,1/2-y,-z
7 x,-y,1/2+z
8 1/2+x,1/2-y,1/2+z
_cell_length_a                   20.33(1)
_cell_length_b                   5.68(1)
_cell_length_c                   16.11(1)
_cell_angle_alpha                90
_cell_angle_beta                 119.0(1)
_cell_angle_gamma                90
_cell_volume                     1627.05
_chemical_melting_point          158-160deg.C
_cell_formula_units_Z            8
loop_
_atom_site_label
_atom_site_type_symbol
_atom_site_fract_x
_atom_site_fract_y
_atom_site_fract_z
C1 C 0.21740 0.10450 0.11440
C2 C 0.13800 -0.23870 -0.01910
C3 C 0.08860 -0.26930 0.02700
C4 C 0.12510 -0.21420 0.13270
C5 C 0.09560 -0.30330 -0.12430
C6 C 0.07370 -0.27420 0.17450
H1 H 0.25400 -0.01700 0.14800
H2 H 0.23800 0.27000 0.12200
H3 H 0.18400 -0.34100 0.01200
H4 H 0.07300 -0.44400 0.02000
H5 H 0.04500 -0.17900 -0.00400
H6 H 0.17300 -0.29900 0.17000
H7 H 0.12400 -0.27600 -0.15500
H8 H 0.08200 -0.47700 -0.13200
H9 H 0.04600 -0.20700 -0.16100
H10 H 0.09800 -0.22400 0.24300
H11 H 0.06700 -0.45200 0.17400
H12 H 0.02800 -0.20200 0.14100
O1 O 0.19460 0.11560 0.26390
S1 S 0.15020 0.09700 0.15720
S2 S 0.16990 0.06450 -0.01220
loop_
_geom_bond_atom_site_label_1
_geom_bond_atom_site_label_2
_geom_bond_site_symmetry_1
_geom_bond_site_symmetry_2
C1 H1 1_555 1_555
C2 C3 1_555 1_555
C3 C4 1_555 1_555
C4 C6 1_555 1_555
C5 C2 1_555 1_555
C6 H10 1_555 1_555
H2 C1 1_555 1_555
H3 C2 1_555 1_555
H4 C3 1_555 1_555
H5 C3 1_555 1_555
H6 C4 1_555 1_555
H7 C5 1_555 1_555
H8 C5 1_555 1_555
H9 C5 1_555 1_555
H11 C6 1_555 1_555
H12 C6 1_555 1_555
O1 S1 1_555 1_555
S1 C1 1_555 1_555
S2 C1 1_555 1_555
C2 S2 1_555 1_555
C4 S1 1_555 1_555

#END
