
#######################################################################
#
#                 Cambridge Crystallographic Data Centre
#                                CCDC 
#
#######################################################################
#
# If this CIF has been generated from an entry in the Cambridge 
# Structural Database, then it will include bibliographic, chemical, 
# crystal, experimental, refinement or atomic coordinate data resulting 
# from the CCDC's data processing and validation procedures.
#
#######################################################################

data_DMXBFL10
_chemical_formula_moiety         'C22 H16 O2'
_chemical_name_systematic        5,10-Dimethoxybenzo(j)fluoranthene
_symmetry_cell_setting           triclinic
_symmetry_space_group_name_H-M   'P -1'
_symmetry_Int_Tables_number      2
_space_group_name_Hall           '-P 1'
loop_
_symmetry_equiv_pos_site_id
_symmetry_equiv_pos_as_xyz
1 x,y,z
2 -x,-y,-z
_cell_length_a                   15.486(5)
_cell_length_b                   16.878(4)
_cell_length_c                   6.301(2)
_cell_angle_alpha                94.52(2)
_cell_angle_beta                 96.63(3)
_cell_angle_gamma                104.28(2)
_cell_volume                     1575.47
_exptl_crystal_colour            yellow
_cell_formula_units_Z            4
loop_
_atom_site_label
_atom_site_type_symbol
_atom_site_fract_x
_atom_site_fract_y
_atom_site_fract_z
C1 C 0.4165(2) 0.6367(2) 0.0229(5)
C2 C 0.4461(2) 0.6903(2) -0.1303(5)
C3 C 0.3896(2) 0.7062(2) -0.2950(5)
C4 C 0.22792 0.6778(2) -0.4800(4)
C5 C 0.1399(2) 0.6342(1) -0.4805(4)
C6 C 0.1147(2) 0.5784(2) -0.3275(4)
C7 C 0.1089(2) 0.4636(2) 0.0814(5)
C8 C 0.1261(2) 0.4257(2) 0.2591(5)
C9 C 0.2311(2) 0.4013(2) 0.5584(5)
C10 C 0.3161(2) 0.4178(2) 0.6684(5)
C11 C 0.3870(2) 0.4755(2) 0.6030(5)
C12 C 0.3724(2) 0.5143(2) 0.4261(5)
C13 C 0.2672(2) 0.5373(1) 0.1185(4)
C14 C 0.3258(2) 0.5979(1) 0.0038(4)
C15 C 0.2688(2) 0.6145(1) -0.1684(4)
C16 C 0.1787(2) 0.5690(1) -0.1725(4)
C17 C 0.1798(2) 0.5201(1) 0.0100(4)
C18 C 0.2959(2) 0.6678(1) -0.3193(4)
C19 C 0.2135(2) 0.4411(1) 0.3728(4)
C20 C 0.2860(2) 0.4987(1) 0.3043(4)
C21 C 0.0874(3) 0.6974(2) -0.7791(5)
C22 C 0.2713(3) 0.3265(2) 0.9279(6)
O1 O 0.0690(1) 0.6406(1) -0.6239(3)
O2 O 0.3403(2) 0.3826(1) 0.8462(3)
H1 H 0.460(2) 0.624(2) 0.141(4)
H2 H 0.510(2) 0.715(2) -0.114(4)
H3 H 0.411(2) 0.743(2) -0.394(4)
H4 H 0.241(2) 0.713(2) -0.589(4)
H5 H 0.053(2) 0.547(2) -0.342(4)
H6 H 0.050(2) 0.455(2) 0.007(4)
H7 H 0.078(2) 0.389(2) 0.306(4)
H8 H 0.181(2) 0.364(2) 0.595(4)
H9 H 0.451(2) 0.494(2) 0.698(4)
H10 H 0.419(2) 0.555(2) 0.394(4)
H11 H 0.025(2) 0.697(2) -0.861(5)
H12 H 0.128(2) 0.680(2) -0.879(5)
H13 H 0.118(2) 0.756(2) -0.694(5)
H14 H 0.309(2) 0.315(2) 1.063(5)
H15 H 0.240(2) 0.276(2) 0.824(5)
H16 H 0.216(2) 0.353(2) 0.959(5)
C23 C 0.3750(2) -0.0795(2) 0.4369(4)
C24 C 0.3799(2) -0.1322(2) 0.2560(5)
C25 C 0.3135(2) -0.1551(2) 0.0836(5)
C26 C 0.1576(2) -0.1460(2) -0.0788(4)
C27 C 0.0857(2) -0.1152(1) -0.0481(4)
C28 C 0.0843(2) -0.0620(2) 0.1360(4)
C29 C 0.1306(2) 0.0519(2) 0.6138(4)
C30 C 0.1661(2) 0.0913(2) 0.8152(4)
C31 C 0.2888(2) 0.1314(1) 1.1213(4)
C32 C 0.3731(2) 0.1314(1) 1.2110(4)
C33 C 0.4252(2) 0.0903(2) 1.0978(4)
C34 C 0.3919(2) 0.0480(2) 0.8993(4)
C35 C 0.2658(1) 0.0026(1) 0.5955(4)
C36 C 0.2993(2) -0.0506(1) 0.4440(4)
C37 C 0.2313(2) -0.0754(1) 0.2651(4)
C38 C 0.1567(2) -0.0428(1) 0.2934(4)
C39 C 0.1803(1) 0.0070(1) 0.5045(4)
C40 C 0.2339(2) -0.1268(1) 0.0834(4)
C41 C 0.2528(1) 0.0894(1) 0.9123(4)
C42 C 0.3045(2) 0.0453(1) 0.8004(4)
C43 C -0.0003(3) -0.1893(2) -0.3748(6)
C44 C 0.3703(2) 0.2186(2) 1.5256(5)
O3 O 0.0075(1) -0.1316(1) -0.1914(3)
O4 O 0.4151(1) 0.1689(1) 1.4097(3)
H17 H 0.425(2) -0.064(1) 0.553(4)
H18 H 0.435(2) -0.154(1) 0.258(4)
H19 H 0.319(1) -0.192(1) -0.035(4)
H20 H 0.158(2) -0.180(1) -0.205(4)
H21 H 0.033(2) -0.041(1) 0.150(4)
H22 H 0.070(2) 0.055(1) 0.540(4)
H23 H 0.133(2) 0.123(1) 0.893(4)
H24 H 0.253(2) 0.159(1) 1.220(4)
H25 H 0.489(2) 0.090(1) 1.163(4)
H26 H 0.431(2) 0.019(1) 0.831(4)
H27 H -0.065(2) -0.196(2) -0.454(5)
H28 H 0.005(2) -0.246(2) -0.326(5)
H29 H 0.046(2) -0.168(2) -0.476(5)
H30 H 0.408(2) 0.243(2) 1.653(5)
H31 H 0.309(2) 0.182(2) 1.558(5)
H32 H 0.363(2) 0.268(2) 1.440(5)
loop_
_geom_bond_atom_site_label_1
_geom_bond_atom_site_label_2
_geom_bond_site_symmetry_1
_geom_bond_site_symmetry_2
C1 C2 1_555 1_555
C2 C3 1_555 1_555
C3 C18 1_555 1_555
C4 C5 1_555 1_555
C5 C6 1_555 1_555
C6 C16 1_555 1_555
C7 C8 1_555 1_555
C8 C19 1_555 1_555
C9 C10 1_555 1_555
C10 C11 1_555 1_555
C11 C12 1_555 1_555
C12 C20 1_555 1_555
C13 C14 1_555 1_555
C14 C1 1_555 1_555
C15 C14 1_555 1_555
C16 C15 1_555 1_555
C17 C7 1_555 1_555
C18 C4 1_555 1_555
C19 C9 1_555 1_555
C20 C13 1_555 1_555
C21 O1 1_555 1_555
C22 O2 1_555 1_555
O1 C5 1_555 1_555
O2 C10 1_555 1_555
H1 C1 1_555 1_555
H2 C2 1_555 1_555
H3 C3 1_555 1_555
H4 C4 1_555 1_555
H5 C6 1_555 1_555
H6 C7 1_555 1_555
H7 C8 1_555 1_555
H8 C9 1_555 1_555
H9 C11 1_555 1_555
H10 C12 1_555 1_555
H11 C21 1_555 1_555
H12 C21 1_555 1_555
H13 C21 1_555 1_555
H14 C22 1_555 1_555
H15 C22 1_555 1_555
H16 C22 1_555 1_555
C23 C24 1_555 1_555
C24 C25 1_555 1_555
C25 C40 1_555 1_555
C26 C27 1_555 1_555
C27 C28 1_555 1_555
C28 C38 1_555 1_555
C29 C30 1_555 1_555
C30 C41 1_555 1_555
C31 C32 1_555 1_555
C32 C33 1_555 1_555
C33 C34 1_555 1_555
C34 C42 1_555 1_555
C35 C36 1_555 1_555
C36 C23 1_555 1_555
C37 C36 1_555 1_555
C38 C37 1_555 1_555
C39 C29 1_555 1_555
C40 C26 1_555 1_555
C41 C31 1_555 1_555
C42 C35 1_555 1_555
C43 O3 1_555 1_555
C44 O4 1_555 1_555
O3 C27 1_555 1_555
O4 C32 1_555 1_555
H17 C23 1_555 1_555
H18 C24 1_555 1_555
H19 C25 1_555 1_555
H20 C26 1_555 1_555
H21 C28 1_555 1_555
H22 C29 1_555 1_555
H23 C30 1_555 1_555
H24 C31 1_555 1_555
H25 C33 1_555 1_555
H26 C34 1_555 1_555
H27 C43 1_555 1_555
H28 C43 1_555 1_555
H29 C43 1_555 1_555
H30 C44 1_555 1_555
H31 C44 1_555 1_555
H32 C44 1_555 1_555
C13 C17 1_555 1_555
C15 C18 1_555 1_555
C16 C17 1_555 1_555
C19 C20 1_555 1_555
C35 C39 1_555 1_555
C37 C40 1_555 1_555
C38 C39 1_555 1_555
C41 C42 1_555 1_555

#END
