
#######################################################################
#
#                 Cambridge Crystallographic Data Centre
#                                CCDC 
#
#######################################################################
#
# If this CIF has been generated from an entry in the Cambridge 
# Structural Database, then it will include bibliographic, chemical, 
# crystal, experimental, refinement or atomic coordinate data resulting 
# from the CCDC's data processing and validation procedures.
#
#######################################################################

data_DOBHIN
_chemical_formula_moiety         'C15 H14 N2 O2 S1'
_chemical_name_systematic        
3-Methoxy-4-(1,3-oxazol-5-yl)-N-(2-thienylmethyl)aniline
_symmetry_cell_setting           monoclinic
_symmetry_space_group_name_H-M   'P 21'
_symmetry_Int_Tables_number      4
_space_group_name_Hall           'P 2yb'
loop_
_symmetry_equiv_pos_site_id
_symmetry_equiv_pos_as_xyz
1 x,y,z
2 -x,1/2+y,-z
_cell_length_a                   9.9901(3)
_cell_length_b                   5.5418(2)
_cell_length_c                   12.0426(4)
_cell_angle_alpha                90
_cell_angle_beta                 91.298(3)
_cell_angle_gamma                90
_cell_volume                     666.545
_exptl_crystal_colour            colorless
_exptl_crystal_description       block
_cell_formula_units_Z            2
loop_
_atom_site_label
_atom_site_type_symbol
_atom_site_fract_x
_atom_site_fract_y
_atom_site_fract_z
S1 S 0.04801(9) 0.59715(19) 0.72141(9)
O1 O 0.43290(15) 0.4351(3) 1.26489(12)
O2 O 0.20473(14) -0.1187(3) 1.12812(12)
N1 N 0.25112(19) 0.2094(4) 0.76182(15)
N2 N 0.39502(18) 0.1956(4) 1.40917(15)
C1 C 0.28064(19) 0.2241(4) 0.87418(16)
C2 C 0.22914(19) 0.0450(4) 0.94308(17)
H1 H 0.1770 -0.0781 0.9123
C3 C 0.25493(19) 0.0490(4) 1.05667(17)
C4 C 0.33541(19) 0.2319(4) 1.10530(17)
C5 C 0.3863(2) 0.4077(5) 1.03471(17)
H2 H 0.4405 0.5286 1.0649
C6 C 0.35915(19) 0.4090(5) 0.92136(17)
H3 H 0.3926 0.5313 0.8770
C7 C 0.36349(19) 0.2363(4) 1.22415(17)
C8 C 0.3407(2) 0.0912(6) 1.31280(16)
H4 H 0.2958 -0.0557 1.3097
C9 C 0.4470(2) 0.3939(5) 1.37571(18)
H5 H 0.4909 0.5009 1.4236
C10 C 0.2948(2) 0.3770(5) 0.67809(17)
H6 H 0.3116 0.2886 0.6103
H7 H 0.3787 0.4495 0.7029
C11 C 0.19523(19) 0.5744(5) 0.65288(16)
C12 C 0.1975(6) 0.7575(14) 0.5737(5)
H8 H 0.2692 0.7798 0.5268
C13 C 0.0824(3) 0.9071(5) 0.5701(2)
H9 H 0.0677 1.0344 0.5210
C14 C -0.0019(3) 0.8359(6) 0.6489(2)
H10 H -0.0823 0.9147 0.6617
C15 C 0.1041(2) -0.2781(5) 1.08571(19)
H11 H 0.1412 -0.3785 1.0292
H12 H 0.0311 -0.1858 1.0546
H13 H 0.0722 -0.3775 1.1448
H14 H 0.198(3) 0.074(7) 0.737(2)
S2? S 0.2127(4) 0.7623(10) 0.5501(4)
C16? C 0.0698(11) 0.634(3) 0.7008(12)
H15? H 0.0362 0.5505 0.7610
H16? H 0.0629 1.0432 0.5275
H17? H -0.0852 0.8991 0.6660
loop_
_geom_bond_atom_site_label_1
_geom_bond_atom_site_label_2
_geom_bond_site_symmetry_1
_geom_bond_site_symmetry_2
S1 C11 1_555 1_555
O1 C7 1_555 1_555
O2 C3 1_555 1_555
N1 C1 1_555 1_555
N2 C8 1_555 1_555
C1 C2 1_555 1_555
C2 H1 1_555 1_555
C3 C2 1_555 1_555
C4 C3 1_555 1_555
C5 C4 1_555 1_555
H2 C5 1_555 1_555
C6 C1 1_555 1_555
H3 C6 1_555 1_555
C7 C4 1_555 1_555
C8 C7 1_555 1_555
H4 C8 1_555 1_555
C9 O1 1_555 1_555
H5 C9 1_555 1_555
C10 N1 1_555 1_555
H6 C10 1_555 1_555
H7 C10 1_555 1_555
C11 C10 1_555 1_555
C12 C11 1_555 1_555
H8 C12 1_555 1_555
C13 C12 1_555 1_555
H9 C13 1_555 1_555
C14 S1 1_555 1_555
H10 C14 1_555 1_555
C15 O2 1_555 1_555
H11 C15 1_555 1_555
H12 C15 1_555 1_555
H13 C15 1_555 1_555
H14 N1 1_555 1_555
N2 C9 1_555 1_555
C5 C6 1_555 1_555
C13 C14 1_555 1_555

#END
