
#######################################################################
#
#                 Cambridge Crystallographic Data Centre
#                                CCDC 
#
#######################################################################
#
# If this CIF has been generated from an entry in the Cambridge 
# Structural Database, then it will include bibliographic, chemical, 
# crystal, experimental, refinement or atomic coordinate data resulting 
# from the CCDC's data processing and validation procedures.
#
#######################################################################

data_DOBMOY
_chemical_formula_moiety         'C29 H31 N3 O3'
_chemical_name_systematic        
"4'-((4-methyl-2-propyl-6-(propylcarbamoyl)-1H-benzimidazol-1-yl)methyl)biphenyl-2-carboxylic acid"
_symmetry_cell_setting           triclinic
_symmetry_space_group_name_H-M   'P -1'
_symmetry_Int_Tables_number      2
_space_group_name_Hall           '-P 1'
loop_
_symmetry_equiv_pos_site_id
_symmetry_equiv_pos_as_xyz
1 x,y,z
2 -x,-y,-z
_cell_length_a                   9.8101(7)
_cell_length_b                   11.2992(8)
_cell_length_c                   12.2840(8)
_cell_angle_alpha                88.481(2)
_cell_angle_beta                 75.726(3)
_cell_angle_gamma                73.524(2)
_cell_volume                     1264.03
_exptl_crystal_colour            colorless
_exptl_crystal_description       block
_cell_formula_units_Z            2
loop_
_atom_site_label
_atom_site_type_symbol
_atom_site_fract_x
_atom_site_fract_y
_atom_site_fract_z
N1 N 0.4020(3) 0.3406(3) 0.0861(2)
O1 O 0.3787(4) -0.1388(3) 0.2773(2)
H1 H 0.4131 -0.1754 0.2071
N2 N 0.5393(4) 0.2538(3) -0.0803(3)
C1 C 0.2740(4) 0.2678(3) 0.2633(3)
C2 C 0.5369(4) 0.3638(3) 0.0731(3)
C3 C 0.6228(4) 0.3084(3) -0.0308(3)
C4 C 0.2471(4) -0.0186(4) 0.4972(3)
C5 C 0.2797(4) 0.3740(4) 0.1863(3)
H2 H 0.1884 0.4016 0.1634
H3 H 0.2886 0.4424 0.2274
C6 C 0.5890(4) 0.4244(4) 0.1431(3)
H4 H 0.5306 0.4603 0.2125
O2 O 0.4094(4) -0.3225(3) 0.3501(3)
O3 O 0.9414(4) 0.4659(4) 0.1483(3)
C7 C 0.2589(4) 0.0766(4) 0.4114(3)
C8 C 0.3923(5) 0.0976(4) 0.3613(4)
H5 H 0.4780 0.0476 0.3767
C9 C 0.3988(4) 0.1920(4) 0.2887(3)
H6 H 0.4892 0.2051 0.2560
C10 C 0.7337(4) 0.4291(4) 0.1042(3)
C11 C 0.8189(4) 0.3736(4) -0.0016(4)
H7 H 0.9150 0.3776 -0.0254
C12 C 0.3033(4) -0.1461(4) 0.4760(3)
C13 C 0.7671(4) 0.3139(4) -0.0712(3)
C14 C 0.8064(5) 0.4891(4) 0.1732(4)
C15 C 0.1416(4) 0.2457(4) 0.3114(3)
H8 H 0.0565 0.2945 0.2943
N3 N 0.7183(5) 0.5687(4) 0.2566(3)
C16 C 0.2916(5) -0.2238(4) 0.5666(4)
H9 H 0.3313 -0.3087 0.5528
C17 C 0.4093(5) 0.2749(4) -0.0079(3)
C18 C 0.3696(5) -0.2085(4) 0.3612(4)
C19 C 0.1642(6) -0.0535(5) 0.6946(4)
H10 H 0.1150 -0.0216 0.7672
C20 C 0.2236(5) -0.1786(5) 0.6746(4)
H11 H 0.2179 -0.2319 0.7335
C21 C 0.1339(5) 0.1512(4) 0.3853(3)
H12 H 0.0435 0.1379 0.4176
C22 C 0.1771(5) 0.0249(4) 0.6077(4)
H13 H 0.1378 0.1096 0.6232
C23 C 0.2875(5) 0.2311(4) -0.0248(4)
H14 H 0.2841 0.2396 -0.1029
H15 H 0.1958 0.2838 0.0207
C24 C 0.8603(5) 0.2568(5) -0.1842(4)
H16 H 0.8319 0.3094 -0.2423
H17 H 0.8467 0.1774 -0.1949
H18 H 0.9617 0.2470 -0.1876
C25 C 0.7774(7) 0.6394(6) 0.3217(5)
H19 H 0.7035 0.7172 0.3479
H20 H 0.8614 0.6582 0.2721
C26 C 0.2992(6) 0.0984(5) 0.0050(5)
H21 H 0.3857 0.0448 -0.0457
H22 H 0.3125 0.0878 0.0807
C27 C 0.1684(8) 0.0590(6) -0.0014(7)
H23 H 0.0839 0.1060 0.0539
H24 H 0.1856 -0.0273 0.0126
H25 H 0.1514 0.0732 -0.0750
C28 C 0.8246(13) 0.5759(11) 0.4231(10)
C29 C 0.7086(15) 0.5540(10) 0.4997(9)
loop_
_geom_bond_atom_site_label_1
_geom_bond_atom_site_label_2
_geom_bond_site_symmetry_1
_geom_bond_site_symmetry_2
N1 C2 1_555 1_555
O1 H1 1_555 1_555
N2 C3 1_555 1_555
C1 C5 1_555 1_555
C2 C3 1_555 1_555
C3 C13 1_555 1_555
C4 C7 1_555 1_555
C5 N1 1_555 1_555
H2 C5 1_555 1_555
H3 C5 1_555 1_555
C6 C2 1_555 1_555
H4 C6 1_555 1_555
O2 C18 1_555 1_555
O3 C14 1_555 1_555
C7 C8 1_555 1_555
C8 H5 1_555 1_555
C9 C1 1_555 1_555
H6 C9 1_555 1_555
C10 C6 1_555 1_555
C11 C10 1_555 1_555
H7 C11 1_555 1_555
C12 C4 1_555 1_555
C13 C11 1_555 1_555
C14 C10 1_555 1_555
C15 C1 1_555 1_555
H8 C15 1_555 1_555
N3 C14 1_555 1_555
C16 C12 1_555 1_555
H9 C16 1_555 1_555
C17 N1 1_555 1_555
C18 O1 1_555 1_555
C19 H10 1_555 1_555
C20 C16 1_555 1_555
H11 C20 1_555 1_555
C21 C7 1_555 1_555
H12 C21 1_555 1_555
C22 C4 1_555 1_555
H13 C22 1_555 1_555
C23 C17 1_555 1_555
H14 C23 1_555 1_555
H15 C23 1_555 1_555
C24 C13 1_555 1_555
H16 C24 1_555 1_555
H17 C24 1_555 1_555
H18 C24 1_555 1_555
C25 N3 1_555 1_555
H19 C25 1_555 1_555
H20 C25 1_555 1_555
C26 C23 1_555 1_555
H21 C26 1_555 1_555
H22 C26 1_555 1_555
C27 C26 1_555 1_555
H23 C27 1_555 1_555
H24 C27 1_555 1_555
H25 C27 1_555 1_555
C28 C25 1_555 1_555
C29 C28 1_555 1_555
N2 C17 1_555 1_555
C8 C9 1_555 1_555
C12 C18 1_555 1_555
C15 C21 1_555 1_555
C19 C20 1_555 1_555
C19 C22 1_555 1_555

#END
