
#######################################################################
#
#                 Cambridge Crystallographic Data Centre
#                                CCDC 
#
#######################################################################
#
# If this CIF has been generated from an entry in the Cambridge 
# Structural Database, then it will include bibliographic, chemical, 
# crystal, experimental, refinement or atomic coordinate data resulting 
# from the CCDC's data processing and validation procedures.
#
#######################################################################

data_DOBNOZ
_chemical_formula_moiety         'C35 H35 N3 O3,C2 H6 O1'
_chemical_name_systematic        
"methyl 4'-((4-methyl-6-((2-phenylethyl)carbamoyl)-2-propyl-1H-benzimidazol-1-yl)methyl)biphenyl-2-carboxylate ethanol solvate"
_symmetry_cell_setting           triclinic
_symmetry_space_group_name_H-M   'P -1'
_symmetry_Int_Tables_number      2
_space_group_name_Hall           '-P 1'
loop_
_symmetry_equiv_pos_site_id
_symmetry_equiv_pos_as_xyz
1 x,y,z
2 -x,-y,-z
_cell_length_a                   9.8743(5)
_cell_length_b                   11.0844(5)
_cell_length_c                   16.1797(7)
_cell_angle_alpha                74.655(3)
_cell_angle_beta                 81.172(3)
_cell_angle_gamma                89.013(3)
_cell_volume                     1687.01
_cell_formula_units_Z            2
loop_
_atom_site_label
_atom_site_type_symbol
_atom_site_fract_x
_atom_site_fract_y
_atom_site_fract_z
C1 C 0.0859(16) 0.4499(14) 0.6273(9)
H1 H 0.0557 0.3638 0.6450
H2 H 0.1818 0.4549 0.6306
H3 H 0.0711 0.4865 0.5687
C2 C 0.0107(13) 0.5158(7) 0.6830(7)
O1 O 0.0543(5) 0.6424(3) 0.6551(2)
H4 H -0.2153(16) 1.253(7) 0.305(5)
C3 C -0.0546(15) 1.3020(12) 0.0725(6)
H5 H -0.1079 1.2539 0.1253
H6 H -0.1135 1.3568 0.0383
H7 H 0.0142 1.3506 0.0861
C4 C 0.0817(7) 1.2599(6) -0.0504(4)
C5 C 0.1694(6) 1.1743(5) -0.0864(3)
C6 C 0.1800(8) 1.1847(6) -0.1763(3)
H8 H 0.1305 1.2454 -0.2099
C7 C 0.2596(13) 1.1093(8) -0.2138(4)
H9 H 0.2637 1.1172 -0.2728
C8 C 0.3350(15) 1.0206(8) -0.1660(5)
H10 H 0.3890 0.9679 -0.1927
C9 C 0.3321(11) 1.0078(6) -0.0757(4)
H11 H 0.3862 0.9495 -0.0438
C10 C 0.2474(7) 1.0835(4) -0.0367(3)
C11 C 0.2430(5) 1.0707(4) 0.0579(2)
C12 C 0.1675(5) 0.9778(4) 0.1184(3)
H12 H 0.1209 0.9193 0.1007
C13 C 0.1588(5) 0.9686(4) 0.2060(3)
H13 H 0.1063 0.9037 0.2458
C14 C 0.2244(4) 1.0513(3) 0.2358(2)
C15 C 0.3001(9) 1.1416(7) 0.1751(3)
H14 H 0.3469 1.2004 0.1925
C16 C 0.3105(10) 1.1495(7) 0.0880(4)
H15 H 0.3667 1.2120 0.0485
C17 C 0.2138(4) 1.0503(4) 0.3291(2)
H16 H 0.3041 1.0363 0.3461
H17 H 0.1855 1.1321 0.3352
C18 C 0.1454(4) 0.8457(4) 0.4407(2)
C19 C 0.2872(4) 0.7987(4) 0.4471(3)
H18 H 0.2897 0.7473 0.5055
H19 H 0.3499 0.8694 0.4365
C20 C 0.3359(6) 0.7222(7) 0.3831(4)
H20 H 0.2656 0.6602 0.3865
H21 H 0.3496 0.7770 0.3247
C21 C 0.4666(7) 0.6575(8) 0.4009(5)
H22 H 0.4930 0.6093 0.3599
H23 H 0.4533 0.6029 0.4586
H24 H 0.5373 0.7186 0.3956
C22 C -0.0738(4) 0.8577(3) 0.4592(2)
C23 C -0.2163(4) 0.8360(4) 0.4839(2)
C24 C -0.2985(4) 0.9298(4) 0.4462(2)
H25 H -0.3931 0.9191 0.4616
C25 C -0.2459(3) 1.0409(4) 0.3855(2)
C26 C -0.1060(3) 1.0609(3) 0.3608(2)
H26 H -0.0695 1.1338 0.3207
C27 C -0.0232(3) 0.9677(3) 0.39869(19)
C28 C -0.2729(5) 0.7164(4) 0.5473(3)
H27 H -0.1986 0.6640 0.5654
H28 H -0.3295 0.6738 0.5202
H29 H -0.3266 0.7350 0.5969
C29 C -0.3982(5) 1.3492(6) 0.2793(3)
H30 H -0.3956 1.4138 0.3094
H31 H -0.4908 1.3141 0.2928
C30 C -0.3681(6) 1.4073(5) 0.1860(3)
H32 H -0.3633 1.3422 0.1558
H33 H -0.2786 1.4488 0.1730
C31 C -0.4707(4) 1.5000(3) 0.1522(3)
C32 C -0.4739(5) 1.6205(4) 0.1628(3)
H34 H -0.4068 1.6478 0.1887
C33 C -0.5775(6) 1.7002(4) 0.1346(3)
H35 H -0.5797 1.7808 0.1417
C34 C -0.6777(5) 1.6594(6) 0.0960(5)
H36 H -0.7470 1.7127 0.0771
C35 C -0.6745(7) 1.5389(6) 0.0854(6)
H37 H -0.7416 1.5116 0.0595
C36 C -0.5710(8) 1.4592(4) 0.1136(5)
H38 H -0.5688 1.3785 0.1065
C37 C -0.3486(4) 1.1318(4) 0.3470(2)
N1 N 0.1193(3) 0.9569(3) 0.38785(17)
N2 N 0.0338(3) 0.7829(3) 0.48514(19)
N3 N -0.3054(4) 1.2511(4) 0.3126(2)
O2 O 0.0110(9) 1.2179(7) 0.0238(3)
O3 O -0.4657(3) 1.0976(4) 0.3471(2)
O4 O 0.0649(9) 1.3657(8) -0.0847(4)
loop_
_geom_bond_atom_site_label_1
_geom_bond_atom_site_label_2
_geom_bond_site_symmetry_1
_geom_bond_site_symmetry_2
C1 H1 1_555 1_555
H2 C1 1_555 1_555
H3 C1 1_555 1_555
C2 C1 1_555 1_555
O1 C2 1_555 1_555
H4 N3 1_555 1_555
C3 H5 1_555 1_555
H6 C3 1_555 1_555
H7 C3 1_555 1_555
C4 C5 1_555 1_555
C5 C6 1_555 1_555
C6 H8 1_555 1_555
C7 C6 1_555 1_555
H9 C7 1_555 1_555
C8 C7 1_555 1_555
H10 C8 1_555 1_555
C9 C8 1_555 1_555
H11 C9 1_555 1_555
C10 C5 1_555 1_555
C11 C10 1_555 1_555
C12 C11 1_555 1_555
H12 C12 1_555 1_555
C13 C12 1_555 1_555
H13 C13 1_555 1_555
C14 C13 1_555 1_555
C15 C14 1_555 1_555
H14 C15 1_555 1_555
C16 C11 1_555 1_555
H15 C16 1_555 1_555
C17 C14 1_555 1_555
H16 C17 1_555 1_555
H17 C17 1_555 1_555
C18 C19 1_555 1_555
C19 H18 1_555 1_555
H19 C19 1_555 1_555
C20 C19 1_555 1_555
H20 C20 1_555 1_555
H21 C20 1_555 1_555
C21 C20 1_555 1_555
H22 C21 1_555 1_555
H23 C21 1_555 1_555
H24 C21 1_555 1_555
C22 C23 1_555 1_555
C23 C24 1_555 1_555
C24 H25 1_555 1_555
C25 C24 1_555 1_555
C26 C25 1_555 1_555
H26 C26 1_555 1_555
C27 C22 1_555 1_555
C28 C23 1_555 1_555
H27 C28 1_555 1_555
H28 C28 1_555 1_555
H29 C28 1_555 1_555
C29 H30 1_555 1_555
H31 C29 1_555 1_555
C30 C29 1_555 1_555
H32 C30 1_555 1_555
H33 C30 1_555 1_555
C31 C30 1_555 1_555
C32 C31 1_555 1_555
H34 C32 1_555 1_555
C33 C32 1_555 1_555
H35 C33 1_555 1_555
C34 C33 1_555 1_555
H36 C34 1_555 1_555
C35 C34 1_555 1_555
H37 C35 1_555 1_555
C36 C31 1_555 1_555
H38 C36 1_555 1_555
C37 C25 1_555 1_555
N1 C17 1_555 1_555
N2 C18 1_555 1_555
N3 C29 1_555 1_555
O2 C3 1_555 1_555
O3 C37 1_555 1_555
O4 C4 1_555 1_555
C4 O2 1_555 1_555
C9 C10 1_555 1_555
C15 C16 1_555 1_555
C18 N1 1_555 1_555
C22 N2 1_555 1_555
C26 C27 1_555 1_555
C27 N1 1_555 1_555
C35 C36 1_555 1_555
C37 N3 1_555 1_555

#END
