
#######################################################################
#
#                 Cambridge Crystallographic Data Centre
#                                CCDC 
#
#######################################################################
#
# If this CIF has been generated from an entry in the Cambridge 
# Structural Database, then it will include bibliographic, chemical, 
# crystal, experimental, refinement or atomic coordinate data resulting 
# from the CCDC's data processing and validation procedures.
#
#######################################################################

data_DOBTUJ01
_chemical_formula_moiety         'C10 H8 S8 1+,C10 H8 S8,Br1 Cl1 I1 1-'
_chemical_name_systematic        
'bis(bis(Ethylenedithio)tetrathiafulvalenium) bromo-chloro-iodide'
_symmetry_cell_setting           triclinic
_symmetry_space_group_name_H-M   'P -1'
_symmetry_Int_Tables_number      2
_space_group_name_Hall           '-P 1'
loop_
_symmetry_equiv_pos_site_id
_symmetry_equiv_pos_as_xyz
1 x,y,z
2 -x,-y,-z
_cell_length_a                   6.616(1)
_cell_length_b                   9.668(2)
_cell_length_c                   12.919(2)
_cell_angle_alpha                86.60(1)
_cell_angle_beta                 101.64(1)
_cell_angle_gamma                97.32(1)
_cell_volume                     802.274
_exptl_crystal_colour            black
_cell_formula_units_Z            1
loop_
_atom_site_label
_atom_site_type_symbol
_atom_site_fract_x
_atom_site_fract_y
_atom_site_fract_z
S1 S -0.4060(1) 0.2705(1) 0.4629(1)
S2 S -0.0075(1) 0.1775(1) 0.4463(1)
S3 S -0.1687(1) 0.4718(1) 0.6519(1)
S4 S 0.2307(1) 0.3854(1) 0.6308(1)
S5 S -0.6599(2) 0.0854(1) 0.2983(1)
S6 S -0.1809(2) -0.0187(1) 0.2767(1)
S7 S 0.0044(1) 0.6423(1) 0.8397(1)
S8 S 0.4827(1) 0.5374(1) 0.8097(1)
C1 C -0.1378(6) 0.2838(4) 0.5077(3)
C2 C -0.0381(6) 0.3698(4) 0.5870(3)
C3 C -0.4128(6) 0.1457(4) 0.3691(3)
C4 C -0.2282(6) 0.1042(4) 0.3596(3)
C5 C 0.0519(6) 0.5360(4) 0.7442(3)
C6 C 0.2328(6) 0.4971(4) 0.7337(3)
C7 C -0.4404(6) -0.0825(5) 0.2055(3)
C8 C -0.6083(6) -0.0876(5) 0.2721(4)
C9 C 0.2406(6) 0.6319(5) 0.9387(4)
C10 C 0.4366(6) 0.6723(5) 0.8916(4)
H1 H -0.5603 -0.1444 0.3435
H2 H -0.7520 -0.1448 0.2259
H3 H -0.4795 -0.0128 0.1355
H4 H -0.4395 -0.1879 0.1780
H5 H 0.2396 0.6991 1.0041
H6 H 0.2355 0.5216 0.9720
H7 H 0.5659 0.6838 0.9614
H8 H 0.4210 0.7676 0.8503
I1 I 0.0000 0.0000 0.0000
Br1 Br 0.0822(2) 0.2441(1) -0.0961(1)
Br1A Br -0.0822(2) -0.2441(1) 0.0961(1)
loop_
_geom_bond_atom_site_label_1
_geom_bond_atom_site_label_2
_geom_bond_site_symmetry_1
_geom_bond_site_symmetry_2
I1 Br1 1_555 1_555
S1 C1 1_555 1_555
S2 C1 1_555 1_555
S3 C2 1_555 1_555
S4 C2 1_555 1_555
S5 C3 1_555 1_555
S6 C4 1_555 1_555
S7 C5 1_555 1_555
S8 C6 1_555 1_555
C1 C2 1_555 1_555
C3 S1 1_555 1_555
C4 S2 1_555 1_555
C5 S3 1_555 1_555
C6 S4 1_555 1_555
C7 S6 1_555 1_555
C8 S5 1_555 1_555
C9 S7 1_555 1_555
C10 S8 1_555 1_555
H1 C8 1_555 1_555
H2 C8 1_555 1_555
H3 C7 1_555 1_555
H4 C7 1_555 1_555
H5 C9 1_555 1_555
H6 C9 1_555 1_555
H7 C10 1_555 1_555
H8 C10 1_555 1_555
Br1A I1 1_555 1_555
C3 C4 1_555 1_555
C5 C6 1_555 1_555
C7 C8 1_555 1_555
C9 C10 1_555 1_555

#END
