
#######################################################################
#
#                 Cambridge Crystallographic Data Centre
#                                CCDC 
#
#######################################################################
#
# If this CIF has been generated from an entry in the Cambridge 
# Structural Database, then it will include bibliographic, chemical, 
# crystal, experimental, refinement or atomic coordinate data resulting 
# from the CCDC's data processing and validation procedures.
#
#######################################################################

data_DOBTUJ02
_chemical_formula_moiety         'C10 H8 S8 1+,C10 H8 S8,Br1 Cl1 I1 1-'
_chemical_name_systematic        
'bis(bis(Ethylenedithio)tetrathiafulvalenium) bromo-chloro-iodide'
_symmetry_cell_setting           triclinic
_symmetry_space_group_name_H-M   'P -1'
_symmetry_Int_Tables_number      2
_space_group_name_Hall           '-P 1'
loop_
_symmetry_equiv_pos_site_id
_symmetry_equiv_pos_as_xyz
1 x,y,z
2 -x,-y,-z
_cell_length_a                   6.642(1)
_cell_length_b                   9.816(2)
_cell_length_c                   12.975(2)
_cell_angle_alpha                87.29(2)
_cell_angle_beta                 101.11(2)
_cell_angle_gamma                98.28(1)
_cell_volume                     821.27
_exptl_crystal_colour            black
_cell_formula_units_Z            1
loop_
_atom_site_label
_atom_site_type_symbol
_atom_site_fract_x
_atom_site_fract_y
_atom_site_fract_z
S1 S -0.4088(2) 0.2693(1) 0.4629(1)
S2 S -0.0138(2) 0.1784(1) 0.4466(1)
S3 S -0.1703(2) 0.4708(1) 0.6518(1)
S4 S 0.2251(2) 0.3859(1) 0.6300(1)
S5 S -0.6616(2) 0.0839(2) 0.2993(1)
S6 S -0.1880(2) -0.0182(1) 0.2781(1)
S7 S 0.0034(2) 0.6400(1) 0.8392(1)
S8 S 0.4762(2) 0.5374(2) 0.8089(1)
C1 C -0.1428(6) 0.2836(4) 0.5078(3)
C2 C -0.0412(6) 0.3695(4) 0.5865(3)
C3 C -0.4166(7) 0.1440(5) 0.3701(3)
C4 C -0.2351(7) 0.1033(4) 0.3612(3)
C5 C 0.0497(7) 0.5342(4) 0.7441(3)
C6 C 0.2288(7) 0.4961(4) 0.7331(3)
C7 C -0.6145(8) -0.0870(5) 0.2730(4)
C8 C -0.4451(8) -0.0841(5) 0.2088(4)
C9 C 0.2388(9) 0.6386(7) 0.9353(5)
C10 C 0.4314(9) 0.6701(7) 0.8912(5)
H1 H -0.5717 -0.1428 0.3444
H2 H -0.7580 -0.1437 0.2256
H3 H -0.4813 -0.0175 0.1373
H4 H -0.4447 -0.1889 0.1819
H5 H 0.2690 0.7107 0.9976
H6 H 0.2307 0.5320 0.9734
H7 H 0.5598 0.6814 0.9608
H8 H 0.4248 0.7649 0.8490
I1 I 0.0000 0.0000 0.0000
Br1 Br 0.0899(5) 0.2402(3) -0.0924(2)
Br1A Br -0.0899(5) -0.2402(3) 0.0924(2)
loop_
_geom_bond_atom_site_label_1
_geom_bond_atom_site_label_2
_geom_bond_site_symmetry_1
_geom_bond_site_symmetry_2
I1 Br1 1_555 1_555
S1 C1 1_555 1_555
S2 C1 1_555 1_555
S3 C2 1_555 1_555
S4 C2 1_555 1_555
S5 C3 1_555 1_555
S6 C4 1_555 1_555
S7 C5 1_555 1_555
S8 C6 1_555 1_555
C1 C2 1_555 1_555
C3 S1 1_555 1_555
C4 S2 1_555 1_555
C5 S3 1_555 1_555
C6 S4 1_555 1_555
C7 S5 1_555 1_555
C8 S6 1_555 1_555
C9 S7 1_555 1_555
C10 S8 1_555 1_555
H1 C7 1_555 1_555
H2 C7 1_555 1_555
H3 C8 1_555 1_555
H4 C8 1_555 1_555
H5 C9 1_555 1_555
H6 C9 1_555 1_555
H7 C10 1_555 1_555
H8 C10 1_555 1_555
Br1A I1 1_555 1_555
C3 C4 1_555 1_555
C5 C6 1_555 1_555
C7 C8 1_555 1_555
C9 C10 1_555 1_555

#END
