
#######################################################################
#
#                 Cambridge Crystallographic Data Centre
#                                CCDC 
#
#######################################################################
#
# If this CIF has been generated from an entry in the Cambridge 
# Structural Database, then it will include bibliographic, chemical, 
# crystal, experimental, refinement or atomic coordinate data resulting 
# from the CCDC's data processing and validation procedures.
#
#######################################################################

data_DOCCED
_chemical_formula_moiety         'C18 H19 N1 O2'
_chemical_name_systematic        
trans-(11-Methoxy-3-phenyl-7,2-oxazatricyclo(7.4.0.0^4,8^)trideca-1(9),10,12-triene)
_symmetry_cell_setting           triclinic
_symmetry_space_group_name_H-M   'P -1'
_symmetry_Int_Tables_number      2
_space_group_name_Hall           '-P 1'
loop_
_symmetry_equiv_pos_site_id
_symmetry_equiv_pos_as_xyz
1 x,y,z
2 -x,-y,-z
_cell_length_a                   9.387(1)
_cell_length_b                   11.442(2)
_cell_length_c                   7.035(1)
_cell_angle_alpha                91.73(2)
_cell_angle_beta                 101.62(1)
_cell_angle_gamma                79.83(1)
_cell_volume                     728.476
_exptl_crystal_colour            colorless
_exptl_crystal_description       prismatic
_chemical_melting_point          94-96deg.C
_cell_formula_units_Z            2
loop_
_atom_site_label
_atom_site_type_symbol
_atom_site_fract_x
_atom_site_fract_y
_atom_site_fract_z
O1 O 0.7033(2) 1.0181(1) 0.1254(2)
O2 O 0.8069(2) 0.5889(1) 0.3393(2)
N1 N 0.8007(2) 1.0243(1) 0.7173(2)
C1 C 0.5801(2) 1.1099(2) 0.1366(3)
C2 C 0.6487(3) 1.2050(2) 0.2548(3)
C3 C 0.7655(2) 1.1332(2) 0.4115(2)
C4 C 0.8025(2) 1.0127(2) 0.3115(2)
C5 C 0.7956(2) 0.9049(1) 0.4269(2)
C6 C 0.7998(2) 0.9133(1) 0.6267(2)
C7 C 0.7094(2) 1.1242(1) 0.6006(2)
C8 C 0.7972(2) 0.7948(2) 0.3384(2)
C9 C 0.8053(2) 0.6928(2) 0.4442(2)
C10 C 0.8114(2) 0.7006(2) 0.6419(3)
C11 C 0.8073(2) 0.8106(2) 0.7308(3)
C12 C 0.7119(2) 1.2376(1) 0.7156(2)
C13 C 0.8441(2) 1.2650(2) 0.8214(3)
C14 C 0.8466(3) 1.3699(2) 0.9214(3)
C15 C 0.7182(3) 1.4505(2) 0.9180(3)
C16 C 0.5871(3) 1.4249(2) 0.8142(3)
C17 C 0.5837(2) 1.3192(2) 0.7143(3)
C18 C 0.8088(3) 0.4827(2) 0.4425(3)
H1 H 0.510(2) 1.077(2) 0.206(3)
H2 H 0.530(2) 1.133(1) 0.001(3)
H3 H 0.698(2) 1.247(2) 0.169(3)
H4 H 0.577(2) 1.262(2) 0.309(3)
H5 H 0.850(2) 1.170(1) 0.446(2)
H6 H 0.903(2) 1.006(2) 0.285(3)
H7 H 0.604(2) 1.110(1) 0.562(2)
H8 H 0.793(2) 0.789(1) 0.198(3)
H9 H 0.813(2) 0.635(2) 0.718(3)
H10 H 0.811(2) 0.819(2) 0.867(3)
H11 H 0.781(2) 1.024(2) 0.838(3)
H12 H 0.934(2) 1.205(2) 0.826(3)
H13 H 0.938(2) 1.386(2) 0.992(3)
H14 H 0.719(2) 1.523(2) 0.989(3)
H15 H 0.494(2) 1.483(2) 0.808(3)
H16 H 0.488(2) 1.300(2) 0.643(3)
H17 H 0.810(2) 0.419(2) 0.340(3)
H18 H 0.894(3) 0.466(2) 0.550(4)
H19 H 0.715(2) 0.488(2) 0.499(3)
loop_
_geom_bond_atom_site_label_1
_geom_bond_atom_site_label_2
_geom_bond_site_symmetry_1
_geom_bond_site_symmetry_2
O1 C1 1_555 1_555
O2 C9 1_555 1_555
N1 C6 1_555 1_555
C1 C2 1_555 1_555
C2 C3 1_555 1_555
C3 C4 1_555 1_555
C4 O1 1_555 1_555
C5 C4 1_555 1_555
C6 C5 1_555 1_555
C7 N1 1_555 1_555
C8 C5 1_555 1_555
C9 C8 1_555 1_555
C10 C9 1_555 1_555
C11 C6 1_555 1_555
C12 C7 1_555 1_555
C13 C12 1_555 1_555
C14 C13 1_555 1_555
C15 C14 1_555 1_555
C16 C15 1_555 1_555
C17 C12 1_555 1_555
C18 O2 1_555 1_555
H1 C1 1_555 1_555
H2 C1 1_555 1_555
H3 C2 1_555 1_555
H4 C2 1_555 1_555
H5 C3 1_555 1_555
H6 C4 1_555 1_555
H7 C7 1_555 1_555
H8 C8 1_555 1_555
H9 C10 1_555 1_555
H10 C11 1_555 1_555
H11 N1 1_555 1_555
H12 C13 1_555 1_555
H13 C14 1_555 1_555
H14 C15 1_555 1_555
H15 C16 1_555 1_555
H16 C17 1_555 1_555
H17 C18 1_555 1_555
H18 C18 1_555 1_555
H19 C18 1_555 1_555
C3 C7 1_555 1_555
C10 C11 1_555 1_555
C16 C17 1_555 1_555

#END
