
#######################################################################
#
#                 Cambridge Crystallographic Data Centre
#                                CCDC 
#
#######################################################################
#
# If this CIF has been generated from an entry in the Cambridge 
# Structural Database, then it will include bibliographic, chemical, 
# crystal, experimental, refinement or atomic coordinate data resulting 
# from the CCDC's data processing and validation procedures.
#
#######################################################################

data_DOCDOP
_chemical_formula_moiety         'C22 H19 N1 S1'
_chemical_name_systematic        2,3-Diphenyl-2-(phenylsulfanyl)butyronitrile
_symmetry_cell_setting           triclinic
_symmetry_space_group_name_H-M   'P -1'
_symmetry_Int_Tables_number      2
_space_group_name_Hall           '-P 1'
loop_
_symmetry_equiv_pos_site_id
_symmetry_equiv_pos_as_xyz
1 x,y,z
2 -x,-y,-z
_cell_length_a                   9.4268(3)
_cell_length_b                   12.7366(4)
_cell_length_c                   15.5699(5)
_cell_angle_alpha                89.959(2)
_cell_angle_beta                 90.034(2)
_cell_angle_gamma                89.989(2)
_cell_volume                     1869.41
_exptl_crystal_colour            colorless
_exptl_crystal_description       needle
_cell_formula_units_Z            4
loop_
_atom_site_label
_atom_site_type_symbol
_atom_site_fract_x
_atom_site_fract_y
_atom_site_fract_z
C1 C 0.777(2) 0.653(3) 0.5706(10)
H1 H 0.8098 0.6742 0.6243
C21 C 0.6670(19) 0.7081(11) -0.0282(7)
H16 H 0.6311 0.7714 -0.0487
C22 C 0.776(2) 0.6586(18) -0.0692(8)
H17 H 0.8082 0.6829 -0.1222
C23 C 0.8301(16) 0.572(2) 0.5353(9)
H18 H 0.9064 0.5397 0.5622
C24 C 0.673(2) 0.7095(10) 0.5297(7)
H19 H 0.6448 0.7750 0.5502
C25 C 0.8337(13) 0.5804(19) -0.0351(8)
H20 H 0.9173 0.5548 -0.0588
C26 C 0.7834(10) 0.5317(10) 0.4627(5)
H21 H 0.8300 0.4741 0.4392
C27 C 0.6119(14) 0.6618(8) 0.0440(5)
H22 H 0.5345 0.6923 0.0713
C28 C 0.6066(14) 0.6646(8) 0.4543(5)
H23 H 0.5274 0.6952 0.4289
C29 C 0.7786(11) 0.5302(12) 0.0362(5)
H24 H 0.8182 0.4678 0.0560
C30 C 1.0147(8) 0.7194(6) 0.2504(7)
H25 H 1.0513 0.7872 0.2503
C31 C 1.1067(8) 0.6395(7) 0.2510(5)
H26 H 1.2042 0.6508 0.2515
C32 C 0.6680(7) 0.5724(6) 0.4213(4)
C33 C 0.6680(7) 0.5728(6) 0.0758(4)
C34 C 0.8691(7) 0.7080(5) 0.2500(5)
H27 H 0.8099 0.7664 0.2494
C35 C 1.0515(7) 0.5416(6) 0.2509(4)
H28 H 1.1125 0.4842 0.2513
N2 N 0.5073(6) 0.7619(5) 0.2497(4)
C36 C 0.5727(6) 0.6860(4) 0.2505(3)
C37 C 0.8145(6) 0.6090(4) 0.2506(3)
C38 C 0.9056(7) 0.5244(5) 0.2502(4)
H29 H 0.8700 0.4564 0.2496
S1 S 0.5958(3) 0.5100(2) 0.33714(18)
C39 C 0.5953(4) 0.5088(3) 0.16324(19)
H30 H 0.6308 0.4375 0.1680
H31 H 0.4926 0.5073 0.1600
C40 C 0.6552(6) 0.5887(4) 0.2513(3)
C2 C 0.720(2) 0.1553(19) -0.0698(8)
H2 H 0.6884 0.1783 -0.1231
C3 C 0.828(2) 0.2095(10) 0.5313(7)
H3 H 0.8550 0.2745 0.5530
C4 C 0.825(2) 0.2068(11) -0.0284(7)
H4 H 0.8558 0.2720 -0.0480
C5 C 0.719(2) 0.145(2) 0.5706(9)
H5 H 0.6868 0.1608 0.6256
C6 C 0.6673(14) 0.077(2) -0.0351(8)
H6 H 0.5871 0.0471 -0.0601
C7 C 0.6705(16) 0.073(2) 0.5339(9)
C8 C 0.7192(10) 0.0315(11) 0.0364(5)
H7 H 0.6773 -0.0292 0.0579
C9 C 0.8887(14) 0.1611(8) 0.0448(5)
H8 H 0.9685 0.1909 0.0700
C10 C 0.7197(10) 0.0279(10) 0.4634(5)
H9 H 0.6770 -0.0326 0.4422
C11 C 0.8910(13) 0.1633(7) 0.4550(5)
H10 H 0.9685 0.1948 0.4284
C12 C 0.4855(8) 0.2191(6) 0.2513(7)
H11 H 0.4488 0.2869 0.2503
C13 C 0.3929(8) 0.1388(7) 0.2527(5)
H12 H 0.2955 0.1499 0.2548
C14 C 0.8305(7) 0.0735(6) 0.0768(4)
C15 C 0.8331(7) 0.0706(6) 0.4221(4)
C16 C 0.6319(8) 0.2078(5) 0.2513(5)
H13 H 0.6910 0.2662 0.2514
C17 C 0.4489(8) 0.0408(6) 0.2510(4)
H14 H 0.3882 -0.0167 0.2504
N1 N 0.9921(6) 0.2623(4) 0.2502(4)
C18 C 0.9274(6) 0.1861(4) 0.2509(3)
C19 C 0.5934(7) 0.0240(5) 0.2503(4)
H15 H 0.6289 -0.0441 0.2491
C20 C 0.6862(6) 0.1092(4) 0.2512(3)
S2 S 0.9044(3) 0.0096(2) 0.33697(17)
C41 C 0.9039(4) 0.0099(3) 0.1629(2)
H32 H 1.0067 0.0092 0.1594
H33 H 0.8695 -0.0616 0.1673
C42 C 0.8439(6) 0.0885(4) 0.2513(3)
loop_
_geom_bond_atom_site_label_1
_geom_bond_atom_site_label_2
_geom_bond_site_symmetry_1
_geom_bond_site_symmetry_2
C1 H1 1_555 1_555
C2 H2 1_555 1_555
C3 H3 1_555 1_555
C4 C2 1_555 1_555
H4 C4 1_555 1_555
C5 C3 1_555 1_555
H5 C5 1_555 1_555
C6 C2 1_555 1_555
H6 C6 1_555 1_555
C7 C5 1_555 1_555
C8 C6 1_555 1_555
H7 C8 1_555 1_555
C9 C4 1_555 1_555
H8 C9 1_555 1_555
C10 C7 1_555 1_555
H9 C10 1_555 1_555
C11 C3 1_555 1_555
H10 C11 1_555 1_555
C12 H11 1_555 1_555
C13 C12 1_555 1_555
H12 C13 1_555 1_555
C14 C8 1_555 1_555
C15 C10 1_555 1_555
C16 C12 1_555 1_555
H13 C16 1_555 1_555
C17 C13 1_555 1_555
H14 C17 1_555 1_555
N1 C18 1_555 1_555
C18 C42 1_555 1_555
C19 C17 1_555 1_555
H15 C19 1_555 1_555
C20 C16 1_555 1_555
C21 H16 1_555 1_555
C22 C21 1_555 1_555
H17 C22 1_555 1_555
C23 C1 1_555 1_555
H18 C23 1_555 1_555
C24 C1 1_555 1_555
H19 C24 1_555 1_555
C25 C22 1_555 1_555
H20 C25 1_555 1_555
C26 C23 1_555 1_555
H21 C26 1_555 1_555
C27 C21 1_555 1_555
H22 C27 1_555 1_555
C28 C24 1_555 1_555
H23 C28 1_555 1_555
C29 C25 1_555 1_555
H24 C29 1_555 1_555
C30 H25 1_555 1_555
C31 C30 1_555 1_555
H26 C31 1_555 1_555
C32 C26 1_555 1_555
C33 C27 1_555 1_555
C34 C30 1_555 1_555
H27 C34 1_555 1_555
C35 C31 1_555 1_555
H28 C35 1_555 1_555
N2 C36 1_555 1_555
C36 C40 1_555 1_555
C37 C34 1_555 1_555
C38 C35 1_555 1_555
H29 C38 1_555 1_555
S1 C32 1_555 1_555
C39 C33 1_555 1_555
H30 C39 1_555 1_555
H31 C39 1_555 1_555
C40 C37 1_555 1_555
S2 C15 1_555 1_555
C41 C14 1_555 1_555
H32 C41 1_555 1_555
H33 C41 1_555 1_555
C42 C20 1_555 1_555
C9 C14 1_555 1_555
C11 C15 1_555 1_555
C19 C20 1_555 1_555
C28 C32 1_555 1_555
C29 C33 1_555 1_555
C37 C38 1_555 1_555
S1 C40 1_555 1_555
C39 C40 1_555 1_555
S2 C42 1_555 1_555
C41 C42 1_555 1_555

#END
