
#######################################################################
#
#                 Cambridge Crystallographic Data Centre
#                                CCDC 
#
#######################################################################
#
# If this CIF has been generated from an entry in the Cambridge 
# Structural Database, then it will include bibliographic, chemical, 
# crystal, experimental, refinement or atomic coordinate data resulting 
# from the CCDC's data processing and validation procedures.
#
#######################################################################

data_DOCHUA
_chemical_formula_moiety         'C18 H18 B1 N1'
_chemical_name_systematic        
2-(diphenylmethyl)-1-methyl-1,2-dihydro-1,2-azaborinine
_symmetry_cell_setting           monoclinic
_symmetry_space_group_name_H-M   'C 2/c'
_symmetry_Int_Tables_number      15
_space_group_name_Hall           '-C 2yn'
loop_
_symmetry_equiv_pos_site_id
_symmetry_equiv_pos_as_xyz
1 x,y,z
2 -x,y,1/2-z
3 1/2+x,1/2+y,z
4 1/2-x,1/2+y,1/2-z
5 -x,-y,-z
6 x,-y,1/2+z
7 1/2-x,1/2-y,-z
8 1/2+x,1/2-y,1/2+z
_cell_length_a                   29.5015(15)
_cell_length_b                   7.4179(4)
_cell_length_c                   28.8636(14)
_cell_angle_alpha                90
_cell_angle_beta                 112.7280(10)
_cell_angle_gamma                90
_cell_volume                     5826.01
_exptl_crystal_colour            colorless
_exptl_crystal_description       prism
_cell_formula_units_Z            16
loop_
_atom_site_label
_atom_site_type_symbol
_atom_site_fract_x
_atom_site_fract_y
_atom_site_fract_z
N1 N 0.17604(6) -0.2449(2) 0.43500(6)
B1 B 0.14580(8) -0.0874(3) 0.43005(9)
C1 C 0.19055(8) -0.3483(3) 0.47742(9)
C2 C 0.17714(9) -0.3128(3) 0.51625(9)
C3 C 0.14652(9) -0.1652(3) 0.51421(9)
C4 C 0.13017(8) -0.0548(3) 0.47293(8)
C5 C 0.19303(9) -0.3045(3) 0.39583(9)
H1 H 0.2127 -0.4127 0.4070
H2 H 0.2127 -0.2101 0.3895
H3 H 0.1649 -0.3300 0.3652
C6 C 0.13437(7) 0.0390(3) 0.38192(8)
C7 C 0.09487(7) 0.1813(3) 0.37444(7)
C8 C 0.05006(8) 0.1721(3) 0.33409(8)
C9 C 0.01472(9) 0.3049(3) 0.32571(10)
C10 C 0.02340(9) 0.4488(3) 0.35799(10)
C11 C 0.06765(9) 0.4597(3) 0.39870(10)
C12 C 0.10285(8) 0.3273(3) 0.40669(9)
C13 C 0.18077(7) 0.1293(3) 0.38167(7)
C14 C 0.18523(8) 0.1707(3) 0.33681(8)
C15 C 0.22569(9) 0.2625(3) 0.33602(10)
C16 C 0.26311(9) 0.3123(3) 0.38012(10)
C17 C 0.26046(8) 0.2675(3) 0.42537(10)
C18 C 0.21959(8) 0.1770(3) 0.42613(9)
H4 H 0.2124(8) -0.458(3) 0.4780(8)
H5 H 0.1889(8) -0.389(3) 0.5443(9)
H6 H 0.1355(9) -0.135(3) 0.5443(9)
H7 H 0.1092(8) 0.044(3) 0.4731(8)
H8 H 0.1216(7) -0.034(3) 0.3513(8)
H9 H 0.0443(8) 0.070(3) 0.3110(8)
H10 H -0.0154(9) 0.293(3) 0.2970(9)
H11 H -0.0004(9) 0.542(4) 0.3520(9)
H12 H 0.0749(9) 0.555(4) 0.4228(9)
H13 H 0.1341(8) 0.334(3) 0.4361(9)
H14 H 0.1583(7) 0.128(3) 0.3037(8)
H15 H 0.2287(9) 0.288(3) 0.3044(10)
H16 H 0.2909(9) 0.377(3) 0.3788(8)
H17 H 0.2865(9) 0.302(3) 0.4571(9)
H18 H 0.2178(7) 0.145(3) 0.4571(8)
N2 N 0.12942(6) -0.2385(2) 0.64116(6)
B2 B 0.13337(9) -0.0780(3) 0.67023(8)
C19 C 0.17023(9) -0.3387(3) 0.64640(9)
C20 C 0.21583(9) -0.2940(3) 0.67938(9)
C21 C 0.22281(9) -0.1420(3) 0.71034(9)
C22 C 0.18390(8) -0.0354(3) 0.70701(8)
C23 C 0.08182(9) -0.3075(3) 0.60515(9)
H19 H 0.0873 -0.4168 0.5895
H20 H 0.0665 -0.2174 0.5795
H21 H 0.0605 -0.3337 0.6228
C24 C 0.08476(8) 0.0383(3) 0.65974(7)
C25 C 0.09004(7) 0.1813(3) 0.69949(7)
C26 C 0.06533(8) 0.1655(3) 0.73158(8)
C27 C 0.06888(9) 0.2968(3) 0.76698(9)
C28 C 0.09755(9) 0.4476(3) 0.77124(9)
C29 C 0.12247(9) 0.4652(3) 0.73970(9)
C30 C 0.11875(9) 0.3341(3) 0.70443(8)
C31 C 0.06508(7) 0.1241(3) 0.60726(7)
C32 C 0.01517(8) 0.1394(3) 0.57951(8)
C33 C -0.00217(10) 0.2187(4) 0.53254(9)
C34 C 0.02967(9) 0.2830(3) 0.51206(9)
C35 C 0.07947(9) 0.2689(3) 0.53881(9)
C36 C 0.09701(8) 0.1896(3) 0.58596(8)
H22 H 0.1632(7) -0.444(3) 0.6253(8)
H23 H 0.2421(9) -0.368(3) 0.6813(9)
H24 H 0.2577(8) -0.114(3) 0.7360(8)
H25 H 0.1898(8) 0.070(3) 0.7287(8)
H26 H 0.0579(8) -0.040(3) 0.6599(7)
H27 H 0.0452(8) 0.060(3) 0.7288(8)
H28 H 0.0504(8) 0.279(3) 0.7899(8)
H29 H 0.1004(8) 0.539(3) 0.7961(9)
H30 H 0.1416(9) 0.568(4) 0.7425(9)
H31 H 0.1366(7) 0.346(3) 0.6824(8)
H32 H -0.0122(6) 0.081(2) 0.5940(6)
H33 H -0.0381(10) 0.225(4) 0.5134(10)
H34 H 0.0176(8) 0.334(3) 0.4792(9)
H35 H 0.1018(8) 0.316(3) 0.5255(8)
H36 H 0.1333(9) 0.179(3) 0.6046(8)
loop_
_geom_bond_atom_site_label_1
_geom_bond_atom_site_label_2
_geom_bond_site_symmetry_1
_geom_bond_site_symmetry_2
N1 B1 1_555 1_555
B1 C4 1_555 1_555
C1 N1 1_555 1_555
C2 C1 1_555 1_555
C3 C2 1_555 1_555
C4 C3 1_555 1_555
C5 N1 1_555 1_555
H1 C5 1_555 1_555
H2 C5 1_555 1_555
H3 C5 1_555 1_555
C6 B1 1_555 1_555
C7 C6 1_555 1_555
C8 C7 1_555 1_555
C9 C8 1_555 1_555
C10 C9 1_555 1_555
C11 C10 1_555 1_555
C12 C7 1_555 1_555
C13 C6 1_555 1_555
C14 C13 1_555 1_555
C15 C14 1_555 1_555
C16 C15 1_555 1_555
C17 C16 1_555 1_555
C18 C13 1_555 1_555
H4 C1 1_555 1_555
H5 C2 1_555 1_555
H6 C3 1_555 1_555
H7 C4 1_555 1_555
H8 C6 1_555 1_555
H9 C8 1_555 1_555
H10 C9 1_555 1_555
H11 C10 1_555 1_555
H12 C11 1_555 1_555
H13 C12 1_555 1_555
H14 C14 1_555 1_555
H15 C15 1_555 1_555
H16 C16 1_555 1_555
H17 C17 1_555 1_555
H18 C18 1_555 1_555
N2 B2 1_555 1_555
B2 C22 1_555 1_555
C19 N2 1_555 1_555
C20 C19 1_555 1_555
C21 C20 1_555 1_555
C22 C21 1_555 1_555
C23 N2 1_555 1_555
H19 C23 1_555 1_555
H20 C23 1_555 1_555
H21 C23 1_555 1_555
C24 B2 1_555 1_555
C25 C24 1_555 1_555
C26 C25 1_555 1_555
C27 C26 1_555 1_555
C28 C27 1_555 1_555
C29 C28 1_555 1_555
C30 C25 1_555 1_555
C31 C24 1_555 1_555
C32 C31 1_555 1_555
C33 C32 1_555 1_555
C34 C33 1_555 1_555
C35 C34 1_555 1_555
C36 C31 1_555 1_555
H22 C19 1_555 1_555
H23 C20 1_555 1_555
H24 C21 1_555 1_555
H25 C22 1_555 1_555
H26 C24 1_555 1_555
H27 C26 1_555 1_555
H28 C27 1_555 1_555
H29 C28 1_555 1_555
H30 C29 1_555 1_555
H31 C30 1_555 1_555
H32 C32 1_555 1_555
H33 C33 1_555 1_555
H34 C34 1_555 1_555
H35 C35 1_555 1_555
H36 C36 1_555 1_555
C11 C12 1_555 1_555
C17 C18 1_555 1_555
C29 C30 1_555 1_555
C35 C36 1_555 1_555

#END
