
#######################################################################
#
#                 Cambridge Crystallographic Data Centre
#                                CCDC 
#
#######################################################################
#
# If this CIF has been generated from an entry in the Cambridge 
# Structural Database, then it will include bibliographic, chemical, 
# crystal, experimental, refinement or atomic coordinate data resulting 
# from the CCDC's data processing and validation procedures.
#
#######################################################################

data_DOCLUC
_chemical_formula_moiety         'C24 H48 O7 Si1'
_chemical_name_systematic        
(2R,3R,4S,5S,6R)-3,5-Dimethyl-4-hydroxy-2-methoxy-6-((2'R)-3'-methoxy-2'-t-butyl(dimethyl)siloxypropyl)-2-((4''R,5''S)-2'',2'',5''-trimethyl-(1'',3'')dioxolan-4''-yl)-2,3,5,6-tetrahydro-4H-pyran
_symmetry_cell_setting           monoclinic
_symmetry_space_group_name_H-M   'P 21'
_symmetry_Int_Tables_number      4
_space_group_name_Hall           'P 2yb'
loop_
_symmetry_equiv_pos_site_id
_symmetry_equiv_pos_as_xyz
1 x,y,z
2 -x,1/2+y,-z
_cell_length_a                   8.416(2)
_cell_length_b                   15.727(5)
_cell_length_c                   11.472(3)
_cell_angle_alpha                90
_cell_angle_beta                 108.89(3)
_cell_angle_gamma                90
_cell_volume                     1436.64
_exptl_crystal_colour            colorless
_exptl_crystal_description       lath
_chemical_melting_point          359K
_cell_formula_units_Z            2
loop_
_atom_site_label
_atom_site_type_symbol
_atom_site_fract_x
_atom_site_fract_y
_atom_site_fract_z
C1 C -0.1195(17) 0.9365(11) 0.5566(13)
C2 C -0.0411(19) 0.8590(10) 0.6498(13)
H1 H 0.0493 0.8805 0.7212
H2 H 0.0039 0.8159 0.6073
H3 H -0.1290 0.8336 0.6775
C3 C -0.254(2) 0.8950(10) 0.4481(12)
H4 H -0.3039 0.9380 0.3851
H5 H -0.3413 0.8702 0.4769
H6 H -0.2025 0.8502 0.4129
C4 C -0.196(2) 1.0009(10) 0.6235(14)
H7 H -0.2444 1.0484 0.5681
H8 H -0.1079 1.0224 0.6965
H9 H -0.2837 0.9733 0.6487
C5 C -0.051(2) 1.0677(9) 0.3879(14)
H10 H 0.0344 1.0944 0.3590
H11 H -0.1029 1.1110 0.4256
H12 H -0.1376 1.0417 0.3180
C6 C 0.163(2) 0.9010(8) 0.4451(11)
H13 H 0.2479 0.9287 0.4162
H14 H 0.0829 0.8706 0.3766
H15 H 0.2183 0.8607 0.5109
C7 C 0.3508(15) 1.0440(6) 0.6704(9)
H16 H 0.4128 0.9917 0.6607
C8 C 0.3878(17) 1.1162(6) 0.5972(11)
H17 H 0.3140 1.1653 0.5968
H18 H 0.5061 1.1346 0.6336
C9 C 0.392(2) 1.1456(9) 0.3951(11)
H19 H 0.3696 1.1206 0.3131
H20 H 0.5097 1.1629 0.4279
H21 H 0.3195 1.1955 0.3892
C10 C 0.3997(14) 1.0693(5) 0.8075(8)
H22 H 0.5148 1.0931 0.8351
H23 H 0.3221 1.1139 0.8176
C11 C 0.3921(12) 0.9926(7) 0.8871(8)
H24 H 0.2977 0.9546 0.8403
C12 C 0.3729(13) 1.0145(5) 1.0112(8)
H25 H 0.2608 1.0423 0.9938
C13 C 0.5050(13) 1.0775(6) 1.0902(8)
H26 H 0.4813 1.0896 1.1667
H27 H 0.5004 1.1304 1.0441
H28 H 0.6172 1.0524 1.1098
C14 C 0.3648(12) 0.9305(7) 1.0749(8)
H29 H 0.2691 0.8956 1.0222
C15 C 0.5287(13) 0.8833(5) 1.0954(8)
H30 H 0.6227 0.9178 1.1512
C16 C 0.5202(15) 0.7969(6) 1.1580(9)
H31 H 0.6258 0.7660 1.1715
H32 H 0.4269 0.7632 1.1047
H33 H 0.5026 0.8068 1.2372
C17 C 0.5623(13) 0.8687(6) 0.9706(8)
C18 C 0.4441(16) 0.7898(7) 0.7810(8)
H34 H 0.3550 0.7486 0.7429
H35 H 0.5532 0.7653 0.7860
H36 H 0.4252 0.8417 0.7311
C19 C 0.7417(13) 0.8473(5) 0.9756(10)
H37 H 0.7531 0.8490 0.8915
C20 C 0.8833(12) 0.9004(6) 1.0694(9)
H38 H 0.8548 0.9154 1.1450
C21 C 0.9264(14) 0.9774(7) 1.0076(14)
H39 H 1.0169 1.0092 1.0672
H40 H 0.8271 1.0138 0.9767
H41 H 0.9633 0.9593 0.9388
C22 C 0.9615(15) 0.7580(6) 1.0608(11)
C23 C 1.0231(18) 0.7282(8) 0.9643(12)
H42 H 0.9799 0.7648 0.8918
H43 H 0.9850 0.6697 0.9424
H44 H 1.1461 0.7298 0.9933
C24 C 1.0221(16) 0.7015(7) 1.1784(11)
H45 H 0.9773 0.7240 1.2411
H46 H 1.1451 0.7017 1.2105
H47 H 0.9820 0.6431 1.1576
O1 O 0.1736(10) 1.0276(4) 0.6336(6)
O2 O 0.3578(13) 1.0857(5) 0.4737(7)
O3 O 0.5478(8) 0.9493(3) 0.9071(5)
O4 O 0.3418(9) 0.9473(5) 1.1905(6)
H48 H 0.2448 0.9322 1.1875
O5 O 0.4424(9) 0.8106(4) 0.9068(6)
O6 O 0.7844(9) 0.7624(4) 1.0316(6)
O7 O 1.0229(9) 0.8417(4) 1.0952(6)
Si1 Si 0.0496(5) 0.9832(2) 0.5056(3)
loop_
_geom_bond_atom_site_label_1
_geom_bond_atom_site_label_2
_geom_bond_site_symmetry_1
_geom_bond_site_symmetry_2
C1 C2 1_555 1_555
C2 H1 1_555 1_555
H2 C2 1_555 1_555
H3 C2 1_555 1_555
C3 C1 1_555 1_555
H4 C3 1_555 1_555
H5 C3 1_555 1_555
H6 C3 1_555 1_555
C4 C1 1_555 1_555
H7 C4 1_555 1_555
H8 C4 1_555 1_555
H9 C4 1_555 1_555
C5 H10 1_555 1_555
H11 C5 1_555 1_555
H12 C5 1_555 1_555
C6 H13 1_555 1_555
H14 C6 1_555 1_555
H15 C6 1_555 1_555
C7 H16 1_555 1_555
C8 C7 1_555 1_555
H17 C8 1_555 1_555
H18 C8 1_555 1_555
C9 H19 1_555 1_555
H20 C9 1_555 1_555
H21 C9 1_555 1_555
C10 C7 1_555 1_555
H22 C10 1_555 1_555
H23 C10 1_555 1_555
C11 C10 1_555 1_555
H24 C11 1_555 1_555
C12 C11 1_555 1_555
H25 C12 1_555 1_555
C13 C12 1_555 1_555
H26 C13 1_555 1_555
H27 C13 1_555 1_555
H28 C13 1_555 1_555
C14 C12 1_555 1_555
H29 C14 1_555 1_555
C15 C14 1_555 1_555
H30 C15 1_555 1_555
C16 C15 1_555 1_555
H31 C16 1_555 1_555
H32 C16 1_555 1_555
H33 C16 1_555 1_555
C17 C15 1_555 1_555
C18 H34 1_555 1_555
H35 C18 1_555 1_555
H36 C18 1_555 1_555
C19 C17 1_555 1_555
H37 C19 1_555 1_555
C20 C19 1_555 1_555
H38 C20 1_555 1_555
C21 C20 1_555 1_555
H39 C21 1_555 1_555
H40 C21 1_555 1_555
H41 C21 1_555 1_555
C22 C23 1_555 1_555
C23 H42 1_555 1_555
H43 C23 1_555 1_555
H44 C23 1_555 1_555
C24 C22 1_555 1_555
H45 C24 1_555 1_555
H46 C24 1_555 1_555
H47 C24 1_555 1_555
O1 C7 1_555 1_555
O2 C8 1_555 1_555
O3 C11 1_555 1_555
O4 C14 1_555 1_555
H48 O4 1_555 1_555
O5 C17 1_555 1_555
O6 C19 1_555 1_555
O7 C20 1_555 1_555
Si1 C1 1_555 1_555
C5 Si1 1_555 1_555
C6 Si1 1_555 1_555
C9 O2 1_555 1_555
C17 O3 1_555 1_555
C18 O5 1_555 1_555
C22 O7 1_555 1_555
C22 O6 1_555 1_555
O1 Si1 1_555 1_555

#END
