
#######################################################################
#
#                 Cambridge Crystallographic Data Centre
#                                CCDC 
#
#######################################################################
#
# If this CIF has been generated from an entry in the Cambridge 
# Structural Database, then it will include bibliographic, chemical, 
# crystal, experimental, refinement or atomic coordinate data resulting 
# from the CCDC's data processing and validation procedures.
#
#######################################################################

data_DOCVUM11
_chemical_formula_moiety         '2(C42 H70 O35),2(C12 H15 N1 O3),25(H2 O1)'
_chemical_name_systematic        
'bis(\b-Cyclodextrin) bis(N-acetyl-L-phenylalanine methyl ester) clathrate hydrate'
_symmetry_cell_setting           triclinic
_symmetry_space_group_name_H-M   'P 1'
_symmetry_Int_Tables_number      1
_space_group_name_Hall           'P 1'
loop_
_symmetry_equiv_pos_site_id
_symmetry_equiv_pos_as_xyz
1 x,y,z
_cell_length_a                   17.78(6)
_cell_length_b                   15.31(6)
_cell_length_c                   15.35(6)
_cell_angle_alpha                102.76(6)
_cell_angle_beta                 113.31(6)
_cell_angle_gamma                99.24(6)
_cell_volume                     3596.34
_exptl_crystal_colour            colorless
_exptl_crystal_description       parallelepiped
_cell_formula_units_Z            1
_exptl_crystal_recrystallization_method 'aqueous solution'
loop_
_atom_site_label
_atom_site_type_symbol
_atom_site_fract_x
_atom_site_fract_y
_atom_site_fract_z
C1 C 0.2037(2) -0.0031(3) 0.2469(3)
C2 C 0.2752(2) -0.0040(3) 0.2149(3)
C3 C 0.2896(3) 0.0812(3) 0.1816(3)
C4 C 0.2058(2) 0.0811(3) 0.0978(4)
C5 C 0.1356(3) 0.0734(4) 0.1306(4)
C6 C 0.0487(4) 0.0558(9) 0.0429(8)
O1 O 0.0203(6) -0.0037(7) -0.0245(8)
O3 O 0.35027(18) -0.0074(2) 0.2918(2)
O4 O 0.35095(19) 0.0794(3) 0.1438(3)
O5 O 0.22082(19) 0.1674(2) 0.0790(2)
O6 O 0.12796(19) -0.0056(2) 0.1659(2)
C7 C 0.2003(2) 0.1664(3) -0.0207(3)
C8 C 0.2804(2) 0.2246(3) -0.0163(3)
C9 C 0.3042(2) 0.3226(3) 0.0532(3)
C10 C 0.2284(2) 0.3617(3) 0.0135(3)
C11 C 0.1464(2) 0.2987(3) -0.0003(3)
C12 C 0.0684(2) 0.3283(3) -0.0550(3)
O7 O 0.34770(19) 0.1821(2) 0.0123(3)
O8 O 0.37609(18) 0.3779(2) 0.0543(2)
O9 O 0.24909(19) 0.4505(2) 0.0856(2)
O10 O 0.13165(17) 0.2048(2) -0.0581(2)
O11 O 0.06430(19) 0.3379(2) -0.1460(2)
C13 C 0.2358(2) 0.5264(3) 0.0501(3)
C14 C 0.3186(3) 0.6032(3) 0.0986(3)
C15 C 0.3482(2) 0.6435(3) 0.2096(3)
C16 C 0.2773(2) 0.6781(3) 0.2228(3)
C17 C 0.1963(3) 0.5970(3) 0.1743(3)
C18 C 0.1216(3) 0.6271(4) 0.1814(4)
O12 O 0.3811(2) 0.5662(2) 0.0788(3)
O13 O 0.42227(19) 0.7211(2) 0.2538(2)
O14 O 0.30196(18) 0.71529(19) 0.3269(2)
O15 O 0.17254(19) 0.5598(2) 0.0696(2)
O16 O 0.1070(2) 0.7017(3) 0.1407(3)
C19 C 0.3000(2) 0.8079(3) 0.3616(3)
C20 C 0.3854(2) 0.8598(2) 0.4516(3)
C21 C 0.3964(2) 0.8166(2) 0.5339(3)
C22 C 0.3215(2) 0.8154(2) 0.5582(3)
C23 C 0.2362(2) 0.7724(3) 0.4649(3)
C24 C 0.1615(3) 0.7901(3) 0.4855(3)
O17 O 0.45336(17) 0.8602(2) 0.4251(2)
O18 O 0.47178(17) 0.8675(2) 0.6226(2)
O19 O 0.32952(19) 0.75986(19) 0.6233(2)
O20 O 0.23269(17) 0.8126(2) 0.3876(2)
O21 O 0.1723(2) 0.8885(2) 0.5239(3)
C25 C 0.3273(3) 0.7974(3) 0.7140(3)
C26 C 0.4061(3) 0.7883(3) 0.7980(3)
C27 C 0.4023(2) 0.6869(3) 0.7850(3)
C28 C 0.3207(3) 0.6372(3) 0.7818(3)
C29 C 0.2436(3) 0.6498(3) 0.6984(4)
C30 C 0.1596(3) 0.6095(5) 0.6980(6)
O22 O 0.4823(2) 0.8385(2) 0.8025(2)
O23 O 0.47265(19) 0.6787(2) 0.8681(2)
O24 O 0.31496(17) 0.53978(19) 0.7615(2)
O25 O 0.2522(2) 0.7472(2) 0.7128(3)
O26 O 0.1608(6) 0.6454(9) 0.7879(7)
C31 C 0.3048(2) 0.4961(3) 0.8294(3)
C32 C 0.3761(2) 0.4484(3) 0.8624(3)
C33 C 0.3681(2) 0.3778(2) 0.7709(3)
C34 C 0.2807(2) 0.3081(2) 0.7216(3)
C35 C 0.2094(2) 0.3564(3) 0.6979(3)
C36 C 0.1235(2) 0.2896(3) 0.6652(3)
O28 O 0.45735(18) 0.51358(19) 0.9156(2)
O29 O 0.43050(18) 0.3282(2) 0.7979(2)
O30 O 0.27110(17) 0.24680(19) 0.6300(2)
O31 O 0.22494(16) 0.42967(19) 0.7852(2)
O32 O 0.12526(18) 0.2436(2) 0.7372(2)
C37 C 0.2484(3) 0.1499(3) 0.6163(3)
C38 C 0.3162(2) 0.1097(3) 0.5999(3)
C39 C 0.3175(2) 0.1188(2) 0.5037(3)
C40 C 0.2302(2) 0.0657(3) 0.4189(3)
C41 C 0.1633(3) 0.1054(4) 0.4406(4)
O33 O 0.39772(19) 0.1526(2) 0.6826(2)
O34 O 0.37809(17) 0.0785(2) 0.4847(2)
O35 O 0.22905(18) 0.07799(19) 0.3290(2)
O36 O 0.1687(2) 0.1037(2) 0.5349(3)
C42 C 0.0731(3) 0.0423(4) 0.3702(4)
O37 O 0.0573(2) -0.0485(3) 0.3814(3)
H1 H 0.1932 -0.0594 0.2679
H2 H 0.2558 -0.0610 0.1563
H3 H 0.3101 0.1391 0.2395
H4 H 0.1891 0.0282 0.0363
H5 H 0.1476 0.1318 0.1844
H6 H 0.0071 0.0548 0.0708
H7 H 0.0512 0.1119 0.0210
H8 H 0.1855 0.1009 -0.0643
H9 H 0.2671 0.2285 -0.0848
H10 H 0.3169 0.3208 0.1222
H11 H 0.2206 0.3708 -0.0518
H12 H 0.1509 0.2992 0.0669
H13 H 0.0166 0.2812 -0.0685
H14 H 0.0703 0.3884 -0.0125
H15 H 0.2160 0.5053 -0.0238
H16 H 0.3091 0.6540 0.0677
H17 H 0.3600 0.5945 0.2427
H18 H 0.2666 0.7279 0.1905
H19 H 0.2070 0.5473 0.2067
H20 H 0.0699 0.5734 0.1448
H21 H 0.1328 0.6474 0.2523
H22 H 0.2929 0.8374 0.3080
H23 H 0.3852 0.9259 0.4764
H24 H 0.3989 0.7512 0.5109
H25 H 0.3247 0.8802 0.5933
H26 H 0.2274 0.7037 0.4394
H27 H 0.1077 0.7624 0.4229
H28 H 0.1574 0.7594 0.5345
H29 H 0.3286 0.8646 0.7247
H30 H 0.4049 0.8156 0.8627
H31 H 0.4049 0.6580 0.7214
H32 H 0.3205 0.6624 0.8476
H33 H 0.2413 0.6198 0.6323
H34 H 0.1129 0.6233 0.6458
H35 H 0.1480 0.5410 0.6815
H36 H 0.519(3) 0.692(4) 0.863(4)
H37 H 0.3101 0.5442 0.8890
H38 H 0.3673 0.4141 0.9076
H39 H 0.3748 0.4100 0.7233
H40 H 0.2769 0.2712 0.7666
H41 H 0.2068 0.3836 0.6436
H42 H 0.0801 0.3245 0.6555
H43 H 0.1070 0.2425 0.6005
H44 H 0.460(3) 0.530(4) 0.881(4)
H45 H 0.2469 0.1406 0.6781
H46 H 0.3010 0.0418 0.5927
H47 H 0.3302 0.1859 0.5074
H48 H 0.2187 -0.0020 0.4130
H49 H 0.1684 0.1701 0.4360
H50 H 0.0317 0.0733 0.3821
H51 H 0.0629 0.0350 0.3004
C44 C 0.7267(2) 0.2688(2) 0.8610(3)
C45 C 0.6589(2) 0.3036(2) 0.8843(3)
C46 C 0.6619(2) 0.4003(3) 0.8744(3)
C47 C 0.7504(2) 0.4640(2) 0.9470(3)
C48 C 0.8178(2) 0.4243(2) 0.9260(3)
C49 C 0.9079(2) 0.4767(3) 1.0062(3)
O39 O 0.57783(18) 0.2404(2) 0.8170(2)
O40 O 0.59879(16) 0.43227(19) 0.8976(2)
O41 O 0.75396(17) 0.55201(19) 0.9306(2)
O42 O 0.80821(16) 0.32976(19) 0.9278(2)
O43 O 0.91875(18) 0.4678(2) 1.1011(2)
C50 C 0.7841(3) 0.6324(3) 1.0146(3)
C51 C 0.7159(3) 0.6838(3) 0.9981(3)
C52 C 0.6998(2) 0.7155(3) 0.9064(3)
C53 C 0.7844(3) 0.7762(3) 0.9228(4)
C54 C 0.8519(3) 0.7213(4) 0.9423(4)
C55 C 0.9390(3) 0.7806(4) 0.9657(6)
O44 O 0.6399(2) 0.6250(2) 0.9872(3)
O45 O 0.6365(2) 0.7649(2) 0.8937(3)
O46 O 0.77140(19) 0.7981(2) 0.8335(3)
O47 O 0.8608(2) 0.6897(2) 1.0270(3)
O48 O 0.9602(4) 0.8543(5) 1.0529(5)
C56 C 0.7892(2) 0.8938(3) 0.8402(3)
C57 C 0.7090(2) 0.9088(3) 0.7649(3)
C58 C 0.6872(2) 0.8481(3) 0.6619(3)
C59 C 0.7630(2) 0.8767(3) 0.6409(3)
C60 C 0.8450(2) 0.8688(3) 0.7212(3)
C61 C 0.9234(2) 0.9109(3) 0.7111(4)
O50 O 0.64070(18) 0.8844(2) 0.7888(2)
O51 O 0.61332(17) 0.8649(2) 0.5933(2)
O52 O 0.74412(18) 0.81177(19) 0.5466(2)
O53 O 0.85855(18) 0.9197(2) 0.8194(2)
O54 O 0.92635(19) 1.0040(2) 0.7119(2)
C62 C 0.7569(2) 0.8485(3) 0.4761(3)
C63 C 0.6721(2) 0.8159(3) 0.3807(3)
C64 C 0.6471(2) 0.7103(2) 0.3371(3)
C65 C 0.7190(3) 0.6816(3) 0.3191(3)
C66 C 0.8015(3) 0.7182(3) 0.4169(4)
O55 O 0.8869(5) 0.7266(4) 0.3286(7)
C67 C 0.8777(3) 0.6973(4) 0.4046(6)
O56 O 0.60989(18) 0.8461(2) 0.4048(2)
O57 O 0.57031(19) 0.6833(2) 0.2459(2)
O58 O 0.69716(18) 0.58282(19) 0.2826(2)
O59 O 0.82056(18) 0.8180(2) 0.4549(3)
C68 C 0.6941(3) 0.5431(3) 0.1891(3)
C69 C 0.6086(2) 0.4727(3) 0.1225(3)
C70 C 0.5982(2) 0.3962(2) 0.1687(3)
C71 C 0.6719(2) 0.3524(2) 0.1841(3)
C72 C 0.7584(2) 0.4266(3) 0.2414(3)
C73 C 0.8293(2) 0.3844(3) 0.2385(3)
O60 O 0.54167(19) 0.5168(2) 0.1108(2)
O61 O 0.52121(17) 0.32423(19) 0.1048(2)
O62 O 0.66690(17) 0.29073(19) 0.2405(2)
O63 O 0.75989(19) 0.49967(19) 0.1976(2)
O64 O 0.8146(2) 0.3407(2) 0.1392(3)
C74 C 0.6675(2) 0.1982(3) 0.2042(3)
C75 C 0.5866(2) 0.1326(2) 0.1905(3)
C76 C 0.5864(2) 0.1445(2) 0.2907(3)
C77 C 0.6674(2) 0.1256(3) 0.3603(3)
C78 C 0.7471(2) 0.1869(3) 0.3660(3)
C79 C 0.8253(2) 0.1558(3) 0.4186(3)
O65 O 0.51232(18) 0.1479(2) 0.1213(2)
O66 O 0.51267(17) 0.0798(2) 0.2772(2)
O67 O 0.67147(17) 0.14784(18) 0.4575(2)
O68 O 0.74030(18) 0.1786(2) 0.2677(2)
O69 O 0.8145(2) 0.0615(3) 0.3652(4)
C80 C 0.6772(2) 0.0764(2) 0.5033(3)
C81 C 0.6030(2) 0.0614(2) 0.5298(3)
C82 C 0.6113(2) 0.1488(2) 0.6051(3)
C83 C 0.6976(2) 0.1746(2) 0.6964(3)
C84 C 0.7697(2) 0.1839(2) 0.6655(3)
C85 C 0.8553(2) 0.1975(2) 0.7513(3)
O70 O 0.52457(17) 0.03783(19) 0.4423(2)
O71 O 0.54315(17) 0.1312(2) 0.6311(2)
O72 O 0.70750(16) 0.26276(18) 0.7613(2)
O73 O 0.75535(16) 0.10075(19) 0.5891(2)
O74 O 0.85561(17) 0.1237(2) 0.7941(2)
H54 H 0.7248 0.2053 0.8686
H55 H 0.6704 0.3064 0.9543
H56 H 0.6503 0.3982 0.8046
H57 H 0.7606 0.4705 1.0174
H58 H 0.8125 0.4269 0.8594
H59 H 0.9493 0.4513 0.9879
H60 H 0.9192 0.5434 1.0107
H61 H 0.552(3) 0.238(4) 0.845(4)
H62 H 0.7951 0.6130 1.0757
H63 H 0.7365 0.7401 1.0578
H64 H 0.6786 0.6597 0.8461
H65 H 0.8045 0.8346 0.9801
H66 H 0.8327 0.6661 0.8820
H67 H 0.9812 0.7442 0.9782
H68 H 0.9362 0.8048 0.9101
H69 H 0.623(3) 0.791(4) 0.859(4)
H70 H 0.8032 0.9325 0.9091
H71 H 0.7198 0.9757 0.7675
H72 H 0.6759 0.7809 0.6581
H73 H 0.7703 0.9417 0.6371
H74 H 0.8405 0.8017 0.7160
H75 H 0.9754 0.9095 0.7671
H76 H 0.9210 0.8741 0.6478
H77 H 0.7747 0.9181 0.5028
H78 H 0.6792 0.8446 0.3309
H79 H 0.6368 0.6810 0.3849
H80 H 0.7271 0.7083 0.2685
H81 H 0.7935 0.6902 0.4667
H82 H 0.9299 0.7291 0.4682
H83 H 0.8709 0.6294 0.3890
H84 H 0.7003 0.5934 0.1585
H85 H 0.6057 0.4447 0.0556
H86 H 0.5985 0.4232 0.2345
H87 H 0.6658 0.3162 0.1178
H88 H 0.7697 0.4534 0.3124
H89 H 0.8840 0.4340 0.2732
H90 H 0.8342 0.3378 0.2747
H91 H 0.477(3) 0.338(4) 0.100(4)
H92 H 0.6671 0.1886 0.1374
H93 H 0.5871 0.0671 0.1635
H94 H 0.5857 0.2095 0.3194
H95 H 0.6647 0.0583 0.3363
H96 H 0.7558 0.2534 0.4021
H97 H 0.8762 0.1973 0.4225
H98 H 0.8343 0.1604 0.4875
H99 H 0.6719 0.0175 0.4546
H100 H 0.6041 0.0093 0.5592
H101 H 0.6077 0.2006 0.5752
H102 H 0.6993 0.1264 0.7312
H103 H 0.7721 0.2381 0.6394
H104 H 0.8993 0.2011 0.7271
H105 H 0.8701 0.2573 0.8034
O75 O 0.4663(2) 0.0243(2) 0.7574(3)
O76 O 0.0511(2) 0.0574(2) 0.6611(3)
O77 O 0.9593(3) 0.6352(3) 0.2326(3)
O78 O 0.7706(3) 0.1526(3) 0.0536(3)
O79 O 0.8964(2) 0.1501(3) 0.9890(3)
O80 O 0.5282(3) 0.8919(3) 0.2379(4)
O81 O 0.4957(5) 1.0053(4) 0.9518(4)
O82 O 0.4466(4) 0.7227(4) 0.0457(3)
O83 O 0.6098(4) -0.0927(3) 0.0315(4)
O84 O 0.1738(3) 0.9637(3) 0.7010(3)
O85 O 0.6417(2) 1.0544(3) 0.8666(3)
O87 O 0.0973(7) 0.8046(8) 0.7406(11)
O88 O 0.2025(11) 0.8813(10) 0.8406(12)
O89 O 0.2915(5) 0.7722(7) -0.0298(7)
O94 O 0.3332(9) 0.9429(9) 0.9720(9)
O96 O 0.0644(14) 0.8324(16) 0.2772(19)
O99 O 0.5176(3) 0.1911(4) 0.9378(4)
O102 O 0.7483(12) 0.9558(14) 0.2083(15)
O104 O 0.6434(7) 0.7765(8) 1.1333(7)
O107 O 0.3271(4) 0.0915(6) 0.8311(5)
O109 O 0.9424(3) -0.0251(3) 0.4583(3)
O113 O 0.8257(6) 0.8437(7) 0.2562(7)
C149 C 0.7495(3) 0.4885(4) 0.5656(4)
C150 C 0.7373(4) 0.5741(5) 0.6042(6)
C151 C 0.7083(3) 0.4076(5) 0.5746(5)
C152 C 0.6858(5) 0.5789(6) 0.6526(7)
C153 C 0.6562(4) 0.4124(6) 0.6225(6)
C154 C 0.6451(4) 0.4980(6) 0.6617(6)
N7 N 0.9890(4) 0.6832(4) 0.7953(5)
C158 C 0.9231(3) 0.5951(4) 0.7340(4)
C159 C 0.9395(4) 0.5451(5) 0.6499(5)
O137 O 0.9596(5) 0.5866(6) 0.5963(5)
C160 C 0.8340(4) 0.6132(5) 0.6885(5)
C167 C 1.1077(5) 0.7893(6) 0.9504(6)
C168 C 1.0316(4) 0.7043(5) 0.8928(5)
O138 O 1.0083(5) 0.6544(7) 0.9360(4)
O139 O 0.9309(5) 0.4477(5) 0.6341(6)
C169 C 0.9402(5) 0.4079(7) 0.5466(7)
O2? O -0.0154(3) 0.0386(4) 0.0681(4)
O27? O 0.0937(10) 0.636(2) 0.629(3)
C43? C 0.0766(9) 0.0871(11) 0.3416(12)
O38? O 0.0245(8) 0.1386(10) 0.3600(10)
O49? O 0.9983(9) 0.7198(11) 0.9498(11)
O86? O 0.6197(12) 1.0414(14) 0.9156(15)
O90? O 0.3589(7) 0.8216(8) 0.0700(8)
O91? O 0.0863(5) 0.8598(6) 0.9099(6)
O92? O 0.1810(8) 0.7712(7) 0.0339(8)
O93? O 0.0122(3) 0.3216(4) 0.1198(4)
O95? O 0.3683(7) 0.9601(7) 0.9891(7)
O97? O 0.0398(6) 0.8088(6) 0.2228(7)
O98? O 0.0169(7) 0.8056(6) 0.2214(7)
O100? O 0.4824(5) 0.2203(5) 0.9165(6)
O101? O 0.7770(4) 1.0187(4) 0.1552(5)
O103? O 0.8674(11) 1.0731(13) 0.1757(14)
O105? O 0.6172(9) 0.7513(9) 1.1140(9)
O106? O 0.572(3) 0.734(3) 1.091(3)
O108? O 0.3403(6) 0.0439(8) 0.8370(8)
O110? O 0.9636(9) 0.0372(11) 0.4622(12)
O111? O 0.9719(7) 0.7108(9) 0.7309(9)
O112? O 0.0546(7) 0.5656(8) 0.3837(9)
O114? O 0.8637(9) 0.8728(11) 0.1972(11)
O115? O 0.8969(5) 0.9389(6) 0.1582(7)
O116? O 0.8819(13) 0.8812(16) 0.2675(17)
O117? O 0.9460(9) 0.8828(10) 0.1065(11)
O118? O 0.0728(9) 0.5194(10) 0.8441(11)
N1? N 0.08019(18) 0.3023(2) 0.3151(2)
C86? C 0.15721(16) 0.37555(19) 0.3884(2)
C87? C 0.14305(17) 0.4664(2) 0.3926(3)
O119? O 0.1693(2) 0.5239(2) 0.3624(3)
C88? C 0.23360(18) 0.3643(2) 0.3652(3)
C89? C 0.32101(17) 0.4326(2) 0.4401(3)
C90? C 0.36788(17) 0.4168(3) 0.5299(3)
C91? C 0.3523(2) 0.5125(3) 0.4215(3)
C92? C 0.44478(17) 0.4809(4) 0.6008(4)
C93? C 0.4297(2) 0.5762(3) 0.4923(4)
C94? C 0.47579(17) 0.5607(4) 0.5818(4)
C95? C -0.0514(2) 0.1847(3) 0.2575(4)
C96? C 0.02878(19) 0.2549(2) 0.3413(3)
O120? O 0.0474(2) 0.2619(3) 0.4321(3)
O121? O 0.08925(19) 0.4781(2) 0.4336(3)
C97? C 0.0624(2) 0.5641(2) 0.4382(5)
N2? N 0.1189(3) 0.3175(5) 0.3152(5)
C98? C 0.2118(3) 0.3430(4) 0.3653(4)
C99? C 0.2485(4) 0.4473(4) 0.4126(5)
O122? O 0.2101(5) 0.5038(5) 0.3782(8)
C100? C 0.2465(4) 0.3094(5) 0.2887(4)
C101? C 0.3437(4) 0.3403(5) 0.3277(5)
C102? C 0.3802(4) 0.4138(6) 0.3036(6)
C103? C 0.3956(4) 0.2934(5) 0.3826(7)
C104? C 0.4675(4) 0.4390(7) 0.3330(7)
C105? C 0.4833(4) 0.3192(7) 0.4127(8)
C106? C 0.5190(4) 0.3918(7) 0.3878(8)
C107? C -0.0232(4) 0.2803(8) 0.3074(8)
C108? C 0.0730(4) 0.3036(6) 0.3627(7)
O123? O 0.1091(5) 0.3097(7) 0.4522(7)
O124? O 0.3293(4) 0.4786(5) 0.4991(5)
C109? C 0.3732(5) 0.5698(5) 0.5087(9)
N3? N 0.1987(4) 0.3441(6) 0.2974(6)
C110? C 0.2828(4) 0.4105(5) 0.3569(5)
C111? C 0.3429(5) 0.3834(7) 0.3226(6)
O125? O 0.3502(6) 0.3072(7) 0.2955(8)
C112? C 0.3121(5) 0.4216(6) 0.4699(5)
C113? C 0.3999(5) 0.4901(7) 0.5433(5)
C114? C 0.4543(6) 0.4669(9) 0.6240(6)
C115? C 0.4240(5) 0.5772(6) 0.5331(7)
C116? C 0.5315(6) 0.5306(10) 0.6944(6)
C117? C 0.5018(6) 0.6406(7) 0.6031(8)
C118? C 0.5556(6) 0.6175(9) 0.6837(7)
C119? C 0.0452(4) 0.2953(9) 0.2097(8)
C120? C 0.1282(4) 0.3701(7) 0.2775(7)
O126? O 0.1283(5) 0.4520(8) 0.3179(8)
O127? O 0.3913(5) 0.4600(8) 0.3201(6)
C121? C 0.4770(6) 0.4585(11) 0.3322(8)
N4? N 0.1219(12) 0.3802(18) 0.3045(18)
C122? C 0.2074(12) 0.3678(14) 0.3422(15)
C123? C 0.2599(12) 0.4279(16) 0.4438(15)
O128? O 0.3229(13) 0.420(2) 0.5057(16)
C124? C 0.2470(13) 0.3834(18) 0.2702(15)
C125? C 0.3446(13) 0.4215(18) 0.3185(18)
C126? C 0.3823(14) 0.5174(18) 0.364(2)
C127? C 0.3956(15) 0.362(2) 0.313(2)
C128? C 0.4701(15) 0.554(2) 0.403(3)
C129? C 0.4835(15) 0.398(3) 0.353(3)
C130? C 0.5206(14) 0.494(3) 0.397(3)
C131? C -0.0306(12) 0.335(3) 0.242(3)
C132? C 0.0523(12) 0.313(2) 0.280(2)
O129? O 0.0543(15) 0.2308(19) 0.283(3)
O130? O 0.2282(15) 0.5009(16) 0.460(2)
C133? C 0.2854(18) 0.584(2) 0.545(2)
N5? N 0.8996(2) 0.5353(3) 0.7385(2)
C134? C 0.82422(18) 0.4796(2) 0.6459(2)
C135? C 0.84334(19) 0.4687(3) 0.5574(2)
O131? O 0.8252(2) 0.5118(4) 0.5008(3)
C136? C 0.7505(2) 0.5271(2) 0.6296(3)
C137? C 0.66121(19) 0.4668(3) 0.5500(3)
C138? C 0.62008(18) 0.3909(3) 0.5667(3)
C139? C 0.6222(2) 0.4844(3) 0.4595(3)
C140? C 0.54128(18) 0.3325(4) 0.4931(4)
C141? C 0.5430(2) 0.4264(4) 0.3862(3)
C142? C 0.50274(18) 0.3502(4) 0.4029(4)
C143? C 1.0371(2) 0.5569(4) 0.8788(3)
C144? C 0.9510(2) 0.4968(3) 0.7964(3)
O132? O 0.9281(2) 0.4121(3) 0.7825(3)
O133? O 0.8939(2) 0.4113(4) 0.5576(3)
C145? C 0.9346(3) 0.4108(5) 0.4937(3)
N6? N 0.9426(3) 0.5137(4) 0.6729(4)
C146? C 0.8903(3) 0.4515(4) 0.5707(4)
C147? C 0.9403(4) 0.4484(5) 0.5109(5)
O134? O 0.9559(5) 0.5135(6) 0.4772(6)
C148? C 0.8110(3) 0.4855(5) 0.5182(4)
C155? C 1.0159(4) 0.5512(8) 0.8544(4)
C156? C 0.9656(3) 0.4827(6) 0.7500(4)
O135? O 0.9458(4) 0.3977(6) 0.7365(5)
O136? O 0.9691(5) 0.3670(6) 0.4947(6)
C157? C 1.0222(5) 0.3769(7) 0.4460(7)
C161? C 0.7576(3) 0.5267(6) 0.6216(5)
C162? C 0.7154(4) 0.4792(7) 0.6647(7)
C163? C 0.7323(4) 0.4925(6) 0.5190(5)
C164? C 0.6495(5) 0.3980(8) 0.6063(8)
C165? C 0.6660(4) 0.4114(7) 0.4606(6)
C166? C 0.6246(4) 0.3642(8) 0.5042(8)
H52? H 0.0908 0.1035 0.2899
H53? H 0.0457 0.0200 0.3152
loop_
_geom_bond_atom_site_label_1
_geom_bond_atom_site_label_2
_geom_bond_site_symmetry_1
_geom_bond_site_symmetry_2
C1 C2 1_555 1_555
C2 C3 1_555 1_555
C3 C4 1_555 1_555
C4 C5 1_555 1_555
C5 C6 1_555 1_555
C6 O1 1_555 1_555
O3 C2 1_555 1_555
O4 C3 1_555 1_555
O5 C4 1_555 1_555
O6 C1 1_555 1_555
C7 O5 1_555 1_555
C8 C7 1_555 1_555
C9 C8 1_555 1_555
C10 C9 1_555 1_555
C11 C10 1_555 1_555
C12 C11 1_555 1_555
O7 C8 1_555 1_555
O8 C9 1_555 1_555
O9 C10 1_555 1_555
O10 C7 1_555 1_555
O11 C12 1_555 1_555
C13 O9 1_555 1_555
C14 C13 1_555 1_555
C15 C14 1_555 1_555
C16 C15 1_555 1_555
C17 C16 1_555 1_555
C18 C17 1_555 1_555
O12 C14 1_555 1_555
O13 C15 1_555 1_555
O14 C16 1_555 1_555
O15 C13 1_555 1_555
O16 C18 1_555 1_555
C19 O14 1_555 1_555
C20 C19 1_555 1_555
C21 C20 1_555 1_555
C22 C21 1_555 1_555
C23 C22 1_555 1_555
C24 C23 1_555 1_555
O17 C20 1_555 1_555
O18 C21 1_555 1_555
O19 C22 1_555 1_555
O20 C19 1_555 1_555
O21 C24 1_555 1_555
C25 O19 1_555 1_555
C26 C25 1_555 1_555
C27 C26 1_555 1_555
C28 C27 1_555 1_555
C29 C28 1_555 1_555
C30 C29 1_555 1_555
O22 C26 1_555 1_555
O23 C27 1_555 1_555
O24 C28 1_555 1_555
O25 C25 1_555 1_555
O26 C30 1_555 1_555
C31 O24 1_555 1_555
C32 C31 1_555 1_555
C33 C32 1_555 1_555
C34 C33 1_555 1_555
C35 C34 1_555 1_555
C36 C35 1_555 1_555
O28 C32 1_555 1_555
O29 C33 1_555 1_555
O30 C34 1_555 1_555
O31 C31 1_555 1_555
O32 C36 1_555 1_555
C37 O30 1_555 1_555
C38 C37 1_555 1_555
C39 C38 1_555 1_555
C40 C39 1_555 1_555
C41 C40 1_555 1_555
O33 C38 1_555 1_555
O34 C39 1_555 1_555
O35 C1 1_555 1_555
O36 C37 1_555 1_555
C42 C41 1_555 1_555
O37 C42 1_555 1_555
C44 C45 1_555 1_555
C45 C46 1_555 1_555
C46 C47 1_555 1_555
C47 C48 1_555 1_555
C48 C49 1_555 1_555
C49 O43 1_555 1_555
O39 C45 1_555 1_555
O40 C46 1_555 1_555
O41 C47 1_555 1_555
O42 C44 1_555 1_555
C50 O41 1_555 1_555
C51 C50 1_555 1_555
C52 C51 1_555 1_555
C53 C52 1_555 1_555
C54 C53 1_555 1_555
C55 C54 1_555 1_555
O44 C51 1_555 1_555
O45 C52 1_555 1_555
O46 C53 1_555 1_555
O47 C50 1_555 1_555
O48 C55 1_555 1_555
C56 O46 1_555 1_555
C57 C56 1_555 1_555
C58 C57 1_555 1_555
C59 C58 1_555 1_555
C60 C59 1_555 1_555
C61 C60 1_555 1_555
O50 C57 1_555 1_555
O51 C58 1_555 1_555
O52 C59 1_555 1_555
O53 C56 1_555 1_555
O54 C61 1_555 1_555
C62 O52 1_555 1_555
C63 C62 1_555 1_555
C64 C63 1_555 1_555
C65 C64 1_555 1_555
C66 C65 1_555 1_555
O55 C67 1_555 1_555
C67 C66 1_555 1_555
O56 C63 1_555 1_555
O57 C64 1_555 1_555
O58 C65 1_555 1_555
O59 C62 1_555 1_555
C68 O58 1_555 1_555
C69 C68 1_555 1_555
C70 C69 1_555 1_555
C71 C70 1_555 1_555
C72 C71 1_555 1_555
C73 C72 1_555 1_555
O60 C69 1_555 1_555
O61 C70 1_555 1_555
O62 C71 1_555 1_555
O63 C68 1_555 1_555
O64 C73 1_555 1_555
C74 O62 1_555 1_555
C75 C74 1_555 1_555
C76 C75 1_555 1_555
C77 C76 1_555 1_555
C78 C77 1_555 1_555
C79 C78 1_555 1_555
O65 C75 1_555 1_555
O66 C76 1_555 1_555
O67 C77 1_555 1_555
O68 C74 1_555 1_555
O69 C79 1_555 1_555
C80 O67 1_555 1_555
C81 C80 1_555 1_555
C82 C81 1_555 1_555
C83 C82 1_555 1_555
C84 C83 1_555 1_555
C85 C84 1_555 1_555
O70 C81 1_555 1_555
O71 C82 1_555 1_555
O72 C44 1_555 1_555
O73 C80 1_555 1_555
O74 C85 1_555 1_555
C149 C150 1_555 1_555
C150 C152 1_555 1_555
C151 C149 1_555 1_555
C152 C154 1_555 1_555
C153 C151 1_555 1_555
C154 C153 1_555 1_555
N7 C158 1_555 1_555
C158 C159 1_555 1_555
C159 O137 1_555 1_555
C160 C150 1_555 1_555
C167 C168 1_555 1_555
C168 N7 1_555 1_555
O138 C168 1_555 1_555
O139 C159 1_555 1_555
C169 O139 1_555 1_555
H1 C1 1_555 1_555
H2 C2 1_555 1_555
H3 C3 1_555 1_555
H4 C4 1_555 1_555
H5 C5 1_555 1_555
H6 C6 1_555 1_555
H7 C6 1_555 1_555
H8 C7 1_555 1_555
H9 C8 1_555 1_555
H10 C9 1_555 1_555
H11 C10 1_555 1_555
H12 C11 1_555 1_555
H13 C12 1_555 1_555
H14 C12 1_555 1_555
H15 C13 1_555 1_555
H16 C14 1_555 1_555
H17 C15 1_555 1_555
H18 C16 1_555 1_555
H19 C17 1_555 1_555
H20 C18 1_555 1_555
H21 C18 1_555 1_555
H22 C19 1_555 1_555
H23 C20 1_555 1_555
H24 C21 1_555 1_555
H25 C22 1_555 1_555
H26 C23 1_555 1_555
H27 C24 1_555 1_555
H28 C24 1_555 1_555
H29 C25 1_555 1_555
H30 C26 1_555 1_555
H31 C27 1_555 1_555
H32 C28 1_555 1_555
H33 C29 1_555 1_555
H34 C30 1_555 1_555
H35 C30 1_555 1_555
H36 O23 1_555 1_555
H37 C31 1_555 1_555
H38 C32 1_555 1_555
H39 C33 1_555 1_555
H40 C34 1_555 1_555
H41 C35 1_555 1_555
H42 C36 1_555 1_555
H43 C36 1_555 1_555
H44 O28 1_555 1_555
H45 C37 1_555 1_555
H46 C38 1_555 1_555
H47 C39 1_555 1_555
H48 C40 1_555 1_555
H49 C41 1_555 1_555
H50 C42 1_555 1_555
H51 C42 1_555 1_555
H54 C44 1_555 1_555
H55 C45 1_555 1_555
H56 C46 1_555 1_555
H57 C47 1_555 1_555
H58 C48 1_555 1_555
H59 C49 1_555 1_555
H60 C49 1_555 1_555
H61 O39 1_555 1_555
H62 C50 1_555 1_555
H63 C51 1_555 1_555
H64 C52 1_555 1_555
H65 C53 1_555 1_555
H66 C54 1_555 1_555
H67 C55 1_555 1_555
H68 C55 1_555 1_555
H69 O45 1_555 1_555
H70 C56 1_555 1_555
H71 C57 1_555 1_555
H72 C58 1_555 1_555
H73 C59 1_555 1_555
H74 C60 1_555 1_555
H75 C61 1_555 1_555
H76 C61 1_555 1_555
H77 C62 1_555 1_555
H78 C63 1_555 1_555
H79 C64 1_555 1_555
H80 C65 1_555 1_555
H81 C66 1_555 1_555
H82 C67 1_555 1_555
H83 C67 1_555 1_555
H84 C68 1_555 1_555
H85 C69 1_555 1_555
H86 C70 1_555 1_555
H87 C71 1_555 1_555
H88 C72 1_555 1_555
H89 C73 1_555 1_555
H90 C73 1_555 1_555
H91 O61 1_555 1_555
H92 C74 1_555 1_555
H93 C75 1_555 1_555
H94 C76 1_555 1_555
H95 C77 1_555 1_555
H96 C78 1_555 1_555
H97 C79 1_555 1_555
H98 C79 1_555 1_555
H99 C80 1_555 1_555
H100 C81 1_555 1_555
H101 C82 1_555 1_555
H102 C83 1_555 1_555
H103 C84 1_555 1_555
H104 C85 1_555 1_555
H105 C85 1_555 1_555
C5 O6 1_555 1_555
C11 O10 1_555 1_555
C17 O15 1_555 1_555
C23 O20 1_555 1_555
C29 O25 1_555 1_555
C35 O31 1_555 1_555
C40 O35 1_555 1_555
C41 O36 1_555 1_555
C48 O42 1_555 1_555
C54 O47 1_555 1_555
C60 O53 1_555 1_555
C66 O59 1_555 1_555
C72 O63 1_555 1_555
C78 O68 1_555 1_555
C83 O72 1_555 1_555
C84 O73 1_555 1_555
C158 C160 1_555 1_555

#END
