
#######################################################################
#
#                 Cambridge Crystallographic Data Centre
#                                CCDC 
#
#######################################################################
#
# If this CIF has been generated from an entry in the Cambridge 
# Structural Database, then it will include bibliographic, chemical, 
# crystal, experimental, refinement or atomic coordinate data resulting 
# from the CCDC's data processing and validation procedures.
#
#######################################################################

data_DOCXIE
_chemical_formula_moiety         'C22 H12 S2'
_chemical_name_systematic        
anthra[2',3':4,5]thieno[3,2-b][1]benzothiophene
_symmetry_cell_setting           triclinic
_symmetry_space_group_name_H-M   'P 1'
_symmetry_Int_Tables_number      1
_space_group_name_Hall           'P 1'
loop_
_symmetry_equiv_pos_site_id
_symmetry_equiv_pos_as_xyz
1 x,y,z
_cell_length_a                   6.1853(2)
_cell_length_b                   7.5335(3)
_cell_length_c                   16.1995(6)
_cell_angle_alpha                91.001(7)
_cell_angle_beta                 92.437(7)
_cell_angle_gamma                90.097(7)
_cell_volume                     754.047
_exptl_crystal_colour            yellow
_exptl_crystal_description       platelet
_cell_formula_units_Z            2
loop_
_atom_site_label
_atom_site_type_symbol
_atom_site_fract_x
_atom_site_fract_y
_atom_site_fract_z
S1 S -0.0962(4) 1.0160(3) -0.06162(14)
S2 S 0.4534(4) 1.2218(3) -0.17120(13)
C1 C 0.3915(11) 1.0779(10) 0.3016(5)
C2 C 0.6038(11) 1.2021(10) 0.1914(5)
C3 C 0.7505(11) 1.2111(9) 0.3359(5)
C4 C 0.2293(12) 1.0357(11) 0.2424(5)
C5 C 0.2435(12) 1.0707(10) 0.1602(5)
C6 C 0.4527(11) 1.1943(9) 0.0465(5)
C7 C 0.5841(11) 1.1659(10) 0.2740(5)
C8 C 0.0957(12) 1.0654(10) 0.0194(5)
C9 C 0.4357(11) 1.1583(10) 0.1317(5)
C10 C 0.5379(12) 1.0873(10) 0.4424(5)
C11 C 0.2907(11) 1.1472(9) -0.0093(5)
C12 C 0.0732(12) 1.0293(10) 0.1012(5)
C13 C 0.0844(11) 1.0952(9) -0.1337(5)
C14 C -0.0536(12) 1.0362(10) -0.3623(5)
C15 C 0.0751(12) 1.0847(10) -0.2216(5)
C16 C 0.2974(12) 1.1766(10) -0.3350(5)
C17 C 0.2705(11) 1.1616(9) -0.0974(5)
C18 C 0.3768(11) 1.0415(9) 0.3875(5)
C19 C 0.7281(12) 1.1749(10) 0.4157(5)
C20 C -0.0843(13) 1.0213(11) -0.2788(5)
C21 C 0.2710(10) 1.1591(10) -0.2509(5)
C22 C 0.1378(13) 1.1132(11) -0.3906(5)
H1 H 0.7294 1.2548 0.1737
H2 H 0.8799 1.2606 0.3192
H3 H 0.0987 0.9882 0.2598
H4 H 0.5753 1.2501 0.0289
H5 H 0.5261 1.0595 0.4979
H6 H -0.0546 0.9814 0.1180
H7 H -0.1550 0.9851 -0.4002
H8 H 0.4229 1.2277 -0.3534
H9 H 0.2500 0.9895 0.4054
H10 H 0.8349 1.2109 0.4540
H11 H -0.2148 0.9778 -0.2607
H12 H 0.1551 1.1246 -0.4479
S3 S 0.3717(4) 0.7232(3) -0.12441(14)
S4 S 0.9224(4) 0.5098(3) -0.23217(13)
C23 C 0.6895(11) 0.6529(10) 0.0985(5)
C24 C 0.8358(11) 0.6553(9) 0.2413(5)
C25 C 0.9836(12) 0.6572(10) 0.3826(5)
C26 C 0.7461(12) 0.5897(9) -0.1602(5)
C27 C 0.5533(11) 0.6673(9) -0.0426(5)
C28 C 1.1946(12) 0.5280(10) 0.2749(5)
C29 C 0.5224(12) 0.7006(10) 0.0398(5)
C30 C 0.5443(11) 0.6415(9) -0.2841(5)
C31 C 0.3881(13) 0.6927(10) -0.3416(5)
C32 C 1.0496(12) 0.5271(10) 0.1295(5)
C33 C 0.9098(11) 0.5374(9) -0.0136(5)
C34 C 0.5553(12) 0.6527(9) -0.1954(5)
C35 C 0.7675(13) 0.5307(11) -0.3967(5)
C36 C 0.6041(12) 0.5836(11) -0.4525(5)
C37 C 0.8191(12) 0.6993(10) 0.3274(5)
C38 C 0.7481(11) 0.5905(10) -0.0709(5)
C39 C 0.8826(11) 0.5716(10) 0.0713(5)
C40 C 1.1712(12) 0.5699(10) 0.3557(5)
C41 C 0.6698(12) 0.6961(10) 0.1835(5)
C42 C 1.0282(12) 0.5716(10) 0.2144(5)
C43 C 0.7380(12) 0.5612(10) -0.3130(5)
C44 C 0.4143(13) 0.6663(10) -0.4252(5)
H13 H 0.9709 0.6873 0.4382
H14 H 1.3211 0.4722 0.2578
H15 H 0.3974 0.7513 0.0574
H16 H 0.2627 0.7448 -0.3235
H17 H 1.1755 0.4699 0.1127
H18 H 1.0334 0.4792 -0.0304
H19 H 0.8975 0.4793 -0.4144
H20 H 0.6181 0.5593 -0.5081
H21 H 0.6955 0.7511 0.3468
H22 H 1.2800 0.5383 0.3950
H23 H 0.5445 0.7479 0.2023
H24 H 0.3096 0.7055 -0.4638
loop_
_geom_bond_atom_site_label_1
_geom_bond_atom_site_label_2
_geom_bond_site_symmetry_1
_geom_bond_site_symmetry_2
S1 C8 1_555 1_555
S2 C17 1_555 1_555
C1 C4 1_555 1_555
C2 C7 1_555 1_555
C3 C7 1_555 1_555
C4 C5 1_555 1_555
C5 C9 1_555 1_555
C6 C9 1_555 1_555
C7 C1 1_555 1_555
C8 C11 1_555 1_555
C9 C2 1_555 1_555
C10 C18 1_555 1_555
C11 C6 1_555 1_555
C12 C5 1_555 1_555
C13 S1 1_555 1_555
C14 C20 1_555 1_555
C15 C13 1_555 1_555
C16 C21 1_555 1_555
C17 C11 1_555 1_555
C18 C1 1_555 1_555
C19 C3 1_555 1_555
C20 C15 1_555 1_555
C21 S2 1_555 1_555
C22 C14 1_555 1_555
H1 C2 1_555 1_555
H2 C3 1_555 1_555
H3 C4 1_555 1_555
H4 C6 1_555 1_555
H5 C10 1_555 1_555
H6 C12 1_555 1_555
H7 C14 1_555 1_555
H8 C16 1_555 1_555
H9 C18 1_555 1_555
H10 C19 1_555 1_555
H11 C20 1_555 1_555
H12 C22 1_555 1_555
S3 C27 1_555 1_555
S4 C26 1_555 1_555
C23 C29 1_555 1_555
C24 C37 1_555 1_555
C25 C37 1_555 1_555
C26 C34 1_555 1_555
C27 C29 1_555 1_555
C28 C40 1_555 1_555
C29 H15 1_555 1_555
C30 C31 1_555 1_555
C31 C44 1_555 1_555
C32 C39 1_555 1_555
C33 C38 1_555 1_555
C34 S3 1_555 1_555
C35 C36 1_555 1_555
C36 C44 1_555 1_555
C37 H21 1_555 1_555
C38 C26 1_555 1_555
C39 C23 1_555 1_555
C40 C25 1_555 1_555
C41 C23 1_555 1_555
C42 C24 1_555 1_555
C43 S4 1_555 1_555
C44 H24 1_555 1_555
H13 C25 1_555 1_555
H14 C28 1_555 1_555
H16 C31 1_555 1_555
H17 C32 1_555 1_555
H18 C33 1_555 1_555
H19 C35 1_555 1_555
H20 C36 1_555 1_555
H22 C40 1_555 1_555
H23 C41 1_555 1_555
C8 C12 1_555 1_555
C10 C19 1_555 1_555
C13 C17 1_555 1_555
C15 C21 1_555 1_555
C16 C22 1_555 1_555
C24 C41 1_555 1_555
C27 C38 1_555 1_555
C28 C42 1_555 1_555
C30 C34 1_555 1_555
C30 C43 1_555 1_555
C32 C42 1_555 1_555
C33 C39 1_555 1_555
C35 C43 1_555 1_555

#END
