
#######################################################################
#
#                 Cambridge Crystallographic Data Centre
#                                CCDC 
#
#######################################################################
#
# If this CIF has been generated from an entry in the Cambridge 
# Structural Database, then it will include bibliographic, chemical, 
# crystal, experimental, refinement or atomic coordinate data resulting 
# from the CCDC's data processing and validation procedures.
#
#######################################################################

data_DODCUW
_chemical_formula_moiety         'C38 H57 N1 O6 Si1'
_chemical_name_systematic        
'methyl 2-benzyl-7-hydroxy-6-(8-methoxy-2-(((triisopropylsilyl)oxy)methyl)tricyclo[3.2.1.0^2,4^]oct-6-yl)-1-oxo-1,2,5,5a,6,7,8,9-octahydro-9aH-2-benzazepine-9a-carboxylate'
_symmetry_cell_setting           monoclinic
_symmetry_space_group_name_H-M   'C 2/c'
_symmetry_Int_Tables_number      15
_space_group_name_Hall           '-C 2yn'
loop_
_symmetry_equiv_pos_site_id
_symmetry_equiv_pos_as_xyz
1 x,y,z
2 -x,y,1/2-z
3 1/2+x,1/2+y,z
4 1/2-x,1/2+y,1/2-z
5 -x,-y,-z
6 x,-y,1/2+z
7 1/2-x,1/2-y,-z
8 1/2+x,1/2-y,1/2+z
_cell_length_a                   42.060(8)
_cell_length_b                   11.926(2)
_cell_length_c                   15.447(3)
_cell_angle_alpha                90
_cell_angle_beta                 104.51(3)
_cell_angle_gamma                90
_cell_volume                     7501.19
_cell_formula_units_Z            8
loop_
_atom_site_label
_atom_site_type_symbol
_atom_site_fract_x
_atom_site_fract_y
_atom_site_fract_z
Si1 Si 0.281455(14) 0.52851(5) 0.16517(4)
O1 O 0.29486(4) 0.42446(14) 0.11362(12)
O2 O 0.32871(4) 0.21732(15) 0.31208(12)
O3 O 0.45782(4) 0.0799(2) 0.25328(12)
H1 H 0.4493 0.0846 0.2968
O4 O 0.43336(4) -0.11309(15) -0.09853(11)
O5 O 0.44328(5) 0.14259(17) -0.09665(14)
O6 O 0.39282(4) 0.10030(16) -0.08283(12)
N1 N 0.46382(5) -0.17568(18) 0.03396(15)
C1 C 0.29048(5) 0.3074(2) 0.12582(18)
H2 H 0.2728 0.2784 0.0759
H3 H 0.2838 0.2951 0.1822
C2 C 0.32203(5) 0.2445(2) 0.12922(16)
C3 C 0.34338(5) 0.2778(2) 0.06857(16)
H4 H 0.3372 0.3458 0.0314
H5 H 0.3533 0.2171 0.0402
C4 C 0.35587(5) 0.29346(19) 0.16940(15)
H6 H 0.3570 0.3717 0.1932
C5 C 0.37416(5) 0.20168(19) 0.23232(15)
H7 H 0.3923 0.2306 0.2821
C6 C 0.34544(5) 0.1474(2) 0.26401(16)
H8 H 0.3525 0.0756 0.2967
C7 C 0.32482(5) 0.1252(2) 0.16885(17)
H9 H 0.3032 0.0886 0.1661
C8 C 0.34896(5) 0.0511(2) 0.13343(17)
H10 H 0.3454 0.0595 0.0679
H11 H 0.3466 -0.0289 0.1477
C9 C 0.38361(5) 0.09754(19) 0.18457(15)
H12 H 0.3931 0.0418 0.2324
C10 C 0.40887(5) 0.11177(19) 0.12884(15)
H13 H 0.3999 0.1698 0.0824
C11 C 0.44187(6) 0.1565(2) 0.18485(17)
H14 H 0.4380 0.2288 0.2133
C12 C 0.46490(6) 0.1777(2) 0.12444(19)
H15 H 0.4551 0.2346 0.0790
H16 H 0.4860 0.2075 0.1606
C13 C 0.47117(5) 0.0703(2) 0.07780(17)
H17 H 0.4829 0.0159 0.1231
H18 H 0.4854 0.0873 0.0373
C14 C 0.43882(5) 0.01676(19) 0.02324(14)
C15 C 0.41253(5) 0.00230(19) 0.07823(14)
H19 H 0.3912 -0.0065 0.0325
C16 C 0.41736(6) -0.1089(2) 0.13133(17)
H20 H 0.4051 -0.1033 0.1781
H21 H 0.4070 -0.1695 0.0900
C17 C 0.45159(7) -0.1443(3) 0.17549(18)
H22 H 0.4588 -0.1435 0.2389
C18 C 0.47213(7) -0.1767(3) 0.12827(19)
H23 H 0.4934 -0.2018 0.1591
C19 C 0.44493(5) -0.09689(19) -0.01830(15)
C20 C 0.42588(6) 0.0928(2) -0.05865(16)
C21 C 0.37910(9) 0.1739(3) -0.1566(2)
H24 H 0.3907 0.2459 -0.1473
H25 H 0.3557 0.1859 -0.1604
H26 H 0.3816 0.1399 -0.2123
C22 C 0.34544(8) 0.2264(3) 0.40311(19)
H27 H 0.3498 0.1512 0.4290
H28 H 0.3319 0.2682 0.4351
H29 H 0.3663 0.2660 0.4085
C23 C 0.47356(7) -0.2756(2) -0.0087(2)
H30 H 0.4978 -0.2823 0.0051
H31 H 0.4648 -0.2726 -0.0744
C24 C 0.45816(14) -0.3762(5) 0.0325(5)
C25 C 0.47327(18) -0.4411(6) 0.1067(5)
H32 H 0.4955 -0.4257 0.1361
C26 C 0.4573(2) -0.5272(7) 0.1394(6)
H33 H 0.4684 -0.5699 0.1898
C27 C 0.42444(18) -0.5496(7) 0.0962(6)
H34 H 0.4127 -0.6069 0.1177
C28 C 0.4073(4) -0.4794(10) 0.0123(8)
H35 H 0.3854 -0.4935 -0.0208
C29 C 0.4255(2) -0.3985(10) -0.0096(6)
H36 H 0.4153 -0.3516 -0.0584
C30 C 0.30279(6) 0.6541(2) 0.13188(17)
H37 H 0.2927 0.6659 0.0667
C31 C 0.33967(6) 0.6401(3) 0.1412(2)
H38 H 0.3482 0.7065 0.1172
H39 H 0.3435 0.5735 0.1080
H40 H 0.3510 0.6312 0.2045
C32 C 0.29563(7) 0.7611(2) 0.17896(19)
H41 H 0.3048 0.7537 0.2436
H42 H 0.2718 0.7722 0.1667
H43 H 0.3056 0.8256 0.1567
C33 C 0.23579(5) 0.5477(2) 0.12129(17)
H44 H 0.2292 0.6122 0.1543
C34 C 0.22632(6) 0.5778(3) 0.02117(19)
H45 H 0.2330 0.5170 -0.0131
H46 H 0.2375 0.6473 0.0118
H47 H 0.2025 0.5884 0.0012
C35 C 0.21618(6) 0.4458(3) 0.1377(2)
H48 H 0.1926 0.4614 0.1159
H49 H 0.2213 0.4296 0.2019
H50 H 0.2219 0.3809 0.1058
C36 C 0.29088(6) 0.5018(2) 0.28960(17)
H51 H 0.2840 0.4228 0.2968
C37 C 0.32720(7) 0.5085(2) 0.33746(18)
H52 H 0.3349 0.5859 0.3358
H53 H 0.3398 0.4592 0.3076
H54 H 0.3303 0.4848 0.3998
C38 C 0.27128(7) 0.5759(3) 0.3392(2)
H55 H 0.2758 0.5525 0.4019
H56 H 0.2478 0.5680 0.3113
H57 H 0.2778 0.6544 0.3361
H58? H 0.4944 -0.3045 0.0301
H59? H 0.4782 -0.2521 -0.0659
C39? C 0.44825(11) -0.3722(4) -0.0300(4)
C40? C 0.44417(19) -0.4359(7) -0.1029(6)
H60? H 0.4553 -0.4152 -0.1468
C41? C 0.4239(2) -0.5338(8) -0.1186(8)
H61? H 0.4212 -0.5778 -0.1712
C42? C 0.40832(17) -0.5602(6) -0.0508(7)
H62? H 0.3950 -0.6256 -0.0582
C43? C 0.4111(2) -0.4973(7) 0.0265(5)
H63? H 0.4002 -0.5156 0.0716
C44? C 0.4317(2) -0.4038(9) 0.0306(7)
H64? H 0.4344 -0.3573 0.0819
loop_
_geom_bond_atom_site_label_1
_geom_bond_atom_site_label_2
_geom_bond_site_symmetry_1
_geom_bond_site_symmetry_2
Si1 O1 1_555 1_555
O1 C1 1_555 1_555
O2 C6 1_555 1_555
O3 H1 1_555 1_555
O4 C19 1_555 1_555
O5 C20 1_555 1_555
O6 C20 1_555 1_555
N1 C18 1_555 1_555
C1 H2 1_555 1_555
H3 C1 1_555 1_555
C2 C1 1_555 1_555
C3 C2 1_555 1_555
H4 C3 1_555 1_555
H5 C3 1_555 1_555
C4 C2 1_555 1_555
H6 C4 1_555 1_555
C5 C4 1_555 1_555
H7 C5 1_555 1_555
C6 C5 1_555 1_555
H8 C6 1_555 1_555
C7 C2 1_555 1_555
H9 C7 1_555 1_555
C8 C7 1_555 1_555
H10 C8 1_555 1_555
H11 C8 1_555 1_555
C9 C5 1_555 1_555
H12 C9 1_555 1_555
C10 C9 1_555 1_555
H13 C10 1_555 1_555
C11 O3 1_555 1_555
H14 C11 1_555 1_555
C12 C11 1_555 1_555
H15 C12 1_555 1_555
H16 C12 1_555 1_555
C13 C12 1_555 1_555
H17 C13 1_555 1_555
H18 C13 1_555 1_555
C14 C13 1_555 1_555
C15 C10 1_555 1_555
H19 C15 1_555 1_555
C16 C15 1_555 1_555
H20 C16 1_555 1_555
H21 C16 1_555 1_555
C17 C16 1_555 1_555
H22 C17 1_555 1_555
C18 C17 1_555 1_555
H23 C18 1_555 1_555
C19 N1 1_555 1_555
C20 C14 1_555 1_555
C21 O6 1_555 1_555
H24 C21 1_555 1_555
H25 C21 1_555 1_555
H26 C21 1_555 1_555
C22 O2 1_555 1_555
H27 C22 1_555 1_555
H28 C22 1_555 1_555
H29 C22 1_555 1_555
C23 N1 1_555 1_555
H30 C23 1_555 1_555
H31 C23 1_555 1_555
C24 C23 1_555 1_555
C25 C24 1_555 1_555
H32 C25 1_555 1_555
C26 C25 1_555 1_555
H33 C26 1_555 1_555
C27 C26 1_555 1_555
H34 C27 1_555 1_555
C28 C27 1_555 1_555
H35 C28 1_555 1_555
C29 C24 1_555 1_555
H36 C29 1_555 1_555
C30 Si1 1_555 1_555
H37 C30 1_555 1_555
C31 C30 1_555 1_555
H38 C31 1_555 1_555
H39 C31 1_555 1_555
H40 C31 1_555 1_555
C32 C30 1_555 1_555
H41 C32 1_555 1_555
H42 C32 1_555 1_555
H43 C32 1_555 1_555
C33 Si1 1_555 1_555
H44 C33 1_555 1_555
C34 C33 1_555 1_555
H45 C34 1_555 1_555
H46 C34 1_555 1_555
H47 C34 1_555 1_555
C35 C33 1_555 1_555
H48 C35 1_555 1_555
H49 C35 1_555 1_555
H50 C35 1_555 1_555
C36 Si1 1_555 1_555
H51 C36 1_555 1_555
C37 C36 1_555 1_555
H52 C37 1_555 1_555
H53 C37 1_555 1_555
H54 C37 1_555 1_555
C38 C36 1_555 1_555
H55 C38 1_555 1_555
H56 C38 1_555 1_555
H57 C38 1_555 1_555
C3 C4 1_555 1_555
C6 C7 1_555 1_555
C8 C9 1_555 1_555
C10 C11 1_555 1_555
C14 C15 1_555 1_555
C14 C19 1_555 1_555
C28 C29 1_555 1_555

#END
