
#######################################################################
#
#                 Cambridge Crystallographic Data Centre
#                                CCDC 
#
#######################################################################
#
# If this CIF has been generated from an entry in the Cambridge 
# Structural Database, then it will include bibliographic, chemical, 
# crystal, experimental, refinement or atomic coordinate data resulting 
# from the CCDC's data processing and validation procedures.
#
#######################################################################

data_DODCOQ
_chemical_formula_moiety         'C44 H69 N1 O7 Si2'
_chemical_name_systematic        
'methyl 2-benzyl-7-((t-butyl(dimethyl)silyl)oxy)-6-(8-methoxy-2-(((triisopropylsilyl)oxy)methyl)tricyclo[3.2.1.0^2,4^]oct-6-yl)-1,3-dioxo-1,2,3,4,5,5a,6,9-octahydro-9aH-2-benzazepine-9a-carboxylate'
_symmetry_cell_setting           triclinic
_symmetry_space_group_name_H-M   'P -1'
_symmetry_Int_Tables_number      2
_space_group_name_Hall           '-P 1'
loop_
_symmetry_equiv_pos_site_id
_symmetry_equiv_pos_as_xyz
1 x,y,z
2 -x,-y,-z
_cell_length_a                   7.7140(15)
_cell_length_b                   15.131(3)
_cell_length_c                   20.518(4)
_cell_angle_alpha                73.44(3)
_cell_angle_beta                 88.29(3)
_cell_angle_gamma                75.53(3)
_cell_volume                     2220.51
_cell_formula_units_Z            2
loop_
_atom_site_label
_atom_site_type_symbol
_atom_site_fract_x
_atom_site_fract_y
_atom_site_fract_z
Si1 Si 0.7052(3) 0.15409(17) 0.30066(12)
Si2 Si 0.5277(3) 0.72554(18) 0.42133(12)
O1 O 0.6231(8) 0.2680(4) 0.2921(3)
O2 O 0.0833(9) 0.4568(5) 0.2464(4)
O3 O 0.4534(10) 0.7144(4) 0.3499(3)
O4 O 0.1042(11) 0.8549(6) -0.0059(4)
O5 O 0.6313(9) 0.9079(5) 0.0412(3)
O6 O 0.8259(9) 0.7423(5) 0.1807(4)
O7 O 0.6969(8) 0.6900(4) 0.1069(3)
N1 N 0.3814(11) 0.8670(5) 0.0193(4)
C1 C 0.4793(13) 0.3319(7) 0.2444(5)
H1 H 0.3665 0.3118 0.2552
H2 H 0.5091 0.3304 0.1974
C2 C 0.4566(13) 0.4307(6) 0.2503(5)
C3 C 0.5807(13) 0.4884(7) 0.2137(5)
H3 H 0.6248 0.5274 0.2376
H4 H 0.6676 0.4610 0.1838
C4 C 0.3867(13) 0.5179(6) 0.1918(5)
H5 H 0.3550 0.5076 0.1481
C5 C 0.2429(12) 0.5845(6) 0.2207(5)
H6 H 0.1501 0.6303 0.1861
C6 C 0.1680(13) 0.5101(6) 0.2766(5)
H7 H 0.0877 0.5404 0.3076
C7 C 0.3574(13) 0.4569(7) 0.3101(5)
H8 H 0.3577 0.4007 0.3501
C8 C 0.4051(13) 0.5396(6) 0.3288(5)
H9 H 0.5366 0.5303 0.3317
H10 H 0.3557 0.5452 0.3730
C9 C 0.3156(12) 0.6304(6) 0.2689(4)
H11 H 0.2101 0.6681 0.2872
C10 C 0.4354(13) 0.6974(6) 0.2372(4)
H12 H 0.5557 0.6557 0.2330
C11 C 0.4646(13) 0.7574(6) 0.2826(5)
C12 C 0.5027(14) 0.8416(6) 0.2572(5)
H13 H 0.5213 0.8747 0.2883
C13 C 0.5184(15) 0.8881(7) 0.1820(5)
H14 H 0.6320 0.9081 0.1751
H15 H 0.4182 0.9457 0.1661
C14 C 0.5144(12) 0.8196(6) 0.1401(4)
C15 C 0.3733(11) 0.7627(6) 0.1652(4)
H16 H 0.3735 0.7212 0.1350
C16 C 0.1862(13) 0.8267(6) 0.1611(5)
H17 H 0.1771 0.8588 0.1974
H18 H 0.0995 0.7867 0.1702
C17 C 0.1323(14) 0.9033(7) 0.0922(5)
H19 H -0.0001 0.9245 0.0873
H20 H 0.1776 0.9590 0.0922
C18 C 0.2020(13) 0.8699(6) 0.0320(5)
C19 C 0.5091(12) 0.8730(6) 0.0627(5)
C20 C 0.6990(11) 0.7479(6) 0.1471(5)
C21 C 0.8611(13) 0.6230(7) 0.1042(5)
H21 H 0.8442 0.5851 0.0745
H22 H 0.8992 0.5809 0.1501
H23 H 0.9530 0.6569 0.0862
C22 C 0.0130(15) 0.3905(8) 0.2971(6)
H24 H -0.0451 0.3549 0.2753
H25 H -0.0751 0.4248 0.3225
H26 H 0.1106 0.3461 0.3283
C23 C 0.4364(15) 0.8690(7) -0.0514(5)
H27 H 0.5064 0.9171 -0.0676
H28 H 0.3277 0.8888 -0.0818
C24 C 0.5481(14) 0.7731(6) -0.0564(4)
C25 C 0.7263(16) 0.7592(8) -0.0690(5)
H29 H 0.7819 0.8100 -0.0742
C26 C 0.8285(18) 0.6710(9) -0.0744(6)
H30 H 0.9524 0.6615 -0.0832
C27 C 0.7451(17) 0.5989(8) -0.0666(5)
H31 H 0.8124 0.5389 -0.0703
C28 C 0.5672(17) 0.6113(8) -0.0536(5)
H32 H 0.5122 0.5603 -0.0483
C29 C 0.4676(15) 0.6986(8) -0.0482(5)
H33 H 0.3441 0.7073 -0.0388
C30 C 0.9018(13) 0.1184(7) 0.3635(5)
H34 H 1.0079 0.1303 0.3365
C31 C 0.8774(13) 0.1794(7) 0.4138(5)
H35 H 0.9831 0.1580 0.4450
H36 H 0.7707 0.1725 0.4399
H37 H 0.8631 0.2465 0.3883
C32 C 0.9500(14) 0.0140(8) 0.4034(5)
H38 H 1.0527 0.0009 0.4348
H39 H 0.9811 -0.0249 0.3719
H40 H 0.8475 -0.0015 0.4293
C33 C 0.7803(13) 0.1368(7) 0.2164(4)
H41 H 0.6697 0.1534 0.1867
C34 C 0.8957(15) 0.2022(9) 0.1805(5)
H42 H 0.9287 0.1908 0.1366
H43 H 1.0045 0.1895 0.2087
H44 H 0.8285 0.2687 0.1730
C35 C 0.8767(15) 0.0316(8) 0.2220(6)
H45 H 0.9124 0.0259 0.1768
H46 H 0.7953 -0.0091 0.2402
H47 H 0.9834 0.0115 0.2526
C36 C 0.5331(13) 0.0844(6) 0.3317(5)
H48 H 0.5992 0.0157 0.3472
C37 C 0.3933(13) 0.0943(7) 0.2773(5)
H49 H 0.3097 0.0557 0.2972
H50 H 0.4531 0.0722 0.2399
H51 H 0.3273 0.1612 0.2599
C38 C 0.4403(15) 0.1090(8) 0.3936(6)
H52 H 0.3528 0.0711 0.4088
H53 H 0.3788 0.1769 0.3811
H54 H 0.5300 0.0946 0.4305
C39 C 0.7742(17) 0.6889(9) 0.4295(5)
C40 C 0.8395(16) 0.6788(11) 0.5015(6)
H55 H 0.9707 0.6586 0.5050
H56 H 0.7906 0.6311 0.5343
H57 H 0.7989 0.7402 0.5114
C41 C 0.8686(15) 0.7537(10) 0.3789(7)
H58 H 0.9986 0.7288 0.3869
H59 H 0.8326 0.8179 0.3844
H60 H 0.8354 0.7563 0.3325
C42 C 0.8406(18) 0.5880(10) 0.4171(8)
H61 H 0.9717 0.5675 0.4218
H62 H 0.8015 0.5918 0.3711
H63 H 0.7898 0.5419 0.4506
C43 C 0.4423(16) 0.8494(7) 0.4262(5)
H64 H 0.4954 0.8923 0.3909
H65 H 0.4749 0.8527 0.4711
H66 H 0.3116 0.8687 0.4193
C44 C 0.4250(13) 0.6460(7) 0.4885(5)
H67 H 0.4691 0.5802 0.4866
H68 H 0.2944 0.6658 0.4812
H69 H 0.4573 0.6500 0.5333
loop_
_geom_bond_atom_site_label_1
_geom_bond_atom_site_label_2
_geom_bond_site_symmetry_1
_geom_bond_site_symmetry_2
Si1 O1 1_555 1_555
Si2 O3 1_555 1_555
O1 C1 1_555 1_555
O2 C6 1_555 1_555
O3 C11 1_555 1_555
O4 C18 1_555 1_555
O5 C19 1_555 1_555
O6 C20 1_555 1_555
O7 C20 1_555 1_555
N1 C18 1_555 1_555
C1 H1 1_555 1_555
H2 C1 1_555 1_555
C2 C1 1_555 1_555
C3 C2 1_555 1_555
H3 C3 1_555 1_555
H4 C3 1_555 1_555
C4 C2 1_555 1_555
H5 C4 1_555 1_555
C5 C4 1_555 1_555
H6 C5 1_555 1_555
C6 C5 1_555 1_555
H7 C6 1_555 1_555
C7 C2 1_555 1_555
H8 C7 1_555 1_555
C8 C7 1_555 1_555
H9 C8 1_555 1_555
H10 C8 1_555 1_555
C9 C5 1_555 1_555
H11 C9 1_555 1_555
C10 C9 1_555 1_555
H12 C10 1_555 1_555
C11 C10 1_555 1_555
C12 C11 1_555 1_555
H13 C12 1_555 1_555
C13 C12 1_555 1_555
H14 C13 1_555 1_555
H15 C13 1_555 1_555
C14 C13 1_555 1_555
C15 C10 1_555 1_555
H16 C15 1_555 1_555
C16 C15 1_555 1_555
H17 C16 1_555 1_555
H18 C16 1_555 1_555
C17 C16 1_555 1_555
H19 C17 1_555 1_555
H20 C17 1_555 1_555
C18 C17 1_555 1_555
C19 N1 1_555 1_555
C20 C14 1_555 1_555
C21 O7 1_555 1_555
H21 C21 1_555 1_555
H22 C21 1_555 1_555
H23 C21 1_555 1_555
C22 O2 1_555 1_555
H24 C22 1_555 1_555
H25 C22 1_555 1_555
H26 C22 1_555 1_555
C23 N1 1_555 1_555
H27 C23 1_555 1_555
H28 C23 1_555 1_555
C24 C23 1_555 1_555
C25 C24 1_555 1_555
H29 C25 1_555 1_555
C26 C25 1_555 1_555
H30 C26 1_555 1_555
C27 C26 1_555 1_555
H31 C27 1_555 1_555
C28 C27 1_555 1_555
H32 C28 1_555 1_555
C29 C24 1_555 1_555
H33 C29 1_555 1_555
C30 Si1 1_555 1_555
H34 C30 1_555 1_555
C31 C30 1_555 1_555
H35 C31 1_555 1_555
H36 C31 1_555 1_555
H37 C31 1_555 1_555
C32 C30 1_555 1_555
H38 C32 1_555 1_555
H39 C32 1_555 1_555
H40 C32 1_555 1_555
C33 Si1 1_555 1_555
H41 C33 1_555 1_555
C34 C33 1_555 1_555
H42 C34 1_555 1_555
H43 C34 1_555 1_555
H44 C34 1_555 1_555
C35 C33 1_555 1_555
H45 C35 1_555 1_555
H46 C35 1_555 1_555
H47 C35 1_555 1_555
C36 Si1 1_555 1_555
H48 C36 1_555 1_555
C37 C36 1_555 1_555
H49 C37 1_555 1_555
H50 C37 1_555 1_555
H51 C37 1_555 1_555
C38 C36 1_555 1_555
H52 C38 1_555 1_555
H53 C38 1_555 1_555
H54 C38 1_555 1_555
C39 Si2 1_555 1_555
C40 C39 1_555 1_555
H55 C40 1_555 1_555
H56 C40 1_555 1_555
H57 C40 1_555 1_555
C41 C39 1_555 1_555
H58 C41 1_555 1_555
H59 C41 1_555 1_555
H60 C41 1_555 1_555
C42 C39 1_555 1_555
H61 C42 1_555 1_555
H62 C42 1_555 1_555
H63 C42 1_555 1_555
C43 Si2 1_555 1_555
H64 C43 1_555 1_555
H65 C43 1_555 1_555
H66 C43 1_555 1_555
C44 Si2 1_555 1_555
H67 C44 1_555 1_555
H68 C44 1_555 1_555
H69 C44 1_555 1_555
C3 C4 1_555 1_555
C6 C7 1_555 1_555
C8 C9 1_555 1_555
C14 C15 1_555 1_555
C14 C19 1_555 1_555
C28 C29 1_555 1_555

#END
