
#######################################################################
#
#                 Cambridge Crystallographic Data Centre
#                                CCDC 
#
#######################################################################
#
# If this CIF has been generated from an entry in the Cambridge 
# Structural Database, then it will include bibliographic, chemical, 
# crystal, experimental, refinement or atomic coordinate data resulting 
# from the CCDC's data processing and validation procedures.
#
#######################################################################

data_DODNUH
_chemical_formula_moiety         'C18 H19 N1 O2'
_chemical_name_systematic        
3-methyl-1,6a-diphenylhexahydrofuro[2,3-c][1,2]oxazole
_symmetry_cell_setting           monoclinic
_symmetry_space_group_name_H-M   'P 21'
_symmetry_Int_Tables_number      4
_space_group_name_Hall           'P 2yb'
loop_
_symmetry_equiv_pos_site_id
_symmetry_equiv_pos_as_xyz
1 x,y,z
2 -x,1/2+y,-z
_cell_length_a                   6.5770(2)
_cell_length_b                   13.6444(5)
_cell_length_c                   8.0893(3)
_cell_angle_alpha                90
_cell_angle_beta                 91.519(3)
_cell_angle_gamma                90
_cell_volume                     725.672
_exptl_crystal_colour            yellow
_exptl_crystal_description       plate
_cell_formula_units_Z            2
loop_
_atom_site_label
_atom_site_type_symbol
_atom_site_fract_x
_atom_site_fract_y
_atom_site_fract_z
O1 O 0.50603(19) 0.47828(9) 0.68224(15)
C1 C 0.1347(3) 0.59893(13) 0.6864(2)
C2 C 0.3489(3) 0.46648(14) 0.5594(2)
C3 C 0.4144(3) 0.51025(13) 0.3963(2)
C4 C 0.2914(3) 0.66788(15) 0.6896(2)
C5 C 0.6178(3) 0.51618(14) 0.3570(2)
C6 C 0.5224(3) 0.38965(15) 0.7780(2)
C7 C 0.6715(3) 0.54382(14) 0.1990(2)
C8 C -0.0519(3) 0.62341(15) 0.7551(2)
C9 C 0.2619(3) 0.75892(15) 0.7627(2)
C10 C 0.3035(3) 0.35464(14) 0.5477(2)
C11 C 0.0857(3) 0.34601(14) 0.6083(2)
C12 C 0.5247(3) 0.56750(15) 0.0804(2)
C13 C -0.0779(3) 0.71425(16) 0.8274(2)
C14 C 0.0785(3) 0.78221(15) 0.8324(2)
C15 C 0.2673(3) 0.53422(16) 0.2759(2)
C16 C 0.4746(3) 0.30919(15) 0.6546(3)
C17 C 0.3223(3) 0.56320(18) 0.1199(2)
O2 O 0.0598(2) 0.43163(9) 0.70900(16)
N1 N 0.1519(2) 0.50724(11) 0.60701(17)
C18 C 0.0360(3) 0.25693(16) 0.7088(3)
H1 H 0.422(2) 0.6531(17) 0.642(3)
H2 H 0.375(3) 0.8049(15) 0.768(3)
H3 H -0.208(2) 0.7293(17) 0.876(3)
H4 H 0.061(3) 0.8471(11) 0.880(3)
H5 H -0.162(3) 0.5760(14) 0.747(3)
H6 H 0.424(3) 0.3897(17) 0.866(2)
H7 H 0.660(2) 0.3879(17) 0.827(3)
H8 H 0.594(3) 0.2983(17) 0.587(3)
H9 H 0.440(3) 0.2479(12) 0.710(3)
H10 H 0.311(3) 0.3337(14) 0.434(3)
H11 H 0.718(3) 0.4999(16) 0.441(2)
H12 H 0.127(2) 0.5292(18) 0.304(3)
H13 H 0.812(2) 0.5443(18) 0.169(3)
H14 H 0.215(3) 0.5827(16) 0.045(2)
H15 H 0.561(3) 0.5860(16) -0.0295(17)
H16 H -0.008(3) 0.3516(15) 0.514(2)
H17 H -0.104(3) 0.257(2) 0.743(3)
H18 H 0.124(4) 0.252(2) 0.806(2)
H19 H 0.060(4) 0.1993(15) 0.642(3)
loop_
_geom_bond_atom_site_label_1
_geom_bond_atom_site_label_2
_geom_bond_site_symmetry_1
_geom_bond_site_symmetry_2
O1 C2 1_555 1_555
C1 C4 1_555 1_555
C2 C3 1_555 1_555
C3 C5 1_555 1_555
C4 C9 1_555 1_555
C5 C7 1_555 1_555
C6 O1 1_555 1_555
C7 C12 1_555 1_555
C8 C1 1_555 1_555
C9 C14 1_555 1_555
C10 C2 1_555 1_555
C11 C10 1_555 1_555
C12 C17 1_555 1_555
C13 C8 1_555 1_555
C14 C13 1_555 1_555
C15 C3 1_555 1_555
C16 C6 1_555 1_555
C17 C15 1_555 1_555
O2 C11 1_555 1_555
N1 C1 1_555 1_555
C18 C11 1_555 1_555
H1 C4 1_555 1_555
H2 C9 1_555 1_555
H3 C13 1_555 1_555
H4 C14 1_555 1_555
H5 C8 1_555 1_555
H6 C6 1_555 1_555
H7 C6 1_555 1_555
H8 C16 1_555 1_555
H9 C16 1_555 1_555
H10 C10 1_555 1_555
H11 C5 1_555 1_555
H12 C15 1_555 1_555
H13 C7 1_555 1_555
H14 C17 1_555 1_555
H15 C12 1_555 1_555
H16 C11 1_555 1_555
H17 C18 1_555 1_555
H18 C18 1_555 1_555
H19 C18 1_555 1_555
C2 N1 1_555 1_555
C10 C16 1_555 1_555
O2 N1 1_555 1_555

#END
