
#######################################################################
#
#                 Cambridge Crystallographic Data Centre
#                                CCDC 
#
#######################################################################
#
# If this CIF has been generated from an entry in the Cambridge 
# Structural Database, then it will include bibliographic, chemical, 
# crystal, experimental, refinement or atomic coordinate data resulting 
# from the CCDC's data processing and validation procedures.
#
#######################################################################

data_DODRIY
_chemical_formula_moiety         'C13 H13 N1 O3'
_chemical_name_systematic        
'Ethyl 2-formyl-1-methyl-1H-indole-3-carboxylate'
_symmetry_cell_setting           monoclinic
_symmetry_space_group_name_H-M   'P 21/c'
_symmetry_Int_Tables_number      14
_space_group_name_Hall           '-P 2ybc'
loop_
_symmetry_equiv_pos_site_id
_symmetry_equiv_pos_as_xyz
1 x,y,z
2 -x,1/2+y,1/2-z
3 -x,-y,-z
4 x,1/2-y,1/2+z
_cell_length_a                   14.924(3)
_cell_length_b                   9.846(2)
_cell_length_c                   7.8410(16)
_cell_angle_alpha                90
_cell_angle_beta                 101.05(3)
_cell_angle_gamma                90
_cell_volume                     1130.81
_exptl_crystal_colour            colorless
_exptl_crystal_description       prism
_chemical_melting_point          '76-77 deg.C'
_cell_formula_units_Z            4
loop_
_atom_site_label
_atom_site_type_symbol
_atom_site_fract_x
_atom_site_fract_y
_atom_site_fract_z
O1 O 0.60080(14) -0.04504(18) 0.4245(3)
O2 O 0.85129(14) 0.02551(17) 0.7510(3)
O3 O 0.89984(11) 0.23697(16) 0.8250(3)
N1 N 0.62660(14) 0.24793(19) 0.4477(3)
C1 C 0.53899(19) 0.2247(3) 0.3298(4)
H1 H 0.5281 0.1268 0.3157
H2 H 0.5406 0.2655 0.2165
H3 H 0.4898 0.2662 0.3786
C2 C 0.68612(17) 0.1520(2) 0.5298(4)
C3 C 0.76098(16) 0.2164(2) 0.6335(3)
C4 C 0.74540(16) 0.3600(2) 0.6122(3)
C5 C 0.79295(18) 0.4787(2) 0.6802(4)
H4 H 0.8489 0.4725 0.7614
C6 C 0.75609(19) 0.6033(2) 0.6259(4)
H5 H 0.7873 0.6836 0.6710
C7 C 0.67328(19) 0.6148(2) 0.5050(4)
H6 H 0.6506 0.7024 0.4687
C8 C 0.62510(18) 0.5024(3) 0.4392(4)
H7 H 0.5689 0.5100 0.3590
C9 C 0.66203(17) 0.3751(2) 0.4949(4)
C10 C 0.6694(2) 0.0060(3) 0.5096(4)
H8 H 0.7155 -0.0536 0.5672
C11 C 0.83965(18) 0.1471(2) 0.7396(4)
C12 C 0.97959(18) 0.1806(3) 0.9386(4)
H9 H 1.0102 0.1139 0.8745
H10 H 0.9614 0.1340 1.0385
C13 C 1.0427(2) 0.2960(3) 1.0006(4)
H11 H 1.0975 0.2611 1.0772
H12 H 1.0119 0.3609 1.0646
H13 H 1.0600 0.3415 0.9006
loop_
_geom_bond_atom_site_label_1
_geom_bond_atom_site_label_2
_geom_bond_site_symmetry_1
_geom_bond_site_symmetry_2
O1 C10 1_555 1_555
O2 C11 1_555 1_555
O3 C11 1_555 1_555
N1 C1 1_555 1_555
C1 H1 1_555 1_555
H2 C1 1_555 1_555
H3 C1 1_555 1_555
C2 N1 1_555 1_555
C3 C2 1_555 1_555
C4 C3 1_555 1_555
C5 C4 1_555 1_555
H4 C5 1_555 1_555
C6 C5 1_555 1_555
H5 C6 1_555 1_555
C7 C6 1_555 1_555
H6 C7 1_555 1_555
C8 C7 1_555 1_555
H7 C8 1_555 1_555
C9 N1 1_555 1_555
C10 C2 1_555 1_555
H8 C10 1_555 1_555
C11 C3 1_555 1_555
C12 O3 1_555 1_555
H9 C12 1_555 1_555
H10 C12 1_555 1_555
C13 C12 1_555 1_555
H11 C13 1_555 1_555
H12 C13 1_555 1_555
H13 C13 1_555 1_555
C4 C9 1_555 1_555
C8 C9 1_555 1_555

#END
