
#######################################################################
#
#                 Cambridge Crystallographic Data Centre
#                                CCDC 
#
#######################################################################
#
# If this CIF has been generated from an entry in the Cambridge 
# Structural Database, then it will include bibliographic, chemical, 
# crystal, experimental, refinement or atomic coordinate data resulting 
# from the CCDC's data processing and validation procedures.
#
#######################################################################

data_DOGDAF
_chemical_formula_moiety         'C4 H14 N2 2+,2(C1 H1 B11 Cl11 1-),C6 H4 Cl2'
_chemical_name_systematic        
'1,1,2,2-Tetramethylhydrazine-1,2-di-ium bis(2,3,4,5,6,7,8,9,10,11,12-undecachloro-1-carba-closo-dodecaborate) 1,2-dichlorobenzene solvate'
_symmetry_cell_setting           triclinic
_symmetry_space_group_name_H-M   'P -1'
_symmetry_Int_Tables_number      2
_space_group_name_Hall           '-P 1'
loop_
_symmetry_equiv_pos_site_id
_symmetry_equiv_pos_as_xyz
1 x,y,z
2 -x,-y,-z
_cell_length_a                   9.0345(8)
_cell_length_b                   15.8644(15)
_cell_length_c                   17.1466(16)
_cell_angle_alpha                86.776(2)
_cell_angle_beta                 76.961(2)
_cell_angle_gamma                83.128(2)
_cell_volume                     2375.92
_exptl_crystal_colour            colorless
_exptl_crystal_description       needle
_cell_formula_units_Z            2
_exptl_crystal_recrystallization_method o-dichlorobenzene/hexane
loop_
_atom_site_label
_atom_site_type_symbol
_atom_site_fract_x
_atom_site_fract_y
_atom_site_fract_z
C1 C 0.2728(3) 0.71242(16) -0.00141(15)
H1 H 0.2809(14) 0.6777(8) -0.0462(7)
B1 B 0.2385(3) 0.66201(18) 0.09156(17)
B2 B 0.0943(3) 0.73382(18) 0.05937(17)
B3 B 0.1875(3) 0.81432(18) -0.00525(17)
B4 B 0.3900(3) 0.79187(18) -0.01281(17)
B5 B 0.4217(3) 0.69769(18) 0.04715(17)
B6 B 0.3333(3) 0.71922(18) 0.14847(17)
B7 B 0.1314(3) 0.74256(18) 0.15641(17)
B8 B 0.1007(3) 0.83548(18) 0.09633(17)
B9 B 0.2814(3) 0.87280(17) 0.05141(17)
B10 B 0.4250(3) 0.79984(18) 0.08399(17)
B11 B 0.2474(3) 0.82689(18) 0.15081(17)
Cl1 Cl 0.21814(7) 0.55313(4) 0.10539(4)
Cl2 Cl -0.06829(7) 0.69558(4) 0.04047(4)
Cl3 Cl 0.11170(7) 0.85798(4) -0.08685(4)
Cl4 Cl 0.52247(7) 0.80806(4) -0.10372(4)
Cl5 Cl 0.58215(7) 0.62330(4) 0.01595(4)
Cl6 Cl 0.40924(7) 0.66791(4) 0.22785(4)
Cl7 Cl -0.00106(7) 0.71816(4) 0.24635(4)
Cl8 Cl -0.06696(7) 0.91057(4) 0.12209(4)
Cl9 Cl 0.30031(7) 0.98228(4) 0.03216(4)
Cl10 Cl 0.59676(7) 0.83553(4) 0.09970(4)
Cl11 Cl 0.23164(7) 0.89243(4) 0.23456(4)
C2 C 0.1480(3) 0.65889(16) 0.64490(15)
H2 H 0.1953(14) 0.6108(7) 0.6697(7)
B12 B 0.2619(3) 0.71369(18) 0.57064(17)
B13 B 0.1837(3) 0.75666(18) 0.66771(17)
B14 B -0.0001(3) 0.71945(18) 0.70598(17)
B15 B -0.0329(3) 0.65337(18) 0.63192(17)
B16 B 0.1279(3) 0.65006(19) 0.54849(17)
B17 B 0.1401(3) 0.75440(19) 0.50631(17)
B18 B 0.1751(3) 0.82020(18) 0.58033(17)
B19 B 0.0140(3) 0.82418(19) 0.66320(18)
B20 B -0.1206(3) 0.75964(19) 0.64112(17)
B21 B -0.0422(3) 0.71619(19) 0.54361(17)
B22 B -0.0141(3) 0.82230(19) 0.56325(18)
Cl12 Cl 0.46072(7) 0.68545(4) 0.53909(4)
Cl13 Cl 0.30495(7) 0.76890(4) 0.73288(4)
Cl14 Cl -0.06038(7) 0.69439(4) 0.80865(4)
Cl15 Cl -0.12518(7) 0.56097(4) 0.66273(4)
Cl16 Cl 0.19264(7) 0.55558(4) 0.49492(4)
Cl17 Cl 0.21289(8) 0.77352(5) 0.40258(4)
Cl18 Cl 0.29052(7) 0.90620(4) 0.55260(4)
Cl19 Cl -0.04480(8) 0.91526(4) 0.72361(4)
Cl20 Cl -0.32114(7) 0.78448(4) 0.67717(4)
Cl21 Cl -0.15817(7) 0.69599(5) 0.47674(4)
Cl22 Cl -0.10515(8) 0.91211(4) 0.51840(4)
N1 N 0.3343(2) 0.11707(14) 0.71811(13)
H3 H 0.282(3) 0.1248(18) 0.7664(17)
C3 C 0.3921(3) 0.19939(17) 0.68392(18)
H4 H 0.4656 0.2149 0.7134
H5 H 0.3061 0.2442 0.6888
H6 H 0.4424 0.1928 0.6273
C4 C 0.2338(3) 0.08559(19) 0.67003(18)
H7 H 0.2016 0.0309 0.6928
H8 H 0.2906 0.0784 0.6145
H9 H 0.1435 0.1269 0.6713
N2 N 0.4647(3) 0.05355(14) 0.72928(13)
H10 H 0.525(3) 0.0812(19) 0.7535(17)
C5 C 0.5646(3) 0.02246(19) 0.65168(16)
H11 H 0.5947 0.0712 0.6164
H12 H 0.5081 -0.0123 0.6257
H13 H 0.6561 -0.0117 0.6622
C6 C 0.4130(3) -0.01927(18) 0.78502(18)
H14 H 0.3508 0.0030 0.8356
H15 H 0.5026 -0.0556 0.7954
H16 H 0.3521 -0.0525 0.7603
C7 C 0.4010(3) 0.53735(16) 0.77067(16)
C8 C 0.2603(3) 0.51057(16) 0.80604(15)
C9 C 0.1878(3) 0.46321(17) 0.76284(16)
H17 H 0.0908 0.4452 0.7868
C10 C 0.2580(3) 0.44262(17) 0.68483(17)
H18 H 0.2094 0.4098 0.6554
C11 C 0.3990(3) 0.46960(17) 0.64927(16)
H19 H 0.4465 0.4555 0.5956
C12 C 0.4702(3) 0.51732(17) 0.69233(16)
H20 H 0.5664 0.5362 0.6681
Cl23 Cl 0.49512(8) 0.59471(4) 0.82366(4)
Cl24 Cl 0.17035(8) 0.53491(4) 0.90380(4)
loop_
_geom_bond_atom_site_label_1
_geom_bond_atom_site_label_2
_geom_bond_site_symmetry_1
_geom_bond_site_symmetry_2
C1 H1 1_555 1_555
B1 C1 1_555 1_555
B2 C1 1_555 1_555
B3 C1 1_555 1_555
B4 C1 1_555 1_555
B5 C1 1_555 1_555
B6 B1 1_555 1_555
B7 B1 1_555 1_555
B8 B2 1_555 1_555
B9 B3 1_555 1_555
B10 B4 1_555 1_555
B11 B6 1_555 1_555
Cl1 B1 1_555 1_555
Cl2 B2 1_555 1_555
Cl3 B3 1_555 1_555
Cl4 B4 1_555 1_555
Cl5 B5 1_555 1_555
Cl6 B6 1_555 1_555
Cl7 B7 1_555 1_555
Cl8 B8 1_555 1_555
Cl9 B9 1_555 1_555
Cl10 B10 1_555 1_555
Cl11 B11 1_555 1_555
C2 H2 1_555 1_555
B12 C2 1_555 1_555
B13 C2 1_555 1_555
B14 C2 1_555 1_555
B15 C2 1_555 1_555
B16 C2 1_555 1_555
B17 B12 1_555 1_555
B18 B12 1_555 1_555
B19 B13 1_555 1_555
B20 B14 1_555 1_555
B21 B15 1_555 1_555
B22 B17 1_555 1_555
Cl12 B12 1_555 1_555
Cl13 B13 1_555 1_555
Cl14 B14 1_555 1_555
Cl15 B15 1_555 1_555
Cl16 B16 1_555 1_555
Cl17 B17 1_555 1_555
Cl18 B18 1_555 1_555
Cl19 B19 1_555 1_555
Cl20 B20 1_555 1_555
Cl21 B21 1_555 1_555
Cl22 B22 1_555 1_555
N1 H3 1_555 1_555
C3 N1 1_555 1_555
H4 C3 1_555 1_555
H5 C3 1_555 1_555
H6 C3 1_555 1_555
C4 N1 1_555 1_555
H7 C4 1_555 1_555
H8 C4 1_555 1_555
H9 C4 1_555 1_555
N2 N1 1_555 1_555
H10 N2 1_555 1_555
C5 N2 1_555 1_555
H11 C5 1_555 1_555
H12 C5 1_555 1_555
H13 C5 1_555 1_555
C6 N2 1_555 1_555
H14 C6 1_555 1_555
H15 C6 1_555 1_555
H16 C6 1_555 1_555
C7 C8 1_555 1_555
C8 C9 1_555 1_555
C9 H17 1_555 1_555
C10 C9 1_555 1_555
H18 C10 1_555 1_555
C11 C10 1_555 1_555
H19 C11 1_555 1_555
C12 C7 1_555 1_555
H20 C12 1_555 1_555
Cl23 C7 1_555 1_555
Cl24 C8 1_555 1_555
B1 B2 1_555 1_555
B1 B5 1_555 1_555
B2 B3 1_555 1_555
B2 B7 1_555 1_555
B3 B4 1_555 1_555
B3 B8 1_555 1_555
B4 B5 1_555 1_555
B4 B9 1_555 1_555
B5 B6 1_555 1_555
B5 B10 1_555 1_555
B6 B7 1_555 1_555
B6 B10 1_555 1_555
B7 B8 1_555 1_555
B7 B11 1_555 1_555
B8 B9 1_555 1_555
B8 B11 1_555 1_555
B9 B10 1_555 1_555
B9 B11 1_555 1_555
B10 B11 1_555 1_555
B12 B13 1_555 1_555
B12 B16 1_555 1_555
B13 B14 1_555 1_555
B13 B18 1_555 1_555
B14 B15 1_555 1_555
B14 B19 1_555 1_555
B15 B16 1_555 1_555
B15 B20 1_555 1_555
B16 B17 1_555 1_555
B16 B21 1_555 1_555
B17 B18 1_555 1_555
B17 B21 1_555 1_555
B18 B19 1_555 1_555
B18 B22 1_555 1_555
B19 B20 1_555 1_555
B19 B22 1_555 1_555
B20 B21 1_555 1_555
B20 B22 1_555 1_555
B21 B22 1_555 1_555
C11 C12 1_555 1_555

#END
