
#######################################################################
#
#                 Cambridge Crystallographic Data Centre
#                                CCDC 
#
#######################################################################
#
# If this CIF has been generated from an entry in the Cambridge 
# Structural Database, then it will include bibliographic, chemical, 
# crystal, experimental, refinement or atomic coordinate data resulting 
# from the CCDC's data processing and validation procedures.
#
#######################################################################

data_DOGFOU
_chemical_formula_moiety         'C56 H96 O24'
_chemical_name_systematic        
3,4,6,7,9,12,14,15,17,18,21,23,24,26,27,30,32,33,35,36,38,41,43,44,46,47,50,52,53,55,56,58-Dotriacontahydro-10,40:11,39-bis(methanoxyethanoxyethanoxy-methano)-1H,20H,29H,49H-bis(1,4,7,12,15,18)-hexaoxacyclodocosino(9,10-i:9',10'-t)(1,4,7,12,15,18)hexaoxacyclodocosine
_symmetry_cell_setting           triclinic
_symmetry_space_group_name_H-M   'P -1'
_symmetry_Int_Tables_number      2
_space_group_name_Hall           '-P 1'
loop_
_symmetry_equiv_pos_site_id
_symmetry_equiv_pos_as_xyz
1 x,y,z
2 -x,-y,-z
_cell_length_a                   9.5603(15)
_cell_length_b                   18.586(3)
_cell_length_c                   8.5900(11)
_cell_angle_alpha                97.615(11)
_cell_angle_beta                 102.586(12)
_cell_angle_gamma                84.862(12)
_cell_volume                     1473.61
_exptl_crystal_colour            colorless
_chemical_melting_point          170-171deg.C
_cell_formula_units_Z            1
loop_
_atom_site_label
_atom_site_type_symbol
_atom_site_fract_x
_atom_site_fract_y
_atom_site_fract_z
O1 O -0.2604(4) 0.3199(2) 0.7332(4)
O2 O -0.4268(4) 0.4573(2) 0.7191(4)
O3 O -0.5206(4) 0.6076(2) 0.8129(4)
O4 O -0.5787(4) 0.8145(2) 0.7620(5)
O5 O -0.3647(4) 0.8507(2) 0.5865(4)
O6 O -0.0851(4) 0.8234(2) 0.7697(4)
O7 O 0.0072(5) 0.3772(2) 1.1994(5)
O8 O -0.0844(5) 0.5385(2) 1.2881(5)
O9 O -0.2324(4) 0.6808(3) 1.2654(4)
O10 O -0.3150(6) 0.8666(2) 1.2070(5)
O11 O -0.1465(7) 0.9964(3) 1.2226(8)
O12 O 0.1828(4) 0.8792(2) 1.2342(5)
C1 C -0.1319(6) 0.2394(3) 0.9106(6)
C2 C -0.1304(6) 0.2782(4) 0.7684(6)
C3 C -0.2565(5) 0.3685(3) 0.6166(7)
C4 C -0.3950(6) 0.4113(3) 0.5828(6)
C5 C -0.3353(6) 0.5149(3) 0.7730(7)
C6 C -0.3984(6) 0.5682(3) 0.8941(7)
C7 C -0.5683(6) 0.6691(3) 0.9111(7)
C8 C -0.4690(6) 0.7288(3) 0.9371(6)
C9 C -0.4694(7) 0.7603(3) 0.7855(6)
C10 C -0.6061(7) 0.8388(4) 0.6049(8)
C11 C -0.4977(7) 0.8896(4) 0.5871(8)
C12 C -0.2512(7) 0.8975(3) 0.6034(7)
C13 C -0.1146(7) 0.8532(4) 0.6209(7)
C14 C 0.0457(6) 0.7825(3) 0.7985(6)
C15 C -0.0486(6) 0.2573(3) 1.0556(7)
C16 C 0.0553(7) 0.3176(3) 1.0971(7)
C17 C -0.0959(6) 0.4248(3) 1.1176(8)
C18 C -0.1607(6) 0.4767(3) 1.2383(8)
C19 C -0.132(2) 0.5834(5) 1.412(1)
C20 C -0.247(1) 0.6256(7) 1.387(1)
C21 C -0.3697(6) 0.7153(3) 1.2294(6)
C22 C -0.3815(5) 0.7484(3) 1.0771(6)
C23 C -0.2794(7) 0.8083(3) 1.0995(8)
C24 C -0.3677(7) 0.9310(4) 1.1372(9)
C25 C -0.2532(9) 0.9699(5) 1.100(1)
C26 C -0.0322(8) 0.9453(4) 1.2738(8)
C27 C 0.0655(7) 0.9232(4) 1.1564(8)
C28 C -0.2313(6) 0.1791(3) 0.8725(7)
C15A C 0.0486(6) 0.7427(3) 0.9444(7)
C14A C -0.0457(6) 0.2175(3) 1.2015(6)
C28A C 0.2313(6) 0.8209(3) 1.1275(7)
O12A O -0.1828(4) 0.1208(2) 0.7658(5)
C1A C 0.1319(6) 0.7606(3) 1.0894(6)
C16A C -0.0553(7) 0.6824(3) 0.9029(7)
O6A O 0.0851(4) 0.1766(2) 1.2303(4)
C27A C -0.0655(7) 0.0768(4) 0.8436(8)
C2A C 0.1304(6) 0.7218(4) 1.2316(6)
O7A O -0.0072(5) 0.6228(2) 0.8006(5)
C13A C 0.1146(7) 0.1468(4) 1.3791(7)
C26A C 0.0322(8) 0.0547(4) 0.7262(8)
O1A O 0.2604(4) 0.6801(2) 1.2668(4)
C17A C 0.0959(6) 0.5752(3) 0.8824(8)
C12A C 0.2512(7) 0.1025(3) 1.3966(7)
O11A O 0.1465(7) 0.0036(3) 0.7774(8)
C3A C 0.2565(5) 0.6315(3) 1.3834(7)
C18A C 0.1607(6) 0.5233(3) 0.7617(8)
O5A O 0.3647(4) 0.1493(2) 1.4135(4)
C25A C 0.2532(9) 0.0301(5) 0.900(1)
C4A C 0.3950(6) 0.5887(3) 1.4172(6)
O8A O 0.0844(5) 0.4615(2) 0.7119(5)
C11A C 0.4977(7) 0.1104(4) 1.4129(8)
C24A C 0.3677(7) 0.0690(4) 0.8628(9)
O2A O 0.4268(4) 0.5427(2) 1.2809(4)
C19A C 0.132(2) 0.4166(5) 0.588(1)
C10A C 0.6061(7) 0.1612(4) 1.3951(8)
O10A O 0.3150(6) 0.1334(2) 0.7930(5)
C5A C 0.3353(6) 0.4851(3) 1.2270(7)
C20A C 0.247(1) 0.3744(7) 0.613(1)
O4A O 0.5787(4) 0.1855(2) 1.2380(5)
C23A C 0.2794(7) 0.1917(3) 0.9005(8)
C6A C 0.3984(6) 0.4318(3) 1.1059(7)
O9A O 0.2324(4) 0.3192(3) 0.7346(4)
C9A C 0.4694(7) 0.2397(3) 1.2145(6)
C22A C 0.3815(5) 0.2516(3) 0.9229(6)
O3A O 0.5206(4) 0.3924(2) 1.1871(4)
C21A C 0.3697(6) 0.2847(3) 0.7706(6)
C8A C 0.4690(6) 0.2712(3) 1.0629(6)
C7A C 0.5683(6) 0.3309(3) 1.0889(7)
loop_
_geom_bond_atom_site_label_1
_geom_bond_atom_site_label_2
_geom_bond_site_symmetry_1
_geom_bond_site_symmetry_2
O1 C2 1_555 1_555
O2 C4 1_555 1_555
O3 C6 1_555 1_555
O4 C9 1_555 1_555
O5 C11 1_555 1_555
O6 C13 1_555 1_555
O7 C16 1_555 1_555
O8 C18 1_555 1_555
O9 C20 1_555 1_555
O10 C23 1_555 1_555
O11 C25 1_555 1_555
O12 C27 1_555 1_555
C1 C2 1_555 1_555
C3 O1 1_555 1_555
C4 C3 1_555 1_555
C5 O2 1_555 1_555
C6 C5 1_555 1_555
C7 O3 1_555 1_555
C8 C7 1_555 1_555
C9 C8 1_555 1_555
C10 O4 1_555 1_555
C11 C10 1_555 1_555
C12 O5 1_555 1_555
C13 C12 1_555 1_555
C14 O6 1_555 1_555
C15 C1 1_555 1_555
C16 C15 1_555 1_555
C17 O7 1_555 1_555
C18 C17 1_555 1_555
C19 O8 1_555 1_555
C20 C19 1_555 1_555
C21 O9 1_555 1_555
C22 C8 1_555 1_555
C23 C22 1_555 1_555
C24 O10 1_555 1_555
C25 C24 1_555 1_555
C26 O11 1_555 1_555
C27 C26 1_555 1_555
C28 C1 1_555 1_555
C15A C14 1_555 1_555
C14A C15 1_555 1_555
C28A O12 1_555 1_555
O12A C28 1_555 1_555
C1A C15A 1_555 1_555
C16A C15A 1_555 1_555
O6A C14A 1_555 1_555
C27A O12A 1_555 1_555
C2A C1A 1_555 1_555
O7A C16A 1_555 1_555
C13A O6A 1_555 1_555
C26A C27A 1_555 1_555
O1A C2A 1_555 1_555
C17A O7A 1_555 1_555
C12A C13A 1_555 1_555
O11A C26A 1_555 1_555
C3A O1A 1_555 1_555
C18A C17A 1_555 1_555
O5A C12A 1_555 1_555
C25A O11A 1_555 1_555
C4A C3A 1_555 1_555
O8A C18A 1_555 1_555
C11A O5A 1_555 1_555
C24A C25A 1_555 1_555
O2A C4A 1_555 1_555
C19A O8A 1_555 1_555
C10A C11A 1_555 1_555
O10A C24A 1_555 1_555
C5A O2A 1_555 1_555
C20A C19A 1_555 1_555
O4A C10A 1_555 1_555
C23A O10A 1_555 1_555
C6A C5A 1_555 1_555
O9A C20A 1_555 1_555
C9A O4A 1_555 1_555
C22A C23A 1_555 1_555
O3A C6A 1_555 1_555
C21A O9A 1_555 1_555
C8A C9A 1_555 1_555
C7A O3A 1_555 1_555
C21 C22 1_555 1_555
C28A C1A 1_555 1_555
C22A C8A 1_555 1_555
C22A C21A 1_555 1_555
C8A C7A 1_555 1_555

#END
