
#######################################################################
#
#                 Cambridge Crystallographic Data Centre
#                                CCDC 
#
#######################################################################
#
# If this CIF has been generated from an entry in the Cambridge 
# Structural Database, then it will include bibliographic, chemical, 
# crystal, experimental, refinement or atomic coordinate data resulting 
# from the CCDC's data processing and validation procedures.
#
#######################################################################

data_DOGPEW
_chemical_formula_moiety         'C14 H22 Br1 N2 O1 1+,Cl1 1-'
_chemical_name_systematic        
'2-(2-(4-Bromophenyl)-2-hydroxycyclohexyl)-1,1-dimethylhydrazinium chloride'
_symmetry_cell_setting           monoclinic
_symmetry_space_group_name_H-M   'P 21'
_symmetry_Int_Tables_number      4
_space_group_name_Hall           'P 2yb'
loop_
_symmetry_equiv_pos_site_id
_symmetry_equiv_pos_as_xyz
1 x,y,z
2 -x,1/2+y,-z
_cell_length_a                   5.7790(8)
_cell_length_b                   10.6400(13)
_cell_length_c                   12.4930(15)
_cell_angle_alpha                90
_cell_angle_beta                 94.47(2)
_cell_angle_gamma                90
_cell_volume                     765.84
_exptl_crystal_colour            'pale yellow'
_exptl_crystal_description       plate
_cell_formula_units_Z            2
loop_
_atom_site_label
_atom_site_type_symbol
_atom_site_fract_x
_atom_site_fract_y
_atom_site_fract_z
Br1 Br 1.09522(4) 1.25998(3) 0.170818(18)
O1 O 0.4033(3) 0.7445(2) 0.25384(12)
H1 H 0.4336 0.7692 0.3173
N1 N 0.8956(4) 0.5919(2) 0.44821(15)
H2 H 0.7912 0.5335 0.4434
N2 N 0.8229(4) 0.6865(2) 0.36823(15)
H3 H 0.9295 0.744 0.3692
C1 C 0.8719(5) 0.6492(3) 0.55596(19)
H4 H 0.9927 0.713 0.5703
H5 H 0.8887 0.5837 0.6112
H6 H 0.7188 0.6885 0.5571
C2 C 1.1322(5) 0.5376(3) 0.4390(2)
H7 H 1.1382 0.4974 0.3687
H8 H 1.1649 0.475 0.4957
H9 H 1.2483 0.6048 0.4466
C3 C 0.7789(4) 0.6393(3) 0.25689(19)
H10 H 0.9278 0.6368 0.2212
C4 C 0.6123(4) 0.7392(3) 0.20021(19)
C5 C 0.7303(4) 0.8677(3) 0.19599(18)
C6 C 0.9375(4) 0.8806(3) 0.14559(18)
H11 H 1.0063 0.8085 0.1164
C7 C 0.6661(5) 0.5095(3) 0.2516(2)
H12 H 0.5251 0.5106 0.2919
H13 H 0.7752 0.4471 0.2859
C8 C 1.0438(4) 0.9971(3) 0.13757(19)
H14 H 1.1849 1.0048 0.1038
C9 C 0.6002(5) 0.4708(3) 0.1346(2)
H15 H 0.7421 0.4661 0.0952
H16 H 0.528 0.3864 0.1332
C10 C 0.4307(5) 0.5652(3) 0.0789(2)
H17 H 0.3951 0.5403 0.003
H18 H 0.2838 0.5655 0.1147
C11 C 0.5382(4) 0.6967(3) 0.08393(19)
H19 H 0.4244 0.7575 0.0509
H20 H 0.6757 0.6975 0.0414
C12 C 0.9407(4) 1.1018(3) 0.17964(18)
C13 C 0.6331(5) 0.9759(3) 0.2388(2)
H21 H 0.494 0.969 0.2742
C14 C 0.7370(4) 1.0932(3) 0.23015(19)
H22 H 0.669 1.1661 0.2585
Cl1 Cl 0.65679(10) 0.35256(7) 0.51018(5)
loop_
_geom_bond_atom_site_label_1
_geom_bond_atom_site_label_2
_geom_bond_site_symmetry_1
_geom_bond_site_symmetry_2
Br1 C12 1_555 1_555
O1 H1 1_555 1_555
N1 H2 1_555 1_555
N2 N1 1_555 1_555
H3 N2 1_555 1_555
C1 N1 1_555 1_555
H4 C1 1_555 1_555
H5 C1 1_555 1_555
H6 C1 1_555 1_555
C2 N1 1_555 1_555
H7 C2 1_555 1_555
H8 C2 1_555 1_555
H9 C2 1_555 1_555
C3 N2 1_555 1_555
H10 C3 1_555 1_555
C4 O1 1_555 1_555
C5 C4 1_555 1_555
C6 C5 1_555 1_555
H11 C6 1_555 1_555
C7 C3 1_555 1_555
H12 C7 1_555 1_555
H13 C7 1_555 1_555
C8 C6 1_555 1_555
H14 C8 1_555 1_555
C9 C7 1_555 1_555
H15 C9 1_555 1_555
H16 C9 1_555 1_555
C10 C9 1_555 1_555
H17 C10 1_555 1_555
H18 C10 1_555 1_555
C11 C4 1_555 1_555
H19 C11 1_555 1_555
H20 C11 1_555 1_555
C12 C8 1_555 1_555
C13 C5 1_555 1_555
H21 C13 1_555 1_555
C14 C12 1_555 1_555
H22 C14 1_555 1_555
C3 C4 1_555 1_555
C10 C11 1_555 1_555
C13 C14 1_555 1_555

#END
