
#######################################################################
#
#                 Cambridge Crystallographic Data Centre
#                                CCDC 
#
#######################################################################
#
# If this CIF has been generated from an entry in the Cambridge 
# Structural Database, then it will include bibliographic, chemical, 
# crystal, experimental, refinement or atomic coordinate data resulting 
# from the CCDC's data processing and validation procedures.
#
#######################################################################

data_DOHDUZ
_chemical_name_common            Panaxadiol
_chemical_formula_moiety         'C30 H52 O3'
_chemical_name_systematic        20,25-Epoxy-dammaran-3\b,12\b-diol
_symmetry_cell_setting           monoclinic
_symmetry_space_group_name_H-M   'P 21'
_symmetry_Int_Tables_number      4
_space_group_name_Hall           'P 2yb'
loop_
_symmetry_equiv_pos_site_id
_symmetry_equiv_pos_as_xyz
1 x,y,z
2 -x,1/2+y,-z
_cell_length_a                   11.692(3)
_cell_length_b                   7.843(7)
_cell_length_c                   14.705(3)
_cell_angle_alpha                90
_cell_angle_beta                 93.85(2)
_cell_angle_gamma                90
_cell_volume                     1345.41
_cell_formula_units_Z            2
loop_
_atom_site_label
_atom_site_type_symbol
_atom_site_fract_x
_atom_site_fract_y
_atom_site_fract_z
C1 C 0.8867(2) 0.5820(3) -0.0418(1)
C2 C 0.9048(2) 0.5600(5) -0.1433(1)
C3 C 0.9046(2) 0.3726(5) -0.1700(1)
O1 O 0.9241(2) 0.3553(4) -0.2643(1)
C4 C 0.7953(2) 0.2783(3) -0.1492(1)
C5 C 0.7725(2) 0.3110(3) -0.0475(1)
C6 C 0.6707(2) 0.2136(3) -0.0132(1)
C7 C 0.6760(2) 0.2065(3) 0.0906(1)
C8 C 0.6797(1) 0.3857(2) 0.1346(1)
C9 C 0.7764(1) 0.4930(2) 0.0926(1)
C10 C 0.7735(1) 0.5000 -0.0142(1)
C11 C 0.7907(2) 0.6684(2) 0.1400(1)
C12 C 0.8158(1) 0.6545(2) 0.2431(1)
O2 O 0.8283(1) 0.8260(2) 0.2762(1)
C13 C 0.7184(1) 0.5546(2) 0.2830(1)
C14 C 0.7109(1) 0.3722(2) 0.2402(1)
C15 C 0.6197(2) 0.2845(3) 0.2963(1)
C16 C 0.6179(2) 0.3848(3) 0.3861(1)
C17 C 0.7138(1) 0.5209(2) 0.3863(1)
C18 C 0.5605(2) 0.4676(4) 0.1159(1)
C19 C 0.6741(2) 0.6112(3) -0.0560(1)
C20 C 0.6957(1) 0.6709(3) 0.4516(1)
O3 O 0.8043(1) 0.7638(2) 0.4525(1)
C21 C 0.5963(2) 0.7872(3) 0.4186(1)
C22 C 0.6795(2) 0.5989(3) 0.5478(1)
C23 C 0.7052(2) 0.7282(4) 0.6231(1)
C24 C 0.8265(2) 0.7924(3) 0.6179(1)
C25 C 0.8427(2) 0.8787(3) 0.5261(1)
C26 C 0.7823(2) 1.0521(3) 0.5195(2)
C27 C 0.9692(2) 0.9061(4) 0.5114(2)
C28 C 0.8203(4) 0.0850(4) -0.1607(2)
C29 C 0.6938(2) 0.3268(5) -0.2166(1)
C30 C 0.8238(2) 0.2721(3) 0.2627(1)
H1 H 0.9575(2) 0.5230(2) -0.0027(1)
H2 H 0.8848(2) 0.7166(3) -0.0264(1)
H3 H 0.9862(2) 0.6155(5) -0.1576(1)
H4 H 0.8367(2) 0.6246(5) -0.1828(1)
H5 H 0.9733(2) 0.3136(5) -0.1285(1)
H6 H 0.8497(2) 0.2562(3) -0.0153(1)
H7 H 0.6712(2) 0.0851(3) -0.0396(1)
H8 H 0.5924(2) 0.2767(3) -0.0374(1)
H9 H 0.6011(2) 0.1399(3) 0.1111(1)
H10 H 0.7522(2) 0.1373(3) 0.1142(1)
H11 H 0.8543(1) 0.4212(2) 0.1072(1)
H12 H 0.7125(2) 0.7400(2) 0.1269(1)
H13 H 0.8607(2) 0.7352(2) 0.1115(1)
H14 H 0.8934(1) 0.5855(2) 0.2631(1)
H15 H 0.6499(1) 0.6442(2) 0.2666(1)
H16 H 0.6430(2) 0.1532(3) 0.3099(1)
H17 H 0.5366(2) 0.2895(3) 0.2597(1)
H18 H 0.5357(2) 0.4458(3) 0.3905(1)
H19 H 0.6337(2) 0.2996(3) 0.4433(1)
H20 H 0.7975(1) 0.4841(2) 0.4153(1)
H21 H 0.5593(2) 0.5986(4) 0.1384(1)
H22 H 0.4979(2) 0.3952(4) 0.1504(1)
H23 H 0.5403(2) 0.4622(4) 0.0432(1)
H24 H 0.5939(2) 0.5519(2) -0.0419(1)
H25 H 0.6769(2) 0.6307(3) -0.1258(1)
H26 H 0.6816(2) 0.7326(3) -0.0214(1)
H27 H 0.5214(2) 0.7063(3) 0.4149(1)
H28 H 0.6110(2) 0.8344(3) 0.3514(1)
H29 H 0.5829(2) 0.8934(3) 0.4634(1)
H30 H 0.7361(2) 0.4912(3) 0.5594(1)
H31 H 0.5917(2) 0.5575(3) 0.5504(1)
H32 H 0.6963(2) 0.6687(4) 0.6885(1)
H33 H 0.6461(2) 0.8338(4) 0.6147(1)
H34 H 0.8450(2) 0.8834(3) 0.6720(1)
H35 H 0.8849(2) 0.6860(3) 0.6263(1)
H36 H 0.6931(2) 1.0376(3) 0.5327(1)
H37 H 0.7888(2) 1.1053(3) 0.4523(1)
H38 H 0.8235(2) 1.1364(3) 0.5698(1)
H39 H 1.0049(2) 0.9895(4) 0.5645(2)
H40 H 0.9783(2) 0.9644(4) 0.4458(2)
H41 H 1.0141(2) 0.7857(4) 0.5148(2)
H42 H 0.7456(4) 0.0094(4) -0.1486(2)
H43 H 0.8901(4) 0.0493(4) -0.1126(2)
H44 H 0.8448(4) 0.0630(4) -0.2292(2)
H45 H 0.6771(2) 0.4620(5) -0.2127(1)
H46 H 0.6200(2) 0.2570(5) -0.1964(1)
H47 H 0.7105(2) 0.2933(5) -0.2857(1)
H48 H 0.8943(2) 0.3238(3) 0.2275(1)
H49 H 0.8110(2) 0.1401(3) 0.2438(1)
H50 H 0.8432(2) 0.2810(3) 0.3354(1)
H51 H 0.995(2) 0.358(2) -0.274(2)
H52 H 0.830(2) 0.822(2) 0.336(2)
loop_
_geom_bond_atom_site_label_1
_geom_bond_atom_site_label_2
_geom_bond_site_symmetry_1
_geom_bond_site_symmetry_2
C1 C2 1_555 1_555
C2 C3 1_555 1_555
C3 O1 1_555 1_555
O1 H51 1_555 1_555
C4 C3 1_555 1_555
C5 C4 1_555 1_555
C6 C5 1_555 1_555
C7 C6 1_555 1_555
C8 C7 1_555 1_555
C9 C8 1_555 1_555
C10 C1 1_555 1_555
C11 C9 1_555 1_555
C12 C11 1_555 1_555
O2 C12 1_555 1_555
C13 C12 1_555 1_555
C14 C8 1_555 1_555
C15 C14 1_555 1_555
C16 C15 1_555 1_555
C17 C13 1_555 1_555
C18 C8 1_555 1_555
C19 C10 1_555 1_555
C20 C17 1_555 1_555
O3 C20 1_555 1_555
C21 C20 1_555 1_555
C22 C20 1_555 1_555
C23 C22 1_555 1_555
C24 C23 1_555 1_555
C25 O3 1_555 1_555
C26 C25 1_555 1_555
C27 C25 1_555 1_555
C28 C4 1_555 1_555
C29 C4 1_555 1_555
C30 C14 1_555 1_555
H1 C1 1_555 1_555
H2 C1 1_555 1_555
H3 C2 1_555 1_555
H4 C2 1_555 1_555
H5 C3 1_555 1_555
H6 C5 1_555 1_555
H7 C6 1_555 1_555
H8 C6 1_555 1_555
H9 C7 1_555 1_555
H10 C7 1_555 1_555
H11 C9 1_555 1_555
H12 C11 1_555 1_555
H13 C11 1_555 1_555
H14 C12 1_555 1_555
H15 C13 1_555 1_555
H16 C15 1_555 1_555
H17 C15 1_555 1_555
H18 C16 1_555 1_555
H19 C16 1_555 1_555
H20 C17 1_555 1_555
H21 C18 1_555 1_555
H22 C18 1_555 1_555
H23 C18 1_555 1_555
H24 C19 1_555 1_555
H25 C19 1_555 1_555
H26 C19 1_555 1_555
H27 C21 1_555 1_555
H28 C21 1_555 1_555
H29 C21 1_555 1_555
H30 C22 1_555 1_555
H31 C22 1_555 1_555
H32 C23 1_555 1_555
H33 C23 1_555 1_555
H34 C24 1_555 1_555
H35 C24 1_555 1_555
H36 C26 1_555 1_555
H37 C26 1_555 1_555
H38 C26 1_555 1_555
H39 C27 1_555 1_555
H40 C27 1_555 1_555
H41 C27 1_555 1_555
H42 C28 1_555 1_555
H43 C28 1_555 1_555
H44 C28 1_555 1_555
H45 C29 1_555 1_555
H46 C29 1_555 1_555
H47 C29 1_555 1_555
H48 C30 1_555 1_555
H49 C30 1_555 1_555
H50 C30 1_555 1_555
H52 O2 1_555 1_555
C5 C10 1_555 1_555
C9 C10 1_555 1_555
C13 C14 1_555 1_555
C16 C17 1_555 1_555
C24 C25 1_555 1_555

#END
