
#######################################################################
#
#                 Cambridge Crystallographic Data Centre
#                                CCDC 
#
#######################################################################
#
# If this CIF has been generated from an entry in the Cambridge 
# Structural Database, then it will include bibliographic, chemical, 
# crystal, experimental, refinement or atomic coordinate data resulting 
# from the CCDC's data processing and validation procedures.
#
#######################################################################

data_DOHGAI
_chemical_formula_moiety         'C17 H39 N1 1+,Br1 1-,H2 O1'
_chemical_name_systematic        
'Dodecyl-dimethyl-propylammonium bromide monohydrate'
_symmetry_cell_setting           triclinic
_symmetry_space_group_name_H-M   'P -1'
_symmetry_Int_Tables_number      2
_space_group_name_Hall           '-P 1'
loop_
_symmetry_equiv_pos_site_id
_symmetry_equiv_pos_as_xyz
1 x,y,z
2 -x,-y,-z
_cell_length_a                   8.234(1)
_cell_length_b                   8.502(1)
_cell_length_c                   17.494(1)
_cell_angle_alpha                84.96(1)
_cell_angle_beta                 78.41(1)
_cell_angle_gamma                61.24(1)
_cell_volume                     1051.66
_cell_formula_units_Z            2
loop_
_atom_site_label
_atom_site_type_symbol
_atom_site_fract_x
_atom_site_fract_y
_atom_site_fract_z
Br1 Br 0.68143(5) 0.33297(4) 0.61936(2)
C1 C 0.7751(4) 0.8430(4) 0.6862(1)
C2 C 0.6188(4) 0.7941(4) 0.6940(1)
C3 C 0.5017(4) 0.8359(4) 0.7760(1)
C4 C 0.3374(4) 0.7978(4) 0.7837(2)
C5 C 0.2268(4) 0.8186(4) 0.8666(1)
C6 C 0.0672(4) 0.7743(4) 0.8736(2)
C7 C -0.0427(4) 0.7928(5) 0.9564(2)
C8 C -0.2002(4) 0.7443(5) 0.9650(2)
C9 C -0.3090(4) 0.7630(5) 1.0482(2)
C10 C -0.4651(4) 0.7147(5) 1.0572(2)
C11 C -0.5739(5) 0.7362(5) 1.1399(2)
C12 C -0.7331(6) 0.6879(7) 1.1487(2)
C13 C 1.0203(4) 0.5631(4) 0.6100(2)
C14 C 1.1018(5) 0.4676(6) 0.6804(2)
C15 C 1.1863(6) 0.2678(6) 0.6697(3)
C16 C 1.0702(5) 0.8272(5) 0.6141(2)
C17 C 0.8415(4) 0.8395(4) 0.5422(2)
N1 N 0.9266(3) 0.7667(3) 0.6140(1)
H1 H 0.716(2) 0.976(4) 0.683(5)
H2 H 0.834(2) 0.808(4) 0.729(4)
H3 H 0.677(2) 0.664(4) 0.684(4)
H4 H 0.553(2) 0.845(4) 0.648(5)
H5 H 0.451(2) 0.962(4) 0.785(4)
H6 H 0.585(2) 0.766(4) 0.817(5)
H7 H 0.393(2) 0.677(4) 0.766(4)
H8 H 0.246(2) 0.868(4) 0.742(5)
H9 H 0.176(2) 0.940(4) 0.881(5)
H10 H 0.307(2) 0.748(4) 0.905(4)
H11 H 0.121(2) 0.646(4) 0.859(4)
H12 H -0.024(2) 0.845(4) 0.834(5)
H13 H -0.101(2) 0.939(4) 0.977(5)
H14 H 0.033(2) 0.736(5) 0.997(5)
H15 H -0.143(2) 0.625(4) 0.949(5)
H16 H -0.284(2) 0.811(5) 0.921(5)
H17 H -0.355(2) 0.893(5) 1.067(5)
H18 H -0.220(2) 0.699(4) 1.085(5)
H19 H -0.398(2) 0.582(5) 1.042(5)
H20 H -0.554(2) 0.794(4) 1.018(5)
H21 H -0.636(2) 0.874(5) 1.158(5)
H22 H -0.485(2) 0.665(5) 1.185(5)
H23 H -0.810(2) 0.754(4) 1.108(5)
H24 H -0.671(2) 0.554(5) 1.141(5)
H25 H -0.784(2) 0.689(5) 1.208(5)
H26 H 0.924(2) 0.527(4) 0.603(4)
H27 H 1.108(2) 0.538(5) 0.561(5)
H28 H 1.012(2) 0.502(4) 0.725(5)
H29 H 1.207(2) 0.493(5) 0.686(5)
H30 H 1.098(2) 0.217(5) 0.657(5)
H31 H 1.218(2) 0.220(5) 0.715(5)
H32 H 1.292(2) 0.226(5) 0.623(5)
H33 H 1.123(2) 0.787(4) 0.660(5)
H34 H 1.007(2) 0.952(4) 0.613(5)
H35 H 1.155(2) 0.788(5) 0.558(5)
H36 H 0.793(2) 0.956(4) 0.545(5)
H37 H 0.743(2) 0.795(4) 0.544(5)
H38 H 0.948(2) 0.806(4) 0.499(5)
O1 O 0.5250(4) 0.7114(4) 0.5183(2)
H39 H 0.572(2) 0.600(5) 0.547(5)
H40 H 0.471(2) 0.699(4) 0.480(5)
loop_
_geom_bond_atom_site_label_1
_geom_bond_atom_site_label_2
_geom_bond_site_symmetry_1
_geom_bond_site_symmetry_2
C1 C2 1_555 1_555
C2 C3 1_555 1_555
C3 C4 1_555 1_555
C4 C5 1_555 1_555
C5 C6 1_555 1_555
C6 C7 1_555 1_555
C7 C8 1_555 1_555
C8 C9 1_555 1_555
C9 C10 1_555 1_555
C10 C11 1_555 1_555
C11 C12 1_555 1_555
C12 H23 1_555 1_555
C13 C14 1_555 1_555
C14 C15 1_555 1_555
C15 H30 1_555 1_555
C16 N1 1_555 1_555
C17 N1 1_555 1_555
N1 C1 1_555 1_555
H1 C1 1_555 1_555
H2 C1 1_555 1_555
H3 C2 1_555 1_555
H4 C2 1_555 1_555
H5 C3 1_555 1_555
H6 C3 1_555 1_555
H7 C4 1_555 1_555
H8 C4 1_555 1_555
H9 C5 1_555 1_555
H10 C5 1_555 1_555
H11 C6 1_555 1_555
H12 C6 1_555 1_555
H13 C7 1_555 1_555
H14 C7 1_555 1_555
H15 C8 1_555 1_555
H16 C8 1_555 1_555
H17 C9 1_555 1_555
H18 C9 1_555 1_555
H19 C10 1_555 1_555
H20 C10 1_555 1_555
H21 C11 1_555 1_555
H22 C11 1_555 1_555
H24 C12 1_555 1_555
H25 C12 1_555 1_555
H26 C13 1_555 1_555
H27 C13 1_555 1_555
H28 C14 1_555 1_555
H29 C14 1_555 1_555
H31 C15 1_555 1_555
H32 C15 1_555 1_555
H33 C16 1_555 1_555
H34 C16 1_555 1_555
H35 C16 1_555 1_555
H36 C17 1_555 1_555
H37 C17 1_555 1_555
H38 C17 1_555 1_555
O1 H39 1_555 1_555
H40 O1 1_555 1_555
C13 N1 1_555 1_555

#END
