
#######################################################################
#
#                 Cambridge Crystallographic Data Centre
#                                CCDC 
#
#######################################################################
#
# If this CIF has been generated from an entry in the Cambridge 
# Structural Database, then it will include bibliographic, chemical, 
# crystal, experimental, refinement or atomic coordinate data resulting 
# from the CCDC's data processing and validation procedures.
#
#######################################################################

data_DOHLET
_chemical_formula_moiety         'C39 H46 N1 O10 1+,F6 P1 1-'
_chemical_name_systematic        
'N-benzyl(4-((6,7,9,10,12,13,20,21,23,24,26,27-dodecahydrodibenzo[b,n][1,4,7,10,13,16,19,22]octaoxacyclotetracosin-2-ylcarbonyl)oxy)phenyl)methanaminium hexafluorophosphate unknown solvate'
_symmetry_cell_setting           monoclinic
_symmetry_space_group_name_H-M   'P 21/c'
_symmetry_Int_Tables_number      14
_space_group_name_Hall           '-P 2ybc'
loop_
_symmetry_equiv_pos_site_id
_symmetry_equiv_pos_as_xyz
1 x,y,z
2 -x,1/2+y,1/2-z
3 -x,-y,-z
4 x,1/2-y,1/2+z
_cell_length_a                   10.4663(3)
_cell_length_b                   42.4866(16)
_cell_length_c                   25.4339(9)
_cell_angle_alpha                90
_cell_angle_beta                 113.902(3)
_cell_angle_gamma                90
_cell_volume                     10339.9
_exptl_crystal_colour            colorless
_exptl_crystal_description       block
_cell_formula_units_Z            8
loop_
_atom_site_label
_atom_site_type_symbol
_atom_site_fract_x
_atom_site_fract_y
_atom_site_fract_z
P1 P 0.88701(19) 0.18882(5) 0.96862(9)
F1 F 0.8701(5) 0.16610(15) 1.0154(2)
F2 F 0.7489(5) 0.20773(14) 0.9640(2)
F3 F 0.9002(6) 0.21081(15) 0.9198(3)
F4 F 1.0238(5) 0.16985(14) 0.9720(3)
F5 F 0.7892(5) 0.16484(16) 0.9198(2)
F6 F 0.9858(5) 0.21125(14) 1.0182(3)
P2 P 0.3806(2) 0.12599(6) 0.46807(9)
F7 F 0.2485(6) 0.14290(16) 0.4685(3)
F8 F 0.3761(7) 0.10135(15) 0.5167(3)
F9 F 0.5077(6) 0.10725(19) 0.4671(3)
F10 F 0.3876(5) 0.15025(14) 0.4211(2)
F11 F 0.2864(7) 0.10421(14) 0.4161(2)
F12 F 0.4773(6) 0.14785(16) 0.5187(2)
O1 O 0.1275(5) -0.19581(14) 0.8294(2)
O2 O 0.4196(6) -0.20028(17) 0.9018(3)
O3 O 0.6308(5) -0.18794(16) 0.8637(2)
O4 O 0.7607(6) -0.14361(12) 0.8168(2)
O5 O 0.6319(5) -0.10466(12) 0.7382(3)
O6 O 0.3330(6) -0.10168(12) 0.6635(2)
O7 O 0.1162(5) -0.11428(13) 0.6941(2)
O8 O -0.0134(5) -0.16128(12) 0.7426(2)
O9 O 1.1507(6) -0.02282(16) 0.8475(3)
O10 O 0.9468(6) -0.00745(14) 0.7778(3)
N1 N 1.0654(6) 0.12903(14) 0.7089(3)
H1 H 1.0349 0.1180 0.6749
H2 H 0.9896 0.1326 0.7178
C1 C -0.0678(8) -0.19113(19) 0.7397(3)
C2 C -0.1877(9) -0.2026(2) 0.6972(4)
H3 H -0.2423 -0.1894 0.6661
C3 C -0.2287(11) -0.2327(2) 0.6994(4)
H4 H -0.3093 -0.2408 0.6688
C4 C -0.1543(10) -0.2516(2) 0.7457(5)
H5 H -0.1843 -0.2724 0.7482
C5 C -0.0334(9) -0.2394(2) 0.7892(4)
H6 H 0.0195 -0.2524 0.8210
C6 C 0.0090(7) -0.2107(2) 0.7872(3)
C7 C 0.1911(9) -0.2125(3) 0.8836(4)
H7 H 0.1230 -0.2149 0.9012
H8 H 0.2209 -0.2338 0.8771
C8 C 0.3099(8) -0.1948(3) 0.9209(4)
H9 H 0.3391 -0.2018 0.9613
H10 H 0.2868 -0.1721 0.9187
C9 C 0.5507(8) -0.1878(2) 0.9386(4)
H11 H 0.5723 -0.1945 0.9786
H12 H 0.5452 -0.1645 0.9374
C10 C 0.6610(10) -0.1976(3) 0.9230(4)
H13 H 0.6709 -0.2208 0.9262
H14 H 0.7502 -0.1881 0.9495
C11 C 0.7413(8) -0.19528(18) 0.8489(4)
C12 C 0.8380(8) -0.16766(19) 0.8581(4)
H15 H 0.8681 -0.1595 0.8979
H16 H 0.9220 -0.1740 0.8521
C13 C 0.8313(8) -0.11633(19) 0.8205(4)
C14 C 0.9650(9) -0.11027(19) 0.8606(4)
H17 H 1.0126 -0.1252 0.8897
C15 C 1.0295(9) -0.0819(2) 0.8578(4)
H18 H 1.1226 -0.0777 0.8842
C16 C 0.9546(8) -0.05918(18) 0.8152(4)
C17 C 0.8216(9) -0.0663(2) 0.7739(4)
H19 H 0.7732 -0.0517 0.7442
C18 C 0.7608(8) -0.09474(18) 0.7767(4)
C19 C 0.5629(9) -0.0852(2) 0.6864(4)
H20 H 0.5313 -0.0651 0.6967
H21 H 0.6294 -0.0804 0.6687
C20 C 0.4443(7) -0.1024(2) 0.6461(3)
H22 H 0.4142 -0.0930 0.6073
H23 H 0.4716 -0.1245 0.6438
C21 C 0.2112(8) -0.1171(2) 0.6236(4)
H24 H 0.2226 -0.1402 0.6277
H25 H 0.1954 -0.1112 0.5838
C22 C 0.0876(8) -0.1066(2) 0.6366(4)
H26 H 0.0736 -0.0836 0.6307
H27 H 0.0014 -0.1173 0.6105
C23 C -0.0056(7) -0.11182(19) 0.7068(3)
H28 H -0.0648 -0.0945 0.6834
H29 H 0.0252 -0.1058 0.7477
C24 C -0.0926(7) -0.1406(2) 0.6964(4)
H30 H -0.1844 -0.1357 0.6971
H31 H -0.1079 -0.1501 0.6588
C25 C 1.0236(12) -0.0281(3) 0.8161(6)
C26 C 1.0059(9) 0.0206(2) 0.7748(4)
C27 C 1.0365(10) 0.0253(2) 0.7304(5)
H32 H 1.0181 0.0096 0.7017
C28 C 1.1003(10) 0.0556(2) 0.7260(5)
H33 H 1.1333 0.0585 0.6966
C29 C 1.1118(7) 0.07855(19) 0.7625(4)
C30 C 1.0788(11) 0.0734(2) 0.8094(5)
H34 H 1.0940 0.0893 0.8375
C31 C 1.0219(9) 0.0438(2) 0.8144(5)
H35 H 0.9948 0.0401 0.8453
C32 C 1.1741(8) 0.10934(18) 0.7567(3)
H36 H 1.2560 0.1056 0.7474
H37 H 1.2061 0.1209 0.7935
C33 C 1.1243(8) 0.15953(18) 0.7017(3)
H38 H 1.2160 0.1559 0.7000
H39 H 1.1400 0.1730 0.7356
C34 C 1.0298(7) 0.1765(2) 0.6481(4)
C35 C 1.0888(11) 0.1958(3) 0.6197(4)
H40 H 1.1876 0.1978 0.6346
C36 C 1.0060(18) 0.2127(3) 0.5691(7)
H41 H 1.0464 0.2238 0.5471
C37 C 0.8616(11) 0.2121(3) 0.5534(5)
H42 H 0.8043 0.2257 0.5235
C38 C 0.8024(9) 0.1939(2) 0.5778(4)
H43 H 0.7035 0.1919 0.5618
C39 C 0.8856(8) 0.17669(19) 0.6289(4)
H44 H 0.8419 0.1655 0.6494
O11 O 1.4325(5) 0.15167(12) 0.6816(2)
O12 O 1.2103(5) 0.10422(13) 0.6314(2)
O13 O 0.9305(5) 0.09571(13) 0.5976(2)
O14 O 0.7732(5) 0.09718(12) 0.6671(2)
O15 O 0.8045(5) 0.13459(11) 0.7510(2)
O16 O 1.0320(5) 0.17861(16) 0.8003(3)
O17 O 1.3198(9) 0.1906(3) 0.8422(4)
O18 O 1.4631(6) 0.18651(15) 0.7690(3)
O19 O 0.5753(7) -0.00576(14) 0.7182(3)
O20 O 0.5626(8) 0.00831(15) 0.8008(3)
N2 N 0.4027(7) -0.13427(16) 0.7726(3)
H45 H 0.3564 -0.1240 0.7383
H46 H 0.4952 -0.1362 0.7787
C40 C 1.4972(8) 0.2013(2) 0.7292(3)
C41 C 1.5445(9) 0.2305(2) 0.7298(4)
H47 H 1.5590 0.2433 0.7623
C42 C 1.5731(11) 0.2427(2) 0.6864(5)
H48 H 1.6042 0.2638 0.6879
C43 C 1.5564(11) 0.2243(2) 0.6421(5)
H49 H 1.5777 0.2329 0.6121
C44 C 1.5099(9) 0.1937(2) 0.6367(4)
H50 H 1.5005 0.1813 0.6043
C45 C 1.4778(7) 0.18170(18) 0.6801(3)
C46 C 1.4236(8) 0.13046(18) 0.6371(3)
H51 H 1.5183 0.1258 0.6392
H52 H 1.3679 0.1400 0.5991
C47 C 1.3556(8) 0.1008(2) 0.6443(4)
H53 H 1.3673 0.0845 0.6189
H54 H 1.4042 0.0935 0.6845
C48 C 1.1284(8) 0.0978(2) 0.5727(4)
H55 H 1.1278 0.0749 0.5653
H56 H 1.1678 0.1088 0.5483
C49 C 0.9814(8) 0.1093(2) 0.5586(4)
H57 H 0.9810 0.1325 0.5615
H58 H 0.9198 0.1033 0.5188
C50 C 0.7807(7) 0.0955(2) 0.5771(3)
H59 H 0.7397 0.0860 0.5383
H60 H 0.7462 0.1174 0.5742
C51 C 0.7352(9) 0.0772(2) 0.6167(4)
H61 H 0.6331 0.0734 0.5989
H62 H 0.7842 0.0567 0.6268
C52 C 0.7309(7) 0.08546(18) 0.7085(3)
C53 C 0.6775(7) 0.05579(18) 0.7098(3)
H63 H 0.6640 0.0416 0.6792
C54 C 0.6430(8) 0.04622(18) 0.7546(4)
C55 C 0.6475(9) 0.0687(2) 0.7948(4)
H64 H 0.6118 0.0636 0.8227
C56 C 0.7028(8) 0.0986(2) 0.7954(4)
H65 H 0.7113 0.1130 0.8252
C57 C 0.7447(8) 0.10707(16) 0.7533(4)
C58 C 0.8076(9) 0.15749(17) 0.7920(4)
H66 H 0.8561 0.1490 0.8315
H67 H 0.7114 0.1635 0.7862
C59 C 0.8880(8) 0.18673(18) 0.7833(4)
H68 H 0.8469 0.1932 0.7424
H69 H 0.8798 0.2046 0.8068
C60 C 1.1152(15) 0.1806(5) 0.8600(7)
H70 H 1.0803 0.1648 0.8796
H71 H 1.1005 0.2016 0.8734
C61 C 1.2633(16) 0.1759(5) 0.8785(7)
H72 H 1.3118 0.1842 0.9180
H73 H 1.2824 0.1530 0.8798
C62 C 1.456(3) 0.1855(8) 0.8612(14)
H74 H 1.4747 0.1627 0.8598
H75 H 1.5041 0.1928 0.9015
C63 C 1.5037(9) 0.2030(3) 0.8238(4)
H76 H 1.6066 0.2053 0.8422
H77 H 1.4619 0.2243 0.8171
C64 C 0.5877(9) 0.0146(2) 0.7516(6)
C65 C 0.5201(11) -0.0208(2) 0.8054(5)
C66 C 0.3788(10) -0.0300(2) 0.7751(4)
H78 H 0.3114 -0.0156 0.7509
C67 C 0.3422(11) -0.0595(3) 0.7814(5)
H79 H 0.2487 -0.0659 0.7590
C68 C 0.4354(9) -0.0822(2) 0.8197(4)
C69 C 0.5752(10) -0.0718(3) 0.8483(4)
H80 H 0.6450 -0.0860 0.8721
C70 C 0.6097(10) -0.0418(2) 0.8420(5)
H81 H 0.7024 -0.0350 0.8647
C71 C 0.3903(10) -0.1150(2) 0.8228(4)
H82 H 0.2925 -0.1153 0.8192
H83 H 0.4504 -0.1245 0.8603
C72 C 0.3407(8) -0.16603(17) 0.7702(3)
H84 H 0.2454 -0.1637 0.7690
H85 H 0.3977 -0.1778 0.8055
C73 C 0.3331(7) -0.18423(17) 0.7189(4)
C74 C 0.2144(8) -0.2034(2) 0.6883(4)
H86 H 0.1405 -0.2046 0.7008
C75 C 0.2062(10) -0.2194(2) 0.6427(4)
H87 H 0.1245 -0.2315 0.6228
C76 C 0.3131(9) -0.2196(3) 0.6219(4)
H88 H 0.3066 -0.2323 0.5902
C77 C 0.4270(9) -0.2004(2) 0.6498(4)
H89 H 0.4982 -0.1991 0.6357
C78 C 0.4400(8) -0.1833(2) 0.6966(4)
H90 H 0.5204 -0.1706 0.7151
H91? H 1.4437 0.2215 0.8210
H92? H 1.6032 0.2094 0.8402
C79? C 1.473(6) 0.1735(15) 0.859(3)
H93? H 1.5165 0.1545 0.8510
H94? H 1.5233 0.1780 0.9006
O21? O 1.3260(14) 0.1646(5) 0.8496(7)
C80? C 1.260(3) 0.1892(8) 0.8786(13)
H95? H 1.2901 0.1828 0.9192
H96? H 1.3051 0.2098 0.8789
C81? C 1.104(3) 0.1952(8) 0.8555(12)
H97? H 1.0680 0.1878 0.8837
H98? H 1.0863 0.2181 0.8497
loop_
_geom_bond_atom_site_label_1
_geom_bond_atom_site_label_2
_geom_bond_site_symmetry_1
_geom_bond_site_symmetry_2
P1 F1 1_555 1_555
F2 P1 1_555 1_555
F3 P1 1_555 1_555
F4 P1 1_555 1_555
F5 P1 1_555 1_555
F6 P1 1_555 1_555
P2 F7 1_555 1_555
F8 P2 1_555 1_555
F9 P2 1_555 1_555
F10 P2 1_555 1_555
F11 P2 1_555 1_555
F12 P2 1_555 1_555
O1 C6 1_555 1_555
O2 C8 1_555 1_555
O3 C10 1_555 1_555
O4 C12 1_555 1_555
O5 C18 1_555 1_555
O6 C20 1_555 1_555
O7 C22 1_555 1_555
O8 C1 1_555 1_555
O9 C25 1_555 1_555
O10 C25 1_555 1_555
N1 H1 1_555 1_555
H2 N1 1_555 1_555
C1 C2 1_555 1_555
C2 H3 1_555 1_555
C3 C2 1_555 1_555
H4 C3 1_555 1_555
C4 C3 1_555 1_555
H5 C4 1_555 1_555
C5 C4 1_555 1_555
H6 C5 1_555 1_555
C6 C1 1_555 1_555
C7 O1 1_555 1_555
H7 C7 1_555 1_555
H8 C7 1_555 1_555
C8 C7 1_555 1_555
H9 C8 1_555 1_555
H10 C8 1_555 1_555
C9 O2 1_555 1_555
H11 C9 1_555 1_555
H12 C9 1_555 1_555
C10 C9 1_555 1_555
H13 C10 1_555 1_555
H14 C10 1_555 1_555
C11 O3 1_555 1_555
C12 C11 1_555 1_555
H15 C12 1_555 1_555
H16 C12 1_555 1_555
C13 O4 1_555 1_555
C14 C13 1_555 1_555
H17 C14 1_555 1_555
C15 C14 1_555 1_555
H18 C15 1_555 1_555
C16 C15 1_555 1_555
C17 C16 1_555 1_555
H19 C17 1_555 1_555
C18 C13 1_555 1_555
C19 O5 1_555 1_555
H20 C19 1_555 1_555
H21 C19 1_555 1_555
C20 C19 1_555 1_555
H22 C20 1_555 1_555
H23 C20 1_555 1_555
C21 O6 1_555 1_555
H24 C21 1_555 1_555
H25 C21 1_555 1_555
C22 C21 1_555 1_555
H26 C22 1_555 1_555
H27 C22 1_555 1_555
C23 O7 1_555 1_555
H28 C23 1_555 1_555
H29 C23 1_555 1_555
C24 O8 1_555 1_555
H30 C24 1_555 1_555
H31 C24 1_555 1_555
C25 C16 1_555 1_555
C26 O10 1_555 1_555
C27 C26 1_555 1_555
H32 C27 1_555 1_555
C28 C27 1_555 1_555
H33 C28 1_555 1_555
C29 C28 1_555 1_555
C30 C29 1_555 1_555
H34 C30 1_555 1_555
C31 C26 1_555 1_555
H35 C31 1_555 1_555
C32 N1 1_555 1_555
H36 C32 1_555 1_555
H37 C32 1_555 1_555
C33 N1 1_555 1_555
H38 C33 1_555 1_555
H39 C33 1_555 1_555
C34 C33 1_555 1_555
C35 C34 1_555 1_555
H40 C35 1_555 1_555
C36 C35 1_555 1_555
H41 C36 1_555 1_555
C37 C36 1_555 1_555
H42 C37 1_555 1_555
C38 C37 1_555 1_555
H43 C38 1_555 1_555
C39 C34 1_555 1_555
H44 C39 1_555 1_555
O11 C45 1_555 1_555
O12 C47 1_555 1_555
O13 C49 1_555 1_555
O14 C51 1_555 1_555
O15 C57 1_555 1_555
O16 C59 1_555 1_555
O17 C61 1_555 1_555
O18 C40 1_555 1_555
O19 C64 1_555 1_555
O20 C64 1_555 1_555
N2 H45 1_555 1_555
H46 N2 1_555 1_555
C40 C41 1_555 1_555
C41 H47 1_555 1_555
C42 C41 1_555 1_555
H48 C42 1_555 1_555
C43 C42 1_555 1_555
H49 C43 1_555 1_555
C44 C43 1_555 1_555
H50 C44 1_555 1_555
C45 C40 1_555 1_555
C46 O11 1_555 1_555
H51 C46 1_555 1_555
H52 C46 1_555 1_555
C47 C46 1_555 1_555
H53 C47 1_555 1_555
H54 C47 1_555 1_555
C48 O12 1_555 1_555
H55 C48 1_555 1_555
H56 C48 1_555 1_555
C49 C48 1_555 1_555
H57 C49 1_555 1_555
H58 C49 1_555 1_555
C50 O13 1_555 1_555
H59 C50 1_555 1_555
H60 C50 1_555 1_555
C51 C50 1_555 1_555
H61 C51 1_555 1_555
H62 C51 1_555 1_555
C52 O14 1_555 1_555
C53 C52 1_555 1_555
H63 C53 1_555 1_555
C54 C53 1_555 1_555
C55 C54 1_555 1_555
H64 C55 1_555 1_555
C56 C55 1_555 1_555
H65 C56 1_555 1_555
C57 C52 1_555 1_555
C58 O15 1_555 1_555
H66 C58 1_555 1_555
H67 C58 1_555 1_555
C59 C58 1_555 1_555
H68 C59 1_555 1_555
H69 C59 1_555 1_555
C60 O16 1_555 1_555
H70 C60 1_555 1_555
H71 C60 1_555 1_555
C61 C60 1_555 1_555
H72 C61 1_555 1_555
H73 C61 1_555 1_555
C62 O17 1_555 1_555
H74 C62 1_555 1_555
H75 C62 1_555 1_555
C63 O18 1_555 1_555
H76 C63 1_555 1_555
H77 C63 1_555 1_555
C64 C54 1_555 1_555
C65 O20 1_555 1_555
C66 C65 1_555 1_555
H78 C66 1_555 1_555
C67 C66 1_555 1_555
H79 C67 1_555 1_555
C68 C67 1_555 1_555
C69 C68 1_555 1_555
H80 C69 1_555 1_555
C70 C65 1_555 1_555
H81 C70 1_555 1_555
C71 N2 1_555 1_555
H82 C71 1_555 1_555
H83 C71 1_555 1_555
C72 N2 1_555 1_555
H84 C72 1_555 1_555
H85 C72 1_555 1_555
C73 C72 1_555 1_555
C74 C73 1_555 1_555
H86 C74 1_555 1_555
C75 C74 1_555 1_555
H87 C75 1_555 1_555
C76 C75 1_555 1_555
H88 C76 1_555 1_555
C77 C76 1_555 1_555
H89 C77 1_555 1_555
C78 C73 1_555 1_555
H90 C78 1_555 1_555
C5 C6 1_555 1_555
C17 C18 1_555 1_555
C23 C24 1_555 1_555
C29 C32 1_555 1_555
C30 C31 1_555 1_555
C38 C39 1_555 1_555
C44 C45 1_555 1_555
C56 C57 1_555 1_555
C62 C63 1_555 1_555
C68 C71 1_555 1_555
C69 C70 1_555 1_555
C77 C78 1_555 1_555

#END
