
#######################################################################
#
#                 Cambridge Crystallographic Data Centre
#                                CCDC 
#
#######################################################################
#
# If this CIF has been generated from an entry in the Cambridge 
# Structural Database, then it will include bibliographic, chemical, 
# crystal, experimental, refinement or atomic coordinate data resulting 
# from the CCDC's data processing and validation procedures.
#
#######################################################################

data_DOHREX
_chemical_name_common            Sulindac
_chemical_formula_moiety         'C20 H17 F1 O3 S1'
_chemical_name_systematic        
'2-(6-Fluoro-2-methyl-3-((4-methylsulfinylphenyl)methylidene)inden-1-yl)acetic acid'
_chemical_properties_biological  
'sulfide metabolite with antiinflammatory activity'
_symmetry_cell_setting           orthorhombic
_symmetry_space_group_name_H-M   'P b c a'
_symmetry_Int_Tables_number      61
_space_group_name_Hall           '-P 2ac 2ab'
loop_
_symmetry_equiv_pos_site_id
_symmetry_equiv_pos_as_xyz
1 x,y,z
2 1/2-x,-y,1/2+z
3 1/2+x,1/2-y,-z
4 -x,1/2+y,1/2-z
5 -x,-y,-z
6 1/2+x,y,1/2-z
7 1/2-x,1/2+y,z
8 x,1/2-y,1/2+z
_cell_length_a                   8.166(1)
_cell_length_b                   18.291(8)
_cell_length_c                   23.245(10)
_cell_angle_alpha                90
_cell_angle_beta                 90
_cell_angle_gamma                90
_cell_volume                     3471.97
_cell_formula_units_Z            8
loop_
_atom_site_label
_atom_site_type_symbol
_atom_site_fract_x
_atom_site_fract_y
_atom_site_fract_z
C1 C 0.5367(21) 0.4345(9) 0.2705(8)
C2 C 0.5182(21) 0.4306(10) 0.3330(9)
C3 C 0.5684(20) 0.4939(10) 0.3569(7)
C4 C 0.6906(26) 0.6135(9) 0.3159(8)
C5 C 0.7386(23) 0.6454(11) 0.2639(10)
C6 C 0.7331(22) 0.6135(10) 0.2114(8)
C7 C 0.6655(21) 0.5417(10) 0.2095(8)
C8 C 0.6088(19) 0.5069(9) 0.2587(7)
C9 C 0.6209(20) 0.5432(10) 0.3122(7)
C10 C 0.4892(22) 0.3806(9) 0.2363(7)
C11 C 0.4850(21) 0.3721(9) 0.1740(8)
C12 C 0.4532(20) 0.4276(9) 0.1348(8)
C13 C 0.4592(21) 0.4160(10) 0.0765(8)
C14 C 0.4889(21) 0.3480(10) 0.0547(8)
C15 C 0.5182(24) 0.2875(10) 0.0926(8)
C16 C 0.5160(24) 0.3010(10) 0.1500(8)
C17 C 0.4564(26) 0.3661(11) 0.3650(9)
C18 C 0.5744(23) 0.5138(10) 0.4193(7)
C19 C 0.4274(30) 0.5598(11) 0.4372(7)
O1 O 0.2864(19) 0.5221(7) 0.4329(5)
O2 O 0.4317(21) 0.6201(8) 0.4576(7)
F1 F 0.7995(18) 0.7151(6) 0.2685(5)
S1 S 0.4763(9) 0.3331(4) -0.0201(3)
O3 O 0.4844(14) 0.4073(6) -0.0486(5)
C20 C 0.6530(24) 0.2940(13) -0.0317(9)
H1 H 0.703 0.641 0.357
H2 H 0.780 0.640 0.173
H3 H 0.656 0.514 0.169
H4 H 0.448 0.333 0.260
H5 H 0.420 0.481 0.151
H6 H 0.441 0.461 0.048
H7 H 0.541 0.233 0.076
H8 H 0.536 0.256 0.179
H9 H 0.427 0.323 0.335
H10 H 0.348 0.382 0.388
H11 H 0.548 0.347 0.395
H12 H 0.685 0.545 0.427
H13 H 0.576 0.465 0.445
H14 H 0.654 0.240 -0.013
H15 H 0.748 0.327 -0.013
H16 H 0.674 0.289 -0.078
H17 H 0.216 0.555 0.449
loop_
_geom_bond_atom_site_label_1
_geom_bond_atom_site_label_2
_geom_bond_site_symmetry_1
_geom_bond_site_symmetry_2
C1 C2 1_555 1_555
C2 C3 1_555 1_555
C3 C9 1_555 1_555
C4 C5 1_555 1_555
C5 C6 1_555 1_555
C6 C7 1_555 1_555
C7 C8 1_555 1_555
C8 C1 1_555 1_555
C9 C4 1_555 1_555
C10 C1 1_555 1_555
C11 C10 1_555 1_555
C12 C11 1_555 1_555
C13 C12 1_555 1_555
C14 C13 1_555 1_555
C15 C14 1_555 1_555
C16 C11 1_555 1_555
C17 C2 1_555 1_555
C18 C3 1_555 1_555
C19 C18 1_555 1_555
O1 C19 1_555 1_555
O2 C19 1_555 1_555
F1 C5 1_555 1_555
S1 C14 1_555 1_555
O3 S1 1_555 1_555
C20 S1 1_555 1_555
H1 C4 1_555 1_555
H2 C6 1_555 1_555
H3 C7 1_555 1_555
H4 C10 1_555 1_555
H5 C12 1_555 1_555
H6 C13 1_555 1_555
H7 C15 1_555 1_555
H8 C16 1_555 1_555
H9 C17 1_555 1_555
H10 C17 1_555 1_555
H11 C17 1_555 1_555
H12 C18 1_555 1_555
H13 C18 1_555 1_555
H14 C20 1_555 1_555
H15 C20 1_555 1_555
H16 C20 1_555 1_555
H17 O1 1_555 1_555
C8 C9 1_555 1_555
C15 C16 1_555 1_555

#END
