
#######################################################################
#
#                 Cambridge Crystallographic Data Centre
#                                CCDC 
#
#######################################################################
#
# If this CIF has been generated from an entry in the Cambridge 
# Structural Database, then it will include bibliographic, chemical, 
# crystal, experimental, refinement or atomic coordinate data resulting 
# from the CCDC's data processing and validation procedures.
#
#######################################################################

data_DOHROI
_chemical_name_common            
'C-Methylcalix(4)resorcinarene bis(1,4-bis(4-pyridyl)buta-1,3-diyne) acetonitrile clathrate'
_chemical_formula_moiety         'C32 H32 O8,2(C14 H8 N2),C2 H3 N1'
_chemical_name_systematic        
'2,8,14,20-Tetramethyl-4,6,10,12,16,18,22,24-octahydroxycalix(4)arene bis(1,4-bis(4-pyridyl)buta-1,3-diyne) acetonitrile clathrate'
_symmetry_cell_setting           monoclinic
_symmetry_space_group_name_H-M   'P 2/c'
_symmetry_Int_Tables_number      13
_space_group_name_Hall           '-P 2yc'
loop_
_symmetry_equiv_pos_site_id
_symmetry_equiv_pos_as_xyz
1 x,y,z
2 -x,y,1/2-z
3 -x,-y,-z
4 x,-y,1/2+z
_cell_length_a                   11.5578(6)
_cell_length_b                   7.3346(4)
_cell_length_c                   30.2748(17)
_cell_angle_alpha                90
_cell_angle_beta                 99.987(2)
_cell_angle_gamma                90
_cell_volume                     2527.56
_exptl_crystal_colour            orange
_exptl_crystal_description       block
_chemical_melting_point          290-300deg.C
_cell_formula_units_Z            2
loop_
_atom_site_label
_atom_site_type_symbol
_atom_site_fract_x
_atom_site_fract_y
_atom_site_fract_z
O1 O -0.38800(15) 0.4401(3) 0.32179(7)
H1 H -0.4051 0.3684 0.3404
O2 O -0.01830(16) 0.4189(3) 0.42255(6)
H2 H -0.0558 0.3466 0.4352
O3 O 0.18125(18) 0.3043(3) 0.38728(7)
H3 H 0.1388 0.3642 0.4008
O4 O 0.38012(16) 0.3108(3) 0.26573(7)
H4 H 0.3945 0.3727 0.2448
C1 C -0.2735(2) 0.4939(4) 0.33416(9)
C2 C -0.2050(2) 0.4286(4) 0.37290(9)
H5 H -0.2365 0.3471 0.3912
C3 C -0.0889(2) 0.4851(4) 0.38441(9)
C4 C -0.0402(2) 0.6082(3) 0.35831(9)
C5 C -0.1122(2) 0.6697(4) 0.31912(9)
H6 H -0.0805 0.7509 0.3008
C6 C -0.2288(2) 0.6157(3) 0.30611(9)
C7 C 0.2081(2) 0.4051(4) 0.35224(9)
C8 C 0.2787(2) 0.3213(4) 0.32584(10)
H7 H 0.3055 0.2034 0.3328
C9 C 0.3103(2) 0.4085(4) 0.28952(9)
C10 C 0.2719(2) 0.5861(3) 0.27824(9)
C11 C 0.2004(2) 0.6647(4) 0.30543(8)
H8 H 0.1727 0.7820 0.2983
C12 C 0.1669(2) 0.5814(3) 0.34250(8)
C13 C 0.0870(2) 0.6738(4) 0.37077(9)
H9 H 0.115(2) 0.636(3) 0.4018(10)
C14 C -0.3034(2) 0.6840(4) 0.26241(9)
H10 H -0.385(2) 0.651(3) 0.2638(9)
C15 C 0.0958(2) 0.8809(4) 0.37016(10)
H11 H 0.1766 0.9167 0.3781
H12 H 0.0517 0.9315 0.3913
H13 H 0.0646 0.9252 0.3407
C16 C -0.3001(3) 0.8915(4) 0.25870(11)
H14 H -0.2228 0.9296 0.2551
H15 H -0.3195 0.9450 0.2854
H16 H -0.3561 0.9304 0.2332
O1A O 0.38800(15) 0.4401(3) 0.17821(7)
H1A H 0.4051 0.3684 0.1596
O2A O 0.01830(16) 0.4189(3) 0.07745(6)
H2A H 0.0558 0.3466 0.0648
O3A O -0.18125(18) 0.3043(3) 0.11272(7)
H3A H -0.1388 0.3642 0.0992
O4A O -0.38012(16) 0.3108(3) 0.23427(7)
H4A H -0.3945 0.3727 0.2552
C1A C 0.2735(2) 0.4939(4) 0.16584(9)
C2A C 0.2050(2) 0.4286(4) 0.12710(9)
H5A H 0.2365 0.3471 0.1088
C3A C 0.0889(2) 0.4851(4) 0.11559(9)
C4A C 0.0402(2) 0.6082(3) 0.14169(9)
C5A C 0.1122(2) 0.6697(4) 0.18088(9)
H6A H 0.0805 0.7509 0.1992
C6A C 0.2288(2) 0.6157(3) 0.19389(9)
C7A C -0.2081(2) 0.4051(4) 0.14776(9)
C8A C -0.2787(2) 0.3213(4) 0.17416(10)
H7A H -0.3055 0.2034 0.1672
C9A C -0.3103(2) 0.4085(4) 0.21048(9)
C10A C -0.2719(2) 0.5861(3) 0.22176(9)
C11A C -0.2004(2) 0.6647(4) 0.19457(8)
H8A H -0.1727 0.7820 0.2017
C12A C -0.1669(2) 0.5814(3) 0.15750(8)
C13A C -0.0870(2) 0.6738(4) 0.12923(9)
H9A H -0.115(2) 0.636(3) 0.0982(10)
C14A C 0.3034(2) 0.6840(4) 0.23759(9)
H10A H 0.385(2) 0.651(3) 0.2362(9)
C15A C -0.0958(2) 0.8809(4) 0.12984(10)
H11A H -0.1766 0.9167 0.1219
H12A H -0.0517 0.9315 0.1087
H13A H -0.0646 0.9252 0.1593
C16A C 0.3001(3) 0.8915(4) 0.24130(11)
H14A H 0.2228 0.9296 0.2449
H15A H 0.3195 0.9450 0.2146
H16A H 0.3561 0.9304 0.2668
N1 N 0.5482(2) 1.1578(5) 0.37406(10)
N2 N 0.1280(2) -0.1245(4) 0.54480(9)
C17 C 0.5252(3) 0.9935(7) 0.35716(12)
H17 H 0.5431 0.9704 0.3289
C18 C 0.4767(3) 0.8532(5) 0.37809(12)
H18 H 0.4624 0.7401 0.3643
C19 C 0.4500(2) 0.8857(4) 0.42020(11)
C20 C 0.4018(3) 0.7448(5) 0.44436(11)
C21 C 0.3631(3) 0.6239(5) 0.46369(11)
C22 C 0.3165(3) 0.4818(5) 0.48498(11)
C23 C 0.2750(3) 0.3546(4) 0.50131(11)
C24 C 0.2254(2) 0.1934(4) 0.51670(10)
C25 C 0.1850(2) 0.0560(4) 0.48686(10)
H19 H 0.1896 0.0681 0.4566
C26 C 0.1382(2) -0.0981(4) 0.50205(10)
H20 H 0.1120 -0.1895 0.4815
C27 C 0.1675(3) 0.0078(5) 0.57333(11)
H21 H 0.1622 -0.0085 0.6034
C28 C 0.2157(3) 0.1679(5) 0.56119(11)
H22 H 0.2412 0.2572 0.5825
C29 C 0.4718(3) 1.0585(5) 0.43764(11)
H23 H 0.4535 1.0874 0.4655
C30 C 0.5204(3) 1.1873(5) 0.41373(12)
H24 H 0.5346 1.3026 0.4263
N3 N 0.0000 0.0023(9) 0.2500
C31 C 0.0000 0.3310(10) 0.2500
C32 C 0.0000 0.1519(6) 0.2500
H25? H 0.0711 0.3746 0.2414
H26? H -0.0048 0.3746 0.2795
H27? H -0.0663 0.3746 0.2291
loop_
_geom_bond_atom_site_label_1
_geom_bond_atom_site_label_2
_geom_bond_site_symmetry_1
_geom_bond_site_symmetry_2
O1 H1 1_555 1_555
O2 H2 1_555 1_555
O3 H3 1_555 1_555
O4 H4 1_555 1_555
N1 C17 1_555 1_555
N2 C26 1_555 1_555
N3 C32 1_555 1_555
C1 O1 1_555 1_555
C2 C1 1_555 1_555
H5 C2 1_555 1_555
C3 O2 1_555 1_555
C4 C3 1_555 1_555
C5 C4 1_555 1_555
H6 C5 1_555 1_555
C6 C1 1_555 1_555
C7 O3 1_555 1_555
C8 C7 1_555 1_555
H7 C8 1_555 1_555
C9 O4 1_555 1_555
C10 C9 1_555 1_555
C11 C10 1_555 1_555
H8 C11 1_555 1_555
C12 C7 1_555 1_555
C13 C4 1_555 1_555
H9 C13 1_555 1_555
C14 C6 1_555 1_555
H10 C14 1_555 1_555
C15 C13 1_555 1_555
H11 C15 1_555 1_555
H12 C15 1_555 1_555
H13 C15 1_555 1_555
C16 C14 1_555 1_555
H14 C16 1_555 1_555
H15 C16 1_555 1_555
H16 C16 1_555 1_555
C17 H17 1_555 1_555
C18 C17 1_555 1_555
H18 C18 1_555 1_555
C19 C18 1_555 1_555
C20 C19 1_555 1_555
C21 C20 1_555 1_555
C22 C21 1_555 1_555
C23 C22 1_555 1_555
C24 C23 1_555 1_555
C25 C24 1_555 1_555
H19 C25 1_555 1_555
C26 C25 1_555 1_555
H20 C26 1_555 1_555
C27 N2 1_555 1_555
H21 C27 1_555 1_555
C28 C24 1_555 1_555
H22 C28 1_555 1_555
C29 C19 1_555 1_555
H23 C29 1_555 1_555
C30 N1 1_555 1_555
H24 C30 1_555 1_555
C31 C32 1_555 1_555
O1A H1A 1_555 1_555
O2A H2A 1_555 1_555
O3A H3A 1_555 1_555
O4A H4A 1_555 1_555
C1A O1A 1_555 1_555
C2A C1A 1_555 1_555
H5A C2A 1_555 1_555
C3A O2A 1_555 1_555
C4A C3A 1_555 1_555
C5A C4A 1_555 1_555
H6A C5A 1_555 1_555
C6A C1A 1_555 1_555
C7A O3A 1_555 1_555
C8A C7A 1_555 1_555
H7A C8A 1_555 1_555
C9A O4A 1_555 1_555
C10A C14 1_555 1_555
C11A C10A 1_555 1_555
H8A C11A 1_555 1_555
C12A C7A 1_555 1_555
C13A C4A 1_555 1_555
H9A C13A 1_555 1_555
C14A C10 1_555 1_555
H10A C14A 1_555 1_555
C15A C13A 1_555 1_555
H11A C15A 1_555 1_555
H12A C15A 1_555 1_555
H13A C15A 1_555 1_555
C16A C14A 1_555 1_555
H14A C16A 1_555 1_555
H15A C16A 1_555 1_555
H16A C16A 1_555 1_555
C2 C3 1_555 1_555
C5 C6 1_555 1_555
C8 C9 1_555 1_555
C11 C12 1_555 1_555
C12 C13 1_555 1_555
C27 C28 1_555 1_555
C29 C30 1_555 1_555
C2A C3A 1_555 1_555
C5A C6A 1_555 1_555
C6A C14A 1_555 1_555
C8A C9A 1_555 1_555
C9A C10A 1_555 1_555
C11A C12A 1_555 1_555
C12A C13A 1_555 1_555

#END
