
#######################################################################
#
#                 Cambridge Crystallographic Data Centre
#                                CCDC 
#
#######################################################################
#
# If this CIF has been generated from an entry in the Cambridge 
# Structural Database, then it will include bibliographic, chemical, 
# crystal, experimental, refinement or atomic coordinate data resulting 
# from the CCDC's data processing and validation procedures.
#
#######################################################################

data_DOHRUO
_chemical_name_common            
'C-Isobutylcalix(4)resorcinarene 1,4-bis(4-pyridyl)buta-1,3-diyne bis(methanol) clathrate'
_chemical_formula_moiety         'C44 H56 O8,C14 H8 N2,2(C1 H4 O1)'
_chemical_name_systematic        
'2,8,14,20-Tetraisobutyl-4,6,10,12,16,18,22,24-octahydroxycalix(4)arene 1,4-bis(4-pyridyl)buta-1,3-diyne bis(methanol) clathrate'
_symmetry_cell_setting           triclinic
_symmetry_space_group_name_H-M   'P -1'
_symmetry_Int_Tables_number      2
_space_group_name_Hall           '-P 1'
loop_
_symmetry_equiv_pos_site_id
_symmetry_equiv_pos_as_xyz
1 x,y,z
2 -x,-y,-z
_cell_length_a                   13.2748(7)
_cell_length_b                   14.0586(7)
_cell_length_c                   18.2857(9)
_cell_angle_alpha                73.1820(10)
_cell_angle_beta                 85.9120(10)
_cell_angle_gamma                66.5000(10)
_cell_volume                     2991.9
_exptl_crystal_colour            red
_exptl_crystal_description       Block
_chemical_melting_point          294-302deg.C
_cell_formula_units_Z            2
loop_
_atom_site_label
_atom_site_type_symbol
_atom_site_fract_x
_atom_site_fract_y
_atom_site_fract_z
O1 O 0.14600(16) 0.44425(14) 1.02463(10)
H1 H 0.1156 0.4931 1.0446
O2 O 0.23858(18) 0.72280(15) 0.84814(11)
H2 H 0.2003 0.7582 0.8759
O3 O 0.17565(19) 0.77577(16) 0.69120(12)
H3 H 0.2099 0.7588 0.7317
O4 O 0.15243(18) 0.65843(16) 0.48186(11)
H4 H 0.1794 0.6079 0.4630
O5 O 0.15964(18) 0.49074(15) 0.43386(9)
H5 H 0.1086 0.4987 0.4068
O6 O 0.04107(17) 0.22479(15) 0.60141(10)
H6 H -0.0036 0.2464 0.5654
O7 O -0.03283(16) 0.26391(18) 0.74383(12)
H7 H -0.0014 0.2325 0.7121
O8 O 0.02044(15) 0.37799(14) 0.94753(10)
H8 H 0.0675 0.3784 0.9741
C1 C 0.1981(2) 0.4801(2) 0.96073(13)
C2 C 0.1915(2) 0.5854(2) 0.93814(14)
H9 H 0.1517 0.6333 0.9658
C3 C 0.2445(2) 0.61897(19) 0.87412(14)
C4 C 0.3047(2) 0.54833(19) 0.83211(13)
C5 C 0.30573(19) 0.44367(18) 0.85600(13)
H10 H 0.3430 0.3963 0.8273
C6 C 0.25440(19) 0.40725(18) 0.91968(13)
C7 C 0.2201(2) 0.6940(2) 0.65730(15)
C8 C 0.1702(2) 0.7111(2) 0.58871(16)
H11 H 0.1111 0.7760 0.5677
C9 C 0.2073(2) 0.6321(2) 0.55074(15)
C10 C 0.2947(2) 0.5338(2) 0.58087(13)
C11 C 0.3447(2) 0.5200(2) 0.64940(13)
H12 H 0.4040 0.4552 0.6701
C12 C 0.3109(2) 0.5980(2) 0.68910(13)
C13 C 0.1684(2) 0.4121(2) 0.50136(13)
C14 C 0.0991(2) 0.3576(2) 0.51573(14)
H13 H 0.0454 0.3732 0.4790
C15 C 0.1095(2) 0.2801(2) 0.58461(14)
C16 C 0.1892(2) 0.25501(19) 0.64056(13)
C17 C 0.2555(2) 0.31233(19) 0.62441(13)
H14 H 0.3074 0.2984 0.6619
C18 C 0.2492(2) 0.3897(2) 0.55540(13)
C19 C 0.0431(2) 0.2681(2) 0.78809(14)
C20 C 0.0011(2) 0.3188(2) 0.84462(14)
H15 H -0.0745 0.3478 0.8498
C21 C 0.0702(2) 0.32654(18) 0.89332(13)
C22 C 0.18388(19) 0.28286(17) 0.88788(12)
C23 C 0.2233(2) 0.23297(17) 0.83009(12)
H16 H 0.2989 0.2044 0.8248
C24 C 0.1563(2) 0.22328(18) 0.77974(12)
C25 C 0.3680(2) 0.5820(2) 0.76378(14)
H17 H 0.364(2) 0.653(2) 0.7630(15)
C26 C 0.4893(2) 0.5071(2) 0.77320(16)
H18 H 0.5246 0.5273 0.7264
H19 H 0.4959 0.4336 0.7806
C27 C 0.5497(3) 0.5096(4) 0.8399(2)
H20 H 0.515(3) 0.487(3) 0.887(3)
C28 C 0.5484(5) 0.6155(5) 0.8348(5)
H21 H 0.5718 0.6445 0.7855
H22 H 0.5974 0.6084 0.8740
H23 H 0.4752 0.6635 0.8414
C29 C 0.6697(5) 0.4270(6) 0.8456(5)
H24 H 0.7011 0.4394 0.7966
H25 H 0.6713 0.3551 0.8614
H26 H 0.7113 0.4352 0.8825
C30 C 0.3292(2) 0.4465(2) 0.53963(15)
H27 H 0.321(2) 0.484(2) 0.4847(17)
C31 C 0.4488(2) 0.3654(2) 0.55624(16)
H28 H 0.4602 0.3300 0.6108
H29 H 0.4961 0.4050 0.5426
C32 C 0.4847(3) 0.2783(3) 0.5144(2)
H30 H 0.439(3) 0.236(3) 0.531(2)
C33 C 0.6033(4) 0.2015(4) 0.5367(3)
H31 H 0.6229 0.1441 0.5132
H32 H 0.6120 0.1716 0.5913
H33 H 0.6502 0.2401 0.5199
C34 C 0.4676(4) 0.3252(4) 0.4289(2)
H34 H 0.5112 0.3670 0.4109
H35 H 0.3913 0.3709 0.4159
H36 H 0.4893 0.2676 0.4054
C35 C 0.2027(2) 0.1687(2) 0.71702(13)
H37 H 0.157(2) 0.131(2) 0.7124(15)
C36 C 0.3208(2) 0.0844(2) 0.73302(15)
H38 H 0.3266 0.0348 0.7836
H39 H 0.3691 0.1209 0.7336
C37 C 0.3609(3) 0.0190(3) 0.6752(2)
H40 H 0.344(3) 0.070(3) 0.624(2)
C38 C 0.3044(5) -0.0549(5) 0.6806(4)
H41 H 0.3184 -0.1051 0.7308
H42 H 0.3316 -0.0939 0.6432
H43 H 0.2267 -0.0134 0.6712
C39 C 0.4847(4) -0.0436(4) 0.6840(3)
H44 H 0.5035 -0.0990 0.7320
H45 H 0.5198 0.0048 0.6824
H46 H 0.5090 -0.0763 0.6430
C40 C 0.2581(2) 0.29295(19) 0.94234(14)
H47 H 0.226(2) 0.282(2) 0.9926(16)
C41 C 0.3754(2) 0.2074(2) 0.95247(16)
H48 H 0.4119 0.2205 0.9050
H49 H 0.3728 0.1368 0.9626
C42 C 0.4435(3) 0.2055(3) 1.0168(2)
H50 H 0.437(3) 0.280(3) 1.010(2)
C43 C 0.4031(5) 0.1663(6) 1.0941(3)
H51 H 0.4156 0.0915 1.1038
H52 H 0.3258 0.2083 1.0949
H53 H 0.4421 0.1741 1.1328
C44 C 0.5628(4) 0.1364(5) 1.0129(4)
H54 H 0.5777 0.0631 1.0423
H55 H 0.6074 0.1631 1.0333
H56 H 0.5794 0.1388 0.9606
N1 N 0.0743(3) 0.4526(2) 0.32257(13)
N2 N 0.1637(2) -0.15029(18) -0.05767(14)
C45 C 0.1651(4) 0.3925(5) 0.2983(3)
H57 H 0.2311 0.3891 0.3154
C46 C 0.1694(4) 0.3331(5) 0.2488(3)
H58 H 0.2366 0.2903 0.2338
C47 C 0.0733(3) 0.3385(3) 0.22220(16)
C48 C 0.0766(3) 0.2725(3) 0.17435(18)
C49 C 0.0871(3) 0.2106(3) 0.13929(18)
C50 C 0.1027(3) 0.1370(3) 0.09980(18)
C51 C 0.1182(3) 0.0715(3) 0.06634(18)
C52 C 0.1345(2) -0.0054(2) 0.02477(16)
C53 C 0.1438(3) 0.0227(2) -0.05293(17)
H59 H 0.1404 0.0913 -0.0792
C54 C 0.1581(3) -0.0518(2) -0.09129(16)
H60 H 0.1642 -0.0317 -0.1440
C55 C 0.1529(3) -0.1760(2) 0.01668(18)
H61 H 0.1556 -0.2449 0.0412
C56 C 0.1379(3) -0.1070(3) 0.06026(17)
H62 H 0.1301 -0.1287 0.1127
C57 C -0.0226(3) 0.4060(2) 0.24434(17)
H63 H -0.0901 0.4147 0.2258
C58 C -0.0178(3) 0.4607(2) 0.29438(17)
H64 H -0.0837 0.5061 0.3091
C59 C 0.2642(18) 0.7795(17) 0.2812(11)
O9 O 0.3073(10) 0.683(2) 0.3204(9)
C61 C 0.8797(16) 0.9534(17) 0.6242(10)
O11 O 0.879(2) 0.950(3) 0.5670(19)
C63 C 0.877(2) 1.071(2) 0.7007(13)
O13 O 0.9788(7) 1.0096(6) 0.7298(4)
O10? O 0.4195(12) 0.8163(10) 0.2273(6)
C60? C 0.322(2) 0.846(2) 0.2402(10)
C62? C 0.893(2) 1.043(2) 0.5865(17)
O12? O 0.9706(17) 1.0072(14) 0.626(3)
loop_
_geom_bond_atom_site_label_1
_geom_bond_atom_site_label_2
_geom_bond_site_symmetry_1
_geom_bond_site_symmetry_2
O1 H1 1_555 1_555
O2 H2 1_555 1_555
O3 H3 1_555 1_555
O4 H4 1_555 1_555
O5 H5 1_555 1_555
O6 H6 1_555 1_555
O7 H7 1_555 1_555
O8 H8 1_555 1_555
N1 C45 1_555 1_555
N2 C54 1_555 1_555
C1 O1 1_555 1_555
C2 C1 1_555 1_555
H9 C2 1_555 1_555
C3 O2 1_555 1_555
C4 C3 1_555 1_555
C5 C4 1_555 1_555
H10 C5 1_555 1_555
C6 C1 1_555 1_555
C7 O3 1_555 1_555
C8 C7 1_555 1_555
H11 C8 1_555 1_555
C9 O4 1_555 1_555
C10 C9 1_555 1_555
C11 C10 1_555 1_555
H12 C11 1_555 1_555
C12 C7 1_555 1_555
C13 O5 1_555 1_555
C14 C13 1_555 1_555
H13 C14 1_555 1_555
C15 O6 1_555 1_555
C16 C15 1_555 1_555
C17 C16 1_555 1_555
H14 C17 1_555 1_555
C18 C13 1_555 1_555
C19 O7 1_555 1_555
C20 C19 1_555 1_555
H15 C20 1_555 1_555
C21 O8 1_555 1_555
C22 C21 1_555 1_555
C23 C22 1_555 1_555
H16 C23 1_555 1_555
C24 C19 1_555 1_555
C25 C4 1_555 1_555
H17 C25 1_555 1_555
C26 C25 1_555 1_555
H18 C26 1_555 1_555
H19 C26 1_555 1_555
C27 C26 1_555 1_555
H20 C27 1_555 1_555
C28 C27 1_555 1_555
H21 C28 1_555 1_555
H22 C28 1_555 1_555
H23 C28 1_555 1_555
C29 C27 1_555 1_555
H24 C29 1_555 1_555
H25 C29 1_555 1_555
H26 C29 1_555 1_555
C30 C10 1_555 1_555
H27 C30 1_555 1_555
C31 C30 1_555 1_555
H28 C31 1_555 1_555
H29 C31 1_555 1_555
C32 C31 1_555 1_555
H30 C32 1_555 1_555
C33 C32 1_555 1_555
H31 C33 1_555 1_555
H32 C33 1_555 1_555
H33 C33 1_555 1_555
C34 C32 1_555 1_555
H34 C34 1_555 1_555
H35 C34 1_555 1_555
H36 C34 1_555 1_555
C35 C16 1_555 1_555
H37 C35 1_555 1_555
C36 C35 1_555 1_555
H38 C36 1_555 1_555
H39 C36 1_555 1_555
C37 C36 1_555 1_555
H40 C37 1_555 1_555
C38 C37 1_555 1_555
H41 C38 1_555 1_555
H42 C38 1_555 1_555
H43 C38 1_555 1_555
C39 C37 1_555 1_555
H44 C39 1_555 1_555
H45 C39 1_555 1_555
H46 C39 1_555 1_555
C40 C6 1_555 1_555
H47 C40 1_555 1_555
C41 C40 1_555 1_555
H48 C41 1_555 1_555
H49 C41 1_555 1_555
C42 C41 1_555 1_555
H50 C42 1_555 1_555
C43 C42 1_555 1_555
H51 C43 1_555 1_555
H52 C43 1_555 1_555
H53 C43 1_555 1_555
C44 C42 1_555 1_555
H54 C44 1_555 1_555
H55 C44 1_555 1_555
H56 C44 1_555 1_555
C45 H57 1_555 1_555
C46 C45 1_555 1_555
H58 C46 1_555 1_555
C47 C46 1_555 1_555
C48 C47 1_555 1_555
C49 C48 1_555 1_555
C50 C49 1_555 1_555
C51 C50 1_555 1_555
C52 C51 1_555 1_555
C53 C52 1_555 1_555
H59 C53 1_555 1_555
C54 C53 1_555 1_555
H60 C54 1_555 1_555
C55 N2 1_555 1_555
H61 C55 1_555 1_555
C56 C52 1_555 1_555
H62 C56 1_555 1_555
C57 C47 1_555 1_555
H63 C57 1_555 1_555
C58 N1 1_555 1_555
H64 C58 1_555 1_555
C59 O9 1_555 1_555
C61 O11 1_555 1_555
C63 O13 1_555 1_555
C2 C3 1_555 1_555
C5 C6 1_555 1_555
C8 C9 1_555 1_555
C11 C12 1_555 1_555
C12 C25 1_555 1_555
C14 C15 1_555 1_555
C17 C18 1_555 1_555
C18 C30 1_555 1_555
C20 C21 1_555 1_555
C22 C40 1_555 1_555
C23 C24 1_555 1_555
C24 C35 1_555 1_555
C55 C56 1_555 1_555
C57 C58 1_555 1_555

#END
