
#######################################################################
#
#                 Cambridge Crystallographic Data Centre
#                                CCDC 
#
#######################################################################
#
# If this CIF has been generated from an entry in the Cambridge 
# Structural Database, then it will include bibliographic, chemical, 
# crystal, experimental, refinement or atomic coordinate data resulting 
# from the CCDC's data processing and validation procedures.
#
#######################################################################

data_DOHSAW
_chemical_formula_moiety         'C40 H28 N4 S2,C1 H2 Cl2'
_chemical_name_systematic        
"4,4'-[1,3]thiazolo[5,4-d][1,3]thiazole-2,5-diylbis(N,N-diphenylaniline) dichloromethane solvate"
_symmetry_cell_setting           triclinic
_symmetry_space_group_name_H-M   'P -1'
_symmetry_Int_Tables_number      2
_space_group_name_Hall           '-P 1'
loop_
_symmetry_equiv_pos_site_id
_symmetry_equiv_pos_as_xyz
1 x,y,z
2 -x,-y,-z
_cell_length_a                   7.8145(16)
_cell_length_b                   10.362(2)
_cell_length_c                   22.243(4)
_cell_angle_alpha                78.60(3)
_cell_angle_beta                 89.46(3)
_cell_angle_gamma                86.43(3)
_cell_volume                     1762.13
_cell_formula_units_Z            2
loop_
_atom_site_label
_atom_site_type_symbol
_atom_site_fract_x
_atom_site_fract_y
_atom_site_fract_z
C1 C 0.3053(4) 0.6514(3) 0.37792(14)
H1 H 0.3795 0.6360 0.3468
C2 C 0.3701(5) 0.6548(4) 0.43493(16)
H2 H 0.4877 0.6421 0.4420
C3 C 0.2615(6) 0.6768(4) 0.48148(17)
H3 H 0.3049 0.6775 0.5202
C4 C 0.0906(5) 0.6975(4) 0.47041(16)
H4 H 0.0172 0.7122 0.5019
C5 C 0.0237(5) 0.6971(4) 0.41307(15)
H5 H -0.0932 0.7145 0.4058
C6 C 0.1313(4) 0.6707(3) 0.36643(13)
C7 C -0.1485(4) 0.5058(3) 0.34342(15)
H6 H -0.0872 0.4761 0.3797
C8 C -0.2978(5) 0.4492(4) 0.33359(19)
H7 H -0.3372 0.3819 0.3636
C9 C -0.3897(5) 0.4905(4) 0.2802(2)
H8 H -0.4899 0.4509 0.2739
C10 C -0.3323(5) 0.5910(4) 0.23592(18)
H9 H -0.3936 0.6196 0.1996
C11 C -0.1828(4) 0.6492(3) 0.24584(16)
H10 H -0.1450 0.7175 0.2160
C12 C -0.0892(4) 0.6073(3) 0.29921(14)
C13 C 0.1609(4) 0.7231(3) 0.25488(13)
C14 C 0.1925(4) 0.6547(3) 0.20742(13)
H11 H 0.1596 0.5687 0.2116
C15 C 0.2715(4) 0.7133(3) 0.15470(13)
H12 H 0.2901 0.6669 0.1232
C16 C 0.3244(4) 0.8416(3) 0.14762(13)
C17 C 0.3004(4) 0.9066(3) 0.19608(13)
H13 H 0.3398 0.9905 0.1929
C18 C 0.2188(4) 0.8486(3) 0.24922(13)
H14 H 0.2028 0.8940 0.2812
C19 C 0.4003(4) 0.9052(3) 0.08952(13)
C20 C 0.5383(4) 1.0518(3) 0.00750(13)
N1 N 0.0678(3) 0.6649(3) 0.30760(11)
N2 N 0.3843(3) 0.8635(2) 0.03776(11)
S1 S 0.51451(12) 1.04709(9) 0.08492(3)
C1A C 0.6947(4) 1.3486(3) -0.37792(14)
H1A H 0.6205 1.3640 -0.3468
C2A C 0.6299(5) 1.3452(4) -0.43493(16)
H2A H 0.5123 1.3579 -0.4420
C3A C 0.7385(6) 1.3232(4) -0.48148(17)
H3A H 0.6951 1.3225 -0.5202
C4A C 0.9094(5) 1.3025(4) -0.47041(16)
H4A H 0.9828 1.2878 -0.5019
C5A C 0.9763(5) 1.3029(4) -0.41307(15)
H5A H 1.0932 1.2855 -0.4058
C6A C 0.8687(4) 1.3293(3) -0.36643(13)
C7A C 1.1485(4) 1.4942(3) -0.34342(15)
H6A H 1.0872 1.5239 -0.3797
C8A C 1.2978(5) 1.5508(4) -0.33359(19)
H7A H 1.3372 1.6181 -0.3636
C9A C 1.3897(5) 1.5095(4) -0.2802(2)
H8A H 1.4899 1.5491 -0.2739
C10A C 1.3323(5) 1.4090(4) -0.23592(18)
H9A H 1.3936 1.3804 -0.1996
C11A C 1.1828(4) 1.3508(3) -0.24584(16)
H10A H 1.1450 1.2825 -0.2160
C12A C 1.0892(4) 1.3927(3) -0.29921(14)
C13A C 0.8391(4) 1.2769(3) -0.25488(13)
C14A C 0.8075(4) 1.3453(3) -0.20742(13)
H11A H 0.8404 1.4313 -0.2116
C15A C 0.7285(4) 1.2867(3) -0.15470(13)
H12A H 0.7099 1.3331 -0.1232
C16A C 0.6756(4) 1.1584(3) -0.14762(13)
C17A C 0.6996(4) 1.0934(3) -0.19608(13)
H13A H 0.6602 1.0095 -0.1929
C18A C 0.7812(4) 1.1514(3) -0.24922(13)
H14A H 0.7972 1.1060 -0.2812
C19A C 0.5997(4) 1.0948(3) -0.08952(13)
C20A C 0.4617(4) 0.9482(3) -0.00750(13)
N1A N 0.9322(3) 1.3351(3) -0.30760(11)
N2A N 0.6157(3) 1.1365(2) -0.03776(11)
S1A S 0.48549(12) 0.95291(9) -0.08492(3)
C21 C 0.2186(4) 0.2871(3) 0.37697(14)
H15 H 0.2059 0.3662 0.3487
C22 C 0.3087(4) 0.2808(3) 0.43051(14)
H16 H 0.3595 0.3553 0.4375
C23 C 0.3246(5) 0.1662(4) 0.47354(15)
H17 H 0.3836 0.1634 0.5099
C24 C 0.2525(4) 0.0553(3) 0.46254(15)
H18 H 0.2628 -0.0226 0.4917
C25 C 0.1653(4) 0.0584(3) 0.40872(14)
H19 H 0.1188 -0.0175 0.4014
C26 C 0.1467(4) 0.1752(3) 0.36532(12)
C27 C -0.2065(4) 0.1001(3) 0.35950(14)
H20 H -0.1840 0.1414 0.3919
C28 C -0.3489(4) 0.0268(4) 0.36170(18)
H21 H -0.4218 0.0190 0.3954
C29 C -0.3829(5) -0.0346(4) 0.3142(2)
H22 H -0.4756 -0.0875 0.3166
C30 C -0.2805(5) -0.0178(4) 0.2635(2)
H23 H -0.3079 -0.0556 0.2305
C31 C -0.1364(4) 0.0546(3) 0.26058(16)
H24 H -0.0668 0.0642 0.2260
C32 C -0.0961(4) 0.1130(3) 0.30936(13)
C33 C 0.1336(4) 0.2403(3) 0.25357(12)
C34 C 0.3105(4) 0.2244(3) 0.24758(13)
H25 H 0.3757 0.1764 0.2802
C35 C 0.3907(4) 0.2793(3) 0.19370(13)
H26 H 0.5091 0.2676 0.1904
C36 C 0.2964(4) 0.3517(3) 0.14442(13)
C37 C 0.1193(4) 0.3682(3) 0.15078(13)
H27 H 0.0541 0.4158 0.1181
C38 C 0.0384(4) 0.3148(3) 0.20506(13)
H28 H -0.0795 0.3289 0.2089
C39 C 0.3801(4) 0.4104(3) 0.08702(13)
C40 C 0.5845(4) 0.4847(3) 0.00657(14)
N3 N 0.0545(3) 0.1822(3) 0.30951(10)
N4 N 0.2982(4) 0.4743(3) 0.03798(12)
S2 S 0.60466(12) 0.39875(11) 0.08096(4)
C21A C 0.7814(4) 0.7129(3) -0.37697(14)
H15A H 0.7941 0.6338 -0.3487
C22A C 0.6913(4) 0.7192(3) -0.43051(14)
H16A H 0.6405 0.6447 -0.4375
C23A C 0.6754(5) 0.8338(4) -0.47354(15)
H17A H 0.6164 0.8366 -0.5099
C24A C 0.7475(4) 0.9447(3) -0.46254(15)
H18A H 0.7372 1.0226 -0.4917
C25A C 0.8347(4) 0.9416(3) -0.40872(14)
H19A H 0.8812 1.0175 -0.4014
C26A C 0.8533(4) 0.8248(3) -0.36532(12)
C27A C 1.2065(4) 0.8999(3) -0.35950(14)
H20A H 1.1840 0.8586 -0.3919
C28A C 1.3489(4) 0.9732(4) -0.36170(18)
H21A H 1.4218 0.9810 -0.3954
C29A C 1.3829(5) 1.0346(4) -0.3142(2)
H22A H 1.4756 1.0875 -0.3166
C30A C 1.2805(5) 1.0178(4) -0.2635(2)
H23A H 1.3079 1.0556 -0.2305
C31A C 1.1364(4) 0.9454(3) -0.26058(16)
H24A H 1.0668 0.9358 -0.2260
C32A C 1.0961(4) 0.8870(3) -0.30936(13)
C33A C 0.8664(4) 0.7597(3) -0.25357(12)
C34A C 0.6895(4) 0.7756(3) -0.24758(13)
H25A H 0.6243 0.8236 -0.2802
C35A C 0.6093(4) 0.7207(3) -0.19370(13)
H26A H 0.4909 0.7324 -0.1904
C36A C 0.7036(4) 0.6483(3) -0.14442(13)
C37A C 0.8807(4) 0.6318(3) -0.15078(13)
H27A H 0.9459 0.5842 -0.1181
C38A C 0.9616(4) 0.6852(3) -0.20506(13)
H28A H 1.0795 0.6711 -0.2089
C39A C 0.6199(4) 0.5896(3) -0.08702(13)
C40A C 0.4155(4) 0.5153(3) -0.00657(14)
N3A N 0.9455(3) 0.8178(3) -0.30951(10)
N4A N 0.7018(4) 0.5257(3) -0.03798(12)
S2A S 0.39534(12) 0.60125(11) -0.08096(4)
C41 C 0.9969(7) 0.7530(6) 0.0096(3)
H29 H 1.1026 0.7691 0.0286
H30 H 1.0130 0.6668 -0.0012
Cl1 Cl 0.9722(3) 0.86525(18) -0.05635(8)
Cl2 Cl 0.8406(3) 0.7442(2) 0.06362(9)
loop_
_geom_bond_atom_site_label_1
_geom_bond_atom_site_label_2
_geom_bond_site_symmetry_1
_geom_bond_site_symmetry_2
C1 H1 1_555 1_555
C2 C1 1_555 1_555
H2 C2 1_555 1_555
C3 C2 1_555 1_555
H3 C3 1_555 1_555
C4 C3 1_555 1_555
H4 C4 1_555 1_555
C5 C4 1_555 1_555
H5 C5 1_555 1_555
C6 C1 1_555 1_555
C7 H6 1_555 1_555
C8 C7 1_555 1_555
H7 C8 1_555 1_555
C9 C8 1_555 1_555
H8 C9 1_555 1_555
C10 C9 1_555 1_555
H9 C10 1_555 1_555
C11 C10 1_555 1_555
H10 C11 1_555 1_555
C12 C7 1_555 1_555
C13 C14 1_555 1_555
C14 H11 1_555 1_555
C15 C14 1_555 1_555
H12 C15 1_555 1_555
C16 C15 1_555 1_555
C17 C16 1_555 1_555
H13 C17 1_555 1_555
C18 C13 1_555 1_555
H14 C18 1_555 1_555
C19 C16 1_555 1_555
C20 S1 1_555 1_555
N1 C6 1_555 1_555
N2 C19 1_555 1_555
S1 C19 1_555 1_555
C21 H15 1_555 1_555
C22 C21 1_555 1_555
H16 C22 1_555 1_555
C23 C22 1_555 1_555
H17 C23 1_555 1_555
C24 C23 1_555 1_555
H18 C24 1_555 1_555
C25 C24 1_555 1_555
H19 C25 1_555 1_555
C26 C21 1_555 1_555
C27 H20 1_555 1_555
C28 C27 1_555 1_555
H21 C28 1_555 1_555
C29 C28 1_555 1_555
H22 C29 1_555 1_555
C30 C29 1_555 1_555
H23 C30 1_555 1_555
C31 C30 1_555 1_555
H24 C31 1_555 1_555
C32 C27 1_555 1_555
C33 C34 1_555 1_555
C34 H25 1_555 1_555
C35 C34 1_555 1_555
H26 C35 1_555 1_555
C36 C35 1_555 1_555
C37 C36 1_555 1_555
H27 C37 1_555 1_555
C38 C33 1_555 1_555
H28 C38 1_555 1_555
C39 C36 1_555 1_555
C40 S2 1_555 1_555
N3 C26 1_555 1_555
N4 C39 1_555 1_555
S2 C39 1_555 1_555
C41 H29 1_555 1_555
H30 C41 1_555 1_555
Cl1 C41 1_555 1_555
Cl2 C41 1_555 1_555
C1A H1A 1_555 1_555
C2A C1A 1_555 1_555
H2A C2A 1_555 1_555
C3A C2A 1_555 1_555
H3A C3A 1_555 1_555
C4A C3A 1_555 1_555
H4A C4A 1_555 1_555
C5A C4A 1_555 1_555
H5A C5A 1_555 1_555
C6A C1A 1_555 1_555
C7A H6A 1_555 1_555
C8A C7A 1_555 1_555
H7A C8A 1_555 1_555
C9A C8A 1_555 1_555
H8A C9A 1_555 1_555
C10A C9A 1_555 1_555
H9A C10A 1_555 1_555
C11A C10A 1_555 1_555
H10A C11A 1_555 1_555
C12A C7A 1_555 1_555
C13A C14A 1_555 1_555
C14A H11A 1_555 1_555
C15A C14A 1_555 1_555
H12A C15A 1_555 1_555
C16A C15A 1_555 1_555
C17A C16A 1_555 1_555
H13A C17A 1_555 1_555
C18A C13A 1_555 1_555
H14A C18A 1_555 1_555
C19A C16A 1_555 1_555
C20A C20 1_555 1_555
N1A C6A 1_555 1_555
N2A C20 1_555 1_555
S1A C19A 1_555 1_555
C21A H15A 1_555 1_555
C22A C21A 1_555 1_555
H16A C22A 1_555 1_555
C23A C22A 1_555 1_555
H17A C23A 1_555 1_555
C24A C23A 1_555 1_555
H18A C24A 1_555 1_555
C25A C24A 1_555 1_555
H19A C25A 1_555 1_555
C26A C21A 1_555 1_555
C27A H20A 1_555 1_555
C28A C27A 1_555 1_555
H21A C28A 1_555 1_555
C29A C28A 1_555 1_555
H22A C29A 1_555 1_555
C30A C29A 1_555 1_555
H23A C30A 1_555 1_555
C31A C30A 1_555 1_555
H24A C31A 1_555 1_555
C32A C27A 1_555 1_555
C33A C34A 1_555 1_555
C34A H25A 1_555 1_555
C35A C34A 1_555 1_555
H26A C35A 1_555 1_555
C36A C35A 1_555 1_555
C37A C36A 1_555 1_555
H27A C37A 1_555 1_555
C38A C33A 1_555 1_555
H28A C38A 1_555 1_555
C39A C36A 1_555 1_555
C40A C40 1_555 1_555
N3A C26A 1_555 1_555
N4A C40 1_555 1_555
S2A C39A 1_555 1_555
C5 C6 1_555 1_555
C11 C12 1_555 1_555
C12 N1 1_555 1_555
C13 N1 1_555 1_555
C17 C18 1_555 1_555
N2 C20A 1_555 1_555
C25 C26 1_555 1_555
C31 C32 1_555 1_555
C32 N3 1_555 1_555
C33 N3 1_555 1_555
C37 C38 1_555 1_555
N4 C40A 1_555 1_555
C5A C6A 1_555 1_555
C11A C12A 1_555 1_555
C12A N1A 1_555 1_555
C13A N1A 1_555 1_555
C17A C18A 1_555 1_555
C19A N2A 1_555 1_555
C20A S1A 1_555 1_555
C25A C26A 1_555 1_555
C31A C32A 1_555 1_555
C32A N3A 1_555 1_555
C33A N3A 1_555 1_555
C37A C38A 1_555 1_555
C39A N4A 1_555 1_555
C40A S2A 1_555 1_555

#END
