
#######################################################################
#
#                 Cambridge Crystallographic Data Centre
#                                CCDC 
#
#######################################################################
#
# If this CIF has been generated from an entry in the Cambridge 
# Structural Database, then it will include bibliographic, chemical, 
# crystal, experimental, refinement or atomic coordinate data resulting 
# from the CCDC's data processing and validation procedures.
#
#######################################################################

data_DOHSAV
_chemical_name_common            
"C-Isobutylcalix(4)resorcinarene bis(4,4'-bipyridine) hemikis(ethanol) tetrahydrate clathrate"
_chemical_formula_moiety         
'C44 H56 O8,2(C10 H8 N2),0.5(C2 H6 O1),4(H2 O1)'
_chemical_name_systematic        
"2,8,14,20-Tetraisobutyl-4,6,10,12,16,18,22,24-octahydroxycalix(4)arene bis(4,4'-bipyridine) hemikis(ethanol) tetrahydrate clathrate"
_symmetry_cell_setting           triclinic
_symmetry_space_group_name_H-M   'P -1'
_symmetry_Int_Tables_number      2
_space_group_name_Hall           '-P 1'
loop_
_symmetry_equiv_pos_site_id
_symmetry_equiv_pos_as_xyz
1 x,y,z
2 -x,-y,-z
_cell_length_a                   12.049(6)
_cell_length_b                   12.073(6)
_cell_length_c                   24.854(11)
_cell_angle_alpha                93.365(9)
_cell_angle_beta                 96.805(9)
_cell_angle_gamma                105.247(9)
_cell_volume                     3448.35
_exptl_crystal_colour            colorless
_exptl_crystal_description       Block
_chemical_melting_point          294-301deg.C
_cell_formula_units_Z            2
loop_
_atom_site_label
_atom_site_type_symbol
_atom_site_fract_x
_atom_site_fract_y
_atom_site_fract_z
N1 N 0.4740(5) 0.8680(4) 0.65487(19)
N2 N 0.3073(5) 0.9050(5) 0.3765(2)
C45 C 0.5067(8) 0.8106(7) 0.6179(3)
H57 H 0.5562 0.7661 0.6287
C46 C 0.4729(7) 0.8110(7) 0.5637(3)
H58 H 0.5003 0.7674 0.5390
C47 C 0.4004(5) 0.8732(4) 0.5449(2)
C48 C 0.3655(8) 0.9330(9) 0.5839(3)
H59 H 0.3160 0.9783 0.5745
C49 C 0.4032(8) 0.9266(9) 0.6369(3)
H60 H 0.3761 0.9679 0.6627
C50 C 0.3652(5) 0.8809(4) 0.4866(2)
C51 C 0.4018(9) 0.8252(7) 0.4465(3)
H61 H 0.4465 0.7751 0.4556
C52 C 0.3746(9) 0.8406(7) 0.3921(3)
H62 H 0.4052 0.8039 0.3659
C53 C 0.2713(9) 0.9524(10) 0.4138(4)
H63 H 0.2222 0.9977 0.4036
C54 C 0.2970(9) 0.9447(9) 0.4693(3)
H64 H 0.2661 0.9845 0.4942
N3 N 0.0372(5) 0.6362(5) 0.3780(2)
N4 N 0.2036(5) 0.6010(4) 0.65715(19)
C55 C 0.1109(8) 0.5788(9) 0.3944(3)
H65 H 0.1383 0.5390 0.3681
C56 C 0.1502(8) 0.5737(8) 0.4478(3)
H66 H 0.2032 0.5316 0.4568
C57 C 0.1122(5) 0.6298(5) 0.4881(2)
C58 C 0.0384(10) 0.6916(7) 0.4717(3)
H67 H 0.0117 0.7343 0.4970
C59 C 0.0025(10) 0.6905(8) 0.4158(4)
H68 H -0.0501 0.7321 0.4054
C60 C 0.1468(5) 0.6220(4) 0.5469(2)
C61 C 0.2214(7) 0.5600(7) 0.5650(3)
H69 H 0.2548 0.5224 0.5404
C62 C 0.2466(7) 0.5537(7) 0.6203(3)
H70 H 0.2985 0.5120 0.6316
C63 C 0.1367(10) 0.6613(8) 0.6397(3)
H71 H 0.1073 0.6999 0.6657
C64 C 0.1043(9) 0.6742(8) 0.5862(3)
H72 H 0.0536 0.7185 0.5769
O9 O 0.2625(4) 0.6269(4) 0.28053(19)
O10 O 0.4906(4) 0.4085(4) 0.2942(2)
O11 O 0.3880(6) 0.5343(6) 0.3568(3)
O12 O 0.451(2) 0.555(2) 0.4729(10)
O13 O 0.776(3) 0.694(3) 0.6004(12)
O14 O 0.1383(12) 0.9755(11) 0.7259(5)
O15 O 0.749(3) 0.751(2) 0.5013(12)
O16 O 0.758(4) 0.801(4) 0.3882(18)
O1 O 1.2954(4) 1.2037(3) 0.26443(19)
H1 H 1.3042 1.1411 0.2543
O2 O 1.0487(3) 1.4436(3) 0.23764(17)
H2 H 1.1020 1.4806 0.2607
O3 O 0.8114(3) 1.3879(3) 0.23476(13)
H3 H 0.7819 1.4112 0.2596
O4 O 0.4834(3) 1.0649(3) 0.23811(13)
H4 H 0.4532 1.0003 0.2225
O5 O 0.4275(3) 0.8267(3) 0.24215(16)
H5 H 0.4052 0.7886 0.2670
O6 O 0.6818(4) 0.5935(4) 0.26787(17)
H6 H 0.7378 0.5778 0.2568
O7 O 0.9218(3) 0.6425(3) 0.27769(13)
H7 H 0.9604 0.6395 0.3068
O8 O 1.2495(3) 0.9686(3) 0.27628(14)
H8 H 1.2685 0.9451 0.3053
C1 C 1.1946(5) 1.2180(4) 0.2357(2)
C2 C 1.1698(5) 1.3182(5) 0.2487(2)
H9 H 1.2195 1.3729 0.2748
C3 C 1.0683(5) 1.3392(4) 0.2225(2)
C4 C 0.9969(4) 1.2617(4) 0.18193(18)
C5 C 1.0286(4) 1.1610(3) 0.17047(17)
H10 H 0.9794 1.1059 0.1444
C6 C 1.1270(4) 1.1365(4) 0.19478(18)
C7 C 0.7455(4) 1.2788(4) 0.21409(17)
C8 C 0.6453(4) 1.2264(4) 0.23577(18)
H11 H 0.6216 1.2653 0.2638
C9 C 0.5817(4) 1.1168(4) 0.21534(17)
C10 C 0.6110(4) 1.0574(3) 0.17195(17)
C11 C 0.7108(4) 1.1159(3) 0.15111(17)
H12 H 0.7325 1.0788 0.1219
C12 C 0.7794(4) 1.2246(3) 0.17084(17)
C13 C 0.5247(4) 0.7984(4) 0.2262(2)
C14 C 0.5605(5) 0.7150(5) 0.2533(2)
H13 H 0.5222 0.6832 0.2814
C15 C 0.6526(5) 0.6785(4) 0.2388(2)
C16 C 0.7101(4) 0.7235(4) 0.19659(17)
C17 C 0.6727(4) 0.8092(3) 0.17121(17)
H14 H 0.7133 0.8433 0.1442
C18 C 0.5785(4) 0.8475(3) 0.18356(17)
C19 C 0.9791(4) 0.7358(4) 0.25246(18)
C20 C 1.0852(4) 0.8044(4) 0.27686(19)
H15 H 1.1183 0.7877 0.3101
C21 C 1.1427(4) 0.8979(4) 0.25208(19)
C22 C 1.0955(4) 0.9241(4) 0.20218(19)
C23 C 0.9879(4) 0.8523(4) 0.17908(18)
H16 H 0.9547 0.8683 0.1457
C24 C 0.9272(4) 0.7579(4) 0.20317(18)
C25 C 0.8917(4) 1.2848(3) 0.14940(17)
H17 H 0.9008 1.3678 0.1554
C26 C 0.8873(4) 1.2572(4) 0.08774(18)
H18 H 0.8749 1.1748 0.0802
H19 H 0.8210 1.2772 0.0690
C27 C 0.9955(4) 1.3193(4) 0.0644(2)
H20 H 1.0613 1.2968 0.0832
C28 C 0.9850(6) 1.2815(6) 0.0050(2)
H21 H 0.9681 1.1990 0.0000
H22 H 1.0567 1.3156 -0.0083
H23 H 0.9234 1.3057 -0.0147
C29 C 1.0229(7) 1.4488(5) 0.0729(3)
H24 H 1.0306 1.4724 0.1110
H25 H 0.9611 1.4738 0.0537
H26 H 1.0942 1.4828 0.0593
C30 C 1.1610(4) 1.0299(4) 0.17579(18)
H27 H 1.2436 1.0435 0.1894
C31 C 1.1491(4) 1.0096(4) 0.11435(19)
H28 H 1.0674 0.9925 0.0999
H29 H 1.1745 0.9418 0.1054
C32 C 1.2166(5) 1.1091(4) 0.0852(2)
H30 H 1.1815 1.1731 0.0897
C33 C 1.2029(7) 1.0743(6) 0.0253(2)
H31 H 1.1218 1.0476 0.0112
H32 H 1.2393 1.0137 0.0193
H33 H 1.2389 1.1395 0.0071
C34 C 1.3446(6) 1.1534(6) 0.1094(3)
H34 H 1.3824 1.2157 0.0899
H35 H 1.3812 1.0920 0.1064
H36 H 1.3506 1.1802 0.1470
C35 C 0.8086(4) 0.6809(4) 0.17754(18)
H37 H 0.8019 0.6054 0.1914
C36 C 0.7972(4) 0.6602(4) 0.11583(19)
H38 H 0.8594 0.6285 0.1067
H39 H 0.8076 0.7339 0.1007
C37 C 0.6815(4) 0.5791(4) 0.0886(2)
H40 H 0.6202 0.6160 0.0948
C38 C 0.6520(6) 0.4630(5) 0.1117(3)
H41 H 0.5782 0.4166 0.0936
H42 H 0.6483 0.4742 0.1499
H43 H 0.7109 0.4248 0.1062
C39 C 0.6820(6) 0.5633(5) 0.0282(2)
H44 H 0.6087 0.5134 0.0113
H45 H 0.7432 0.5297 0.0210
H46 H 0.6944 0.6369 0.0137
C40 C 0.5385(4) 0.9363(3) 0.15200(17)
H47 H 0.4595 0.9317 0.1597
C41 C 0.5295(4) 0.9106(4) 0.09034(18)
H48 H 0.5033 0.9706 0.0728
H49 H 0.6068 0.9150 0.0815
C42 C 0.4494(5) 0.7947(5) 0.0662(2)
H50 H 0.4858 0.7360 0.0794
C43 C 0.4432(8) 0.7846(7) 0.0056(3)
H51 H 0.3924 0.7111 -0.0092
H52 H 0.5194 0.7914 -0.0040
H53 H 0.4138 0.8450 -0.0089
C44 C 0.3337(7) 0.7663(7) 0.0819(4)
H54 H 0.3394 0.7717 0.1209
H55 H 0.2923 0.6891 0.0673
H56 H 0.2929 0.8192 0.0679
C65? C 0.104(3) 1.000(3) 0.6574(9)
C66? C -0.023(4) 0.906(4) 0.656(2)
C67? C 0.061(6) 0.984(6) 0.5906(13)
loop_
_geom_bond_atom_site_label_1
_geom_bond_atom_site_label_2
_geom_bond_site_symmetry_1
_geom_bond_site_symmetry_2
O1 H1 1_555 1_555
O2 H2 1_555 1_555
O3 H3 1_555 1_555
O4 H4 1_555 1_555
O5 H5 1_555 1_555
O6 H6 1_555 1_555
O7 H7 1_555 1_555
O8 H8 1_555 1_555
N1 C45 1_555 1_555
N2 C52 1_555 1_555
N3 C55 1_555 1_555
N4 C62 1_555 1_555
C1 O1 1_555 1_555
C2 C1 1_555 1_555
H9 C2 1_555 1_555
C3 O2 1_555 1_555
C4 C3 1_555 1_555
C5 C4 1_555 1_555
H10 C5 1_555 1_555
C6 C1 1_555 1_555
C7 O3 1_555 1_555
C8 C7 1_555 1_555
H11 C8 1_555 1_555
C9 O4 1_555 1_555
C10 C9 1_555 1_555
C11 C10 1_555 1_555
H12 C11 1_555 1_555
C12 C7 1_555 1_555
C13 O5 1_555 1_555
C14 C13 1_555 1_555
H13 C14 1_555 1_555
C15 O6 1_555 1_555
C16 C15 1_555 1_555
C17 C16 1_555 1_555
H14 C17 1_555 1_555
C18 C13 1_555 1_555
C19 O7 1_555 1_555
C20 C19 1_555 1_555
H15 C20 1_555 1_555
C21 O8 1_555 1_555
C22 C21 1_555 1_555
C23 C22 1_555 1_555
H16 C23 1_555 1_555
C24 C19 1_555 1_555
C25 C4 1_555 1_555
H17 C25 1_555 1_555
C26 C25 1_555 1_555
H18 C26 1_555 1_555
H19 C26 1_555 1_555
C27 C26 1_555 1_555
H20 C27 1_555 1_555
C28 C27 1_555 1_555
H21 C28 1_555 1_555
H22 C28 1_555 1_555
H23 C28 1_555 1_555
C29 C27 1_555 1_555
H24 C29 1_555 1_555
H25 C29 1_555 1_555
H26 C29 1_555 1_555
C30 C6 1_555 1_555
H27 C30 1_555 1_555
C31 C30 1_555 1_555
H28 C31 1_555 1_555
H29 C31 1_555 1_555
C32 C31 1_555 1_555
H30 C32 1_555 1_555
C33 C32 1_555 1_555
H31 C33 1_555 1_555
H32 C33 1_555 1_555
H33 C33 1_555 1_555
C34 C32 1_555 1_555
H34 C34 1_555 1_555
H35 C34 1_555 1_555
H36 C34 1_555 1_555
C35 C16 1_555 1_555
H37 C35 1_555 1_555
C36 C35 1_555 1_555
H38 C36 1_555 1_555
H39 C36 1_555 1_555
C37 C36 1_555 1_555
H40 C37 1_555 1_555
C38 C37 1_555 1_555
H41 C38 1_555 1_555
H42 C38 1_555 1_555
H43 C38 1_555 1_555
C39 C37 1_555 1_555
H44 C39 1_555 1_555
H45 C39 1_555 1_555
H46 C39 1_555 1_555
C40 C10 1_555 1_555
H47 C40 1_555 1_555
C41 C40 1_555 1_555
H48 C41 1_555 1_555
H49 C41 1_555 1_555
C42 C41 1_555 1_555
H50 C42 1_555 1_555
C43 C42 1_555 1_555
H51 C43 1_555 1_555
H52 C43 1_555 1_555
H53 C43 1_555 1_555
C44 C42 1_555 1_555
H54 C44 1_555 1_555
H55 C44 1_555 1_555
H56 C44 1_555 1_555
C45 H57 1_555 1_555
C46 C45 1_555 1_555
H58 C46 1_555 1_555
C47 C46 1_555 1_555
C48 C47 1_555 1_555
H59 C48 1_555 1_555
C49 N1 1_555 1_555
H60 C49 1_555 1_555
C50 C47 1_555 1_555
C51 C50 1_555 1_555
H61 C51 1_555 1_555
C52 C51 1_555 1_555
H62 C52 1_555 1_555
C53 N2 1_555 1_555
H63 C53 1_555 1_555
C54 C50 1_555 1_555
H64 C54 1_555 1_555
C55 H65 1_555 1_555
C56 C55 1_555 1_555
H66 C56 1_555 1_555
C57 C56 1_555 1_555
C58 C57 1_555 1_555
H67 C58 1_555 1_555
C59 N3 1_555 1_555
H68 C59 1_555 1_555
C60 C57 1_555 1_555
C61 C60 1_555 1_555
H69 C61 1_555 1_555
C62 C61 1_555 1_555
H70 C62 1_555 1_555
C63 N4 1_555 1_555
H71 C63 1_555 1_555
C64 C60 1_555 1_555
H72 C64 1_555 1_555
C2 C3 1_555 1_555
C5 C6 1_555 1_555
C8 C9 1_555 1_555
C11 C12 1_555 1_555
C12 C25 1_555 1_555
C14 C15 1_555 1_555
C17 C18 1_555 1_555
C18 C40 1_555 1_555
C20 C21 1_555 1_555
C22 C30 1_555 1_555
C23 C24 1_555 1_555
C24 C35 1_555 1_555
C48 C49 1_555 1_555
C53 C54 1_555 1_555
C58 C59 1_555 1_555
C63 C64 1_555 1_555

#END
