
#######################################################################
#
#                 Cambridge Crystallographic Data Centre
#                                CCDC 
#
#######################################################################
#
# If this CIF has been generated from an entry in the Cambridge 
# Structural Database, then it will include bibliographic, chemical, 
# crystal, experimental, refinement or atomic coordinate data resulting 
# from the CCDC's data processing and validation procedures.
#
#######################################################################

data_DOHVED
_chemical_name_common            favipiravir
_chemical_formula_moiety         'C5 H4 F1 N3 O2'
_chemical_name_systematic        6-fluoro-3-hydroxypyrazine-2-carboxamide
_symmetry_cell_setting           orthorhombic
_symmetry_space_group_name_H-M   'P n a 21'
_symmetry_Int_Tables_number      33
_space_group_name_Hall           'P 2c -2n'
loop_
_symmetry_equiv_pos_site_id
_symmetry_equiv_pos_as_xyz
1 x,y,z
2 -x,-y,1/2+z
3 1/2-x,1/2+y,1/2+z
4 1/2+x,1/2-y,z
_cell_length_a                   9.1106(8)
_cell_length_b                   14.7619(14)
_cell_length_c                   4.6910(4)
_cell_angle_alpha                90
_cell_angle_beta                 90
_cell_angle_gamma                90
_cell_volume                     630.891
_exptl_crystal_colour            colorless
_exptl_crystal_description       prism
_cell_formula_units_Z            4
loop_
_atom_site_label
_atom_site_type_symbol
_atom_site_fract_x
_atom_site_fract_y
_atom_site_fract_z
C1 C 0.58401(16) 0.37687(10) 0.4812(4)
C2 C 0.62387(16) 0.28347(10) 0.5666(4)
C3 C 0.72844(18) 0.26822(11) 0.7790(4)
C4 C 0.6953(2) 0.11753(13) 0.7310(6)
H1 H 0.7158 0.0581 0.7830
C5 C 0.5930(2) 0.13417(12) 0.5174(6)
F1 F 0.52761(18) 0.06475(8) 0.3848(5)
N1 N 0.48498(16) 0.38598(10) 0.2783(4)
H2 H 0.4586 0.4391 0.2236
H3 H 0.4468 0.3388 0.2007
N2 N 0.55671(16) 0.21483(10) 0.4349(4)
N3 N 0.76299(19) 0.18386(11) 0.8601(4)
O1 O 0.64331(14) 0.44245(8) 0.6017(4)
O2 O 0.79937(16) 0.33419(10) 0.9134(4)
H4 H 0.7627 0.3831 0.8713
loop_
_geom_bond_atom_site_label_1
_geom_bond_atom_site_label_2
_geom_bond_site_symmetry_1
_geom_bond_site_symmetry_2
C1 C2 1_555 1_555
C2 C3 1_555 1_555
C3 N3 1_555 1_555
C4 H1 1_555 1_555
C5 C4 1_555 1_555
F1 C5 1_555 1_555
N1 C1 1_555 1_555
H2 N1 1_555 1_555
H3 N1 1_555 1_555
N2 C2 1_555 1_555
N3 C4 1_555 1_555
O1 C1 1_555 1_555
O2 C3 1_555 1_555
H4 O2 1_555 1_555
C5 N2 1_555 1_555

#END
