
#######################################################################
#
#                 Cambridge Crystallographic Data Centre
#                                CCDC 
#
#######################################################################
#
# If this CIF has been generated from an entry in the Cambridge 
# Structural Database, then it will include bibliographic, chemical, 
# crystal, experimental, refinement or atomic coordinate data resulting 
# from the CCDC's data processing and validation procedures.
#
#######################################################################

data_DOJHOA01
_chemical_formula_moiety         'C16 H14 O5'
_chemical_name_systematic        2,2'-oxybis(2-hydroxy-1-phenylethanone)
_symmetry_cell_setting           monoclinic
_symmetry_space_group_name_H-M   'P 21/c'
_symmetry_Int_Tables_number      14
_space_group_name_Hall           '-P 2ybc'
loop_
_symmetry_equiv_pos_site_id
_symmetry_equiv_pos_as_xyz
1 x,y,z
2 -x,1/2+y,1/2-z
3 -x,-y,-z
4 x,1/2-y,1/2+z
_cell_length_a                   10.1392(19)
_cell_length_b                   6.5215(12)
_cell_length_c                   22.148(4)
_cell_angle_alpha                90
_cell_angle_beta                 99.666(6)
_cell_angle_gamma                90
_cell_volume                     1443.7
_exptl_crystal_colour            colorless
_exptl_crystal_description       block
_cell_formula_units_Z            4
loop_
_atom_site_label
_atom_site_type_symbol
_atom_site_fract_x
_atom_site_fract_y
_atom_site_fract_z
O1 O 0.13797(12) 1.33311(18) 0.08993(5)
O2 O 0.00694(13) 1.16447(18) 0.17157(5)
O3 O 0.14732(10) 0.88918(15) 0.16109(4)
O4 O -0.00707(12) 0.62706(19) 0.16398(6)
O5 O 0.20182(12) 0.44646(17) 0.23178(5)
C1 C 0.15064(19) 0.8271(3) 0.02552(8)
H1 H 0.0936 0.7583 0.0474
C2 C 0.2018(2) 0.7272(3) -0.02059(9)
H2 H 0.1778 0.5920 -0.0302
C3 C 0.2883(3) 0.8277(4) -0.05220(10)
H3 H 0.3222 0.7604 -0.0833
C4 C 0.3245(2) 1.0259(5) -0.03805(10)
H4 H 0.3847 1.0919 -0.0589
C5 C 0.27194(19) 1.1290(3) 0.00715(8)
H5 H 0.2954 1.2649 0.0160
C6 C 0.18445(16) 1.0299(3) 0.03914(7)
C7 C 0.12761(15) 1.1476(2) 0.08603(7)
C8 C 0.05370(15) 1.0337(2) 0.13077(7)
H6 H -0.0222 0.9595 0.1074
C9 C 0.08691(15) 0.7527(2) 0.19855(7)
H7 H 0.0425 0.8335 0.2266
C10 C 0.20163(15) 0.6321(2) 0.23591(7)
C11 C 0.31028(15) 0.7434(2) 0.27566(7)
C12 C 0.43013(17) 0.6408(3) 0.29512(8)
H8 H 0.4397 0.5057 0.2831
C13 C 0.5340(2) 0.7368(4) 0.33169(9)
H9 H 0.6140 0.6672 0.3441
C14 C 0.5206(2) 0.9351(4) 0.35018(9)
H10 H 0.5912 0.9998 0.3752
C15 C 0.4022(2) 1.0384(3) 0.33156(9)
H11 H 0.3932 1.1728 0.3444
C16 C 0.29689(18) 0.9444(3) 0.29407(8)
H12 H 0.2176 1.0155 0.2813
H13 H 0.074(2) 1.244(4) 0.1852(10)
H14 H 0.042(3) 0.535(5) 0.1438(15)
loop_
_geom_bond_atom_site_label_1
_geom_bond_atom_site_label_2
_geom_bond_site_symmetry_1
_geom_bond_site_symmetry_2
O1 C7 1_555 1_555
O2 C8 1_555 1_555
O3 C8 1_555 1_555
O4 C9 1_555 1_555
O5 C10 1_555 1_555
C1 H1 1_555 1_555
C2 C1 1_555 1_555
H2 C2 1_555 1_555
C3 C2 1_555 1_555
H3 C3 1_555 1_555
C4 C3 1_555 1_555
H4 C4 1_555 1_555
C5 C4 1_555 1_555
H5 C5 1_555 1_555
C6 C1 1_555 1_555
C7 C6 1_555 1_555
C8 C7 1_555 1_555
H6 C8 1_555 1_555
C9 O3 1_555 1_555
H7 C9 1_555 1_555
C10 C9 1_555 1_555
C11 C10 1_555 1_555
C12 C11 1_555 1_555
H8 C12 1_555 1_555
C13 C12 1_555 1_555
H9 C13 1_555 1_555
C14 C13 1_555 1_555
H10 C14 1_555 1_555
C15 C14 1_555 1_555
H11 C15 1_555 1_555
C16 C11 1_555 1_555
H12 C16 1_555 1_555
H13 O2 1_555 1_555
H14 O4 1_555 1_555
C5 C6 1_555 1_555
C15 C16 1_555 1_555

#END
