
#######################################################################
#
#                 Cambridge Crystallographic Data Centre
#                                CCDC 
#
#######################################################################
#
# If this CIF has been generated from an entry in the Cambridge 
# Structural Database, then it will include bibliographic, chemical, 
# crystal, experimental, refinement or atomic coordinate data resulting 
# from the CCDC's data processing and validation procedures.
#
#######################################################################

data_DOJWUV
_chemical_formula_moiety         'C23 H22 O5'
_chemical_name_systematic        
'dimethyl 2-(2-acetyl-1,4-diphenylbuta-2,3-dienyl)malonate'
_symmetry_cell_setting           monoclinic
_symmetry_space_group_name_H-M   'P 21/n'
_symmetry_Int_Tables_number      14
_space_group_name_Hall           '-P 2yn'
loop_
_symmetry_equiv_pos_site_id
_symmetry_equiv_pos_as_xyz
1 x,y,z
2 1/2-x,1/2+y,1/2-z
3 -x,-y,-z
4 1/2+x,1/2-y,1/2+z
_cell_length_a                   13.0956(16)
_cell_length_b                   8.0263(10)
_cell_length_c                   19.516(2)
_cell_angle_alpha                90
_cell_angle_beta                 95.751(2)
_cell_angle_gamma                90
_cell_volume                     2040.99
_exptl_crystal_colour            colorless
_exptl_crystal_description       prismatic
_cell_formula_units_Z            4
loop_
_atom_site_label
_atom_site_type_symbol
_atom_site_fract_x
_atom_site_fract_y
_atom_site_fract_z
O1 O 0.19600(17) 0.2725(3) -0.05439(10)
O2 O 0.35933(13) -0.0685(2) 0.01882(9)
O3 O 0.42302(11) -0.1546(2) 0.12208(8)
O4 O 0.20008(14) -0.2160(3) 0.19246(9)
O5 O 0.14679(12) -0.22361(19) 0.08148(8)
C1 C 0.39497(17) 0.3823(3) 0.16055(11)
H1 H 0.3703 0.4657 0.1876
C2 C 0.33394(16) 0.3318(3) 0.10797(11)
C3 C 0.26942(15) 0.2662(3) 0.05981(10)
C4 C 0.25373(18) 0.3387(3) -0.01063(12)
C5 C 0.30955(19) 0.4945(3) -0.02539(13)
H2 H 0.3049 0.5123 -0.0742
H3 H 0.3803 0.4844 -0.0076
H4 H 0.2793 0.5872 -0.0038
C6 C 0.20296(15) 0.1163(2) 0.07492(11)
C7 C 0.26594(15) -0.0161(3) 0.11699(11)
C8 C 0.35359(16) -0.0804(3) 0.07871(12)
C9 C 0.51160(18) -0.2254(4) 0.09377(14)
H5 H 0.4901 -0.3160 0.0636
H6 H 0.5594 -0.2657 0.1306
H7 H 0.5440 -0.1415 0.0684
C10 C 0.20146(16) -0.1620(3) 0.13590(12)
C11 C 0.0789(2) -0.3618(3) 0.09330(15)
H8 H 0.1145 -0.4402 0.1242
H9 H 0.0577 -0.4158 0.0503
H10 H 0.0196 -0.3206 0.1131
C12 C 0.49946(16) 0.3203(3) 0.18136(11)
C13 C 0.54361(19) 0.3506(3) 0.24748(13)
H11 H 0.5098 0.4178 0.2768
C14 C 0.6376(2) 0.2820(4) 0.27051(15)
H12 H 0.6666 0.3017 0.3152
C15 C 0.6876(2) 0.1846(4) 0.22694(18)
H13 H 0.7502 0.1363 0.2426
C16 C 0.64643(19) 0.1578(3) 0.16073(15)
H14 H 0.6820 0.0946 0.1310
C17 C 0.55278(18) 0.2241(3) 0.13840(12)
H15 H 0.5246 0.2041 0.0935
C18 C 0.10918(14) 0.1725(2) 0.10842(10)
C19 C 0.01377(17) 0.1688(3) 0.07168(13)
H16 H 0.0066 0.1260 0.0272
C20 C -0.07127(19) 0.2283(4) 0.10040(17)
H17 H -0.1353 0.2233 0.0752
C21 C -0.0628(2) 0.2938(3) 0.16477(17)
H18 H -0.1202 0.3367 0.1832
C22 C 0.0313(2) 0.2957(3) 0.20227(13)
H19 H 0.0376 0.3381 0.2468
C23 C 0.11682(16) 0.2353(3) 0.17450(11)
H20 H 0.1802 0.2370 0.2006
H21 H 0.1811(12) 0.069(2) 0.0328(9)
H22 H 0.2939(12) 0.0276(19) 0.1568(9)
loop_
_geom_bond_atom_site_label_1
_geom_bond_atom_site_label_2
_geom_bond_site_symmetry_1
_geom_bond_site_symmetry_2
O1 C4 1_555 1_555
O2 C8 1_555 1_555
O3 C8 1_555 1_555
O4 C10 1_555 1_555
O5 C10 1_555 1_555
C1 H1 1_555 1_555
C2 C1 1_555 1_555
C3 C2 1_555 1_555
C4 C3 1_555 1_555
C5 C4 1_555 1_555
H2 C5 1_555 1_555
H3 C5 1_555 1_555
H4 C5 1_555 1_555
C6 C3 1_555 1_555
C7 C6 1_555 1_555
C8 C7 1_555 1_555
C9 O3 1_555 1_555
H5 C9 1_555 1_555
H6 C9 1_555 1_555
H7 C9 1_555 1_555
C10 C7 1_555 1_555
C11 O5 1_555 1_555
H8 C11 1_555 1_555
H9 C11 1_555 1_555
H10 C11 1_555 1_555
C12 C1 1_555 1_555
C13 C12 1_555 1_555
H11 C13 1_555 1_555
C14 C13 1_555 1_555
H12 C14 1_555 1_555
C15 C14 1_555 1_555
H13 C15 1_555 1_555
C16 C15 1_555 1_555
H14 C16 1_555 1_555
C17 C12 1_555 1_555
H15 C17 1_555 1_555
C18 C6 1_555 1_555
C19 C18 1_555 1_555
H16 C19 1_555 1_555
C20 C19 1_555 1_555
H17 C20 1_555 1_555
C21 C20 1_555 1_555
H18 C21 1_555 1_555
C22 C21 1_555 1_555
H19 C22 1_555 1_555
C23 C18 1_555 1_555
H20 C23 1_555 1_555
H21 C6 1_555 1_555
H22 C7 1_555 1_555
C16 C17 1_555 1_555
C22 C23 1_555 1_555

#END
